# Generated by pormake.
# Topology wkj, (6)-cn, num edge types: 1
# Building blocks:
#     Node 0, Type 0, BuildingBlock: PAMTOO_clean_sbu_0, # of connection points: 6
#     Node 1, Type 0, BuildingBlock: PAMTOO_clean_sbu_0, # of connection points: 6
#     Node 2, Type 0, BuildingBlock: PAMTOO_clean_sbu_0, # of connection points: 6
#     Node 3, Type 0, BuildingBlock: PAMTOO_clean_sbu_0, # of connection points: 6
#     Node 4, Type 0, BuildingBlock: PAMTOO_clean_sbu_0, # of connection points: 6
#     Node 5, Type 0, BuildingBlock: PAMTOO_clean_sbu_0, # of connection points: 6
#     Node 6, Type 0, BuildingBlock: PAMTOO_clean_sbu_0, # of connection points: 6
#     Node 7, Type 0, BuildingBlock: PAMTOO_clean_sbu_0, # of connection points: 6
#     Node 8, Type 0, BuildingBlock: PAMTOO_clean_sbu_0, # of connection points: 6
#     Node 9, Type 0, BuildingBlock: PAMTOO_clean_sbu_0, # of connection points: 6
#     Node 10, Type 0, BuildingBlock: PAMTOO_clean_sbu_0, # of connection points: 6
#     Node 11, Type 0, BuildingBlock: PAMTOO_clean_sbu_0, # of connection points: 6
#     Edge 12, Type (0, 0), BuildingBlock: MIFKUJ_clean_linker_0, # of connection points: 2
#     Edge 13, Type (0, 0), BuildingBlock: MIFKUJ_clean_linker_0, # of connection points: 2
#     Edge 14, Type (0, 0), BuildingBlock: MIFKUJ_clean_linker_0, # of connection points: 2
#     Edge 15, Type (0, 0), BuildingBlock: MIFKUJ_clean_linker_0, # of connection points: 2
#     Edge 16, Type (0, 0), BuildingBlock: MIFKUJ_clean_linker_0, # of connection points: 2
#     Edge 17, Type (0, 0), BuildingBlock: MIFKUJ_clean_linker_0, # of connection points: 2
#     Edge 18, Type (0, 0), BuildingBlock: MIFKUJ_clean_linker_0, # of connection points: 2
#     Edge 19, Type (0, 0), BuildingBlock: MIFKUJ_clean_linker_0, # of connection points: 2
#     Edge 20, Type (0, 0), BuildingBlock: MIFKUJ_clean_linker_0, # of connection points: 2
#     Edge 21, Type (0, 0), BuildingBlock: MIFKUJ_clean_linker_0, # of connection points: 2
#     Edge 22, Type (0, 0), BuildingBlock: MIFKUJ_clean_linker_0, # of connection points: 2
#     Edge 23, Type (0, 0), BuildingBlock: MIFKUJ_clean_linker_0, # of connection points: 2
#     Edge 24, Type (0, 0), BuildingBlock: MIFKUJ_clean_linker_0, # of connection points: 2
#     Edge 25, Type (0, 0), BuildingBlock: MIFKUJ_clean_linker_0, # of connection points: 2
#     Edge 26, Type (0, 0), BuildingBlock: MIFKUJ_clean_linker_0, # of connection points: 2
#     Edge 27, Type (0, 0), BuildingBlock: MIFKUJ_clean_linker_0, # of connection points: 2
#     Edge 28, Type (0, 0), BuildingBlock: MIFKUJ_clean_linker_0, # of connection points: 2
#     Edge 29, Type (0, 0), BuildingBlock: MIFKUJ_clean_linker_0, # of connection points: 2
#     Edge 30, Type (0, 0), BuildingBlock: MIFKUJ_clean_linker_0, # of connection points: 2
#     Edge 31, Type (0, 0), BuildingBlock: MIFKUJ_clean_linker_0, # of connection points: 2
#     Edge 32, Type (0, 0), BuildingBlock: MIFKUJ_clean_linker_0, # of connection points: 2
#     Edge 33, Type (0, 0), BuildingBlock: MIFKUJ_clean_linker_0, # of connection points: 2
#     Edge 34, Type (0, 0), BuildingBlock: MIFKUJ_clean_linker_0, # of connection points: 2
#     Edge 35, Type (0, 0), BuildingBlock: MIFKUJ_clean_linker_0, # of connection points: 2
#     Edge 36, Type (0, 0), BuildingBlock: MIFKUJ_clean_linker_0, # of connection points: 2
#     Edge 37, Type (0, 0), BuildingBlock: MIFKUJ_clean_linker_0, # of connection points: 2
#     Edge 38, Type (0, 0), BuildingBlock: MIFKUJ_clean_linker_0, # of connection points: 2
#     Edge 39, Type (0, 0), BuildingBlock: MIFKUJ_clean_linker_0, # of connection points: 2
#     Edge 40, Type (0, 0), BuildingBlock: MIFKUJ_clean_linker_0, # of connection points: 2
#     Edge 41, Type (0, 0), BuildingBlock: MIFKUJ_clean_linker_0, # of connection points: 2
#     Edge 42, Type (0, 0), BuildingBlock: MIFKUJ_clean_linker_0, # of connection points: 2
#     Edge 43, Type (0, 0), BuildingBlock: MIFKUJ_clean_linker_0, # of connection points: 2
#     Edge 44, Type (0, 0), BuildingBlock: MIFKUJ_clean_linker_0, # of connection points: 2
#     Edge 45, Type (0, 0), BuildingBlock: MIFKUJ_clean_linker_0, # of connection points: 2
#     Edge 46, Type (0, 0), BuildingBlock: MIFKUJ_clean_linker_0, # of connection points: 2
#     Edge 47, Type (0, 0), BuildingBlock: MIFKUJ_clean_linker_0, # of connection points: 2
# Relax obj value: 0.613
# Max RMSD: 0.191
# Mean RMSD: 0.191
data_MOF--net-wkj--node1-PAMTOO_clean_sbu_0--edge1-MIFKUJ_clean_linker_0
_symmetry_space_group_name_H-M    P1
_symmetry_Int_Tables_number       1
_symmetry_cell_setting            triclinic
loop_
_symmetry_equiv_pos_as_xyz
'x, y, z'
_cell_length_a     64.40546
_cell_length_b     64.928707
_cell_length_c     37.712598
_cell_angle_alpha  90.07624
_cell_angle_beta   90.29985
_cell_angle_gamma 119.71603
loop_
_atom_site_label
_atom_site_type_symbol
_atom_site_fract_x
_atom_site_fract_y
_atom_site_fract_z
_atom_type_partial_charge
Dy0 Dy 0.5209 0.10187 0.32398 0.0
Dy1 Dy 0.46776 0.08279 0.34696 0.0
C2 C 0.49728 0.13513 0.31854 0.0
O3 O 0.52407 0.10405 0.38515 0.0
O4 O 0.48504 0.08835 0.4026 0.0
O5 O 0.556 0.13162 0.33379 0.0
O6 O 0.55091 0.10599 0.29293 0.0
O7 O 0.47529 0.05534 0.36907 0.0
O8 O 0.51314 0.06749 0.34767 0.0
O9 O 0.46542 0.07288 0.28742 0.0
O10 O 0.5018 0.0759 0.27836 0.0
O11 O 0.43087 0.05462 0.34772 0.0
O12 O 0.44012 0.09058 0.36155 0.0
C13 C 0.50801 0.09687 0.41097 0.0
O14 O 0.50909 0.1268 0.30108 0.0
O15 O 0.48353 0.12238 0.34438 0.0
C16 C 0.5743 0.14702 0.27978 0.0
C17 C 0.58273 0.18636 0.23816 0.0
C18 C 0.59508 0.18976 0.27033 0.0
C19 C 0.59083 0.17017 0.29108 0.0
C20 C 0.56322 0.14372 0.2465 0.0
C21 C 0.56746 0.16315 0.22592 0.0
C22 C 0.56478 0.12738 0.30543 0.0
C23 C 0.49435 0.05295 0.36631 0.0
C24 C 0.47962 0.06834 0.26743 0.0
C25 C 0.40596 0.05972 0.388 0.0
C26 C 0.37229 0.04329 0.44283 0.0
C27 C 0.39689 0.05638 0.45065 0.0
C28 C 0.41363 0.06449 0.42341 0.0
C29 C 0.38148 0.04674 0.38006 0.0
C30 C 0.36472 0.03847 0.40731 0.0
C31 C 0.42314 0.06857 0.35899 0.0
H32 H 0.60712 0.20749 0.28011 0.0
H33 H 0.59933 0.17316 0.31689 0.0
H34 H 0.55022 0.12619 0.23708 0.0
H35 H 0.55824 0.16 0.20067 0.0
H36 H 0.40319 0.05988 0.47788 0.0
H37 H 0.43251 0.0744 0.42995 0.0
H38 H 0.37534 0.043 0.35277 0.0
H39 H 0.34587 0.02838 0.40065 0.0
Dy40 Dy 0.40512 0.51486 0.65058 0.0
Dy41 Dy 0.36998 0.46114 0.67118 0.0
C42 C 0.34758 0.49282 0.64616 0.0
O43 O 0.40541 0.51759 0.7118 0.0
O44 O 0.3812 0.47866 0.72729 0.0
O45 O 0.41274 0.55083 0.65786 0.0
O46 O 0.43417 0.54321 0.62175 0.0
O47 O 0.40596 0.46511 0.66754 0.0
O48 O 0.42739 0.50408 0.6823 0.0
O49 O 0.37907 0.45875 0.61195 0.0
O50 O 0.41196 0.49548 0.60489 0.0
O51 O 0.36257 0.42856 0.69625 0.0
O52 O 0.33503 0.42986 0.66465 0.0
C53 C 0.39566 0.50119 0.73695 0.0
O54 O 0.36808 0.50588 0.63001 0.0
O55 O 0.34627 0.47749 0.66981 0.0
C56 C 0.42235 0.57106 0.60398 0.0
C57 C 0.39953 0.58556 0.55412 0.0
C58 C 0.40357 0.59451 0.5889 0.0
C59 C 0.41496 0.58735 0.61362 0.0
C60 C 0.4201 0.56373 0.56844 0.0
C61 C 0.40891 0.57101 0.54375 0.0
C62 C 0.42806 0.55874 0.63194 0.0
C63 C 0.42451 0.48266 0.68269 0.0
C64 C 0.39833 0.47345 0.59314 0.0
C65 C 0.32306 0.4051 0.71516 0.0
C66 C 0.29549 0.37782 0.77276 0.0
C67 C 0.31383 0.40146 0.77781 0.0
C68 C 0.32734 0.415 0.74928 0.0
C69 C 0.30373 0.38227 0.70937 0.0
C70 C 0.28991 0.36877 0.73791 0.0
C71 C 0.34015 0.41748 0.68659 0.0
H72 H 0.39663 0.60582 0.59761 0.0
H73 H 0.41652 0.59328 0.64088 0.0
H74 H 0.4257 0.55128 0.56002 0.0
H75 H 0.40668 0.56439 0.51681 0.0
H76 H 0.31905 0.40913 0.80408 0.0
H77 H 0.34209 0.43271 0.75426 0.0
H78 H 0.30003 0.37447 0.68306 0.0
H79 H 0.27561 0.35087 0.73283 0.0
Dy80 Dy 0.86581 0.40365 0.99028 0.0
Dy81 Dy 0.88995 0.37217 1.0108 0.0
C82 C 0.83618 0.34682 0.97933 0.0
O83 O 0.86046 0.39926 1.05114 0.0
O84 O 0.88139 0.38035 1.06655 0.0
O85 O 0.83395 0.40649 0.99485 0.0
O86 O 0.86414 0.43266 0.96493 0.0
O87 O 0.91473 0.40663 1.03682 0.0
O88 O 0.89742 0.42926 1.02213 0.0
O89 O 0.90297 0.38402 0.95377 0.0
O90 O 0.89126 0.41153 0.94335 0.0
O91 O 0.9204 0.36659 1.01201 0.0
O92 O 0.88512 0.33795 1.02495 0.0
C93 C 0.86947 0.39132 1.07607 0.0
O94 O 0.84116 0.3675 0.96634 0.0
O95 O 0.85101 0.34552 1.00193 0.0
C96 C 0.8253 0.42123 0.94384 0.0
C97 C 0.79063 0.41056 0.89038 0.0
C98 C 0.79044 0.42244 0.92148 0.0
C99 C 0.80764 0.42767 0.94808 0.0
C100 C 0.82587 0.40987 0.91255 0.0
C101 C 0.80882 0.40474 0.88601 0.0
C102 C 0.84172 0.42439 0.97318 0.0
C103 C 0.91344 0.42615 1.03944 0.0
C104 C 0.90332 0.40085 0.93345 0.0
C105 C 0.91774 0.33919 1.0549 0.0
C106 C 0.93669 0.32768 0.11393 0.0
C107 C 0.92062 0.33619 0.11857 0.0
C108 C 0.9113 0.34201 1.08927 0.0
C109 C 0.93374 0.3307 1.05012 0.0
C110 C 0.94326 0.32507 1.07947 0.0
C111 C 0.9079 0.34504 1.02393 0.0
H112 H 0.77664 0.42709 0.92568 0.0
H113 H 0.80682 0.43623 0.97229 0.0
H114 H 0.83926 0.40459 0.9089 0.0
H115 H 0.80985 0.39607 0.86206 0.0
H116 H 0.91564 0.3388 0.1449 0.0
H117 H 0.89913 0.34878 1.09343 0.0
H118 H 0.9389 0.32848 1.0237 0.0
H119 H 0.95563 0.31855 1.07527 0.0
Dy120 Dy 0.44799 0.8761 0.32549 0.0
Dy121 Dy 0.50331 0.89305 0.34643 0.0
C122 C 0.47024 0.84011 0.31388 0.0
O123 O 0.44542 0.87247 0.38599 0.0
O124 O 0.48475 0.88647 0.4018 0.0
O125 O 0.41045 0.85126 0.33091 0.0
O126 O 0.42206 0.88051 0.29438 0.0
O127 O 0.49686 0.92332 0.34194 0.0
O128 O 0.45961 0.90779 0.36141 0.0
O129 O 0.50663 0.90211 0.2872 0.0
O130 O 0.46976 0.89862 0.27753 0.0
O131 O 0.54033 0.92058 0.34497 0.0
O132 O 0.53019 0.88756 0.372 0.0
C133 C 0.46198 0.87839 0.41109 0.0
O134 O 0.45165 0.84354 0.31339 0.0
O135 O 0.49139 0.85691 0.3243 0.0
C136 C 0.38974 0.84336 0.27745 0.0
C137 C 0.36144 0.80766 0.22804 0.0
C138 C 0.38554 0.81417 0.2337 0.0
C139 C 0.39954 0.83187 0.25803 0.0
C140 C 0.36577 0.83713 0.27193 0.0
C141 C 0.35172 0.81949 0.24712 0.0
C142 C 0.40422 0.86043 0.30515 0.0
C143 C 0.48196 0.92468 0.36352 0.0
C144 C 0.49195 0.90575 0.26666 0.0
C145 C 0.56393 0.92213 0.39345 0.0
C146 C 0.59655 0.94762 0.44782 0.0
C147 C 0.57207 0.93359 0.4553 0.0
C148 C 0.55581 0.92099 0.42821 0.0
C149 C 0.58827 0.93631 0.38587 0.0
C150 C 0.60449 0.94906 0.41286 0.0
C151 C 0.54745 0.9088 0.3646 0.0
H152 H 0.39378 0.80587 0.21881 0.0
H153 H 0.41802 0.83645 0.26194 0.0
H154 H 0.35791 0.84574 0.28697 0.0
H155 H 0.33327 0.81495 0.24309 0.0
H156 H 0.56553 0.93253 0.48202 0.0
H157 H 0.53699 0.91036 0.43438 0.0
H158 H 0.59473 0.93741 0.35908 0.0
H159 H 0.62329 0.9597 0.40654 0.0
Dy160 Dy 0.56157 0.44208 0.64589 0.0
Dy161 Dy 0.59834 0.49663 0.66345 0.0
C162 C 0.61852 0.46412 0.63173 0.0
O163 O 0.56388 0.43978 0.70624 0.0
O164 O 0.59198 0.47843 0.71888 0.0
O165 O 0.54189 0.40468 0.65837 0.0
O166 O 0.54075 0.4163 0.60537 0.0
O167 O 0.56588 0.49099 0.69149 0.0
O168 O 0.53847 0.45235 0.67663 0.0
O169 O 0.58183 0.50096 0.61207 0.0
O170 O 0.555 0.46206 0.59978 0.0
O171 O 0.61049 0.53411 0.66277 0.0
O172 O 0.63349 0.52127 0.68344 0.0
C173 C 0.57689 0.45641 0.72992 0.0
O174 O 0.59835 0.44544 0.64101 0.0
O175 O 0.62001 0.48495 0.63142 0.0
C176 C 0.54116 0.38062 0.61122 0.0
C177 C 0.55398 0.35116 0.57336 0.0
C178 C 0.57116 0.37052 0.59337 0.0
C179 C 0.56478 0.38505 0.61212 0.0
C180 C 0.52361 0.36045 0.59349 0.0
C181 C 0.52993 0.34572 0.57487 0.0
C182 C 0.5354 0.39819 0.62571 0.0
C183 C 0.54494 0.47188 0.69508 0.0
C184 C 0.56471 0.48493 0.5915 0.0
C185 C 0.63494 0.55413 0.71122 0.0
C186 C 0.64232 0.58237 0.77142 0.0
C187 C 0.62521 0.55809 0.77176 0.0
C188 C 0.62156 0.54409 0.74188 0.0
C189 C 0.65218 0.57822 0.7107 0.0
C190 C 0.65585 0.59233 0.74067 0.0
C191 C 0.6303 0.53949 0.6796 0.0
H192 H 0.5899 0.3756 0.59255 0.0
H193 H 0.57856 0.40047 0.62581 0.0
H194 H 0.50523 0.35668 0.59272 0.0
H195 H 0.51619 0.33079 0.56019 0.0
H196 H 0.61416 0.55003 0.79479 0.0
H197 H 0.60806 0.5255 0.74251 0.0
H198 H 0.6626 0.58614 0.68706 0.0
H199 H 0.66918 0.61097 0.7398 0.0
Dy200 Dy 0.10624 0.56601 0.99348 0.0
Dy201 Dy 0.08648 0.60197 1.00874 0.0
C202 C 0.14058 0.62352 0.98096 0.0
O203 O 0.10631 0.56577 1.05408 0.0
O204 O 0.09516 0.59367 1.06556 0.0
O205 O 0.12732 0.54989 1.00815 0.0
O206 O 0.11021 0.54243 0.95679 0.0
O207 O 0.05525 0.5664 1.01746 0.0
O208 O 0.07329 0.54396 1.02541 0.0
O209 O 0.07444 0.59126 0.95091 0.0
O210 O 0.08084 0.55967 0.94592 0.0
O211 O 0.05955 0.61249 1.00517 0.0
O212 O 0.09347 0.63544 1.03092 0.0
C213 C 0.10132 0.57801 1.0773 0.0
O214 O 0.139 0.60273 0.98633 0.0
O215 O 0.12167 0.62591 0.98371 0.0
C216 C 0.14934 0.54845 0.95978 0.0
C217 C 0.19119 0.56588 0.91923 0.0
C218 C 0.18971 0.57964 0.94675 0.0
C219 C 0.16898 0.57102 0.96682 0.0
C220 C 0.15137 0.53402 0.93393 0.0
C221 C 0.17224 0.54265 0.91381 0.0
C222 C 0.12617 0.54119 0.97667 0.0
C223 C 0.0558 0.54833 1.0317 0.0
C224 C 0.07166 0.57248 0.93286 0.0
C225 C 0.05964 0.63595 1.05245 0.0
C226 C 0.03396 0.64246 0.10709 0.0
C227 C 0.045 0.62866 0.11264 0.0
C228 C 0.05788 0.6256 1.08563 0.0
C229 C 0.0489 0.64986 1.04672 0.0
C230 C 0.03618 0.65318 1.0739 0.0
C231 C 0.07214 0.63186 1.02347 0.0
H232 H 0.20407 0.59761 0.95134 0.0
H233 H 0.16792 0.58254 0.98666 0.0
H234 H 0.1364 0.5166 0.92806 0.0
H235 H 0.17284 0.53186 0.89235 0.0
H236 H 0.04318 0.61965 0.13756 0.0
H237 H 0.06629 0.615 1.09054 0.0
H238 H 0.0502 0.65801 1.02116 0.0
H239 H 0.02804 0.66403 1.06889 0.0
Dy240 Dy 0.88186 0.44881 0.5453 0.0
Dy241 Dy 0.89954 0.50294 0.5243 0.0
C242 C 0.84515 0.47039 0.55227 0.0
O243 O 0.87396 0.44552 0.48558 0.0
O244 O 0.8851 0.48393 0.47024 0.0
O245 O 0.86683 0.41165 0.53217 0.0
O246 O 0.87315 0.4229 0.58688 0.0
O247 O 0.92276 0.49391 0.49206 0.0
O248 O 0.9152 0.45806 0.51521 0.0
O249 O 0.91661 0.50653 0.57944 0.0
O250 O 0.91073 0.46918 0.58803 0.0
O251 O 0.92761 0.53837 0.51152 0.0
O252 O 0.89145 0.53124 0.51961 0.0
C253 C 0.87703 0.46137 0.461 0.0
O254 O 0.8497 0.45306 0.55837 0.0
O255 O 0.86142 0.49035 0.53843 0.0
C256 C 0.83662 0.38885 0.57359 0.0
C257 C 0.78904 0.36815 0.59786 0.0
C258 C 0.80715 0.36837 0.61933 0.0
C259 C 0.83064 0.37853 0.60725 0.0
C260 C 0.81827 0.38687 0.55093 0.0
C261 C 0.79469 0.37645 0.56286 0.0
C262 C 0.86198 0.40508 0.56509 0.0
C263 C 0.92594 0.47542 0.49224 0.0
C264 C 0.92074 0.49168 0.59825 0.0
C265 C 0.91365 0.55916 0.47687 0.0
C266 C 0.9132 0.58258 0.41462 0.0
C267 C 0.90833 0.55895 0.41329 0.0
C268 C 0.90855 0.54733 0.44418 0.0
C269 C 0.91814 0.58256 0.47856 0.0
C270 C 0.918 0.59427 0.44757 0.0
C271 C 0.91287 0.54664 0.50941 0.0
H272 H 0.80376 0.36251 0.64661 0.0
H273 H 0.84447 0.37995 0.62524 0.0
H274 H 0.82229 0.39469 0.52475 0.0
H275 H 0.7812 0.37621 0.54534 0.0
H276 H 0.90511 0.54964 0.38823 0.0
H277 H 0.90487 0.52917 0.44255 0.0
H278 H 0.92178 0.59177 0.50378 0.0
H279 H 0.92182 0.61247 0.44931 0.0
Dy280 Dy 0.40554 0.8904 0.87248 0.0
Dy281 Dy 0.36182 0.89897 0.8592 0.0
C282 C 0.35158 0.85021 0.89159 0.0
O283 O 0.40426 0.88659 0.81324 0.0
O284 O 0.37087 0.88973 0.80251 0.0
O285 O 0.43356 0.88306 0.85694 0.0
O286 O 0.42526 0.88309 0.91226 0.0
O287 O 0.38992 0.93098 0.83465 0.0
O288 O 0.42257 0.92599 0.84483 0.0
O289 O 0.3776 0.92044 0.91088 0.0
O290 O 0.4092 0.91411 0.9199 0.0
O291 O 0.3414 0.91673 0.86592 0.0
O292 O 0.32618 0.88349 0.83692 0.0
C293 C 0.389 0.88704 0.79041 0.0
O294 O 0.37149 0.85421 0.87616 0.0
O295 O 0.34766 0.86791 0.89553 0.0
C296 C 0.43082 0.85209 0.89288 0.0
C297 C 0.40934 0.80478 0.91603 0.0
C298 C 0.40208 0.81031 0.88393 0.0
C299 C 0.41261 0.83382 0.87258 0.0
C300 C 0.44018 0.84626 0.92228 0.0
C301 C 0.42958 0.82277 0.93375 0.0
C302 C 0.43571 0.87663 0.8888 0.0
C303 C 0.41241 0.93748 0.83059 0.0
C304 C 0.3964 0.92387 0.93019 0.0
C305 C 0.31807 0.91288 0.81644 0.0
C306 C 0.30893 0.93756 0.76333 0.0
C307 C 0.33088 0.93785 0.76451 0.0
C308 C 0.33538 0.92556 0.79079 0.0
C309 C 0.29591 0.91205 0.81505 0.0
C310 C 0.29126 0.92422 0.78836 0.0
C311 C 0.32399 0.90181 0.84552 0.0
H312 H 0.38679 0.79685 0.8694 0.0
H313 H 0.405 0.83786 0.84976 0.0
H314 H 0.4541 0.86009 0.9384 0.0
H315 H 0.43563 0.81931 0.95872 0.0
H316 H 0.34459 0.94758 0.74501 0.0
H317 H 0.35254 0.92626 0.79144 0.0
H318 H 0.28242 0.90232 0.83482 0.0
H319 H 0.27418 0.92367 0.78771 0.0
Dy320 Dy 0.51963 0.41028 0.19866 0.0
Dy321 Dy 0.46492 0.37397 0.17868 0.0
C322 C 0.49697 0.353 0.21104 0.0
O323 O 0.5216 0.40673 0.13788 0.0
O324 O 0.48234 0.38123 0.12289 0.0
O325 O 0.55615 0.41816 0.19372 0.0
O326 O 0.54782 0.4407 0.22605 0.0
O327 O 0.47058 0.4079 0.15599 0.0
O328 O 0.51121 0.43234 0.16237 0.0
O329 O 0.46345 0.38361 0.23755 0.0
O330 O 0.49949 0.41752 0.24299 0.0
O331 O 0.42793 0.36515 0.18248 0.0
O332 O 0.43705 0.3404 0.15852 0.0
C333 C 0.50498 0.39521 0.11309 0.0
O334 O 0.5127 0.37474 0.22102 0.0
O335 O 0.47878 0.34925 0.19096 0.0
C336 C 0.57901 0.43374 0.24521 0.0
C337 C 0.60464 0.42347 0.29626 0.0
C338 C 0.58291 0.42239 0.30505 0.0
C339 C 0.57015 0.42735 0.27973 0.0
C340 C 0.60116 0.4358 0.23672 0.0
C341 C 0.61385 0.4306 0.26201 0.0
C342 C 0.56415 0.43539 0.21682 0.0
C343 C 0.49048 0.42737 0.1485 0.0
C344 C 0.47779 0.40327 0.25561 0.0
C345 C 0.40378 0.34185 0.13532 0.0
C346 C 0.37206 0.33589 1.07944 0.0
C347 C 0.39655 0.34477 1.07286 0.0
C348 C 0.41229 0.34787 0.10058 0.0
C349 C 0.37943 0.33287 0.14207 0.0
C350 C 0.36368 0.32994 0.11439 0.0
C351 C 0.42016 0.34541 0.16481 0.0
H352 H 0.57511 0.41651 0.33102 0.0
H353 H 0.55292 0.42524 0.2868 0.0
H354 H 0.60817 0.4405 0.2101 0.0
H355 H 0.63054 0.43161 0.25455 0.0
H356 H 0.40358 0.34918 1.04623 0.0
H357 H 0.43109 0.35499 0.09488 0.0
H358 H 0.37264 0.32833 0.16883 0.0
H359 H 0.34504 0.32341 0.12048 0.0
Dy360 Dy 0.09337 0.52204 0.54731 0.0
Dy361 Dy 0.07099 0.4672 0.52799 0.0
C362 C 0.12559 0.49616 0.55291 0.0
O363 O 0.09942 0.52294 0.48686 0.0
O364 O 0.0793 0.4834 0.47177 0.0
O365 O 0.11683 0.55845 0.53294 0.0
O366 O 0.10015 0.55045 0.58425 0.0
O367 O 0.04201 0.47644 0.52763 0.0
O368 O 0.06271 0.51492 0.51206 0.0
O369 O 0.06237 0.46759 0.58728 0.0
O370 O 0.0636 0.50329 0.58913 0.0
O371 O 0.043 0.43522 0.5045 0.0
O372 O 0.07034 0.4339 0.5366 0.0
C373 C 0.09086 0.50607 0.46203 0.0
O374 O 0.11994 0.51114 0.56747 0.0
O375 O 0.11062 0.48028 0.53031 0.0
C376 C 0.14044 0.5806 0.58063 0.0
C377 C 0.18536 0.60544 0.6148 0.0
C378 C 0.17016 0.61528 0.6127 0.0
C379 C 0.14777 0.60285 0.59591 0.0
C380 C 0.15604 0.57139 0.581 0.0
C381 C 0.17809 0.5835 0.59806 0.0
C382 C 0.11666 0.56662 0.56433 0.0
C383 C 0.04367 0.49404 0.50871 0.0
C384 C 0.05641 0.48211 0.60342 0.0
C385 C 0.0534 0.40651 0.48943 0.0
C386 C 0.04776 0.37414 0.43562 0.0
C387 C 0.05845 0.39855 0.42829 0.0
C388 C 0.06127 0.41462 0.45501 0.0
C389 C 0.04457 0.38257 0.49756 0.0
C390 C 0.04186 0.36648 0.47087 0.0
C391 C 0.05185 0.4222 0.51587 0.0
H392 H 0.17525 0.63228 0.62476 0.0
H393 H 0.13608 0.6104 0.59538 0.0
H394 H 0.15098 0.55451 0.56866 0.0
H395 H 0.18882 0.57492 0.59949 0.0
H396 H 0.06297 0.40511 0.40145 0.0
H397 H 0.06825 0.43311 0.44834 0.0
H398 H 0.0386 0.37612 0.52415 0.0
H399 H 0.0339 0.34786 0.47744 0.0
Dy400 Dy 0.56643 0.08243 0.87055 0.0
Dy401 Dy 0.60894 0.07317 0.85906 0.0
C402 C 0.61982 0.12185 0.88971 0.0
O403 O 0.5646 0.08098 0.81113 0.0
O404 O 0.60081 0.08334 0.80204 0.0
O405 O 0.54765 0.10104 0.85646 0.0
O406 O 0.53781 0.07978 0.90375 0.0
O407 O 0.58212 0.04212 0.83072 0.0
O408 O 0.54923 0.04613 0.84342 0.0
O409 O 0.5899 0.04869 0.90657 0.0
O410 O 0.56833 0.06606 0.92373 0.0
O411 O 0.62975 0.05596 0.86734 0.0
O412 O 0.64547 0.09002 0.8408 0.0
C413 C 0.58127 0.08326 0.78893 0.0
O414 O 0.60095 0.11826 0.87142 0.0
O415 O 0.6215 0.10326 0.89764 0.0
C416 C 0.53912 0.11664 0.90612 0.0
C417 C 0.54751 0.15852 0.9409 0.0
C418 C 0.52469 0.14268 0.92708 0.0
C419 C 0.52058 0.12192 0.9095 0.0
C420 C 0.56175 0.13228 0.92029 0.0
C421 C 0.56594 0.15303 0.93736 0.0
C422 C 0.53576 0.09587 0.88591 0.0
C423 C 0.55938 0.03496 0.82792 0.0
C424 C 0.576 0.05092 0.93031 0.0
C425 C 0.65752 0.06303 0.82241 0.0
C426 C 0.67559 0.04723 0.76771 0.0
C427 C 0.6509 0.0357 0.77434 0.0
C428 C 0.64192 0.0436 0.80135 0.0
C429 C 0.6822 0.07437 0.81635 0.0
C430 C 0.69122 0.06661 0.78895 0.0
C431 C 0.64804 0.072 0.84983 0.0
H432 H 0.51014 0.14642 0.9297 0.0
H433 H 0.50304 0.1101 0.89844 0.0
H434 H 0.57626 0.12847 0.91803 0.0
H435 H 0.58354 0.16453 0.94851 0.0
H436 H 0.63841 0.02116 0.75766 0.0
H437 H 0.62277 0.03484 0.8053 0.0
H438 H 0.69442 0.08949 0.83234 0.0
H439 H 0.71027 0.0759 0.78398 0.0
Dy440 Dy 0.44449 0.5622 0.20787 0.0
Dy441 Dy 0.49895 0.59717 0.19045 0.0
C442 C 0.46715 0.61787 0.22041 0.0
O443 O 0.44212 0.56126 0.14746 0.0
O444 O 0.48041 0.5901 0.13465 0.0
O445 O 0.40711 0.54044 0.19378 0.0
O446 O 0.41787 0.54606 0.24873 0.0
O447 O 0.4928 0.56437 0.16394 0.0
O448 O 0.45543 0.53734 0.18479 0.0
O449 O 0.50367 0.57952 0.23998 0.0
O450 O 0.46455 0.55946 0.25754 0.0
O451 O 0.5369 0.60996 0.18746 0.0
O452 O 0.52261 0.63311 0.1745 0.0
C453 C 0.45849 0.57395 0.12361 0.0
O454 O 0.44886 0.59911 0.20656 0.0
O455 O 0.48684 0.61715 0.22574 0.0
C456 C 0.38238 0.5457 0.23364 0.0
C457 C 0.34981 0.55997 0.25609 0.0
C458 C 0.34176 0.53613 0.24684 0.0
C459 C 0.358 0.52904 0.2358 0.0
C460 C 0.39011 0.56971 0.23989 0.0
C461 C 0.37401 0.57682 0.25079 0.0
C462 C 0.40002 0.53823 0.22642 0.0
C463 C 0.47446 0.54283 0.16555 0.0
C464 C 0.48744 0.56609 0.26356 0.0
C465 C 0.55546 0.63797 0.14237 0.0
C466 C 0.5817 0.65334 1.07952 0.0
C467 C 0.55814 0.63422 1.07902 0.0
C468 C 0.54513 0.62658 0.11024 0.0
C469 C 0.57889 0.65708 0.14313 0.0
C470 C 0.59204 0.66468 0.11183 0.0
C471 C 0.54141 0.63046 0.17478 0.0
H472 H 0.32319 0.52276 0.25014 0.0
H473 H 0.35169 0.51046 0.23048 0.0
H474 H 0.40884 0.58282 0.23831 0.0
H475 H 0.38107 0.59527 0.25789 0.0
H476 H 0.54996 0.62477 1.05461 0.0
H477 H 0.52703 0.61174 0.10934 0.0
H478 H 0.58698 0.66608 0.16786 0.0
H479 H 0.61022 0.67935 0.11283 0.0
H480 H 0.52231 0.16578 0.26368 0.0
H481 H 0.52374 0.20303 0.24719 0.0
H482 H 0.47773 0.19529 0.33468 0.0
H483 H 0.47565 0.1578 0.35058 0.0
H484 H 0.46368 0.21039 0.28348 0.0
H485 H 0.54129 0.23744 0.33204 0.0
H486 H 0.58059 0.24002 0.33936 0.0
H487 H 0.59845 0.2642 0.23206 0.0
H488 H 0.55885 0.26069 0.22371 0.0
H489 H 0.52757 0.3503 0.26124 0.0
H490 H 0.52915 0.31494 0.28084 0.0
H491 H 0.47367 0.27222 0.20557 0.0
H492 H 0.47149 0.307 0.18692 0.0
H493 H 0.53937 0.28366 0.25547 0.0
H494 H 0.43874 0.21654 0.23221 0.0
H495 H 0.39998 0.2156 0.2337 0.0
H496 H 0.42921 0.27467 0.30594 0.0
H497 H 0.46804 0.27577 0.30524 0.0
C498 C 0.51248 0.17196 0.2795 0.0
C499 C 0.49882 0.15845 0.30858 0.0
C500 C 0.51348 0.19353 0.27014 0.0
C501 C 0.50111 0.20259 0.28973 0.0
C502 C 0.48748 0.18906 0.31878 0.0
C503 C 0.48636 0.16746 0.32802 0.0
C504 C 0.50185 0.22568 0.27967 0.0
C505 C 0.48033 0.22631 0.27732 0.0
C506 C 0.52342 0.24705 0.27233 0.0
C507 C 0.54708 0.24874 0.27716 0.0
C508 C 0.5535 0.24304 0.30989 0.0
C509 C 0.5758 0.24458 0.31419 0.0
C510 C 0.59196 0.2521 0.28611 0.0
C511 C 0.58587 0.25817 0.25371 0.0
C512 C 0.56349 0.25638 0.24915 0.0
C513 C 0.51565 0.33337 0.24889 0.0
C514 C 0.49917 0.33178 0.22266 0.0
C515 C 0.51662 0.31302 0.26009 0.0
C516 C 0.50118 0.29037 0.24544 0.0
C517 C 0.48538 0.28903 0.21837 0.0
C518 C 0.48423 0.3092 0.20748 0.0
C519 C 0.50114 0.26813 0.25852 0.0
C520 C 0.52275 0.26769 0.2615 0.0
C521 C 0.4797 0.24706 0.2675 0.0
C522 C 0.45635 0.24637 0.26838 0.0
C523 C 0.43686 0.22927 0.24851 0.0
C524 C 0.41489 0.22872 0.2492 0.0
C525 C 0.41216 0.24511 0.26981 0.0
C526 C 0.43137 0.26204 0.28989 0.0
C527 C 0.45337 0.26265 0.28933 0.0
H528 H 0.39514 0.24467 0.27028 0.0
H529 H 0.60923 0.25331 0.28947 0.0
H530 H 0.30355 0.47068 0.67875 0.0
H531 H 0.26745 0.47248 0.66459 0.0
H532 H 0.30404 0.5202 0.57847 0.0
H533 H 0.34067 0.51904 0.59344 0.0
H534 H 0.27654 0.53398 0.6048 0.0
H535 H 0.26027 0.45732 0.56792 0.0
H536 H 0.25698 0.41797 0.57362 0.0
H537 H 0.20497 0.39973 0.6559 0.0
H538 H 0.20817 0.4391 0.65099 0.0
H539 H 0.14367 0.46824 0.52734 0.0
H540 H 0.18083 0.46881 0.54331 0.0
H541 H 0.19765 0.52532 0.61801 0.0
H542 H 0.16061 0.52503 0.60165 0.0
H543 H 0.19878 0.45951 0.596 0.0
H544 H 0.26288 0.56154 0.62748 0.0
H545 H 0.27153 0.60052 0.60458 0.0
H546 H 0.23006 0.56751 0.51101 0.0
H547 H 0.22274 0.52862 0.53173 0.0
C548 C 0.3041 0.48165 0.65676 0.0
C549 C 0.3254 0.49458 0.63726 0.0
C550 C 0.28313 0.48254 0.64842 0.0
C551 C 0.28227 0.4961 0.61978 0.0
C552 C 0.3037 0.50945 0.60065 0.0
C553 C 0.32483 0.50872 0.6092 0.0
C554 C 0.25916 0.49611 0.60981 0.0
C555 C 0.25951 0.51768 0.60336 0.0
C556 C 0.23668 0.47493 0.60634 0.0
C557 C 0.23465 0.45124 0.60934 0.0
C558 C 0.24825 0.44497 0.58739 0.0
C559 C 0.24639 0.42266 0.59046 0.0
C560 C 0.23082 0.40639 0.61518 0.0
C561 C 0.21704 0.41237 0.63681 0.0
C562 C 0.21886 0.43467 0.63389 0.0
C563 C 0.15523 0.48089 0.54712 0.0
C564 C 0.14881 0.49669 0.56285 0.0
C565 C 0.17665 0.48112 0.5565 0.0
C566 C 0.19269 0.4972 0.58195 0.0
C567 C 0.18618 0.51288 0.59793 0.0
C568 C 0.16475 0.51267 0.58852 0.0
C569 C 0.21599 0.4975 0.59144 0.0
C570 C 0.21566 0.47595 0.59803 0.0
C571 C 0.23863 0.51868 0.59342 0.0
C572 C 0.24168 0.54191 0.58176 0.0
C573 C 0.25546 0.56252 0.6021 0.0
C574 C 0.26029 0.58466 0.58937 0.0
C575 C 0.25094 0.58643 0.55676 0.0
C576 C 0.23704 0.56609 0.5365 0.0
C577 C 0.23263 0.54398 0.54866 0.0
H578 H 0.25466 0.6036 0.54706 0.0
H579 H 0.22941 0.38912 0.61751 0.0
H580 H 0.81795 0.3016 1.00592 0.0
H581 H 0.78129 0.26547 0.98933 0.0
H582 H 0.76576 0.3044 0.91115 0.0
H583 H 0.80221 0.34093 0.92859 0.0
H584 H 0.72559 0.27458 0.93896 0.0
H585 H 0.78765 0.26401 0.89043 0.0
H586 H 0.82518 0.26255 0.88969 0.0
H587 H 0.79683 0.20687 0.96696 0.0
H588 H 0.75922 0.2082 0.96851 0.0
H589 H 0.63161 0.16553 0.86014 0.0
H590 H 0.6673 0.20419 0.87173 0.0
H591 H 0.69001 0.17232 0.95218 0.0
H592 H 0.65518 0.13375 0.93942 0.0
H593 H 0.72701 0.19993 0.91828 0.0
H594 H 0.66286 0.21047 0.96236 0.0
H595 H 0.6259 0.21293 0.95923 0.0
H596 H 0.65868 0.26976 0.88432 0.0
H597 H 0.69567 0.26732 0.88651 0.0
C598 C 0.80685 0.30261 0.9851 0.0
C599 C 0.81346 0.32448 0.96858 0.0
C600 C 0.78574 0.28169 0.97537 0.0
C601 C 0.77052 0.28161 0.94824 0.0
C602 C 0.77692 0.30354 0.93202 0.0
C603 C 0.79798 0.32458 0.94199 0.0
C604 C 0.7481 0.25881 0.93713 0.0
C605 C 0.72604 0.25836 0.93396 0.0
C606 C 0.74813 0.23724 0.93068 0.0
C607 C 0.7707 0.23636 0.92983 0.0
C608 C 0.78948 0.25157 0.90745 0.0
C609 C 0.81076 0.25075 0.90686 0.0
C610 C 0.81341 0.23467 0.92833 0.0
C611 C 0.79476 0.21933 0.95038 0.0
C612 C 0.77345 0.2201 0.9511 0.0
C613 C 0.64409 0.16681 0.88055 0.0
C614 C 0.64024 0.14628 0.89884 0.0
C615 C 0.66464 0.1891 0.88732 0.0
C616 C 0.68175 0.19176 0.9133 0.0
C617 C 0.67754 0.17123 0.93189 0.0
C618 C 0.65733 0.14898 0.92469 0.0
C619 C 0.70425 0.21542 0.92093 0.0
C620 C 0.72644 0.21609 0.92328 0.0
C621 C 0.70432 0.23722 0.926 0.0
C622 C 0.68199 0.23859 0.92451 0.0
C623 C 0.66213 0.22342 0.94515 0.0
C624 C 0.64117 0.2248 0.9435 0.0
C625 C 0.63994 0.24151 0.92163 0.0
C626 C 0.65965 0.25682 0.90127 0.0
C627 C 0.68061 0.25542 0.90268 0.0
H628 H 0.62373 0.24261 0.92046 0.0
H629 H 0.8299 0.23406 0.92783 0.0
H630 H 0.50413 0.66196 0.23895 0.0
H631 H 0.50317 0.69813 0.25248 0.0
H632 H 0.42671 0.66098 0.23688 0.0
H633 H 0.42796 0.62503 0.22093 0.0
H634 H 0.43844 0.70073 0.21761 0.0
H635 H 0.46207 0.68046 0.32734 0.0
H636 H 0.48603 0.66993 0.36674 0.0
H637 H 0.54921 0.7353 0.34104 0.0
H638 H 0.52559 0.74599 0.3011 0.0
H639 H 0.42909 0.79657 0.30116 0.0
H640 H 0.42622 0.7584 0.28611 0.0
H641 H 0.50313 0.79201 0.28524 0.0
H642 H 0.50602 0.82965 0.3015 0.0
H643 H 0.48839 0.7526 0.31592 0.0
H644 H 0.46215 0.77158 0.20495 0.0
H645 H 0.43578 0.78115 0.16948 0.0
H646 H 0.3744 0.71695 0.20407 0.0
H647 H 0.40046 0.70697 0.2397 0.0
C648 C 0.48701 0.66133 0.23857 0.0
C649 C 0.46607 0.64009 0.22942 0.0
C650 C 0.4864 0.68222 0.24685 0.0
C651 C 0.4647 0.68269 0.24755 0.0
C652 C 0.44383 0.66163 0.23715 0.0
C653 C 0.4445 0.64075 0.22826 0.0
C654 C 0.46388 0.70501 0.25844 0.0
C655 C 0.4492 0.71173 0.23952 0.0
C656 C 0.47784 0.72015 0.28686 0.0
C657 C 0.49209 0.71383 0.3109 0.0
C658 C 0.48108 0.69244 0.32986 0.0
C659 C 0.4946 0.68648 0.35234 0.0
C660 C 0.51915 0.7019 0.3563 0.0
C661 C 0.5302 0.72335 0.33789 0.0
C662 C 0.51675 0.72937 0.31536 0.0
C663 C 0.44541 0.79588 0.29762 0.0
C664 C 0.4678 0.81653 0.30274 0.0
C665 C 0.44377 0.7739 0.28869 0.0
C666 C 0.46447 0.77186 0.28387 0.0
C667 C 0.48674 0.79259 0.28874 0.0
C668 C 0.48838 0.81437 0.29802 0.0
C669 C 0.46337 0.74843 0.2747 0.0
C670 C 0.47765 0.74149 0.29406 0.0
C671 C 0.44873 0.73293 0.24721 0.0
C672 C 0.4332 0.73865 0.22517 0.0
C673 C 0.44302 0.75955 0.20503 0.0
C674 C 0.42813 0.76504 0.18492 0.0
C675 C 0.40341 0.74974 0.18471 0.0
C676 C 0.39355 0.7288 0.20433 0.0
C677 C 0.40837 0.72318 0.22438 0.0
H678 H 0.3919 0.75404 0.1693 0.0
H679 H 0.5296 0.69726 0.37371 0.0
H680 H 0.62555 0.42511 0.63607 0.0
H681 H 0.66198 0.42325 0.62317 0.0
H682 H 0.69805 0.49704 0.59406 0.0
H683 H 0.6619 0.49895 0.60665 0.0
H684 H 0.70898 0.47396 0.54764 0.0
H685 H 0.70755 0.4741 0.67631 0.0
H686 H 0.69183 0.45915 0.73598 0.0
H687 H 0.68965 0.39343 0.71214 0.0
H688 H 0.70522 0.40791 0.65226 0.0
H689 H 0.83037 0.50335 0.54462 0.0
H690 H 0.79169 0.49971 0.55768 0.0
H691 H 0.76541 0.42796 0.59242 0.0
H692 H 0.80456 0.43156 0.57998 0.0
H693 H 0.74752 0.44591 0.6343 0.0
H694 H 0.74806 0.44312 0.50855 0.0
H695 H 0.76365 0.45557 0.44809 0.0
H696 H 0.7656 0.522 0.46405 0.0
H697 H 0.75015 0.51 0.52471 0.0
C698 C 0.64119 0.44096 0.62682 0.0
C699 C 0.64043 0.4622 0.6225 0.0
C700 C 0.66225 0.43993 0.61967 0.0
C701 C 0.68332 0.46009 0.60792 0.0
C702 C 0.68236 0.48113 0.60309 0.0
C703 C 0.66146 0.48221 0.61039 0.0
C704 C 0.7062 0.45952 0.59987 0.0
C705 C 0.71744 0.46805 0.56692 0.0
C706 C 0.71721 0.45092 0.62399 0.0
C707 C 0.7072 0.44197 0.65961 0.0
C708 C 0.70346 0.45636 0.68365 0.0
C709 C 0.69467 0.448 0.71756 0.0
C710 C 0.68969 0.42533 0.72781 0.0
C711 C 0.69349 0.41097 0.70416 0.0
C712 C 0.7023 0.41925 0.67024 0.0
C713 C 0.81645 0.48665 0.55496 0.0
C714 C 0.82094 0.46772 0.56089 0.0
C715 C 0.79402 0.48451 0.56223 0.0
C716 C 0.77493 0.46326 0.57537 0.0
C717 C 0.77949 0.44447 0.58203 0.0
C718 C 0.80203 0.44658 0.57481 0.0
C719 C 0.75054 0.46089 0.58241 0.0
C720 C 0.739 0.45173 0.61499 0.0
C721 C 0.73894 0.46844 0.55771 0.0
C722 C 0.74819 0.47576 0.52128 0.0
C723 C 0.75198 0.46045 0.49924 0.0
C724 C 0.76076 0.46741 0.46493 0.0
C725 C 0.76572 0.48961 0.4523 0.0
C726 C 0.76182 0.50485 0.47391 0.0
C727 C 0.75299 0.49795 0.50822 0.0
H728 H 0.7725 0.49495 0.42571 0.0
H729 H 0.68296 0.41892 0.7541 0.0
H730 H 0.31073 0.83838 0.92883 0.0
H731 H 0.27861 0.79951 0.94594 0.0
H732 H 0.31621 0.76688 0.89926 0.0
H733 H 0.3484 0.80621 0.88081 0.0
H734 H 0.27282 0.73978 0.88421 0.0
H735 H 0.30851 0.76996 0.99423 0.0
H736 H 0.32647 0.79679 1.04538 0.0
H737 H 0.26033 0.79613 1.06319 0.0
H738 H 0.242 0.76924 1.01203 0.0
H739 H 0.18437 0.62764 0.96157 0.0
H740 H 0.22222 0.66407 0.94876 0.0
H741 H 0.18853 0.70593 0.96938 0.0
H742 H 0.15097 0.66994 0.98189 0.0
H743 H 0.23315 0.72613 1.00092 0.0
H744 H 0.20125 0.69577 0.88105 0.0
H745 H 0.18705 0.66493 0.83437 0.0
H746 H 0.25212 0.66209 0.84401 0.0
H747 H 0.26658 0.69285 0.89032 0.0
C748 C 0.31244 0.82305 0.92228 0.0
C749 C 0.33258 0.8258 0.90355 0.0
C750 C 0.29392 0.80057 0.9325 0.0
C751 C 0.29475 0.77974 0.92483 0.0
C752 C 0.31484 0.78238 0.90595 0.0
C753 C 0.33346 0.80502 0.89555 0.0
C754 C 0.27416 0.7555 0.93514 0.0
C755 C 0.26453 0.73691 0.91004 0.0
C756 C 0.26292 0.75094 0.96889 0.0
C757 C 0.27397 0.76775 0.99901 0.0
C758 C 0.29789 0.77574 1.00878 0.0
C759 C 0.3081 0.79088 1.03789 0.0
C760 C 0.29458 0.79826 1.05744 0.0
C761 C 0.2708 0.79043 1.04798 0.0
C762 C 0.26046 0.77516 1.01898 0.0
C763 C 0.18496 0.64457 0.96333 0.0
C764 C 0.16424 0.64549 0.9727 0.0
C765 C 0.20673 0.66554 0.95584 0.0
C766 C 0.20855 0.68814 0.95778 0.0
C767 C 0.18795 0.689 0.96758 0.0
C768 C 0.16625 0.66816 0.97462 0.0
C769 C 0.23156 0.71095 0.94961 0.0
C770 C 0.24158 0.72923 0.97518 0.0
C771 C 0.24375 0.7149 0.91695 0.0
C772 C 0.23495 0.69651 0.88903 0.0
C773 C 0.21244 0.68849 0.87311 0.0
C774 C 0.20437 0.67106 0.84666 0.0
C775 C 0.21867 0.66159 0.83601 0.0
C776 C 0.24103 0.66946 0.85193 0.0
C777 C 0.24923 0.68694 0.87819 0.0
H778 H 0.21241 0.64818 0.8154 0.0
H779 H 0.30251 0.80999 1.07998 0.0
H780 H 0.58558 0.20337 0.93627 0.0
H781 H 0.59939 0.23371 0.98294 0.0
H782 H 0.53336 0.1919 1.03905 0.0
H783 H 0.51984 0.16139 0.99309 0.0
H784 H 0.55502 0.24161 1.05388 0.0
H785 H 0.57473 0.17813 1.04385 0.0
H786 H 0.59342 0.15606 1.01946 0.0
H787 H 0.66264 0.21827 1.02861 0.0
H788 H 0.64417 0.2411 1.051 0.0
H789 H 0.54717 0.19175 0.20937 0.0
H790 H 0.55059 0.21583 0.15875 0.0
H791 H 0.62761 0.2514 0.16768 0.0
H792 H 0.62398 0.22618 0.21816 0.0
H793 H 0.61601 0.2278 0.11266 0.0
H794 H 0.59571 0.28428 0.14641 0.0
H795 H 0.57625 0.3028 0.17943 0.0
H796 H 0.50799 0.25136 0.13681 0.0
H797 H 0.52698 0.23253 0.1034 0.0
C798 C 0.57378 0.20107 0.9581 0.0
C799 C 0.55205 0.17973 0.9618 0.0
C800 C 0.58156 0.21851 0.98447 0.0
C801 C 0.56759 0.21479 1.01474 0.0
C802 C 0.54442 0.19509 1.01589 0.0
C803 C 0.53672 0.17758 0.98964 0.0
C804 C 0.57875 0.2274 1.04827 0.0
C805 C 0.56856 0.23894 1.06687 0.0
C806 C 0.59719 0.2248 1.06454 0.0
C807 C 0.60797 0.21155 1.04799 0.0
C808 C 0.59384 0.18732 1.03957 0.0
C809 C 0.60442 0.17464 1.02622 0.0
C810 C 0.62919 0.18579 1.02221 0.0
C811 C 0.64343 0.20969 1.03139 0.0
C812 C 0.63289 0.22259 1.04397 0.0
C813 C 0.56483 0.20536 0.20143 0.0
C814 C 0.58529 0.20651 0.21666 0.0
C815 C 0.56685 0.21958 0.17265 0.0
C816 C 0.58943 0.23529 0.1586 0.0
C817 C 0.60997 0.23919 0.17765 0.0
C818 C 0.60791 0.22471 0.20643 0.0
C819 C 0.5909 0.2403 0.11993 0.0
C820 C 0.60351 0.23202 0.09971 0.0
C821 C 0.57457 0.24565 0.10264 0.0
C822 C 0.56287 0.25704 0.12217 0.0
C823 C 0.57655 0.27691 0.14398 0.0
C824 C 0.5656 0.28753 0.16268 0.0
C825 C 0.54091 0.27829 0.16017 0.0
C826 C 0.52714 0.25855 0.13864 0.0
C827 C 0.53802 0.248 0.11958 0.0
H828 H 0.53243 0.28638 0.17498 0.0
H829 H 0.63738 0.1759 1.01213 0.0
H830 H 0.3476 0.60145 0.25619 0.0
H831 H 0.33944 0.61788 0.30925 0.0
H832 H 0.31114 0.54986 0.36039 0.0
H833 H 0.31923 0.53363 0.30845 0.0
H834 H 0.29565 0.57378 0.39411 0.0
H835 H 0.37363 0.58657 0.35793 0.0
H836 H 0.40938 0.60059 0.32047 0.0
H837 H 0.41791 0.67052 0.31929 0.0
H838 H 0.38221 0.65686 0.35717 0.0
H839 H 0.36476 0.55312 0.5111 0.0
H840 H 0.34197 0.55992 0.46589 0.0
H841 H 0.37491 0.63356 0.49689 0.0
H842 H 0.39892 0.62702 0.54158 0.0
H843 H 0.3803 0.62716 0.42796 0.0
H844 H 0.31345 0.5937 0.50682 0.0
H845 H 0.28901 0.56302 0.55017 0.0
H846 H 0.26497 0.50958 0.46893 0.0
H847 H 0.29043 0.53951 0.42557 0.0
C848 C 0.33867 0.58977 0.27826 0.0
C849 C 0.33512 0.56653 0.27868 0.0
C850 C 0.33391 0.59918 0.30852 0.0
C851 C 0.32565 0.58541 0.33935 0.0
C852 C 0.31785 0.56105 0.3372 0.0
C853 C 0.32254 0.55167 0.30711 0.0
C854 C 0.33122 0.59656 0.37509 0.0
C855 C 0.31406 0.58581 0.40177 0.0
C856 C 0.35521 0.61261 0.38503 0.0
C857 C 0.37519 0.62067 0.35979 0.0
C858 C 0.38299 0.60486 0.34928 0.0
C859 C 0.40327 0.61275 0.32824 0.0
C860 C 0.41588 0.6364 0.31766 0.0
C861 C 0.40806 0.65219 0.32759 0.0
C862 C 0.38783 0.6444 0.34887 0.0
C863 C 0.36715 0.57078 0.50846 0.0
C864 C 0.38403 0.58966 0.52934 0.0
C865 C 0.35364 0.57453 0.48312 0.0
C866 C 0.35623 0.59713 0.47855 0.0
C867 C 0.37232 0.61588 0.50044 0.0
C868 C 0.38606 0.61215 0.52581 0.0
C869 C 0.34546 0.60158 0.44671 0.0
C870 C 0.36154 0.61623 0.42093 0.0
C871 C 0.32108 0.5867 0.43735 0.0
C872 C 0.3038 0.56908 0.46272 0.0
C873 C 0.30289 0.57544 0.49809 0.0
C874 C 0.28896 0.55808 0.52278 0.0
C875 C 0.27529 0.53438 0.51221 0.0
C876 C 0.27549 0.52797 0.477 0.0
C877 C 0.28975 0.54514 0.45237 0.0
H878 H 0.26459 0.52085 0.53115 0.0
H879 H 0.43191 0.64248 0.30223 0.0
H880 H 0.76791 0.3691 0.85335 0.0
H881 H 0.74373 0.36087 0.80017 0.0
H882 H 0.745 0.42764 0.812 0.0
H883 H 0.77077 0.4367 0.8645 0.0
H884 H 0.70362 0.35607 0.77455 0.0
H885 H 0.74705 0.44895 0.72853 0.0
H886 H 0.78024 0.48931 0.74133 0.0
H887 H 0.82388 0.46034 0.77703 0.0
H888 H 0.79094 0.41985 0.76419 0.0
H889 H 0.76293 0.39028 0.58407 0.0
H890 H 0.73539 0.39328 0.62491 0.0
H891 H 0.73638 0.33942 0.69058 0.0
H892 H 0.76275 0.33545 0.64904 0.0
H893 H 0.75541 0.41235 0.68275 0.0
H894 H 0.69882 0.31898 0.75266 0.0
H895 H 0.66686 0.27908 0.73555 0.0
H896 H 0.64956 0.30794 0.64513 0.0
H897 H 0.68116 0.34814 0.66195 0.0
C898 C 0.76303 0.38205 0.84477 0.0
C899 C 0.77202 0.40393 0.86239 0.0
C900 C 0.74877 0.37713 0.81462 0.0
C901 C 0.7429 0.39385 0.80147 0.0
C902 C 0.74968 0.41466 0.82118 0.0
C903 C 0.76434 0.41978 0.85127 0.0
C904 C 0.73358 0.39071 0.76453 0.0
C905 C 0.71469 0.36837 0.75425 0.0
C906 C 0.74672 0.40741 0.73787 0.0
C907 C 0.76648 0.4315 0.74603 0.0
C908 C 0.76371 0.45125 0.73924 0.0
C909 C 0.78247 0.47412 0.74643 0.0
C910 C 0.80411 0.47738 0.76017 0.0
C911 C 0.80708 0.45779 0.76655 0.0
C912 C 0.78839 0.43489 0.75931 0.0
C913 C 0.7564 0.37822 0.60625 0.0
C914 C 0.76606 0.36345 0.61422 0.0
C915 C 0.74058 0.37999 0.62964 0.0
C916 C 0.73427 0.36714 0.66141 0.0
C917 C 0.74088 0.34967 0.66639 0.0
C918 C 0.75646 0.34771 0.64284 0.0
C919 C 0.72774 0.37637 0.69303 0.0
C920 C 0.74333 0.40013 0.70238 0.0
C921 C 0.71157 0.36094 0.71861 0.0
C922 C 0.6924 0.33669 0.70868 0.0
C923 C 0.68806 0.31693 0.72935 0.0
C924 C 0.67004 0.2942 0.71962 0.0
C925 C 0.65618 0.29098 0.68929 0.0
C926 C 0.66033 0.31046 0.6686 0.0
C927 C 0.67833 0.33322 0.67819 0.0
H928 H 0.64224 0.27337 0.68181 0.0
H929 H 0.81861 0.4951 0.76574 0.0
H930 H 0.42028 0.7768 0.95824 0.0
H931 H 0.39659 0.75503 1.00946 0.0
H932 H 0.33743 0.76207 0.97034 0.0
H933 H 0.36082 0.78367 0.9196 0.0
H934 H 0.39086 0.78766 1.04484 0.0
H935 H 0.28644 0.72807 1.03071 0.0
H936 H 0.25726 0.69534 0.99331 0.0
H937 H 0.31067 0.67736 0.96463 0.0
H938 H 0.33999 0.70917 1.00328 0.0
H939 H 0.33246 0.81018 0.1769 0.0
H940 H 0.32244 0.78905 0.12024 0.0
H941 H 0.34991 0.7447 0.1585 0.0
H942 H 0.3595 0.76529 0.21549 0.0
H943 H 0.30869 0.73221 1.08628 0.0
H944 H 0.40494 0.78342 0.12241 0.0
H945 H 0.433 0.81727 0.15992 0.0
H946 H 0.39414 0.85354 0.13641 0.0
H947 H 0.36609 0.82003 0.0986 0.0
C948 C 0.40183 0.77271 0.95969 0.0
C949 C 0.39281 0.78293 0.93571 0.0
C950 C 0.38821 0.76008 0.98886 0.0
C951 C 0.36554 0.75771 0.99437 0.0
C952 C 0.35495 0.76393 0.96701 0.0
C953 C 0.36849 0.77642 0.93778 0.0
C954 C 0.35713 0.75676 1.03114 0.0
C955 C 0.37299 0.77507 1.05378 0.0
C956 C 0.3334 0.74116 1.04245 0.0
C957 C 0.31572 0.72155 1.01945 0.0
C958 C 0.29207 0.71719 1.01651 0.0
C959 C 0.27544 0.69874 0.99506 0.0
C960 C 0.28219 0.68456 0.97609 0.0
C961 C 0.30552 0.68854 0.97902 0.0
C962 C 0.32217 0.70679 1.00079 0.0
C963 C 0.33511 0.79505 0.17403 0.0
C964 C 0.34759 0.78995 0.20007 0.0
C965 C 0.32916 0.78283 0.14166 0.0
C966 C 0.33593 0.7657 0.13509 0.0
C967 C 0.34472 0.75799 0.16308 0.0
C968 C 0.35052 0.77004 0.19544 0.0
C969 C 0.3425 0.76289 0.09874 0.0
C970 C 0.32648 0.74431 1.07665 0.0
C971 C 0.36587 0.77852 1.08693 0.0
C972 C 0.38316 0.79904 0.10855 0.0
C973 C 0.40238 0.79859 0.12547 0.0
C974 C 0.41831 0.81772 0.14663 0.0
C975 C 0.41525 0.83745 0.15074 0.0
C976 C 0.39642 0.8382 0.13338 0.0
C977 C 0.38053 0.81916 0.11209 0.0
H978 H 0.42751 0.85217 0.16728 0.0
H979 H 0.26929 0.67036 0.95937 0.0
H980 H 0.61229 0.43356 0.36684 0.0
H981 H 0.62092 0.41172 0.4111 0.0
H982 H 0.63189 0.37208 0.3284 0.0
H983 H 0.62219 0.39343 0.28383 0.0
H984 H 0.6007 0.34282 0.36873 0.0
H985 H 0.67687 0.40269 0.39562 0.0
H986 H 0.71135 0.44264 0.40568 0.0
H987 H 0.67685 0.45186 0.4965 0.0
H988 H 0.64201 0.41226 0.48677 0.0
H989 H 0.58997 0.33986 0.57871 0.0
H990 H 0.61179 0.336 0.52867 0.0
H991 H 0.55819 0.3336 0.45691 0.0
H992 H 0.53679 0.33769 0.50603 0.0
H993 H 0.63171 0.37161 0.48977 0.0
H994 H 0.55944 0.31817 0.37631 0.0
H995 H 0.5281 0.27699 0.36494 0.0
H996 H 0.5572 0.25265 0.44677 0.0
H997 H 0.58923 0.29364 0.45809 0.0
C998 C 0.61716 0.42063 0.35804 0.0
C999 C 0.61612 0.41489 0.32197 0.0
C1000 C 0.62252 0.40835 0.3834 0.0
C1001 C 0.62722 0.39021 0.37324 0.0
C1002 C 0.62839 0.38601 0.33695 0.0
C1003 C 0.62292 0.39828 0.31148 0.0
C1004 C 0.62533 0.37278 0.40037 0.0
C1005 C 0.60765 0.34897 0.3952 0.0
C1006 C 0.63586 0.38022 0.43435 0.0
C1007 C 0.65677 0.40429 0.44047 0.0
C1008 C 0.67655 0.41325 0.41765 0.0
C1009 C 0.69618 0.43587 0.42331 0.0
C1010 C 0.69626 0.44976 0.45169 0.0
C1011 C 0.67677 0.44105 0.47457 0.0
C1012 C 0.6571 0.41846 0.46905 0.0
C1013 C 0.58243 0.33766 0.55231 0.0
C1014 C 0.56204 0.33992 0.54634 0.0
C1015 C 0.59483 0.33522 0.52372 0.0
C1016 C 0.58695 0.33489 0.4888 0.0
C1017 C 0.5647 0.33356 0.48343 0.0
C1018 C 0.55238 0.33605 0.51187 0.0
C1019 C 0.60413 0.34312 0.45886 0.0
C1020 C 0.62515 0.36509 0.46327 0.0
C1021 C 0.59678 0.33389 0.42419 0.0
C1022 C 0.57698 0.30918 0.418 0.0
C1023 C 0.55942 0.3041 0.39172 0.0
C1024 C 0.54145 0.28074 0.3853 0.0
C1025 C 0.54066 0.26222 0.40512 0.0
C1026 C 0.55782 0.26703 0.43146 0.0
C1027 C 0.5759 0.29035 0.43791 0.0
H1028 H 0.52676 0.24414 0.40006 0.0
H1029 H 0.71137 0.4673 0.45588 0.0
H1030 H 0.20301 0.60643 0.88487 0.0
H1031 H 0.22644 0.62089 0.83148 0.0
H1032 H 0.24612 0.56651 0.83879 0.0
H1033 H 0.2207 0.55051 0.8915 0.0
H1034 H 0.26928 0.63834 0.80615 0.0
H1035 H 0.24704 0.54837 0.75508 0.0
H1036 H 0.22061 0.50563 0.76641 0.0
H1037 H 0.16592 0.51952 0.80424 0.0
H1038 H 0.19198 0.56226 0.79277 0.0
H1039 H 0.22759 0.60487 0.60594 0.0
H1040 H 0.255 0.60848 0.65389 0.0
H1041 H 0.22056 0.6346 0.7237 0.0
H1042 H 0.1921 0.62939 0.67758 0.0
H1043 H 0.22948 0.57844 0.71098 0.0
H1044 H 0.25668 0.66758 0.78183 0.0
H1045 H 0.27762 0.7102 0.76761 0.0
H1046 H 0.31536 0.69811 0.68395 0.0
H1047 H 0.29495 0.65548 0.69833 0.0
C1048 C 0.21288 0.59793 0.87584 0.0
C1049 C 0.20996 0.57727 0.89214 0.0
C1050 C 0.22659 0.60646 0.84546 0.0
C1051 C 0.2382 0.59499 0.83105 0.0
C1052 C 0.23715 0.57557 0.84921 0.0
C1053 C 0.22269 0.56646 0.87924 0.0
C1054 C 0.24715 0.60108 0.79419 0.0
C1055 C 0.26105 0.62521 0.78522 0.0
C1056 C 0.23729 0.58397 0.76664 0.0
C1057 C 0.22155 0.55842 0.77363 0.0
C1058 C 0.22938 0.54224 0.76586 0.0
C1059 C 0.21447 0.51805 0.77225 0.0
C1060 C 0.19164 0.50988 0.78619 0.0
C1061 C 0.18363 0.52587 0.79357 0.0
C1062 C 0.19844 0.55006 0.7871 0.0
C1063 C 0.22612 0.61182 0.6313 0.0
C1064 C 0.20693 0.61588 0.63822 0.0
C1065 C 0.2421 0.61425 0.65834 0.0
C1066 C 0.23974 0.62169 0.69214 0.0
C1067 C 0.22287 0.62906 0.69759 0.0
C1068 C 0.20648 0.62603 0.67098 0.0
C1069 C 0.24944 0.6157 0.72355 0.0
C1070 C 0.23918 0.59153 0.73151 0.0
C1071 C 0.26207 0.63275 0.75007 0.0
C1072 C 0.27458 0.65842 0.74166 0.0
C1073 C 0.26979 0.6741 0.76095 0.0
C1074 C 0.28145 0.69824 0.75268 0.0
C1075 C 0.29791 0.70689 0.72499 0.0
C1076 C 0.30266 0.6914 0.70546 0.0
C1077 C 0.29104 0.66725 0.71367 0.0
H1078 H 0.3069 0.72558 0.71858 0.0
H1079 H 0.18014 0.49116 0.79117 0.0
H1080 H 0.37616 0.94904 0.96239 0.0
H1081 H 0.38793 0.97282 1.01723 0.0
H1082 H 0.44526 0.95771 1.03287 0.0
H1083 H 0.4334 0.9338 0.97841 0.0
H1084 H 0.42741 0.95639 0.09617 0.0
H1085 H 0.44729 0.01311 1.00008 0.0
H1086 H 0.43916 0.03231 0.94997 0.0
H1087 H 0.39288 0.04593 1.0153 0.0
H1088 H 0.40062 0.02663 1.06588 0.0
H1089 H 0.4976 0.04418 0.2278 0.0
H1090 H 0.48232 0.0209 0.17286 0.0
H1091 H 0.42527 0.0372 0.16929 0.0
H1092 H 0.4401 0.05993 0.22499 0.0
H1093 H 0.44045 0.03822 0.10074 0.0
H1094 H 0.41194 0.98253 0.18905 0.0
H1095 H 0.4114 0.96195 0.24414 0.0
H1096 H 0.46011 0.94254 0.19881 0.0
H1097 H 0.46107 0.96303 0.14315 0.0
C1098 C 0.39136 0.95073 0.97725 0.0
C1099 C 0.40365 0.9391 0.96473 0.0
C1100 C 0.39831 0.96469 1.00909 0.0
C1101 C 0.41808 0.96801 1.03028 0.0
C1102 C 0.43009 0.95608 1.01798 0.0
C1103 C 0.4232 0.9422 0.98618 0.0
C1104 C 0.42622 0.98347 1.06481 0.0
C1105 C 0.43063 0.97443 0.09648 0.0
C1106 C 0.42924 0.00685 1.06759 0.0
C1107 C 0.42452 0.01829 1.03689 0.0
C1108 C 0.43537 0.02013 1.00387 0.0
C1109 C 0.43081 0.03104 0.97531 0.0
C1110 C 0.4155 0.04033 0.97942 0.0
C1111 C 0.40474 0.03873 1.01213 0.0
C1112 C 0.40924 0.02782 1.04078 0.0
C1113 C 0.4818 0.04298 0.21555 0.0
C1114 C 0.47037 0.05437 0.23194 0.0
C1115 C 0.47288 0.02939 0.18363 0.0
C1116 C 0.45229 0.02676 0.16563 0.0
C1117 C 0.44114 0.03857 0.18155 0.0
C1118 C 0.44973 0.0517 0.214 0.0
C1119 C 0.44229 0.0113 0.13137 0.0
C1120 C 0.43741 0.02025 0.1001 0.0
C1121 C 0.43751 -0.01258 0.12929 0.0
C1122 C 0.43699 0.97473 0.16218 0.0
C1123 C 0.42276 0.97405 0.19088 0.0
C1124 C 0.4223 0.96231 0.22214 0.0
C1125 C 0.43585 0.951 0.22495 0.0
C1126 C 0.44974 0.95132 0.19644 0.0
C1127 C 0.45025 0.96298 0.16503 0.0
H1128 H 0.43552 0.94191 0.24916 0.0
H1129 H 0.41199 0.04877 0.95728 0.0
H1130 H 0.49845 0.44586 0.29449 0.0
H1131 H 0.48476 0.45675 0.34782 0.0
H1132 H 0.42407 0.38652 0.35324 0.0
H1133 H 0.43702 0.37594 0.29806 0.0
H1134 H 0.40891 0.41557 0.37531 0.0
H1135 H 0.47208 0.40892 0.44938 0.0
H1136 H 0.51221 0.41287 0.45313 0.0
H1137 H 0.54257 0.48097 0.40294 0.0
H1138 H 0.50283 0.47752 0.39977 0.0
H1139 H 0.3745 0.43 0.55492 0.0
H1140 H 0.38683 0.41713 0.50158 0.0
H1141 H 0.45204 0.48417 0.49874 0.0
H1142 H 0.43968 0.49708 0.55169 0.0
H1143 H 0.46458 0.45526 0.47565 0.0
H1144 H 0.39259 0.45797 0.44416 0.0
H1145 H 0.34995 0.446 0.44424 0.0
H1146 H 0.33172 0.37502 0.41522 0.0
H1147 H 0.37437 0.38656 0.41496 0.0
C1148 C 0.48228 0.43242 0.30693 0.0
C1149 C 0.46935 0.40967 0.29083 0.0
C1150 C 0.47449 0.43868 0.33868 0.0
C1151 C 0.45359 0.42249 0.35739 0.0
C1152 C 0.44042 0.3998 0.34097 0.0
C1153 C 0.44801 0.39361 0.3088 0.0
C1154 C 0.44523 0.42933 0.39262 0.0
C1155 C 0.42124 0.42416 0.39717 0.0
C1156 C 0.46048 0.44054 0.42257 0.0
C1157 C 0.4845 0.44293 0.42415 0.0
C1158 C 0.48738 0.42474 0.43925 0.0
C1159 C 0.51007 0.42692 0.44142 0.0
C1160 C 0.52998 0.44721 0.42841 0.0
C1161 C 0.52723 0.46535 0.41333 0.0
C1162 C 0.50462 0.46335 0.41155 0.0
C1163 C 0.39138 0.44232 0.54287 0.0
C1164 C 0.40557 0.46507 0.55858 0.0
C1165 C 0.39855 0.43487 0.51151 0.0
C1166 C 0.42037 0.44969 0.49345 0.0
C1167 C 0.43485 0.47208 0.51002 0.0
C1168 C 0.42761 0.47961 0.54109 0.0
C1169 C 0.42825 0.44226 0.4582 0.0
C1170 C 0.45218 0.44708 0.45374 0.0
C1171 C 0.41262 0.4301 0.42872 0.0
C1172 C 0.3869 0.42324 0.42937 0.0
C1173 C 0.37962 0.43986 0.43753 0.0
C1174 C 0.35537 0.43311 0.43775 0.0
C1175 C 0.33812 0.40977 0.42969 0.0
C1176 C 0.3451 0.39312 0.42142 0.0
C1177 C 0.36934 0.39978 0.4212 0.0
H1178 H 0.31935 0.40458 0.42989 0.0
H1179 H 0.54753 0.44885 0.42997 0.0
H1180 H 0.05024 0.44773 0.6536 0.0
H1181 H 0.02573 0.43469 0.70697 0.0
H1182 H 0.00013 0.48322 0.68446 0.0
H1183 H 0.02633 0.4977 0.63258 0.0
H1184 H -0.00342 0.48161 0.74845 0.0
H1185 H 0.96649 0.41229 0.67653 0.0
H1186 H 0.9671 0.38094 0.64027 0.0
H1187 H -0.00553 0.3602 0.72907 0.0
H1188 H -0.00574 0.3916 0.76575 0.0
H1189 H 0.90219 0.4279 0.87632 0.0
H1190 H 0.92515 0.43919 0.82134 0.0
H1191 H 0.96245 0.40298 0.85506 0.0
H1192 H 0.93829 0.39032 0.90936 0.0
H1193 H 0.95739 0.3975 0.78478 0.0
H1194 H -0.00061 0.4745 0.84864 0.0
H1195 H -0.00501 0.50147 0.89026 0.0
H1196 H 0.94258 0.50308 0.82141 0.0
H1197 H 0.94785 0.47727 0.77828 0.0
C1198 C 0.03948 0.4558 0.6598 0.0
C1199 C 0.04077 0.474 0.63756 0.0
C1200 C 0.02479 0.44791 0.69075 0.0
C1201 C 0.0095 0.4569 0.70087 0.0
C1202 C 0.01106 0.47532 0.67868 0.0
C1203 C 0.02632 0.48374 0.64828 0.0
C1204 C -0.00743 0.44759 0.73416 0.0
C1205 C -0.01153 0.4632 0.75577 0.0
C1206 C 0.98045 0.42332 0.74564 0.0
C1207 C 0.98059 0.40444 0.72375 0.0
C1208 C 0.97276 0.40112 0.68825 0.0
C1209 C 0.97302 0.38334 0.66763 0.0
C1210 C 0.98089 0.36864 0.68233 0.0
C1211 C -0.01157 0.37163 0.71771 0.0
C1212 C -0.01178 0.3894 0.73843 0.0
C1213 C 0.91529 0.42229 0.87243 0.0
C1214 C 0.91802 0.40812 0.89854 0.0
C1215 C 0.92901 0.42923 0.84059 0.0
C1216 C 0.94692 0.42312 0.8332 0.0
C1217 C 0.94931 0.40854 0.85902 0.0
C1218 C 0.93528 0.40122 0.89066 0.0
C1219 C 0.96285 0.43185 0.7992 0.0
C1220 C 0.9664 0.41607 0.77748 0.0
C1221 C 0.97461 0.45589 0.78764 0.0
C1222 C 0.97404 0.47412 0.81035 0.0
C1223 C -0.01266 0.48108 0.84206 0.0
C1224 C -0.01529 0.49614 0.86585 0.0
C1225 C 0.96855 0.50403 0.85839 0.0
C1226 C 0.95526 0.49714 0.82689 0.0
C1227 C 0.95841 0.48271 0.80244 0.0
H1228 H 0.96631 0.51547 0.87701 0.0
H1229 H 0.98109 0.35489 0.66632 0.0
H1230 H 0.4662 0.90768 0.20764 0.0
H1231 H 0.4806 0.93058 0.15249 0.0
H1232 H 0.5532 0.95887 0.18859 0.0
H1233 H 0.53883 0.93551 0.24317 0.0
H1234 H 0.50171 0.97418 0.13292 0.0
H1235 H 0.59393 0.98084 0.12011 0.0
H1236 H 0.61376 0.95769 0.13465 0.0
H1237 H 0.54603 0.89329 0.13108 0.0
H1238 H 0.52585 0.91603 0.1161 0.0
H1239 H 0.56171 0.06048 0.99532 0.0
H1240 H 0.54996 0.03761 1.05021 0.0
H1241 H 0.55959 0.98323 1.00038 0.0
H1242 H 0.57331 0.00726 0.94622 0.0
H1243 H 0.56874 0.97946 1.06232 0.0
H1244 H 0.49986 0.98466 1.02404 0.0
H1245 H 0.48096 0.00776 1.00496 0.0
H1246 H 0.49704 0.04304 0.10609 0.0
H1247 H 0.51667 0.02056 0.12544 0.0
C1248 C 0.4853 0.91867 0.20402 0.0
C1249 C 0.50104 0.91933 0.231 0.0
C1250 C 0.49369 0.93206 0.17197 0.0
C1251 C 0.51835 0.94705 0.16484 0.0
C1252 C 0.53412 0.94756 0.19178 0.0
C1253 C 0.52574 0.934 0.22368 0.0
C1254 C 0.52725 0.96211 0.13007 0.0
C1255 C 0.51635 0.9751 0.1177 0.0
C1256 C 0.54641 0.96401 0.10867 0.0
C1257 C 0.55837 0.95018 0.11736 0.0
C1258 C 0.58329 0.96174 0.12232 0.0
C1259 C 0.59458 0.94869 0.13066 0.0
C1260 C 0.58115 0.92405 0.1339 0.0
C1261 C 0.5564 0.91239 0.12869 0.0
C1262 C 0.54502 0.92535 0.12031 0.0
C1263 C 0.56143 0.04367 0.99576 0.0
C1264 C 0.5686 0.03616 0.96515 0.0
C1265 C 0.55421 0.03008 1.0277 0.0
C1266 C 0.55258 0.00747 1.03079 0.0
C1267 C 0.56014 0.00017 1.00021 0.0
C1268 C 0.56807 0.01413 0.96854 0.0
C1269 C 0.54327 -0.00824 1.06512 0.0
C1270 C 0.55405 0.97856 1.07741 0.0
C1271 C 0.52372 -0.01063 1.08624 0.0
C1272 C 0.51009 0.00125 1.07591 0.0
C1273 C 0.49932 -0.00268 1.04222 0.0
C1274 C 0.48856 0.01038 1.03133 0.0
C1275 C 0.48801 0.02705 1.0542 0.0
C1276 C 0.4977 0.03028 1.08831 0.0
C1277 C 0.50866 0.0174 0.09925 0.0
H1278 H 0.48006 0.03748 1.04556 0.0
H1279 H 0.58992 0.91398 0.14039 0.0
H1280 H 0.58196 0.53061 0.56401 0.0
H1281 H 0.56906 0.54425 0.51233 0.0
H1282 H 0.51466 0.47245 0.48971 0.0
H1283 H 0.52755 0.45873 0.54178 0.0
H1284 H 0.49547 0.49771 0.47056 0.0
H1285 H 0.58558 0.58085 0.43815 0.0
H1286 H 0.62887 0.59587 0.44477 0.0
H1287 H 0.61626 0.52449 0.44917 0.0
H1288 H 0.57299 0.50906 0.44231 0.0
H1289 H 0.46744 0.55646 0.33169 0.0
H1290 H 0.48062 0.5456 0.38588 0.0
H1291 H 0.53796 0.54498 0.32855 0.0
H1292 H 0.52604 0.55821 0.27511 0.0
H1293 H 0.5555 0.55493 0.38732 0.0
H1294 H 0.47729 0.48913 0.36524 0.0
H1295 H 0.43479 0.47281 0.3496 0.0
H1296 H 0.42441 0.50381 0.44376 0.0
H1297 H 0.46693 0.52022 0.45998 0.0
C1298 C 0.56729 0.51746 0.54816 0.0
C1299 C 0.55626 0.49322 0.55814 0.0
C1300 C 0.55984 0.52543 0.51779 0.0
C1301 C 0.54087 0.50973 0.49503 0.0
C1302 C 0.52944 0.48551 0.50544 0.0
C1303 C 0.537 0.47749 0.5358 0.0
C1304 C 0.53329 0.51843 0.46093 0.0
C1305 C 0.50887 0.51031 0.45276 0.0
C1306 C 0.54994 0.53477 0.43583 0.0
C1307 C 0.57597 0.5438 0.4399 0.0
C1308 C 0.59204 0.56835 0.44038 0.0
C1309 C 0.61659 0.57694 0.44423 0.0
C1310 C 0.62531 0.56115 0.44745 0.0
C1311 C 0.60949 0.53672 0.44673 0.0
C1312 C 0.58494 0.52804 0.44285 0.0
C1313 C 0.48286 0.554 0.33031 0.0
C1314 C 0.49527 0.55827 0.29783 0.0
C1315 C 0.4904 0.54724 0.36189 0.0
C1316 C 0.51015 0.54308 0.36283 0.0
C1317 C 0.52266 0.5476 0.33023 0.0
C1318 C 0.51562 0.55519 0.29894 0.0
C1319 C 0.51771 0.53426 0.39697 0.0
C1320 C 0.5421 0.54241 0.40524 0.0
C1321 C 0.50109 0.51746 0.42157 0.0
C1322 C 0.47518 0.50572 0.41395 0.0
C1323 C 0.46584 0.49214 0.38287 0.0
C1324 C 0.44182 0.48305 0.37374 0.0
C1325 C 0.42698 0.48747 0.39548 0.0
C1326 C 0.43599 0.50051 0.42684 0.0
C1327 C 0.46001 0.50957 0.43615 0.0
H1328 H 0.40846 0.48072 0.38806 0.0
H1329 H 0.64431 0.56783 0.45046 0.0
H1330 H 0.06261 0.53559 0.88493 0.0
H1331 H 0.03958 0.52397 0.82934 0.0
H1332 H 0.02439 0.58104 0.84216 0.0
H1333 H 0.04719 0.59248 0.89799 0.0
H1334 H -0.01248 0.55069 0.81352 0.0
H1335 H 0.06423 0.57714 0.77583 0.0
H1336 H 0.10498 0.58324 0.77045 0.0
H1337 H 0.07651 0.51127 0.73527 0.0
H1338 H 0.03575 0.50463 0.74098 0.0
H1339 H 0.94196 0.53622 0.63178 0.0
H1340 H 0.9678 0.55074 0.68466 0.0
H1341 H 0.96354 0.4829 0.696 0.0
H1342 H 0.93775 0.46829 0.64287 0.0
H1343 H 0.01253 0.5224 0.70899 0.0
H1344 H 0.93248 0.50059 0.74748 0.0
H1345 H 0.89555 0.50302 0.74824 0.0
H1346 H 0.936 0.57699 0.77503 0.0
H1347 H 0.9733 0.57511 0.77398 0.0
C1348 C 0.05456 0.54591 0.87609 0.0
C1349 C 0.05742 0.56534 0.89708 0.0
C1350 C 0.04125 0.53923 0.84348 0.0
C1351 C 0.02986 0.55151 0.82963 0.0
C1352 C 0.03251 0.57077 0.85088 0.0
C1353 C 0.04593 0.57753 0.88339 0.0
C1354 C 0.01508 0.54414 0.79403 0.0
C1355 C -0.00662 0.54468 0.79086 0.0
C1356 C 0.02204 0.53656 0.76276 0.0
C1357 C 0.04665 0.54016 0.75966 0.0
C1358 C 0.06658 0.56246 0.76746 0.0
C1359 C 0.08977 0.56608 0.76423 0.0
C1360 C 0.09335 0.54762 0.75277 0.0
C1361 C 0.07374 0.52554 0.74438 0.0
C1362 C 0.05053 0.52183 0.74767 0.0
C1363 C 0.94645 0.5242 0.64518 0.0
C1364 C 0.93719 0.50076 0.63186 0.0
C1365 C 0.96151 0.53268 0.676 0.0
C1366 C 0.96846 0.51834 0.69541 0.0
C1367 C 0.95935 0.49495 0.68206 0.0
C1368 C 0.94414 0.4864 0.65134 0.0
C1369 C -0.01569 0.52737 0.72972 0.0
C1370 C 0.00654 0.52783 0.73213 0.0
C1371 C 0.97827 0.53666 0.75986 0.0
C1372 C 0.95579 0.53775 0.76034 0.0
C1373 C 0.93359 0.51744 0.75323 0.0
C1374 C 0.91255 0.5187 0.75379 0.0
C1375 C 0.91343 0.54016 0.7616 0.0
C1376 C 0.93535 0.56038 0.76895 0.0
C1377 C 0.95645 0.55922 0.76842 0.0
H1378 H 0.89711 0.5411 0.76202 0.0
H1379 H 0.11131 0.55046 0.75021 0.0
H1380 H 0.47661 0.04402 0.43302 0.0
H1381 H 0.4906 0.03016 0.48247 0.0
H1382 H 0.53297 0.01457 0.41013 0.0
H1383 H 0.52117 0.0312 0.36147 0.0
H1384 H 0.48718 -0.00339 0.50873 0.0
H1385 H 0.57833 0.01132 0.43927 0.0
H1386 H 0.61448 0.04559 0.41598 0.0
H1387 H 0.5934 0.09292 0.46184 0.0
H1388 H 0.55727 0.05897 0.48612 0.0
H1389 H 0.45722 0.92706 0.42111 0.0
H1390 H 0.47298 0.94338 0.47926 0.0
H1391 H 0.54432 0.96306 0.44351 0.0
H1392 H 0.52844 0.94737 0.38574 0.0
H1393 H 0.55927 -0.00986 0.49004 0.0
H1394 H 0.50222 0.93554 0.54306 0.0
H1395 H 0.48316 0.91471 0.59775 0.0
H1396 H 0.46011 0.96503 0.61958 0.0
H1397 H 0.4795 -0.01318 0.56599 0.0
C1398 C 0.48886 0.03751 0.42767 0.0
C1399 C 0.49785 0.03867 0.39336 0.0
C1400 C 0.49704 0.02977 0.45616 0.0
C1401 C 0.51361 0.02203 0.45069 0.0
C1402 C 0.52129 0.02169 0.41583 0.0
C1403 C 0.51395 0.03046 0.38763 0.0
C1404 C 0.52072 0.01148 0.47997 0.0
C1405 C 0.50318 -0.00435 0.50369 0.0
C1406 C 0.54305 0.01196 0.47959 0.0
C1407 C 0.56502 0.03244 0.46501 0.0
C1408 C 0.58147 0.02898 0.44501 0.0
C1409 C 0.60197 0.0484 0.43141 0.0
C1410 C 0.60628 0.07142 0.43752 0.0
C1411 C 0.59007 0.07508 0.45719 0.0
C1412 C 0.56956 0.05573 0.47087 0.0
C1413 C 0.47632 0.93533 0.42562 0.0
C1414 C 0.49157 0.93666 0.39821 0.0
C1415 C 0.4855 0.94443 0.45936 0.0
C1416 C 0.51039 0.95569 0.46656 0.0
C1417 C 0.52526 0.95542 0.43944 0.0
C1418 C 0.5161 0.94658 0.40578 0.0
C1419 C 0.5212 0.97144 0.49883 0.0
C1420 C 0.54337 -0.00829 0.49226 0.0
C1421 C 0.50565 0.97686 0.51767 0.0
C1422 C 0.49203 0.96272 0.54909 0.0
C1423 C 0.49286 0.94219 0.55899 0.0
C1424 C 0.48204 0.93018 0.59019 0.0
C1425 C 0.47003 0.93822 0.61182 0.0
C1426 C 0.46903 0.95849 0.6025 0.0
C1427 C 0.47999 0.97074 0.57152 0.0
H1428 H 0.46172 0.92886 0.63597 0.0
H1429 H 0.62215 0.08642 0.42692 0.0
H1430 H 0.40159 0.45425 0.73761 0.0
H1431 H 0.41936 0.45054 0.79267 0.0
H1432 H 0.4895 0.49124 0.74641 0.0
H1433 H 0.47171 0.49782 0.69322 0.0
H1434 H 0.44277 0.43208 0.81442 0.0
H1435 H 0.46082 0.51091 0.81409 0.0
H1436 H 0.47291 0.55017 0.78862 0.0
H1437 H 0.54466 0.56359 0.77673 0.0
H1438 H 0.53313 0.52423 0.8001 0.0
H1439 H 0.50097 0.43643 0.71627 0.0
H1440 H 0.48425 0.43011 0.77502 0.0
H1441 H 0.5471 0.49402 0.81168 0.0
H1442 H 0.56252 0.50122 0.75237 0.0
H1443 H 0.52119 0.49861 0.8484 0.0
H1444 H 0.43728 0.4108 0.87015 0.0
H1445 H 0.42823 0.3721 0.89401 0.0
H1446 H 0.49574 0.38264 0.85741 0.0
H1447 H 0.50524 0.42119 0.83292 0.0
C1448 C 0.42084 0.46266 0.7395 0.0
C1449 C 0.43548 0.47674 0.71178 0.0
C1450 C 0.43091 0.46047 0.77093 0.0
C1451 C 0.45576 0.47161 0.7744 0.0
C1452 C 0.47029 0.48376 0.7452 0.0
C1453 C 0.46024 0.48711 0.71453 0.0
C1454 C 0.46687 0.46984 0.80766 0.0
C1455 C 0.46013 0.44707 0.82084 0.0
C1456 C 0.48831 0.4895 0.82069 0.0
C1457 C 0.496 0.51432 0.8094 0.0
C1458 C 0.47919 0.52212 0.80599 0.0
C1459 C 0.4859 0.54436 0.79154 0.0
C1460 C 0.50946 0.55931 0.78112 0.0
C1461 C 0.5264 0.55202 0.78494 0.0
C1462 C 0.51976 0.52965 0.79876 0.0
C1463 C 0.51081 0.44947 0.73669 0.0
C1464 C 0.53256 0.46981 0.72896 0.0
C1465 C 0.50157 0.44559 0.77101 0.0
C1466 C 0.51399 0.46187 0.79889 0.0
C1467 C 0.53651 0.48139 0.79121 0.0
C1468 C 0.5452 0.48575 0.75672 0.0
C1469 C 0.5016 0.46182 0.8328 0.0
C1470 C 0.50414 0.48429 0.8393 0.0
C1471 C 0.47782 0.4432 0.83647 0.0
C1472 C 0.472 0.41924 0.84937 0.0
C1473 C 0.4501 0.4048 0.86645 0.0
C1474 C 0.44485 0.38277 0.88021 0.0
C1475 C 0.46128 0.37478 0.87698 0.0
C1476 C 0.48297 0.38879 0.85985 0.0
C1477 C 0.48831 0.41084 0.84606 0.0
H1478 H 0.45724 0.3578 0.8879 0.0
H1479 H 0.51461 0.57657 0.77017 0.0
H1480 H 0.95213 0.43133 1.07704 0.0
H1481 H 0.96669 0.45108 0.13364 0.0
H1482 H 0.91103 0.47006 0.13375 0.0
H1483 H 0.89757 0.45153 1.07637 0.0
H1484 H 0.94198 0.50526 0.1527 0.0
H1485 H 0.93139 0.45446 0.22579 0.0
H1486 H 0.92365 0.42486 0.27142 0.0
H1487 H -0.00926 0.42862 0.2498 0.0
H1488 H -0.00083 0.45827 0.20375 0.0
H1489 H 0.0503 0.57444 1.08196 0.0
H1490 H 0.03049 0.56194 0.13848 0.0
H1491 H 0.01005 0.48943 0.11273 0.0
H1492 H 0.03304 0.50274 1.05762 0.0
H1493 H 0.01035 0.49472 0.18544 0.0
H1494 H 0.98011 0.52871 1.08179 0.0
H1495 H -0.01711 0.56417 1.05298 0.0
H1496 H -0.01451 0.59468 0.1552 0.0
H1497 H -0.01664 0.55977 0.18437 0.0
C1498 C 0.94337 0.44019 1.08893 0.0
C1499 C 0.92452 0.44089 1.0713 0.0
C1500 C 0.95122 0.45097 0.1221 0.0
C1501 C 0.94022 0.46258 0.13879 0.0
C1502 C 0.92034 0.46184 0.12187 0.0
C1503 C 0.91295 0.45165 1.08834 0.0
C1504 C 0.95294 0.48009 0.16799 0.0
C1505 C 0.95673 0.50284 0.16087 0.0
C1506 C 0.97161 0.47902 0.18615 0.0
C1507 C 0.96614 0.45923 0.21119 0.0
C1508 C 0.94454 0.44895 0.23024 0.0
C1509 C 0.94 0.43207 0.2564 0.0
C1510 C 0.95672 0.42491 0.26365 0.0
C1511 C 0.9779 0.43439 0.24438 0.0
C1512 C 0.98264 0.45142 0.21826 0.0
C1513 C 0.04199 0.55587 1.08863 0.0
C1514 C 0.04244 0.53937 1.06487 0.0
C1515 C 0.03083 0.54877 0.12127 0.0
C1516 C 0.0181 0.52467 0.12967 0.0
C1517 C 0.01973 0.50822 0.10694 0.0
C1518 C 0.03227 0.51563 1.07501 0.0
C1519 C -0.00116 0.51578 0.15638 0.0
C1520 C -0.00484 0.4966 0.17792 0.0
C1521 C 0.97979 0.5207 0.15276 0.0
C1522 C 0.98217 0.54203 0.13513 0.0
C1523 C 0.98157 0.54319 0.09798 0.0
C1524 C -0.01692 0.56318 1.08161 0.0
C1525 C -0.01541 0.5818 0.1022 0.0
C1526 C -0.01534 0.58047 0.13921 0.0
C1527 C -0.01654 0.56066 0.15568 0.0
H1528 H -0.01447 0.59715 1.08946 0.0
H1529 H 0.95325 0.41197 0.28414 0.0
H1530 H 0.05355 0.5216 0.44927 0.0
H1531 H 0.03676 0.50838 0.39027 0.0
H1532 H -0.01498 0.4405 0.43399 0.0
H1533 H 0.00319 0.45307 0.49171 0.0
H1534 H 0.00683 0.50045 0.35071 0.0
H1535 H 0.025 0.44619 0.3552 0.0
H1536 H 0.03701 0.4159 0.36118 0.0
H1537 H 0.96558 0.36429 0.39054 0.0
H1538 H 0.95304 0.39421 0.38588 0.0
H1539 H 0.94083 0.50301 0.43312 0.0
H1540 H 0.94777 0.49252 0.37527 0.0
H1541 H 0.93765 0.42586 0.41655 0.0
H1542 H 0.93051 0.43666 0.47478 0.0
H1543 H 0.94286 0.41704 0.35375 0.0
H1544 H 0.00181 0.50909 0.29353 0.0
H1545 H -0.00745 0.52896 0.24608 0.0
H1546 H 0.91799 0.48853 0.26971 0.0
H1547 H 0.92625 0.46812 0.31765 0.0
C1548 C 0.03855 0.50382 0.44614 0.0
C1549 C 0.02983 0.48829 0.47521 0.0
C1550 C 0.02903 0.49614 0.41211 0.0
C1551 C 0.00994 0.473 0.40654 0.0
C1552 C 0.00049 0.45802 0.43625 0.0
C1553 C 0.01043 0.46546 0.46991 0.0
C1554 C -0.00291 0.46553 0.37171 0.0
C1555 C -0.00677 0.48198 0.35237 0.0
C1556 C 0.98073 0.44112 0.36506 0.0
C1557 C -0.01205 0.42271 0.36974 0.0
C1558 C 0.01177 0.42848 0.36327 0.0
C1559 C 0.01871 0.4113 0.36646 0.0
C1560 C 0.00205 0.38819 0.37613 0.0
C1561 C 0.97843 0.38221 0.38289 0.0
C1562 C 0.97137 0.39933 0.37985 0.0
C1563 C 0.94056 0.48628 0.43017 0.0
C1564 C 0.93558 0.47094 0.45915 0.0
C1565 C 0.94411 0.47994 0.39635 0.0
C1566 C 0.94351 0.45823 0.39009 0.0
C1567 C 0.93851 0.44285 0.41941 0.0
C1568 C 0.93487 0.44923 0.45337 0.0
C1569 C 0.9518 0.45368 0.35487 0.0
C1570 C 0.95723 0.43523 0.35511 0.0
C1571 C 0.97009 0.4743 0.33877 0.0
C1572 C 0.96488 0.48736 0.31062 0.0
C1573 C -0.01662 0.50459 0.28956 0.0
C1574 C 0.97827 0.51591 0.26216 0.0
C1575 C 0.95473 0.51021 0.25516 0.0
C1576 C 0.93621 0.493 0.27535 0.0
C1577 C 0.94112 0.48154 0.30275 0.0
H1578 H 0.95083 0.51901 0.23394 0.0
H1579 H 0.00743 0.37491 0.37834 0.0
H1580 H 0.45635 0.97801 0.82597 0.0
H1581 H 0.47571 -0.00163 0.77103 0.0
H1582 H 0.41344 0.94916 0.71086 0.0
H1583 H 0.39291 0.93131 0.7658 0.0
H1584 H 0.45307 0.94321 0.69974 0.0
H1585 H 0.44171 0.00338 0.6632 0.0
H1586 H 0.43091 0.0349 0.66339 0.0
H1587 H 0.48946 0.07665 0.73419 0.0
H1588 H 0.50034 0.04524 0.73495 0.0
H1589 H 0.57801 0.03972 0.76292 0.0
H1590 H 0.5567 0.02108 0.70832 0.0
H1591 H 0.49481 0.97368 0.76943 0.0
H1592 H 0.51495 -0.0051 0.82389 0.0
H1593 H 0.5166 0.02729 0.69682 0.0
H1594 H 0.47188 0.92594 0.73487 0.0
H1595 H 0.48221 0.89425 0.72994 0.0
H1596 H 0.53541 0.93467 0.6522 0.0
H1597 H 0.52518 0.96649 0.65632 0.0
C1598 C 0.44656 0.97232 0.80114 0.0
C1599 C 0.42353 0.9528 0.79988 0.0
C1600 C 0.45744 0.98394 0.76971 0.0
C1601 C 0.44611 0.97495 0.73661 0.0
C1602 C 0.42242 0.95661 0.73581 0.0
C1603 C 0.41098 0.9461 0.76734 0.0
C1604 C 0.46139 0.97958 0.70526 0.0
C1605 C 0.46692 0.96164 0.69792 0.0
C1606 C 0.47867 0.00321 0.6979 0.0
C1607 C 0.47212 0.02212 0.69854 0.0
C1608 C 0.45226 0.01927 0.67887 0.0
C1609 C 0.4461 0.03712 0.67883 0.0
C1610 C 0.45958 0.05784 0.6986 0.0
C1611 C 0.47913 0.06067 0.71866 0.0
C1612 C 0.48537 0.04289 0.71877 0.0
C1613 C 0.55981 0.0252 0.76474 0.0
C1614 C 0.54763 0.0193 0.79739 0.0
C1615 C 0.54792 0.01423 0.73341 0.0
C1616 C 0.52412 -0.00385 0.73453 0.0
C1617 C 0.51313 -0.01207 0.76782 0.0
C1618 C 0.52447 5e-05 0.79899 0.0
C1619 C 0.50854 -0.00891 0.70309 0.0
C1620 C 0.50267 0.00884 0.69607 0.0
C1621 C 0.49096 0.96735 0.69686 0.0
C1622 C 0.49759 0.94852 0.69564 0.0
C1623 C 0.48564 0.92802 0.7165 0.0
C1624 C 0.49155 0.91004 0.71395 0.0
C1625 C 0.50941 0.9124 0.6907 0.0
C1626 C 0.52158 0.93286 0.67022 0.0
C1627 C 0.51581 0.95091 0.67278 0.0
H1628 H 0.51384 0.8984 0.6886 0.0
H1629 H 0.45482 0.07165 0.69848 0.0
H1630 H 0.4353 0.51643 0.12483 0.0
H1631 H 0.43591 0.50511 1.06408 0.0
H1632 H 0.51036 0.52439 1.07736 0.0
H1633 H 0.50979 0.53744 0.13682 0.0
H1634 H 0.50954 0.53019 1.01458 0.0
H1635 H 0.41734 0.4449 1.05333 0.0
H1636 H 0.37491 0.43385 1.04723 0.0
H1637 H 0.39386 0.49068 0.97357 0.0
H1638 H 0.4364 0.50218 0.97945 0.0
H1639 H 0.51903 0.4741 0.1299 0.0
H1640 H 0.51918 0.49208 1.07295 0.0
H1641 H 0.46573 0.42348 1.03279 0.0
H1642 H 0.46397 0.40631 1.09018 0.0
H1643 H 0.44872 0.44557 1.01484 0.0
H1644 H 0.53187 0.53336 0.96709 0.0
H1645 H 0.57079 0.54472 0.94179 0.0
H1646 H 0.56841 0.48268 0.98531 0.0
H1647 H 0.52971 0.47078 1.01179 0.0
C1648 C 0.45154 0.51745 0.11488 0.0
C1649 C 0.47243 0.52748 0.13567 0.0
C1650 C 0.45202 0.51118 1.07957 0.0
C1651 C 0.47316 0.51376 1.06462 0.0
C1652 C 0.49367 0.52253 1.08671 0.0
C1653 C 0.49331 0.52938 0.12152 0.0
C1654 C 0.47357 0.50444 1.02836 0.0
C1655 C 0.49621 0.51157 1.01387 0.0
C1656 C 0.45553 0.48123 1.01966 0.0
C1657 C 0.43003 0.47447 1.0169 0.0
C1658 C 0.41244 0.45502 1.03579 0.0
C1659 C 0.38838 0.44876 1.03252 0.0
C1660 C 0.3817 0.46168 1.0102 0.0
C1661 C 0.39907 0.48089 0.99115 0.0
C1662 C 0.42315 0.48736 0.99456 0.0
C1663 C 0.50705 0.46311 0.10899 0.0
C1664 C 0.49059 0.43919 0.11512 0.0
C1665 C 0.50748 0.4732 1.07602 0.0
C1666 C 0.492 0.45932 1.04826 0.0
C1667 C 0.47737 0.43488 1.05367 0.0
C1668 C 0.47611 0.42513 1.08689 0.0
C1669 C 0.48672 0.47084 1.01808 0.0
C1670 C 0.46238 0.4641 1.01509 0.0
C1671 C 0.50333 0.49448 1.00821 0.0
C1672 C 0.52759 0.50158 0.9935 0.0
C1673 C 0.53967 0.52231 0.97271 0.0
C1674 C 0.56182 0.52878 0.9576 0.0
C1675 C 0.57223 0.5146 0.96239 0.0
C1676 C 0.56045 0.49384 0.98217 0.0
C1677 C 0.53832 0.48728 0.99752 0.0
H1678 H 0.58932 0.51956 0.95045 0.0
H1679 H 0.36306 0.45675 1.00757 0.0
H1680 H 0.33787 0.98361 0.74623 0.0
H1681 H 0.33696 0.00286 0.69114 0.0
H1682 H 0.27045 0.94109 0.66155 0.0
H1683 H 0.27138 0.92149 0.71681 0.0
H1684 H 0.3303 0.9673 0.62628 0.0
H1685 H 0.25154 0.98298 0.60616 0.0
H1686 H 0.22431 -0.00845 0.64094 0.0
H1687 H 0.2794 0.02815 0.71911 0.0
H1688 H 0.30701 0.02012 0.68453 0.0
H1689 H 0.33562 -0.00198 0.44938 0.0
H1690 H 0.31227 0.97984 0.50273 0.0
H1691 H 0.34663 0.04789 0.55537 0.0
H1692 H 0.36999 0.06624 0.502 0.0
H1693 H 0.29669 0.01555 0.57694 0.0
H1694 H 0.3746 0.02056 0.56329 0.0
H1695 H 0.40413 0.01435 0.53058 0.0
H1696 H 0.35437 0.93962 0.52454 0.0
H1697 H 0.32447 0.94545 0.55708 0.0
C1698 C 0.32267 0.97444 0.7285 0.0
C1699 C 0.30489 0.951 0.73529 0.0
C1700 C 0.32207 -0.0145 0.69728 0.0
C1701 C 0.30357 0.97338 0.67263 0.0
C1702 C 0.28464 0.95077 0.6807 0.0
C1703 C 0.28522 0.93962 0.7121 0.0
C1704 C 0.30733 0.98203 0.63598 0.0
C1705 C 0.32264 0.97753 0.61528 0.0
C1706 C 0.29752 -0.00446 0.6221 0.0
C1707 C 0.28117 0.00057 0.64307 0.0
C1708 C 0.25781 -0.00716 0.63078 0.0
C1709 C 0.24232 -0.00236 0.65043 0.0
C1710 C 0.25007 0.01027 0.68232 0.0
C1711 C 0.27336 0.01822 0.69454 0.0
C1712 C 0.28891 0.01349 0.67498 0.0
C1713 C 0.33756 0.00924 0.47188 0.0
C1714 C 0.35485 0.03343 0.47193 0.0
C1715 C 0.32417 -0.00115 0.50223 0.0
C1716 C 0.3279 0.01256 0.53287 0.0
C1717 C 0.34347 0.03711 0.53185 0.0
C1718 C 0.35699 0.04748 0.50159 0.0
C1719 C 0.31974 0.00087 0.56745 0.0
C1720 C 0.30377 0.00477 0.58768 0.0
C1721 C 0.32925 -0.01294 0.58141 0.0
C1722 C 0.34723 0.98348 0.56214 0.0
C1723 C 0.36991 0.00283 0.55475 0.0
C1724 C 0.38673 -0.00063 0.53635 0.0
C1725 C 0.38112 0.9766 0.52547 0.0
C1726 C 0.35869 0.95724 0.53301 0.0
C1727 C 0.34181 0.9606 0.55145 0.0
H1728 H 0.39416 0.97394 0.51124 0.0
H1729 H 0.23807 0.01398 0.69748 0.0
H1730 H 0.32574 0.30011 1.0689 0.0
H1731 H 0.29923 0.29525 1.01882 0.0
H1732 H 0.35451 0.36001 0.97299 0.0
H1733 H 0.38072 0.36556 1.02327 0.0
H1734 H 0.28324 0.32669 0.98968 0.0
H1735 H 0.35725 0.34582 0.88457 0.0
H1736 H 0.39076 0.33821 0.87623 0.0
H1737 H 0.35931 0.28062 0.95009 0.0
H1738 H 0.32502 0.28712 0.95767 0.0
H1739 H 0.28566 0.38876 0.83894 0.0
H1740 H 0.28354 0.36791 0.89328 0.0
H1741 H 0.27798 0.30901 0.8324 0.0
H1742 H 0.28255 0.33076 0.77808 0.0
H1743 H 0.31364 0.32327 0.87056 0.0
H1744 H 0.23511 0.303 0.89848 0.0
H1745 H 0.19933 0.30716 0.90539 0.0
H1746 H 0.23559 0.3611 0.9846 0.0
H1747 H 0.27173 0.35756 0.97783 0.0
C1748 C 0.33212 0.31354 1.04846 0.0
C1749 C 0.35549 0.33311 1.04993 0.0
C1750 C 0.31696 0.31066 1.01988 0.0
C1751 C 0.32507 0.32713 0.99218 0.0
C1752 C 0.34809 0.34695 0.99399 0.0
C1753 C 0.36311 0.34998 1.0226 0.0
C1754 C 0.31015 0.3236 0.96042 0.0
C1755 C 0.28959 0.3257 0.9635 0.0
C1756 C 0.31801 0.32125 0.92656 0.0
C1757 C 0.33862 0.31715 0.92199 0.0
C1758 C 0.35737 0.33144 0.8989 0.0
C1759 C 0.37654 0.32732 0.89431 0.0
C1760 C 0.37731 0.30912 0.9129 0.0
C1761 C 0.35878 0.29482 0.93586 0.0
C1762 C 0.33943 0.29868 0.94026 0.0
C1763 C 0.28363 0.37121 0.83699 0.0
C1764 C 0.28531 0.36197 0.80403 0.0
C1765 C 0.28189 0.35901 0.86826 0.0
C1766 C 0.28092 0.33691 0.86714 0.0
C1767 C 0.27905 0.32618 0.83404 0.0
C1768 C 0.28146 0.33865 0.80279 0.0
C1769 C 0.28738 0.32801 0.89928 0.0
C1770 C 0.30658 0.32359 0.89646 0.0
C1771 C 0.27791 0.32777 0.93321 0.0
C1772 C 0.2562 0.33002 0.93757 0.0
C1773 C 0.23553 0.31586 0.91723 0.0
C1774 C 0.21516 0.3181 0.92115 0.0
C1775 C 0.21519 0.33439 0.94541 0.0
C1776 C 0.23558 0.34846 0.96585 0.0
C1777 C 0.256 0.3463 0.96204 0.0
H1778 H 0.19941 0.3361 0.94839 0.0
H1779 H 0.39222 0.30603 0.90938 0.0
H1780 H 0.91352 0.30192 0.17221 0.0
H1781 H 0.93163 0.29843 0.22745 0.0
H1782 H 0.00176 0.339 0.18161 0.0
H1783 H -0.0163 0.3422 0.12615 0.0
H1784 H -4e-05 0.3053 0.22583 0.0
H1785 H 0.9774 0.36549 0.22698 0.0
H1786 H 0.94995 0.38148 0.22106 0.0
H1787 H 0.90763 0.33753 0.3068 0.0
H1788 H 0.93439 0.32065 0.31246 0.0
H1789 H 0.07004 0.37623 0.37269 0.0
H1790 H 0.04991 0.35564 0.31801 0.0
H1791 H -0.01484 0.31256 0.37627 0.0
H1792 H 0.00477 0.33339 0.43065 0.0
H1793 H 0.9814 0.34182 0.32756 0.0
H1794 H 0.00919 0.28594 0.33044 0.0
H1795 H 0.03905 0.27287 0.33579 0.0
H1796 H 0.07531 0.31339 0.24378 0.0
H1797 H 0.04587 0.32701 0.23815 0.0
C1798 C 0.93277 0.30976 0.17382 0.0
C1799 C 0.94728 0.32262 0.14522 0.0
C1800 C 0.94307 0.30768 0.20525 0.0
C1801 C 0.96803 0.31881 0.20874 0.0
C1802 C 0.98246 0.33028 0.17941 0.0
C1803 C 0.97214 0.33215 0.14782 0.0
C1804 C 0.97917 0.32093 0.24392 0.0
C1805 C -0.00402 0.3133 0.24814 0.0
C1806 C 0.97375 0.33123 0.273 0.0
C1807 C 0.95768 0.34147 0.26971 0.0
C1808 C 0.96207 0.359 0.24429 0.0
C1809 C 0.94664 0.36824 0.241 0.0
C1810 C 0.92702 0.3605 0.2635 0.0
C1811 C 0.9228 0.34348 0.28933 0.0
C1812 C 0.93804 0.33399 0.2925 0.0
C1813 C 0.05174 0.36185 0.37404 0.0
C1814 C 0.03888 0.35684 0.40588 0.0
C1815 C 0.04033 0.34995 0.34282 0.0
C1816 C 0.016 0.33276 0.34316 0.0
C1817 C 0.00396 0.32579 0.37557 0.0
C1818 C 0.01532 0.33767 0.40674 0.0
C1819 C 0.00213 0.32606 0.30972 0.0
C1820 C -0.01502 0.33322 0.30562 0.0
C1821 C 0.00764 0.31581 0.28078 0.0
C1822 C 0.02538 0.30763 0.28403 0.0
C1823 C 0.02364 0.29224 0.31151 0.0
C1824 C 0.04048 0.28469 0.31456 0.0
C1825 C 0.05909 0.29233 0.29018 0.0
C1826 C 0.06088 0.30749 0.26265 0.0
C1827 C 0.0441 0.3151 0.25949 0.0
H1828 H 0.0721 0.28646 0.29258 0.0
H1829 H 0.91515 0.36776 0.261 0.0
H1830 H 0.70408 0.07639 0.71581 0.0
H1831 H 0.70619 0.06414 0.65523 0.0
H1832 H 0.66726 -0.00923 0.68691 0.0
H1833 H 0.66543 0.00294 0.74756 0.0
H1834 H 0.69651 -0.0021 0.62831 0.0
H1835 H 0.6355 0.0155 0.66899 0.0
H1836 H 0.62169 0.04094 0.69686 0.0
H1837 H 0.65855 0.09431 0.61797 0.0
H1838 H 0.67283 0.06924 0.5899 0.0
H1839 H 0.60053 0.93021 0.5114 0.0
H1840 H 0.628 0.95203 0.56009 0.0
H1841 H 0.6589 0.0159 0.49753 0.0
H1842 H 0.63133 -0.00589 0.44865 0.0
H1843 H 0.64308 0.0203 0.56434 0.0
H1844 H 0.6926 -0.00792 0.51487 0.0
H1845 H 0.70152 0.96215 0.49019 0.0
H1846 H 0.68095 0.9238 0.58824 0.0
H1847 H 0.67157 0.95329 0.61336 0.0
C1848 C 0.69707 0.05772 0.71022 0.0
C1849 C 0.68411 0.04052 0.73594 0.0
C1850 C 0.69825 0.05075 0.67563 0.0
C1851 C 0.68638 0.02658 0.66661 0.0
C1852 C 0.67642 0.00951 0.69339 0.0
C1853 C 0.67522 0.01645 0.72792 0.0
C1854 C 0.67929 0.01907 0.62955 0.0
C1855 C 0.68505 0.00293 0.61402 0.0
C1856 C 0.66428 0.02569 0.61116 0.0
C1857 C 0.65553 0.04069 0.6277 0.0
C1858 C 0.64082 0.03275 0.65779 0.0
C1859 C 0.63291 0.04709 0.67362 0.0
C1860 C 0.63938 0.0693 0.65933 0.0
C1861 C 0.65369 0.07716 0.62912 0.0
C1862 C 0.66169 0.06289 0.61323 0.0
C1863 C 0.61329 0.94887 0.50802 0.0
C1864 C 0.61382 0.96057 0.4765 0.0
C1865 C 0.62913 0.96122 0.53559 0.0
C1866 C 0.64565 -0.01455 0.53208 0.0
C1867 C 0.64643 -0.00287 0.50045 0.0
C1868 C 0.63073 0.98471 0.47269 0.0
C1869 C 0.66012 -0.00107 0.56299 0.0
C1870 C 0.65541 0.016 0.5777 0.0
C1871 C 0.67551 -0.00738 0.58089 0.0
C1872 C 0.68129 0.97489 0.56596 0.0
C1873 C 0.68983 0.97719 0.53111 0.0
C1874 C 0.69499 0.96031 0.51705 0.0
C1875 C 0.69178 0.94108 0.53762 0.0
C1876 C 0.68345 0.93871 0.57233 0.0
C1877 C 0.67824 0.95554 0.58652 0.0
H1878 H 0.69578 0.92803 0.52668 0.0
H1879 H 0.63319 0.08035 0.67154 0.0
H1880 H 0.56816 0.6602 1.01408 0.0
H1881 H 0.58633 0.65916 0.95783 0.0
H1882 H 0.64474 0.65933 1.01453 0.0
H1883 H 0.62664 0.66028 1.07087 0.0
H1884 H 0.65675 0.68173 0.94407 0.0
H1885 H 0.59997 0.60789 1.00446 0.0
H1886 H 0.56129 0.58327 1.03408 0.0
H1887 H 0.52402 0.58503 0.94053 0.0
H1888 H 0.56252 0.6096 0.91022 0.0
H1889 H 0.64395 0.57196 0.84093 0.0
H1890 H 0.64096 0.59316 0.89244 0.0
H1891 H 0.64341 0.6475 0.82401 0.0
H1892 H 0.64596 0.62613 0.77215 0.0
H1893 H 0.60202 0.60035 0.89905 0.0
H1894 H 0.66863 0.69971 0.87776 0.0
H1895 H 0.70799 0.72519 0.85057 0.0
H1896 H 0.72722 0.67142 0.86797 0.0
H1897 H 0.68814 0.64578 0.8957 0.0
C1898 C 0.58528 0.66082 1.01445 0.0
C1899 C 0.59578 0.65977 1.04664 0.0
C1900 C 0.5957 0.66041 0.9824 0.0
C1901 C 0.6166 0.6588 0.9823 0.0
C1902 C 0.62861 0.66063 1.01426 0.0
C1903 C 0.61822 0.6611 1.04638 0.0
C1904 C 0.62281 0.6499 0.95052 0.0
C1905 C 0.6448 0.66405 0.93389 0.0
C1906 C 0.60724 0.62667 0.93791 0.0
C1907 C 0.58409 0.61076 0.95525 0.0
C1908 C 0.58351 0.60298 0.99019 0.0
C1909 C 0.56164 0.58901 1.00706 0.0
C1910 C 0.54023 0.58266 0.98917 0.0
C1911 C 0.54064 0.58994 0.95422 0.0
C1912 C 0.56247 0.60383 0.93717 0.0
C1913 C 0.64413 0.58856 0.8369 0.0
C1914 C 0.64484 0.59725 0.80258 0.0
C1915 C 0.64254 0.60067 0.86628 0.0
C1916 C 0.64187 0.62176 0.86183 0.0
C1917 C 0.64409 0.63131 0.82784 0.0
C1918 C 0.6456 0.61913 0.79833 0.0
C1919 C 0.6361 0.63213 0.89233 0.0
C1920 C 0.614 0.61816 0.90879 0.0
C1921 C 0.65168 0.6554 0.90475 0.0
C1922 C 0.67534 0.67073 0.88843 0.0
C1923 C 0.68129 0.69336 0.87587 0.0
C1924 C 0.70355 0.70783 0.86036 0.0
C1925 C 0.72006 0.6999 0.85742 0.0
C1926 C 0.71437 0.6775 0.87011 0.0
C1927 C 0.69215 0.66297 0.88566 0.0
H1928 H 0.73728 0.71112 0.8454 0.0
H1929 H 0.52331 0.57213 1.00239 0.0
H1930 H -0.00893 0.64151 0.09981 0.0
H1931 H 0.96352 0.63748 0.14729 0.0
H1932 H 0.01489 0.6422 0.22526 0.0
H1933 H 0.04292 0.64723 0.17836 0.0
H1934 H 0.96518 0.59742 0.21992 0.0
H1935 H 0.00935 0.6841 0.22869 0.0
H1936 H 0.02413 0.72421 0.20448 0.0
H1937 H 0.95208 0.70766 0.1817 0.0
H1938 H 0.93691 0.66729 0.20533 0.0
H1939 H 0.94859 0.62689 0.39766 0.0
H1940 H 0.95966 0.6429 0.33812 0.0
H1941 H 0.89551 0.58339 0.29606 0.0
H1942 H 0.88418 0.56722 0.35588 0.0
H1943 H 0.94378 0.65391 0.27482 0.0
H1944 H 0.91523 0.55961 0.2325 0.0
H1945 H 0.90159 0.52023 0.2591 0.0
H1946 H 0.94558 0.55316 0.35085 0.0
H1947 H 0.95973 0.59265 0.32453 0.0
C1948 C -0.00313 0.64255 0.12707 0.0
C1949 C 0.01906 0.64431 0.13533 0.0
C1950 C 0.98105 0.64012 0.15407 0.0
C1951 C -0.01274 0.63941 0.18947 0.0
C1952 C 0.00988 0.64263 0.1979 0.0
C1953 C 0.02577 0.64533 0.17109 0.0
C1954 C 0.96943 0.63246 0.21769 0.0
C1955 C 0.96012 0.60959 0.23155 0.0
C1956 C 0.96289 0.64839 0.23248 0.0
C1957 C 0.97203 0.67259 0.21826 0.0
C1958 C -0.00331 0.68891 0.21811 0.0
C1959 C 0.00513 0.71172 0.20461 0.0
C1960 C -0.01094 0.71845 0.19142 0.0
C1961 C 0.96451 0.70241 0.19183 0.0
C1962 C 0.95598 0.67957 0.20528 0.0
C1963 C 0.93626 0.61774 0.37602 0.0
C1964 C 0.91585 0.5955 0.38119 0.0
C1965 C 0.94258 0.62697 0.34196 0.0
C1966 C 0.92862 0.61404 0.31275 0.0
C1967 C 0.9066 0.59345 0.31835 0.0
C1968 C 0.90029 0.58416 0.35243 0.0
C1969 C 0.9399 0.61901 0.27754 0.0
C1970 C 0.94806 0.64142 0.26233 0.0
C1971 C 0.94563 0.60272 0.26151 0.0
C1972 C 0.93818 0.57904 0.27683 0.0
C1973 C 0.92204 0.5584 0.25828 0.0
C1974 C 0.91421 0.53608 0.27332 0.0
C1975 C 0.92252 0.53422 0.30682 0.0
C1976 C 0.93903 0.55464 0.32503 0.0
C1977 C 0.94696 0.57698 0.31006 0.0
H1978 H 0.91623 0.51697 0.31865 0.0
H1979 H -0.00437 0.73612 0.181 0.0
H1980 H 0.48177 0.08498 0.47461 0.0
H1981 H 0.49424 0.08202 0.53524 0.0
H1982 H 0.56498 0.10314 0.49795 0.0
H1983 H 0.55249 0.10582 0.43731 0.0
H1984 H 0.5553 0.07027 0.54682 0.0
H1985 H 0.54754 0.1406 0.55042 0.0
H1986 H 0.52615 0.16311 0.54379 0.0
H1987 H 0.47314 0.11691 0.61795 0.0
H1988 H 0.49407 0.09396 0.6247 0.0
H1989 H 0.6078 0.08666 0.72583 0.0
H1990 H 0.59711 0.08842 0.66329 0.0
H1991 H 0.53095 0.08321 0.69697 0.0
H1992 H 0.54168 0.08215 0.75827 0.0
H1993 H 0.53912 0.10845 0.64825 0.0
H1994 H 0.54305 0.03684 0.64485 0.0
H1995 H 0.55861 0.00895 0.64735 0.0
H1996 H 0.61301 0.05125 0.57231 0.0
H1997 H 0.59797 0.07954 0.56966 0.0
C1998 C 0.50011 0.08929 0.47905 0.0
C1999 C 0.51597 0.09612 0.44986 0.0
C2000 C 0.50741 0.08761 0.5144 0.0
C2001 C 0.53103 0.09263 0.52285 0.0
C2002 C 0.54672 0.0991 0.49355 0.0
C2003 C 0.53948 0.10087 0.45827 0.0
C2004 C 0.53935 0.09125 0.56149 0.0
C2005 C 0.55199 0.07899 0.56878 0.0
C2006 C 0.53473 0.10161 0.5917 0.0
C2007 C 0.52224 0.11546 0.58779 0.0
C2008 C 0.53124 0.13517 0.56514 0.0
C2009 C 0.51921 0.14801 0.56139 0.0
C2010 C 0.49827 0.14141 0.58036 0.0
C2011 C 0.48935 0.12198 0.60322 0.0
C2012 C 0.50129 0.10907 0.60704 0.0
C2013 C 0.59097 0.08595 0.72008 0.0
C2014 C 0.57598 0.08446 0.74865 0.0
C2015 C 0.58454 0.08667 0.68358 0.0
C2016 C 0.56267 0.08573 0.67345 0.0
C2017 C 0.54792 0.08414 0.70222 0.0
C2018 C 0.55426 0.08348 0.73824 0.0
C2019 C 0.55507 0.08717 0.63418 0.0
C2020 C 0.54255 0.09959 0.6266 0.0
C2021 C 0.55934 0.07642 0.60389 0.0
C2022 C 0.56965 0.06057 0.60764 0.0
C2023 C 0.55862 0.04045 0.62945 0.0
C2024 C 0.56727 0.02451 0.63075 0.0
C2025 C 0.58688 0.02842 0.61022 0.0
C2026 C 0.59789 0.0483 0.58835 0.0
C2027 C 0.58935 0.06432 0.587 0.0
H2028 H 0.59349 0.01602 0.61116 0.0
H2029 H 0.48898 0.15137 0.57741 0.0
H2030 H 0.43149 0.54404 0.76663 0.0
H2031 H 0.44303 0.55585 0.82878 0.0
H2032 H 0.38741 0.48763 0.86293 0.0
H2033 H 0.37621 0.47545 0.80054 0.0
H2034 H 0.38782 0.52504 0.90397 0.0
H2035 H 0.45999 0.50659 0.91135 0.0
H2036 H 0.50087 0.51413 0.90007 0.0
H2037 H 0.52046 0.58303 0.85926 0.0
H2038 H 0.47982 0.57605 0.87106 0.0
H2039 H 0.41577 0.53969 1.09226 0.0
H2040 H 0.4057 0.5277 1.03042 0.0
H2041 H 0.47575 0.58247 0.99928 0.0
H2042 H 0.48632 0.59355 1.06184 0.0
H2043 H 0.46795 0.55236 0.95619 0.0
H2044 H 0.412 0.577 0.9849 0.0
H2045 H 0.37973 0.57839 1.01778 0.0
H2046 H 0.33218 0.50488 0.99398 0.0
H2047 H 0.36419 0.50297 0.96119 0.0
C2048 C 0.4216 0.53125 0.78707 0.0
C2049 C 0.40255 0.50851 0.77695 0.0
C2050 C 0.42853 0.53812 0.82339 0.0
C2051 C 0.41671 0.52287 0.85233 0.0
C2052 C 0.39748 0.5002 0.84232 0.0
C2053 C 0.39086 0.49312 0.80592 0.0
C2054 C 0.42298 0.53098 0.89221 0.0
C2055 C 0.4054 0.53074 0.9151 0.0
C2056 C 0.44595 0.53944 0.90865 0.0
C2057 C 0.46654 0.54035 0.89045 0.0
C2058 C 0.47272 0.52291 0.89848 0.0
C2059 C 0.49601 0.52732 0.89287 0.0
C2060 C 0.51322 0.54901 0.87885 0.0
C2061 C 0.50706 0.56618 0.8699 0.0
C2062 C 0.48385 0.56195 0.87582 0.0
C2063 C 0.42917 0.54955 1.07247 0.0
C2064 C 0.45202 0.56808 1.08349 0.0
C2065 C 0.42316 0.54266 1.03616 0.0
C2066 C 0.43934 0.55424 1.00799 0.0
C2067 C 0.46228 0.57279 1.01905 0.0
C2068 C 0.46844 0.57944 1.05555 0.0
C2069 C 0.43296 0.54663 0.96794 0.0
C2070 C 0.45036 0.54681 0.94514 0.0
C2071 C 0.41003 0.53871 0.95157 0.0
C2072 C 0.39066 0.53975 0.97107 0.0
C2073 C 0.39472 0.56108 0.98691 0.0
C2074 C 0.37645 0.56197 1.00548 0.0
C2075 C 0.35396 0.54171 1.00812 0.0
C2076 C 0.34965 0.52054 0.99203 0.0
C2077 C 0.36785 0.51954 0.97344 0.0
H2078 H 0.33984 0.54243 1.02251 0.0
H2079 H 0.5313 0.55249 0.87487 0.0
H2080 H 0.84425 0.41101 0.10902 0.0
H2081 H 0.84478 0.42269 0.17085 0.0
H2082 H 0.89594 0.40049 0.19633 0.0
H2083 H 0.89453 0.38778 0.13465 0.0
H2084 H 0.87004 0.38901 0.24979 0.0
H2085 H 0.90814 0.47459 0.20168 0.0
H2086 H 0.90722 0.50547 0.1641 0.0
H2087 H 0.83343 0.47858 0.18934 0.0
H2088 H 0.83406 0.44808 0.22764 0.0
H2089 H 0.86203 0.47658 0.40064 0.0
H2090 H 0.85898 0.46388 0.33876 0.0
H2091 H 0.88982 0.42052 0.36834 0.0
H2092 H 0.88777 0.42934 0.43002 0.0
H2093 H 0.87369 0.46403 0.28546 0.0
H2094 H 0.83323 0.38701 0.33914 0.0
H2095 H 0.82695 0.35535 0.38118 0.0
H2096 H 0.8923 0.35917 0.34718 0.0
H2097 H 0.8989 0.39071 0.30495 0.0
C2098 C 0.85557 0.40839 0.12764 0.0
C2099 C 0.86902 0.39785 0.11567 0.0
C2100 C 0.85628 0.41567 0.16367 0.0
C2101 C 0.87086 0.41335 0.18998 0.0
C2102 C 0.88431 0.4028 0.17789 0.0
C2103 C 0.88343 0.3953 0.14195 0.0
C2104 C 0.87145 0.42064 0.22977 0.0
C2105 C 0.87116 0.40566 0.25727 0.0
C2106 C 0.87168 0.44169 0.24164 0.0
C2107 C 0.871 0.45876 0.2166 0.0
C2108 C 0.89168 0.4751 0.1987 0.0
C2109 C 0.89127 0.49261 0.17757 0.0
C2110 C 0.87027 0.49376 0.174 0.0
C2111 C 0.84965 0.47757 0.19188 0.0
C2112 C 0.85005 0.46027 0.21341 0.0
C2113 C 0.86739 0.46366 0.39404 0.0
C2114 C 0.87489 0.45395 0.42151 0.0
C2115 C 0.86598 0.4564 0.35777 0.0
C2116 C 0.87322 0.43992 0.34635 0.0
C2117 C 0.88201 0.43147 0.37412 0.0
C2118 C 0.88169 0.43734 0.41043 0.0
C2119 C 0.87215 0.43236 0.30629 0.0
C2120 C 0.87249 0.44729 0.27858 0.0
C2121 C 0.87071 0.41063 0.2943 0.0
C2122 C 0.86668 0.39143 0.3192 0.0
C2123 C 0.84624 0.38108 0.34068 0.0
C2124 C 0.84263 0.36315 0.36452 0.0
C2125 C 0.85924 0.35529 0.3669 0.0
C2126 C 0.87944 0.36526 0.3453 0.0
C2127 C 0.88311 0.38315 0.32135 0.0
H2128 H 0.85644 0.34145 0.38544 0.0
H2129 H 0.87002 0.5073 0.1576 0.0
H2130 H 0.48875 0.88889 0.47524 0.0
H2131 H 0.47632 0.89021 0.53644 0.0
H2132 H 0.40573 0.87077 0.49894 0.0
H2133 H 0.41798 0.86921 0.43816 0.0
H2134 H 0.41402 0.9011 0.54902 0.0
H2135 H 0.42459 0.83277 0.54897 0.0
H2136 H 0.44662 0.81098 0.54168 0.0
H2137 H 0.49794 0.85554 0.62013 0.0
H2138 H 0.47637 0.87773 0.62765 0.0
H2139 H 0.36225 0.88316 0.72719 0.0
H2140 H 0.37259 0.8812 0.66489 0.0
H2141 H 0.43949 0.88776 0.69891 0.0
H2142 H 0.4289 0.88872 0.76025 0.0
H2143 H 0.43212 0.86334 0.64918 0.0
H2144 H 0.42412 0.93329 0.64805 0.0
H2145 H 0.40552 0.95853 0.65186 0.0
H2146 H 0.35107 0.91308 0.57785 0.0
H2147 H 0.36982 0.88805 0.57263 0.0
C2148 C 0.47044 0.88456 0.47979 0.0
C2149 C 0.45454 0.87849 0.45044 0.0
C2150 C 0.46316 0.88536 0.51548 0.0
C2151 C 0.4396 0.88038 0.52408 0.0
C2152 C 0.42394 0.87474 0.49459 0.0
C2153 C 0.43109 0.87367 0.45912 0.0
C2154 C 0.43117 0.88101 0.5629 0.0
C2155 C 0.41781 0.89248 0.57067 0.0
C2156 C 0.43615 0.87058 0.59278 0.0
C2157 C 0.44906 0.85717 0.58843 0.0
C2158 C 0.44069 0.83805 0.56444 0.0
C2159 C 0.45307 0.82559 0.56033 0.0
C2160 C 0.47373 0.83194 0.58031 0.0
C2161 C 0.48199 0.85069 0.60457 0.0
C2162 C 0.46969 0.86322 0.60877 0.0
C2163 C 0.37918 0.88415 0.72159 0.0
C2164 C 0.39436 0.8859 0.75027 0.0
C2165 C 0.38544 0.88334 0.68517 0.0
C2166 C 0.40748 0.88474 0.67515 0.0
C2167 C 0.42244 0.88656 0.70405 0.0
C2168 C 0.41616 0.88712 0.74007 0.0
C2169 C 0.41509 0.88375 0.63581 0.0
C2170 C 0.42827 0.87209 0.62779 0.0
C2171 C 0.41016 0.89427 0.60584 0.0
C2172 C 0.39834 0.90873 0.61009 0.0
C2173 C 0.40821 0.92869 0.63258 0.0
C2174 C 0.39768 0.943 0.63492 0.0
C2175 C 0.37708 0.93736 0.61523 0.0
C2176 C 0.36705 0.91747 0.59302 0.0
C2177 C 0.37771 0.9033 0.59021 0.0
H2178 H 0.36893 0.94844 0.61713 0.0
H2179 H 0.48328 0.82227 0.57708 0.0
H2180 H 0.55097 0.41233 0.76322 0.0
H2181 H 0.54045 0.40267 0.82594 0.0
H2182 H 0.57896 0.47682 0.85246 0.0
H2183 H 0.59056 0.48658 0.78987 0.0
H2184 H 0.52805 0.44772 0.88248 0.0
H2185 H 0.55229 0.37531 0.90635 0.0
H2186 H 0.581 0.36343 0.88499 0.0
H2187 H 0.6309 0.43581 0.85908 0.0
H2188 H 0.60267 0.44816 0.88079 0.0
H2189 H 0.48391 0.36761 1.05129 0.0
H2190 H 0.49542 0.37711 0.98859 0.0
H2191 H 0.55218 0.44598 1.0194 0.0
H2192 H 0.54168 0.43607 1.08203 0.0
H2193 H 0.5558 0.40465 0.95989 0.0
H2194 H 0.51996 0.47076 0.92404 0.0
H2195 H 0.48313 0.47323 0.9258 0.0
H2196 H 0.44388 0.40137 0.96204 0.0
H2197 H 0.47991 0.3978 0.95782 0.0
C2198 C 0.5577 0.42677 0.78222 0.0
C2199 C 0.57203 0.45044 0.77015 0.0
C2200 C 0.55151 0.4211 0.81869 0.0
C2201 C 0.5587 0.43877 0.84536 0.0
C2202 C 0.57297 0.46245 0.83345 0.0
C2203 C 0.57979 0.4681 0.79707 0.0
C2204 C 0.55073 0.43258 0.88478 0.0
C2205 C 0.53423 0.43844 0.89951 0.0
C2206 C 0.55799 0.41973 0.90752 0.0
C2207 C 0.57524 0.41259 0.89485 0.0
C2208 C 0.56943 0.38869 0.89621 0.0
C2209 C 0.58562 0.38188 0.88404 0.0
C2210 C 0.60773 0.39884 0.87057 0.0
C2211 C 0.61373 0.42267 0.86937 0.0
C2212 C 0.59762 0.42957 0.88155 0.0
C2213 C 0.49889 0.38485 1.04502 0.0
C2214 C 0.51176 0.40078 1.07311 0.0
C2215 C 0.50541 0.39051 1.00846 0.0
C2216 C 0.52436 0.41293 0.99751 0.0
C2217 C 0.53713 0.42881 1.02562 0.0
C2218 C 0.53114 0.4229 1.06215 0.0
C2219 C 0.53216 0.41914 0.95785 0.0
C2220 C 0.54918 0.41374 0.94319 0.0
C2221 C 0.52408 0.43116 0.93428 0.0
C2222 C 0.50323 0.43433 0.94242 0.0
C2223 C 0.50361 0.45553 0.93302 0.0
C2224 C 0.4827 0.45699 0.93362 0.0
C2225 C 0.46119 0.43747 0.94404 0.0
C2226 C 0.46063 0.41657 0.95431 0.0
C2227 C 0.4814 0.41484 0.95296 0.0
H2228 H 0.44496 0.43857 0.94422 0.0
H2229 H 0.62022 0.39353 0.86114 0.0
H2230 H 0.10636 0.55067 0.43176 0.0
H2231 H 0.10694 0.56204 0.36954 0.0
H2232 H 0.07899 0.48941 0.33744 0.0
H2233 H 0.07799 0.47788 0.39987 0.0
H2234 H 0.07382 0.55213 0.31624 0.0
H2235 H 0.14229 0.54079 0.32727 0.0
H2236 H 0.16256 0.51799 0.3413 0.0
H2237 H 0.11828 0.46469 0.26524 0.0
H2238 H 0.09756 0.48705 0.25107 0.0
H2239 H 0.10132 0.60293 0.13923 0.0
H2240 H 0.09985 0.59194 0.20181 0.0
H2241 H 0.09477 0.52579 0.17025 0.0
H2242 H 0.09799 0.53761 0.10824 0.0
H2243 H 0.11566 0.53191 0.22468 0.0
H2244 H 0.04543 0.53929 0.21395 0.0
H2245 H 0.02146 0.55848 0.20077 0.0
H2246 H 0.06338 0.61422 0.27479 0.0
H2247 H 0.08768 0.59543 0.28853 0.0
C2248 C 0.10049 0.53694 0.41168 0.0
C2249 C 0.0925 0.51317 0.42217 0.0
C2250 C 0.10066 0.54357 0.37546 0.0
C2251 C 0.09329 0.52696 0.34717 0.0
C2252 C 0.08525 0.50314 0.35757 0.0
C2253 C 0.08472 0.49643 0.39392 0.0
C2254 C 0.09423 0.5346 0.30754 0.0
C2255 C 0.08326 0.54784 0.29647 0.0
C2256 C 0.10568 0.5288 0.28009 0.0
C2257 C 0.11825 0.51548 0.28835 0.0
C2258 C 0.13679 0.52413 0.3137 0.0
C2259 C 0.14837 0.5113 0.32165 0.0
C2260 C 0.14168 0.48988 0.30423 0.0
C2261 C 0.12343 0.48127 0.27874 0.0
C2262 C 0.11178 0.49403 0.27072 0.0
C2263 C 0.10003 0.58607 0.14543 0.0
C2264 C 0.10014 0.57156 0.11736 0.0
C2265 C 0.09877 0.57939 0.182 0.0
C2266 C 0.09664 0.55737 0.19287 0.0
C2267 C 0.09655 0.54291 0.16451 0.0
C2268 C 0.09838 0.54981 0.12818 0.0
C2269 C 0.0951 0.54951 0.23276 0.0
C2270 C 0.10604 0.53622 0.24408 0.0
C2271 C 0.08304 0.55473 0.26023 0.0
C2272 C 0.06857 0.56611 0.25193 0.0
C2273 C 0.04966 0.55573 0.22723 0.0
C2274 C 0.03603 0.56655 0.21962 0.0
C2275 C 0.041 0.58763 0.23665 0.0
C2276 C 0.05958 0.59792 0.26152 0.0
C2277 C 0.07327 0.58719 0.26928 0.0
H2278 H 0.03038 0.59592 0.23069 0.0
H2279 H 0.15066 0.47997 0.31044 0.0
loop_
_geom_bond_atom_site_label_1
_geom_bond_atom_site_label_2
_geom_bond_distance
_geom_bond_site_symmetry_2
_ccdc_geom_bond_type
Dy0 O3 2.307 . S
Dy0 O5 2.395 . S
Dy0 O6 2.379 . S
Dy0 O8 2.339 . S
Dy0 O10 2.298 . S
Dy0 O14 2.275 . S
Dy0 C22 2.738 . S
Dy1 O4 2.298 . S
Dy1 O7 2.275 . S
Dy1 O9 2.307 . S
Dy1 O11 2.395 . S
Dy1 O12 2.379 . S
Dy1 O15 2.339 . S
Dy1 C31 2.738 . S
C2 O14 1.254 . S
C2 O15 1.257 . S
O3 Dy0 2.307 . S
O3 C13 1.266 . S
O4 Dy1 2.298 . S
O4 C13 1.236 . S
O5 Dy0 2.395 . S
O5 C22 1.255 . S
O6 Dy0 2.379 . S
O6 C22 1.249 . S
O7 Dy1 2.275 . S
O7 C23 1.254 . S
O8 Dy0 2.339 . S
O8 C23 1.257 . S
O9 Dy1 2.307 . S
O9 C24 1.266 . S
O10 Dy0 2.298 . S
O10 C24 1.236 . S
O11 Dy1 2.395 . S
O11 C31 1.255 . S
O12 Dy1 2.379 . S
O12 C31 1.249 . S
C13 O3 1.266 . S
C13 O4 1.236 . S
O14 Dy0 2.275 . S
O14 C2 1.254 . S
O15 Dy1 2.339 . S
O15 C2 1.257 . S
C16 C19 1.344 . S
C16 C20 1.328 . S
C16 C22 1.516 . S
C17 C18 1.304 . S
C17 C21 1.323 . S
C18 C17 1.304 . S
C18 C19 1.371 . S
C18 H32 0.930 . S
C19 C16 1.344 . S
C19 C18 1.371 . S
C19 H33 0.931 . S
C20 C16 1.328 . S
C20 C21 1.433 . S
C20 H34 0.931 . S
C21 C17 1.323 . S
C21 C20 1.433 . S
C21 H35 0.933 . S
C22 Dy0 2.738 . S
C22 O5 1.255 . S
C22 O6 1.249 . S
C22 C16 1.516 . S
C23 O7 1.254 . S
C23 O8 1.257 . S
C24 O9 1.266 . S
C24 O10 1.236 . S
C25 C28 1.344 . S
C25 C29 1.328 . S
C25 C31 1.516 . S
C26 C27 1.304 . S
C26 C30 1.323 . S
C27 C26 1.304 . S
C27 C28 1.371 . S
C27 H36 0.930 . S
C28 C25 1.344 . S
C28 C27 1.371 . S
C28 H37 0.931 . S
C29 C25 1.328 . S
C29 C30 1.433 . S
C29 H38 0.931 . S
C30 C26 1.323 . S
C30 C29 1.433 . S
C30 H39 0.933 . S
C31 Dy1 2.738 . S
C31 O11 1.255 . S
C31 O12 1.249 . S
C31 C25 1.516 . S
H32 C18 0.930 . S
H33 C19 0.931 . S
H34 C20 0.931 . S
H35 C21 0.933 . S
H36 C27 0.930 . S
H37 C28 0.931 . S
H38 C29 0.931 . S
H39 C30 0.933 . S
Dy40 O43 2.307 . S
Dy40 O45 2.395 . S
Dy40 O46 2.379 . S
Dy40 O48 2.339 . S
Dy40 O50 2.298 . S
Dy40 O54 2.275 . S
Dy40 C62 2.738 . S
Dy41 O44 2.298 . S
Dy41 O47 2.275 . S
Dy41 O49 2.307 . S
Dy41 O51 2.395 . S
Dy41 O52 2.379 . S
Dy41 O55 2.339 . S
Dy41 C71 2.738 . S
C42 O54 1.254 . S
C42 O55 1.257 . S
O43 Dy40 2.307 . S
O43 C53 1.266 . S
O44 Dy41 2.298 . S
O44 C53 1.236 . S
O45 Dy40 2.395 . S
O45 C62 1.255 . S
O46 Dy40 2.379 . S
O46 C62 1.249 . S
O47 Dy41 2.275 . S
O47 C63 1.254 . S
O48 Dy40 2.339 . S
O48 C63 1.257 . S
O49 Dy41 2.307 . S
O49 C64 1.266 . S
O50 Dy40 2.298 . S
O50 C64 1.236 . S
O51 Dy41 2.395 . S
O51 C71 1.255 . S
O52 Dy41 2.379 . S
O52 C71 1.249 . S
C53 O43 1.266 . S
C53 O44 1.236 . S
O54 Dy40 2.275 . S
O54 C42 1.254 . S
O55 Dy41 2.339 . S
O55 C42 1.257 . S
C56 C59 1.344 . S
C56 C60 1.328 . S
C56 C62 1.516 . S
C57 C58 1.304 . S
C57 C61 1.323 . S
C58 C57 1.304 . S
C58 C59 1.371 . S
C58 H72 0.930 . S
C59 C56 1.344 . S
C59 C58 1.371 . S
C59 H73 0.931 . S
C60 C56 1.328 . S
C60 C61 1.433 . S
C60 H74 0.931 . S
C61 C57 1.323 . S
C61 C60 1.433 . S
C61 H75 0.933 . S
C62 Dy40 2.738 . S
C62 O45 1.255 . S
C62 O46 1.249 . S
C62 C56 1.516 . S
C63 O47 1.254 . S
C63 O48 1.257 . S
C64 O49 1.266 . S
C64 O50 1.236 . S
C65 C68 1.344 . S
C65 C69 1.328 . S
C65 C71 1.516 . S
C66 C67 1.304 . S
C66 C70 1.323 . S
C67 C66 1.304 . S
C67 C68 1.371 . S
C67 H76 0.930 . S
C68 C65 1.344 . S
C68 C67 1.371 . S
C68 H77 0.931 . S
C69 C65 1.328 . S
C69 C70 1.433 . S
C69 H78 0.931 . S
C70 C66 1.323 . S
C70 C69 1.433 . S
C70 H79 0.933 . S
C71 Dy41 2.738 . S
C71 O51 1.255 . S
C71 O52 1.249 . S
C71 C65 1.516 . S
H72 C58 0.930 . S
H73 C59 0.931 . S
H74 C60 0.931 . S
H75 C61 0.933 . S
H76 C67 0.930 . S
H77 C68 0.931 . S
H78 C69 0.931 . S
H79 C70 0.933 . S
Dy80 O83 2.307 . S
Dy80 O85 2.395 . S
Dy80 O86 2.379 . S
Dy80 O88 2.339 . S
Dy80 O90 2.298 . S
Dy80 O94 2.275 . S
Dy80 C102 2.738 . S
Dy81 O84 2.298 . S
Dy81 O87 2.275 . S
Dy81 O89 2.307 . S
Dy81 O91 2.395 . S
Dy81 O92 2.379 . S
Dy81 O95 2.339 . S
Dy81 C111 2.738 . S
C82 O94 1.254 . S
C82 O95 1.257 . S
O83 Dy80 2.307 . S
O83 C93 1.266 . S
O84 Dy81 2.298 . S
O84 C93 1.236 . S
O85 Dy80 2.395 . S
O85 C102 1.255 . S
O86 Dy80 2.379 . S
O86 C102 1.249 . S
O87 Dy81 2.275 . S
O87 C103 1.254 . S
O88 Dy80 2.339 . S
O88 C103 1.257 . S
O89 Dy81 2.307 . S
O89 C104 1.266 . S
O90 Dy80 2.298 . S
O90 C104 1.236 . S
O91 Dy81 2.395 . S
O91 C111 1.255 . S
O92 Dy81 2.379 . S
O92 C111 1.249 . S
C93 O83 1.266 . S
C93 O84 1.236 . S
O94 Dy80 2.275 . S
O94 C82 1.254 . S
O95 Dy81 2.339 . S
O95 C82 1.257 . S
C96 C99 1.344 . S
C96 C100 1.328 . S
C96 C102 1.516 . S
C97 C98 1.304 . S
C97 C101 1.323 . S
C98 C97 1.304 . S
C98 C99 1.371 . S
C98 H112 0.930 . S
C99 C96 1.344 . S
C99 C98 1.371 . S
C99 H113 0.931 . S
C100 C96 1.328 . S
C100 C101 1.433 . S
C100 H114 0.931 . S
C101 C97 1.323 . S
C101 C100 1.433 . S
C101 H115 0.933 . S
C102 Dy80 2.738 . S
C102 O85 1.255 . S
C102 O86 1.249 . S
C102 C96 1.516 . S
C103 O87 1.254 . S
C103 O88 1.257 . S
C104 O89 1.266 . S
C104 O90 1.236 . S
C105 C108 1.344 . S
C105 C109 1.328 . S
C105 C111 1.516 1_554 S
C106 C107 1.304 . S
C106 C110 1.323 . S
C107 C106 1.304 . S
C107 C108 1.371 . S
C107 H116 0.930 . S
C108 C105 1.344 . S
C108 C107 1.371 . S
C108 H117 0.931 . S
C109 C105 1.328 . S
C109 C110 1.433 . S
C109 H118 0.931 . S
C110 C106 1.323 . S
C110 C109 1.433 . S
C110 H119 0.933 . S
C111 Dy81 2.738 . S
C111 O91 1.255 . S
C111 O92 1.249 . S
C111 C105 1.516 1_556 S
H112 C98 0.930 . S
H113 C99 0.931 . S
H114 C100 0.931 . S
H115 C101 0.933 . S
H116 C107 0.930 . S
H117 C108 0.931 . S
H118 C109 0.931 . S
H119 C110 0.933 . S
Dy120 O123 2.307 . S
Dy120 O125 2.395 . S
Dy120 O126 2.379 . S
Dy120 O128 2.339 . S
Dy120 O130 2.298 . S
Dy120 O134 2.275 . S
Dy120 C142 2.738 . S
Dy121 O124 2.298 . S
Dy121 O127 2.275 . S
Dy121 O129 2.307 . S
Dy121 O131 2.395 . S
Dy121 O132 2.379 . S
Dy121 O135 2.339 . S
Dy121 C151 2.738 . S
C122 O134 1.254 . S
C122 O135 1.257 . S
O123 Dy120 2.307 . S
O123 C133 1.266 . S
O124 Dy121 2.298 . S
O124 C133 1.236 . S
O125 Dy120 2.395 . S
O125 C142 1.255 . S
O126 Dy120 2.379 . S
O126 C142 1.249 . S
O127 Dy121 2.275 . S
O127 C143 1.254 . S
O128 Dy120 2.339 . S
O128 C143 1.257 . S
O129 Dy121 2.307 . S
O129 C144 1.266 . S
O130 Dy120 2.298 . S
O130 C144 1.236 . S
O131 Dy121 2.395 . S
O131 C151 1.255 . S
O132 Dy121 2.379 . S
O132 C151 1.249 . S
C133 O123 1.266 . S
C133 O124 1.236 . S
O134 Dy120 2.275 . S
O134 C122 1.254 . S
O135 Dy121 2.339 . S
O135 C122 1.257 . S
C136 C139 1.344 . S
C136 C140 1.328 . S
C136 C142 1.516 . S
C137 C138 1.304 . S
C137 C141 1.323 . S
C138 C137 1.304 . S
C138 C139 1.371 . S
C138 H152 0.930 . S
C139 C136 1.344 . S
C139 C138 1.371 . S
C139 H153 0.931 . S
C140 C136 1.328 . S
C140 C141 1.433 . S
C140 H154 0.931 . S
C141 C137 1.323 . S
C141 C140 1.433 . S
C141 H155 0.933 . S
C142 Dy120 2.738 . S
C142 O125 1.255 . S
C142 O126 1.249 . S
C142 C136 1.516 . S
C143 O127 1.254 . S
C143 O128 1.257 . S
C144 O129 1.266 . S
C144 O130 1.236 . S
C145 C148 1.344 . S
C145 C149 1.328 . S
C145 C151 1.516 . S
C146 C147 1.304 . S
C146 C150 1.323 . S
C147 C146 1.304 . S
C147 C148 1.371 . S
C147 H156 0.930 . S
C148 C145 1.344 . S
C148 C147 1.371 . S
C148 H157 0.931 . S
C149 C145 1.328 . S
C149 C150 1.433 . S
C149 H158 0.931 . S
C150 C146 1.323 . S
C150 C149 1.433 . S
C150 H159 0.933 . S
C151 Dy121 2.738 . S
C151 O131 1.255 . S
C151 O132 1.249 . S
C151 C145 1.516 . S
H152 C138 0.930 . S
H153 C139 0.931 . S
H154 C140 0.931 . S
H155 C141 0.933 . S
H156 C147 0.930 . S
H157 C148 0.931 . S
H158 C149 0.931 . S
H159 C150 0.933 . S
Dy160 O163 2.307 . S
Dy160 O165 2.395 . S
Dy160 O166 2.379 . S
Dy160 O168 2.339 . S
Dy160 O170 2.298 . S
Dy160 O174 2.275 . S
Dy160 C182 2.738 . S
Dy161 O164 2.298 . S
Dy161 O167 2.275 . S
Dy161 O169 2.307 . S
Dy161 O171 2.395 . S
Dy161 O172 2.379 . S
Dy161 O175 2.339 . S
Dy161 C191 2.738 . S
C162 O174 1.254 . S
C162 O175 1.257 . S
O163 Dy160 2.307 . S
O163 C173 1.266 . S
O164 Dy161 2.298 . S
O164 C173 1.236 . S
O165 Dy160 2.395 . S
O165 C182 1.255 . S
O166 Dy160 2.379 . S
O166 C182 1.249 . S
O167 Dy161 2.275 . S
O167 C183 1.254 . S
O168 Dy160 2.339 . S
O168 C183 1.257 . S
O169 Dy161 2.307 . S
O169 C184 1.266 . S
O170 Dy160 2.298 . S
O170 C184 1.236 . S
O171 Dy161 2.395 . S
O171 C191 1.255 . S
O172 Dy161 2.379 . S
O172 C191 1.249 . S
C173 O163 1.266 . S
C173 O164 1.236 . S
O174 Dy160 2.275 . S
O174 C162 1.254 . S
O175 Dy161 2.339 . S
O175 C162 1.257 . S
C176 C179 1.344 . S
C176 C180 1.328 . S
C176 C182 1.516 . S
C177 C178 1.304 . S
C177 C181 1.323 . S
C178 C177 1.304 . S
C178 C179 1.371 . S
C178 H192 0.930 . S
C179 C176 1.344 . S
C179 C178 1.371 . S
C179 H193 0.931 . S
C180 C176 1.328 . S
C180 C181 1.433 . S
C180 H194 0.931 . S
C181 C177 1.323 . S
C181 C180 1.433 . S
C181 H195 0.933 . S
C182 Dy160 2.738 . S
C182 O165 1.255 . S
C182 O166 1.249 . S
C182 C176 1.516 . S
C183 O167 1.254 . S
C183 O168 1.257 . S
C184 O169 1.266 . S
C184 O170 1.236 . S
C185 C188 1.344 . S
C185 C189 1.328 . S
C185 C191 1.516 . S
C186 C187 1.304 . S
C186 C190 1.323 . S
C187 C186 1.304 . S
C187 C188 1.371 . S
C187 H196 0.930 . S
C188 C185 1.344 . S
C188 C187 1.371 . S
C188 H197 0.931 . S
C189 C185 1.328 . S
C189 C190 1.433 . S
C189 H198 0.931 . S
C190 C186 1.323 . S
C190 C189 1.433 . S
C190 H199 0.933 . S
C191 Dy161 2.738 . S
C191 O171 1.255 . S
C191 O172 1.249 . S
C191 C185 1.516 . S
H192 C178 0.930 . S
H193 C179 0.931 . S
H194 C180 0.931 . S
H195 C181 0.933 . S
H196 C187 0.930 . S
H197 C188 0.931 . S
H198 C189 0.931 . S
H199 C190 0.933 . S
Dy200 O203 2.307 . S
Dy200 O205 2.395 . S
Dy200 O206 2.379 . S
Dy200 O208 2.339 . S
Dy200 O210 2.298 . S
Dy200 O214 2.275 . S
Dy200 C222 2.738 . S
Dy201 O204 2.298 . S
Dy201 O207 2.275 . S
Dy201 O209 2.307 . S
Dy201 O211 2.395 . S
Dy201 O212 2.379 . S
Dy201 O215 2.339 . S
Dy201 C231 2.738 . S
C202 O214 1.254 . S
C202 O215 1.257 . S
O203 Dy200 2.307 . S
O203 C213 1.266 . S
O204 Dy201 2.298 . S
O204 C213 1.236 . S
O205 Dy200 2.395 . S
O205 C222 1.255 . S
O206 Dy200 2.379 . S
O206 C222 1.249 . S
O207 Dy201 2.275 . S
O207 C223 1.254 . S
O208 Dy200 2.339 . S
O208 C223 1.257 . S
O209 Dy201 2.307 . S
O209 C224 1.266 . S
O210 Dy200 2.298 . S
O210 C224 1.236 . S
O211 Dy201 2.395 . S
O211 C231 1.255 . S
O212 Dy201 2.379 . S
O212 C231 1.249 . S
C213 O203 1.266 . S
C213 O204 1.236 . S
O214 Dy200 2.275 . S
O214 C202 1.254 . S
O215 Dy201 2.339 . S
O215 C202 1.257 . S
C216 C219 1.344 . S
C216 C220 1.328 . S
C216 C222 1.516 . S
C217 C218 1.304 . S
C217 C221 1.323 . S
C218 C217 1.304 . S
C218 C219 1.371 . S
C218 H232 0.930 . S
C219 C216 1.344 . S
C219 C218 1.371 . S
C219 H233 0.931 . S
C220 C216 1.328 . S
C220 C221 1.433 . S
C220 H234 0.931 . S
C221 C217 1.323 . S
C221 C220 1.433 . S
C221 H235 0.933 . S
C222 Dy200 2.738 . S
C222 O205 1.255 . S
C222 O206 1.249 . S
C222 C216 1.516 . S
C223 O207 1.254 . S
C223 O208 1.257 . S
C224 O209 1.266 . S
C224 O210 1.236 . S
C225 C228 1.344 . S
C225 C229 1.328 . S
C225 C231 1.516 1_554 S
C226 C227 1.304 . S
C226 C230 1.323 . S
C227 C226 1.304 . S
C227 C228 1.371 . S
C227 H236 0.930 . S
C228 C225 1.344 . S
C228 C227 1.371 . S
C228 H237 0.931 . S
C229 C225 1.328 . S
C229 C230 1.433 . S
C229 H238 0.931 . S
C230 C226 1.323 . S
C230 C229 1.433 . S
C230 H239 0.933 . S
C231 Dy201 2.738 . S
C231 O211 1.255 . S
C231 O212 1.249 . S
C231 C225 1.516 1_556 S
H232 C218 0.930 . S
H233 C219 0.931 . S
H234 C220 0.931 . S
H235 C221 0.933 . S
H236 C227 0.930 . S
H237 C228 0.931 . S
H238 C229 0.931 . S
H239 C230 0.933 . S
Dy240 O243 2.307 . S
Dy240 O245 2.395 . S
Dy240 O246 2.379 . S
Dy240 O248 2.339 . S
Dy240 O250 2.298 . S
Dy240 O254 2.275 . S
Dy240 C262 2.738 . S
Dy241 O244 2.298 . S
Dy241 O247 2.275 . S
Dy241 O249 2.307 . S
Dy241 O251 2.395 . S
Dy241 O252 2.379 . S
Dy241 O255 2.339 . S
Dy241 C271 2.738 . S
C242 O254 1.254 . S
C242 O255 1.257 . S
O243 Dy240 2.307 . S
O243 C253 1.266 . S
O244 Dy241 2.298 . S
O244 C253 1.236 . S
O245 Dy240 2.395 . S
O245 C262 1.255 . S
O246 Dy240 2.379 . S
O246 C262 1.249 . S
O247 Dy241 2.275 . S
O247 C263 1.254 . S
O248 Dy240 2.339 . S
O248 C263 1.257 . S
O249 Dy241 2.307 . S
O249 C264 1.266 . S
O250 Dy240 2.298 . S
O250 C264 1.236 . S
O251 Dy241 2.395 . S
O251 C271 1.255 . S
O252 Dy241 2.379 . S
O252 C271 1.249 . S
C253 O243 1.266 . S
C253 O244 1.236 . S
O254 Dy240 2.275 . S
O254 C242 1.254 . S
O255 Dy241 2.339 . S
O255 C242 1.257 . S
C256 C259 1.344 . S
C256 C260 1.328 . S
C256 C262 1.516 . S
C257 C258 1.304 . S
C257 C261 1.323 . S
C258 C257 1.304 . S
C258 C259 1.371 . S
C258 H272 0.930 . S
C259 C256 1.344 . S
C259 C258 1.371 . S
C259 H273 0.931 . S
C260 C256 1.328 . S
C260 C261 1.433 . S
C260 H274 0.931 . S
C261 C257 1.323 . S
C261 C260 1.433 . S
C261 H275 0.933 . S
C262 Dy240 2.738 . S
C262 O245 1.255 . S
C262 O246 1.249 . S
C262 C256 1.516 . S
C263 O247 1.254 . S
C263 O248 1.257 . S
C264 O249 1.266 . S
C264 O250 1.236 . S
C265 C268 1.344 . S
C265 C269 1.328 . S
C265 C271 1.516 . S
C266 C267 1.304 . S
C266 C270 1.323 . S
C267 C266 1.304 . S
C267 C268 1.371 . S
C267 H276 0.930 . S
C268 C265 1.344 . S
C268 C267 1.371 . S
C268 H277 0.931 . S
C269 C265 1.328 . S
C269 C270 1.433 . S
C269 H278 0.931 . S
C270 C266 1.323 . S
C270 C269 1.433 . S
C270 H279 0.933 . S
C271 Dy241 2.738 . S
C271 O251 1.255 . S
C271 O252 1.249 . S
C271 C265 1.516 . S
H272 C258 0.930 . S
H273 C259 0.931 . S
H274 C260 0.931 . S
H275 C261 0.933 . S
H276 C267 0.930 . S
H277 C268 0.931 . S
H278 C269 0.931 . S
H279 C270 0.933 . S
Dy280 O283 2.307 . S
Dy280 O285 2.395 . S
Dy280 O286 2.379 . S
Dy280 O288 2.339 . S
Dy280 O290 2.298 . S
Dy280 O294 2.275 . S
Dy280 C302 2.738 . S
Dy281 O284 2.298 . S
Dy281 O287 2.275 . S
Dy281 O289 2.307 . S
Dy281 O291 2.395 . S
Dy281 O292 2.379 . S
Dy281 O295 2.339 . S
Dy281 C311 2.738 . S
C282 O294 1.254 . S
C282 O295 1.257 . S
O283 Dy280 2.307 . S
O283 C293 1.266 . S
O284 Dy281 2.298 . S
O284 C293 1.236 . S
O285 Dy280 2.395 . S
O285 C302 1.255 . S
O286 Dy280 2.379 . S
O286 C302 1.249 . S
O287 Dy281 2.275 . S
O287 C303 1.254 . S
O288 Dy280 2.339 . S
O288 C303 1.257 . S
O289 Dy281 2.307 . S
O289 C304 1.266 . S
O290 Dy280 2.298 . S
O290 C304 1.236 . S
O291 Dy281 2.395 . S
O291 C311 1.255 . S
O292 Dy281 2.379 . S
O292 C311 1.249 . S
C293 O283 1.266 . S
C293 O284 1.236 . S
O294 Dy280 2.275 . S
O294 C282 1.254 . S
O295 Dy281 2.339 . S
O295 C282 1.257 . S
C296 C299 1.344 . S
C296 C300 1.328 . S
C296 C302 1.516 . S
C297 C298 1.304 . S
C297 C301 1.323 . S
C298 C297 1.304 . S
C298 C299 1.371 . S
C298 H312 0.930 . S
C299 C296 1.344 . S
C299 C298 1.371 . S
C299 H313 0.931 . S
C300 C296 1.328 . S
C300 C301 1.433 . S
C300 H314 0.931 . S
C301 C297 1.323 . S
C301 C300 1.433 . S
C301 H315 0.933 . S
C302 Dy280 2.738 . S
C302 O285 1.255 . S
C302 O286 1.249 . S
C302 C296 1.516 . S
C303 O287 1.254 . S
C303 O288 1.257 . S
C304 O289 1.266 . S
C304 O290 1.236 . S
C305 C308 1.344 . S
C305 C309 1.328 . S
C305 C311 1.516 . S
C306 C307 1.304 . S
C306 C310 1.323 . S
C307 C306 1.304 . S
C307 C308 1.371 . S
C307 H316 0.930 . S
C308 C305 1.344 . S
C308 C307 1.371 . S
C308 H317 0.931 . S
C309 C305 1.328 . S
C309 C310 1.433 . S
C309 H318 0.931 . S
C310 C306 1.323 . S
C310 C309 1.433 . S
C310 H319 0.933 . S
C311 Dy281 2.738 . S
C311 O291 1.255 . S
C311 O292 1.249 . S
C311 C305 1.516 . S
H312 C298 0.930 . S
H313 C299 0.931 . S
H314 C300 0.931 . S
H315 C301 0.933 . S
H316 C307 0.930 . S
H317 C308 0.931 . S
H318 C309 0.931 . S
H319 C310 0.933 . S
Dy320 O323 2.307 . S
Dy320 O325 2.395 . S
Dy320 O326 2.379 . S
Dy320 O328 2.339 . S
Dy320 O330 2.298 . S
Dy320 O334 2.275 . S
Dy320 C342 2.738 . S
Dy321 O324 2.298 . S
Dy321 O327 2.275 . S
Dy321 O329 2.307 . S
Dy321 O331 2.395 . S
Dy321 O332 2.379 . S
Dy321 O335 2.339 . S
Dy321 C351 2.738 . S
C322 O334 1.254 . S
C322 O335 1.257 . S
O323 Dy320 2.307 . S
O323 C333 1.266 . S
O324 Dy321 2.298 . S
O324 C333 1.236 . S
O325 Dy320 2.395 . S
O325 C342 1.255 . S
O326 Dy320 2.379 . S
O326 C342 1.249 . S
O327 Dy321 2.275 . S
O327 C343 1.254 . S
O328 Dy320 2.339 . S
O328 C343 1.257 . S
O329 Dy321 2.307 . S
O329 C344 1.266 . S
O330 Dy320 2.298 . S
O330 C344 1.236 . S
O331 Dy321 2.395 . S
O331 C351 1.255 . S
O332 Dy321 2.379 . S
O332 C351 1.249 . S
C333 O323 1.266 . S
C333 O324 1.236 . S
O334 Dy320 2.275 . S
O334 C322 1.254 . S
O335 Dy321 2.339 . S
O335 C322 1.257 . S
C336 C339 1.344 . S
C336 C340 1.328 . S
C336 C342 1.516 . S
C337 C338 1.304 . S
C337 C341 1.323 . S
C338 C337 1.304 . S
C338 C339 1.371 . S
C338 H352 0.930 . S
C339 C336 1.344 . S
C339 C338 1.371 . S
C339 H353 0.931 . S
C340 C336 1.328 . S
C340 C341 1.433 . S
C340 H354 0.931 . S
C341 C337 1.323 . S
C341 C340 1.433 . S
C341 H355 0.933 . S
C342 Dy320 2.738 . S
C342 O325 1.255 . S
C342 O326 1.249 . S
C342 C336 1.516 . S
C343 O327 1.254 . S
C343 O328 1.257 . S
C344 O329 1.266 . S
C344 O330 1.236 . S
C345 C348 1.344 . S
C345 C349 1.328 . S
C345 C351 1.516 1_556 S
C346 C347 1.304 . S
C346 C350 1.323 . S
C347 C346 1.304 . S
C347 C348 1.371 . S
C347 H356 0.930 . S
C348 C345 1.344 . S
C348 C347 1.371 . S
C348 H357 0.931 . S
C349 C345 1.328 . S
C349 C350 1.433 . S
C349 H358 0.931 . S
C350 C346 1.323 . S
C350 C349 1.433 . S
C350 H359 0.933 . S
C351 Dy321 2.738 . S
C351 O331 1.255 . S
C351 O332 1.249 . S
C351 C345 1.516 1_554 S
H352 C338 0.930 . S
H353 C339 0.931 . S
H354 C340 0.931 . S
H355 C341 0.933 . S
H356 C347 0.930 . S
H357 C348 0.931 . S
H358 C349 0.931 . S
H359 C350 0.933 . S
Dy360 O363 2.307 . S
Dy360 O365 2.395 . S
Dy360 O366 2.379 . S
Dy360 O368 2.339 . S
Dy360 O370 2.298 . S
Dy360 O374 2.275 . S
Dy360 C382 2.738 . S
Dy361 O364 2.298 . S
Dy361 O367 2.275 . S
Dy361 O369 2.307 . S
Dy361 O371 2.395 . S
Dy361 O372 2.379 . S
Dy361 O375 2.339 . S
Dy361 C391 2.738 . S
C362 O374 1.254 . S
C362 O375 1.257 . S
O363 Dy360 2.307 . S
O363 C373 1.266 . S
O364 Dy361 2.298 . S
O364 C373 1.236 . S
O365 Dy360 2.395 . S
O365 C382 1.255 . S
O366 Dy360 2.379 . S
O366 C382 1.249 . S
O367 Dy361 2.275 . S
O367 C383 1.254 . S
O368 Dy360 2.339 . S
O368 C383 1.257 . S
O369 Dy361 2.307 . S
O369 C384 1.266 . S
O370 Dy360 2.298 . S
O370 C384 1.236 . S
O371 Dy361 2.395 . S
O371 C391 1.255 . S
O372 Dy361 2.379 . S
O372 C391 1.249 . S
C373 O363 1.266 . S
C373 O364 1.236 . S
O374 Dy360 2.275 . S
O374 C362 1.254 . S
O375 Dy361 2.339 . S
O375 C362 1.257 . S
C376 C379 1.344 . S
C376 C380 1.328 . S
C376 C382 1.516 . S
C377 C378 1.304 . S
C377 C381 1.323 . S
C378 C377 1.304 . S
C378 C379 1.371 . S
C378 H392 0.930 . S
C379 C376 1.344 . S
C379 C378 1.371 . S
C379 H393 0.931 . S
C380 C376 1.328 . S
C380 C381 1.433 . S
C380 H394 0.931 . S
C381 C377 1.323 . S
C381 C380 1.433 . S
C381 H395 0.933 . S
C382 Dy360 2.738 . S
C382 O365 1.255 . S
C382 O366 1.249 . S
C382 C376 1.516 . S
C383 O367 1.254 . S
C383 O368 1.257 . S
C384 O369 1.266 . S
C384 O370 1.236 . S
C385 C388 1.344 . S
C385 C389 1.328 . S
C385 C391 1.516 . S
C386 C387 1.304 . S
C386 C390 1.323 . S
C387 C386 1.304 . S
C387 C388 1.371 . S
C387 H396 0.930 . S
C388 C385 1.344 . S
C388 C387 1.371 . S
C388 H397 0.931 . S
C389 C385 1.328 . S
C389 C390 1.433 . S
C389 H398 0.931 . S
C390 C386 1.323 . S
C390 C389 1.433 . S
C390 H399 0.933 . S
C391 Dy361 2.738 . S
C391 O371 1.255 . S
C391 O372 1.249 . S
C391 C385 1.516 . S
H392 C378 0.930 . S
H393 C379 0.931 . S
H394 C380 0.931 . S
H395 C381 0.933 . S
H396 C387 0.930 . S
H397 C388 0.931 . S
H398 C389 0.931 . S
H399 C390 0.933 . S
Dy400 O403 2.307 . S
Dy400 O405 2.395 . S
Dy400 O406 2.379 . S
Dy400 O408 2.339 . S
Dy400 O410 2.298 . S
Dy400 O414 2.275 . S
Dy400 C422 2.738 . S
Dy401 O404 2.298 . S
Dy401 O407 2.275 . S
Dy401 O409 2.307 . S
Dy401 O411 2.395 . S
Dy401 O412 2.379 . S
Dy401 O415 2.339 . S
Dy401 C431 2.738 . S
C402 O414 1.254 . S
C402 O415 1.257 . S
O403 Dy400 2.307 . S
O403 C413 1.266 . S
O404 Dy401 2.298 . S
O404 C413 1.236 . S
O405 Dy400 2.395 . S
O405 C422 1.255 . S
O406 Dy400 2.379 . S
O406 C422 1.249 . S
O407 Dy401 2.275 . S
O407 C423 1.254 . S
O408 Dy400 2.339 . S
O408 C423 1.257 . S
O409 Dy401 2.307 . S
O409 C424 1.266 . S
O410 Dy400 2.298 . S
O410 C424 1.236 . S
O411 Dy401 2.395 . S
O411 C431 1.255 . S
O412 Dy401 2.379 . S
O412 C431 1.249 . S
C413 O403 1.266 . S
C413 O404 1.236 . S
O414 Dy400 2.275 . S
O414 C402 1.254 . S
O415 Dy401 2.339 . S
O415 C402 1.257 . S
C416 C419 1.344 . S
C416 C420 1.328 . S
C416 C422 1.516 . S
C417 C418 1.304 . S
C417 C421 1.323 . S
C418 C417 1.304 . S
C418 C419 1.371 . S
C418 H432 0.930 . S
C419 C416 1.344 . S
C419 C418 1.371 . S
C419 H433 0.931 . S
C420 C416 1.328 . S
C420 C421 1.433 . S
C420 H434 0.931 . S
C421 C417 1.323 . S
C421 C420 1.433 . S
C421 H435 0.933 . S
C422 Dy400 2.738 . S
C422 O405 1.255 . S
C422 O406 1.249 . S
C422 C416 1.516 . S
C423 O407 1.254 . S
C423 O408 1.257 . S
C424 O409 1.266 . S
C424 O410 1.236 . S
C425 C428 1.344 . S
C425 C429 1.328 . S
C425 C431 1.516 . S
C426 C427 1.304 . S
C426 C430 1.323 . S
C427 C426 1.304 . S
C427 C428 1.371 . S
C427 H436 0.930 . S
C428 C425 1.344 . S
C428 C427 1.371 . S
C428 H437 0.931 . S
C429 C425 1.328 . S
C429 C430 1.433 . S
C429 H438 0.931 . S
C430 C426 1.323 . S
C430 C429 1.433 . S
C430 H439 0.933 . S
C431 Dy401 2.738 . S
C431 O411 1.255 . S
C431 O412 1.249 . S
C431 C425 1.516 . S
H432 C418 0.930 . S
H433 C419 0.931 . S
H434 C420 0.931 . S
H435 C421 0.933 . S
H436 C427 0.930 . S
H437 C428 0.931 . S
H438 C429 0.931 . S
H439 C430 0.933 . S
Dy440 O443 2.307 . S
Dy440 O445 2.395 . S
Dy440 O446 2.379 . S
Dy440 O448 2.339 . S
Dy440 O450 2.298 . S
Dy440 O454 2.275 . S
Dy440 C462 2.738 . S
Dy441 O444 2.298 . S
Dy441 O447 2.275 . S
Dy441 O449 2.307 . S
Dy441 O451 2.395 . S
Dy441 O452 2.379 . S
Dy441 O455 2.339 . S
Dy441 C471 2.738 . S
C442 O454 1.254 . S
C442 O455 1.257 . S
O443 Dy440 2.307 . S
O443 C453 1.266 . S
O444 Dy441 2.298 . S
O444 C453 1.236 . S
O445 Dy440 2.395 . S
O445 C462 1.255 . S
O446 Dy440 2.379 . S
O446 C462 1.249 . S
O447 Dy441 2.275 . S
O447 C463 1.254 . S
O448 Dy440 2.339 . S
O448 C463 1.257 . S
O449 Dy441 2.307 . S
O449 C464 1.266 . S
O450 Dy440 2.298 . S
O450 C464 1.236 . S
O451 Dy441 2.395 . S
O451 C471 1.255 . S
O452 Dy441 2.379 . S
O452 C471 1.249 . S
C453 O443 1.266 . S
C453 O444 1.236 . S
O454 Dy440 2.275 . S
O454 C442 1.254 . S
O455 Dy441 2.339 . S
O455 C442 1.257 . S
C456 C459 1.344 . S
C456 C460 1.328 . S
C456 C462 1.516 . S
C457 C458 1.304 . S
C457 C461 1.323 . S
C458 C457 1.304 . S
C458 C459 1.371 . S
C458 H472 0.930 . S
C459 C456 1.344 . S
C459 C458 1.371 . S
C459 H473 0.931 . S
C460 C456 1.328 . S
C460 C461 1.433 . S
C460 H474 0.931 . S
C461 C457 1.323 . S
C461 C460 1.433 . S
C461 H475 0.933 . S
C462 Dy440 2.738 . S
C462 O445 1.255 . S
C462 O446 1.249 . S
C462 C456 1.516 . S
C463 O447 1.254 . S
C463 O448 1.257 . S
C464 O449 1.266 . S
C464 O450 1.236 . S
C465 C468 1.344 . S
C465 C469 1.328 . S
C465 C471 1.516 1_556 S
C466 C467 1.304 . S
C466 C470 1.323 . S
C467 C466 1.304 . S
C467 C468 1.371 . S
C467 H476 0.930 . S
C468 C465 1.344 . S
C468 C467 1.371 . S
C468 H477 0.931 . S
C469 C465 1.328 . S
C469 C470 1.433 . S
C469 H478 0.931 . S
C470 C466 1.323 . S
C470 C469 1.433 . S
C470 H479 0.933 . S
C471 Dy441 2.738 . S
C471 O451 1.255 . S
C471 O452 1.249 . S
C471 C465 1.516 1_554 S
H472 C458 0.930 . S
H473 C459 0.931 . S
H474 C460 0.931 . S
H475 C461 0.933 . S
H476 C467 0.930 . S
H477 C468 0.931 . S
H478 C469 0.931 . S
H479 C470 0.933 . S
H480 C498 0.951 . S
H481 C500 0.951 . S
H482 C502 0.950 . S
H483 C503 0.950 . S
H484 C505 0.950 . S
H485 C508 0.950 . S
H486 C509 0.950 . S
H487 C511 0.950 . S
H488 C512 0.950 . S
H489 C513 0.951 . S
H490 C515 0.951 . S
H491 C517 0.950 . S
H492 C518 0.950 . S
H493 C520 0.950 . S
H494 C523 0.950 . S
H495 C524 0.950 . S
H496 C526 0.950 . S
H497 C527 0.950 . S
C498 H480 0.951 . S
C498 C499 1.366 . S
C498 C500 1.388 . S
C499 C498 1.366 . S
C499 C503 1.385 . S
C500 H481 0.951 . S
C500 C498 1.388 . S
C500 C501 1.366 . S
C501 C500 1.366 . S
C501 C502 1.414 . S
C501 C504 1.499 . S
C502 H482 0.950 . S
C502 C501 1.414 . S
C502 C503 1.374 . S
C503 H483 0.950 . S
C503 C499 1.385 . S
C503 C502 1.374 . S
C504 C501 1.499 . S
C504 C505 1.373 . S
C504 C506 1.389 . S
C505 H484 0.950 . S
C505 C504 1.373 . S
C505 C521 1.377 . S
C506 C504 1.389 . S
C506 C507 1.524 . S
C506 C520 1.377 . S
C507 C506 1.524 . S
C507 C508 1.397 . S
C507 C512 1.363 . S
C508 H485 0.950 . S
C508 C507 1.397 . S
C508 C509 1.334 . S
C509 H486 0.950 . S
C509 C508 1.334 . S
C509 C510 1.287 . S
C510 C509 1.287 . S
C510 C511 1.524 . S
C510 H529 0.913 . S
C511 H487 0.950 . S
C511 C510 1.524 . S
C511 C512 1.415 . S
C512 H488 0.950 . S
C512 C507 1.363 . S
C512 C511 1.415 . S
C513 H489 0.951 . S
C513 C514 1.366 . S
C513 C515 1.388 . S
C514 C513 1.366 . S
C514 C518 1.385 . S
C515 H490 0.951 . S
C515 C513 1.388 . S
C515 C516 1.366 . S
C516 C515 1.366 . S
C516 C517 1.414 . S
C516 C519 1.499 . S
C517 H491 0.950 . S
C517 C516 1.414 . S
C517 C518 1.374 . S
C518 H492 0.950 . S
C518 C514 1.385 . S
C518 C517 1.374 . S
C519 C516 1.499 . S
C519 C520 1.373 . S
C519 C521 1.389 . S
C520 H493 0.950 . S
C520 C506 1.377 . S
C520 C519 1.373 . S
C521 C505 1.377 . S
C521 C519 1.389 . S
C521 C522 1.524 . S
C522 C521 1.524 . S
C522 C523 1.397 . S
C522 C527 1.363 . S
C523 H494 0.950 . S
C523 C522 1.397 . S
C523 C524 1.334 . S
C524 H495 0.950 . S
C524 C523 1.334 . S
C524 C525 1.287 . S
C525 C524 1.287 . S
C525 C526 1.524 . S
C525 H528 0.999 . S
C526 H496 0.950 . S
C526 C525 1.524 . S
C526 C527 1.415 . S
C527 H497 0.950 . S
C527 C522 1.363 . S
C527 C526 1.415 . S
H528 C525 0.999 . S
H529 C510 0.913 . S
H530 C548 0.951 . S
H531 C550 0.951 . S
H532 C552 0.950 . S
H533 C553 0.950 . S
H534 C555 0.950 . S
H535 C558 0.950 . S
H536 C559 0.950 . S
H537 C561 0.950 . S
H538 C562 0.950 . S
H539 C563 0.951 . S
H540 C565 0.951 . S
H541 C567 0.950 . S
H542 C568 0.950 . S
H543 C570 0.950 . S
H544 C573 0.950 . S
H545 C574 0.950 . S
H546 C576 0.950 . S
H547 C577 0.950 . S
C548 H530 0.951 . S
C548 C549 1.366 . S
C548 C550 1.388 . S
C549 C548 1.366 . S
C549 C553 1.385 . S
C550 H531 0.951 . S
C550 C548 1.388 . S
C550 C551 1.366 . S
C551 C550 1.366 . S
C551 C552 1.414 . S
C551 C554 1.499 . S
C552 H532 0.950 . S
C552 C551 1.414 . S
C552 C553 1.374 . S
C553 H533 0.950 . S
C553 C549 1.385 . S
C553 C552 1.374 . S
C554 C551 1.499 . S
C554 C555 1.373 . S
C554 C556 1.389 . S
C555 H534 0.950 . S
C555 C554 1.373 . S
C555 C571 1.377 . S
C556 C554 1.389 . S
C556 C557 1.524 . S
C556 C570 1.377 . S
C557 C556 1.524 . S
C557 C558 1.397 . S
C557 C562 1.363 . S
C558 H535 0.950 . S
C558 C557 1.397 . S
C558 C559 1.334 . S
C559 H536 0.950 . S
C559 C558 1.334 . S
C559 C560 1.287 . S
C560 C559 1.287 . S
C560 C561 1.524 . S
C560 H579 0.913 . S
C561 H537 0.950 . S
C561 C560 1.524 . S
C561 C562 1.415 . S
C562 H538 0.950 . S
C562 C557 1.363 . S
C562 C561 1.415 . S
C563 H539 0.951 . S
C563 C564 1.366 . S
C563 C565 1.388 . S
C564 C563 1.366 . S
C564 C568 1.385 . S
C565 H540 0.951 . S
C565 C563 1.388 . S
C565 C566 1.366 . S
C566 C565 1.366 . S
C566 C567 1.414 . S
C566 C569 1.499 . S
C567 H541 0.950 . S
C567 C566 1.414 . S
C567 C568 1.374 . S
C568 H542 0.950 . S
C568 C564 1.385 . S
C568 C567 1.374 . S
C569 C566 1.499 . S
C569 C570 1.373 . S
C569 C571 1.389 . S
C570 H543 0.950 . S
C570 C556 1.377 . S
C570 C569 1.373 . S
C571 C555 1.377 . S
C571 C569 1.389 . S
C571 C572 1.524 . S
C572 C571 1.524 . S
C572 C573 1.397 . S
C572 C577 1.363 . S
C573 H544 0.950 . S
C573 C572 1.397 . S
C573 C574 1.334 . S
C574 H545 0.950 . S
C574 C573 1.334 . S
C574 C575 1.287 . S
C575 C574 1.287 . S
C575 C576 1.524 . S
C575 H578 0.999 . S
C576 H546 0.950 . S
C576 C575 1.524 . S
C576 C577 1.415 . S
C577 H547 0.950 . S
C577 C572 1.363 . S
C577 C576 1.415 . S
H578 C575 0.999 . S
H579 C560 0.913 . S
H580 C598 0.951 . S
H581 C600 0.951 . S
H582 C602 0.950 . S
H583 C603 0.950 . S
H584 C605 0.950 . S
H585 C608 0.950 . S
H586 C609 0.950 . S
H587 C611 0.950 . S
H588 C612 0.950 . S
H589 C613 0.951 . S
H590 C615 0.951 . S
H591 C617 0.950 . S
H592 C618 0.950 . S
H593 C620 0.950 . S
H594 C623 0.950 . S
H595 C624 0.950 . S
H596 C626 0.950 . S
H597 C627 0.950 . S
C598 H580 0.951 . S
C598 C599 1.366 . S
C598 C600 1.388 . S
C599 C598 1.366 . S
C599 C603 1.385 . S
C600 H581 0.951 . S
C600 C598 1.388 . S
C600 C601 1.366 . S
C601 C600 1.366 . S
C601 C602 1.414 . S
C601 C604 1.499 . S
C602 H582 0.950 . S
C602 C601 1.414 . S
C602 C603 1.374 . S
C603 H583 0.950 . S
C603 C599 1.385 . S
C603 C602 1.374 . S
C604 C601 1.499 . S
C604 C605 1.373 . S
C604 C606 1.389 . S
C605 H584 0.950 . S
C605 C604 1.373 . S
C605 C621 1.377 . S
C606 C604 1.389 . S
C606 C607 1.524 . S
C606 C620 1.377 . S
C607 C606 1.524 . S
C607 C608 1.397 . S
C607 C612 1.363 . S
C608 H585 0.950 . S
C608 C607 1.397 . S
C608 C609 1.334 . S
C609 H586 0.950 . S
C609 C608 1.334 . S
C609 C610 1.287 . S
C610 C609 1.287 . S
C610 C611 1.524 . S
C610 H629 0.913 . S
C611 H587 0.950 . S
C611 C610 1.524 . S
C611 C612 1.415 . S
C612 H588 0.950 . S
C612 C607 1.363 . S
C612 C611 1.415 . S
C613 H589 0.951 . S
C613 C614 1.366 . S
C613 C615 1.388 . S
C614 C613 1.366 . S
C614 C618 1.385 . S
C615 H590 0.951 . S
C615 C613 1.388 . S
C615 C616 1.366 . S
C616 C615 1.366 . S
C616 C617 1.414 . S
C616 C619 1.499 . S
C617 H591 0.950 . S
C617 C616 1.414 . S
C617 C618 1.374 . S
C618 H592 0.950 . S
C618 C614 1.385 . S
C618 C617 1.374 . S
C619 C616 1.499 . S
C619 C620 1.373 . S
C619 C621 1.389 . S
C620 H593 0.950 . S
C620 C606 1.377 . S
C620 C619 1.373 . S
C621 C605 1.377 . S
C621 C619 1.389 . S
C621 C622 1.524 . S
C622 C621 1.524 . S
C622 C623 1.397 . S
C622 C627 1.363 . S
C623 H594 0.950 . S
C623 C622 1.397 . S
C623 C624 1.334 . S
C624 H595 0.950 . S
C624 C623 1.334 . S
C624 C625 1.287 . S
C625 C624 1.287 . S
C625 C626 1.524 . S
C625 H628 0.999 . S
C626 H596 0.950 . S
C626 C625 1.524 . S
C626 C627 1.415 . S
C627 H597 0.950 . S
C627 C622 1.363 . S
C627 C626 1.415 . S
H628 C625 0.999 . S
H629 C610 0.913 . S
H630 C648 0.951 . S
H631 C650 0.951 . S
H632 C652 0.950 . S
H633 C653 0.950 . S
H634 C655 0.950 . S
H635 C658 0.950 . S
H636 C659 0.950 . S
H637 C661 0.950 . S
H638 C662 0.950 . S
H639 C663 0.951 . S
H640 C665 0.951 . S
H641 C667 0.950 . S
H642 C668 0.950 . S
H643 C670 0.950 . S
H644 C673 0.950 . S
H645 C674 0.950 . S
H646 C676 0.950 . S
H647 C677 0.950 . S
C648 H630 0.951 . S
C648 C649 1.366 . S
C648 C650 1.388 . S
C649 C648 1.366 . S
C649 C653 1.385 . S
C650 H631 0.951 . S
C650 C648 1.388 . S
C650 C651 1.366 . S
C651 C650 1.366 . S
C651 C652 1.414 . S
C651 C654 1.499 . S
C652 H632 0.950 . S
C652 C651 1.414 . S
C652 C653 1.374 . S
C653 H633 0.950 . S
C653 C649 1.385 . S
C653 C652 1.374 . S
C654 C651 1.499 . S
C654 C655 1.373 . S
C654 C656 1.389 . S
C655 H634 0.950 . S
C655 C654 1.373 . S
C655 C671 1.377 . S
C656 C654 1.389 . S
C656 C657 1.524 . S
C656 C670 1.377 . S
C657 C656 1.524 . S
C657 C658 1.397 . S
C657 C662 1.363 . S
C658 H635 0.950 . S
C658 C657 1.397 . S
C658 C659 1.334 . S
C659 H636 0.950 . S
C659 C658 1.334 . S
C659 C660 1.287 . S
C660 C659 1.287 . S
C660 C661 1.524 . S
C660 H679 0.913 . S
C661 H637 0.950 . S
C661 C660 1.524 . S
C661 C662 1.415 . S
C662 H638 0.950 . S
C662 C657 1.363 . S
C662 C661 1.415 . S
C663 H639 0.951 . S
C663 C664 1.366 . S
C663 C665 1.388 . S
C664 C663 1.366 . S
C664 C668 1.385 . S
C665 H640 0.951 . S
C665 C663 1.388 . S
C665 C666 1.366 . S
C666 C665 1.366 . S
C666 C667 1.414 . S
C666 C669 1.499 . S
C667 H641 0.950 . S
C667 C666 1.414 . S
C667 C668 1.374 . S
C668 H642 0.950 . S
C668 C664 1.385 . S
C668 C667 1.374 . S
C669 C666 1.499 . S
C669 C670 1.373 . S
C669 C671 1.389 . S
C670 H643 0.950 . S
C670 C656 1.377 . S
C670 C669 1.373 . S
C671 C655 1.377 . S
C671 C669 1.389 . S
C671 C672 1.524 . S
C672 C671 1.524 . S
C672 C673 1.397 . S
C672 C677 1.363 . S
C673 H644 0.950 . S
C673 C672 1.397 . S
C673 C674 1.334 . S
C674 H645 0.950 . S
C674 C673 1.334 . S
C674 C675 1.287 . S
C675 C674 1.287 . S
C675 C676 1.524 . S
C675 H678 0.999 . S
C676 H646 0.950 . S
C676 C675 1.524 . S
C676 C677 1.415 . S
C677 H647 0.950 . S
C677 C672 1.363 . S
C677 C676 1.415 . S
H678 C675 0.999 . S
H679 C660 0.913 . S
H680 C698 0.951 . S
H681 C700 0.951 . S
H682 C702 0.950 . S
H683 C703 0.950 . S
H684 C705 0.950 . S
H685 C708 0.950 . S
H686 C709 0.950 . S
H687 C711 0.950 . S
H688 C712 0.950 . S
H689 C713 0.951 . S
H690 C715 0.951 . S
H691 C717 0.950 . S
H692 C718 0.950 . S
H693 C720 0.950 . S
H694 C723 0.950 . S
H695 C724 0.950 . S
H696 C726 0.950 . S
H697 C727 0.950 . S
C698 H680 0.951 . S
C698 C699 1.366 . S
C698 C700 1.388 . S
C699 C698 1.366 . S
C699 C703 1.385 . S
C700 H681 0.951 . S
C700 C698 1.388 . S
C700 C701 1.366 . S
C701 C700 1.366 . S
C701 C702 1.414 . S
C701 C704 1.499 . S
C702 H682 0.950 . S
C702 C701 1.414 . S
C702 C703 1.374 . S
C703 H683 0.950 . S
C703 C699 1.385 . S
C703 C702 1.374 . S
C704 C701 1.499 . S
C704 C705 1.373 . S
C704 C706 1.389 . S
C705 H684 0.950 . S
C705 C704 1.373 . S
C705 C721 1.377 . S
C706 C704 1.389 . S
C706 C707 1.524 . S
C706 C720 1.377 . S
C707 C706 1.524 . S
C707 C708 1.397 . S
C707 C712 1.363 . S
C708 H685 0.950 . S
C708 C707 1.397 . S
C708 C709 1.334 . S
C709 H686 0.950 . S
C709 C708 1.334 . S
C709 C710 1.287 . S
C710 C709 1.287 . S
C710 C711 1.524 . S
C710 H729 0.913 . S
C711 H687 0.950 . S
C711 C710 1.524 . S
C711 C712 1.415 . S
C712 H688 0.950 . S
C712 C707 1.363 . S
C712 C711 1.415 . S
C713 H689 0.951 . S
C713 C714 1.366 . S
C713 C715 1.388 . S
C714 C713 1.366 . S
C714 C718 1.385 . S
C715 H690 0.951 . S
C715 C713 1.388 . S
C715 C716 1.366 . S
C716 C715 1.366 . S
C716 C717 1.414 . S
C716 C719 1.499 . S
C717 H691 0.950 . S
C717 C716 1.414 . S
C717 C718 1.374 . S
C718 H692 0.950 . S
C718 C714 1.385 . S
C718 C717 1.374 . S
C719 C716 1.499 . S
C719 C720 1.373 . S
C719 C721 1.389 . S
C720 H693 0.950 . S
C720 C706 1.377 . S
C720 C719 1.373 . S
C721 C705 1.377 . S
C721 C719 1.389 . S
C721 C722 1.524 . S
C722 C721 1.524 . S
C722 C723 1.397 . S
C722 C727 1.363 . S
C723 H694 0.950 . S
C723 C722 1.397 . S
C723 C724 1.334 . S
C724 H695 0.950 . S
C724 C723 1.334 . S
C724 C725 1.287 . S
C725 C724 1.287 . S
C725 C726 1.524 . S
C725 H728 0.999 . S
C726 H696 0.950 . S
C726 C725 1.524 . S
C726 C727 1.415 . S
C727 H697 0.950 . S
C727 C722 1.363 . S
C727 C726 1.415 . S
H728 C725 0.999 . S
H729 C710 0.913 . S
H730 C748 0.951 . S
H731 C750 0.951 . S
H732 C752 0.950 . S
H733 C753 0.950 . S
H734 C755 0.950 . S
H735 C758 0.950 . S
H736 C759 0.950 . S
H737 C761 0.950 . S
H738 C762 0.950 . S
H739 C763 0.951 . S
H740 C765 0.951 . S
H741 C767 0.950 . S
H742 C768 0.950 . S
H743 C770 0.950 . S
H744 C773 0.950 . S
H745 C774 0.950 . S
H746 C776 0.950 . S
H747 C777 0.950 . S
C748 H730 0.951 . S
C748 C749 1.366 . S
C748 C750 1.388 . S
C749 C748 1.366 . S
C749 C753 1.385 . S
C750 H731 0.951 . S
C750 C748 1.388 . S
C750 C751 1.366 . S
C751 C750 1.366 . S
C751 C752 1.414 . S
C751 C754 1.499 . S
C752 H732 0.950 . S
C752 C751 1.414 . S
C752 C753 1.374 . S
C753 H733 0.950 . S
C753 C749 1.385 . S
C753 C752 1.374 . S
C754 C751 1.499 . S
C754 C755 1.373 . S
C754 C756 1.389 . S
C755 H734 0.950 . S
C755 C754 1.373 . S
C755 C771 1.377 . S
C756 C754 1.389 . S
C756 C757 1.524 . S
C756 C770 1.377 . S
C757 C756 1.524 . S
C757 C758 1.397 . S
C757 C762 1.363 . S
C758 H735 0.950 . S
C758 C757 1.397 . S
C758 C759 1.334 . S
C759 H736 0.950 . S
C759 C758 1.334 . S
C759 C760 1.287 . S
C760 C759 1.287 . S
C760 C761 1.524 . S
C760 H779 0.913 . S
C761 H737 0.950 . S
C761 C760 1.524 . S
C761 C762 1.415 . S
C762 H738 0.950 . S
C762 C757 1.363 . S
C762 C761 1.415 . S
C763 H739 0.951 . S
C763 C764 1.366 . S
C763 C765 1.388 . S
C764 C763 1.366 . S
C764 C768 1.385 . S
C765 H740 0.951 . S
C765 C763 1.388 . S
C765 C766 1.366 . S
C766 C765 1.366 . S
C766 C767 1.414 . S
C766 C769 1.499 . S
C767 H741 0.950 . S
C767 C766 1.414 . S
C767 C768 1.374 . S
C768 H742 0.950 . S
C768 C764 1.385 . S
C768 C767 1.374 . S
C769 C766 1.499 . S
C769 C770 1.373 . S
C769 C771 1.389 . S
C770 H743 0.950 . S
C770 C756 1.377 . S
C770 C769 1.373 . S
C771 C755 1.377 . S
C771 C769 1.389 . S
C771 C772 1.524 . S
C772 C771 1.524 . S
C772 C773 1.397 . S
C772 C777 1.363 . S
C773 H744 0.950 . S
C773 C772 1.397 . S
C773 C774 1.334 . S
C774 H745 0.950 . S
C774 C773 1.334 . S
C774 C775 1.287 . S
C775 C774 1.287 . S
C775 C776 1.524 . S
C775 H778 0.999 . S
C776 H746 0.950 . S
C776 C775 1.524 . S
C776 C777 1.415 . S
C777 H747 0.950 . S
C777 C772 1.363 . S
C777 C776 1.415 . S
H778 C775 0.999 . S
H779 C760 0.913 . S
H780 C798 0.951 . S
H781 C800 0.951 . S
H782 C802 0.950 . S
H783 C803 0.950 . S
H784 C805 0.950 . S
H785 C808 0.950 . S
H786 C809 0.950 . S
H787 C811 0.950 . S
H788 C812 0.950 . S
H789 C813 0.951 . S
H790 C815 0.951 . S
H791 C817 0.950 . S
H792 C818 0.950 . S
H793 C820 0.950 . S
H794 C823 0.950 . S
H795 C824 0.950 . S
H796 C826 0.950 . S
H797 C827 0.950 . S
C798 H780 0.951 . S
C798 C799 1.366 . S
C798 C800 1.388 . S
C799 C798 1.366 . S
C799 C803 1.385 . S
C800 H781 0.951 . S
C800 C798 1.388 . S
C800 C801 1.366 . S
C801 C800 1.366 . S
C801 C802 1.414 . S
C801 C804 1.499 . S
C802 H782 0.950 . S
C802 C801 1.414 . S
C802 C803 1.374 . S
C803 H783 0.950 . S
C803 C799 1.385 . S
C803 C802 1.374 . S
C804 C801 1.499 . S
C804 C805 1.373 . S
C804 C806 1.389 . S
C805 H784 0.950 . S
C805 C804 1.373 . S
C805 C821 1.377 1_556 S
C806 C804 1.389 . S
C806 C807 1.524 . S
C806 C820 1.377 1_556 S
C807 C806 1.524 . S
C807 C808 1.397 . S
C807 C812 1.363 1_556 S
C808 H785 0.950 . S
C808 C807 1.397 . S
C808 C809 1.334 . S
C809 H786 0.950 . S
C809 C808 1.334 . S
C809 C810 1.287 . S
C810 C809 1.287 . S
C810 C811 1.524 1_556 S
C810 H829 0.913 . S
C811 H787 0.950 . S
C811 C810 1.524 1_554 S
C811 C812 1.415 . S
C812 H788 0.950 . S
C812 C807 1.363 1_554 S
C812 C811 1.415 . S
C813 H789 0.951 . S
C813 C814 1.366 . S
C813 C815 1.388 . S
C814 C813 1.366 . S
C814 C818 1.385 . S
C815 H790 0.951 . S
C815 C813 1.388 . S
C815 C816 1.366 . S
C816 C815 1.366 . S
C816 C817 1.414 . S
C816 C819 1.499 . S
C817 H791 0.950 . S
C817 C816 1.414 . S
C817 C818 1.374 . S
C818 H792 0.950 . S
C818 C814 1.385 . S
C818 C817 1.374 . S
C819 C816 1.499 . S
C819 C820 1.373 . S
C819 C821 1.389 . S
C820 H793 0.950 . S
C820 C806 1.377 1_554 S
C820 C819 1.373 . S
C821 C805 1.377 1_554 S
C821 C819 1.389 . S
C821 C822 1.524 . S
C822 C821 1.524 . S
C822 C823 1.397 . S
C822 C827 1.363 1_554 S
C823 H794 0.950 . S
C823 C822 1.397 . S
C823 C824 1.334 . S
C824 H795 0.950 . S
C824 C823 1.334 . S
C824 C825 1.287 . S
C825 C824 1.287 . S
C825 C826 1.524 1_554 S
C825 H828 0.999 . S
C826 H796 0.950 . S
C826 C825 1.524 1_556 S
C826 C827 1.415 . S
C827 H797 0.950 . S
C827 C822 1.363 1_556 S
C827 C826 1.415 . S
H828 C825 0.999 . S
H829 C810 0.913 . S
H830 C848 0.951 . S
H831 C850 0.951 . S
H832 C852 0.950 . S
H833 C853 0.950 . S
H834 C855 0.950 . S
H835 C858 0.950 . S
H836 C859 0.950 . S
H837 C861 0.950 . S
H838 C862 0.950 . S
H839 C863 0.951 . S
H840 C865 0.951 . S
H841 C867 0.950 . S
H842 C868 0.950 . S
H843 C870 0.950 . S
H844 C873 0.950 . S
H845 C874 0.950 . S
H846 C876 0.950 . S
H847 C877 0.950 . S
C848 H830 0.951 . S
C848 C849 1.366 . S
C848 C850 1.388 . S
C849 C848 1.366 . S
C849 C853 1.385 . S
C850 H831 0.951 . S
C850 C848 1.388 . S
C850 C851 1.366 . S
C851 C850 1.366 . S
C851 C852 1.414 . S
C851 C854 1.499 . S
C852 H832 0.950 . S
C852 C851 1.414 . S
C852 C853 1.374 . S
C853 H833 0.950 . S
C853 C849 1.385 . S
C853 C852 1.374 . S
C854 C851 1.499 . S
C854 C855 1.373 . S
C854 C856 1.389 . S
C855 H834 0.950 . S
C855 C854 1.373 . S
C855 C871 1.377 . S
C856 C854 1.389 . S
C856 C857 1.524 . S
C856 C870 1.377 . S
C857 C856 1.524 . S
C857 C858 1.397 . S
C857 C862 1.363 . S
C858 H835 0.950 . S
C858 C857 1.397 . S
C858 C859 1.334 . S
C859 H836 0.950 . S
C859 C858 1.334 . S
C859 C860 1.287 . S
C860 C859 1.287 . S
C860 C861 1.524 . S
C860 H879 0.913 . S
C861 H837 0.950 . S
C861 C860 1.524 . S
C861 C862 1.415 . S
C862 H838 0.950 . S
C862 C857 1.363 . S
C862 C861 1.415 . S
C863 H839 0.951 . S
C863 C864 1.366 . S
C863 C865 1.388 . S
C864 C863 1.366 . S
C864 C868 1.385 . S
C865 H840 0.951 . S
C865 C863 1.388 . S
C865 C866 1.366 . S
C866 C865 1.366 . S
C866 C867 1.414 . S
C866 C869 1.499 . S
C867 H841 0.950 . S
C867 C866 1.414 . S
C867 C868 1.374 . S
C868 H842 0.950 . S
C868 C864 1.385 . S
C868 C867 1.374 . S
C869 C866 1.499 . S
C869 C870 1.373 . S
C869 C871 1.389 . S
C870 H843 0.950 . S
C870 C856 1.377 . S
C870 C869 1.373 . S
C871 C855 1.377 . S
C871 C869 1.389 . S
C871 C872 1.524 . S
C872 C871 1.524 . S
C872 C873 1.397 . S
C872 C877 1.363 . S
C873 H844 0.950 . S
C873 C872 1.397 . S
C873 C874 1.334 . S
C874 H845 0.950 . S
C874 C873 1.334 . S
C874 C875 1.287 . S
C875 C874 1.287 . S
C875 C876 1.524 . S
C875 H878 0.999 . S
C876 H846 0.950 . S
C876 C875 1.524 . S
C876 C877 1.415 . S
C877 H847 0.950 . S
C877 C872 1.363 . S
C877 C876 1.415 . S
H878 C875 0.999 . S
H879 C860 0.913 . S
H880 C898 0.951 . S
H881 C900 0.951 . S
H882 C902 0.950 . S
H883 C903 0.950 . S
H884 C905 0.950 . S
H885 C908 0.950 . S
H886 C909 0.950 . S
H887 C911 0.950 . S
H888 C912 0.950 . S
H889 C913 0.951 . S
H890 C915 0.951 . S
H891 C917 0.950 . S
H892 C918 0.950 . S
H893 C920 0.950 . S
H894 C923 0.950 . S
H895 C924 0.950 . S
H896 C926 0.950 . S
H897 C927 0.950 . S
C898 H880 0.951 . S
C898 C899 1.366 . S
C898 C900 1.388 . S
C899 C898 1.366 . S
C899 C903 1.385 . S
C900 H881 0.951 . S
C900 C898 1.388 . S
C900 C901 1.366 . S
C901 C900 1.366 . S
C901 C902 1.414 . S
C901 C904 1.499 . S
C902 H882 0.950 . S
C902 C901 1.414 . S
C902 C903 1.374 . S
C903 H883 0.950 . S
C903 C899 1.385 . S
C903 C902 1.374 . S
C904 C901 1.499 . S
C904 C905 1.373 . S
C904 C906 1.389 . S
C905 H884 0.950 . S
C905 C904 1.373 . S
C905 C921 1.377 . S
C906 C904 1.389 . S
C906 C907 1.524 . S
C906 C920 1.377 . S
C907 C906 1.524 . S
C907 C908 1.397 . S
C907 C912 1.363 . S
C908 H885 0.950 . S
C908 C907 1.397 . S
C908 C909 1.334 . S
C909 H886 0.950 . S
C909 C908 1.334 . S
C909 C910 1.287 . S
C910 C909 1.287 . S
C910 C911 1.524 . S
C910 H929 0.913 . S
C911 H887 0.950 . S
C911 C910 1.524 . S
C911 C912 1.415 . S
C912 H888 0.950 . S
C912 C907 1.363 . S
C912 C911 1.415 . S
C913 H889 0.951 . S
C913 C914 1.366 . S
C913 C915 1.388 . S
C914 C913 1.366 . S
C914 C918 1.385 . S
C915 H890 0.951 . S
C915 C913 1.388 . S
C915 C916 1.366 . S
C916 C915 1.366 . S
C916 C917 1.414 . S
C916 C919 1.499 . S
C917 H891 0.950 . S
C917 C916 1.414 . S
C917 C918 1.374 . S
C918 H892 0.950 . S
C918 C914 1.385 . S
C918 C917 1.374 . S
C919 C916 1.499 . S
C919 C920 1.373 . S
C919 C921 1.389 . S
C920 H893 0.950 . S
C920 C906 1.377 . S
C920 C919 1.373 . S
C921 C905 1.377 . S
C921 C919 1.389 . S
C921 C922 1.524 . S
C922 C921 1.524 . S
C922 C923 1.397 . S
C922 C927 1.363 . S
C923 H894 0.950 . S
C923 C922 1.397 . S
C923 C924 1.334 . S
C924 H895 0.950 . S
C924 C923 1.334 . S
C924 C925 1.287 . S
C925 C924 1.287 . S
C925 C926 1.524 . S
C925 H928 0.999 . S
C926 H896 0.950 . S
C926 C925 1.524 . S
C926 C927 1.415 . S
C927 H897 0.950 . S
C927 C922 1.363 . S
C927 C926 1.415 . S
H928 C925 0.999 . S
H929 C910 0.913 . S
H930 C948 0.951 . S
H931 C950 0.951 . S
H932 C952 0.950 . S
H933 C953 0.950 . S
H934 C955 0.950 . S
H935 C958 0.950 . S
H936 C959 0.950 . S
H937 C961 0.950 . S
H938 C962 0.950 . S
H939 C963 0.951 . S
H940 C965 0.951 . S
H941 C967 0.950 . S
H942 C968 0.950 . S
H943 C970 0.950 . S
H944 C973 0.950 . S
H945 C974 0.950 . S
H946 C976 0.950 . S
H947 C977 0.950 . S
C948 H930 0.951 . S
C948 C949 1.366 . S
C948 C950 1.388 . S
C949 C948 1.366 . S
C949 C953 1.385 . S
C950 H931 0.951 . S
C950 C948 1.388 . S
C950 C951 1.366 . S
C951 C950 1.366 . S
C951 C952 1.414 . S
C951 C954 1.499 . S
C952 H932 0.950 . S
C952 C951 1.414 . S
C952 C953 1.374 . S
C953 H933 0.950 . S
C953 C949 1.385 . S
C953 C952 1.374 . S
C954 C951 1.499 . S
C954 C955 1.373 . S
C954 C956 1.389 . S
C955 H934 0.950 . S
C955 C954 1.373 . S
C955 C971 1.377 1_556 S
C956 C954 1.389 . S
C956 C957 1.524 . S
C956 C970 1.377 1_556 S
C957 C956 1.524 . S
C957 C958 1.397 . S
C957 C962 1.363 . S
C958 H935 0.950 . S
C958 C957 1.397 . S
C958 C959 1.334 . S
C959 H936 0.950 . S
C959 C958 1.334 . S
C959 C960 1.287 . S
C960 C959 1.287 . S
C960 C961 1.524 . S
C960 H979 0.913 . S
C961 H937 0.950 . S
C961 C960 1.524 . S
C961 C962 1.415 . S
C962 H938 0.950 . S
C962 C957 1.363 . S
C962 C961 1.415 . S
C963 H939 0.951 . S
C963 C964 1.366 . S
C963 C965 1.388 . S
C964 C963 1.366 . S
C964 C968 1.385 . S
C965 H940 0.951 . S
C965 C963 1.388 . S
C965 C966 1.366 . S
C966 C965 1.366 . S
C966 C967 1.414 . S
C966 C969 1.499 . S
C967 H941 0.950 . S
C967 C966 1.414 . S
C967 C968 1.374 . S
C968 H942 0.950 . S
C968 C964 1.385 . S
C968 C967 1.374 . S
C969 C966 1.499 . S
C969 C970 1.373 . S
C969 C971 1.389 . S
C970 H943 0.950 . S
C970 C956 1.377 1_554 S
C970 C969 1.373 . S
C971 C955 1.377 1_554 S
C971 C969 1.389 . S
C971 C972 1.524 . S
C972 C971 1.524 . S
C972 C973 1.397 . S
C972 C977 1.363 . S
C973 H944 0.950 . S
C973 C972 1.397 . S
C973 C974 1.334 . S
C974 H945 0.950 . S
C974 C973 1.334 . S
C974 C975 1.287 . S
C975 C974 1.287 . S
C975 C976 1.524 . S
C975 H978 0.999 . S
C976 H946 0.950 . S
C976 C975 1.524 . S
C976 C977 1.415 . S
C977 H947 0.950 . S
C977 C972 1.363 . S
C977 C976 1.415 . S
H978 C975 0.999 . S
H979 C960 0.913 . S
H980 C998 0.951 . S
H981 C1000 0.951 . S
H982 C1002 0.950 . S
H983 C1003 0.950 . S
H984 C1005 0.950 . S
H985 C1008 0.950 . S
H986 C1009 0.950 . S
H987 C1011 0.950 . S
H988 C1012 0.950 . S
H989 C1013 0.951 . S
H990 C1015 0.951 . S
H991 C1017 0.950 . S
H992 C1018 0.950 . S
H993 C1020 0.950 . S
H994 C1023 0.950 . S
H995 C1024 0.950 . S
H996 C1026 0.950 . S
H997 C1027 0.950 . S
C998 H980 0.951 . S
C998 C999 1.366 . S
C998 C1000 1.388 . S
C999 C998 1.366 . S
C999 C1003 1.385 . S
C1000 H981 0.951 . S
C1000 C998 1.388 . S
C1000 C1001 1.366 . S
C1001 C1000 1.366 . S
C1001 C1002 1.414 . S
C1001 C1004 1.499 . S
C1002 H982 0.950 . S
C1002 C1001 1.414 . S
C1002 C1003 1.374 . S
C1003 H983 0.950 . S
C1003 C999 1.385 . S
C1003 C1002 1.374 . S
C1004 C1001 1.499 . S
C1004 C1005 1.373 . S
C1004 C1006 1.389 . S
C1005 H984 0.950 . S
C1005 C1004 1.373 . S
C1005 C1021 1.377 . S
C1006 C1004 1.389 . S
C1006 C1007 1.524 . S
C1006 C1020 1.377 . S
C1007 C1006 1.524 . S
C1007 C1008 1.397 . S
C1007 C1012 1.363 . S
C1008 H985 0.950 . S
C1008 C1007 1.397 . S
C1008 C1009 1.334 . S
C1009 H986 0.950 . S
C1009 C1008 1.334 . S
C1009 C1010 1.287 . S
C1010 C1009 1.287 . S
C1010 C1011 1.524 . S
C1010 H1029 0.913 . S
C1011 H987 0.950 . S
C1011 C1010 1.524 . S
C1011 C1012 1.415 . S
C1012 H988 0.950 . S
C1012 C1007 1.363 . S
C1012 C1011 1.415 . S
C1013 H989 0.951 . S
C1013 C1014 1.366 . S
C1013 C1015 1.388 . S
C1014 C1013 1.366 . S
C1014 C1018 1.385 . S
C1015 H990 0.951 . S
C1015 C1013 1.388 . S
C1015 C1016 1.366 . S
C1016 C1015 1.366 . S
C1016 C1017 1.414 . S
C1016 C1019 1.499 . S
C1017 H991 0.950 . S
C1017 C1016 1.414 . S
C1017 C1018 1.374 . S
C1018 H992 0.950 . S
C1018 C1014 1.385 . S
C1018 C1017 1.374 . S
C1019 C1016 1.499 . S
C1019 C1020 1.373 . S
C1019 C1021 1.389 . S
C1020 H993 0.950 . S
C1020 C1006 1.377 . S
C1020 C1019 1.373 . S
C1021 C1005 1.377 . S
C1021 C1019 1.389 . S
C1021 C1022 1.524 . S
C1022 C1021 1.524 . S
C1022 C1023 1.397 . S
C1022 C1027 1.363 . S
C1023 H994 0.950 . S
C1023 C1022 1.397 . S
C1023 C1024 1.334 . S
C1024 H995 0.950 . S
C1024 C1023 1.334 . S
C1024 C1025 1.287 . S
C1025 C1024 1.287 . S
C1025 C1026 1.524 . S
C1025 H1028 0.999 . S
C1026 H996 0.950 . S
C1026 C1025 1.524 . S
C1026 C1027 1.415 . S
C1027 H997 0.950 . S
C1027 C1022 1.363 . S
C1027 C1026 1.415 . S
H1028 C1025 0.999 . S
H1029 C1010 0.913 . S
H1030 C1048 0.951 . S
H1031 C1050 0.951 . S
H1032 C1052 0.950 . S
H1033 C1053 0.950 . S
H1034 C1055 0.950 . S
H1035 C1058 0.950 . S
H1036 C1059 0.950 . S
H1037 C1061 0.950 . S
H1038 C1062 0.950 . S
H1039 C1063 0.951 . S
H1040 C1065 0.951 . S
H1041 C1067 0.950 . S
H1042 C1068 0.950 . S
H1043 C1070 0.950 . S
H1044 C1073 0.950 . S
H1045 C1074 0.950 . S
H1046 C1076 0.950 . S
H1047 C1077 0.950 . S
C1048 H1030 0.951 . S
C1048 C1049 1.366 . S
C1048 C1050 1.388 . S
C1049 C1048 1.366 . S
C1049 C1053 1.385 . S
C1050 H1031 0.951 . S
C1050 C1048 1.388 . S
C1050 C1051 1.366 . S
C1051 C1050 1.366 . S
C1051 C1052 1.414 . S
C1051 C1054 1.499 . S
C1052 H1032 0.950 . S
C1052 C1051 1.414 . S
C1052 C1053 1.374 . S
C1053 H1033 0.950 . S
C1053 C1049 1.385 . S
C1053 C1052 1.374 . S
C1054 C1051 1.499 . S
C1054 C1055 1.373 . S
C1054 C1056 1.389 . S
C1055 H1034 0.950 . S
C1055 C1054 1.373 . S
C1055 C1071 1.377 . S
C1056 C1054 1.389 . S
C1056 C1057 1.524 . S
C1056 C1070 1.377 . S
C1057 C1056 1.524 . S
C1057 C1058 1.397 . S
C1057 C1062 1.363 . S
C1058 H1035 0.950 . S
C1058 C1057 1.397 . S
C1058 C1059 1.334 . S
C1059 H1036 0.950 . S
C1059 C1058 1.334 . S
C1059 C1060 1.287 . S
C1060 C1059 1.287 . S
C1060 C1061 1.524 . S
C1060 H1079 0.913 . S
C1061 H1037 0.950 . S
C1061 C1060 1.524 . S
C1061 C1062 1.415 . S
C1062 H1038 0.950 . S
C1062 C1057 1.363 . S
C1062 C1061 1.415 . S
C1063 H1039 0.951 . S
C1063 C1064 1.366 . S
C1063 C1065 1.388 . S
C1064 C1063 1.366 . S
C1064 C1068 1.385 . S
C1065 H1040 0.951 . S
C1065 C1063 1.388 . S
C1065 C1066 1.366 . S
C1066 C1065 1.366 . S
C1066 C1067 1.414 . S
C1066 C1069 1.499 . S
C1067 H1041 0.950 . S
C1067 C1066 1.414 . S
C1067 C1068 1.374 . S
C1068 H1042 0.950 . S
C1068 C1064 1.385 . S
C1068 C1067 1.374 . S
C1069 C1066 1.499 . S
C1069 C1070 1.373 . S
C1069 C1071 1.389 . S
C1070 H1043 0.950 . S
C1070 C1056 1.377 . S
C1070 C1069 1.373 . S
C1071 C1055 1.377 . S
C1071 C1069 1.389 . S
C1071 C1072 1.524 . S
C1072 C1071 1.524 . S
C1072 C1073 1.397 . S
C1072 C1077 1.363 . S
C1073 H1044 0.950 . S
C1073 C1072 1.397 . S
C1073 C1074 1.334 . S
C1074 H1045 0.950 . S
C1074 C1073 1.334 . S
C1074 C1075 1.287 . S
C1075 C1074 1.287 . S
C1075 C1076 1.524 . S
C1075 H1078 0.999 . S
C1076 H1046 0.950 . S
C1076 C1075 1.524 . S
C1076 C1077 1.415 . S
C1077 H1047 0.950 . S
C1077 C1072 1.363 . S
C1077 C1076 1.415 . S
H1078 C1075 0.999 . S
H1079 C1060 0.913 . S
H1080 C1098 0.951 . S
H1081 C1100 0.951 . S
H1082 C1102 0.950 . S
H1083 C1103 0.950 . S
H1084 C1105 0.950 . S
H1085 C1108 0.950 . S
H1086 C1109 0.950 . S
H1087 C1111 0.950 . S
H1088 C1112 0.950 . S
H1089 C1113 0.951 . S
H1090 C1115 0.951 . S
H1091 C1117 0.950 . S
H1092 C1118 0.950 . S
H1093 C1120 0.950 . S
H1094 C1123 0.950 . S
H1095 C1124 0.950 . S
H1096 C1126 0.950 . S
H1097 C1127 0.950 . S
C1098 H1080 0.951 . S
C1098 C1099 1.366 . S
C1098 C1100 1.388 . S
C1099 C1098 1.366 . S
C1099 C1103 1.385 . S
C1100 H1081 0.951 . S
C1100 C1098 1.388 . S
C1100 C1101 1.366 . S
C1101 C1100 1.366 . S
C1101 C1102 1.414 . S
C1101 C1104 1.499 . S
C1102 H1082 0.950 . S
C1102 C1101 1.414 . S
C1102 C1103 1.374 . S
C1103 H1083 0.950 . S
C1103 C1099 1.385 . S
C1103 C1102 1.374 . S
C1104 C1101 1.499 . S
C1104 C1105 1.373 . S
C1104 C1106 1.389 1_565 S
C1105 H1084 0.950 . S
C1105 C1104 1.373 . S
C1105 C1121 1.377 1_556 S
C1106 C1104 1.389 1_545 S
C1106 C1107 1.524 . S
C1106 C1120 1.377 1_556 S
C1107 C1106 1.524 . S
C1107 C1108 1.397 . S
C1107 C1112 1.363 . S
C1108 H1085 0.950 . S
C1108 C1107 1.397 . S
C1108 C1109 1.334 . S
C1109 H1086 0.950 . S
C1109 C1108 1.334 . S
C1109 C1110 1.287 . S
C1110 C1109 1.287 . S
C1110 C1111 1.524 . S
C1110 H1129 0.913 . S
C1111 H1087 0.950 . S
C1111 C1110 1.524 . S
C1111 C1112 1.415 . S
C1112 H1088 0.950 . S
C1112 C1107 1.363 . S
C1112 C1111 1.415 . S
C1113 H1089 0.951 . S
C1113 C1114 1.366 . S
C1113 C1115 1.388 . S
C1114 C1113 1.366 . S
C1114 C1118 1.385 . S
C1115 H1090 0.951 . S
C1115 C1113 1.388 . S
C1115 C1116 1.366 . S
C1116 C1115 1.366 . S
C1116 C1117 1.414 . S
C1116 C1119 1.499 . S
C1117 H1091 0.950 . S
C1117 C1116 1.414 . S
C1117 C1118 1.374 . S
C1118 H1092 0.950 . S
C1118 C1114 1.385 . S
C1118 C1117 1.374 . S
C1119 C1116 1.499 . S
C1119 C1120 1.373 . S
C1119 C1121 1.389 1_545 S
C1120 H1093 0.950 . S
C1120 C1106 1.377 1_554 S
C1120 C1119 1.373 . S
C1121 C1105 1.377 1_554 S
C1121 C1119 1.389 1_565 S
C1121 C1122 1.524 . S
C1122 C1121 1.524 . S
C1122 C1123 1.397 . S
C1122 C1127 1.363 . S
C1123 H1094 0.950 . S
C1123 C1122 1.397 . S
C1123 C1124 1.334 . S
C1124 H1095 0.950 . S
C1124 C1123 1.334 . S
C1124 C1125 1.287 . S
C1125 C1124 1.287 . S
C1125 C1126 1.524 . S
C1125 H1128 0.999 . S
C1126 H1096 0.950 . S
C1126 C1125 1.524 . S
C1126 C1127 1.415 . S
C1127 H1097 0.950 . S
C1127 C1122 1.363 . S
C1127 C1126 1.415 . S
H1128 C1125 0.999 . S
H1129 C1110 0.913 . S
H1130 C1148 0.951 . S
H1131 C1150 0.951 . S
H1132 C1152 0.950 . S
H1133 C1153 0.950 . S
H1134 C1155 0.950 . S
H1135 C1158 0.950 . S
H1136 C1159 0.950 . S
H1137 C1161 0.950 . S
H1138 C1162 0.950 . S
H1139 C1163 0.951 . S
H1140 C1165 0.951 . S
H1141 C1167 0.950 . S
H1142 C1168 0.950 . S
H1143 C1170 0.950 . S
H1144 C1173 0.950 . S
H1145 C1174 0.950 . S
H1146 C1176 0.950 . S
H1147 C1177 0.950 . S
C1148 H1130 0.951 . S
C1148 C1149 1.366 . S
C1148 C1150 1.388 . S
C1149 C1148 1.366 . S
C1149 C1153 1.385 . S
C1150 H1131 0.951 . S
C1150 C1148 1.388 . S
C1150 C1151 1.366 . S
C1151 C1150 1.366 . S
C1151 C1152 1.414 . S
C1151 C1154 1.499 . S
C1152 H1132 0.950 . S
C1152 C1151 1.414 . S
C1152 C1153 1.374 . S
C1153 H1133 0.950 . S
C1153 C1149 1.385 . S
C1153 C1152 1.374 . S
C1154 C1151 1.499 . S
C1154 C1155 1.373 . S
C1154 C1156 1.389 . S
C1155 H1134 0.950 . S
C1155 C1154 1.373 . S
C1155 C1171 1.377 . S
C1156 C1154 1.389 . S
C1156 C1157 1.524 . S
C1156 C1170 1.377 . S
C1157 C1156 1.524 . S
C1157 C1158 1.397 . S
C1157 C1162 1.363 . S
C1158 H1135 0.950 . S
C1158 C1157 1.397 . S
C1158 C1159 1.334 . S
C1159 H1136 0.950 . S
C1159 C1158 1.334 . S
C1159 C1160 1.287 . S
C1160 C1159 1.287 . S
C1160 C1161 1.524 . S
C1160 H1179 0.913 . S
C1161 H1137 0.950 . S
C1161 C1160 1.524 . S
C1161 C1162 1.415 . S
C1162 H1138 0.950 . S
C1162 C1157 1.363 . S
C1162 C1161 1.415 . S
C1163 H1139 0.951 . S
C1163 C1164 1.366 . S
C1163 C1165 1.388 . S
C1164 C1163 1.366 . S
C1164 C1168 1.385 . S
C1165 H1140 0.951 . S
C1165 C1163 1.388 . S
C1165 C1166 1.366 . S
C1166 C1165 1.366 . S
C1166 C1167 1.414 . S
C1166 C1169 1.499 . S
C1167 H1141 0.950 . S
C1167 C1166 1.414 . S
C1167 C1168 1.374 . S
C1168 H1142 0.950 . S
C1168 C1164 1.385 . S
C1168 C1167 1.374 . S
C1169 C1166 1.499 . S
C1169 C1170 1.373 . S
C1169 C1171 1.389 . S
C1170 H1143 0.950 . S
C1170 C1156 1.377 . S
C1170 C1169 1.373 . S
C1171 C1155 1.377 . S
C1171 C1169 1.389 . S
C1171 C1172 1.524 . S
C1172 C1171 1.524 . S
C1172 C1173 1.397 . S
C1172 C1177 1.363 . S
C1173 H1144 0.950 . S
C1173 C1172 1.397 . S
C1173 C1174 1.334 . S
C1174 H1145 0.950 . S
C1174 C1173 1.334 . S
C1174 C1175 1.287 . S
C1175 C1174 1.287 . S
C1175 C1176 1.524 . S
C1175 H1178 0.999 . S
C1176 H1146 0.950 . S
C1176 C1175 1.524 . S
C1176 C1177 1.415 . S
C1177 H1147 0.950 . S
C1177 C1172 1.363 . S
C1177 C1176 1.415 . S
H1178 C1175 0.999 . S
H1179 C1160 0.913 . S
H1180 C1198 0.951 . S
H1181 C1200 0.951 . S
H1182 C1202 0.950 1_655 S
H1183 C1203 0.950 . S
H1184 C1205 0.962 . S
H1185 C1208 0.950 . S
H1186 C1209 0.950 . S
H1187 C1211 0.950 . S
H1188 C1212 0.950 . S
H1189 C1213 0.951 . S
H1190 C1215 0.951 . S
H1191 C1217 0.950 1_455 S
H1192 C1218 0.950 . S
H1193 C1220 0.962 . S
H1194 C1223 0.950 . S
H1195 C1224 0.950 . S
H1196 C1226 0.950 . S
H1197 C1227 0.950 . S
C1198 H1180 0.951 . S
C1198 C1199 1.366 . S
C1198 C1200 1.388 . S
C1199 C1198 1.366 . S
C1199 C1203 1.385 . S
C1200 H1181 0.951 . S
C1200 C1198 1.388 . S
C1200 C1201 1.366 . S
C1201 C1200 1.366 . S
C1201 C1202 1.414 . S
C1201 C1204 1.499 . S
C1202 H1182 0.950 1_455 S
C1202 C1201 1.414 . S
C1202 C1203 1.374 . S
C1203 H1183 0.950 . S
C1203 C1199 1.385 . S
C1203 C1202 1.374 . S
C1204 C1201 1.499 . S
C1204 C1205 1.351 1_455 S
C1204 C1206 1.389 . S
C1205 H1184 0.962 . S
C1205 C1204 1.351 1_655 S
C1205 C1221 1.387 . S
C1206 C1204 1.389 . S
C1206 C1207 1.524 . S
C1206 C1220 1.387 . S
C1207 C1206 1.524 . S
C1207 C1208 1.397 . S
C1207 C1212 1.363 . S
C1208 H1185 0.950 . S
C1208 C1207 1.397 . S
C1208 C1209 1.334 . S
C1209 H1186 0.950 . S
C1209 C1208 1.334 . S
C1209 C1210 1.287 . S
C1210 C1209 1.287 . S
C1210 C1211 1.524 . S
C1210 H1229 0.913 . S
C1211 H1187 0.950 . S
C1211 C1210 1.524 . S
C1211 C1212 1.415 . S
C1212 H1188 0.950 . S
C1212 C1207 1.363 . S
C1212 C1211 1.415 . S
C1213 H1189 0.951 . S
C1213 C1214 1.366 . S
C1213 C1215 1.388 . S
C1214 C1213 1.366 . S
C1214 C1218 1.385 . S
C1215 H1190 0.951 . S
C1215 C1213 1.388 . S
C1215 C1216 1.366 . S
C1216 C1215 1.366 . S
C1216 C1217 1.414 . S
C1216 C1219 1.499 . S
C1217 H1191 0.950 1_655 S
C1217 C1216 1.414 . S
C1217 C1218 1.374 . S
C1218 H1192 0.950 . S
C1218 C1214 1.385 . S
C1218 C1217 1.374 . S
C1219 C1216 1.499 . S
C1219 C1220 1.352 1_655 S
C1219 C1221 1.389 . S
C1220 H1193 0.962 . S
C1220 C1206 1.387 . S
C1220 C1219 1.352 1_455 S
C1221 C1205 1.387 . S
C1221 C1219 1.389 . S
C1221 C1222 1.524 . S
C1222 C1221 1.524 . S
C1222 C1223 1.397 . S
C1222 C1227 1.363 . S
C1223 H1194 0.950 . S
C1223 C1222 1.397 . S
C1223 C1224 1.334 . S
C1224 H1195 0.950 . S
C1224 C1223 1.334 . S
C1224 C1225 1.287 . S
C1225 C1224 1.287 . S
C1225 C1226 1.524 . S
C1225 H1228 0.999 . S
C1226 H1196 0.950 . S
C1226 C1225 1.524 . S
C1226 C1227 1.415 . S
C1227 H1197 0.950 . S
C1227 C1222 1.363 . S
C1227 C1226 1.415 . S
H1228 C1225 0.999 . S
H1229 C1210 0.913 . S
H1230 C1248 0.951 . S
H1231 C1250 0.951 . S
H1232 C1252 0.950 1_545 S
H1233 C1253 0.950 . S
H1234 C1255 0.950 . S
H1235 C1258 0.950 . S
H1236 C1259 0.950 . S
H1237 C1261 0.950 . S
H1238 C1262 0.950 . S
H1239 C1263 0.951 . S
H1240 C1265 0.951 . S
H1241 C1267 0.950 1_565 S
H1242 C1268 0.950 . S
H1243 C1270 0.950 . S
H1244 C1273 0.950 . S
H1245 C1274 0.950 . S
H1246 C1276 0.950 . S
H1247 C1277 0.950 . S
C1248 H1230 0.951 . S
C1248 C1249 1.366 . S
C1248 C1250 1.388 . S
C1249 C1248 1.366 . S
C1249 C1253 1.385 . S
C1250 H1231 0.951 . S
C1250 C1248 1.388 . S
C1250 C1251 1.366 . S
C1251 C1250 1.366 . S
C1251 C1252 1.414 . S
C1251 C1254 1.499 . S
C1252 H1232 0.950 1_565 S
C1252 C1251 1.414 . S
C1252 C1253 1.374 . S
C1253 H1233 0.950 . S
C1253 C1249 1.385 . S
C1253 C1252 1.374 . S
C1254 C1251 1.499 . S
C1254 C1255 1.373 1_565 S
C1254 C1256 1.389 . S
C1255 H1234 0.950 . S
C1255 C1254 1.373 1_545 S
C1255 C1271 1.377 1_554 S
C1256 C1254 1.389 . S
C1256 C1257 1.524 . S
C1256 C1270 1.377 1_554 S
C1257 C1256 1.524 . S
C1257 C1258 1.397 . S
C1257 C1262 1.363 1_554 S
C1258 H1235 0.950 . S
C1258 C1257 1.397 . S
C1258 C1259 1.334 . S
C1259 H1236 0.950 . S
C1259 C1258 1.334 . S
C1259 C1260 1.287 . S
C1260 C1259 1.287 . S
C1260 C1261 1.524 1_554 S
C1260 H1279 0.913 . S
C1261 H1237 0.950 . S
C1261 C1260 1.524 1_556 S
C1261 C1262 1.415 . S
C1262 H1238 0.950 . S
C1262 C1257 1.363 1_556 S
C1262 C1261 1.415 . S
C1263 H1239 0.951 . S
C1263 C1264 1.366 . S
C1263 C1265 1.388 . S
C1264 C1263 1.366 . S
C1264 C1268 1.385 . S
C1265 H1240 0.951 . S
C1265 C1263 1.388 . S
C1265 C1266 1.366 . S
C1266 C1265 1.366 . S
C1266 C1267 1.414 . S
C1266 C1269 1.499 . S
C1267 H1241 0.950 1_545 S
C1267 C1266 1.414 . S
C1267 C1268 1.374 . S
C1268 H1242 0.950 . S
C1268 C1264 1.385 . S
C1268 C1267 1.374 . S
C1269 C1266 1.499 . S
C1269 C1270 1.373 1_545 S
C1269 C1271 1.389 . S
C1270 H1243 0.950 . S
C1270 C1256 1.377 1_556 S
C1270 C1269 1.373 1_565 S
C1271 C1255 1.377 1_556 S
C1271 C1269 1.389 . S
C1271 C1272 1.524 . S
C1272 C1271 1.524 . S
C1272 C1273 1.397 . S
C1272 C1277 1.363 1_556 S
C1273 H1244 0.950 . S
C1273 C1272 1.397 . S
C1273 C1274 1.334 . S
C1274 H1245 0.950 . S
C1274 C1273 1.334 . S
C1274 C1275 1.287 . S
C1275 C1274 1.287 . S
C1275 C1276 1.524 1_556 S
C1275 H1278 0.999 . S
C1276 H1246 0.950 . S
C1276 C1275 1.524 1_554 S
C1276 C1277 1.415 . S
C1277 H1247 0.950 . S
C1277 C1272 1.363 1_554 S
C1277 C1276 1.415 . S
H1278 C1275 0.999 . S
H1279 C1260 0.913 . S
H1280 C1298 0.951 . S
H1281 C1300 0.951 . S
H1282 C1302 0.950 . S
H1283 C1303 0.950 . S
H1284 C1305 0.950 . S
H1285 C1308 0.950 . S
H1286 C1309 0.950 . S
H1287 C1311 0.950 . S
H1288 C1312 0.950 . S
H1289 C1313 0.951 . S
H1290 C1315 0.951 . S
H1291 C1317 0.950 . S
H1292 C1318 0.950 . S
H1293 C1320 0.950 . S
H1294 C1323 0.950 . S
H1295 C1324 0.950 . S
H1296 C1326 0.950 . S
H1297 C1327 0.950 . S
C1298 H1280 0.951 . S
C1298 C1299 1.366 . S
C1298 C1300 1.388 . S
C1299 C1298 1.366 . S
C1299 C1303 1.385 . S
C1300 H1281 0.951 . S
C1300 C1298 1.388 . S
C1300 C1301 1.366 . S
C1301 C1300 1.366 . S
C1301 C1302 1.414 . S
C1301 C1304 1.499 . S
C1302 H1282 0.950 . S
C1302 C1301 1.414 . S
C1302 C1303 1.374 . S
C1303 H1283 0.950 . S
C1303 C1299 1.385 . S
C1303 C1302 1.374 . S
C1304 C1301 1.499 . S
C1304 C1305 1.373 . S
C1304 C1306 1.389 . S
C1305 H1284 0.950 . S
C1305 C1304 1.373 . S
C1305 C1321 1.377 . S
C1306 C1304 1.389 . S
C1306 C1307 1.524 . S
C1306 C1320 1.377 . S
C1307 C1306 1.524 . S
C1307 C1308 1.397 . S
C1307 C1312 1.363 . S
C1308 H1285 0.950 . S
C1308 C1307 1.397 . S
C1308 C1309 1.334 . S
C1309 H1286 0.950 . S
C1309 C1308 1.334 . S
C1309 C1310 1.287 . S
C1310 C1309 1.287 . S
C1310 C1311 1.524 . S
C1310 H1329 0.913 . S
C1311 H1287 0.950 . S
C1311 C1310 1.524 . S
C1311 C1312 1.415 . S
C1312 H1288 0.950 . S
C1312 C1307 1.363 . S
C1312 C1311 1.415 . S
C1313 H1289 0.951 . S
C1313 C1314 1.366 . S
C1313 C1315 1.388 . S
C1314 C1313 1.366 . S
C1314 C1318 1.385 . S
C1315 H1290 0.951 . S
C1315 C1313 1.388 . S
C1315 C1316 1.366 . S
C1316 C1315 1.366 . S
C1316 C1317 1.414 . S
C1316 C1319 1.499 . S
C1317 H1291 0.950 . S
C1317 C1316 1.414 . S
C1317 C1318 1.374 . S
C1318 H1292 0.950 . S
C1318 C1314 1.385 . S
C1318 C1317 1.374 . S
C1319 C1316 1.499 . S
C1319 C1320 1.373 . S
C1319 C1321 1.389 . S
C1320 H1293 0.950 . S
C1320 C1306 1.377 . S
C1320 C1319 1.373 . S
C1321 C1305 1.377 . S
C1321 C1319 1.389 . S
C1321 C1322 1.524 . S
C1322 C1321 1.524 . S
C1322 C1323 1.397 . S
C1322 C1327 1.363 . S
C1323 H1294 0.950 . S
C1323 C1322 1.397 . S
C1323 C1324 1.334 . S
C1324 H1295 0.950 . S
C1324 C1323 1.334 . S
C1324 C1325 1.287 . S
C1325 C1324 1.287 . S
C1325 C1326 1.524 . S
C1325 H1328 0.999 . S
C1326 H1296 0.950 . S
C1326 C1325 1.524 . S
C1326 C1327 1.415 . S
C1327 H1297 0.950 . S
C1327 C1322 1.363 . S
C1327 C1326 1.415 . S
H1328 C1325 0.999 . S
H1329 C1310 0.913 . S
H1330 C1348 0.951 . S
H1331 C1350 0.951 . S
H1332 C1352 0.950 . S
H1333 C1353 0.950 . S
H1334 C1355 0.950 . S
H1335 C1358 0.950 . S
H1336 C1359 0.950 . S
H1337 C1361 0.950 . S
H1338 C1362 0.950 . S
H1339 C1363 0.951 . S
H1340 C1365 0.951 . S
H1341 C1367 0.950 . S
H1342 C1368 0.950 . S
H1343 C1370 0.950 . S
H1344 C1373 0.950 . S
H1345 C1374 0.950 . S
H1346 C1376 0.950 . S
H1347 C1377 0.950 . S
C1348 H1330 0.951 . S
C1348 C1349 1.366 . S
C1348 C1350 1.388 . S
C1349 C1348 1.366 . S
C1349 C1353 1.385 . S
C1350 H1331 0.951 . S
C1350 C1348 1.388 . S
C1350 C1351 1.366 . S
C1351 C1350 1.366 . S
C1351 C1352 1.414 . S
C1351 C1354 1.499 . S
C1352 H1332 0.950 . S
C1352 C1351 1.414 . S
C1352 C1353 1.374 . S
C1353 H1333 0.950 . S
C1353 C1349 1.385 . S
C1353 C1352 1.374 . S
C1354 C1351 1.499 . S
C1354 C1355 1.373 1_455 S
C1354 C1356 1.389 . S
C1355 H1334 0.950 . S
C1355 C1354 1.373 1_655 S
C1355 C1371 1.377 . S
C1356 C1354 1.389 . S
C1356 C1357 1.524 . S
C1356 C1370 1.377 . S
C1357 C1356 1.524 . S
C1357 C1358 1.397 . S
C1357 C1362 1.363 . S
C1358 H1335 0.950 . S
C1358 C1357 1.397 . S
C1358 C1359 1.334 . S
C1359 H1336 0.950 . S
C1359 C1358 1.334 . S
C1359 C1360 1.287 . S
C1360 C1359 1.287 . S
C1360 C1361 1.524 . S
C1360 H1379 0.913 . S
C1361 H1337 0.950 . S
C1361 C1360 1.524 . S
C1361 C1362 1.415 . S
C1362 H1338 0.950 . S
C1362 C1357 1.363 . S
C1362 C1361 1.415 . S
C1363 H1339 0.951 . S
C1363 C1364 1.366 . S
C1363 C1365 1.388 . S
C1364 C1363 1.366 . S
C1364 C1368 1.385 . S
C1365 H1340 0.951 . S
C1365 C1363 1.388 . S
C1365 C1366 1.366 . S
C1366 C1365 1.366 . S
C1366 C1367 1.414 . S
C1366 C1369 1.499 . S
C1367 H1341 0.950 . S
C1367 C1366 1.414 . S
C1367 C1368 1.374 . S
C1368 H1342 0.950 . S
C1368 C1364 1.385 . S
C1368 C1367 1.374 . S
C1369 C1366 1.499 . S
C1369 C1370 1.373 1_655 S
C1369 C1371 1.389 . S
C1370 H1343 0.950 . S
C1370 C1356 1.377 . S
C1370 C1369 1.373 1_455 S
C1371 C1355 1.377 . S
C1371 C1369 1.389 . S
C1371 C1372 1.524 . S
C1372 C1371 1.524 . S
C1372 C1373 1.397 . S
C1372 C1377 1.363 . S
C1373 H1344 0.950 . S
C1373 C1372 1.397 . S
C1373 C1374 1.334 . S
C1374 H1345 0.950 . S
C1374 C1373 1.334 . S
C1374 C1375 1.287 . S
C1375 C1374 1.287 . S
C1375 C1376 1.524 . S
C1375 H1378 0.999 . S
C1376 H1346 0.950 . S
C1376 C1375 1.524 . S
C1376 C1377 1.415 . S
C1377 H1347 0.950 . S
C1377 C1372 1.363 . S
C1377 C1376 1.415 . S
H1378 C1375 0.999 . S
H1379 C1360 0.913 . S
H1380 C1398 0.951 . S
H1381 C1400 0.951 . S
H1382 C1402 0.950 . S
H1383 C1403 0.950 . S
H1384 C1405 0.950 . S
H1385 C1408 0.950 . S
H1386 C1409 0.950 . S
H1387 C1411 0.950 . S
H1388 C1412 0.950 . S
H1389 C1413 0.951 . S
H1390 C1415 0.951 . S
H1391 C1417 0.950 . S
H1392 C1418 0.950 . S
H1393 C1420 0.950 . S
H1394 C1423 0.950 . S
H1395 C1424 0.950 . S
H1396 C1426 0.950 . S
H1397 C1427 0.950 . S
C1398 H1380 0.951 . S
C1398 C1399 1.366 . S
C1398 C1400 1.388 . S
C1399 C1398 1.366 . S
C1399 C1403 1.385 . S
C1400 H1381 0.951 . S
C1400 C1398 1.388 . S
C1400 C1401 1.366 . S
C1401 C1400 1.366 . S
C1401 C1402 1.414 . S
C1401 C1404 1.499 . S
C1402 H1382 0.950 . S
C1402 C1401 1.414 . S
C1402 C1403 1.374 . S
C1403 H1383 0.950 . S
C1403 C1399 1.385 . S
C1403 C1402 1.374 . S
C1404 C1401 1.499 . S
C1404 C1405 1.373 1_545 S
C1404 C1406 1.389 . S
C1405 H1384 0.950 . S
C1405 C1404 1.373 1_565 S
C1405 C1421 1.377 . S
C1406 C1404 1.389 . S
C1406 C1407 1.524 . S
C1406 C1420 1.377 . S
C1407 C1406 1.524 . S
C1407 C1408 1.397 . S
C1407 C1412 1.363 . S
C1408 H1385 0.950 . S
C1408 C1407 1.397 . S
C1408 C1409 1.334 . S
C1409 H1386 0.950 . S
C1409 C1408 1.334 . S
C1409 C1410 1.287 . S
C1410 C1409 1.287 . S
C1410 C1411 1.524 . S
C1410 H1429 0.913 . S
C1411 H1387 0.950 . S
C1411 C1410 1.524 . S
C1411 C1412 1.415 . S
C1412 H1388 0.950 . S
C1412 C1407 1.363 . S
C1412 C1411 1.415 . S
C1413 H1389 0.951 . S
C1413 C1414 1.366 . S
C1413 C1415 1.388 . S
C1414 C1413 1.366 . S
C1414 C1418 1.385 . S
C1415 H1390 0.951 . S
C1415 C1413 1.388 . S
C1415 C1416 1.366 . S
C1416 C1415 1.366 . S
C1416 C1417 1.414 . S
C1416 C1419 1.499 . S
C1417 H1391 0.950 . S
C1417 C1416 1.414 . S
C1417 C1418 1.374 . S
C1418 H1392 0.950 . S
C1418 C1414 1.385 . S
C1418 C1417 1.374 . S
C1419 C1416 1.499 . S
C1419 C1420 1.373 1_565 S
C1419 C1421 1.389 . S
C1420 H1393 0.950 . S
C1420 C1406 1.377 . S
C1420 C1419 1.373 1_545 S
C1421 C1405 1.377 . S
C1421 C1419 1.389 . S
C1421 C1422 1.524 . S
C1422 C1421 1.524 . S
C1422 C1423 1.397 . S
C1422 C1427 1.363 . S
C1423 H1394 0.950 . S
C1423 C1422 1.397 . S
C1423 C1424 1.334 . S
C1424 H1395 0.950 . S
C1424 C1423 1.334 . S
C1424 C1425 1.287 . S
C1425 C1424 1.287 . S
C1425 C1426 1.524 . S
C1425 H1428 0.999 . S
C1426 H1396 0.950 . S
C1426 C1425 1.524 . S
C1426 C1427 1.415 . S
C1427 H1397 0.950 . S
C1427 C1422 1.363 . S
C1427 C1426 1.415 . S
H1428 C1425 0.999 . S
H1429 C1410 0.913 . S
H1430 C1448 0.951 . S
H1431 C1450 0.951 . S
H1432 C1452 0.950 . S
H1433 C1453 0.950 . S
H1434 C1455 0.950 . S
H1435 C1458 0.950 . S
H1436 C1459 0.950 . S
H1437 C1461 0.950 . S
H1438 C1462 0.950 . S
H1439 C1463 0.951 . S
H1440 C1465 0.951 . S
H1441 C1467 0.950 . S
H1442 C1468 0.950 . S
H1443 C1470 0.950 . S
H1444 C1473 0.950 . S
H1445 C1474 0.950 . S
H1446 C1476 0.950 . S
H1447 C1477 0.950 . S
C1448 H1430 0.951 . S
C1448 C1449 1.366 . S
C1448 C1450 1.388 . S
C1449 C1448 1.366 . S
C1449 C1453 1.385 . S
C1450 H1431 0.951 . S
C1450 C1448 1.388 . S
C1450 C1451 1.366 . S
C1451 C1450 1.366 . S
C1451 C1452 1.414 . S
C1451 C1454 1.499 . S
C1452 H1432 0.950 . S
C1452 C1451 1.414 . S
C1452 C1453 1.374 . S
C1453 H1433 0.950 . S
C1453 C1449 1.385 . S
C1453 C1452 1.374 . S
C1454 C1451 1.499 . S
C1454 C1455 1.373 . S
C1454 C1456 1.389 . S
C1455 H1434 0.950 . S
C1455 C1454 1.373 . S
C1455 C1471 1.377 . S
C1456 C1454 1.389 . S
C1456 C1457 1.524 . S
C1456 C1470 1.377 . S
C1457 C1456 1.524 . S
C1457 C1458 1.397 . S
C1457 C1462 1.363 . S
C1458 H1435 0.950 . S
C1458 C1457 1.397 . S
C1458 C1459 1.334 . S
C1459 H1436 0.950 . S
C1459 C1458 1.334 . S
C1459 C1460 1.287 . S
C1460 C1459 1.287 . S
C1460 C1461 1.524 . S
C1460 H1479 0.913 . S
C1461 H1437 0.950 . S
C1461 C1460 1.524 . S
C1461 C1462 1.415 . S
C1462 H1438 0.950 . S
C1462 C1457 1.363 . S
C1462 C1461 1.415 . S
C1463 H1439 0.951 . S
C1463 C1464 1.366 . S
C1463 C1465 1.388 . S
C1464 C1463 1.366 . S
C1464 C1468 1.385 . S
C1465 H1440 0.951 . S
C1465 C1463 1.388 . S
C1465 C1466 1.366 . S
C1466 C1465 1.366 . S
C1466 C1467 1.414 . S
C1466 C1469 1.499 . S
C1467 H1441 0.950 . S
C1467 C1466 1.414 . S
C1467 C1468 1.374 . S
C1468 H1442 0.950 . S
C1468 C1464 1.385 . S
C1468 C1467 1.374 . S
C1469 C1466 1.499 . S
C1469 C1470 1.373 . S
C1469 C1471 1.389 . S
C1470 H1443 0.950 . S
C1470 C1456 1.377 . S
C1470 C1469 1.373 . S
C1471 C1455 1.377 . S
C1471 C1469 1.389 . S
C1471 C1472 1.524 . S
C1472 C1471 1.524 . S
C1472 C1473 1.397 . S
C1472 C1477 1.363 . S
C1473 H1444 0.950 . S
C1473 C1472 1.397 . S
C1473 C1474 1.334 . S
C1474 H1445 0.950 . S
C1474 C1473 1.334 . S
C1474 C1475 1.287 . S
C1475 C1474 1.287 . S
C1475 C1476 1.524 . S
C1475 H1478 0.999 . S
C1476 H1446 0.950 . S
C1476 C1475 1.524 . S
C1476 C1477 1.415 . S
C1477 H1447 0.950 . S
C1477 C1472 1.363 . S
C1477 C1476 1.415 . S
H1478 C1475 0.999 . S
H1479 C1460 0.913 . S
H1480 C1498 0.951 . S
H1481 C1500 0.951 . S
H1482 C1502 0.950 . S
H1483 C1503 0.950 . S
H1484 C1505 0.950 . S
H1485 C1508 0.950 . S
H1486 C1509 0.950 . S
H1487 C1511 0.950 . S
H1488 C1512 0.950 . S
H1489 C1513 0.951 . S
H1490 C1515 0.951 . S
H1491 C1517 0.950 . S
H1492 C1518 0.950 . S
H1493 C1520 0.950 . S
H1494 C1523 0.950 . S
H1495 C1524 0.950 . S
H1496 C1526 0.950 . S
H1497 C1527 0.950 . S
C1498 H1480 0.951 . S
C1498 C1499 1.366 . S
C1498 C1500 1.388 . S
C1499 C1498 1.366 . S
C1499 C1503 1.385 . S
C1500 H1481 0.951 . S
C1500 C1498 1.388 . S
C1500 C1501 1.366 . S
C1501 C1500 1.366 . S
C1501 C1502 1.414 . S
C1501 C1504 1.499 . S
C1502 H1482 0.950 . S
C1502 C1501 1.414 . S
C1502 C1503 1.374 . S
C1503 H1483 0.950 . S
C1503 C1499 1.385 . S
C1503 C1502 1.374 . S
C1504 C1501 1.499 . S
C1504 C1505 1.373 . S
C1504 C1506 1.389 . S
C1505 H1484 0.950 . S
C1505 C1504 1.373 . S
C1505 C1521 1.377 1_655 S
C1506 C1504 1.389 . S
C1506 C1507 1.524 . S
C1506 C1520 1.377 1_655 S
C1507 C1506 1.524 . S
C1507 C1508 1.397 . S
C1507 C1512 1.363 1_655 S
C1508 H1485 0.950 . S
C1508 C1507 1.397 . S
C1508 C1509 1.334 1_556 S
C1509 H1486 0.950 . S
C1509 C1508 1.334 1_554 S
C1509 C1510 1.287 . S
C1510 C1509 1.287 . S
C1510 C1511 1.524 1_655 S
C1510 H1529 0.913 . S
C1511 H1487 0.950 . S
C1511 C1510 1.524 1_455 S
C1511 C1512 1.415 1_554 S
C1512 H1488 0.950 . S
C1512 C1507 1.363 1_455 S
C1512 C1511 1.415 1_556 S
C1513 H1489 0.951 . S
C1513 C1514 1.366 . S
C1513 C1515 1.388 . S
C1514 C1513 1.366 . S
C1514 C1518 1.385 . S
C1515 H1490 0.951 . S
C1515 C1513 1.388 . S
C1515 C1516 1.366 . S
C1516 C1515 1.366 . S
C1516 C1517 1.414 . S
C1516 C1519 1.499 . S
C1517 H1491 0.950 . S
C1517 C1516 1.414 . S
C1517 C1518 1.374 . S
C1518 H1492 0.950 . S
C1518 C1514 1.385 . S
C1518 C1517 1.374 . S
C1519 C1516 1.499 . S
C1519 C1520 1.373 . S
C1519 C1521 1.389 . S
C1520 H1493 0.950 . S
C1520 C1506 1.377 1_455 S
C1520 C1519 1.373 . S
C1521 C1505 1.377 1_455 S
C1521 C1519 1.389 . S
C1521 C1522 1.524 . S
C1522 C1521 1.524 . S
C1522 C1523 1.397 . S
C1522 C1527 1.363 1_455 S
C1523 H1494 0.950 . S
C1523 C1522 1.397 . S
C1523 C1524 1.334 . S
C1524 H1495 0.950 . S
C1524 C1523 1.334 . S
C1524 C1525 1.287 . S
C1525 C1524 1.287 . S
C1525 C1526 1.524 1_455 S
C1525 H1528 0.999 . S
C1526 H1496 0.950 . S
C1526 C1525 1.524 1_655 S
C1526 C1527 1.415 . S
C1527 H1497 0.950 . S
C1527 C1522 1.363 1_655 S
C1527 C1526 1.415 . S
H1528 C1525 0.999 . S
H1529 C1510 0.913 . S
H1530 C1548 0.951 . S
H1531 C1550 0.951 . S
H1532 C1552 0.950 . S
H1533 C1553 0.950 . S
H1534 C1555 0.950 . S
H1535 C1558 0.948 . S
H1536 C1559 0.950 1_455 S
H1537 C1561 0.950 . S
H1538 C1562 0.950 . S
H1539 C1563 0.951 . S
H1540 C1565 0.951 . S
H1541 C1567 0.950 . S
H1542 C1568 0.950 . S
H1543 C1570 0.950 . S
H1544 C1573 0.948 . S
H1545 C1574 0.950 1_655 S
H1546 C1576 0.950 . S
H1547 C1577 0.950 . S
C1548 H1530 0.951 . S
C1548 C1549 1.366 . S
C1548 C1550 1.388 . S
C1549 C1548 1.366 . S
C1549 C1553 1.385 . S
C1550 H1531 0.951 . S
C1550 C1548 1.388 . S
C1550 C1551 1.366 . S
C1551 C1550 1.366 . S
C1551 C1552 1.414 . S
C1551 C1554 1.499 . S
C1552 H1532 0.950 . S
C1552 C1551 1.414 . S
C1552 C1553 1.374 . S
C1553 H1533 0.950 . S
C1553 C1549 1.385 . S
C1553 C1552 1.374 . S
C1554 C1551 1.499 . S
C1554 C1555 1.373 . S
C1554 C1556 1.389 1_455 S
C1555 H1534 0.950 . S
C1555 C1554 1.373 . S
C1555 C1571 1.377 . S
C1556 C1554 1.389 1_655 S
C1556 C1557 1.524 . S
C1556 C1570 1.377 . S
C1557 C1556 1.524 . S
C1557 C1558 1.399 1_655 S
C1557 C1562 1.363 . S
C1558 H1535 0.948 . S
C1558 C1557 1.399 1_455 S
C1558 C1559 1.333 1_455 S
C1559 H1536 0.950 1_655 S
C1559 C1558 1.333 1_655 S
C1559 C1560 1.287 . S
C1560 C1559 1.287 . S
C1560 C1561 1.524 . S
C1560 H1579 0.913 . S
C1561 H1537 0.950 . S
C1561 C1560 1.524 . S
C1561 C1562 1.415 . S
C1562 H1538 0.950 . S
C1562 C1557 1.363 . S
C1562 C1561 1.415 . S
C1563 H1539 0.951 . S
C1563 C1564 1.366 . S
C1563 C1565 1.388 . S
C1564 C1563 1.366 . S
C1564 C1568 1.385 . S
C1565 H1540 0.951 . S
C1565 C1563 1.388 . S
C1565 C1566 1.366 . S
C1566 C1565 1.366 . S
C1566 C1567 1.414 . S
C1566 C1569 1.499 . S
C1567 H1541 0.950 . S
C1567 C1566 1.414 . S
C1567 C1568 1.374 . S
C1568 H1542 0.950 . S
C1568 C1564 1.385 . S
C1568 C1567 1.374 . S
C1569 C1566 1.499 . S
C1569 C1570 1.373 . S
C1569 C1571 1.389 1_655 S
C1570 H1543 0.950 . S
C1570 C1556 1.377 . S
C1570 C1569 1.373 . S
C1571 C1555 1.377 . S
C1571 C1569 1.389 1_455 S
C1571 C1572 1.524 . S
C1572 C1571 1.524 . S
C1572 C1573 1.399 1_455 S
C1572 C1577 1.363 . S
C1573 H1544 0.948 . S
C1573 C1572 1.399 1_655 S
C1573 C1574 1.333 1_655 S
C1574 H1545 0.950 1_455 S
C1574 C1573 1.333 1_455 S
C1574 C1575 1.287 . S
C1575 C1574 1.287 . S
C1575 C1576 1.524 . S
C1575 H1578 0.999 . S
C1576 H1546 0.950 . S
C1576 C1575 1.524 . S
C1576 C1577 1.415 . S
C1577 H1547 0.950 . S
C1577 C1572 1.363 . S
C1577 C1576 1.415 . S
H1578 C1575 0.999 . S
H1579 C1560 0.913 . S
H1580 C1598 0.951 . S
H1581 C1600 0.951 . S
H1582 C1602 0.950 . S
H1583 C1603 0.950 . S
H1584 C1605 0.950 . S
H1585 C1608 0.992 . S
H1586 C1609 0.950 . S
H1587 C1611 0.950 . S
H1588 C1612 0.950 . S
H1589 C1613 0.951 . S
H1590 C1615 0.951 . S
H1591 C1617 0.950 . S
H1592 C1618 0.950 . S
H1593 C1620 0.950 . S
H1594 C1623 0.992 . S
H1595 C1624 0.950 . S
H1596 C1626 0.950 . S
H1597 C1627 0.950 . S
C1598 H1580 0.951 . S
C1598 C1599 1.366 . S
C1598 C1600 1.388 . S
C1599 C1598 1.366 . S
C1599 C1603 1.385 . S
C1600 H1581 0.951 . S
C1600 C1598 1.388 . S
C1600 C1601 1.366 . S
C1601 C1600 1.366 . S
C1601 C1602 1.414 . S
C1601 C1604 1.499 . S
C1602 H1582 0.950 . S
C1602 C1601 1.414 . S
C1602 C1603 1.374 . S
C1603 H1583 0.950 . S
C1603 C1599 1.385 . S
C1603 C1602 1.374 . S
C1604 C1601 1.499 . S
C1604 C1605 1.373 . S
C1604 C1606 1.389 1_565 S
C1605 H1584 0.950 . S
C1605 C1604 1.373 . S
C1605 C1621 1.377 . S
C1606 C1604 1.389 1_545 S
C1606 C1607 1.524 . S
C1606 C1620 1.377 . S
C1607 C1606 1.524 . S
C1607 C1608 1.397 . S
C1607 C1612 1.363 . S
C1608 H1585 0.992 . S
C1608 C1607 1.397 . S
C1608 C1609 1.334 . S
C1609 H1586 0.950 . S
C1609 C1608 1.334 . S
C1609 C1610 1.287 . S
C1610 C1609 1.287 . S
C1610 C1611 1.524 . S
C1610 H1629 0.913 . S
C1611 H1587 0.950 . S
C1611 C1610 1.524 . S
C1611 C1612 1.415 . S
C1612 H1588 0.950 . S
C1612 C1607 1.363 . S
C1612 C1611 1.415 . S
C1613 H1589 0.951 . S
C1613 C1614 1.366 . S
C1613 C1615 1.388 . S
C1614 C1613 1.366 . S
C1614 C1618 1.385 . S
C1615 H1590 0.951 . S
C1615 C1613 1.388 . S
C1615 C1616 1.366 . S
C1616 C1615 1.366 . S
C1616 C1617 1.414 . S
C1616 C1619 1.499 . S
C1617 H1591 0.950 . S
C1617 C1616 1.414 . S
C1617 C1618 1.374 . S
C1618 H1592 0.950 . S
C1618 C1614 1.385 . S
C1618 C1617 1.374 . S
C1619 C1616 1.499 . S
C1619 C1620 1.373 . S
C1619 C1621 1.389 1_545 S
C1620 H1593 0.950 . S
C1620 C1606 1.377 . S
C1620 C1619 1.373 . S
C1621 C1605 1.377 . S
C1621 C1619 1.389 1_565 S
C1621 C1622 1.524 . S
C1622 C1621 1.524 . S
C1622 C1623 1.397 . S
C1622 C1627 1.363 . S
C1623 H1594 0.992 . S
C1623 C1622 1.397 . S
C1623 C1624 1.334 . S
C1624 H1595 0.950 . S
C1624 C1623 1.334 . S
C1624 C1625 1.287 . S
C1625 C1624 1.287 . S
C1625 C1626 1.524 . S
C1625 H1628 0.999 . S
C1626 H1596 0.950 . S
C1626 C1625 1.524 . S
C1626 C1627 1.415 . S
C1627 H1597 0.950 . S
C1627 C1622 1.363 . S
C1627 C1626 1.415 . S
H1628 C1625 0.999 . S
H1629 C1610 0.913 . S
H1630 C1648 0.951 . S
H1631 C1650 0.951 . S
H1632 C1652 0.950 . S
H1633 C1653 0.950 . S
H1634 C1655 0.950 . S
H1635 C1658 0.950 . S
H1636 C1659 0.950 . S
H1637 C1661 0.950 1_556 S
H1638 C1662 0.950 . S
H1639 C1663 0.951 . S
H1640 C1665 0.951 . S
H1641 C1667 0.950 . S
H1642 C1668 0.950 . S
H1643 C1670 0.950 . S
H1644 C1673 0.950 . S
H1645 C1674 0.950 . S
H1646 C1676 0.950 . S
H1647 C1677 0.950 . S
C1648 H1630 0.951 . S
C1648 C1649 1.366 . S
C1648 C1650 1.388 . S
C1649 C1648 1.366 . S
C1649 C1653 1.385 . S
C1650 H1631 0.951 . S
C1650 C1648 1.388 . S
C1650 C1651 1.366 . S
C1651 C1650 1.366 . S
C1651 C1652 1.414 . S
C1651 C1654 1.499 . S
C1652 H1632 0.950 . S
C1652 C1651 1.414 . S
C1652 C1653 1.374 . S
C1653 H1633 0.950 . S
C1653 C1649 1.385 . S
C1653 C1652 1.374 . S
C1654 C1651 1.499 . S
C1654 C1655 1.373 . S
C1654 C1656 1.389 . S
C1655 H1634 0.950 . S
C1655 C1654 1.373 . S
C1655 C1671 1.377 . S
C1656 C1654 1.389 . S
C1656 C1657 1.524 . S
C1656 C1670 1.377 . S
C1657 C1656 1.524 . S
C1657 C1658 1.397 . S
C1657 C1662 1.363 . S
C1658 H1635 0.950 . S
C1658 C1657 1.397 . S
C1658 C1659 1.334 . S
C1659 H1636 0.950 . S
C1659 C1658 1.334 . S
C1659 C1660 1.287 . S
C1660 C1659 1.287 . S
C1660 C1661 1.524 . S
C1660 H1679 0.913 . S
C1661 H1637 0.950 1_554 S
C1661 C1660 1.524 . S
C1661 C1662 1.415 . S
C1662 H1638 0.950 . S
C1662 C1657 1.363 . S
C1662 C1661 1.415 . S
C1663 H1639 0.951 . S
C1663 C1664 1.366 . S
C1663 C1665 1.388 . S
C1664 C1663 1.366 . S
C1664 C1668 1.385 . S
C1665 H1640 0.951 . S
C1665 C1663 1.388 . S
C1665 C1666 1.366 . S
C1666 C1665 1.366 . S
C1666 C1667 1.414 . S
C1666 C1669 1.499 . S
C1667 H1641 0.950 . S
C1667 C1666 1.414 . S
C1667 C1668 1.374 . S
C1668 H1642 0.950 . S
C1668 C1664 1.385 . S
C1668 C1667 1.374 . S
C1669 C1666 1.499 . S
C1669 C1670 1.373 . S
C1669 C1671 1.389 . S
C1670 H1643 0.950 . S
C1670 C1656 1.377 . S
C1670 C1669 1.373 . S
C1671 C1655 1.377 . S
C1671 C1669 1.389 . S
C1671 C1672 1.524 . S
C1672 C1671 1.524 . S
C1672 C1673 1.397 . S
C1672 C1677 1.363 . S
C1673 H1644 0.950 . S
C1673 C1672 1.397 . S
C1673 C1674 1.334 . S
C1674 H1645 0.950 . S
C1674 C1673 1.334 . S
C1674 C1675 1.287 . S
C1675 C1674 1.287 . S
C1675 C1676 1.524 . S
C1675 H1678 0.999 . S
C1676 H1646 0.950 . S
C1676 C1675 1.524 . S
C1676 C1677 1.415 . S
C1677 H1647 0.950 . S
C1677 C1672 1.363 . S
C1677 C1676 1.415 . S
H1678 C1675 0.999 . S
H1679 C1660 0.913 . S
H1680 C1698 0.951 . S
H1681 C1700 0.951 . S
H1682 C1702 0.950 . S
H1683 C1703 0.950 . S
H1684 C1705 0.950 . S
H1685 C1708 0.950 . S
H1686 C1709 0.950 . S
H1687 C1711 0.950 . S
H1688 C1712 0.950 . S
H1689 C1713 0.951 . S
H1690 C1715 0.951 . S
H1691 C1717 0.950 . S
H1692 C1718 0.950 . S
H1693 C1720 0.950 . S
H1694 C1723 0.950 . S
H1695 C1724 0.950 . S
H1696 C1726 0.950 . S
H1697 C1727 0.950 . S
C1698 H1680 0.951 . S
C1698 C1699 1.366 . S
C1698 C1700 1.388 . S
C1699 C1698 1.366 . S
C1699 C1703 1.385 . S
C1700 H1681 0.951 . S
C1700 C1698 1.388 . S
C1700 C1701 1.366 . S
C1701 C1700 1.366 . S
C1701 C1702 1.414 . S
C1701 C1704 1.499 . S
C1702 H1682 0.950 . S
C1702 C1701 1.414 . S
C1702 C1703 1.374 . S
C1703 H1683 0.950 . S
C1703 C1699 1.385 . S
C1703 C1702 1.374 . S
C1704 C1701 1.499 . S
C1704 C1705 1.373 . S
C1704 C1706 1.389 1_565 S
C1705 H1684 0.950 . S
C1705 C1704 1.373 . S
C1705 C1721 1.377 . S
C1706 C1704 1.389 1_545 S
C1706 C1707 1.524 . S
C1706 C1720 1.377 . S
C1707 C1706 1.524 . S
C1707 C1708 1.397 . S
C1707 C1712 1.363 . S
C1708 H1685 0.950 . S
C1708 C1707 1.397 . S
C1708 C1709 1.334 . S
C1709 H1686 0.950 . S
C1709 C1708 1.334 . S
C1709 C1710 1.287 . S
C1710 C1709 1.287 . S
C1710 C1711 1.524 . S
C1710 H1729 0.913 . S
C1711 H1687 0.950 . S
C1711 C1710 1.524 . S
C1711 C1712 1.415 . S
C1712 H1688 0.950 . S
C1712 C1707 1.363 . S
C1712 C1711 1.415 . S
C1713 H1689 0.951 . S
C1713 C1714 1.366 . S
C1713 C1715 1.388 . S
C1714 C1713 1.366 . S
C1714 C1718 1.385 . S
C1715 H1690 0.951 . S
C1715 C1713 1.388 . S
C1715 C1716 1.366 . S
C1716 C1715 1.366 . S
C1716 C1717 1.414 . S
C1716 C1719 1.499 . S
C1717 H1691 0.950 . S
C1717 C1716 1.414 . S
C1717 C1718 1.374 . S
C1718 H1692 0.950 . S
C1718 C1714 1.385 . S
C1718 C1717 1.374 . S
C1719 C1716 1.499 . S
C1719 C1720 1.373 . S
C1719 C1721 1.389 1_545 S
C1720 H1693 0.950 . S
C1720 C1706 1.377 . S
C1720 C1719 1.373 . S
C1721 C1705 1.377 . S
C1721 C1719 1.389 1_565 S
C1721 C1722 1.524 . S
C1722 C1721 1.524 . S
C1722 C1723 1.397 . S
C1722 C1727 1.363 . S
C1723 H1694 0.950 . S
C1723 C1722 1.397 . S
C1723 C1724 1.334 . S
C1724 H1695 0.950 . S
C1724 C1723 1.334 . S
C1724 C1725 1.287 . S
C1725 C1724 1.287 . S
C1725 C1726 1.524 . S
C1725 H1728 0.999 . S
C1726 H1696 0.950 . S
C1726 C1725 1.524 . S
C1726 C1727 1.415 . S
C1727 H1697 0.950 . S
C1727 C1722 1.363 . S
C1727 C1726 1.415 . S
H1728 C1725 0.999 . S
H1729 C1710 0.913 . S
H1730 C1748 0.951 . S
H1731 C1750 0.951 . S
H1732 C1752 0.950 . S
H1733 C1753 0.950 . S
H1734 C1755 0.950 . S
H1735 C1758 0.950 . S
H1736 C1759 0.950 . S
H1737 C1761 0.950 . S
H1738 C1762 0.950 . S
H1739 C1763 0.951 . S
H1740 C1765 0.951 . S
H1741 C1767 0.950 . S
H1742 C1768 0.950 . S
H1743 C1770 0.950 . S
H1744 C1773 0.950 . S
H1745 C1774 0.950 . S
H1746 C1776 0.950 . S
H1747 C1777 0.950 . S
C1748 H1730 0.951 . S
C1748 C1749 1.366 . S
C1748 C1750 1.388 . S
C1749 C1748 1.366 . S
C1749 C1753 1.385 . S
C1750 H1731 0.951 . S
C1750 C1748 1.388 . S
C1750 C1751 1.366 . S
C1751 C1750 1.366 . S
C1751 C1752 1.414 . S
C1751 C1754 1.499 . S
C1752 H1732 0.950 . S
C1752 C1751 1.414 . S
C1752 C1753 1.374 . S
C1753 H1733 0.950 . S
C1753 C1749 1.385 . S
C1753 C1752 1.374 . S
C1754 C1751 1.499 . S
C1754 C1755 1.373 . S
C1754 C1756 1.389 . S
C1755 H1734 0.950 . S
C1755 C1754 1.373 . S
C1755 C1771 1.377 . S
C1756 C1754 1.389 . S
C1756 C1757 1.524 . S
C1756 C1770 1.377 . S
C1757 C1756 1.524 . S
C1757 C1758 1.397 . S
C1757 C1762 1.363 . S
C1758 H1735 0.950 . S
C1758 C1757 1.397 . S
C1758 C1759 1.334 . S
C1759 H1736 0.950 . S
C1759 C1758 1.334 . S
C1759 C1760 1.287 . S
C1760 C1759 1.287 . S
C1760 C1761 1.524 . S
C1760 H1779 0.913 . S
C1761 H1737 0.950 . S
C1761 C1760 1.524 . S
C1761 C1762 1.415 . S
C1762 H1738 0.950 . S
C1762 C1757 1.363 . S
C1762 C1761 1.415 . S
C1763 H1739 0.951 . S
C1763 C1764 1.366 . S
C1763 C1765 1.388 . S
C1764 C1763 1.366 . S
C1764 C1768 1.385 . S
C1765 H1740 0.951 . S
C1765 C1763 1.388 . S
C1765 C1766 1.366 . S
C1766 C1765 1.366 . S
C1766 C1767 1.414 . S
C1766 C1769 1.499 . S
C1767 H1741 0.950 . S
C1767 C1766 1.414 . S
C1767 C1768 1.374 . S
C1768 H1742 0.950 . S
C1768 C1764 1.385 . S
C1768 C1767 1.374 . S
C1769 C1766 1.499 . S
C1769 C1770 1.373 . S
C1769 C1771 1.389 . S
C1770 H1743 0.950 . S
C1770 C1756 1.377 . S
C1770 C1769 1.373 . S
C1771 C1755 1.377 . S
C1771 C1769 1.389 . S
C1771 C1772 1.524 . S
C1772 C1771 1.524 . S
C1772 C1773 1.397 . S
C1772 C1777 1.363 . S
C1773 H1744 0.950 . S
C1773 C1772 1.397 . S
C1773 C1774 1.334 . S
C1774 H1745 0.950 . S
C1774 C1773 1.334 . S
C1774 C1775 1.287 . S
C1775 C1774 1.287 . S
C1775 C1776 1.524 . S
C1775 H1778 0.999 . S
C1776 H1746 0.950 . S
C1776 C1775 1.524 . S
C1776 C1777 1.415 . S
C1777 H1747 0.950 . S
C1777 C1772 1.363 . S
C1777 C1776 1.415 . S
H1778 C1775 0.999 . S
H1779 C1760 0.913 . S
H1780 C1798 0.951 . S
H1781 C1800 0.951 . S
H1782 C1802 0.950 . S
H1783 C1803 0.950 . S
H1784 C1805 0.950 . S
H1785 C1808 0.950 . S
H1786 C1809 0.950 . S
H1787 C1811 0.950 . S
H1788 C1812 0.950 . S
H1789 C1813 0.951 . S
H1790 C1815 0.951 . S
H1791 C1817 0.950 . S
H1792 C1818 0.950 . S
H1793 C1820 0.950 . S
H1794 C1823 0.950 . S
H1795 C1824 0.950 . S
H1796 C1826 0.950 . S
H1797 C1827 0.950 . S
C1798 H1780 0.951 . S
C1798 C1799 1.366 . S
C1798 C1800 1.388 . S
C1799 C1798 1.366 . S
C1799 C1803 1.385 . S
C1800 H1781 0.951 . S
C1800 C1798 1.388 . S
C1800 C1801 1.366 . S
C1801 C1800 1.366 . S
C1801 C1802 1.414 . S
C1801 C1804 1.499 . S
C1802 H1782 0.950 . S
C1802 C1801 1.414 . S
C1802 C1803 1.374 . S
C1803 H1783 0.950 . S
C1803 C1799 1.385 . S
C1803 C1802 1.374 . S
C1804 C1801 1.499 . S
C1804 C1805 1.373 1_655 S
C1804 C1806 1.389 . S
C1805 H1784 0.950 . S
C1805 C1804 1.373 1_455 S
C1805 C1821 1.377 . S
C1806 C1804 1.389 . S
C1806 C1807 1.524 . S
C1806 C1820 1.377 . S
C1807 C1806 1.524 . S
C1807 C1808 1.397 . S
C1807 C1812 1.363 . S
C1808 H1785 0.950 . S
C1808 C1807 1.397 . S
C1808 C1809 1.334 . S
C1809 H1786 0.950 . S
C1809 C1808 1.334 . S
C1809 C1810 1.287 . S
C1810 C1809 1.287 . S
C1810 C1811 1.524 . S
C1810 H1829 0.913 . S
C1811 H1787 0.950 . S
C1811 C1810 1.524 . S
C1811 C1812 1.415 . S
C1812 H1788 0.950 . S
C1812 C1807 1.363 . S
C1812 C1811 1.415 . S
C1813 H1789 0.951 . S
C1813 C1814 1.366 . S
C1813 C1815 1.388 . S
C1814 C1813 1.366 . S
C1814 C1818 1.385 . S
C1815 H1790 0.951 . S
C1815 C1813 1.388 . S
C1815 C1816 1.366 . S
C1816 C1815 1.366 . S
C1816 C1817 1.414 . S
C1816 C1819 1.499 . S
C1817 H1791 0.950 . S
C1817 C1816 1.414 . S
C1817 C1818 1.374 . S
C1818 H1792 0.950 . S
C1818 C1814 1.385 . S
C1818 C1817 1.374 . S
C1819 C1816 1.499 . S
C1819 C1820 1.373 1_455 S
C1819 C1821 1.389 . S
C1820 H1793 0.950 . S
C1820 C1806 1.377 . S
C1820 C1819 1.373 1_655 S
C1821 C1805 1.377 . S
C1821 C1819 1.389 . S
C1821 C1822 1.524 . S
C1822 C1821 1.524 . S
C1822 C1823 1.397 . S
C1822 C1827 1.363 . S
C1823 H1794 0.950 . S
C1823 C1822 1.397 . S
C1823 C1824 1.334 . S
C1824 H1795 0.950 . S
C1824 C1823 1.334 . S
C1824 C1825 1.287 . S
C1825 C1824 1.287 . S
C1825 C1826 1.524 . S
C1825 H1828 0.999 . S
C1826 H1796 0.950 . S
C1826 C1825 1.524 . S
C1826 C1827 1.415 . S
C1827 H1797 0.950 . S
C1827 C1822 1.363 . S
C1827 C1826 1.415 . S
H1828 C1825 0.999 . S
H1829 C1810 0.913 . S
H1830 C1848 0.951 . S
H1831 C1850 0.951 . S
H1832 C1852 0.950 . S
H1833 C1853 0.950 . S
H1834 C1855 0.950 . S
H1835 C1858 0.950 . S
H1836 C1859 0.950 . S
H1837 C1861 0.950 . S
H1838 C1862 0.950 . S
H1839 C1863 0.951 . S
H1840 C1865 0.951 . S
H1841 C1867 0.950 . S
H1842 C1868 0.950 . S
H1843 C1870 0.950 . S
H1844 C1873 0.950 . S
H1845 C1874 0.950 . S
H1846 C1876 0.950 . S
H1847 C1877 0.950 . S
C1848 H1830 0.951 . S
C1848 C1849 1.366 . S
C1848 C1850 1.388 . S
C1849 C1848 1.366 . S
C1849 C1853 1.385 . S
C1850 H1831 0.951 . S
C1850 C1848 1.388 . S
C1850 C1851 1.366 . S
C1851 C1850 1.366 . S
C1851 C1852 1.414 . S
C1851 C1854 1.499 . S
C1852 H1832 0.950 . S
C1852 C1851 1.414 . S
C1852 C1853 1.374 . S
C1853 H1833 0.950 . S
C1853 C1849 1.385 . S
C1853 C1852 1.374 . S
C1854 C1851 1.499 . S
C1854 C1855 1.373 1_545 S
C1854 C1856 1.389 . S
C1855 H1834 0.950 . S
C1855 C1854 1.373 1_565 S
C1855 C1871 1.377 . S
C1856 C1854 1.389 . S
C1856 C1857 1.524 . S
C1856 C1870 1.377 . S
C1857 C1856 1.524 . S
C1857 C1858 1.397 . S
C1857 C1862 1.363 . S
C1858 H1835 0.950 . S
C1858 C1857 1.397 . S
C1858 C1859 1.334 . S
C1859 H1836 0.950 . S
C1859 C1858 1.334 . S
C1859 C1860 1.287 . S
C1860 C1859 1.287 . S
C1860 C1861 1.524 . S
C1860 H1879 0.913 . S
C1861 H1837 0.950 . S
C1861 C1860 1.524 . S
C1861 C1862 1.415 . S
C1862 H1838 0.950 . S
C1862 C1857 1.363 . S
C1862 C1861 1.415 . S
C1863 H1839 0.951 . S
C1863 C1864 1.366 . S
C1863 C1865 1.388 . S
C1864 C1863 1.366 . S
C1864 C1868 1.385 . S
C1865 H1840 0.951 . S
C1865 C1863 1.388 . S
C1865 C1866 1.366 . S
C1866 C1865 1.366 . S
C1866 C1867 1.414 . S
C1866 C1869 1.499 . S
C1867 H1841 0.950 . S
C1867 C1866 1.414 . S
C1867 C1868 1.374 . S
C1868 H1842 0.950 . S
C1868 C1864 1.385 . S
C1868 C1867 1.374 . S
C1869 C1866 1.499 . S
C1869 C1870 1.373 1_565 S
C1869 C1871 1.389 . S
C1870 H1843 0.950 . S
C1870 C1856 1.377 . S
C1870 C1869 1.373 1_545 S
C1871 C1855 1.377 . S
C1871 C1869 1.389 . S
C1871 C1872 1.524 . S
C1872 C1871 1.524 . S
C1872 C1873 1.397 . S
C1872 C1877 1.363 . S
C1873 H1844 0.950 . S
C1873 C1872 1.397 . S
C1873 C1874 1.334 . S
C1874 H1845 0.950 . S
C1874 C1873 1.334 . S
C1874 C1875 1.287 . S
C1875 C1874 1.287 . S
C1875 C1876 1.524 . S
C1875 H1878 0.999 . S
C1876 H1846 0.950 . S
C1876 C1875 1.524 . S
C1876 C1877 1.415 . S
C1877 H1847 0.950 . S
C1877 C1872 1.363 . S
C1877 C1876 1.415 . S
H1878 C1875 0.999 . S
H1879 C1860 0.913 . S
H1880 C1898 0.951 . S
H1881 C1900 0.951 . S
H1882 C1902 0.950 . S
H1883 C1903 0.950 . S
H1884 C1905 0.950 . S
H1885 C1908 0.950 . S
H1886 C1909 0.950 . S
H1887 C1911 0.950 . S
H1888 C1912 0.950 . S
H1889 C1913 0.951 . S
H1890 C1915 0.951 . S
H1891 C1917 0.950 . S
H1892 C1918 0.950 . S
H1893 C1920 0.950 . S
H1894 C1923 0.950 . S
H1895 C1924 0.950 . S
H1896 C1926 0.950 . S
H1897 C1927 0.950 . S
C1898 H1880 0.951 . S
C1898 C1899 1.366 . S
C1898 C1900 1.388 . S
C1899 C1898 1.366 . S
C1899 C1903 1.385 . S
C1900 H1881 0.951 . S
C1900 C1898 1.388 . S
C1900 C1901 1.366 . S
C1901 C1900 1.366 . S
C1901 C1902 1.414 . S
C1901 C1904 1.499 . S
C1902 H1882 0.950 . S
C1902 C1901 1.414 . S
C1902 C1903 1.374 . S
C1903 H1883 0.950 . S
C1903 C1899 1.385 . S
C1903 C1902 1.374 . S
C1904 C1901 1.499 . S
C1904 C1905 1.373 . S
C1904 C1906 1.389 . S
C1905 H1884 0.950 . S
C1905 C1904 1.373 . S
C1905 C1921 1.377 . S
C1906 C1904 1.389 . S
C1906 C1907 1.524 . S
C1906 C1920 1.377 . S
C1907 C1906 1.524 . S
C1907 C1908 1.397 . S
C1907 C1912 1.363 . S
C1908 H1885 0.950 . S
C1908 C1907 1.397 . S
C1908 C1909 1.334 . S
C1909 H1886 0.950 . S
C1909 C1908 1.334 . S
C1909 C1910 1.287 . S
C1910 C1909 1.287 . S
C1910 C1911 1.524 . S
C1910 H1929 0.913 . S
C1911 H1887 0.950 . S
C1911 C1910 1.524 . S
C1911 C1912 1.415 . S
C1912 H1888 0.950 . S
C1912 C1907 1.363 . S
C1912 C1911 1.415 . S
C1913 H1889 0.951 . S
C1913 C1914 1.366 . S
C1913 C1915 1.388 . S
C1914 C1913 1.366 . S
C1914 C1918 1.385 . S
C1915 H1890 0.951 . S
C1915 C1913 1.388 . S
C1915 C1916 1.366 . S
C1916 C1915 1.366 . S
C1916 C1917 1.414 . S
C1916 C1919 1.499 . S
C1917 H1891 0.950 . S
C1917 C1916 1.414 . S
C1917 C1918 1.374 . S
C1918 H1892 0.950 . S
C1918 C1914 1.385 . S
C1918 C1917 1.374 . S
C1919 C1916 1.499 . S
C1919 C1920 1.373 . S
C1919 C1921 1.389 . S
C1920 H1893 0.950 . S
C1920 C1906 1.377 . S
C1920 C1919 1.373 . S
C1921 C1905 1.377 . S
C1921 C1919 1.389 . S
C1921 C1922 1.524 . S
C1922 C1921 1.524 . S
C1922 C1923 1.397 . S
C1922 C1927 1.363 . S
C1923 H1894 0.950 . S
C1923 C1922 1.397 . S
C1923 C1924 1.334 . S
C1924 H1895 0.950 . S
C1924 C1923 1.334 . S
C1924 C1925 1.287 . S
C1925 C1924 1.287 . S
C1925 C1926 1.524 . S
C1925 H1928 0.999 . S
C1926 H1896 0.950 . S
C1926 C1925 1.524 . S
C1926 C1927 1.415 . S
C1927 H1897 0.950 . S
C1927 C1922 1.363 . S
C1927 C1926 1.415 . S
H1928 C1925 0.999 . S
H1929 C1910 0.913 . S
H1930 C1948 0.951 . S
H1931 C1950 0.951 . S
H1932 C1952 0.950 . S
H1933 C1953 0.950 . S
H1934 C1955 0.950 . S
H1935 C1958 0.950 . S
H1936 C1959 0.950 . S
H1937 C1961 0.950 . S
H1938 C1962 0.950 . S
H1939 C1963 0.951 . S
H1940 C1965 0.951 . S
H1941 C1967 0.950 . S
H1942 C1968 0.950 . S
H1943 C1970 0.950 . S
H1944 C1973 0.950 . S
H1945 C1974 0.950 . S
H1946 C1976 0.950 . S
H1947 C1977 0.950 . S
C1948 H1930 0.951 . S
C1948 C1949 1.366 . S
C1948 C1950 1.388 . S
C1949 C1948 1.366 . S
C1949 C1953 1.385 . S
C1950 H1931 0.951 . S
C1950 C1948 1.388 . S
C1950 C1951 1.366 . S
C1951 C1950 1.366 . S
C1951 C1952 1.414 . S
C1951 C1954 1.499 . S
C1952 H1932 0.950 . S
C1952 C1951 1.414 . S
C1952 C1953 1.374 . S
C1953 H1933 0.950 . S
C1953 C1949 1.385 . S
C1953 C1952 1.374 . S
C1954 C1951 1.499 . S
C1954 C1955 1.373 . S
C1954 C1956 1.389 1_455 S
C1955 H1934 0.950 . S
C1955 C1954 1.373 . S
C1955 C1971 1.377 . S
C1956 C1954 1.389 1_655 S
C1956 C1957 1.524 . S
C1956 C1970 1.377 . S
C1957 C1956 1.524 . S
C1957 C1958 1.397 1_655 S
C1957 C1962 1.363 . S
C1958 H1935 0.950 . S
C1958 C1957 1.397 1_455 S
C1958 C1959 1.334 . S
C1959 H1936 0.950 . S
C1959 C1958 1.334 . S
C1959 C1960 1.287 1_455 S
C1960 C1959 1.287 1_655 S
C1960 C1961 1.524 . S
C1960 H1979 0.913 . S
C1961 H1937 0.950 . S
C1961 C1960 1.524 . S
C1961 C1962 1.415 . S
C1962 H1938 0.950 . S
C1962 C1957 1.363 . S
C1962 C1961 1.415 . S
C1963 H1939 0.951 . S
C1963 C1964 1.366 . S
C1963 C1965 1.388 . S
C1964 C1963 1.366 . S
C1964 C1968 1.385 . S
C1965 H1940 0.951 . S
C1965 C1963 1.388 . S
C1965 C1966 1.366 . S
C1966 C1965 1.366 . S
C1966 C1967 1.414 . S
C1966 C1969 1.499 . S
C1967 H1941 0.950 . S
C1967 C1966 1.414 . S
C1967 C1968 1.374 . S
C1968 H1942 0.950 . S
C1968 C1964 1.385 . S
C1968 C1967 1.374 . S
C1969 C1966 1.499 . S
C1969 C1970 1.373 . S
C1969 C1971 1.389 1_655 S
C1970 H1943 0.950 . S
C1970 C1956 1.377 . S
C1970 C1969 1.373 . S
C1971 C1955 1.377 . S
C1971 C1969 1.389 1_455 S
C1971 C1972 1.524 . S
C1972 C1971 1.524 . S
C1972 C1973 1.397 1_455 S
C1972 C1977 1.363 . S
C1973 H1944 0.950 . S
C1973 C1972 1.397 1_655 S
C1973 C1974 1.334 . S
C1974 H1945 0.950 . S
C1974 C1973 1.334 . S
C1974 C1975 1.287 1_655 S
C1975 C1974 1.287 1_455 S
C1975 C1976 1.524 . S
C1975 H1978 0.999 . S
C1976 H1946 0.950 . S
C1976 C1975 1.524 . S
C1976 C1977 1.415 . S
C1977 H1947 0.950 . S
C1977 C1972 1.363 . S
C1977 C1976 1.415 . S
H1978 C1975 0.999 . S
H1979 C1960 0.913 . S
H1980 C1998 0.951 . S
H1981 C2000 0.951 . S
H1982 C2002 0.950 . S
H1983 C2003 0.950 . S
H1984 C2005 0.950 . S
H1985 C2008 0.950 . S
H1986 C2009 0.950 . S
H1987 C2011 0.950 . S
H1988 C2012 0.950 . S
H1989 C2013 0.951 . S
H1990 C2015 0.951 . S
H1991 C2017 0.950 . S
H1992 C2018 0.950 . S
H1993 C2020 0.950 . S
H1994 C2023 0.950 . S
H1995 C2024 0.950 . S
H1996 C2026 0.950 . S
H1997 C2027 0.950 . S
C1998 H1980 0.951 . S
C1998 C1999 1.366 . S
C1998 C2000 1.388 . S
C1999 C1998 1.366 . S
C1999 C2003 1.385 . S
C2000 H1981 0.951 . S
C2000 C1998 1.388 . S
C2000 C2001 1.366 . S
C2001 C2000 1.366 . S
C2001 C2002 1.414 . S
C2001 C2004 1.499 . S
C2002 H1982 0.950 . S
C2002 C2001 1.414 . S
C2002 C2003 1.374 . S
C2003 H1983 0.950 . S
C2003 C1999 1.385 . S
C2003 C2002 1.374 . S
C2004 C2001 1.499 . S
C2004 C2005 1.373 . S
C2004 C2006 1.389 . S
C2005 H1984 0.950 . S
C2005 C2004 1.373 . S
C2005 C2021 1.377 . S
C2006 C2004 1.389 . S
C2006 C2007 1.524 . S
C2006 C2020 1.377 . S
C2007 C2006 1.524 . S
C2007 C2008 1.397 . S
C2007 C2012 1.363 . S
C2008 H1985 0.950 . S
C2008 C2007 1.397 . S
C2008 C2009 1.334 . S
C2009 H1986 0.950 . S
C2009 C2008 1.334 . S
C2009 C2010 1.287 . S
C2010 C2009 1.287 . S
C2010 C2011 1.524 . S
C2010 H2029 0.913 . S
C2011 H1987 0.950 . S
C2011 C2010 1.524 . S
C2011 C2012 1.415 . S
C2012 H1988 0.950 . S
C2012 C2007 1.363 . S
C2012 C2011 1.415 . S
C2013 H1989 0.951 . S
C2013 C2014 1.366 . S
C2013 C2015 1.388 . S
C2014 C2013 1.366 . S
C2014 C2018 1.385 . S
C2015 H1990 0.951 . S
C2015 C2013 1.388 . S
C2015 C2016 1.366 . S
C2016 C2015 1.366 . S
C2016 C2017 1.414 . S
C2016 C2019 1.499 . S
C2017 H1991 0.950 . S
C2017 C2016 1.414 . S
C2017 C2018 1.374 . S
C2018 H1992 0.950 . S
C2018 C2014 1.385 . S
C2018 C2017 1.374 . S
C2019 C2016 1.499 . S
C2019 C2020 1.373 . S
C2019 C2021 1.389 . S
C2020 H1993 0.950 . S
C2020 C2006 1.377 . S
C2020 C2019 1.373 . S
C2021 C2005 1.377 . S
C2021 C2019 1.389 . S
C2021 C2022 1.524 . S
C2022 C2021 1.524 . S
C2022 C2023 1.397 . S
C2022 C2027 1.363 . S
C2023 H1994 0.950 . S
C2023 C2022 1.397 . S
C2023 C2024 1.334 . S
C2024 H1995 0.950 . S
C2024 C2023 1.334 . S
C2024 C2025 1.287 . S
C2025 C2024 1.287 . S
C2025 C2026 1.524 . S
C2025 H2028 0.999 . S
C2026 H1996 0.950 . S
C2026 C2025 1.524 . S
C2026 C2027 1.415 . S
C2027 H1997 0.950 . S
C2027 C2022 1.363 . S
C2027 C2026 1.415 . S
H2028 C2025 0.999 . S
H2029 C2010 0.913 . S
H2030 C2048 0.951 . S
H2031 C2050 0.951 . S
H2032 C2052 0.950 . S
H2033 C2053 0.950 . S
H2034 C2055 0.950 . S
H2035 C2058 0.950 . S
H2036 C2059 0.950 . S
H2037 C2061 0.950 . S
H2038 C2062 0.950 . S
H2039 C2063 0.951 . S
H2040 C2065 0.951 . S
H2041 C2067 0.950 . S
H2042 C2068 0.950 . S
H2043 C2070 0.950 . S
H2044 C2073 0.950 . S
H2045 C2074 0.950 . S
H2046 C2076 0.950 . S
H2047 C2077 0.950 . S
C2048 H2030 0.951 . S
C2048 C2049 1.366 . S
C2048 C2050 1.388 . S
C2049 C2048 1.366 . S
C2049 C2053 1.385 . S
C2050 H2031 0.951 . S
C2050 C2048 1.388 . S
C2050 C2051 1.366 . S
C2051 C2050 1.366 . S
C2051 C2052 1.414 . S
C2051 C2054 1.499 . S
C2052 H2032 0.950 . S
C2052 C2051 1.414 . S
C2052 C2053 1.374 . S
C2053 H2033 0.950 . S
C2053 C2049 1.385 . S
C2053 C2052 1.374 . S
C2054 C2051 1.499 . S
C2054 C2055 1.373 . S
C2054 C2056 1.389 . S
C2055 H2034 0.950 . S
C2055 C2054 1.373 . S
C2055 C2071 1.377 . S
C2056 C2054 1.389 . S
C2056 C2057 1.524 . S
C2056 C2070 1.377 . S
C2057 C2056 1.524 . S
C2057 C2058 1.397 . S
C2057 C2062 1.363 . S
C2058 H2035 0.950 . S
C2058 C2057 1.397 . S
C2058 C2059 1.334 . S
C2059 H2036 0.950 . S
C2059 C2058 1.334 . S
C2059 C2060 1.287 . S
C2060 C2059 1.287 . S
C2060 C2061 1.524 . S
C2060 H2079 0.913 . S
C2061 H2037 0.950 . S
C2061 C2060 1.524 . S
C2061 C2062 1.415 . S
C2062 H2038 0.950 . S
C2062 C2057 1.363 . S
C2062 C2061 1.415 . S
C2063 H2039 0.951 . S
C2063 C2064 1.366 . S
C2063 C2065 1.388 . S
C2064 C2063 1.366 . S
C2064 C2068 1.385 . S
C2065 H2040 0.951 . S
C2065 C2063 1.388 . S
C2065 C2066 1.366 . S
C2066 C2065 1.366 . S
C2066 C2067 1.414 . S
C2066 C2069 1.499 . S
C2067 H2041 0.950 . S
C2067 C2066 1.414 . S
C2067 C2068 1.374 . S
C2068 H2042 0.950 . S
C2068 C2064 1.385 . S
C2068 C2067 1.374 . S
C2069 C2066 1.499 . S
C2069 C2070 1.373 . S
C2069 C2071 1.389 . S
C2070 H2043 0.950 . S
C2070 C2056 1.377 . S
C2070 C2069 1.373 . S
C2071 C2055 1.377 . S
C2071 C2069 1.389 . S
C2071 C2072 1.524 . S
C2072 C2071 1.524 . S
C2072 C2073 1.397 . S
C2072 C2077 1.363 . S
C2073 H2044 0.950 . S
C2073 C2072 1.397 . S
C2073 C2074 1.334 . S
C2074 H2045 0.950 . S
C2074 C2073 1.334 . S
C2074 C2075 1.287 . S
C2075 C2074 1.287 . S
C2075 C2076 1.524 . S
C2075 H2078 0.999 . S
C2076 H2046 0.950 . S
C2076 C2075 1.524 . S
C2076 C2077 1.415 . S
C2077 H2047 0.950 . S
C2077 C2072 1.363 . S
C2077 C2076 1.415 . S
H2078 C2075 0.999 . S
H2079 C2060 0.913 . S
H2080 C2098 0.951 . S
H2081 C2100 0.951 . S
H2082 C2102 0.950 . S
H2083 C2103 0.950 . S
H2084 C2105 0.950 . S
H2085 C2108 0.950 . S
H2086 C2109 0.950 . S
H2087 C2111 0.950 . S
H2088 C2112 0.950 . S
H2089 C2113 0.951 . S
H2090 C2115 0.951 . S
H2091 C2117 0.950 . S
H2092 C2118 0.950 . S
H2093 C2120 0.950 . S
H2094 C2123 0.950 . S
H2095 C2124 0.950 . S
H2096 C2126 0.950 . S
H2097 C2127 0.950 . S
C2098 H2080 0.951 . S
C2098 C2099 1.366 . S
C2098 C2100 1.388 . S
C2099 C2098 1.366 . S
C2099 C2103 1.385 . S
C2100 H2081 0.951 . S
C2100 C2098 1.388 . S
C2100 C2101 1.366 . S
C2101 C2100 1.366 . S
C2101 C2102 1.414 . S
C2101 C2104 1.499 . S
C2102 H2082 0.950 . S
C2102 C2101 1.414 . S
C2102 C2103 1.374 . S
C2103 H2083 0.950 . S
C2103 C2099 1.385 . S
C2103 C2102 1.374 . S
C2104 C2101 1.499 . S
C2104 C2105 1.373 . S
C2104 C2106 1.389 . S
C2105 H2084 0.950 . S
C2105 C2104 1.373 . S
C2105 C2121 1.377 . S
C2106 C2104 1.389 . S
C2106 C2107 1.524 . S
C2106 C2120 1.377 . S
C2107 C2106 1.524 . S
C2107 C2108 1.397 . S
C2107 C2112 1.363 . S
C2108 H2085 0.950 . S
C2108 C2107 1.397 . S
C2108 C2109 1.334 . S
C2109 H2086 0.950 . S
C2109 C2108 1.334 . S
C2109 C2110 1.287 . S
C2110 C2109 1.287 . S
C2110 C2111 1.524 . S
C2110 H2129 0.913 . S
C2111 H2087 0.950 . S
C2111 C2110 1.524 . S
C2111 C2112 1.415 . S
C2112 H2088 0.950 . S
C2112 C2107 1.363 . S
C2112 C2111 1.415 . S
C2113 H2089 0.951 . S
C2113 C2114 1.366 . S
C2113 C2115 1.388 . S
C2114 C2113 1.366 . S
C2114 C2118 1.385 . S
C2115 H2090 0.951 . S
C2115 C2113 1.388 . S
C2115 C2116 1.366 . S
C2116 C2115 1.366 . S
C2116 C2117 1.414 . S
C2116 C2119 1.499 . S
C2117 H2091 0.950 . S
C2117 C2116 1.414 . S
C2117 C2118 1.374 . S
C2118 H2092 0.950 . S
C2118 C2114 1.385 . S
C2118 C2117 1.374 . S
C2119 C2116 1.499 . S
C2119 C2120 1.373 . S
C2119 C2121 1.389 . S
C2120 H2093 0.950 . S
C2120 C2106 1.377 . S
C2120 C2119 1.373 . S
C2121 C2105 1.377 . S
C2121 C2119 1.389 . S
C2121 C2122 1.524 . S
C2122 C2121 1.524 . S
C2122 C2123 1.397 . S
C2122 C2127 1.363 . S
C2123 H2094 0.950 . S
C2123 C2122 1.397 . S
C2123 C2124 1.334 . S
C2124 H2095 0.950 . S
C2124 C2123 1.334 . S
C2124 C2125 1.287 . S
C2125 C2124 1.287 . S
C2125 C2126 1.524 . S
C2125 H2128 0.999 . S
C2126 H2096 0.950 . S
C2126 C2125 1.524 . S
C2126 C2127 1.415 . S
C2127 H2097 0.950 . S
C2127 C2122 1.363 . S
C2127 C2126 1.415 . S
H2128 C2125 0.999 . S
H2129 C2110 0.913 . S
H2130 C2148 0.951 . S
H2131 C2150 0.951 . S
H2132 C2152 0.950 . S
H2133 C2153 0.950 . S
H2134 C2155 0.950 . S
H2135 C2158 0.950 . S
H2136 C2159 0.950 . S
H2137 C2161 0.950 . S
H2138 C2162 0.950 . S
H2139 C2163 0.951 . S
H2140 C2165 0.951 . S
H2141 C2167 0.950 . S
H2142 C2168 0.950 . S
H2143 C2170 0.950 . S
H2144 C2173 0.950 . S
H2145 C2174 0.950 . S
H2146 C2176 0.950 . S
H2147 C2177 0.950 . S
C2148 H2130 0.951 . S
C2148 C2149 1.366 . S
C2148 C2150 1.388 . S
C2149 C2148 1.366 . S
C2149 C2153 1.385 . S
C2150 H2131 0.951 . S
C2150 C2148 1.388 . S
C2150 C2151 1.366 . S
C2151 C2150 1.366 . S
C2151 C2152 1.414 . S
C2151 C2154 1.499 . S
C2152 H2132 0.950 . S
C2152 C2151 1.414 . S
C2152 C2153 1.374 . S
C2153 H2133 0.950 . S
C2153 C2149 1.385 . S
C2153 C2152 1.374 . S
C2154 C2151 1.499 . S
C2154 C2155 1.373 . S
C2154 C2156 1.389 . S
C2155 H2134 0.950 . S
C2155 C2154 1.373 . S
C2155 C2171 1.377 . S
C2156 C2154 1.389 . S
C2156 C2157 1.524 . S
C2156 C2170 1.377 . S
C2157 C2156 1.524 . S
C2157 C2158 1.397 . S
C2157 C2162 1.363 . S
C2158 H2135 0.950 . S
C2158 C2157 1.397 . S
C2158 C2159 1.334 . S
C2159 H2136 0.950 . S
C2159 C2158 1.334 . S
C2159 C2160 1.287 . S
C2160 C2159 1.287 . S
C2160 C2161 1.524 . S
C2160 H2179 0.913 . S
C2161 H2137 0.950 . S
C2161 C2160 1.524 . S
C2161 C2162 1.415 . S
C2162 H2138 0.950 . S
C2162 C2157 1.363 . S
C2162 C2161 1.415 . S
C2163 H2139 0.951 . S
C2163 C2164 1.366 . S
C2163 C2165 1.388 . S
C2164 C2163 1.366 . S
C2164 C2168 1.385 . S
C2165 H2140 0.951 . S
C2165 C2163 1.388 . S
C2165 C2166 1.366 . S
C2166 C2165 1.366 . S
C2166 C2167 1.414 . S
C2166 C2169 1.499 . S
C2167 H2141 0.950 . S
C2167 C2166 1.414 . S
C2167 C2168 1.374 . S
C2168 H2142 0.950 . S
C2168 C2164 1.385 . S
C2168 C2167 1.374 . S
C2169 C2166 1.499 . S
C2169 C2170 1.373 . S
C2169 C2171 1.389 . S
C2170 H2143 0.950 . S
C2170 C2156 1.377 . S
C2170 C2169 1.373 . S
C2171 C2155 1.377 . S
C2171 C2169 1.389 . S
C2171 C2172 1.524 . S
C2172 C2171 1.524 . S
C2172 C2173 1.397 . S
C2172 C2177 1.363 . S
C2173 H2144 0.950 . S
C2173 C2172 1.397 . S
C2173 C2174 1.334 . S
C2174 H2145 0.950 . S
C2174 C2173 1.334 . S
C2174 C2175 1.287 . S
C2175 C2174 1.287 . S
C2175 C2176 1.524 . S
C2175 H2178 0.999 . S
C2176 H2146 0.950 . S
C2176 C2175 1.524 . S
C2176 C2177 1.415 . S
C2177 H2147 0.950 . S
C2177 C2172 1.363 . S
C2177 C2176 1.415 . S
H2178 C2175 0.999 . S
H2179 C2160 0.913 . S
H2180 C2198 0.951 . S
H2181 C2200 0.951 . S
H2182 C2202 0.950 . S
H2183 C2203 0.950 . S
H2184 C2205 0.950 . S
H2185 C2208 0.950 . S
H2186 C2209 0.950 . S
H2187 C2211 0.950 . S
H2188 C2212 0.950 . S
H2189 C2213 0.951 . S
H2190 C2215 0.951 . S
H2191 C2217 0.950 . S
H2192 C2218 0.950 . S
H2193 C2220 0.950 . S
H2194 C2223 0.950 . S
H2195 C2224 0.950 . S
H2196 C2226 0.950 . S
H2197 C2227 0.950 . S
C2198 H2180 0.951 . S
C2198 C2199 1.366 . S
C2198 C2200 1.388 . S
C2199 C2198 1.366 . S
C2199 C2203 1.385 . S
C2200 H2181 0.951 . S
C2200 C2198 1.388 . S
C2200 C2201 1.366 . S
C2201 C2200 1.366 . S
C2201 C2202 1.414 . S
C2201 C2204 1.499 . S
C2202 H2182 0.950 . S
C2202 C2201 1.414 . S
C2202 C2203 1.374 . S
C2203 H2183 0.950 . S
C2203 C2199 1.385 . S
C2203 C2202 1.374 . S
C2204 C2201 1.499 . S
C2204 C2205 1.373 . S
C2204 C2206 1.389 . S
C2205 H2184 0.950 . S
C2205 C2204 1.373 . S
C2205 C2221 1.377 . S
C2206 C2204 1.389 . S
C2206 C2207 1.524 . S
C2206 C2220 1.377 . S
C2207 C2206 1.524 . S
C2207 C2208 1.397 . S
C2207 C2212 1.363 . S
C2208 H2185 0.950 . S
C2208 C2207 1.397 . S
C2208 C2209 1.334 . S
C2209 H2186 0.950 . S
C2209 C2208 1.334 . S
C2209 C2210 1.287 . S
C2210 C2209 1.287 . S
C2210 C2211 1.524 . S
C2210 H2229 0.913 . S
C2211 H2187 0.950 . S
C2211 C2210 1.524 . S
C2211 C2212 1.415 . S
C2212 H2188 0.950 . S
C2212 C2207 1.363 . S
C2212 C2211 1.415 . S
C2213 H2189 0.951 . S
C2213 C2214 1.366 . S
C2213 C2215 1.388 . S
C2214 C2213 1.366 . S
C2214 C2218 1.385 . S
C2215 H2190 0.951 . S
C2215 C2213 1.388 . S
C2215 C2216 1.366 . S
C2216 C2215 1.366 . S
C2216 C2217 1.414 . S
C2216 C2219 1.499 . S
C2217 H2191 0.950 . S
C2217 C2216 1.414 . S
C2217 C2218 1.374 . S
C2218 H2192 0.950 . S
C2218 C2214 1.385 . S
C2218 C2217 1.374 . S
C2219 C2216 1.499 . S
C2219 C2220 1.373 . S
C2219 C2221 1.389 . S
C2220 H2193 0.950 . S
C2220 C2206 1.377 . S
C2220 C2219 1.373 . S
C2221 C2205 1.377 . S
C2221 C2219 1.389 . S
C2221 C2222 1.524 . S
C2222 C2221 1.524 . S
C2222 C2223 1.397 . S
C2222 C2227 1.363 . S
C2223 H2194 0.950 . S
C2223 C2222 1.397 . S
C2223 C2224 1.334 . S
C2224 H2195 0.950 . S
C2224 C2223 1.334 . S
C2224 C2225 1.287 . S
C2225 C2224 1.287 . S
C2225 C2226 1.524 . S
C2225 H2228 0.999 . S
C2226 H2196 0.950 . S
C2226 C2225 1.524 . S
C2226 C2227 1.415 . S
C2227 H2197 0.950 . S
C2227 C2222 1.363 . S
C2227 C2226 1.415 . S
H2228 C2225 0.999 . S
H2229 C2210 0.913 . S
H2230 C2248 0.951 . S
H2231 C2250 0.951 . S
H2232 C2252 0.950 . S
H2233 C2253 0.950 . S
H2234 C2255 0.950 . S
H2235 C2258 0.950 . S
H2236 C2259 0.950 . S
H2237 C2261 0.950 . S
H2238 C2262 0.950 . S
H2239 C2263 0.951 . S
H2240 C2265 0.951 . S
H2241 C2267 0.950 . S
H2242 C2268 0.950 . S
H2243 C2270 0.950 . S
H2244 C2273 0.950 . S
H2245 C2274 0.950 . S
H2246 C2276 0.950 . S
H2247 C2277 0.950 . S
C2248 H2230 0.951 . S
C2248 C2249 1.366 . S
C2248 C2250 1.388 . S
C2249 C2248 1.366 . S
C2249 C2253 1.385 . S
C2250 H2231 0.951 . S
C2250 C2248 1.388 . S
C2250 C2251 1.366 . S
C2251 C2250 1.366 . S
C2251 C2252 1.414 . S
C2251 C2254 1.499 . S
C2252 H2232 0.950 . S
C2252 C2251 1.414 . S
C2252 C2253 1.374 . S
C2253 H2233 0.950 . S
C2253 C2249 1.385 . S
C2253 C2252 1.374 . S
C2254 C2251 1.499 . S
C2254 C2255 1.373 . S
C2254 C2256 1.389 . S
C2255 H2234 0.950 . S
C2255 C2254 1.373 . S
C2255 C2271 1.377 . S
C2256 C2254 1.389 . S
C2256 C2257 1.524 . S
C2256 C2270 1.377 . S
C2257 C2256 1.524 . S
C2257 C2258 1.397 . S
C2257 C2262 1.363 . S
C2258 H2235 0.950 . S
C2258 C2257 1.397 . S
C2258 C2259 1.334 . S
C2259 H2236 0.950 . S
C2259 C2258 1.334 . S
C2259 C2260 1.287 . S
C2260 C2259 1.287 . S
C2260 C2261 1.524 . S
C2260 H2279 0.913 . S
C2261 H2237 0.950 . S
C2261 C2260 1.524 . S
C2261 C2262 1.415 . S
C2262 H2238 0.950 . S
C2262 C2257 1.363 . S
C2262 C2261 1.415 . S
C2263 H2239 0.951 . S
C2263 C2264 1.366 . S
C2263 C2265 1.388 . S
C2264 C2263 1.366 . S
C2264 C2268 1.385 . S
C2265 H2240 0.951 . S
C2265 C2263 1.388 . S
C2265 C2266 1.366 . S
C2266 C2265 1.366 . S
C2266 C2267 1.414 . S
C2266 C2269 1.499 . S
C2267 H2241 0.950 . S
C2267 C2266 1.414 . S
C2267 C2268 1.374 . S
C2268 H2242 0.950 . S
C2268 C2264 1.385 . S
C2268 C2267 1.374 . S
C2269 C2266 1.499 . S
C2269 C2270 1.373 . S
C2269 C2271 1.389 . S
C2270 H2243 0.950 . S
C2270 C2256 1.377 . S
C2270 C2269 1.373 . S
C2271 C2255 1.377 . S
C2271 C2269 1.389 . S
C2271 C2272 1.524 . S
C2272 C2271 1.524 . S
C2272 C2273 1.397 . S
C2272 C2277 1.363 . S
C2273 H2244 0.950 . S
C2273 C2272 1.397 . S
C2273 C2274 1.334 . S
C2274 H2245 0.950 . S
C2274 C2273 1.334 . S
C2274 C2275 1.287 . S
C2275 C2274 1.287 . S
C2275 C2276 1.524 . S
C2275 H2278 0.999 . S
C2276 H2246 0.950 . S
C2276 C2275 1.524 . S
C2276 C2277 1.415 . S
C2277 H2247 0.950 . S
C2277 C2272 1.363 . S
C2277 C2276 1.415 . S
H2278 C2275 0.999 . S
H2279 C2260 0.913 . S
C499 C2 0.806 . S
C514 C322 0.806 . S
C549 C42 0.806 . S
C564 C362 0.806 . S
C599 C82 0.807 . S
C614 C402 0.806 . S
C649 C442 0.806 . S
C664 C122 0.806 . S
C699 C162 0.806 . S
C714 C242 0.806 . S
C749 C282 0.807 . S
C764 C202 0.807 . S
C799 C417 1.462 . S
C814 C17 1.461 . S
C849 C457 1.461 . S
C864 C57 1.461 . S
C899 C97 1.462 . S
C914 C257 1.461 . S
C949 C297 1.461 . S
C964 C137 1.462 . S
C999 C337 1.461 . S
C1014 C177 1.461 . S
C1049 C217 1.462 . S
C1064 C377 1.462 . S
C1099 C304 4.337 . S
C1114 C24 4.337 . S
C1149 C344 4.337 . S
C1164 C64 4.337 . S
C1199 C384 4.337 . S
C1214 C104 4.337 . S
C1249 C144 4.337 . S
C1264 C424 4.337 . S
C1299 C184 4.337 . S
C1314 C464 4.337 . S
C1349 C224 4.337 . S
C1364 C264 4.337 . S
C1399 C23 0.517 . S
C1414 C143 0.514 . S
C1449 C63 0.517 . S
C1464 C183 0.515 . S
C1499 C103 0.514 . S
C1514 C223 0.516 . S
C1549 C383 0.513 . S
C1564 C263 0.515 . S
C1599 C303 0.513 . S
C1614 C423 0.514 . S
C1649 C463 0.516 . S
C1664 C343 0.516 . S
C1699 C306 0.971 . S
C1714 C26 0.972 . S
C1749 C346 0.971 . S
C1764 C66 0.970 . S
C1799 C106 0.971 . S
C1814 C386 0.970 . S
C1849 C426 0.971 . S
C1864 C146 0.970 . S
C1899 C466 0.972 . S
C1914 C186 0.970 . S
C1949 C226 0.970 . S
C1964 C266 0.972 . S
C1999 C13 4.481 . S
C2014 C413 4.481 . S
C2049 C53 4.481 . S
C2064 C453 4.481 1_556 S
C2099 C93 4.481 1_554 S
C2114 C253 4.481 . S
C2149 C133 4.481 . S
C2164 C293 4.481 . S
C2199 C173 4.481 . S
C2214 C333 4.481 1_556 S
C2249 C373 4.481 . S
C2264 C213 4.481 1_554 S
