# Generated by pormake.
# Topology lig, (3)-cn, num edge types: 1
# Building blocks:
#     Node 0, Type 0, BuildingBlock: WUSLED_clean_sbu_0, # of connection points: 3
#     Node 1, Type 0, BuildingBlock: WUSLED_clean_sbu_0, # of connection points: 3
#     Node 2, Type 0, BuildingBlock: WUSLED_clean_sbu_0, # of connection points: 3
#     Node 3, Type 0, BuildingBlock: WUSLED_clean_sbu_0, # of connection points: 3
#     Node 4, Type 0, BuildingBlock: WUSLED_clean_sbu_0, # of connection points: 3
#     Node 5, Type 0, BuildingBlock: WUSLED_clean_sbu_0, # of connection points: 3
#     Node 6, Type 0, BuildingBlock: WUSLED_clean_sbu_0, # of connection points: 3
#     Node 7, Type 0, BuildingBlock: WUSLED_clean_sbu_0, # of connection points: 3
#     Node 8, Type 0, BuildingBlock: WUSLED_clean_sbu_0, # of connection points: 3
#     Node 9, Type 0, BuildingBlock: WUSLED_clean_sbu_0, # of connection points: 3
#     Node 10, Type 0, BuildingBlock: WUSLED_clean_sbu_0, # of connection points: 3
#     Node 11, Type 0, BuildingBlock: WUSLED_clean_sbu_0, # of connection points: 3
#     Node 12, Type 0, BuildingBlock: WUSLED_clean_sbu_0, # of connection points: 3
#     Node 13, Type 0, BuildingBlock: WUSLED_clean_sbu_0, # of connection points: 3
#     Node 14, Type 0, BuildingBlock: WUSLED_clean_sbu_0, # of connection points: 3
#     Node 15, Type 0, BuildingBlock: WUSLED_clean_sbu_0, # of connection points: 3
#     Edge 16, Type (0, 0), BuildingBlock: XIVTED_clean_linker_0, # of connection points: 2
#     Edge 17, Type (0, 0), BuildingBlock: XIVTED_clean_linker_0, # of connection points: 2
#     Edge 18, Type (0, 0), BuildingBlock: XIVTED_clean_linker_0, # of connection points: 2
#     Edge 19, Type (0, 0), BuildingBlock: XIVTED_clean_linker_0, # of connection points: 2
#     Edge 20, Type (0, 0), BuildingBlock: XIVTED_clean_linker_0, # of connection points: 2
#     Edge 21, Type (0, 0), BuildingBlock: XIVTED_clean_linker_0, # of connection points: 2
#     Edge 22, Type (0, 0), BuildingBlock: XIVTED_clean_linker_0, # of connection points: 2
#     Edge 23, Type (0, 0), BuildingBlock: XIVTED_clean_linker_0, # of connection points: 2
#     Edge 24, Type (0, 0), BuildingBlock: XIVTED_clean_linker_0, # of connection points: 2
#     Edge 25, Type (0, 0), BuildingBlock: XIVTED_clean_linker_0, # of connection points: 2
#     Edge 26, Type (0, 0), BuildingBlock: XIVTED_clean_linker_0, # of connection points: 2
#     Edge 27, Type (0, 0), BuildingBlock: XIVTED_clean_linker_0, # of connection points: 2
#     Edge 28, Type (0, 0), BuildingBlock: XIVTED_clean_linker_0, # of connection points: 2
#     Edge 29, Type (0, 0), BuildingBlock: XIVTED_clean_linker_0, # of connection points: 2
#     Edge 30, Type (0, 0), BuildingBlock: XIVTED_clean_linker_0, # of connection points: 2
#     Edge 31, Type (0, 0), BuildingBlock: XIVTED_clean_linker_0, # of connection points: 2
#     Edge 32, Type (0, 0), BuildingBlock: XIVTED_clean_linker_0, # of connection points: 2
#     Edge 33, Type (0, 0), BuildingBlock: XIVTED_clean_linker_0, # of connection points: 2
#     Edge 34, Type (0, 0), BuildingBlock: XIVTED_clean_linker_0, # of connection points: 2
#     Edge 35, Type (0, 0), BuildingBlock: XIVTED_clean_linker_0, # of connection points: 2
#     Edge 36, Type (0, 0), BuildingBlock: XIVTED_clean_linker_0, # of connection points: 2
#     Edge 37, Type (0, 0), BuildingBlock: XIVTED_clean_linker_0, # of connection points: 2
#     Edge 38, Type (0, 0), BuildingBlock: XIVTED_clean_linker_0, # of connection points: 2
#     Edge 39, Type (0, 0), BuildingBlock: XIVTED_clean_linker_0, # of connection points: 2
# Relax obj value: 0.000
# Max RMSD: 0.008
# Mean RMSD: 0.006
data_MOF--net-lig--node1-WUSLED_clean_sbu_0--edge1-XIVTED_clean_linker_0
_symmetry_space_group_name_H-M    P1
_symmetry_Int_Tables_number       1
_symmetry_cell_setting            triclinic
loop_
_symmetry_equiv_pos_as_xyz
'x, y, z'
_cell_length_a     92.505527
_cell_length_b     93.376328
_cell_length_c     66.306823
_cell_angle_alpha  88.47171
_cell_angle_beta   90.120341
_cell_angle_gamma 91.555525
loop_
_atom_site_label
_atom_site_type_symbol
_atom_site_fract_x
_atom_site_fract_y
_atom_site_fract_z
_atom_type_partial_charge
C0 C 0.09554 1.01028 0.03529 0.0
C1 C 0.08892 0.02342 0.03111 0.0
C2 C 0.06496 1.01166 0.0328 0.0
C3 C 0.07377 0.02409 0.02983 0.0
C4 C 0.07173 0.9985 0.0363 0.0
C5 C 0.0868 0.99784 0.03756 0.0
U6 U 0.13647 0.01854 0.02447 0.0
O7 O 0.15404 0.02201 0.04642 0.0
O8 O 0.15454 1.00362 0.02657 0.0
C9 C 0.16051 1.01013 0.04197 0.0
C10 C 0.11132 1.00923 0.0389 0.0
C11 C 0.16549 1.00082 0.05904 0.0
C12 C 0.16855 0.99563 0.09509 0.0
C13 C 0.1625 1.00381 0.07928 0.0
C14 C 0.18048 0.98116 0.07078 0.0
C15 C 0.17779 0.9843 0.09107 0.0
C16 C 0.17445 0.98933 0.05503 0.0
C17 C 0.14806 0.04398 0.97943 0.0
C18 C 0.17001 0.04536 0.95901 0.0
C19 C 0.15398 0.06541 0.95902 0.0
C20 C 0.14482 0.05786 0.97256 0.0
C21 C 0.16667 0.05926 0.95193 0.0
C22 C 0.16081 0.03781 0.97265 0.0
C23 C 0.13751 0.03606 0.99266 0.0
O24 O 0.11871 1.00226 0.02558 0.0
O25 O 0.11825 0.02071 0.04537 0.0
O26 O 0.13638 0.04049 1.01123 0.0
O27 O 0.13691 0.02202 0.9915 0.0
H28 H 0.09539 0.03321 0.0293 0.0
H29 H 0.06897 0.03442 0.02722 0.0
H30 H 0.06537 0.98866 0.03826 0.0
H31 H 0.09163 0.98759 0.04077 0.0
H32 H 0.16633 0.99849 0.11047 0.0
H33 H 0.15573 1.01265 0.08297 0.0
H34 H 0.1873 0.97238 0.06702 0.0
H35 H 0.17703 0.98681 0.03961 0.0
H36 H 0.17975 0.04034 0.95408 0.0
H37 H 0.15089 0.07596 0.95372 0.0
H38 H 0.13499 0.06281 0.97742 0.0
H39 H 0.1636 0.02711 0.97772 0.0
C40 C 0.26732 0.85329 0.28606 0.0
C41 C 0.25385 0.84705 0.28091 0.0
C42 C 0.26436 0.82327 0.28052 0.0
C43 C 0.25239 0.83221 0.27816 0.0
C44 C 0.27787 0.82966 0.28523 0.0
C45 C 0.2793 0.84445 0.28798 0.0
U46 U 0.26156 0.89419 0.27711 0.0
O47 O 0.25804 0.91069 0.2996 0.0
O48 O 0.2774 0.91205 0.28058 0.0
C49 C 0.2705 0.91736 0.29588 0.0
C50 C 0.26913 0.8687 0.29071 0.0
C51 C 0.27937 0.92194 0.31352 0.0
C52 C 0.28133 0.92791 0.34912 0.0
C53 C 0.27352 0.92188 0.33311 0.0
C54 C 0.30112 0.93399 0.32646 0.0
C55 C 0.29516 0.93426 0.34597 0.0
C56 C 0.29332 0.92797 0.31047 0.0
C57 C 0.2383 0.90752 0.23147 0.0
C58 C 0.23976 0.92794 0.2077 0.0
C59 C 0.21685 0.9154 0.2133 0.0
C60 C 0.22346 0.90611 0.22724 0.0
C61 C 0.22493 0.92633 0.20311 0.0
C62 C 0.24637 0.91866 0.22172 0.0
C63 C 0.24519 0.89653 0.24468 0.0
O64 O 0.27709 0.87664 0.27813 0.0
O65 O 0.25766 0.87526 0.29707 0.0
O66 O 0.23992 0.89465 0.26299 0.0
O67 O 0.25937 0.89585 0.24408 0.0
H68 H 0.24439 0.85358 0.27935 0.0
H69 H 0.2418 0.8277 0.2747 0.0
H70 H 0.2874 0.82324 0.2868 0.0
H71 H 0.28981 0.84899 0.29193 0.0
H72 H 0.27627 0.92805 0.36382 0.0
H73 H 0.26272 0.91756 0.33603 0.0
H74 H 0.3118 0.93856 0.32344 0.0
H75 H 0.2981 0.92838 0.29556 0.0
H76 H 0.24631 0.93634 0.2004 0.0
H77 H 0.20547 0.91367 0.21002 0.0
H78 H 0.21701 0.89755 0.23435 0.0
H79 H 0.25784 0.92006 0.22462 0.0
C80 C 0.35621 1.00414 0.49098 0.0
C81 C 0.3572 0.98912 0.49083 0.0
C82 C 0.3448 0.98826 0.45823 0.0
C83 C 0.35158 0.98129 0.47466 0.0
C84 C 0.34403 1.0033 0.4583 0.0
C85 C 0.3496 1.0111 0.47447 0.0
U86 U 0.38454 0.02169 0.52697 0.0
O87 O 0.38393 0.04262 0.54149 0.0
O88 O 0.38424 0.02287 0.56017 0.0
C89 C 0.3833 0.0369 0.55982 0.0
C90 C 0.36078 1.01255 0.50884 0.0
C91 C 0.373 0.04302 0.57416 0.0
C92 C 0.35082 0.0553 0.58202 0.0
C93 C 0.3598 0.04885 0.56798 0.0
C94 C 0.36803 0.05004 0.60853 0.0
C95 C 0.35483 0.05601 0.60252 0.0
C96 C 0.37696 0.04364 0.59454 0.0
C97 C 0.42577 0.01754 0.51608 0.0
C98 C 0.44849 1.00856 0.52965 0.0
C99 C 0.44883 0.02951 0.50744 0.0
C100 C 0.43372 0.02856 0.5059 0.0
C101 C 0.45648 0.0194 0.51909 0.0
C102 C 0.43337 1.00761 0.52811 0.0
C103 C 0.40997 0.01542 0.51219 0.0
O104 O 0.36689 1.00557 0.52394 0.0
O105 O 0.36685 0.02525 0.50517 0.0
O106 O 0.40272 0.02671 0.50628 0.0
O107 O 0.40262 1.00693 0.52481 0.0
H108 H 0.3621 0.98334 0.50333 0.0
H109 H 0.35254 0.96976 0.47507 0.0
H110 H 0.33871 1.00905 0.44612 0.0
H111 H 0.34843 0.02262 0.47425 0.0
H112 H 0.34068 0.05964 0.57684 0.0
H113 H 0.35648 0.04852 0.55232 0.0
H114 H 0.37168 0.05057 0.62403 0.0
H115 H 0.38714 0.03935 0.59965 0.0
H116 H 0.45395 1.00045 0.53855 0.0
H117 H 0.45454 0.03813 0.4993 0.0
H118 H 0.42829 0.03629 0.49628 0.0
H119 H 0.42769 0.99881 0.53589 0.0
C120 C 0.26954 0.18682 0.76058 0.0
C121 C 0.25699 0.19186 0.76959 0.0
C122 C 0.26651 0.21657 0.76689 0.0
C123 C 0.25548 0.20657 0.77269 0.0
C124 C 0.27914 0.21137 0.75815 0.0
C125 C 0.28061 0.1967 0.75502 0.0
U126 U 0.26221 0.14636 0.77126 0.0
O127 O 0.25818 0.12903 0.74985 0.0
O128 O 0.2771 0.12838 0.7698 0.0
C129 C 0.26995 0.12226 0.75504 0.0
C130 C 0.27125 0.17146 0.75634 0.0
C131 C 0.27866 0.11661 0.7385 0.0
C132 C 0.29429 0.11962 0.70901 0.0
C133 C 0.28605 0.12557 0.72437 0.0
C134 C 0.28774 0.0958 0.72173 0.0
C135 C 0.29533 0.10463 0.70757 0.0
C136 C 0.27955 0.10173 0.73697 0.0
C137 C 0.23729 0.13528 0.81686 0.0
C138 C 0.2355 0.11301 0.83692 0.0
C139 C 0.21715 0.13081 0.83997 0.0
C140 C 0.22436 0.13957 0.82556 0.0
C141 C 0.22271 0.1175 0.84612 0.0
C142 C 0.24274 0.12184 0.82246 0.0
C143 C 0.24512 0.14549 0.80303 0.0
O144 O 0.27862 0.16397 0.76969 0.0
O145 O 0.2597 0.1645 0.74975 0.0
O146 O 0.2403 0.14652 0.7844 0.0
O147 O 0.25932 0.1459 0.80421 0.0
H148 H 0.24829 0.18445 0.77404 0.0
H149 H 0.24554 0.21011 0.77927 0.0
H150 H 0.288 0.21863 0.75383 0.0
H151 H 0.29042 0.19306 0.74812 0.0
H152 H 0.30005 0.12677 0.6985 0.0
H153 H 0.28551 0.13711 0.72528 0.0
H154 H 0.288 0.08424 0.72096 0.0
H155 H 0.27387 0.09461 0.74763 0.0
H156 H 0.24014 0.10288 0.84133 0.0
H157 H 0.20721 0.13452 0.84636 0.0
H158 H 0.21992 0.14987 0.82146 0.0
H159 H 0.25272 0.11828 0.81596 0.0
C160 C 0.85468 1.00459 0.06289 0.0
C161 C 0.86173 0.99239 0.07035 0.0
C162 C 0.84265 0.9879 0.09545 0.0
C163 C 0.85577 0.98414 0.08647 0.0
C164 C 0.83585 1.00032 0.08813 0.0
C165 C 0.84179 1.00852 0.07206 0.0
U166 U 0.88467 0.02133 0.02786 0.0
O167 O 0.88457 0.02398 0.99475 0.0
O168 O 0.8857 0.04294 0.01358 0.0
C169 C 0.88442 0.03805 0.99524 0.0
C170 C 0.86011 1.01314 0.04521 0.0
C171 C 0.87407 0.04547 0.9817 0.0
C172 C 0.85226 0.0459 0.96092 0.0
C173 C 0.86135 0.0387 0.97459 0.0
C174 C 0.86834 0.06675 0.9615 0.0
C175 C 0.85566 0.06003 0.95415 0.0
C176 C 0.87741 0.05956 0.97506 0.0
C177 C 0.9252 0.01487 0.04093 0.0
C178 C 0.94687 0.01567 0.01994 0.0
C179 C 0.94913 0.01579 0.05629 0.0
C180 C 0.93406 0.01535 0.0581 0.0
C181 C 0.95578 0.01574 0.03722 0.0
C182 C 0.93172 0.01521 0.02177 0.0
C183 C 0.90935 0.01324 0.04378 0.0
O184 O 0.86695 0.02528 0.04907 0.0
O185 O 0.86615 1.00609 0.03068 0.0
O186 O 0.90206 1.00573 0.03047 0.0
O187 O 0.90258 0.02466 0.0494 0.0
H188 H 0.87172 0.98913 0.06355 0.0
H189 H 0.86128 0.97461 0.09155 0.0
H190 H 0.82591 1.00376 0.09485 0.0
H191 H 0.83619 0.01791 0.06663 0.0
H192 H 0.84253 0.04042 0.95576 0.0
H193 H 0.85848 0.02783 0.97947 0.0
H194 H 0.87147 0.07751 0.95644 0.0
H195 H 0.8872 0.06497 0.98018 0.0
H196 H 0.95158 0.01554 1.00501 0.0
H197 H 0.95559 0.01613 0.06993 0.0
H198 H 0.9293 0.01514 0.07303 0.0
H199 H 0.92512 0.01486 1.00827 0.0
C200 C 0.75676 0.18531 0.76142 0.0
C201 C 0.75444 0.19125 0.78038 0.0
C202 C 0.75949 0.2154 0.76643 0.0
C203 C 0.75576 0.20613 0.78284 0.0
C204 C 0.76196 0.20935 0.74756 0.0
C205 C 0.76058 0.19453 0.74511 0.0
U206 U 0.76232 0.14487 0.77351 0.0
O207 O 0.74686 0.12664 0.77113 0.0
O208 O 0.76638 0.12756 0.75238 0.0
C209 C 0.75408 0.12077 0.75657 0.0
C210 C 0.75462 0.16975 0.75786 0.0
C211 C 0.74556 0.11561 0.73914 0.0
C212 C 0.72567 0.11758 0.71512 0.0
C213 C 0.73392 0.12322 0.73101 0.0
C214 C 0.74073 0.0968 0.71505 0.0
C215 C 0.72891 0.10424 0.70697 0.0
C216 C 0.74892 0.10242 0.73092 0.0
C217 C 0.78621 0.13443 0.82005 0.0
C218 C 0.78766 0.11188 0.83932 0.0
C219 C 0.80575 0.1307 0.84412 0.0
C220 C 0.79885 0.13931 0.82968 0.0
C221 C 0.80017 0.11693 0.84938 0.0
C222 C 0.78072 0.12057 0.82481 0.0
C223 C 0.77881 0.1444 0.80595 0.0
O224 O 0.76604 0.16296 0.75187 0.0
O225 O 0.7467 0.16222 0.77098 0.0
O226 O 0.76461 0.14438 0.80659 0.0
O227 O 0.78398 0.14556 0.78752 0.0
H228 H 0.75151 0.18444 0.79329 0.0
H229 H 0.75395 0.21036 0.79764 0.0
H230 H 0.76465 0.21611 0.73451 0.0
H231 H 0.76231 0.19025 0.7303 0.0
H232 H 0.71678 0.12372 0.70915 0.0
H233 H 0.73114 0.13345 0.73705 0.0
H234 H 0.74347 0.08643 0.70946 0.0
H235 H 0.75781 0.09632 0.737 0.0
H236 H 0.78301 0.10137 0.84303 0.0
H237 H 0.81549 0.13486 0.85118 0.0
H238 H 0.80331 0.14994 0.82621 0.0
H239 H 0.77097 0.11656 0.81758 0.0
C240 C 0.59638 0.0154 0.51371 0.0
C241 C 0.58803 1.00536 0.52521 0.0
C242 C 0.56586 0.01793 0.51687 0.0
C243 C 0.573 1.00664 0.52685 0.0
C244 C 0.57426 0.02812 0.50569 0.0
C245 C 0.58928 0.02684 0.50408 0.0
U246 U 0.63765 0.02013 0.52484 0.0
O247 O 0.65488 1.00444 0.52218 0.0
O248 O 0.65556 0.02412 0.50333 0.0
C249 C 0.66142 1.0117 0.5074 0.0
C250 C 0.61205 1.01311 0.50999 0.0
C251 C 0.66633 1.00358 0.48984 0.0
C252 C 0.66588 0.98248 0.46881 0.0
C253 C 0.66027 0.99014 0.48488 0.0
C254 C 0.68353 1.00162 0.46232 0.0
C255 C 0.67762 0.98812 0.45732 0.0
C256 C 0.67797 1.00921 0.47834 0.0
C257 C 0.64983 0.04336 0.57039 0.0
C258 C 0.67148 0.04335 0.59149 0.0
C259 C 0.6559 0.06375 0.59129 0.0
C260 C 0.64681 0.05703 0.57731 0.0
C261 C 0.66827 0.05695 0.59882 0.0
C262 C 0.66234 0.03661 0.57744 0.0
C263 C 0.63923 0.03625 0.55684 0.0
O264 O 0.61988 0.02426 0.50351 0.0
O265 O 0.61897 1.00501 0.52313 0.0
O266 O 0.63819 0.02217 0.55786 0.0
O267 O 0.63839 0.0415 0.5383 0.0
H268 H 0.59305 0.99625 0.53254 0.0
H269 H 0.56692 0.99847 0.53536 0.0
H270 H 0.56922 0.03707 0.49801 0.0
H271 H 0.59528 0.0347 0.49488 0.0
H272 H 0.66094 0.9722 0.46531 0.0
H273 H 0.65128 0.98551 0.49348 0.0
H274 H 0.69272 1.00624 0.45413 0.0
H275 H 0.68294 0.01947 0.48196 0.0
H276 H 0.68083 0.03773 0.59701 0.0
H277 H 0.65319 0.07431 0.59622 0.0
H278 H 0.63724 0.06246 0.5721 0.0
H279 H 0.66493 0.02606 0.57238 0.0
C280 C 0.7537 0.85343 0.29206 0.0
C281 C 0.76648 0.8483 0.28378 0.0
C282 C 0.75665 0.82368 0.28567 0.0
C283 C 0.76794 0.83359 0.28064 0.0
C284 C 0.7438 0.82897 0.29363 0.0
C285 C 0.74237 0.84363 0.2968 0.0
U286 U 0.76028 0.89412 0.28175 0.0
O287 O 0.74523 0.91181 0.28484 0.0
O288 O 0.76493 0.91128 0.3033 0.0
C289 C 0.75283 0.91783 0.29927 0.0
C290 C 0.75204 0.86876 0.2966 0.0
C291 C 0.74476 0.92321 0.31668 0.0
C292 C 0.72453 0.92218 0.34032 0.0
C293 C 0.73242 0.91605 0.32476 0.0
C294 C 0.74136 0.94248 0.3401 0.0
C295 C 0.72879 0.93561 0.34798 0.0
C296 C 0.74921 0.93636 0.32468 0.0
C297 C 0.7836 0.90661 0.23537 0.0
C298 C 0.78394 0.92918 0.21598 0.0
C299 C 0.8036 0.91285 0.21266 0.0
C300 C 0.79688 0.90337 0.22666 0.0
C301 C 0.79718 0.92584 0.20695 0.0
C302 C 0.77723 0.91968 0.23007 0.0
C303 C 0.7764 0.8958 0.24901 0.0
O304 O 0.76372 0.87579 0.3026 0.0
O305 O 0.74416 0.87627 0.28387 0.0
O306 O 0.76218 0.89511 0.24865 0.0
O307 O 0.78178 0.89443 0.2673 0.0
H308 H 0.7754 0.85562 0.27998 0.0
H309 H 0.77806 0.82997 0.27467 0.0
H310 H 0.73476 0.82177 0.29734 0.0
H311 H 0.73239 0.84733 0.30313 0.0
H312 H 0.71489 0.9166 0.34593 0.0
H313 H 0.72875 0.90589 0.31883 0.0
H314 H 0.74516 0.95266 0.34584 0.0
H315 H 0.7587 0.94206 0.31873 0.0
H316 H 0.77876 0.93916 0.21219 0.0
H317 H 0.81366 0.90978 0.20588 0.0
H318 H 0.80196 0.89332 0.23041 0.0
H319 H 0.767 0.92248 0.23663 0.0
C320 C 0.59563 0.51306 0.53591 0.0
C321 C 0.58918 0.52652 0.53424 0.0
C322 C 0.56523 0.51507 0.5307 0.0
C323 C 0.57416 0.5275 0.53168 0.0
C324 C 0.5718 0.50164 0.532 0.0
C325 C 0.58677 0.50067 0.53462 0.0
U326 U 0.63692 0.51907 0.52604 0.0
O327 O 0.6544 0.52334 0.54801 0.0
O328 O 0.65442 0.50377 0.53041 0.0
C329 C 0.66055 0.51106 0.54498 0.0
C330 C 0.61126 0.51155 0.54059 0.0
C331 C 0.66536 0.50284 0.56318 0.0
C332 C 0.66667 0.48069 0.58344 0.0
C333 C 0.66068 0.4886 0.56732 0.0
C334 C 0.6818 0.5012 0.5919 0.0
C335 C 0.6775 0.48681 0.59577 0.0
C336 C 0.67584 0.50907 0.5758 0.0
C337 C 0.65003 0.54113 0.47832 0.0
C338 C 0.66783 0.56006 0.46946 0.0
C339 C 0.66001 0.54325 0.44429 0.0
C340 C 0.65091 0.53626 0.4585 0.0
C341 C 0.66844 0.5554 0.44945 0.0
C342 C 0.65872 0.55305 0.4837 0.0
C343 C 0.639 0.53454 0.4923 0.0
O344 O 0.61863 0.50345 0.52862 0.0
O345 O 0.61857 0.52309 0.54603 0.0
O346 O 0.63772 0.54011 0.5102 0.0
O347 O 0.63777 0.52047 0.4928 0.0
H348 H 0.59568 0.53631 0.5352 0.0
H349 H 0.56954 0.53803 0.53049 0.0
H350 H 0.56531 0.49182 0.53162 0.0
H351 H 0.59141 0.49016 0.53611 0.0
H352 H 0.66314 0.46962 0.58582 0.0
H353 H 0.65265 0.48346 0.55783 0.0
H354 H 0.68988 0.5064 0.60123 0.0
H355 H 0.67967 0.52001 0.57294 0.0
H356 H 0.67401 0.56945 0.47399 0.0
H357 H 0.66034 0.53917 0.42917 0.0
H358 H 0.64428 0.5272 0.45382 0.0
H359 H 0.65823 0.55721 0.49876 0.0
C360 C 0.76833 0.35305 0.78674 0.0
C361 C 0.75468 0.34655 0.78332 0.0
C362 C 0.76557 0.32307 0.78073 0.0
C363 C 0.75331 0.33173 0.78039 0.0
C364 C 0.77922 0.32969 0.78383 0.0
C365 C 0.78056 0.34446 0.78683 0.0
U366 U 0.76282 0.39398 0.77778 0.0
O367 O 0.75926 0.41058 0.80008 0.0
O368 O 0.7788 0.41174 0.78136 0.0
C369 C 0.77177 0.41717 0.79644 0.0
C370 C 0.77016 0.36845 0.79152 0.0
C371 C 0.78053 0.4218 0.81409 0.0
C372 C 0.78398 0.42406 0.8504 0.0
C373 C 0.77648 0.41813 0.83405 0.0
C374 C 0.79997 0.43712 0.82724 0.0
C375 C 0.79571 0.4338 0.84723 0.0
C376 C 0.79245 0.43123 0.81092 0.0
C377 C 0.7402 0.40759 0.73163 0.0
C378 C 0.71973 0.42237 0.72216 0.0
C379 C 0.74003 0.42099 0.69948 0.0
C380 C 0.74685 0.41172 0.71323 0.0
C381 C 0.72629 0.42633 0.70362 0.0
C382 C 0.72656 0.4131 0.73595 0.0
C383 C 0.74679 0.39644 0.74502 0.0
O384 O 0.77828 0.37638 0.77912 0.0
O385 O 0.75869 0.37508 0.79773 0.0
O386 O 0.74138 0.3945 0.76325 0.0
O387 O 0.76096 0.39561 0.74466 0.0
H388 H 0.74503 0.35287 0.78315 0.0
H389 H 0.74265 0.32706 0.7778 0.0
H390 H 0.78888 0.3234 0.78449 0.0
H391 H 0.79119 0.34916 0.78962 0.0
H392 H 0.7805 0.42108 0.86556 0.0
H393 H 0.76733 0.41092 0.83709 0.0
H394 H 0.8088 0.4447 0.82412 0.0
H395 H 0.79571 0.43441 0.79573 0.0
H396 H 0.70924 0.42637 0.72602 0.0
H397 H 0.74536 0.42359 0.68527 0.0
H398 H 0.7572 0.40747 0.70919 0.0
H399 H 0.721 0.41004 0.74982 0.0
C400 C 0.85631 0.50569 0.99045 0.0
C401 C 0.86384 0.49407 0.98307 0.0
C402 C 0.84437 0.48905 0.95897 0.0
C403 C 0.85794 0.48584 0.96745 0.0
C404 C 0.83707 0.5009 0.96623 0.0
C405 C 0.84296 0.50909 0.98176 0.0
U406 U 0.88601 0.52179 0.02562 0.0
O407 O 0.88695 0.54325 0.03889 0.0
O408 O 0.88534 0.52401 0.05857 0.0
C409 C 0.88528 0.5381 0.05741 0.0
C410 C 0.86167 0.51415 1.00765 0.0
C411 C 0.87474 0.54534 0.07029 0.0
C412 C 0.85317 0.54506 0.09146 0.0
C413 C 0.86223 0.53824 0.07795 0.0
C414 C 0.86872 0.56629 0.08948 0.0
C415 C 0.85636 0.55914 0.09758 0.0
C416 C 0.87778 0.55946 0.07606 0.0
C417 C 0.9267 0.51392 0.01567 0.0
C418 C 0.94957 0.5274 0.0189 0.0
C419 C 0.94957 0.50156 0.01709 0.0
C420 C 0.93447 0.50122 0.01576 0.0
C421 C 0.95739 0.51466 0.01828 0.0
C422 C 0.93439 0.52704 0.01755 0.0
C423 C 0.91088 0.5131 1.01178 0.0
O424 O 0.86725 0.50694 0.02295 0.0
O425 O 0.86892 0.5261 1.00316 0.0
O426 O 0.90465 0.52484 1.00521 0.0
O427 O 0.90293 0.50558 0.02484 0.0
H428 H 0.87417 0.49123 0.98954 0.0
H429 H 0.86385 0.47676 0.96237 0.0
H430 H 0.82676 0.50391 0.95986 0.0
H431 H 0.83698 0.51803 0.98716 0.0
H432 H 0.84366 0.53927 0.09713 0.0
H433 H 0.85956 0.52735 0.07374 0.0
H434 H 0.87167 0.57704 0.09398 0.0
H435 H 0.8874 0.56514 0.0705 0.0
H436 H 0.95519 0.53769 0.01969 0.0
H437 H 0.95515 0.49152 0.01696 0.0
H438 H 0.92884 0.49097 0.01428 0.0
H439 H 0.92873 0.53704 0.01747 0.0
C440 C 0.77068 0.68727 0.26251 0.0
C441 C 0.75764 0.69221 0.27023 0.0
C442 C 0.76713 0.71696 0.26866 0.0
C443 C 0.75588 0.7069 0.27328 0.0
C444 C 0.78023 0.71186 0.26127 0.0
C445 C 0.78196 0.69722 0.25822 0.0
U446 U 0.76446 0.64631 0.27175 0.0
O447 O 0.76155 0.62937 0.2495 0.0
O448 O 0.78021 0.62904 0.26997 0.0
C449 C 0.7737 0.62317 0.25448 0.0
C450 C 0.77272 0.67198 0.25807 0.0
C451 C 0.78309 0.61845 0.23786 0.0
C452 C 0.78903 0.61688 0.20211 0.0
C453 C 0.78098 0.62283 0.21762 0.0
C454 C 0.80166 0.60235 0.22682 0.0
C455 C 0.79933 0.60637 0.20648 0.0
C456 C 0.79363 0.60829 0.24225 0.0
C457 C 0.73955 0.63254 0.31604 0.0
C458 C 0.73987 0.61369 0.34229 0.0
C459 C 0.71704 0.62285 0.33066 0.0
C460 C 0.72438 0.63224 0.31713 0.0
C461 C 0.72467 0.61355 0.34361 0.0
C462 C 0.74723 0.62306 0.32868 0.0
C463 C 0.74701 0.64369 0.30307 0.0
O464 O 0.78018 0.66453 0.27136 0.0
O465 O 0.76144 0.66482 0.25105 0.0
O466 O 0.74238 0.64515 0.28438 0.0
O467 O 0.76116 0.645 0.30463 0.0
H468 H 0.74876 0.68475 0.27367 0.0
H469 H 0.7456 0.71039 0.27883 0.0
H470 H 0.78924 0.71917 0.2579 0.0
H471 H 0.79213 0.69366 0.25232 0.0
H472 H 0.78685 0.62019 0.18666 0.0
H473 H 0.77288 0.63059 0.21368 0.0
H474 H 0.80965 0.59452 0.23087 0.0
H475 H 0.79546 0.60466 0.25769 0.0
H476 H 0.74612 0.60657 0.35183 0.0
H477 H 0.70536 0.62324 0.33139 0.0
H478 H 0.71817 0.63955 0.30782 0.0
H479 H 0.75893 0.62303 0.32834 0.0
C480 C 0.35583 0.50305 0.56224 0.0
C481 C 0.36041 0.48899 0.56609 0.0
C482 C 0.34425 0.48642 0.59521 0.0
C483 C 0.35468 0.48078 0.58237 0.0
C484 C 0.33999 0.50061 0.59157 0.0
C485 C 0.34568 0.50879 0.57528 0.0
U486 U 0.38437 0.51995 0.52495 0.0
O487 O 0.38339 0.52156 0.4917 0.0
O488 O 0.38443 0.54108 0.5094 0.0
C489 C 0.38294 0.53562 0.49141 0.0
C490 C 0.36055 0.51157 0.54407 0.0
C491 C 0.37221 0.54223 0.47761 0.0
C492 C 0.35076 0.5563 0.4712 0.0
C493 C 0.36004 0.54922 0.48474 0.0
C494 C 0.36547 0.5492 0.44325 0.0
C495 C 0.35342 0.55649 0.45025 0.0
C496 C 0.37473 0.54219 0.45676 0.0
C497 C 0.42544 0.51397 0.53472 0.0
C498 C 0.4477 0.52844 0.53077 0.0
C499 C 0.44871 0.50258 0.53135 0.0
C500 C 0.43366 0.50159 0.53368 0.0
C501 C 0.45598 0.51601 0.5301 0.0
C502 C 0.43261 0.52744 0.53304 0.0
C503 C 0.40973 0.51243 0.53927 0.0
O504 O 0.36728 0.5239 0.54719 0.0
O505 O 0.36615 0.50453 0.52918 0.0
O506 O 0.40191 0.5044 0.52718 0.0
O507 O 0.40305 0.52393 0.54486 0.0
H508 H 0.36825 0.48425 0.55636 0.0
H509 H 0.35838 0.46997 0.58484 0.0
H510 H 0.33188 0.50529 0.60093 0.0
H511 H 0.34187 0.51954 0.57257 0.0
H512 H 0.3415 0.56162 0.47716 0.0
H513 H 0.3578 0.5494 0.50075 0.0
H514 H 0.36803 0.54925 0.42732 0.0
H515 H 0.38409 0.53695 0.4509 0.0
H516 H 0.45287 0.53897 0.5296 0.0
H517 H 0.45467 0.49277 0.53119 0.0
H518 H 0.42847 0.49107 0.53517 0.0
H519 H 0.42662 0.53721 0.53382 0.0
C520 C 0.25302 0.68536 0.26312 0.0
C521 C 0.26628 0.69171 0.26896 0.0
C522 C 0.25566 0.71546 0.26813 0.0
C523 C 0.26759 0.70658 0.27142 0.0
C524 C 0.24236 0.70896 0.26264 0.0
C525 C 0.24108 0.69412 0.26014 0.0
U526 U 0.26003 0.64518 0.27464 0.0
O527 O 0.24494 0.62658 0.27293 0.0
O528 O 0.26411 0.62792 0.2535 0.0
C529 C 0.25216 0.62072 0.25838 0.0
C530 C 0.25143 0.66981 0.25921 0.0
C531 C 0.24352 0.61482 0.24158 0.0
C532 C 0.22775 0.61742 0.21224 0.0
C533 C 0.23603 0.62357 0.22777 0.0
C534 C 0.23447 0.59379 0.22415 0.0
C535 C 0.22677 0.6024 0.21033 0.0
C536 C 0.24271 0.59993 0.23954 0.0
C537 C 0.28399 0.63511 0.321 0.0
C538 C 0.28772 0.61125 0.33561 0.0
C539 C 0.30099 0.63169 0.34867 0.0
C540 C 0.29416 0.64068 0.3346 0.0
C541 C 0.2978 0.61686 0.34953 0.0
C542 C 0.28085 0.62031 0.3215 0.0
C543 C 0.27665 0.64514 0.30698 0.0
O544 O 0.26302 0.66335 0.25307 0.0
O545 O 0.24379 0.66207 0.2724 0.0
O546 O 0.26244 0.64498 0.30769 0.0
O547 O 0.28173 0.64623 0.2885 0.0
H548 H 0.27569 0.68521 0.27136 0.0
H549 H 0.27805 0.71115 0.27545 0.0
H550 H 0.23286 0.71532 0.26034 0.0
H551 H 0.23073 0.68949 0.25568 0.0
H552 H 0.22191 0.62439 0.202 0.0
H553 H 0.23651 0.63512 0.22908 0.0
H554 H 0.23424 0.58224 0.22299 0.0
H555 H 0.24846 0.59298 0.24996 0.0
H556 H 0.28491 0.59992 0.33588 0.0
H557 H 0.30887 0.63639 0.35881 0.0
H558 H 0.29679 0.65206 0.33444 0.0
H559 H 0.273 0.61579 0.31113 0.0
C560 C 0.09734 0.51455 1.0107 0.0
C561 C 0.09081 0.51611 0.02961 0.0
C562 C 0.06683 0.51622 0.01387 0.0
C563 C 0.0757 0.51697 0.03117 0.0
C564 C 0.07354 0.51506 0.99497 0.0
C565 C 0.08858 0.51422 0.99343 0.0
U566 U 0.13796 0.51912 0.02564 0.0
O567 O 0.1549 0.503 0.02472 0.0
O568 O 0.1568 0.52244 1.00556 0.0
C569 C 0.16227 0.50998 1.01047 0.0
C570 C 0.11307 0.51245 1.00843 0.0
C571 C 0.16742 0.50138 0.99363 0.0
C572 C 0.16322 0.48653 0.96438 0.0
C573 C 0.15786 0.49467 0.98013 0.0
C574 C 0.18769 0.49175 0.97549 0.0
C575 C 0.17823 0.48491 0.96188 0.0
C576 C 0.18234 0.49986 0.99114 0.0
C577 C 0.14883 0.54108 0.07287 0.0
C578 C 0.17139 0.55363 0.08155 0.0
C579 C 0.15351 0.54821 0.10741 0.0
C580 C 0.14455 0.54169 0.0931 0.0
C581 C 0.16705 0.55434 0.10188 0.0
C582 C 0.16239 0.54704 0.0672 0.0
C583 C 0.13856 0.53481 0.0581 0.0
O584 O 0.12102 0.52379 1.00307 0.0
O585 O 0.11929 0.50427 0.02217 0.0
O586 O 0.13683 0.52079 0.05875 0.0
O587 O 0.13887 0.54026 0.03961 0.0
H588 H 0.09734 0.51639 0.04317 0.0
H589 H 0.07094 0.51779 0.04599 0.0
H590 H 0.06716 0.51474 0.98127 0.0
H591 H 0.09337 0.51306 0.97868 0.0
H592 H 0.15558 0.48134 0.95436 0.0
H593 H 0.14629 0.49569 0.9818 0.0
H594 H 0.19929 0.49103 0.9739 0.0
H595 H 0.18991 0.505 1.00133 0.0
H596 H 0.18179 0.55807 0.07674 0.0
H597 H 0.14965 0.54872 0.12277 0.0
H598 H 0.1341 0.53728 0.09782 0.0
H599 H 0.16597 0.54671 0.05169 0.0
C600 C 0.25415 0.353 0.79231 0.0
C601 C 0.2544 0.34777 0.77263 0.0
C602 C 0.25749 0.3233 0.78585 0.0
C603 C 0.25604 0.33309 0.76944 0.0
C604 C 0.25751 0.3287 0.80549 0.0
C605 C 0.25584 0.34334 0.80865 0.0
U606 U 0.25785 0.39388 0.78059 0.0
O607 O 0.24142 0.41047 0.78303 0.0
O608 O 0.26108 0.41159 0.80155 0.0
C609 C 0.24849 0.41717 0.79736 0.0
C610 C 0.25154 0.36827 0.79634 0.0
C611 C 0.23982 0.42197 0.81458 0.0
C612 C 0.23191 0.42013 0.84965 0.0
C613 C 0.23947 0.4146 0.83334 0.0
C614 C 0.22476 0.44027 0.82857 0.0
C615 C 0.22453 0.43312 0.84754 0.0
C616 C 0.2323 0.43476 0.81235 0.0
C617 C 0.27971 0.40713 0.73291 0.0
C618 C 0.29726 0.42625 0.7239 0.0
C619 C 0.28244 0.41556 0.69794 0.0
C620 C 0.27569 0.40654 0.7125 0.0
C621 C 0.29349 0.4254 0.70336 0.0
C622 C 0.29048 0.41721 0.7385 0.0
C623 C 0.27352 0.39622 0.74747 0.0
O624 O 0.26282 0.37608 0.80189 0.0
O625 O 0.24305 0.37509 0.78362 0.0
O626 O 0.25939 0.39431 0.74737 0.0
O627 O 0.27912 0.3956 0.76572 0.0
H628 H 0.25313 0.35499 0.75972 0.0
H629 H 0.25583 0.32939 0.75411 0.0
H630 H 0.25888 0.32162 0.81851 0.0
H631 H 0.25572 0.34711 0.82396 0.0
H632 H 0.23185 0.41421 0.86392 0.0
H633 H 0.24517 0.40469 0.83545 0.0
H634 H 0.21945 0.45038 0.82634 0.0
H635 H 0.23249 0.44069 0.79807 0.0
H636 H 0.30579 0.43358 0.72866 0.0
H637 H 0.27903 0.41474 0.68237 0.0
H638 H 0.26751 0.39884 0.70769 0.0
H639 H 0.29395 0.41789 0.75406 0.0
H640 H 0.18103 0.04895 0.91907 0.0
H641 H 0.21031 0.12669 0.88086 0.0
H642 H 0.17397 0.08803 0.95048 0.0
H643 H 0.21832 0.08808 0.84883 0.0
H644 H 0.19752 0.11241 0.90681 0.0
H645 H 0.19545 0.06268 0.89391 0.0
C646 C 0.1826 0.06038 0.92082 0.0
C647 C 0.17615 0.06731 0.93696 0.0
C648 C 0.20207 0.10701 0.89414 0.0
C649 C 0.19257 0.08316 0.90796 0.0
C650 C 0.20932 0.1152 0.87919 0.0
C651 C 0.21532 0.10864 0.86242 0.0
C652 C 0.20072 0.09207 0.89248 0.0
C653 C 0.21395 0.09363 0.86148 0.0
C654 C 0.19078 0.06824 0.90635 0.0
C655 C 0.17847 0.08221 0.93818 0.0
N656 N 0.20675 0.08587 0.87622 0.0
N657 N 0.18642 0.08959 0.92391 0.0
H658 H 0.19771 0.93772 0.20309 0.0
H659 H 0.20546 0.9742 0.09249 0.0
H660 H 0.23624 0.93611 0.16672 0.0
H661 H 0.16657 0.97559 0.12815 0.0
H662 H 0.21692 0.96055 0.11974 0.0
H663 H 0.18627 0.95193 0.17626 0.0
C664 C 0.20378 0.94032 0.18948 0.0
C665 C 0.21801 0.93563 0.18726 0.0
C666 C 0.20588 0.96383 0.12164 0.0
C667 C 0.20491 0.95205 0.15637 0.0
C668 C 0.19926 0.97157 0.10598 0.0
C669 C 0.18493 0.97604 0.10784 0.0
C670 C 0.19819 0.96047 0.13948 0.0
C671 C 0.17765 0.97252 0.126 0.0
C672 C 0.19724 0.9485 0.17417 0.0
C673 C 0.22535 0.93958 0.16932 0.0
N674 N 0.18433 0.96494 0.14103 0.0
N675 N 0.21872 0.94749 0.15461 0.0
H676 H 0.29662 0.92626 0.38633 0.0
H677 H 0.34484 0.99506 0.41753 0.0
H678 H 0.31171 0.95923 0.34399 0.0
H679 H 0.32967 0.96239 0.46025 0.0
H680 H 0.33321 0.98177 0.39039 0.0
H681 H 0.30899 0.93899 0.41346 0.0
C682 C 0.30249 0.93618 0.38269 0.0
C683 C 0.30306 0.94162 0.3627 0.0
C684 C 0.33245 0.97747 0.40569 0.0
C685 C 0.31742 0.95627 0.39387 0.0
C686 C 0.33904 0.98511 0.42126 0.0
C687 C 0.33824 0.97992 0.44134 0.0
C688 C 0.32491 0.96449 0.41009 0.0
C689 C 0.33075 0.96679 0.44505 0.0
C690 C 0.30964 0.94342 0.39822 0.0
C691 C 0.31108 0.95445 0.35902 0.0
N692 N 0.32436 0.95959 0.42964 0.0
N693 N 0.31787 0.96131 0.37439 0.0
H694 H 0.29887 0.11314 0.66753 0.0
H695 H 0.3495 0.04749 0.64188 0.0
H696 H 0.3124 0.08104 0.71111 0.0
H697 H 0.33879 0.08049 0.59797 0.0
H698 H 0.33539 0.05955 0.66701 0.0
H699 H 0.31304 0.10149 0.64168 0.0
C700 C 0.30487 0.10372 0.67174 0.0
C701 C 0.3043 0.09806 0.69162 0.0
C702 C 0.33609 0.06419 0.65189 0.0
C703 C 0.32046 0.08455 0.66193 0.0
C704 C 0.34424 0.05732 0.63748 0.0
C705 C 0.3455 0.06299 0.61769 0.0
C706 C 0.32904 0.0769 0.64664 0.0
C707 C 0.33808 0.07561 0.61294 0.0
C708 C 0.31289 0.09701 0.65691 0.0
C709 C 0.31222 0.0857 0.696 0.0
N710 N 0.33022 0.08215 0.62729 0.0
N711 N 0.3199 0.0794 0.68134 0.0
H712 H 0.82614 0.93256 0.20141 0.0
H713 H 0.81379 0.98135 0.10171 0.0
H714 H 0.78409 0.94134 0.17641 0.0
H715 H 0.85593 0.97369 0.12723 0.0
H716 H 0.80282 0.96691 0.12911 0.0
H717 H 0.83725 0.94759 0.1746 0.0
C718 C 0.81922 0.93761 0.19028 0.0
C719 C 0.8041 0.93559 0.19124 0.0
C720 C 0.81447 0.96839 0.12877 0.0
C721 C 0.81685 0.95298 0.16041 0.0
C722 C 0.82078 0.97673 0.11314 0.0
C723 C 0.83587 0.97887 0.11209 0.0
C724 C 0.82326 0.96203 0.1436 0.0
C725 C 0.84429 0.97227 0.12721 0.0
C726 C 0.82559 0.94627 0.175 0.0
C727 C 0.79575 0.94267 0.17651 0.0
N728 N 0.83788 0.96419 0.1423 0.0
N729 N 0.80222 0.95097 0.16173 0.0
H730 H 0.84146 0.04944 0.92078 0.0
H731 H 0.8117 0.12602 0.88514 0.0
H732 H 0.84828 0.08836 0.95354 0.0
H733 H 0.80486 0.08777 0.85089 0.0
H734 H 0.8243 0.11199 0.91085 0.0
H735 H 0.82707 0.06275 0.89589 0.0
C736 C 0.83985 0.06074 0.92288 0.0
C737 C 0.84622 0.06776 0.93931 0.0
C738 C 0.82004 0.10661 0.89775 0.0
C739 C 0.82981 0.08314 0.91066 0.0
C740 C 0.8129 0.11467 0.88294 0.0
C741 C 0.8073 0.10815 0.8656 0.0
C742 C 0.8217 0.09184 0.89538 0.0
C743 C 0.80892 0.09328 0.86398 0.0
C744 C 0.83169 0.06836 0.90856 0.0
C745 C 0.84383 0.08249 0.941 0.0
N746 N 0.81602 0.08566 0.8786 0.0
N747 N 0.83589 0.08965 0.92689 0.0
H748 H 0.69803 0.05723 0.60266 0.0
H749 H 0.69934 0.10476 0.70197 0.0
H750 H 0.65972 0.07268 0.63102 0.0
H751 H 0.73779 0.08905 0.6743 0.0
H752 H 0.68477 0.09358 0.6756 0.0
H753 H 0.7128 0.06889 0.62851 0.0
C754 C 0.69269 0.063 0.61434 0.0
C755 C 0.67754 0.06396 0.61451 0.0
C756 C 0.6964 0.09259 0.67526 0.0
C757 C 0.69449 0.07751 0.64419 0.0
C758 C 0.70477 0.09908 0.69028 0.0
C759 C 0.71988 0.09788 0.69049 0.0
C760 C 0.70313 0.0848 0.66021 0.0
C761 C 0.72619 0.09013 0.67501 0.0
C762 C 0.70116 0.06975 0.62906 0.0
C763 C 0.67133 0.0718 0.62997 0.0
N764 N 0.71781 0.0839 0.66057 0.0
N765 N 0.67979 0.07823 0.64411 0.0
H766 H 0.71524 0.92344 0.3817 0.0
H767 H 0.68755 0.99869 0.42066 0.0
H768 H 0.72236 0.96404 0.35021 0.0
H769 H 0.68208 0.95903 0.45505 0.0
H770 H 0.69915 0.98571 0.39398 0.0
H771 H 0.70182 0.93573 0.40774 0.0
C772 C 0.71392 0.93491 0.38016 0.0
C773 C 0.7201 0.9427 0.36374 0.0
C774 C 0.69539 0.9798 0.40732 0.0
C775 C 0.70476 0.95687 0.39362 0.0
C776 C 0.68881 0.98724 0.42267 0.0
C777 C 0.6839 0.98002 0.44034 0.0
C778 C 0.69716 0.96493 0.40947 0.0
C779 C 0.68558 0.96508 0.44171 0.0
C780 C 0.70631 0.94193 0.39511 0.0
C781 C 0.71808 0.95758 0.36272 0.0
N782 N 0.69212 0.95806 0.42657 0.0
N783 N 0.71064 0.96413 0.37739 0.0
H784 H 0.69888 0.59856 0.33904 0.0
H785 H 0.69544 0.5684 0.45357 0.0
H786 H 0.73234 0.60698 0.38293 0.0
H787 H 0.66182 0.56095 0.40956 0.0
H788 H 0.70942 0.58202 0.42788 0.0
H789 H 0.68557 0.58416 0.36449 0.0
C790 C 0.70344 0.59742 0.35403 0.0
C791 C 0.71678 0.6041 0.35877 0.0
C792 C 0.699 0.57736 0.42383 0.0
C793 C 0.70154 0.58743 0.38814 0.0
C794 C 0.69095 0.56963 0.43855 0.0
C795 C 0.67737 0.56344 0.43384 0.0
C796 C 0.69346 0.579 0.40417 0.0
C797 C 0.67229 0.56529 0.41394 0.0
C798 C 0.69584 0.58912 0.36857 0.0
C799 C 0.7222 0.60195 0.37844 0.0
N800 N 0.68029 0.57289 0.39993 0.0
N801 N 0.71455 0.59388 0.39237 0.0
H802 H 0.70617 0.48733 0.60689 0.0
H803 H 0.69733 0.42615 0.69366 0.0
H804 H 0.66531 0.46636 0.62197 0.0
H805 H 0.73789 0.44771 0.67861 0.0
H806 H 0.68531 0.441 0.66809 0.0
H807 H 0.71777 0.47317 0.63346 0.0
C808 C 0.69957 0.47984 0.61588 0.0
C809 C 0.68466 0.47815 0.61212 0.0
C810 C 0.69684 0.4425 0.6704 0.0
C811 C 0.69805 0.46162 0.64263 0.0
C812 C 0.70372 0.43408 0.68514 0.0
C813 C 0.71871 0.43562 0.68841 0.0
C814 C 0.70494 0.45261 0.65875 0.0
C815 C 0.72638 0.44595 0.67653 0.0
C816 C 0.70626 0.47166 0.63101 0.0
C817 C 0.67683 0.46798 0.6241 0.0
N818 N 0.71943 0.45401 0.66229 0.0
N819 N 0.6836 0.46014 0.63877 0.0
H820 H 0.85757 0.47669 0.92663 0.0
H821 H 0.78345 0.4438 0.88172 0.0
H822 H 0.81581 0.48077 0.95448 0.0
H823 H 0.82476 0.44044 0.85234 0.0
H824 H 0.79541 0.45639 0.90921 0.0
H825 H 0.84609 0.46253 0.90011 0.0
C826 C 0.84601 0.47455 0.92728 0.0
C827 C 0.83768 0.48006 0.94285 0.0
C828 C 0.80189 0.45287 0.89679 0.0
C829 C 0.8244 0.46388 0.91232 0.0
C830 C 0.79507 0.44555 0.88111 0.0
C831 C 0.80306 0.44099 0.86457 0.0
C832 C 0.81689 0.45569 0.8961 0.0
C833 C 0.81808 0.44388 0.86458 0.0
C834 C 0.83944 0.46652 0.91204 0.0
C835 C 0.82269 0.47701 0.94266 0.0
N836 N 0.82448 0.45103 0.88004 0.0
N837 N 0.81658 0.46918 0.9277 0.0
H838 H 0.84836 0.58738 0.09853 0.0
H839 H 0.80635 0.57804 0.20409 0.0
H840 H 0.84344 0.54713 0.13164 0.0
H841 H 0.81047 0.61837 0.17102 0.0
H842 H 0.8197 0.56661 0.17749 0.0
H843 H 0.8343 0.59888 0.12449 0.0
C844 C 0.84436 0.58093 0.11125 0.0
C845 C 0.84718 0.56621 0.11282 0.0
C846 C 0.81769 0.57796 0.176 0.0
C847 C 0.83091 0.57939 0.14269 0.0
C848 C 0.81013 0.58455 0.19131 0.0
C849 C 0.80731 0.59928 0.18999 0.0
C850 C 0.82256 0.58609 0.1591 0.0
C851 C 0.81225 0.607 0.17272 0.0
C852 C 0.83626 0.58752 0.12605 0.0
C853 C 0.84145 0.55844 0.12957 0.0
N854 N 0.81966 0.60034 0.15804 0.0
N855 N 0.83368 0.56512 0.14382 0.0
H856 H 0.33693 0.49439 0.63356 0.0
H857 H 0.30181 0.41757 0.6655 0.0
H858 H 0.33592 0.45789 0.59495 0.0
H859 H 0.30324 0.4536 0.70498 0.0
H860 H 0.31438 0.43223 0.63968 0.0
H861 H 0.32486 0.47971 0.65997 0.0
C862 C 0.33416 0.4833 0.63058 0.0
C863 C 0.33748 0.47743 0.61188 0.0
C864 C 0.31196 0.43695 0.65398 0.0
C865 C 0.32364 0.46046 0.64226 0.0
C866 C 0.30466 0.4286 0.66874 0.0
C867 C 0.30131 0.43433 0.68752 0.0
C868 C 0.31601 0.45123 0.65786 0.0
C869 C 0.30565 0.44864 0.69085 0.0
C870 C 0.32731 0.4749 0.64574 0.0
C871 C 0.33378 0.4629 0.60914 0.0
N872 N 0.31271 0.45658 0.67619 0.0
N873 N 0.32704 0.45497 0.62407 0.0
H874 H 0.30396 0.6226 0.38914 0.0
H875 H 0.34447 0.54901 0.41214 0.0
H876 H 0.30798 0.58953 0.34542 0.0
H877 H 0.34097 0.58265 0.45509 0.0
H878 H 0.33036 0.56315 0.38801 0.0
H879 H 0.31666 0.60767 0.41379 0.0
C880 C 0.30755 0.61222 0.38465 0.0
C881 C 0.30496 0.60743 0.365 0.0
C882 C 0.33262 0.56742 0.40274 0.0
C883 C 0.31947 0.59008 0.39347 0.0
C884 C 0.34076 0.55937 0.41654 0.0
C885 C 0.34403 0.56462 0.43576 0.0
C886 C 0.32768 0.58091 0.40807 0.0
C887 C 0.33864 0.57804 0.44061 0.0
C888 C 0.31475 0.60364 0.39883 0.0
C889 C 0.30962 0.59369 0.36036 0.0
N890 N 0.33082 0.58571 0.42686 0.0
N891 N 0.31669 0.58555 0.37442 0.0
H892 H 0.20958 0.578 0.21348 0.0
H893 H 0.18396 0.5791 0.09765 0.0
H894 H 0.22307 0.61119 0.1705 0.0
H895 H 0.17156 0.54606 0.14148 0.0
H896 H 0.19847 0.59099 0.12364 0.0
H897 H 0.19559 0.56637 0.18706 0.0
C898 C 0.20968 0.58284 0.19845 0.0
C899 C 0.21768 0.59559 0.19428 0.0
C900 C 0.19257 0.58114 0.12755 0.0
C901 C 0.20139 0.58227 0.16373 0.0
C902 C 0.18435 0.57426 0.11266 0.0
C903 C 0.17642 0.56153 0.11729 0.0
C904 C 0.19294 0.57525 0.14728 0.0
C905 C 0.17725 0.55595 0.13717 0.0
C906 C 0.20159 0.57619 0.18334 0.0
C907 C 0.21703 0.60145 0.17453 0.0
N908 N 0.18531 0.56282 0.15133 0.0
N909 N 0.2091 0.59473 0.16001 0.0
H910 H 0.16846 0.4829 0.92264 0.0
H911 H 0.23294 0.43339 0.88748 0.0
H912 H 0.20155 0.46713 0.96279 0.0
H913 H 0.19889 0.44758 0.84774 0.0
H914 H 0.22113 0.44497 0.91542 0.0
H915 H 0.17893 0.46944 0.89533 0.0
C916 C 0.17784 0.47653 0.92582 0.0
C917 C 0.18412 0.47628 0.94515 0.0
C918 C 0.2162 0.44552 0.9006 0.0
C919 C 0.19634 0.46089 0.9137 0.0
C920 C 0.22291 0.43879 0.88461 0.0
C921 C 0.21699 0.4395 0.86506 0.0
C922 C 0.20344 0.45306 0.89716 0.0
C923 C 0.20405 0.44692 0.86239 0.0
C924 C 0.18388 0.4689 0.91013 0.0
C925 C 0.19643 0.46792 0.94813 0.0
N926 N 0.19776 0.45341 0.87817 0.0
N927 N 0.20212 0.46063 0.93263 0.0
H928 H 0.97398 0.02989 1.00974 0.0
H929 H 0.04597 0.99717 0.05823 0.0
H930 H 0.9745 1.00041 0.06096 0.0
H931 H 0.04697 0.02786 1.00838 0.0
H932 H 0.01969 0.99806 0.05864 0.0
H933 H 1.00046 0.02904 1.00812 0.0
C934 C 0.97962 0.0232 0.02059 0.0
C935 C 0.97191 0.01529 0.03561 0.0
C936 C 0.02561 1.0046 0.04757 0.0
C937 C 1.0023 0.01433 0.03388 0.0
C938 C 0.04068 1.00403 0.04722 0.0
C939 C 0.0488 1.01236 0.03313 0.0
C940 C 0.01842 0.01358 0.03372 0.0
C941 C 0.04122 0.0213 0.01961 0.0
C942 C 0.99476 0.02278 0.01972 0.0
C943 C 0.9799 1.00691 0.04934 0.0
N944 N 0.02648 0.02164 0.02019 0.0
N945 N 0.99457 1.00666 0.04814 0.0
H946 H 0.2717 0.73079 0.29579 0.0
H947 H 0.24763 0.80802 0.25353 0.0
H948 H 0.24288 0.73669 0.24513 0.0
H949 H 0.27747 0.80201 0.30296 0.0
H950 H 0.24538 0.78198 0.25061 0.0
H951 H 0.27384 0.7568 0.2987 0.0
C952 C 0.26587 0.73751 0.28519 0.0
C953 C 0.25708 0.7314 0.27019 0.0
C954 C 0.25244 0.78636 0.26209 0.0
C955 C 0.25937 0.7614 0.27363 0.0
C956 C 0.25367 0.80127 0.26385 0.0
C957 C 0.2628 0.80734 0.27849 0.0
C958 C 0.26035 0.77735 0.27508 0.0
C959 C 0.27048 0.79793 0.29122 0.0
C960 C 0.26704 0.75241 0.28695 0.0
C961 C 0.24962 0.7408 0.25714 0.0
N962 N 0.26907 0.78347 0.28923 0.0
N963 N 0.25094 0.75526 0.25916 0.0
H964 H 0.47474 0.01344 0.55108 0.0
H965 H 0.54741 0.02569 0.48612 0.0
H966 H 0.47537 0.02608 0.48799 0.0
H967 H 0.54729 1.01194 0.54878 0.0
H968 H 0.52108 0.02663 0.48701 0.0
H969 H 0.50121 0.01333 0.5509 0.0
C970 C 0.4804 0.01617 0.53716 0.0
C971 C 0.47269 0.01978 0.51952 0.0
C972 C 0.52679 0.02344 0.5006 0.0
C973 C 0.50315 0.01978 0.51927 0.0
C974 C 0.54189 0.02299 0.50015 0.0
C975 C 0.54971 0.01877 0.51742 0.0
C976 C 0.5193 0.01964 0.51845 0.0
C977 C 0.5418 0.01511 0.53501 0.0
C978 C 0.49555 0.01617 0.53711 0.0
C979 C 0.48075 0.02343 0.50206 0.0
N980 N 0.52708 0.01564 0.53507 0.0
N981 N 0.49546 0.0233 0.50238 0.0
H982 H 0.27193 0.30981 0.75558 0.0
H983 H 0.25355 0.23013 0.79838 0.0
H984 H 0.24601 0.30064 0.80867 0.0
H985 H 0.2757 0.23918 0.74204 0.0
H986 H 0.25111 0.25586 0.80274 0.0
H987 H 0.27385 0.28406 0.75073 0.0
C988 C 0.26656 0.30243 0.76618 0.0
C989 C 0.2588 0.30754 0.7826 0.0
C990 C 0.2565 0.25222 0.78941 0.0
C991 C 0.26114 0.27785 0.77723 0.0
C992 C 0.25783 0.23747 0.78683 0.0
C993 C 0.26487 0.23233 0.7698 0.0
C994 C 0.26226 0.26203 0.77489 0.0
C995 C 0.2704 0.24253 0.75559 0.0
C996 C 0.26774 0.28768 0.76344 0.0
C997 C 0.25231 0.29732 0.79597 0.0
N998 N 0.26898 0.25682 0.75846 0.0
N999 N 0.25363 0.28303 0.79299 0.0
H1000 H 0.74465 0.30425 0.79614 0.0
H1001 H 0.77954 0.23452 0.74973 0.0
H1002 H 0.78337 0.30551 0.75989 0.0
H1003 H 0.74206 0.23268 0.78845 0.0
H1004 H 0.78077 0.26054 0.75281 0.0
H1005 H 0.74308 0.2782 0.79279 0.0
C1006 C 0.75277 0.29909 0.78734 0.0
C1007 C 0.76418 0.30718 0.77831 0.0
C1008 C 0.77228 0.25447 0.76066 0.0
C1009 C 0.76251 0.2772 0.7746 0.0
C1010 C 0.77152 0.23957 0.75884 0.0
C1011 C 0.76065 0.2313 0.76879 0.0
C1012 C 0.76206 0.26129 0.7725 0.0
C1013 C 0.75073 0.23853 0.78065 0.0
C1014 C 0.75192 0.28417 0.78556 0.0
C1015 C 0.77448 0.29978 0.76735 0.0
N1016 N 0.75165 0.25306 0.78211 0.0
N1017 N 0.7734 0.28527 0.76581 0.0
H1018 H 0.77034 0.81006 0.25489 0.0
H1019 H 0.7528 0.73049 0.29897 0.0
H1020 H 0.74672 0.80115 0.31008 0.0
H1021 H 0.77707 0.7395 0.24436 0.0
H1022 H 0.75009 0.75625 0.30298 0.0
H1023 H 0.77286 0.7843 0.25078 0.0
C1024 C 0.76574 0.80273 0.26622 0.0
C1025 C 0.75828 0.80792 0.28287 0.0
C1026 C 0.75602 0.7526 0.29013 0.0
C1027 C 0.761 0.77821 0.27808 0.0
C1028 C 0.7575 0.73784 0.28774 0.0
C1029 C 0.76523 0.7327 0.27132 0.0
C1030 C 0.76226 0.76239 0.27597 0.0
C1031 C 0.77123 0.74287 0.25745 0.0
C1032 C 0.76711 0.78798 0.26378 0.0
C1033 C 0.75237 0.79776 0.29683 0.0
N1034 N 0.76962 0.75716 0.26009 0.0
N1035 N 0.75386 0.78346 0.29413 0.0
H1036 H 0.47478 0.53489 0.54875 0.0
H1037 H 0.54643 0.4984 0.50845 0.0
H1038 H 0.47423 0.49923 0.50864 0.0
H1039 H 0.54716 0.53378 0.54903 0.0
H1040 H 0.52005 0.49921 0.5073 0.0
H1041 H 0.50122 0.53547 0.54771 0.0
C1042 C 0.48017 0.52726 0.53954 0.0
C1043 C 0.47215 0.51696 0.52881 0.0
C1044 C 0.52597 0.50684 0.51641 0.0
C1045 C 0.5026 0.51746 0.52777 0.0
C1046 C 0.54107 0.50634 0.51716 0.0
C1047 C 0.54913 0.51599 0.52894 0.0
C1048 C 0.51875 0.51704 0.52757 0.0
C1049 C 0.5415 0.5262 0.53958 0.0
C1050 C 0.49532 0.52755 0.53907 0.0
C1051 C 0.47988 0.50723 0.51742 0.0
N1052 N 0.52678 0.52641 0.53871 0.0
N1053 N 0.49461 0.50771 0.51725 0.0
H1054 H 0.97527 0.4984 0.99583 0.0
H1055 H 0.04968 0.53218 0.03845 0.0
H1056 H 0.97662 0.53171 0.03973 0.0
H1057 H 0.04698 0.50009 0.99286 0.0
H1058 H 0.02316 0.53194 0.04005 0.0
H1059 H 1.0016 0.49871 0.9954 0.0
C1060 C 0.98108 0.50572 1.00554 0.0
C1061 C 0.97359 0.51496 0.01796 0.0
C1062 C 0.02839 0.52497 0.02968 0.0
C1063 C 1.00405 0.51551 0.01732 0.0
C1064 C 0.04355 0.52504 0.02884 0.0
C1065 C 0.05067 0.51621 0.01539 0.0
C1066 C 0.02023 0.51594 0.01709 0.0
C1067 C 0.04207 0.50729 1.0032 0.0
C1068 C 0.99619 0.50596 1.00517 0.0
C1069 C 0.98186 0.52444 0.02981 0.0
N1070 N 0.02739 0.50739 1.00435 0.0
N1071 N 0.99661 0.52444 0.02924 0.0
loop_
_geom_bond_atom_site_label_1
_geom_bond_atom_site_label_2
_geom_bond_distance
_geom_bond_site_symmetry_2
_ccdc_geom_bond_type
C0 C1 1.264 . S
C0 C5 1.479 1_545 S
C0 C10 1.465 . S
C1 C0 1.264 . S
C1 C3 1.334 1_554 S
C1 H28 0.931 1_554 S
C2 C3 1.370 1_554 S
C2 C4 1.320 1_545 S
C3 C1 1.334 1_556 S
C3 C2 1.370 1_556 S
C3 H29 0.962 . S
C4 C2 1.320 1_565 S
C4 C5 1.405 . S
C4 H30 0.930 . S
C5 C0 1.479 1_565 S
C5 C4 1.405 . S
C5 H31 0.931 . S
U6 O7 2.454 1_545 S
U6 O8 2.458 1_545 S
U6 C9 2.984 1_545 S
U6 C10 2.847 . S
U6 C23 2.882 1_554 S
U6 O24 2.463 . S
U6 O25 2.420 . S
U6 O26 2.445 1_554 S
U6 O27 2.449 1_554 S
O7 U6 2.454 1_565 S
O7 C9 1.353 . S
O8 U6 2.458 1_565 S
O8 C9 1.286 . S
C9 U6 2.984 1_565 S
C9 O7 1.353 . S
C9 O8 1.286 . S
C9 C11 1.363 . S
C10 C0 1.465 . S
C10 U6 2.847 . S
C10 O24 1.299 . S
C10 O25 1.202 . S
C11 C9 1.363 . S
C11 C13 1.408 . S
C11 C16 1.342 . S
C12 C13 1.310 . S
C12 C15 1.461 . S
C12 H32 0.932 . S
C13 C11 1.408 . S
C13 C12 1.310 . S
C13 H33 0.930 . S
C14 C15 1.474 . S
C14 C16 1.285 . S
C14 H34 0.929 . S
C15 C12 1.461 . S
C15 C14 1.474 . S
C16 C11 1.342 . S
C16 C14 1.285 . S
C16 H35 0.930 . S
C17 C20 1.424 . S
C17 C22 1.245 . S
C17 C23 1.428 . S
C18 C21 1.260 . S
C18 C22 1.477 . S
C18 H36 0.932 . S
C19 C20 1.384 . S
C19 C21 1.479 . S
C19 H37 0.929 . S
C20 C17 1.424 . S
C20 C19 1.384 . S
C20 H38 0.928 . S
C21 C18 1.260 . S
C21 C19 1.479 . S
C22 C17 1.245 . S
C22 C18 1.477 . S
C22 H39 0.932 . S
C23 U6 2.882 1_556 S
C23 C17 1.428 . S
C23 O26 1.317 . S
C23 O27 1.282 . S
O24 U6 2.463 . S
O24 C10 1.299 . S
O25 U6 2.420 . S
O25 C10 1.202 . S
O26 U6 2.445 1_556 S
O26 C23 1.317 . S
O27 U6 2.449 1_556 S
O27 C23 1.282 . S
H28 C1 0.931 1_556 S
H29 C3 0.962 . S
H30 C4 0.930 . S
H31 C5 0.931 . S
H32 C12 0.932 . S
H33 C13 0.930 . S
H34 C14 0.929 . S
H35 C16 0.930 . S
H36 C18 0.932 . S
H37 C19 0.929 . S
H38 C20 0.928 . S
H39 C22 0.932 . S
C40 C41 1.264 . S
C40 C45 1.479 . S
C40 C50 1.465 . S
C41 C40 1.264 . S
C41 C43 1.339 . S
C41 H68 0.931 . S
C42 C43 1.395 . S
C42 C44 1.320 . S
C43 C41 1.339 . S
C43 C42 1.395 . S
C43 H69 0.929 . S
C44 C42 1.320 . S
C44 C45 1.405 . S
C44 H70 0.930 . S
C45 C40 1.479 . S
C45 C44 1.405 . S
C45 H71 0.931 . S
U46 O47 2.454 . S
U46 O48 2.458 . S
U46 C49 2.984 . S
U46 C50 2.847 . S
U46 C63 2.882 . S
U46 O64 2.441 . S
U46 O65 2.420 . S
U46 O66 2.455 . S
U46 O67 2.449 . S
O47 U46 2.454 . S
O47 C49 1.353 . S
O48 U46 2.458 . S
O48 C49 1.286 . S
C49 U46 2.984 . S
C49 O47 1.353 . S
C49 O48 1.286 . S
C49 C51 1.363 . S
C50 C40 1.465 . S
C50 U46 2.847 . S
C50 O64 1.249 . S
C50 O65 1.202 . S
C51 C49 1.363 . S
C51 C53 1.408 . S
C51 C56 1.342 . S
C52 C53 1.310 . S
C52 C55 1.461 . S
C52 H72 0.932 . S
C53 C51 1.408 . S
C53 C52 1.310 . S
C53 H73 0.930 . S
C54 C55 1.474 . S
C54 C56 1.285 . S
C54 H74 0.929 . S
C55 C52 1.461 . S
C55 C54 1.474 . S
C56 C51 1.342 . S
C56 C54 1.285 . S
C56 H75 0.930 . S
C57 C60 1.424 . S
C57 C62 1.245 . S
C57 C63 1.428 . S
C58 C61 1.260 . S
C58 C62 1.477 . S
C58 H76 0.932 . S
C59 C60 1.384 . S
C59 C61 1.479 . S
C59 H77 0.929 . S
C60 C57 1.424 . S
C60 C59 1.384 . S
C60 H78 0.928 . S
C61 C58 1.260 . S
C61 C59 1.479 . S
C62 C57 1.245 . S
C62 C58 1.477 . S
C62 H79 0.932 . S
C63 U46 2.882 . S
C63 C57 1.428 . S
C63 O66 1.301 . S
C63 O67 1.282 . S
O64 U46 2.441 . S
O64 C50 1.249 . S
O65 U46 2.420 . S
O65 C50 1.202 . S
O66 U46 2.455 . S
O66 C63 1.301 . S
O67 U46 2.449 . S
O67 C63 1.282 . S
H68 C41 0.931 . S
H69 C43 0.929 . S
H70 C44 0.930 . S
H71 C45 0.931 . S
H72 C52 0.932 . S
H73 C53 0.930 . S
H74 C54 0.929 . S
H75 C56 0.930 . S
H76 C58 0.932 . S
H77 C59 0.929 . S
H78 C60 0.928 . S
H79 C62 0.932 . S
C80 C81 1.264 . S
C80 C85 1.479 . S
C80 C90 1.465 1_565 S
C81 C80 1.264 . S
C81 C83 1.339 . S
C81 H108 0.931 . S
C82 C83 1.395 . S
C82 C84 1.320 . S
C83 C81 1.339 . S
C83 C82 1.395 . S
C83 H109 0.929 . S
C84 C82 1.320 . S
C84 C85 1.405 . S
C84 H110 0.930 . S
C85 C80 1.479 . S
C85 C84 1.405 . S
C85 H111 0.931 . S
U86 O87 2.454 . S
U86 O88 2.458 . S
U86 C89 2.984 . S
U86 C90 2.847 . S
U86 C103 2.882 . S
U86 O104 2.441 . S
U86 O105 2.420 . S
U86 O106 2.455 . S
U86 O107 2.449 . S
O87 U86 2.454 . S
O87 C89 1.353 . S
O88 U86 2.458 . S
O88 C89 1.286 . S
C89 U86 2.984 . S
C89 O87 1.353 . S
C89 O88 1.286 . S
C89 C91 1.363 . S
C90 C80 1.465 1_545 S
C90 U86 2.847 . S
C90 O104 1.249 . S
C90 O105 1.202 . S
C91 C89 1.363 . S
C91 C93 1.408 . S
C91 C96 1.342 . S
C92 C93 1.310 . S
C92 C95 1.461 . S
C92 H112 0.932 . S
C93 C91 1.408 . S
C93 C92 1.310 . S
C93 H113 0.930 . S
C94 C95 1.474 . S
C94 C96 1.285 . S
C94 H114 0.929 . S
C95 C92 1.461 . S
C95 C94 1.474 . S
C96 C91 1.342 . S
C96 C94 1.285 . S
C96 H115 0.930 . S
C97 C100 1.424 . S
C97 C102 1.245 . S
C97 C103 1.428 . S
C98 C101 1.260 . S
C98 C102 1.477 . S
C98 H116 0.932 . S
C99 C100 1.384 . S
C99 C101 1.479 . S
C99 H117 0.929 . S
C100 C97 1.424 . S
C100 C99 1.384 . S
C100 H118 0.928 . S
C101 C98 1.260 . S
C101 C99 1.479 . S
C102 C97 1.245 . S
C102 C98 1.477 . S
C102 H119 0.932 . S
C103 U86 2.882 . S
C103 C97 1.428 . S
C103 O106 1.301 . S
C103 O107 1.282 . S
O104 U86 2.441 . S
O104 C90 1.249 . S
O105 U86 2.420 . S
O105 C90 1.202 . S
O106 U86 2.455 . S
O106 C103 1.301 . S
O107 U86 2.449 . S
O107 C103 1.282 . S
H108 C81 0.931 . S
H109 C83 0.929 . S
H110 C84 0.930 . S
H111 C85 0.931 . S
H112 C92 0.932 . S
H113 C93 0.930 . S
H114 C94 0.929 . S
H115 C96 0.930 . S
H116 C98 0.932 . S
H117 C99 0.929 . S
H118 C100 0.928 . S
H119 C102 0.932 . S
C120 C121 1.264 . S
C120 C125 1.479 . S
C120 C130 1.465 . S
C121 C120 1.264 . S
C121 C123 1.339 . S
C121 H148 0.931 . S
C122 C123 1.395 . S
C122 C124 1.320 . S
C123 C121 1.339 . S
C123 C122 1.395 . S
C123 H149 0.929 . S
C124 C122 1.320 . S
C124 C125 1.405 . S
C124 H150 0.930 . S
C125 C120 1.479 . S
C125 C124 1.405 . S
C125 H151 0.931 . S
U126 O127 2.454 . S
U126 O128 2.458 . S
U126 C129 2.984 . S
U126 C130 2.847 . S
U126 C143 2.882 . S
U126 O144 2.441 . S
U126 O145 2.420 . S
U126 O146 2.455 . S
U126 O147 2.449 . S
O127 U126 2.454 . S
O127 C129 1.353 . S
O128 U126 2.458 . S
O128 C129 1.286 . S
C129 U126 2.984 . S
C129 O127 1.353 . S
C129 O128 1.286 . S
C129 C131 1.363 . S
C130 C120 1.465 . S
C130 U126 2.847 . S
C130 O144 1.249 . S
C130 O145 1.202 . S
C131 C129 1.363 . S
C131 C133 1.408 . S
C131 C136 1.342 . S
C132 C133 1.310 . S
C132 C135 1.461 . S
C132 H152 0.932 . S
C133 C131 1.408 . S
C133 C132 1.310 . S
C133 H153 0.930 . S
C134 C135 1.474 . S
C134 C136 1.285 . S
C134 H154 0.929 . S
C135 C132 1.461 . S
C135 C134 1.474 . S
C136 C131 1.342 . S
C136 C134 1.285 . S
C136 H155 0.930 . S
C137 C140 1.424 . S
C137 C142 1.245 . S
C137 C143 1.428 . S
C138 C141 1.260 . S
C138 C142 1.477 . S
C138 H156 0.932 . S
C139 C140 1.384 . S
C139 C141 1.479 . S
C139 H157 0.929 . S
C140 C137 1.424 . S
C140 C139 1.384 . S
C140 H158 0.928 . S
C141 C138 1.260 . S
C141 C139 1.479 . S
C142 C137 1.245 . S
C142 C138 1.477 . S
C142 H159 0.932 . S
C143 U126 2.882 . S
C143 C137 1.428 . S
C143 O146 1.301 . S
C143 O147 1.282 . S
O144 U126 2.441 . S
O144 C130 1.249 . S
O145 U126 2.420 . S
O145 C130 1.202 . S
O146 U126 2.455 . S
O146 C143 1.301 . S
O147 U126 2.449 . S
O147 C143 1.282 . S
H148 C121 0.931 . S
H149 C123 0.929 . S
H150 C124 0.930 . S
H151 C125 0.931 . S
H152 C132 0.932 . S
H153 C133 0.930 . S
H154 C134 0.929 . S
H155 C136 0.930 . S
H156 C138 0.932 . S
H157 C139 0.929 . S
H158 C140 0.928 . S
H159 C142 0.932 . S
C160 C161 1.264 . S
C160 C165 1.479 . S
C160 C170 1.465 . S
C161 C160 1.264 . S
C161 C163 1.339 . S
C161 H188 0.931 . S
C162 C163 1.395 . S
C162 C164 1.320 . S
C163 C161 1.339 . S
C163 C162 1.395 . S
C163 H189 0.929 . S
C164 C162 1.320 . S
C164 C165 1.405 . S
C164 H190 0.930 . S
C165 C160 1.479 . S
C165 C164 1.405 . S
C165 H191 0.931 . S
U166 O167 2.454 1_554 S
U166 O168 2.458 1_554 S
U166 C169 2.984 1_554 S
U166 C170 2.847 1_545 S
U166 C183 2.882 . S
U166 O184 2.441 1_545 S
U166 O185 2.420 1_545 S
U166 O186 2.455 1_554 S
U166 O187 2.449 1_545 S
O167 U166 2.454 1_556 S
O167 C169 1.353 . S
O168 U166 2.458 1_556 S
O168 C169 1.286 . S
C169 U166 2.984 1_556 S
C169 O167 1.353 . S
C169 O168 1.286 . S
C169 C171 1.363 . S
C170 C160 1.465 . S
C170 U166 2.847 1_565 S
C170 O184 1.249 . S
C170 O185 1.202 . S
C171 C169 1.363 . S
C171 C173 1.408 . S
C171 C176 1.342 . S
C172 C173 1.310 . S
C172 C175 1.461 . S
C172 H192 0.932 . S
C173 C171 1.408 . S
C173 C172 1.310 . S
C173 H193 0.930 . S
C174 C175 1.474 . S
C174 C176 1.285 . S
C174 H194 0.929 . S
C175 C172 1.461 . S
C175 C174 1.474 . S
C176 C171 1.342 . S
C176 C174 1.285 . S
C176 H195 0.930 . S
C177 C180 1.426 . S
C177 C182 1.245 1_554 S
C177 C183 1.428 . S
C178 C181 1.254 1_556 S
C178 C182 1.478 . S
C178 H196 0.938 . S
C179 C180 1.384 . S
C179 C181 1.491 . S
C179 H197 0.917 1_545 S
C180 C177 1.426 . S
C180 C179 1.384 . S
C180 H198 0.926 1_545 S
C181 C178 1.254 1_554 S
C181 C179 1.491 . S
C182 C177 1.245 1_556 S
C182 C178 1.478 . S
C182 H199 0.932 . S
C183 U166 2.882 . S
C183 C177 1.428 . S
C183 O186 1.301 1_554 S
C183 O187 1.282 1_545 S
O184 U166 2.441 1_565 S
O184 C170 1.249 . S
O185 U166 2.420 1_565 S
O185 C170 1.202 . S
O186 U166 2.455 1_556 S
O186 C183 1.301 1_556 S
O187 U166 2.449 1_565 S
O187 C183 1.282 1_565 S
H188 C161 0.931 . S
H189 C163 0.929 . S
H190 C164 0.930 . S
H191 C165 0.931 . S
H192 C172 0.932 . S
H193 C173 0.930 . S
H194 C174 0.929 . S
H195 C176 0.930 . S
H196 C178 0.938 . S
H197 C179 0.917 1_565 S
H198 C180 0.926 1_565 S
H199 C182 0.932 . S
C200 C201 1.264 . S
C200 C205 1.479 . S
C200 C210 1.465 . S
C201 C200 1.264 . S
C201 C203 1.339 . S
C201 H228 0.931 . S
C202 C203 1.395 . S
C202 C204 1.320 . S
C203 C201 1.339 . S
C203 C202 1.395 . S
C203 H229 0.929 . S
C204 C202 1.320 . S
C204 C205 1.405 . S
C204 H230 0.930 . S
C205 C200 1.479 . S
C205 C204 1.405 . S
C205 H231 0.931 . S
U206 O207 2.454 . S
U206 O208 2.458 . S
U206 C209 2.984 . S
U206 C210 2.847 . S
U206 C223 2.882 . S
U206 O224 2.441 . S
U206 O225 2.420 . S
U206 O226 2.455 . S
U206 O227 2.449 . S
O207 U206 2.454 . S
O207 C209 1.353 . S
O208 U206 2.458 . S
O208 C209 1.286 . S
C209 U206 2.984 . S
C209 O207 1.353 . S
C209 O208 1.286 . S
C209 C211 1.363 . S
C210 C200 1.465 . S
C210 U206 2.847 . S
C210 O224 1.249 . S
C210 O225 1.202 . S
C211 C209 1.363 . S
C211 C213 1.408 . S
C211 C216 1.342 . S
C212 C213 1.310 . S
C212 C215 1.461 . S
C212 H232 0.932 . S
C213 C211 1.408 . S
C213 C212 1.310 . S
C213 H233 0.930 . S
C214 C215 1.474 . S
C214 C216 1.285 . S
C214 H234 0.929 . S
C215 C212 1.461 . S
C215 C214 1.474 . S
C216 C211 1.342 . S
C216 C214 1.285 . S
C216 H235 0.930 . S
C217 C220 1.424 . S
C217 C222 1.245 . S
C217 C223 1.428 . S
C218 C221 1.260 . S
C218 C222 1.477 . S
C218 H236 0.932 . S
C219 C220 1.384 . S
C219 C221 1.479 . S
C219 H237 0.929 . S
C220 C217 1.424 . S
C220 C219 1.384 . S
C220 H238 0.928 . S
C221 C218 1.260 . S
C221 C219 1.479 . S
C222 C217 1.245 . S
C222 C218 1.477 . S
C222 H239 0.932 . S
C223 U206 2.882 . S
C223 C217 1.428 . S
C223 O226 1.301 . S
C223 O227 1.282 . S
O224 U206 2.441 . S
O224 C210 1.249 . S
O225 U206 2.420 . S
O225 C210 1.202 . S
O226 U206 2.455 . S
O226 C223 1.301 . S
O227 U206 2.449 . S
O227 C223 1.282 . S
H228 C201 0.931 . S
H229 C203 0.929 . S
H230 C204 0.930 . S
H231 C205 0.931 . S
H232 C212 0.932 . S
H233 C213 0.930 . S
H234 C214 0.929 . S
H235 C216 0.930 . S
H236 C218 0.932 . S
H237 C219 0.929 . S
H238 C220 0.928 . S
H239 C222 0.932 . S
C240 C241 1.264 1_565 S
C240 C245 1.479 . S
C240 C250 1.465 . S
C241 C240 1.264 1_545 S
C241 C243 1.339 . S
C241 H268 0.931 . S
C242 C243 1.395 . S
C242 C244 1.320 1_545 S
C243 C241 1.339 . S
C243 C242 1.395 . S
C243 H269 0.929 . S
C244 C242 1.320 1_565 S
C244 C245 1.405 . S
C244 H270 0.930 . S
C245 C240 1.479 . S
C245 C244 1.405 . S
C245 H271 0.931 . S
U246 O247 2.454 . S
U246 O248 2.458 . S
U246 C249 2.984 . S
U246 C250 2.847 . S
U246 C263 2.882 1_565 S
U246 O264 2.441 . S
U246 O265 2.420 . S
U246 O266 2.455 1_565 S
U246 O267 2.449 1_565 S
O247 U246 2.454 . S
O247 C249 1.353 . S
O248 U246 2.458 . S
O248 C249 1.286 . S
C249 U246 2.984 . S
C249 O247 1.353 . S
C249 O248 1.286 . S
C249 C251 1.363 . S
C250 C240 1.465 . S
C250 U246 2.847 . S
C250 O264 1.249 . S
C250 O265 1.202 . S
C251 C249 1.363 . S
C251 C253 1.408 . S
C251 C256 1.342 . S
C252 C253 1.310 . S
C252 C255 1.461 . S
C252 H272 0.932 . S
C253 C251 1.408 . S
C253 C252 1.310 . S
C253 H273 0.930 . S
C254 C255 1.474 . S
C254 C256 1.285 . S
C254 H274 0.929 . S
C255 C252 1.461 . S
C255 C254 1.474 . S
C256 C251 1.342 . S
C256 C254 1.285 . S
C256 H275 0.930 . S
C257 C260 1.424 . S
C257 C262 1.245 . S
C257 C263 1.428 . S
C258 C261 1.260 . S
C258 C262 1.477 . S
C258 H276 0.932 . S
C259 C260 1.384 . S
C259 C261 1.479 . S
C259 H277 0.929 . S
C260 C257 1.424 . S
C260 C259 1.384 . S
C260 H278 0.928 . S
C261 C258 1.260 . S
C261 C259 1.479 . S
C262 C257 1.245 . S
C262 C258 1.477 . S
C262 H279 0.932 . S
C263 U246 2.882 1_545 S
C263 C257 1.428 . S
C263 O266 1.301 . S
C263 O267 1.282 . S
O264 U246 2.441 . S
O264 C250 1.249 . S
O265 U246 2.420 . S
O265 C250 1.202 . S
O266 U246 2.455 1_545 S
O266 C263 1.301 . S
O267 U246 2.449 1_545 S
O267 C263 1.282 . S
H268 C241 0.931 . S
H269 C243 0.929 . S
H270 C244 0.930 . S
H271 C245 0.931 . S
H272 C252 0.932 . S
H273 C253 0.930 . S
H274 C254 0.929 . S
H275 C256 0.930 . S
H276 C258 0.932 . S
H277 C259 0.929 . S
H278 C260 0.928 . S
H279 C262 0.932 . S
C280 C281 1.264 . S
C280 C285 1.479 . S
C280 C290 1.465 . S
C281 C280 1.264 . S
C281 C283 1.339 . S
C281 H308 0.931 . S
C282 C283 1.395 . S
C282 C284 1.320 . S
C283 C281 1.339 . S
C283 C282 1.395 . S
C283 H309 0.929 . S
C284 C282 1.320 . S
C284 C285 1.405 . S
C284 H310 0.930 . S
C285 C280 1.479 . S
C285 C284 1.405 . S
C285 H311 0.931 . S
U286 O287 2.454 . S
U286 O288 2.458 . S
U286 C289 2.984 . S
U286 C290 2.847 . S
U286 C303 2.882 . S
U286 O304 2.441 . S
U286 O305 2.420 . S
U286 O306 2.455 . S
U286 O307 2.449 . S
O287 U286 2.454 . S
O287 C289 1.353 . S
O288 U286 2.458 . S
O288 C289 1.286 . S
C289 U286 2.984 . S
C289 O287 1.353 . S
C289 O288 1.286 . S
C289 C291 1.363 . S
C290 C280 1.465 . S
C290 U286 2.847 . S
C290 O304 1.249 . S
C290 O305 1.202 . S
C291 C289 1.363 . S
C291 C293 1.408 . S
C291 C296 1.342 . S
C292 C293 1.310 . S
C292 C295 1.461 . S
C292 H312 0.932 . S
C293 C291 1.408 . S
C293 C292 1.310 . S
C293 H313 0.930 . S
C294 C295 1.474 . S
C294 C296 1.285 . S
C294 H314 0.929 . S
C295 C292 1.461 . S
C295 C294 1.474 . S
C296 C291 1.342 . S
C296 C294 1.285 . S
C296 H315 0.930 . S
C297 C300 1.424 . S
C297 C302 1.245 . S
C297 C303 1.428 . S
C298 C301 1.260 . S
C298 C302 1.477 . S
C298 H316 0.932 . S
C299 C300 1.384 . S
C299 C301 1.479 . S
C299 H317 0.929 . S
C300 C297 1.424 . S
C300 C299 1.384 . S
C300 H318 0.928 . S
C301 C298 1.260 . S
C301 C299 1.479 . S
C302 C297 1.245 . S
C302 C298 1.477 . S
C302 H319 0.932 . S
C303 U286 2.882 . S
C303 C297 1.428 . S
C303 O306 1.301 . S
C303 O307 1.282 . S
O304 U286 2.441 . S
O304 C290 1.249 . S
O305 U286 2.420 . S
O305 C290 1.202 . S
O306 U286 2.455 . S
O306 C303 1.301 . S
O307 U286 2.449 . S
O307 C303 1.282 . S
H308 C281 0.931 . S
H309 C283 0.929 . S
H310 C284 0.930 . S
H311 C285 0.931 . S
H312 C292 0.932 . S
H313 C293 0.930 . S
H314 C294 0.929 . S
H315 C296 0.930 . S
H316 C298 0.932 . S
H317 C299 0.929 . S
H318 C300 0.928 . S
H319 C302 0.932 . S
C320 C321 1.264 . S
C320 C325 1.479 . S
C320 C330 1.465 . S
C321 C320 1.264 . S
C321 C323 1.339 . S
C321 H348 0.931 . S
C322 C323 1.395 . S
C322 C324 1.320 . S
C323 C321 1.339 . S
C323 C322 1.395 . S
C323 H349 0.929 . S
C324 C322 1.320 . S
C324 C325 1.405 . S
C324 H350 0.930 . S
C325 C320 1.479 . S
C325 C324 1.405 . S
C325 H351 0.931 . S
U326 O327 2.454 . S
U326 O328 2.458 . S
U326 C329 2.984 . S
U326 C330 2.847 . S
U326 C343 2.882 . S
U326 O344 2.441 . S
U326 O345 2.420 . S
U326 O346 2.455 . S
U326 O347 2.449 . S
O327 U326 2.454 . S
O327 C329 1.353 . S
O328 U326 2.458 . S
O328 C329 1.286 . S
C329 U326 2.984 . S
C329 O327 1.353 . S
C329 O328 1.286 . S
C329 C331 1.363 . S
C330 C320 1.465 . S
C330 U326 2.847 . S
C330 O344 1.249 . S
C330 O345 1.202 . S
C331 C329 1.363 . S
C331 C333 1.408 . S
C331 C336 1.342 . S
C332 C333 1.310 . S
C332 C335 1.461 . S
C332 H352 0.932 . S
C333 C331 1.408 . S
C333 C332 1.310 . S
C333 H353 0.930 . S
C334 C335 1.474 . S
C334 C336 1.285 . S
C334 H354 0.929 . S
C335 C332 1.461 . S
C335 C334 1.474 . S
C336 C331 1.342 . S
C336 C334 1.285 . S
C336 H355 0.930 . S
C337 C340 1.424 . S
C337 C342 1.245 . S
C337 C343 1.428 . S
C338 C341 1.260 . S
C338 C342 1.477 . S
C338 H356 0.932 . S
C339 C340 1.384 . S
C339 C341 1.479 . S
C339 H357 0.929 . S
C340 C337 1.424 . S
C340 C339 1.384 . S
C340 H358 0.928 . S
C341 C338 1.260 . S
C341 C339 1.479 . S
C342 C337 1.245 . S
C342 C338 1.477 . S
C342 H359 0.932 . S
C343 U326 2.882 . S
C343 C337 1.428 . S
C343 O346 1.301 . S
C343 O347 1.282 . S
O344 U326 2.441 . S
O344 C330 1.249 . S
O345 U326 2.420 . S
O345 C330 1.202 . S
O346 U326 2.455 . S
O346 C343 1.301 . S
O347 U326 2.449 . S
O347 C343 1.282 . S
H348 C321 0.931 . S
H349 C323 0.929 . S
H350 C324 0.930 . S
H351 C325 0.931 . S
H352 C332 0.932 . S
H353 C333 0.930 . S
H354 C334 0.929 . S
H355 C336 0.930 . S
H356 C338 0.932 . S
H357 C339 0.929 . S
H358 C340 0.928 . S
H359 C342 0.932 . S
C360 C361 1.264 . S
C360 C365 1.479 . S
C360 C370 1.465 . S
C361 C360 1.264 . S
C361 C363 1.339 . S
C361 H388 0.931 . S
C362 C363 1.395 . S
C362 C364 1.320 . S
C363 C361 1.339 . S
C363 C362 1.395 . S
C363 H389 0.929 . S
C364 C362 1.320 . S
C364 C365 1.405 . S
C364 H390 0.930 . S
C365 C360 1.479 . S
C365 C364 1.405 . S
C365 H391 0.931 . S
U366 O367 2.454 . S
U366 O368 2.458 . S
U366 C369 2.984 . S
U366 C370 2.847 . S
U366 C383 2.882 . S
U366 O384 2.441 . S
U366 O385 2.420 . S
U366 O386 2.455 . S
U366 O387 2.449 . S
O367 U366 2.454 . S
O367 C369 1.353 . S
O368 U366 2.458 . S
O368 C369 1.286 . S
C369 U366 2.984 . S
C369 O367 1.353 . S
C369 O368 1.286 . S
C369 C371 1.363 . S
C370 C360 1.465 . S
C370 U366 2.847 . S
C370 O384 1.249 . S
C370 O385 1.202 . S
C371 C369 1.363 . S
C371 C373 1.408 . S
C371 C376 1.342 . S
C372 C373 1.310 . S
C372 C375 1.461 . S
C372 H392 0.932 . S
C373 C371 1.408 . S
C373 C372 1.310 . S
C373 H393 0.930 . S
C374 C375 1.474 . S
C374 C376 1.285 . S
C374 H394 0.929 . S
C375 C372 1.461 . S
C375 C374 1.474 . S
C376 C371 1.342 . S
C376 C374 1.285 . S
C376 H395 0.930 . S
C377 C380 1.424 . S
C377 C382 1.245 . S
C377 C383 1.428 . S
C378 C381 1.260 . S
C378 C382 1.477 . S
C378 H396 0.932 . S
C379 C380 1.384 . S
C379 C381 1.479 . S
C379 H397 0.929 . S
C380 C377 1.424 . S
C380 C379 1.384 . S
C380 H398 0.928 . S
C381 C378 1.260 . S
C381 C379 1.479 . S
C382 C377 1.245 . S
C382 C378 1.477 . S
C382 H399 0.932 . S
C383 U366 2.882 . S
C383 C377 1.428 . S
C383 O386 1.301 . S
C383 O387 1.282 . S
O384 U366 2.441 . S
O384 C370 1.249 . S
O385 U366 2.420 . S
O385 C370 1.202 . S
O386 U366 2.455 . S
O386 C383 1.301 . S
O387 U366 2.449 . S
O387 C383 1.282 . S
H388 C361 0.931 . S
H389 C363 0.929 . S
H390 C364 0.930 . S
H391 C365 0.931 . S
H392 C372 0.932 . S
H393 C373 0.930 . S
H394 C374 0.929 . S
H395 C376 0.930 . S
H396 C378 0.932 . S
H397 C379 0.929 . S
H398 C380 0.928 . S
H399 C382 0.932 . S
C400 C401 1.264 . S
C400 C405 1.479 . S
C400 C410 1.465 . S
C401 C400 1.264 . S
C401 C403 1.339 . S
C401 H428 0.931 . S
C402 C403 1.395 . S
C402 C404 1.320 . S
C403 C401 1.339 . S
C403 C402 1.395 . S
C403 H429 0.929 . S
C404 C402 1.320 . S
C404 C405 1.405 . S
C404 H430 0.930 . S
C405 C400 1.479 . S
C405 C404 1.405 . S
C405 H431 0.931 . S
U406 O407 2.454 . S
U406 O408 2.458 . S
U406 C409 2.984 . S
U406 C410 2.847 1_554 S
U406 C423 2.882 . S
U406 O424 2.441 1_554 S
U406 O425 2.420 1_554 S
U406 O426 2.455 . S
U406 O427 2.449 1_554 S
O407 U406 2.454 . S
O407 C409 1.353 . S
O408 U406 2.458 . S
O408 C409 1.286 . S
C409 U406 2.984 . S
C409 O407 1.353 . S
C409 O408 1.286 . S
C409 C411 1.363 . S
C410 C400 1.465 . S
C410 U406 2.847 1_556 S
C410 O424 1.249 . S
C410 O425 1.202 . S
C411 C409 1.363 . S
C411 C413 1.408 . S
C411 C416 1.342 . S
C412 C413 1.310 . S
C412 C415 1.461 . S
C412 H432 0.932 . S
C413 C411 1.408 . S
C413 C412 1.310 . S
C413 H433 0.930 . S
C414 C415 1.474 . S
C414 C416 1.285 . S
C414 H434 0.929 . S
C415 C412 1.461 . S
C415 C414 1.474 . S
C416 C411 1.342 . S
C416 C414 1.285 . S
C416 H435 0.930 . S
C417 C420 1.424 1_554 S
C417 C422 1.245 . S
C417 C423 1.428 . S
C418 C421 1.260 . S
C418 C422 1.477 . S
C418 H436 0.932 . S
C419 C420 1.384 . S
C419 C421 1.479 1_556 S
C419 H437 0.929 . S
C420 C417 1.424 1_556 S
C420 C419 1.384 . S
C420 H438 0.928 . S
C421 C418 1.260 . S
C421 C419 1.479 1_554 S
C422 C417 1.245 . S
C422 C418 1.477 . S
C422 H439 0.932 . S
C423 U406 2.882 . S
C423 C417 1.428 . S
C423 O426 1.301 . S
C423 O427 1.282 1_554 S
O424 U406 2.441 1_556 S
O424 C410 1.249 . S
O425 U406 2.420 1_556 S
O425 C410 1.202 . S
O426 U406 2.455 . S
O426 C423 1.301 . S
O427 U406 2.449 1_556 S
O427 C423 1.282 1_556 S
H428 C401 0.931 . S
H429 C403 0.929 . S
H430 C404 0.930 . S
H431 C405 0.931 . S
H432 C412 0.932 . S
H433 C413 0.930 . S
H434 C414 0.929 . S
H435 C416 0.930 . S
H436 C418 0.932 . S
H437 C419 0.929 . S
H438 C420 0.928 . S
H439 C422 0.932 . S
C440 C441 1.264 . S
C440 C445 1.479 . S
C440 C450 1.465 . S
C441 C440 1.264 . S
C441 C443 1.339 . S
C441 H468 0.931 . S
C442 C443 1.395 . S
C442 C444 1.320 . S
C443 C441 1.339 . S
C443 C442 1.395 . S
C443 H469 0.929 . S
C444 C442 1.320 . S
C444 C445 1.405 . S
C444 H470 0.930 . S
C445 C440 1.479 . S
C445 C444 1.405 . S
C445 H471 0.931 . S
U446 O447 2.454 . S
U446 O448 2.458 . S
U446 C449 2.984 . S
U446 C450 2.847 . S
U446 C463 2.882 . S
U446 O464 2.441 . S
U446 O465 2.420 . S
U446 O466 2.455 . S
U446 O467 2.449 . S
O447 U446 2.454 . S
O447 C449 1.353 . S
O448 U446 2.458 . S
O448 C449 1.286 . S
C449 U446 2.984 . S
C449 O447 1.353 . S
C449 O448 1.286 . S
C449 C451 1.363 . S
C450 C440 1.465 . S
C450 U446 2.847 . S
C450 O464 1.249 . S
C450 O465 1.202 . S
C451 C449 1.363 . S
C451 C453 1.408 . S
C451 C456 1.342 . S
C452 C453 1.310 . S
C452 C455 1.461 . S
C452 H472 0.932 . S
C453 C451 1.408 . S
C453 C452 1.310 . S
C453 H473 0.930 . S
C454 C455 1.474 . S
C454 C456 1.285 . S
C454 H474 0.929 . S
C455 C452 1.461 . S
C455 C454 1.474 . S
C456 C451 1.342 . S
C456 C454 1.285 . S
C456 H475 0.930 . S
C457 C460 1.424 . S
C457 C462 1.245 . S
C457 C463 1.428 . S
C458 C461 1.260 . S
C458 C462 1.477 . S
C458 H476 0.932 . S
C459 C460 1.384 . S
C459 C461 1.479 . S
C459 H477 0.929 . S
C460 C457 1.424 . S
C460 C459 1.384 . S
C460 H478 0.928 . S
C461 C458 1.260 . S
C461 C459 1.479 . S
C462 C457 1.245 . S
C462 C458 1.477 . S
C462 H479 0.932 . S
C463 U446 2.882 . S
C463 C457 1.428 . S
C463 O466 1.301 . S
C463 O467 1.282 . S
O464 U446 2.441 . S
O464 C450 1.249 . S
O465 U446 2.420 . S
O465 C450 1.202 . S
O466 U446 2.455 . S
O466 C463 1.301 . S
O467 U446 2.449 . S
O467 C463 1.282 . S
H468 C441 0.931 . S
H469 C443 0.929 . S
H470 C444 0.930 . S
H471 C445 0.931 . S
H472 C452 0.932 . S
H473 C453 0.930 . S
H474 C454 0.929 . S
H475 C456 0.930 . S
H476 C458 0.932 . S
H477 C459 0.929 . S
H478 C460 0.928 . S
H479 C462 0.932 . S
C480 C481 1.264 . S
C480 C485 1.479 . S
C480 C490 1.465 . S
C481 C480 1.264 . S
C481 C483 1.339 . S
C481 H508 0.931 . S
C482 C483 1.395 . S
C482 C484 1.320 . S
C483 C481 1.339 . S
C483 C482 1.395 . S
C483 H509 0.929 . S
C484 C482 1.320 . S
C484 C485 1.405 . S
C484 H510 0.930 . S
C485 C480 1.479 . S
C485 C484 1.405 . S
C485 H511 0.931 . S
U486 O487 2.454 . S
U486 O488 2.458 . S
U486 C489 2.984 . S
U486 C490 2.847 . S
U486 C503 2.882 . S
U486 O504 2.441 . S
U486 O505 2.420 . S
U486 O506 2.455 . S
U486 O507 2.449 . S
O487 U486 2.454 . S
O487 C489 1.353 . S
O488 U486 2.458 . S
O488 C489 1.286 . S
C489 U486 2.984 . S
C489 O487 1.353 . S
C489 O488 1.286 . S
C489 C491 1.363 . S
C490 C480 1.465 . S
C490 U486 2.847 . S
C490 O504 1.249 . S
C490 O505 1.202 . S
C491 C489 1.363 . S
C491 C493 1.408 . S
C491 C496 1.342 . S
C492 C493 1.310 . S
C492 C495 1.461 . S
C492 H512 0.932 . S
C493 C491 1.408 . S
C493 C492 1.310 . S
C493 H513 0.930 . S
C494 C495 1.474 . S
C494 C496 1.285 . S
C494 H514 0.929 . S
C495 C492 1.461 . S
C495 C494 1.474 . S
C496 C491 1.342 . S
C496 C494 1.285 . S
C496 H515 0.930 . S
C497 C500 1.424 . S
C497 C502 1.245 . S
C497 C503 1.428 . S
C498 C501 1.260 . S
C498 C502 1.477 . S
C498 H516 0.932 . S
C499 C500 1.384 . S
C499 C501 1.479 . S
C499 H517 0.929 . S
C500 C497 1.424 . S
C500 C499 1.384 . S
C500 H518 0.928 . S
C501 C498 1.260 . S
C501 C499 1.479 . S
C502 C497 1.245 . S
C502 C498 1.477 . S
C502 H519 0.932 . S
C503 U486 2.882 . S
C503 C497 1.428 . S
C503 O506 1.301 . S
C503 O507 1.282 . S
O504 U486 2.441 . S
O504 C490 1.249 . S
O505 U486 2.420 . S
O505 C490 1.202 . S
O506 U486 2.455 . S
O506 C503 1.301 . S
O507 U486 2.449 . S
O507 C503 1.282 . S
H508 C481 0.931 . S
H509 C483 0.929 . S
H510 C484 0.930 . S
H511 C485 0.931 . S
H512 C492 0.932 . S
H513 C493 0.930 . S
H514 C494 0.929 . S
H515 C496 0.930 . S
H516 C498 0.932 . S
H517 C499 0.929 . S
H518 C500 0.928 . S
H519 C502 0.932 . S
C520 C521 1.264 . S
C520 C525 1.479 . S
C520 C530 1.465 . S
C521 C520 1.264 . S
C521 C523 1.339 . S
C521 H548 0.931 . S
C522 C523 1.395 . S
C522 C524 1.320 . S
C523 C521 1.339 . S
C523 C522 1.395 . S
C523 H549 0.929 . S
C524 C522 1.320 . S
C524 C525 1.405 . S
C524 H550 0.930 . S
C525 C520 1.479 . S
C525 C524 1.405 . S
C525 H551 0.931 . S
U526 O527 2.454 . S
U526 O528 2.458 . S
U526 C529 2.984 . S
U526 C530 2.847 . S
U526 C543 2.882 . S
U526 O544 2.441 . S
U526 O545 2.420 . S
U526 O546 2.455 . S
U526 O547 2.449 . S
O527 U526 2.454 . S
O527 C529 1.353 . S
O528 U526 2.458 . S
O528 C529 1.286 . S
C529 U526 2.984 . S
C529 O527 1.353 . S
C529 O528 1.286 . S
C529 C531 1.363 . S
C530 C520 1.465 . S
C530 U526 2.847 . S
C530 O544 1.249 . S
C530 O545 1.202 . S
C531 C529 1.363 . S
C531 C533 1.408 . S
C531 C536 1.342 . S
C532 C533 1.310 . S
C532 C535 1.461 . S
C532 H552 0.932 . S
C533 C531 1.408 . S
C533 C532 1.310 . S
C533 H553 0.930 . S
C534 C535 1.474 . S
C534 C536 1.285 . S
C534 H554 0.929 . S
C535 C532 1.461 . S
C535 C534 1.474 . S
C536 C531 1.342 . S
C536 C534 1.285 . S
C536 H555 0.930 . S
C537 C540 1.424 . S
C537 C542 1.245 . S
C537 C543 1.428 . S
C538 C541 1.260 . S
C538 C542 1.477 . S
C538 H556 0.932 . S
C539 C540 1.384 . S
C539 C541 1.479 . S
C539 H557 0.929 . S
C540 C537 1.424 . S
C540 C539 1.384 . S
C540 H558 0.928 . S
C541 C538 1.260 . S
C541 C539 1.479 . S
C542 C537 1.245 . S
C542 C538 1.477 . S
C542 H559 0.932 . S
C543 U526 2.882 . S
C543 C537 1.428 . S
C543 O546 1.301 . S
C543 O547 1.282 . S
O544 U526 2.441 . S
O544 C530 1.249 . S
O545 U526 2.420 . S
O545 C530 1.202 . S
O546 U526 2.455 . S
O546 C543 1.301 . S
O547 U526 2.449 . S
O547 C543 1.282 . S
H548 C521 0.931 . S
H549 C523 0.929 . S
H550 C524 0.930 . S
H551 C525 0.931 . S
H552 C532 0.932 . S
H553 C533 0.930 . S
H554 C534 0.929 . S
H555 C536 0.930 . S
H556 C538 0.932 . S
H557 C539 0.929 . S
H558 C540 0.928 . S
H559 C542 0.932 . S
C560 C561 1.264 . S
C560 C565 1.479 . S
C560 C570 1.465 . S
C561 C560 1.264 . S
C561 C563 1.339 . S
C561 H588 0.931 . S
C562 C563 1.395 . S
C562 C564 1.320 . S
C563 C561 1.339 . S
C563 C562 1.395 . S
C563 H589 0.929 . S
C564 C562 1.320 . S
C564 C565 1.405 . S
C564 H590 0.930 1_554 S
C565 C560 1.479 . S
C565 C564 1.405 . S
C565 H591 0.931 1_554 S
U566 O567 2.454 1_554 S
U566 O568 2.458 . S
U566 C569 2.984 1_554 S
U566 C570 2.847 . S
U566 C583 2.882 . S
U566 O584 2.441 . S
U566 O585 2.420 . S
U566 O586 2.455 . S
U566 O587 2.449 . S
O567 U566 2.454 1_556 S
O567 C569 1.353 . S
O568 U566 2.458 . S
O568 C569 1.286 1_554 S
C569 U566 2.984 1_556 S
C569 O567 1.353 . S
C569 O568 1.286 1_556 S
C569 C571 1.363 . S
C570 C560 1.465 . S
C570 U566 2.847 . S
C570 O584 1.249 . S
C570 O585 1.202 . S
C571 C569 1.363 . S
C571 C573 1.408 . S
C571 C576 1.342 . S
C572 C573 1.310 . S
C572 C575 1.461 . S
C572 H592 0.932 . S
C573 C571 1.408 . S
C573 C572 1.310 . S
C573 H593 0.930 . S
C574 C575 1.474 . S
C574 C576 1.285 . S
C574 H594 0.929 . S
C575 C572 1.461 . S
C575 C574 1.474 . S
C576 C571 1.342 . S
C576 C574 1.285 . S
C576 H595 0.930 . S
C577 C580 1.424 . S
C577 C582 1.245 . S
C577 C583 1.428 . S
C578 C581 1.260 . S
C578 C582 1.477 . S
C578 H596 0.932 . S
C579 C580 1.384 . S
C579 C581 1.479 . S
C579 H597 0.929 . S
C580 C577 1.424 . S
C580 C579 1.384 . S
C580 H598 0.928 . S
C581 C578 1.260 . S
C581 C579 1.479 . S
C582 C577 1.245 . S
C582 C578 1.477 . S
C582 H599 0.932 . S
C583 U566 2.882 . S
C583 C577 1.428 . S
C583 O586 1.301 . S
C583 O587 1.282 . S
O584 U566 2.441 . S
O584 C570 1.249 . S
O585 U566 2.420 . S
O585 C570 1.202 . S
O586 U566 2.455 . S
O586 C583 1.301 . S
O587 U566 2.449 . S
O587 C583 1.282 . S
H588 C561 0.931 . S
H589 C563 0.929 . S
H590 C564 0.930 1_556 S
H591 C565 0.931 1_556 S
H592 C572 0.932 . S
H593 C573 0.930 . S
H594 C574 0.929 . S
H595 C576 0.930 . S
H596 C578 0.932 . S
H597 C579 0.929 . S
H598 C580 0.928 . S
H599 C582 0.932 . S
C600 C601 1.264 . S
C600 C605 1.479 . S
C600 C610 1.465 . S
C601 C600 1.264 . S
C601 C603 1.339 . S
C601 H628 0.931 . S
C602 C603 1.395 . S
C602 C604 1.320 . S
C603 C601 1.339 . S
C603 C602 1.395 . S
C603 H629 0.929 . S
C604 C602 1.320 . S
C604 C605 1.405 . S
C604 H630 0.930 . S
C605 C600 1.479 . S
C605 C604 1.405 . S
C605 H631 0.931 . S
U606 O607 2.454 . S
U606 O608 2.458 . S
U606 C609 2.984 . S
U606 C610 2.847 . S
U606 C623 2.882 . S
U606 O624 2.441 . S
U606 O625 2.420 . S
U606 O626 2.455 . S
U606 O627 2.449 . S
O607 U606 2.454 . S
O607 C609 1.353 . S
O608 U606 2.458 . S
O608 C609 1.286 . S
C609 U606 2.984 . S
C609 O607 1.353 . S
C609 O608 1.286 . S
C609 C611 1.363 . S
C610 C600 1.465 . S
C610 U606 2.847 . S
C610 O624 1.249 . S
C610 O625 1.202 . S
C611 C609 1.363 . S
C611 C613 1.408 . S
C611 C616 1.342 . S
C612 C613 1.310 . S
C612 C615 1.461 . S
C612 H632 0.932 . S
C613 C611 1.408 . S
C613 C612 1.310 . S
C613 H633 0.930 . S
C614 C615 1.474 . S
C614 C616 1.285 . S
C614 H634 0.929 . S
C615 C612 1.461 . S
C615 C614 1.474 . S
C616 C611 1.342 . S
C616 C614 1.285 . S
C616 H635 0.930 . S
C617 C620 1.424 . S
C617 C622 1.245 . S
C617 C623 1.428 . S
C618 C621 1.260 . S
C618 C622 1.477 . S
C618 H636 0.932 . S
C619 C620 1.384 . S
C619 C621 1.479 . S
C619 H637 0.929 . S
C620 C617 1.424 . S
C620 C619 1.384 . S
C620 H638 0.928 . S
C621 C618 1.260 . S
C621 C619 1.479 . S
C622 C617 1.245 . S
C622 C618 1.477 . S
C622 H639 0.932 . S
C623 U606 2.882 . S
C623 C617 1.428 . S
C623 O626 1.301 . S
C623 O627 1.282 . S
O624 U606 2.441 . S
O624 C610 1.249 . S
O625 U606 2.420 . S
O625 C610 1.202 . S
O626 U606 2.455 . S
O626 C623 1.301 . S
O627 U606 2.449 . S
O627 C623 1.282 . S
H628 C601 0.931 . S
H629 C603 0.929 . S
H630 C604 0.930 . S
H631 C605 0.931 . S
H632 C612 0.932 . S
H633 C613 0.930 . S
H634 C614 0.929 . S
H635 C616 0.930 . S
H636 C618 0.932 . S
H637 C619 0.929 . S
H638 C620 0.928 . S
H639 C622 0.932 . S
H640 C646 0.930 . S
H641 C650 0.930 . S
H642 C655 0.929 . S
H643 C653 0.929 . S
H644 C648 0.929 . S
H645 C654 0.929 . S
C646 H640 0.930 . S
C646 C647 1.367 . S
C646 C654 1.378 . S
C647 C646 1.367 . S
C647 C655 1.433 . S
C648 H644 0.929 . S
C648 C650 1.378 . S
C648 C652 1.350 . S
C649 C652 1.463 . S
C649 C654 1.350 . S
C649 N657 1.427 . S
C650 H641 0.930 . S
C650 C648 1.378 . S
C650 C651 1.367 . S
C651 C650 1.367 . S
C651 C653 1.433 . S
C652 C648 1.350 . S
C652 C649 1.463 . S
C652 N656 1.427 . S
C653 H643 0.929 . S
C653 C651 1.433 . S
C653 N656 1.384 . S
C654 H645 0.929 . S
C654 C646 1.378 . S
C654 C649 1.350 . S
C655 H642 0.929 . S
C655 C647 1.433 . S
C655 N657 1.384 . S
N656 C652 1.427 . S
N656 C653 1.384 . S
N657 C649 1.427 . S
N657 C655 1.384 . S
H658 C664 0.930 . S
H659 C668 0.930 . S
H660 C673 0.929 . S
H661 C671 0.929 . S
H662 C666 0.929 . S
H663 C672 0.929 . S
C664 H658 0.930 . S
C664 C665 1.367 . S
C664 C672 1.378 . S
C665 C664 1.367 . S
C665 C673 1.433 . S
C666 H662 0.929 . S
C666 C668 1.378 . S
C666 C670 1.350 . S
C667 C670 1.463 . S
C667 C672 1.350 . S
C667 N675 1.427 . S
C668 H659 0.930 . S
C668 C666 1.378 . S
C668 C669 1.367 . S
C669 C668 1.367 . S
C669 C671 1.433 . S
C670 C666 1.350 . S
C670 C667 1.463 . S
C670 N674 1.427 . S
C671 H661 0.929 . S
C671 C669 1.433 . S
C671 N674 1.384 . S
C672 H663 0.929 . S
C672 C664 1.378 . S
C672 C667 1.350 . S
C673 H660 0.929 . S
C673 C665 1.433 . S
C673 N675 1.384 . S
N674 C670 1.427 . S
N674 C671 1.384 . S
N675 C667 1.427 . S
N675 C673 1.384 . S
H676 C682 0.930 . S
H677 C686 0.930 . S
H678 C691 0.929 . S
H679 C689 0.929 . S
H680 C684 0.929 . S
H681 C690 0.929 . S
C682 H676 0.930 . S
C682 C683 1.367 . S
C682 C690 1.378 . S
C683 C682 1.367 . S
C683 C691 1.433 . S
C684 H680 0.929 . S
C684 C686 1.378 . S
C684 C688 1.350 . S
C685 C688 1.463 . S
C685 C690 1.350 . S
C685 N693 1.427 . S
C686 H677 0.930 . S
C686 C684 1.378 . S
C686 C687 1.367 . S
C687 C686 1.367 . S
C687 C689 1.433 . S
C688 C684 1.350 . S
C688 C685 1.463 . S
C688 N692 1.427 . S
C689 H679 0.929 . S
C689 C687 1.433 . S
C689 N692 1.384 . S
C690 H681 0.929 . S
C690 C682 1.378 . S
C690 C685 1.350 . S
C691 H678 0.929 . S
C691 C683 1.433 . S
C691 N693 1.384 . S
N692 C688 1.427 . S
N692 C689 1.384 . S
N693 C685 1.427 . S
N693 C691 1.384 . S
H694 C700 0.930 . S
H695 C704 0.930 . S
H696 C709 0.929 . S
H697 C707 0.929 . S
H698 C702 0.929 . S
H699 C708 0.929 . S
C700 H694 0.930 . S
C700 C701 1.367 . S
C700 C708 1.378 . S
C701 C700 1.367 . S
C701 C709 1.433 . S
C702 H698 0.929 . S
C702 C704 1.378 . S
C702 C706 1.350 . S
C703 C706 1.463 . S
C703 C708 1.350 . S
C703 N711 1.427 . S
C704 H695 0.930 . S
C704 C702 1.378 . S
C704 C705 1.367 . S
C705 C704 1.367 . S
C705 C707 1.433 . S
C706 C702 1.350 . S
C706 C703 1.463 . S
C706 N710 1.427 . S
C707 H697 0.929 . S
C707 C705 1.433 . S
C707 N710 1.384 . S
C708 H699 0.929 . S
C708 C700 1.378 . S
C708 C703 1.350 . S
C709 H696 0.929 . S
C709 C701 1.433 . S
C709 N711 1.384 . S
N710 C706 1.427 . S
N710 C707 1.384 . S
N711 C703 1.427 . S
N711 C709 1.384 . S
H712 C718 0.930 . S
H713 C722 0.930 . S
H714 C727 0.929 . S
H715 C725 0.929 . S
H716 C720 0.929 . S
H717 C726 0.929 . S
C718 H712 0.930 . S
C718 C719 1.367 . S
C718 C726 1.378 . S
C719 C718 1.367 . S
C719 C727 1.433 . S
C720 H716 0.929 . S
C720 C722 1.378 . S
C720 C724 1.350 . S
C721 C724 1.463 . S
C721 C726 1.350 . S
C721 N729 1.427 . S
C722 H713 0.930 . S
C722 C720 1.378 . S
C722 C723 1.367 . S
C723 C722 1.367 . S
C723 C725 1.433 . S
C724 C720 1.350 . S
C724 C721 1.463 . S
C724 N728 1.427 . S
C725 H715 0.929 . S
C725 C723 1.433 . S
C725 N728 1.384 . S
C726 H717 0.929 . S
C726 C718 1.378 . S
C726 C721 1.350 . S
C727 H714 0.929 . S
C727 C719 1.433 . S
C727 N729 1.384 . S
N728 C724 1.427 . S
N728 C725 1.384 . S
N729 C721 1.427 . S
N729 C727 1.384 . S
H730 C736 0.930 . S
H731 C740 0.930 . S
H732 C745 0.929 . S
H733 C743 0.929 . S
H734 C738 0.929 . S
H735 C744 0.929 . S
C736 H730 0.930 . S
C736 C737 1.367 . S
C736 C744 1.378 . S
C737 C736 1.367 . S
C737 C745 1.433 . S
C738 H734 0.929 . S
C738 C740 1.378 . S
C738 C742 1.350 . S
C739 C742 1.463 . S
C739 C744 1.350 . S
C739 N747 1.427 . S
C740 H731 0.930 . S
C740 C738 1.378 . S
C740 C741 1.367 . S
C741 C740 1.367 . S
C741 C743 1.433 . S
C742 C738 1.350 . S
C742 C739 1.463 . S
C742 N746 1.427 . S
C743 H733 0.929 . S
C743 C741 1.433 . S
C743 N746 1.384 . S
C744 H735 0.929 . S
C744 C736 1.378 . S
C744 C739 1.350 . S
C745 H732 0.929 . S
C745 C737 1.433 . S
C745 N747 1.384 . S
N746 C742 1.427 . S
N746 C743 1.384 . S
N747 C739 1.427 . S
N747 C745 1.384 . S
H748 C754 0.930 . S
H749 C758 0.930 . S
H750 C763 0.929 . S
H751 C761 0.929 . S
H752 C756 0.929 . S
H753 C762 0.929 . S
C754 H748 0.930 . S
C754 C755 1.367 . S
C754 C762 1.378 . S
C755 C754 1.367 . S
C755 C763 1.433 . S
C756 H752 0.929 . S
C756 C758 1.378 . S
C756 C760 1.350 . S
C757 C760 1.463 . S
C757 C762 1.350 . S
C757 N765 1.427 . S
C758 H749 0.930 . S
C758 C756 1.378 . S
C758 C759 1.367 . S
C759 C758 1.367 . S
C759 C761 1.433 . S
C760 C756 1.350 . S
C760 C757 1.463 . S
C760 N764 1.427 . S
C761 H751 0.929 . S
C761 C759 1.433 . S
C761 N764 1.384 . S
C762 H753 0.929 . S
C762 C754 1.378 . S
C762 C757 1.350 . S
C763 H750 0.929 . S
C763 C755 1.433 . S
C763 N765 1.384 . S
N764 C760 1.427 . S
N764 C761 1.384 . S
N765 C757 1.427 . S
N765 C763 1.384 . S
H766 C772 0.930 . S
H767 C776 0.930 . S
H768 C781 0.929 . S
H769 C779 0.929 . S
H770 C774 0.929 . S
H771 C780 0.929 . S
C772 H766 0.930 . S
C772 C773 1.367 . S
C772 C780 1.378 . S
C773 C772 1.367 . S
C773 C781 1.433 . S
C774 H770 0.929 . S
C774 C776 1.378 . S
C774 C778 1.350 . S
C775 C778 1.463 . S
C775 C780 1.350 . S
C775 N783 1.427 . S
C776 H767 0.930 . S
C776 C774 1.378 . S
C776 C777 1.367 . S
C777 C776 1.367 . S
C777 C779 1.433 . S
C778 C774 1.350 . S
C778 C775 1.463 . S
C778 N782 1.427 . S
C779 H769 0.929 . S
C779 C777 1.433 . S
C779 N782 1.384 . S
C780 H771 0.929 . S
C780 C772 1.378 . S
C780 C775 1.350 . S
C781 H768 0.929 . S
C781 C773 1.433 . S
C781 N783 1.384 . S
N782 C778 1.427 . S
N782 C779 1.384 . S
N783 C775 1.427 . S
N783 C781 1.384 . S
H784 C790 0.930 . S
H785 C794 0.930 . S
H786 C799 0.929 . S
H787 C797 0.929 . S
H788 C792 0.929 . S
H789 C798 0.929 . S
C790 H784 0.930 . S
C790 C791 1.367 . S
C790 C798 1.378 . S
C791 C790 1.367 . S
C791 C799 1.433 . S
C792 H788 0.929 . S
C792 C794 1.378 . S
C792 C796 1.350 . S
C793 C796 1.463 . S
C793 C798 1.350 . S
C793 N801 1.427 . S
C794 H785 0.930 . S
C794 C792 1.378 . S
C794 C795 1.367 . S
C795 C794 1.367 . S
C795 C797 1.433 . S
C796 C792 1.350 . S
C796 C793 1.463 . S
C796 N800 1.427 . S
C797 H787 0.929 . S
C797 C795 1.433 . S
C797 N800 1.384 . S
C798 H789 0.929 . S
C798 C790 1.378 . S
C798 C793 1.350 . S
C799 H786 0.929 . S
C799 C791 1.433 . S
C799 N801 1.384 . S
N800 C796 1.427 . S
N800 C797 1.384 . S
N801 C793 1.427 . S
N801 C799 1.384 . S
H802 C808 0.930 . S
H803 C812 0.930 . S
H804 C817 0.929 . S
H805 C815 0.929 . S
H806 C810 0.929 . S
H807 C816 0.929 . S
C808 H802 0.930 . S
C808 C809 1.367 . S
C808 C816 1.378 . S
C809 C808 1.367 . S
C809 C817 1.433 . S
C810 H806 0.929 . S
C810 C812 1.378 . S
C810 C814 1.350 . S
C811 C814 1.463 . S
C811 C816 1.350 . S
C811 N819 1.427 . S
C812 H803 0.930 . S
C812 C810 1.378 . S
C812 C813 1.367 . S
C813 C812 1.367 . S
C813 C815 1.433 . S
C814 C810 1.350 . S
C814 C811 1.463 . S
C814 N818 1.427 . S
C815 H805 0.929 . S
C815 C813 1.433 . S
C815 N818 1.384 . S
C816 H807 0.929 . S
C816 C808 1.378 . S
C816 C811 1.350 . S
C817 H804 0.929 . S
C817 C809 1.433 . S
C817 N819 1.384 . S
N818 C814 1.427 . S
N818 C815 1.384 . S
N819 C811 1.427 . S
N819 C817 1.384 . S
H820 C826 0.930 . S
H821 C830 0.930 . S
H822 C835 0.929 . S
H823 C833 0.929 . S
H824 C828 0.929 . S
H825 C834 0.929 . S
C826 H820 0.930 . S
C826 C827 1.367 . S
C826 C834 1.378 . S
C827 C826 1.367 . S
C827 C835 1.433 . S
C828 H824 0.929 . S
C828 C830 1.378 . S
C828 C832 1.350 . S
C829 C832 1.463 . S
C829 C834 1.350 . S
C829 N837 1.427 . S
C830 H821 0.930 . S
C830 C828 1.378 . S
C830 C831 1.367 . S
C831 C830 1.367 . S
C831 C833 1.433 . S
C832 C828 1.350 . S
C832 C829 1.463 . S
C832 N836 1.427 . S
C833 H823 0.929 . S
C833 C831 1.433 . S
C833 N836 1.384 . S
C834 H825 0.929 . S
C834 C826 1.378 . S
C834 C829 1.350 . S
C835 H822 0.929 . S
C835 C827 1.433 . S
C835 N837 1.384 . S
N836 C832 1.427 . S
N836 C833 1.384 . S
N837 C829 1.427 . S
N837 C835 1.384 . S
H838 C844 0.930 . S
H839 C848 0.930 . S
H840 C853 0.929 . S
H841 C851 0.929 . S
H842 C846 0.929 . S
H843 C852 0.929 . S
C844 H838 0.930 . S
C844 C845 1.367 . S
C844 C852 1.378 . S
C845 C844 1.367 . S
C845 C853 1.433 . S
C846 H842 0.929 . S
C846 C848 1.378 . S
C846 C850 1.350 . S
C847 C850 1.463 . S
C847 C852 1.350 . S
C847 N855 1.427 . S
C848 H839 0.930 . S
C848 C846 1.378 . S
C848 C849 1.367 . S
C849 C848 1.367 . S
C849 C851 1.433 . S
C850 C846 1.350 . S
C850 C847 1.463 . S
C850 N854 1.427 . S
C851 H841 0.929 . S
C851 C849 1.433 . S
C851 N854 1.384 . S
C852 H843 0.929 . S
C852 C844 1.378 . S
C852 C847 1.350 . S
C853 H840 0.929 . S
C853 C845 1.433 . S
C853 N855 1.384 . S
N854 C850 1.427 . S
N854 C851 1.384 . S
N855 C847 1.427 . S
N855 C853 1.384 . S
H856 C862 0.930 . S
H857 C866 0.930 . S
H858 C871 0.929 . S
H859 C869 0.929 . S
H860 C864 0.929 . S
H861 C870 0.929 . S
C862 H856 0.930 . S
C862 C863 1.367 . S
C862 C870 1.378 . S
C863 C862 1.367 . S
C863 C871 1.433 . S
C864 H860 0.929 . S
C864 C866 1.378 . S
C864 C868 1.350 . S
C865 C868 1.463 . S
C865 C870 1.350 . S
C865 N873 1.427 . S
C866 H857 0.930 . S
C866 C864 1.378 . S
C866 C867 1.367 . S
C867 C866 1.367 . S
C867 C869 1.433 . S
C868 C864 1.350 . S
C868 C865 1.463 . S
C868 N872 1.427 . S
C869 H859 0.929 . S
C869 C867 1.433 . S
C869 N872 1.384 . S
C870 H861 0.929 . S
C870 C862 1.378 . S
C870 C865 1.350 . S
C871 H858 0.929 . S
C871 C863 1.433 . S
C871 N873 1.384 . S
N872 C868 1.427 . S
N872 C869 1.384 . S
N873 C865 1.427 . S
N873 C871 1.384 . S
H874 C880 0.930 . S
H875 C884 0.930 . S
H876 C889 0.929 . S
H877 C887 0.929 . S
H878 C882 0.929 . S
H879 C888 0.929 . S
C880 H874 0.930 . S
C880 C881 1.367 . S
C880 C888 1.378 . S
C881 C880 1.367 . S
C881 C889 1.433 . S
C882 H878 0.929 . S
C882 C884 1.378 . S
C882 C886 1.350 . S
C883 C886 1.463 . S
C883 C888 1.350 . S
C883 N891 1.427 . S
C884 H875 0.930 . S
C884 C882 1.378 . S
C884 C885 1.367 . S
C885 C884 1.367 . S
C885 C887 1.433 . S
C886 C882 1.350 . S
C886 C883 1.463 . S
C886 N890 1.427 . S
C887 H877 0.929 . S
C887 C885 1.433 . S
C887 N890 1.384 . S
C888 H879 0.929 . S
C888 C880 1.378 . S
C888 C883 1.350 . S
C889 H876 0.929 . S
C889 C881 1.433 . S
C889 N891 1.384 . S
N890 C886 1.427 . S
N890 C887 1.384 . S
N891 C883 1.427 . S
N891 C889 1.384 . S
H892 C898 0.930 . S
H893 C902 0.930 . S
H894 C907 0.929 . S
H895 C905 0.929 . S
H896 C900 0.929 . S
H897 C906 0.929 . S
C898 H892 0.930 . S
C898 C899 1.367 . S
C898 C906 1.378 . S
C899 C898 1.367 . S
C899 C907 1.433 . S
C900 H896 0.929 . S
C900 C902 1.378 . S
C900 C904 1.350 . S
C901 C904 1.463 . S
C901 C906 1.350 . S
C901 N909 1.427 . S
C902 H893 0.930 . S
C902 C900 1.378 . S
C902 C903 1.367 . S
C903 C902 1.367 . S
C903 C905 1.433 . S
C904 C900 1.350 . S
C904 C901 1.463 . S
C904 N908 1.427 . S
C905 H895 0.929 . S
C905 C903 1.433 . S
C905 N908 1.384 . S
C906 H897 0.929 . S
C906 C898 1.378 . S
C906 C901 1.350 . S
C907 H894 0.929 . S
C907 C899 1.433 . S
C907 N909 1.384 . S
N908 C904 1.427 . S
N908 C905 1.384 . S
N909 C901 1.427 . S
N909 C907 1.384 . S
H910 C916 0.930 . S
H911 C920 0.930 . S
H912 C925 0.929 . S
H913 C923 0.929 . S
H914 C918 0.929 . S
H915 C924 0.929 . S
C916 H910 0.930 . S
C916 C917 1.367 . S
C916 C924 1.378 . S
C917 C916 1.367 . S
C917 C925 1.433 . S
C918 H914 0.929 . S
C918 C920 1.378 . S
C918 C922 1.350 . S
C919 C922 1.463 . S
C919 C924 1.350 . S
C919 N927 1.427 . S
C920 H911 0.930 . S
C920 C918 1.378 . S
C920 C921 1.367 . S
C921 C920 1.367 . S
C921 C923 1.433 . S
C922 C918 1.350 . S
C922 C919 1.463 . S
C922 N926 1.427 . S
C923 H913 0.929 . S
C923 C921 1.433 . S
C923 N926 1.384 . S
C924 H915 0.929 . S
C924 C916 1.378 . S
C924 C919 1.350 . S
C925 H912 0.929 . S
C925 C917 1.433 . S
C925 N927 1.384 . S
N926 C922 1.427 . S
N926 C923 1.384 . S
N927 C919 1.427 . S
N927 C925 1.384 . S
H928 C934 0.972 . S
H929 C938 0.930 . S
H930 C943 0.929 1_565 S
H931 C941 0.929 . S
H932 C936 0.929 . S
H933 C942 0.929 . S
C934 H928 0.972 . S
C934 C935 1.323 1_556 S
C934 C942 1.383 . S
C935 C934 1.323 1_554 S
C935 C943 1.433 . S
C936 H932 0.929 . S
C936 C938 1.378 . S
C936 C940 1.350 1_565 S
C937 C940 1.463 1_655 S
C937 C942 1.350 1_554 S
C937 N945 1.427 . S
C938 H929 0.930 . S
C938 C936 1.378 . S
C938 C939 1.367 1_565 S
C939 C938 1.367 1_545 S
C939 C941 1.433 1_554 S
C940 C936 1.350 1_545 S
C940 C937 1.463 1_455 S
C940 N944 1.427 1_554 S
C941 H931 0.929 . S
C941 C939 1.433 1_556 S
C941 N944 1.384 . S
C942 H933 0.929 . S
C942 C934 1.383 . S
C942 C937 1.350 1_556 S
C943 H930 0.929 1_545 S
C943 C935 1.433 . S
C943 N945 1.384 . S
N944 C940 1.427 1_556 S
N944 C941 1.384 . S
N945 C937 1.427 . S
N945 C943 1.384 . S
H946 C952 0.930 . S
H947 C956 0.930 . S
H948 C961 0.929 . S
H949 C959 0.929 . S
H950 C954 0.929 . S
H951 C960 0.929 . S
C952 H946 0.930 . S
C952 C953 1.367 . S
C952 C960 1.378 . S
C953 C952 1.367 . S
C953 C961 1.433 . S
C954 H950 0.929 . S
C954 C956 1.378 . S
C954 C958 1.350 . S
C955 C958 1.463 . S
C955 C960 1.350 . S
C955 N963 1.427 . S
C956 H947 0.930 . S
C956 C954 1.378 . S
C956 C957 1.367 . S
C957 C956 1.367 . S
C957 C959 1.433 . S
C958 C954 1.350 . S
C958 C955 1.463 . S
C958 N962 1.427 . S
C959 H949 0.929 . S
C959 C957 1.433 . S
C959 N962 1.384 . S
C960 H951 0.929 . S
C960 C952 1.378 . S
C960 C955 1.350 . S
C961 H948 0.929 . S
C961 C953 1.433 . S
C961 N963 1.384 . S
N962 C958 1.427 . S
N962 C959 1.384 . S
N963 C955 1.427 . S
N963 C961 1.384 . S
H964 C970 0.930 . S
H965 C974 0.930 . S
H966 C979 0.927 . S
H967 C977 0.929 . S
H968 C972 0.929 . S
H969 C978 0.929 . S
C970 H964 0.930 . S
C970 C971 1.367 . S
C970 C978 1.378 . S
C971 C970 1.367 . S
C971 C979 1.436 1_545 S
C972 H968 0.929 . S
C972 C974 1.378 . S
C972 C976 1.350 1_565 S
C973 C976 1.463 . S
C973 C978 1.350 . S
C973 N981 1.427 1_545 S
C974 H965 0.930 . S
C974 C972 1.378 . S
C974 C975 1.367 1_565 S
C975 C974 1.367 1_545 S
C975 C977 1.433 . S
C976 C972 1.350 1_545 S
C976 C973 1.463 . S
C976 N980 1.427 . S
C977 H967 0.929 . S
C977 C975 1.433 . S
C977 N980 1.384 . S
C978 H969 0.929 . S
C978 C970 1.378 . S
C978 C973 1.350 . S
C979 H966 0.927 . S
C979 C971 1.436 1_565 S
C979 N981 1.383 . S
N980 C976 1.427 . S
N980 C977 1.384 . S
N981 C973 1.427 1_565 S
N981 C979 1.383 . S
H982 C988 0.930 . S
H983 C992 0.930 . S
H984 C997 0.929 . S
H985 C995 0.929 . S
H986 C990 0.929 . S
H987 C996 0.929 . S
C988 H982 0.930 . S
C988 C989 1.367 . S
C988 C996 1.378 . S
C989 C988 1.367 . S
C989 C997 1.433 . S
C990 H986 0.929 . S
C990 C992 1.378 . S
C990 C994 1.350 . S
C991 C994 1.463 . S
C991 C996 1.350 . S
C991 N999 1.427 . S
C992 H983 0.930 . S
C992 C990 1.378 . S
C992 C993 1.367 . S
C993 C992 1.367 . S
C993 C995 1.433 . S
C994 C990 1.350 . S
C994 C991 1.463 . S
C994 N998 1.427 . S
C995 H985 0.929 . S
C995 C993 1.433 . S
C995 N998 1.384 . S
C996 H987 0.929 . S
C996 C988 1.378 . S
C996 C991 1.350 . S
C997 H984 0.929 . S
C997 C989 1.433 . S
C997 N999 1.384 . S
N998 C994 1.427 . S
N998 C995 1.384 . S
N999 C991 1.427 . S
N999 C997 1.384 . S
H1000 C1006 0.930 . S
H1001 C1010 0.930 . S
H1002 C1015 0.929 . S
H1003 C1013 0.929 . S
H1004 C1008 0.929 . S
H1005 C1014 0.929 . S
C1006 H1000 0.930 . S
C1006 C1007 1.367 . S
C1006 C1014 1.378 . S
C1007 C1006 1.367 . S
C1007 C1015 1.433 . S
C1008 H1004 0.929 . S
C1008 C1010 1.378 . S
C1008 C1012 1.350 . S
C1009 C1012 1.463 . S
C1009 C1014 1.350 . S
C1009 N1017 1.427 . S
C1010 H1001 0.930 . S
C1010 C1008 1.378 . S
C1010 C1011 1.367 . S
C1011 C1010 1.367 . S
C1011 C1013 1.433 . S
C1012 C1008 1.350 . S
C1012 C1009 1.463 . S
C1012 N1016 1.427 . S
C1013 H1003 0.929 . S
C1013 C1011 1.433 . S
C1013 N1016 1.384 . S
C1014 H1005 0.929 . S
C1014 C1006 1.378 . S
C1014 C1009 1.350 . S
C1015 H1002 0.929 . S
C1015 C1007 1.433 . S
C1015 N1017 1.384 . S
N1016 C1012 1.427 . S
N1016 C1013 1.384 . S
N1017 C1009 1.427 . S
N1017 C1015 1.384 . S
H1018 C1024 0.930 . S
H1019 C1028 0.930 . S
H1020 C1033 0.929 . S
H1021 C1031 0.929 . S
H1022 C1026 0.929 . S
H1023 C1032 0.929 . S
C1024 H1018 0.930 . S
C1024 C1025 1.367 . S
C1024 C1032 1.378 . S
C1025 C1024 1.367 . S
C1025 C1033 1.433 . S
C1026 H1022 0.929 . S
C1026 C1028 1.378 . S
C1026 C1030 1.350 . S
C1027 C1030 1.463 . S
C1027 C1032 1.350 . S
C1027 N1035 1.427 . S
C1028 H1019 0.930 . S
C1028 C1026 1.378 . S
C1028 C1029 1.367 . S
C1029 C1028 1.367 . S
C1029 C1031 1.433 . S
C1030 C1026 1.350 . S
C1030 C1027 1.463 . S
C1030 N1034 1.427 . S
C1031 H1021 0.929 . S
C1031 C1029 1.433 . S
C1031 N1034 1.384 . S
C1032 H1023 0.929 . S
C1032 C1024 1.378 . S
C1032 C1027 1.350 . S
C1033 H1020 0.929 . S
C1033 C1025 1.433 . S
C1033 N1035 1.384 . S
N1034 C1030 1.427 . S
N1034 C1031 1.384 . S
N1035 C1027 1.427 . S
N1035 C1033 1.384 . S
H1036 C1042 0.930 . S
H1037 C1046 0.930 . S
H1038 C1051 0.929 . S
H1039 C1049 0.929 . S
H1040 C1044 0.929 . S
H1041 C1050 0.929 . S
C1042 H1036 0.930 . S
C1042 C1043 1.367 . S
C1042 C1050 1.378 . S
C1043 C1042 1.367 . S
C1043 C1051 1.433 . S
C1044 H1040 0.929 . S
C1044 C1046 1.378 . S
C1044 C1048 1.350 . S
C1045 C1048 1.463 . S
C1045 C1050 1.350 . S
C1045 N1053 1.427 . S
C1046 H1037 0.930 . S
C1046 C1044 1.378 . S
C1046 C1047 1.367 . S
C1047 C1046 1.367 . S
C1047 C1049 1.433 . S
C1048 C1044 1.350 . S
C1048 C1045 1.463 . S
C1048 N1052 1.427 . S
C1049 H1039 0.929 . S
C1049 C1047 1.433 . S
C1049 N1052 1.384 . S
C1050 H1041 0.929 . S
C1050 C1042 1.378 . S
C1050 C1045 1.350 . S
C1051 H1038 0.929 . S
C1051 C1043 1.433 . S
C1051 N1053 1.384 . S
N1052 C1048 1.427 . S
N1052 C1049 1.384 . S
N1053 C1045 1.427 . S
N1053 C1051 1.384 . S
H1054 C1060 0.930 . S
H1055 C1064 0.930 . S
H1056 C1069 0.929 . S
H1057 C1067 0.929 1_556 S
H1058 C1062 0.929 . S
H1059 C1068 0.929 . S
C1060 H1054 0.930 . S
C1060 C1061 1.367 1_556 S
C1060 C1068 1.378 . S
C1061 C1060 1.367 1_554 S
C1061 C1069 1.433 . S
C1062 H1058 0.929 . S
C1062 C1064 1.378 . S
C1062 C1066 1.350 . S
C1063 C1066 1.463 1_655 S
C1063 C1068 1.350 1_554 S
C1063 N1071 1.427 . S
C1064 H1055 0.930 . S
C1064 C1062 1.378 . S
C1064 C1065 1.367 . S
C1065 C1064 1.367 . S
C1065 C1067 1.433 . S
C1066 C1062 1.350 . S
C1066 C1063 1.463 1_455 S
C1066 N1070 1.426 . S
C1067 H1057 0.929 1_554 S
C1067 C1065 1.433 . S
C1067 N1070 1.383 . S
C1068 H1059 0.929 . S
C1068 C1060 1.378 . S
C1068 C1063 1.350 1_556 S
C1069 H1056 0.929 . S
C1069 C1061 1.433 . S
C1069 N1071 1.384 . S
N1070 C1066 1.426 . S
N1070 C1067 1.383 . S
N1071 C1063 1.427 . S
N1071 C1069 1.384 . S
C647 C21 1.492 . S
C651 C141 1.495 . S
C665 C61 1.487 . S
C669 C15 1.502 . S
C683 C55 1.504 . S
C687 C82 1.493 . S
C701 C135 1.505 . S
C705 C95 1.505 . S
C719 C301 1.497 . S
C723 C162 1.492 . S
C737 C175 1.503 . S
C741 C221 1.490 . S
C755 C261 1.498 . S
C759 C215 1.503 . S
C773 C295 1.508 . S
C777 C255 1.508 . S
C791 C461 1.492 . S
C795 C341 1.489 . S
C809 C335 1.503 . S
C813 C381 1.487 . S
C827 C402 1.496 . S
C831 C375 1.504 . S
C845 C415 1.506 . S
C849 C455 1.506 . S
C863 C482 1.495 . S
C867 C621 1.492 . S
C881 C541 1.488 . S
C885 C495 1.502 . S
C899 C535 1.503 . S
C903 C581 1.499 . S
C917 C575 1.507 . S
C921 C615 1.507 . S
C935 C181 1.491 . S
C939 C2 1.488 . S
C953 C522 1.488 . S
C957 C42 1.488 . S
C971 C101 1.505 . S
C975 C242 1.501 . S
C989 C602 1.490 . S
C993 C122 1.503 . S
C1007 C362 1.482 . S
C1011 C202 1.491 . S
C1025 C282 1.489 . S
C1029 C442 1.504 . S
C1043 C501 1.494 . S
C1047 C322 1.490 . S
C1061 C421 1.504 . S
C1065 C562 1.505 . S
