# Generated by pormake.
# Topology kag, (6)-cn, num edge types: 1
# Building blocks:
#     Node 0, Type 0, BuildingBlock: CUWYAW_clean_sbu_0, # of connection points: 6
#     Node 1, Type 0, BuildingBlock: CUWYAW_clean_sbu_0, # of connection points: 6
#     Node 2, Type 0, BuildingBlock: CUWYAW_clean_sbu_0, # of connection points: 6
#     Edge 3, Type (0, 0), BuildingBlock: MIFKUJ_clean_linker_0, # of connection points: 2
#     Edge 4, Type (0, 0), BuildingBlock: MIFKUJ_clean_linker_0, # of connection points: 2
#     Edge 5, Type (0, 0), BuildingBlock: MIFKUJ_clean_linker_0, # of connection points: 2
#     Edge 6, Type (0, 0), BuildingBlock: MIFKUJ_clean_linker_0, # of connection points: 2
#     Edge 7, Type (0, 0), BuildingBlock: MIFKUJ_clean_linker_0, # of connection points: 2
#     Edge 8, Type (0, 0), BuildingBlock: MIFKUJ_clean_linker_0, # of connection points: 2
#     Edge 9, Type (0, 0), BuildingBlock: MIFKUJ_clean_linker_0, # of connection points: 2
#     Edge 10, Type (0, 0), BuildingBlock: MIFKUJ_clean_linker_0, # of connection points: 2
#     Edge 11, Type (0, 0), BuildingBlock: MIFKUJ_clean_linker_0, # of connection points: 2
# Relax obj value: 0.011
# Max RMSD: 0.070
# Mean RMSD: 0.056
data_MOF--net-kag--node1-CUWYAW_clean_sbu_0--edge1-MIFKUJ_clean_linker_0
_symmetry_space_group_name_H-M    P1
_symmetry_Int_Tables_number       1
_symmetry_cell_setting            triclinic
loop_
_symmetry_equiv_pos_as_xyz
'x, y, z'
_cell_length_a     50.710595
_cell_length_b     50.751262
_cell_length_c     19.161316
_cell_angle_alpha  92.903284
_cell_angle_beta   91.654599
_cell_angle_gamma 120.09903
loop_
_atom_site_label
_atom_site_type_symbol
_atom_site_fract_x
_atom_site_fract_y
_atom_site_fract_z
_atom_type_partial_charge
C0 C 0.07296 0.60049 0.9657 0.0
Eu1 Eu 0.03532 0.54508 1.00025 0.0
C2 C 0.10524 0.62605 0.97474 0.0
C3 C 0.11302 0.65146 0.02162 0.0
C4 C 0.14234 0.67727 0.02508 0.0
C5 C 0.16474 0.67857 0.98133 0.0
C6 C 0.1572 0.6528 0.93566 0.0
C7 C 0.12781 0.62692 0.93223 0.0
C8 C 0.02135 0.52897 0.13334 0.0
C9 C 0.07185 0.50758 0.02163 0.0
C10 C 0.96201 0.42179 0.0456 0.0
Eu11 Eu 0.99936 0.47741 0.01183 0.0
C12 C 0.92989 0.39601 0.03707 0.0
C13 C 0.92326 0.36902 0.99777 0.0
C14 C 0.894 0.34318 0.99482 0.0
C15 C 0.87049 0.34346 0.03157 0.0
C16 C 0.87692 0.37075 0.0696 0.0
C17 C 0.90628 0.39668 0.07248 0.0
C18 C 1.01342 0.4938 0.87874 0.0
C19 C 0.9628 0.51489 0.99107 0.0
O20 O 0.06684 0.57576 0.92732 0.0
O21 O 0.05631 0.59449 0.01994 0.0
O22 O 0.02205 0.55246 0.1079 0.0
O23 O 0.02971 0.51584 0.08883 0.0
O24 O 0.0727 0.53251 1.00122 0.0
O25 O 0.04603 0.48384 0.03812 0.0
O26 O 0.96809 0.44637 0.08457 0.0
O27 O 0.97833 0.42804 0.99079 0.0
O28 O 1.01286 0.47035 0.90403 0.0
O29 O 1.00486 0.50665 0.9234 0.0
O30 O 0.96209 0.49014 0.01237 0.0
O31 O 0.98855 0.53842 0.97344 0.0
H32 H 0.09618 0.65174 0.05467 0.0
H33 H 0.14734 0.69638 0.06175 0.0
H34 H 0.17366 0.65298 0.90063 0.0
H35 H 0.12259 0.60796 0.89485 0.0
H36 H 0.94097 0.36764 0.97034 0.0
H37 H 0.88988 0.32285 0.96396 0.0
H38 H 0.85955 0.37183 0.0991 0.0
H39 H 0.91059 0.41698 0.10383 0.0
C40 C 0.48377 0.06729 0.9411 0.0
Eu41 Eu 0.50128 0.02989 0.98458 0.0
C42 C 0.4907 0.09943 0.94701 0.0
C43 C 0.5084 0.11997 0.00405 0.0
C44 C 0.51225 0.14947 0.01083 0.0
C45 C 0.49831 0.15894 0.96097 0.0
C46 C 0.48131 0.13843 0.90311 0.0
C47 C 0.47761 0.10912 0.89626 0.0
C48 C 0.50368 0.01733 0.12039 0.0
C49 C 0.57552 0.06559 0.01672 0.0
C50 C 0.54899 0.95511 0.04866 0.0
Eu51 Eu 0.53207 0.99331 0.00779 0.0
C52 C 0.54279 0.92312 0.03656 0.0
C53 C 0.55958 0.91629 0.98906 0.0
C54 C 0.55637 0.88716 0.98269 0.0
C55 C 0.53641 0.86392 0.02391 0.0
C56 C 0.51912 0.87055 0.07047 0.0
C57 C 0.52238 0.89977 0.07695 0.0
C58 C 0.52892 1.00541 0.87158 0.0
C59 C 0.45768 0.9576 0.97797 0.0
O60 O 0.50236 0.06103 0.90777 0.0
O61 O 0.47385 0.05174 0.99619 0.0
O62 O 0.4812 0.01849 0.08989 0.0
O63 O 0.52502 0.02473 0.07938 0.0
O64 O 0.5517 0.06629 0.989 0.0
O65 O 0.57272 0.04008 0.03863 0.0
O66 O 0.52882 0.95969 0.07974 0.0
O67 O 0.56161 0.97365 0.99935 0.0
O68 O 0.55159 1.00444 0.90158 0.0
O69 O 0.50792 0.99807 0.91341 0.0
O70 O 0.48174 0.9569 0.00399 0.0
O71 O 0.46012 0.98309 0.95684 0.0
H72 H 0.51871 0.113 0.04399 0.0
H73 H 0.52537 0.16451 0.05625 0.0
H74 H 0.47071 0.145 0.86297 0.0
H75 H 0.46393 0.09373 0.85172 0.0
H76 H 0.57578 0.9337 0.9576 0.0
H77 H 0.56976 0.88293 0.94552 0.0
H78 H 0.50377 0.85344 0.10373 0.0
H79 H 0.50943 0.90425 0.11494 0.0
C80 C 0.6071 0.54441 0.96296 0.0
Eu81 Eu 0.55142 0.52714 0.99789 0.0
C82 C 0.63258 0.53789 0.97145 0.0
C83 C 0.65797 0.55696 0.01771 0.0
C84 C 0.68364 0.5534 0.02109 0.0
C85 C 0.68486 0.5308 0.97786 0.0
C86 C 0.65912 0.51121 0.93267 0.0
C87 C 0.63337 0.51477 0.92933 0.0
C88 C 0.53453 0.52528 0.13191 0.0
C89 C 0.51307 0.45284 0.01013 0.0
C90 C 0.42786 0.47839 0.0433 0.0
Eu91 Eu 0.48372 0.4957 0.00953 0.0
C92 C 0.40273 0.48547 0.03563 0.0
C93 C 0.37996 0.47089 0.98074 0.0
C94 C 0.35441 0.47469 0.97759 0.0
C95 C 0.35072 0.49305 0.02947 0.0
C96 C 0.37385 0.5082 0.08355 0.0
C97 C 0.39943 0.50437 0.08674 0.0
C98 C 0.50084 0.49767 0.87552 0.0
C99 C 0.52222 0.57004 0.99834 0.0
O100 O 0.58256 0.52494 0.92417 0.0
O101 O 0.60077 0.55617 0.01775 0.0
O102 O 0.5583 0.54808 0.10852 0.0
O103 O 0.5215 0.50366 0.08474 0.0
O104 O 0.5382 0.47688 0.99139 0.0
O105 O 0.48938 0.45514 0.02902 0.0
O106 O 0.45222 0.49708 0.08351 0.0
O107 O 0.43445 0.46734 0.98768 0.0
O108 O 0.47718 0.47476 0.89891 0.0
O109 O 0.51362 0.51926 0.92277 0.0
O110 O 0.49734 0.5461 0.01842 0.0
O111 O 0.54549 0.56744 0.97746 0.0
H112 H 0.65832 0.57518 0.05046 0.0
H113 H 0.70269 0.56859 0.05745 0.0
H114 H 0.65922 0.49373 0.89805 0.0
H115 H 0.61442 0.49987 0.89243 0.0
H116 H 0.38148 0.45591 0.9408 0.0
H117 H 0.33739 0.46299 0.93456 0.0
H118 H 0.37172 0.52223 0.12495 0.0
H119 H 0.41621 0.51559 0.13041 0.0
H120 H 1.00679 0.53661 0.81001 0.0
H121 H 1.00844 0.54308 0.68372 0.0
H122 H 0.02656 0.46906 0.65059 0.0
H123 H 0.02549 0.46296 0.77632 0.0
H124 H 0.06113 0.51352 0.57204 0.0
H125 H 0.95448 0.45967 0.61656 0.0
H126 H 0.90845 0.45155 0.67454 0.0
H127 H 0.91938 0.53465 0.60015 0.0
H128 H 0.96574 0.54349 0.54251 0.0
H129 H 0.02778 0.48615 0.20252 0.0
H130 H 0.02604 0.47982 0.32885 0.0
H131 H 1.00805 0.55396 0.36116 0.0
H132 H 1.00922 0.55994 0.23536 0.0
H133 H 0.97346 0.50959 0.44014 0.0
H134 H 0.08006 0.56342 0.39553 0.0
H135 H 0.12605 0.57153 0.33743 0.0
H136 H 0.11521 0.48848 0.41196 0.0
H137 H 0.06888 0.47965 0.46973 0.0
C138 C 1.01127 0.52186 0.77572 0.0
C139 C 1.01579 0.49914 0.80308 0.0
C140 C 1.01205 0.52544 0.70346 0.0
C141 C 0.01718 0.50625 0.65709 0.0
C142 C 0.02249 0.48413 0.68489 0.0
C143 C 0.02178 0.4806 0.75691 0.0
C144 C 1.01667 0.50879 0.57966 0.0
C145 C 0.04177 0.5123 0.54319 0.0
C146 C 0.99174 0.50778 0.54168 0.0
C147 C 0.96375 0.5024 0.57584 0.0
C148 C 0.94718 0.47633 0.61299 0.0
C149 C 0.92102 0.47158 0.64573 0.0
C150 C 0.91105 0.49262 0.6412 0.0
C151 C 0.92716 0.5184 0.60371 0.0
C152 C 0.95337 0.52328 0.57096 0.0
C153 C 0.02331 0.50096 0.23663 0.0
C154 C 0.01887 0.52369 0.20902 0.0
C155 C 0.02247 0.49745 0.30891 0.0
C156 C 0.01737 0.51673 0.35506 0.0
C157 C 1.0121 0.53884 0.32703 0.0
C158 C 1.01288 0.5423 0.25497 0.0
C159 C 0.0179 0.51429 0.43253 0.0
C160 C 0.99281 0.51082 0.46901 0.0
C161 C 0.04284 0.51533 0.47052 0.0
C162 C 0.07083 0.52072 0.43635 0.0
C163 C 0.08736 0.54678 0.39912 0.0
C164 C 0.11351 0.55152 0.36631 0.0
C165 C 0.1235 0.53049 0.37084 0.0
C166 C 0.10742 0.50473 0.4084 0.0
C167 C 0.08123 0.49985 0.44123 0.0
H168 H 0.14374 0.5342 0.34537 0.0
H169 H 0.89079 0.48891 0.6666 0.0
H170 H 0.55023 0.01763 0.19892 0.0
H171 H 0.55402 0.0151 0.32643 0.0
H172 H 0.46684 1.0098 0.34216 0.0
H173 H 0.46296 0.01226 0.21556 0.0
H174 H 0.50766 0.04983 0.44321 0.0
H175 H 0.47225 0.94707 0.35483 0.0
H176 H 0.47314 0.90646 0.28047 0.0
H177 H 0.56057 0.93059 0.37719 0.0
H178 H 0.56041 0.97169 0.45146 0.0
H179 H 0.48128 1.00352 0.7943 0.0
H180 H 0.47622 1.00479 0.66663 0.0
H181 H 0.56386 0.01141 0.64801 0.0
H182 H 0.56898 1.01016 0.77481 0.0
H183 H 0.52199 0.97018 0.54835 0.0
H184 H 0.55651 0.07362 0.6369 0.0
H185 H 0.55396 0.11326 0.71138 0.0
H186 H 0.46591 0.08642 0.61398 0.0
H187 H 0.46773 0.04628 0.53959 0.0
C188 C 0.53189 0.01586 0.22967 0.0
C189 C 0.50632 0.01517 0.19712 0.0
C190 C 0.53402 0.01436 0.30252 0.0
C191 C 0.51065 0.01218 0.34419 0.0
C192 C 0.48522 0.01159 0.3115 0.0
C193 C 0.48299 0.01287 0.23891 0.0
C194 C 0.5125 1.01043 0.42172 0.0
C195 C 0.51045 0.03219 0.46609 0.0
C196 C 0.51647 0.98766 0.452 0.0
C197 C 0.51647 0.96269 0.4082 0.0
C198 C 0.49178 0.94387 0.3599 0.0
C199 C 0.49213 0.92074 0.3178 0.0
C200 C 0.51694 0.91602 0.32393 0.0
C201 C 0.54139 0.93433 0.37241 0.0
C202 C 0.54117 0.95753 0.41457 0.0
C203 C 0.49945 1.00531 0.76288 0.0
C204 C 0.52553 1.00677 0.79471 0.0
C205 C 0.49658 1.00606 0.68992 0.0
C206 C 0.51972 1.00829 0.6474 0.0
C207 C 0.54564 1.00957 0.67934 0.0
C208 C 0.54859 1.009 0.75204 0.0
C209 C 0.5173 1.00967 0.56983 0.0
C210 C 0.51922 0.98783 0.52544 0.0
C211 C 0.513 0.03224 0.5395 0.0
C212 C 0.51212 0.05674 0.58318 0.0
C213 C 0.53651 0.07604 0.63167 0.0
C214 C 0.53521 0.09861 0.67384 0.0
C215 C 0.50975 0.10229 0.66758 0.0
C216 C 0.4856 0.0835 0.61886 0.0
C217 C 0.48676 0.06085 0.57664 0.0
H218 H 0.50875 0.11974 0.70037 0.0
H219 H 0.5172 0.89813 0.29122 0.0
H220 H 0.54181 0.54819 0.81079 0.0
H221 H 0.54768 0.553 0.68447 0.0
H222 H 0.47723 0.45864 0.64343 0.0
H223 H 0.4716 0.45369 0.76909 0.0
H224 H 0.52244 0.47136 0.56084 0.0
H225 H 0.46267 0.51697 0.6222 0.0
H226 H 0.45009 0.55211 0.68668 0.0
H227 H 0.52993 0.62905 0.61645 0.0
H228 H 0.54324 0.59433 0.55235 0.0
H229 H 0.49261 0.47518 0.19624 0.0
H230 H 0.48641 0.47038 0.32245 0.0
H231 H 0.55838 0.56407 0.36421 0.0
H232 H 0.56436 0.56903 0.23861 0.0
H233 H 0.5122 0.55152 0.44619 0.0
H234 H 0.57127 0.50442 0.38369 0.0
H235 H 0.58162 0.46821 0.31635 0.0
H236 H 0.50069 0.39279 0.38736 0.0
H237 H 0.48964 0.42859 0.45437 0.0
C238 C 0.52775 0.52847 0.77474 0.0
C239 C 0.50612 0.50062 0.79983 0.0
C240 C 0.53098 0.53126 0.70253 0.0
C241 C 0.5126 0.50628 0.65408 0.0
C242 C 0.49164 0.47826 0.67946 0.0
C243 C 0.48839 0.47549 0.75142 0.0
C244 C 0.51476 0.50924 0.57698 0.0
C245 C 0.51987 0.4887 0.53578 0.0
C246 C 0.51183 0.53209 0.54395 0.0
C247 C 0.50412 0.55305 0.58308 0.0
C248 C 0.47771 0.54138 0.62106 0.0
C249 C 0.47041 0.56122 0.65742 0.0
C250 C 0.48921 0.59279 0.65572 0.0
C251 C 0.51539 0.60459 0.61774 0.0
C252 C 0.52282 0.58484 0.58138 0.0
C253 C 0.50695 0.49476 0.23241 0.0
C254 C 0.52912 0.52241 0.20755 0.0
C255 C 0.50351 0.49198 0.30455 0.0
C256 C 0.52224 0.51675 0.35316 0.0
C257 C 0.54372 0.5446 0.32802 0.0
C258 C 0.54717 0.54738 0.25612 0.0
C259 C 0.51996 0.51371 0.43019 0.0
C260 C 0.51483 0.53423 0.47135 0.0
C261 C 0.52268 0.49074 0.46312 0.0
C262 C 0.52948 0.46919 0.42348 0.0
C263 C 0.55558 0.48012 0.38456 0.0
C264 C 0.56158 0.45967 0.3465 0.0
C265 C 0.54178 0.42822 0.34742 0.0
C266 C 0.51598 0.41716 0.38661 0.0
C267 C 0.50985 0.43751 0.42468 0.0
H268 H 0.54646 0.41243 0.3179 0.0
H269 H 0.48343 0.60809 0.68367 0.0
H270 H 0.13032 0.55554 0.04463 0.0
H271 H 0.17773 0.55402 0.05041 0.0
H272 H 0.12615 0.45592 0.0113 0.0
H273 H 0.07858 0.45731 0.01009 0.0
H274 H 0.16922 0.46792 0.09903 0.0
H275 H 0.16828 0.51052 0.88068 0.0
H276 H 0.16474 0.54695 0.80593 0.0
H277 H 0.24395 0.6213 0.91767 0.0
H278 H 0.24776 0.58534 0.99358 0.0
H279 H 0.2915 0.44777 0.99436 0.0
H280 H 0.24522 0.4513 0.99404 0.0
H281 H 0.29875 0.54677 0.06407 0.0
H282 H 0.34541 0.54365 0.06253 0.0
H283 H 0.25582 0.53717 0.96244 0.0
H284 H 0.25694 0.4927 0.1777 0.0
H285 H 0.25966 0.45523 0.25016 0.0
H286 H 0.17904 0.38266 0.13871 0.0
H287 H 0.17606 0.41965 0.06495 0.0
C288 C 0.12909 0.53364 0.0375 0.0
C289 C 0.10065 0.50655 0.0266 0.0
C290 C 0.15631 0.53278 0.0402 0.0
C291 C 0.1559 0.50491 0.02941 0.0
C292 C 0.12737 0.47779 0.01959 0.0
C293 C 0.1001 0.47858 0.01878 0.0
C294 C 0.185 0.50391 0.02854 0.0
C295 C 0.1879 0.48282 0.06822 0.0
C296 C 0.20998 0.52371 0.98979 0.0
C297 C 0.20815 0.54527 0.94315 0.0
C298 C 0.18488 0.53465 0.88943 0.0
C299 C 0.18282 0.55522 0.84688 0.0
C300 C 0.20406 0.58643 0.85717 0.0
C301 C 0.2275 0.59712 0.9098 0.0
C302 C 0.22965 0.57666 0.95253 0.0
C303 C 0.2936 0.46966 0.00894 0.0
C304 C 0.32239 0.49543 0.02849 0.0
C305 C 0.26696 0.47156 0.00945 0.0
C306 C 0.26829 0.49922 0.02992 0.0
C307 C 0.29701 0.52512 0.04836 0.0
C308 C 0.3237 0.52323 0.04799 0.0
C309 C 0.23975 0.50102 0.03226 0.0
C310 C 0.23704 0.52228 0.99301 0.0
C311 C 0.21481 0.48115 0.07071 0.0
C312 C 0.21643 0.45892 0.11542 0.0
C313 C 0.23991 0.46873 0.16834 0.0
C314 C 0.24148 0.44758 0.20969 0.0
C315 C 0.21958 0.41658 0.19894 0.0
C316 C 0.196 0.40667 0.14694 0.0
C317 C 0.19434 0.42772 0.1054 0.0
H318 H 0.22084 0.40024 0.23099 0.0
H319 H 0.20239 0.60232 0.82429 0.0
H320 H 0.63226 0.07198 0.03857 0.0
H321 H 0.68194 0.11899 0.04303 0.0
H322 H 0.63698 0.17122 0.01609 0.0
H323 H 0.5874 0.12421 0.00875 0.0
H324 H 0.68215 0.1918 0.93818 0.0
H325 H 0.67246 0.1689 0.17936 0.0
H326 H 0.66419 0.13715 0.27883 0.0
H327 H 0.74234 0.12947 0.23057 0.0
H328 H 0.75086 0.16085 0.13024 0.0
H329 H 0.81361 0.33817 0.02667 0.0
H330 H 0.76373 0.29165 0.02779 0.0
H331 H 0.80773 0.23786 0.03661 0.0
H332 H 0.85762 0.28426 0.03803 0.0
H333 H 0.76318 0.21861 0.12491 0.0
H334 H 0.77221 0.24168 0.883 0.0
H335 H 0.78027 0.27393 0.78466 0.0
H336 H 0.70276 0.28207 0.83693 0.0
H337 H 0.69447 0.25018 0.93618 0.0
C338 C 0.63295 0.0935 0.03409 0.0
C339 C 0.60578 0.09426 0.02347 0.0
C340 C 0.66144 0.12048 0.03697 0.0
C341 C 0.66346 0.14897 0.03094 0.0
C342 C 0.63626 0.14969 0.02082 0.0
C343 C 0.60782 0.12271 0.01686 0.0
C344 C 0.69377 0.17791 0.03323 0.0
C345 C 0.69963 0.1978 0.97974 0.0
C346 C 0.7171 0.18572 0.08638 0.0
C347 C 0.71212 0.16699 0.14691 0.0
C348 C 0.68776 0.16027 0.18969 0.0
C349 C 0.68305 0.14237 0.24626 0.0
C350 C 0.70269 0.13124 0.2609 0.0
C351 C 0.72713 0.13807 0.21912 0.0
C352 C 0.73193 0.15594 0.16244 0.0
C353 C 0.81274 0.31649 0.02941 0.0
C354 C 0.83981 0.31511 0.03177 0.0
C355 C 0.78411 0.28981 0.02938 0.0
C356 C 0.7818 0.26105 0.03136 0.0
C357 C 0.80878 0.25966 0.03474 0.0
C358 C 0.83737 0.28629 0.0348 0.0
C359 C 0.75139 0.2324 0.03007 0.0
C360 C 0.74558 0.21259 0.08361 0.0
C361 C 0.72804 0.22474 0.97725 0.0
C362 C 0.73291 0.2438 0.91742 0.0
C363 C 0.75703 0.25053 0.87383 0.0
C364 C 0.76161 0.26872 0.81788 0.0
C365 C 0.74209 0.28011 0.80467 0.0
C366 C 0.71789 0.27327 0.84728 0.0
C367 C 0.71322 0.25512 0.90335 0.0
H368 H 0.74568 0.29419 0.76133 0.0
H369 H 0.69899 0.11738 0.30471 0.0
H370 H 0.48541 0.80681 0.02833 0.0
H371 H 0.48263 0.75718 0.02247 0.0
H372 H 0.57999 0.8018 0.00433 0.0
H373 H 0.58294 0.85141 0.01011 0.0
H374 H 0.55262 0.75281 0.91542 0.0
H375 H 0.5459 0.7731 0.16007 0.0
H376 H 0.52474 0.78566 0.26238 0.0
H377 H 0.43766 0.70502 0.21066 0.0
H378 H 0.45821 0.6922 0.10746 0.0
H379 H 0.57207 0.62662 0.98342 0.0
H380 H 0.57434 0.67596 0.98711 0.0
H381 H 0.47765 0.63113 0.01563 0.0
H382 H 0.47548 0.58191 0.01448 0.0
H383 H 0.50433 0.68024 0.09824 0.0
H384 H 0.51135 0.65921 0.85464 0.0
H385 H 0.53274 0.64658 0.75303 0.0
H386 H 0.61896 0.72858 0.80132 0.0
H387 H 0.59833 0.74142 0.90432 0.0
C388 C 0.5063 0.80614 0.02362 0.0
C389 C 0.53441 0.83333 0.01975 0.0
C390 C 0.50468 0.77764 0.02022 0.0
C391 C 0.53116 0.77554 0.01369 0.0
C392 C 0.55917 0.80261 0.00914 0.0
C393 C 0.5608 0.83107 0.01226 0.0
C394 C 0.52979 0.74527 0.01161 0.0
C395 C 0.54238 0.73712 0.9559 0.0
C396 C 0.51585 0.72429 0.06339 0.0
C397 C 0.50352 0.73185 0.12567 0.0
C398 C 0.52218 0.75816 0.17024 0.0
C399 C 0.51031 0.76531 0.22843 0.0
C400 C 0.47985 0.74619 0.2429 0.0
C401 C 0.46123 0.71983 0.19933 0.0
C402 C 0.47299 0.7126 0.14102 0.0
C403 C 0.55124 0.62721 0.99019 0.0
C404 C 0.52358 0.60014 0.99836 0.0
C405 C 0.55253 0.65554 0.99198 0.0
C406 C 0.52607 0.65751 1.00057 0.0
C407 C 0.49845 0.63046 0.0089 0.0
C408 C 0.49722 0.6022 0.00798 0.0
C409 C 0.52714 0.68766 1.00192 0.0
C410 C 0.51452 0.69584 0.05757 0.0
C411 C 0.54102 0.70864 0.94998 0.0
C412 C 0.55336 0.70113 0.88761 0.0
C413 C 0.53494 0.67446 0.8439 0.0
C414 C 0.54691 0.66726 0.78599 0.0
C415 C 0.57717 0.68673 0.77068 0.0
C416 C 0.59552 0.71349 0.81325 0.0
C417 C 0.58371 0.72074 0.87144 0.0
H418 H 0.58637 0.6811 0.72577 0.0
H419 H 0.4707 0.75177 0.28797 0.0
H420 H 0.95613 0.565 0.98037 0.0
H421 H 0.9087 0.56678 0.97733 0.0
H422 H 0.85663 0.46911 0.98729 0.0
H423 H 0.90395 0.46715 0.99138 0.0
H424 H 0.83184 0.49139 0.88625 0.0
H425 H 0.86658 0.51108 0.12917 0.0
H426 H 0.90385 0.53748 0.22987 0.0
H427 H 0.90999 0.6223 0.18443 0.0
H428 H 0.87309 0.59647 0.08269 0.0
H429 H 0.68964 0.47893 0.96731 0.0
H430 H 0.73614 0.47558 0.96763 0.0
H431 H 0.79093 0.57384 0.99011 0.0
H432 H 0.74467 0.57739 0.98948 0.0
H433 H 0.81437 0.55055 0.07488 0.0
H434 H 0.78091 0.53243 0.83243 0.0
H435 H 0.74481 0.50746 0.72921 0.0
H436 H 0.73744 0.42167 0.77002 0.0
H437 H 0.77319 0.44606 0.87415 0.0
C438 C 0.9346 0.54386 0.9816 0.0
C439 C 0.93394 0.51594 0.9863 0.0
C440 C 0.90748 0.54493 0.98008 0.0
C441 C 0.87904 0.5181 0.98242 0.0
C442 C 0.87825 0.49012 0.98541 0.0
C443 C 0.90538 0.48907 0.98801 0.0
C444 C 0.85022 0.51931 0.98309 0.0
C445 C 0.82782 0.50398 0.92796 0.0
C446 C 0.84522 0.53633 0.03658 0.0
C447 C 0.86732 0.5519 0.09785 0.0
C448 C 0.87609 0.53542 0.14025 0.0
C449 C 0.89711 0.55026 0.19759 0.0
C450 C 0.90935 0.58156 0.21342 0.0
C451 C 0.90053 0.59806 0.17203 0.0
C452 C 0.87954 0.58333 0.11454 0.0
C453 C 0.71155 0.49987 0.97174 0.0
C454 C 0.7132 0.52844 0.97846 0.0
C455 C 0.73821 0.49791 0.97197 0.0
C456 C 0.76724 0.52447 0.97827 0.0
C457 C 0.76893 0.55298 0.98546 0.0
C458 C 0.74233 0.55495 0.98536 0.0
C459 C 0.79584 0.52267 0.9778 0.0
C460 C 0.81827 0.53791 0.03306 0.0
C461 C 0.80096 0.50576 0.92408 0.0
C462 C 0.77946 0.49101 0.86154 0.0
C463 C 0.77139 0.50818 0.81974 0.0
C464 C 0.75103 0.49415 0.76101 0.0
C465 C 0.73876 0.46298 0.74319 0.0
C466 C 0.74691 0.4458 0.78397 0.0
C467 C 0.76724 0.45972 0.84283 0.0
H468 H 0.72301 0.45215 0.69768 0.0
H469 H 0.92561 0.59302 0.25786 0.0
H470 H 0.17761 0.73809 0.99323 0.0
H471 H 0.22715 0.78469 0.99238 0.0
H472 H 0.27087 0.73097 0.96622 0.0
H473 H 0.22135 0.68407 0.96943 0.0
H474 H 0.30359 0.77941 0.06049 0.0
H475 H 0.2576 0.76426 0.82763 0.0
H476 H 0.21695 0.75583 0.7402 0.0
H477 H 0.22329 0.84002 0.81611 0.0
H478 H 0.26371 0.84875 0.90463 0.0
H479 H 0.44653 0.89899 0.97258 0.0
H480 H 0.39731 0.85178 0.96961 0.0
H481 H 0.35124 0.90385 0.97226 0.0
H482 H 0.40058 0.95119 0.97156 0.0
H483 H 0.31955 0.85573 0.89003 0.0
H484 H 0.36428 0.87132 0.12352 0.0
H485 H 0.40498 0.88084 0.21207 0.0
H486 H 0.40049 0.79718 0.13924 0.0
H487 H 0.36003 0.78736 0.04963 0.0
C488 C 0.19774 0.73606 0.98819 0.0
C489 C 0.19529 0.70712 0.98146 0.0
C490 C 0.22611 0.76284 0.98692 0.0
C491 C 0.25284 0.76148 0.97828 0.0
C492 C 0.25062 0.7327 0.97264 0.0
C493 C 0.2222 0.70584 0.9739 0.0
C494 C 0.28299 0.79007 0.97487 0.0
C495 C 0.30719 0.79591 0.02261 0.0
C496 C 0.28761 0.81211 0.92674 0.0
C497 C 0.2635 0.80701 0.87314 0.0
C498 C 0.25018 0.78087 0.82597 0.0
C499 C 0.22721 0.77606 0.77618 0.0
C500 C 0.2175 0.79734 0.7727 0.0
C501 C 0.23081 0.82353 0.8189 0.0
C502 C 0.25378 0.82844 0.86884 0.0
C503 C 0.42592 0.90041 0.97219 0.0
C504 C 0.42752 0.92891 0.97269 0.0
C505 C 0.39769 0.87333 0.97103 0.0
C506 C 0.37034 0.87405 0.97263 0.0
C507 C 0.37189 0.9025 0.97139 0.0
C508 C 0.40014 0.92962 0.97102 0.0
C509 C 0.34026 0.84523 0.97585 0.0
C510 C 0.31602 0.83931 0.92806 0.0
C511 C 0.33552 0.82327 0.02445 0.0
C512 C 0.35929 0.82873 0.0795 0.0
C513 C 0.37205 0.855 0.12623 0.0
C514 C 0.39508 0.86046 0.1766 0.0
C515 C 0.40536 0.83966 0.18117 0.0
C516 C 0.39252 0.81329 0.1356 0.0
C517 C 0.36951 0.80774 0.08507 0.0
H518 H 0.42324 0.84397 0.22008 0.0
H519 H 0.19969 0.79357 0.73414 0.0
H520 H 0.56092 0.44268 0.027 0.0
H521 H 0.55944 0.3938 0.02539 0.0
H522 H 0.46138 0.3463 0.98893 0.0
H523 H 0.46273 0.39529 0.99512 0.0
H524 H 0.47326 0.3156 0.06986 0.0
H525 H 0.51637 0.35837 0.85456 0.0
H526 H 0.55288 0.39814 0.78255 0.0
H527 H 0.62716 0.39469 0.88631 0.0
H528 H 0.59111 0.35511 0.95946 0.0
H529 H 0.45339 0.17305 0.93596 0.0
H530 H 0.45709 0.22296 0.94822 0.0
H531 H 0.55191 0.2646 0.01929 0.0
H532 H 0.54853 0.21462 0.00585 0.0
H533 H 0.54309 0.2983 0.92363 0.0
H534 H 0.49798 0.25293 0.13467 0.0
H535 H 0.46036 0.21279 0.20407 0.0
H536 H 0.38806 0.22029 0.10258 0.0
H537 H 0.4252 0.26021 0.03185 0.0
C538 C 0.53902 0.42181 0.01887 0.0
C539 C 0.51194 0.42294 0.01081 0.0
C540 C 0.53819 0.39373 0.01733 0.0
C541 C 0.51036 0.36598 0.00502 0.0
C542 C 0.48323 0.36715 0.99822 0.0
C543 C 0.48399 0.39525 1.00163 0.0
C544 C 0.50946 0.33585 0.99929 0.0
C545 C 0.48829 0.31183 0.03698 0.0
C546 C 0.52945 0.33067 0.95782 0.0
C547 C 0.55107 0.35398 0.91286 0.0
C548 C 0.5405 0.36618 0.86216 0.0
C549 C 0.56111 0.38868 0.82116 0.0
C550 C 0.59233 0.39899 0.82998 0.0
C551 C 0.60298 0.3867 0.87958 0.0
C552 C 0.58247 0.36421 0.92076 0.0
C553 C 0.47515 0.1928 0.95374 0.0
C554 C 0.50068 0.18965 0.96973 0.0
C555 C 0.47714 0.22139 0.96136 0.0
C556 C 0.50471 0.24769 0.98534 0.0
C557 C 0.53034 0.24472 1.00089 0.0
C558 C 0.52831 0.21604 0.99366 0.0
C559 C 0.50672 0.27819 0.99352 0.0
C560 C 0.5281 0.3022 0.95638 0.0
C561 C 0.4867 0.28326 0.03476 0.0
C562 C 0.46435 0.25938 0.07753 0.0
C563 C 0.47403 0.24587 0.12678 0.0
C564 C 0.4528 0.22318 0.16642 0.0
C565 C 0.42183 0.21395 0.15763 0.0
C566 C 0.41205 0.22745 0.10929 0.0
C567 C 0.43318 0.25013 0.06946 0.0
H568 H 0.40543 0.19637 0.18836 0.0
H569 H 0.60825 0.41646 0.7983 0.0
loop_
_geom_bond_atom_site_label_1
_geom_bond_atom_site_label_2
_geom_bond_distance
_geom_bond_site_symmetry_2
_ccdc_geom_bond_type
C0 Eu1 2.835 . S
C0 C2 1.500 1_554 S
C0 O20 1.257 1_554 S
C0 O21 1.260 . S
Eu1 C0 2.835 . S
Eu1 O20 2.473 1_554 S
Eu1 O21 2.480 . S
Eu1 O22 2.430 . S
Eu1 O23 2.670 1_455 S
Eu1 O24 2.394 . S
Eu1 O29 2.355 1_554 S
Eu1 O31 2.374 1_455 S
C2 C0 1.500 1_556 S
C2 C3 1.373 1_556 S
C2 C7 1.382 . S
C3 C2 1.373 1_554 S
C3 C4 1.395 . S
C3 H32 0.931 . S
C4 C3 1.395 . S
C4 C5 1.383 1_554 S
C4 H33 0.931 . S
C5 C4 1.383 1_556 S
C5 C6 1.394 . S
C6 C5 1.394 . S
C6 C7 1.378 . S
C6 H34 0.931 . S
C7 C2 1.382 . S
C7 C6 1.378 . S
C7 H35 0.931 . S
C8 O22 1.259 . S
C8 O23 1.270 1_455 S
C9 O24 1.251 . S
C9 O25 1.251 1_554 S
C10 Eu11 2.835 . S
C10 C12 1.499 1_556 S
C10 O26 1.257 1_556 S
C10 O27 1.260 . S
Eu11 C10 2.835 . S
Eu11 O23 2.355 1_556 S
Eu11 O25 2.374 1_655 S
Eu11 O26 2.473 1_556 S
Eu11 O27 2.480 . S
Eu11 O28 2.430 . S
Eu11 O29 2.670 1_655 S
Eu11 O30 2.394 . S
C12 C10 1.499 1_554 S
C12 C13 1.371 1_554 S
C12 C17 1.385 . S
C13 C12 1.371 1_556 S
C13 C14 1.395 . S
C13 H36 0.931 . S
C14 C13 1.395 . S
C14 C15 1.383 1_556 S
C14 H37 0.931 . S
C15 C14 1.383 1_554 S
C15 C16 1.394 . S
C16 C15 1.394 . S
C16 C17 1.378 . S
C16 H38 0.931 . S
C17 C12 1.385 . S
C17 C16 1.378 . S
C17 H39 0.931 . S
C18 O28 1.259 . S
C18 O29 1.270 1_655 S
C19 O30 1.251 . S
C19 O31 1.250 1_556 S
O20 C0 1.257 1_556 S
O20 Eu1 2.473 1_556 S
O21 C0 1.260 . S
O21 Eu1 2.480 . S
O22 Eu1 2.430 . S
O22 C8 1.259 . S
O23 Eu1 2.670 1_655 S
O23 C8 1.270 1_655 S
O23 Eu11 2.355 1_554 S
O24 Eu1 2.394 . S
O24 C9 1.251 . S
O25 C9 1.251 1_556 S
O25 Eu11 2.374 1_455 S
O26 C10 1.257 1_554 S
O26 Eu11 2.473 1_554 S
O27 C10 1.260 . S
O27 Eu11 2.480 . S
O28 Eu11 2.430 . S
O28 C18 1.259 . S
O29 Eu1 2.355 1_556 S
O29 Eu11 2.670 1_455 S
O29 C18 1.270 1_455 S
O30 Eu11 2.394 . S
O30 C19 1.251 . S
O31 Eu1 2.374 1_655 S
O31 C19 1.250 1_554 S
H32 C3 0.931 . S
H33 C4 0.931 . S
H34 C6 0.931 . S
H35 C7 0.931 . S
H36 C13 0.931 . S
H37 C14 0.931 . S
H38 C16 0.931 . S
H39 C17 0.931 . S
C40 Eu41 2.834 1_556 S
C40 C42 1.501 . S
C40 O60 1.263 . S
C40 O61 1.253 1_556 S
Eu41 C40 2.834 1_554 S
Eu41 O60 2.473 1_554 S
Eu41 O61 2.480 . S
Eu41 O62 2.430 . S
Eu41 O63 2.670 1_545 S
Eu41 O64 2.394 . S
Eu41 O69 2.355 1_554 S
Eu41 O71 2.374 1_544 S
C42 C40 1.501 . S
C42 C43 1.377 1_556 S
C42 C47 1.377 . S
C43 C42 1.377 1_554 S
C43 C44 1.395 . S
C43 H72 0.931 . S
C44 C43 1.395 . S
C44 C45 1.383 1_554 S
C44 H73 0.931 . S
C45 C44 1.383 1_556 S
C45 C46 1.394 . S
C46 C45 1.394 . S
C46 C47 1.378 . S
C46 H74 0.931 . S
C47 C42 1.377 . S
C47 C46 1.378 . S
C47 H75 0.931 . S
C48 O62 1.259 . S
C48 O63 1.270 1_545 S
C49 O64 1.251 . S
C49 O65 1.251 . S
C50 Eu51 2.833 1_554 S
C50 C52 1.502 . S
C50 O66 1.266 . S
C50 O67 1.250 1_554 S
Eu51 C50 2.833 1_556 S
Eu51 O63 2.355 1_556 S
Eu51 O65 2.374 1_566 S
Eu51 O66 2.473 1_556 S
Eu51 O67 2.480 . S
Eu51 O68 2.430 . S
Eu51 O69 2.670 1_565 S
Eu51 O70 2.394 . S
C52 C50 1.502 . S
C52 C53 1.377 1_554 S
C52 C57 1.377 . S
C53 C52 1.377 1_556 S
C53 C54 1.395 . S
C53 H76 0.931 . S
C54 C53 1.395 . S
C54 C55 1.383 1_556 S
C54 H77 0.931 . S
C55 C54 1.383 1_554 S
C55 C56 1.394 . S
C56 C55 1.394 . S
C56 C57 1.378 . S
C56 H78 0.931 . S
C57 C52 1.377 . S
C57 C56 1.378 . S
C57 H79 0.931 . S
C58 O68 1.259 . S
C58 O69 1.270 1_565 S
C59 O70 1.251 . S
C59 O71 1.251 . S
O60 C40 1.263 . S
O60 Eu41 2.473 1_556 S
O61 C40 1.253 1_554 S
O61 Eu41 2.480 . S
O62 Eu41 2.430 . S
O62 C48 1.259 . S
O63 Eu41 2.670 1_565 S
O63 C48 1.270 1_565 S
O63 Eu51 2.355 1_554 S
O64 Eu41 2.394 . S
O64 C49 1.251 . S
O65 C49 1.251 . S
O65 Eu51 2.374 1_544 S
O66 C50 1.266 . S
O66 Eu51 2.473 1_554 S
O67 C50 1.250 1_556 S
O67 Eu51 2.480 . S
O68 Eu51 2.430 . S
O68 C58 1.259 . S
O69 Eu41 2.355 1_556 S
O69 Eu51 2.670 1_545 S
O69 C58 1.270 1_545 S
O70 Eu51 2.394 . S
O70 C59 1.251 . S
O71 Eu41 2.374 1_566 S
O71 C59 1.251 . S
H72 C43 0.931 . S
H73 C44 0.931 . S
H74 C46 0.931 . S
H75 C47 0.931 . S
H76 C53 0.931 . S
H77 C54 0.931 . S
H78 C56 0.931 . S
H79 C57 0.931 . S
C80 Eu81 2.835 . S
C80 C82 1.500 1_554 S
C80 O100 1.257 1_554 S
C80 O101 1.260 . S
Eu81 C80 2.835 . S
Eu81 O100 2.473 1_554 S
Eu81 O101 2.480 . S
Eu81 O102 2.430 . S
Eu81 O103 2.670 . S
Eu81 O104 2.394 . S
Eu81 O109 2.355 1_554 S
Eu81 O111 2.374 . S
C82 C80 1.500 1_556 S
C82 C83 1.377 1_556 S
C82 C87 1.377 . S
C83 C82 1.377 1_554 S
C83 C84 1.395 . S
C83 H112 0.931 . S
C84 C83 1.395 . S
C84 C85 1.383 1_554 S
C84 H113 0.931 . S
C85 C84 1.383 1_556 S
C85 C86 1.394 . S
C86 C85 1.394 . S
C86 C87 1.378 . S
C86 H114 0.931 . S
C87 C82 1.377 . S
C87 C86 1.378 . S
C87 H115 0.931 . S
C88 O102 1.259 . S
C88 O103 1.270 . S
C89 O104 1.251 . S
C89 O105 1.251 1_554 S
C90 Eu91 2.835 . S
C90 C92 1.500 1_556 S
C90 O106 1.257 1_556 S
C90 O107 1.260 . S
Eu91 C90 2.835 . S
Eu91 O103 2.355 1_556 S
Eu91 O105 2.374 . S
Eu91 O106 2.473 1_556 S
Eu91 O107 2.480 . S
Eu91 O108 2.430 . S
Eu91 O109 2.670 . S
Eu91 O110 2.394 . S
C92 C90 1.500 1_554 S
C92 C93 1.377 1_554 S
C92 C97 1.377 . S
C93 C92 1.377 1_556 S
C93 C94 1.395 . S
C93 H116 0.931 . S
C94 C93 1.395 . S
C94 C95 1.383 1_556 S
C94 H117 0.931 . S
C95 C94 1.383 1_554 S
C95 C96 1.394 . S
C96 C95 1.394 . S
C96 C97 1.378 . S
C96 H118 0.931 . S
C97 C92 1.377 . S
C97 C96 1.378 . S
C97 H119 0.931 . S
C98 O108 1.259 . S
C98 O109 1.270 . S
C99 O110 1.251 . S
C99 O111 1.251 1_556 S
O100 C80 1.257 1_556 S
O100 Eu81 2.473 1_556 S
O101 C80 1.260 . S
O101 Eu81 2.480 . S
O102 Eu81 2.430 . S
O102 C88 1.259 . S
O103 Eu81 2.670 . S
O103 C88 1.270 . S
O103 Eu91 2.355 1_554 S
O104 Eu81 2.394 . S
O104 C89 1.251 . S
O105 C89 1.251 1_556 S
O105 Eu91 2.374 . S
O106 C90 1.257 1_554 S
O106 Eu91 2.473 1_554 S
O107 C90 1.260 . S
O107 Eu91 2.480 . S
O108 Eu91 2.430 . S
O108 C98 1.259 . S
O109 Eu81 2.355 1_556 S
O109 Eu91 2.670 . S
O109 C98 1.270 . S
O110 Eu91 2.394 . S
O110 C99 1.251 . S
O111 Eu81 2.374 . S
O111 C99 1.251 1_554 S
H112 C83 0.931 . S
H113 C84 0.931 . S
H114 C86 0.931 . S
H115 C87 0.931 . S
H116 C93 0.931 . S
H117 C94 0.931 . S
H118 C96 0.931 . S
H119 C97 0.931 . S
H120 C138 0.951 . S
H121 C140 0.951 . S
H122 C142 0.950 . S
H123 C143 0.950 . S
H124 C145 0.950 . S
H125 C148 0.950 . S
H126 C149 0.950 . S
H127 C151 0.950 . S
H128 C152 0.950 . S
H129 C153 0.951 . S
H130 C155 0.951 . S
H131 C157 0.950 . S
H132 C158 0.950 . S
H133 C160 0.950 . S
H134 C163 0.950 . S
H135 C164 0.950 . S
H136 C166 0.950 . S
H137 C167 0.950 . S
C138 H120 0.951 . S
C138 C139 1.354 1_655 S
C138 C140 1.388 . S
C139 C138 1.354 1_455 S
C139 C143 1.397 . S
C140 H121 0.951 . S
C140 C138 1.388 . S
C140 C141 1.366 . S
C141 C140 1.366 . S
C141 C142 1.414 1_655 S
C141 C144 1.502 . S
C142 H122 0.950 . S
C142 C141 1.414 1_455 S
C142 C143 1.374 . S
C143 H123 0.950 . S
C143 C139 1.397 . S
C143 C142 1.374 . S
C144 C141 1.502 . S
C144 C145 1.333 1_655 S
C144 C146 1.426 . S
C145 H124 0.950 . S
C145 C144 1.333 1_455 S
C145 C161 1.377 . S
C146 C144 1.426 . S
C146 C147 1.524 . S
C146 C160 1.377 . S
C147 C146 1.524 . S
C147 C148 1.397 . S
C147 C152 1.363 . S
C148 H125 0.950 . S
C148 C147 1.397 . S
C148 C149 1.334 . S
C149 H126 0.950 . S
C149 C148 1.334 . S
C149 C150 1.287 . S
C150 C149 1.287 . S
C150 C151 1.524 . S
C150 H169 0.913 . S
C151 H127 0.950 . S
C151 C150 1.524 . S
C151 C152 1.415 . S
C152 H128 0.950 . S
C152 C147 1.363 . S
C152 C151 1.415 . S
C153 H129 0.951 . S
C153 C154 1.376 . S
C153 C155 1.388 . S
C154 C153 1.376 . S
C154 C158 1.374 1_455 S
C155 H130 0.951 . S
C155 C153 1.388 . S
C155 C156 1.366 . S
C156 C155 1.366 . S
C156 C157 1.414 1_455 S
C156 C159 1.499 . S
C157 H131 0.950 . S
C157 C156 1.414 1_655 S
C157 C158 1.374 . S
C158 H132 0.950 . S
C158 C154 1.374 1_655 S
C158 C157 1.374 . S
C159 C156 1.499 . S
C159 C160 1.373 1_455 S
C159 C161 1.389 . S
C160 H133 0.950 . S
C160 C146 1.377 . S
C160 C159 1.373 1_655 S
C161 C145 1.377 . S
C161 C159 1.389 . S
C161 C162 1.524 . S
C162 C161 1.524 . S
C162 C163 1.397 . S
C162 C167 1.363 . S
C163 H134 0.950 . S
C163 C162 1.397 . S
C163 C164 1.334 . S
C164 H135 0.950 . S
C164 C163 1.334 . S
C164 C165 1.287 . S
C165 C164 1.287 . S
C165 C166 1.524 . S
C165 H168 0.999 . S
C166 H136 0.950 . S
C166 C165 1.524 . S
C166 C167 1.415 . S
C167 H137 0.950 . S
C167 C162 1.363 . S
C167 C166 1.415 . S
H168 C165 0.999 . S
H169 C150 0.913 . S
H170 C188 0.951 . S
H171 C190 0.951 . S
H172 C192 0.950 . S
H173 C193 0.950 . S
H174 C195 0.950 . S
H175 C198 0.950 . S
H176 C199 0.950 . S
H177 C201 0.950 . S
H178 C202 0.950 . S
H179 C203 0.951 . S
H180 C205 0.951 . S
H181 C207 0.950 . S
H182 C208 0.950 . S
H183 C210 0.950 . S
H184 C213 0.950 . S
H185 C214 0.950 . S
H186 C216 0.950 . S
H187 C217 0.950 . S
C188 H170 0.951 . S
C188 C189 1.340 1_565 S
C188 C190 1.388 . S
C189 C188 1.340 1_545 S
C189 C193 1.410 . S
C190 H171 0.951 . S
C190 C188 1.388 . S
C190 C191 1.385 . S
C191 C190 1.385 . S
C191 C192 1.393 1_565 S
C191 C194 1.499 . S
C192 H172 0.950 . S
C192 C191 1.393 1_545 S
C192 C193 1.374 . S
C193 H173 0.950 . S
C193 C189 1.410 . S
C193 C192 1.374 . S
C194 C191 1.499 . S
C194 C195 1.374 1_565 S
C194 C196 1.388 . S
C195 H174 0.950 . S
C195 C194 1.374 1_545 S
C195 C211 1.377 . S
C196 C194 1.388 . S
C196 C197 1.524 . S
C196 C210 1.377 . S
C197 C196 1.524 . S
C197 C198 1.397 . S
C197 C202 1.363 . S
C198 H175 0.950 . S
C198 C197 1.397 . S
C198 C199 1.334 . S
C199 H176 0.950 . S
C199 C198 1.334 . S
C199 C200 1.287 . S
C200 C199 1.287 . S
C200 C201 1.524 . S
C200 H219 0.913 . S
C201 H177 0.950 . S
C201 C200 1.524 . S
C201 C202 1.415 . S
C202 H178 0.950 . S
C202 C197 1.363 . S
C202 C201 1.415 . S
C203 H179 0.951 . S
C203 C204 1.353 1_545 S
C203 C205 1.388 . S
C204 C203 1.353 1_565 S
C204 C208 1.396 . S
C205 H180 0.951 . S
C205 C203 1.388 . S
C205 C206 1.398 . S
C206 C205 1.398 . S
C206 C207 1.380 1_545 S
C206 C209 1.499 . S
C207 H181 0.950 . S
C207 C206 1.380 1_565 S
C207 C208 1.374 . S
C208 H182 0.950 . S
C208 C204 1.396 . S
C208 C207 1.374 . S
C209 C206 1.499 . S
C209 C210 1.364 1_545 S
C209 C211 1.399 . S
C210 H183 0.950 . S
C210 C196 1.377 . S
C210 C209 1.364 1_565 S
C211 C195 1.377 . S
C211 C209 1.399 . S
C211 C212 1.524 . S
C212 C211 1.524 . S
C212 C213 1.397 . S
C212 C217 1.363 . S
C213 H184 0.950 . S
C213 C212 1.397 . S
C213 C214 1.334 . S
C214 H185 0.950 . S
C214 C213 1.334 . S
C214 C215 1.287 . S
C215 C214 1.287 . S
C215 C216 1.524 . S
C215 H218 0.999 . S
C216 H186 0.950 . S
C216 C215 1.524 . S
C216 C217 1.415 . S
C217 H187 0.950 . S
C217 C212 1.363 . S
C217 C216 1.415 . S
H218 C215 0.999 . S
H219 C200 0.913 . S
H220 C238 0.951 . S
H221 C240 0.951 . S
H222 C242 0.950 . S
H223 C243 0.950 . S
H224 C245 0.950 . S
H225 C248 0.950 . S
H226 C249 0.950 . S
H227 C251 0.950 . S
H228 C252 0.950 . S
H229 C253 0.951 . S
H230 C255 0.951 . S
H231 C257 0.950 . S
H232 C258 0.950 . S
H233 C260 0.950 . S
H234 C263 0.950 . S
H235 C264 0.950 . S
H236 C266 0.950 . S
H237 C267 0.950 . S
C238 H220 0.951 . S
C238 C239 1.366 . S
C238 C240 1.388 . S
C239 C238 1.366 . S
C239 C243 1.385 . S
C240 H221 0.951 . S
C240 C238 1.388 . S
C240 C241 1.366 . S
C241 C240 1.366 . S
C241 C242 1.414 . S
C241 C244 1.499 . S
C242 H222 0.950 . S
C242 C241 1.414 . S
C242 C243 1.374 . S
C243 H223 0.950 . S
C243 C239 1.385 . S
C243 C242 1.374 . S
C244 C241 1.499 . S
C244 C245 1.373 . S
C244 C246 1.389 . S
C245 H224 0.950 . S
C245 C244 1.373 . S
C245 C261 1.377 . S
C246 C244 1.389 . S
C246 C247 1.524 . S
C246 C260 1.377 . S
C247 C246 1.524 . S
C247 C248 1.397 . S
C247 C252 1.363 . S
C248 H225 0.950 . S
C248 C247 1.397 . S
C248 C249 1.334 . S
C249 H226 0.950 . S
C249 C248 1.334 . S
C249 C250 1.287 . S
C250 C249 1.287 . S
C250 C251 1.524 . S
C250 H269 0.913 . S
C251 H227 0.950 . S
C251 C250 1.524 . S
C251 C252 1.415 . S
C252 H228 0.950 . S
C252 C247 1.363 . S
C252 C251 1.415 . S
C253 H229 0.951 . S
C253 C254 1.366 . S
C253 C255 1.388 . S
C254 C253 1.366 . S
C254 C258 1.385 . S
C255 H230 0.951 . S
C255 C253 1.388 . S
C255 C256 1.366 . S
C256 C255 1.366 . S
C256 C257 1.414 . S
C256 C259 1.499 . S
C257 H231 0.950 . S
C257 C256 1.414 . S
C257 C258 1.374 . S
C258 H232 0.950 . S
C258 C254 1.385 . S
C258 C257 1.374 . S
C259 C256 1.499 . S
C259 C260 1.373 . S
C259 C261 1.389 . S
C260 H233 0.950 . S
C260 C246 1.377 . S
C260 C259 1.373 . S
C261 C245 1.377 . S
C261 C259 1.389 . S
C261 C262 1.524 . S
C262 C261 1.524 . S
C262 C263 1.397 . S
C262 C267 1.363 . S
C263 H234 0.950 . S
C263 C262 1.397 . S
C263 C264 1.334 . S
C264 H235 0.950 . S
C264 C263 1.334 . S
C264 C265 1.287 . S
C265 C264 1.287 . S
C265 C266 1.524 . S
C265 H268 0.999 . S
C266 H236 0.950 . S
C266 C265 1.524 . S
C266 C267 1.415 . S
C267 H237 0.950 . S
C267 C262 1.363 . S
C267 C266 1.415 . S
H268 C265 0.999 . S
H269 C250 0.913 . S
H270 C288 0.951 . S
H271 C290 0.951 . S
H272 C292 0.950 . S
H273 C293 0.950 . S
H274 C295 0.950 . S
H275 C298 0.950 . S
H276 C299 0.950 . S
H277 C301 0.950 . S
H278 C302 0.950 . S
H279 C303 0.951 . S
H280 C305 0.951 . S
H281 C307 0.950 . S
H282 C308 0.950 . S
H283 C310 0.950 . S
H284 C313 0.950 . S
H285 C314 0.950 . S
H286 C316 0.950 1_556 S
H287 C317 0.950 1_556 S
C288 H270 0.951 . S
C288 C289 1.366 . S
C288 C290 1.388 . S
C289 C288 1.366 . S
C289 C293 1.385 1_554 S
C290 H271 0.951 . S
C290 C288 1.388 . S
C290 C291 1.366 . S
C291 C290 1.366 . S
C291 C292 1.414 1_554 S
C291 C294 1.499 . S
C292 H272 0.950 . S
C292 C291 1.414 1_556 S
C292 C293 1.374 . S
C293 H273 0.950 . S
C293 C289 1.385 1_556 S
C293 C292 1.374 . S
C294 C291 1.499 . S
C294 C295 1.373 . S
C294 C296 1.389 . S
C295 H274 0.950 . S
C295 C294 1.373 . S
C295 C311 1.377 . S
C296 C294 1.389 . S
C296 C297 1.524 1_554 S
C296 C310 1.377 . S
C297 C296 1.524 1_556 S
C297 C298 1.397 . S
C297 C302 1.363 1_556 S
C298 H275 0.950 . S
C298 C297 1.397 . S
C298 C299 1.334 . S
C299 H276 0.950 . S
C299 C298 1.334 . S
C299 C300 1.287 . S
C300 C299 1.287 . S
C300 C301 1.524 1_556 S
C300 H319 0.913 . S
C301 H277 0.950 . S
C301 C300 1.524 1_554 S
C301 C302 1.415 . S
C302 H278 0.950 . S
C302 C297 1.363 1_554 S
C302 C301 1.415 . S
C303 H279 0.951 . S
C303 C304 1.366 1_556 S
C303 C305 1.388 . S
C304 C303 1.366 1_554 S
C304 C308 1.385 . S
C305 H280 0.951 . S
C305 C303 1.388 . S
C305 C306 1.366 1_556 S
C306 C305 1.366 1_554 S
C306 C307 1.414 . S
C306 C309 1.499 . S
C307 H281 0.950 . S
C307 C306 1.414 . S
C307 C308 1.374 . S
C308 H282 0.950 . S
C308 C304 1.385 . S
C308 C307 1.374 . S
C309 C306 1.499 . S
C309 C310 1.373 . S
C309 C311 1.389 . S
C310 H283 0.950 . S
C310 C296 1.377 . S
C310 C309 1.373 . S
C311 C295 1.377 . S
C311 C309 1.389 . S
C311 C312 1.524 . S
C312 C311 1.524 . S
C312 C313 1.397 . S
C312 C317 1.363 . S
C313 H284 0.950 . S
C313 C312 1.397 . S
C313 C314 1.334 . S
C314 H285 0.950 . S
C314 C313 1.334 . S
C314 C315 1.287 . S
C315 C314 1.287 . S
C315 C316 1.524 . S
C315 H318 0.999 . S
C316 H286 0.950 1_554 S
C316 C315 1.524 . S
C316 C317 1.415 . S
C317 H287 0.950 1_554 S
C317 C312 1.363 . S
C317 C316 1.415 . S
H318 C315 0.999 . S
H319 C300 0.913 . S
H320 C338 0.951 . S
H321 C340 0.951 . S
H322 C342 0.950 . S
H323 C343 0.950 . S
H324 C345 0.950 . S
H325 C348 0.950 . S
H326 C349 0.950 . S
H327 C351 0.950 . S
H328 C352 0.950 . S
H329 C353 0.951 . S
H330 C355 0.951 . S
H331 C357 0.950 . S
H332 C358 0.952 . S
H333 C360 0.950 . S
H334 C363 0.950 . S
H335 C364 0.950 . S
H336 C366 0.950 . S
H337 C367 0.950 . S
C338 H320 0.951 . S
C338 C339 1.366 1_556 S
C338 C340 1.388 . S
C339 C338 1.366 1_554 S
C339 C343 1.385 . S
C340 H321 0.951 . S
C340 C338 1.388 . S
C340 C341 1.366 1_556 S
C341 C340 1.366 1_554 S
C341 C342 1.414 . S
C341 C344 1.499 . S
C342 H322 0.950 . S
C342 C341 1.414 . S
C342 C343 1.374 . S
C343 H323 0.950 . S
C343 C339 1.385 . S
C343 C342 1.374 . S
C344 C341 1.499 . S
C344 C345 1.373 1_554 S
C344 C346 1.389 . S
C345 H324 0.950 . S
C345 C344 1.373 1_556 S
C345 C361 1.377 . S
C346 C344 1.389 . S
C346 C347 1.524 . S
C346 C360 1.377 . S
C347 C346 1.524 . S
C347 C348 1.397 . S
C347 C352 1.363 . S
C348 H325 0.950 . S
C348 C347 1.397 . S
C348 C349 1.334 . S
C349 H326 0.950 . S
C349 C348 1.334 . S
C349 C350 1.287 . S
C350 C349 1.287 . S
C350 C351 1.524 . S
C350 H369 0.913 . S
C351 H327 0.950 . S
C351 C350 1.524 . S
C351 C352 1.415 . S
C352 H328 0.950 . S
C352 C347 1.363 . S
C352 C351 1.415 . S
C353 H329 0.951 . S
C353 C354 1.366 . S
C353 C355 1.388 . S
C354 C353 1.366 . S
C354 C358 1.383 1_554 S
C355 H330 0.951 . S
C355 C353 1.388 . S
C355 C356 1.366 . S
C356 C355 1.366 . S
C356 C357 1.414 1_554 S
C356 C359 1.499 . S
C357 H331 0.950 . S
C357 C356 1.414 1_556 S
C357 C358 1.373 . S
C358 H332 0.952 . S
C358 C354 1.383 1_556 S
C358 C357 1.373 . S
C359 C356 1.499 . S
C359 C360 1.373 . S
C359 C361 1.389 1_554 S
C360 H333 0.950 . S
C360 C346 1.377 . S
C360 C359 1.373 . S
C361 C345 1.377 . S
C361 C359 1.389 1_556 S
C361 C362 1.524 . S
C362 C361 1.524 . S
C362 C363 1.397 . S
C362 C367 1.363 . S
C363 H334 0.950 . S
C363 C362 1.397 . S
C363 C364 1.334 . S
C364 H335 0.950 . S
C364 C363 1.334 . S
C364 C365 1.287 . S
C365 C364 1.287 . S
C365 C366 1.524 . S
C365 H368 0.999 . S
C366 H336 0.950 . S
C366 C365 1.524 . S
C366 C367 1.415 . S
C367 H337 0.950 . S
C367 C362 1.363 . S
C367 C366 1.415 . S
H368 C365 0.999 . S
H369 C350 0.913 . S
H370 C388 0.951 . S
H371 C390 0.951 1_556 S
H372 C392 0.950 . S
H373 C393 0.950 . S
H374 C395 0.950 . S
H375 C398 0.950 . S
H376 C399 0.950 . S
H377 C401 0.950 . S
H378 C402 0.950 . S
H379 C403 0.951 . S
H380 C405 0.951 . S
H381 C407 0.950 . S
H382 C408 0.950 . S
H383 C410 0.950 . S
H384 C413 0.950 . S
H385 C414 0.950 . S
H386 C416 0.950 . S
H387 C417 0.950 . S
C388 H370 0.951 . S
C388 C389 1.366 . S
C388 C390 1.388 . S
C389 C388 1.366 . S
C389 C393 1.385 . S
C390 H371 0.951 1_554 S
C390 C388 1.388 . S
C390 C391 1.366 . S
C391 C390 1.366 . S
C391 C392 1.414 . S
C391 C394 1.499 . S
C392 H372 0.950 . S
C392 C391 1.414 . S
C392 C393 1.374 . S
C393 H373 0.950 . S
C393 C389 1.385 . S
C393 C392 1.374 . S
C394 C391 1.499 . S
C394 C395 1.373 1_554 S
C394 C396 1.389 . S
C395 H374 0.950 . S
C395 C394 1.373 1_556 S
C395 C411 1.377 . S
C396 C394 1.389 . S
C396 C397 1.524 . S
C396 C410 1.377 . S
C397 C396 1.524 . S
C397 C398 1.397 . S
C397 C402 1.363 . S
C398 H375 0.950 . S
C398 C397 1.397 . S
C398 C399 1.334 . S
C399 H376 0.950 . S
C399 C398 1.334 . S
C399 C400 1.287 . S
C400 C399 1.287 . S
C400 C401 1.524 . S
C400 H419 0.913 . S
C401 H377 0.950 . S
C401 C400 1.524 . S
C401 C402 1.415 . S
C402 H378 0.950 . S
C402 C397 1.363 . S
C402 C401 1.415 . S
C403 H379 0.951 . S
C403 C404 1.366 . S
C403 C405 1.388 . S
C404 C403 1.366 . S
C404 C408 1.385 1_554 S
C405 H380 0.951 . S
C405 C403 1.388 . S
C405 C406 1.366 . S
C406 C405 1.366 . S
C406 C407 1.414 1_554 S
C406 C409 1.499 . S
C407 H381 0.950 . S
C407 C406 1.414 1_556 S
C407 C408 1.374 . S
C408 H382 0.950 . S
C408 C404 1.385 1_556 S
C408 C407 1.374 . S
C409 C406 1.499 . S
C409 C410 1.373 . S
C409 C411 1.389 1_554 S
C410 H383 0.950 . S
C410 C396 1.377 . S
C410 C409 1.373 . S
C411 C395 1.377 . S
C411 C409 1.389 1_556 S
C411 C412 1.524 . S
C412 C411 1.524 . S
C412 C413 1.397 . S
C412 C417 1.363 . S
C413 H384 0.950 . S
C413 C412 1.397 . S
C413 C414 1.334 . S
C414 H385 0.950 . S
C414 C413 1.334 . S
C414 C415 1.287 . S
C415 C414 1.287 . S
C415 C416 1.524 . S
C415 H418 0.999 . S
C416 H386 0.950 . S
C416 C415 1.524 . S
C416 C417 1.415 . S
C417 H387 0.950 . S
C417 C412 1.363 . S
C417 C416 1.415 . S
H418 C415 0.999 . S
H419 C400 0.913 . S
H420 C438 0.951 . S
H421 C440 0.951 . S
H422 C442 0.950 . S
H423 C443 0.950 . S
H424 C445 0.950 . S
H425 C448 0.950 . S
H426 C449 0.950 . S
H427 C451 0.950 . S
H428 C452 0.950 . S
H429 C453 0.951 . S
H430 C455 0.951 . S
H431 C457 0.950 . S
H432 C458 0.950 . S
H433 C460 0.950 . S
H434 C463 0.950 . S
H435 C464 0.950 . S
H436 C466 0.950 . S
H437 C467 0.950 . S
C438 H420 0.951 . S
C438 C439 1.366 1_554 S
C438 C440 1.388 . S
C439 C438 1.366 1_556 S
C439 C443 1.385 . S
C440 H421 0.951 . S
C440 C438 1.388 . S
C440 C441 1.366 1_554 S
C441 C440 1.366 1_556 S
C441 C442 1.414 . S
C441 C444 1.499 . S
C442 H422 0.950 . S
C442 C441 1.414 . S
C442 C443 1.374 . S
C443 H423 0.950 . S
C443 C439 1.385 . S
C443 C442 1.374 . S
C444 C441 1.499 . S
C444 C445 1.373 . S
C444 C446 1.389 1_556 S
C445 H424 0.950 . S
C445 C444 1.373 . S
C445 C461 1.377 . S
C446 C444 1.389 1_554 S
C446 C447 1.524 . S
C446 C460 1.377 . S
C447 C446 1.524 . S
C447 C448 1.397 . S
C447 C452 1.363 . S
C448 H425 0.950 . S
C448 C447 1.397 . S
C448 C449 1.334 . S
C449 H426 0.950 . S
C449 C448 1.334 . S
C449 C450 1.287 . S
C450 C449 1.287 . S
C450 C451 1.524 . S
C450 H469 0.913 . S
C451 H427 0.950 . S
C451 C450 1.524 . S
C451 C452 1.415 . S
C452 H428 0.950 . S
C452 C447 1.363 . S
C452 C451 1.415 . S
C453 H429 0.951 . S
C453 C454 1.366 . S
C453 C455 1.388 . S
C454 C453 1.366 . S
C454 C458 1.385 1_556 S
C455 H430 0.951 . S
C455 C453 1.388 . S
C455 C456 1.366 . S
C456 C455 1.366 . S
C456 C457 1.414 1_556 S
C456 C459 1.499 . S
C457 H431 0.950 . S
C457 C456 1.414 1_554 S
C457 C458 1.374 . S
C458 H432 0.950 . S
C458 C454 1.385 1_554 S
C458 C457 1.374 . S
C459 C456 1.499 . S
C459 C460 1.373 1_556 S
C459 C461 1.389 . S
C460 H433 0.950 . S
C460 C446 1.377 . S
C460 C459 1.373 1_554 S
C461 C445 1.377 . S
C461 C459 1.389 . S
C461 C462 1.524 . S
C462 C461 1.524 . S
C462 C463 1.397 . S
C462 C467 1.363 . S
C463 H434 0.950 . S
C463 C462 1.397 . S
C463 C464 1.334 . S
C464 H435 0.950 . S
C464 C463 1.334 . S
C464 C465 1.287 . S
C465 C464 1.287 . S
C465 C466 1.524 . S
C465 H468 0.999 . S
C466 H436 0.950 . S
C466 C465 1.524 . S
C466 C467 1.415 . S
C467 H437 0.950 . S
C467 C462 1.363 . S
C467 C466 1.415 . S
H468 C465 0.999 . S
H469 C450 0.913 . S
H470 C488 0.951 . S
H471 C490 0.951 . S
H472 C492 0.950 . S
H473 C493 0.950 . S
H474 C495 0.950 1_554 S
H475 C498 0.950 . S
H476 C499 0.950 . S
H477 C501 0.950 . S
H478 C502 0.950 1_554 S
H479 C503 0.951 . S
H480 C505 0.951 . S
H481 C507 0.950 . S
H482 C508 0.950 . S
H483 C510 0.950 . S
H484 C513 0.950 . S
H485 C514 0.950 . S
H486 C516 0.950 . S
H487 C517 0.950 1_556 S
C488 H470 0.951 . S
C488 C489 1.366 1_554 S
C488 C490 1.388 . S
C489 C488 1.366 1_556 S
C489 C493 1.385 . S
C490 H471 0.951 . S
C490 C488 1.388 . S
C490 C491 1.366 1_554 S
C491 C490 1.366 1_556 S
C491 C492 1.414 . S
C491 C494 1.499 . S
C492 H472 0.950 . S
C492 C491 1.414 . S
C492 C493 1.374 . S
C493 H473 0.950 . S
C493 C489 1.385 . S
C493 C492 1.374 . S
C494 C491 1.499 . S
C494 C495 1.373 . S
C494 C496 1.389 . S
C495 H474 0.950 1_556 S
C495 C494 1.373 . S
C495 C511 1.377 1_556 S
C496 C494 1.389 . S
C496 C497 1.524 . S
C496 C510 1.377 . S
C497 C496 1.524 . S
C497 C498 1.397 . S
C497 C502 1.363 . S
C498 H475 0.950 . S
C498 C497 1.397 . S
C498 C499 1.334 . S
C499 H476 0.950 . S
C499 C498 1.334 . S
C499 C500 1.287 . S
C500 C499 1.287 . S
C500 C501 1.524 . S
C500 H519 0.913 . S
C501 H477 0.950 . S
C501 C500 1.524 . S
C501 C502 1.415 . S
C502 H478 0.950 1_556 S
C502 C497 1.363 . S
C502 C501 1.415 . S
C503 H479 0.951 . S
C503 C504 1.366 . S
C503 C505 1.388 . S
C504 C503 1.366 . S
C504 C508 1.385 1_556 S
C505 H480 0.951 . S
C505 C503 1.388 . S
C505 C506 1.366 . S
C506 C505 1.366 . S
C506 C507 1.414 1_556 S
C506 C509 1.499 . S
C507 H481 0.950 . S
C507 C506 1.414 1_554 S
C507 C508 1.374 . S
C508 H482 0.950 . S
C508 C504 1.385 1_554 S
C508 C507 1.374 . S
C509 C506 1.499 . S
C509 C510 1.373 . S
C509 C511 1.389 1_556 S
C510 H483 0.950 . S
C510 C496 1.377 . S
C510 C509 1.373 . S
C511 C495 1.377 1_554 S
C511 C509 1.389 1_554 S
C511 C512 1.524 . S
C512 C511 1.524 . S
C512 C513 1.397 . S
C512 C517 1.363 . S
C513 H484 0.950 . S
C513 C512 1.397 . S
C513 C514 1.334 . S
C514 H485 0.950 . S
C514 C513 1.334 . S
C514 C515 1.287 . S
C515 C514 1.287 . S
C515 C516 1.524 . S
C515 H518 0.999 . S
C516 H486 0.950 . S
C516 C515 1.524 . S
C516 C517 1.415 . S
C517 H487 0.950 1_554 S
C517 C512 1.363 . S
C517 C516 1.415 . S
H518 C515 0.999 . S
H519 C500 0.913 . S
H520 C538 0.951 . S
H521 C540 0.951 . S
H522 C542 0.950 . S
H523 C543 0.950 . S
H524 C545 0.950 . S
H525 C548 0.950 . S
H526 C549 0.950 . S
H527 C551 0.950 . S
H528 C552 0.950 . S
H529 C553 0.951 . S
H530 C555 0.951 . S
H531 C557 0.950 . S
H532 C558 0.950 . S
H533 C560 0.950 . S
H534 C563 0.950 . S
H535 C564 0.950 . S
H536 C566 0.950 . S
H537 C567 0.950 1_556 S
C538 H520 0.951 . S
C538 C539 1.366 1_554 S
C538 C540 1.388 . S
C539 C538 1.366 1_556 S
C539 C543 1.385 . S
C540 H521 0.951 . S
C540 C538 1.388 . S
C540 C541 1.366 1_554 S
C541 C540 1.366 1_556 S
C541 C542 1.414 . S
C541 C544 1.499 . S
C542 H522 0.950 . S
C542 C541 1.414 . S
C542 C543 1.374 . S
C543 H523 0.950 . S
C543 C539 1.385 . S
C543 C542 1.374 . S
C544 C541 1.499 . S
C544 C545 1.373 1_556 S
C544 C546 1.389 . S
C545 H524 0.950 . S
C545 C544 1.373 1_554 S
C545 C561 1.377 . S
C546 C544 1.389 . S
C546 C547 1.524 . S
C546 C560 1.377 . S
C547 C546 1.524 . S
C547 C548 1.397 . S
C547 C552 1.363 . S
C548 H525 0.950 . S
C548 C547 1.397 . S
C548 C549 1.334 . S
C549 H526 0.950 . S
C549 C548 1.334 . S
C549 C550 1.287 . S
C550 C549 1.287 . S
C550 C551 1.524 . S
C550 H569 0.913 . S
C551 H527 0.950 . S
C551 C550 1.524 . S
C551 C552 1.415 . S
C552 H528 0.950 . S
C552 C547 1.363 . S
C552 C551 1.415 . S
C553 H529 0.951 . S
C553 C554 1.366 . S
C553 C555 1.388 . S
C554 C553 1.366 . S
C554 C558 1.385 1_556 S
C555 H530 0.951 . S
C555 C553 1.388 . S
C555 C556 1.366 . S
C556 C555 1.366 . S
C556 C557 1.414 1_556 S
C556 C559 1.499 . S
C557 H531 0.950 . S
C557 C556 1.414 1_554 S
C557 C558 1.374 . S
C558 H532 0.950 . S
C558 C554 1.385 1_554 S
C558 C557 1.374 . S
C559 C556 1.499 . S
C559 C560 1.373 . S
C559 C561 1.389 1_556 S
C560 H533 0.950 . S
C560 C546 1.377 . S
C560 C559 1.373 . S
C561 C545 1.377 . S
C561 C559 1.389 1_554 S
C561 C562 1.524 . S
C562 C561 1.524 . S
C562 C563 1.397 . S
C562 C567 1.363 . S
C563 H534 0.950 . S
C563 C562 1.397 . S
C563 C564 1.334 . S
C564 H535 0.950 . S
C564 C563 1.334 . S
C564 C565 1.287 . S
C565 C564 1.287 . S
C565 C566 1.524 . S
C565 H568 0.999 . S
C566 H536 0.950 . S
C566 C565 1.524 . S
C566 C567 1.415 . S
C567 H537 0.950 1_554 S
C567 C562 1.363 . S
C567 C566 1.415 . S
H568 C565 0.999 . S
H569 C550 0.913 . S
C139 C18 1.446 1_455 S
C154 C8 1.445 . S
C189 C48 1.452 . S
C204 C58 1.448 . S
C239 C98 1.447 . S
C254 C88 1.447 . S
C289 C9 1.603 . S
C304 C95 1.611 . S
C339 C49 1.605 . S
C354 C15 1.611 . S
C389 C55 1.615 . S
C404 C99 1.611 1_554 S
C439 C19 1.603 . S
C454 C85 1.611 . S
C489 C5 1.611 . S
C504 C59 1.605 . S
C539 C89 1.611 1_556 S
C554 C45 1.615 . S
