# Generated by pormake.
# Topology msp, (4)-cn, num edge types: 1
# Building blocks:
#     Node 0, Type 0, BuildingBlock: NAWXER_clean_sbu_0, # of connection points: 4
#     Node 1, Type 0, BuildingBlock: NAWXER_clean_sbu_0, # of connection points: 4
#     Node 2, Type 0, BuildingBlock: NAWXER_clean_sbu_0, # of connection points: 4
#     Node 3, Type 0, BuildingBlock: NAWXER_clean_sbu_0, # of connection points: 4
#     Node 4, Type 0, BuildingBlock: NAWXER_clean_sbu_0, # of connection points: 4
#     Node 5, Type 0, BuildingBlock: NAWXER_clean_sbu_0, # of connection points: 4
#     Node 6, Type 0, BuildingBlock: NAWXER_clean_sbu_0, # of connection points: 4
#     Node 7, Type 0, BuildingBlock: NAWXER_clean_sbu_0, # of connection points: 4
#     Edge 8, Type (0, 0), BuildingBlock: KIFKEQ_clean_linker_1, # of connection points: 2
#     Edge 9, Type (0, 0), BuildingBlock: KIFKEQ_clean_linker_1, # of connection points: 2
#     Edge 10, Type (0, 0), BuildingBlock: KIFKEQ_clean_linker_1, # of connection points: 2
#     Edge 11, Type (0, 0), BuildingBlock: KIFKEQ_clean_linker_1, # of connection points: 2
#     Edge 12, Type (0, 0), BuildingBlock: KIFKEQ_clean_linker_1, # of connection points: 2
#     Edge 13, Type (0, 0), BuildingBlock: KIFKEQ_clean_linker_1, # of connection points: 2
#     Edge 14, Type (0, 0), BuildingBlock: KIFKEQ_clean_linker_1, # of connection points: 2
#     Edge 15, Type (0, 0), BuildingBlock: KIFKEQ_clean_linker_1, # of connection points: 2
#     Edge 16, Type (0, 0), BuildingBlock: KIFKEQ_clean_linker_1, # of connection points: 2
#     Edge 17, Type (0, 0), BuildingBlock: KIFKEQ_clean_linker_1, # of connection points: 2
#     Edge 18, Type (0, 0), BuildingBlock: KIFKEQ_clean_linker_1, # of connection points: 2
#     Edge 19, Type (0, 0), BuildingBlock: KIFKEQ_clean_linker_1, # of connection points: 2
#     Edge 20, Type (0, 0), BuildingBlock: KIFKEQ_clean_linker_1, # of connection points: 2
#     Edge 21, Type (0, 0), BuildingBlock: KIFKEQ_clean_linker_1, # of connection points: 2
#     Edge 22, Type (0, 0), BuildingBlock: KIFKEQ_clean_linker_1, # of connection points: 2
#     Edge 23, Type (0, 0), BuildingBlock: KIFKEQ_clean_linker_1, # of connection points: 2
# Relax obj value: 0.113
# Max RMSD: 0.238
# Mean RMSD: 0.238
data_MOF--net-msp--node1-NAWXER_clean_sbu_0--edge1-KIFKEQ_clean_linker_1
_symmetry_space_group_name_H-M    P1
_symmetry_Int_Tables_number       1
_symmetry_cell_setting            triclinic
loop_
_symmetry_equiv_pos_as_xyz
'x, y, z'
_cell_length_a     23.227256
_cell_length_b     19.743128
_cell_length_c     44.940574
_cell_angle_alpha  90.006341
_cell_angle_beta   100.24958
_cell_angle_gamma 90.018156
loop_
_atom_site_label
_atom_site_type_symbol
_atom_site_fract_x
_atom_site_fract_y
_atom_site_fract_z
_atom_type_partial_charge
C0 C 0.11742 0.22953 0.40684 0.0
C1 C 0.9415 0.26651 0.33252 0.0
O2 O 0.11525 0.28955 0.39562 0.0
Zn3 Zn 0.05608 0.34851 0.36242 0.0
O4 O 0.07676 0.18748 0.39746 0.0
Zn5 Zn 0.03111 0.24912 0.36988 0.0
O6 O 0.08631 0.25989 0.33602 0.0
O7 O 0.10509 0.36898 0.33343 0.0
O8 O 0.95832 0.2149 0.34844 0.0
O9 O 0.97339 0.32001 0.33549 0.0
O10 O 0.03769 0.42266 0.38698 0.0
O11 O 0.0101 0.32355 0.40213 0.0
C12 C 0.1119 0.3088 0.32476 0.0
C13 C 0.01632 0.38777 0.4061 0.0
C14 C 0.39276 0.30884 0.68504 0.0
C15 C 0.48682 0.39055 0.60363 0.0
O16 O 0.41945 0.26057 0.67394 0.0
Zn17 Zn 0.4748 0.25153 0.63982 0.0
O18 O 0.39836 0.36919 0.67623 0.0
Zn19 Zn 0.44788 0.35004 0.64751 0.0
O20 O 0.38957 0.28981 0.61445 0.0
O21 O 0.43006 0.18895 0.61229 0.0
O22 O 0.46545 0.42495 0.6229 0.0
O23 O 0.49378 0.32646 0.60755 0.0
O24 O 0.54911 0.21981 0.66063 0.0
O25 O 0.53019 0.32269 0.67505 0.0
C26 C 0.38845 0.22992 0.60314 0.0
C27 C 0.5639 0.27077 0.67737 0.0
C28 C 0.89733 0.69902 0.6865 0.0
C29 C 0.99113 0.6075 0.60698 0.0
O30 O 0.9056 0.63761 0.68011 0.0
Zn31 Zn 0.95266 0.65375 0.64978 0.0
O32 O 0.92165 0.74608 0.67337 0.0
Zn33 Zn 0.97761 0.75125 0.63955 0.0
O34 O 0.93226 0.80973 0.6105 0.0
O35 O 0.89298 0.70913 0.61531 0.0
O36 O 0.99875 0.67191 0.60935 0.0
O37 O 0.96882 0.57632 0.62687 0.0
O38 O 0.03619 0.68407 0.67518 0.0
O39 O 0.05029 0.78774 0.66006 0.0
C40 C 0.8911 0.76751 0.60249 0.0
C41 C 0.06781 0.7377 0.67685 0.0
C42 C 0.44241 0.73355 0.33069 0.0
C43 C 0.61748 0.7653 0.40597 0.0
O44 O 0.45943 0.784 0.34735 0.0
Zn45 Zn 0.53155 0.74795 0.36849 0.0
O46 O 0.47392 0.67976 0.333 0.0
Zn47 Zn 0.55655 0.64971 0.35968 0.0
O48 O 0.53891 0.57389 0.38302 0.0
O49 O 0.509 0.67067 0.39936 0.0
O50 O 0.6154 0.7062 0.39386 0.0
O51 O 0.57691 0.80773 0.39712 0.0
O52 O 0.58749 0.73982 0.33462 0.0
O53 O 0.60559 0.6309 0.33072 0.0
C54 C 0.51619 0.60632 0.40239 0.0
C55 C 0.61297 0.69152 0.32285 0.0
C56 C 0.60955 0.81122 0.82381 0.0
C57 C 0.51583 0.89907 0.90394 0.0
O58 O 0.58333 0.7635 0.8356 0.0
Zn59 Zn 0.52812 0.75697 0.87009 0.0
O60 O 0.60362 0.87201 0.83189 0.0
Zn61 Zn 0.55473 0.85439 0.86088 0.0
O62 O 0.61327 0.79713 0.8948 0.0
O63 O 0.57333 0.69658 0.89856 0.0
O64 O 0.53808 0.93091 0.88423 0.0
O65 O 0.50802 0.83482 0.90109 0.0
O66 O 0.4542 0.72311 0.84985 0.0
O67 O 0.47229 0.82501 0.83393 0.0
C68 C 0.61472 0.73825 0.90706 0.0
C69 C 0.43899 0.77278 0.83239 0.0
C70 C 0.90124 0.80292 0.18578 0.0
C71 C 0.99119 0.89645 0.1053 0.0
O72 O 0.92622 0.75635 0.17264 0.0
Zn73 Zn 0.98097 0.75256 0.13799 0.0
O74 O 0.9077 0.86449 0.17897 0.0
Zn75 Zn 0.95434 0.84924 0.14857 0.0
O76 O 0.89475 0.79261 0.11464 0.0
O77 O 0.93553 0.69318 0.10925 0.0
O78 O 0.96942 0.92713 0.1255 0.0
O79 O 0.99944 0.8322 0.10755 0.0
O80 O 0.05552 0.71858 0.15758 0.0
O81 O 0.0376 0.81977 0.17427 0.0
C82 C 0.89339 0.73437 0.10174 0.0
C83 C 0.07106 0.76785 0.17523 0.0
C84 C 0.49352 0.11672 0.10559 0.0
C85 C 0.39898 0.20178 0.18639 0.0
O86 O 0.47316 0.08266 0.12535 0.0
Zn87 Zn 0.4543 0.15851 0.14922 0.0
O88 O 0.49916 0.1811 0.1088 0.0
Zn89 Zn 0.47873 0.25758 0.13982 0.0
O90 O 0.5526 0.29259 0.16026 0.0
O91 O 0.5362 0.1897 0.1756 0.0
O92 O 0.42353 0.24955 0.17379 0.0
O93 O 0.4067 0.14065 0.17922 0.0
O94 O 0.39425 0.21469 0.11535 0.0
O95 O 0.43208 0.31641 0.11122 0.0
C96 C 0.56871 0.24257 0.17738 0.0
C97 C 0.39153 0.2735 0.1029 0.0
C98 C 0.93584 0.24541 0.83296 0.0
C99 C 0.11418 0.27355 0.90683 0.0
O100 O 0.95432 0.29621 0.84909 0.0
Zn101 Zn 0.0269 0.2591 0.8699 0.0
O102 O 0.96666 0.19115 0.83519 0.0
Zn103 Zn 0.04937 0.15938 0.8606 0.0
O104 O 0.03033 0.08411 0.88452 0.0
O105 O 0.00506 0.18301 0.90102 0.0
O106 O 0.11051 0.21459 0.89449 0.0
O107 O 0.07436 0.31723 0.89843 0.0
O108 O 0.08193 0.24973 0.83612 0.0
O109 O 0.09614 0.14055 0.83015 0.0
C110 C 0.01014 0.11852 0.90423 0.0
C111 C 0.10533 0.20148 0.82328 0.0
H112 H 0.00802 0.32385 0.45895 0.0
H113 H 0.00549 0.52257 0.41866 0.0
H114 H 0.00622 0.3748 0.50795 0.0
H115 H 1.00055 0.57398 0.46747 0.0
H116 H 0.05116 0.65156 0.5633 0.0
H117 H 0.05614 0.59772 0.51499 0.0
H118 H 0.95142 0.43136 0.5383 0.0
H119 H 0.9493 0.48341 0.58698 0.0
C120 C 0.00559 0.37852 0.46041 0.0
C121 C 0.00668 0.41911 0.43483 0.0
C122 C 0.00453 0.40793 0.48863 0.0
C123 C 0.00356 0.47883 0.49199 0.0
C124 C 1.00268 0.51932 0.46609 0.0
C125 C 0.00471 0.48985 0.43793 0.0
C126 C 0.03008 0.60292 0.55826 0.0
C127 C 1.00018 0.57167 0.57913 0.0
C128 C 0.03221 0.57234 0.53033 0.0
C129 C 0.00367 0.51021 0.52234 0.0
C130 C 0.97476 0.47853 0.54359 0.0
C131 C 0.97344 0.50855 0.57165 0.0
H132 H 0.45563 0.653 0.44547 0.0
H133 H 0.55666 0.48262 0.42335 0.0
H134 H 0.44891 0.60062 0.49393 0.0
H135 H 0.55298 0.4322 0.47211 0.0
H136 H 0.4967 0.52557 0.59083 0.0
H137 H 0.50224 0.57661 0.54197 0.0
H138 H 0.49684 0.37701 0.50186 0.0
H139 H 0.49464 0.32657 0.55083 0.0
C140 C 0.47615 0.60421 0.45089 0.0
C141 C 0.50625 0.57183 0.4304 0.0
C142 C 0.47302 0.57447 0.47889 0.0
C143 C 0.50076 0.5121 0.48731 0.0
C144 C 0.53008 0.47949 0.46647 0.0
C145 C 0.53233 0.50861 0.43836 0.0
C146 C 0.49764 0.49273 0.57161 0.0
C147 C 0.49585 0.422 0.57483 0.0
C148 C 0.50003 0.52198 0.54343 0.0
C149 C 0.49965 0.48122 0.51764 0.0
C150 C 0.49837 0.41037 0.5211 0.0
C151 C 0.49703 0.38123 0.54931 0.0
H152 H 0.50333 0.98131 0.09313 0.0
H153 H 0.50058 0.17981 0.05257 0.0
H154 H 0.5076 0.92968 0.04418 0.0
H155 H 0.50148 0.12884 1.00364 0.0
H156 H 0.55788 0.02253 0.9245 0.0
H157 H 0.55651 0.07312 0.97349 0.0
H158 H 0.45241 0.90578 0.99644 0.0
H159 H 0.45675 0.85326 0.94773 0.0
C160 C 0.50391 0.0139 0.07379 0.0
C161 C 0.50223 0.08467 0.07686 0.0
C162 C 0.50556 0.98434 0.04558 0.0
C163 C 0.50454 0.02482 0.01965 0.0
C164 C 0.5035 0.09569 0.02298 0.0
C165 C 0.50289 0.12512 0.05119 0.0
C166 C 0.53404 0.99684 0.93981 0.0
C167 C 0.50723 0.93389 0.93209 0.0
C168 C 0.53313 0.02602 0.96805 0.0
C169 C 0.50448 0.99374 0.98926 0.0
C170 C 0.47604 0.93164 0.9811 0.0
C171 C 0.47779 0.90185 0.95296 0.0
H172 H 0.04965 0.85308 0.06092 0.0
H173 H 0.94807 0.02029 0.08569 0.0
H174 H 0.05265 0.90709 0.01243 0.0
H175 H 0.94826 0.07254 0.03685 0.0
H176 H 1.00293 0.18128 0.95741 0.0
H177 H 1.00229 0.12961 0.0063 0.0
H178 H 0.99568 0.93104 0.96517 0.0
H179 H 0.99949 0.98325 0.91635 0.0
C180 C 0.02821 0.90155 0.05607 0.0
C181 C 0.99898 0.93251 0.0773 0.0
C182 C 0.02919 0.93221 0.02805 0.0
C183 C 1.0002 0.99415 0.02034 0.0
C184 C 0.97191 0.02551 0.04193 0.0
C185 C 0.97172 0.9954 0.07007 0.0
C186 C 1.00052 0.12659 0.95868 0.0
C187 C 1.00103 0.08643 0.93289 0.0
C188 C 1.0001 0.09676 0.98684 0.0
C189 C 0.99921 0.02584 0.99 0.0
C190 C 0.99773 0.98572 0.96392 0.0
C191 C 0.99911 0.01564 0.93577 0.0
H192 H 0.60212 0.1611 0.22644 0.0
H193 H 0.65922 0.33195 0.17918 0.0
H194 H 0.69068 0.16868 0.26437 0.0
H195 H 0.74933 0.33773 0.21631 0.0
H196 H 0.87923 0.37251 0.30351 0.0
H197 H 0.78876 0.36728 0.26649 0.0
H198 H 0.7913 0.14865 0.27268 0.0
H199 H 0.87981 0.15435 0.3106 0.0
C200 C 0.63399 0.1998 0.22396 0.0
C201 C 0.62367 0.24587 0.19979 0.0
C202 C 0.68506 0.20399 0.24565 0.0
C203 C 0.72757 0.25374 0.24349 0.0
C204 C 0.71729 0.2995 0.2191 0.0
C205 C 0.66578 0.29589 0.19763 0.0
C206 C 0.86021 0.32342 0.29701 0.0
C207 C 0.88651 0.2639 0.3101 0.0
C208 C 0.80853 0.32031 0.2756 0.0
C209 C 0.78241 0.25749 0.26648 0.0
C210 C 0.80921 0.19803 0.27952 0.0
C211 C 0.8603 0.20124 0.30119 0.0
H212 H 0.59555 0.35312 0.72652 0.0
H213 H 0.65615 0.18456 0.67918 0.0
H214 H 0.68381 0.34645 0.76493 0.0
H215 H 0.74551 0.1797 0.71666 0.0
H216 H 0.8722 0.14116 0.80357 0.0
H217 H 0.78186 0.14808 0.76673 0.0
H218 H 0.78512 0.36639 0.77482 0.0
H219 H 0.87391 0.35896 0.81267 0.0
C220 C 0.6281 0.31518 0.72412 0.0
C221 C 0.61879 0.26924 0.69987 0.0
C222 C 0.67891 0.31149 0.74608 0.0
C223 C 0.72199 0.26231 0.74408 0.0
C224 C 0.71291 0.21724 0.71943 0.0
C225 C 0.6618 0.22035 0.69774 0.0
C226 C 0.85342 0.19057 0.79757 0.0
C227 C 0.88021 0.24947 0.81106 0.0
C228 C 0.80179 0.19467 0.77624 0.0
C229 C 0.7761 0.25788 0.76753 0.0
C230 C 0.80292 0.31675 0.78122 0.0
C231 C 0.85412 0.31255 0.80285 0.0
H232 H 0.13082 0.63461 0.70772 0.0
H233 H 0.12955 0.85178 0.69606 0.0
H234 H 0.22111 0.64329 0.74464 0.0
H235 H 0.21799 0.86104 0.73391 0.0
H236 H 0.40699 0.85121 0.78207 0.0
H237 H 0.31898 0.84142 0.74372 0.0
H238 H 0.25817 0.678 0.79428 0.0
H239 H 0.34744 0.68589 0.83175 0.0
C240 C 0.14968 0.68423 0.71318 0.0
C241 C 0.12314 0.74243 0.69892 0.0
C242 C 0.20126 0.68937 0.73453 0.0
C243 C 0.22702 0.75296 0.74245 0.0
C244 C 0.20024 0.8111 0.72808 0.0
C245 C 0.14921 0.80584 0.70645 0.0
C246 C 0.37469 0.81335 0.78499 0.0
C247 C 0.3842 0.76929 0.8099 0.0
C248 C 0.32401 0.80785 0.76306 0.0
C249 C 0.28121 0.75878 0.76576 0.0
C250 C 0.29054 0.71544 0.79101 0.0
C251 C 0.34157 0.72033 0.81269 0.0
H252 H 0.37982 0.63003 0.29976 0.0
H253 H 0.38164 0.84746 0.31051 0.0
H254 H 0.28985 0.6384 0.26254 0.0
H255 H 0.29361 0.85635 0.27242 0.0
H256 H 0.10424 0.8465 0.22533 0.0
H257 H 0.19266 0.83675 0.2633 0.0
H258 H 0.25206 0.67249 0.21272 0.0
H259 H 0.16226 0.68039 0.17554 0.0
C260 C 0.36118 0.67963 0.29403 0.0
C261 C 0.38769 0.738 0.30818 0.0
C262 C 0.3098 0.68457 0.27251 0.0
C263 C 0.28422 0.74812 0.26434 0.0
C264 C 0.31116 0.80644 0.27847 0.0
C265 C 0.36196 0.80139 0.30025 0.0
C266 C 0.1363 0.80847 0.22229 0.0
C267 C 0.12624 0.76422 0.19745 0.0
C268 C 0.18724 0.80301 0.24402 0.0
C269 C 0.2298 0.75377 0.2412 0.0
C270 C 0.21992 0.71014 0.21604 0.0
C271 C 0.1686 0.71503 0.19454 0.0
H272 H 0.35697 0.1165 0.22555 0.0
H273 H 0.34995 0.32415 0.19492 0.0
H274 H 0.28812 0.14305 0.25893 0.0
H275 H 0.27913 0.35015 0.22708 0.0
H276 H 0.19524 0.3923 0.30902 0.0
H277 H 0.26621 0.36637 0.2769 0.0
H278 H 0.18934 0.16762 0.2592 0.0
H279 H 0.12018 0.19271 0.29259 0.0
C280 C 0.34057 0.1678 0.22589 0.0
C281 C 0.3591 0.21825 0.20767 0.0
C282 C 0.3006 0.18297 0.24484 0.0
C283 C 0.27754 0.24877 0.2457 0.0
C284 C 0.29649 0.29921 0.22751 0.0
C285 C 0.33704 0.28424 0.20891 0.0
C286 C 0.19328 0.34321 0.29813 0.0
C287 C 0.15205 0.29458 0.30335 0.0
C288 C 0.23393 0.32833 0.27956 0.0
C289 C 0.23385 0.26475 0.26537 0.0
C290 C 0.1917 0.2166 0.27019 0.0
C291 C 0.15159 0.23118 0.28912 0.0
H292 H 0.38461 0.19191 0.71682 0.0
H293 H 0.30911 0.39137 0.70093 0.0
H294 H 0.31546 0.16609 0.75021 0.0
H295 H 0.23836 0.36477 0.733 0.0
H296 H 0.15569 0.3231 0.81502 0.0
H297 H 0.22669 0.34849 0.78295 0.0
H298 H 0.21641 0.14154 0.75088 0.0
H299 H 0.1472 0.11551 0.78422 0.0
C300 C 0.35315 0.23018 0.72042 0.0
C301 C 0.3526 0.29381 0.70637 0.0
C302 C 0.31306 0.2152 0.73935 0.0
C303 C 0.27095 0.26319 0.74435 0.0
C304 C 0.27067 0.32687 0.73025 0.0
C305 C 0.31122 0.34213 0.7117 0.0
C306 C 0.16833 0.28305 0.80101 0.0
C307 C 0.14568 0.21729 0.80214 0.0
C308 C 0.20899 0.29769 0.78245 0.0
C309 C 0.22752 0.24719 0.76417 0.0
C310 C 0.20413 0.18152 0.76501 0.0
C311 C 0.16398 0.16666 0.78392 0.0
H312 H 0.61855 0.69278 0.79314 0.0
H313 H 0.69188 0.89382 0.80676 0.0
H314 H 0.68745 0.6663 0.75968 0.0
H315 H 0.76238 0.86664 0.77467 0.0
H316 H 0.8463 0.82118 0.69331 0.0
H317 H 0.77471 0.8479 0.72497 0.0
H318 H 0.7866 0.64286 0.7594 0.0
H319 H 0.8562 0.61552 0.72655 0.0
C320 C 0.64949 0.73124 0.78904 0.0
C321 C 0.64955 0.79545 0.8025 0.0
C322 C 0.68942 0.71592 0.77007 0.0
C323 C 0.7309 0.76417 0.76445 0.0
C324 C 0.73058 0.82849 0.77791 0.0
C325 C 0.6902 0.84405 0.79649 0.0
C326 C 0.83386 0.78192 0.70777 0.0
C327 C 0.857 0.71626 0.70744 0.0
C328 C 0.79285 0.79727 0.72606 0.0
C329 C 0.77456 0.74761 0.74486 0.0
C330 C 0.79859 0.68215 0.74484 0.0
C331 C 0.839 0.66656 0.72621 0.0
H332 H 0.86099 0.88576 0.22624 0.0
H333 H 0.85189 0.67992 0.19323 0.0
H334 H 0.79203 0.85809 0.25935 0.0
H335 H 0.7808 0.65278 0.2252 0.0
H336 H 0.69547 0.60798 0.30648 0.0
H337 H 0.76699 0.63442 0.27477 0.0
H338 H 0.6929 0.83494 0.25904 0.0
H339 H 0.62316 0.80926 0.29206 0.0
C340 C 0.84413 0.83457 0.22603 0.0
C341 C 0.86202 0.78499 0.20717 0.0
C342 C 0.80407 0.81879 0.24481 0.0
C343 C 0.7802 0.75325 0.24489 0.0
C344 C 0.79872 0.70352 0.22619 0.0
C345 C 0.83944 0.71909 0.20773 0.0
C346 C 0.69425 0.65762 0.29612 0.0
C347 C 0.65361 0.70654 0.30179 0.0
C348 C 0.73521 0.67276 0.27778 0.0
C349 C 0.73608 0.73695 0.26426 0.0
C350 C 0.69454 0.78545 0.26952 0.0
C351 C 0.6541 0.77058 0.28824 0.0
H352 H 0.38264 0.11925 0.56558 0.0
H353 H 0.29147 0.3034 0.58111 0.0
H354 H 0.31766 0.10585 0.51648 0.0
H355 H 0.22786 0.28994 0.53231 0.0
H356 H 0.12601 0.11711 0.44347 0.0
H357 H 0.19089 0.10369 0.4926 0.0
H358 H 0.27517 0.29293 0.47885 0.0
H359 H 0.21166 0.30647 0.43003 0.0
C360 C 0.34801 0.15583 0.55891 0.0
C361 C 0.34275 0.21301 0.57697 0.0
C362 C 0.31105 0.14807 0.53089 0.0
C363 C 0.26883 0.19753 0.52073 0.0
C364 C 0.2608 0.25172 0.5397 0.0
C365 C 0.2972 0.25927 0.56761 0.0
C366 C 0.1594 0.15493 0.45061 0.0
C367 C 0.16314 0.21341 0.43311 0.0
C368 C 0.1963 0.14715 0.47864 0.0
C369 C 0.23694 0.19789 0.48939 0.0
C370 C 0.24345 0.25367 0.471 0.0
C371 C 0.20712 0.26126 0.44308 0.0
H372 H 0.79888 0.68686 0.57989 0.0
H373 H 0.87942 0.87871 0.56513 0.0
H374 H 0.73426 0.69777 0.53128 0.0
H375 H 0.81356 0.88943 0.51621 0.0
H376 H 0.70964 0.68545 0.42928 0.0
H377 H 0.77344 0.69735 0.47806 0.0
H378 H 0.69306 0.8889 0.49214 0.0
H379 H 0.62795 0.87713 0.44301 0.0
C380 C 0.80213 0.73199 0.56657 0.0
C381 C 0.84496 0.78138 0.57612 0.0
C382 C 0.76522 0.73803 0.53873 0.0
C383 C 0.77 0.79377 0.52001 0.0
C384 C 0.80951 0.8459 0.53037 0.0
C385 C 0.84702 0.83965 0.55828 0.0
C386 C 0.70594 0.73073 0.44242 0.0
C387 C 0.66307 0.77983 0.4325 0.0
C388 C 0.74236 0.73733 0.47037 0.0
C389 C 0.73707 0.79334 0.48885 0.0
C390 C 0.69747 0.84515 0.47817 0.0
C391 C 0.66043 0.83833 0.45013 0.0
H392 H 0.79801 0.81176 0.08104 0.0
H393 H 0.8831 0.62477 0.06343 0.0
H394 H 0.7318 0.80086 0.03291 0.0
H395 H 0.81555 0.61398 0.01502 0.0
H396 H 0.62619 0.62533 0.9435 0.0
H397 H 0.69238 0.61241 0.99226 0.0
H398 H 0.77141 0.80525 0.97899 0.0
H399 H 0.70671 0.81825 0.93056 0.0
C400 C 0.80191 0.76761 0.06722 0.0
C401 C 0.84648 0.71973 0.0758 0.0
C402 C 0.76404 0.76155 0.03968 0.0
C403 C 0.76956 0.70723 0.0203 0.0
C404 C 0.81087 0.65634 0.02972 0.0
C405 C 0.84934 0.66264 0.05734 0.0
C406 C 0.6586 0.66419 0.95071 0.0
C407 C 0.66067 0.72328 0.93339 0.0
C408 C 0.69625 0.65671 0.97853 0.0
C409 C 0.73584 0.70847 0.98933 0.0
C410 C 0.74043 0.76523 0.97118 0.0
C411 C 0.70346 0.77245 0.94343 0.0
H412 H 0.30023 0.19165 0.08022 0.0
H413 H 0.37889 0.38455 0.06536 0.0
H414 H 0.23542 0.20178 0.03168 0.0
H415 H 0.31282 0.39454 0.01646 0.0
H416 H 0.12909 0.38563 0.94373 0.0
H417 H 0.19551 0.39573 0.9925 0.0
H418 H 0.26905 0.20016 0.97842 0.0
H419 H 0.20384 0.18986 0.92999 0.0
C420 C 0.30308 0.23682 0.06687 0.0
C421 C 0.34535 0.28685 0.07645 0.0
C422 C 0.26609 0.24237 0.03903 0.0
C423 C 0.27018 0.29825 0.02027 0.0
C424 C 0.30927 0.35085 0.03061 0.0
C425 C 0.34688 0.34507 0.05853 0.0
C426 C 0.16033 0.3455 0.95077 0.0
C427 C 0.16064 0.28649 0.93321 0.0
C428 C 0.19815 0.35137 0.97863 0.0
C429 C 0.23625 0.2981 0.98926 0.0
C430 C 0.23916 0.24132 0.97084 0.0
C431 C 0.20194 0.23565 0.94306 0.0
loop_
_geom_bond_atom_site_label_1
_geom_bond_atom_site_label_2
_geom_bond_distance
_geom_bond_site_symmetry_2
_ccdc_geom_bond_type
C0 O2 1.247 . S
C0 O4 1.258 . S
C1 O8 1.247 . S
C1 O9 1.258 . S
O2 C0 1.247 . S
O2 Zn3 2.028 . S
Zn3 O2 2.028 . S
Zn3 O7 2.035 . S
Zn3 O9 2.035 1_455 S
Zn3 O10 2.028 . S
O4 C0 1.258 . S
O4 Zn5 2.035 . S
Zn5 O4 2.035 . S
Zn5 O6 2.028 . S
Zn5 O8 2.028 1_455 S
Zn5 O11 2.035 1_455 S
O6 Zn5 2.028 . S
O6 C12 1.247 . S
O7 Zn3 2.035 . S
O7 C12 1.258 . S
O8 C1 1.247 . S
O8 Zn5 2.028 1_655 S
O9 C1 1.258 . S
O9 Zn3 2.035 1_655 S
O10 Zn3 2.028 . S
O10 C13 1.247 1_455 S
O11 Zn5 2.035 1_655 S
O11 C13 1.258 . S
C12 O6 1.247 . S
C12 O7 1.258 . S
C13 O10 1.247 1_655 S
C13 O11 1.258 . S
C14 O16 1.247 . S
C14 O18 1.258 . S
C15 O22 1.247 . S
C15 O23 1.258 . S
O16 C14 1.247 . S
O16 Zn17 2.028 . S
Zn17 O16 2.028 . S
Zn17 O21 2.035 . S
Zn17 O23 2.035 . S
Zn17 O24 2.028 . S
O18 C14 1.258 . S
O18 Zn19 2.035 . S
Zn19 O18 2.035 . S
Zn19 O20 2.028 . S
Zn19 O22 2.028 . S
Zn19 O25 2.035 . S
O20 Zn19 2.028 . S
O20 C26 1.247 . S
O21 Zn17 2.035 . S
O21 C26 1.258 . S
O22 C15 1.247 . S
O22 Zn19 2.028 . S
O23 C15 1.258 . S
O23 Zn17 2.035 . S
O24 Zn17 2.028 . S
O24 C27 1.247 . S
O25 Zn19 2.035 . S
O25 C27 1.258 . S
C26 O20 1.247 . S
C26 O21 1.258 . S
C27 O24 1.247 . S
C27 O25 1.258 . S
C28 O30 1.247 . S
C28 O32 1.258 . S
C29 O36 1.247 . S
C29 O37 1.258 1_455 S
O30 C28 1.247 . S
O30 Zn31 2.028 . S
Zn31 O30 2.028 . S
Zn31 O35 2.035 . S
Zn31 O37 2.035 . S
Zn31 O38 2.028 1_655 S
O32 C28 1.258 . S
O32 Zn33 2.035 . S
Zn33 O32 2.035 . S
Zn33 O34 2.028 . S
Zn33 O36 2.028 1_655 S
Zn33 O39 2.035 1_655 S
O34 Zn33 2.028 . S
O34 C40 1.247 . S
O35 Zn31 2.035 . S
O35 C40 1.258 . S
O36 C29 1.247 . S
O36 Zn33 2.028 1_455 S
O37 C29 1.258 1_655 S
O37 Zn31 2.035 . S
O38 Zn31 2.028 1_455 S
O38 C41 1.247 . S
O39 Zn33 2.035 1_455 S
O39 C41 1.258 . S
C40 O34 1.247 . S
C40 O35 1.258 . S
C41 O38 1.247 . S
C41 O39 1.258 . S
C42 O44 1.247 . S
C42 O46 1.258 . S
C43 O50 1.247 . S
C43 O51 1.258 . S
O44 C42 1.247 . S
O44 Zn45 2.028 . S
Zn45 O44 2.028 . S
Zn45 O49 2.035 . S
Zn45 O51 2.035 . S
Zn45 O52 2.028 . S
O46 C42 1.258 . S
O46 Zn47 2.035 . S
Zn47 O46 2.035 . S
Zn47 O48 2.028 . S
Zn47 O50 2.028 . S
Zn47 O53 2.035 . S
O48 Zn47 2.028 . S
O48 C54 1.247 . S
O49 Zn45 2.035 . S
O49 C54 1.258 . S
O50 C43 1.247 . S
O50 Zn47 2.028 . S
O51 C43 1.258 . S
O51 Zn45 2.035 . S
O52 Zn45 2.028 . S
O52 C55 1.247 . S
O53 Zn47 2.035 . S
O53 C55 1.258 . S
C54 O48 1.247 . S
C54 O49 1.258 . S
C55 O52 1.247 . S
C55 O53 1.258 . S
C56 O58 1.247 . S
C56 O60 1.258 . S
C57 O64 1.247 . S
C57 O65 1.258 . S
O58 C56 1.247 . S
O58 Zn59 2.028 . S
Zn59 O58 2.028 . S
Zn59 O63 2.035 . S
Zn59 O65 2.035 . S
Zn59 O66 2.028 . S
O60 C56 1.258 . S
O60 Zn61 2.035 . S
Zn61 O60 2.035 . S
Zn61 O62 2.028 . S
Zn61 O64 2.028 . S
Zn61 O67 2.035 . S
O62 Zn61 2.028 . S
O62 C68 1.247 . S
O63 Zn59 2.035 . S
O63 C68 1.258 . S
O64 C57 1.247 . S
O64 Zn61 2.028 . S
O65 C57 1.258 . S
O65 Zn59 2.035 . S
O66 Zn59 2.028 . S
O66 C69 1.247 . S
O67 Zn61 2.035 . S
O67 C69 1.258 . S
C68 O62 1.247 . S
C68 O63 1.258 . S
C69 O66 1.247 . S
C69 O67 1.258 . S
C70 O72 1.247 . S
C70 O74 1.258 . S
C71 O78 1.247 1_455 S
C71 O79 1.258 . S
O72 C70 1.247 . S
O72 Zn73 2.028 . S
Zn73 O72 2.028 . S
Zn73 O77 2.035 . S
Zn73 O79 2.035 1_655 S
Zn73 O80 2.028 1_655 S
O74 C70 1.258 . S
O74 Zn75 2.035 . S
Zn75 O74 2.035 . S
Zn75 O76 2.028 . S
Zn75 O78 2.028 . S
Zn75 O81 2.035 1_655 S
O76 Zn75 2.028 . S
O76 C82 1.247 . S
O77 Zn73 2.035 . S
O77 C82 1.258 . S
O78 C71 1.247 1_655 S
O78 Zn75 2.028 . S
O79 C71 1.258 . S
O79 Zn73 2.035 1_455 S
O80 Zn73 2.028 1_455 S
O80 C83 1.247 . S
O81 Zn75 2.035 1_455 S
O81 C83 1.258 . S
C82 O76 1.247 . S
C82 O77 1.258 . S
C83 O80 1.247 . S
C83 O81 1.258 . S
C84 O86 1.247 . S
C84 O88 1.258 . S
C85 O92 1.247 . S
C85 O93 1.258 . S
O86 C84 1.247 . S
O86 Zn87 2.028 . S
Zn87 O86 2.028 . S
Zn87 O91 2.035 . S
Zn87 O93 2.035 . S
Zn87 O94 2.028 . S
O88 C84 1.258 . S
O88 Zn89 2.035 . S
Zn89 O88 2.035 . S
Zn89 O90 2.028 . S
Zn89 O92 2.028 . S
Zn89 O95 2.035 . S
O90 Zn89 2.028 . S
O90 C96 1.247 . S
O91 Zn87 2.035 . S
O91 C96 1.258 . S
O92 C85 1.247 . S
O92 Zn89 2.028 . S
O93 C85 1.258 . S
O93 Zn87 2.035 . S
O94 Zn87 2.028 . S
O94 C97 1.247 . S
O95 Zn89 2.035 . S
O95 C97 1.258 . S
C96 O90 1.247 . S
C96 O91 1.258 . S
C97 O94 1.247 . S
C97 O95 1.258 . S
C98 O100 1.247 . S
C98 O102 1.258 . S
C99 O106 1.247 . S
C99 O107 1.258 . S
O100 C98 1.247 . S
O100 Zn101 2.028 1_655 S
Zn101 O100 2.028 1_455 S
Zn101 O105 2.035 1_455 S
Zn101 O107 2.035 . S
Zn101 O108 2.028 . S
O102 C98 1.258 . S
O102 Zn103 2.035 1_655 S
Zn103 O102 2.035 1_455 S
Zn103 O104 2.028 . S
Zn103 O106 2.028 . S
Zn103 O109 2.035 . S
O104 Zn103 2.028 . S
O104 C110 1.247 1_455 S
O105 Zn101 2.035 1_655 S
O105 C110 1.258 . S
O106 C99 1.247 . S
O106 Zn103 2.028 . S
O107 C99 1.258 . S
O107 Zn101 2.035 . S
O108 Zn101 2.028 . S
O108 C111 1.247 . S
O109 Zn103 2.035 . S
O109 C111 1.258 . S
C110 O104 1.247 1_655 S
C110 O105 1.258 . S
C111 O108 1.247 . S
C111 O109 1.258 . S
H112 C120 0.950 . S
H113 C125 0.950 . S
H114 C122 0.950 . S
H115 C124 0.950 . S
H116 C126 0.950 . S
H117 C128 0.950 . S
H118 C130 0.950 . S
H119 C131 0.950 . S
C120 H112 0.950 . S
C120 C121 1.386 . S
C120 C122 1.391 . S
C121 C120 1.386 . S
C121 C125 1.393 1_655 S
C122 H114 0.950 . S
C122 C120 1.391 . S
C122 C123 1.400 . S
C123 C122 1.400 . S
C123 C124 1.398 1_655 S
C123 C129 1.491 1_655 S
C124 H115 0.950 . S
C124 C123 1.398 1_455 S
C124 C125 1.391 . S
C125 H113 0.950 . S
C125 C121 1.393 1_455 S
C125 C124 1.391 . S
C126 H116 0.950 . S
C126 C127 1.386 . S
C126 C128 1.391 . S
C127 C126 1.386 . S
C127 C131 1.393 1_455 S
C128 H117 0.950 . S
C128 C126 1.391 . S
C128 C129 1.400 . S
C129 C123 1.491 1_455 S
C129 C128 1.400 . S
C129 C130 1.398 1_455 S
C130 H118 0.950 . S
C130 C129 1.398 1_655 S
C130 C131 1.391 . S
C131 H119 0.950 . S
C131 C127 1.393 1_655 S
C131 C130 1.391 . S
H132 C140 0.950 . S
H133 C145 0.950 . S
H134 C142 0.950 . S
H135 C144 0.950 . S
H136 C146 0.950 . S
H137 C148 0.950 . S
H138 C150 0.950 . S
H139 C151 0.950 . S
C140 H132 0.950 . S
C140 C141 1.386 . S
C140 C142 1.391 . S
C141 C140 1.386 . S
C141 C145 1.393 . S
C142 H134 0.950 . S
C142 C140 1.391 . S
C142 C143 1.400 . S
C143 C142 1.400 . S
C143 C144 1.398 . S
C143 C149 1.491 . S
C144 H135 0.950 . S
C144 C143 1.398 . S
C144 C145 1.391 . S
C145 H133 0.950 . S
C145 C141 1.393 . S
C145 C144 1.391 . S
C146 H136 0.950 . S
C146 C147 1.386 . S
C146 C148 1.391 . S
C147 C146 1.386 . S
C147 C151 1.393 . S
C148 H137 0.950 . S
C148 C146 1.391 . S
C148 C149 1.400 . S
C149 C143 1.491 . S
C149 C148 1.400 . S
C149 C150 1.398 . S
C150 H138 0.950 . S
C150 C149 1.398 . S
C150 C151 1.391 . S
C151 H139 0.950 . S
C151 C147 1.393 . S
C151 C150 1.391 . S
H152 C160 0.950 . S
H153 C165 0.950 . S
H154 C162 0.950 1_565 S
H155 C164 0.950 1_556 S
H156 C166 0.950 . S
H157 C168 0.950 1_545 S
H158 C170 0.950 1_554 S
H159 C171 0.950 . S
C160 H152 0.950 . S
C160 C161 1.386 . S
C160 C162 1.391 . S
C161 C160 1.386 . S
C161 C165 1.393 . S
C162 H154 0.950 1_545 S
C162 C160 1.391 . S
C162 C163 1.400 . S
C163 C162 1.400 . S
C163 C164 1.398 . S
C163 C169 1.491 1_544 S
C164 H155 0.950 1_554 S
C164 C163 1.398 . S
C164 C165 1.391 . S
C165 H153 0.950 . S
C165 C161 1.393 . S
C165 C164 1.391 . S
C166 H156 0.950 . S
C166 C167 1.386 . S
C166 C168 1.391 . S
C167 C166 1.386 . S
C167 C171 1.393 . S
C168 H157 0.950 1_565 S
C168 C166 1.391 . S
C168 C169 1.400 . S
C169 C163 1.491 1_566 S
C169 C168 1.400 . S
C169 C170 1.398 . S
C170 H158 0.950 1_556 S
C170 C169 1.398 . S
C170 C171 1.391 . S
C171 H159 0.950 . S
C171 C167 1.393 . S
C171 C170 1.391 . S
H172 C180 0.950 . S
H173 C185 0.950 . S
H174 C182 0.950 1_556 S
H175 C184 0.950 1_545 S
H176 C186 0.950 . S
H177 C188 0.950 1_554 S
H178 C190 0.950 1_565 S
H179 C191 0.950 . S
C180 H172 0.950 . S
C180 C181 1.386 . S
C180 C182 1.391 . S
C181 C180 1.386 . S
C181 C185 1.393 1_455 S
C182 H174 0.950 1_554 S
C182 C180 1.391 . S
C182 C183 1.400 . S
C183 C182 1.400 . S
C183 C184 1.398 1_455 S
C183 C189 1.491 1_464 S
C184 H175 0.950 1_565 S
C184 C183 1.398 1_655 S
C184 C185 1.391 . S
C185 H173 0.950 . S
C185 C181 1.393 1_655 S
C185 C184 1.391 . S
C186 H176 0.950 . S
C186 C187 1.386 . S
C186 C188 1.391 . S
C187 C186 1.386 . S
C187 C191 1.393 1_655 S
C188 H177 0.950 1_556 S
C188 C186 1.391 . S
C188 C189 1.400 . S
C189 C183 1.491 1_646 S
C189 C188 1.400 . S
C189 C190 1.398 1_655 S
C190 H178 0.950 1_545 S
C190 C189 1.398 1_455 S
C190 C191 1.391 . S
C191 H179 0.950 . S
C191 C187 1.393 1_455 S
C191 C190 1.391 . S
H192 C200 0.950 . S
H193 C205 0.950 . S
H194 C202 0.950 . S
H195 C204 0.950 . S
H196 C206 0.950 . S
H197 C208 0.950 . S
H198 C210 0.950 . S
H199 C211 0.950 . S
C200 H192 0.950 . S
C200 C201 1.386 . S
C200 C202 1.391 . S
C201 C200 1.386 . S
C201 C205 1.393 . S
C202 H194 0.950 . S
C202 C200 1.391 . S
C202 C203 1.400 . S
C203 C202 1.400 . S
C203 C204 1.398 . S
C203 C209 1.491 . S
C204 H195 0.950 . S
C204 C203 1.398 . S
C204 C205 1.391 . S
C205 H193 0.950 . S
C205 C201 1.393 . S
C205 C204 1.391 . S
C206 H196 0.950 . S
C206 C207 1.386 . S
C206 C208 1.391 . S
C207 C206 1.386 . S
C207 C211 1.393 . S
C208 H197 0.950 . S
C208 C206 1.391 . S
C208 C209 1.400 . S
C209 C203 1.491 . S
C209 C208 1.400 . S
C209 C210 1.398 . S
C210 H198 0.950 . S
C210 C209 1.398 . S
C210 C211 1.391 . S
C211 H199 0.950 . S
C211 C207 1.393 . S
C211 C210 1.391 . S
H212 C220 0.950 . S
H213 C225 0.950 . S
H214 C222 0.950 . S
H215 C224 0.950 . S
H216 C226 0.950 . S
H217 C228 0.950 . S
H218 C230 0.950 . S
H219 C231 0.950 . S
C220 H212 0.950 . S
C220 C221 1.386 . S
C220 C222 1.391 . S
C221 C220 1.386 . S
C221 C225 1.393 . S
C222 H214 0.950 . S
C222 C220 1.391 . S
C222 C223 1.400 . S
C223 C222 1.400 . S
C223 C224 1.398 . S
C223 C229 1.491 . S
C224 H215 0.950 . S
C224 C223 1.398 . S
C224 C225 1.391 . S
C225 H213 0.950 . S
C225 C221 1.393 . S
C225 C224 1.391 . S
C226 H216 0.950 . S
C226 C227 1.386 . S
C226 C228 1.391 . S
C227 C226 1.386 . S
C227 C231 1.393 . S
C228 H217 0.950 . S
C228 C226 1.391 . S
C228 C229 1.400 . S
C229 C223 1.491 . S
C229 C228 1.400 . S
C229 C230 1.398 . S
C230 H218 0.950 . S
C230 C229 1.398 . S
C230 C231 1.391 . S
C231 H219 0.950 . S
C231 C227 1.393 . S
C231 C230 1.391 . S
H232 C240 0.950 . S
H233 C245 0.950 . S
H234 C242 0.950 . S
H235 C244 0.950 . S
H236 C246 0.950 . S
H237 C248 0.950 . S
H238 C250 0.950 . S
H239 C251 0.950 . S
C240 H232 0.950 . S
C240 C241 1.386 . S
C240 C242 1.391 . S
C241 C240 1.386 . S
C241 C245 1.393 . S
C242 H234 0.950 . S
C242 C240 1.391 . S
C242 C243 1.400 . S
C243 C242 1.400 . S
C243 C244 1.398 . S
C243 C249 1.491 . S
C244 H235 0.950 . S
C244 C243 1.398 . S
C244 C245 1.391 . S
C245 H233 0.950 . S
C245 C241 1.393 . S
C245 C244 1.391 . S
C246 H236 0.950 . S
C246 C247 1.386 . S
C246 C248 1.391 . S
C247 C246 1.386 . S
C247 C251 1.393 . S
C248 H237 0.950 . S
C248 C246 1.391 . S
C248 C249 1.400 . S
C249 C243 1.491 . S
C249 C248 1.400 . S
C249 C250 1.398 . S
C250 H238 0.950 . S
C250 C249 1.398 . S
C250 C251 1.391 . S
C251 H239 0.950 . S
C251 C247 1.393 . S
C251 C250 1.391 . S
H252 C260 0.950 . S
H253 C265 0.950 . S
H254 C262 0.950 . S
H255 C264 0.950 . S
H256 C266 0.950 . S
H257 C268 0.950 . S
H258 C270 0.950 . S
H259 C271 0.950 . S
C260 H252 0.950 . S
C260 C261 1.386 . S
C260 C262 1.391 . S
C261 C260 1.386 . S
C261 C265 1.393 . S
C262 H254 0.950 . S
C262 C260 1.391 . S
C262 C263 1.400 . S
C263 C262 1.400 . S
C263 C264 1.398 . S
C263 C269 1.491 . S
C264 H255 0.950 . S
C264 C263 1.398 . S
C264 C265 1.391 . S
C265 H253 0.950 . S
C265 C261 1.393 . S
C265 C264 1.391 . S
C266 H256 0.950 . S
C266 C267 1.386 . S
C266 C268 1.391 . S
C267 C266 1.386 . S
C267 C271 1.393 . S
C268 H257 0.950 . S
C268 C266 1.391 . S
C268 C269 1.400 . S
C269 C263 1.491 . S
C269 C268 1.400 . S
C269 C270 1.398 . S
C270 H258 0.950 . S
C270 C269 1.398 . S
C270 C271 1.391 . S
C271 H259 0.950 . S
C271 C267 1.393 . S
C271 C270 1.391 . S
H272 C280 0.950 . S
H273 C285 0.950 . S
H274 C282 0.950 . S
H275 C284 0.950 . S
H276 C286 0.950 . S
H277 C288 0.950 . S
H278 C290 0.950 . S
H279 C291 0.950 . S
C280 H272 0.950 . S
C280 C281 1.386 . S
C280 C282 1.391 . S
C281 C280 1.386 . S
C281 C285 1.393 . S
C282 H274 0.950 . S
C282 C280 1.391 . S
C282 C283 1.400 . S
C283 C282 1.400 . S
C283 C284 1.398 . S
C283 C289 1.491 . S
C284 H275 0.950 . S
C284 C283 1.398 . S
C284 C285 1.391 . S
C285 H273 0.950 . S
C285 C281 1.393 . S
C285 C284 1.391 . S
C286 H276 0.950 . S
C286 C287 1.386 . S
C286 C288 1.391 . S
C287 C286 1.386 . S
C287 C291 1.393 . S
C288 H277 0.950 . S
C288 C286 1.391 . S
C288 C289 1.400 . S
C289 C283 1.491 . S
C289 C288 1.400 . S
C289 C290 1.398 . S
C290 H278 0.950 . S
C290 C289 1.398 . S
C290 C291 1.391 . S
C291 H279 0.950 . S
C291 C287 1.393 . S
C291 C290 1.391 . S
H292 C300 0.950 . S
H293 C305 0.950 . S
H294 C302 0.950 . S
H295 C304 0.950 . S
H296 C306 0.950 . S
H297 C308 0.950 . S
H298 C310 0.950 . S
H299 C311 0.950 . S
C300 H292 0.950 . S
C300 C301 1.386 . S
C300 C302 1.391 . S
C301 C300 1.386 . S
C301 C305 1.393 . S
C302 H294 0.950 . S
C302 C300 1.391 . S
C302 C303 1.400 . S
C303 C302 1.400 . S
C303 C304 1.398 . S
C303 C309 1.491 . S
C304 H295 0.950 . S
C304 C303 1.398 . S
C304 C305 1.391 . S
C305 H293 0.950 . S
C305 C301 1.393 . S
C305 C304 1.391 . S
C306 H296 0.950 . S
C306 C307 1.386 . S
C306 C308 1.391 . S
C307 C306 1.386 . S
C307 C311 1.393 . S
C308 H297 0.950 . S
C308 C306 1.391 . S
C308 C309 1.400 . S
C309 C303 1.491 . S
C309 C308 1.400 . S
C309 C310 1.398 . S
C310 H298 0.950 . S
C310 C309 1.398 . S
C310 C311 1.391 . S
C311 H299 0.950 . S
C311 C307 1.393 . S
C311 C310 1.391 . S
H312 C320 0.950 . S
H313 C325 0.950 . S
H314 C322 0.950 . S
H315 C324 0.950 . S
H316 C326 0.950 . S
H317 C328 0.950 . S
H318 C330 0.950 . S
H319 C331 0.950 . S
C320 H312 0.950 . S
C320 C321 1.386 . S
C320 C322 1.391 . S
C321 C320 1.386 . S
C321 C325 1.393 . S
C322 H314 0.950 . S
C322 C320 1.391 . S
C322 C323 1.400 . S
C323 C322 1.400 . S
C323 C324 1.398 . S
C323 C329 1.491 . S
C324 H315 0.950 . S
C324 C323 1.398 . S
C324 C325 1.391 . S
C325 H313 0.950 . S
C325 C321 1.393 . S
C325 C324 1.391 . S
C326 H316 0.950 . S
C326 C327 1.386 . S
C326 C328 1.391 . S
C327 C326 1.386 . S
C327 C331 1.393 . S
C328 H317 0.950 . S
C328 C326 1.391 . S
C328 C329 1.400 . S
C329 C323 1.491 . S
C329 C328 1.400 . S
C329 C330 1.398 . S
C330 H318 0.950 . S
C330 C329 1.398 . S
C330 C331 1.391 . S
C331 H319 0.950 . S
C331 C327 1.393 . S
C331 C330 1.391 . S
H332 C340 0.950 . S
H333 C345 0.950 . S
H334 C342 0.950 . S
H335 C344 0.950 . S
H336 C346 0.950 . S
H337 C348 0.950 . S
H338 C350 0.950 . S
H339 C351 0.950 . S
C340 H332 0.950 . S
C340 C341 1.386 . S
C340 C342 1.391 . S
C341 C340 1.386 . S
C341 C345 1.393 . S
C342 H334 0.950 . S
C342 C340 1.391 . S
C342 C343 1.400 . S
C343 C342 1.400 . S
C343 C344 1.398 . S
C343 C349 1.491 . S
C344 H335 0.950 . S
C344 C343 1.398 . S
C344 C345 1.391 . S
C345 H333 0.950 . S
C345 C341 1.393 . S
C345 C344 1.391 . S
C346 H336 0.950 . S
C346 C347 1.386 . S
C346 C348 1.391 . S
C347 C346 1.386 . S
C347 C351 1.393 . S
C348 H337 0.950 . S
C348 C346 1.391 . S
C348 C349 1.400 . S
C349 C343 1.491 . S
C349 C348 1.400 . S
C349 C350 1.398 . S
C350 H338 0.950 . S
C350 C349 1.398 . S
C350 C351 1.391 . S
C351 H339 0.950 . S
C351 C347 1.393 . S
C351 C350 1.391 . S
H352 C360 0.950 . S
H353 C365 0.950 . S
H354 C362 0.950 . S
H355 C364 0.950 . S
H356 C366 0.950 . S
H357 C368 0.950 . S
H358 C370 0.950 . S
H359 C371 0.950 . S
C360 H352 0.950 . S
C360 C361 1.386 . S
C360 C362 1.391 . S
C361 C360 1.386 . S
C361 C365 1.393 . S
C362 H354 0.950 . S
C362 C360 1.391 . S
C362 C363 1.400 . S
C363 C362 1.400 . S
C363 C364 1.398 . S
C363 C369 1.491 . S
C364 H355 0.950 . S
C364 C363 1.398 . S
C364 C365 1.391 . S
C365 H353 0.950 . S
C365 C361 1.393 . S
C365 C364 1.391 . S
C366 H356 0.950 . S
C366 C367 1.386 . S
C366 C368 1.391 . S
C367 C366 1.386 . S
C367 C371 1.393 . S
C368 H357 0.950 . S
C368 C366 1.391 . S
C368 C369 1.400 . S
C369 C363 1.491 . S
C369 C368 1.400 . S
C369 C370 1.398 . S
C370 H358 0.950 . S
C370 C369 1.398 . S
C370 C371 1.391 . S
C371 H359 0.950 . S
C371 C367 1.393 . S
C371 C370 1.391 . S
H372 C380 0.950 . S
H373 C385 0.950 . S
H374 C382 0.950 . S
H375 C384 0.950 . S
H376 C386 0.950 . S
H377 C388 0.950 . S
H378 C390 0.950 . S
H379 C391 0.950 . S
C380 H372 0.950 . S
C380 C381 1.386 . S
C380 C382 1.391 . S
C381 C380 1.386 . S
C381 C385 1.393 . S
C382 H374 0.950 . S
C382 C380 1.391 . S
C382 C383 1.400 . S
C383 C382 1.400 . S
C383 C384 1.398 . S
C383 C389 1.491 . S
C384 H375 0.950 . S
C384 C383 1.398 . S
C384 C385 1.391 . S
C385 H373 0.950 . S
C385 C381 1.393 . S
C385 C384 1.391 . S
C386 H376 0.950 . S
C386 C387 1.386 . S
C386 C388 1.391 . S
C387 C386 1.386 . S
C387 C391 1.393 . S
C388 H377 0.950 . S
C388 C386 1.391 . S
C388 C389 1.400 . S
C389 C383 1.491 . S
C389 C388 1.400 . S
C389 C390 1.398 . S
C390 H378 0.950 . S
C390 C389 1.398 . S
C390 C391 1.391 . S
C391 H379 0.950 . S
C391 C387 1.393 . S
C391 C390 1.391 . S
H392 C400 0.950 . S
H393 C405 0.950 . S
H394 C402 0.950 . S
H395 C404 0.950 . S
H396 C406 0.950 . S
H397 C408 0.950 . S
H398 C410 0.950 . S
H399 C411 0.950 . S
C400 H392 0.950 . S
C400 C401 1.386 . S
C400 C402 1.391 . S
C401 C400 1.386 . S
C401 C405 1.393 . S
C402 H394 0.950 . S
C402 C400 1.391 . S
C402 C403 1.400 . S
C403 C402 1.400 . S
C403 C404 1.398 . S
C403 C409 1.491 1_554 S
C404 H395 0.950 . S
C404 C403 1.398 . S
C404 C405 1.391 . S
C405 H393 0.950 . S
C405 C401 1.393 . S
C405 C404 1.391 . S
C406 H396 0.950 . S
C406 C407 1.386 . S
C406 C408 1.391 . S
C407 C406 1.386 . S
C407 C411 1.393 . S
C408 H397 0.950 . S
C408 C406 1.391 . S
C408 C409 1.400 . S
C409 C403 1.491 1_556 S
C409 C408 1.400 . S
C409 C410 1.398 . S
C410 H398 0.950 . S
C410 C409 1.398 . S
C410 C411 1.391 . S
C411 H399 0.950 . S
C411 C407 1.393 . S
C411 C410 1.391 . S
H412 C420 0.950 . S
H413 C425 0.950 . S
H414 C422 0.950 . S
H415 C424 0.950 . S
H416 C426 0.950 . S
H417 C428 0.950 . S
H418 C430 0.950 . S
H419 C431 0.950 . S
C420 H412 0.950 . S
C420 C421 1.386 . S
C420 C422 1.391 . S
C421 C420 1.386 . S
C421 C425 1.393 . S
C422 H414 0.950 . S
C422 C420 1.391 . S
C422 C423 1.400 . S
C423 C422 1.400 . S
C423 C424 1.398 . S
C423 C429 1.491 1_554 S
C424 H415 0.950 . S
C424 C423 1.398 . S
C424 C425 1.391 . S
C425 H413 0.950 . S
C425 C421 1.393 . S
C425 C424 1.391 . S
C426 H416 0.950 . S
C426 C427 1.386 . S
C426 C428 1.391 . S
C427 C426 1.386 . S
C427 C431 1.393 . S
C428 H417 0.950 . S
C428 C426 1.391 . S
C428 C429 1.400 . S
C429 C423 1.491 1_556 S
C429 C428 1.400 . S
C429 C430 1.398 . S
C430 H418 0.950 . S
C430 C429 1.398 . S
C430 C431 1.391 . S
C431 H419 0.950 . S
C431 C427 1.393 . S
C431 C430 1.391 . S
C121 C13 1.829 . S
C127 C29 1.832 . S
C141 C54 1.811 . S
C147 C15 1.811 . S
C161 C84 1.810 . S
C167 C57 1.810 . S
C181 C71 1.817 . S
C187 C110 1.817 . S
C201 C96 1.953 . S
C207 C1 1.953 . S
C221 C27 1.955 . S
C227 C98 1.955 . S
C241 C41 1.956 . S
C247 C69 1.955 . S
C261 C42 1.952 . S
C267 C83 1.952 . S
C281 C85 2.111 . S
C287 C12 2.111 . S
C301 C14 2.113 . S
C307 C111 2.113 . S
C321 C56 2.113 . S
C327 C28 2.110 . S
C341 C70 2.094 . S
C347 C55 2.094 . S
C361 C26 0.627 . S
C367 C0 0.628 . S
C381 C40 0.625 . S
C387 C43 0.627 . S
C401 C82 0.617 . S
C407 C68 0.616 . S
C421 C97 0.632 . S
C427 C99 0.631 . S
