# Generated by pormake.
# Topology vcm, (7)-cn, num edge types: 1
# Building blocks:
#     Node 0, Type 0, BuildingBlock: HICVOG_clean_sbu_0, # of connection points: 7
#     Node 1, Type 0, BuildingBlock: HICVOG_clean_sbu_0, # of connection points: 7
#     Node 2, Type 0, BuildingBlock: HICVOG_clean_sbu_0, # of connection points: 7
#     Node 3, Type 0, BuildingBlock: HICVOG_clean_sbu_0, # of connection points: 7
#     Node 4, Type 0, BuildingBlock: HICVOG_clean_sbu_0, # of connection points: 7
#     Node 5, Type 0, BuildingBlock: HICVOG_clean_sbu_0, # of connection points: 7
#     Node 6, Type 0, BuildingBlock: HICVOG_clean_sbu_0, # of connection points: 7
#     Node 7, Type 0, BuildingBlock: HICVOG_clean_sbu_0, # of connection points: 7
#     Edge 8, Type (0, 0), BuildingBlock: XUDNAN_clean_linker_2, # of connection points: 2
#     Edge 9, Type (0, 0), BuildingBlock: XUDNAN_clean_linker_2, # of connection points: 2
#     Edge 10, Type (0, 0), BuildingBlock: XUDNAN_clean_linker_2, # of connection points: 2
#     Edge 11, Type (0, 0), BuildingBlock: XUDNAN_clean_linker_2, # of connection points: 2
#     Edge 12, Type (0, 0), BuildingBlock: XUDNAN_clean_linker_2, # of connection points: 2
#     Edge 13, Type (0, 0), BuildingBlock: XUDNAN_clean_linker_2, # of connection points: 2
#     Edge 14, Type (0, 0), BuildingBlock: XUDNAN_clean_linker_2, # of connection points: 2
#     Edge 15, Type (0, 0), BuildingBlock: XUDNAN_clean_linker_2, # of connection points: 2
#     Edge 16, Type (0, 0), BuildingBlock: XUDNAN_clean_linker_2, # of connection points: 2
#     Edge 17, Type (0, 0), BuildingBlock: XUDNAN_clean_linker_2, # of connection points: 2
#     Edge 18, Type (0, 0), BuildingBlock: XUDNAN_clean_linker_2, # of connection points: 2
#     Edge 19, Type (0, 0), BuildingBlock: XUDNAN_clean_linker_2, # of connection points: 2
#     Edge 20, Type (0, 0), BuildingBlock: XUDNAN_clean_linker_2, # of connection points: 2
#     Edge 21, Type (0, 0), BuildingBlock: XUDNAN_clean_linker_2, # of connection points: 2
#     Edge 22, Type (0, 0), BuildingBlock: XUDNAN_clean_linker_2, # of connection points: 2
#     Edge 23, Type (0, 0), BuildingBlock: XUDNAN_clean_linker_2, # of connection points: 2
#     Edge 24, Type (0, 0), BuildingBlock: XUDNAN_clean_linker_2, # of connection points: 2
#     Edge 25, Type (0, 0), BuildingBlock: XUDNAN_clean_linker_2, # of connection points: 2
#     Edge 26, Type (0, 0), BuildingBlock: XUDNAN_clean_linker_2, # of connection points: 2
#     Edge 27, Type (0, 0), BuildingBlock: XUDNAN_clean_linker_2, # of connection points: 2
#     Edge 28, Type (0, 0), BuildingBlock: XUDNAN_clean_linker_2, # of connection points: 2
#     Edge 29, Type (0, 0), BuildingBlock: XUDNAN_clean_linker_2, # of connection points: 2
#     Edge 30, Type (0, 0), BuildingBlock: XUDNAN_clean_linker_2, # of connection points: 2
#     Edge 31, Type (0, 0), BuildingBlock: XUDNAN_clean_linker_2, # of connection points: 2
#     Edge 32, Type (0, 0), BuildingBlock: XUDNAN_clean_linker_2, # of connection points: 2
#     Edge 33, Type (0, 0), BuildingBlock: XUDNAN_clean_linker_2, # of connection points: 2
#     Edge 34, Type (0, 0), BuildingBlock: XUDNAN_clean_linker_2, # of connection points: 2
#     Edge 35, Type (0, 0), BuildingBlock: XUDNAN_clean_linker_2, # of connection points: 2
# Relax obj value: 0.271
# Max RMSD: 0.254
# Mean RMSD: 0.254
data_MOF--net-vcm--node1-HICVOG_clean_sbu_0--edge1-XUDNAN_clean_linker_2
_symmetry_space_group_name_H-M    P1
_symmetry_Int_Tables_number       1
_symmetry_cell_setting            triclinic
loop_
_symmetry_equiv_pos_as_xyz
'x, y, z'
_cell_length_a     40.050538
_cell_length_b     34.037737
_cell_length_c     26.506338
_cell_angle_alpha  89.845343
_cell_angle_beta   90.161585
_cell_angle_gamma 89.93538
loop_
_atom_site_label
_atom_site_type_symbol
_atom_site_fract_x
_atom_site_fract_y
_atom_site_fract_z
_atom_type_partial_charge
Zn0 Zn 0.01511 0.30512 0.18635 0.0
C1 C 0.07476 0.36908 0.09551 0.0
N2 N 0.06056 0.34847 0.0584 0.0
C3 C 0.04303 0.32098 0.08339 0.0
N4 N 0.04592 0.32489 0.13422 0.0
N5 N 0.06637 0.35509 0.14133 0.0
C6 C 0.07283 0.44658 0.22846 0.0
O7 O 0.04332 0.43054 0.23497 0.0
O8 O 1.0076 0.24658 0.18288 0.0
Zn9 Zn 0.09318 0.36758 0.19993 0.0
N10 N 0.97259 0.33259 0.17844 0.0
C11 C 0.94549 0.39131 0.15167 0.0
C12 C 0.97433 0.3689 0.15717 0.0
C13 C 0.9428 0.31762 0.19455 0.0
N14 N 0.91597 0.37674 0.16815 0.0
C15 C 0.91346 0.34044 0.18955 0.0
O16 O 0.07912 0.3435 0.26584 0.0
C17 C 0.0549 0.32494 0.28538 0.0
O18 O 0.03058 0.31214 0.25919 0.0
H19 H 0.99807 0.38062 0.14506 0.0
H20 H 0.94223 0.28895 0.21226 0.0
C21 C 0.16444 0.36715 0.20862 0.0
C22 C 0.19704 0.35317 0.19962 0.0
C23 C 0.17434 0.30435 0.14536 0.0
C24 C 0.14221 0.31788 0.15528 0.0
N25 N 0.13792 0.34901 0.18654 0.0
N26 N 0.20082 0.3221 0.16778 0.0
H27 H 0.15983 0.3922 0.23253 0.0
C28 C 0.0306 0.22457 0.20048 0.0
O29 O 0.05921 0.24047 0.21359 0.0
O30 O 0.09662 0.42577 0.21158 0.0
H31 H 0.12085 0.30371 0.13822 0.0
H32 H 0.94658 0.4203 0.13491 0.0
H33 H 0.17824 0.27969 0.12039 0.0
Zn34 Zn 0.51367 0.61945 0.69498 0.0
C35 C 0.56005 0.67667 0.58731 0.0
N36 N 0.55101 0.64498 0.56015 0.0
C37 C 0.54198 0.61923 0.5959 0.0
N38 N 0.54448 0.63472 0.64248 0.0
N39 N 0.55688 0.67047 0.63754 0.0
C40 C 0.57244 0.7726 0.70822 0.0
O41 O 0.54923 0.75738 0.73717 0.0
O42 O 0.51972 0.56178 0.70837 0.0
Zn43 Zn 0.58566 0.69144 0.69057 0.0
N44 N 0.46862 0.63127 0.67009 0.0
C45 C 0.43565 0.66227 0.60632 0.0
C46 C 0.46655 0.65428 0.62807 0.0
C47 C 0.44037 0.61756 0.69276 0.0
N48 N 0.40769 0.64788 0.62815 0.0
C49 C 0.40901 0.62602 0.67113 0.0
O50 O 0.56693 0.68291 0.76166 0.0
C51 C 0.54197 0.66782 0.78443 0.0
O52 O 0.5207 0.64645 0.76168 0.0
H53 H 0.48863 0.6666 0.61126 0.0
H54 H 0.44222 0.60002 0.72669 0.0
C55 C 0.65823 0.67886 0.70911 0.0
C56 C 0.68847 0.65772 0.70307 0.0
C57 C 0.66028 0.61297 0.64906 0.0
C58 C 0.6307 0.63357 0.65541 0.0
N59 N 0.62987 0.66603 0.68522 0.0
N60 N 0.6882 0.62537 0.67297 0.0
H61 H 0.65702 0.70449 0.73308 0.0
C62 C 0.50738 0.5434 0.74568 0.0
O63 O 0.4875 0.56184 0.77705 0.0
O64 O 0.59088 0.74995 0.68225 0.0
H65 H 0.60855 0.6234 0.63657 0.0
H66 H 0.43386 0.68004 0.57251 0.0
H67 H 0.66107 0.58711 0.62545 0.0
Zn68 Zn 0.01993 0.69536 0.84795 0.0
C69 C 0.06465 0.62752 0.94991 0.0
N70 N 0.05068 0.65315 0.98186 0.0
C71 C 0.04078 0.68259 0.95161 0.0
N72 N 0.04803 0.67531 0.90284 0.0
N73 N 0.06407 0.64113 0.9018 0.0
C74 C 0.06927 0.54596 0.82051 0.0
O75 O 0.03976 0.56235 0.81505 0.0
O76 O 1.01092 0.75354 0.85614 0.0
Zn77 Zn 0.09261 0.62469 0.84638 0.0
N78 N 0.97756 0.6662 0.84943 0.0
C79 C 0.9521 0.60534 0.87111 0.0
C80 C 0.98011 0.62921 0.86853 0.0
C81 C 0.94757 0.68027 0.83211 0.0
N82 N 0.92249 0.61907 0.85376 0.0
C83 C 0.91896 0.65582 0.83398 0.0
O84 O 0.08259 0.64784 0.77765 0.0
C85 C 0.06289 0.67138 0.75521 0.0
O86 O 0.03984 0.68958 0.77828 0.0
H87 H 1.00383 0.61801 0.88138 0.0
H88 H 0.94631 0.7095 0.81612 0.0
C89 C 0.16333 0.6259 0.8351 0.0
C90 C 0.19631 0.63843 0.8446 0.0
C91 C 0.17578 0.67985 0.90976 0.0
C92 C 0.14324 0.66796 0.89926 0.0
N93 N 0.13769 0.64121 0.86223 0.0
N94 N 0.20136 0.66505 0.88218 0.0
H95 H 0.15764 0.60417 0.80676 0.0
C96 C 0.02945 0.77767 0.83242 0.0
O97 O 0.05513 0.76427 0.80701 0.0
O98 O 0.09367 0.56653 0.83568 0.0
H99 H 0.1226 0.67998 0.92042 0.0
H100 H 0.9539 0.57589 0.88633 0.0
H101 H 0.18067 0.70101 0.93924 0.0
Zn102 Zn 0.58472 0.29046 0.34149 0.0
C103 C 0.53896 0.35757 0.44369 0.0
N104 N 0.54091 0.32542 0.47284 0.0
C105 C 0.55108 0.29747 0.44104 0.0
N106 N 0.55589 0.31175 0.39401 0.0
N107 N 0.54671 0.34926 0.39513 0.0
C108 C 0.51629 0.44791 0.29504 0.0
O109 O 0.49837 0.42946 0.26099 0.0
O110 O 0.58339 0.23107 0.34288 0.0
Zn111 Zn 0.51874 0.37065 0.34124 0.0
N112 N 0.63036 0.31004 0.35319 0.0
C113 C 0.66455 0.35074 0.40498 0.0
C114 C 0.63386 0.33372 0.39418 0.0
C115 C 0.65711 0.30211 0.3228 0.0
N116 N 0.69086 0.34349 0.37447 0.0
C117 C 0.68837 0.31956 0.3336 0.0
O118 O 0.52642 0.3464 0.27248 0.0
C119 C 0.54586 0.32351 0.24849 0.0
O120 O 0.56885 0.30399 0.2706 0.0
H121 H 0.61296 0.33974 0.41848 0.0
H122 H 0.65392 0.28337 0.29022 0.0
C123 C 0.44536 0.37904 0.33918 0.0
C124 C 0.41291 0.36909 0.35495 0.0
C125 C 0.43536 0.32095 0.40999 0.0
C126 C 0.46732 0.33006 0.3934 0.0
N127 N 0.4721 0.35972 0.35959 0.0
N128 N 0.40893 0.34058 0.39039 0.0
H129 H 0.44911 0.40158 0.31102 0.0
C130 C 0.55436 0.21608 0.34056 0.0
O131 O 0.52829 0.23955 0.34154 0.0
O132 O 0.5273 0.42898 0.33311 0.0
H133 H 0.48801 0.31301 0.40718 0.0
H134 H 0.66743 0.3698 0.43729 0.0
H135 H 0.4315 0.29784 0.43746 0.0
Zn136 Zn 0.51562 0.8 0.18887 0.0
C137 C 0.56644 0.86764 0.09231 0.0
N138 N 0.55809 0.8404 0.05824 0.0
C139 C 0.54435 0.81209 0.08681 0.0
N140 N 0.5443 0.8216 0.13636 0.0
N141 N 0.55904 0.85635 0.13977 0.0
C142 C 0.55443 0.94045 0.22978 0.0
O143 O 0.53142 0.91333 0.2356 0.0
O144 O 0.51481 0.74062 0.18564 0.0
Zn145 Zn 0.58734 0.87288 0.1952 0.0
N146 N 0.47087 0.82314 0.18058 0.0
C147 C 0.43963 0.87375 0.13984 0.0
C148 C 0.46944 0.85373 0.14746 0.0
C149 C 0.44303 0.81167 0.20661 0.0
N150 N 0.4122 0.86278 0.16598 0.0
C151 C 0.41268 0.83233 0.19937 0.0
O152 O 0.57876 0.84606 0.26174 0.0
C153 C 0.55704 0.82506 0.28398 0.0
O154 O 0.53249 0.8099 0.26032 0.0
H155 H 0.49136 0.86308 0.12729 0.0
H156 H 0.44477 0.78773 0.23343 0.0
C157 C 0.66008 0.87889 0.19554 0.0
C158 C 0.69208 0.86962 0.17727 0.0
C159 C 0.66814 0.82416 0.12015 0.0
C160 C 0.6366 0.83273 0.13893 0.0
N161 N 0.63292 0.8607 0.17514 0.0
N162 N 0.69508 0.84277 0.13965 0.0
H163 H 0.65678 0.90033 0.2252 0.0
C164 C 0.54249 0.72567 0.19958 0.0
O165 O 0.56804 0.74921 0.20682 0.0
O166 O 0.58204 0.93083 0.20968 0.0
H167 H 0.61525 0.81707 0.12448 0.0
H168 H 0.43834 0.89817 0.1137 0.0
H169 H 0.67126 0.80252 0.09071 0.0
Zn170 Zn 1.00727 0.12492 0.69059 0.0
C171 C 0.06693 0.17896 0.58998 0.0
N172 N 0.06065 0.14747 0.56128 0.0
C173 C 0.04427 0.12317 0.59255 0.0
N174 N 0.04017 0.13932 0.63884 0.0
N175 N 0.05533 0.17398 0.63739 0.0
C176 C 0.06753 0.27549 0.69457 0.0
O177 O 0.03739 0.2613 0.70158 0.0
O178 O 1.00972 0.06692 0.71048 0.0
Zn179 Zn 0.07974 0.19497 0.69479 0.0
N180 N 0.96353 0.13856 0.66223 0.0
C181 C 0.9336 0.17076 0.59616 0.0
C182 C 0.96356 0.16144 0.62002 0.0
C183 C 0.93425 0.12569 0.68252 0.0
N184 N 0.90455 0.15751 0.61593 0.0
C185 C 0.90386 0.13544 0.65878 0.0
O186 O 0.0543 0.1945 0.76007 0.0
C187 C 0.02896 0.17872 0.78033 0.0
O188 O 1.01099 0.15386 0.7572 0.0
H189 H 0.98666 0.1723 0.60453 0.0
H190 H 0.93458 0.10766 0.7161 0.0
C191 C 0.15109 0.17769 0.71477 0.0
C192 C 0.17814 0.15128 0.72127 0.0
C193 C 0.14118 0.09796 0.70531 0.0
C194 C 0.11471 0.12396 0.69978 0.0
N195 N 0.12001 0.16322 0.70406 0.0
N196 N 0.17196 0.11214 0.71595 0.0
H197 H 0.1543 0.20902 0.71919 0.0
C198 C 0.99526 0.05699 0.75131 0.0
O199 O 0.97989 0.08408 0.77773 0.0
O200 O 0.09133 0.25177 0.68562 0.0
H201 H 0.08994 0.11283 0.69247 0.0
H202 H 0.93339 0.18852 0.56226 0.0
H203 H 0.13729 0.06664 0.70172 0.0
Zn204 Zn 0.51399 0.19286 0.84552 0.0
C205 C 0.56353 0.12577 0.94396 0.0
N206 N 0.55309 0.15301 0.97677 0.0
C207 C 0.54165 0.18181 0.9468 0.0
N208 N 0.54444 0.17255 0.89745 0.0
N209 N 0.55937 0.13774 0.89557 0.0
C210 C 0.59364 0.05466 0.77734 0.0
O211 O 0.6034 0.08259 0.74651 0.0
O212 O 0.51258 0.25165 0.8506 0.0
Zn213 Zn 0.587 0.12206 0.83902 0.0
N214 N 0.46954 0.16997 0.85711 0.0
C215 C 0.43893 0.12226 0.90375 0.0
C216 C 0.46875 0.14096 0.8925 0.0
C217 C 0.44107 0.18085 0.83189 0.0
N218 N 0.41085 0.13277 0.87866 0.0
C219 C 0.41064 0.16143 0.8427 0.0
O220 O 0.57542 0.14948 0.7741 0.0
C221 C 0.55371 0.16946 0.75031 0.0
O222 O 0.52832 0.18392 0.77245 0.0
H223 H 0.49115 0.13192 0.91185 0.0
H224 H 0.44238 0.20347 0.80323 0.0
C225 C 0.65865 0.12301 0.82649 0.0
C226 C 0.69148 0.13591 0.836 0.0
C227 C 0.67117 0.17402 0.90436 0.0
C228 C 0.63866 0.16222 0.89348 0.0
N229 N 0.63296 0.13679 0.85493 0.0
N230 N 0.69666 0.16091 0.87528 0.0
H231 H 0.65343 0.10235 0.79684 0.0
C232 C 0.54051 0.26727 0.83999 0.0
O233 O 0.56642 0.24425 0.8327 0.0
O234 O 0.58426 0.0638 0.82171 0.0
H235 H 0.61816 0.17356 0.91546 0.0
H236 H 0.4381 0.09922 0.93191 0.0
H237 H 0.67607 0.19406 0.93511 0.0
Zn238 Zn 0.08463 0.80321 0.34814 0.0
C239 C 0.02992 0.86584 0.44584 0.0
N240 N 0.04352 0.84243 0.48087 0.0
C241 C 0.05908 0.81501 0.45303 0.0
N242 N 0.05555 0.82166 0.40277 0.0
N243 N 0.03677 0.85366 0.3988 0.0
C244 C 0.03093 0.94965 0.315 0.0
O245 O 0.05994 0.93307 0.30605 0.0
O246 O 0.09379 0.74509 0.35233 0.0
Zn247 Zn 1.00908 0.87044 0.34304 0.0
N248 N 0.12667 0.83212 0.3526 0.0
C249 C 0.15292 0.89153 0.37809 0.0
C250 C 0.12453 0.86833 0.37384 0.0
C251 C 0.15646 0.81809 0.33505 0.0
N252 N 0.18242 0.87781 0.36046 0.0
C253 C 0.1854 0.84171 0.33885 0.0
O254 O 0.0201 0.84755 0.27583 0.0
C255 C 0.04149 0.82638 0.25341 0.0
O256 O 0.06574 0.81043 0.27704 0.0
H257 H 0.10084 0.87933 0.38711 0.0
H258 H 0.15727 0.78949 0.31742 0.0
C259 C 0.93817 0.87154 0.33357 0.0
C260 C 0.90522 0.85905 0.3429 0.0
C261 C 0.92619 0.81289 0.40267 0.0
C262 C 0.95871 0.82474 0.39224 0.0
N263 N 0.96404 0.85393 0.35814 0.0
N264 N 0.90038 0.83009 0.37772 0.0
H265 H 0.9436 0.89496 0.30726 0.0
C266 C 0.07086 0.72227 0.33677 0.0
O267 O 0.04164 0.73725 0.32475 0.0
O268 O 1.0074 0.92916 0.33342 0.0
H269 H 0.97952 0.81069 0.41109 0.0
H270 H 0.1515 0.9204 0.39492 0.0
H271 H 0.92148 0.78985 0.42992 0.0
H272 H 0.26212 0.34593 0.16982 0.0
H273 H 0.20102 0.39665 0.28834 0.0
H274 H 0.25161 0.41817 0.33237 0.0
H275 H 0.3202 0.30497 0.24909 0.0
H276 H 0.35579 0.3133 0.20901 0.0
H277 H 0.3149 0.30872 0.18168 0.0
H278 H 0.32195 0.37649 0.13815 0.0
H279 H 0.36294 0.38135 0.16577 0.0
H280 H 0.33197 0.419 0.17567 0.0
H281 H 0.30796 0.42416 0.37114 0.0
H282 H 0.36549 0.41227 0.40173 0.0
H283 H 0.39086 0.35878 0.25899 0.0
C284 C 0.25922 0.36241 0.20442 0.0
C285 C 0.22718 0.37012 0.22462 0.0
C286 C 0.22484 0.3912 0.27063 0.0
C287 C 0.25364 0.40354 0.29631 0.0
C288 C 0.28472 0.39485 0.27564 0.0
C289 C 0.2877 0.37485 0.23061 0.0
C290 C 0.32388 0.36509 0.21943 0.0
C291 C 0.32897 0.32039 0.21456 0.0
C292 C 0.33589 0.38679 0.17193 0.0
C293 C 0.34064 0.3811 0.26638 0.0
C294 C 0.31765 0.39879 0.29793 0.0
C295 C 0.32637 0.41152 0.34616 0.0
C296 C 0.35907 0.40484 0.36318 0.0
C297 C 0.38265 0.38595 0.33194 0.0
C298 C 0.3736 0.37496 0.28251 0.0
H299 H 0.26269 0.64379 0.8693 0.0
H300 H 0.19672 0.60421 0.7491 0.0
H301 H 0.24528 0.58686 0.69814 0.0
H302 H 0.31871 0.69103 0.79068 0.0
H303 H 0.35558 0.67872 0.82658 0.0
H304 H 0.31581 0.68201 0.85759 0.0
H305 H 0.32308 0.61102 0.89146 0.0
H306 H 0.36293 0.60748 0.86032 0.0
H307 H 0.33096 0.57154 0.84787 0.0
H308 H 0.29995 0.58215 0.65502 0.0
H309 H 0.35709 0.59196 0.62272 0.0
H310 H 0.38857 0.6345 0.76925 0.0
C311 C 0.2583 0.63072 0.8327 0.0
C312 C 0.22544 0.62469 0.8143 0.0
C313 C 0.22119 0.60814 0.76557 0.0
C314 C 0.24882 0.59826 0.73585 0.0
C315 C 0.28068 0.60501 0.75505 0.0
C316 C 0.28562 0.62083 0.80237 0.0
C317 C 0.32235 0.62882 0.81204 0.0
C318 C 0.32845 0.67274 0.8223 0.0
C319 C 0.33561 0.60317 0.8555 0.0
C320 C 0.33714 0.61632 0.762 0.0
C321 C 0.31265 0.60217 0.72996 0.0
C322 C 0.31947 0.59232 0.68008 0.0
C323 C 0.35194 0.59799 0.66206 0.0
C324 C 0.37724 0.61314 0.69384 0.0
C325 C 0.36992 0.62155 0.74477 0.0
H326 H 0.73761 0.6072 0.73058 0.0
H327 H 0.71313 0.73136 0.73147 0.0
H328 H 0.76972 0.74598 0.76514 0.0
H329 H 0.78703 0.60578 0.84441 0.0
H330 H 0.81587 0.57015 0.81944 0.0
H331 H 0.77314 0.57059 0.79819 0.0
H332 H 0.79332 0.57701 0.70566 0.0
H333 H 0.83609 0.57702 0.72664 0.0
H334 H 0.82054 0.61699 0.68847 0.0
H335 H 0.83226 0.7458 0.79583 0.0
H336 H 0.88998 0.73052 0.82412 0.0
H337 H 0.87082 0.60655 0.79959 0.0
C338 C 0.74386 0.63759 0.73805 0.0
C339 C 0.72068 0.66806 0.72836 0.0
C340 C 0.73013 0.70733 0.73915 0.0
C341 C 0.7624 0.71592 0.75791 0.0
C342 C 0.78486 0.68496 0.76588 0.0
C343 C 0.77561 0.64655 0.75657 0.0
C344 C 0.8038 0.61817 0.76723 0.0
C345 C 0.7944 0.5895 0.80986 0.0
C346 C 0.81403 0.59601 0.71914 0.0
C347 C 0.8307 0.64639 0.78384 0.0
C348 C 0.81968 0.68486 0.7829 0.0
C349 C 0.84093 0.71568 0.79665 0.0
C350 C 0.87387 0.70674 0.8123 0.0
C351 C 0.88528 0.66725 0.81415 0.0
C352 C 0.86314 0.63707 0.79918 0.0
H353 H 0.86463 0.38661 0.22861 0.0
H354 H 0.88652 0.26513 0.19225 0.0
H355 H 0.82961 0.24622 0.21991 0.0
H356 H 0.81815 0.36692 0.34045 0.0
H357 H 0.7893 0.4068 0.32986 0.0
H358 H 0.83118 0.40988 0.30581 0.0
H359 H 0.80763 0.42211 0.2159 0.0
H360 H 0.76564 0.41859 0.23961 0.0
H361 H 0.77894 0.38722 0.18879 0.0
H362 H 0.76831 0.24162 0.25137 0.0
H363 H 0.71277 0.25093 0.29132 0.0
H364 H 0.73353 0.37515 0.30776 0.0
C365 C 0.85753 0.35597 0.22624 0.0
C366 C 0.88016 0.32741 0.20822 0.0
C367 C 0.86986 0.28757 0.20643 0.0
C368 C 0.83742 0.27662 0.22164 0.0
C369 C 0.81565 0.30577 0.2388 0.0
C370 C 0.82561 0.34458 0.24163 0.0
C371 C 0.79842 0.37036 0.26322 0.0
C372 C 0.80995 0.3896 0.31277 0.0
C373 C 0.78699 0.4014 0.22456 0.0
C374 C 0.77148 0.34013 0.27243 0.0
C375 C 0.78147 0.30305 0.25759 0.0
C376 C 0.76035 0.2706 0.26302 0.0
C377 C 0.72873 0.27616 0.28533 0.0
C378 C 0.71878 0.31378 0.30244 0.0
C379 C 0.7404 0.34603 0.29502 0.0
H380 H 0.83963 0.85598 0.37112 0.0
H381 H 0.9036 0.89598 0.24914 0.0
H382 H 0.85418 0.91525 0.2004 0.0
H383 H 0.78246 0.81047 0.29543 0.0
H384 H 0.7462 0.82262 0.3324 0.0
H385 H 0.78644 0.81939 0.3622 0.0
H386 H 0.77964 0.89035 0.39592 0.0
H387 H 0.73927 0.89383 0.36593 0.0
H388 H 0.77097 0.92988 0.35239 0.0
H389 H 0.79887 0.91925 0.15857 0.0
H390 H 0.74175 0.90661 0.12715 0.0
H391 H 0.71272 0.86499 0.27512 0.0
C392 C 0.84339 0.86973 0.33469 0.0
C393 C 0.87587 0.87507 0.31489 0.0
C394 C 0.87939 0.89253 0.26649 0.0
C395 C 0.85128 0.90353 0.23813 0.0
C396 C 0.81972 0.89713 0.2585 0.0
C397 C 0.8156 0.88078 0.30581 0.0
C398 C 0.77909 0.87266 0.31658 0.0
C399 C 0.77322 0.82869 0.32724 0.0
C400 C 0.7665 0.89822 0.3603 0.0
C401 C 0.76348 0.88524 0.26697 0.0
C402 C 0.78734 0.8999 0.23429 0.0
C403 C 0.7798 0.90896 0.18423 0.0
C404 C 0.74735 0.90176 0.1667 0.0
C405 C 0.72284 0.88598 0.19921 0.0
C406 C 0.73074 0.87867 0.25026 0.0
H407 H 0.75797 0.137 0.86056 0.0
H408 H 0.69052 0.11229 0.73581 0.0
H409 H 0.73848 0.10027 0.68086 0.0
H410 H 0.81425 0.19156 0.7907 0.0
H411 H 0.8512 0.17448 0.82301 0.0
H412 H 0.81176 0.17494 0.85523 0.0
H413 H 0.81802 0.1007 0.87503 0.0
H414 H 0.85758 0.10002 0.84277 0.0
H415 H 0.82494 0.06659 0.8242 0.0
H416 H 0.79285 0.0997 0.63613 0.0
H417 H 0.85017 0.11056 0.60519 0.0
H418 H 0.8831 0.13579 0.7577 0.0
C419 C 0.75319 0.12822 0.82198 0.0
C420 C 0.72016 0.12477 0.80331 0.0
C421 C 0.71524 0.11391 0.75214 0.0
C422 C 0.74248 0.10721 0.72023 0.0
C423 C 0.77458 0.11139 0.73978 0.0
C424 C 0.78011 0.12149 0.78952 0.0
C425 C 0.81702 0.12754 0.79988 0.0
C426 C 0.82394 0.16963 0.81826 0.0
C427 C 0.83016 0.09687 0.83771 0.0
C428 C 0.83122 0.12067 0.7477 0.0
C429 C 0.8063 0.11094 0.71377 0.0
C430 C 0.81269 0.1065 0.66249 0.0
C431 C 0.84527 0.11283 0.64526 0.0
C432 C 0.87111 0.12334 0.67916 0.0
C433 C 0.86406 0.12656 0.73119 0.0
H434 H 0.35992 0.11 0.82855 0.0
H435 H 0.38736 0.23105 0.7982 0.0
H436 H 0.33094 0.24288 0.76212 0.0
H437 H 0.30937 0.09464 0.71771 0.0
H438 H 0.2799 0.06433 0.75118 0.0
H439 H 0.32284 0.06595 0.77131 0.0
H440 H 0.30391 0.08611 0.86109 0.0
H441 H 0.26094 0.08487 0.84116 0.0
H442 H 0.27786 0.12889 0.86887 0.0
H443 H 0.26838 0.24076 0.73232 0.0
H444 H 0.20993 0.22444 0.70996 0.0
H445 H 0.22606 0.10533 0.76405 0.0
C446 C 0.35437 0.1391 0.81415 0.0
C447 C 0.37835 0.1695 0.81625 0.0
C448 C 0.36976 0.20699 0.7965 0.0
C449 C 0.3376 0.21405 0.77624 0.0
C450 C 0.31439 0.18334 0.77586 0.0
C451 C 0.32274 0.14655 0.79412 0.0
C452 C 0.29377 0.11831 0.79089 0.0
C453 C 0.30197 0.08378 0.75567 0.0
C454 C 0.28352 0.10371 0.84363 0.0
C455 C 0.26743 0.14481 0.76825 0.0
C456 C 0.27945 0.18224 0.75961 0.0
C457 C 0.25889 0.21145 0.73905 0.0
C458 C 0.22549 0.20195 0.72681 0.0
C459 C 0.21288 0.16349 0.73529 0.0
C460 C 0.23451 0.13497 0.75651 0.0
H461 H 0.23456 0.8902 0.3057 0.0
H462 H 0.21259 0.76654 0.32786 0.0
H463 H 0.26949 0.7497 0.29831 0.0
H464 H 0.28205 0.87954 0.19314 0.0
H465 H 0.31078 0.91821 0.20952 0.0
H466 H 0.26863 0.91949 0.23276 0.0
H467 H 0.29111 0.92418 0.32439 0.0
H468 H 0.33336 0.92253 0.30143 0.0
H469 H 0.31955 0.88716 0.34758 0.0
H470 H 0.33102 0.74744 0.26625 0.0
H471 H 0.38709 0.75998 0.22965 0.0
H472 H 0.36639 0.88504 0.23019 0.0
C473 C 0.24155 0.85947 0.30458 0.0
C474 C 0.21881 0.82979 0.31908 0.0
C475 C 0.22918 0.78995 0.31636 0.0
C476 C 0.26166 0.78011 0.30002 0.0
C477 C 0.28348 0.81036 0.28646 0.0
C478 C 0.27354 0.84922 0.28833 0.0
C479 C 0.30091 0.87656 0.27089 0.0
C480 C 0.28994 0.8998 0.22378 0.0
C481 C 0.31187 0.90423 0.31363 0.0
C482 C 0.32796 0.84717 0.25854 0.0
C483 C 0.31784 0.80907 0.26806 0.0
C484 C 0.33907 0.77724 0.25882 0.0
C485 C 0.37102 0.78462 0.23841 0.0
C486 C 0.38124 0.82352 0.22711 0.0
C487 C 0.35939 0.85493 0.23817 0.0
H488 H 0.0258 0.66432 0.31448 0.0
H489 H 0.13183 0.68569 0.33484 0.0
H490 H 0.14386 0.61747 0.30889 0.0
H491 H 0.02612 0.56382 0.36117 0.0
H492 H 0.9954 0.54758 0.316 0.0
H493 H 0.99529 0.59778 0.3373 0.0
H494 H 0.99885 0.62154 0.2445 0.0
H495 H 0.99959 0.57144 0.22279 0.0
H496 H 0.03263 0.60463 0.20531 0.0
H497 H 0.14448 0.54863 0.27432 0.0
H498 H 0.13345 0.48159 0.24329 0.0
H499 H 0.02682 0.50393 0.25028 0.0
C500 C 0.05154 0.65455 0.31404 0.0
C501 C 0.0779 0.68035 0.32665 0.0
C502 C 0.11123 0.6664 0.32558 0.0
C503 C 0.11832 0.62777 0.31063 0.0
C504 C 0.09178 0.60338 0.2974 0.0
C505 C 0.05903 0.61602 0.29972 0.0
C506 C 0.0351 0.58391 0.2837 0.0
C507 C 1.0116 0.5726 0.32714 0.0
C508 C 0.01538 0.59612 0.23627 0.0
C509 C 0.0595 0.5512 0.27209 0.0
C510 C 0.09209 0.56323 0.27948 0.0
C511 C 0.11905 0.53874 0.26897 0.0
C512 C 0.11251 0.50076 0.25114 0.0
C513 C 0.07926 0.48744 0.24464 0.0
C514 C 0.05249 0.51311 0.25537 0.0
H515 H 0.49366 0.32522 0.85634 0.0
H516 H 0.59264 0.30472 0.7951 0.0
H517 H 0.59483 0.37321 0.76542 0.0
H518 H 0.46392 0.38645 0.75841 0.0
H519 H 0.44128 0.41958 0.79879 0.0
H520 H 0.44778 0.36936 0.81797 0.0
H521 H 0.47549 0.39275 0.90106 0.0
H522 H 0.46873 0.44309 0.8824 0.0
H523 H 0.51018 0.4264 0.89836 0.0
H524 H 0.58458 0.44137 0.7355 0.0
H525 H 0.56513 0.50841 0.71586 0.0
H526 H 0.47397 0.4868 0.79962 0.0
C527 C 0.51596 0.33534 0.83733 0.0
C528 C 0.54294 0.30957 0.82793 0.0
C529 C 0.57169 0.32389 0.8029 0.0
C530 C 0.57316 0.36274 0.78568 0.0
C531 C 0.54588 0.38709 0.79441 0.0
C532 C 0.51805 0.37429 0.8204 0.0
C533 C 0.49216 0.40666 0.82444 0.0
C534 C 0.45935 0.39479 0.79834 0.0
C535 C 0.48631 0.41789 0.87986 0.0
C536 C 0.50961 0.43933 0.7959 0.0
C537 C 0.54045 0.42721 0.77861 0.0
C538 C 0.56066 0.45142 0.74933 0.0
C539 C 0.54926 0.48931 0.73799 0.0
C540 C 0.51809 0.50273 0.75623 0.0
C541 C 0.49805 0.47737 0.78559 0.0
H542 H 0.02302 0.48921 0.79682 0.0
H543 H 0.12972 0.51146 0.80354 0.0
H544 H 0.14063 0.44608 0.76755 0.0
H545 H 0.02911 0.38757 0.83306 0.0
H546 H 0.99572 0.37126 0.79247 0.0
H547 H 0.99542 0.42048 0.81723 0.0
H548 H 0.99155 0.44948 0.72728 0.0
H549 H 0.99126 0.40059 0.70141 0.0
H550 H 0.02207 0.43563 0.6807 0.0
H551 H 0.14013 0.37929 0.7284 0.0
H552 H 0.12836 0.31224 0.69786 0.0
H553 H 0.02223 0.33255 0.71908 0.0
C554 C 0.04866 0.48026 0.79083 0.0
C555 C 0.07548 0.50552 0.80273 0.0
C556 C 0.10872 0.4926 0.79479 0.0
C557 C 0.11522 0.4556 0.77407 0.0
C558 C 0.08824 0.43169 0.76194 0.0
C559 C 0.05565 0.44319 0.77069 0.0
C560 C 0.0313 0.41116 0.7561 0.0
C561 C 1.01173 0.39674 0.80245 0.0
C562 C 1.00766 0.42506 0.71385 0.0
C563 C 0.05531 0.3801 0.73732 0.0
C564 C 0.08801 0.39266 0.74063 0.0
C565 C 0.11463 0.36902 0.72573 0.0
C566 C 0.10768 0.33108 0.70818 0.0
C567 C 0.0744 0.31715 0.70603 0.0
C568 C 0.04794 0.34235 0.72004 0.0
H569 H 0.49876 0.66476 0.17978 0.0
H570 H 0.59148 0.69269 0.25704 0.0
H571 H 0.59412 0.62539 0.29086 0.0
H572 H 0.4646 0.6024 0.27549 0.0
H573 H 0.44688 0.56748 0.23202 0.0
H574 H 0.45202 0.618 0.21321 0.0
H575 H 0.48673 0.5961 0.13583 0.0
H576 H 0.48145 0.5455 0.15419 0.0
H577 H 0.52279 0.56515 0.14516 0.0
H578 H 0.58542 0.55642 0.32047 0.0
H579 H 0.56893 0.48757 0.33627 0.0
H580 H 0.48363 0.50249 0.23665 0.0
C581 C 0.51972 0.65657 0.20349 0.0
C582 C 0.54489 0.68407 0.21573 0.0
C583 C 0.57196 0.67217 0.24682 0.0
C584 C 0.57363 0.63402 0.26652 0.0
C585 C 0.54827 0.6078 0.25436 0.0
C586 C 0.52207 0.61827 0.22298 0.0
C587 C 0.4985 0.58397 0.21513 0.0
C588 C 0.46343 0.59355 0.23517 0.0
C589 C 0.49731 0.57197 0.15926 0.0
C590 C 0.5155 0.5528 0.24719 0.0
C591 C 0.54395 0.56735 0.26995 0.0
C592 C 0.56337 0.54453 0.30247 0.0
C593 C 0.55376 0.50552 0.31136 0.0
C594 C 0.52516 0.48966 0.28746 0.0
C595 C 0.50579 0.51375 0.25511 0.0
H596 H 0.59921 0.00195 0.23588 0.0
H597 H 0.49639 0.97001 0.26748 0.0
H598 H 0.48632 0.0359 0.30242 0.0
H599 H 0.61263 0.06069 0.34696 0.0
H600 H 0.63736 0.09728 0.31506 0.0
H601 H 0.63692 0.04742 0.29243 0.0
H602 H 0.61835 0.0717 0.20395 0.0
H603 H 0.61902 0.12164 0.22618 0.0
H604 H 0.58159 0.10201 0.19809 0.0
H605 H 0.48685 0.10488 0.33333 0.0
H606 H 0.49744 0.1741 0.35536 0.0
H607 H 0.59995 0.16223 0.30472 0.0
C608 C 0.57458 0.00885 0.25014 0.0
C609 C 0.54859 0.98071 0.249 0.0
C610 C 0.51672 0.99095 0.26795 0.0
C611 C 0.51073 0.02833 0.28797 0.0
C612 C 0.53686 0.05525 0.28884 0.0
C613 C 0.56811 0.04617 0.27022 0.0
C614 C 0.59159 0.08094 0.27496 0.0
C615 C 0.62139 0.07097 0.30941 0.0
C616 C 0.60332 0.09489 0.22268 0.0
C617 C 0.56865 0.11085 0.29933 0.0
C618 C 0.5372 0.0953 0.30697 0.0
C619 C 0.51139 0.11739 0.32766 0.0
C620 C 0.51766 0.15668 0.34008 0.0
C621 C 0.54952 0.17352 0.33197 0.0
C622 C 0.57546 0.15003 0.31198 0.0
H623 H 0.05208 0.83171 0.764 0.0
H624 H 0.98667 0.81866 0.89332 0.0
H625 H 0.97072 0.88868 0.88592 0.0
H626 H 0.08085 0.92953 0.791 0.0
H627 H 0.08097 0.94477 0.72582 0.0
H628 H 0.08767 0.89391 0.74185 0.0
H629 H 0.03855 0.87392 0.68374 0.0
H630 H 0.03155 0.9247 0.66757 0.0
H631 H 0.99799 0.89567 0.69319 0.0
H632 H 0.96216 0.95969 0.86474 0.0
H633 H 0.96089 0.02718 0.83125 0.0
H634 H 0.03079 0.99389 0.71381 0.0
C635 C 0.03461 0.84364 0.79107 0.0
C636 C 0.02073 0.81983 0.8295 0.0
C637 C 0.99759 0.8364 0.86367 0.0
C638 C 0.98841 0.87609 0.85974 0.0
C639 C 1.00237 0.89863 0.82118 0.0
C640 C 0.02489 0.88303 0.78734 0.0
C641 C 0.03574 0.91343 0.74878 0.0
C642 C 0.07355 0.92085 0.7521 0.0
C643 C 0.02533 0.90119 0.69515 0.0
C644 C 0.016 0.94877 0.76653 0.0
C645 C 0.99696 0.93951 0.80835 0.0
C646 C 0.97691 0.96727 0.83199 0.0
C647 C 0.9764 0.00559 0.81263 0.0
C648 C 0.99575 0.01591 0.76988 0.0
C649 C 0.01565 0.98693 0.74642 0.0
H650 H 0.55204 0.82507 0.77971 0.0
H651 H 0.60708 0.81633 0.63926 0.0
H652 H 0.61859 0.88764 0.64244 0.0
H653 H 0.51465 0.91959 0.75672 0.0
H654 H 0.5188 0.93563 0.82119 0.0
H655 H 0.51435 0.88412 0.80735 0.0
H656 H 0.56913 0.86946 0.8562 0.0
H657 H 0.57382 0.92095 0.87002 0.0
H658 H 0.60693 0.89472 0.83876 0.0
H659 H 0.62358 0.95925 0.66031 0.0
H660 H 0.62284 0.02708 0.69198 0.0
H661 H 0.56606 0.98926 0.82279 0.0
C662 C 0.56629 0.83821 0.74939 0.0
C663 C 0.57853 0.81531 0.70902 0.0
C664 C 0.5975 0.83341 0.67048 0.0
C665 C 0.60413 0.87382 0.67198 0.0
C666 C 0.59188 0.89548 0.7125 0.0
C667 C 0.57349 0.87835 0.75063 0.0
C668 C 0.56381 0.90817 0.79042 0.0
C669 C 0.52563 0.91211 0.79411 0.0
C670 C 0.57936 0.89769 0.84189 0.0
C671 C 0.57941 0.94488 0.76843 0.0
C672 C 0.5954 0.93682 0.72344 0.0
C673 C 0.61122 0.96593 0.69552 0.0
C674 C 0.61058 0.00441 0.71387 0.0
C675 C 0.59435 0.01349 0.75988 0.0
C676 C 0.57876 0.98319 0.78764 0.0
H677 H 0.0762 0.16793 0.2269 0.0
H678 H 0.97027 0.1867 0.20104 0.0
H679 H 0.95887 0.11869 0.22883 0.0
H680 H 0.07853 0.06714 0.18311 0.0
H681 H 0.10859 0.05194 0.23002 0.0
H682 H 0.10829 0.10196 0.20766 0.0
H683 H 0.10232 0.12651 0.29976 0.0
H684 H 0.10216 0.07654 0.32238 0.0
H685 H 0.06814 0.10901 0.33776 0.0
H686 H 0.95867 0.05046 0.26568 0.0
H687 H 0.97016 0.9838 0.29821 0.0
H688 H 0.07655 0.00775 0.29418 0.0
C689 C 0.05062 0.15763 0.22657 0.0
C690 C 0.0241 0.18266 0.21182 0.0
C691 C 0.991 0.16802 0.21192 0.0
C692 C 0.98426 0.12952 0.22795 0.0
C693 C 1.01091 0.10591 0.24321 0.0
C694 C 0.04349 0.11916 0.24187 0.0
C695 C 0.06763 0.08768 0.25968 0.0
C696 C 0.0922 0.07652 0.2176 0.0
C697 C 0.08615 0.10073 0.30773 0.0
C698 C 0.04356 0.05453 0.27089 0.0
C699 C 1.01092 0.06593 0.26211 0.0
C700 C 0.98415 0.04105 0.27212 0.0
C701 C 0.99094 0.0033 0.29083 0.0
C702 C 0.02427 0.9905 0.29851 0.0
C703 C 0.05085 0.01657 0.28826 0.0
H704 H 1.00926 0.33294 0.9976 0.0
H705 H 0.04157 0.24129 0.09965 0.0
H706 H 0.02878 0.19141 0.03493 0.0
H707 H 0.94845 0.27569 0.91521 0.0
H708 H 0.96462 0.29973 0.85973 0.0
H709 H 0.96343 0.32554 0.919 0.0
H710 H 0.02665 0.33955 0.91074 0.0
H711 H 0.02847 0.31278 0.85256 0.0
H712 H 0.05535 0.29904 0.9043 0.0
H713 H 0.02345 0.15321 0.95298 0.0
H714 H 0.02955 0.13185 0.86394 0.0
H715 H 1.01076 0.25083 0.81341 0.0
C716 C 1.01164 0.30212 1.00732 0.0
C717 C 0.02458 0.29075 0.05479 0.0
C718 C 0.02933 0.25041 0.06521 0.0
C719 C 0.02279 0.22196 0.02796 0.0
C720 C 1.01222 0.23452 0.98019 0.0
C721 C 1.00675 0.27388 0.96992 0.0
C722 C 1.00299 0.28135 0.91379 0.0
C723 C 0.96776 0.29645 0.9012 0.0
C724 C 0.02997 0.30984 0.89426 0.0
C725 C 1.00833 0.24036 0.89368 0.0
C726 C 1.01251 0.21342 0.93243 0.0
C727 C 0.0197 0.17402 0.92254 0.0
C728 C 0.02316 0.16212 0.87201 0.0
C729 C 0.02045 0.18981 0.83235 0.0
C730 C 1.01256 0.22917 0.84333 0.0
H731 H 0.51247 0.71211 0.53436 0.0
H732 H 0.61595 0.72334 0.57868 0.0
H733 H 0.62417 0.7736 0.51162 0.0
H734 H 0.52714 0.70719 0.41196 0.0
H735 H 0.49051 0.733 0.39013 0.0
H736 H 0.48989 0.7083 0.44999 0.0
H737 H 0.47328 0.77286 0.49499 0.0
H738 H 0.47299 0.79781 0.4349 0.0
H739 H 0.49816 0.81641 0.486 0.0
H740 H 0.62315 0.812 0.42904 0.0
H741 H 0.61365 0.83459 0.34151 0.0
H742 H 0.51132 0.79342 0.34916 0.0
C743 C 0.53635 0.72691 0.53169 0.0
C744 C 0.56336 0.71503 0.56232 0.0
C745 C 0.59476 0.73325 0.55657 0.0
C746 C 0.59959 0.76153 0.51831 0.0
C747 C 0.57275 0.77086 0.48642 0.0
C748 C 0.54157 0.75431 0.49333 0.0
C749 C 0.51825 0.76356 0.44983 0.0
C750 C 0.50575 0.72577 0.42399 0.0
C751 C 0.48894 0.7892 0.46749 0.0
C752 C 0.54147 0.78641 0.41593 0.0
C753 C 0.57255 0.79123 0.43802 0.0
C754 C 0.59872 0.809 0.41196 0.0
C755 C 0.59308 0.82167 0.36211 0.0
C756 C 0.56168 0.81581 0.33836 0.0
C757 C 0.53552 0.79854 0.36621 0.0
H758 H 0.08796 0.80092 0.18492 0.0
H759 H 0.98336 0.83189 0.1993 0.0
H760 H 0.97334 0.81087 0.11153 0.0
H761 H 0.09568 0.82938 0.04746 0.0
H762 H 0.12357 0.78887 0.03553 0.0
H763 H 0.12349 0.81233 0.09646 0.0
H764 H 0.11244 0.74516 0.13984 0.0
H765 H 0.11308 0.72168 0.07935 0.0
H766 H 0.07725 0.71609 0.11974 0.0
H767 H 0.97255 0.77317 0.0296 0.0
H768 H 0.98214 0.72367 0.96255 0.0
H769 H 0.0877 0.72464 0.99663 0.0
C770 C 0.06313 0.80419 0.16917 0.0
C771 C 0.0365 0.81802 0.199 0.0
C772 C 1.00428 0.82161 0.1771 0.0
C773 C 0.99833 0.80987 0.12713 0.0
C774 C 0.02501 0.79557 0.09895 0.0
C775 C 0.05692 0.79337 0.11903 0.0
C776 C 0.08073 0.77378 0.08276 0.0
C777 C 0.10745 0.80284 0.06447 0.0
C778 C 0.09677 0.73701 0.10685 0.0
C779 C 0.0569 0.76316 0.04048 0.0
C780 C 0.02485 0.77628 0.05002 0.0
C781 C 0.99772 0.76407 0.02055 0.0
C782 C 1.00331 0.73629 0.98218 0.0
C783 C 0.03577 0.7217 0.97351 0.0
C784 C 0.06291 0.73693 1.00119 0.0
H785 H 0.50497 0.25215 0.48211 0.0
H786 H 0.61058 0.25825 0.45092 0.0
H787 H 0.62174 0.21298 0.52225 0.0
H788 H 0.51293 0.2692 0.60089 0.0
H789 H 0.4797 0.23898 0.62521 0.0
H790 H 0.47768 0.25681 0.56157 0.0
H791 H 0.47224 0.18617 0.52687 0.0
H792 H 0.47275 0.16778 0.59075 0.0
H793 H 0.5022 0.14924 0.54533 0.0
H794 H 0.62222 0.18182 0.60863 0.0
H795 H 0.61256 0.16633 0.69841 0.0
H796 H 0.50667 0.18838 0.67831 0.0
C797 C 0.53016 0.24139 0.48806 0.0
C798 C 0.55685 0.25754 0.46028 0.0
C799 C 0.58976 0.24494 0.47054 0.0
C800 C 0.59625 0.21966 0.51158 0.0
C801 C 0.56951 0.20753 0.54175 0.0
C802 C 0.53693 0.21757 0.52987 0.0
C803 C 0.51338 0.20845 0.5731 0.0
C804 C 0.49488 0.24557 0.59122 0.0
C805 C 0.48868 0.17596 0.55812 0.0
C806 C 0.5379 0.19391 0.6124 0.0
C807 C 0.56996 0.19232 0.59316 0.0
C808 C 0.59711 0.18223 0.62359 0.0
C809 C 0.59136 0.17367 0.67471 0.0
C810 C 0.55881 0.17624 0.69548 0.0
C811 C 0.53179 0.18613 0.66357 0.0
H812 H 0.58964 0.76752 0.04239 0.0
H813 H 0.48414 0.77416 0.07491 0.0
H814 H 0.47286 0.72595 1.00678 0.0
H815 H 0.58037 0.77768 0.9201 0.0
H816 H 0.61432 0.74673 0.89994 0.0
H817 H 0.61575 0.76931 0.96097 0.0
H818 H 0.62289 0.70149 1.00422 0.0
H819 H 0.62256 0.67848 0.94302 0.0
H820 H 0.59358 0.6627 0.99087 0.0
H821 H 0.4727 0.68841 0.92382 0.0
H822 H 0.48285 0.66627 0.83643 0.0
H823 H 0.58833 0.69146 0.85419 0.0
C824 C 0.5644 0.75675 0.0372 0.0
C825 C 0.53782 0.77332 0.06468 0.0
C826 C 0.50487 0.76052 0.05544 0.0
C827 C 0.49833 0.73349 1.01641 0.0
C828 C 0.52506 0.72001 0.98714 0.0
C829 C 0.55757 0.73103 0.99764 0.0
C830 C 0.5812 0.71931 0.95573 0.0
C831 C 0.59891 0.7554 0.93287 0.0
C832 C 0.60655 0.68866 0.97459 0.0
C833 C 0.55686 0.70146 0.91873 0.0
C834 C 0.52476 0.70102 0.93793 0.0
C835 C 0.49783 0.68805 0.90896 0.0
C836 C 0.50385 0.67561 0.85925 0.0
C837 C 0.53642 0.6772 0.83843 0.0
C838 C 0.5632 0.68982 0.86902 0.0
H839 H 0.11176 0.19482 0.51672 0.0
H840 H 0.03039 0.24571 0.60132 0.0
H841 H 0.023 0.29629 0.53539 0.0
H842 H 0.14284 0.29091 0.45545 0.0
H843 H 0.15167 0.26507 0.39772 0.0
H844 H 0.15636 0.2404 0.45761 0.0
H845 H 0.11673 0.18557 0.42618 0.0
H846 H 0.11091 0.21048 0.36701 0.0
H847 H 0.07523 0.19833 0.40523 0.0
H848 H 0.01432 0.32844 0.45045 0.0
H849 H 1.01214 0.34764 0.36003 0.0
H850 H 0.10064 0.2782 0.33149 0.0
C851 C 0.09395 0.21829 0.52286 0.0
C852 C 0.07241 0.21718 0.56494 0.0
C853 C 0.04816 0.24707 0.57065 0.0
C854 C 0.0434 0.27554 0.53277 0.0
C855 C 0.06346 0.27402 0.48981 0.0
C856 C 0.08904 0.24689 0.48543 0.0
C857 C 0.10452 0.24829 0.43328 0.0
C858 C 0.14102 0.262 0.4362 0.0
C859 C 0.10165 0.20831 0.4064 0.0
C860 C 0.08264 0.27897 0.40817 0.0
C861 C 0.05906 0.29352 0.44129 0.0
C862 C 0.03343 0.31835 0.42476 0.0
C863 C 0.03217 0.32887 0.3734 0.0
C864 C 0.05662 0.31497 0.33949 0.0
C865 C 0.08226 0.29006 0.35723 0.0
H866 H 0.58857 0.22569 0.98859 0.0
H867 H 0.48246 0.2216 0.9597 0.0
H868 H 0.47326 0.27093 0.02707 0.0
H869 H 0.58121 0.2164 0.11059 0.0
H870 H 0.61598 0.24648 0.12984 0.0
H871 H 0.6161 0.22391 0.06881 0.0
H872 H 0.62367 0.29153 0.02545 0.0
H873 H 0.62461 0.31453 0.08665 0.0
H874 H 0.59521 0.33105 0.03953 0.0
H875 H 0.47504 0.30902 0.10932 0.0
H876 H 0.48661 0.32955 0.19708 0.0
H877 H 0.59122 0.30101 0.17709 0.0
C878 C 0.56366 0.23734 0.99428 0.0
C879 C 0.53632 0.22118 0.96797 0.0
C880 C 0.50378 0.23495 0.97813 0.0
C881 C 0.49842 0.26266 1.01673 0.0
C882 C 0.52587 0.27576 0.04488 0.0
C883 C 0.55799 0.26366 0.03364 0.0
C884 C 0.58243 0.27475 0.07498 0.0
C885 C 0.59991 0.23822 0.09734 0.0
C886 C 0.60799 0.30477 0.05548 0.0
C887 C 0.55896 0.29324 0.11263 0.0
C888 C 0.52665 0.29486 0.09404 0.0
C889 C 0.50035 0.30847 0.1237 0.0
C890 C 0.50716 0.32004 0.17359 0.0
C891 C 0.53985 0.31683 0.1939 0.0
C892 C 0.56604 0.30393 0.16254 0.0
H893 H 0.09929 0.81835 0.53343 0.0
H894 H 0.04845 0.73698 0.43497 0.0
H895 H 0.05374 0.68498 0.49971 0.0
H896 H 0.15185 0.74481 0.61007 0.0
H897 H 0.1436 0.77231 0.66672 0.0
H898 H 0.14715 0.79745 0.60701 0.0
H899 H 0.08903 0.82877 0.62174 0.0
H900 H 0.08469 0.80293 0.6804 0.0
H901 H 0.05345 0.79736 0.6319 0.0
H902 H 0.05249 0.64727 0.58247 0.0
H903 H 0.04644 0.62767 0.67241 0.0
H904 H 0.0921 0.737 0.71858 0.0
C905 C 0.0914 0.78876 0.52432 0.0
C906 C 0.07487 0.7811 0.47829 0.0
C907 C 0.063 0.74278 0.46856 0.0
C908 C 0.06532 0.7133 0.50579 0.0
C909 C 0.07932 0.72284 0.55259 0.0
C910 C 0.09256 0.75971 0.56163 0.0
C911 C 0.10021 0.76559 0.61714 0.0
C912 C 0.13795 0.7703 0.62573 0.0
C913 C 0.08067 0.8007 0.63901 0.0
C914 C 0.08779 0.72709 0.63846 0.0
C915 C 0.07661 0.70229 0.60072 0.0
C916 C 0.06182 0.66617 0.61208 0.0
C917 C 0.05832 0.65532 0.66309 0.0
C918 C 0.06893 0.68091 0.70183 0.0
C919 C 0.0841 0.71691 0.68932 0.0
H920 H 0.04743 0.43815 0.12091 0.0
H921 H 0.12979 0.38633 0.03971 0.0
H922 H 0.14057 0.45011 0.99741 0.0
H923 H 0.01585 0.48533 0.01942 0.0
H924 H 1.00083 0.52824 0.05199 0.0
H925 H 1.00499 0.48244 0.08529 0.0
H926 H 0.04229 0.51556 0.15097 0.0
H927 H 0.0396 0.56203 0.11878 0.0
H928 H 0.07991 0.54069 0.13221 0.0
H929 H 0.13656 0.5178 0.95476 0.0
H930 H 0.11945 0.58248 0.91984 0.0
H931 H 0.03648 0.58561 0.02412 0.0
C932 C 0.0691 0.44108 0.09681 0.0
C933 C 0.08884 0.4081 0.08525 0.0
C934 C 0.11535 0.4119 0.05046 0.0
C935 C 0.1214 0.44789 0.02597 0.0
C936 C 0.10032 0.47954 0.03623 0.0
C937 C 0.07486 0.47645 0.07133 0.0
C938 C 0.05256 0.51231 0.07033 0.0
C939 C 0.01645 0.5014 0.05588 0.0
C940 C 0.05374 0.53398 0.12108 0.0
C941 C 0.06912 0.53586 0.02901 0.0
C942 C 0.09676 0.5169 1.00983 0.0
C943 C 0.11495 0.53286 0.96972 0.0
C944 C 0.1047 0.56924 0.94925 0.0
C945 C 0.07614 0.58861 0.96816 0.0
C946 C 0.05848 0.57155 1.00871 0.0
H947 H 0.50637 0.58375 0.5196 0.0
H948 H 0.57313 0.56077 0.64537 0.0
H949 H 0.57901 0.49209 0.61807 0.0
H950 H 0.46541 0.4841 0.52362 0.0
H951 H 0.46132 0.48182 0.45595 0.0
H952 H 0.45988 0.52863 0.48754 0.0
H953 H 0.50821 0.55368 0.43094 0.0
H954 H 0.50947 0.50676 0.39986 0.0
H955 H 0.54673 0.52626 0.42877 0.0
H956 H 0.58476 0.43097 0.57203 0.0
H957 H 0.58125 0.37251 0.51889 0.0
H958 H 0.50607 0.42925 0.42525 0.0
C959 C 0.52129 0.56371 0.5421 0.0
C960 C 0.53871 0.57706 0.58534 0.0
C961 C 0.55876 0.55066 0.61326 0.0
C962 C 0.56259 0.51179 0.59762 0.0
C963 C 0.5459 0.49973 0.55422 0.0
C964 C 0.52481 0.52428 0.52752 0.0
C965 C 0.50992 0.50304 0.48219 0.0
C966 C 0.47187 0.49916 0.48766 0.0
C967 C 0.51917 0.5237 0.43252 0.0
C968 C 0.52706 0.46329 0.48675 0.0
C969 C 0.54791 0.46266 0.52845 0.0
C970 C 0.56795 0.43065 0.53999 0.0
C971 C 0.56579 0.39763 0.50936 0.0
C972 C 0.54329 0.39623 0.468 0.0
C973 C 0.52388 0.42973 0.45599 0.0
H974 H 0.54492 0.93972 0.11969 0.0
H975 H 0.61666 0.87971 0.02559 0.0
H976 H 0.62884 0.942 0.98093 0.0
H977 H 0.50991 0.99197 0.02528 0.0
H978 H 0.5018 0.03622 0.06041 0.0
H979 H 0.5044 0.98985 0.09273 0.0
H980 H 0.54972 0.01752 0.15077 0.0
H981 H 0.54876 0.06428 0.11911 0.0
H982 H 0.58759 0.03774 0.12482 0.0
H983 H 0.6265 0.00899 0.93808 0.0
H984 H 0.6118 0.07502 0.90507 0.0
H985 H 0.53956 0.08845 0.02512 0.0
C986 C 0.56471 0.94037 0.09195 0.0
C987 C 0.5808 0.90553 0.07719 0.0
C988 C 0.60482 0.90659 0.03815 0.0
C989 C 0.61177 0.94175 1.01251 0.0
C990 C 0.59431 0.97546 0.02632 0.0
C991 C 0.57156 0.97511 0.06565 0.0
C992 C 0.55283 0.01358 0.0688 0.0
C993 C 0.51502 0.00751 0.06133 0.0
C994 C 0.56024 0.03455 0.11884 0.0
C995 C 0.56801 0.03522 0.02466 0.0
C996 C 0.59205 0.01312 1.00064 0.0
C997 C 0.60787 0.02666 0.95695 0.0
C998 C 0.59895 0.06386 0.93775 0.0
C999 C 0.57413 0.08654 0.96181 0.0
C1000 C 0.55887 0.07193 1.00598 0.0
H1001 H 0.07122 0.08128 0.51724 0.0
H1002 H 0.98979 0.0782 0.62427 0.0
H1003 H 0.97207 0.01398 0.59051 0.0
H1004 H 0.02626 0.03687 0.4108 0.0
H1005 H 0.06375 0.01173 0.3914 0.0
H1006 H 0.06668 0.05814 0.42331 0.0
H1007 H 0.10618 0.02408 0.48881 0.0
H1008 H 0.10153 0.97806 0.45651 0.0
H1009 H 0.09146 0.98147 0.52259 0.0
H1010 H 0.96744 0.94656 0.54924 0.0
H1011 H 0.97709 0.88287 0.50634 0.0
H1012 H 0.05776 0.9346 0.42099 0.0
C1013 C 0.04939 0.06743 0.53348 0.0
C1014 C 0.03235 0.08451 0.57452 0.0
C1015 C 1.00408 0.0652 0.59447 0.0
C1016 C 0.99344 0.02898 0.57466 0.0
C1017 C 1.01098 0.01306 0.53408 0.0
C1018 C 0.0383 0.03192 0.51369 0.0
C1019 C 0.0542 0.00824 0.47211 0.0
C1020 C 0.05254 0.03011 0.42141 0.0
C1021 C 0.09046 -0.00269 0.48586 0.0
C1022 C 0.03176 0.97264 0.47227 0.0
C1023 C 1.00693 0.97579 0.50832 0.0
C1024 C 0.98602 0.94427 0.51983 0.0
C1025 C 0.99145 0.90838 0.49512 0.0
C1026 C 0.01709 0.90474 0.4589 0.0
C1027 C 0.03675 0.9375 0.44638 0.0
loop_
_geom_bond_atom_site_label_1
_geom_bond_atom_site_label_2
_geom_bond_distance
_geom_bond_site_symmetry_2
_ccdc_geom_bond_type
Zn0 N4 2.020 . S
Zn0 O8 2.019 . S
Zn0 N10 2.119 1_455 S
Zn0 O18 1.975 . S
C1 N2 1.334 . S
C1 N5 1.336 . S
N2 C1 1.334 . S
N2 C3 1.334 . S
C3 N2 1.334 . S
C3 N4 1.336 . S
N4 Zn0 2.020 . S
N4 C3 1.336 . S
N4 N5 1.354 . S
N5 C1 1.336 . S
N5 N4 1.354 . S
N5 Zn9 2.020 . S
C6 O7 1.244 . S
C6 O30 1.257 . S
O7 C6 1.244 . S
O8 Zn0 2.019 . S
O8 C28 1.257 . S
Zn9 N5 2.020 . S
Zn9 O16 1.975 . S
Zn9 N25 2.119 . S
Zn9 O30 2.019 . S
N10 Zn0 2.119 1_655 S
N10 C12 1.334 . S
N10 C13 1.328 . S
C11 C12 1.391 . S
C11 N14 1.329 . S
C11 H32 0.930 . S
C12 N10 1.334 . S
C12 C11 1.391 . S
C12 H19 0.930 . S
C13 N10 1.328 . S
C13 C15 1.392 . S
C13 H20 0.930 . S
N14 C11 1.329 . S
N14 C15 1.331 . S
C15 C13 1.392 . S
C15 N14 1.331 . S
O16 Zn9 1.975 . S
O16 C17 1.252 . S
C17 O16 1.252 . S
C17 O18 1.252 . S
O18 Zn0 1.975 . S
O18 C17 1.252 . S
H19 C12 0.930 . S
H20 C13 0.930 . S
C21 C22 1.392 . S
C21 N25 1.328 . S
C21 H27 0.930 . S
C22 C21 1.392 . S
C22 N26 1.331 . S
C23 C24 1.391 . S
C23 N26 1.329 . S
C23 H33 0.930 . S
C24 C23 1.391 . S
C24 N25 1.334 . S
C24 H31 0.930 . S
N25 Zn9 2.119 . S
N25 C21 1.328 . S
N25 C24 1.334 . S
N26 C22 1.331 . S
N26 C23 1.329 . S
H27 C21 0.930 . S
C28 O8 1.257 . S
C28 O29 1.244 . S
O29 C28 1.244 . S
O30 C6 1.257 . S
O30 Zn9 2.019 . S
H31 C24 0.930 . S
H32 C11 0.930 . S
H33 C23 0.930 . S
Zn34 N38 2.020 . S
Zn34 O42 2.019 . S
Zn34 N44 2.119 . S
Zn34 O52 1.975 . S
C35 N36 1.334 . S
C35 N39 1.336 . S
N36 C35 1.334 . S
N36 C37 1.334 . S
C37 N36 1.334 . S
C37 N38 1.336 . S
N38 Zn34 2.020 . S
N38 C37 1.336 . S
N38 N39 1.354 . S
N39 C35 1.336 . S
N39 N38 1.354 . S
N39 Zn43 2.020 . S
C40 O41 1.244 . S
C40 O64 1.257 . S
O41 C40 1.244 . S
O42 Zn34 2.019 . S
O42 C62 1.257 . S
Zn43 N39 2.020 . S
Zn43 O50 1.975 . S
Zn43 N59 2.119 . S
Zn43 O64 2.019 . S
N44 Zn34 2.119 . S
N44 C46 1.334 . S
N44 C47 1.328 . S
C45 C46 1.391 . S
C45 N48 1.329 . S
C45 H66 0.930 . S
C46 N44 1.334 . S
C46 C45 1.391 . S
C46 H53 0.930 . S
C47 N44 1.328 . S
C47 C49 1.392 . S
C47 H54 0.930 . S
N48 C45 1.329 . S
N48 C49 1.331 . S
C49 C47 1.392 . S
C49 N48 1.331 . S
O50 Zn43 1.975 . S
O50 C51 1.252 . S
C51 O50 1.252 . S
C51 O52 1.252 . S
O52 Zn34 1.975 . S
O52 C51 1.252 . S
H53 C46 0.930 . S
H54 C47 0.930 . S
C55 C56 1.392 . S
C55 N59 1.328 . S
C55 H61 0.930 . S
C56 C55 1.392 . S
C56 N60 1.331 . S
C57 C58 1.391 . S
C57 N60 1.329 . S
C57 H67 0.930 . S
C58 C57 1.391 . S
C58 N59 1.334 . S
C58 H65 0.930 . S
N59 Zn43 2.119 . S
N59 C55 1.328 . S
N59 C58 1.334 . S
N60 C56 1.331 . S
N60 C57 1.329 . S
H61 C55 0.930 . S
C62 O42 1.257 . S
C62 O63 1.244 . S
O63 C62 1.244 . S
O64 C40 1.257 . S
O64 Zn43 2.019 . S
H65 C58 0.930 . S
H66 C45 0.930 . S
H67 C57 0.930 . S
Zn68 N72 2.020 . S
Zn68 O76 2.019 . S
Zn68 N78 2.119 1_455 S
Zn68 O86 1.975 . S
C69 N70 1.334 . S
C69 N73 1.336 . S
N70 C69 1.334 . S
N70 C71 1.334 . S
C71 N70 1.334 . S
C71 N72 1.336 . S
N72 Zn68 2.020 . S
N72 C71 1.336 . S
N72 N73 1.354 . S
N73 C69 1.336 . S
N73 N72 1.354 . S
N73 Zn77 2.020 . S
C74 O75 1.244 . S
C74 O98 1.257 . S
O75 C74 1.244 . S
O76 Zn68 2.019 . S
O76 C96 1.257 . S
Zn77 N73 2.020 . S
Zn77 O84 1.975 . S
Zn77 N93 2.119 . S
Zn77 O98 2.019 . S
N78 Zn68 2.119 1_655 S
N78 C80 1.334 . S
N78 C81 1.328 . S
C79 C80 1.391 . S
C79 N82 1.329 . S
C79 H100 0.930 . S
C80 N78 1.334 . S
C80 C79 1.391 . S
C80 H87 0.930 . S
C81 N78 1.328 . S
C81 C83 1.392 . S
C81 H88 0.930 . S
N82 C79 1.329 . S
N82 C83 1.331 . S
C83 C81 1.392 . S
C83 N82 1.331 . S
O84 Zn77 1.975 . S
O84 C85 1.252 . S
C85 O84 1.252 . S
C85 O86 1.252 . S
O86 Zn68 1.975 . S
O86 C85 1.252 . S
H87 C80 0.930 . S
H88 C81 0.930 . S
C89 C90 1.392 . S
C89 N93 1.328 . S
C89 H95 0.930 . S
C90 C89 1.392 . S
C90 N94 1.331 . S
C91 C92 1.391 . S
C91 N94 1.329 . S
C91 H101 0.930 . S
C92 C91 1.391 . S
C92 N93 1.334 . S
C92 H99 0.930 . S
N93 Zn77 2.119 . S
N93 C89 1.328 . S
N93 C92 1.334 . S
N94 C90 1.331 . S
N94 C91 1.329 . S
H95 C89 0.930 . S
C96 O76 1.257 . S
C96 O97 1.244 . S
O97 C96 1.244 . S
O98 C74 1.257 . S
O98 Zn77 2.019 . S
H99 C92 0.930 . S
H100 C79 0.930 . S
H101 C91 0.930 . S
Zn102 N106 2.020 . S
Zn102 O110 2.019 . S
Zn102 N112 2.119 . S
Zn102 O120 1.975 . S
C103 N104 1.334 . S
C103 N107 1.336 . S
N104 C103 1.334 . S
N104 C105 1.334 . S
C105 N104 1.334 . S
C105 N106 1.336 . S
N106 Zn102 2.020 . S
N106 C105 1.336 . S
N106 N107 1.354 . S
N107 C103 1.336 . S
N107 N106 1.354 . S
N107 Zn111 2.020 . S
C108 O109 1.244 . S
C108 O132 1.257 . S
O109 C108 1.244 . S
O110 Zn102 2.019 . S
O110 C130 1.257 . S
Zn111 N107 2.020 . S
Zn111 O118 1.975 . S
Zn111 N127 2.119 . S
Zn111 O132 2.019 . S
N112 Zn102 2.119 . S
N112 C114 1.334 . S
N112 C115 1.328 . S
C113 C114 1.391 . S
C113 N116 1.329 . S
C113 H134 0.930 . S
C114 N112 1.334 . S
C114 C113 1.391 . S
C114 H121 0.930 . S
C115 N112 1.328 . S
C115 C117 1.392 . S
C115 H122 0.930 . S
N116 C113 1.329 . S
N116 C117 1.331 . S
C117 C115 1.392 . S
C117 N116 1.331 . S
O118 Zn111 1.975 . S
O118 C119 1.252 . S
C119 O118 1.252 . S
C119 O120 1.252 . S
O120 Zn102 1.975 . S
O120 C119 1.252 . S
H121 C114 0.930 . S
H122 C115 0.930 . S
C123 C124 1.392 . S
C123 N127 1.328 . S
C123 H129 0.930 . S
C124 C123 1.392 . S
C124 N128 1.331 . S
C125 C126 1.391 . S
C125 N128 1.329 . S
C125 H135 0.930 . S
C126 C125 1.391 . S
C126 N127 1.334 . S
C126 H133 0.930 . S
N127 Zn111 2.119 . S
N127 C123 1.328 . S
N127 C126 1.334 . S
N128 C124 1.331 . S
N128 C125 1.329 . S
H129 C123 0.930 . S
C130 O110 1.257 . S
C130 O131 1.244 . S
O131 C130 1.244 . S
O132 C108 1.257 . S
O132 Zn111 2.019 . S
H133 C126 0.930 . S
H134 C113 0.930 . S
H135 C125 0.930 . S
Zn136 N140 2.020 . S
Zn136 O144 2.019 . S
Zn136 N146 2.119 . S
Zn136 O154 1.975 . S
C137 N138 1.334 . S
C137 N141 1.336 . S
N138 C137 1.334 . S
N138 C139 1.334 . S
C139 N138 1.334 . S
C139 N140 1.336 . S
N140 Zn136 2.020 . S
N140 C139 1.336 . S
N140 N141 1.354 . S
N141 C137 1.336 . S
N141 N140 1.354 . S
N141 Zn145 2.020 . S
C142 O143 1.244 . S
C142 O166 1.257 . S
O143 C142 1.244 . S
O144 Zn136 2.019 . S
O144 C164 1.257 . S
Zn145 N141 2.020 . S
Zn145 O152 1.975 . S
Zn145 N161 2.119 . S
Zn145 O166 2.019 . S
N146 Zn136 2.119 . S
N146 C148 1.334 . S
N146 C149 1.328 . S
C147 C148 1.391 . S
C147 N150 1.329 . S
C147 H168 0.930 . S
C148 N146 1.334 . S
C148 C147 1.391 . S
C148 H155 0.930 . S
C149 N146 1.328 . S
C149 C151 1.392 . S
C149 H156 0.930 . S
N150 C147 1.329 . S
N150 C151 1.331 . S
C151 C149 1.392 . S
C151 N150 1.331 . S
O152 Zn145 1.975 . S
O152 C153 1.252 . S
C153 O152 1.252 . S
C153 O154 1.252 . S
O154 Zn136 1.975 . S
O154 C153 1.252 . S
H155 C148 0.930 . S
H156 C149 0.930 . S
C157 C158 1.392 . S
C157 N161 1.328 . S
C157 H163 0.930 . S
C158 C157 1.392 . S
C158 N162 1.331 . S
C159 C160 1.391 . S
C159 N162 1.329 . S
C159 H169 0.930 . S
C160 C159 1.391 . S
C160 N161 1.334 . S
C160 H167 0.930 . S
N161 Zn145 2.119 . S
N161 C157 1.328 . S
N161 C160 1.334 . S
N162 C158 1.331 . S
N162 C159 1.329 . S
H163 C157 0.930 . S
C164 O144 1.257 . S
C164 O165 1.244 . S
O165 C164 1.244 . S
O166 C142 1.257 . S
O166 Zn145 2.019 . S
H167 C160 0.930 . S
H168 C147 0.930 . S
H169 C159 0.930 . S
Zn170 N174 2.020 . S
Zn170 O178 2.019 1_455 S
Zn170 N180 2.119 1_455 S
Zn170 O188 1.975 . S
C171 N172 1.334 . S
C171 N175 1.336 . S
N172 C171 1.334 . S
N172 C173 1.334 . S
C173 N172 1.334 . S
C173 N174 1.336 . S
N174 Zn170 2.020 . S
N174 C173 1.336 . S
N174 N175 1.354 . S
N175 C171 1.336 . S
N175 N174 1.354 . S
N175 Zn179 2.020 . S
C176 O177 1.244 . S
C176 O200 1.257 . S
O177 C176 1.244 . S
O178 Zn170 2.019 1_655 S
O178 C198 1.257 1_655 S
Zn179 N175 2.020 . S
Zn179 O186 1.975 . S
Zn179 N195 2.119 . S
Zn179 O200 2.019 . S
N180 Zn170 2.119 1_655 S
N180 C182 1.334 . S
N180 C183 1.328 . S
C181 C182 1.391 . S
C181 N184 1.329 . S
C181 H202 0.930 . S
C182 N180 1.334 . S
C182 C181 1.391 . S
C182 H189 0.930 . S
C183 N180 1.328 . S
C183 C185 1.392 . S
C183 H190 0.930 . S
N184 C181 1.329 . S
N184 C185 1.331 . S
C185 C183 1.392 . S
C185 N184 1.331 . S
O186 Zn179 1.975 . S
O186 C187 1.252 . S
C187 O186 1.252 . S
C187 O188 1.252 . S
O188 Zn170 1.975 . S
O188 C187 1.252 . S
H189 C182 0.930 . S
H190 C183 0.930 . S
C191 C192 1.392 . S
C191 N195 1.328 . S
C191 H197 0.930 . S
C192 C191 1.392 . S
C192 N196 1.331 . S
C193 C194 1.391 . S
C193 N196 1.329 . S
C193 H203 0.930 . S
C194 C193 1.391 . S
C194 N195 1.334 . S
C194 H201 0.930 . S
N195 Zn179 2.119 . S
N195 C191 1.328 . S
N195 C194 1.334 . S
N196 C192 1.331 . S
N196 C193 1.329 . S
H197 C191 0.930 . S
C198 O178 1.257 1_455 S
C198 O199 1.244 . S
O199 C198 1.244 . S
O200 C176 1.257 . S
O200 Zn179 2.019 . S
H201 C194 0.930 . S
H202 C181 0.930 . S
H203 C193 0.930 . S
Zn204 N208 2.020 . S
Zn204 O212 2.019 . S
Zn204 N214 2.119 . S
Zn204 O222 1.975 . S
C205 N206 1.334 . S
C205 N209 1.336 . S
N206 C205 1.334 . S
N206 C207 1.334 . S
C207 N206 1.334 . S
C207 N208 1.336 . S
N208 Zn204 2.020 . S
N208 C207 1.336 . S
N208 N209 1.354 . S
N209 C205 1.336 . S
N209 N208 1.354 . S
N209 Zn213 2.020 . S
C210 O211 1.244 . S
C210 O234 1.257 . S
O211 C210 1.244 . S
O212 Zn204 2.019 . S
O212 C232 1.257 . S
Zn213 N209 2.020 . S
Zn213 O220 1.975 . S
Zn213 N229 2.119 . S
Zn213 O234 2.019 . S
N214 Zn204 2.119 . S
N214 C216 1.334 . S
N214 C217 1.328 . S
C215 C216 1.391 . S
C215 N218 1.329 . S
C215 H236 0.930 . S
C216 N214 1.334 . S
C216 C215 1.391 . S
C216 H223 0.930 . S
C217 N214 1.328 . S
C217 C219 1.392 . S
C217 H224 0.930 . S
N218 C215 1.329 . S
N218 C219 1.331 . S
C219 C217 1.392 . S
C219 N218 1.331 . S
O220 Zn213 1.975 . S
O220 C221 1.252 . S
C221 O220 1.252 . S
C221 O222 1.252 . S
O222 Zn204 1.975 . S
O222 C221 1.252 . S
H223 C216 0.930 . S
H224 C217 0.930 . S
C225 C226 1.392 . S
C225 N229 1.328 . S
C225 H231 0.930 . S
C226 C225 1.392 . S
C226 N230 1.331 . S
C227 C228 1.391 . S
C227 N230 1.329 . S
C227 H237 0.930 . S
C228 C227 1.391 . S
C228 N229 1.334 . S
C228 H235 0.930 . S
N229 Zn213 2.119 . S
N229 C225 1.328 . S
N229 C228 1.334 . S
N230 C226 1.331 . S
N230 C227 1.329 . S
H231 C225 0.930 . S
C232 O212 1.257 . S
C232 O233 1.244 . S
O233 C232 1.244 . S
O234 C210 1.257 . S
O234 Zn213 2.019 . S
H235 C228 0.930 . S
H236 C215 0.930 . S
H237 C227 0.930 . S
Zn238 N242 2.020 . S
Zn238 O246 2.019 . S
Zn238 N248 2.119 . S
Zn238 O256 1.975 . S
C239 N240 1.334 . S
C239 N243 1.336 . S
N240 C239 1.334 . S
N240 C241 1.334 . S
C241 N240 1.334 . S
C241 N242 1.336 . S
N242 Zn238 2.020 . S
N242 C241 1.336 . S
N242 N243 1.354 . S
N243 C239 1.336 . S
N243 N242 1.354 . S
N243 Zn247 2.020 . S
C244 O245 1.244 . S
C244 O268 1.257 1_455 S
O245 C244 1.244 . S
O246 Zn238 2.019 . S
O246 C266 1.257 . S
Zn247 N243 2.020 . S
Zn247 O254 1.975 . S
Zn247 N263 2.119 1_455 S
Zn247 O268 2.019 1_455 S
N248 Zn238 2.119 . S
N248 C250 1.334 . S
N248 C251 1.328 . S
C249 C250 1.391 . S
C249 N252 1.329 . S
C249 H270 0.930 . S
C250 N248 1.334 . S
C250 C249 1.391 . S
C250 H257 0.930 . S
C251 N248 1.328 . S
C251 C253 1.392 . S
C251 H258 0.930 . S
N252 C249 1.329 . S
N252 C253 1.331 . S
C253 C251 1.392 . S
C253 N252 1.331 . S
O254 Zn247 1.975 . S
O254 C255 1.252 . S
C255 O254 1.252 . S
C255 O256 1.252 . S
O256 Zn238 1.975 . S
O256 C255 1.252 . S
H257 C250 0.930 . S
H258 C251 0.930 . S
C259 C260 1.392 . S
C259 N263 1.328 . S
C259 H265 0.930 . S
C260 C259 1.392 . S
C260 N264 1.331 . S
C261 C262 1.391 . S
C261 N264 1.329 . S
C261 H271 0.930 . S
C262 C261 1.391 . S
C262 N263 1.334 . S
C262 H269 0.930 . S
N263 Zn247 2.119 1_655 S
N263 C259 1.328 . S
N263 C262 1.334 . S
N264 C260 1.331 . S
N264 C261 1.329 . S
H265 C259 0.930 . S
C266 O246 1.257 . S
C266 O267 1.244 . S
O267 C266 1.244 . S
O268 C244 1.257 1_655 S
O268 Zn247 2.019 1_655 S
H269 C262 0.930 . S
H270 C249 0.930 . S
H271 C261 0.930 . S
H272 C284 0.930 . S
H273 C286 0.930 . S
H274 C287 0.930 . S
H275 C291 0.959 . S
H276 C291 0.959 . S
H277 C291 0.961 . S
H278 C292 0.960 . S
H279 C292 0.961 . S
H280 C292 0.959 . S
H281 C295 0.929 . S
H282 C296 0.931 . S
H283 C298 0.930 . S
C284 H272 0.930 . S
C284 C285 1.399 . S
C284 C289 1.399 . S
C285 C284 1.399 . S
C285 C286 1.376 . S
C286 H273 0.930 . S
C286 C285 1.376 . S
C286 C287 1.388 . S
C287 H274 0.930 . S
C287 C286 1.388 . S
C287 C288 1.390 . S
C288 C287 1.390 . S
C288 C289 1.394 . S
C288 C294 1.465 . S
C289 C284 1.399 . S
C289 C288 1.394 . S
C289 C290 1.516 . S
C290 C289 1.516 . S
C290 C291 1.502 . S
C290 C292 1.561 . S
C290 C293 1.526 . S
C291 H275 0.959 . S
C291 H276 0.959 . S
C291 H277 0.961 . S
C291 C290 1.502 . S
C292 H278 0.960 . S
C292 H279 0.961 . S
C292 H280 0.959 . S
C292 C290 1.561 . S
C293 C290 1.526 . S
C293 C294 1.396 . S
C293 C298 1.390 . S
C294 C288 1.465 . S
C294 C293 1.396 . S
C294 C295 1.399 . S
C295 H281 0.929 . S
C295 C294 1.399 . S
C295 C296 1.385 . S
C296 H282 0.931 . S
C296 C295 1.385 . S
C296 C297 1.389 . S
C297 C296 1.389 . S
C297 C298 1.387 . S
C298 H283 0.930 . S
C298 C293 1.390 . S
C298 C297 1.387 . S
H299 C311 0.930 . S
H300 C313 0.930 . S
H301 C314 0.930 . S
H302 C318 0.959 . S
H303 C318 0.959 . S
H304 C318 0.961 . S
H305 C319 0.960 . S
H306 C319 0.961 . S
H307 C319 0.959 . S
H308 C322 0.929 . S
H309 C323 0.931 . S
H310 C325 0.930 . S
C311 H299 0.930 . S
C311 C312 1.399 . S
C311 C316 1.399 . S
C312 C311 1.399 . S
C312 C313 1.376 . S
C313 H300 0.930 . S
C313 C312 1.376 . S
C313 C314 1.388 . S
C314 H301 0.930 . S
C314 C313 1.388 . S
C314 C315 1.390 . S
C315 C314 1.390 . S
C315 C316 1.394 . S
C315 C321 1.465 . S
C316 C311 1.399 . S
C316 C315 1.394 . S
C316 C317 1.516 . S
C317 C316 1.516 . S
C317 C318 1.502 . S
C317 C319 1.561 . S
C317 C320 1.526 . S
C318 H302 0.959 . S
C318 H303 0.959 . S
C318 H304 0.961 . S
C318 C317 1.502 . S
C319 H305 0.960 . S
C319 H306 0.961 . S
C319 H307 0.959 . S
C319 C317 1.561 . S
C320 C317 1.526 . S
C320 C321 1.396 . S
C320 C325 1.390 . S
C321 C315 1.465 . S
C321 C320 1.396 . S
C321 C322 1.399 . S
C322 H308 0.929 . S
C322 C321 1.399 . S
C322 C323 1.385 . S
C323 H309 0.931 . S
C323 C322 1.385 . S
C323 C324 1.389 . S
C324 C323 1.389 . S
C324 C325 1.387 . S
C325 H310 0.930 . S
C325 C320 1.390 . S
C325 C324 1.387 . S
H326 C338 0.930 . S
H327 C340 0.930 . S
H328 C341 0.930 . S
H329 C345 0.959 . S
H330 C345 0.959 . S
H331 C345 0.961 . S
H332 C346 0.960 . S
H333 C346 0.961 . S
H334 C346 0.959 . S
H335 C349 0.929 . S
H336 C350 0.931 . S
H337 C352 0.930 . S
C338 H326 0.930 . S
C338 C339 1.399 . S
C338 C343 1.399 . S
C339 C338 1.399 . S
C339 C340 1.376 . S
C340 H327 0.930 . S
C340 C339 1.376 . S
C340 C341 1.388 . S
C341 H328 0.930 . S
C341 C340 1.388 . S
C341 C342 1.390 . S
C342 C341 1.390 . S
C342 C343 1.394 . S
C342 C348 1.465 . S
C343 C338 1.399 . S
C343 C342 1.394 . S
C343 C344 1.516 . S
C344 C343 1.516 . S
C344 C345 1.502 . S
C344 C346 1.561 . S
C344 C347 1.526 . S
C345 H329 0.959 . S
C345 H330 0.959 . S
C345 H331 0.961 . S
C345 C344 1.502 . S
C346 H332 0.960 . S
C346 H333 0.961 . S
C346 H334 0.959 . S
C346 C344 1.561 . S
C347 C344 1.526 . S
C347 C348 1.396 . S
C347 C352 1.390 . S
C348 C342 1.465 . S
C348 C347 1.396 . S
C348 C349 1.399 . S
C349 H335 0.929 . S
C349 C348 1.399 . S
C349 C350 1.385 . S
C350 H336 0.931 . S
C350 C349 1.385 . S
C350 C351 1.389 . S
C351 C350 1.389 . S
C351 C352 1.387 . S
C352 H337 0.930 . S
C352 C347 1.390 . S
C352 C351 1.387 . S
H353 C365 0.930 . S
H354 C367 0.930 . S
H355 C368 0.930 . S
H356 C372 0.959 . S
H357 C372 0.959 . S
H358 C372 0.961 . S
H359 C373 0.960 . S
H360 C373 0.961 . S
H361 C373 0.959 . S
H362 C376 0.929 . S
H363 C377 0.931 . S
H364 C379 0.930 . S
C365 H353 0.930 . S
C365 C366 1.399 . S
C365 C370 1.399 . S
C366 C365 1.399 . S
C366 C367 1.376 . S
C367 H354 0.930 . S
C367 C366 1.376 . S
C367 C368 1.388 . S
C368 H355 0.930 . S
C368 C367 1.388 . S
C368 C369 1.390 . S
C369 C368 1.390 . S
C369 C370 1.394 . S
C369 C375 1.465 . S
C370 C365 1.399 . S
C370 C369 1.394 . S
C370 C371 1.516 . S
C371 C370 1.516 . S
C371 C372 1.502 . S
C371 C373 1.561 . S
C371 C374 1.526 . S
C372 H356 0.959 . S
C372 H357 0.959 . S
C372 H358 0.961 . S
C372 C371 1.502 . S
C373 H359 0.960 . S
C373 H360 0.961 . S
C373 H361 0.959 . S
C373 C371 1.561 . S
C374 C371 1.526 . S
C374 C375 1.396 . S
C374 C379 1.390 . S
C375 C369 1.465 . S
C375 C374 1.396 . S
C375 C376 1.399 . S
C376 H362 0.929 . S
C376 C375 1.399 . S
C376 C377 1.385 . S
C377 H363 0.931 . S
C377 C376 1.385 . S
C377 C378 1.389 . S
C378 C377 1.389 . S
C378 C379 1.387 . S
C379 H364 0.930 . S
C379 C374 1.390 . S
C379 C378 1.387 . S
H380 C392 0.930 . S
H381 C394 0.930 . S
H382 C395 0.930 . S
H383 C399 0.959 . S
H384 C399 0.959 . S
H385 C399 0.961 . S
H386 C400 0.960 . S
H387 C400 0.961 . S
H388 C400 0.959 . S
H389 C403 0.929 . S
H390 C404 0.931 . S
H391 C406 0.930 . S
C392 H380 0.930 . S
C392 C393 1.399 . S
C392 C397 1.399 . S
C393 C392 1.399 . S
C393 C394 1.376 . S
C394 H381 0.930 . S
C394 C393 1.376 . S
C394 C395 1.388 . S
C395 H382 0.930 . S
C395 C394 1.388 . S
C395 C396 1.390 . S
C396 C395 1.390 . S
C396 C397 1.394 . S
C396 C402 1.465 . S
C397 C392 1.399 . S
C397 C396 1.394 . S
C397 C398 1.516 . S
C398 C397 1.516 . S
C398 C399 1.502 . S
C398 C400 1.561 . S
C398 C401 1.526 . S
C399 H383 0.959 . S
C399 H384 0.959 . S
C399 H385 0.961 . S
C399 C398 1.502 . S
C400 H386 0.960 . S
C400 H387 0.961 . S
C400 H388 0.959 . S
C400 C398 1.561 . S
C401 C398 1.526 . S
C401 C402 1.396 . S
C401 C406 1.390 . S
C402 C396 1.465 . S
C402 C401 1.396 . S
C402 C403 1.399 . S
C403 H389 0.929 . S
C403 C402 1.399 . S
C403 C404 1.385 . S
C404 H390 0.931 . S
C404 C403 1.385 . S
C404 C405 1.389 . S
C405 C404 1.389 . S
C405 C406 1.387 . S
C406 H391 0.930 . S
C406 C401 1.390 . S
C406 C405 1.387 . S
H407 C419 0.930 . S
H408 C421 0.930 . S
H409 C422 0.930 . S
H410 C426 0.959 . S
H411 C426 0.959 . S
H412 C426 0.961 . S
H413 C427 0.960 . S
H414 C427 0.961 . S
H415 C427 0.959 . S
H416 C430 0.929 . S
H417 C431 0.931 . S
H418 C433 0.930 . S
C419 H407 0.930 . S
C419 C420 1.399 . S
C419 C424 1.399 . S
C420 C419 1.399 . S
C420 C421 1.376 . S
C421 H408 0.930 . S
C421 C420 1.376 . S
C421 C422 1.388 . S
C422 H409 0.930 . S
C422 C421 1.388 . S
C422 C423 1.390 . S
C423 C422 1.390 . S
C423 C424 1.394 . S
C423 C429 1.465 . S
C424 C419 1.399 . S
C424 C423 1.394 . S
C424 C425 1.516 . S
C425 C424 1.516 . S
C425 C426 1.502 . S
C425 C427 1.561 . S
C425 C428 1.526 . S
C426 H410 0.959 . S
C426 H411 0.959 . S
C426 H412 0.961 . S
C426 C425 1.502 . S
C427 H413 0.960 . S
C427 H414 0.961 . S
C427 H415 0.959 . S
C427 C425 1.561 . S
C428 C425 1.526 . S
C428 C429 1.396 . S
C428 C433 1.390 . S
C429 C423 1.465 . S
C429 C428 1.396 . S
C429 C430 1.399 . S
C430 H416 0.929 . S
C430 C429 1.399 . S
C430 C431 1.385 . S
C431 H417 0.931 . S
C431 C430 1.385 . S
C431 C432 1.389 . S
C432 C431 1.389 . S
C432 C433 1.387 . S
C433 H418 0.930 . S
C433 C428 1.390 . S
C433 C432 1.387 . S
H434 C446 0.930 . S
H435 C448 0.930 . S
H436 C449 0.930 . S
H437 C453 0.959 . S
H438 C453 0.959 . S
H439 C453 0.961 . S
H440 C454 0.960 . S
H441 C454 0.961 . S
H442 C454 0.959 . S
H443 C457 0.929 . S
H444 C458 0.931 . S
H445 C460 0.930 . S
C446 H434 0.930 . S
C446 C447 1.399 . S
C446 C451 1.399 . S
C447 C446 1.399 . S
C447 C448 1.376 . S
C448 H435 0.930 . S
C448 C447 1.376 . S
C448 C449 1.388 . S
C449 H436 0.930 . S
C449 C448 1.388 . S
C449 C450 1.390 . S
C450 C449 1.390 . S
C450 C451 1.394 . S
C450 C456 1.465 . S
C451 C446 1.399 . S
C451 C450 1.394 . S
C451 C452 1.516 . S
C452 C451 1.516 . S
C452 C453 1.502 . S
C452 C454 1.561 . S
C452 C455 1.526 . S
C453 H437 0.959 . S
C453 H438 0.959 . S
C453 H439 0.961 . S
C453 C452 1.502 . S
C454 H440 0.960 . S
C454 H441 0.961 . S
C454 H442 0.959 . S
C454 C452 1.561 . S
C455 C452 1.526 . S
C455 C456 1.396 . S
C455 C460 1.390 . S
C456 C450 1.465 . S
C456 C455 1.396 . S
C456 C457 1.399 . S
C457 H443 0.929 . S
C457 C456 1.399 . S
C457 C458 1.385 . S
C458 H444 0.931 . S
C458 C457 1.385 . S
C458 C459 1.389 . S
C459 C458 1.389 . S
C459 C460 1.387 . S
C460 H445 0.930 . S
C460 C455 1.390 . S
C460 C459 1.387 . S
H461 C473 0.930 . S
H462 C475 0.930 . S
H463 C476 0.930 . S
H464 C480 0.959 . S
H465 C480 0.959 . S
H466 C480 0.961 . S
H467 C481 0.960 . S
H468 C481 0.961 . S
H469 C481 0.959 . S
H470 C484 0.929 . S
H471 C485 0.931 . S
H472 C487 0.930 . S
C473 H461 0.930 . S
C473 C474 1.399 . S
C473 C478 1.399 . S
C474 C473 1.399 . S
C474 C475 1.376 . S
C475 H462 0.930 . S
C475 C474 1.376 . S
C475 C476 1.388 . S
C476 H463 0.930 . S
C476 C475 1.388 . S
C476 C477 1.390 . S
C477 C476 1.390 . S
C477 C478 1.394 . S
C477 C483 1.465 . S
C478 C473 1.399 . S
C478 C477 1.394 . S
C478 C479 1.516 . S
C479 C478 1.516 . S
C479 C480 1.502 . S
C479 C481 1.561 . S
C479 C482 1.526 . S
C480 H464 0.959 . S
C480 H465 0.959 . S
C480 H466 0.961 . S
C480 C479 1.502 . S
C481 H467 0.960 . S
C481 H468 0.961 . S
C481 H469 0.959 . S
C481 C479 1.561 . S
C482 C479 1.526 . S
C482 C483 1.396 . S
C482 C487 1.390 . S
C483 C477 1.465 . S
C483 C482 1.396 . S
C483 C484 1.399 . S
C484 H470 0.929 . S
C484 C483 1.399 . S
C484 C485 1.385 . S
C485 H471 0.931 . S
C485 C484 1.385 . S
C485 C486 1.389 . S
C486 C485 1.389 . S
C486 C487 1.387 . S
C487 H472 0.930 . S
C487 C482 1.390 . S
C487 C486 1.387 . S
H488 C500 0.930 . S
H489 C502 0.930 . S
H490 C503 0.930 . S
H491 C507 0.959 . S
H492 C507 0.959 . S
H493 C507 0.961 . S
H494 C508 0.960 1_655 S
H495 C508 0.961 . S
H496 C508 0.959 1_655 S
H497 C511 0.929 . S
H498 C512 0.931 . S
H499 C514 0.930 . S
C500 H488 0.930 . S
C500 C501 1.399 . S
C500 C505 1.399 . S
C501 C500 1.399 . S
C501 C502 1.376 . S
C502 H489 0.930 . S
C502 C501 1.376 . S
C502 C503 1.388 . S
C503 H490 0.930 . S
C503 C502 1.388 . S
C503 C504 1.390 . S
C504 C503 1.390 . S
C504 C505 1.394 . S
C504 C510 1.465 . S
C505 C500 1.399 . S
C505 C504 1.394 . S
C505 C506 1.516 . S
C506 C505 1.516 . S
C506 C507 1.502 . S
C506 C508 1.561 . S
C506 C509 1.526 . S
C507 H491 0.959 . S
C507 H492 0.959 . S
C507 H493 0.961 . S
C507 C506 1.502 . S
C508 H494 0.960 1_455 S
C508 H495 0.961 . S
C508 H496 0.959 1_455 S
C508 C506 1.561 . S
C509 C506 1.526 . S
C509 C510 1.396 . S
C509 C514 1.390 . S
C510 C504 1.465 . S
C510 C509 1.396 . S
C510 C511 1.399 . S
C511 H497 0.929 . S
C511 C510 1.399 . S
C511 C512 1.385 . S
C512 H498 0.931 . S
C512 C511 1.385 . S
C512 C513 1.389 . S
C513 C512 1.389 . S
C513 C514 1.387 . S
C514 H499 0.930 . S
C514 C509 1.390 . S
C514 C513 1.387 . S
H515 C527 0.930 . S
H516 C529 0.930 . S
H517 C530 0.930 . S
H518 C534 0.959 . S
H519 C534 0.959 . S
H520 C534 0.961 . S
H521 C535 0.960 . S
H522 C535 0.961 . S
H523 C535 0.959 . S
H524 C538 0.929 . S
H525 C539 0.931 . S
H526 C541 0.930 . S
C527 H515 0.930 . S
C527 C528 1.399 . S
C527 C532 1.399 . S
C528 C527 1.399 . S
C528 C529 1.376 . S
C529 H516 0.930 . S
C529 C528 1.376 . S
C529 C530 1.388 . S
C530 H517 0.930 . S
C530 C529 1.388 . S
C530 C531 1.390 . S
C531 C530 1.390 . S
C531 C532 1.394 . S
C531 C537 1.465 . S
C532 C527 1.399 . S
C532 C531 1.394 . S
C532 C533 1.516 . S
C533 C532 1.516 . S
C533 C534 1.502 . S
C533 C535 1.561 . S
C533 C536 1.526 . S
C534 H518 0.959 . S
C534 H519 0.959 . S
C534 H520 0.961 . S
C534 C533 1.502 . S
C535 H521 0.960 . S
C535 H522 0.961 . S
C535 H523 0.959 . S
C535 C533 1.561 . S
C536 C533 1.526 . S
C536 C537 1.396 . S
C536 C541 1.390 . S
C537 C531 1.465 . S
C537 C536 1.396 . S
C537 C538 1.399 . S
C538 H524 0.929 . S
C538 C537 1.399 . S
C538 C539 1.385 . S
C539 H525 0.931 . S
C539 C538 1.385 . S
C539 C540 1.389 . S
C540 C539 1.389 . S
C540 C541 1.387 . S
C541 H526 0.930 . S
C541 C536 1.390 . S
C541 C540 1.387 . S
H542 C554 0.930 . S
H543 C556 0.930 . S
H544 C557 0.930 . S
H545 C561 0.959 1_655 S
H546 C561 0.959 . S
H547 C561 0.961 . S
H548 C562 0.960 . S
H549 C562 0.961 . S
H550 C562 0.959 . S
H551 C565 0.929 . S
H552 C566 0.931 . S
H553 C568 0.930 . S
C554 H542 0.930 . S
C554 C555 1.399 . S
C554 C559 1.399 . S
C555 C554 1.399 . S
C555 C556 1.376 . S
C556 H543 0.930 . S
C556 C555 1.376 . S
C556 C557 1.388 . S
C557 H544 0.930 . S
C557 C556 1.388 . S
C557 C558 1.390 . S
C558 C557 1.390 . S
C558 C559 1.394 . S
C558 C564 1.465 . S
C559 C554 1.399 . S
C559 C558 1.394 . S
C559 C560 1.516 . S
C560 C559 1.516 . S
C560 C561 1.502 . S
C560 C562 1.561 . S
C560 C563 1.526 . S
C561 H545 0.959 1_455 S
C561 H546 0.959 . S
C561 H547 0.961 . S
C561 C560 1.502 . S
C562 H548 0.960 . S
C562 H549 0.961 . S
C562 H550 0.959 . S
C562 C560 1.561 . S
C563 C560 1.526 . S
C563 C564 1.396 . S
C563 C568 1.390 . S
C564 C558 1.465 . S
C564 C563 1.396 . S
C564 C565 1.399 . S
C565 H551 0.929 . S
C565 C564 1.399 . S
C565 C566 1.385 . S
C566 H552 0.931 . S
C566 C565 1.385 . S
C566 C567 1.389 . S
C567 C566 1.389 . S
C567 C568 1.387 . S
C568 H553 0.930 . S
C568 C563 1.390 . S
C568 C567 1.387 . S
H569 C581 0.930 . S
H570 C583 0.930 . S
H571 C584 0.930 . S
H572 C588 0.959 . S
H573 C588 0.959 . S
H574 C588 0.961 . S
H575 C589 0.960 . S
H576 C589 0.961 . S
H577 C589 0.959 . S
H578 C592 0.929 . S
H579 C593 0.931 . S
H580 C595 0.930 . S
C581 H569 0.930 . S
C581 C582 1.399 . S
C581 C586 1.399 . S
C582 C581 1.399 . S
C582 C583 1.376 . S
C583 H570 0.930 . S
C583 C582 1.376 . S
C583 C584 1.388 . S
C584 H571 0.930 . S
C584 C583 1.388 . S
C584 C585 1.390 . S
C585 C584 1.390 . S
C585 C586 1.394 . S
C585 C591 1.465 . S
C586 C581 1.399 . S
C586 C585 1.394 . S
C586 C587 1.516 . S
C587 C586 1.516 . S
C587 C588 1.502 . S
C587 C589 1.561 . S
C587 C590 1.526 . S
C588 H572 0.959 . S
C588 H573 0.959 . S
C588 H574 0.961 . S
C588 C587 1.502 . S
C589 H575 0.960 . S
C589 H576 0.961 . S
C589 H577 0.959 . S
C589 C587 1.561 . S
C590 C587 1.526 . S
C590 C591 1.396 . S
C590 C595 1.390 . S
C591 C585 1.465 . S
C591 C590 1.396 . S
C591 C592 1.399 . S
C592 H578 0.929 . S
C592 C591 1.399 . S
C592 C593 1.385 . S
C593 H579 0.931 . S
C593 C592 1.385 . S
C593 C594 1.389 . S
C594 C593 1.389 . S
C594 C595 1.387 . S
C595 H580 0.930 . S
C595 C590 1.390 . S
C595 C594 1.387 . S
H596 C608 0.930 . S
H597 C610 0.930 . S
H598 C611 0.930 . S
H599 C615 0.959 . S
H600 C615 0.959 . S
H601 C615 0.961 . S
H602 C616 0.960 . S
H603 C616 0.961 . S
H604 C616 0.959 . S
H605 C619 0.929 . S
H606 C620 0.931 . S
H607 C622 0.930 . S
C608 H596 0.930 . S
C608 C609 1.399 1_545 S
C608 C613 1.399 . S
C609 C608 1.399 1_565 S
C609 C610 1.376 . S
C610 H597 0.930 . S
C610 C609 1.376 . S
C610 C611 1.388 1_565 S
C611 H598 0.930 . S
C611 C610 1.388 1_545 S
C611 C612 1.390 . S
C612 C611 1.390 . S
C612 C613 1.394 . S
C612 C618 1.465 . S
C613 C608 1.399 . S
C613 C612 1.394 . S
C613 C614 1.516 . S
C614 C613 1.516 . S
C614 C615 1.502 . S
C614 C616 1.561 . S
C614 C617 1.526 . S
C615 H599 0.959 . S
C615 H600 0.959 . S
C615 H601 0.961 . S
C615 C614 1.502 . S
C616 H602 0.960 . S
C616 H603 0.961 . S
C616 H604 0.959 . S
C616 C614 1.561 . S
C617 C614 1.526 . S
C617 C618 1.396 . S
C617 C622 1.390 . S
C618 C612 1.465 . S
C618 C617 1.396 . S
C618 C619 1.399 . S
C619 H605 0.929 . S
C619 C618 1.399 . S
C619 C620 1.385 . S
C620 H606 0.931 . S
C620 C619 1.385 . S
C620 C621 1.389 . S
C621 C620 1.389 . S
C621 C622 1.387 . S
C622 H607 0.930 . S
C622 C617 1.390 . S
C622 C621 1.387 . S
H623 C635 0.930 . S
H624 C637 0.930 . S
H625 C638 0.930 . S
H626 C642 0.959 . S
H627 C642 0.959 . S
H628 C642 0.961 . S
H629 C643 0.957 1_455 S
H630 C643 0.961 . S
H631 C643 0.959 . S
H632 C646 0.929 1_655 S
H633 C647 0.931 1_655 S
H634 C649 0.930 . S
C635 H623 0.930 . S
C635 C636 1.399 . S
C635 C640 1.399 . S
C636 C635 1.399 . S
C636 C637 1.376 . S
C637 H624 0.930 . S
C637 C636 1.376 . S
C637 C638 1.388 . S
C638 H625 0.930 . S
C638 C637 1.388 . S
C638 C639 1.390 . S
C639 C638 1.390 . S
C639 C640 1.394 . S
C639 C645 1.465 . S
C640 C635 1.399 . S
C640 C639 1.394 . S
C640 C641 1.516 . S
C641 C640 1.516 . S
C641 C642 1.502 . S
C641 C643 1.561 1_455 S
C641 C644 1.526 . S
C642 H626 0.959 . S
C642 H627 0.959 . S
C642 H628 0.961 . S
C642 C641 1.502 . S
C643 H629 0.957 1_655 S
C643 H630 0.961 . S
C643 H631 0.959 . S
C643 C641 1.561 1_655 S
C644 C641 1.526 . S
C644 C645 1.396 . S
C644 C649 1.390 . S
C645 C639 1.465 . S
C645 C644 1.396 . S
C645 C646 1.399 . S
C646 H632 0.929 1_455 S
C646 C645 1.399 . S
C646 C647 1.385 1_565 S
C647 H633 0.931 1_455 S
C647 C646 1.385 1_545 S
C647 C648 1.389 . S
C648 C647 1.389 . S
C648 C649 1.387 1_545 S
C649 H634 0.930 . S
C649 C644 1.390 . S
C649 C648 1.387 1_565 S
H650 C662 0.930 . S
H651 C664 0.930 . S
H652 C665 0.930 . S
H653 C669 0.959 . S
H654 C669 0.959 . S
H655 C669 0.961 . S
H656 C670 0.960 . S
H657 C670 0.961 . S
H658 C670 0.959 . S
H659 C673 0.929 . S
H660 C674 0.931 . S
H661 C676 0.930 . S
C662 H650 0.930 . S
C662 C663 1.399 . S
C662 C667 1.399 . S
C663 C662 1.399 . S
C663 C664 1.376 . S
C664 H651 0.930 . S
C664 C663 1.376 . S
C664 C665 1.388 . S
C665 H652 0.930 . S
C665 C664 1.388 . S
C665 C666 1.390 . S
C666 C665 1.390 . S
C666 C667 1.394 . S
C666 C672 1.465 . S
C667 C662 1.399 . S
C667 C666 1.394 . S
C667 C668 1.516 . S
C668 C667 1.516 . S
C668 C669 1.502 . S
C668 C670 1.561 . S
C668 C671 1.526 . S
C669 H653 0.959 . S
C669 H654 0.959 . S
C669 H655 0.961 . S
C669 C668 1.502 . S
C670 H656 0.960 . S
C670 H657 0.961 . S
C670 H658 0.959 . S
C670 C668 1.561 . S
C671 C668 1.526 . S
C671 C672 1.396 . S
C671 C676 1.390 . S
C672 C666 1.465 . S
C672 C671 1.396 . S
C672 C673 1.399 . S
C673 H659 0.929 . S
C673 C672 1.399 . S
C673 C674 1.385 1_565 S
C674 H660 0.931 . S
C674 C673 1.385 1_545 S
C674 C675 1.389 . S
C675 C674 1.389 . S
C675 C676 1.387 1_545 S
C676 H661 0.930 . S
C676 C671 1.390 . S
C676 C675 1.387 1_565 S
H677 C689 0.930 . S
H678 C691 0.930 . S
H679 C692 0.930 . S
H680 C696 0.959 . S
H681 C696 0.959 . S
H682 C696 0.961 . S
H683 C697 0.960 . S
H684 C697 0.961 . S
H685 C697 0.959 . S
H686 C700 0.929 . S
H687 C701 0.931 . S
H688 C703 0.923 1_565 S
C689 H677 0.930 . S
C689 C690 1.399 . S
C689 C694 1.399 . S
C690 C689 1.399 . S
C690 C691 1.376 1_455 S
C691 H678 0.930 . S
C691 C690 1.376 1_655 S
C691 C692 1.388 . S
C692 H679 0.930 . S
C692 C691 1.388 . S
C692 C693 1.390 1_655 S
C693 C692 1.390 1_455 S
C693 C694 1.394 . S
C693 C699 1.465 . S
C694 C689 1.399 . S
C694 C693 1.394 . S
C694 C695 1.516 . S
C695 C694 1.516 . S
C695 C696 1.502 . S
C695 C697 1.561 . S
C695 C698 1.526 . S
C696 H680 0.959 . S
C696 H681 0.959 . S
C696 H682 0.961 . S
C696 C695 1.502 . S
C697 H683 0.960 . S
C697 H684 0.961 . S
C697 H685 0.959 . S
C697 C695 1.561 . S
C698 C695 1.526 . S
C698 C699 1.396 . S
C698 C703 1.390 . S
C699 C693 1.465 . S
C699 C698 1.396 . S
C699 C700 1.399 1_455 S
C700 H686 0.929 . S
C700 C699 1.399 1_655 S
C700 C701 1.385 1_545 S
C701 H687 0.931 . S
C701 C700 1.385 1_565 S
C701 C702 1.389 1_655 S
C702 C701 1.389 1_455 S
C702 C703 1.387 1_565 S
C703 H688 0.923 1_545 S
C703 C698 1.390 . S
C703 C702 1.387 1_545 S
H704 C716 0.930 1_655 S
H705 C718 0.930 . S
H706 C719 0.930 . S
H707 C723 0.959 . S
H708 C723 0.959 . S
H709 C723 0.961 . S
H710 C724 0.960 . S
H711 C724 0.961 . S
H712 C724 0.959 . S
H713 C727 0.929 . S
H714 C728 0.931 . S
H715 C730 0.930 . S
C716 H704 0.930 1_455 S
C716 C717 1.399 . S
C716 C721 1.399 1_554 S
C717 C716 1.399 . S
C717 C718 1.376 . S
C718 H705 0.930 . S
C718 C717 1.376 . S
C718 C719 1.388 . S
C719 H706 0.930 . S
C719 C718 1.388 . S
C719 C720 1.390 1_554 S
C720 C719 1.390 1_556 S
C720 C721 1.394 . S
C720 C726 1.465 . S
C721 C716 1.399 1_556 S
C721 C720 1.394 . S
C721 C722 1.516 . S
C722 C721 1.516 . S
C722 C723 1.502 1_455 S
C722 C724 1.561 . S
C722 C725 1.526 . S
C723 H707 0.959 . S
C723 H708 0.959 . S
C723 H709 0.961 . S
C723 C722 1.502 1_655 S
C724 H710 0.960 . S
C724 H711 0.961 . S
C724 H712 0.959 . S
C724 C722 1.561 . S
C725 C722 1.526 . S
C725 C726 1.396 . S
C725 C730 1.390 . S
C726 C720 1.465 . S
C726 C725 1.396 . S
C726 C727 1.399 . S
C727 H713 0.929 . S
C727 C726 1.399 . S
C727 C728 1.385 . S
C728 H714 0.931 . S
C728 C727 1.385 . S
C728 C729 1.389 . S
C729 C728 1.389 . S
C729 C730 1.387 . S
C730 H715 0.930 . S
C730 C725 1.390 . S
C730 C729 1.387 . S
H731 C743 0.930 . S
H732 C745 0.930 . S
H733 C746 0.930 . S
H734 C750 0.959 . S
H735 C750 0.959 . S
H736 C750 0.961 . S
H737 C751 0.960 . S
H738 C751 0.961 . S
H739 C751 0.959 . S
H740 C754 0.929 . S
H741 C755 0.931 . S
H742 C757 0.930 . S
C743 H731 0.930 . S
C743 C744 1.399 . S
C743 C748 1.399 . S
C744 C743 1.399 . S
C744 C745 1.376 . S
C745 H732 0.930 . S
C745 C744 1.376 . S
C745 C746 1.388 . S
C746 H733 0.930 . S
C746 C745 1.388 . S
C746 C747 1.390 . S
C747 C746 1.390 . S
C747 C748 1.394 . S
C747 C753 1.465 . S
C748 C743 1.399 . S
C748 C747 1.394 . S
C748 C749 1.516 . S
C749 C748 1.516 . S
C749 C750 1.502 . S
C749 C751 1.561 . S
C749 C752 1.526 . S
C750 H734 0.959 . S
C750 H735 0.959 . S
C750 H736 0.961 . S
C750 C749 1.502 . S
C751 H737 0.960 . S
C751 H738 0.961 . S
C751 H739 0.959 . S
C751 C749 1.561 . S
C752 C749 1.526 . S
C752 C753 1.396 . S
C752 C757 1.390 . S
C753 C747 1.465 . S
C753 C752 1.396 . S
C753 C754 1.399 . S
C754 H740 0.929 . S
C754 C753 1.399 . S
C754 C755 1.385 . S
C755 H741 0.931 . S
C755 C754 1.385 . S
C755 C756 1.389 . S
C756 C755 1.389 . S
C756 C757 1.387 . S
C757 H742 0.930 . S
C757 C752 1.390 . S
C757 C756 1.387 . S
H758 C770 0.930 . S
H759 C772 0.930 . S
H760 C773 0.930 . S
H761 C777 0.959 . S
H762 C777 0.959 . S
H763 C777 0.961 . S
H764 C778 0.960 . S
H765 C778 0.961 . S
H766 C778 0.959 . S
H767 C781 0.929 . S
H768 C782 0.931 . S
H769 C784 0.930 . S
C770 H758 0.930 . S
C770 C771 1.399 . S
C770 C775 1.399 . S
C771 C770 1.399 . S
C771 C772 1.376 1_455 S
C772 H759 0.930 . S
C772 C771 1.376 1_655 S
C772 C773 1.388 . S
C773 H760 0.930 . S
C773 C772 1.388 . S
C773 C774 1.390 1_655 S
C774 C773 1.390 1_455 S
C774 C775 1.394 . S
C774 C780 1.465 . S
C775 C770 1.399 . S
C775 C774 1.394 . S
C775 C776 1.516 . S
C776 C775 1.516 . S
C776 C777 1.502 . S
C776 C778 1.561 . S
C776 C779 1.526 . S
C777 H761 0.959 . S
C777 H762 0.959 . S
C777 H763 0.961 . S
C777 C776 1.502 . S
C778 H764 0.960 . S
C778 H765 0.961 . S
C778 H766 0.959 . S
C778 C776 1.561 . S
C779 C776 1.526 . S
C779 C780 1.396 . S
C779 C784 1.390 1_554 S
C780 C774 1.465 . S
C780 C779 1.396 . S
C780 C781 1.399 1_454 S
C781 H767 0.929 . S
C781 C780 1.399 1_656 S
C781 C782 1.385 . S
C782 H768 0.931 . S
C782 C781 1.385 . S
C782 C783 1.389 1_655 S
C783 C782 1.389 1_455 S
C783 C784 1.387 . S
C784 H769 0.930 . S
C784 C779 1.390 1_556 S
C784 C783 1.387 . S
H785 C797 0.930 . S
H786 C799 0.930 . S
H787 C800 0.930 . S
H788 C804 0.959 . S
H789 C804 0.959 . S
H790 C804 0.961 . S
H791 C805 0.960 . S
H792 C805 0.961 . S
H793 C805 0.959 . S
H794 C808 0.929 . S
H795 C809 0.931 . S
H796 C811 0.930 . S
C797 H785 0.930 . S
C797 C798 1.399 . S
C797 C802 1.399 . S
C798 C797 1.399 . S
C798 C799 1.376 . S
C799 H786 0.930 . S
C799 C798 1.376 . S
C799 C800 1.388 . S
C800 H787 0.930 . S
C800 C799 1.388 . S
C800 C801 1.390 . S
C801 C800 1.390 . S
C801 C802 1.394 . S
C801 C807 1.465 . S
C802 C797 1.399 . S
C802 C801 1.394 . S
C802 C803 1.516 . S
C803 C802 1.516 . S
C803 C804 1.502 . S
C803 C805 1.561 . S
C803 C806 1.526 . S
C804 H788 0.959 . S
C804 H789 0.959 . S
C804 H790 0.961 . S
C804 C803 1.502 . S
C805 H791 0.960 . S
C805 H792 0.961 . S
C805 H793 0.959 . S
C805 C803 1.561 . S
C806 C803 1.526 . S
C806 C807 1.396 . S
C806 C811 1.390 . S
C807 C801 1.465 . S
C807 C806 1.396 . S
C807 C808 1.399 . S
C808 H794 0.929 . S
C808 C807 1.399 . S
C808 C809 1.385 . S
C809 H795 0.931 . S
C809 C808 1.385 . S
C809 C810 1.389 . S
C810 C809 1.389 . S
C810 C811 1.387 . S
C811 H796 0.930 . S
C811 C806 1.390 . S
C811 C810 1.387 . S
H812 C824 0.930 . S
H813 C826 0.930 . S
H814 C827 0.930 . S
H815 C831 0.959 . S
H816 C831 0.959 . S
H817 C831 0.961 1_554 S
H818 C832 0.960 1_554 S
H819 C832 0.961 . S
H820 C832 0.959 . S
H821 C835 0.929 . S
H822 C836 0.931 . S
H823 C838 0.930 . S
C824 H812 0.930 . S
C824 C825 1.399 . S
C824 C829 1.399 1_554 S
C825 C824 1.399 . S
C825 C826 1.376 . S
C826 H813 0.930 . S
C826 C825 1.376 . S
C826 C827 1.388 1_554 S
C827 H814 0.930 . S
C827 C826 1.388 1_556 S
C827 C828 1.390 . S
C828 C827 1.390 . S
C828 C829 1.394 . S
C828 C834 1.465 . S
C829 C824 1.399 1_556 S
C829 C828 1.394 . S
C829 C830 1.516 . S
C830 C829 1.516 . S
C830 C831 1.502 . S
C830 C832 1.561 . S
C830 C833 1.526 . S
C831 H815 0.959 . S
C831 H816 0.959 . S
C831 H817 0.961 1_556 S
C831 C830 1.502 . S
C832 H818 0.960 1_556 S
C832 H819 0.961 . S
C832 H820 0.959 . S
C832 C830 1.561 . S
C833 C830 1.526 . S
C833 C834 1.396 . S
C833 C838 1.390 . S
C834 C828 1.465 . S
C834 C833 1.396 . S
C834 C835 1.399 . S
C835 H821 0.929 . S
C835 C834 1.399 . S
C835 C836 1.385 . S
C836 H822 0.931 . S
C836 C835 1.385 . S
C836 C837 1.389 . S
C837 C836 1.389 . S
C837 C838 1.387 . S
C838 H823 0.930 . S
C838 C833 1.390 . S
C838 C837 1.387 . S
H839 C851 0.930 . S
H840 C853 0.930 . S
H841 C854 0.930 . S
H842 C858 0.959 . S
H843 C858 0.959 . S
H844 C858 0.961 . S
H845 C859 0.960 . S
H846 C859 0.961 . S
H847 C859 0.959 . S
H848 C862 0.929 . S
H849 C863 0.931 . S
H850 C865 0.930 . S
C851 H839 0.930 . S
C851 C852 1.399 . S
C851 C856 1.399 . S
C852 C851 1.399 . S
C852 C853 1.376 . S
C853 H840 0.930 . S
C853 C852 1.376 . S
C853 C854 1.388 . S
C854 H841 0.930 . S
C854 C853 1.388 . S
C854 C855 1.390 . S
C855 C854 1.390 . S
C855 C856 1.394 . S
C855 C861 1.465 . S
C856 C851 1.399 . S
C856 C855 1.394 . S
C856 C857 1.516 . S
C857 C856 1.516 . S
C857 C858 1.502 . S
C857 C859 1.561 . S
C857 C860 1.526 . S
C858 H842 0.959 . S
C858 H843 0.959 . S
C858 H844 0.961 . S
C858 C857 1.502 . S
C859 H845 0.960 . S
C859 H846 0.961 . S
C859 H847 0.959 . S
C859 C857 1.561 . S
C860 C857 1.526 . S
C860 C861 1.396 . S
C860 C865 1.390 . S
C861 C855 1.465 . S
C861 C860 1.396 . S
C861 C862 1.399 . S
C862 H848 0.929 . S
C862 C861 1.399 . S
C862 C863 1.385 . S
C863 H849 0.931 . S
C863 C862 1.385 . S
C863 C864 1.389 . S
C864 C863 1.389 . S
C864 C865 1.387 . S
C865 H850 0.930 . S
C865 C860 1.390 . S
C865 C864 1.387 . S
H866 C878 0.930 . S
H867 C880 0.930 . S
H868 C881 0.930 . S
H869 C885 0.959 . S
H870 C885 0.959 . S
H871 C885 0.961 1_556 S
H872 C886 0.960 1_556 S
H873 C886 0.961 . S
H874 C886 0.959 . S
H875 C889 0.929 . S
H876 C890 0.931 . S
H877 C892 0.930 . S
C878 H866 0.930 . S
C878 C879 1.399 . S
C878 C883 1.383 1_556 S
C879 C878 1.399 . S
C879 C880 1.376 . S
C880 H867 0.930 . S
C880 C879 1.376 . S
C880 C881 1.388 1_556 S
C881 H868 0.930 . S
C881 C880 1.388 1_554 S
C881 C882 1.390 . S
C882 C881 1.390 . S
C882 C883 1.405 . S
C882 C888 1.465 . S
C883 C878 1.383 1_554 S
C883 C882 1.405 . S
C883 C884 1.523 . S
C884 C883 1.523 . S
C884 C885 1.502 . S
C884 C886 1.561 . S
C884 C887 1.526 . S
C885 H869 0.959 . S
C885 H870 0.959 . S
C885 H871 0.961 1_554 S
C885 C884 1.502 . S
C886 H872 0.960 1_554 S
C886 H873 0.961 . S
C886 H874 0.959 . S
C886 C884 1.561 . S
C887 C884 1.526 . S
C887 C888 1.396 . S
C887 C892 1.390 . S
C888 C882 1.465 . S
C888 C887 1.396 . S
C888 C889 1.399 . S
C889 H875 0.929 . S
C889 C888 1.399 . S
C889 C890 1.385 . S
C890 H876 0.931 . S
C890 C889 1.385 . S
C890 C891 1.389 . S
C891 C890 1.389 . S
C891 C892 1.387 . S
C892 H877 0.930 . S
C892 C887 1.390 . S
C892 C891 1.387 . S
H893 C905 0.930 . S
H894 C907 0.930 . S
H895 C908 0.930 . S
H896 C912 0.959 . S
H897 C912 0.959 . S
H898 C912 0.961 . S
H899 C913 0.960 . S
H900 C913 0.961 . S
H901 C913 0.959 . S
H902 C916 0.929 . S
H903 C917 0.931 . S
H904 C919 0.930 . S
C905 H893 0.930 . S
C905 C906 1.399 . S
C905 C910 1.399 . S
C906 C905 1.399 . S
C906 C907 1.376 . S
C907 H894 0.930 . S
C907 C906 1.376 . S
C907 C908 1.388 . S
C908 H895 0.930 . S
C908 C907 1.388 . S
C908 C909 1.390 . S
C909 C908 1.390 . S
C909 C910 1.394 . S
C909 C915 1.465 . S
C910 C905 1.399 . S
C910 C909 1.394 . S
C910 C911 1.516 . S
C911 C910 1.516 . S
C911 C912 1.502 . S
C911 C913 1.561 . S
C911 C914 1.526 . S
C912 H896 0.959 . S
C912 H897 0.959 . S
C912 H898 0.961 . S
C912 C911 1.502 . S
C913 H899 0.960 . S
C913 H900 0.961 . S
C913 H901 0.959 . S
C913 C911 1.561 . S
C914 C911 1.526 . S
C914 C915 1.396 . S
C914 C919 1.390 . S
C915 C909 1.465 . S
C915 C914 1.396 . S
C915 C916 1.399 . S
C916 H902 0.929 . S
C916 C915 1.399 . S
C916 C917 1.385 . S
C917 H903 0.931 . S
C917 C916 1.385 . S
C917 C918 1.389 . S
C918 C917 1.389 . S
C918 C919 1.387 . S
C919 H904 0.930 . S
C919 C914 1.390 . S
C919 C918 1.387 . S
H920 C932 0.930 . S
H921 C934 0.930 . S
H922 C935 0.930 . S
H923 C939 0.956 1_455 S
H924 C939 0.969 . S
H925 C939 0.970 1_554 S
H926 C940 0.960 . S
H927 C940 0.961 . S
H928 C940 0.959 . S
H929 C943 0.929 . S
H930 C944 0.931 . S
H931 C946 0.930 . S
C932 H920 0.930 . S
C932 C933 1.399 . S
C932 C937 1.399 . S
C933 C932 1.399 . S
C933 C934 1.376 . S
C934 H921 0.930 . S
C934 C933 1.376 . S
C934 C935 1.388 . S
C935 H922 0.930 . S
C935 C934 1.388 . S
C935 C936 1.390 . S
C936 C935 1.390 . S
C936 C937 1.394 . S
C936 C942 1.465 1_554 S
C937 C932 1.399 . S
C937 C936 1.394 . S
C937 C938 1.516 . S
C938 C937 1.516 . S
C938 C939 1.487 1_454 S
C938 C940 1.561 . S
C938 C941 1.526 1_554 S
C939 H923 0.956 1_655 S
C939 H924 0.969 . S
C939 H925 0.970 1_556 S
C939 C938 1.487 1_656 S
C940 H926 0.960 . S
C940 H927 0.961 . S
C940 H928 0.959 . S
C940 C938 1.561 . S
C941 C938 1.526 1_556 S
C941 C942 1.396 . S
C941 C946 1.390 . S
C942 C936 1.465 1_556 S
C942 C941 1.396 . S
C942 C943 1.399 . S
C943 H929 0.929 . S
C943 C942 1.399 . S
C943 C944 1.385 . S
C944 H930 0.931 . S
C944 C943 1.385 . S
C944 C945 1.389 . S
C945 C944 1.389 . S
C945 C946 1.387 . S
C946 H931 0.930 . S
C946 C941 1.390 . S
C946 C945 1.387 . S
H947 C959 0.930 . S
H948 C961 0.930 . S
H949 C962 0.930 . S
H950 C966 0.959 . S
H951 C966 0.959 . S
H952 C966 0.961 . S
H953 C967 0.960 . S
H954 C967 0.961 . S
H955 C967 0.959 . S
H956 C970 0.929 . S
H957 C971 0.931 . S
H958 C973 0.930 . S
C959 H947 0.930 . S
C959 C960 1.399 . S
C959 C964 1.399 . S
C960 C959 1.399 . S
C960 C961 1.376 . S
C961 H948 0.930 . S
C961 C960 1.376 . S
C961 C962 1.388 . S
C962 H949 0.930 . S
C962 C961 1.388 . S
C962 C963 1.390 . S
C963 C962 1.390 . S
C963 C964 1.394 . S
C963 C969 1.465 . S
C964 C959 1.399 . S
C964 C963 1.394 . S
C964 C965 1.516 . S
C965 C964 1.516 . S
C965 C966 1.502 . S
C965 C967 1.561 . S
C965 C968 1.526 . S
C966 H950 0.959 . S
C966 H951 0.959 . S
C966 H952 0.961 . S
C966 C965 1.502 . S
C967 H953 0.960 . S
C967 H954 0.961 . S
C967 H955 0.959 . S
C967 C965 1.561 . S
C968 C965 1.526 . S
C968 C969 1.396 . S
C968 C973 1.390 . S
C969 C963 1.465 . S
C969 C968 1.396 . S
C969 C970 1.399 . S
C970 H956 0.929 . S
C970 C969 1.399 . S
C970 C971 1.385 . S
C971 H957 0.931 . S
C971 C970 1.385 . S
C971 C972 1.389 . S
C972 C971 1.389 . S
C972 C973 1.387 . S
C973 H958 0.930 . S
C973 C968 1.390 . S
C973 C972 1.387 . S
H974 C986 0.930 . S
H975 C988 0.930 . S
H976 C989 0.930 . S
H977 C993 0.959 . S
H978 C993 0.959 . S
H979 C993 0.961 . S
H980 C994 0.960 . S
H981 C994 0.961 . S
H982 C994 0.959 . S
H983 C997 0.929 1_565 S
H984 C998 0.931 . S
H985 C1000 0.930 . S
C986 H974 0.930 . S
C986 C987 1.399 . S
C986 C991 1.399 . S
C987 C986 1.399 . S
C987 C988 1.376 . S
C988 H975 0.930 . S
C988 C987 1.376 . S
C988 C989 1.388 1_554 S
C989 H976 0.930 . S
C989 C988 1.388 1_556 S
C989 C990 1.390 . S
C990 C989 1.390 . S
C990 C991 1.394 1_556 S
C990 C996 1.465 1_565 S
C991 C986 1.399 . S
C991 C990 1.394 1_554 S
C991 C992 1.516 1_565 S
C992 C991 1.516 1_545 S
C992 C993 1.502 . S
C992 C994 1.561 . S
C992 C995 1.526 1_554 S
C993 H977 0.959 . S
C993 H978 0.959 . S
C993 H979 0.961 . S
C993 C992 1.502 . S
C994 H980 0.960 . S
C994 H981 0.961 . S
C994 H982 0.959 . S
C994 C992 1.561 . S
C995 C992 1.526 1_556 S
C995 C996 1.396 . S
C995 C1000 1.390 . S
C996 C990 1.465 1_545 S
C996 C995 1.396 . S
C996 C997 1.399 . S
C997 H983 0.929 1_545 S
C997 C996 1.399 . S
C997 C998 1.385 . S
C998 H984 0.931 . S
C998 C997 1.385 . S
C998 C999 1.389 . S
C999 C998 1.389 . S
C999 C1000 1.387 . S
C1000 H985 0.930 . S
C1000 C995 1.390 . S
C1000 C999 1.387 . S
H1001 C1013 0.930 . S
H1002 C1015 0.930 . S
H1003 C1016 0.930 1_565 S
H1004 C1020 0.959 . S
H1005 C1020 0.959 . S
H1006 C1020 0.961 . S
H1007 C1021 0.960 . S
H1008 C1021 0.961 . S
H1009 C1021 0.959 . S
H1010 C1024 0.929 . S
H1011 C1025 0.931 . S
H1012 C1027 0.930 . S
C1013 H1001 0.930 . S
C1013 C1014 1.399 . S
C1013 C1018 1.399 . S
C1014 C1013 1.399 . S
C1014 C1015 1.376 . S
C1015 H1002 0.930 . S
C1015 C1014 1.376 . S
C1015 C1016 1.388 . S
C1016 H1003 0.930 1_545 S
C1016 C1015 1.388 . S
C1016 C1017 1.390 . S
C1017 C1016 1.390 . S
C1017 C1018 1.394 . S
C1017 C1023 1.465 1_545 S
C1018 C1013 1.399 . S
C1018 C1017 1.394 . S
C1018 C1019 1.516 . S
C1019 C1018 1.516 . S
C1019 C1020 1.502 1_455 S
C1019 C1021 1.561 . S
C1019 C1022 1.526 1_545 S
C1020 H1004 0.959 . S
C1020 H1005 0.959 . S
C1020 H1006 0.961 . S
C1020 C1019 1.502 1_655 S
C1021 H1007 0.960 . S
C1021 H1008 0.961 . S
C1021 H1009 0.959 . S
C1021 C1019 1.561 . S
C1022 C1019 1.526 1_565 S
C1022 C1023 1.396 . S
C1022 C1027 1.390 . S
C1023 C1017 1.465 1_565 S
C1023 C1022 1.396 . S
C1023 C1024 1.399 . S
C1024 H1010 0.929 . S
C1024 C1023 1.399 . S
C1024 C1025 1.385 . S
C1025 H1011 0.931 . S
C1025 C1024 1.385 . S
C1025 C1026 1.389 . S
C1026 C1025 1.389 . S
C1026 C1027 1.387 . S
C1027 H1012 0.930 . S
C1027 C1022 1.390 . S
C1027 C1026 1.387 . S
C285 C22 1.241 . S
C297 C124 1.230 . S
C312 C90 1.253 . S
C324 C49 1.235 . S
C339 C56 1.974 . S
C351 C83 1.982 . S
C366 C15 1.975 . S
C378 C117 1.983 . S
C393 C260 1.265 . S
C405 C158 1.242 . S
C420 C226 1.262 . S
C432 C185 1.241 . S
C447 C219 1.974 . S
C459 C192 1.982 . S
C474 C253 1.998 . S
C486 C151 2.011 . S
C501 C266 0.975 . S
C513 C6 1.006 . S
C528 C232 0.985 . S
C540 C62 0.999 . S
C555 C74 1.016 . S
C567 C176 0.975 . S
C582 C164 0.992 . S
C594 C108 0.996 . S
C609 C142 1.001 . S
C621 C130 1.032 . S
C636 C96 1.023 . S
C648 C198 1.019 . S
C663 C40 1.021 . S
C675 C210 1.020 . S
C690 C28 0.999 . S
C702 C244 1.025 . S
C717 C3 1.470 . S
C729 C187 1.600 . S
C744 C35 1.493 . S
C756 C153 1.563 . S
C771 C255 1.585 . S
C783 C71 1.535 . S
C798 C105 1.510 . S
C810 C221 1.568 . S
C825 C139 1.452 . S
C837 C51 1.562 . S
C852 C171 1.487 . S
C864 C17 1.603 . S
C879 C207 1.495 . S
C891 C119 1.563 . S
C906 C241 1.486 . S
C918 C85 1.603 . S
C933 C1 1.964 . S
C945 C69 1.963 . S
C960 C37 1.931 . S
C972 C103 1.901 . S
C987 C137 1.911 . S
C999 C205 1.948 . S
C1014 C173 1.942 . S
C1026 C239 1.907 . S
