# Generated by pormake.
# Topology gsi, (4)-cn, num edge types: 1
# Building blocks:
#     Node 0, Type 0, BuildingBlock: AZAVOO_clean_sbu_0, # of connection points: 4
#     Node 1, Type 0, BuildingBlock: AZAVOO_clean_sbu_0, # of connection points: 4
#     Node 2, Type 0, BuildingBlock: AZAVOO_clean_sbu_0, # of connection points: 4
#     Node 3, Type 0, BuildingBlock: AZAVOO_clean_sbu_0, # of connection points: 4
#     Node 4, Type 0, BuildingBlock: AZAVOO_clean_sbu_0, # of connection points: 4
#     Node 5, Type 0, BuildingBlock: AZAVOO_clean_sbu_0, # of connection points: 4
#     Node 6, Type 0, BuildingBlock: AZAVOO_clean_sbu_0, # of connection points: 4
#     Node 7, Type 0, BuildingBlock: AZAVOO_clean_sbu_0, # of connection points: 4
#     Node 8, Type 0, BuildingBlock: AZAVOO_clean_sbu_0, # of connection points: 4
#     Node 9, Type 0, BuildingBlock: AZAVOO_clean_sbu_0, # of connection points: 4
#     Node 10, Type 0, BuildingBlock: AZAVOO_clean_sbu_0, # of connection points: 4
#     Node 11, Type 0, BuildingBlock: AZAVOO_clean_sbu_0, # of connection points: 4
#     Node 12, Type 0, BuildingBlock: AZAVOO_clean_sbu_0, # of connection points: 4
#     Node 13, Type 0, BuildingBlock: AZAVOO_clean_sbu_0, # of connection points: 4
#     Node 14, Type 0, BuildingBlock: AZAVOO_clean_sbu_0, # of connection points: 4
#     Node 15, Type 0, BuildingBlock: AZAVOO_clean_sbu_0, # of connection points: 4
#     Edge 16, Type (0, 0), BuildingBlock: OJICUG_clean_linker_0, # of connection points: 2
#     Edge 17, Type (0, 0), BuildingBlock: OJICUG_clean_linker_0, # of connection points: 2
#     Edge 18, Type (0, 0), BuildingBlock: OJICUG_clean_linker_0, # of connection points: 2
#     Edge 19, Type (0, 0), BuildingBlock: OJICUG_clean_linker_0, # of connection points: 2
#     Edge 20, Type (0, 0), BuildingBlock: OJICUG_clean_linker_0, # of connection points: 2
#     Edge 21, Type (0, 0), BuildingBlock: OJICUG_clean_linker_0, # of connection points: 2
#     Edge 22, Type (0, 0), BuildingBlock: OJICUG_clean_linker_0, # of connection points: 2
#     Edge 23, Type (0, 0), BuildingBlock: OJICUG_clean_linker_0, # of connection points: 2
#     Edge 24, Type (0, 0), BuildingBlock: OJICUG_clean_linker_0, # of connection points: 2
#     Edge 25, Type (0, 0), BuildingBlock: OJICUG_clean_linker_0, # of connection points: 2
#     Edge 26, Type (0, 0), BuildingBlock: OJICUG_clean_linker_0, # of connection points: 2
#     Edge 27, Type (0, 0), BuildingBlock: OJICUG_clean_linker_0, # of connection points: 2
#     Edge 28, Type (0, 0), BuildingBlock: OJICUG_clean_linker_0, # of connection points: 2
#     Edge 29, Type (0, 0), BuildingBlock: OJICUG_clean_linker_0, # of connection points: 2
#     Edge 30, Type (0, 0), BuildingBlock: OJICUG_clean_linker_0, # of connection points: 2
#     Edge 31, Type (0, 0), BuildingBlock: OJICUG_clean_linker_0, # of connection points: 2
#     Edge 32, Type (0, 0), BuildingBlock: OJICUG_clean_linker_0, # of connection points: 2
#     Edge 33, Type (0, 0), BuildingBlock: OJICUG_clean_linker_0, # of connection points: 2
#     Edge 34, Type (0, 0), BuildingBlock: OJICUG_clean_linker_0, # of connection points: 2
#     Edge 35, Type (0, 0), BuildingBlock: OJICUG_clean_linker_0, # of connection points: 2
#     Edge 36, Type (0, 0), BuildingBlock: OJICUG_clean_linker_0, # of connection points: 2
#     Edge 37, Type (0, 0), BuildingBlock: OJICUG_clean_linker_0, # of connection points: 2
#     Edge 38, Type (0, 0), BuildingBlock: OJICUG_clean_linker_0, # of connection points: 2
#     Edge 39, Type (0, 0), BuildingBlock: OJICUG_clean_linker_0, # of connection points: 2
#     Edge 40, Type (0, 0), BuildingBlock: OJICUG_clean_linker_0, # of connection points: 2
#     Edge 41, Type (0, 0), BuildingBlock: OJICUG_clean_linker_0, # of connection points: 2
#     Edge 42, Type (0, 0), BuildingBlock: OJICUG_clean_linker_0, # of connection points: 2
#     Edge 43, Type (0, 0), BuildingBlock: OJICUG_clean_linker_0, # of connection points: 2
#     Edge 44, Type (0, 0), BuildingBlock: OJICUG_clean_linker_0, # of connection points: 2
#     Edge 45, Type (0, 0), BuildingBlock: OJICUG_clean_linker_0, # of connection points: 2
#     Edge 46, Type (0, 0), BuildingBlock: OJICUG_clean_linker_0, # of connection points: 2
#     Edge 47, Type (0, 0), BuildingBlock: OJICUG_clean_linker_0, # of connection points: 2
# Relax obj value: 0.014
# Max RMSD: 0.028
# Mean RMSD: 0.025
data_MOF--net-gsi--node1-AZAVOO_clean_sbu_0--edge1-OJICUG_clean_linker_0
_symmetry_space_group_name_H-M    P1
_symmetry_Int_Tables_number       1
_symmetry_cell_setting            triclinic
loop_
_symmetry_equiv_pos_as_xyz
'x, y, z'
_cell_length_a     32.634511
_cell_length_b     31.144646
_cell_length_c     32.023902
_cell_angle_alpha  89.991642
_cell_angle_beta   90.021768
_cell_angle_gamma 90.296229
loop_
_atom_site_label
_atom_site_type_symbol
_atom_site_fract_x
_atom_site_fract_y
_atom_site_fract_z
_atom_type_partial_charge
Mg0 Mg 0.13485 0.14591 0.12544 0.0
O1 O 0.17331 0.18777 0.17034 0.0
O2 O 0.23167 0.15264 0.18225 0.0
Mg3 Mg 0.22967 0.08836 0.14801 0.0
C4 C 0.20857 0.18515 0.18754 0.0
C5 C 0.05494 0.19145 0.10692 0.0
O6 O 0.04451 0.15065 0.10768 0.0
O7 O 0.1763 0.163 0.07118 0.0
O8 O 0.23215 0.12401 0.08484 0.0
O9 O 0.10476 0.11228 0.17802 0.0
O10 O 0.16225 0.09048 0.14837 0.0
C11 C 0.21194 0.14965 0.06151 0.0
C12 C 0.13464 0.08512 0.17669 0.0
O13 O 0.09234 0.2016 0.11232 0.0
Mg14 Mg 0.84972 0.3671 0.12424 0.0
O15 O 0.81093 0.3247 0.16839 0.0
O16 O 0.75237 0.35956 0.18002 0.0
Mg17 Mg 0.75443 0.42406 0.1462 0.0
C18 C 0.77551 0.32708 0.18528 0.0
C19 C 0.9301 0.32196 0.10682 0.0
O20 O 0.94049 0.36275 0.1085 0.0
O21 O 0.80891 0.35027 0.06934 0.0
O22 O 0.75272 0.38875 0.08288 0.0
O23 O 0.87906 0.40041 0.17749 0.0
O24 O 0.82184 0.42219 0.14727 0.0
C25 C 0.77324 0.36344 0.05952 0.0
C26 C 0.84907 0.42742 0.176 0.0
O27 O 0.89261 0.3117 0.11121 0.0
Mg28 Mg 0.13089 0.87308 0.33151 0.0
O29 O 0.16947 0.83309 0.28559 0.0
O30 O 0.2283 0.86828 0.27461 0.0
Mg31 Mg 0.22674 0.93104 0.3115 0.0
C32 C 0.20469 0.83611 0.26834 0.0
C33 C 0.05013 0.82484 0.34527 0.0
O34 O 0.03839 0.8651 0.3435 0.0
O35 O 0.17174 0.85401 0.3855 0.0
O36 O 0.22835 0.8929 0.37331 0.0
O37 O 0.10174 0.90871 0.27976 0.0
O38 O 0.15923 0.92923 0.31073 0.0
C39 C 0.20759 0.86667 0.39572 0.0
C40 C 0.13204 0.9356 0.28225 0.0
O41 O 0.08808 0.81643 0.34215 0.0
Mg42 Mg 0.84952 0.63948 0.33072 0.0
O43 O 0.81137 0.67877 0.28386 0.0
O44 O 0.75283 0.64319 0.2724 0.0
Mg45 Mg 0.75429 0.58072 0.3098 0.0
C46 C 0.77638 0.67541 0.26616 0.0
C47 C 0.92975 0.68817 0.34542 0.0
O48 O 0.94156 0.64791 0.34446 0.0
O49 O 0.80777 0.65878 0.38385 0.0
O50 O 0.75161 0.61928 0.37133 0.0
O51 O 0.87964 0.60362 0.27979 0.0
O52 O 0.82181 0.58298 0.30999 0.0
C53 C 0.77191 0.64591 0.39375 0.0
C54 C 0.84947 0.57656 0.282 0.0
O55 O 0.89186 0.69648 0.34148 0.0
Mg56 Mg 0.3472 0.86707 0.6257 0.0
O57 O 0.30874 0.82524 0.67064 0.0
O58 O 0.2504 0.8604 0.68251 0.0
Mg59 Mg 0.25241 0.92467 0.64822 0.0
C60 C 0.27349 0.82789 0.68783 0.0
C61 C 0.42706 0.82153 0.60711 0.0
O62 O 0.43746 0.86235 0.60779 0.0
O63 O 0.30571 0.85 0.57144 0.0
O64 O 0.2499 0.88904 0.58505 0.0
O65 O 0.37733 0.90068 0.67827 0.0
O66 O 0.31984 0.92251 0.6486 0.0
C67 C 0.27009 0.86339 0.56173 0.0
C68 C 0.34747 0.92786 0.67692 0.0
O69 O 0.38969 0.81136 0.6126 0.0
Mg70 Mg 0.84806 0.86459 0.84112 0.0
O71 O 0.80442 0.8244 0.80094 0.0
O72 O 0.74111 0.85039 0.80717 0.0
Mg73 Mg 0.74426 0.90782 0.85217 0.0
C74 C 0.76631 0.82334 0.79196 0.0
C75 C 0.92784 0.82343 0.84469 0.0
O76 O 0.91981 0.84282 0.8802 0.0
O77 O 0.84798 0.91963 0.79254 0.0
O78 O 0.78531 0.94441 0.80689 0.0
O79 O 0.83246 0.82376 0.89721 0.0
O80 O 0.80048 0.88343 0.87999 0.0
C81 C 0.8195 0.94738 0.78767 0.0
C82 C 0.804 0.85136 0.9048 0.0
O83 O 0.90326 0.82904 0.8144 0.0
Mg84 Mg 0.13214 0.64923 0.84359 0.0
O85 O 0.17604 0.68975 0.80405 0.0
O86 O 0.23942 0.66409 0.81073 0.0
Mg87 Mg 0.23607 0.6064 0.85543 0.0
C88 C 0.2142 0.69106 0.7954 0.0
C89 C 0.05347 0.69303 0.84675 0.0
O90 O 0.06155 0.67517 0.883 0.0
O91 O 0.13285 0.59449 0.79464 0.0
O92 O 0.19556 0.5701 0.80948 0.0
O93 O 0.14736 0.68972 0.90011 0.0
O94 O 0.17943 0.63014 0.88285 0.0
C95 C 0.16159 0.567 0.78987 0.0
C96 C 0.17569 0.66201 0.90784 0.0
O97 O 0.0773 0.68514 0.81634 0.0
Mg98 Mg 0.84014 0.1595 0.6028 0.0
O99 O 0.79891 0.20155 0.64423 0.0
O100 O 0.73593 0.17302 0.64438 0.0
Mg101 Mg 0.73731 0.11172 0.60498 0.0
C102 C 0.76143 0.20196 0.65584 0.0
C103 C 0.91938 0.20363 0.591 0.0
O104 O 0.90752 0.18751 0.55502 0.0
O105 O 0.84552 0.10925 0.65504 0.0
O106 O 0.78151 0.08281 0.65256 0.0
O107 O 0.81915 0.19562 0.54592 0.0
O108 O 0.78971 0.13673 0.57016 0.0
C109 C 0.81771 0.08331 0.66775 0.0
C110 C 0.79033 0.16713 0.54308 0.0
O111 O 0.89725 0.1966 0.62295 0.0
Mg112 Mg 0.14328 0.35508 0.60455 0.0
O113 O 0.18431 0.31319 0.64646 0.0
O114 O 0.24727 0.34178 0.6468 0.0
Mg115 Mg 0.24604 0.40295 0.6072 0.0
C116 C 0.22175 0.31286 0.65825 0.0
C117 C 0.06381 0.31195 0.59223 0.0
O118 O 0.07582 0.32873 0.55658 0.0
O119 O 0.13753 0.40554 0.65652 0.0
O120 O 0.20153 0.43199 0.6544 0.0
O121 O 0.16451 0.31862 0.54806 0.0
O122 O 0.19392 0.37763 0.57212 0.0
C123 C 0.16525 0.43154 0.66934 0.0
C124 C 0.19343 0.34701 0.54525 0.0
O125 O 0.08599 0.31814 0.62432 0.0
Mg126 Mg 0.63426 0.14827 0.34107 0.0
O127 O 0.67785 0.18864 0.301 0.0
O128 O 0.7412 0.1628 0.30737 0.0
Mg129 Mg 0.73815 0.10537 0.3524 0.0
C130 C 0.71596 0.18979 0.2921 0.0
C131 C 0.55381 0.18807 0.34414 0.0
O132 O 0.56156 0.16803 0.37938 0.0
O133 O 0.63459 0.09327 0.2925 0.0
O134 O 0.69731 0.06866 0.30698 0.0
O135 O 0.64957 0.18912 0.39723 0.0
O136 O 0.68181 0.1296 0.38005 0.0
C137 C 0.66316 0.06561 0.28768 0.0
C138 C 0.67812 0.16162 0.40488 0.0
O139 O 0.57897 0.18354 0.31419 0.0
Mg140 Mg 0.63242 0.64603 0.62413 0.0
O141 O 0.67122 0.68843 0.6683 0.0
O142 O 0.72979 0.65357 0.67995 0.0
Mg143 Mg 0.72774 0.58908 0.64613 0.0
C144 C 0.70665 0.68605 0.6852 0.0
C145 C 0.552 0.69113 0.60682 0.0
O146 O 0.54164 0.65033 0.60857 0.0
O147 O 0.67321 0.6629 0.56925 0.0
O148 O 0.72941 0.62443 0.58283 0.0
O149 O 0.60311 0.61267 0.67736 0.0
O150 O 0.66033 0.59093 0.64717 0.0
C151 C 0.70888 0.64974 0.55946 0.0
C152 C 0.63311 0.58568 0.67588 0.0
O153 O 0.5895 0.70141 0.61112 0.0
Mg154 Mg 0.63268 0.37357 0.8306 0.0
O155 O 0.67085 0.33423 0.78383 0.0
O156 O 0.72939 0.3698 0.77241 0.0
Mg157 Mg 0.72791 0.43231 0.80973 0.0
C158 C 0.70585 0.33757 0.76618 0.0
C159 C 0.55244 0.3249 0.84529 0.0
O160 O 0.54065 0.36517 0.84428 0.0
O161 O 0.6744 0.35433 0.8838 0.0
O162 O 0.73057 0.39381 0.87131 0.0
O163 O 0.60258 0.40939 0.77959 0.0
O164 O 0.6604 0.43005 0.80984 0.0
C165 C 0.71026 0.36721 0.89374 0.0
C166 C 0.63275 0.43645 0.78181 0.0
O167 O 0.59033 0.31658 0.84138 0.0
Mg168 Mg 0.35128 0.14001 0.83153 0.0
O169 O 0.31275 0.17992 0.78545 0.0
O170 O 0.25392 0.14472 0.77443 0.0
Mg171 Mg 0.25544 0.08203 0.81145 0.0
C172 C 0.27754 0.17688 0.76814 0.0
C173 C 0.43204 0.18826 0.84526 0.0
O174 O 0.44378 0.148 0.84355 0.0
O175 O 0.31038 0.15916 0.88541 0.0
O176 O 0.25379 0.12024 0.87319 0.0
O177 O 0.38047 0.10429 0.77989 0.0
O178 O 0.32295 0.08384 0.8108 0.0
C179 C 0.27452 0.14651 0.89559 0.0
C180 C 0.35016 0.07742 0.78237 0.0
O181 O 0.39409 0.19667 0.84213 0.0
Mg182 Mg 0.35003 0.36348 0.3435 0.0
O183 O 0.30609 0.32325 0.30373 0.0
O184 O 0.24281 0.34922 0.31006 0.0
Mg185 Mg 0.24625 0.40688 0.35478 0.0
C186 C 0.26797 0.32212 0.29488 0.0
C187 C 0.42801 0.31821 0.34702 0.0
O188 O 0.41968 0.33528 0.38356 0.0
O189 O 0.3498 0.41829 0.29457 0.0
O190 O 0.28717 0.44307 0.30914 0.0
O191 O 0.33429 0.32301 0.39989 0.0
O192 O 0.30265 0.3828 0.38252 0.0
C193 C 0.32125 0.44598 0.28972 0.0
C194 C 0.30608 0.35087 0.40749 0.0
O195 O 0.40476 0.32724 0.31643 0.0
Mg196 Mg 0.33892 0.65815 0.10463 0.0
O197 O 0.29797 0.69984 0.14674 0.0
O198 O 0.23513 0.67098 0.1474 0.0
Mg199 Mg 0.23638 0.60983 0.10778 0.0
C200 C 0.26059 0.70002 0.15871 0.0
C201 C 0.41817 0.70175 0.09204 0.0
O202 O 0.40601 0.68521 0.05634 0.0
O203 O 0.34513 0.60766 0.15651 0.0
O204 O 0.28125 0.58086 0.15474 0.0
O205 O 0.31727 0.69459 0.04828 0.0
O206 O 0.28817 0.63545 0.07242 0.0
C207 C 0.31764 0.58149 0.16945 0.0
C208 C 0.28841 0.66612 0.04559 0.0
O209 O 0.3962 0.69524 0.12421 0.0
Mg210 Mg 0.64214 0.85363 0.10273 0.0
O211 O 0.68337 0.81146 0.14409 0.0
O212 O 0.74641 0.83985 0.14414 0.0
Mg213 Mg 0.74509 0.90116 0.10475 0.0
C214 C 0.72088 0.81097 0.15565 0.0
C215 C 0.56272 0.80989 0.09099 0.0
O216 O 0.57452 0.82618 0.05506 0.0
O217 O 0.63699 0.90386 0.15501 0.0
O218 O 0.70106 0.93011 0.15242 0.0
O219 O 0.66292 0.81752 0.04579 0.0
O220 O 0.69253 0.87633 0.07003 0.0
C221 C 0.66491 0.9297 0.16769 0.0
C222 C 0.69179 0.84596 0.04293 0.0
O223 O 0.58499 0.81665 0.12291 0.0
C224 C 0.26428 0.22116 0.22876 0.0
C225 C 0.22351 0.22076 0.21448 0.0
H226 H 0.3102 0.25321 0.26485 0.0
C227 C 0.19748 0.25446 0.22644 0.0
H228 H 0.28531 0.19589 0.2201 0.0
C229 C 0.2118 0.28746 0.25244 0.0
C230 C 0.25258 0.28768 0.26679 0.0
H231 H 0.1659 0.25518 0.21604 0.0
H232 H 0.19089 0.31277 0.26127 0.0
C233 C 0.27864 0.25421 0.25442 0.0
C234 C 0.7196 0.29065 0.22581 0.0
C235 C 0.76048 0.29127 0.2119 0.0
H236 H 0.67356 0.25837 0.26153 0.0
C237 C 0.78656 0.25766 0.22402 0.0
H238 H 0.69853 0.31583 0.217 0.0
C239 C 0.77218 0.22458 0.24988 0.0
C240 C 0.73132 0.22418 0.26394 0.0
H241 H 0.81822 0.25711 0.2139 0.0
H242 H 0.79315 0.19937 0.25889 0.0
C243 C 0.70519 0.25751 0.25134 0.0
C244 C 0.27226 0.76935 0.19715 0.0
C245 C 0.24624 0.73488 0.1867 0.0
H246 H 0.27968 0.82815 0.23081 0.0
C247 C 0.20632 0.73403 0.20334 0.0
H248 H 0.30317 0.77114 0.18492 0.0
C249 C 0.19283 0.76675 0.22985 0.0
C250 C 0.21885 0.80126 0.24023 0.0
H251 H 0.1854 0.70798 0.19605 0.0
H252 H 0.16194 0.76499 0.24209 0.0
C253 C 0.25873 0.80214 0.22349 0.0
C254 C 0.78849 0.74437 0.2271 0.0
C255 C 0.76239 0.70999 0.23763 0.0
H256 H 0.79606 0.80295 0.19301 0.0
C257 C 0.72258 0.70901 0.22071 0.0
H258 H 0.81935 0.74619 0.23946 0.0
C259 C 0.70915 0.74167 0.19413 0.0
C260 C 0.73523 0.77607 0.18361 0.0
H261 H 0.70157 0.68308 0.22812 0.0
H262 H 0.67827 0.73986 0.18182 0.0
C263 C 0.77512 0.77694 0.20034 0.0
C264 C 0.2178 0.79191 0.72908 0.0
C265 C 0.25857 0.79233 0.71485 0.0
H266 H 0.1719 0.75988 0.76519 0.0
C267 C 0.28465 0.75871 0.72693 0.0
H268 H 0.19674 0.81713 0.72033 0.0
C269 C 0.27035 0.72575 0.75301 0.0
C270 C 0.22957 0.7255 0.7673 0.0
H271 H 0.31623 0.758 0.71658 0.0
H272 H 0.29129 0.70049 0.76192 0.0
C273 C 0.20347 0.75891 0.75481 0.0
C274 C 0.76259 0.72246 0.72574 0.0
C275 C 0.72171 0.72186 0.71181 0.0
H276 H 0.80865 0.75472 0.76146 0.0
C277 C 0.69565 0.7555 0.72388 0.0
H278 H 0.78364 0.69725 0.71697 0.0
C279 C 0.71006 0.78859 0.74972 0.0
C280 C 0.75092 0.78896 0.7638 0.0
H281 H 0.66399 0.75607 0.71374 0.0
H282 H 0.68911 0.81382 0.75869 0.0
C283 C 0.77702 0.75559 0.75125 0.0
C284 C 0.69379 0.26854 0.72722 0.0
C285 C 0.71986 0.30297 0.73771 0.0
H286 H 0.68626 0.20992 0.6932 0.0
C287 C 0.75966 0.30397 0.7208 0.0
H288 H 0.66294 0.26671 0.73957 0.0
C289 C 0.77312 0.27129 0.69427 0.0
C290 C 0.74707 0.23685 0.68378 0.0
H291 H 0.78065 0.32993 0.72818 0.0
H292 H 0.80399 0.27313 0.68197 0.0
C293 C 0.70719 0.23595 0.70051 0.0
C294 C 0.21001 0.2436 0.69681 0.0
C295 C 0.2361 0.27799 0.68625 0.0
H296 H 0.20252 0.1849 0.73063 0.0
C297 C 0.27604 0.27877 0.70285 0.0
H298 H 0.17909 0.24185 0.68462 0.0
C299 C 0.2895 0.24609 0.72943 0.0
C300 C 0.26342 0.21168 0.73994 0.0
H301 H 0.297 0.30476 0.69548 0.0
H302 H 0.32042 0.24782 0.74165 0.0
C303 C 0.22353 0.21084 0.72323 0.0
C304 C 0.09698 0.99274 0.2422 0.0
C305 C 0.1337 0.97351 0.25489 0.0
H306 H 0.06878 0.04393 0.20851 0.0
C307 C 0.17122 0.99172 0.24245 0.0
H308 H 0.06765 0.97954 0.25173 0.0
C309 C 0.17186 0.02823 0.21691 0.0
C310 C 0.13502 0.04767 0.2047 0.0
H311 H 0.19993 0.97742 0.25184 0.0
H312 H 0.20106 0.04143 0.20713 0.0
C313 C 0.09764 0.0298 0.21785 0.0
C314 C 0.81101 0.48384 0.21598 0.0
C315 C 0.84812 0.46459 0.20433 0.0
H316 H 0.78221 0.53447 0.2505 0.0
C317 C 0.88522 0.48247 0.21829 0.0
H318 H 0.78202 0.47062 0.2056 0.0
C319 C 0.88536 0.51944 0.24277 0.0
C320 C 0.84837 0.53855 0.25478 0.0
H321 H 0.91427 0.46847 0.20943 0.0
H322 H 0.91448 0.5327 0.25286 0.0
C323 C 0.81112 0.52025 0.24163 0.0
C324 C 0.28568 0.1597 0.97147 0.0
C325 C 0.25867 0.15737 0.93735 0.0
H326 H 0.29184 0.15865 0.03811 0.0
C327 C 0.21629 0.15919 0.94451 0.0
H328 H 0.31852 0.15813 0.96681 0.0
C329 C 0.20109 0.16059 -0.01474 0.0
C330 C 0.22804 0.1589 0.01945 0.0
H331 H 0.19488 0.15755 0.91868 0.0
H332 H 0.16822 0.1597 -0.01005 0.0
C333 C 0.27046 0.15982 0.01224 0.0
C334 C 0.71495 0.35237 0.0102 0.0
C335 C 0.75735 0.35433 0.01736 0.0
H336 H 0.66676 0.35341 0.96489 0.0
C337 C 0.78427 0.35386 -0.01686 0.0
H338 H 0.69361 0.3526 0.03611 0.0
C339 C 0.76895 0.35544 0.94242 0.0
C340 C 0.72651 0.35623 0.93533 0.0
H341 H 0.81712 0.35558 -0.01217 0.0
H342 H 0.79026 0.35803 0.9166 0.0
C343 C 0.69965 0.35267 0.96946 0.0
C344 C 0.28096 0.85251 0.48549 0.0
C345 C 0.254 0.85419 0.51965 0.0
H346 H 0.28721 0.8556 0.41893 0.0
C347 C 0.21158 0.85332 0.51238 0.0
H348 H 0.31383 0.85336 0.49023 0.0
C349 C 0.19638 0.85349 0.47159 0.0
C350 C 0.22341 0.85582 0.4375 0.0
H351 H 0.19019 0.85449 0.53823 0.0
H352 H 0.16355 0.85509 0.46689 0.0
C353 C 0.26579 0.85396 0.44473 0.0
C354 C 0.76718 0.66085 0.51019 0.0
C355 C 0.72478 0.65887 0.51731 0.0
H356 H 0.81538 0.65982 0.46493 0.0
C357 C 0.69786 0.65929 0.48306 0.0
H358 H 0.78851 0.66066 0.53612 0.0
C359 C 0.71319 0.6577 0.44236 0.0
C360 C 0.75564 0.65693 0.43531 0.0
H361 H 0.66502 0.65755 0.48772 0.0
H362 H 0.69189 0.65507 0.41652 0.0
C363 C 0.78249 0.66054 0.46947 0.0
C364 C 0.00369 0.30013 0.10315 0.0
C365 C 0.96197 0.2886 0.10331 0.0
H366 H 0.06582 0.27853 0.10407 0.0
C367 C 0.95118 0.24491 0.10209 0.0
H368 H 0.01304 0.33354 0.10395 0.0
C369 C 0.98146 0.21338 0.10203 0.0
C370 C 0.02316 0.22489 0.10334 0.0
H371 H 0.91932 0.23497 0.10201 0.0
H372 H 0.97209 0.17996 0.10194 0.0
C373 C 0.03397 0.2686 0.10324 0.0
C374 C 0.94813 0.76635 0.34821 0.0
C375 C 0.96044 0.72319 0.34821 0.0
H376 H 0.96679 0.83228 0.34752 0.0
C377 C 0.00251 0.71374 0.34925 0.0
H378 H 0.91596 0.77471 0.34754 0.0
C379 C 0.03167 0.74674 0.34915 0.0
C380 C 0.01938 0.7899 0.34811 0.0
H381 H 0.01303 0.68082 0.34937 0.0
H382 H 0.06385 0.73837 0.34922 0.0
C383 C 0.9773 0.79935 0.34821 0.0
C384 C 0.47839 0.71289 0.60331 0.0
C385 C 0.52009 0.72446 0.60336 0.0
H386 H 0.41624 0.73445 0.60437 0.0
C387 C 0.53085 0.76816 0.60209 0.0
H388 H 0.46906 0.67948 0.60416 0.0
C389 C 0.50054 0.79967 0.60208 0.0
C390 C 0.45886 0.78812 0.6035 0.0
H391 H 0.5627 0.77812 0.60193 0.0
H392 H 0.50988 0.83309 0.60195 0.0
C393 C 0.44808 0.7444 0.60346 0.0
C394 C 0.79779 0.05323 0.73561 0.0
C395 C 0.82555 0.05357 0.70239 0.0
H396 H 0.77482 0.02019 0.7887 0.0
C397 C 0.85505 0.02095 0.69948 0.0
H398 H 0.77481 0.07809 0.73841 0.0
C399 C 0.85477 0.98676 0.72823 0.0
C400 C 0.82493 0.98511 0.75993 0.0
H401 H 0.87643 0.02046 0.67363 0.0
H402 H 0.87638 0.96079 0.72439 0.0
C403 C 0.79763 0.01968 0.76414 0.0
C404 C 0.18458 0.49528 0.76585 0.0
C405 C 0.15677 0.52943 0.7618 0.0
H406 H 0.20824 0.43738 0.7399 0.0
C407 C 0.127 0.5275 0.73002 0.0
H408 H 0.20737 0.49495 0.79045 0.0
C409 C 0.12722 0.49346 0.70111 0.0
C410 C 0.15718 0.46129 0.70391 0.0
H411 H 0.105 0.55314 0.7263 0.0
H412 H 0.10581 0.49371 0.67527 0.0
C413 C 0.18493 0.4619 0.73716 0.0
C414 C 0.73946 0.8845 -0.00407 0.0
C415 C 0.7221 0.84544 0.00892 0.0
H416 H 0.77832 0.91662 0.95226 0.0
C417 C 0.73286 0.80734 -0.01183 0.0
H418 H 0.73156 0.91439 0.01119 0.0
C419 C 0.76073 0.80854 0.95481 0.0
C420 C 0.77684 0.84801 0.94119 0.0
H421 H 0.71983 0.77683 -0.00227 0.0
H422 H 0.76869 0.77902 0.93896 0.0
C423 C 0.76605 0.88583 0.96208 0.0
C424 C 0.21275 0.6272 0.96557 0.0
C425 C 0.20258 0.6651 0.94447 0.0
H426 H 0.24699 0.59825 0.01468 0.0
C427 C 0.2193 0.70435 0.9579 0.0
H428 H 0.19999 0.59658 0.95588 0.0
C429 C 0.24729 0.70521 -0.00882 0.0
C430 C 0.25759 0.66701 0.01203 0.0
H431 H 0.21183 0.73393 0.94187 0.0
H432 H 0.26089 0.73553 0.00049 0.0
C433 C 0.23948 0.62821 -0.00065 0.0
C434 C 0.71591 0.12722 0.46235 0.0
C435 C 0.70519 0.16502 0.44136 0.0
H436 H 0.75037 0.0987 0.51153 0.0
C437 C 0.72134 0.2045 0.45491 0.0
H438 H 0.70361 0.09643 0.45257 0.0
C439 C 0.74921 0.20572 0.48829 0.0
C440 C 0.75993 0.16763 0.50912 0.0
H441 H 0.71344 0.23399 0.43897 0.0
H442 H 0.7623 0.23622 0.49778 0.0
C443 C 0.7425 0.12858 0.49622 0.0
C444 C 0.24198 0.38491 0.49864 0.0
C445 C 0.22407 0.34609 0.51156 0.0
H446 H 0.28134 0.41648 0.45504 0.0
C447 C 0.23447 0.30783 0.49088 0.0
H448 H 0.23438 0.41491 0.51384 0.0
C449 C 0.26244 0.30864 0.4576 0.0
C450 C 0.27902 0.34789 0.44398 0.0
H451 H 0.22103 0.2775 0.50038 0.0
H452 H 0.27004 0.27901 0.44176 0.0
C453 C 0.26868 0.38586 0.46487 0.0
C454 C 0.00495 0.74067 0.80617 0.0
C455 C 0.02123 0.72621 0.84434 0.0
H456 H 0.96192 0.78281 0.77604 0.0
C457 C 0.00731 0.74479 0.88162 0.0
H458 H 0.01527 0.72701 0.77693 0.0
C459 C 0.97795 0.77693 0.88106 0.0
C460 C 0.96093 0.79109 0.84325 0.0
H461 H 0.01944 0.73487 0.91158 0.0
H462 H 0.9681 0.79014 0.91068 0.0
C463 C 0.97459 0.7726 0.80566 0.0
C464 C 0.00869 0.27164 0.55549 0.0
C465 C 0.02669 0.28451 0.59332 0.0
H466 H 0.96137 0.23604 0.52527 0.0
C467 C 0.00916 0.27046 0.63109 0.0
H468 H 0.02143 0.28165 0.52579 0.0
C469 C 0.97404 0.24421 0.63079 0.0
C470 C 0.95639 0.23121 0.59272 0.0
H471 H 0.0224 0.27989 0.66074 0.0
H472 H 0.96092 0.2339 0.66022 0.0
C473 C 0.97421 0.24521 0.55519 0.0
C474 C 0.50159 0.23205 0.38041 0.0
C475 C 0.52029 0.21995 0.34276 0.0
H476 H 0.4588 0.27254 0.41105 0.0
C477 C 0.50804 0.24023 0.30551 0.0
H478 H 0.51023 0.21736 0.40976 0.0
C479 C 0.47764 0.27211 0.30623 0.0
C480 C 0.45988 0.28469 0.34432 0.0
H481 H 0.52199 0.23162 0.27602 0.0
H482 H 0.46856 0.28732 0.27728 0.0
C483 C 0.47217 0.26413 0.38122 0.0
C484 C 0.67118 0.52924 0.71586 0.0
C485 C 0.63407 0.54848 0.70419 0.0
H486 H 0.7 0.4786 0.7504 0.0
C487 C 0.59697 0.53056 0.71808 0.0
H488 H 0.70017 0.54249 0.70554 0.0
C489 C 0.59685 0.49357 0.74254 0.0
C490 C 0.63384 0.47447 0.75459 0.0
H491 H 0.56792 0.54455 0.70919 0.0
H492 H 0.56773 0.48027 0.75259 0.0
C493 C 0.67109 0.4928 0.7415 0.0
C494 C 0.31095 0.02132 0.74256 0.0
C495 C 0.34848 0.03949 0.75505 0.0
H496 H 0.28108 0.97163 0.70725 0.0
C497 C 0.38519 0.02021 0.74243 0.0
H498 H 0.28225 0.03567 0.7519 0.0
C499 C 0.38451 0.98314 0.71811 0.0
C500 C 0.34712 0.96531 0.70491 0.0
H501 H 0.41453 0.03338 0.752 0.0
H502 H 0.41336 0.96896 0.70883 0.0
C503 C 0.31028 0.9848 0.71706 0.0
C504 C 0.50487 0.21373 0.8482 0.0
C505 C 0.46279 0.2232 0.84807 0.0
H506 H 0.56622 0.23836 0.84752 0.0
C507 C 0.45051 0.26636 0.84905 0.0
H508 H 0.51538 0.18081 0.84756 0.0
C509 C 0.47968 0.29935 0.84911 0.0
C510 C 0.52175 0.2899 0.8481 0.0
H511 H 0.41834 0.27473 0.8491 0.0
H512 H 0.46917 0.33228 0.84918 0.0
C513 C 0.53405 0.24673 0.84817 0.0
C514 C 0.35529 0.51895 0.20047 0.0
C515 C 0.32607 0.55178 0.20397 0.0
H516 H 0.37682 0.45873 0.2251 0.0
C517 C 0.29913 0.55182 0.23788 0.0
H518 H 0.37603 0.5182 0.17409 0.0
C519 C 0.29947 0.51841 0.26657 0.0
C520 C 0.32643 0.48361 0.26182 0.0
H521 H 0.27638 0.57684 0.24113 0.0
H522 H 0.27727 0.51919 0.29169 0.0
C523 C 0.3555 0.4849 0.22938 0.0
C524 C 0.68547 0.99357 0.26384 0.0
C525 C 0.65786 0.02791 0.25988 0.0
H526 H 0.70849 0.93536 0.23792 0.0
C527 C 0.62775 0.02602 0.22843 0.0
H528 H 0.7085 0.99323 0.28821 0.0
C529 C 0.62746 0.99183 0.19969 0.0
C530 C 0.65723 0.95947 0.20234 0.0
H531 H 0.6059 0.05179 0.2248 0.0
H532 H 0.60583 0.99214 0.17403 0.0
C533 C 0.6853 0.96003 0.23531 0.0
C534 C 0.50819 0.7691 0.13071 0.0
C535 C 0.52565 0.78241 0.09266 0.0
H536 H 0.45996 0.7332 0.16061 0.0
C537 C 0.50758 0.7688 0.0551 0.0
H538 H 0.52148 0.77911 0.16016 0.0
C539 C 0.47307 0.74242 0.05536 0.0
C540 C 0.45528 0.7292 0.09317 0.0
H541 H 0.52027 0.77822 0.0252 0.0
H542 H 0.46015 0.73268 0.02564 0.0
C543 C 0.47303 0.7429 0.13097 0.0
loop_
_geom_bond_atom_site_label_1
_geom_bond_atom_site_label_2
_geom_bond_distance
_geom_bond_site_symmetry_2
_ccdc_geom_bond_type
Mg0 O1 2.028 . S
Mg0 O7 1.986 . S
Mg0 O9 2.114 . S
Mg0 O10 2.251 . S
Mg0 O13 2.010 . S
O1 Mg0 2.028 . S
O1 C4 1.250 . S
O2 Mg3 2.028 . S
O2 C4 1.248 . S
Mg3 O2 2.028 . S
Mg3 O8 2.032 . S
Mg3 O10 2.079 . S
C4 O1 1.250 . S
C4 O2 1.248 . S
C5 O6 1.264 . S
C5 O13 1.249 . S
O6 C5 1.264 . S
O7 Mg0 1.986 . S
O7 C11 1.246 . S
O8 Mg3 2.032 . S
O8 C11 1.259 . S
O9 Mg0 2.114 . S
O9 C12 1.252 . S
O10 Mg0 2.251 . S
O10 Mg3 2.079 . S
O10 C12 1.273 . S
C11 O7 1.246 . S
C11 O8 1.259 . S
C12 O9 1.252 . S
C12 O10 1.273 . S
O13 Mg0 2.010 . S
O13 C5 1.249 . S
Mg14 O15 2.028 . S
Mg14 O21 1.986 . S
Mg14 O23 2.114 . S
Mg14 O24 2.251 . S
Mg14 O27 2.010 . S
O15 Mg14 2.028 . S
O15 C18 1.250 . S
O16 Mg17 2.028 . S
O16 C18 1.248 . S
Mg17 O16 2.028 . S
Mg17 O22 2.032 . S
Mg17 O24 2.079 . S
C18 O15 1.250 . S
C18 O16 1.248 . S
C19 O20 1.264 . S
C19 O27 1.249 . S
O20 C19 1.264 . S
O21 Mg14 1.986 . S
O21 C25 1.246 . S
O22 Mg17 2.032 . S
O22 C25 1.259 . S
O23 Mg14 2.114 . S
O23 C26 1.252 . S
O24 Mg14 2.251 . S
O24 Mg17 2.079 . S
O24 C26 1.273 . S
C25 O21 1.246 . S
C25 O22 1.259 . S
C26 O23 1.252 . S
C26 O24 1.273 . S
O27 Mg14 2.010 . S
O27 C19 1.249 . S
Mg28 O29 2.028 . S
Mg28 O35 1.986 . S
Mg28 O37 2.114 . S
Mg28 O38 2.251 . S
Mg28 O41 2.010 . S
O29 Mg28 2.028 . S
O29 C32 1.250 . S
O30 Mg31 2.028 . S
O30 C32 1.248 . S
Mg31 O30 2.028 . S
Mg31 O36 2.032 . S
Mg31 O38 2.079 . S
C32 O29 1.250 . S
C32 O30 1.248 . S
C33 O34 1.264 . S
C33 O41 1.249 . S
O34 C33 1.264 . S
O35 Mg28 1.986 . S
O35 C39 1.246 . S
O36 Mg31 2.032 . S
O36 C39 1.259 . S
O37 Mg28 2.114 . S
O37 C40 1.252 . S
O38 Mg28 2.251 . S
O38 Mg31 2.079 . S
O38 C40 1.273 . S
C39 O35 1.246 . S
C39 O36 1.259 . S
C40 O37 1.252 . S
C40 O38 1.273 . S
O41 Mg28 2.010 . S
O41 C33 1.249 . S
Mg42 O43 2.028 . S
Mg42 O49 1.986 . S
Mg42 O51 2.114 . S
Mg42 O52 2.251 . S
Mg42 O55 2.010 . S
O43 Mg42 2.028 . S
O43 C46 1.250 . S
O44 Mg45 2.028 . S
O44 C46 1.248 . S
Mg45 O44 2.028 . S
Mg45 O50 2.032 . S
Mg45 O52 2.079 . S
C46 O43 1.250 . S
C46 O44 1.248 . S
C47 O48 1.264 . S
C47 O55 1.249 . S
O48 C47 1.264 . S
O49 Mg42 1.986 . S
O49 C53 1.246 . S
O50 Mg45 2.032 . S
O50 C53 1.259 . S
O51 Mg42 2.114 . S
O51 C54 1.252 . S
O52 Mg42 2.251 . S
O52 Mg45 2.079 . S
O52 C54 1.273 . S
C53 O49 1.246 . S
C53 O50 1.259 . S
C54 O51 1.252 . S
C54 O52 1.273 . S
O55 Mg42 2.010 . S
O55 C47 1.249 . S
Mg56 O57 2.028 . S
Mg56 O63 1.986 . S
Mg56 O65 2.114 . S
Mg56 O66 2.251 . S
Mg56 O69 2.010 . S
O57 Mg56 2.028 . S
O57 C60 1.250 . S
O58 Mg59 2.028 . S
O58 C60 1.248 . S
Mg59 O58 2.028 . S
Mg59 O64 2.032 . S
Mg59 O66 2.079 . S
C60 O57 1.250 . S
C60 O58 1.248 . S
C61 O62 1.264 . S
C61 O69 1.249 . S
O62 C61 1.264 . S
O63 Mg56 1.986 . S
O63 C67 1.246 . S
O64 Mg59 2.032 . S
O64 C67 1.259 . S
O65 Mg56 2.114 . S
O65 C68 1.252 . S
O66 Mg56 2.251 . S
O66 Mg59 2.079 . S
O66 C68 1.273 . S
C67 O63 1.246 . S
C67 O64 1.259 . S
C68 O65 1.252 . S
C68 O66 1.273 . S
O69 Mg56 2.010 . S
O69 C61 1.249 . S
Mg70 O71 2.028 . S
Mg70 O77 1.986 . S
Mg70 O79 2.114 . S
Mg70 O80 2.251 . S
Mg70 O83 2.010 . S
O71 Mg70 2.028 . S
O71 C74 1.250 . S
O72 Mg73 2.028 . S
O72 C74 1.248 . S
Mg73 O72 2.028 . S
Mg73 O78 2.032 . S
Mg73 O80 2.079 . S
C74 O71 1.250 . S
C74 O72 1.248 . S
C75 O76 1.264 . S
C75 O83 1.249 . S
O76 C75 1.264 . S
O77 Mg70 1.986 . S
O77 C81 1.246 . S
O78 Mg73 2.032 . S
O78 C81 1.259 . S
O79 Mg70 2.114 . S
O79 C82 1.252 . S
O80 Mg70 2.251 . S
O80 Mg73 2.079 . S
O80 C82 1.273 . S
C81 O77 1.246 . S
C81 O78 1.259 . S
C82 O79 1.252 . S
C82 O80 1.273 . S
O83 Mg70 2.010 . S
O83 C75 1.249 . S
Mg84 O85 2.028 . S
Mg84 O91 1.986 . S
Mg84 O93 2.114 . S
Mg84 O94 2.251 . S
Mg84 O97 2.010 . S
O85 Mg84 2.028 . S
O85 C88 1.250 . S
O86 Mg87 2.028 . S
O86 C88 1.248 . S
Mg87 O86 2.028 . S
Mg87 O92 2.032 . S
Mg87 O94 2.079 . S
C88 O85 1.250 . S
C88 O86 1.248 . S
C89 O90 1.264 . S
C89 O97 1.249 . S
O90 C89 1.264 . S
O91 Mg84 1.986 . S
O91 C95 1.246 . S
O92 Mg87 2.032 . S
O92 C95 1.259 . S
O93 Mg84 2.114 . S
O93 C96 1.252 . S
O94 Mg84 2.251 . S
O94 Mg87 2.079 . S
O94 C96 1.273 . S
C95 O91 1.246 . S
C95 O92 1.259 . S
C96 O93 1.252 . S
C96 O94 1.273 . S
O97 Mg84 2.010 . S
O97 C89 1.249 . S
Mg98 O99 2.028 . S
Mg98 O105 1.986 . S
Mg98 O107 2.114 . S
Mg98 O108 2.251 . S
Mg98 O111 2.010 . S
O99 Mg98 2.028 . S
O99 C102 1.250 . S
O100 Mg101 2.028 . S
O100 C102 1.248 . S
Mg101 O100 2.028 . S
Mg101 O106 2.032 . S
Mg101 O108 2.079 . S
C102 O99 1.250 . S
C102 O100 1.248 . S
C103 O104 1.264 . S
C103 O111 1.249 . S
O104 C103 1.264 . S
O105 Mg98 1.986 . S
O105 C109 1.246 . S
O106 Mg101 2.032 . S
O106 C109 1.259 . S
O107 Mg98 2.114 . S
O107 C110 1.252 . S
O108 Mg98 2.251 . S
O108 Mg101 2.079 . S
O108 C110 1.273 . S
C109 O105 1.246 . S
C109 O106 1.259 . S
C110 O107 1.252 . S
C110 O108 1.273 . S
O111 Mg98 2.010 . S
O111 C103 1.249 . S
Mg112 O113 2.028 . S
Mg112 O119 1.986 . S
Mg112 O121 2.114 . S
Mg112 O122 2.251 . S
Mg112 O125 2.010 . S
O113 Mg112 2.028 . S
O113 C116 1.250 . S
O114 Mg115 2.028 . S
O114 C116 1.248 . S
Mg115 O114 2.028 . S
Mg115 O120 2.032 . S
Mg115 O122 2.079 . S
C116 O113 1.250 . S
C116 O114 1.248 . S
C117 O118 1.264 . S
C117 O125 1.249 . S
O118 C117 1.264 . S
O119 Mg112 1.986 . S
O119 C123 1.246 . S
O120 Mg115 2.032 . S
O120 C123 1.259 . S
O121 Mg112 2.114 . S
O121 C124 1.252 . S
O122 Mg112 2.251 . S
O122 Mg115 2.079 . S
O122 C124 1.273 . S
C123 O119 1.246 . S
C123 O120 1.259 . S
C124 O121 1.252 . S
C124 O122 1.273 . S
O125 Mg112 2.010 . S
O125 C117 1.249 . S
Mg126 O127 2.028 . S
Mg126 O133 1.986 . S
Mg126 O135 2.114 . S
Mg126 O136 2.251 . S
Mg126 O139 2.010 . S
O127 Mg126 2.028 . S
O127 C130 1.250 . S
O128 Mg129 2.028 . S
O128 C130 1.248 . S
Mg129 O128 2.028 . S
Mg129 O134 2.032 . S
Mg129 O136 2.079 . S
C130 O127 1.250 . S
C130 O128 1.248 . S
C131 O132 1.264 . S
C131 O139 1.249 . S
O132 C131 1.264 . S
O133 Mg126 1.986 . S
O133 C137 1.246 . S
O134 Mg129 2.032 . S
O134 C137 1.259 . S
O135 Mg126 2.114 . S
O135 C138 1.252 . S
O136 Mg126 2.251 . S
O136 Mg129 2.079 . S
O136 C138 1.273 . S
C137 O133 1.246 . S
C137 O134 1.259 . S
C138 O135 1.252 . S
C138 O136 1.273 . S
O139 Mg126 2.010 . S
O139 C131 1.249 . S
Mg140 O141 2.028 . S
Mg140 O147 1.986 . S
Mg140 O149 2.114 . S
Mg140 O150 2.251 . S
Mg140 O153 2.010 . S
O141 Mg140 2.028 . S
O141 C144 1.250 . S
O142 Mg143 2.028 . S
O142 C144 1.248 . S
Mg143 O142 2.028 . S
Mg143 O148 2.032 . S
Mg143 O150 2.079 . S
C144 O141 1.250 . S
C144 O142 1.248 . S
C145 O146 1.264 . S
C145 O153 1.249 . S
O146 C145 1.264 . S
O147 Mg140 1.986 . S
O147 C151 1.246 . S
O148 Mg143 2.032 . S
O148 C151 1.259 . S
O149 Mg140 2.114 . S
O149 C152 1.252 . S
O150 Mg140 2.251 . S
O150 Mg143 2.079 . S
O150 C152 1.273 . S
C151 O147 1.246 . S
C151 O148 1.259 . S
C152 O149 1.252 . S
C152 O150 1.273 . S
O153 Mg140 2.010 . S
O153 C145 1.249 . S
Mg154 O155 2.028 . S
Mg154 O161 1.986 . S
Mg154 O163 2.114 . S
Mg154 O164 2.251 . S
Mg154 O167 2.010 . S
O155 Mg154 2.028 . S
O155 C158 1.250 . S
O156 Mg157 2.028 . S
O156 C158 1.248 . S
Mg157 O156 2.028 . S
Mg157 O162 2.032 . S
Mg157 O164 2.079 . S
C158 O155 1.250 . S
C158 O156 1.248 . S
C159 O160 1.264 . S
C159 O167 1.249 . S
O160 C159 1.264 . S
O161 Mg154 1.986 . S
O161 C165 1.246 . S
O162 Mg157 2.032 . S
O162 C165 1.259 . S
O163 Mg154 2.114 . S
O163 C166 1.252 . S
O164 Mg154 2.251 . S
O164 Mg157 2.079 . S
O164 C166 1.273 . S
C165 O161 1.246 . S
C165 O162 1.259 . S
C166 O163 1.252 . S
C166 O164 1.273 . S
O167 Mg154 2.010 . S
O167 C159 1.249 . S
Mg168 O169 2.028 . S
Mg168 O175 1.986 . S
Mg168 O177 2.114 . S
Mg168 O178 2.251 . S
Mg168 O181 2.010 . S
O169 Mg168 2.028 . S
O169 C172 1.250 . S
O170 Mg171 2.028 . S
O170 C172 1.248 . S
Mg171 O170 2.028 . S
Mg171 O176 2.032 . S
Mg171 O178 2.079 . S
C172 O169 1.250 . S
C172 O170 1.248 . S
C173 O174 1.264 . S
C173 O181 1.249 . S
O174 C173 1.264 . S
O175 Mg168 1.986 . S
O175 C179 1.246 . S
O176 Mg171 2.032 . S
O176 C179 1.259 . S
O177 Mg168 2.114 . S
O177 C180 1.252 . S
O178 Mg168 2.251 . S
O178 Mg171 2.079 . S
O178 C180 1.273 . S
C179 O175 1.246 . S
C179 O176 1.259 . S
C180 O177 1.252 . S
C180 O178 1.273 . S
O181 Mg168 2.010 . S
O181 C173 1.249 . S
Mg182 O183 2.028 . S
Mg182 O189 1.986 . S
Mg182 O191 2.114 . S
Mg182 O192 2.251 . S
Mg182 O195 2.010 . S
O183 Mg182 2.028 . S
O183 C186 1.250 . S
O184 Mg185 2.028 . S
O184 C186 1.248 . S
Mg185 O184 2.028 . S
Mg185 O190 2.032 . S
Mg185 O192 2.079 . S
C186 O183 1.250 . S
C186 O184 1.248 . S
C187 O188 1.264 . S
C187 O195 1.249 . S
O188 C187 1.264 . S
O189 Mg182 1.986 . S
O189 C193 1.246 . S
O190 Mg185 2.032 . S
O190 C193 1.259 . S
O191 Mg182 2.114 . S
O191 C194 1.252 . S
O192 Mg182 2.251 . S
O192 Mg185 2.079 . S
O192 C194 1.273 . S
C193 O189 1.246 . S
C193 O190 1.259 . S
C194 O191 1.252 . S
C194 O192 1.273 . S
O195 Mg182 2.010 . S
O195 C187 1.249 . S
Mg196 O197 2.028 . S
Mg196 O203 1.986 . S
Mg196 O205 2.114 . S
Mg196 O206 2.251 . S
Mg196 O209 2.010 . S
O197 Mg196 2.028 . S
O197 C200 1.250 . S
O198 Mg199 2.028 . S
O198 C200 1.248 . S
Mg199 O198 2.028 . S
Mg199 O204 2.032 . S
Mg199 O206 2.079 . S
C200 O197 1.250 . S
C200 O198 1.248 . S
C201 O202 1.264 . S
C201 O209 1.249 . S
O202 C201 1.264 . S
O203 Mg196 1.986 . S
O203 C207 1.246 . S
O204 Mg199 2.032 . S
O204 C207 1.259 . S
O205 Mg196 2.114 . S
O205 C208 1.252 . S
O206 Mg196 2.251 . S
O206 Mg199 2.079 . S
O206 C208 1.273 . S
C207 O203 1.246 . S
C207 O204 1.259 . S
C208 O205 1.252 . S
C208 O206 1.273 . S
O209 Mg196 2.010 . S
O209 C201 1.249 . S
Mg210 O211 2.028 . S
Mg210 O217 1.986 . S
Mg210 O219 2.114 . S
Mg210 O220 2.251 . S
Mg210 O223 2.010 . S
O211 Mg210 2.028 . S
O211 C214 1.250 . S
O212 Mg213 2.028 . S
O212 C214 1.248 . S
Mg213 O212 2.028 . S
Mg213 O218 2.032 . S
Mg213 O220 2.079 . S
C214 O211 1.250 . S
C214 O212 1.248 . S
C215 O216 1.264 . S
C215 O223 1.249 . S
O216 C215 1.264 . S
O217 Mg210 1.986 . S
O217 C221 1.246 . S
O218 Mg213 2.032 . S
O218 C221 1.259 . S
O219 Mg210 2.114 . S
O219 C222 1.252 . S
O220 Mg210 2.251 . S
O220 Mg213 2.079 . S
O220 C222 1.273 . S
C221 O217 1.246 . S
C221 O218 1.259 . S
C222 O219 1.252 . S
C222 O220 1.273 . S
O223 Mg210 2.010 . S
O223 C215 1.249 . S
C224 C225 1.387 . S
C224 H228 0.950 . S
C224 C233 1.390 . S
C225 C224 1.387 . S
C225 C227 1.387 . S
H226 C233 0.950 . S
C227 C225 1.387 . S
C227 C229 1.390 . S
C227 H231 0.950 . S
H228 C224 0.950 . S
C229 C227 1.390 . S
C229 C230 1.387 . S
C229 H232 0.950 . S
C230 C229 1.387 . S
C230 C233 1.387 . S
H231 C227 0.950 . S
H232 C229 0.950 . S
C233 C224 1.390 . S
C233 H226 0.950 . S
C233 C230 1.387 . S
C234 C235 1.387 . S
C234 H238 0.950 . S
C234 C243 1.390 . S
C235 C234 1.387 . S
C235 C237 1.387 . S
H236 C243 0.950 . S
C237 C235 1.387 . S
C237 C239 1.390 . S
C237 H241 0.950 . S
H238 C234 0.950 . S
C239 C237 1.390 . S
C239 C240 1.387 . S
C239 H242 0.950 . S
C240 C239 1.387 . S
C240 C243 1.387 . S
H241 C237 0.950 . S
H242 C239 0.950 . S
C243 C234 1.390 . S
C243 H236 0.950 . S
C243 C240 1.387 . S
C244 C245 1.387 . S
C244 H248 0.950 . S
C244 C253 1.390 . S
C245 C244 1.387 . S
C245 C247 1.387 . S
H246 C253 0.950 . S
C247 C245 1.387 . S
C247 C249 1.390 . S
C247 H251 0.950 . S
H248 C244 0.950 . S
C249 C247 1.390 . S
C249 C250 1.387 . S
C249 H252 0.950 . S
C250 C249 1.387 . S
C250 C253 1.387 . S
H251 C247 0.950 . S
H252 C249 0.950 . S
C253 C244 1.390 . S
C253 H246 0.950 . S
C253 C250 1.387 . S
C254 C255 1.387 . S
C254 H258 0.950 . S
C254 C263 1.390 . S
C255 C254 1.387 . S
C255 C257 1.387 . S
H256 C263 0.950 . S
C257 C255 1.387 . S
C257 C259 1.390 . S
C257 H261 0.950 . S
H258 C254 0.950 . S
C259 C257 1.390 . S
C259 C260 1.387 . S
C259 H262 0.950 . S
C260 C259 1.387 . S
C260 C263 1.387 . S
H261 C257 0.950 . S
H262 C259 0.950 . S
C263 C254 1.390 . S
C263 H256 0.950 . S
C263 C260 1.387 . S
C264 C265 1.387 . S
C264 H268 0.950 . S
C264 C273 1.390 . S
C265 C264 1.387 . S
C265 C267 1.387 . S
H266 C273 0.950 . S
C267 C265 1.387 . S
C267 C269 1.390 . S
C267 H271 0.950 . S
H268 C264 0.950 . S
C269 C267 1.390 . S
C269 C270 1.387 . S
C269 H272 0.950 . S
C270 C269 1.387 . S
C270 C273 1.387 . S
H271 C267 0.950 . S
H272 C269 0.950 . S
C273 C264 1.390 . S
C273 H266 0.950 . S
C273 C270 1.387 . S
C274 C275 1.387 . S
C274 H278 0.950 . S
C274 C283 1.390 . S
C275 C274 1.387 . S
C275 C277 1.387 . S
H276 C283 0.950 . S
C277 C275 1.387 . S
C277 C279 1.390 . S
C277 H281 0.950 . S
H278 C274 0.950 . S
C279 C277 1.390 . S
C279 C280 1.387 . S
C279 H282 0.950 . S
C280 C279 1.387 . S
C280 C283 1.387 . S
H281 C277 0.950 . S
H282 C279 0.950 . S
C283 C274 1.390 . S
C283 H276 0.950 . S
C283 C280 1.387 . S
C284 C285 1.387 . S
C284 H288 0.950 . S
C284 C293 1.390 . S
C285 C284 1.387 . S
C285 C287 1.387 . S
H286 C293 0.950 . S
C287 C285 1.387 . S
C287 C289 1.390 . S
C287 H291 0.950 . S
H288 C284 0.950 . S
C289 C287 1.390 . S
C289 C290 1.387 . S
C289 H292 0.950 . S
C290 C289 1.387 . S
C290 C293 1.387 . S
H291 C287 0.950 . S
H292 C289 0.950 . S
C293 C284 1.390 . S
C293 H286 0.950 . S
C293 C290 1.387 . S
C294 C295 1.387 . S
C294 H298 0.950 . S
C294 C303 1.390 . S
C295 C294 1.387 . S
C295 C297 1.387 . S
H296 C303 0.950 . S
C297 C295 1.387 . S
C297 C299 1.390 . S
C297 H301 0.950 . S
H298 C294 0.950 . S
C299 C297 1.390 . S
C299 C300 1.387 . S
C299 H302 0.950 . S
C300 C299 1.387 . S
C300 C303 1.387 . S
H301 C297 0.950 . S
H302 C299 0.950 . S
C303 C294 1.390 . S
C303 H296 0.950 . S
C303 C300 1.387 . S
C304 C305 1.387 . S
C304 H308 0.950 . S
C304 C313 1.390 1_565 S
C305 C304 1.387 . S
C305 C307 1.387 . S
H306 C313 0.950 . S
C307 C305 1.387 . S
C307 C309 1.390 1_565 S
C307 H311 0.950 . S
H308 C304 0.950 . S
C309 C307 1.390 1_545 S
C309 C310 1.387 . S
C309 H312 0.950 . S
C310 C309 1.387 . S
C310 C313 1.387 . S
H311 C307 0.950 . S
H312 C309 0.950 . S
C313 C304 1.390 1_545 S
C313 H306 0.950 . S
C313 C310 1.387 . S
C314 C315 1.387 . S
C314 H318 0.950 . S
C314 C323 1.390 . S
C315 C314 1.387 . S
C315 C317 1.387 . S
H316 C323 0.950 . S
C317 C315 1.387 . S
C317 C319 1.390 . S
C317 H321 0.950 . S
H318 C314 0.950 . S
C319 C317 1.390 . S
C319 C320 1.387 . S
C319 H322 0.950 . S
C320 C319 1.387 . S
C320 C323 1.387 . S
H321 C317 0.950 . S
H322 C319 0.950 . S
C323 C314 1.390 . S
C323 H316 0.950 . S
C323 C320 1.387 . S
C324 C325 1.387 . S
C324 H328 0.950 . S
C324 C333 1.390 1_556 S
C325 C324 1.387 . S
C325 C327 1.387 . S
H326 C333 0.950 . S
C327 C325 1.387 . S
C327 C329 1.390 1_556 S
C327 H331 0.950 . S
H328 C324 0.950 . S
C329 C327 1.390 1_554 S
C329 C330 1.387 . S
C329 H332 0.950 . S
C330 C329 1.387 . S
C330 C333 1.387 . S
H331 C327 0.950 . S
H332 C329 0.950 . S
C333 C324 1.390 1_554 S
C333 H326 0.950 . S
C333 C330 1.387 . S
C334 C335 1.387 . S
C334 H338 0.950 . S
C334 C343 1.390 1_554 S
C335 C334 1.387 . S
C335 C337 1.387 . S
H336 C343 0.950 . S
C337 C335 1.387 . S
C337 C339 1.390 1_554 S
C337 H341 0.950 . S
H338 C334 0.950 . S
C339 C337 1.390 1_556 S
C339 C340 1.387 . S
C339 H342 0.950 . S
C340 C339 1.387 . S
C340 C343 1.387 . S
H341 C337 0.950 . S
H342 C339 0.950 . S
C343 C334 1.390 1_556 S
C343 H336 0.950 . S
C343 C340 1.387 . S
C344 C345 1.387 . S
C344 H348 0.950 . S
C344 C353 1.390 . S
C345 C344 1.387 . S
C345 C347 1.387 . S
H346 C353 0.950 . S
C347 C345 1.387 . S
C347 C349 1.390 . S
C347 H351 0.950 . S
H348 C344 0.950 . S
C349 C347 1.390 . S
C349 C350 1.387 . S
C349 H352 0.950 . S
C350 C349 1.387 . S
C350 C353 1.387 . S
H351 C347 0.950 . S
H352 C349 0.950 . S
C353 C344 1.390 . S
C353 H346 0.950 . S
C353 C350 1.387 . S
C354 C355 1.387 . S
C354 H358 0.950 . S
C354 C363 1.390 . S
C355 C354 1.387 . S
C355 C357 1.387 . S
H356 C363 0.950 . S
C357 C355 1.387 . S
C357 C359 1.390 . S
C357 H361 0.950 . S
H358 C354 0.950 . S
C359 C357 1.390 . S
C359 C360 1.387 . S
C359 H362 0.950 . S
C360 C359 1.387 . S
C360 C363 1.387 . S
H361 C357 0.950 . S
H362 C359 0.950 . S
C363 C354 1.390 . S
C363 H356 0.950 . S
C363 C360 1.387 . S
C364 C365 1.387 . S
C364 H368 0.950 . S
C364 C373 1.390 1_655 S
C365 C364 1.387 . S
C365 C367 1.387 . S
H366 C373 0.950 . S
C367 C365 1.387 . S
C367 C369 1.390 1_655 S
C367 H371 0.950 . S
H368 C364 0.950 . S
C369 C367 1.390 1_455 S
C369 C370 1.387 . S
C369 H372 0.950 . S
C370 C369 1.387 . S
C370 C373 1.387 . S
H371 C367 0.950 . S
H372 C369 0.950 . S
C373 C364 1.390 1_455 S
C373 H366 0.950 . S
C373 C370 1.387 . S
C374 C375 1.387 . S
C374 H378 0.950 . S
C374 C383 1.390 1_655 S
C375 C374 1.387 . S
C375 C377 1.387 . S
H376 C383 0.950 . S
C377 C375 1.387 . S
C377 C379 1.390 1_655 S
C377 H381 0.950 . S
H378 C374 0.950 . S
C379 C377 1.390 1_455 S
C379 C380 1.387 . S
C379 H382 0.950 . S
C380 C379 1.387 . S
C380 C383 1.387 . S
H381 C377 0.950 . S
H382 C379 0.950 . S
C383 C374 1.390 1_455 S
C383 H376 0.950 . S
C383 C380 1.387 . S
C384 C385 1.387 . S
C384 H388 0.950 . S
C384 C393 1.390 . S
C385 C384 1.387 . S
C385 C387 1.387 . S
H386 C393 0.950 . S
C387 C385 1.387 . S
C387 C389 1.390 . S
C387 H391 0.950 . S
H388 C384 0.950 . S
C389 C387 1.390 . S
C389 C390 1.387 . S
C389 H392 0.950 . S
C390 C389 1.387 . S
C390 C393 1.387 . S
H391 C387 0.950 . S
H392 C389 0.950 . S
C393 C384 1.390 . S
C393 H386 0.950 . S
C393 C390 1.387 . S
C394 C395 1.387 . S
C394 H398 0.950 . S
C394 C403 1.390 1_545 S
C395 C394 1.387 . S
C395 C397 1.387 . S
H396 C403 0.950 . S
C397 C395 1.387 . S
C397 C399 1.390 1_545 S
C397 H401 0.950 . S
H398 C394 0.950 . S
C399 C397 1.390 1_565 S
C399 C400 1.387 . S
C399 H402 0.950 . S
C400 C399 1.387 . S
C400 C403 1.387 . S
H401 C397 0.950 . S
H402 C399 0.950 . S
C403 C394 1.390 1_565 S
C403 H396 0.950 . S
C403 C400 1.387 . S
C404 C405 1.387 . S
C404 H408 0.950 . S
C404 C413 1.390 . S
C405 C404 1.387 . S
C405 C407 1.387 . S
H406 C413 0.950 . S
C407 C405 1.387 . S
C407 C409 1.390 . S
C407 H411 0.950 . S
H408 C404 0.950 . S
C409 C407 1.390 . S
C409 C410 1.387 . S
C409 H412 0.950 . S
C410 C409 1.387 . S
C410 C413 1.387 . S
H411 C407 0.950 . S
H412 C409 0.950 . S
C413 C404 1.390 . S
C413 H406 0.950 . S
C413 C410 1.387 . S
C414 C415 1.387 . S
C414 H418 0.950 . S
C414 C423 1.390 1_554 S
C415 C414 1.387 . S
C415 C417 1.387 . S
H416 C423 0.950 . S
C417 C415 1.387 . S
C417 C419 1.390 1_554 S
C417 H421 0.950 . S
H418 C414 0.950 . S
C419 C417 1.390 1_556 S
C419 C420 1.387 . S
C419 H422 0.950 . S
C420 C419 1.387 . S
C420 C423 1.387 . S
H421 C417 0.950 . S
H422 C419 0.950 . S
C423 C414 1.390 1_556 S
C423 H416 0.950 . S
C423 C420 1.387 . S
C424 C425 1.387 . S
C424 H428 0.950 . S
C424 C433 1.390 1_556 S
C425 C424 1.387 . S
C425 C427 1.387 . S
H426 C433 0.950 . S
C427 C425 1.387 . S
C427 C429 1.390 1_556 S
C427 H431 0.950 . S
H428 C424 0.950 . S
C429 C427 1.390 1_554 S
C429 C430 1.387 . S
C429 H432 0.950 . S
C430 C429 1.387 . S
C430 C433 1.387 . S
H431 C427 0.950 . S
H432 C429 0.950 . S
C433 C424 1.390 1_554 S
C433 H426 0.950 . S
C433 C430 1.387 . S
C434 C435 1.387 . S
C434 H438 0.950 . S
C434 C443 1.390 . S
C435 C434 1.387 . S
C435 C437 1.387 . S
H436 C443 0.950 . S
C437 C435 1.387 . S
C437 C439 1.390 . S
C437 H441 0.950 . S
H438 C434 0.950 . S
C439 C437 1.390 . S
C439 C440 1.387 . S
C439 H442 0.950 . S
C440 C439 1.387 . S
C440 C443 1.387 . S
H441 C437 0.950 . S
H442 C439 0.950 . S
C443 C434 1.390 . S
C443 H436 0.950 . S
C443 C440 1.387 . S
C444 C445 1.387 . S
C444 H448 0.950 . S
C444 C453 1.390 . S
C445 C444 1.387 . S
C445 C447 1.387 . S
H446 C453 0.950 . S
C447 C445 1.387 . S
C447 C449 1.390 . S
C447 H451 0.950 . S
H448 C444 0.950 . S
C449 C447 1.390 . S
C449 C450 1.387 . S
C449 H452 0.950 . S
C450 C449 1.387 . S
C450 C453 1.387 . S
H451 C447 0.950 . S
H452 C449 0.950 . S
C453 C444 1.390 . S
C453 H446 0.950 . S
C453 C450 1.387 . S
C454 C455 1.387 . S
C454 H458 0.950 . S
C454 C463 1.390 1_455 S
C455 C454 1.387 . S
C455 C457 1.387 . S
H456 C463 0.950 . S
C457 C455 1.387 . S
C457 C459 1.390 1_455 S
C457 H461 0.950 . S
H458 C454 0.950 . S
C459 C457 1.390 1_655 S
C459 C460 1.387 . S
C459 H462 0.950 . S
C460 C459 1.387 . S
C460 C463 1.387 . S
H461 C457 0.950 . S
H462 C459 0.950 . S
C463 C454 1.390 1_655 S
C463 H456 0.950 . S
C463 C460 1.387 . S
C464 C465 1.387 . S
C464 H468 0.950 . S
C464 C473 1.390 1_455 S
C465 C464 1.387 . S
C465 C467 1.387 . S
H466 C473 0.950 . S
C467 C465 1.387 . S
C467 C469 1.390 1_455 S
C467 H471 0.950 . S
H468 C464 0.950 . S
C469 C467 1.390 1_655 S
C469 C470 1.387 . S
C469 H472 0.950 . S
C470 C469 1.387 . S
C470 C473 1.387 . S
H471 C467 0.950 . S
H472 C469 0.950 . S
C473 C464 1.390 1_655 S
C473 H466 0.950 . S
C473 C470 1.387 . S
C474 C475 1.387 . S
C474 H478 0.950 . S
C474 C483 1.390 . S
C475 C474 1.387 . S
C475 C477 1.387 . S
H476 C483 0.950 . S
C477 C475 1.387 . S
C477 C479 1.390 . S
C477 H481 0.950 . S
H478 C474 0.950 . S
C479 C477 1.390 . S
C479 C480 1.387 . S
C479 H482 0.950 . S
C480 C479 1.387 . S
C480 C483 1.387 . S
H481 C477 0.950 . S
H482 C479 0.950 . S
C483 C474 1.390 . S
C483 H476 0.950 . S
C483 C480 1.387 . S
C484 C485 1.387 . S
C484 H488 0.950 . S
C484 C493 1.390 . S
C485 C484 1.387 . S
C485 C487 1.387 . S
H486 C493 0.950 . S
C487 C485 1.387 . S
C487 C489 1.390 . S
C487 H491 0.950 . S
H488 C484 0.950 . S
C489 C487 1.390 . S
C489 C490 1.387 . S
C489 H492 0.950 . S
C490 C489 1.387 . S
C490 C493 1.387 . S
H491 C487 0.950 . S
H492 C489 0.950 . S
C493 C484 1.390 . S
C493 H486 0.950 . S
C493 C490 1.387 . S
C494 C495 1.387 . S
C494 H498 0.950 . S
C494 C503 1.390 1_545 S
C495 C494 1.387 . S
C495 C497 1.387 . S
H496 C503 0.950 . S
C497 C495 1.387 . S
C497 C499 1.390 1_545 S
C497 H501 0.950 . S
H498 C494 0.950 . S
C499 C497 1.390 1_565 S
C499 C500 1.387 . S
C499 H502 0.950 . S
C500 C499 1.387 . S
C500 C503 1.387 . S
H501 C497 0.950 . S
H502 C499 0.950 . S
C503 C494 1.390 1_565 S
C503 H496 0.950 . S
C503 C500 1.387 . S
C504 C505 1.387 . S
C504 H508 0.950 . S
C504 C513 1.390 . S
C505 C504 1.387 . S
C505 C507 1.387 . S
H506 C513 0.950 . S
C507 C505 1.387 . S
C507 C509 1.390 . S
C507 H511 0.950 . S
H508 C504 0.950 . S
C509 C507 1.390 . S
C509 C510 1.387 . S
C509 H512 0.950 . S
C510 C509 1.387 . S
C510 C513 1.387 . S
H511 C507 0.950 . S
H512 C509 0.950 . S
C513 C504 1.390 . S
C513 H506 0.950 . S
C513 C510 1.387 . S
C514 C515 1.387 . S
C514 H518 0.950 . S
C514 C523 1.390 . S
C515 C514 1.387 . S
C515 C517 1.387 . S
H516 C523 0.950 . S
C517 C515 1.387 . S
C517 C519 1.390 . S
C517 H521 0.950 . S
H518 C514 0.950 . S
C519 C517 1.390 . S
C519 C520 1.387 . S
C519 H522 0.950 . S
C520 C519 1.387 . S
C520 C523 1.387 . S
H521 C517 0.950 . S
H522 C519 0.950 . S
C523 C514 1.390 . S
C523 H516 0.950 . S
C523 C520 1.387 . S
C524 C525 1.387 . S
C524 H528 0.950 . S
C524 C533 1.390 1_545 S
C525 C524 1.387 . S
C525 C527 1.387 . S
H526 C533 0.950 . S
C527 C525 1.387 . S
C527 C529 1.390 1_545 S
C527 H531 0.950 . S
H528 C524 0.950 . S
C529 C527 1.390 1_565 S
C529 C530 1.387 . S
C529 H532 0.950 . S
C530 C529 1.387 . S
C530 C533 1.387 . S
H531 C527 0.950 . S
H532 C529 0.950 . S
C533 C524 1.390 1_565 S
C533 H526 0.950 . S
C533 C530 1.387 . S
C534 C535 1.387 . S
C534 H538 0.950 . S
C534 C543 1.390 . S
C535 C534 1.387 . S
C535 C537 1.387 . S
H536 C543 0.950 . S
C537 C535 1.387 . S
C537 C539 1.390 . S
C537 H541 0.950 . S
H538 C534 0.950 . S
C539 C537 1.390 . S
C539 C540 1.387 . S
C539 H542 0.950 . S
C540 C539 1.387 . S
C540 C543 1.387 . S
H541 C537 0.950 . S
H542 C539 0.950 . S
C543 C534 1.390 . S
C543 H536 0.950 . S
C543 C540 1.387 . S
C225 C4 1.313 . S
C230 C186 1.312 . S
C235 C18 1.311 . S
C240 C130 1.310 . S
C245 C200 1.312 . S
C250 C32 1.313 . S
C255 C46 1.310 . S
C260 C214 1.309 . S
C265 C60 1.313 . S
C270 C88 1.312 . S
C275 C144 1.312 . S
C280 C74 1.310 . S
C285 C158 1.310 . S
C290 C102 1.309 . S
C295 C116 1.311 . S
C300 C172 1.312 . S
C305 C40 1.517 . S
C310 C12 1.517 . S
C315 C26 1.517 . S
C320 C54 1.517 . S
C325 C179 1.462 . S
C330 C11 1.462 . S
C335 C25 1.464 . S
C340 C165 1.464 . S
C345 C67 1.464 . S
C350 C39 1.464 . S
C355 C151 1.464 . S
C360 C53 1.464 . S
C365 C19 1.359 . S
C370 C5 1.359 . S
C375 C47 1.355 . S
C380 C33 1.355 . S
C385 C145 1.359 . S
C390 C61 1.359 . S
C395 C109 1.514 . S
C400 C81 1.514 . S
C405 C95 1.514 . S
C410 C123 1.514 . S
C415 C222 1.508 . S
C420 C82 1.508 . S
C425 C96 1.508 . S
C430 C208 1.508 . S
C435 C138 1.508 . S
C440 C110 1.508 . S
C445 C124 1.508 . S
C450 C194 1.508 . S
C455 C89 1.318 . S
C460 C75 1.318 . S
C465 C117 1.314 . S
C470 C103 1.314 . S
C475 C131 1.314 . S
C480 C187 1.314 . S
C485 C152 1.517 . S
C490 C166 1.517 . S
C495 C180 1.517 . S
C500 C68 1.517 . S
C505 C173 1.355 . S
C510 C159 1.355 . S
C515 C207 1.515 . S
C520 C193 1.515 . S
C525 C137 1.514 . S
C530 C221 1.514 . S
C535 C215 1.318 . S
C540 C201 1.318 . S
