# Generated by pormake.
# Topology umu, (4)-cn, num edge types: 1
# Building blocks:
#     Node 0, Type 0, BuildingBlock: KUFVIS_clean_sbu_0, # of connection points: 4
#     Node 1, Type 0, BuildingBlock: KUFVIS_clean_sbu_0, # of connection points: 4
#     Node 2, Type 0, BuildingBlock: KUFVIS_clean_sbu_0, # of connection points: 4
#     Node 3, Type 0, BuildingBlock: KUFVIS_clean_sbu_0, # of connection points: 4
#     Node 4, Type 0, BuildingBlock: KUFVIS_clean_sbu_0, # of connection points: 4
#     Node 5, Type 0, BuildingBlock: KUFVIS_clean_sbu_0, # of connection points: 4
#     Node 6, Type 0, BuildingBlock: KUFVIS_clean_sbu_0, # of connection points: 4
#     Node 7, Type 0, BuildingBlock: KUFVIS_clean_sbu_0, # of connection points: 4
#     Node 8, Type 0, BuildingBlock: KUFVIS_clean_sbu_0, # of connection points: 4
#     Node 9, Type 0, BuildingBlock: KUFVIS_clean_sbu_0, # of connection points: 4
#     Node 10, Type 0, BuildingBlock: KUFVIS_clean_sbu_0, # of connection points: 4
#     Node 11, Type 0, BuildingBlock: KUFVIS_clean_sbu_0, # of connection points: 4
#     Node 12, Type 0, BuildingBlock: KUFVIS_clean_sbu_0, # of connection points: 4
#     Node 13, Type 0, BuildingBlock: KUFVIS_clean_sbu_0, # of connection points: 4
#     Node 14, Type 0, BuildingBlock: KUFVIS_clean_sbu_0, # of connection points: 4
#     Node 15, Type 0, BuildingBlock: KUFVIS_clean_sbu_0, # of connection points: 4
#     Node 16, Type 0, BuildingBlock: KUFVIS_clean_sbu_0, # of connection points: 4
#     Node 17, Type 0, BuildingBlock: KUFVIS_clean_sbu_0, # of connection points: 4
#     Node 18, Type 0, BuildingBlock: KUFVIS_clean_sbu_0, # of connection points: 4
#     Node 19, Type 0, BuildingBlock: KUFVIS_clean_sbu_0, # of connection points: 4
#     Node 20, Type 0, BuildingBlock: KUFVIS_clean_sbu_0, # of connection points: 4
#     Node 21, Type 0, BuildingBlock: KUFVIS_clean_sbu_0, # of connection points: 4
#     Node 22, Type 0, BuildingBlock: KUFVIS_clean_sbu_0, # of connection points: 4
#     Node 23, Type 0, BuildingBlock: KUFVIS_clean_sbu_0, # of connection points: 4
#     Node 24, Type 0, BuildingBlock: KUFVIS_clean_sbu_0, # of connection points: 4
#     Node 25, Type 0, BuildingBlock: KUFVIS_clean_sbu_0, # of connection points: 4
#     Node 26, Type 0, BuildingBlock: KUFVIS_clean_sbu_0, # of connection points: 4
#     Node 27, Type 0, BuildingBlock: KUFVIS_clean_sbu_0, # of connection points: 4
#     Node 28, Type 0, BuildingBlock: KUFVIS_clean_sbu_0, # of connection points: 4
#     Node 29, Type 0, BuildingBlock: KUFVIS_clean_sbu_0, # of connection points: 4
#     Node 30, Type 0, BuildingBlock: KUFVIS_clean_sbu_0, # of connection points: 4
#     Node 31, Type 0, BuildingBlock: KUFVIS_clean_sbu_0, # of connection points: 4
#     Edge 32, Type (0, 0), BuildingBlock: UVAHIK_clean_linker_0, # of connection points: 2
#     Edge 33, Type (0, 0), BuildingBlock: UVAHIK_clean_linker_0, # of connection points: 2
#     Edge 34, Type (0, 0), BuildingBlock: UVAHIK_clean_linker_0, # of connection points: 2
#     Edge 35, Type (0, 0), BuildingBlock: UVAHIK_clean_linker_0, # of connection points: 2
#     Edge 36, Type (0, 0), BuildingBlock: UVAHIK_clean_linker_0, # of connection points: 2
#     Edge 37, Type (0, 0), BuildingBlock: UVAHIK_clean_linker_0, # of connection points: 2
#     Edge 38, Type (0, 0), BuildingBlock: UVAHIK_clean_linker_0, # of connection points: 2
#     Edge 39, Type (0, 0), BuildingBlock: UVAHIK_clean_linker_0, # of connection points: 2
#     Edge 40, Type (0, 0), BuildingBlock: UVAHIK_clean_linker_0, # of connection points: 2
#     Edge 41, Type (0, 0), BuildingBlock: UVAHIK_clean_linker_0, # of connection points: 2
#     Edge 42, Type (0, 0), BuildingBlock: UVAHIK_clean_linker_0, # of connection points: 2
#     Edge 43, Type (0, 0), BuildingBlock: UVAHIK_clean_linker_0, # of connection points: 2
#     Edge 44, Type (0, 0), BuildingBlock: UVAHIK_clean_linker_0, # of connection points: 2
#     Edge 45, Type (0, 0), BuildingBlock: UVAHIK_clean_linker_0, # of connection points: 2
#     Edge 46, Type (0, 0), BuildingBlock: UVAHIK_clean_linker_0, # of connection points: 2
#     Edge 47, Type (0, 0), BuildingBlock: UVAHIK_clean_linker_0, # of connection points: 2
#     Edge 48, Type (0, 0), BuildingBlock: UVAHIK_clean_linker_0, # of connection points: 2
#     Edge 49, Type (0, 0), BuildingBlock: UVAHIK_clean_linker_0, # of connection points: 2
#     Edge 50, Type (0, 0), BuildingBlock: UVAHIK_clean_linker_0, # of connection points: 2
#     Edge 51, Type (0, 0), BuildingBlock: UVAHIK_clean_linker_0, # of connection points: 2
#     Edge 52, Type (0, 0), BuildingBlock: UVAHIK_clean_linker_0, # of connection points: 2
#     Edge 53, Type (0, 0), BuildingBlock: UVAHIK_clean_linker_0, # of connection points: 2
#     Edge 54, Type (0, 0), BuildingBlock: UVAHIK_clean_linker_0, # of connection points: 2
#     Edge 55, Type (0, 0), BuildingBlock: UVAHIK_clean_linker_0, # of connection points: 2
#     Edge 56, Type (0, 0), BuildingBlock: UVAHIK_clean_linker_0, # of connection points: 2
#     Edge 57, Type (0, 0), BuildingBlock: UVAHIK_clean_linker_0, # of connection points: 2
#     Edge 58, Type (0, 0), BuildingBlock: UVAHIK_clean_linker_0, # of connection points: 2
#     Edge 59, Type (0, 0), BuildingBlock: UVAHIK_clean_linker_0, # of connection points: 2
#     Edge 60, Type (0, 0), BuildingBlock: UVAHIK_clean_linker_0, # of connection points: 2
#     Edge 61, Type (0, 0), BuildingBlock: UVAHIK_clean_linker_0, # of connection points: 2
#     Edge 62, Type (0, 0), BuildingBlock: UVAHIK_clean_linker_0, # of connection points: 2
#     Edge 63, Type (0, 0), BuildingBlock: UVAHIK_clean_linker_0, # of connection points: 2
#     Edge 64, Type (0, 0), BuildingBlock: UVAHIK_clean_linker_0, # of connection points: 2
#     Edge 65, Type (0, 0), BuildingBlock: UVAHIK_clean_linker_0, # of connection points: 2
#     Edge 66, Type (0, 0), BuildingBlock: UVAHIK_clean_linker_0, # of connection points: 2
#     Edge 67, Type (0, 0), BuildingBlock: UVAHIK_clean_linker_0, # of connection points: 2
#     Edge 68, Type (0, 0), BuildingBlock: UVAHIK_clean_linker_0, # of connection points: 2
#     Edge 69, Type (0, 0), BuildingBlock: UVAHIK_clean_linker_0, # of connection points: 2
#     Edge 70, Type (0, 0), BuildingBlock: UVAHIK_clean_linker_0, # of connection points: 2
#     Edge 71, Type (0, 0), BuildingBlock: UVAHIK_clean_linker_0, # of connection points: 2
#     Edge 72, Type (0, 0), BuildingBlock: UVAHIK_clean_linker_0, # of connection points: 2
#     Edge 73, Type (0, 0), BuildingBlock: UVAHIK_clean_linker_0, # of connection points: 2
#     Edge 74, Type (0, 0), BuildingBlock: UVAHIK_clean_linker_0, # of connection points: 2
#     Edge 75, Type (0, 0), BuildingBlock: UVAHIK_clean_linker_0, # of connection points: 2
#     Edge 76, Type (0, 0), BuildingBlock: UVAHIK_clean_linker_0, # of connection points: 2
#     Edge 77, Type (0, 0), BuildingBlock: UVAHIK_clean_linker_0, # of connection points: 2
#     Edge 78, Type (0, 0), BuildingBlock: UVAHIK_clean_linker_0, # of connection points: 2
#     Edge 79, Type (0, 0), BuildingBlock: UVAHIK_clean_linker_0, # of connection points: 2
#     Edge 80, Type (0, 0), BuildingBlock: UVAHIK_clean_linker_0, # of connection points: 2
#     Edge 81, Type (0, 0), BuildingBlock: UVAHIK_clean_linker_0, # of connection points: 2
#     Edge 82, Type (0, 0), BuildingBlock: UVAHIK_clean_linker_0, # of connection points: 2
#     Edge 83, Type (0, 0), BuildingBlock: UVAHIK_clean_linker_0, # of connection points: 2
#     Edge 84, Type (0, 0), BuildingBlock: UVAHIK_clean_linker_0, # of connection points: 2
#     Edge 85, Type (0, 0), BuildingBlock: UVAHIK_clean_linker_0, # of connection points: 2
#     Edge 86, Type (0, 0), BuildingBlock: UVAHIK_clean_linker_0, # of connection points: 2
#     Edge 87, Type (0, 0), BuildingBlock: UVAHIK_clean_linker_0, # of connection points: 2
#     Edge 88, Type (0, 0), BuildingBlock: UVAHIK_clean_linker_0, # of connection points: 2
#     Edge 89, Type (0, 0), BuildingBlock: UVAHIK_clean_linker_0, # of connection points: 2
#     Edge 90, Type (0, 0), BuildingBlock: UVAHIK_clean_linker_0, # of connection points: 2
#     Edge 91, Type (0, 0), BuildingBlock: UVAHIK_clean_linker_0, # of connection points: 2
#     Edge 92, Type (0, 0), BuildingBlock: UVAHIK_clean_linker_0, # of connection points: 2
#     Edge 93, Type (0, 0), BuildingBlock: UVAHIK_clean_linker_0, # of connection points: 2
#     Edge 94, Type (0, 0), BuildingBlock: UVAHIK_clean_linker_0, # of connection points: 2
#     Edge 95, Type (0, 0), BuildingBlock: UVAHIK_clean_linker_0, # of connection points: 2
# Relax obj value: 0.131
# Max RMSD: 0.097
# Mean RMSD: 0.097
data_MOF--net-umu--node1-KUFVIS_clean_sbu_0--edge1-UVAHIK_clean_linker_0
_symmetry_space_group_name_H-M    P1
_symmetry_Int_Tables_number       1
_symmetry_cell_setting            triclinic
loop_
_symmetry_equiv_pos_as_xyz
'x, y, z'
_cell_length_a     108.56678
_cell_length_b     108.55084
_cell_length_c     32.378311
_cell_angle_alpha  90.01
_cell_angle_beta   89.989081
_cell_angle_gamma 89.999263
loop_
_atom_site_label
_atom_site_type_symbol
_atom_site_fract_x
_atom_site_fract_y
_atom_site_fract_z
_atom_type_partial_charge
Mn0 Mn 0.20206 0.16109 0.06014 0.0
Mn1 Mn 0.23207 0.16887 0.06889 0.0
C2 C 0.21324 0.16691 0.0024 0.0
C3 C 0.18722 0.1458 0.04832 0.0
C4 C 0.21094 0.18572 0.09431 0.0
O5 O 0.20673 0.15469 0.11786 0.0
O6 O 0.22725 0.15813 0.11539 0.0
C7 C 0.24313 0.14425 0.05574 0.0
N8 N 0.24217 0.15634 0.04501 0.0
C9 C 0.25759 0.15403 0.9922 0.0
C10 C 0.25883 0.14158 0.00294 0.0
C11 C 0.25151 0.13665 0.03471 0.0
C12 C 0.249 0.16112 0.01401 0.0
H13 H 0.23751 0.14044 0.08008 0.0
C14 C 0.21762 0.15373 0.13267 0.0
O15 O 0.18432 0.15616 0.066 0.0
O16 O 0.19877 0.1441 0.04007 0.0
N17 N 0.23809 0.17925 0.02554 0.0
C18 C 0.23563 0.19138 0.01846 0.0
C19 C 0.24208 0.19767 0.98732 0.0
C20 C 0.25112 0.19148 0.96422 0.0
C21 C 0.25365 0.17906 0.97255 0.0
C22 C 0.24694 0.17328 0.004 0.0
H23 H 0.22881 0.19624 0.03642 0.0
O24 O 0.20132 0.1672 0.00164 0.0
O25 O 0.21819 0.163 0.03634 0.0
O26 O 0.20209 0.17892 0.08162 0.0
O27 O 0.22226 0.18246 0.093 0.0
C28 C 0.26254 0.17218 0.95079 0.0
C29 C 0.26447 0.15966 0.9605 0.0
H30 H 0.26531 0.1357 0.98685 0.0
H31 H 0.25235 0.12703 0.04301 0.0
H32 H 0.24011 0.20727 0.9812 0.0
H33 H 0.25604 0.19635 0.94011 0.0
H34 H 0.26784 0.17639 0.92621 0.0
H35 H 0.27122 0.15442 0.94318 0.0
Mn36 Mn 0.09064 0.956 0.3085 0.0
Mn37 Mn 0.08154 0.98562 0.31786 0.0
C38 C 0.08325 0.96672 0.25174 0.0
C39 C 0.10635 0.94186 0.29358 0.0
C40 C 0.06626 0.96381 0.34735 0.0
O41 O 0.09797 0.96124 0.36442 0.0
O42 O 0.09331 0.98154 0.36235 0.0
C43 C 0.10528 0.99787 0.29946 0.0
N44 N 0.0931 0.99625 0.29117 0.0
C45 C 0.09368 0.01156 0.23749 0.0
C46 C 0.10621 0.0135 0.24578 0.0
C47 C 0.11205 0.00656 0.27673 0.0
C48 C 0.08744 0.00269 0.26092 0.0
H49 H 0.1098 0.99254 0.32313 0.0
C50 C 0.09858 0.97222 0.37882 0.0
O51 O 0.09661 0.93856 0.31419 0.0
O52 O 0.10726 0.95343 0.28437 0.0
N53 N 0.07016 0.99088 0.27628 0.0
C54 C 0.05811 0.98765 0.2713 0.0
C55 C 0.051 0.99355 0.24095 0.0
C56 C 0.05629 0.00283 0.21645 0.0
C57 C 0.06864 0.00613 0.22255 0.0
C58 C 0.07527 0.99993 0.25327 0.0
H59 H 0.05395 0.98063 0.29032 0.0
O60 O 0.08344 0.95478 0.25142 0.0
O61 O 0.08751 0.97191 0.28474 0.0
O62 O 0.0733 0.95526 0.33388 0.0
O63 O 0.06891 0.97527 0.34494 0.0
C64 C 0.07465 0.01529 0.19922 0.0
C65 C 0.08716 0.01799 0.20666 0.0
H66 H 0.11145 0.02021 0.22836 0.0
H67 H 0.12174 0.00794 0.28311 0.0
H68 H 0.04147 0.99098 0.23653 0.0
H69 H 0.05079 0.00734 0.19298 0.0
H70 H 0.06977 0.02022 0.17516 0.0
H71 H 0.09172 0.02495 0.18819 0.0
Mn72 Mn 0.29879 0.84091 0.56403 0.0
Mn73 Mn 0.2688 0.83291 0.57172 0.0
C74 C 0.28785 0.83495 0.50596 0.0
C75 C 0.3136 0.85626 0.55274 0.0
C76 C 0.28995 0.81616 0.59754 0.0
O77 O 0.2939 0.84734 0.62149 0.0
O78 O 0.27344 0.84354 0.61873 0.0
C79 C 0.25767 0.85751 0.55905 0.0
N80 N 0.2587 0.84546 0.54798 0.0
C81 C 0.24353 0.84789 0.49442 0.0
C82 C 0.24222 0.86031 0.50552 0.0
C83 C 0.24936 0.86515 0.53785 0.0
C84 C 0.252 0.84075 0.51654 0.0
H85 H 0.26317 0.86127 0.58377 0.0
C86 C 0.28297 0.8481 0.63618 0.0
O87 O 0.31648 0.84592 0.57061 0.0
O88 O 0.30209 0.8579 0.54391 0.0
N89 N 0.26296 0.82263 0.52784 0.0
C90 C 0.26557 0.81056 0.52024 0.0
C91 C 0.25927 0.80434 0.48862 0.0
C92 C 0.25025 0.81054 0.46551 0.0
C93 C 0.24763 0.82293 0.47413 0.0
C94 C 0.25415 0.82862 0.50618 0.0
H95 H 0.27239 0.8057 0.5382 0.0
O96 O 0.29978 0.83473 0.50573 0.0
O97 O 0.28274 0.8389 0.53961 0.0
O98 O 0.29878 0.82309 0.58563 0.0
O99 O 0.2786 0.8193 0.59565 0.0
C100 C 0.23884 0.82986 0.45211 0.0
C101 C 0.23686 0.84236 0.46202 0.0
H102 H 0.23582 0.86623 0.48925 0.0
H103 H 0.24846 0.87475 0.54643 0.0
H104 H 0.26133 0.79478 0.4822 0.0
H105 H 0.2454 0.80569 0.44123 0.0
H106 H 0.23362 0.8257 0.42725 0.0
H107 H 0.23022 0.84764 0.44445 0.0
Mn108 Mn 0.40935 0.04929 0.81038 0.0
Mn109 Mn 0.41993 0.02008 0.81854 0.0
C110 C 0.41537 0.03845 0.75216 0.0
C111 C 0.39319 0.06323 0.79985 0.0
C112 C 0.43522 0.04263 0.84033 0.0
O113 O 0.40381 0.04422 0.86876 0.0
O114 O 0.40974 0.02425 0.86718 0.0
C115 C 0.39609 0.00701 0.81128 0.0
N116 N 0.40782 0.00888 0.79786 0.0
C117 C 0.40568 0.99321 0.74579 0.0
C118 C 0.39361 0.99102 0.75933 0.0
C119 C 0.38877 0.998 0.79209 0.0
C120 C 0.41249 0.00237 0.76591 0.0
H121 H 0.39234 0.01237 0.83633 0.0
C122 C 0.40441 0.0334 0.88445 0.0
O123 O 0.40347 0.06665 0.8169 0.0
O124 O 0.39199 0.05159 0.79185 0.0
N125 N 0.42989 0.0147 0.77319 0.0
C126 C 0.44163 0.01807 0.76339 0.0
C127 C 0.44778 0.01204 0.73102 0.0
C128 C 0.44188 0.00249 0.70944 0.0
C129 C 0.42989 0.99903 0.72054 0.0
C130 C 0.42423 0.00534 0.75316 0.0
H131 H 0.44628 0.02531 0.78011 0.0
O132 O 0.41483 0.05037 0.7513 0.0
O133 O 0.41225 0.03326 0.78664 0.0
O134 O 0.42726 0.05071 0.82976 0.0
O135 O 0.43316 0.03103 0.83918 0.0
C136 C 0.4233 0.9896 0.70041 0.0
C137 C 0.41118 0.98673 0.71289 0.0
H138 H 0.38795 0.98407 0.74464 0.0
H139 H 0.37944 0.99643 0.80255 0.0
H140 H 0.45706 0.01473 0.72275 0.0
H141 H 0.44663 0.99791 0.68434 0.0
H142 H 0.42741 0.98459 0.67497 0.0
H143 H 0.40615 0.97957 0.6968 0.0
Mn144 Mn 0.20478 0.84264 0.07992 0.0
Mn145 Mn 0.23452 0.83387 0.07183 0.0
C146 C 0.2155 0.83591 0.13754 0.0
C147 C 0.19045 0.85832 0.09318 0.0
C148 C 0.21295 0.81802 0.04371 0.0
O149 O 0.20995 0.84946 0.02321 0.0
O150 O 0.2303 0.8451 0.02597 0.0
C151 C 0.24636 0.85799 0.08752 0.0
N152 N 0.24494 0.84587 0.09723 0.0
C153 C 0.26017 0.84726 0.15098 0.0
C154 C 0.2619 0.85973 0.14128 0.0
C155 C 0.25491 0.86513 0.10957 0.0
C156 C 0.25144 0.84064 0.12819 0.0
H157 H 0.241 0.86216 0.06323 0.0
C158 C 0.22092 0.85005 0.00879 0.0
O159 O 0.18727 0.84836 0.07356 0.0
O160 O 0.20201 0.85945 0.10223 0.0
N161 N 0.23996 0.82299 0.11466 0.0
C162 C 0.237 0.81093 0.12078 0.0
C163 C 0.24304 0.80421 0.15184 0.0
C164 C 0.25218 0.80991 0.17586 0.0
C165 C 0.25522 0.82227 0.16855 0.0
C166 C 0.2489 0.82849 0.13714 0.0
H167 H 0.23009 0.80644 0.10211 0.0
O168 O 0.20357 0.83597 0.13768 0.0
O169 O 0.2207 0.83994 0.1042 0.0
O170 O 0.20428 0.82506 0.05634 0.0
O171 O 0.22438 0.82082 0.04613 0.0
C172 C 0.26424 0.82868 0.19128 0.0
C173 C 0.26669 0.84118 0.18258 0.0
H174 H 0.2685 0.86527 0.15816 0.0
H175 H 0.25613 0.87477 0.10208 0.0
H176 H 0.24067 0.79466 0.15718 0.0
H177 H 0.25679 0.80472 0.19988 0.0
H178 H 0.26925 0.82412 0.21585 0.0
H179 H 0.27354 0.84604 0.20061 0.0
Mn180 Mn 0.41158 0.95345 0.32855 0.0
Mn181 Mn 0.42076 0.98307 0.31831 0.0
C182 C 0.41738 0.96485 0.38587 0.0
C183 C 0.39597 0.93897 0.34056 0.0
C184 C 0.43705 0.96114 0.29731 0.0
O185 O 0.4056 0.95792 0.27015 0.0
O186 O 0.41079 0.9781 0.27006 0.0
C187 C 0.39631 0.995 0.32469 0.0
N188 N 0.40813 0.99381 0.33815 0.0
C189 C 0.40526 0.00979 0.38873 0.0
C190 C 0.39309 0.01127 0.37513 0.0
C191 C 0.38858 0.0038 0.3431 0.0
C192 C 0.4125 1.00082 0.36936 0.0
H193 H 0.39281 0.98925 0.3002 0.0
C194 C 0.40578 0.96864 0.2536 0.0
O195 O 0.40633 0.93581 0.32346 0.0
O196 O 0.39441 0.9506 0.34798 0.0
N197 N 0.43045 0.98924 0.36313 0.0
C198 C 0.4423 0.98642 0.37336 0.0
C199 C 0.44817 0.993 0.40508 0.0
C200 C 0.44188 0.00251 0.42555 0.0
C201 C 0.42973 0.00533 0.41423 0.0
C202 C 0.42438 0.9985 0.38227 0.0
H203 H 0.44725 0.97922 0.35741 0.0
O204 O 0.41737 0.95292 0.38734 0.0
O205 O 0.41384 0.96973 0.35133 0.0
O206 O 0.4295 0.95272 0.30824 0.0
O207 O 0.43447 0.97263 0.29838 0.0
C208 C 0.42272 0.01464 0.43343 0.0
C209 C 0.41046 0.01679 0.42095 0.0
H210 H 0.38711 0.01806 0.38922 0.0
H211 H 0.37917 0.00483 0.3326 0.0
H212 H 0.45755 0.99079 0.41359 0.0
H213 H 0.44647 0.00759 0.44989 0.0
H214 H 0.42663 0.02015 0.45804 0.0
H215 H 0.40511 0.02385 0.43637 0.0
Mn216 Mn 0.29632 0.16117 0.57565 0.0
Mn217 Mn 0.26643 0.16956 0.56932 0.0
C218 C 0.2857 0.16727 0.63421 0.0
C219 C 0.31095 0.14562 0.58636 0.0
C220 C 0.2877 0.18601 0.5424 0.0
O221 O 0.29113 0.1548 0.51842 0.0
O222 O 0.27073 0.15883 0.52218 0.0
C223 C 0.25505 0.14511 0.58277 0.0
N224 N 0.25626 0.15716 0.59363 0.0
C225 C 0.24126 0.15497 0.64784 0.0
C226 C 0.23975 0.14256 0.63694 0.0
C227 C 0.24673 0.13759 0.60439 0.0
C228 C 0.24974 0.16198 0.62531 0.0
H229 H 0.26043 0.14126 0.55791 0.0
C230 C 0.28014 0.15416 0.50428 0.0
O231 O 0.31392 0.15591 0.56835 0.0
O232 O 0.29945 0.14414 0.59564 0.0
N233 N 0.26091 0.17994 0.6134 0.0
C234 C 0.26373 0.19197 0.62084 0.0
C235 C 0.25763 0.19829 0.65267 0.0
C236 C 0.2486 0.19224 0.67618 0.0
C237 C 0.24577 0.17989 0.66774 0.0
C238 C 0.2521 0.17408 0.63548 0.0
H239 H 0.27055 0.19673 0.60257 0.0
O240 O 0.29763 0.16734 0.6339 0.0
O241 O 0.28041 0.1634 0.60078 0.0
O242 O 0.29649 0.17898 0.55401 0.0
O243 O 0.27631 0.18303 0.54481 0.0
C244 C 0.23695 0.1731 0.69014 0.0
C245 C 0.23478 0.16062 0.68044 0.0
H246 H 0.23334 0.13673 0.65354 0.0
H247 H 0.24568 0.128 0.59597 0.0
H248 H 0.25985 0.20783 0.65895 0.0
H249 H 0.2439 0.19717 0.70062 0.0
H250 H 0.23186 0.17735 0.71514 0.0
H251 H 0.22812 0.15544 0.69831 0.0
Mn252 Mn 0.09014 0.04816 0.82299 0.0
Mn253 Mn 0.08214 0.01815 0.81699 0.0
C254 C 0.0835 0.03771 0.88123 0.0
C255 C 0.10542 0.06301 0.83484 0.0
C256 C 0.06576 0.03913 0.7873 0.0
O257 O 0.09719 0.0428 0.76681 0.0
O258 O 0.09338 0.02236 0.77106 0.0
C259 C 0.10653 0.0071 0.83427 0.0
N260 N 0.09434 0.0082 0.84338 0.0
C261 C 0.09605 0.99345 0.89856 0.0
C262 C 0.10859 0.99204 0.8894 0.0
C263 C 0.11387 0.99895 0.85725 0.0
C264 C 0.08922 0.00175 0.87469 0.0
H265 H 0.11063 0.01246 0.80981 0.0
C266 C 0.09813 0.03175 0.7533 0.0
O267 O 0.0953 0.06578 0.81548 0.0
O268 O 0.10691 0.05156 0.84486 0.0
N269 N 0.07132 0.0127 0.85996 0.0
C270 C 0.05919 0.01545 0.86578 0.0
C271 C 0.05257 0.00945 0.89715 0.0
C272 C 0.05843 1.00059 0.92187 0.0
C273 C 0.07089 0.99782 0.91507 0.0
C274 C 0.07699 0.00404 0.88319 0.0
H275 H 0.05458 0.02215 0.8466 0.0
O276 O 0.08333 0.04964 0.8804 0.0
O277 O 0.0878 0.03232 0.84856 0.0
O278 O 0.07258 0.04804 0.79933 0.0
O279 O 0.06886 0.02779 0.79036 0.0
C280 C 0.0775 0.98918 0.93878 0.0
C281 C 0.0901 0.98707 0.93076 0.0
H282 H 0.11428 0.98576 0.90707 0.0
H283 H 0.12357 0.99799 0.85021 0.0
H284 H 0.04296 0.01163 0.90217 0.0
H285 H 0.05329 0.99599 0.94601 0.0
H286 H 0.07302 0.98418 0.96353 0.0
H287 H 0.09513 0.98055 0.94965 0.0
Mn288 Mn 0.79947 0.8406 0.07743 0.0
Mn289 Mn 0.7695 0.83255 0.07029 0.0
C290 C 0.78863 0.83463 0.13568 0.0
C291 C 0.81427 0.85596 0.08873 0.0
C292 C 0.79064 0.81586 0.04393 0.0
O293 O 0.79449 0.84705 0.02009 0.0
O294 O 0.77404 0.84322 0.02326 0.0
C295 C 0.75835 0.85714 0.08334 0.0
N296 N 0.75941 0.84508 0.09429 0.0
C297 C 0.74431 0.84747 0.14812 0.0
C298 C 0.74296 0.85989 0.13713 0.0
C299 C 0.75006 0.86476 0.10473 0.0
C300 C 0.75276 0.84035 0.12582 0.0
H301 H 0.76383 0.86092 0.05859 0.0
C302 C 0.78354 0.84779 0.00564 0.0
O303 O 0.81715 0.84565 0.07069 0.0
O304 O 0.80275 0.85758 0.0976 0.0
N305 N 0.76375 0.82226 0.11424 0.0
C306 C 0.76641 0.8102 0.12179 0.0
C307 C 0.76018 0.80396 0.15349 0.0
C308 C 0.75117 0.81012 0.17677 0.0
C309 C 0.7485 0.8225 0.16822 0.0
C310 C 0.75496 0.82822 0.13609 0.0
H311 H 0.77322 0.80535 0.1037 0.0
O312 O 0.80056 0.83441 0.1357 0.0
O313 O 0.78347 0.83856 0.10212 0.0
O314 O 0.79948 0.8228 0.05573 0.0
O315 O 0.77928 0.81897 0.04609 0.0
C316 C 0.73971 0.8294 0.1904 0.0
C317 C 0.7377 0.8419 0.1806 0.0
H318 H 0.73658 0.86579 0.15355 0.0
H319 H 0.74914 0.87436 0.09624 0.0
H320 H 0.76227 0.7944 0.15987 0.0
H321 H 0.74636 0.80526 0.20113 0.0
H322 H 0.73453 0.82523 0.21532 0.0
H323 H 0.73106 0.84716 0.1983 0.0
Mn324 Mn 0.91094 0.04782 0.82726 0.0
Mn325 Mn 0.91872 0.01776 0.82087 0.0
C326 C 0.91696 0.03711 0.88574 0.0
C327 C 0.8957 0.06277 0.83831 0.0
C328 C 0.93549 0.03869 0.79317 0.0
O329 O 0.90436 0.04271 0.77018 0.0
O330 O 0.90793 0.02222 0.7741 0.0
C331 C 0.89411 0.00683 0.83531 0.0
N332 N 0.90622 0.00783 0.84572 0.0
C333 C 0.90394 0.99288 0.90003 0.0
C334 C 0.89147 0.99159 0.88961 0.0
C335 C 0.88652 0.99865 0.85724 0.0
C336 C 0.91103 1.00123 0.87721 0.0
H337 H 0.89028 0.01228 0.81058 0.0
C338 C 0.90345 0.03171 0.75618 0.0
O339 O 0.906 0.06551 0.81998 0.0
O340 O 0.89402 0.0513 0.84769 0.0
N341 N 0.92914 0.01207 0.86459 0.0
C342 C 0.94124 0.01467 0.87152 0.0
C343 C 0.94757 0.00846 0.90308 0.0
C344 C 0.94144 0.99954 0.92683 0.0
C345 C 0.92901 0.99694 0.91892 0.0
C346 C 0.9232 0.00338 0.8869 0.0
H347 H 0.94606 0.0214 0.85305 0.0
O348 O 0.91726 0.04903 0.88537 0.0
O349 O 0.91292 0.03188 0.85243 0.0
O350 O 0.92868 0.04762 0.8051 0.0
O351 O 0.93228 0.02737 0.79575 0.0
C352 C 0.92214 0.98825 0.94161 0.0
C353 C 0.90959 0.9863 0.93241 0.0
H354 H 0.88559 0.98528 0.90644 0.0
H355 H 0.87689 0.99777 0.8492 0.0
H356 H 0.95717 0.0105 0.90896 0.0
H357 H 0.94637 0.99475 0.95104 0.0
H358 H 0.92638 0.9831 0.96646 0.0
H359 H 0.90435 0.97974 0.9505 0.0
Mn360 Mn 0.70406 0.16081 0.57944 0.0
Mn361 Mn 0.73368 0.17009 0.57155 0.0
C362 C 0.71483 0.16718 0.63738 0.0
C363 C 0.68975 0.14503 0.59131 0.0
C364 C 0.71186 0.18601 0.5463 0.0
O365 O 0.70913 0.15446 0.52208 0.0
O366 O 0.72933 0.15955 0.52398 0.0
C367 C 0.74573 0.14584 0.58242 0.0
N368 N 0.74429 0.15779 0.59427 0.0
C369 C 0.75963 0.1556 0.6474 0.0
C370 C 0.76137 0.1433 0.63548 0.0
C371 C 0.75434 0.13839 0.60297 0.0
C372 C 0.75087 0.16255 0.62589 0.0
H373 H 0.74032 0.14203 0.55758 0.0
C374 C 0.72002 0.15443 0.50688 0.0
O375 O 0.68654 0.15521 0.57312 0.0
O376 O 0.70132 0.14375 0.59999 0.0
N377 N 0.73925 0.18033 0.61592 0.0
C378 C 0.73621 0.19225 0.62435 0.0
C379 C 0.74233 0.19851 0.65627 0.0
C380 C 0.75161 0.19251 0.67883 0.0
C381 C 0.75466 0.18028 0.66936 0.0
C382 C 0.7483 0.17454 0.63706 0.0
H383 H 0.72919 0.19696 0.60683 0.0
O384 O 0.7029 0.16704 0.63766 0.0
O385 O 0.72005 0.16342 0.60368 0.0
O386 O 0.70336 0.17857 0.55745 0.0
O387 O 0.72335 0.18346 0.5487 0.0
C388 C 0.76375 0.17355 0.69075 0.0
C389 C 0.76615 0.16118 0.68001 0.0
H390 H 0.768 0.13752 0.65125 0.0
H391 H 0.75557 0.12888 0.59376 0.0
H392 H 0.73994 0.20795 0.66336 0.0
H393 H 0.75632 0.19739 0.70336 0.0
H394 H 0.76887 0.17775 0.71574 0.0
H395 H 0.77302 0.15605 0.6971 0.0
Mn396 Mn 0.5925 0.95266 0.32202 0.0
Mn397 Mn 0.58339 0.98216 0.30723 0.0
C398 C 0.58791 0.96521 0.37773 0.0
C399 C 0.60796 0.93808 0.33467 0.0
C400 C 0.56666 0.9601 0.29337 0.0
O401 O 0.5978 0.95601 0.26218 0.0
O402 O 0.59245 0.97614 0.25837 0.0
C403 C 0.60776 0.99439 0.30493 0.0
N404 N 0.59627 0.99336 0.32148 0.0
C405 C 0.59965 0.01089 0.36552 0.0
C406 C 0.6115 0.01219 0.34881 0.0
C407 C 0.61559 0.00386 0.31853 0.0
C408 C 0.59229 1.00125 0.3509 0.0
H409 H 0.6109 0.98805 0.2815 0.0
C410 C 0.5973 0.96637 0.24337 0.0
O411 O 0.59733 0.93487 0.3197 0.0
O412 O 0.60986 0.94978 0.33947 0.0
N413 N 0.57457 0.9892 0.35261 0.0
C414 C 0.56323 0.98616 0.36753 0.0
C415 C 0.558 0.99327 0.39924 0.0
C416 C 0.56437 0.00354 0.41477 0.0
C417 C 0.57597 0.00655 0.39859 0.0
C418 C 0.58076 0.99908 0.36725 0.0
H419 H 0.55823 0.97836 0.35542 0.0
O420 O 0.58757 0.95333 0.38151 0.0
O421 O 0.59092 0.96942 0.34163 0.0
O422 O 0.57428 0.95177 0.30448 0.0
O423 O 0.56935 0.97154 0.29242 0.0
C424 C 0.58302 0.01661 0.41262 0.0
C425 C 0.59489 0.01872 0.39637 0.0
H426 H 0.61756 0.01949 0.35918 0.0
H427 H 0.62473 0.00477 0.30558 0.0
H428 H 0.54904 0.99088 0.41156 0.0
H429 H 0.56031 0.009 0.43925 0.0
H430 H 0.57947 0.02266 0.43642 0.0
H431 H 0.60033 0.02632 0.40807 0.0
Mn432 Mn 0.79864 0.16058 0.06299 0.0
Mn433 Mn 0.76867 0.16854 0.07138 0.0
C434 C 0.78755 0.16643 0.00509 0.0
C435 C 0.81344 0.14525 0.05133 0.0
C436 C 0.78986 0.18527 0.09694 0.0
O437 O 0.79387 0.15422 0.12072 0.0
O438 O 0.77336 0.15779 0.11799 0.0
C439 C 0.75748 0.14398 0.05819 0.0
N440 N 0.75851 0.15606 0.04744 0.0
C441 C 0.74314 0.15382 0.99447 0.0
C442 C 0.74182 0.14137 0.00525 0.0
C443 C 0.74908 0.13642 0.03709 0.0
C444 C 0.75174 0.16086 0.01635 0.0
H445 H 0.76306 0.14014 0.08258 0.0
C446 C 0.78295 0.15334 0.13543 0.0
O447 O 0.81635 0.15559 0.06908 0.0
O448 O 0.8019 0.14357 0.04299 0.0
N449 N 0.76275 0.17893 0.02791 0.0
C450 C 0.7653 0.19104 0.02078 0.0
C451 C 0.75893 0.19735 0.98953 0.0
C452 C 0.74987 0.19121 0.96637 0.0
C453 C 0.74725 0.17882 0.97475 0.0
C454 C 0.75389 0.17301 0.00631 0.0
H455 H 0.77213 0.19587 0.03879 0.0
O456 O 0.79947 0.16666 0.00447 0.0
O457 O 0.78255 0.16256 0.039 0.0
O458 O 0.79867 0.17841 0.08437 0.0
O459 O 0.77852 0.18208 0.09555 0.0
C460 C 0.73835 0.17198 0.95293 0.0
C461 C 0.73633 0.15948 0.96267 0.0
H462 H 0.73532 0.13553 0.98911 0.0
H463 H 0.74817 0.12681 0.04541 0.0
H464 H 0.76097 0.20694 0.98338 0.0
H465 H 0.74501 0.1961 0.94219 0.0
H466 H 0.7331 0.17621 0.92827 0.0
H467 H 0.72957 0.15427 0.9453 0.0
Mn468 Mn 0.59105 0.04808 0.80758 0.0
Mn469 Mn 0.57963 0.01915 0.81011 0.0
C470 C 0.58767 0.03719 0.74725 0.0
C471 C 0.60713 0.0624 0.80247 0.0
C472 C 0.56358 0.04155 0.81875 0.0
O473 O 0.59472 0.04316 0.86734 0.0
O474 O 0.58476 0.02495 0.8654 0.0
C475 C 0.60306 0.00684 0.83266 0.0
N476 N 0.59311 0.00785 0.80723 0.0
C477 C 0.59942 0.99007 0.76826 0.0
C478 C 0.60969 0.9888 0.79414 0.0
C479 C 0.61155 0.99727 0.82635 0.0
C480 C 0.59133 0.99986 0.77581 0.0
H481 H 0.60449 0.01325 0.85766 0.0
C482 C 0.5906 0.03342 0.88466 0.0
O483 O 0.59631 0.06558 0.81588 0.0
O484 O 0.60885 0.05077 0.79543 0.0
N485 N 0.57435 0.01195 0.75914 0.0
C486 C 0.56433 0.0148 0.73569 0.0
C487 C 0.56129 0.00735 0.70175 0.0
C488 C 0.56845 0.99691 0.69272 0.0
C489 C 0.57868 0.99412 0.71741 0.0
C490 C 0.58129 0.00192 0.75071 0.0
H491 H 0.5588 0.02278 0.74259 0.0
O492 O 0.58761 0.04913 0.7472 0.0
O493 O 0.5895 0.03184 0.78263 0.0
O494 O 0.57241 0.04933 0.82076 0.0
O495 O 0.56519 0.03006 0.81235 0.0
C496 C 0.58648 0.98396 0.71006 0.0
C497 C 0.5969 0.98201 0.73522 0.0
H498 H 0.61624 0.98139 0.7895 0.0
H499 H 0.61947 0.99638 0.84641 0.0
H500 H 0.55342 0.00961 0.6827 0.0
H501 H 0.56605 0.99117 0.66657 0.0
H502 H 0.58463 0.97768 0.68484 0.0
H503 H 0.60293 0.97429 0.72883 0.0
Mn504 Mn 0.70515 0.84113 0.56219 0.0
Mn505 Mn 0.73518 0.83334 0.56965 0.0
C506 C 0.71611 0.83535 0.50395 0.0
C507 C 0.69027 0.85643 0.55117 0.0
C508 C 0.71414 0.81649 0.59582 0.0
O509 O 0.71003 0.8475 0.61975 0.0
O510 O 0.73054 0.84406 0.61642 0.0
C511 C 0.74618 0.85796 0.55616 0.0
N512 N 0.7452 0.84588 0.54543 0.0
C513 C 0.76045 0.8482 0.4921 0.0
C514 C 0.76173 0.86064 0.50285 0.0
C515 C 0.75451 0.86556 0.53487 0.0
C516 C 0.75193 0.84111 0.51416 0.0
H517 H 0.74064 0.86177 0.5807 0.0
C518 C 0.72097 0.84846 0.63413 0.0
O519 O 0.68744 0.84606 0.56891 0.0
O520 O 0.70178 0.85813 0.54237 0.0
N521 N 0.74104 0.82298 0.52599 0.0
C522 C 0.73854 0.81085 0.51893 0.0
C523 C 0.74489 0.80457 0.48753 0.0
C524 C 0.75386 0.81076 0.46415 0.0
C525 C 0.75643 0.82317 0.47246 0.0
C526 C 0.74982 0.82895 0.50417 0.0
H527 H 0.73178 0.80599 0.53711 0.0
O528 O 0.70418 0.83506 0.50368 0.0
O529 O 0.72118 0.83923 0.53772 0.0
O530 O 0.70526 0.8233 0.58355 0.0
O531 O 0.72546 0.81974 0.59408 0.0
C532 C 0.76526 0.83005 0.45045 0.0
C533 C 0.76724 0.84257 0.46015 0.0
H534 H 0.76816 0.86653 0.48656 0.0
H535 H 0.75538 0.87518 0.54318 0.0
H536 H 0.74289 0.79498 0.48143 0.0
H537 H 0.75871 0.8059 0.43986 0.0
H538 H 0.77049 0.82584 0.42569 0.0
H539 H 0.77394 0.8478 0.44264 0.0
Mn540 Mn 0.9117 0.9535 0.31214 0.0
Mn541 Mn 0.91938 0.98356 0.31995 0.0
C542 C 0.91742 0.96456 0.25402 0.0
C543 C 0.89653 0.93851 0.30101 0.0
C544 C 0.93629 0.96256 0.34598 0.0
O545 O 0.90529 0.95831 0.36973 0.0
O546 O 0.90868 0.97885 0.36667 0.0
C547 C 0.89472 0.99452 0.30666 0.0
N548 N 0.90681 0.99357 0.29585 0.0
C549 C 0.90443 0.00884 0.24262 0.0
C550 C 0.89198 0.01008 0.25344 0.0
C551 C 0.8871 0.00284 0.28545 0.0
C552 C 0.91155 1.00032 0.26461 0.0
H553 H 0.89095 0.98896 0.3312 0.0
C554 C 0.90431 0.96925 0.38425 0.0
O555 O 0.90691 0.93576 0.31874 0.0
O556 O 0.89473 0.95001 0.29225 0.0
N557 N 0.92971 0.98948 0.27631 0.0
C558 C 0.94183 0.98701 0.26916 0.0
C559 C 0.94808 0.99338 0.23775 0.0
C560 C 0.94186 0.00235 0.21446 0.0
C561 C 0.92945 0.00489 0.22285 0.0
C562 C 0.92371 0.99826 0.25456 0.0
H563 H 0.94671 0.98024 0.28727 0.0
O564 O 0.91778 0.95263 0.25361 0.0
O565 O 0.91352 0.96957 0.28786 0.0
O566 O 0.92951 0.95367 0.33354 0.0
O567 O 0.93301 0.97388 0.34432 0.0
C568 C 0.92254 0.01371 0.20091 0.0
C569 C 0.91003 0.01565 0.21069 0.0
H570 H 0.88608 0.01651 0.23722 0.0
H571 H 0.87748 0.00368 0.29382 0.0
H572 H 0.95768 0.9914 0.23158 0.0
H573 H 0.9467 0.00722 0.19016 0.0
H574 H 0.92672 0.01895 0.17614 0.0
H575 H 0.90477 0.02235 0.19324 0.0
Mn576 Mn 0.7057 0.66125 0.56399 0.0
Mn577 Mn 0.7357 0.66928 0.571 0.0
C578 C 0.71652 0.6673 0.50576 0.0
C579 C 0.69086 0.64595 0.55235 0.0
C580 C 0.71459 0.68596 0.59773 0.0
O581 O 0.71073 0.65471 0.62121 0.0
O582 O 0.73117 0.65859 0.61797 0.0
C583 C 0.74682 0.6447 0.55766 0.0
N584 N 0.74576 0.65677 0.54682 0.0
C585 C 0.76083 0.65441 0.49288 0.0
C586 C 0.76217 0.64198 0.50375 0.0
C587 C 0.75509 0.63709 0.53616 0.0
C588 C 0.75239 0.66152 0.5153 0.0
H589 H 0.74136 0.6409 0.58242 0.0
C590 C 0.72169 0.65398 0.6356 0.0
O591 O 0.68801 0.65622 0.5707 0.0
O592 O 0.70237 0.64431 0.54347 0.0
N593 N 0.74143 0.67961 0.52712 0.0
C594 C 0.73878 0.69168 0.51972 0.0
C595 C 0.745 0.69794 0.48804 0.0
C596 C 0.75399 0.69179 0.46464 0.0
C597 C 0.75665 0.6794 0.47304 0.0
C598 C 0.7502 0.67366 0.50516 0.0
H599 H 0.73199 0.69652 0.53791 0.0
O600 O 0.70459 0.66755 0.50585 0.0
O601 O 0.7217 0.66331 0.5392 0.0
O602 O 0.70574 0.67902 0.586 0.0
O603 O 0.72594 0.68285 0.59539 0.0
C604 C 0.76541 0.67251 0.45073 0.0
C605 C 0.76743 0.66 0.46041 0.0
H606 H 0.76855 0.63609 0.48724 0.0
H607 H 0.75602 0.62749 0.54456 0.0
H608 H 0.74292 0.70751 0.48179 0.0
H609 H 0.75879 0.69667 0.44031 0.0
H610 H 0.77058 0.6767 0.42582 0.0
H611 H 0.77405 0.65475 0.44262 0.0
Mn612 Mn 0.59102 0.45429 0.81342 0.0
Mn613 Mn 0.58326 0.48433 0.82193 0.0
C614 C 0.58555 0.46555 0.75548 0.0
C615 C 0.60622 0.43931 0.80198 0.0
C616 C 0.56616 0.46325 0.84573 0.0
O617 O 0.59723 0.45889 0.87148 0.0
O618 O 0.5935 0.47938 0.86948 0.0
C619 C 0.60805 0.49526 0.8117 0.0
N620 N 0.59607 0.49441 0.79966 0.0
C621 C 0.59902 0.50982 0.74717 0.0
C622 C 0.61137 0.51095 0.75927 0.0
C623 C 0.61592 0.50359 0.79155 0.0
C624 C 0.59164 0.50131 0.76825 0.0
H625 H 0.61158 0.4896 0.83638 0.0
C626 C 0.59792 0.46975 0.88675 0.0
O627 O 0.59578 0.4365 0.81928 0.0
O628 O 0.60807 0.45085 0.79401 0.0
N629 N 0.57335 0.49048 0.77758 0.0
C630 C 0.56131 0.48803 0.76895 0.0
C631 C 0.55537 0.49456 0.7373 0.0
C632 C 0.5618 0.50365 0.7152 0.0
C633 C 0.57415 0.50608 0.72483 0.0
C634 C 0.57957 0.49933 0.75687 0.0
H635 H 0.55626 0.48117 0.78616 0.0
O636 O 0.58514 0.45363 0.7547 0.0
O637 O 0.58934 0.47047 0.78963 0.0
O638 O 0.5731 0.4544 0.83403 0.0
O639 O 0.56939 0.47458 0.84434 0.0
C640 C 0.58132 0.51492 0.70385 0.0
C641 C 0.59377 0.51671 0.71478 0.0
H642 H 0.61746 0.51737 0.74382 0.0
H643 H 0.62546 0.50435 0.8009 0.0
H644 H 0.54582 0.49265 0.73008 0.0
H645 H 0.55715 0.50869 0.69091 0.0
H646 H 0.57738 0.52031 0.67902 0.0
H647 H 0.59923 0.5234 0.698 0.0
Mn648 Mn 0.79577 0.34011 0.05893 0.0
Mn649 Mn 0.7662 0.33091 0.06857 0.0
C650 C 0.78488 0.33315 0.00194 0.0
C651 C 0.80979 0.35597 0.04459 0.0
C652 C 0.78811 0.3154 0.09581 0.0
O653 O 0.79074 0.34696 0.11573 0.0
O654 O 0.77046 0.34224 0.11416 0.0
C655 C 0.75393 0.35484 0.05333 0.0
N656 N 0.7555 0.34274 0.04359 0.0
C657 C 0.7401 0.34391 0.99033 0.0
C658 C 0.73822 0.35636 7e-05 0.0
C659 C 0.74521 0.36186 0.03157 0.0
C660 C 0.74898 0.33741 0.01286 0.0
H661 H 0.7593 0.3591 0.07745 0.0
C662 C 0.77983 0.34739 0.13073 0.0
O663 O 0.81322 0.3461 0.06425 0.0
O664 O 0.79818 0.35691 0.03617 0.0
N665 N 0.76075 0.31994 0.02603 0.0
C666 C 0.7639 0.30793 0.01972 0.0
C667 C 0.75789 0.30113 0.98879 0.0
C668 C 0.7486 0.30669 0.96507 0.0
C669 C 0.74538 0.319 0.97255 0.0
C670 C 0.75167 0.3253 0.00383 0.0
H671 H 0.77094 0.30355 0.03812 0.0
O672 O 0.79681 0.33335 0.00122 0.0
O673 O 0.77978 0.33715 0.03549 0.0
O674 O 0.79662 0.32256 0.08277 0.0
O675 O 0.77663 0.31803 0.09385 0.0
C676 C 0.73622 0.32527 0.95005 0.0
C677 C 0.7336 0.33773 0.95888 0.0
H678 H 0.73149 0.36179 0.98339 0.0
H679 H 0.74388 0.37148 0.03909 0.0
H680 H 0.76041 0.29162 0.98331 0.0
H681 H 0.74402 0.30143 0.94113 0.0
H682 H 0.73122 0.32065 0.92558 0.0
H683 H 0.72663 0.3425 0.94104 0.0
Mn684 Mn 0.9126 0.54885 0.31529 0.0
Mn685 Mn 0.92147 0.51903 0.32079 0.0
C686 C 0.91725 0.53795 0.25584 0.0
C687 C 0.89702 0.56357 0.30696 0.0
C688 C 0.93806 0.54058 0.34369 0.0
O689 O 0.90728 0.5437 0.37383 0.0
O690 O 0.91156 0.5233 0.37005 0.0
C691 C 0.89727 0.50662 0.31385 0.0
N692 N 0.90898 0.50829 0.29994 0.0
C693 C 0.90631 0.49278 0.24754 0.0
C694 C 0.89425 0.49081 0.26161 0.0
C695 C 0.8897 0.4978 0.29481 0.0
C696 C 0.91343 0.50167 0.26786 0.0
H697 H 0.89373 0.51201 0.33918 0.0
C698 C 0.90705 0.53272 0.38843 0.0
O699 O 0.9076 0.56648 0.323 0.0
O700 O 0.89524 0.55203 0.29873 0.0
N701 N 0.93103 0.51376 0.27431 0.0
C702 C 0.94248 0.51747 0.26243 0.0
C703 C 0.94815 0.5118 0.22837 0.0
C704 C 0.94204 0.50232 0.20711 0.0
C705 C 0.9303 0.4986 0.22006 0.0
C706 C 0.92512 0.50455 0.25431 0.0
H707 H 0.94725 0.52472 0.27869 0.0
O708 O 0.91756 0.54988 0.25566 0.0
O709 O 0.91427 0.53282 0.29055 0.0
O710 O 0.93077 0.54925 0.33306 0.0
O711 O 0.93515 0.52919 0.34208 0.0
C712 C 0.92341 0.48941 0.19978 0.0
C713 C 0.91142 0.48651 0.21348 0.0
H714 H 0.88836 0.48407 0.24683 0.0
H715 H 0.88037 0.4964 0.30564 0.0
H716 H 0.95721 0.51475 0.2185 0.0
H717 H 0.94641 0.49805 0.18065 0.0
H718 H 0.92716 0.48468 0.17313 0.0
H719 H 0.90612 0.47961 0.19713 0.0
Mn720 Mn 0.70192 0.34022 0.57569 0.0
Mn721 Mn 0.73169 0.33141 0.56748 0.0
C722 C 0.71276 0.33381 0.63341 0.0
C723 C 0.68743 0.35583 0.58787 0.0
C724 C 0.7101 0.31523 0.54181 0.0
O725 O 0.7069 0.34674 0.51846 0.0
O726 O 0.7272 0.3421 0.5204 0.0
C727 C 0.74339 0.35579 0.57959 0.0
N728 N 0.74212 0.34377 0.59083 0.0
C729 C 0.75744 0.34593 0.64404 0.0
C730 C 0.759 0.35831 0.63276 0.0
C731 C 0.7519 0.36327 0.60051 0.0
C732 C 0.74877 0.33895 0.62219 0.0
H733 H 0.73792 0.35963 0.55496 0.0
C734 C 0.7178 0.34706 0.50337 0.0
O735 O 0.68434 0.34564 0.5695 0.0
O736 O 0.69899 0.35721 0.59662 0.0
N737 N 0.73742 0.32106 0.6113 0.0
C738 C 0.73459 0.30904 0.61901 0.0
C739 C 0.74083 0.30271 0.65049 0.0
C740 C 0.75002 0.30874 0.67336 0.0
C741 C 0.75286 0.32107 0.66464 0.0
C742 C 0.74638 0.32688 0.63271 0.0
H743 H 0.72764 0.3043 0.60123 0.0
O744 O 0.70083 0.33385 0.6337 0.0
O745 O 0.71795 0.33774 0.59989 0.0
O746 O 0.70148 0.32249 0.55332 0.0
O747 O 0.72154 0.31799 0.54402 0.0
C748 C 0.76183 0.32784 0.68641 0.0
C749 C 0.76405 0.34029 0.67634 0.0
H750 H 0.76556 0.36411 0.64881 0.0
H751 H 0.75299 0.37283 0.5918 0.0
H752 H 0.73861 0.29319 0.65699 0.0
H753 H 0.75483 0.30381 0.69752 0.0
H754 H 0.76702 0.3236 0.71118 0.0
H755 H 0.77084 0.34544 0.6937 0.0
Mn756 Mn 0.91019 0.45271 0.83287 0.0
Mn757 Mn 0.92173 0.48161 0.83018 0.0
C758 C 0.91626 0.4625 0.89307 0.0
C759 C 0.89343 0.43937 0.84187 0.0
C760 C 0.93611 0.45894 0.80308 0.0
O761 O 0.90481 0.459 0.77568 0.0
O762 O 0.91122 0.47881 0.78108 0.0
C763 C 0.89877 0.49603 0.84038 0.0
N764 N 0.91035 0.49316 0.85328 0.0
C765 C 0.90924 0.50807 0.90822 0.0
C766 C 0.89735 0.51128 0.89519 0.0
C767 C 0.89208 0.50519 0.86122 0.0
C768 C 0.91549 0.4989 0.8861 0.0
H769 H 0.89467 0.49131 0.81455 0.0
C770 C 0.90562 0.47008 0.76218 0.0
O771 O 0.90345 0.43571 0.82359 0.0
O772 O 0.89284 0.45093 0.85154 0.0
N773 N 0.93193 0.48544 0.87673 0.0
C774 C 0.94304 0.48055 0.88744 0.0
C775 C 0.9493 0.48518 0.92208 0.0
C776 C 0.94412 0.49483 0.94518 0.0
C777 C 0.93271 0.49976 0.93345 0.0
C778 C 0.92692 0.49481 0.89854 0.0
H779 H 0.94709 0.47315 0.8698 0.0
O780 O 0.91558 0.45058 0.89182 0.0
O781 O 0.91352 0.46821 0.8592 0.0
O782 O 0.92805 0.45088 0.81282 0.0
O783 O 0.93435 0.47053 0.80673 0.0
C784 C 0.92673 0.50921 0.95555 0.0
C785 C 0.915 0.51335 0.94299 0.0
H786 H 0.89213 0.51828 0.91136 0.0
H787 H 0.88286 0.50754 0.8512 0.0
H788 H 0.95809 0.48131 0.93101 0.0
H789 H 0.94892 0.49831 0.97209 0.0
H790 H 0.93097 0.5132 0.98273 0.0
H791 H 0.91039 0.52044 0.96073 0.0
Mn792 Mn 0.80001 0.66072 0.0795 0.0
Mn793 Mn 0.77002 0.6686 0.07113 0.0
C794 C 0.78892 0.66662 0.13734 0.0
C795 C 0.81482 0.64542 0.09143 0.0
C796 C 0.79117 0.68537 0.04538 0.0
O797 O 0.79526 0.65428 0.02188 0.0
O798 O 0.77476 0.65786 0.02452 0.0
C799 C 0.75893 0.644 0.08436 0.0
N800 N 0.75991 0.65609 0.09509 0.0
C801 C 0.74456 0.6538 0.14812 0.0
C802 C 0.74328 0.64135 0.13736 0.0
C803 C 0.75055 0.63642 0.10549 0.0
C804 C 0.75313 0.66087 0.1262 0.0
H805 H 0.76451 0.64019 0.05994 0.0
C806 C 0.78435 0.6534 0.00715 0.0
O807 O 0.81774 0.65574 0.07354 0.0
O808 O 0.80327 0.64375 0.09974 0.0
N809 N 0.76407 0.67898 0.11458 0.0
C810 C 0.76657 0.69111 0.12168 0.0
C811 C 0.76018 0.6974 0.15294 0.0
C812 C 0.75116 0.69123 0.17615 0.0
C813 C 0.74858 0.67882 0.1678 0.0
C814 C 0.75523 0.67303 0.13622 0.0
H815 H 0.77338 0.69595 0.10364 0.0
O816 O 0.80084 0.66688 0.13792 0.0
O817 O 0.78392 0.6627 0.1035 0.0
O818 O 0.80001 0.67853 0.05786 0.0
O819 O 0.77983 0.68216 0.04695 0.0
C820 C 0.73971 0.67196 0.18965 0.0
C821 C 0.73773 0.65944 0.17993 0.0
H822 H 0.73681 0.63548 0.15353 0.0
H823 H 0.74968 0.6268 0.09718 0.0
H824 H 0.76219 0.70699 0.15907 0.0
H825 H 0.74628 0.6961 0.20035 0.0
H826 H 0.73445 0.67618 0.21433 0.0
H827 H 0.731 0.65422 0.19733 0.0
Mn828 Mn 0.59246 0.54949 0.32921 0.0
Mn829 Mn 0.58455 0.51944 0.32389 0.0
C830 C 0.58697 0.53882 0.3884 0.0
C831 C 0.60783 0.56439 0.33881 0.0
C832 C 0.56761 0.54039 0.29753 0.0
O833 O 0.59852 0.54429 0.27151 0.0
O834 O 0.59503 0.52381 0.27624 0.0
C835 C 0.60921 0.50844 0.33658 0.0
N836 N 0.59718 0.5095 0.34792 0.0
C837 C 0.59973 0.49449 0.40189 0.0
C838 C 0.61212 0.49314 0.39051 0.0
C839 C 0.6169 0.5002 0.35787 0.0
C840 C 0.59256 0.50294 0.3798 0.0
H841 H 0.6129 0.51387 0.31158 0.0
C842 C 0.59935 0.53326 0.25769 0.0
O843 O 0.5974 0.56717 0.32143 0.0
O844 O 0.60956 0.55291 0.34792 0.0
N845 N 0.5744 0.51383 0.36846 0.0
C846 C 0.56232 0.51638 0.37606 0.0
C847 C 0.55618 0.51019 0.40813 0.0
C848 C 0.56246 0.50131 0.43159 0.0
C849 C 0.57482 0.49867 0.42272 0.0
C850 C 0.58046 0.50512 0.39038 0.0
H851 H 0.55738 0.52307 0.35782 0.0
O852 O 0.58669 0.55075 0.38802 0.0
O853 O 0.59065 0.53358 0.35468 0.0
O854 O 0.57451 0.54933 0.3089 0.0
O855 O 0.57085 0.52907 0.29973 0.0
C856 C 0.58179 0.48991 0.44476 0.0
C857 C 0.59425 0.48787 0.43447 0.0
H858 H 0.61807 0.48676 0.40679 0.0
H859 H 0.62647 0.49927 0.34908 0.0
H860 H 0.54662 0.51224 0.41465 0.0
H861 H 0.55771 0.49658 0.45639 0.0
H862 H 0.57769 0.48481 0.47001 0.0
H863 H 0.59955 0.48123 0.45202 0.0
Mn864 Mn 0.29867 0.34112 0.57454 0.0
Mn865 Mn 0.26862 0.3335 0.56518 0.0
C866 C 0.28739 0.33525 0.632 0.0
C867 C 0.31359 0.35632 0.58669 0.0
C868 C 0.28969 0.31655 0.54009 0.0
O869 O 0.29412 0.34761 0.5168 0.0
O870 O 0.27358 0.34422 0.51881 0.0
C871 C 0.25771 0.35819 0.57823 0.0
N872 N 0.25855 0.34609 0.58889 0.0
C873 C 0.24299 0.34847 0.64121 0.0
C874 C 0.24187 0.36093 0.63053 0.0
C875 C 0.24932 0.36583 0.59906 0.0
C876 C 0.2516 0.34134 0.61963 0.0
H877 H 0.26342 0.36198 0.55409 0.0
C878 C 0.28326 0.3486 0.50175 0.0
O879 O 0.31644 0.34596 0.56892 0.0
O880 O 0.30205 0.35807 0.59491 0.0
N881 N 0.26242 0.32314 0.60828 0.0
C882 C 0.26474 0.31097 0.61522 0.0
C883 C 0.25814 0.3047 0.64604 0.0
C884 C 0.24908 0.31093 0.66892 0.0
C885 C 0.24668 0.32338 0.66068 0.0
C886 C 0.25354 0.32915 0.62958 0.0
H887 H 0.27157 0.30607 0.5974 0.0
O888 O 0.29931 0.33493 0.63293 0.0
O889 O 0.28249 0.33925 0.5981 0.0
O890 O 0.29855 0.32331 0.55284 0.0
O891 O 0.27838 0.31986 0.54125 0.0
C892 C 0.23777 0.3303 0.68217 0.0
C893 C 0.23597 0.34285 0.67258 0.0
H894 H 0.23538 0.36685 0.64644 0.0
H895 H 0.24856 0.37546 0.5908 0.0
H896 H 0.26 0.29507 0.65206 0.0
H897 H 0.24404 0.30607 0.69275 0.0
H898 H 0.23234 0.3261 0.70645 0.0
H899 H 0.22921 0.34812 0.68971 0.0
Mn900 Mn 0.41204 0.54832 0.32708 0.0
Mn901 Mn 0.42053 0.51843 0.32201 0.0
C902 C 0.41796 0.53784 0.38622 0.0
C903 C 0.39647 0.56298 0.3372 0.0
C904 C 0.43691 0.53966 0.29431 0.0
O905 O 0.40574 0.54286 0.26992 0.0
O906 O 0.40966 0.52245 0.27498 0.0
C907 C 0.3962 0.50691 0.33676 0.0
N908 N 0.40827 0.50826 0.34718 0.0
C909 C 0.40639 0.49333 0.40173 0.0
C910 C 0.39398 0.49166 0.39122 0.0
C911 C 0.38884 0.49853 0.35876 0.0
C912 C 0.41323 0.50189 0.37893 0.0
H913 H 0.39223 0.51221 0.31197 0.0
C914 C 0.40501 0.53177 0.25652 0.0
O915 O 0.40677 0.56589 0.31919 0.0
O916 O 0.39497 0.55148 0.34666 0.0
N917 N 0.43104 0.5132 0.36616 0.0
C918 C 0.44306 0.51615 0.37316 0.0
C919 C 0.44951 0.51025 0.40515 0.0
C920 C 0.44359 0.50126 0.42921 0.0
C921 C 0.43127 0.49823 0.42102 0.0
C922 C 0.42533 0.50441 0.38872 0.0
H923 H 0.44773 0.52294 0.35449 0.0
O924 O 0.41805 0.54977 0.38562 0.0
O925 O 0.41426 0.5325 0.35273 0.0
O926 O 0.42989 0.54847 0.30589 0.0
O927 O 0.43388 0.52829 0.2967 0.0
C928 C 0.42465 0.48937 0.44375 0.0
C929 C 0.41221 0.48694 0.43418 0.0
H930 H 0.38828 0.48519 0.40807 0.0
H931 H 0.37924 0.49737 0.35067 0.0
H932 H 0.45902 0.5126 0.41118 0.0
H933 H 0.44857 0.49676 0.45395 0.0
H934 H 0.429 0.48447 0.46899 0.0
H935 H 0.40717 0.48022 0.45223 0.0
Mn936 Mn 0.20456 0.66305 0.07421 0.0
Mn937 Mn 0.23441 0.67146 0.06582 0.0
C938 C 0.21554 0.66917 0.13196 0.0
C939 C 0.18999 0.64753 0.08634 0.0
C940 C 0.21298 0.68789 0.04031 0.0
O941 O 0.20941 0.65658 0.01676 0.0
O942 O 0.22981 0.6608 0.01883 0.0
C943 C 0.24591 0.647 0.07791 0.0
N944 N 0.24473 0.65903 0.0892 0.0
C945 C 0.25999 0.65672 0.14252 0.0
C946 C 0.26146 0.64434 0.13119 0.0
C947 C 0.25435 0.63945 0.09886 0.0
C948 C 0.2514 0.66378 0.12061 0.0
H949 H 0.24043 0.64321 0.05321 0.0
C950 C 0.22031 0.65605 0.00173 0.0
O951 O 0.18692 0.65778 0.06831 0.0
O952 O 0.20156 0.64605 0.09473 0.0
N953 N 0.24019 0.68177 0.10972 0.0
C954 C 0.23738 0.69377 0.11768 0.0
C955 C 0.24359 0.70001 0.14946 0.0
C956 C 0.25271 0.6939 0.17238 0.0
C957 C 0.25554 0.68159 0.16337 0.0
C958 C 0.24909 0.67586 0.1312 0.0
H959 H 0.23047 0.69856 0.0999 0.0
O960 O 0.20361 0.66929 0.13245 0.0
O961 O 0.22062 0.66528 0.09821 0.0
O962 O 0.20426 0.68083 0.05233 0.0
O963 O 0.22438 0.68495 0.04222 0.0
C964 C 0.26445 0.67475 0.18515 0.0
C965 C 0.26661 0.6623 0.17495 0.0
H966 H 0.26796 0.63849 0.14728 0.0
H967 H 0.25537 0.62988 0.09011 0.0
H968 H 0.24137 0.70952 0.15619 0.0
H969 H 0.25747 0.69876 0.19686 0.0
H970 H 0.26963 0.67893 0.21005 0.0
H971 H 0.27335 0.65708 0.19235 0.0
Mn972 Mn 0.09053 0.45276 0.82869 0.0
Mn973 Mn 0.07959 0.48187 0.82138 0.0
C974 C 0.08528 0.46377 0.8873 0.0
C975 C 0.1069 0.43903 0.83902 0.0
C976 C 0.06433 0.45918 0.80116 0.0
O977 O 0.09572 0.45786 0.77007 0.0
O978 O 0.08899 0.47763 0.77098 0.0
C979 C 0.10312 0.49567 0.82259 0.0
N980 N 0.09179 0.49343 0.83899 0.0
C981 C 0.09455 0.50931 0.89006 0.0
C982 C 0.10622 0.51183 0.87355 0.0
C983 C 0.11053 0.50495 0.83973 0.0
C984 C 0.08755 0.49999 0.87154 0.0
H985 H 0.10647 0.49039 0.79666 0.0
C986 C 0.09448 0.46855 0.75374 0.0
O987 O 0.09664 0.43541 0.82222 0.0
O988 O 0.10794 0.45071 0.84643 0.0
N989 N 0.07045 0.48709 0.86884 0.0
C990 C 0.05938 0.48292 0.88289 0.0
C991 C 0.05399 0.48849 0.91765 0.0
C992 C 0.06 0.49832 0.9374 0.0
C993 C 0.07134 0.50251 0.92219 0.0
C994 C 0.07624 0.49664 0.88732 0.0
H995 H 0.05472 0.47537 0.86785 0.0
O996 O 0.08551 0.45183 0.88826 0.0
O997 O 0.08789 0.46882 0.85213 0.0
O998 O 0.07245 0.45111 0.81026 0.0
O999 O 0.06625 0.47077 0.80344 0.0
C1000 C 0.07812 0.51209 0.94081 0.0
C1001 C 0.08971 0.51548 0.92477 0.0
H1002 H 0.11201 0.51892 0.88685 0.0
H1003 H 0.11956 0.50679 0.82695 0.0
H1004 H 0.04525 0.48519 0.92926 0.0
H1005 H 0.05587 0.50252 0.96442 0.0
H1006 H 0.07459 0.51676 0.96792 0.0
H1007 H 0.09493 0.52271 0.93979 0.0
Mn1008 Mn 0.29882 0.66101 0.55844 0.0
Mn1009 Mn 0.26882 0.66893 0.56585 0.0
C1010 C 0.28793 0.66695 0.50024 0.0
C1011 C 0.31367 0.64569 0.54722 0.0
C1012 C 0.28991 0.68564 0.59246 0.0
O1013 O 0.29387 0.65458 0.61589 0.0
O1014 O 0.27337 0.65812 0.61245 0.0
C1015 C 0.2577 0.64438 0.55186 0.0
N1016 N 0.25875 0.65648 0.54137 0.0
C1017 C 0.24347 0.65433 0.48803 0.0
C1018 C 0.24213 0.64187 0.49855 0.0
C1019 C 0.24933 0.63686 0.53045 0.0
C1020 C 0.25204 0.66134 0.51021 0.0
H1021 H 0.26323 0.64051 0.57631 0.0
C1022 C 0.2829 0.65366 0.63018 0.0
O1023 O 0.31651 0.65601 0.5652 0.0
O1024 O 0.30217 0.64402 0.53831 0.0
N1025 N 0.26302 0.67939 0.52237 0.0
C1026 C 0.26557 0.69152 0.51557 0.0
C1027 C 0.25925 0.69788 0.48431 0.0
C1028 C 0.25025 0.69178 0.46083 0.0
C1029 C 0.24762 0.67937 0.4689 0.0
C1030 C 0.25421 0.6735 0.50045 0.0
H1031 H 0.27236 0.69632 0.53384 0.0
O1032 O 0.29986 0.66717 0.50007 0.0
O1033 O 0.28281 0.66303 0.53387 0.0
O1034 O 0.29877 0.67881 0.58012 0.0
O1035 O 0.27858 0.68245 0.59058 0.0
C1036 C 0.23874 0.67258 0.4468 0.0
C1037 C 0.23671 0.66005 0.45624 0.0
H1038 H 0.23566 0.63605 0.48218 0.0
H1039 H 0.24841 0.62724 0.53857 0.0
H1040 H 0.2613 0.70748 0.47842 0.0
H1041 H 0.24542 0.69671 0.43666 0.0
H1042 H 0.23353 0.67685 0.42215 0.0
H1043 H 0.22997 0.65488 0.43866 0.0
Mn1044 Mn 0.09417 0.54951 0.3103 0.0
Mn1045 Mn 0.08538 0.51965 0.31154 0.0
C1046 C 0.08949 0.53941 0.24929 0.0
C1047 C 0.1098 0.56425 0.30383 0.0
C1048 C 0.06875 0.54087 0.33757 0.0
O1049 O 0.09934 0.54366 0.36828 0.0
O1050 O 0.09531 0.5233 0.36126 0.0
C1051 C 0.10967 0.50756 0.30221 0.0
N1052 N 0.09788 0.50924 0.289 0.0
C1053 C 0.10051 0.49433 0.23469 0.0
C1054 C 0.11263 0.49231 0.24808 0.0
C1055 C 0.11724 0.499 0.28186 0.0
C1056 C 0.09339 0.50294 0.25628 0.0
H1057 H 0.11326 0.51275 0.32792 0.0
C1058 C 0.09967 0.5325 0.38125 0.0
O1059 O 0.09923 0.56702 0.32027 0.0
O1060 O 0.11155 0.55279 0.29435 0.0
N1061 N 0.07577 0.51489 0.26459 0.0
C1062 C 0.06425 0.51864 0.25355 0.0
C1063 C 0.0585 0.51327 0.21911 0.0
C1064 C 0.06459 0.50404 0.19661 0.0
C1065 C 0.0764 0.50027 0.20871 0.0
C1066 C 0.08165 0.50591 0.2434 0.0
H1067 H 0.05949 0.52569 0.27081 0.0
O1068 O 0.08926 0.55133 0.25086 0.0
O1069 O 0.09248 0.53381 0.28317 0.0
O1070 O 0.07598 0.54969 0.32793 0.0
O1071 O 0.0717 0.52951 0.33446 0.0
C1072 C 0.08328 0.49132 0.18719 0.0
C1073 C 0.09534 0.48837 0.20011 0.0
H1074 H 0.11852 0.48577 0.23231 0.0
H1075 H 0.12662 0.49758 0.29212 0.0
H1076 H 0.04939 0.51625 0.20991 0.0
H1077 H 0.06016 0.49998 0.1699 0.0
H1078 H 0.07948 0.48683 0.16016 0.0
H1079 H 0.10063 0.48167 0.18279 0.0
Mn1080 Mn 0.20489 0.34071 0.05828 0.0
Mn1081 Mn 0.23457 0.33163 0.06534 0.0
C1082 C 0.21533 0.3337 0.00049 0.0
C1083 C 0.1907 0.35649 0.04468 0.0
C1084 C 0.21294 0.31594 0.09398 0.0
O1085 O 0.21028 0.34766 0.11454 0.0
O1086 O 0.23049 0.34269 0.11185 0.0
C1087 C 0.24643 0.35578 0.05044 0.0
N1088 N 0.24498 0.3437 0.04027 0.0
C1089 C 0.25991 0.34535 0.98563 0.0
C1090 C 0.26167 0.35778 0.99584 0.0
C1091 C 0.25486 0.36303 0.02826 0.0
C1092 C 0.25135 0.3386 0.00874 0.0
H1093 H 0.24117 0.35985 0.07517 0.0
C1094 C 0.22125 0.34792 0.12901 0.0
O1095 O 0.18744 0.34665 0.06485 0.0
O1096 O 0.20225 0.35746 0.03544 0.0
N1097 N 0.23988 0.32092 0.02185 0.0
C1098 C 0.23678 0.30893 0.01499 0.0
C1099 C 0.24263 0.30236 0.98319 0.0
C1100 C 0.25172 0.30814 0.95912 0.0
C1101 C 0.25485 0.32045 0.96703 0.0
C1102 C 0.24874 0.3265 -0.00075 0.0
H1103 H 0.22989 0.30439 0.03363 0.0
O1104 O 0.2034 0.33384 0.00094 0.0
O1105 O 0.22072 0.33782 0.0334 0.0
O1106 O 0.20431 0.32318 0.08242 0.0
O1107 O 0.2244 0.31853 0.09061 0.0
C1108 C 0.26375 0.32697 0.94409 0.0
C1109 C 0.2662 0.33944 0.95315 0.0
H1110 H 0.26816 0.36341 0.97879 0.0
H1111 H 0.2561 0.37264 0.03613 0.0
H1112 H 0.24018 0.29286 0.97731 0.0
H1113 H 0.25621 0.30304 0.93461 0.0
H1114 H 0.2687 0.32251 0.91916 0.0
H1115 H 0.27292 0.3444 0.93485 0.0
Mn1116 Mn 0.41065 0.45419 0.81239 0.0
Mn1117 Mn 0.41859 0.48419 0.82065 0.0
C1118 C 0.41665 0.46525 0.75458 0.0
C1119 C 0.39539 0.43932 0.80026 0.0
C1120 C 0.43535 0.46303 0.84633 0.0
O1121 O 0.40407 0.45899 0.86984 0.0
O1122 O 0.4079 0.47945 0.86737 0.0
C1123 C 0.39397 0.49524 0.8076 0.0
N1124 N 0.40606 0.49431 0.7969 0.0
C1125 C 0.40369 0.50963 0.7438 0.0
C1126 C 0.39124 0.51087 0.75462 0.0
C1127 C 0.38635 0.50359 0.78652 0.0
C1128 C 0.41081 0.50112 0.7658 0.0
H1129 H 0.39017 0.48961 0.8319 0.0
C1130 C 0.40331 0.46991 0.88464 0.0
O1131 O 0.40568 0.43645 0.8184 0.0
O1132 O 0.39371 0.45085 0.79179 0.0
N1133 N 0.42892 0.49015 0.77707 0.0
C1134 C 0.441 0.48757 0.76963 0.0
C1135 C 0.44727 0.49399 0.7384 0.0
C1136 C 0.44111 0.50309 0.71551 0.0
C1137 C 0.4287 0.50565 0.72393 0.0
C1138 C 0.42296 0.49901 0.75561 0.0
H1139 H 0.44585 0.48071 0.78744 0.0
O1140 O 0.41693 0.45332 0.75415 0.0
O1141 O 0.41266 0.47029 0.78827 0.0
O1142 O 0.42843 0.4542 0.8343 0.0
O1143 O 0.43219 0.47438 0.84457 0.0
C1144 C 0.4218 0.5145 0.70209 0.0
C1145 C 0.40927 0.51642 0.71178 0.0
H1146 H 0.38534 0.5173 0.73843 0.0
H1147 H 0.37673 0.50441 0.79483 0.0
H1148 H 0.45685 0.49198 0.73212 0.0
H1149 H 0.446 0.50804 0.69154 0.0
H1150 H 0.42599 0.51981 0.67752 0.0
H1151 H 0.40401 0.52311 0.69433 0.0
C1152 C 0.1259 0.06894 0.86405 0.0
C1153 C 0.1142 0.07249 0.84971 0.0
C1154 C 0.13361 0.07741 0.88375 0.0
C1155 C 0.13263 0.10566 0.94572 0.0
H1156 H 0.16773 0.10667 0.92418 0.0
C1157 C 0.16566 0.14073 0.02553 0.0
C1158 C 0.17785 0.13697 0.03292 0.0
C1159 C 0.15748 0.13304 0.00402 0.0
C1160 C 0.15798 0.10639 0.93118 0.0
H1161 H 0.10156 0.08784 0.84399 0.0
H1162 H 0.11506 0.10269 0.87879 0.0
H1163 H 0.15457 0.09341 0.88266 0.0
H1164 H 0.19078 0.12191 0.0259 0.0
H1165 H 0.17647 0.10836 0.9902 0.0
H1166 H 0.13606 0.11841 0.99493 0.0
C1167 C 0.11822 0.09331 0.87471 0.0
C1168 C 0.15042 0.09883 0.90707 0.0
C1169 C 0.11055 0.08484 0.8544 0.0
C1170 C 0.18147 0.12512 0.02044 0.0
C1171 C 0.17328 0.11739 -0.00054 0.0
C1172 C 0.14022 0.11315 0.97018 0.0
C1173 C 0.12978 0.08964 0.89013 0.0
C1174 C 0.13767 0.0983 0.91418 0.0
C1175 C 0.16128 0.12137 0.98975 0.0
C1176 C 0.15304 0.11355 0.96351 0.0
H1177 H 0.12897 0.05948 0.86108 0.0
H1178 H 0.14241 0.07425 0.89548 0.0
H1179 H 0.12285 0.10534 0.95231 0.0
H1180 H 0.16263 0.14986 0.03442 0.0
H1181 H 0.14836 0.13649 0.99704 0.0
C1182 C 0.12338 0.93649 0.2449 0.0
C1183 C 0.11526 0.93282 0.27645 0.0
C1184 C 0.13091 0.9279 0.22497 0.0
C1185 C 0.14647 0.89852 0.23613 0.0
H1186 H 0.14642 0.89793 0.1162 0.0
C1187 C 0.18497 0.87575 0.14007 0.0
C1188 C 0.18131 0.86723 0.10969 0.0
C1189 C 0.17632 0.88325 0.1598 0.0
C1190 C 0.14647 0.89794 0.14966 0.0
H1191 H 0.10896 0.91724 0.31261 0.0
H1192 H 0.12255 0.90223 0.27855 0.0
H1193 H 0.13249 0.91189 0.15322 0.0
H1194 H 0.16568 0.86022 0.07531 0.0
H1195 H 0.15054 0.87375 0.10898 0.0
H1196 H 0.16074 0.88489 0.23255 0.0
C1197 C 0.12289 0.91179 0.26903 0.0
C1198 C 0.13856 0.90596 0.17083 0.0
C1199 C 0.11514 0.92037 0.28853 0.0
C1200 C 0.1688 0.86671 0.09846 0.0
C1201 C 0.16014 0.87443 0.11776 0.0
C1202 C 0.15454 0.89068 0.21495 0.0
C1203 C 0.13068 0.91545 0.23651 0.0
C1204 C 0.13855 0.9064 0.21428 0.0
C1205 C 0.1638 0.88259 0.14922 0.0
C1206 C 0.15469 0.89038 0.1715 0.0
H1207 H 0.12369 0.94598 0.23461 0.0
H1208 H 0.13692 0.93102 0.20039 0.0
H1209 H 0.14668 0.8987 0.26957 0.0
H1210 H 0.1945 0.87638 0.14968 0.0
H1211 H 0.17942 0.88956 0.18354 0.0
C1212 C 0.37538 0.93351 0.37021 0.0
C1213 C 0.38705 0.92974 0.35637 0.0
C1214 C 0.36762 0.92531 0.39111 0.0
C1215 C 0.36297 0.89203 0.4172 0.0
H1216 H 0.34389 0.90578 0.50739 0.0
C1217 C 0.33531 0.86152 0.53209 0.0
C1218 C 0.32301 0.86516 0.53809 0.0
C1219 C 0.34366 0.86936 0.51194 0.0
C1220 C 0.34913 0.9018 0.48222 0.0
H1221 H 0.39957 0.91424 0.35253 0.0
H1222 H 0.38619 0.89998 0.38971 0.0
H1223 H 0.35703 0.91919 0.46626 0.0
H1224 H 0.30999 0.88007 0.52927 0.0
H1225 H 0.32457 0.89378 0.49515 0.0
H1226 H 0.35512 0.87458 0.43393 0.0
C1227 C 0.38288 0.90923 0.38385 0.0
C1228 C 0.35662 0.90951 0.45833 0.0
C1229 C 0.39059 0.91741 0.36247 0.0
C1230 C 0.3194 0.877 0.52526 0.0
C1231 C 0.32778 0.88487 0.50572 0.0
C1232 C 0.35556 0.88429 0.44144 0.0
C1233 C 0.37139 0.91314 0.39931 0.0
C1234 C 0.36355 0.90478 0.42512 0.0
C1235 C 0.33993 0.88106 0.49799 0.0
C1236 C 0.34845 0.88911 0.47398 0.0
H1237 H 0.37234 0.94293 0.36583 0.0
H1238 H 0.35873 0.92861 0.40138 0.0
H1239 H 0.36803 0.88802 0.39172 0.0
H1240 H 0.33835 0.85243 0.54132 0.0
H1241 H 0.353 0.8662 0.50681 0.0
C1242 C 0.3873 0.08471 0.77901 0.0
C1243 C 0.38405 0.07228 0.7843 0.0
C1244 C 0.3795 0.09279 0.75762 0.0
C1245 C 0.35361 0.09224 0.68174 0.0
H1246 H 0.35164 0.1271 0.70677 0.0
C1247 C 0.31659 0.12479 0.6134 0.0
C1248 C 0.32028 0.13663 0.60088 0.0
C1249 C 0.32486 0.11686 0.63315 0.0
C1250 C 0.35221 0.11741 0.6991 0.0
H1251 H 0.36973 0.05877 0.77341 0.0
H1252 H 0.35592 0.07291 0.73788 0.0
H1253 H 0.36439 0.11371 0.7496 0.0
H1254 H 0.33568 0.1493 0.59833 0.0
H1255 H 0.35015 0.13545 0.63328 0.0
H1256 H 0.34114 0.09595 0.63192 0.0
C1257 C 0.36468 0.07638 0.74879 0.0
C1258 C 0.35953 0.1097 0.72368 0.0
C1259 C 0.37254 0.06828 0.76969 0.0
C1260 C 0.33258 0.14021 0.60731 0.0
C1261 C 0.34083 0.13233 0.6277 0.0
C1262 C 0.34619 0.09992 0.65752 0.0
C1263 C 0.36819 0.08868 0.74137 0.0
C1264 C 0.36031 0.09697 0.71547 0.0
C1265 C 0.337 0.12064 0.64143 0.0
C1266 C 0.34537 0.11259 0.66594 0.0
H1267 H 0.39615 0.08807 0.78954 0.0
H1268 H 0.38263 0.10213 0.75236 0.0
H1269 H 0.35418 0.08258 0.67359 0.0
H1270 H 0.30717 0.12177 0.60904 0.0
H1271 H 0.3216 0.10795 0.64352 0.0
C1272 C 0.82003 0.87656 0.11721 0.0
C1273 C 0.82366 0.86479 0.10394 0.0
C1274 C 0.82827 0.88425 0.13813 0.0
C1275 C 0.86143 0.88864 0.16557 0.0
H1276 H 0.8474 0.90774 0.25527 0.0
C1277 C 0.89153 0.91672 0.28058 0.0
C1278 C 0.88775 0.92899 0.28637 0.0
C1279 C 0.88382 0.90826 0.26043 0.0
C1280 C 0.85146 0.9025 0.23024 0.0
H1281 H 0.83897 0.85202 0.10091 0.0
H1282 H 0.85333 0.86533 0.13812 0.0
H1283 H 0.83414 0.89456 0.21383 0.0
H1284 H 0.87271 0.94185 0.27718 0.0
H1285 H 0.85922 0.92708 0.24301 0.0
H1286 H 0.87881 0.89655 0.18269 0.0
C1287 C 0.84415 0.86874 0.13184 0.0
C1288 C 0.84384 0.89499 0.20619 0.0
C1289 C 0.83591 0.86108 0.11043 0.0
C1290 C 0.87589 0.93246 0.27332 0.0
C1291 C 0.86814 0.92398 0.25376 0.0
C1292 C 0.86908 0.89609 0.18995 0.0
C1293 C 0.84034 0.88031 0.14693 0.0
C1294 C 0.84866 0.88807 0.1731 0.0
C1295 C 0.8721 0.91185 0.24626 0.0
C1296 C 0.86416 0.90322 0.22227 0.0
H1297 H 0.81067 0.87973 0.11247 0.0
H1298 H 0.82506 0.89322 0.14805 0.0
H1299 H 0.86549 0.88356 0.14023 0.0
H1300 H 0.90064 0.91379 0.28998 0.0
H1301 H 0.88708 0.89895 0.25547 0.0
C1302 C 0.89064 0.08457 0.85845 0.0
C1303 C 0.8869 0.07228 0.8529 0.0
C1304 C 0.88292 0.09303 0.87863 0.0
C1305 C 0.85058 0.09869 0.90935 0.0
H1306 H 0.86466 0.11778 -0.00109 0.0
C1307 C 0.8192 0.12465 0.02263 0.0
C1308 C 0.82282 0.13644 0.03585 0.0
C1309 C 0.82743 0.11698 0.0016 0.0
C1310 C 0.86058 0.11266 0.97369 0.0
H1311 H 0.87194 0.05938 0.86257 0.0
H1312 H 0.85843 0.07413 0.89677 0.0
H1313 H 0.87797 0.10481 0.95635 0.0
H1314 H 0.83811 0.14923 0.0386 0.0
H1315 H 0.85246 0.13595 0.00118 0.0
H1316 H 0.83325 0.10658 0.92598 0.0
C1317 C 0.86733 0.07725 0.88581 0.0
C1318 C 0.86823 0.10522 0.94926 0.0
C1319 C 0.87509 0.06879 0.86622 0.0
C1320 C 0.83506 0.14016 0.02913 0.0
C1321 C 0.84329 0.13252 0.0076 0.0
C1322 C 0.84296 0.1062 0.93345 0.0
C1323 C 0.87124 0.08941 0.89307 0.0
C1324 C 0.8633 0.09803 0.9171 0.0
C1325 C 0.83949 0.12093 0.99261 0.0
C1326 C 0.8478 0.11317 0.96638 0.0
H1327 H 0.89973 0.08753 0.84884 0.0
H1328 H 0.88616 0.10236 0.8834 0.0
H1329 H 0.84651 0.09341 0.88446 0.0
H1330 H 0.80985 0.12147 0.02754 0.0
H1331 H 0.82423 0.108 0.99175 0.0
C1332 C 0.66816 0.13926 0.61184 0.0
C1333 C 0.68059 0.13596 0.60667 0.0
C1334 C 0.66 0.13138 0.6326 0.0
C1335 C 0.6554 0.09912 0.66597 0.0
H1336 H 0.63547 0.11335 0.75316 0.0
C1337 C 0.62826 0.0679 0.77731 0.0
C1338 C 0.61635 0.07164 0.78881 0.0
C1339 C 0.63626 0.07605 0.75725 0.0
C1340 C 0.64083 0.10921 0.72863 0.0
H1341 H 0.69405 0.12157 0.61767 0.0
H1342 H 0.67978 0.10776 0.65293 0.0
H1343 H 0.64838 0.12666 0.71055 0.0
H1344 H 0.6037 0.08708 0.78963 0.0
H1345 H 0.61751 0.10122 0.75397 0.0
H1346 H 0.64775 0.08173 0.68321 0.0
C1347 C 0.67634 0.11645 0.64121 0.0
C1348 C 0.64824 0.11687 0.70416 0.0
C1349 C 0.68453 0.12438 0.62101 0.0
C1350 C 0.61285 0.08392 0.78153 0.0
C1351 C 0.62081 0.09205 0.76099 0.0
C1352 C 0.6479 0.09148 0.6901 0.0
C1353 C 0.66405 0.11996 0.64808 0.0
C1354 C 0.65568 0.1119 0.6727 0.0
C1355 C 0.63252 0.08814 0.74758 0.0
C1356 C 0.64056 0.09638 0.72205 0.0
H1357 H 0.66486 0.14814 0.60143 0.0
H1358 H 0.65054 0.13429 0.63701 0.0
H1359 H 0.6609 0.09502 0.64169 0.0
H1360 H 0.63127 0.05851 0.78261 0.0
H1361 H 0.64531 0.07276 0.74858 0.0
C1362 C 0.6286 0.93267 0.36409 0.0
C1363 C 0.61684 0.92891 0.35118 0.0
C1364 C 0.63633 0.92459 0.38561 0.0
C1365 C 0.64074 0.89154 0.4148 0.0
H1366 H 0.66004 0.90585 0.50345 0.0
C1367 C 0.66852 0.86163 0.53084 0.0
C1368 C 0.68082 0.86529 0.53651 0.0
C1369 C 0.66014 0.86938 0.5105 0.0
C1370 C 0.65475 0.90171 0.47872 0.0
H1371 H 0.60411 0.91354 0.34961 0.0
H1372 H 0.61746 0.89949 0.38776 0.0
H1373 H 0.64694 0.91902 0.46136 0.0
H1374 H 0.69382 0.88018 0.52698 0.0
H1375 H 0.67921 0.89375 0.49242 0.0
H1376 H 0.64851 0.87418 0.43279 0.0
C1377 C 0.62085 0.90863 0.38076 0.0
C1378 C 0.64728 0.90928 0.4543 0.0
C1379 C 0.61317 0.9167 0.35883 0.0
C1380 C 0.6844 0.87709 0.52321 0.0
C1381 C 0.67601 0.88488 0.50343 0.0
C1382 C 0.64814 0.88394 0.43952 0.0
C1383 C 0.63244 0.91255 0.39529 0.0
C1384 C 0.64026 0.90434 0.42164 0.0
C1385 C 0.66385 0.88103 0.49597 0.0
C1386 C 0.65533 0.88896 0.47153 0.0
H1387 H 0.63175 0.942 0.35854 0.0
H1388 H 0.6453 0.92788 0.3952 0.0
H1389 H 0.63561 0.88738 0.38975 0.0
H1390 H 0.6655 0.85256 0.54045 0.0
H1391 H 0.6508 0.86619 0.50561 0.0
C1392 C 0.68501 0.62549 0.52273 0.0
C1393 C 0.68143 0.63721 0.53674 0.0
C1394 C 0.67672 0.61793 0.50152 0.0
C1395 C 0.64348 0.61376 0.47448 0.0
H1396 H 0.65727 0.59492 0.38378 0.0
C1397 C 0.613 0.58615 0.35929 0.0
C1398 C 0.61672 0.57388 0.353 0.0
C1399 C 0.62081 0.59453 0.37942 0.0
C1400 C 0.65328 0.60008 0.40908 0.0
H1401 H 0.66615 0.64999 0.5407 0.0
H1402 H 0.6517 0.6369 0.503 0.0
H1403 H 0.67067 0.60788 0.42553 0.0
H1404 H 0.63175 0.56096 0.3612 0.0
H1405 H 0.64541 0.5756 0.39528 0.0
H1406 H 0.62604 0.60599 0.45736 0.0
C1407 C 0.66088 0.63344 0.50892 0.0
C1408 C 0.66098 0.60747 0.43332 0.0
C1409 C 0.66917 0.64097 0.53063 0.0
C1410 C 0.62862 0.57035 0.36543 0.0
C1411 C 0.63646 0.57876 0.38496 0.0
C1412 C 0.63575 0.60643 0.44993 0.0
C1413 C 0.66464 0.62193 0.49314 0.0
C1414 C 0.65624 0.6143 0.46677 0.0
C1415 C 0.63256 0.59087 0.39307 0.0
C1416 C 0.64059 0.59939 0.41723 0.0
H1417 H 0.69437 0.62228 0.52715 0.0
H1418 H 0.67989 0.609 0.49105 0.0
H1419 H 0.63948 0.61876 0.50011 0.0
H1420 H 0.60386 0.58912 0.35039 0.0
H1421 H 0.61758 0.60383 0.38483 0.0
C1422 C 0.61106 0.41767 0.77935 0.0
C1423 C 0.61495 0.42983 0.78655 0.0
C1424 C 0.61866 0.40937 0.75793 0.0
C1425 C 0.64535 0.4094 0.68512 0.0
H1426 H 0.64576 0.37427 0.7066 0.0
C1427 C 0.68203 0.37647 0.61719 0.0
C1428 C 0.67819 0.36483 0.60314 0.0
C1429 C 0.67378 0.38439 0.63713 0.0
C1430 C 0.64563 0.38405 0.69991 0.0
H1431 H 0.63013 0.44259 0.77917 0.0
H1432 H 0.64352 0.42808 0.74362 0.0
H1433 H 0.63296 0.38775 0.74911 0.0
H1434 H 0.66257 0.3525 0.59824 0.0
H1435 H 0.64812 0.36634 0.63341 0.0
H1436 H 0.65825 0.4057 0.63658 0.0
C1437 C 0.63446 0.425 0.75299 0.0
C1438 C 0.63828 0.3918 0.72432 0.0
C1439 C 0.62683 0.43331 0.77389 0.0
C1440 C 0.66579 0.36144 0.60842 0.0
C1441 C 0.65755 0.36931 0.62894 0.0
C1442 C 0.65277 0.40167 0.66107 0.0
C1443 C 0.63036 0.41302 0.74354 0.0
C1444 C 0.63809 0.40462 0.71748 0.0
C1445 C 0.6615 0.38081 0.64404 0.0
C1446 C 0.65306 0.38891 0.66826 0.0
H1447 H 0.60191 0.41474 0.78836 0.0
H1448 H 0.61511 0.40027 0.75114 0.0
H1449 H 0.64524 0.41914 0.678 0.0
H1450 H 0.69153 0.37936 0.61377 0.0
H1451 H 0.67715 0.39314 0.64858 0.0
C1452 C 0.88427 0.41805 0.84631 0.0
C1453 C 0.88401 0.43058 0.85732 0.0
C1454 C 0.87636 0.40959 0.86564 0.0
C1455 C 0.86036 0.40443 0.96324 0.0
H1456 H 0.83885 0.38228 0.9031 0.0
C1457 C 0.83125 0.36478 0.0383 0.0
C1458 C 0.81872 0.36497 0.02733 0.0
C1459 C 0.8397 0.3726 0.0184 0.0
C1460 C 0.84487 0.38838 0.92026 0.0
H1461 H 0.87503 0.44406 0.89667 0.0
H1462 H 0.86148 0.42931 0.93062 0.0
H1463 H 0.85262 0.39615 0.86506 0.0
H1464 H 0.80525 0.37361 0.98709 0.0
H1465 H 0.81997 0.38695 0.95216 0.0
H1466 H 0.85266 0.39661 0.01845 0.0
C1467 C 0.86776 0.42604 0.90702 0.0
C1468 C 0.85276 0.39626 0.89851 0.0
C1469 C 0.87546 0.4345 0.88723 0.0
C1470 C 0.81482 0.37325 0.99654 0.0
C1471 C 0.82326 0.38083 0.9762 0.0
C1472 C 0.85265 0.39637 0.985 0.0
C1473 C 0.86824 0.41348 0.89691 0.0
C1474 C 0.86044 0.40451 0.91977 0.0
C1475 C 0.8358 0.38052 0.98657 0.0
C1476 C 0.84468 0.3884 0.96372 0.0
H1477 H 0.89079 0.41473 0.82355 0.0
H1478 H 0.87689 0.39995 0.85723 0.0
H1479 H 0.86626 0.41065 0.9804 0.0
H1480 H 0.83456 0.35848 0.06175 0.0
H1481 H 0.84933 0.37219 0.02701 0.0
C1482 C 0.82053 0.62487 0.12049 0.0
C1483 C 0.82418 0.63663 0.10716 0.0
C1484 C 0.82871 0.61723 0.14185 0.0
C1485 C 0.86179 0.61296 0.17055 0.0
H1486 H 0.84757 0.59395 0.26008 0.0
C1487 C 0.89179 0.5853 0.28663 0.0
C1488 C 0.88809 0.57302 0.29271 0.0
C1489 C 0.88403 0.59367 0.2663 0.0
C1490 C 0.85168 0.59916 0.2351 0.0
H1491 H 0.83947 0.64943 0.10455 0.0
H1492 H 0.85374 0.6362 0.14251 0.0
H1493 H 0.83438 0.607 0.21791 0.0
H1494 H 0.87313 0.56006 0.28392 0.0
H1495 H 0.85954 0.57467 0.24938 0.0
H1496 H 0.87915 0.60515 0.1884 0.0
C1497 C 0.84458 0.63277 0.13594 0.0
C1498 C 0.84411 0.6066 0.21064 0.0
C1499 C 0.8364 0.64037 0.11408 0.0
C1500 C 0.87624 0.56946 0.27988 0.0
C1501 C 0.86844 0.57785 0.26008 0.0
C1502 C 0.8694 0.60558 0.19532 0.0
C1503 C 0.84075 0.6212 0.15106 0.0
C1504 C 0.84901 0.6135 0.17762 0.0
C1505 C 0.87234 0.58997 0.25215 0.0
C1506 C 0.86441 0.59848 0.22762 0.0
H1507 H 0.8112 0.62167 0.11543 0.0
H1508 H 0.8255 0.60827 0.1518 0.0
H1509 H 0.86592 0.61801 0.14526 0.0
H1510 H 0.90089 0.58831 0.29587 0.0
H1511 H 0.88724 0.60298 0.26108 0.0
C1512 C 0.3353 0.36145 0.60793 0.0
C1513 C 0.32302 0.36515 0.60177 0.0
C1514 C 0.34367 0.36924 0.62825 0.0
C1515 C 0.34914 0.4017 0.65816 0.0
H1516 H 0.36818 0.38792 0.74834 0.0
C1517 C 0.3749 0.43347 0.77091 0.0
C1518 C 0.38664 0.42989 0.78459 0.0
C1519 C 0.36728 0.42518 0.74989 0.0
C1520 C 0.36307 0.39192 0.72295 0.0
H1521 H 0.31005 0.38011 0.6106 0.0
H1522 H 0.32465 0.39372 0.64506 0.0
H1523 H 0.3553 0.37445 0.70601 0.0
H1524 H 0.39944 0.41462 0.7881 0.0
H1525 H 0.38627 0.40017 0.75071 0.0
H1526 H 0.35695 0.4191 0.67438 0.0
C1527 C 0.32783 0.38481 0.63445 0.0
C1528 C 0.35569 0.38417 0.69864 0.0
C1529 C 0.31945 0.37699 0.61472 0.0
C1530 C 0.3904 0.41764 0.77828 0.0
C1531 C 0.38282 0.40935 0.75676 0.0
C1532 C 0.3566 0.40941 0.68214 0.0
C1533 C 0.33997 0.38095 0.64225 0.0
C1534 C 0.34852 0.389 0.66625 0.0
C1535 C 0.37126 0.4131 0.74137 0.0
C1536 C 0.36356 0.40468 0.71529 0.0
H1537 H 0.33831 0.35236 0.59861 0.0
H1538 H 0.35299 0.36604 0.63343 0.0
H1539 H 0.34388 0.40569 0.63309 0.0
H1540 H 0.37169 0.44282 0.77548 0.0
H1541 H 0.35833 0.42835 0.73973 0.0
C1542 C 0.33543 0.6405 0.52682 0.0
C1543 C 0.32312 0.63683 0.53249 0.0
C1544 C 0.34383 0.63272 0.50663 0.0
C1545 C 0.34936 0.60033 0.47642 0.0
H1546 H 0.36856 0.61422 0.38681 0.0
C1547 C 0.37575 0.56868 0.36497 0.0
C1548 C 0.38752 0.57235 0.35185 0.0
C1549 C 0.36796 0.57694 0.38542 0.0
C1550 C 0.36341 0.61019 0.41204 0.0
H1551 H 0.31013 0.62192 0.523 0.0
H1552 H 0.3248 0.60831 0.48881 0.0
H1553 H 0.35554 0.62763 0.42888 0.0
H1554 H 0.40019 0.58774 0.34862 0.0
H1555 H 0.38672 0.60212 0.38506 0.0
H1556 H 0.35728 0.58296 0.46036 0.0
C1557 C 0.32797 0.6172 0.49967 0.0
C1558 C 0.35594 0.6179 0.4362 0.0
C1559 C 0.31955 0.62502 0.51925 0.0
C1560 C 0.39112 0.58465 0.35801 0.0
C1561 C 0.38337 0.5929 0.37899 0.0
C1562 C 0.3569 0.59266 0.45261 0.0
C1563 C 0.34014 0.62105 0.49231 0.0
C1564 C 0.34873 0.61303 0.4684 0.0
C1565 C 0.37179 0.58907 0.39393 0.0
C1566 C 0.36393 0.59743 0.41969 0.0
H1567 H 0.33844 0.64957 0.53636 0.0
H1568 H 0.35317 0.6359 0.50179 0.0
H1569 H 0.34406 0.59631 0.50134 0.0
H1570 H 0.37266 0.55929 0.36047 0.0
H1571 H 0.35899 0.5737 0.39522 0.0
C1572 C 0.1305 0.57033 0.27679 0.0
C1573 C 0.11864 0.57379 0.28973 0.0
C1574 C 0.13808 0.57867 0.25587 0.0
C1575 C 0.14182 0.61183 0.22685 0.0
H1576 H 0.16081 0.59783 0.13686 0.0
C1577 C 0.16845 0.64208 0.10845 0.0
C1578 C 0.18076 0.63857 0.10187 0.0
C1579 C 0.16032 0.63425 0.12962 0.0
C1580 C 0.15561 0.60188 0.16197 0.0
H1581 H 0.10566 0.58893 0.29241 0.0
H1582 H 0.11879 0.60344 0.25529 0.0
H1583 H 0.14818 0.58446 0.17979 0.0
H1584 H 0.19403 0.62388 0.11072 0.0
H1585 H 0.17985 0.61018 0.14667 0.0
H1586 H 0.14921 0.62932 0.20831 0.0
C1587 C 0.12234 0.59433 0.26178 0.0
C1588 C 0.14841 0.5942 0.18688 0.0
C1589 C 0.11479 0.586 0.28318 0.0
C1590 C 0.1846 0.62685 0.11515 0.0
C1591 C 0.17645 0.61898 0.13575 0.0
C1592 C 0.14896 0.61955 0.20163 0.0
C1593 C 0.13396 0.59066 0.24676 0.0
C1594 C 0.14152 0.59902 0.22004 0.0
C1595 C 0.16429 0.62268 0.14407 0.0
C1596 C 0.15603 0.61464 0.16914 0.0
H1597 H 0.13377 0.56101 0.28155 0.0
H1598 H 0.1471 0.57559 0.246 0.0
H1599 H 0.13676 0.6159 0.25222 0.0
H1600 H 0.16524 0.65109 0.0989 0.0
H1601 H 0.15097 0.63731 0.13517 0.0
C1602 C 0.11556 0.41755 0.84575 0.0
C1603 C 0.11613 0.43018 0.8553 0.0
C1604 C 0.12337 0.40912 0.86567 0.0
C1605 C 0.13974 0.40449 0.96283 0.0
H1606 H 0.16081 0.38172 0.90349 0.0
C1607 C 0.16914 0.36513 0.03903 0.0
C1608 C 0.18164 0.36538 0.02758 0.0
C1609 C 0.16057 0.37281 0.01912 0.0
C1610 C 0.15491 0.38799 0.92043 0.0
H1611 H 0.12553 0.44384 0.89281 0.0
H1612 H 0.13889 0.42914 0.92784 0.0
H1613 H 0.14697 0.39541 0.86499 0.0
H1614 H 0.19491 0.37401 0.98652 0.0
H1615 H 0.17997 0.38708 0.95159 0.0
H1616 H 0.14765 0.39703 0.01828 0.0
C1617 C 0.13246 0.42577 0.90488 0.0
C1618 C 0.14697 0.39576 0.89843 0.0
C1619 C 0.12486 0.4342 0.88447 0.0
C1620 C 0.18538 0.37359 0.99635 0.0
C1621 C 0.17681 0.38103 0.97601 0.0
C1622 C 0.14748 0.39653 0.98487 0.0
C1623 C 0.13169 0.41313 0.89613 0.0
C1624 C 0.13947 0.40424 0.91938 0.0
C1625 C 0.16431 0.38064 0.98683 0.0
C1626 C 0.1553 0.38835 0.96385 0.0
H1627 H 0.1089 0.41415 0.82361 0.0
H1628 H 0.12261 0.39941 0.8583 0.0
H1629 H 0.13398 0.41089 0.97975 0.0
H1630 H 0.16596 0.35888 0.06282 0.0
H1631 H 0.15097 0.37236 0.02808 0.0
C1632 C 0.22634 0.15727 0.94936 0.0
C1633 C 0.22026 0.16774 0.96401 0.0
C1634 C 0.23339 0.15788 0.91351 0.0
C1635 C 0.25354 0.16193 0.85284 0.0
H1636 H 0.24754 0.18574 0.76611 0.0
C1637 C 0.27969 0.17915 0.697 0.0
C1638 C 0.27904 0.16837 0.67326 0.0
C1639 C 0.27307 0.18001 0.73397 0.0
C1640 C 0.24931 0.1791 0.79029 0.0
H1641 H 0.2159 0.18683 0.95214 0.0
H1642 H 0.22907 0.18835 0.89135 0.0
H1643 H 0.23367 0.18487 0.82498 0.0
H1644 H 0.27197 0.14975 0.6702 0.0
H1645 H 0.26068 0.15111 0.73546 0.0
H1646 H 0.26866 0.15564 0.81595 0.0
C1647 C 0.22821 0.17949 0.9063 0.0
C1648 C 0.24144 0.17863 0.82437 0.0
C1649 C 0.22076 0.17871 0.94145 0.0
C1650 C 0.27234 0.15823 0.68781 0.0
C1651 C 0.26598 0.15898 0.72505 0.0
C1652 C 0.26114 0.16217 0.81819 0.0
C1653 C 0.23482 0.16911 0.89216 0.0
C1654 C 0.24336 0.16994 0.85608 0.0
C1655 C 0.26618 0.16992 0.74811 0.0
C1656 C 0.25899 0.17065 0.78651 0.0
H1657 H 0.2257 0.14861 0.96585 0.0
H1658 H 0.23775 0.1495 0.90295 0.0
H1659 H 0.25571 0.15536 0.87682 0.0
H1660 H 0.28502 0.18697 0.68638 0.0
H1661 H 0.27336 0.1885 0.75157 0.0
C1662 C 0.07105 0.97389 0.19094 0.0
C1663 C 0.08212 0.97356 0.21306 0.0
C1664 C 0.07007 0.98127 0.15565 0.0
C1665 C 0.08709 0.00683 0.10177 0.0
H1666 H 0.06402 0.99986 0.01358 0.0
C1667 C 0.07096 0.03185 0.94275 0.0
C1668 C 0.08201 0.03119 0.92039 0.0
C1669 C 0.06975 0.02538 0.97992 0.0
C1670 C 0.07043 0.00191 0.03822 0.0
H1671 H 0.10118 0.97927 0.21406 0.0
H1672 H 0.09991 0.99122 0.15109 0.0
H1673 H 0.06476 0.98632 0.07354 0.0
H1674 H 0.10069 0.02426 0.91994 0.0
H1675 H 0.09871 0.01325 0.98551 0.0
H1676 H 0.09329 0.0219 0.06457 0.0
C1677 C 0.09163 0.98675 0.16202 0.0
C1678 C 0.07083 0.99422 0.07283 0.0
C1679 C 0.09245 0.97977 0.19791 0.0
C1680 C 0.09202 0.02463 0.93646 0.0
C1681 C 0.09091 0.01842 0.97387 0.0
C1682 C 0.0869 0.01426 0.06676 0.0
C1683 C 0.08032 0.98801 0.14109 0.0
C1684 C 0.07931 0.99646 0.10491 0.0
C1685 C 0.07974 0.01864 0.99561 0.0
C1686 C 0.07872 0.01173 0.03451 0.0
H1687 H 0.06305 0.96894 0.20204 0.0
H1688 H 0.06117 0.98199 0.14085 0.0
H1689 H 0.09349 0.00921 0.12603 0.0
H1690 H 0.06323 0.03707 0.93093 0.0
H1691 H 0.06109 0.0257 0.9965 0.0
C1692 C 0.22844 0.84538 0.19124 0.0
C1693 C 0.2223 0.83497 0.17635 0.0
C1694 C 0.23537 0.8447 0.22731 0.0
C1695 C 0.2554 0.84042 0.28811 0.0
H1696 H 0.24895 0.81684 0.37523 0.0
C1697 C 0.28149 0.82307 0.44358 0.0
C1698 C 0.28102 0.83388 0.46723 0.0
C1699 C 0.27474 0.82223 0.40689 0.0
C1700 C 0.25085 0.82341 0.35093 0.0
H1701 H 0.21772 0.81593 0.18803 0.0
H1702 H 0.23069 0.81428 0.24936 0.0
H1703 H 0.23517 0.81781 0.31608 0.0
H1704 H 0.27414 0.85256 0.47039 0.0
H1705 H 0.26262 0.85125 0.40558 0.0
H1706 H 0.27058 0.84653 0.32497 0.0
C1707 C 0.22996 0.82315 0.23434 0.0
C1708 C 0.24302 0.82393 0.31672 0.0
C1709 C 0.22263 0.82399 0.19891 0.0
C1710 C 0.27436 0.84406 0.45286 0.0
C1711 C 0.26787 0.84333 0.41589 0.0
C1712 C 0.26296 0.84012 0.3228 0.0
C1713 C 0.23664 0.83346 0.24867 0.0
C1714 C 0.2451 0.83255 0.28489 0.0
C1715 C 0.26789 0.83238 0.39293 0.0
C1716 C 0.26066 0.83172 0.3546 0.0
H1717 H 0.22795 0.85405 0.17473 0.0
H1718 H 0.23978 0.85304 0.23802 0.0
H1719 H 0.25768 0.84693 0.26405 0.0
H1720 H 0.28679 0.81521 0.45405 0.0
H1721 H 0.2749 0.81374 0.38933 0.0
C1722 C 0.42677 0.03193 0.68901 0.0
C1723 C 0.4162 0.03146 0.71366 0.0
C1724 C 0.42763 0.02455 0.65372 0.0
C1725 C 0.4116 0.9977 0.60312 0.0
H1726 H 0.43349 0.00577 0.51268 0.0
C1727 C 0.42871 0.97122 0.44941 0.0
C1728 C 0.41827 0.97202 0.42403 0.0
C1729 C 0.42936 0.9782 0.48569 0.0
C1730 C 0.42737 0.00345 0.53783 0.0
H1731 H 0.39772 0.02427 0.71913 0.0
H1732 H 0.39865 0.01227 0.65609 0.0
H1733 H 0.43215 0.0196 0.57155 0.0
H1734 H 0.40002 0.97979 0.41741 0.0
H1735 H 0.40102 0.99174 0.48155 0.0
H1736 H 0.40622 0.98201 0.56715 0.0
C1737 C 0.40676 0.01741 0.66503 0.0
C1738 C 0.42666 0.01128 0.57196 0.0
C1739 C 0.40611 0.02441 0.701 0.0
C1740 C 0.40826 0.97931 0.43623 0.0
C1741 C 0.4088 0.98605 0.47279 0.0
C1742 C 0.41204 0.99012 0.56841 0.0
C1743 C 0.41768 0.017 0.6415 0.0
C1744 C 0.41869 0.00858 0.60514 0.0
C1745 C 0.41939 0.98563 0.49747 0.0
C1746 C 0.41985 0.993 0.53549 0.0
H1747 H 0.43457 0.03753 0.69815 0.0
H1748 H 0.43627 0.0245 0.63711 0.0
H1749 H 0.40563 0.99495 0.62817 0.0
H1750 H 0.43642 0.96546 0.44066 0.0
H1751 H 0.43757 0.97774 0.50464 0.0
C1752 C 0.78232 0.82286 0.19836 0.0
C1753 C 0.78186 0.83364 0.17456 0.0
C1754 C 0.7756 0.8221 0.23513 0.0
C1755 C 0.7518 0.82322 0.29103 0.0
H1756 H 0.75817 0.84707 0.3773 0.0
C1757 C 0.729 0.84505 0.45048 0.0
C1758 C 0.72298 0.83455 0.46526 0.0
C1759 C 0.73594 0.84448 0.41439 0.0
C1760 C 0.75601 0.84047 0.35339 0.0
H1761 H 0.77503 0.85234 0.17119 0.0
H1762 H 0.76354 0.85114 0.2361 0.0
H1763 H 0.77116 0.8467 0.31655 0.0
H1764 H 0.71863 0.81547 0.45339 0.0
H1765 H 0.73163 0.81401 0.39218 0.0
H1766 H 0.73615 0.81749 0.32574 0.0
C1767 C 0.76877 0.8432 0.2259 0.0
C1768 C 0.76362 0.84019 0.3188 0.0
C1769 C 0.77525 0.84386 0.18885 0.0
C1770 C 0.72344 0.8236 0.44259 0.0
C1771 C 0.73079 0.82286 0.4072 0.0
C1772 C 0.74391 0.82373 0.32508 0.0
C1773 C 0.76878 0.83228 0.24901 0.0
C1774 C 0.76149 0.83165 0.28724 0.0
C1775 C 0.73734 0.83326 0.39294 0.0
C1776 C 0.74583 0.83245 0.35673 0.0
H1777 H 0.78759 0.81497 0.18794 0.0
H1778 H 0.77574 0.81362 0.25278 0.0
H1779 H 0.75004 0.81656 0.26692 0.0
H1780 H 0.72838 0.8537 0.46707 0.0
H1781 H 0.74025 0.85287 0.40376 0.0
C1782 C 0.92891 0.03085 0.9481 0.0
C1783 C 0.91804 0.03043 0.92477 0.0
C1784 C 0.92978 0.02418 0.98494 0.0
C1785 C 0.92889 1.00053 0.04119 0.0
H1786 H 0.90515 0.00665 0.12798 0.0
C1787 C 0.929 0.97204 0.19248 0.0
C1788 C 0.91809 0.97147 0.21537 0.0
C1789 C 0.92962 0.97942 0.15716 0.0
C1790 C 0.91172 0.00455 0.10392 0.0
H1791 H 0.89929 0.02372 0.92236 0.0
H1792 H 0.90066 0.01232 0.98739 0.0
H1793 H 0.90529 0.01967 0.06731 0.0
H1794 H 0.89891 0.97674 0.21764 0.0
H1795 H 0.89954 0.98868 0.15447 0.0
H1796 H 0.93481 0.98491 0.07568 0.0
C1797 C 0.90859 0.01749 0.97678 0.0
C1798 C 0.91187 0.01219 0.06937 0.0
C1799 C 0.90783 0.02391 0.93966 0.0
C1800 C 0.90753 0.97743 0.20088 0.0
C1801 C 0.90799 0.98441 0.16486 0.0
C1802 C 0.92851 0.99262 0.0752 0.0
C1803 C 0.91961 0.01745 -0.00061 0.0
C1804 C 0.92036 0.01015 0.0376 0.0
C1805 C 0.91915 0.98592 0.14319 0.0
C1806 C 0.91983 0.99444 0.10703 0.0
H1807 H 0.9368 0.03604 0.93722 0.0
H1808 H 0.93833 0.02428 0.00218 0.0
H1809 H 0.93553 0.99883 0.01695 0.0
H1810 H 0.93718 0.96727 0.20304 0.0
H1811 H 0.93844 0.98034 0.14196 0.0
C1812 C 0.77444 0.15684 0.95196 0.0
C1813 C 0.78058 0.16728 0.9666 0.0
C1814 C 0.76744 0.15747 0.91602 0.0
C1815 C 0.75957 0.17824 0.82671 0.0
H1816 H 0.73219 0.15543 0.81827 0.0
C1817 C 0.7208 0.17889 0.70061 0.0
C1818 C 0.72163 0.16825 0.67618 0.0
C1819 C 0.72753 0.17972 0.73736 0.0
C1820 C 0.73976 0.16191 0.82053 0.0
H1821 H 0.78506 0.18633 0.95464 0.0
H1822 H 0.77196 0.1879 0.89371 0.0
H1823 H 0.74514 0.15505 0.87914 0.0
H1824 H 0.72917 0.14984 0.67167 0.0
H1825 H 0.74065 0.15114 0.73656 0.0
H1826 H 0.7535 0.1854 0.76845 0.0
C1827 C 0.77275 0.17904 0.90872 0.0
C1828 C 0.74735 0.16161 0.85516 0.0
C1829 C 0.78016 0.17824 0.94396 0.0
C1830 C 0.72866 0.15822 0.6898 0.0
C1831 C 0.73513 0.15893 0.72682 0.0
C1832 C 0.75169 0.17877 0.79262 0.0
C1833 C 0.76609 0.16869 0.89458 0.0
C1834 C 0.75759 0.16956 0.85843 0.0
C1835 C 0.73473 0.16972 0.75057 0.0
C1836 C 0.74195 0.17039 0.78889 0.0
H1837 H 0.77502 0.14818 0.96851 0.0
H1838 H 0.76303 0.14911 0.90548 0.0
H1839 H 0.76737 0.18443 0.82732 0.0
H1840 H 0.71523 0.18662 0.69073 0.0
H1841 H 0.72709 0.18808 0.75553 0.0
C1842 C 0.58057 0.03378 0.67501 0.0
C1843 C 0.58822 0.03046 0.70805 0.0
C1844 C 0.58105 0.02719 0.63798 0.0
C1845 C 0.58783 0.99691 0.59843 0.0
H1846 H 0.59149 0.01248 0.49161 0.0
C1847 C 0.57873 0.97155 0.44487 0.0
C1848 C 0.58782 0.97303 0.41458 0.0
C1849 C 0.57894 0.97884 0.48041 0.0
C1850 C 0.59032 0.00805 0.5212 0.0
H1851 H 0.60325 0.01869 0.72735 0.0
H1852 H 0.6038 0.00683 0.66305 0.0
H1853 H 0.59157 0.02515 0.55414 0.0
H1854 H 0.60479 0.98235 0.39864 0.0
H1855 H 0.60502 0.99536 0.46034 0.0
H1856 H 0.58629 0.97985 0.56567 0.0
C1857 C 0.59727 0.01433 0.66606 0.0
C1858 C 0.59039 0.01527 0.55686 0.0
C1859 C 0.59689 0.02101 0.7028 0.0
C1860 C 0.59741 0.98147 0.42095 0.0
C1861 C 0.59757 0.98884 0.45621 0.0
C1862 C 0.5874 0.98973 0.56278 0.0
C1863 C 0.58924 0.01726 0.63361 0.0
C1864 C 0.58917 0.00973 0.59575 0.0
C1865 C 0.58832 0.9876 0.48618 0.0
C1866 C 0.58864 0.99524 0.52385 0.0
H1867 H 0.57402 0.04125 0.67824 0.0
H1868 H 0.5748 0.02962 0.6132 0.0
H1869 H 0.58697 0.99245 0.62806 0.0
H1870 H 0.5714 0.96489 0.44077 0.0
H1871 H 0.57172 0.97773 0.5032 0.0
C1872 C 0.72986 0.65816 0.45231 0.0
C1873 C 0.72326 0.66836 0.46684 0.0
C1874 C 0.73629 0.65887 0.41519 0.0
C1875 C 0.75322 0.67886 0.35017 0.0
H1876 H 0.74657 0.65524 0.26342 0.0
C1877 C 0.78153 0.67843 0.19849 0.0
C1878 C 0.78196 0.66747 0.17586 0.0
C1879 C 0.77415 0.67922 0.23379 0.0
C1880 C 0.74881 0.66178 0.28745 0.0
H1881 H 0.7175 0.68704 0.4538 0.0
H1882 H 0.72927 0.68848 0.38882 0.0
H1883 H 0.73365 0.65559 0.32434 0.0
H1884 H 0.77645 0.64835 0.17402 0.0
H1885 H 0.7645 0.64927 0.23715 0.0
H1886 H 0.76889 0.68453 0.31539 0.0
C1887 C 0.72944 0.67998 0.40635 0.0
C1888 C 0.74123 0.66205 0.32214 0.0
C1889 C 0.72276 0.67917 0.4432 0.0
C1890 C 0.77586 0.65702 0.19057 0.0
C1891 C 0.76888 0.65764 0.22656 0.0
C1892 C 0.76107 0.67836 0.31601 0.0
C1893 C 0.73624 0.66982 0.39223 0.0
C1894 C 0.74347 0.67049 0.35389 0.0
C1895 C 0.76753 0.66886 0.24799 0.0
C1896 C 0.75905 0.66971 0.28421 0.0
H1897 H 0.7301 0.64966 0.46984 0.0
H1898 H 0.74151 0.65095 0.40479 0.0
H1899 H 0.75507 0.68546 0.37442 0.0
H1900 H 0.78641 0.68653 0.18775 0.0
H1901 H 0.77335 0.68808 0.24883 0.0
C1902 C 0.57552 0.53178 0.45073 0.0
C1903 C 0.58637 0.53214 0.42751 0.0
C1904 C 0.57493 0.52456 0.48645 0.0
C1905 C 0.59276 0.49947 0.54024 0.0
H1906 H 0.56856 0.5051 0.62604 0.0
C1907 C 0.57425 0.47237 0.69244 0.0
C1908 C 0.58488 0.47256 0.71699 0.0
C1909 C 0.57377 0.47935 0.65617 0.0
C1910 C 0.57532 0.50344 0.60214 0.0
H1911 H 0.60551 0.52675 0.42505 0.0
H1912 H 0.60496 0.51515 0.48892 0.0
H1913 H 0.56964 0.51917 0.56782 0.0
H1914 H 0.60362 0.47917 0.72211 0.0
H1915 H 0.60293 0.49111 0.65802 0.0
H1916 H 0.59891 0.48421 0.57673 0.0
C1917 C 0.59652 0.51941 0.47851 0.0
C1918 C 0.57591 0.51143 0.5684 0.0
C1919 C 0.59693 0.52621 0.44208 0.0
C1920 C 0.59525 0.47916 0.70387 0.0
C1921 C 0.59488 0.48589 0.66729 0.0
C1922 C 0.5924 0.49175 0.57456 0.0
C1923 C 0.58539 0.51806 0.50051 0.0
C1924 C 0.58468 0.5096 0.53686 0.0
C1925 C 0.5841 0.48617 0.6435 0.0
C1926 C 0.58374 0.49373 0.60583 0.0
H1927 H 0.56734 0.53654 0.44011 0.0
H1928 H 0.56613 0.52377 0.50182 0.0
H1929 H 0.59942 0.49737 0.51646 0.0
H1930 H 0.56625 0.46712 0.70193 0.0
H1931 H 0.5654 0.47942 0.63797 0.0
C1932 C 0.72655 0.34235 0.68673 0.0
C1933 C 0.71957 0.33242 0.67207 0.0
C1934 C 0.73299 0.34133 0.72375 0.0
C1935 C 0.7496 0.32125 0.78813 0.0
H1936 H 0.74214 0.34388 0.87709 0.0
C1937 C 0.77768 0.3213 0.94048 0.0
C1938 C 0.77794 0.33222 0.96342 0.0
C1939 C 0.77028 0.32049 0.9052 0.0
C1940 C 0.74458 0.33761 0.85248 0.0
H1941 H 0.7132 0.31392 0.68476 0.0
H1942 H 0.72497 0.31194 0.74957 0.0
H1943 H 0.72939 0.34378 0.81572 0.0
H1944 H 0.77205 0.35122 0.96593 0.0
H1945 H 0.76005 0.35025 0.90298 0.0
H1946 H 0.76529 0.31562 0.82291 0.0
C1947 C 0.72543 0.32045 0.73219 0.0
C1948 C 0.73711 0.33748 0.81754 0.0
C1949 C 0.71874 0.32158 0.69545 0.0
C1950 C 0.77162 0.34259 0.94913 0.0
C1951 C 0.76461 0.34194 0.91325 0.0
C1952 C 0.75733 0.3216 0.82261 0.0
C1953 C 0.73258 0.33035 0.74645 0.0
C1954 C 0.73966 0.32941 0.78498 0.0
C1955 C 0.76346 0.33077 0.89144 0.0
C1956 C 0.75502 0.32991 0.85517 0.0
H1957 H 0.72705 0.35088 0.66943 0.0
H1958 H 0.73846 0.34906 0.73436 0.0
H1959 H 0.75168 0.31494 0.76323 0.0
H1960 H 0.78272 0.31327 0.9509 0.0
H1961 H 0.76964 0.31167 0.88977 0.0
C1962 C 0.92601 0.53232 0.18704 0.0
C1963 C 0.91678 0.53112 0.21694 0.0
C1964 C 0.92562 0.5251 0.15126 0.0
C1965 C 0.90476 0.50401 0.09184 0.0
H1966 H 0.93565 0.49209 0.04723 0.0
C1967 C 0.92499 0.46696 0.96299 0.0
C1968 C 0.91599 0.46893 0.93277 0.0
C1969 C 0.92478 0.47386 -0.00046 0.0
C1970 C 0.92692 0.4951 0.05983 0.0
H1971 H 0.89926 0.52273 0.23158 0.0
H1972 H 0.89879 0.50971 0.17102 0.0
H1973 H 0.93583 0.50608 0.1057 0.0
H1974 H 0.89902 0.4784 0.91811 0.0
H1975 H 0.89889 0.49081 0.98 0.0
H1976 H 0.8958 0.49234 0.04854 0.0
C1977 C 0.90635 0.51613 0.17414 0.0
C1978 C 0.92703 0.50341 0.09281 0.0
C1979 C 0.9067 0.52343 0.20939 0.0
C1980 C 0.90629 0.47707 0.94061 0.0
C1981 C 0.90612 0.48403 0.97661 0.0
C1982 C 0.90465 0.49544 0.05991 0.0
C1983 C 0.91594 0.51664 0.14492 0.0
C1984 C 0.91594 0.50806 0.10906 0.0
C1985 C 0.91548 0.48272 0.0063 0.0
C1986 C 0.91571 0.491 0.04294 0.0
H1987 H 0.93369 0.53853 0.19196 0.0
H1988 H 0.93297 0.52606 0.12891 0.0
H1989 H 0.89601 0.50749 0.10275 0.0
H1990 H 0.93237 0.46043 0.95777 0.0
H1991 H 0.93195 0.47234 0.02216 0.0
C1992 C 0.27409 0.34445 0.68537 0.0
C1993 C 0.28031 0.33413 0.67019 0.0
C1994 C 0.267 0.34357 0.72107 0.0
C1995 C 0.25917 0.32234 0.80912 0.0
H1996 H 0.23168 0.34499 0.81836 0.0
C1997 C 0.22109 0.32168 0.93764 0.0
C1998 C 0.22191 0.33247 0.96131 0.0
C1999 C 0.22761 0.32075 0.90047 0.0
C2000 C 0.23927 0.33854 0.81586 0.0
H2001 H 0.28487 0.31504 0.681 0.0
H2002 H 0.27165 0.31304 0.74154 0.0
H2003 H 0.24457 0.34555 0.75738 0.0
H2004 H 0.22916 0.35102 0.9641 0.0
H2005 H 0.24027 0.34954 0.89859 0.0
H2006 H 0.25323 0.31506 0.86739 0.0
C2007 C 0.27242 0.32199 0.72709 0.0
C2008 C 0.24683 0.33895 0.78116 0.0
C2009 C 0.2799 0.32304 0.69209 0.0
C2010 C 0.22867 0.34253 0.94656 0.0
C2011 C 0.23493 0.34171 0.90917 0.0
C2012 C 0.25134 0.32171 0.84331 0.0
C2013 C 0.26567 0.33221 0.74173 0.0
C2014 C 0.25713 0.3311 0.77768 0.0
C2015 C 0.23455 0.33079 0.88611 0.0
C2016 C 0.24158 0.33005 0.84739 0.0
H2017 H 0.27466 0.35321 0.66942 0.0
H2018 H 0.26252 0.35184 0.73207 0.0
H2019 H 0.26702 0.31621 0.80826 0.0
H2020 H 0.21571 0.31392 0.94843 0.0
H2021 H 0.22719 0.31228 0.88287 0.0
C2022 C 0.4292 0.53085 0.44915 0.0
C2023 C 0.41843 0.53124 0.42551 0.0
C2024 C 0.42963 0.52365 0.48494 0.0
C2025 C 0.41152 0.49862 0.53791 0.0
H2026 H 0.43507 0.50442 0.6256 0.0
C2027 C 0.42857 0.47182 0.69252 0.0
C2028 C 0.41773 0.47217 0.71601 0.0
C2029 C 0.42944 0.47872 0.65614 0.0
C2030 C 0.4285 0.50271 0.60117 0.0
H2031 H 0.39929 0.52589 0.42231 0.0
H2032 H 0.39957 0.51432 0.48624 0.0
H2033 H 0.43446 0.51835 0.56686 0.0
H2034 H 0.39902 0.47898 0.71916 0.0
H2035 H 0.40039 0.49076 0.65489 0.0
H2036 H 0.40507 0.48345 0.57426 0.0
C2037 C 0.40806 0.51856 0.47615 0.0
C2038 C 0.42818 0.51062 0.56716 0.0
C2039 C 0.4078 0.52533 0.43968 0.0
C2040 C 0.40755 0.47884 0.70175 0.0
C2041 C 0.40831 0.48549 0.66507 0.0
C2042 C 0.41162 0.49097 0.57244 0.0
C2043 C 0.4191 0.51718 0.49858 0.0
C2044 C 0.41963 0.50874 0.535 0.0
C2045 C 0.4193 0.4856 0.64232 0.0
C2046 C 0.42003 0.49302 0.60441 0.0
H2047 H 0.43743 0.53558 0.43881 0.0
H2048 H 0.43837 0.52284 0.50074 0.0
H2049 H 0.40503 0.49648 0.51366 0.0
H2050 H 0.43644 0.46652 0.70291 0.0
H2051 H 0.43796 0.47866 0.63875 0.0
C2052 C 0.28079 0.67898 0.43927 0.0
C2053 C 0.28109 0.66795 0.46155 0.0
C2054 C 0.27348 0.67992 0.40384 0.0
C2055 C 0.24808 0.66283 0.34928 0.0
H2056 H 0.25453 0.68678 0.26329 0.0
C2057 C 0.22916 0.65992 0.18435 0.0
C2058 C 0.22242 0.67013 0.17063 0.0
C2059 C 0.23568 0.6605 0.2213 0.0
C2060 C 0.25263 0.68011 0.28729 0.0
H2061 H 0.27544 0.64887 0.46263 0.0
H2062 H 0.26363 0.65005 0.39926 0.0
H2063 H 0.26832 0.68554 0.32237 0.0
H2064 H 0.21653 0.68869 0.18491 0.0
H2065 H 0.22846 0.68991 0.24962 0.0
H2066 H 0.23288 0.65689 0.31212 0.0
C2067 C 0.26805 0.65835 0.41023 0.0
C2068 C 0.26046 0.67943 0.32145 0.0
C2069 C 0.27495 0.65758 0.44635 0.0
C2070 C 0.2219 0.68081 0.19488 0.0
C2071 C 0.22867 0.68151 0.23157 0.0
C2072 C 0.24051 0.66329 0.31461 0.0
C2073 C 0.26681 0.66965 0.38916 0.0
C2074 C 0.25837 0.67068 0.3529 0.0
C2075 C 0.23559 0.67133 0.24489 0.0
C2076 C 0.24281 0.67183 0.28323 0.0
H2077 H 0.28569 0.68701 0.45039 0.0
H2078 H 0.27277 0.68883 0.3891 0.0
H2079 H 0.24579 0.65622 0.37302 0.0
H2080 H 0.22942 0.6515 0.16636 0.0
H2081 H 0.24098 0.65257 0.23112 0.0
C2082 C 0.09952 0.5254 0.19973 0.0
C2083 C 0.0896 0.53309 0.20941 0.0
C2084 C 0.09946 0.51856 0.16344 0.0
C2085 C 0.07764 0.50679 0.08412 0.0
H2086 H 0.10808 0.49519 0.03534 0.0
C2087 C 0.07746 0.46937 0.95748 0.0
C2088 C 0.08609 0.47082 0.92573 0.0
C2089 C 0.07822 0.47671 0.99292 0.0
C2090 C 0.09944 0.49844 0.04797 0.0
H2091 H 0.07259 0.54103 0.18717 0.0
H2092 H 0.07257 0.52933 0.12246 0.0
H2093 H 0.10882 0.51031 0.08967 0.0
H2094 H 0.10297 0.47986 0.90733 0.0
H2095 H 0.10402 0.49306 0.96737 0.0
H2096 H 0.06825 0.49558 0.03998 0.0
C2097 C 0.08011 0.52802 0.14385 0.0
C2098 C 0.09988 0.50701 0.07993 0.0
C2099 C 0.08014 0.5348 0.18061 0.0
C2100 C 0.09596 0.47894 0.93098 0.0
C2101 C 0.09667 0.48635 0.9659 0.0
C2102 C 0.07718 0.49848 0.05121 0.0
C2103 C 0.0896 0.51951 0.1354 0.0
C2104 C 0.08901 0.51119 0.09891 0.0
C2105 C 0.08769 0.48553 0.99709 0.0
C2106 C 0.08809 0.49412 0.03287 0.0
H2107 H 0.10714 0.52434 0.22106 0.0
H2108 H 0.10691 0.51209 0.15864 0.0
H2109 H 0.06905 0.50959 0.09829 0.0
H2110 H 0.06996 0.46285 0.95433 0.0
H2111 H 0.07134 0.47554 0.0168 0.0
C2112 C 0.19794 0.20492 0.09311 0.0
C2113 C 0.20832 0.19852 0.10776 0.0
C2114 C 0.19678 0.21764 0.09964 0.0
C2115 C 0.21696 0.24441 0.1167 0.0
H2116 H 0.18661 0.26253 0.13381 0.0
C2117 C 0.21839 0.29667 0.1319 0.0
C2118 C 0.20984 0.30333 0.1082 0.0
C2119 C 0.21679 0.28408 0.13882 0.0
C2120 C 0.19514 0.25759 0.12885 0.0
H2121 H 0.22508 0.20026 0.14377 0.0
H2122 H 0.22291 0.22225 0.156 0.0
H2123 H 0.1863 0.23994 0.1335 0.0
H2124 H 0.19249 0.30214 0.07531 0.0
H2125 H 0.18979 0.28003 0.08682 0.0
H2126 H 0.22581 0.26186 0.11109 0.0
C2127 C 0.21584 0.21757 0.13833 0.0
C2128 C 0.19497 0.24465 0.12867 0.0
C2129 C 0.21705 0.20493 0.13154 0.0
C2130 C 0.19922 0.29727 0.09387 0.0
C2131 C 0.19767 0.28459 0.10047 0.0
C2132 C 0.21714 0.25725 0.11688 0.0
C2133 C 0.20596 0.22419 0.12115 0.0
C2134 C 0.2059 0.23791 0.1227 0.0
C2135 C 0.20669 0.27777 0.12177 0.0
C2136 C 0.20626 0.26404 0.12306 0.0
H2137 H 0.19107 0.20025 0.07454 0.0
H2138 H 0.18906 0.22244 0.08588 0.0
H2139 H 0.22551 0.23957 0.11081 0.0
H2140 H 0.22659 0.30109 0.14385 0.0
H2141 H 0.22374 0.27919 0.15636 0.0
C2142 C 0.04723 0.9691 0.3869 0.0
C2143 C 0.05375 0.96065 0.36233 0.0
C2144 C 0.03465 0.96758 0.39411 0.0
C2145 C 0.0079 0.94631 0.38317 0.0
H2146 H 0.99028 0.97692 0.36538 0.0
C2147 C 0.95545 0.94953 0.34558 0.0
C2148 C 0.94906 0.95998 0.35974 0.0
C2149 C 0.96814 0.94831 0.35268 0.0
C2150 C 0.995 0.96831 0.37125 0.0
H2151 H 0.05231 0.94349 0.32838 0.0
H2152 H 0.03022 0.94091 0.34051 0.0
H2153 H 0.01257 0.97698 0.36647 0.0
H2154 H 0.95075 0.97681 0.39539 0.0
H2155 H 0.97267 0.97453 0.40872 0.0
H2156 H 0.99015 0.93765 0.38704 0.0
C2157 C 0.03489 0.94867 0.35454 0.0
C2158 C 0.00784 0.96834 0.37187 0.0
C2159 C 0.04756 0.95015 0.34759 0.0
C2160 C 0.95543 0.96873 0.38353 0.0
C2161 C 0.96803 0.96746 0.39095 0.0
C2162 C 0.99497 0.94628 0.3826 0.0
C2163 C 0.02821 0.95763 0.37657 0.0
C2164 C 0.01449 0.95737 0.37785 0.0
C2165 C 0.97465 0.95748 0.37433 0.0
C2166 C 0.98837 0.9573 0.37664 0.0
H2167 H 0.05175 0.97722 0.39916 0.0
H2168 H 0.02986 0.97448 0.41217 0.0
H2169 H 0.01274 0.93771 0.38796 0.0
H2170 H 0.95082 0.94264 0.32702 0.0
H2171 H 0.97294 0.94053 0.3393 0.0
C2172 C 0.30318 0.79712 0.59627 0.0
C2173 C 0.29263 0.80333 0.61053 0.0
C2174 C 0.30443 0.78438 0.6021 0.0
C2175 C 0.28446 0.75729 0.61608 0.0
H2176 H 0.31492 0.73946 0.63433 0.0
C2177 C 0.28372 0.70491 0.62929 0.0
C2178 C 0.29255 0.69842 0.60617 0.0
C2179 C 0.28503 0.71753 0.63637 0.0
C2180 C 0.30636 0.74432 0.62902 0.0
H2181 H 0.27566 0.80121 0.64516 0.0
H2182 H 0.27799 0.77919 0.6562 0.0
H2183 H 0.31495 0.76205 0.63534 0.0
H2184 H 0.31006 0.69999 0.57439 0.0
H2185 H 0.31225 0.72214 0.58621 0.0
H2186 H 0.27587 0.73975 0.60886 0.0
C2187 C 0.28512 0.78403 0.63936 0.0
C2188 C 0.30638 0.75725 0.6296 0.0
C2189 C 0.28382 0.79669 0.63326 0.0
C2190 C 0.30311 0.70471 0.59244 0.0
C2191 C 0.30437 0.71741 0.59925 0.0
C2192 C 0.28445 0.74445 0.6155 0.0
C2193 C 0.29519 0.77762 0.62251 0.0
C2194 C 0.2954 0.76389 0.62324 0.0
C2195 C 0.29512 0.72404 0.62013 0.0
C2196 C 0.29536 0.73776 0.62206 0.0
H2197 H 0.31011 0.80196 0.57849 0.0
H2198 H 0.31229 0.77974 0.58862 0.0
H2199 H 0.2759 0.76205 0.60987 0.0
H2200 H 0.27556 0.70032 0.64081 0.0
H2201 H 0.27789 0.72226 0.65355 0.0
C2202 C 0.45233 0.05813 0.83573 0.0
C2203 C 0.44792 0.04673 0.85021 0.0
C2204 C 0.46487 0.06103 0.83849 0.0
C2205 C 0.49197 0.05774 0.81488 0.0
H2206 H 0.51318 0.05014 0.9079 0.0
C2207 C 0.54133 0.03998 0.80081 0.0
C2208 C 0.55071 0.04584 0.82335 0.0
C2209 C 0.52904 0.04325 0.80639 0.0
C2210 C 0.50735 0.05251 0.88194 0.0
H2211 H 0.4531 0.02985 0.88161 0.0
H2212 H 0.4749 0.03503 0.88697 0.0
H2213 H 0.49073 0.0501 0.91694 0.0
H2214 H 0.55454 0.05979 0.86947 0.0
H2215 H 0.53273 0.06522 0.88053 0.0
H2216 H 0.50854 0.05933 0.77926 0.0
C2217 C 0.46868 0.04168 0.87331 0.0
C2218 C 0.49454 0.05241 0.887 0.0
C2219 C 0.45619 0.03869 0.87001 0.0
C2220 C 0.5475 0.05519 0.85147 0.0
C2221 C 0.53507 0.05825 0.8579 0.0
C2222 C 0.50475 0.05764 0.80969 0.0
C2223 C 0.47321 0.0527 0.85641 0.0
C2224 C 0.48672 0.05474 0.85326 0.0
C2225 C 0.52576 0.05227 0.83535 0.0
C2226 C 0.51254 0.05474 0.8429 0.0
H2227 H 0.44624 0.06452 0.82019 0.0
H2228 H 0.46811 0.06963 0.82539 0.0
H2229 H 0.4862 0.05945 0.78822 0.0
H2230 H 0.54346 0.03275 0.77897 0.0
H2231 H 0.52202 0.03842 0.78893 0.0
C2232 C 0.21847 0.79895 0.00474 0.0
C2233 C 0.20996 0.80541 0.02927 0.0
C2234 C 0.21702 0.78636 0.99745 0.0
C2235 C 0.19586 0.75951 0.00774 0.0
H2236 H 0.22658 0.74194 0.02379 0.0
C2237 C 0.19962 0.70683 0.042 0.0
C2238 C 0.21009 0.70064 0.02698 0.0
C2239 C 0.19823 0.71954 0.0357 0.0
C2240 C 0.21793 0.74666 0.01843 0.0
H2241 H 0.19283 0.80384 0.06324 0.0
H2242 H 0.1904 0.78173 0.05105 0.0
H2243 H 0.22653 0.76423 0.02412 0.0
H2244 H 0.22672 0.7027 0.99054 0.0
H2245 H 0.22413 0.72466 0.97861 0.0
H2246 H 0.18728 0.74173 0.00298 0.0
C2247 C 0.19812 0.78646 0.03707 0.0
C2248 C 0.21791 0.7595 0.01862 0.0
C2249 C 0.19952 0.79914 0.04407 0.0
C2250 C 0.21864 0.70722 0.00304 0.0
C2251 C 0.21719 0.71984 0.99643 0.0
C2252 C 0.19589 0.74657 0.00753 0.0
C2253 C 0.20712 0.77984 0.01492 0.0
C2254 C 0.2069 0.76612 0.01319 0.0
C2255 C 0.20724 0.72627 0.01402 0.0
C2256 C 0.20696 0.74 0.01279 0.0
H2257 H 0.22653 0.80354 0.99241 0.0
H2258 H 0.22394 0.78164 0.97928 0.0
H2259 H 0.18723 0.76433 0.00336 0.0
H2260 H 0.19289 0.70202 0.06072 0.0
H2261 H 0.19046 0.72419 0.04978 0.0
C2262 C 0.45478 0.94616 0.29722 0.0
C2263 C 0.44983 0.95765 0.28577 0.0
C2264 C 0.46731 0.94361 0.29112 0.0
C2265 C 0.49524 0.95425 0.23506 0.0
H2266 H 0.51294 0.94248 0.33129 0.0
C2267 C 0.54611 0.96522 0.26306 0.0
C2268 C 0.55376 0.95667 0.28323 0.0
C2269 C 0.5336 0.96282 0.25743 0.0
C2270 C 0.50815 0.94552 0.30378 0.0
H2271 H 0.45409 0.9752 0.25704 0.0
H2272 H 0.47578 0.97074 0.24627 0.0
H2273 H 0.49047 0.94276 0.33172 0.0
H2274 H 0.55427 0.93864 0.31197 0.0
H2275 H 0.53229 0.93441 0.30202 0.0
H2276 H 0.51289 0.95737 0.20757 0.0
C2277 C 0.47002 0.96368 0.25991 0.0
C2278 C 0.49525 0.94569 0.30405 0.0
C2279 C 0.45757 0.96627 0.26634 0.0
C2280 C 0.54865 0.94541 0.29625 0.0
C2281 C 0.53604 0.94303 0.29082 0.0
C2282 C 0.50811 0.95405 0.23474 0.0
C2283 C 0.47511 0.95243 0.27297 0.0
C2284 C 0.48865 0.95041 0.27016 0.0
C2285 C 0.52834 0.95181 0.27187 0.0
C2286 C 0.51474 0.95005 0.26959 0.0
H2287 H 0.4491 0.93932 0.31239 0.0
H2288 H 0.47094 0.93482 0.30123 0.0
H2289 H 0.49043 0.95772 0.20816 0.0
H2290 H 0.54971 0.97398 0.25247 0.0
H2291 H 0.52795 0.96987 0.24323 0.0
C2292 C 0.28175 0.20547 0.50626 0.0
C2293 C 0.29051 0.19878 0.52899 0.0
C2294 C 0.28325 0.21808 0.49951 0.0
C2295 C 0.30506 0.2445 0.50743 0.0
H2296 H 0.27489 0.26272 0.52669 0.0
C2297 C 0.30264 0.29731 0.54149 0.0
C2298 C 0.29224 0.3037 0.52693 0.0
C2299 C 0.30372 0.28455 0.53544 0.0
C2300 C 0.28338 0.25781 0.52048 0.0
H2301 H 0.3081 0.19998 0.56046 0.0
H2302 H 0.31062 0.22212 0.54927 0.0
H2303 H 0.27448 0.24042 0.52725 0.0
H2304 H 0.27537 0.30189 0.49154 0.0
H2305 H 0.27739 0.27985 0.48022 0.0
H2306 H 0.31396 0.2621 0.50164 0.0
C2307 C 0.30265 0.21756 0.53624 0.0
C2308 C 0.28314 0.24497 0.52078 0.0
C2309 C 0.3012 0.20486 0.54269 0.0
C2310 C 0.28341 0.29723 0.50369 0.0
C2311 C 0.28453 0.28457 0.49742 0.0
C2312 C 0.3053 0.25744 0.50717 0.0
C2313 C 0.29348 0.22439 0.51573 0.0
C2314 C 0.29395 0.23812 0.51414 0.0
C2315 C 0.29444 0.27797 0.51454 0.0
C2316 C 0.29443 0.26424 0.51357 0.0
H2317 H 0.27349 0.20104 0.49479 0.0
H2318 H 0.27617 0.22297 0.48259 0.0
H2319 H 0.31355 0.23951 0.50205 0.0
H2320 H 0.30958 0.302 0.55965 0.0
H2321 H 0.31146 0.27976 0.54912 0.0
C2322 C 0.95454 0.05191 0.79176 0.0
C2323 C 0.94823 0.04125 0.77898 0.0
C2324 C 0.96721 0.05316 0.78439 0.0
C2325 C 0.99425 0.03324 0.76837 0.0
H2326 H 0.01165 0.06373 0.74628 0.0
C2327 C 0.04649 0.03278 0.75082 0.0
C2328 C 0.05302 0.04174 0.77322 0.0
C2329 C 0.03384 0.034 0.74426 0.0
C2330 C 0.00691 0.05515 0.75262 0.0
H2331 H 0.95007 0.02405 0.74543 0.0
H2332 H 0.97195 0.02637 0.73172 0.0
H2333 H 0.98907 0.06359 0.74784 0.0
H2334 H 0.0515 0.05941 0.80404 0.0
H2335 H 0.02931 0.06145 0.79309 0.0
H2336 H 0.01191 0.02481 0.77409 0.0
C2337 C 0.96726 0.0336 0.74859 0.0
C2338 C 0.99398 0.05508 0.75353 0.0
C2339 C 0.95467 0.0323 0.75624 0.0
C2340 C 0.04674 0.05237 0.78652 0.0
C2341 C 0.03402 0.05353 0.78023 0.0
C2342 C 0.00709 0.03331 0.76745 0.0
C2343 C 0.97379 0.04381 0.76387 0.0
C2344 C 0.9875 0.04409 0.76137 0.0
C2345 C 0.02735 0.04414 0.7603 0.0
C2346 C 0.01362 0.04425 0.75952 0.0
H2347 H 0.94985 0.05896 0.80949 0.0
H2348 H 0.97195 0.06113 0.79671 0.0
H2349 H 0.98962 0.02467 0.77566 0.0
H2350 H 0.05107 0.02456 0.73969 0.0
H2351 H 0.02906 0.02674 0.7278 0.0
C2352 C 0.80432 0.70447 0.04605 0.0
C2353 C 0.79381 0.69816 0.03192 0.0
C2354 C 0.80554 0.71719 0.03957 0.0
C2355 C 0.7855 0.74413 0.02394 0.0
H2356 H 0.81589 0.76199 0.00461 0.0
C2357 C 0.78453 0.79643 0.00798 0.0
C2358 C 0.79334 0.80306 0.03069 0.0
C2359 C 0.78589 0.78379 0.0015 0.0
C2360 C 0.80734 0.75712 0.01022 0.0
H2361 H 0.7769 0.70006 0.99686 0.0
H2362 H 0.77916 0.72204 0.98475 0.0
H2363 H 0.81601 0.73939 0.00495 0.0
H2364 H 0.81088 0.80171 0.06235 0.0
H2365 H 0.81317 0.77953 0.05161 0.0
H2366 H 0.77683 0.76167 0.03016 0.0
C2367 C 0.78628 0.7173 0.00196 0.0
C2368 C 0.80741 0.74419 0.01041 0.0
C2369 C 0.78502 0.70466 0.00869 0.0
C2370 C 0.80395 0.79688 0.04459 0.0
C2371 C 0.80526 0.78416 0.03841 0.0
C2372 C 0.78543 0.75698 0.02378 0.0
C2373 C 0.7963 0.72382 0.01863 0.0
C2374 C 0.79646 0.73754 0.01715 0.0
C2375 C 0.79603 0.7774 0.01797 0.0
C2376 C 0.79632 0.76367 0.0168 0.0
H2377 H 0.81124 0.69975 0.06419 0.0
H2378 H 0.81336 0.72193 0.05292 0.0
H2379 H 0.77695 0.73936 0.03041 0.0
H2380 H 0.77632 0.80093 0.99634 0.0
H2381 H 0.77876 0.77895 0.98463 0.0
C2382 C 0.71738 0.20632 0.51453 0.0
C2383 C 0.70848 0.19867 0.53293 0.0
C2384 C 0.71486 0.21872 0.50675 0.0
C2385 C 0.69591 0.24404 0.54596 0.0
H2386 H 0.70978 0.26154 0.4525 0.0
C2387 C 0.69544 0.29727 0.5381 0.0
C2388 C 0.70696 0.3025 0.52867 0.0
C2389 C 0.69327 0.28469 0.53138 0.0
C2390 C 0.70584 0.2568 0.47879 0.0
H2391 H 0.68973 0.19801 0.55598 0.0
H2392 H 0.68533 0.21974 0.54231 0.0
H2393 H 0.71016 0.23907 0.45363 0.0
H2394 H 0.72497 0.29869 0.50247 0.0
H2395 H 0.72122 0.27693 0.49092 0.0
H2396 H 0.69201 0.26176 0.57185 0.0
C2397 C 0.6943 0.2161 0.53418 0.0
C2398 C 0.70606 0.24392 0.47944 0.0
C2399 C 0.69679 0.20363 0.54173 0.0
C2400 C 0.716 0.295 0.51028 0.0
C2401 C 0.71382 0.2825 0.50336 0.0
C2402 C 0.6957 0.25693 0.54533 0.0
C2403 C 0.7034 0.22384 0.5173 0.0
C2404 C 0.70142 0.23738 0.51357 0.0
C2405 C 0.70254 0.2771 0.51473 0.0
C2406 C 0.70099 0.26348 0.51228 0.0
H2407 H 0.72647 0.20284 0.50721 0.0
H2408 H 0.72214 0.22442 0.49416 0.0
H2409 H 0.69237 0.23932 0.57292 0.0
H2410 H 0.68827 0.30275 0.55236 0.0
H2411 H 0.68444 0.28085 0.54008 0.0
C2412 C 0.8018 0.29671 0.09483 0.0
C2413 C 0.79133 0.30283 0.1101 0.0
C2414 C 0.80337 0.28404 0.1016 0.0
C2415 C 0.78397 0.25683 0.12016 0.0
H2416 H 0.81484 0.23939 0.13462 0.0
C2417 C 0.78392 0.20449 0.13444 0.0
C2418 C 0.79255 0.19805 0.11034 0.0
C2419 C 0.7852 0.21712 0.14125 0.0
C2420 C 0.80616 0.24414 0.1304 0.0
H2421 H 0.77491 0.30072 0.14757 0.0
H2422 H 0.77781 0.27883 0.16028 0.0
H2423 H 0.81463 0.26199 0.13471 0.0
H2424 H 0.80969 0.19974 0.07645 0.0
H2425 H 0.81181 0.22191 0.08772 0.0
H2426 H 0.77549 0.23918 0.11481 0.0
C2427 C 0.78461 0.28367 0.14194 0.0
C2428 C 0.80604 0.25708 0.13046 0.0
C2429 C 0.78299 0.29625 0.13489 0.0
C2430 C 0.80291 0.20442 0.0953 0.0
C2431 C 0.80413 0.21714 0.1018 0.0
C2432 C 0.78409 0.24399 0.12006 0.0
C2433 C 0.79454 0.27729 0.12398 0.0
C2434 C 0.79491 0.26357 0.12544 0.0
C2435 C 0.79505 0.22371 0.12369 0.0
C2436 C 0.79516 0.23744 0.12526 0.0
H2437 H 0.80836 0.30151 0.07544 0.0
H2438 H 0.81111 0.27942 0.08725 0.0
H2439 H 0.77528 0.26148 0.115 0.0
H2440 H 0.77592 0.19984 0.14696 0.0
H2441 H 0.77821 0.22181 0.15923 0.0
C2442 C 0.72076 0.70538 0.63362 0.0
C2443 C 0.71191 0.69876 0.61106 0.0
C2444 C 0.71943 0.71803 0.64007 0.0
C2445 C 0.69803 0.74474 0.63159 0.0
H2446 H 0.72841 0.76242 0.61061 0.0
C2447 C 0.70102 0.79736 0.59551 0.0
C2448 C 0.71156 0.80368 0.60928 0.0
C2449 C 0.69982 0.78464 0.60204 0.0
C2450 C 0.71987 0.75767 0.61731 0.0
H2451 H 0.69433 0.70013 0.57965 0.0
H2452 H 0.69209 0.72232 0.59037 0.0
H2453 H 0.72849 0.74012 0.61105 0.0
H2454 H 0.72859 0.80178 0.64373 0.0
H2455 H 0.72636 0.7798 0.65595 0.0
H2456 H 0.6894 0.76248 0.63693 0.0
C2457 C 0.70001 0.71768 0.60347 0.0
C2458 C 0.71991 0.74483 0.61757 0.0
C2459 C 0.70129 0.70495 0.5973 0.0
C2460 C 0.72043 0.79718 0.63218 0.0
C2461 C 0.71919 0.78454 0.63897 0.0
C2462 C 0.69798 0.75767 0.63132 0.0
C2463 C 0.70929 0.72443 0.62373 0.0
C2464 C 0.70902 0.73817 0.62482 0.0
C2465 C 0.70911 0.77802 0.62268 0.0
C2466 C 0.70893 0.76429 0.62428 0.0
H2467 H 0.72898 0.70087 0.64514 0.0
H2468 H 0.72659 0.72287 0.65679 0.0
H2469 H 0.68948 0.73989 0.63741 0.0
H2470 H 0.69403 0.80209 0.57763 0.0
H2471 H 0.69195 0.77991 0.58898 0.0
C2472 C 0.54656 0.46948 0.88046 0.0
C2473 C 0.55326 0.46063 0.85812 0.0
C2474 C 0.53389 0.46817 0.88641 0.0
C2475 C 0.50725 0.44673 0.87785 0.0
H2476 H 0.4895 0.47711 0.85742 0.0
C2477 C 0.4544 0.4498 0.84491 0.0
C2478 C 0.4482 0.46037 0.85916 0.0
C2479 C 0.46716 0.44857 0.85053 0.0
C2480 C 0.49427 0.46857 0.86394 0.0
H2481 H 0.55197 0.44307 0.82649 0.0
H2482 H 0.52973 0.44085 0.8364 0.0
H2483 H 0.5118 0.47718 0.85701 0.0
H2484 H 0.45037 0.47739 0.8935 0.0
H2485 H 0.47241 0.47509 0.90415 0.0
H2486 H 0.48952 0.43811 0.88396 0.0
C2487 C 0.53434 0.44876 0.84967 0.0
C2488 C 0.50711 0.46861 0.8637 0.0
C2489 C 0.54709 0.45004 0.84397 0.0
C2490 C 0.45487 0.46921 0.88163 0.0
C2491 C 0.46754 0.46794 0.88749 0.0
C2492 C 0.49431 0.44668 0.87808 0.0
C2493 C 0.52753 0.45803 0.86983 0.0
C2494 C 0.5138 0.45773 0.87086 0.0
C2495 C 0.47394 0.45785 0.87069 0.0
C2496 C 0.48767 0.45764 0.87134 0.0
H2497 H 0.55104 0.47768 0.89228 0.0
H2498 H 0.52901 0.47532 0.90306 0.0
H2499 H 0.51211 0.43819 0.88358 0.0
H2500 H 0.44955 0.44284 0.82731 0.0
H2501 H 0.47179 0.44069 0.83711 0.0
C2502 C 0.95786 0.53489 0.37786 0.0
C2503 C 0.95095 0.5435 0.35519 0.0
C2504 C 0.97053 0.53636 0.3828 0.0
C2505 C 0.99702 0.55771 0.37078 0.0
H2506 H 0.01453 0.52725 0.34926 0.0
C2507 C 0.04979 0.55423 0.33574 0.0
C2508 C 0.0559 0.54362 0.34999 0.0
C2509 C 0.03705 0.55559 0.34157 0.0
C2510 C 0.00983 0.53582 0.35605 0.0
H2511 H 0.95186 0.56083 0.32205 0.0
H2512 H 0.97415 0.56333 0.33024 0.0
H2513 H 0.99223 0.52726 0.35053 0.0
H2514 H 0.05365 0.52666 0.38454 0.0
H2515 H 0.03166 0.52917 0.39564 0.0
H2516 H 0.01482 0.56626 0.37566 0.0
C2517 C 0.96969 0.55548 0.34449 0.0
C2518 C 0.997 0.53582 0.35676 0.0
C2519 C 0.95691 0.55405 0.33979 0.0
C2520 C 0.04919 0.53485 0.37261 0.0
C2521 C 0.03655 0.53626 0.37876 0.0
C2522 C 0.00996 0.55771 0.37011 0.0
C2523 C 0.97669 0.54641 0.36483 0.0
C2524 C 0.99041 0.54672 0.36445 0.0
C2525 C 0.03023 0.54639 0.36199 0.0
C2526 C 0.01651 0.54671 0.36306 0.0
H2527 H 0.95352 0.52675 0.39065 0.0
H2528 H 0.97559 0.52937 0.39961 0.0
H2529 H 0.99221 0.56627 0.3768 0.0
H2530 H 0.05471 0.56113 0.31806 0.0
H2531 H 0.03247 0.5635 0.32821 0.0
C2532 C 0.95329 0.44335 0.80167 0.0
C2533 C 0.94857 0.4549 0.78996 0.0
C2534 C 0.96571 0.44046 0.79478 0.0
C2535 C 0.99372 0.45053 0.73746 0.0
H2536 H 0.01138 0.43959 0.83486 0.0
C2537 C 0.04386 0.46344 0.76893 0.0
C2538 C 0.05174 0.45518 0.78949 0.0
C2539 C 0.03153 0.46047 0.76209 0.0
C2540 C 0.0066 0.44238 0.80703 0.0
H2541 H 0.95301 0.47215 0.75959 0.0
H2542 H 0.97449 0.46712 0.74745 0.0
H2543 H 0.9889 0.43951 0.83472 0.0
H2544 H 0.05288 0.43709 0.81763 0.0
H2545 H 0.03118 0.43191 0.80582 0.0
H2546 H 0.0114 0.45389 0.71041 0.0
C2547 C 0.96867 0.46026 0.76192 0.0
C2548 C 0.9937 0.44233 0.80695 0.0
C2549 C 0.95634 0.46319 0.76916 0.0
C2550 C 0.04707 0.44364 0.80161 0.0
C2551 C 0.03463 0.44071 0.7951 0.0
C2552 C 0.00659 0.45057 0.73754 0.0
C2553 C 0.9736 0.449 0.77552 0.0
C2554 C 0.98711 0.44682 0.77269 0.0
C2555 C 0.02668 0.44919 0.77583 0.0
C2556 C 0.01318 0.44691 0.77286 0.0
H2557 H 0.94755 0.43678 0.81791 0.0
H2558 H 0.96922 0.43167 0.80536 0.0
H2559 H 0.98892 0.45382 0.71028 0.0
H2560 H 0.04715 0.47238 0.75901 0.0
H2561 H 0.02566 0.46729 0.74765 0.0
C2562 C 0.45583 0.55307 0.29526 0.0
C2563 C 0.44973 0.54241 0.28134 0.0
C2564 C 0.46858 0.55439 0.28968 0.0
C2565 C 0.49585 0.53456 0.27716 0.0
H2566 H 0.51351 0.56503 0.25721 0.0
C2567 C 0.54818 0.53399 0.26216 0.0
C2568 C 0.55475 0.54293 0.28453 0.0
C2569 C 0.53553 0.53521 0.25571 0.0
C2570 C 0.5087 0.55647 0.26302 0.0
H2571 H 0.45206 0.52531 0.24757 0.0
H2572 H 0.47409 0.52777 0.23694 0.0
H2573 H 0.49092 0.56494 0.25634 0.0
H2574 H 0.55325 0.56055 0.31567 0.0
H2575 H 0.53103 0.56261 0.30491 0.0
H2576 H 0.51344 0.52609 0.28468 0.0
C2577 C 0.46915 0.53493 0.25333 0.0
C2578 C 0.49576 0.55641 0.26252 0.0
C2579 C 0.45649 0.53356 0.25918 0.0
C2580 C 0.54847 0.55351 0.29818 0.0
C2581 C 0.53573 0.5547 0.29199 0.0
C2582 C 0.50869 0.53462 0.27767 0.0
C2583 C 0.47545 0.54512 0.26987 0.0
C2584 C 0.48919 0.54542 0.26939 0.0
C2585 C 0.52905 0.54534 0.27184 0.0
C2586 C 0.51532 0.54554 0.27042 0.0
H2587 H 0.45091 0.56004 0.31262 0.0
H2588 H 0.47314 0.56235 0.30289 0.0
H2589 H 0.49114 0.526 0.2838 0.0
H2590 H 0.55275 0.5258 0.25071 0.0
H2591 H 0.53075 0.52799 0.23908 0.0
C2592 C 0.22856 0.13884 0.17724 0.0
C2593 C 0.21972 0.14822 0.17353 0.0
C2594 C 0.23441 0.13665 0.21498 0.0
C2595 C 0.2443 0.15495 0.30252 0.0
H2596 H 0.25583 0.12401 0.34826 0.0
C2597 C 0.28133 0.15489 0.42784 0.0
C2598 C 0.27767 0.14863 0.46367 0.0
C2599 C 0.27524 0.15271 0.39039 0.0
C2600 C 0.25271 0.13271 0.33569 0.0
H2601 H 0.2094 0.16209 0.20666 0.0
H2602 H 0.21951 0.15821 0.27305 0.0
H2603 H 0.24109 0.12391 0.29084 0.0
H2604 H 0.26561 0.13454 0.48811 0.0
H2605 H 0.25521 0.1305 0.42273 0.0
H2606 H 0.25586 0.16379 0.34702 0.0
C2607 C 0.22195 0.15255 0.24673 0.0
C2608 C 0.24426 0.13266 0.30293 0.0
C2609 C 0.21601 0.15464 0.20897 0.0
C2610 C 0.26869 0.13936 0.46072 0.0
C2611 C 0.26271 0.13709 0.42328 0.0
C2612 C 0.25282 0.15501 0.33481 0.0
C2613 C 0.23164 0.14395 0.24957 0.0
C2614 C 0.23992 0.14379 0.28615 0.0
C2615 C 0.26547 0.1442 0.38825 0.0
C2616 C 0.25713 0.14391 0.35181 0.0
H2617 H 0.23169 0.13389 0.15015 0.0
H2618 H 0.24183 0.12999 0.21606 0.0
H2619 H 0.24133 0.16369 0.28979 0.0
H2620 H 0.28805 0.16225 0.42958 0.0
H2621 H 0.27767 0.15822 0.36371 0.0
C2622 C 0.09996 0.97058 0.45524 0.0
C2623 C 0.10499 0.97476 0.41791 0.0
C2624 C 0.10302 0.97643 0.49246 0.0
C2625 C 0.1124 0.00736 0.52665 0.0
H2626 H 0.11234 0.99235 0.63513 0.0
C2627 C 0.09916 0.03318 0.67667 0.0
C2628 C 0.10438 0.02917 0.71391 0.0
C2629 C 0.10229 0.02738 0.63942 0.0
C2630 C 0.11259 0.99672 0.60508 0.0
H2631 H 0.1179 0.98751 0.39027 0.0
H2632 H 0.1236 0.9974 0.4551 0.0
H2633 H 0.11279 0.97931 0.57394 0.0
H2634 H 0.11769 0.01679 0.74132 0.0
H2635 H 0.12351 0.007 0.67647 0.0
H2636 H 0.11205 0.02478 0.55779 0.0
C2637 C 0.11706 0.98987 0.45582 0.0
C2638 C 0.1127 0.98921 0.56998 0.0
C2639 C 0.11394 0.98409 0.41874 0.0
C2640 C 0.11355 0.02006 0.71294 0.0
C2641 C 0.11676 0.01435 0.67585 0.0
C2642 C 0.11228 0.01487 0.56176 0.0
C2643 C 0.11117 0.98654 0.49282 0.0
C2644 C 0.11242 0.99442 0.53029 0.0
C2645 C 0.11073 0.0175 0.63894 0.0
C2646 C 0.11218 0.00965 0.60144 0.0
H2647 H 0.09284 0.96359 0.45521 0.0
H2648 H 0.09825 0.97365 0.52032 0.0
H2649 H 0.112 0.01172 0.49661 0.0
H2650 H 0.09187 0.04 0.6768 0.0
H2651 H 0.09741 0.03002 0.61164 0.0
C2652 C 0.21907 0.84985 0.93244 0.0
C2653 C 0.22335 0.85569 0.9683 0.0
C2654 C 0.22501 0.85184 0.89461 0.0
C2655 C 0.24834 0.87064 0.83897 0.0
H2656 H 0.25797 0.83915 0.79242 0.0
C2657 C 0.27218 0.86328 0.68016 0.0
C2658 C 0.28074 0.85363 0.67693 0.0
C2659 C 0.26629 0.86572 0.71768 0.0
C2660 C 0.25547 0.84802 0.80529 0.0
H2661 H 0.2364 0.86893 0.99242 0.0
H2662 H 0.24653 0.87268 0.92638 0.0
H2663 H 0.24359 0.83976 0.85007 0.0
H2664 H 0.29045 0.83943 0.71057 0.0
H2665 H 0.28022 0.84372 0.77652 0.0
H2666 H 0.2603 0.87886 0.79382 0.0
C2667 C 0.23866 0.86655 0.92723 0.0
C2668 C 0.24705 0.84838 0.83784 0.0
C2669 C 0.23283 0.86445 0.96504 0.0
C2670 C 0.28407 0.84709 0.71255 0.0
C2671 C 0.27807 0.84942 0.75004 0.0
C2672 C 0.25669 0.87028 0.80592 0.0
C2673 C 0.23525 0.85977 0.8921 0.0
C2674 C 0.24339 0.85968 0.85515 0.0
C2675 C 0.26871 0.85838 0.75246 0.0
C2676 C 0.26041 0.85895 0.78895 0.0
H2677 H 0.21194 0.84288 0.93436 0.0
H2678 H 0.22209 0.8466 0.86788 0.0
H2679 H 0.24574 0.87948 0.85181 0.0
H2680 H 0.26934 0.86832 0.65291 0.0
H2681 H 0.25911 0.87264 0.71848 0.0
C2682 C 0.40614 0.03399 0.96073 0.0
C2683 C 0.39929 0.03083 0.9256 0.0
C2684 C 0.40434 0.02764 0.99792 0.0
C2685 C 0.40686 0.00526 0.0531 0.0
H2686 H 0.37611 0.99248 0.09644 0.0
C2687 C 0.40767 0.96794 0.17744 0.0
C2688 C 0.40055 0.97073 0.21233 0.0
C2689 C 0.4056 0.97413 0.14011 0.0
C2690 C 0.38477 0.99597 0.08465 0.0
H2691 H 0.38461 0.0193 0.90228 0.0
H2692 H 0.38132 0.00833 0.96702 0.0
H2693 H 0.37579 0.0076 0.04031 0.0
H2694 H 0.38514 0.98139 0.23504 0.0
H2695 H 0.38139 0.99207 0.17001 0.0
H2696 H 0.41587 0.99382 0.09747 0.0
C2697 C 0.38804 0.0157 0.96628 0.0
C2698 C 0.38459 0.00461 0.05248 0.0
C2699 C 0.38989 0.02202 0.92916 0.0
C2700 C 0.39063 0.97895 0.20834 0.0
C2701 C 0.38853 0.9851 0.17107 0.0
C2702 C 0.40704 0.9966 0.08499 0.0
C2703 C 0.39568 0.018 0.00049 0.0
C2704 C 0.39564 0.0094 0.03642 0.0
C2705 C 0.3964 0.98324 0.13716 0.0
C2706 C 0.39602 0.99182 0.1012 0.0
H2707 H 0.41363 0.04056 0.95848 0.0
H2708 H 0.41023 0.02978 0.02394 0.0
H2709 H 0.41556 0.00854 0.041 0.0
H2710 H 0.41553 0.96184 0.18004 0.0
H2711 H 0.41169 0.97231 0.11432 0.0
C2712 C 0.78474 0.84692 0.92926 0.0
C2713 C 0.78122 0.85333 0.96495 0.0
C2714 C 0.77867 0.84911 0.8918 0.0
C2715 C 0.75641 0.86932 0.83674 0.0
H2716 H 0.74455 0.8384 0.79174 0.0
C2717 C 0.73219 0.86321 0.6785 0.0
C2718 C 0.72321 0.85395 0.67494 0.0
C2719 C 0.73805 0.86538 0.71621 0.0
C2720 C 0.74766 0.84713 0.80422 0.0
H2721 H 0.76942 0.86769 0.9891 0.0
H2722 H 0.75905 0.87174 0.92368 0.0
H2723 H 0.75909 0.83823 0.84892 0.0
H2724 H 0.71267 0.8403 0.70832 0.0
H2725 H 0.72284 0.84415 0.77467 0.0
H2726 H 0.74491 0.87818 0.7917 0.0
C2727 C 0.76644 0.86503 0.92435 0.0
C2728 C 0.75618 0.84702 0.83649 0.0
C2729 C 0.77241 0.86275 0.9618 0.0
C2730 C 0.7194 0.84765 0.7105 0.0
C2731 C 0.72537 0.84972 0.74823 0.0
C2732 C 0.74796 0.86942 0.80402 0.0
C2733 C 0.76904 0.85778 0.8895 0.0
C2734 C 0.76068 0.8581 0.85314 0.0
C2735 C 0.73517 0.85818 0.75093 0.0
C2736 C 0.74344 0.85831 0.78755 0.0
H2737 H 0.79133 0.83944 0.93115 0.0
H2738 H 0.78099 0.84349 0.86526 0.0
H2739 H 0.75967 0.878 0.84906 0.0
H2740 H 0.73539 0.86807 0.65134 0.0
H2741 H 0.74557 0.87193 0.71718 0.0
C2742 C 0.88883 0.0202 0.71213 0.0
C2743 C 0.89794 0.02933 0.71546 0.0
C2744 C 0.88668 0.01429 0.67447 0.0
C2745 C 0.90486 0.00494 0.586 0.0
H2746 H 0.87404 0.99262 0.54165 0.0
C2747 C 0.90524 0.96793 0.4606 0.0
C2748 C 0.89877 0.97144 0.42503 0.0
C2749 C 0.90305 0.97394 0.49817 0.0
C2750 C 0.88271 0.99596 0.55383 0.0
H2751 H 0.91136 0.04008 0.68176 0.0
H2752 H 0.90755 0.02982 0.61552 0.0
H2753 H 0.8738 0.00734 0.59915 0.0
H2754 H 0.8843 0.98315 0.40123 0.0
H2755 H 0.88022 0.9934 0.46685 0.0
H2756 H 0.9138 0.99362 0.54102 0.0
C2757 C 0.90208 0.02721 0.64208 0.0
C2758 C 0.88257 0.0044 0.58663 0.0
C2759 C 0.90412 0.03323 0.67976 0.0
C2760 C 0.88928 0.98017 0.42843 0.0
C2761 C 0.88699 0.98608 0.466 0.0
C2762 C 0.905 0.99643 0.55366 0.0
C2763 C 0.89375 0.01728 0.63958 0.0
C2764 C 0.89366 0.00902 0.60293 0.0
C2765 C 0.8943 0.9835 0.50071 0.0
C2766 C 0.89394 0.99183 0.53717 0.0
H2767 H 0.88407 0.01693 0.7394 0.0
H2768 H 0.88024 0.00667 0.67365 0.0
H2769 H 0.91357 0.00813 0.59833 0.0
H2770 H 0.91278 0.96141 0.45852 0.0
H2771 H 0.90872 0.97165 0.52461 0.0
C2772 C 0.7847 0.15415 0.21177 0.0
C2773 C 0.78076 0.14787 0.17633 0.0
C2774 C 0.7788 0.15215 0.24967 0.0
C2775 C 0.756 0.1327 0.30582 0.0
H2776 H 0.74543 0.16402 0.35131 0.0
C2777 C 0.7311 0.13941 0.4631 0.0
C2778 C 0.72246 0.14899 0.46612 0.0
C2779 C 0.73724 0.13715 0.42591 0.0
C2780 C 0.74819 0.15519 0.33874 0.0
H2781 H 0.76841 0.13385 0.15309 0.0
H2782 H 0.75832 0.13012 0.21916 0.0
H2783 H 0.75996 0.16367 0.2941 0.0
H2784 H 0.71288 0.16326 0.43239 0.0
H2785 H 0.72348 0.15924 0.36695 0.0
H2786 H 0.74411 0.12426 0.35065 0.0
C2787 C 0.7659 0.1366 0.21801 0.0
C2788 C 0.75671 0.15498 0.30643 0.0
C2789 C 0.77171 0.1387 0.18015 0.0
C2790 C 0.71931 0.15564 0.43055 0.0
C2791 C 0.72554 0.15347 0.39336 0.0
C2792 C 0.74754 0.1329 0.33855 0.0
C2793 C 0.76891 0.14378 0.25265 0.0
C2794 C 0.7607 0.14375 0.28948 0.0
C2795 C 0.73498 0.14459 0.39122 0.0
C2796 C 0.74347 0.14417 0.35514 0.0
H2797 H 0.79149 0.16144 0.2094 0.0
H2798 H 0.78144 0.15771 0.27602 0.0
H2799 H 0.75888 0.1239 0.29333 0.0
H2800 H 0.73381 0.13429 0.49034 0.0
H2801 H 0.74447 0.13028 0.42536 0.0
C2802 C 0.61292 0.97435 0.19495 0.0
C2803 C 0.60201 0.96769 0.20119 0.0
C2804 C 0.615 0.98049 0.15758 0.0
C2805 C 0.60186 0.98573 0.0519 0.0
H2806 H 0.61161 0.01963 0.07198 0.0
C2807 C 0.58446 0.02457 0.95167 0.0
C2808 C 0.59353 0.03051 0.92802 0.0
C2809 C 0.58771 0.01756 0.98597 0.0
C2810 C 0.60904 0.01016 0.06587 0.0
H2811 H 0.58507 0.96153 0.17297 0.0
H2812 H 0.58859 0.9721 0.10784 0.0
H2813 H 0.61408 0.00424 0.12656 0.0
H2814 H 0.61299 0.03468 0.92365 0.0
H2815 H 0.61869 0.02259 0.98517 0.0
H2816 H 0.59608 0.9919 0.99215 0.0
C2817 C 0.59574 0.9725 0.1311 0.0
C2818 C 0.61053 0.00129 0.09694 0.0
C2819 C 0.59372 0.96632 0.16837 0.0
C2820 C 0.6058 0.03036 0.94181 0.0
C2821 C 0.60908 0.02335 0.97659 0.0
C2822 C 0.60023 0.99461 0.0212 0.0
C2823 C 0.60609 0.98019 0.12602 0.0
C2824 C 0.60662 0.98902 0.09074 0.0
C2825 C 0.6001 0.01641 0.99754 0.0
C2826 C 0.6035 0.00694 0.02832 0.0
H2827 H 0.61932 0.97572 0.22021 0.0
H2828 H 0.62319 0.9861 0.15448 0.0
H2829 H 0.599 0.97636 0.04564 0.0
H2830 H 0.57494 0.02451 0.94156 0.0
H2831 H 0.58062 0.01242 0.00205 0.0
C2832 C 0.78591 0.6543 0.93082 0.0
C2833 C 0.78218 0.6479 0.96628 0.0
C2834 C 0.77994 0.65225 0.89309 0.0
C2835 C 0.75747 0.63245 0.83705 0.0
H2836 H 0.74614 0.66362 0.79252 0.0
C2837 C 0.73291 0.63907 0.67939 0.0
C2838 C 0.72405 0.64845 0.67629 0.0
C2839 C 0.73892 0.63682 0.7168 0.0
C2840 C 0.7491 0.65483 0.80485 0.0
H2841 H 0.77013 0.63365 0.9897 0.0
H2842 H 0.75994 0.62982 0.92384 0.0
H2843 H 0.76068 0.66348 0.84971 0.0
H2844 H 0.7139 0.66228 0.71018 0.0
H2845 H 0.7243 0.65829 0.77601 0.0
H2846 H 0.74581 0.62385 0.79191 0.0
C2847 C 0.7674 0.63643 0.92488 0.0
C2848 C 0.75763 0.65475 0.83713 0.0
C2849 C 0.77328 0.63858 0.9626 0.0
C2850 C 0.72052 0.65484 0.71203 0.0
C2851 C 0.72663 0.65268 0.74945 0.0
C2852 C 0.74901 0.63254 0.80432 0.0
C2853 C 0.7702 0.64371 0.89028 0.0
C2854 C 0.76191 0.64357 0.85368 0.0
C2855 C 0.7363 0.64405 0.75168 0.0
C2856 C 0.74468 0.64374 0.78804 0.0
H2857 H 0.79257 0.66171 0.9331 0.0
H2858 H 0.7824 0.65789 0.86675 0.0
H2859 H 0.76057 0.6237 0.84926 0.0
H2860 H 0.73591 0.63415 0.65207 0.0
H2861 H 0.74634 0.63014 0.71741 0.0
C2862 C 0.61374 0.52162 0.21317 0.0
C2863 C 0.60465 0.53076 0.2167 0.0
C2864 C 0.6157 0.51558 0.17563 0.0
C2865 C 0.61949 0.50522 0.08856 0.0
H2866 H 0.58816 0.49499 0.04241 0.0
C2867 C 0.61309 0.48018 0.93163 0.0
C2868 C 0.60326 0.47184 0.92787 0.0
C2869 C 0.61528 0.48626 0.96898 0.0
C2870 C 0.59699 0.49764 0.0552 0.0
H2871 H 0.59107 0.5414 0.18335 0.0
H2872 H 0.59459 0.53097 0.11723 0.0
H2873 H 0.58856 0.50963 0.09929 0.0
H2874 H 0.58853 0.46267 0.96059 0.0
H2875 H 0.59246 0.47311 0.02637 0.0
H2876 H 0.62788 0.49309 0.04436 0.0
C2877 C 0.60017 0.52842 0.1436 0.0
C2878 C 0.59723 0.50623 0.0873 0.0
C2879 C 0.59829 0.53454 0.1812 0.0
C2880 C 0.59633 0.46886 0.963 0.0
C2881 C 0.59845 0.47501 0.00037 0.0
C2882 C 0.61925 0.49667 0.05609 0.0
C2883 C 0.60848 0.51847 0.14097 0.0
C2884 C 0.60847 0.51012 0.10446 0.0
C2885 C 0.60756 0.48422 0.00314 0.0
C2886 C 0.60798 0.49272 0.03921 0.0
H2887 H 0.61864 0.51844 0.24028 0.0
H2888 H 0.62213 0.50796 0.17479 0.0
H2889 H 0.6283 0.50801 0.10116 0.0
H2890 H 0.61843 0.48277 0.90474 0.0
H2891 H 0.62234 0.4933 0.96997 0.0
C2892 C 0.71667 0.34604 0.42704 0.0
C2893 C 0.72012 0.35254 0.46261 0.0
C2894 C 0.72271 0.34823 0.38952 0.0
C2895 C 0.74447 0.36862 0.33335 0.0
H2896 H 0.75699 0.33779 0.28962 0.0
C2897 C 0.76816 0.36206 0.17416 0.0
C2898 C 0.77749 0.35314 0.17109 0.0
C2899 C 0.76236 0.36434 0.21194 0.0
C2900 C 0.75369 0.34649 0.30172 0.0
H2901 H 0.7318 0.36703 0.48652 0.0
H2902 H 0.74211 0.37111 0.42089 0.0
H2903 H 0.74263 0.33753 0.34736 0.0
H2904 H 0.78867 0.34021 0.20528 0.0
H2905 H 0.7786 0.34423 0.27169 0.0
H2906 H 0.75555 0.37754 0.28721 0.0
C2907 C 0.7348 0.36432 0.42176 0.0
C2908 C 0.74528 0.34633 0.33433 0.0
C2909 C 0.72886 0.36203 0.4593 0.0
C2910 C 0.78167 0.3473 0.20706 0.0
C2911 C 0.77577 0.34947 0.24486 0.0
C2912 C 0.75279 0.36877 0.30022 0.0
C2913 C 0.73224 0.357 0.38703 0.0
C2914 C 0.74055 0.35738 0.35052 0.0
C2915 C 0.76566 0.35758 0.24721 0.0
C2916 C 0.75753 0.35769 0.28419 0.0
H2917 H 0.71016 0.3385 0.42907 0.0
H2918 H 0.72046 0.34254 0.36309 0.0
H2919 H 0.74102 0.37727 0.34533 0.0
H2920 H 0.76466 0.36655 0.14668 0.0
H2921 H 0.7546 0.3706 0.21267 0.0
C2922 C 0.8915 0.48307 0.72108 0.0
C2923 C 0.90018 0.4735 0.72219 0.0
C2924 C 0.88912 0.48937 0.68435 0.0
C2925 C 0.894 0.48949 0.5711 0.0
H2926 H 0.89626 0.52491 0.58589 0.0
C2927 C 0.89182 0.5218 0.43169 0.0
C2928 C 0.9016 0.53022 0.42915 0.0
C2929 C 0.88916 0.51585 0.46887 0.0
C2930 C 0.89557 0.51506 0.58127 0.0
H2931 H 0.91266 0.46247 0.6856 0.0
H2932 H 0.90841 0.47337 0.62084 0.0
H2933 H 0.89604 0.51141 0.64619 0.0
H2934 H 0.91582 0.53962 0.46366 0.0
H2935 H 0.91108 0.52936 0.5292 0.0
H2936 H 0.89393 0.49311 0.50614 0.0
C2937 C 0.90336 0.47597 0.64834 0.0
C2938 C 0.89532 0.50731 0.61579 0.0
C2939 C 0.90574 0.46966 0.68528 0.0
C2940 C 0.90805 0.53336 0.46515 0.0
C2941 C 0.90539 0.5274 0.50252 0.0
C2942 C 0.89414 0.49724 0.53658 0.0
C2943 C 0.89543 0.48625 0.64794 0.0
C2944 C 0.89467 0.49442 0.61111 0.0
C2945 C 0.89628 0.51816 0.50425 0.0
C2946 C 0.89507 0.51011 0.54124 0.0
H2947 H 0.88709 0.48619 0.74916 0.0
H2948 H 0.88276 0.49706 0.68489 0.0
H2949 H 0.89346 0.47962 0.56646 0.0
H2950 H 0.88675 0.5192 0.40427 0.0
H2951 H 0.88192 0.50898 0.46939 0.0
C2952 C 0.23305 0.36265 0.17184 0.0
C2953 C 0.22384 0.3536 0.16931 0.0
C2954 C 0.23905 0.36497 0.20925 0.0
C2955 C 0.24844 0.3473 0.29877 0.0
H2956 H 0.26049 0.37836 0.34208 0.0
C2957 C 0.28501 0.34759 0.42549 0.0
C2958 C 0.28125 0.35408 0.46076 0.0
C2959 C 0.27917 0.34967 0.38755 0.0
C2960 C 0.25723 0.36963 0.33016 0.0
H2961 H 0.21309 0.34042 0.20406 0.0
H2962 H 0.2235 0.34452 0.26981 0.0
H2963 H 0.24592 0.37829 0.2841 0.0
H2964 H 0.26928 0.36848 0.48364 0.0
H2965 H 0.25933 0.37236 0.41735 0.0
H2966 H 0.25969 0.3386 0.34446 0.0
C2967 C 0.22609 0.34983 0.24286 0.0
C2968 C 0.24888 0.36959 0.2971 0.0
C2969 C 0.22 0.34762 0.20546 0.0
C2970 C 0.27246 0.36349 0.45669 0.0
C2971 C 0.26672 0.36567 0.41875 0.0
C2972 C 0.25687 0.34734 0.33134 0.0
C2973 C 0.23606 0.35812 0.24465 0.0
C2974 C 0.24434 0.35841 0.28125 0.0
C2975 C 0.26954 0.35832 0.38432 0.0
C2976 C 0.26136 0.35849 0.34748 0.0
H2977 H 0.23628 0.36725 0.14422 0.0
H2978 H 0.2467 0.37137 0.20955 0.0
H2979 H 0.2453 0.33853 0.2868 0.0
H2980 H 0.29159 0.34012 0.42807 0.0
H2981 H 0.28163 0.34396 0.36136 0.0
C2982 C 0.38801 0.481 0.92709 0.0
C2983 C 0.39745 0.47219 0.92489 0.0
C2984 C 0.38539 0.48698 0.96425 0.0
C2985 C 0.39113 0.50541 0.03178 0.0
H2986 H 0.39229 0.49143 0.14174 0.0
C2987 C 0.40457 0.53254 0.17967 0.0
C2988 C 0.39898 0.52901 0.21688 0.0
C2989 C 0.40165 0.52639 0.14284 0.0
C2990 C 0.39177 0.49549 0.11124 0.0
H2991 H 0.41102 0.4621 0.96013 0.0
H2992 H 0.40636 0.47242 0.02556 0.0
H2993 H 0.39176 0.47779 0.08182 0.0
H2994 H 0.38528 0.5171 0.24447 0.0
H2995 H 0.37998 0.50659 0.18038 0.0
H2996 H 0.39142 0.52312 0.06117 0.0
C2997 C 0.4009 0.47466 -0.00138 0.0
C2998 C 0.39159 0.48766 0.07692 0.0
C2999 C 0.4035 0.46865 0.96128 0.0
C3000 C 0.3897 0.52001 0.21614 0.0
C3001 C 0.38677 0.51389 0.17952 0.0
C3002 C 0.39141 0.51325 0.06608 0.0
C3003 C 0.39224 0.48433 -3e-05 0.0
C3004 C 0.39137 0.49252 0.03676 0.0
C3005 C 0.39313 0.51659 0.14284 0.0
C3006 C 0.39184 0.50839 0.10623 0.0
H3007 H 0.38326 0.48393 0.89939 0.0
H3008 H 0.37849 0.49419 0.96445 0.0
H3009 H 0.39115 0.50948 0.00123 0.0
H3010 H 0.41195 0.53926 0.17967 0.0
H3011 H 0.40675 0.52867 0.11512 0.0
C3012 C 0.21941 0.65706 0.92539 0.0
C3013 C 0.22256 0.65047 0.96108 0.0
C3014 C 0.22553 0.65472 0.88812 0.0
C3015 C 0.24717 0.63379 0.8333 0.0
H3016 H 0.2601 0.66433 0.78869 0.0
C3017 C 0.27135 0.63923 0.67478 0.0
C3018 C 0.28061 0.6482 0.67104 0.0
C3019 C 0.26552 0.63721 0.71264 0.0
C3020 C 0.2567 0.6557 0.80107 0.0
H3021 H 0.23378 0.63568 0.98542 0.0
H3022 H 0.24423 0.63137 0.92028 0.0
H3023 H 0.24558 0.66494 0.84591 0.0
H3024 H 0.29166 0.66148 0.70426 0.0
H3025 H 0.28154 0.6579 0.77086 0.0
H3026 H 0.25834 0.62458 0.78808 0.0
C3027 C 0.23709 0.63833 0.92082 0.0
C3028 C 0.24819 0.65607 0.83337 0.0
C3029 C 0.23106 0.64075 0.9581 0.0
C3030 C 0.28471 0.65435 0.70656 0.0
C3031 C 0.27877 0.65243 0.74445 0.0
C3032 C 0.25561 0.63343 0.80055 0.0
C3033 C 0.23485 0.64572 0.886 0.0
C3034 C 0.24329 0.64513 0.84984 0.0
C3035 C 0.26871 0.64428 0.74736 0.0
C3036 C 0.2605 0.6444 0.78417 0.0
H3037 H 0.21308 0.66476 0.92718 0.0
H3038 H 0.2235 0.66045 0.8616 0.0
H3039 H 0.24359 0.62522 0.84547 0.0
H3040 H 0.26793 0.63449 0.64768 0.0
H3041 H 0.2578 0.6309 0.71375 0.0
C3042 C 0.11255 0.51953 0.42695 0.0
C3043 C 0.1045 0.52958 0.42263 0.0
C3044 C 0.11412 0.51381 0.46518 0.0
C3045 C 0.09559 0.50773 0.55661 0.0
H3046 H 0.12489 0.49101 0.59612 0.0
C3047 C 0.09153 0.4698 0.67822 0.0
C3048 C 0.09936 0.4711 0.71234 0.0
C3049 C 0.09387 0.47632 0.64178 0.0
C3050 C 0.11664 0.49564 0.5855 0.0
H3051 H 0.09243 0.54209 0.45526 0.0
H3052 H 0.09525 0.53215 0.52266 0.0
H3053 H 0.12646 0.50564 0.53879 0.0
H3054 H 0.11604 0.47966 0.7349 0.0
H3055 H 0.12029 0.49091 0.67107 0.0
H3056 H 0.08575 0.49779 0.60307 0.0
C3057 C 0.10031 0.52865 0.4963 0.0
C3058 C 0.11753 0.504 0.55267 0.0
C3059 C 0.09883 0.53447 0.45794 0.0
C3060 C 0.11004 0.47829 0.70855 0.0
C3061 C 0.11241 0.4848 0.67209 0.0
C3062 C 0.09469 0.49933 0.58916 0.0
C3063 C 0.10754 0.51792 0.4999 0.0
C3064 C 0.107 0.51009 0.53765 0.0
C3065 C 0.10404 0.48433 0.63899 0.0
C3066 C 0.10516 0.49308 0.60376 0.0
H3067 H 0.11696 0.51554 0.40012 0.0
H3068 H 0.11971 0.50556 0.46668 0.0
H3069 H 0.08725 0.51208 0.54547 0.0
H3070 H 0.08308 0.46455 0.68085 0.0
H3071 H 0.08735 0.4756 0.61656 0.0
loop_
_geom_bond_atom_site_label_1
_geom_bond_atom_site_label_2
_geom_bond_distance
_geom_bond_site_symmetry_2
_ccdc_geom_bond_type
Mn0 O5 2.095 . S
Mn0 O15 2.162 . S
Mn0 O16 2.297 . S
Mn0 O24 2.385 1_554 S
Mn0 O25 2.209 . S
Mn0 O26 2.094 . S
Mn1 O6 2.121 . S
Mn1 N8 2.257 . S
Mn1 N17 2.282 1_554 S
Mn1 O25 2.215 . S
Mn1 O27 2.117 . S
C2 O24 1.234 . S
C2 O25 1.283 1_556 S
C3 O15 1.281 . S
C3 O16 1.236 . S
C4 O26 1.240 . S
C4 O27 1.264 . S
O5 Mn0 2.095 . S
O5 C14 1.250 . S
O6 Mn1 2.121 . S
O6 C14 1.258 . S
C7 N8 1.326 . S
C7 C11 1.460 . S
C7 H13 0.929 . S
N8 Mn1 2.257 . S
N8 C7 1.326 . S
N8 C12 1.362 . S
C9 C10 1.258 . S
C9 C12 1.431 . S
C9 C29 1.449 1_554 S
C10 C9 1.258 . S
C10 C11 1.477 . S
C10 H30 0.931 . S
C11 C7 1.460 . S
C11 C10 1.477 . S
C11 H31 0.930 . S
C12 N8 1.362 . S
C12 C9 1.431 . S
C12 C22 1.476 1_554 S
H13 C7 0.929 . S
C14 O5 1.250 . S
C14 O6 1.258 . S
O15 Mn0 2.162 . S
O15 C3 1.281 . S
O16 Mn0 2.297 . S
O16 C3 1.236 . S
N17 Mn1 2.282 1_556 S
N17 C18 1.328 . S
N17 C22 1.318 . S
C18 N17 1.328 . S
C18 C19 1.457 . S
C18 H23 0.929 . S
C19 C18 1.457 . S
C19 C20 1.291 . S
C19 H32 0.931 . S
C20 C19 1.291 . S
C20 C21 1.373 . S
C20 H33 0.929 . S
C21 C20 1.373 . S
C21 C22 1.396 . S
C21 C28 1.403 . S
C22 C12 1.476 1_556 S
C22 N17 1.318 . S
C22 C21 1.396 . S
H23 C18 0.929 . S
O24 Mn0 2.385 1_556 S
O24 C2 1.234 . S
O25 Mn0 2.209 . S
O25 Mn1 2.215 . S
O25 C2 1.283 1_554 S
O26 Mn0 2.094 . S
O26 C4 1.240 . S
O27 Mn1 2.117 . S
O27 C4 1.264 . S
C28 C21 1.403 . S
C28 C29 1.399 . S
C28 H34 0.929 . S
C29 C9 1.449 1_556 S
C29 C28 1.399 . S
C29 H35 0.930 . S
H30 C10 0.931 . S
H31 C11 0.930 . S
H32 C19 0.931 . S
H33 C20 0.929 . S
H34 C28 0.929 . S
H35 C29 0.930 . S
Mn36 O41 2.095 . S
Mn36 O51 2.162 . S
Mn36 O52 2.297 . S
Mn36 O60 2.385 . S
Mn36 O61 2.209 . S
Mn36 O62 2.094 . S
Mn37 O42 2.121 . S
Mn37 N44 2.257 1_565 S
Mn37 N53 2.282 . S
Mn37 O61 2.215 . S
Mn37 O63 2.117 . S
C38 O60 1.234 . S
C38 O61 1.283 . S
C39 O51 1.281 . S
C39 O52 1.236 . S
C40 O62 1.240 . S
C40 O63 1.264 . S
O41 Mn36 2.095 . S
O41 C50 1.250 . S
O42 Mn37 2.121 . S
O42 C50 1.258 . S
C43 N44 1.326 . S
C43 C47 1.460 . S
C43 H49 0.929 . S
N44 Mn37 2.257 1_545 S
N44 C43 1.326 . S
N44 C48 1.362 . S
C45 C46 1.258 . S
C45 C48 1.431 . S
C45 C65 1.449 . S
C46 C45 1.258 . S
C46 C47 1.477 . S
C46 H66 0.931 . S
C47 C43 1.460 . S
C47 C46 1.477 . S
C47 H67 0.930 . S
C48 N44 1.362 . S
C48 C45 1.431 . S
C48 C58 1.476 . S
H49 C43 0.929 . S
C50 O41 1.250 . S
C50 O42 1.258 . S
O51 Mn36 2.162 . S
O51 C39 1.281 . S
O52 Mn36 2.297 . S
O52 C39 1.236 . S
N53 Mn37 2.282 . S
N53 C54 1.328 . S
N53 C58 1.318 1_565 S
C54 N53 1.328 . S
C54 C55 1.457 . S
C54 H59 0.929 . S
C55 C54 1.457 . S
C55 C56 1.291 1_565 S
C55 H68 0.931 . S
C56 C55 1.291 1_545 S
C56 C57 1.373 . S
C56 H69 0.929 . S
C57 C56 1.373 . S
C57 C58 1.396 . S
C57 C64 1.403 . S
C58 C48 1.476 . S
C58 N53 1.318 1_545 S
C58 C57 1.396 . S
H59 C54 0.929 . S
O60 Mn36 2.385 . S
O60 C38 1.234 . S
O61 Mn36 2.209 . S
O61 Mn37 2.215 . S
O61 C38 1.283 . S
O62 Mn36 2.094 . S
O62 C40 1.240 . S
O63 Mn37 2.117 . S
O63 C40 1.264 . S
C64 C57 1.403 . S
C64 C65 1.399 . S
C64 H70 0.929 . S
C65 C45 1.449 . S
C65 C64 1.399 . S
C65 H71 0.930 . S
H66 C46 0.931 . S
H67 C47 0.930 . S
H68 C55 0.931 . S
H69 C56 0.929 . S
H70 C64 0.929 . S
H71 C65 0.930 . S
Mn72 O77 2.095 . S
Mn72 O87 2.162 . S
Mn72 O88 2.297 . S
Mn72 O96 2.385 . S
Mn72 O97 2.209 . S
Mn72 O98 2.094 . S
Mn73 O78 2.121 . S
Mn73 N80 2.257 . S
Mn73 N89 2.282 . S
Mn73 O97 2.215 . S
Mn73 O99 2.117 . S
C74 O96 1.234 . S
C74 O97 1.283 . S
C75 O87 1.281 . S
C75 O88 1.236 . S
C76 O98 1.240 . S
C76 O99 1.264 . S
O77 Mn72 2.095 . S
O77 C86 1.250 . S
O78 Mn73 2.121 . S
O78 C86 1.258 . S
C79 N80 1.326 . S
C79 C83 1.460 . S
C79 H85 0.929 . S
N80 Mn73 2.257 . S
N80 C79 1.326 . S
N80 C84 1.362 . S
C81 C82 1.258 . S
C81 C84 1.431 . S
C81 C101 1.449 . S
C82 C81 1.258 . S
C82 C83 1.477 . S
C82 H102 0.931 . S
C83 C79 1.460 . S
C83 C82 1.477 . S
C83 H103 0.930 . S
C84 N80 1.362 . S
C84 C81 1.431 . S
C84 C94 1.476 . S
H85 C79 0.929 . S
C86 O77 1.250 . S
C86 O78 1.258 . S
O87 Mn72 2.162 . S
O87 C75 1.281 . S
O88 Mn72 2.297 . S
O88 C75 1.236 . S
N89 Mn73 2.282 . S
N89 C90 1.328 . S
N89 C94 1.318 . S
C90 N89 1.328 . S
C90 C91 1.457 . S
C90 H95 0.929 . S
C91 C90 1.457 . S
C91 C92 1.291 . S
C91 H104 0.931 . S
C92 C91 1.291 . S
C92 C93 1.373 . S
C92 H105 0.929 . S
C93 C92 1.373 . S
C93 C94 1.396 . S
C93 C100 1.403 . S
C94 C84 1.476 . S
C94 N89 1.318 . S
C94 C93 1.396 . S
H95 C90 0.929 . S
O96 Mn72 2.385 . S
O96 C74 1.234 . S
O97 Mn72 2.209 . S
O97 Mn73 2.215 . S
O97 C74 1.283 . S
O98 Mn72 2.094 . S
O98 C76 1.240 . S
O99 Mn73 2.117 . S
O99 C76 1.264 . S
C100 C93 1.403 . S
C100 C101 1.399 . S
C100 H106 0.929 . S
C101 C81 1.449 . S
C101 C100 1.399 . S
C101 H107 0.930 . S
H102 C82 0.931 . S
H103 C83 0.930 . S
H104 C91 0.931 . S
H105 C92 0.929 . S
H106 C100 0.929 . S
H107 C101 0.930 . S
Mn108 O113 2.095 . S
Mn108 O123 2.162 . S
Mn108 O124 2.297 . S
Mn108 O132 2.385 . S
Mn108 O133 2.209 . S
Mn108 O134 2.094 . S
Mn109 O114 2.121 . S
Mn109 N116 2.257 1_545 S
Mn109 N125 2.282 . S
Mn109 O133 2.215 . S
Mn109 O135 2.117 . S
C110 O132 1.234 . S
C110 O133 1.283 . S
C111 O123 1.281 . S
C111 O124 1.236 . S
C112 O134 1.240 . S
C112 O135 1.264 . S
O113 Mn108 2.095 . S
O113 C122 1.250 . S
O114 Mn109 2.121 . S
O114 C122 1.258 . S
C115 N116 1.326 . S
C115 C119 1.460 . S
C115 H121 0.929 . S
N116 Mn109 2.257 1_565 S
N116 C115 1.326 . S
N116 C120 1.362 . S
C117 C118 1.258 . S
C117 C120 1.431 . S
C117 C137 1.449 . S
C118 C117 1.258 . S
C118 C119 1.477 . S
C118 H138 0.931 . S
C119 C115 1.460 . S
C119 C118 1.477 . S
C119 H139 0.930 . S
C120 N116 1.362 . S
C120 C117 1.431 . S
C120 C130 1.476 . S
H121 C115 0.929 . S
C122 O113 1.250 . S
C122 O114 1.258 . S
O123 Mn108 2.162 . S
O123 C111 1.281 . S
O124 Mn108 2.297 . S
O124 C111 1.236 . S
N125 Mn109 2.282 . S
N125 C126 1.328 . S
N125 C130 1.318 1_545 S
C126 N125 1.328 . S
C126 C127 1.457 . S
C126 H131 0.929 . S
C127 C126 1.457 . S
C127 C128 1.291 1_545 S
C127 H140 0.931 . S
C128 C127 1.291 1_565 S
C128 C129 1.373 . S
C128 H141 0.929 . S
C129 C128 1.373 . S
C129 C130 1.396 . S
C129 C136 1.403 . S
C130 C120 1.476 . S
C130 N125 1.318 1_565 S
C130 C129 1.396 . S
H131 C126 0.929 . S
O132 Mn108 2.385 . S
O132 C110 1.234 . S
O133 Mn108 2.209 . S
O133 Mn109 2.215 . S
O133 C110 1.283 . S
O134 Mn108 2.094 . S
O134 C112 1.240 . S
O135 Mn109 2.117 . S
O135 C112 1.264 . S
C136 C129 1.403 . S
C136 C137 1.399 . S
C136 H142 0.929 . S
C137 C117 1.449 . S
C137 C136 1.399 . S
C137 H143 0.930 . S
H138 C118 0.931 . S
H139 C119 0.930 . S
H140 C127 0.931 . S
H141 C128 0.929 . S
H142 C136 0.929 . S
H143 C137 0.930 . S
Mn144 O149 2.095 . S
Mn144 O159 2.162 . S
Mn144 O160 2.297 . S
Mn144 O168 2.385 . S
Mn144 O169 2.209 . S
Mn144 O170 2.094 . S
Mn145 O150 2.121 . S
Mn145 N152 2.257 . S
Mn145 N161 2.282 . S
Mn145 O169 2.215 . S
Mn145 O171 2.117 . S
C146 O168 1.234 . S
C146 O169 1.283 . S
C147 O159 1.281 . S
C147 O160 1.236 . S
C148 O170 1.240 . S
C148 O171 1.264 . S
O149 Mn144 2.095 . S
O149 C158 1.250 . S
O150 Mn145 2.121 . S
O150 C158 1.258 . S
C151 N152 1.326 . S
C151 C155 1.460 . S
C151 H157 0.929 . S
N152 Mn145 2.257 . S
N152 C151 1.326 . S
N152 C156 1.362 . S
C153 C154 1.258 . S
C153 C156 1.431 . S
C153 C173 1.449 . S
C154 C153 1.258 . S
C154 C155 1.477 . S
C154 H174 0.931 . S
C155 C151 1.460 . S
C155 C154 1.477 . S
C155 H175 0.930 . S
C156 N152 1.362 . S
C156 C153 1.431 . S
C156 C166 1.476 . S
H157 C151 0.929 . S
C158 O149 1.250 . S
C158 O150 1.258 . S
O159 Mn144 2.162 . S
O159 C147 1.281 . S
O160 Mn144 2.297 . S
O160 C147 1.236 . S
N161 Mn145 2.282 . S
N161 C162 1.328 . S
N161 C166 1.318 . S
C162 N161 1.328 . S
C162 C163 1.457 . S
C162 H167 0.929 . S
C163 C162 1.457 . S
C163 C164 1.291 . S
C163 H176 0.931 . S
C164 C163 1.291 . S
C164 C165 1.373 . S
C164 H177 0.929 . S
C165 C164 1.373 . S
C165 C166 1.396 . S
C165 C172 1.403 . S
C166 C156 1.476 . S
C166 N161 1.318 . S
C166 C165 1.396 . S
H167 C162 0.929 . S
O168 Mn144 2.385 . S
O168 C146 1.234 . S
O169 Mn144 2.209 . S
O169 Mn145 2.215 . S
O169 C146 1.283 . S
O170 Mn144 2.094 . S
O170 C148 1.240 . S
O171 Mn145 2.117 . S
O171 C148 1.264 . S
C172 C165 1.403 . S
C172 C173 1.399 . S
C172 H178 0.929 . S
C173 C153 1.449 . S
C173 C172 1.399 . S
C173 H179 0.930 . S
H174 C154 0.931 . S
H175 C155 0.930 . S
H176 C163 0.931 . S
H177 C164 0.929 . S
H178 C172 0.929 . S
H179 C173 0.930 . S
Mn180 O185 2.095 . S
Mn180 O195 2.162 . S
Mn180 O196 2.297 . S
Mn180 O204 2.385 . S
Mn180 O205 2.209 . S
Mn180 O206 2.094 . S
Mn181 O186 2.121 . S
Mn181 N188 2.257 1_565 S
Mn181 N197 2.282 . S
Mn181 O205 2.215 . S
Mn181 O207 2.117 . S
C182 O204 1.234 . S
C182 O205 1.283 . S
C183 O195 1.281 . S
C183 O196 1.236 . S
C184 O206 1.240 . S
C184 O207 1.264 . S
O185 Mn180 2.095 . S
O185 C194 1.250 . S
O186 Mn181 2.121 . S
O186 C194 1.258 . S
C187 N188 1.326 . S
C187 C191 1.460 . S
C187 H193 0.929 . S
N188 Mn181 2.257 1_545 S
N188 C187 1.326 . S
N188 C192 1.362 . S
C189 C190 1.258 . S
C189 C192 1.431 . S
C189 C209 1.449 . S
C190 C189 1.258 . S
C190 C191 1.477 . S
C190 H210 0.931 . S
C191 C187 1.460 . S
C191 C190 1.477 . S
C191 H211 0.930 . S
C192 N188 1.362 . S
C192 C189 1.431 . S
C192 C202 1.476 . S
H193 C187 0.929 . S
C194 O185 1.250 . S
C194 O186 1.258 . S
O195 Mn180 2.162 . S
O195 C183 1.281 . S
O196 Mn180 2.297 . S
O196 C183 1.236 . S
N197 Mn181 2.282 . S
N197 C198 1.328 . S
N197 C202 1.318 1_565 S
C198 N197 1.328 . S
C198 C199 1.457 . S
C198 H203 0.929 . S
C199 C198 1.457 . S
C199 C200 1.291 1_565 S
C199 H212 0.931 . S
C200 C199 1.291 1_545 S
C200 C201 1.373 . S
C200 H213 0.929 . S
C201 C200 1.373 . S
C201 C202 1.396 . S
C201 C208 1.403 . S
C202 C192 1.476 . S
C202 N197 1.318 1_545 S
C202 C201 1.396 . S
H203 C198 0.929 . S
O204 Mn180 2.385 . S
O204 C182 1.234 . S
O205 Mn180 2.209 . S
O205 Mn181 2.215 . S
O205 C182 1.283 . S
O206 Mn180 2.094 . S
O206 C184 1.240 . S
O207 Mn181 2.117 . S
O207 C184 1.264 . S
C208 C201 1.403 . S
C208 C209 1.399 . S
C208 H214 0.929 . S
C209 C189 1.449 . S
C209 C208 1.399 . S
C209 H215 0.930 . S
H210 C190 0.931 . S
H211 C191 0.930 . S
H212 C199 0.931 . S
H213 C200 0.929 . S
H214 C208 0.929 . S
H215 C209 0.930 . S
Mn216 O221 2.095 . S
Mn216 O231 2.162 . S
Mn216 O232 2.297 . S
Mn216 O240 2.385 . S
Mn216 O241 2.209 . S
Mn216 O242 2.094 . S
Mn217 O222 2.121 . S
Mn217 N224 2.257 . S
Mn217 N233 2.282 . S
Mn217 O241 2.215 . S
Mn217 O243 2.117 . S
C218 O240 1.234 . S
C218 O241 1.283 . S
C219 O231 1.281 . S
C219 O232 1.236 . S
C220 O242 1.240 . S
C220 O243 1.264 . S
O221 Mn216 2.095 . S
O221 C230 1.250 . S
O222 Mn217 2.121 . S
O222 C230 1.258 . S
C223 N224 1.326 . S
C223 C227 1.460 . S
C223 H229 0.929 . S
N224 Mn217 2.257 . S
N224 C223 1.326 . S
N224 C228 1.362 . S
C225 C226 1.258 . S
C225 C228 1.431 . S
C225 C245 1.449 . S
C226 C225 1.258 . S
C226 C227 1.477 . S
C226 H246 0.931 . S
C227 C223 1.460 . S
C227 C226 1.477 . S
C227 H247 0.930 . S
C228 N224 1.362 . S
C228 C225 1.431 . S
C228 C238 1.476 . S
H229 C223 0.929 . S
C230 O221 1.250 . S
C230 O222 1.258 . S
O231 Mn216 2.162 . S
O231 C219 1.281 . S
O232 Mn216 2.297 . S
O232 C219 1.236 . S
N233 Mn217 2.282 . S
N233 C234 1.328 . S
N233 C238 1.318 . S
C234 N233 1.328 . S
C234 C235 1.457 . S
C234 H239 0.929 . S
C235 C234 1.457 . S
C235 C236 1.291 . S
C235 H248 0.931 . S
C236 C235 1.291 . S
C236 C237 1.373 . S
C236 H249 0.929 . S
C237 C236 1.373 . S
C237 C238 1.396 . S
C237 C244 1.403 . S
C238 C228 1.476 . S
C238 N233 1.318 . S
C238 C237 1.396 . S
H239 C234 0.929 . S
O240 Mn216 2.385 . S
O240 C218 1.234 . S
O241 Mn216 2.209 . S
O241 Mn217 2.215 . S
O241 C218 1.283 . S
O242 Mn216 2.094 . S
O242 C220 1.240 . S
O243 Mn217 2.117 . S
O243 C220 1.264 . S
C244 C237 1.403 . S
C244 C245 1.399 . S
C244 H250 0.929 . S
C245 C225 1.449 . S
C245 C244 1.399 . S
C245 H251 0.930 . S
H246 C226 0.931 . S
H247 C227 0.930 . S
H248 C235 0.931 . S
H249 C236 0.929 . S
H250 C244 0.929 . S
H251 C245 0.930 . S
Mn252 O257 2.095 . S
Mn252 O267 2.162 . S
Mn252 O268 2.297 . S
Mn252 O276 2.385 . S
Mn252 O277 2.209 . S
Mn252 O278 2.094 . S
Mn253 O258 2.121 . S
Mn253 N260 2.257 1_545 S
Mn253 N269 2.282 . S
Mn253 O277 2.215 . S
Mn253 O279 2.117 . S
C254 O276 1.234 . S
C254 O277 1.283 . S
C255 O267 1.281 . S
C255 O268 1.236 . S
C256 O278 1.240 . S
C256 O279 1.264 . S
O257 Mn252 2.095 . S
O257 C266 1.250 . S
O258 Mn253 2.121 . S
O258 C266 1.258 . S
C259 N260 1.326 . S
C259 C263 1.460 . S
C259 H265 0.929 . S
N260 Mn253 2.257 1_565 S
N260 C259 1.326 . S
N260 C264 1.362 . S
C261 C262 1.258 . S
C261 C264 1.431 . S
C261 C281 1.449 . S
C262 C261 1.258 . S
C262 C263 1.477 . S
C262 H282 0.931 . S
C263 C259 1.460 . S
C263 C262 1.477 . S
C263 H283 0.930 . S
C264 N260 1.362 . S
C264 C261 1.431 . S
C264 C274 1.476 . S
H265 C259 0.929 . S
C266 O257 1.250 . S
C266 O258 1.258 . S
O267 Mn252 2.162 . S
O267 C255 1.281 . S
O268 Mn252 2.297 . S
O268 C255 1.236 . S
N269 Mn253 2.282 . S
N269 C270 1.328 . S
N269 C274 1.318 1_545 S
C270 N269 1.328 . S
C270 C271 1.457 . S
C270 H275 0.929 . S
C271 C270 1.457 . S
C271 C272 1.291 1_545 S
C271 H284 0.931 . S
C272 C271 1.291 1_565 S
C272 C273 1.373 . S
C272 H285 0.929 . S
C273 C272 1.373 . S
C273 C274 1.396 . S
C273 C280 1.403 . S
C274 C264 1.476 . S
C274 N269 1.318 1_565 S
C274 C273 1.396 . S
H275 C270 0.929 . S
O276 Mn252 2.385 . S
O276 C254 1.234 . S
O277 Mn252 2.209 . S
O277 Mn253 2.215 . S
O277 C254 1.283 . S
O278 Mn252 2.094 . S
O278 C256 1.240 . S
O279 Mn253 2.117 . S
O279 C256 1.264 . S
C280 C273 1.403 . S
C280 C281 1.399 . S
C280 H286 0.929 . S
C281 C261 1.449 . S
C281 C280 1.399 . S
C281 H287 0.930 . S
H282 C262 0.931 . S
H283 C263 0.930 . S
H284 C271 0.931 . S
H285 C272 0.929 . S
H286 C280 0.929 . S
H287 C281 0.930 . S
Mn288 O293 2.095 . S
Mn288 O303 2.162 . S
Mn288 O304 2.297 . S
Mn288 O312 2.385 . S
Mn288 O313 2.209 . S
Mn288 O314 2.094 . S
Mn289 O294 2.121 . S
Mn289 N296 2.257 . S
Mn289 N305 2.282 . S
Mn289 O313 2.215 . S
Mn289 O315 2.117 . S
C290 O312 1.234 . S
C290 O313 1.283 . S
C291 O303 1.281 . S
C291 O304 1.236 . S
C292 O314 1.240 . S
C292 O315 1.264 . S
O293 Mn288 2.095 . S
O293 C302 1.250 . S
O294 Mn289 2.121 . S
O294 C302 1.258 . S
C295 N296 1.326 . S
C295 C299 1.460 . S
C295 H301 0.929 . S
N296 Mn289 2.257 . S
N296 C295 1.326 . S
N296 C300 1.362 . S
C297 C298 1.258 . S
C297 C300 1.431 . S
C297 C317 1.449 . S
C298 C297 1.258 . S
C298 C299 1.477 . S
C298 H318 0.931 . S
C299 C295 1.460 . S
C299 C298 1.477 . S
C299 H319 0.930 . S
C300 N296 1.362 . S
C300 C297 1.431 . S
C300 C310 1.476 . S
H301 C295 0.929 . S
C302 O293 1.250 . S
C302 O294 1.258 . S
O303 Mn288 2.162 . S
O303 C291 1.281 . S
O304 Mn288 2.297 . S
O304 C291 1.236 . S
N305 Mn289 2.282 . S
N305 C306 1.328 . S
N305 C310 1.318 . S
C306 N305 1.328 . S
C306 C307 1.457 . S
C306 H311 0.929 . S
C307 C306 1.457 . S
C307 C308 1.291 . S
C307 H320 0.931 . S
C308 C307 1.291 . S
C308 C309 1.373 . S
C308 H321 0.929 . S
C309 C308 1.373 . S
C309 C310 1.396 . S
C309 C316 1.403 . S
C310 C300 1.476 . S
C310 N305 1.318 . S
C310 C309 1.396 . S
H311 C306 0.929 . S
O312 Mn288 2.385 . S
O312 C290 1.234 . S
O313 Mn288 2.209 . S
O313 Mn289 2.215 . S
O313 C290 1.283 . S
O314 Mn288 2.094 . S
O314 C292 1.240 . S
O315 Mn289 2.117 . S
O315 C292 1.264 . S
C316 C309 1.403 . S
C316 C317 1.399 . S
C316 H322 0.929 . S
C317 C297 1.449 . S
C317 C316 1.399 . S
C317 H323 0.930 . S
H318 C298 0.931 . S
H319 C299 0.930 . S
H320 C307 0.931 . S
H321 C308 0.929 . S
H322 C316 0.929 . S
H323 C317 0.930 . S
Mn324 O329 2.095 . S
Mn324 O339 2.162 . S
Mn324 O340 2.297 . S
Mn324 O348 2.385 . S
Mn324 O349 2.209 . S
Mn324 O350 2.094 . S
Mn325 O330 2.121 . S
Mn325 N332 2.257 1_545 S
Mn325 N341 2.282 . S
Mn325 O349 2.215 . S
Mn325 O351 2.117 . S
C326 O348 1.234 . S
C326 O349 1.283 . S
C327 O339 1.281 . S
C327 O340 1.236 . S
C328 O350 1.240 . S
C328 O351 1.264 . S
O329 Mn324 2.095 . S
O329 C338 1.250 . S
O330 Mn325 2.121 . S
O330 C338 1.258 . S
C331 N332 1.326 . S
C331 C335 1.460 . S
C331 H337 0.929 . S
N332 Mn325 2.257 1_565 S
N332 C331 1.326 . S
N332 C336 1.362 . S
C333 C334 1.258 . S
C333 C336 1.431 . S
C333 C353 1.449 . S
C334 C333 1.258 . S
C334 C335 1.477 . S
C334 H354 0.931 . S
C335 C331 1.460 . S
C335 C334 1.477 . S
C335 H355 0.930 . S
C336 N332 1.362 . S
C336 C333 1.431 . S
C336 C346 1.476 . S
H337 C331 0.929 . S
C338 O329 1.250 . S
C338 O330 1.258 . S
O339 Mn324 2.162 . S
O339 C327 1.281 . S
O340 Mn324 2.297 . S
O340 C327 1.236 . S
N341 Mn325 2.282 . S
N341 C342 1.328 . S
N341 C346 1.318 1_545 S
C342 N341 1.328 . S
C342 C343 1.457 . S
C342 H347 0.929 . S
C343 C342 1.457 . S
C343 C344 1.291 1_545 S
C343 H356 0.931 . S
C344 C343 1.291 1_565 S
C344 C345 1.373 . S
C344 H357 0.929 . S
C345 C344 1.373 . S
C345 C346 1.396 . S
C345 C352 1.403 . S
C346 C336 1.476 . S
C346 N341 1.318 1_565 S
C346 C345 1.396 . S
H347 C342 0.929 . S
O348 Mn324 2.385 . S
O348 C326 1.234 . S
O349 Mn324 2.209 . S
O349 Mn325 2.215 . S
O349 C326 1.283 . S
O350 Mn324 2.094 . S
O350 C328 1.240 . S
O351 Mn325 2.117 . S
O351 C328 1.264 . S
C352 C345 1.403 . S
C352 C353 1.399 . S
C352 H358 0.929 . S
C353 C333 1.449 . S
C353 C352 1.399 . S
C353 H359 0.930 . S
H354 C334 0.931 . S
H355 C335 0.930 . S
H356 C343 0.931 . S
H357 C344 0.929 . S
H358 C352 0.929 . S
H359 C353 0.930 . S
Mn360 O365 2.095 . S
Mn360 O375 2.162 . S
Mn360 O376 2.297 . S
Mn360 O384 2.385 . S
Mn360 O385 2.209 . S
Mn360 O386 2.094 . S
Mn361 O366 2.121 . S
Mn361 N368 2.257 . S
Mn361 N377 2.282 . S
Mn361 O385 2.215 . S
Mn361 O387 2.117 . S
C362 O384 1.234 . S
C362 O385 1.283 . S
C363 O375 1.281 . S
C363 O376 1.236 . S
C364 O386 1.240 . S
C364 O387 1.264 . S
O365 Mn360 2.095 . S
O365 C374 1.250 . S
O366 Mn361 2.121 . S
O366 C374 1.258 . S
C367 N368 1.326 . S
C367 C371 1.460 . S
C367 H373 0.929 . S
N368 Mn361 2.257 . S
N368 C367 1.326 . S
N368 C372 1.362 . S
C369 C370 1.258 . S
C369 C372 1.431 . S
C369 C389 1.449 . S
C370 C369 1.258 . S
C370 C371 1.477 . S
C370 H390 0.931 . S
C371 C367 1.460 . S
C371 C370 1.477 . S
C371 H391 0.930 . S
C372 N368 1.362 . S
C372 C369 1.431 . S
C372 C382 1.476 . S
H373 C367 0.929 . S
C374 O365 1.250 . S
C374 O366 1.258 . S
O375 Mn360 2.162 . S
O375 C363 1.281 . S
O376 Mn360 2.297 . S
O376 C363 1.236 . S
N377 Mn361 2.282 . S
N377 C378 1.328 . S
N377 C382 1.318 . S
C378 N377 1.328 . S
C378 C379 1.457 . S
C378 H383 0.929 . S
C379 C378 1.457 . S
C379 C380 1.291 . S
C379 H392 0.931 . S
C380 C379 1.291 . S
C380 C381 1.373 . S
C380 H393 0.929 . S
C381 C380 1.373 . S
C381 C382 1.396 . S
C381 C388 1.403 . S
C382 C372 1.476 . S
C382 N377 1.318 . S
C382 C381 1.396 . S
H383 C378 0.929 . S
O384 Mn360 2.385 . S
O384 C362 1.234 . S
O385 Mn360 2.209 . S
O385 Mn361 2.215 . S
O385 C362 1.283 . S
O386 Mn360 2.094 . S
O386 C364 1.240 . S
O387 Mn361 2.117 . S
O387 C364 1.264 . S
C388 C381 1.403 . S
C388 C389 1.399 . S
C388 H394 0.929 . S
C389 C369 1.449 . S
C389 C388 1.399 . S
C389 H395 0.930 . S
H390 C370 0.931 . S
H391 C371 0.930 . S
H392 C379 0.931 . S
H393 C380 0.929 . S
H394 C388 0.929 . S
H395 C389 0.930 . S
Mn396 O401 2.095 . S
Mn396 O411 2.162 . S
Mn396 O412 2.297 . S
Mn396 O420 2.385 . S
Mn396 O421 2.209 . S
Mn396 O422 2.094 . S
Mn397 O402 2.121 . S
Mn397 N404 2.257 1_565 S
Mn397 N413 2.282 . S
Mn397 O421 2.215 . S
Mn397 O423 2.117 . S
C398 O420 1.234 . S
C398 O421 1.283 . S
C399 O411 1.281 . S
C399 O412 1.236 . S
C400 O422 1.240 . S
C400 O423 1.264 . S
O401 Mn396 2.095 . S
O401 C410 1.250 . S
O402 Mn397 2.121 . S
O402 C410 1.258 . S
C403 N404 1.326 . S
C403 C407 1.460 . S
C403 H409 0.929 . S
N404 Mn397 2.257 1_545 S
N404 C403 1.326 . S
N404 C408 1.362 . S
C405 C406 1.258 . S
C405 C408 1.431 . S
C405 C425 1.449 . S
C406 C405 1.258 . S
C406 C407 1.477 . S
C406 H426 0.931 . S
C407 C403 1.460 . S
C407 C406 1.477 . S
C407 H427 0.930 . S
C408 N404 1.362 . S
C408 C405 1.431 . S
C408 C418 1.476 . S
H409 C403 0.929 . S
C410 O401 1.250 . S
C410 O402 1.258 . S
O411 Mn396 2.162 . S
O411 C399 1.281 . S
O412 Mn396 2.297 . S
O412 C399 1.236 . S
N413 Mn397 2.282 . S
N413 C414 1.328 . S
N413 C418 1.318 1_565 S
C414 N413 1.328 . S
C414 C415 1.457 . S
C414 H419 0.929 . S
C415 C414 1.457 . S
C415 C416 1.291 1_565 S
C415 H428 0.931 . S
C416 C415 1.291 1_545 S
C416 C417 1.373 . S
C416 H429 0.929 . S
C417 C416 1.373 . S
C417 C418 1.396 . S
C417 C424 1.403 . S
C418 C408 1.476 . S
C418 N413 1.318 1_545 S
C418 C417 1.396 . S
H419 C414 0.929 . S
O420 Mn396 2.385 . S
O420 C398 1.234 . S
O421 Mn396 2.209 . S
O421 Mn397 2.215 . S
O421 C398 1.283 . S
O422 Mn396 2.094 . S
O422 C400 1.240 . S
O423 Mn397 2.117 . S
O423 C400 1.264 . S
C424 C417 1.403 . S
C424 C425 1.399 . S
C424 H430 0.929 . S
C425 C405 1.449 . S
C425 C424 1.399 . S
C425 H431 0.930 . S
H426 C406 0.931 . S
H427 C407 0.930 . S
H428 C415 0.931 . S
H429 C416 0.929 . S
H430 C424 0.929 . S
H431 C425 0.930 . S
Mn432 O437 2.095 . S
Mn432 O447 2.162 . S
Mn432 O448 2.297 . S
Mn432 O456 2.385 1_554 S
Mn432 O457 2.209 . S
Mn432 O458 2.094 . S
Mn433 O438 2.121 . S
Mn433 N440 2.257 . S
Mn433 N449 2.282 1_554 S
Mn433 O457 2.215 . S
Mn433 O459 2.117 . S
C434 O456 1.234 . S
C434 O457 1.283 1_556 S
C435 O447 1.281 . S
C435 O448 1.236 . S
C436 O458 1.240 . S
C436 O459 1.264 . S
O437 Mn432 2.095 . S
O437 C446 1.250 . S
O438 Mn433 2.121 . S
O438 C446 1.258 . S
C439 N440 1.326 . S
C439 C443 1.460 . S
C439 H445 0.929 . S
N440 Mn433 2.257 . S
N440 C439 1.326 . S
N440 C444 1.362 . S
C441 C442 1.258 . S
C441 C444 1.431 . S
C441 C461 1.449 1_554 S
C442 C441 1.258 . S
C442 C443 1.477 . S
C442 H462 0.931 . S
C443 C439 1.460 . S
C443 C442 1.477 . S
C443 H463 0.930 . S
C444 N440 1.362 . S
C444 C441 1.431 . S
C444 C454 1.476 1_554 S
H445 C439 0.929 . S
C446 O437 1.250 . S
C446 O438 1.258 . S
O447 Mn432 2.162 . S
O447 C435 1.281 . S
O448 Mn432 2.297 . S
O448 C435 1.236 . S
N449 Mn433 2.282 1_556 S
N449 C450 1.328 . S
N449 C454 1.318 . S
C450 N449 1.328 . S
C450 C451 1.457 . S
C450 H455 0.929 . S
C451 C450 1.457 . S
C451 C452 1.291 . S
C451 H464 0.931 . S
C452 C451 1.291 . S
C452 C453 1.373 . S
C452 H465 0.929 . S
C453 C452 1.373 . S
C453 C454 1.396 . S
C453 C460 1.403 . S
C454 C444 1.476 1_556 S
C454 N449 1.318 . S
C454 C453 1.396 . S
H455 C450 0.929 . S
O456 Mn432 2.385 1_556 S
O456 C434 1.234 . S
O457 Mn432 2.209 . S
O457 Mn433 2.215 . S
O457 C434 1.283 1_554 S
O458 Mn432 2.094 . S
O458 C436 1.240 . S
O459 Mn433 2.117 . S
O459 C436 1.264 . S
C460 C453 1.403 . S
C460 C461 1.399 . S
C460 H466 0.929 . S
C461 C441 1.449 1_556 S
C461 C460 1.399 . S
C461 H467 0.930 . S
H462 C442 0.931 . S
H463 C443 0.930 . S
H464 C451 0.931 . S
H465 C452 0.929 . S
H466 C460 0.929 . S
H467 C461 0.930 . S
Mn468 O473 2.095 . S
Mn468 O483 2.162 . S
Mn468 O484 2.297 . S
Mn468 O492 2.385 . S
Mn468 O493 2.209 . S
Mn468 O494 2.094 . S
Mn469 O474 2.121 . S
Mn469 N476 2.257 1_545 S
Mn469 N485 2.282 . S
Mn469 O493 2.215 . S
Mn469 O495 2.117 . S
C470 O492 1.234 . S
C470 O493 1.283 . S
C471 O483 1.281 . S
C471 O484 1.236 . S
C472 O494 1.240 . S
C472 O495 1.264 . S
O473 Mn468 2.095 . S
O473 C482 1.250 . S
O474 Mn469 2.121 . S
O474 C482 1.258 . S
C475 N476 1.326 . S
C475 C479 1.460 . S
C475 H481 0.929 . S
N476 Mn469 2.257 1_565 S
N476 C475 1.326 . S
N476 C480 1.362 . S
C477 C478 1.258 . S
C477 C480 1.431 . S
C477 C497 1.449 . S
C478 C477 1.258 . S
C478 C479 1.477 . S
C478 H498 0.931 . S
C479 C475 1.460 . S
C479 C478 1.477 . S
C479 H499 0.930 . S
C480 N476 1.362 . S
C480 C477 1.431 . S
C480 C490 1.476 . S
H481 C475 0.929 . S
C482 O473 1.250 . S
C482 O474 1.258 . S
O483 Mn468 2.162 . S
O483 C471 1.281 . S
O484 Mn468 2.297 . S
O484 C471 1.236 . S
N485 Mn469 2.282 . S
N485 C486 1.328 . S
N485 C490 1.318 1_545 S
C486 N485 1.328 . S
C486 C487 1.457 . S
C486 H491 0.929 . S
C487 C486 1.457 . S
C487 C488 1.291 1_545 S
C487 H500 0.931 . S
C488 C487 1.291 1_565 S
C488 C489 1.373 . S
C488 H501 0.929 . S
C489 C488 1.373 . S
C489 C490 1.396 . S
C489 C496 1.403 . S
C490 C480 1.476 . S
C490 N485 1.318 1_565 S
C490 C489 1.396 . S
H491 C486 0.929 . S
O492 Mn468 2.385 . S
O492 C470 1.234 . S
O493 Mn468 2.209 . S
O493 Mn469 2.215 . S
O493 C470 1.283 . S
O494 Mn468 2.094 . S
O494 C472 1.240 . S
O495 Mn469 2.117 . S
O495 C472 1.264 . S
C496 C489 1.403 . S
C496 C497 1.399 . S
C496 H502 0.929 . S
C497 C477 1.449 . S
C497 C496 1.399 . S
C497 H503 0.930 . S
H498 C478 0.931 . S
H499 C479 0.930 . S
H500 C487 0.931 . S
H501 C488 0.929 . S
H502 C496 0.929 . S
H503 C497 0.930 . S
Mn504 O509 2.095 . S
Mn504 O519 2.162 . S
Mn504 O520 2.297 . S
Mn504 O528 2.385 . S
Mn504 O529 2.209 . S
Mn504 O530 2.094 . S
Mn505 O510 2.121 . S
Mn505 N512 2.257 . S
Mn505 N521 2.282 . S
Mn505 O529 2.215 . S
Mn505 O531 2.117 . S
C506 O528 1.234 . S
C506 O529 1.283 . S
C507 O519 1.281 . S
C507 O520 1.236 . S
C508 O530 1.240 . S
C508 O531 1.264 . S
O509 Mn504 2.095 . S
O509 C518 1.250 . S
O510 Mn505 2.121 . S
O510 C518 1.258 . S
C511 N512 1.326 . S
C511 C515 1.460 . S
C511 H517 0.929 . S
N512 Mn505 2.257 . S
N512 C511 1.326 . S
N512 C516 1.362 . S
C513 C514 1.258 . S
C513 C516 1.431 . S
C513 C533 1.449 . S
C514 C513 1.258 . S
C514 C515 1.477 . S
C514 H534 0.931 . S
C515 C511 1.460 . S
C515 C514 1.477 . S
C515 H535 0.930 . S
C516 N512 1.362 . S
C516 C513 1.431 . S
C516 C526 1.476 . S
H517 C511 0.929 . S
C518 O509 1.250 . S
C518 O510 1.258 . S
O519 Mn504 2.162 . S
O519 C507 1.281 . S
O520 Mn504 2.297 . S
O520 C507 1.236 . S
N521 Mn505 2.282 . S
N521 C522 1.328 . S
N521 C526 1.318 . S
C522 N521 1.328 . S
C522 C523 1.457 . S
C522 H527 0.929 . S
C523 C522 1.457 . S
C523 C524 1.291 . S
C523 H536 0.931 . S
C524 C523 1.291 . S
C524 C525 1.373 . S
C524 H537 0.929 . S
C525 C524 1.373 . S
C525 C526 1.396 . S
C525 C532 1.403 . S
C526 C516 1.476 . S
C526 N521 1.318 . S
C526 C525 1.396 . S
H527 C522 0.929 . S
O528 Mn504 2.385 . S
O528 C506 1.234 . S
O529 Mn504 2.209 . S
O529 Mn505 2.215 . S
O529 C506 1.283 . S
O530 Mn504 2.094 . S
O530 C508 1.240 . S
O531 Mn505 2.117 . S
O531 C508 1.264 . S
C532 C525 1.403 . S
C532 C533 1.399 . S
C532 H538 0.929 . S
C533 C513 1.449 . S
C533 C532 1.399 . S
C533 H539 0.930 . S
H534 C514 0.931 . S
H535 C515 0.930 . S
H536 C523 0.931 . S
H537 C524 0.929 . S
H538 C532 0.929 . S
H539 C533 0.930 . S
Mn540 O545 2.095 . S
Mn540 O555 2.162 . S
Mn540 O556 2.297 . S
Mn540 O564 2.385 . S
Mn540 O565 2.209 . S
Mn540 O566 2.094 . S
Mn541 O546 2.121 . S
Mn541 N548 2.257 1_565 S
Mn541 N557 2.282 . S
Mn541 O565 2.215 . S
Mn541 O567 2.117 . S
C542 O564 1.234 . S
C542 O565 1.283 . S
C543 O555 1.281 . S
C543 O556 1.236 . S
C544 O566 1.240 . S
C544 O567 1.264 . S
O545 Mn540 2.095 . S
O545 C554 1.250 . S
O546 Mn541 2.121 . S
O546 C554 1.258 . S
C547 N548 1.326 . S
C547 C551 1.460 . S
C547 H553 0.929 . S
N548 Mn541 2.257 1_545 S
N548 C547 1.326 . S
N548 C552 1.362 . S
C549 C550 1.258 . S
C549 C552 1.431 . S
C549 C569 1.449 . S
C550 C549 1.258 . S
C550 C551 1.477 . S
C550 H570 0.931 . S
C551 C547 1.460 . S
C551 C550 1.477 . S
C551 H571 0.930 . S
C552 N548 1.362 . S
C552 C549 1.431 . S
C552 C562 1.476 . S
H553 C547 0.929 . S
C554 O545 1.250 . S
C554 O546 1.258 . S
O555 Mn540 2.162 . S
O555 C543 1.281 . S
O556 Mn540 2.297 . S
O556 C543 1.236 . S
N557 Mn541 2.282 . S
N557 C558 1.328 . S
N557 C562 1.318 1_565 S
C558 N557 1.328 . S
C558 C559 1.457 . S
C558 H563 0.929 . S
C559 C558 1.457 . S
C559 C560 1.291 1_565 S
C559 H572 0.931 . S
C560 C559 1.291 1_545 S
C560 C561 1.373 . S
C560 H573 0.929 . S
C561 C560 1.373 . S
C561 C562 1.396 . S
C561 C568 1.403 . S
C562 C552 1.476 . S
C562 N557 1.318 1_545 S
C562 C561 1.396 . S
H563 C558 0.929 . S
O564 Mn540 2.385 . S
O564 C542 1.234 . S
O565 Mn540 2.209 . S
O565 Mn541 2.215 . S
O565 C542 1.283 . S
O566 Mn540 2.094 . S
O566 C544 1.240 . S
O567 Mn541 2.117 . S
O567 C544 1.264 . S
C568 C561 1.403 . S
C568 C569 1.399 . S
C568 H574 0.929 . S
C569 C549 1.449 . S
C569 C568 1.399 . S
C569 H575 0.930 . S
H570 C550 0.931 . S
H571 C551 0.930 . S
H572 C559 0.931 . S
H573 C560 0.929 . S
H574 C568 0.929 . S
H575 C569 0.930 . S
Mn576 O581 2.095 . S
Mn576 O591 2.162 . S
Mn576 O592 2.297 . S
Mn576 O600 2.385 . S
Mn576 O601 2.209 . S
Mn576 O602 2.094 . S
Mn577 O582 2.121 . S
Mn577 N584 2.257 . S
Mn577 N593 2.282 . S
Mn577 O601 2.215 . S
Mn577 O603 2.117 . S
C578 O600 1.234 . S
C578 O601 1.283 . S
C579 O591 1.281 . S
C579 O592 1.236 . S
C580 O602 1.240 . S
C580 O603 1.264 . S
O581 Mn576 2.095 . S
O581 C590 1.250 . S
O582 Mn577 2.121 . S
O582 C590 1.258 . S
C583 N584 1.326 . S
C583 C587 1.460 . S
C583 H589 0.929 . S
N584 Mn577 2.257 . S
N584 C583 1.326 . S
N584 C588 1.362 . S
C585 C586 1.258 . S
C585 C588 1.431 . S
C585 C605 1.449 . S
C586 C585 1.258 . S
C586 C587 1.477 . S
C586 H606 0.931 . S
C587 C583 1.460 . S
C587 C586 1.477 . S
C587 H607 0.930 . S
C588 N584 1.362 . S
C588 C585 1.431 . S
C588 C598 1.476 . S
H589 C583 0.929 . S
C590 O581 1.250 . S
C590 O582 1.258 . S
O591 Mn576 2.162 . S
O591 C579 1.281 . S
O592 Mn576 2.297 . S
O592 C579 1.236 . S
N593 Mn577 2.282 . S
N593 C594 1.328 . S
N593 C598 1.318 . S
C594 N593 1.328 . S
C594 C595 1.457 . S
C594 H599 0.929 . S
C595 C594 1.457 . S
C595 C596 1.291 . S
C595 H608 0.931 . S
C596 C595 1.291 . S
C596 C597 1.373 . S
C596 H609 0.929 . S
C597 C596 1.373 . S
C597 C598 1.396 . S
C597 C604 1.403 . S
C598 C588 1.476 . S
C598 N593 1.318 . S
C598 C597 1.396 . S
H599 C594 0.929 . S
O600 Mn576 2.385 . S
O600 C578 1.234 . S
O601 Mn576 2.209 . S
O601 Mn577 2.215 . S
O601 C578 1.283 . S
O602 Mn576 2.094 . S
O602 C580 1.240 . S
O603 Mn577 2.117 . S
O603 C580 1.264 . S
C604 C597 1.403 . S
C604 C605 1.399 . S
C604 H610 0.929 . S
C605 C585 1.449 . S
C605 C604 1.399 . S
C605 H611 0.930 . S
H606 C586 0.931 . S
H607 C587 0.930 . S
H608 C595 0.931 . S
H609 C596 0.929 . S
H610 C604 0.929 . S
H611 C605 0.930 . S
Mn612 O617 2.095 . S
Mn612 O627 2.162 . S
Mn612 O628 2.297 . S
Mn612 O636 2.385 . S
Mn612 O637 2.209 . S
Mn612 O638 2.094 . S
Mn613 O618 2.121 . S
Mn613 N620 2.257 . S
Mn613 N629 2.282 . S
Mn613 O637 2.215 . S
Mn613 O639 2.117 . S
C614 O636 1.234 . S
C614 O637 1.283 . S
C615 O627 1.281 . S
C615 O628 1.236 . S
C616 O638 1.240 . S
C616 O639 1.264 . S
O617 Mn612 2.095 . S
O617 C626 1.250 . S
O618 Mn613 2.121 . S
O618 C626 1.258 . S
C619 N620 1.326 . S
C619 C623 1.460 . S
C619 H625 0.929 . S
N620 Mn613 2.257 . S
N620 C619 1.326 . S
N620 C624 1.362 . S
C621 C622 1.258 . S
C621 C624 1.431 . S
C621 C641 1.449 . S
C622 C621 1.258 . S
C622 C623 1.477 . S
C622 H642 0.931 . S
C623 C619 1.460 . S
C623 C622 1.477 . S
C623 H643 0.930 . S
C624 N620 1.362 . S
C624 C621 1.431 . S
C624 C634 1.476 . S
H625 C619 0.929 . S
C626 O617 1.250 . S
C626 O618 1.258 . S
O627 Mn612 2.162 . S
O627 C615 1.281 . S
O628 Mn612 2.297 . S
O628 C615 1.236 . S
N629 Mn613 2.282 . S
N629 C630 1.328 . S
N629 C634 1.318 . S
C630 N629 1.328 . S
C630 C631 1.457 . S
C630 H635 0.929 . S
C631 C630 1.457 . S
C631 C632 1.291 . S
C631 H644 0.931 . S
C632 C631 1.291 . S
C632 C633 1.373 . S
C632 H645 0.929 . S
C633 C632 1.373 . S
C633 C634 1.396 . S
C633 C640 1.403 . S
C634 C624 1.476 . S
C634 N629 1.318 . S
C634 C633 1.396 . S
H635 C630 0.929 . S
O636 Mn612 2.385 . S
O636 C614 1.234 . S
O637 Mn612 2.209 . S
O637 Mn613 2.215 . S
O637 C614 1.283 . S
O638 Mn612 2.094 . S
O638 C616 1.240 . S
O639 Mn613 2.117 . S
O639 C616 1.264 . S
C640 C633 1.403 . S
C640 C641 1.399 . S
C640 H646 0.929 . S
C641 C621 1.449 . S
C641 C640 1.399 . S
C641 H647 0.930 . S
H642 C622 0.931 . S
H643 C623 0.930 . S
H644 C631 0.931 . S
H645 C632 0.929 . S
H646 C640 0.929 . S
H647 C641 0.930 . S
Mn648 O653 2.095 . S
Mn648 O663 2.162 . S
Mn648 O664 2.297 . S
Mn648 O672 2.385 1_554 S
Mn648 O673 2.209 . S
Mn648 O674 2.094 . S
Mn649 O654 2.121 . S
Mn649 N656 2.257 . S
Mn649 N665 2.282 1_554 S
Mn649 O673 2.215 . S
Mn649 O675 2.117 . S
C650 O672 1.234 . S
C650 O673 1.283 1_556 S
C651 O663 1.281 . S
C651 O664 1.236 . S
C652 O674 1.240 . S
C652 O675 1.264 . S
O653 Mn648 2.095 . S
O653 C662 1.250 . S
O654 Mn649 2.121 . S
O654 C662 1.258 . S
C655 N656 1.326 . S
C655 C659 1.460 . S
C655 H661 0.929 . S
N656 Mn649 2.257 . S
N656 C655 1.326 . S
N656 C660 1.362 . S
C657 C658 1.258 . S
C657 C660 1.431 . S
C657 C677 1.449 1_554 S
C658 C657 1.258 . S
C658 C659 1.477 . S
C658 H678 0.931 . S
C659 C655 1.460 . S
C659 C658 1.477 . S
C659 H679 0.930 . S
C660 N656 1.362 . S
C660 C657 1.431 . S
C660 C670 1.476 1_554 S
H661 C655 0.929 . S
C662 O653 1.250 . S
C662 O654 1.258 . S
O663 Mn648 2.162 . S
O663 C651 1.281 . S
O664 Mn648 2.297 . S
O664 C651 1.236 . S
N665 Mn649 2.282 1_556 S
N665 C666 1.328 . S
N665 C670 1.318 . S
C666 N665 1.328 . S
C666 C667 1.457 . S
C666 H671 0.929 . S
C667 C666 1.457 . S
C667 C668 1.291 . S
C667 H680 0.931 . S
C668 C667 1.291 . S
C668 C669 1.373 . S
C668 H681 0.929 . S
C669 C668 1.373 . S
C669 C670 1.396 . S
C669 C676 1.403 . S
C670 C660 1.476 1_556 S
C670 N665 1.318 . S
C670 C669 1.396 . S
H671 C666 0.929 . S
O672 Mn648 2.385 1_556 S
O672 C650 1.234 . S
O673 Mn648 2.209 . S
O673 Mn649 2.215 . S
O673 C650 1.283 1_554 S
O674 Mn648 2.094 . S
O674 C652 1.240 . S
O675 Mn649 2.117 . S
O675 C652 1.264 . S
C676 C669 1.403 . S
C676 C677 1.399 . S
C676 H682 0.929 . S
C677 C657 1.449 1_556 S
C677 C676 1.399 . S
C677 H683 0.930 . S
H678 C658 0.931 . S
H679 C659 0.930 . S
H680 C667 0.931 . S
H681 C668 0.929 . S
H682 C676 0.929 . S
H683 C677 0.930 . S
Mn684 O689 2.095 . S
Mn684 O699 2.162 . S
Mn684 O700 2.297 . S
Mn684 O708 2.385 . S
Mn684 O709 2.209 . S
Mn684 O710 2.094 . S
Mn685 O690 2.121 . S
Mn685 N692 2.257 . S
Mn685 N701 2.282 . S
Mn685 O709 2.215 . S
Mn685 O711 2.117 . S
C686 O708 1.234 . S
C686 O709 1.283 . S
C687 O699 1.281 . S
C687 O700 1.236 . S
C688 O710 1.240 . S
C688 O711 1.264 . S
O689 Mn684 2.095 . S
O689 C698 1.250 . S
O690 Mn685 2.121 . S
O690 C698 1.258 . S
C691 N692 1.326 . S
C691 C695 1.460 . S
C691 H697 0.929 . S
N692 Mn685 2.257 . S
N692 C691 1.326 . S
N692 C696 1.362 . S
C693 C694 1.258 . S
C693 C696 1.431 . S
C693 C713 1.449 . S
C694 C693 1.258 . S
C694 C695 1.477 . S
C694 H714 0.931 . S
C695 C691 1.460 . S
C695 C694 1.477 . S
C695 H715 0.930 . S
C696 N692 1.362 . S
C696 C693 1.431 . S
C696 C706 1.476 . S
H697 C691 0.929 . S
C698 O689 1.250 . S
C698 O690 1.258 . S
O699 Mn684 2.162 . S
O699 C687 1.281 . S
O700 Mn684 2.297 . S
O700 C687 1.236 . S
N701 Mn685 2.282 . S
N701 C702 1.328 . S
N701 C706 1.318 . S
C702 N701 1.328 . S
C702 C703 1.457 . S
C702 H707 0.929 . S
C703 C702 1.457 . S
C703 C704 1.291 . S
C703 H716 0.931 . S
C704 C703 1.291 . S
C704 C705 1.373 . S
C704 H717 0.929 . S
C705 C704 1.373 . S
C705 C706 1.396 . S
C705 C712 1.403 . S
C706 C696 1.476 . S
C706 N701 1.318 . S
C706 C705 1.396 . S
H707 C702 0.929 . S
O708 Mn684 2.385 . S
O708 C686 1.234 . S
O709 Mn684 2.209 . S
O709 Mn685 2.215 . S
O709 C686 1.283 . S
O710 Mn684 2.094 . S
O710 C688 1.240 . S
O711 Mn685 2.117 . S
O711 C688 1.264 . S
C712 C705 1.403 . S
C712 C713 1.399 . S
C712 H718 0.929 . S
C713 C693 1.449 . S
C713 C712 1.399 . S
C713 H719 0.930 . S
H714 C694 0.931 . S
H715 C695 0.930 . S
H716 C703 0.931 . S
H717 C704 0.929 . S
H718 C712 0.929 . S
H719 C713 0.930 . S
Mn720 O725 2.095 . S
Mn720 O735 2.162 . S
Mn720 O736 2.297 . S
Mn720 O744 2.385 . S
Mn720 O745 2.209 . S
Mn720 O746 2.094 . S
Mn721 O726 2.121 . S
Mn721 N728 2.257 . S
Mn721 N737 2.282 . S
Mn721 O745 2.215 . S
Mn721 O747 2.117 . S
C722 O744 1.234 . S
C722 O745 1.283 . S
C723 O735 1.281 . S
C723 O736 1.236 . S
C724 O746 1.240 . S
C724 O747 1.264 . S
O725 Mn720 2.095 . S
O725 C734 1.250 . S
O726 Mn721 2.121 . S
O726 C734 1.258 . S
C727 N728 1.326 . S
C727 C731 1.460 . S
C727 H733 0.929 . S
N728 Mn721 2.257 . S
N728 C727 1.326 . S
N728 C732 1.362 . S
C729 C730 1.258 . S
C729 C732 1.431 . S
C729 C749 1.449 . S
C730 C729 1.258 . S
C730 C731 1.477 . S
C730 H750 0.931 . S
C731 C727 1.460 . S
C731 C730 1.477 . S
C731 H751 0.930 . S
C732 N728 1.362 . S
C732 C729 1.431 . S
C732 C742 1.476 . S
H733 C727 0.929 . S
C734 O725 1.250 . S
C734 O726 1.258 . S
O735 Mn720 2.162 . S
O735 C723 1.281 . S
O736 Mn720 2.297 . S
O736 C723 1.236 . S
N737 Mn721 2.282 . S
N737 C738 1.328 . S
N737 C742 1.318 . S
C738 N737 1.328 . S
C738 C739 1.457 . S
C738 H743 0.929 . S
C739 C738 1.457 . S
C739 C740 1.291 . S
C739 H752 0.931 . S
C740 C739 1.291 . S
C740 C741 1.373 . S
C740 H753 0.929 . S
C741 C740 1.373 . S
C741 C742 1.396 . S
C741 C748 1.403 . S
C742 C732 1.476 . S
C742 N737 1.318 . S
C742 C741 1.396 . S
H743 C738 0.929 . S
O744 Mn720 2.385 . S
O744 C722 1.234 . S
O745 Mn720 2.209 . S
O745 Mn721 2.215 . S
O745 C722 1.283 . S
O746 Mn720 2.094 . S
O746 C724 1.240 . S
O747 Mn721 2.117 . S
O747 C724 1.264 . S
C748 C741 1.403 . S
C748 C749 1.399 . S
C748 H754 0.929 . S
C749 C729 1.449 . S
C749 C748 1.399 . S
C749 H755 0.930 . S
H750 C730 0.931 . S
H751 C731 0.930 . S
H752 C739 0.931 . S
H753 C740 0.929 . S
H754 C748 0.929 . S
H755 C749 0.930 . S
Mn756 O761 2.095 . S
Mn756 O771 2.162 . S
Mn756 O772 2.297 . S
Mn756 O780 2.385 . S
Mn756 O781 2.209 . S
Mn756 O782 2.094 . S
Mn757 O762 2.121 . S
Mn757 N764 2.257 . S
Mn757 N773 2.282 . S
Mn757 O781 2.215 . S
Mn757 O783 2.117 . S
C758 O780 1.234 . S
C758 O781 1.283 . S
C759 O771 1.281 . S
C759 O772 1.236 . S
C760 O782 1.240 . S
C760 O783 1.264 . S
O761 Mn756 2.095 . S
O761 C770 1.250 . S
O762 Mn757 2.121 . S
O762 C770 1.258 . S
C763 N764 1.326 . S
C763 C767 1.460 . S
C763 H769 0.929 . S
N764 Mn757 2.257 . S
N764 C763 1.326 . S
N764 C768 1.362 . S
C765 C766 1.258 . S
C765 C768 1.431 . S
C765 C785 1.449 . S
C766 C765 1.258 . S
C766 C767 1.477 . S
C766 H786 0.931 . S
C767 C763 1.460 . S
C767 C766 1.477 . S
C767 H787 0.930 . S
C768 N764 1.362 . S
C768 C765 1.431 . S
C768 C778 1.476 . S
H769 C763 0.929 . S
C770 O761 1.250 . S
C770 O762 1.258 . S
O771 Mn756 2.162 . S
O771 C759 1.281 . S
O772 Mn756 2.297 . S
O772 C759 1.236 . S
N773 Mn757 2.282 . S
N773 C774 1.328 . S
N773 C778 1.318 . S
C774 N773 1.328 . S
C774 C775 1.457 . S
C774 H779 0.929 . S
C775 C774 1.457 . S
C775 C776 1.291 . S
C775 H788 0.931 . S
C776 C775 1.291 . S
C776 C777 1.373 . S
C776 H789 0.929 . S
C777 C776 1.373 . S
C777 C778 1.396 . S
C777 C784 1.403 . S
C778 C768 1.476 . S
C778 N773 1.318 . S
C778 C777 1.396 . S
H779 C774 0.929 . S
O780 Mn756 2.385 . S
O780 C758 1.234 . S
O781 Mn756 2.209 . S
O781 Mn757 2.215 . S
O781 C758 1.283 . S
O782 Mn756 2.094 . S
O782 C760 1.240 . S
O783 Mn757 2.117 . S
O783 C760 1.264 . S
C784 C777 1.403 . S
C784 C785 1.399 . S
C784 H790 0.929 . S
C785 C765 1.449 . S
C785 C784 1.399 . S
C785 H791 0.930 . S
H786 C766 0.931 . S
H787 C767 0.930 . S
H788 C775 0.931 . S
H789 C776 0.929 . S
H790 C784 0.929 . S
H791 C785 0.930 . S
Mn792 O797 2.095 . S
Mn792 O807 2.162 . S
Mn792 O808 2.297 . S
Mn792 O816 2.385 . S
Mn792 O817 2.209 . S
Mn792 O818 2.094 . S
Mn793 O798 2.121 . S
Mn793 N800 2.257 . S
Mn793 N809 2.282 . S
Mn793 O817 2.215 . S
Mn793 O819 2.117 . S
C794 O816 1.234 . S
C794 O817 1.283 . S
C795 O807 1.281 . S
C795 O808 1.236 . S
C796 O818 1.240 . S
C796 O819 1.264 . S
O797 Mn792 2.095 . S
O797 C806 1.250 . S
O798 Mn793 2.121 . S
O798 C806 1.258 . S
C799 N800 1.326 . S
C799 C803 1.460 . S
C799 H805 0.929 . S
N800 Mn793 2.257 . S
N800 C799 1.326 . S
N800 C804 1.362 . S
C801 C802 1.258 . S
C801 C804 1.431 . S
C801 C821 1.449 . S
C802 C801 1.258 . S
C802 C803 1.477 . S
C802 H822 0.931 . S
C803 C799 1.460 . S
C803 C802 1.477 . S
C803 H823 0.930 . S
C804 N800 1.362 . S
C804 C801 1.431 . S
C804 C814 1.476 . S
H805 C799 0.929 . S
C806 O797 1.250 . S
C806 O798 1.258 . S
O807 Mn792 2.162 . S
O807 C795 1.281 . S
O808 Mn792 2.297 . S
O808 C795 1.236 . S
N809 Mn793 2.282 . S
N809 C810 1.328 . S
N809 C814 1.318 . S
C810 N809 1.328 . S
C810 C811 1.457 . S
C810 H815 0.929 . S
C811 C810 1.457 . S
C811 C812 1.291 . S
C811 H824 0.931 . S
C812 C811 1.291 . S
C812 C813 1.373 . S
C812 H825 0.929 . S
C813 C812 1.373 . S
C813 C814 1.396 . S
C813 C820 1.403 . S
C814 C804 1.476 . S
C814 N809 1.318 . S
C814 C813 1.396 . S
H815 C810 0.929 . S
O816 Mn792 2.385 . S
O816 C794 1.234 . S
O817 Mn792 2.209 . S
O817 Mn793 2.215 . S
O817 C794 1.283 . S
O818 Mn792 2.094 . S
O818 C796 1.240 . S
O819 Mn793 2.117 . S
O819 C796 1.264 . S
C820 C813 1.403 . S
C820 C821 1.399 . S
C820 H826 0.929 . S
C821 C801 1.449 . S
C821 C820 1.399 . S
C821 H827 0.930 . S
H822 C802 0.931 . S
H823 C803 0.930 . S
H824 C811 0.931 . S
H825 C812 0.929 . S
H826 C820 0.929 . S
H827 C821 0.930 . S
Mn828 O833 2.095 . S
Mn828 O843 2.162 . S
Mn828 O844 2.297 . S
Mn828 O852 2.385 . S
Mn828 O853 2.209 . S
Mn828 O854 2.094 . S
Mn829 O834 2.121 . S
Mn829 N836 2.257 . S
Mn829 N845 2.282 . S
Mn829 O853 2.215 . S
Mn829 O855 2.117 . S
C830 O852 1.234 . S
C830 O853 1.283 . S
C831 O843 1.281 . S
C831 O844 1.236 . S
C832 O854 1.240 . S
C832 O855 1.264 . S
O833 Mn828 2.095 . S
O833 C842 1.250 . S
O834 Mn829 2.121 . S
O834 C842 1.258 . S
C835 N836 1.326 . S
C835 C839 1.460 . S
C835 H841 0.929 . S
N836 Mn829 2.257 . S
N836 C835 1.326 . S
N836 C840 1.362 . S
C837 C838 1.258 . S
C837 C840 1.431 . S
C837 C857 1.449 . S
C838 C837 1.258 . S
C838 C839 1.477 . S
C838 H858 0.931 . S
C839 C835 1.460 . S
C839 C838 1.477 . S
C839 H859 0.930 . S
C840 N836 1.362 . S
C840 C837 1.431 . S
C840 C850 1.476 . S
H841 C835 0.929 . S
C842 O833 1.250 . S
C842 O834 1.258 . S
O843 Mn828 2.162 . S
O843 C831 1.281 . S
O844 Mn828 2.297 . S
O844 C831 1.236 . S
N845 Mn829 2.282 . S
N845 C846 1.328 . S
N845 C850 1.318 . S
C846 N845 1.328 . S
C846 C847 1.457 . S
C846 H851 0.929 . S
C847 C846 1.457 . S
C847 C848 1.291 . S
C847 H860 0.931 . S
C848 C847 1.291 . S
C848 C849 1.373 . S
C848 H861 0.929 . S
C849 C848 1.373 . S
C849 C850 1.396 . S
C849 C856 1.403 . S
C850 C840 1.476 . S
C850 N845 1.318 . S
C850 C849 1.396 . S
H851 C846 0.929 . S
O852 Mn828 2.385 . S
O852 C830 1.234 . S
O853 Mn828 2.209 . S
O853 Mn829 2.215 . S
O853 C830 1.283 . S
O854 Mn828 2.094 . S
O854 C832 1.240 . S
O855 Mn829 2.117 . S
O855 C832 1.264 . S
C856 C849 1.403 . S
C856 C857 1.399 . S
C856 H862 0.929 . S
C857 C837 1.449 . S
C857 C856 1.399 . S
C857 H863 0.930 . S
H858 C838 0.931 . S
H859 C839 0.930 . S
H860 C847 0.931 . S
H861 C848 0.929 . S
H862 C856 0.929 . S
H863 C857 0.930 . S
Mn864 O869 2.095 . S
Mn864 O879 2.162 . S
Mn864 O880 2.297 . S
Mn864 O888 2.385 . S
Mn864 O889 2.209 . S
Mn864 O890 2.094 . S
Mn865 O870 2.121 . S
Mn865 N872 2.257 . S
Mn865 N881 2.282 . S
Mn865 O889 2.215 . S
Mn865 O891 2.117 . S
C866 O888 1.234 . S
C866 O889 1.283 . S
C867 O879 1.281 . S
C867 O880 1.236 . S
C868 O890 1.240 . S
C868 O891 1.264 . S
O869 Mn864 2.095 . S
O869 C878 1.250 . S
O870 Mn865 2.121 . S
O870 C878 1.258 . S
C871 N872 1.326 . S
C871 C875 1.460 . S
C871 H877 0.929 . S
N872 Mn865 2.257 . S
N872 C871 1.326 . S
N872 C876 1.362 . S
C873 C874 1.258 . S
C873 C876 1.431 . S
C873 C893 1.449 . S
C874 C873 1.258 . S
C874 C875 1.477 . S
C874 H894 0.931 . S
C875 C871 1.460 . S
C875 C874 1.477 . S
C875 H895 0.930 . S
C876 N872 1.362 . S
C876 C873 1.431 . S
C876 C886 1.476 . S
H877 C871 0.929 . S
C878 O869 1.250 . S
C878 O870 1.258 . S
O879 Mn864 2.162 . S
O879 C867 1.281 . S
O880 Mn864 2.297 . S
O880 C867 1.236 . S
N881 Mn865 2.282 . S
N881 C882 1.328 . S
N881 C886 1.318 . S
C882 N881 1.328 . S
C882 C883 1.457 . S
C882 H887 0.929 . S
C883 C882 1.457 . S
C883 C884 1.291 . S
C883 H896 0.931 . S
C884 C883 1.291 . S
C884 C885 1.373 . S
C884 H897 0.929 . S
C885 C884 1.373 . S
C885 C886 1.396 . S
C885 C892 1.403 . S
C886 C876 1.476 . S
C886 N881 1.318 . S
C886 C885 1.396 . S
H887 C882 0.929 . S
O888 Mn864 2.385 . S
O888 C866 1.234 . S
O889 Mn864 2.209 . S
O889 Mn865 2.215 . S
O889 C866 1.283 . S
O890 Mn864 2.094 . S
O890 C868 1.240 . S
O891 Mn865 2.117 . S
O891 C868 1.264 . S
C892 C885 1.403 . S
C892 C893 1.399 . S
C892 H898 0.929 . S
C893 C873 1.449 . S
C893 C892 1.399 . S
C893 H899 0.930 . S
H894 C874 0.931 . S
H895 C875 0.930 . S
H896 C883 0.931 . S
H897 C884 0.929 . S
H898 C892 0.929 . S
H899 C893 0.930 . S
Mn900 O905 2.095 . S
Mn900 O915 2.162 . S
Mn900 O916 2.297 . S
Mn900 O924 2.385 . S
Mn900 O925 2.209 . S
Mn900 O926 2.094 . S
Mn901 O906 2.121 . S
Mn901 N908 2.257 . S
Mn901 N917 2.282 . S
Mn901 O925 2.215 . S
Mn901 O927 2.117 . S
C902 O924 1.234 . S
C902 O925 1.283 . S
C903 O915 1.281 . S
C903 O916 1.236 . S
C904 O926 1.240 . S
C904 O927 1.264 . S
O905 Mn900 2.095 . S
O905 C914 1.250 . S
O906 Mn901 2.121 . S
O906 C914 1.258 . S
C907 N908 1.326 . S
C907 C911 1.460 . S
C907 H913 0.929 . S
N908 Mn901 2.257 . S
N908 C907 1.326 . S
N908 C912 1.362 . S
C909 C910 1.258 . S
C909 C912 1.431 . S
C909 C929 1.449 . S
C910 C909 1.258 . S
C910 C911 1.477 . S
C910 H930 0.931 . S
C911 C907 1.460 . S
C911 C910 1.477 . S
C911 H931 0.930 . S
C912 N908 1.362 . S
C912 C909 1.431 . S
C912 C922 1.476 . S
H913 C907 0.929 . S
C914 O905 1.250 . S
C914 O906 1.258 . S
O915 Mn900 2.162 . S
O915 C903 1.281 . S
O916 Mn900 2.297 . S
O916 C903 1.236 . S
N917 Mn901 2.282 . S
N917 C918 1.328 . S
N917 C922 1.318 . S
C918 N917 1.328 . S
C918 C919 1.457 . S
C918 H923 0.929 . S
C919 C918 1.457 . S
C919 C920 1.291 . S
C919 H932 0.931 . S
C920 C919 1.291 . S
C920 C921 1.373 . S
C920 H933 0.929 . S
C921 C920 1.373 . S
C921 C922 1.396 . S
C921 C928 1.403 . S
C922 C912 1.476 . S
C922 N917 1.318 . S
C922 C921 1.396 . S
H923 C918 0.929 . S
O924 Mn900 2.385 . S
O924 C902 1.234 . S
O925 Mn900 2.209 . S
O925 Mn901 2.215 . S
O925 C902 1.283 . S
O926 Mn900 2.094 . S
O926 C904 1.240 . S
O927 Mn901 2.117 . S
O927 C904 1.264 . S
C928 C921 1.403 . S
C928 C929 1.399 . S
C928 H934 0.929 . S
C929 C909 1.449 . S
C929 C928 1.399 . S
C929 H935 0.930 . S
H930 C910 0.931 . S
H931 C911 0.930 . S
H932 C919 0.931 . S
H933 C920 0.929 . S
H934 C928 0.929 . S
H935 C929 0.930 . S
Mn936 O941 2.095 . S
Mn936 O951 2.162 . S
Mn936 O952 2.297 . S
Mn936 O960 2.385 . S
Mn936 O961 2.209 . S
Mn936 O962 2.094 . S
Mn937 O942 2.121 . S
Mn937 N944 2.257 . S
Mn937 N953 2.282 . S
Mn937 O961 2.215 . S
Mn937 O963 2.117 . S
C938 O960 1.234 . S
C938 O961 1.283 . S
C939 O951 1.281 . S
C939 O952 1.236 . S
C940 O962 1.240 . S
C940 O963 1.264 . S
O941 Mn936 2.095 . S
O941 C950 1.250 . S
O942 Mn937 2.121 . S
O942 C950 1.258 . S
C943 N944 1.326 . S
C943 C947 1.460 . S
C943 H949 0.929 . S
N944 Mn937 2.257 . S
N944 C943 1.326 . S
N944 C948 1.362 . S
C945 C946 1.258 . S
C945 C948 1.431 . S
C945 C965 1.449 . S
C946 C945 1.258 . S
C946 C947 1.477 . S
C946 H966 0.931 . S
C947 C943 1.460 . S
C947 C946 1.477 . S
C947 H967 0.930 . S
C948 N944 1.362 . S
C948 C945 1.431 . S
C948 C958 1.476 . S
H949 C943 0.929 . S
C950 O941 1.250 . S
C950 O942 1.258 . S
O951 Mn936 2.162 . S
O951 C939 1.281 . S
O952 Mn936 2.297 . S
O952 C939 1.236 . S
N953 Mn937 2.282 . S
N953 C954 1.328 . S
N953 C958 1.318 . S
C954 N953 1.328 . S
C954 C955 1.457 . S
C954 H959 0.929 . S
C955 C954 1.457 . S
C955 C956 1.291 . S
C955 H968 0.931 . S
C956 C955 1.291 . S
C956 C957 1.373 . S
C956 H969 0.929 . S
C957 C956 1.373 . S
C957 C958 1.396 . S
C957 C964 1.403 . S
C958 C948 1.476 . S
C958 N953 1.318 . S
C958 C957 1.396 . S
H959 C954 0.929 . S
O960 Mn936 2.385 . S
O960 C938 1.234 . S
O961 Mn936 2.209 . S
O961 Mn937 2.215 . S
O961 C938 1.283 . S
O962 Mn936 2.094 . S
O962 C940 1.240 . S
O963 Mn937 2.117 . S
O963 C940 1.264 . S
C964 C957 1.403 . S
C964 C965 1.399 . S
C964 H970 0.929 . S
C965 C945 1.449 . S
C965 C964 1.399 . S
C965 H971 0.930 . S
H966 C946 0.931 . S
H967 C947 0.930 . S
H968 C955 0.931 . S
H969 C956 0.929 . S
H970 C964 0.929 . S
H971 C965 0.930 . S
Mn972 O977 2.095 . S
Mn972 O987 2.162 . S
Mn972 O988 2.297 . S
Mn972 O996 2.385 . S
Mn972 O997 2.209 . S
Mn972 O998 2.094 . S
Mn973 O978 2.121 . S
Mn973 N980 2.257 . S
Mn973 N989 2.282 . S
Mn973 O997 2.215 . S
Mn973 O999 2.117 . S
C974 O996 1.234 . S
C974 O997 1.283 . S
C975 O987 1.281 . S
C975 O988 1.236 . S
C976 O998 1.240 . S
C976 O999 1.264 . S
O977 Mn972 2.095 . S
O977 C986 1.250 . S
O978 Mn973 2.121 . S
O978 C986 1.258 . S
C979 N980 1.326 . S
C979 C983 1.460 . S
C979 H985 0.929 . S
N980 Mn973 2.257 . S
N980 C979 1.326 . S
N980 C984 1.362 . S
C981 C982 1.258 . S
C981 C984 1.431 . S
C981 C1001 1.449 . S
C982 C981 1.258 . S
C982 C983 1.477 . S
C982 H1002 0.931 . S
C983 C979 1.460 . S
C983 C982 1.477 . S
C983 H1003 0.930 . S
C984 N980 1.362 . S
C984 C981 1.431 . S
C984 C994 1.476 . S
H985 C979 0.929 . S
C986 O977 1.250 . S
C986 O978 1.258 . S
O987 Mn972 2.162 . S
O987 C975 1.281 . S
O988 Mn972 2.297 . S
O988 C975 1.236 . S
N989 Mn973 2.282 . S
N989 C990 1.328 . S
N989 C994 1.318 . S
C990 N989 1.328 . S
C990 C991 1.457 . S
C990 H995 0.929 . S
C991 C990 1.457 . S
C991 C992 1.291 . S
C991 H1004 0.931 . S
C992 C991 1.291 . S
C992 C993 1.373 . S
C992 H1005 0.929 . S
C993 C992 1.373 . S
C993 C994 1.396 . S
C993 C1000 1.403 . S
C994 C984 1.476 . S
C994 N989 1.318 . S
C994 C993 1.396 . S
H995 C990 0.929 . S
O996 Mn972 2.385 . S
O996 C974 1.234 . S
O997 Mn972 2.209 . S
O997 Mn973 2.215 . S
O997 C974 1.283 . S
O998 Mn972 2.094 . S
O998 C976 1.240 . S
O999 Mn973 2.117 . S
O999 C976 1.264 . S
C1000 C993 1.403 . S
C1000 C1001 1.399 . S
C1000 H1006 0.929 . S
C1001 C981 1.449 . S
C1001 C1000 1.399 . S
C1001 H1007 0.930 . S
H1002 C982 0.931 . S
H1003 C983 0.930 . S
H1004 C991 0.931 . S
H1005 C992 0.929 . S
H1006 C1000 0.929 . S
H1007 C1001 0.930 . S
Mn1008 O1013 2.095 . S
Mn1008 O1023 2.162 . S
Mn1008 O1024 2.297 . S
Mn1008 O1032 2.385 . S
Mn1008 O1033 2.209 . S
Mn1008 O1034 2.094 . S
Mn1009 O1014 2.121 . S
Mn1009 N1016 2.257 . S
Mn1009 N1025 2.282 . S
Mn1009 O1033 2.215 . S
Mn1009 O1035 2.117 . S
C1010 O1032 1.234 . S
C1010 O1033 1.283 . S
C1011 O1023 1.281 . S
C1011 O1024 1.236 . S
C1012 O1034 1.240 . S
C1012 O1035 1.264 . S
O1013 Mn1008 2.095 . S
O1013 C1022 1.250 . S
O1014 Mn1009 2.121 . S
O1014 C1022 1.258 . S
C1015 N1016 1.326 . S
C1015 C1019 1.460 . S
C1015 H1021 0.929 . S
N1016 Mn1009 2.257 . S
N1016 C1015 1.326 . S
N1016 C1020 1.362 . S
C1017 C1018 1.258 . S
C1017 C1020 1.431 . S
C1017 C1037 1.449 . S
C1018 C1017 1.258 . S
C1018 C1019 1.477 . S
C1018 H1038 0.931 . S
C1019 C1015 1.460 . S
C1019 C1018 1.477 . S
C1019 H1039 0.930 . S
C1020 N1016 1.362 . S
C1020 C1017 1.431 . S
C1020 C1030 1.476 . S
H1021 C1015 0.929 . S
C1022 O1013 1.250 . S
C1022 O1014 1.258 . S
O1023 Mn1008 2.162 . S
O1023 C1011 1.281 . S
O1024 Mn1008 2.297 . S
O1024 C1011 1.236 . S
N1025 Mn1009 2.282 . S
N1025 C1026 1.328 . S
N1025 C1030 1.318 . S
C1026 N1025 1.328 . S
C1026 C1027 1.457 . S
C1026 H1031 0.929 . S
C1027 C1026 1.457 . S
C1027 C1028 1.291 . S
C1027 H1040 0.931 . S
C1028 C1027 1.291 . S
C1028 C1029 1.373 . S
C1028 H1041 0.929 . S
C1029 C1028 1.373 . S
C1029 C1030 1.396 . S
C1029 C1036 1.403 . S
C1030 C1020 1.476 . S
C1030 N1025 1.318 . S
C1030 C1029 1.396 . S
H1031 C1026 0.929 . S
O1032 Mn1008 2.385 . S
O1032 C1010 1.234 . S
O1033 Mn1008 2.209 . S
O1033 Mn1009 2.215 . S
O1033 C1010 1.283 . S
O1034 Mn1008 2.094 . S
O1034 C1012 1.240 . S
O1035 Mn1009 2.117 . S
O1035 C1012 1.264 . S
C1036 C1029 1.403 . S
C1036 C1037 1.399 . S
C1036 H1042 0.929 . S
C1037 C1017 1.449 . S
C1037 C1036 1.399 . S
C1037 H1043 0.930 . S
H1038 C1018 0.931 . S
H1039 C1019 0.930 . S
H1040 C1027 0.931 . S
H1041 C1028 0.929 . S
H1042 C1036 0.929 . S
H1043 C1037 0.930 . S
Mn1044 O1049 2.095 . S
Mn1044 O1059 2.162 . S
Mn1044 O1060 2.297 . S
Mn1044 O1068 2.385 . S
Mn1044 O1069 2.209 . S
Mn1044 O1070 2.094 . S
Mn1045 O1050 2.121 . S
Mn1045 N1052 2.257 . S
Mn1045 N1061 2.282 . S
Mn1045 O1069 2.215 . S
Mn1045 O1071 2.117 . S
C1046 O1068 1.234 . S
C1046 O1069 1.283 . S
C1047 O1059 1.281 . S
C1047 O1060 1.236 . S
C1048 O1070 1.240 . S
C1048 O1071 1.264 . S
O1049 Mn1044 2.095 . S
O1049 C1058 1.250 . S
O1050 Mn1045 2.121 . S
O1050 C1058 1.258 . S
C1051 N1052 1.326 . S
C1051 C1055 1.460 . S
C1051 H1057 0.929 . S
N1052 Mn1045 2.257 . S
N1052 C1051 1.326 . S
N1052 C1056 1.362 . S
C1053 C1054 1.258 . S
C1053 C1056 1.431 . S
C1053 C1073 1.449 . S
C1054 C1053 1.258 . S
C1054 C1055 1.477 . S
C1054 H1074 0.931 . S
C1055 C1051 1.460 . S
C1055 C1054 1.477 . S
C1055 H1075 0.930 . S
C1056 N1052 1.362 . S
C1056 C1053 1.431 . S
C1056 C1066 1.476 . S
H1057 C1051 0.929 . S
C1058 O1049 1.250 . S
C1058 O1050 1.258 . S
O1059 Mn1044 2.162 . S
O1059 C1047 1.281 . S
O1060 Mn1044 2.297 . S
O1060 C1047 1.236 . S
N1061 Mn1045 2.282 . S
N1061 C1062 1.328 . S
N1061 C1066 1.318 . S
C1062 N1061 1.328 . S
C1062 C1063 1.457 . S
C1062 H1067 0.929 . S
C1063 C1062 1.457 . S
C1063 C1064 1.291 . S
C1063 H1076 0.931 . S
C1064 C1063 1.291 . S
C1064 C1065 1.373 . S
C1064 H1077 0.929 . S
C1065 C1064 1.373 . S
C1065 C1066 1.396 . S
C1065 C1072 1.403 . S
C1066 C1056 1.476 . S
C1066 N1061 1.318 . S
C1066 C1065 1.396 . S
H1067 C1062 0.929 . S
O1068 Mn1044 2.385 . S
O1068 C1046 1.234 . S
O1069 Mn1044 2.209 . S
O1069 Mn1045 2.215 . S
O1069 C1046 1.283 . S
O1070 Mn1044 2.094 . S
O1070 C1048 1.240 . S
O1071 Mn1045 2.117 . S
O1071 C1048 1.264 . S
C1072 C1065 1.403 . S
C1072 C1073 1.399 . S
C1072 H1078 0.929 . S
C1073 C1053 1.449 . S
C1073 C1072 1.399 . S
C1073 H1079 0.930 . S
H1074 C1054 0.931 . S
H1075 C1055 0.930 . S
H1076 C1063 0.931 . S
H1077 C1064 0.929 . S
H1078 C1072 0.929 . S
H1079 C1073 0.930 . S
Mn1080 O1085 2.095 . S
Mn1080 O1095 2.162 . S
Mn1080 O1096 2.297 . S
Mn1080 O1104 2.385 1_554 S
Mn1080 O1105 2.209 . S
Mn1080 O1106 2.094 . S
Mn1081 O1086 2.121 . S
Mn1081 N1088 2.257 . S
Mn1081 N1097 2.282 1_554 S
Mn1081 O1105 2.215 . S
Mn1081 O1107 2.117 . S
C1082 O1104 1.234 . S
C1082 O1105 1.283 1_556 S
C1083 O1095 1.281 . S
C1083 O1096 1.236 . S
C1084 O1106 1.240 . S
C1084 O1107 1.264 . S
O1085 Mn1080 2.095 . S
O1085 C1094 1.250 . S
O1086 Mn1081 2.121 . S
O1086 C1094 1.258 . S
C1087 N1088 1.326 . S
C1087 C1091 1.460 . S
C1087 H1093 0.929 . S
N1088 Mn1081 2.257 . S
N1088 C1087 1.326 . S
N1088 C1092 1.362 . S
C1089 C1090 1.258 . S
C1089 C1092 1.431 . S
C1089 C1109 1.449 1_554 S
C1090 C1089 1.258 . S
C1090 C1091 1.477 . S
C1090 H1110 0.931 . S
C1091 C1087 1.460 . S
C1091 C1090 1.477 . S
C1091 H1111 0.930 . S
C1092 N1088 1.362 . S
C1092 C1089 1.431 . S
C1092 C1102 1.476 1_554 S
H1093 C1087 0.929 . S
C1094 O1085 1.250 . S
C1094 O1086 1.258 . S
O1095 Mn1080 2.162 . S
O1095 C1083 1.281 . S
O1096 Mn1080 2.297 . S
O1096 C1083 1.236 . S
N1097 Mn1081 2.282 1_556 S
N1097 C1098 1.328 . S
N1097 C1102 1.318 . S
C1098 N1097 1.328 . S
C1098 C1099 1.457 . S
C1098 H1103 0.929 . S
C1099 C1098 1.457 . S
C1099 C1100 1.291 . S
C1099 H1112 0.931 . S
C1100 C1099 1.291 . S
C1100 C1101 1.373 . S
C1100 H1113 0.929 . S
C1101 C1100 1.373 . S
C1101 C1102 1.396 . S
C1101 C1108 1.403 . S
C1102 C1092 1.476 1_556 S
C1102 N1097 1.318 . S
C1102 C1101 1.396 . S
H1103 C1098 0.929 . S
O1104 Mn1080 2.385 1_556 S
O1104 C1082 1.234 . S
O1105 Mn1080 2.209 . S
O1105 Mn1081 2.215 . S
O1105 C1082 1.283 1_554 S
O1106 Mn1080 2.094 . S
O1106 C1084 1.240 . S
O1107 Mn1081 2.117 . S
O1107 C1084 1.264 . S
C1108 C1101 1.403 . S
C1108 C1109 1.399 . S
C1108 H1114 0.929 . S
C1109 C1089 1.449 1_556 S
C1109 C1108 1.399 . S
C1109 H1115 0.930 . S
H1110 C1090 0.931 . S
H1111 C1091 0.930 . S
H1112 C1099 0.931 . S
H1113 C1100 0.929 . S
H1114 C1108 0.929 . S
H1115 C1109 0.930 . S
Mn1116 O1121 2.095 . S
Mn1116 O1131 2.162 . S
Mn1116 O1132 2.297 . S
Mn1116 O1140 2.385 . S
Mn1116 O1141 2.209 . S
Mn1116 O1142 2.094 . S
Mn1117 O1122 2.121 . S
Mn1117 N1124 2.257 . S
Mn1117 N1133 2.282 . S
Mn1117 O1141 2.215 . S
Mn1117 O1143 2.117 . S
C1118 O1140 1.234 . S
C1118 O1141 1.283 . S
C1119 O1131 1.281 . S
C1119 O1132 1.236 . S
C1120 O1142 1.240 . S
C1120 O1143 1.264 . S
O1121 Mn1116 2.095 . S
O1121 C1130 1.250 . S
O1122 Mn1117 2.121 . S
O1122 C1130 1.258 . S
C1123 N1124 1.326 . S
C1123 C1127 1.460 . S
C1123 H1129 0.929 . S
N1124 Mn1117 2.257 . S
N1124 C1123 1.326 . S
N1124 C1128 1.362 . S
C1125 C1126 1.258 . S
C1125 C1128 1.431 . S
C1125 C1145 1.449 . S
C1126 C1125 1.258 . S
C1126 C1127 1.477 . S
C1126 H1146 0.931 . S
C1127 C1123 1.460 . S
C1127 C1126 1.477 . S
C1127 H1147 0.930 . S
C1128 N1124 1.362 . S
C1128 C1125 1.431 . S
C1128 C1138 1.476 . S
H1129 C1123 0.929 . S
C1130 O1121 1.250 . S
C1130 O1122 1.258 . S
O1131 Mn1116 2.162 . S
O1131 C1119 1.281 . S
O1132 Mn1116 2.297 . S
O1132 C1119 1.236 . S
N1133 Mn1117 2.282 . S
N1133 C1134 1.328 . S
N1133 C1138 1.318 . S
C1134 N1133 1.328 . S
C1134 C1135 1.457 . S
C1134 H1139 0.929 . S
C1135 C1134 1.457 . S
C1135 C1136 1.291 . S
C1135 H1148 0.931 . S
C1136 C1135 1.291 . S
C1136 C1137 1.373 . S
C1136 H1149 0.929 . S
C1137 C1136 1.373 . S
C1137 C1138 1.396 . S
C1137 C1144 1.403 . S
C1138 C1128 1.476 . S
C1138 N1133 1.318 . S
C1138 C1137 1.396 . S
H1139 C1134 0.929 . S
O1140 Mn1116 2.385 . S
O1140 C1118 1.234 . S
O1141 Mn1116 2.209 . S
O1141 Mn1117 2.215 . S
O1141 C1118 1.283 . S
O1142 Mn1116 2.094 . S
O1142 C1120 1.240 . S
O1143 Mn1117 2.117 . S
O1143 C1120 1.264 . S
C1144 C1137 1.403 . S
C1144 C1145 1.399 . S
C1144 H1150 0.929 . S
C1145 C1125 1.449 . S
C1145 C1144 1.399 . S
C1145 H1151 0.930 . S
H1146 C1126 0.931 . S
H1147 C1127 0.930 . S
H1148 C1135 0.931 . S
H1149 C1136 0.929 . S
H1150 C1144 0.929 . S
H1151 C1145 0.930 . S
C1152 C1153 1.349 . S
C1152 C1154 1.327 . S
C1152 H1177 0.950 . S
C1153 C1152 1.349 . S
C1153 C1169 1.349 . S
C1154 C1152 1.327 . S
C1154 C1173 1.429 . S
C1154 H1178 0.950 . S
C1155 C1172 1.574 . S
C1155 C1174 1.368 . S
C1155 H1179 0.949 . S
H1156 C1160 0.949 . S
C1157 C1158 1.349 . S
C1157 C1159 1.331 . S
C1157 H1180 0.950 . S
C1158 C1157 1.349 . S
C1158 C1170 1.349 . S
C1159 C1157 1.331 . S
C1159 C1175 1.426 1_554 S
C1159 H1181 0.949 1_554 S
C1160 H1156 0.949 . S
C1160 C1168 1.574 . S
C1160 C1176 1.368 . S
H1161 C1169 0.950 . S
H1162 C1167 0.950 . S
H1163 C1168 0.949 . S
H1164 C1170 0.950 . S
H1165 C1171 0.950 . S
H1166 C1172 0.949 . S
C1167 H1162 0.950 . S
C1167 C1169 1.327 . S
C1167 C1173 1.429 . S
C1168 C1160 1.574 . S
C1168 H1163 0.949 . S
C1168 C1174 1.368 . S
C1169 C1153 1.349 . S
C1169 H1161 0.950 . S
C1169 C1167 1.327 . S
C1170 C1158 1.349 . S
C1170 H1164 0.950 . S
C1170 C1171 1.327 1_554 S
C1171 H1165 0.950 . S
C1171 C1170 1.327 1_556 S
C1171 C1175 1.429 . S
C1172 C1155 1.574 . S
C1172 H1166 0.949 . S
C1172 C1176 1.368 . S
C1173 C1154 1.429 . S
C1173 C1167 1.429 . S
C1173 C1174 1.523 . S
C1174 C1155 1.368 . S
C1174 C1168 1.368 . S
C1174 C1173 1.523 . S
C1175 C1159 1.426 1_556 S
C1175 C1171 1.429 . S
C1175 C1176 1.523 . S
C1176 C1160 1.368 . S
C1176 C1172 1.368 . S
C1176 C1175 1.523 . S
H1177 C1152 0.950 . S
H1178 C1154 0.950 . S
H1179 C1155 0.949 . S
H1180 C1157 0.950 . S
H1181 C1159 0.949 1_556 S
C1182 C1183 1.349 . S
C1182 C1184 1.327 . S
C1182 H1207 0.950 . S
C1183 C1182 1.349 . S
C1183 C1199 1.349 . S
C1184 C1182 1.327 . S
C1184 C1203 1.429 . S
C1184 H1208 0.950 . S
C1185 C1202 1.574 . S
C1185 C1204 1.368 . S
C1185 H1209 0.949 . S
H1186 C1190 0.949 . S
C1187 C1188 1.349 . S
C1187 C1189 1.327 . S
C1187 H1210 0.950 . S
C1188 C1187 1.349 . S
C1188 C1200 1.349 . S
C1189 C1187 1.327 . S
C1189 C1205 1.429 . S
C1189 H1211 0.950 . S
C1190 H1186 0.949 . S
C1190 C1198 1.574 . S
C1190 C1206 1.368 . S
H1191 C1199 0.950 . S
H1192 C1197 0.950 . S
H1193 C1198 0.949 . S
H1194 C1200 0.950 . S
H1195 C1201 0.950 . S
H1196 C1202 0.949 . S
C1197 H1192 0.950 . S
C1197 C1199 1.327 . S
C1197 C1203 1.429 . S
C1198 C1190 1.574 . S
C1198 H1193 0.949 . S
C1198 C1204 1.368 . S
C1199 C1183 1.349 . S
C1199 H1191 0.950 . S
C1199 C1197 1.327 . S
C1200 C1188 1.349 . S
C1200 H1194 0.950 . S
C1200 C1201 1.327 . S
C1201 H1195 0.950 . S
C1201 C1200 1.327 . S
C1201 C1205 1.429 . S
C1202 C1185 1.574 . S
C1202 H1196 0.949 . S
C1202 C1206 1.368 . S
C1203 C1184 1.429 . S
C1203 C1197 1.429 . S
C1203 C1204 1.523 . S
C1204 C1185 1.368 . S
C1204 C1198 1.368 . S
C1204 C1203 1.523 . S
C1205 C1189 1.429 . S
C1205 C1201 1.429 . S
C1205 C1206 1.523 . S
C1206 C1190 1.368 . S
C1206 C1202 1.368 . S
C1206 C1205 1.523 . S
H1207 C1182 0.950 . S
H1208 C1184 0.950 . S
H1209 C1185 0.949 . S
H1210 C1187 0.950 . S
H1211 C1189 0.950 . S
C1212 C1213 1.349 . S
C1212 C1214 1.327 . S
C1212 H1237 0.950 . S
C1213 C1212 1.349 . S
C1213 C1229 1.349 . S
C1214 C1212 1.327 . S
C1214 C1233 1.429 . S
C1214 H1238 0.950 . S
C1215 C1232 1.574 . S
C1215 C1234 1.368 . S
C1215 H1239 0.949 . S
H1216 C1220 0.949 . S
C1217 C1218 1.349 . S
C1217 C1219 1.327 . S
C1217 H1240 0.950 . S
C1218 C1217 1.349 . S
C1218 C1230 1.349 . S
C1219 C1217 1.327 . S
C1219 C1235 1.429 . S
C1219 H1241 0.950 . S
C1220 H1216 0.949 . S
C1220 C1228 1.574 . S
C1220 C1236 1.368 . S
H1221 C1229 0.950 . S
H1222 C1227 0.950 . S
H1223 C1228 0.949 . S
H1224 C1230 0.950 . S
H1225 C1231 0.950 . S
H1226 C1232 0.949 . S
C1227 H1222 0.950 . S
C1227 C1229 1.327 . S
C1227 C1233 1.429 . S
C1228 C1220 1.574 . S
C1228 H1223 0.949 . S
C1228 C1234 1.368 . S
C1229 C1213 1.349 . S
C1229 H1221 0.950 . S
C1229 C1227 1.327 . S
C1230 C1218 1.349 . S
C1230 H1224 0.950 . S
C1230 C1231 1.327 . S
C1231 H1225 0.950 . S
C1231 C1230 1.327 . S
C1231 C1235 1.429 . S
C1232 C1215 1.574 . S
C1232 H1226 0.949 . S
C1232 C1236 1.368 . S
C1233 C1214 1.429 . S
C1233 C1227 1.429 . S
C1233 C1234 1.523 . S
C1234 C1215 1.368 . S
C1234 C1228 1.368 . S
C1234 C1233 1.523 . S
C1235 C1219 1.429 . S
C1235 C1231 1.429 . S
C1235 C1236 1.523 . S
C1236 C1220 1.368 . S
C1236 C1232 1.368 . S
C1236 C1235 1.523 . S
H1237 C1212 0.950 . S
H1238 C1214 0.950 . S
H1239 C1215 0.949 . S
H1240 C1217 0.950 . S
H1241 C1219 0.950 . S
C1242 C1243 1.349 . S
C1242 C1244 1.327 . S
C1242 H1267 0.950 . S
C1243 C1242 1.349 . S
C1243 C1259 1.349 . S
C1244 C1242 1.327 . S
C1244 C1263 1.429 . S
C1244 H1268 0.950 . S
C1245 C1262 1.574 . S
C1245 C1264 1.368 . S
C1245 H1269 0.949 . S
H1246 C1250 0.949 . S
C1247 C1248 1.349 . S
C1247 C1249 1.327 . S
C1247 H1270 0.950 . S
C1248 C1247 1.349 . S
C1248 C1260 1.349 . S
C1249 C1247 1.327 . S
C1249 C1265 1.429 . S
C1249 H1271 0.950 . S
C1250 H1246 0.949 . S
C1250 C1258 1.574 . S
C1250 C1266 1.368 . S
H1251 C1259 0.950 . S
H1252 C1257 0.950 . S
H1253 C1258 0.949 . S
H1254 C1260 0.950 . S
H1255 C1261 0.950 . S
H1256 C1262 0.949 . S
C1257 H1252 0.950 . S
C1257 C1259 1.327 . S
C1257 C1263 1.429 . S
C1258 C1250 1.574 . S
C1258 H1253 0.949 . S
C1258 C1264 1.368 . S
C1259 C1243 1.349 . S
C1259 H1251 0.950 . S
C1259 C1257 1.327 . S
C1260 C1248 1.349 . S
C1260 H1254 0.950 . S
C1260 C1261 1.327 . S
C1261 H1255 0.950 . S
C1261 C1260 1.327 . S
C1261 C1265 1.429 . S
C1262 C1245 1.574 . S
C1262 H1256 0.949 . S
C1262 C1266 1.368 . S
C1263 C1244 1.429 . S
C1263 C1257 1.429 . S
C1263 C1264 1.523 . S
C1264 C1245 1.368 . S
C1264 C1258 1.368 . S
C1264 C1263 1.523 . S
C1265 C1249 1.429 . S
C1265 C1261 1.429 . S
C1265 C1266 1.523 . S
C1266 C1250 1.368 . S
C1266 C1262 1.368 . S
C1266 C1265 1.523 . S
H1267 C1242 0.950 . S
H1268 C1244 0.950 . S
H1269 C1245 0.949 . S
H1270 C1247 0.950 . S
H1271 C1249 0.950 . S
C1272 C1273 1.349 . S
C1272 C1274 1.327 . S
C1272 H1297 0.950 . S
C1273 C1272 1.349 . S
C1273 C1289 1.349 . S
C1274 C1272 1.327 . S
C1274 C1293 1.429 . S
C1274 H1298 0.950 . S
C1275 C1292 1.574 . S
C1275 C1294 1.368 . S
C1275 H1299 0.949 . S
H1276 C1280 0.949 . S
C1277 C1278 1.349 . S
C1277 C1279 1.327 . S
C1277 H1300 0.950 . S
C1278 C1277 1.349 . S
C1278 C1290 1.349 . S
C1279 C1277 1.327 . S
C1279 C1295 1.429 . S
C1279 H1301 0.950 . S
C1280 H1276 0.949 . S
C1280 C1288 1.574 . S
C1280 C1296 1.368 . S
H1281 C1289 0.950 . S
H1282 C1287 0.950 . S
H1283 C1288 0.949 . S
H1284 C1290 0.950 . S
H1285 C1291 0.950 . S
H1286 C1292 0.949 . S
C1287 H1282 0.950 . S
C1287 C1289 1.327 . S
C1287 C1293 1.429 . S
C1288 C1280 1.574 . S
C1288 H1283 0.949 . S
C1288 C1294 1.368 . S
C1289 C1273 1.349 . S
C1289 H1281 0.950 . S
C1289 C1287 1.327 . S
C1290 C1278 1.349 . S
C1290 H1284 0.950 . S
C1290 C1291 1.327 . S
C1291 H1285 0.950 . S
C1291 C1290 1.327 . S
C1291 C1295 1.429 . S
C1292 C1275 1.574 . S
C1292 H1286 0.949 . S
C1292 C1296 1.368 . S
C1293 C1274 1.429 . S
C1293 C1287 1.429 . S
C1293 C1294 1.523 . S
C1294 C1275 1.368 . S
C1294 C1288 1.368 . S
C1294 C1293 1.523 . S
C1295 C1279 1.429 . S
C1295 C1291 1.429 . S
C1295 C1296 1.523 . S
C1296 C1280 1.368 . S
C1296 C1292 1.368 . S
C1296 C1295 1.523 . S
H1297 C1272 0.950 . S
H1298 C1274 0.950 . S
H1299 C1275 0.949 . S
H1300 C1277 0.950 . S
H1301 C1279 0.950 . S
C1302 C1303 1.349 . S
C1302 C1304 1.327 . S
C1302 H1327 0.950 . S
C1303 C1302 1.349 . S
C1303 C1319 1.349 . S
C1304 C1302 1.327 . S
C1304 C1323 1.429 . S
C1304 H1328 0.950 . S
C1305 C1322 1.574 . S
C1305 C1324 1.368 . S
C1305 H1329 0.949 . S
H1306 C1310 0.949 1_554 S
C1307 C1308 1.349 1_556 S
C1307 C1309 1.327 . S
C1307 H1330 0.950 . S
C1308 C1307 1.349 1_554 S
C1308 C1320 1.349 . S
C1309 C1307 1.327 . S
C1309 C1325 1.429 . S
C1309 H1331 0.950 . S
C1310 H1306 0.949 1_556 S
C1310 C1318 1.574 . S
C1310 C1326 1.368 . S
H1311 C1319 0.950 . S
H1312 C1317 0.950 . S
H1313 C1318 0.949 . S
H1314 C1320 0.950 . S
H1315 C1321 0.950 . S
H1316 C1322 0.949 . S
C1317 H1312 0.950 . S
C1317 C1319 1.327 . S
C1317 C1323 1.429 . S
C1318 C1310 1.574 . S
C1318 H1313 0.949 . S
C1318 C1324 1.368 . S
C1319 C1303 1.349 . S
C1319 H1311 0.950 . S
C1319 C1317 1.327 . S
C1320 C1308 1.349 . S
C1320 H1314 0.950 . S
C1320 C1321 1.327 . S
C1321 H1315 0.950 . S
C1321 C1320 1.327 . S
C1321 C1325 1.429 1_554 S
C1322 C1305 1.574 . S
C1322 H1316 0.949 . S
C1322 C1326 1.368 . S
C1323 C1304 1.429 . S
C1323 C1317 1.429 . S
C1323 C1324 1.523 . S
C1324 C1305 1.368 . S
C1324 C1318 1.368 . S
C1324 C1323 1.523 . S
C1325 C1309 1.429 . S
C1325 C1321 1.429 1_556 S
C1325 C1326 1.523 . S
C1326 C1310 1.368 . S
C1326 C1322 1.368 . S
C1326 C1325 1.523 . S
H1327 C1302 0.950 . S
H1328 C1304 0.950 . S
H1329 C1305 0.949 . S
H1330 C1307 0.950 . S
H1331 C1309 0.950 . S
C1332 C1333 1.349 . S
C1332 C1334 1.327 . S
C1332 H1357 0.950 . S
C1333 C1332 1.349 . S
C1333 C1349 1.349 . S
C1334 C1332 1.327 . S
C1334 C1353 1.429 . S
C1334 H1358 0.950 . S
C1335 C1352 1.574 . S
C1335 C1354 1.368 . S
C1335 H1359 0.949 . S
H1336 C1340 0.949 . S
C1337 C1338 1.349 . S
C1337 C1339 1.327 . S
C1337 H1360 0.950 . S
C1338 C1337 1.349 . S
C1338 C1350 1.349 . S
C1339 C1337 1.327 . S
C1339 C1355 1.429 . S
C1339 H1361 0.950 . S
C1340 H1336 0.949 . S
C1340 C1348 1.574 . S
C1340 C1356 1.368 . S
H1341 C1349 0.950 . S
H1342 C1347 0.950 . S
H1343 C1348 0.949 . S
H1344 C1350 0.950 . S
H1345 C1351 0.950 . S
H1346 C1352 0.949 . S
C1347 H1342 0.950 . S
C1347 C1349 1.327 . S
C1347 C1353 1.429 . S
C1348 C1340 1.574 . S
C1348 H1343 0.949 . S
C1348 C1354 1.368 . S
C1349 C1333 1.349 . S
C1349 H1341 0.950 . S
C1349 C1347 1.327 . S
C1350 C1338 1.349 . S
C1350 H1344 0.950 . S
C1350 C1351 1.327 . S
C1351 H1345 0.950 . S
C1351 C1350 1.327 . S
C1351 C1355 1.429 . S
C1352 C1335 1.574 . S
C1352 H1346 0.949 . S
C1352 C1356 1.368 . S
C1353 C1334 1.429 . S
C1353 C1347 1.429 . S
C1353 C1354 1.523 . S
C1354 C1335 1.368 . S
C1354 C1348 1.368 . S
C1354 C1353 1.523 . S
C1355 C1339 1.429 . S
C1355 C1351 1.429 . S
C1355 C1356 1.523 . S
C1356 C1340 1.368 . S
C1356 C1352 1.368 . S
C1356 C1355 1.523 . S
H1357 C1332 0.950 . S
H1358 C1334 0.950 . S
H1359 C1335 0.949 . S
H1360 C1337 0.950 . S
H1361 C1339 0.950 . S
C1362 C1363 1.349 . S
C1362 C1364 1.327 . S
C1362 H1387 0.950 . S
C1363 C1362 1.349 . S
C1363 C1379 1.349 . S
C1364 C1362 1.327 . S
C1364 C1383 1.429 . S
C1364 H1388 0.950 . S
C1365 C1382 1.574 . S
C1365 C1384 1.368 . S
C1365 H1389 0.949 . S
H1366 C1370 0.949 . S
C1367 C1368 1.349 . S
C1367 C1369 1.327 . S
C1367 H1390 0.950 . S
C1368 C1367 1.349 . S
C1368 C1380 1.349 . S
C1369 C1367 1.327 . S
C1369 C1385 1.429 . S
C1369 H1391 0.950 . S
C1370 H1366 0.949 . S
C1370 C1378 1.574 . S
C1370 C1386 1.368 . S
H1371 C1379 0.950 . S
H1372 C1377 0.950 . S
H1373 C1378 0.949 . S
H1374 C1380 0.950 . S
H1375 C1381 0.950 . S
H1376 C1382 0.949 . S
C1377 H1372 0.950 . S
C1377 C1379 1.327 . S
C1377 C1383 1.429 . S
C1378 C1370 1.574 . S
C1378 H1373 0.949 . S
C1378 C1384 1.368 . S
C1379 C1363 1.349 . S
C1379 H1371 0.950 . S
C1379 C1377 1.327 . S
C1380 C1368 1.349 . S
C1380 H1374 0.950 . S
C1380 C1381 1.327 . S
C1381 H1375 0.950 . S
C1381 C1380 1.327 . S
C1381 C1385 1.429 . S
C1382 C1365 1.574 . S
C1382 H1376 0.949 . S
C1382 C1386 1.368 . S
C1383 C1364 1.429 . S
C1383 C1377 1.429 . S
C1383 C1384 1.523 . S
C1384 C1365 1.368 . S
C1384 C1378 1.368 . S
C1384 C1383 1.523 . S
C1385 C1369 1.429 . S
C1385 C1381 1.429 . S
C1385 C1386 1.523 . S
C1386 C1370 1.368 . S
C1386 C1382 1.368 . S
C1386 C1385 1.523 . S
H1387 C1362 0.950 . S
H1388 C1364 0.950 . S
H1389 C1365 0.949 . S
H1390 C1367 0.950 . S
H1391 C1369 0.950 . S
C1392 C1393 1.349 . S
C1392 C1394 1.327 . S
C1392 H1417 0.950 . S
C1393 C1392 1.349 . S
C1393 C1409 1.349 . S
C1394 C1392 1.327 . S
C1394 C1413 1.429 . S
C1394 H1418 0.950 . S
C1395 C1412 1.574 . S
C1395 C1414 1.368 . S
C1395 H1419 0.949 . S
H1396 C1400 0.949 . S
C1397 C1398 1.349 . S
C1397 C1399 1.327 . S
C1397 H1420 0.950 . S
C1398 C1397 1.349 . S
C1398 C1410 1.349 . S
C1399 C1397 1.327 . S
C1399 C1415 1.429 . S
C1399 H1421 0.950 . S
C1400 H1396 0.949 . S
C1400 C1408 1.574 . S
C1400 C1416 1.368 . S
H1401 C1409 0.950 . S
H1402 C1407 0.950 . S
H1403 C1408 0.949 . S
H1404 C1410 0.950 . S
H1405 C1411 0.950 . S
H1406 C1412 0.949 . S
C1407 H1402 0.950 . S
C1407 C1409 1.327 . S
C1407 C1413 1.429 . S
C1408 C1400 1.574 . S
C1408 H1403 0.949 . S
C1408 C1414 1.368 . S
C1409 C1393 1.349 . S
C1409 H1401 0.950 . S
C1409 C1407 1.327 . S
C1410 C1398 1.349 . S
C1410 H1404 0.950 . S
C1410 C1411 1.327 . S
C1411 H1405 0.950 . S
C1411 C1410 1.327 . S
C1411 C1415 1.429 . S
C1412 C1395 1.574 . S
C1412 H1406 0.949 . S
C1412 C1416 1.368 . S
C1413 C1394 1.429 . S
C1413 C1407 1.429 . S
C1413 C1414 1.523 . S
C1414 C1395 1.368 . S
C1414 C1408 1.368 . S
C1414 C1413 1.523 . S
C1415 C1399 1.429 . S
C1415 C1411 1.429 . S
C1415 C1416 1.523 . S
C1416 C1400 1.368 . S
C1416 C1412 1.368 . S
C1416 C1415 1.523 . S
H1417 C1392 0.950 . S
H1418 C1394 0.950 . S
H1419 C1395 0.949 . S
H1420 C1397 0.950 . S
H1421 C1399 0.950 . S
C1422 C1423 1.349 . S
C1422 C1424 1.327 . S
C1422 H1447 0.950 . S
C1423 C1422 1.349 . S
C1423 C1439 1.349 . S
C1424 C1422 1.327 . S
C1424 C1443 1.429 . S
C1424 H1448 0.950 . S
C1425 C1442 1.574 . S
C1425 C1444 1.368 . S
C1425 H1449 0.949 . S
H1426 C1430 0.949 . S
C1427 C1428 1.349 . S
C1427 C1429 1.327 . S
C1427 H1450 0.950 . S
C1428 C1427 1.349 . S
C1428 C1440 1.349 . S
C1429 C1427 1.327 . S
C1429 C1445 1.429 . S
C1429 H1451 0.950 . S
C1430 H1426 0.949 . S
C1430 C1438 1.574 . S
C1430 C1446 1.368 . S
H1431 C1439 0.950 . S
H1432 C1437 0.950 . S
H1433 C1438 0.949 . S
H1434 C1440 0.950 . S
H1435 C1441 0.950 . S
H1436 C1442 0.949 . S
C1437 H1432 0.950 . S
C1437 C1439 1.327 . S
C1437 C1443 1.429 . S
C1438 C1430 1.574 . S
C1438 H1433 0.949 . S
C1438 C1444 1.368 . S
C1439 C1423 1.349 . S
C1439 H1431 0.950 . S
C1439 C1437 1.327 . S
C1440 C1428 1.349 . S
C1440 H1434 0.950 . S
C1440 C1441 1.327 . S
C1441 H1435 0.950 . S
C1441 C1440 1.327 . S
C1441 C1445 1.429 . S
C1442 C1425 1.574 . S
C1442 H1436 0.949 . S
C1442 C1446 1.368 . S
C1443 C1424 1.429 . S
C1443 C1437 1.429 . S
C1443 C1444 1.523 . S
C1444 C1425 1.368 . S
C1444 C1438 1.368 . S
C1444 C1443 1.523 . S
C1445 C1429 1.429 . S
C1445 C1441 1.429 . S
C1445 C1446 1.523 . S
C1446 C1430 1.368 . S
C1446 C1442 1.368 . S
C1446 C1445 1.523 . S
H1447 C1422 0.950 . S
H1448 C1424 0.950 . S
H1449 C1425 0.949 . S
H1450 C1427 0.950 . S
H1451 C1429 0.950 . S
C1452 C1453 1.349 . S
C1452 C1454 1.327 . S
C1452 H1477 0.950 . S
C1453 C1452 1.349 . S
C1453 C1469 1.349 . S
C1454 C1452 1.327 . S
C1454 C1473 1.429 . S
C1454 H1478 0.950 . S
C1455 C1472 1.574 . S
C1455 C1474 1.368 . S
C1455 H1479 0.949 . S
H1456 C1460 0.949 . S
C1457 C1458 1.349 . S
C1457 C1459 1.327 . S
C1457 H1480 0.950 . S
C1458 C1457 1.349 . S
C1458 C1470 1.349 1_554 S
C1459 C1457 1.327 . S
C1459 C1475 1.429 1_554 S
C1459 H1481 0.950 . S
C1460 H1456 0.949 . S
C1460 C1468 1.574 . S
C1460 C1476 1.368 . S
H1461 C1469 0.950 . S
H1462 C1467 0.950 . S
H1463 C1468 0.949 . S
H1464 C1470 0.950 . S
H1465 C1471 0.950 . S
H1466 C1472 0.949 1_554 S
C1467 H1462 0.950 . S
C1467 C1469 1.327 . S
C1467 C1473 1.429 . S
C1468 C1460 1.574 . S
C1468 H1463 0.949 . S
C1468 C1474 1.368 . S
C1469 C1453 1.349 . S
C1469 H1461 0.950 . S
C1469 C1467 1.327 . S
C1470 C1458 1.349 1_556 S
C1470 H1464 0.950 . S
C1470 C1471 1.327 . S
C1471 H1465 0.950 . S
C1471 C1470 1.327 . S
C1471 C1475 1.429 . S
C1472 C1455 1.574 . S
C1472 H1466 0.949 1_556 S
C1472 C1476 1.368 . S
C1473 C1454 1.429 . S
C1473 C1467 1.429 . S
C1473 C1474 1.523 . S
C1474 C1455 1.368 . S
C1474 C1468 1.368 . S
C1474 C1473 1.523 . S
C1475 C1459 1.429 1_556 S
C1475 C1471 1.429 . S
C1475 C1476 1.523 . S
C1476 C1460 1.368 . S
C1476 C1472 1.368 . S
C1476 C1475 1.523 . S
H1477 C1452 0.950 . S
H1478 C1454 0.950 . S
H1479 C1455 0.949 . S
H1480 C1457 0.950 . S
H1481 C1459 0.950 . S
C1482 C1483 1.349 . S
C1482 C1484 1.327 . S
C1482 H1507 0.950 . S
C1483 C1482 1.349 . S
C1483 C1499 1.349 . S
C1484 C1482 1.327 . S
C1484 C1503 1.429 . S
C1484 H1508 0.950 . S
C1485 C1502 1.574 . S
C1485 C1504 1.368 . S
C1485 H1509 0.949 . S
H1486 C1490 0.949 . S
C1487 C1488 1.349 . S
C1487 C1489 1.327 . S
C1487 H1510 0.950 . S
C1488 C1487 1.349 . S
C1488 C1500 1.349 . S
C1489 C1487 1.327 . S
C1489 C1505 1.429 . S
C1489 H1511 0.950 . S
C1490 H1486 0.949 . S
C1490 C1498 1.574 . S
C1490 C1506 1.368 . S
H1491 C1499 0.950 . S
H1492 C1497 0.950 . S
H1493 C1498 0.949 . S
H1494 C1500 0.950 . S
H1495 C1501 0.950 . S
H1496 C1502 0.949 . S
C1497 H1492 0.950 . S
C1497 C1499 1.327 . S
C1497 C1503 1.429 . S
C1498 C1490 1.574 . S
C1498 H1493 0.949 . S
C1498 C1504 1.368 . S
C1499 C1483 1.349 . S
C1499 H1491 0.950 . S
C1499 C1497 1.327 . S
C1500 C1488 1.349 . S
C1500 H1494 0.950 . S
C1500 C1501 1.327 . S
C1501 H1495 0.950 . S
C1501 C1500 1.327 . S
C1501 C1505 1.429 . S
C1502 C1485 1.574 . S
C1502 H1496 0.949 . S
C1502 C1506 1.368 . S
C1503 C1484 1.429 . S
C1503 C1497 1.429 . S
C1503 C1504 1.523 . S
C1504 C1485 1.368 . S
C1504 C1498 1.368 . S
C1504 C1503 1.523 . S
C1505 C1489 1.429 . S
C1505 C1501 1.429 . S
C1505 C1506 1.523 . S
C1506 C1490 1.368 . S
C1506 C1502 1.368 . S
C1506 C1505 1.523 . S
H1507 C1482 0.950 . S
H1508 C1484 0.950 . S
H1509 C1485 0.949 . S
H1510 C1487 0.950 . S
H1511 C1489 0.950 . S
C1512 C1513 1.349 . S
C1512 C1514 1.327 . S
C1512 H1537 0.950 . S
C1513 C1512 1.349 . S
C1513 C1529 1.349 . S
C1514 C1512 1.327 . S
C1514 C1533 1.429 . S
C1514 H1538 0.950 . S
C1515 C1532 1.574 . S
C1515 C1534 1.368 . S
C1515 H1539 0.949 . S
H1516 C1520 0.949 . S
C1517 C1518 1.349 . S
C1517 C1519 1.327 . S
C1517 H1540 0.950 . S
C1518 C1517 1.349 . S
C1518 C1530 1.349 . S
C1519 C1517 1.327 . S
C1519 C1535 1.429 . S
C1519 H1541 0.950 . S
C1520 H1516 0.949 . S
C1520 C1528 1.574 . S
C1520 C1536 1.368 . S
H1521 C1529 0.950 . S
H1522 C1527 0.950 . S
H1523 C1528 0.949 . S
H1524 C1530 0.950 . S
H1525 C1531 0.950 . S
H1526 C1532 0.949 . S
C1527 H1522 0.950 . S
C1527 C1529 1.327 . S
C1527 C1533 1.429 . S
C1528 C1520 1.574 . S
C1528 H1523 0.949 . S
C1528 C1534 1.368 . S
C1529 C1513 1.349 . S
C1529 H1521 0.950 . S
C1529 C1527 1.327 . S
C1530 C1518 1.349 . S
C1530 H1524 0.950 . S
C1530 C1531 1.327 . S
C1531 H1525 0.950 . S
C1531 C1530 1.327 . S
C1531 C1535 1.429 . S
C1532 C1515 1.574 . S
C1532 H1526 0.949 . S
C1532 C1536 1.368 . S
C1533 C1514 1.429 . S
C1533 C1527 1.429 . S
C1533 C1534 1.523 . S
C1534 C1515 1.368 . S
C1534 C1528 1.368 . S
C1534 C1533 1.523 . S
C1535 C1519 1.429 . S
C1535 C1531 1.429 . S
C1535 C1536 1.523 . S
C1536 C1520 1.368 . S
C1536 C1532 1.368 . S
C1536 C1535 1.523 . S
H1537 C1512 0.950 . S
H1538 C1514 0.950 . S
H1539 C1515 0.949 . S
H1540 C1517 0.950 . S
H1541 C1519 0.950 . S
C1542 C1543 1.349 . S
C1542 C1544 1.327 . S
C1542 H1567 0.950 . S
C1543 C1542 1.349 . S
C1543 C1559 1.349 . S
C1544 C1542 1.327 . S
C1544 C1563 1.429 . S
C1544 H1568 0.950 . S
C1545 C1562 1.574 . S
C1545 C1564 1.368 . S
C1545 H1569 0.949 . S
H1546 C1550 0.949 . S
C1547 C1548 1.349 . S
C1547 C1549 1.327 . S
C1547 H1570 0.950 . S
C1548 C1547 1.349 . S
C1548 C1560 1.349 . S
C1549 C1547 1.327 . S
C1549 C1565 1.429 . S
C1549 H1571 0.950 . S
C1550 H1546 0.949 . S
C1550 C1558 1.574 . S
C1550 C1566 1.368 . S
H1551 C1559 0.950 . S
H1552 C1557 0.950 . S
H1553 C1558 0.949 . S
H1554 C1560 0.950 . S
H1555 C1561 0.950 . S
H1556 C1562 0.949 . S
C1557 H1552 0.950 . S
C1557 C1559 1.327 . S
C1557 C1563 1.429 . S
C1558 C1550 1.574 . S
C1558 H1553 0.949 . S
C1558 C1564 1.368 . S
C1559 C1543 1.349 . S
C1559 H1551 0.950 . S
C1559 C1557 1.327 . S
C1560 C1548 1.349 . S
C1560 H1554 0.950 . S
C1560 C1561 1.327 . S
C1561 H1555 0.950 . S
C1561 C1560 1.327 . S
C1561 C1565 1.429 . S
C1562 C1545 1.574 . S
C1562 H1556 0.949 . S
C1562 C1566 1.368 . S
C1563 C1544 1.429 . S
C1563 C1557 1.429 . S
C1563 C1564 1.523 . S
C1564 C1545 1.368 . S
C1564 C1558 1.368 . S
C1564 C1563 1.523 . S
C1565 C1549 1.429 . S
C1565 C1561 1.429 . S
C1565 C1566 1.523 . S
C1566 C1550 1.368 . S
C1566 C1562 1.368 . S
C1566 C1565 1.523 . S
H1567 C1542 0.950 . S
H1568 C1544 0.950 . S
H1569 C1545 0.949 . S
H1570 C1547 0.950 . S
H1571 C1549 0.950 . S
C1572 C1573 1.349 . S
C1572 C1574 1.327 . S
C1572 H1597 0.950 . S
C1573 C1572 1.349 . S
C1573 C1589 1.349 . S
C1574 C1572 1.327 . S
C1574 C1593 1.429 . S
C1574 H1598 0.950 . S
C1575 C1592 1.574 . S
C1575 C1594 1.368 . S
C1575 H1599 0.949 . S
H1576 C1580 0.949 . S
C1577 C1578 1.349 . S
C1577 C1579 1.327 . S
C1577 H1600 0.950 . S
C1578 C1577 1.349 . S
C1578 C1590 1.349 . S
C1579 C1577 1.327 . S
C1579 C1595 1.429 . S
C1579 H1601 0.950 . S
C1580 H1576 0.949 . S
C1580 C1588 1.574 . S
C1580 C1596 1.368 . S
H1581 C1589 0.950 . S
H1582 C1587 0.950 . S
H1583 C1588 0.949 . S
H1584 C1590 0.950 . S
H1585 C1591 0.950 . S
H1586 C1592 0.949 . S
C1587 H1582 0.950 . S
C1587 C1589 1.327 . S
C1587 C1593 1.429 . S
C1588 C1580 1.574 . S
C1588 H1583 0.949 . S
C1588 C1594 1.368 . S
C1589 C1573 1.349 . S
C1589 H1581 0.950 . S
C1589 C1587 1.327 . S
C1590 C1578 1.349 . S
C1590 H1584 0.950 . S
C1590 C1591 1.327 . S
C1591 H1585 0.950 . S
C1591 C1590 1.327 . S
C1591 C1595 1.429 . S
C1592 C1575 1.574 . S
C1592 H1586 0.949 . S
C1592 C1596 1.368 . S
C1593 C1574 1.429 . S
C1593 C1587 1.429 . S
C1593 C1594 1.523 . S
C1594 C1575 1.368 . S
C1594 C1588 1.368 . S
C1594 C1593 1.523 . S
C1595 C1579 1.429 . S
C1595 C1591 1.429 . S
C1595 C1596 1.523 . S
C1596 C1580 1.368 . S
C1596 C1592 1.368 . S
C1596 C1595 1.523 . S
H1597 C1572 0.950 . S
H1598 C1574 0.950 . S
H1599 C1575 0.949 . S
H1600 C1577 0.950 . S
H1601 C1579 0.950 . S
C1602 C1603 1.349 . S
C1602 C1604 1.327 . S
C1602 H1627 0.950 . S
C1603 C1602 1.349 . S
C1603 C1619 1.349 . S
C1604 C1602 1.327 . S
C1604 C1623 1.429 . S
C1604 H1628 0.950 . S
C1605 C1622 1.574 . S
C1605 C1624 1.368 . S
C1605 H1629 0.949 . S
H1606 C1610 0.949 . S
C1607 C1608 1.349 . S
C1607 C1609 1.327 . S
C1607 H1630 0.950 . S
C1608 C1607 1.349 . S
C1608 C1620 1.349 1_554 S
C1609 C1607 1.327 . S
C1609 C1625 1.429 1_554 S
C1609 H1631 0.950 . S
C1610 H1606 0.949 . S
C1610 C1618 1.574 . S
C1610 C1626 1.368 . S
H1611 C1619 0.950 . S
H1612 C1617 0.950 . S
H1613 C1618 0.949 . S
H1614 C1620 0.950 . S
H1615 C1621 0.950 . S
H1616 C1622 0.949 1_554 S
C1617 H1612 0.950 . S
C1617 C1619 1.327 . S
C1617 C1623 1.429 . S
C1618 C1610 1.574 . S
C1618 H1613 0.949 . S
C1618 C1624 1.368 . S
C1619 C1603 1.349 . S
C1619 H1611 0.950 . S
C1619 C1617 1.327 . S
C1620 C1608 1.349 1_556 S
C1620 H1614 0.950 . S
C1620 C1621 1.327 . S
C1621 H1615 0.950 . S
C1621 C1620 1.327 . S
C1621 C1625 1.429 . S
C1622 C1605 1.574 . S
C1622 H1616 0.949 1_556 S
C1622 C1626 1.368 . S
C1623 C1604 1.429 . S
C1623 C1617 1.429 . S
C1623 C1624 1.523 . S
C1624 C1605 1.368 . S
C1624 C1618 1.368 . S
C1624 C1623 1.523 . S
C1625 C1609 1.429 1_556 S
C1625 C1621 1.429 . S
C1625 C1626 1.523 . S
C1626 C1610 1.368 . S
C1626 C1622 1.368 . S
C1626 C1625 1.523 . S
H1627 C1602 0.950 . S
H1628 C1604 0.950 . S
H1629 C1605 0.949 . S
H1630 C1607 0.950 . S
H1631 C1609 0.950 . S
C1632 C1633 1.349 . S
C1632 C1634 1.327 . S
C1632 H1657 0.950 . S
C1633 C1632 1.349 . S
C1633 C1649 1.349 . S
C1634 C1632 1.327 . S
C1634 C1653 1.429 . S
C1634 H1658 0.950 . S
C1635 C1652 1.574 . S
C1635 C1654 1.368 . S
C1635 H1659 0.949 . S
H1636 C1640 0.949 . S
C1637 C1638 1.349 . S
C1637 C1639 1.327 . S
C1637 H1660 0.950 . S
C1638 C1637 1.349 . S
C1638 C1650 1.349 . S
C1639 C1637 1.327 . S
C1639 C1655 1.429 . S
C1639 H1661 0.950 . S
C1640 H1636 0.949 . S
C1640 C1648 1.574 . S
C1640 C1656 1.368 . S
H1641 C1649 0.950 . S
H1642 C1647 0.950 . S
H1643 C1648 0.949 . S
H1644 C1650 0.950 . S
H1645 C1651 0.950 . S
H1646 C1652 0.949 . S
C1647 H1642 0.950 . S
C1647 C1649 1.327 . S
C1647 C1653 1.429 . S
C1648 C1640 1.574 . S
C1648 H1643 0.949 . S
C1648 C1654 1.368 . S
C1649 C1633 1.349 . S
C1649 H1641 0.950 . S
C1649 C1647 1.327 . S
C1650 C1638 1.349 . S
C1650 H1644 0.950 . S
C1650 C1651 1.327 . S
C1651 H1645 0.950 . S
C1651 C1650 1.327 . S
C1651 C1655 1.429 . S
C1652 C1635 1.574 . S
C1652 H1646 0.949 . S
C1652 C1656 1.368 . S
C1653 C1634 1.429 . S
C1653 C1647 1.429 . S
C1653 C1654 1.523 . S
C1654 C1635 1.368 . S
C1654 C1648 1.368 . S
C1654 C1653 1.523 . S
C1655 C1639 1.429 . S
C1655 C1651 1.429 . S
C1655 C1656 1.523 . S
C1656 C1640 1.368 . S
C1656 C1652 1.368 . S
C1656 C1655 1.523 . S
H1657 C1632 0.950 . S
H1658 C1634 0.950 . S
H1659 C1635 0.949 . S
H1660 C1637 0.950 . S
H1661 C1639 0.950 . S
C1662 C1663 1.349 . S
C1662 C1664 1.327 . S
C1662 H1687 0.950 . S
C1663 C1662 1.349 . S
C1663 C1679 1.349 . S
C1664 C1662 1.327 . S
C1664 C1683 1.429 . S
C1664 H1688 0.950 . S
C1665 C1682 1.574 . S
C1665 C1684 1.368 1_545 S
C1665 H1689 0.949 . S
H1666 C1670 0.949 . S
C1667 C1668 1.349 . S
C1667 C1669 1.327 . S
C1667 H1690 0.950 . S
C1668 C1667 1.349 . S
C1668 C1680 1.349 . S
C1669 C1667 1.327 . S
C1669 C1685 1.429 . S
C1669 H1691 0.950 1_556 S
C1670 H1666 0.949 . S
C1670 C1678 1.574 . S
C1670 C1686 1.368 1_565 S
H1671 C1679 0.950 . S
H1672 C1677 0.950 1_545 S
H1673 C1678 0.949 . S
H1674 C1680 0.950 . S
H1675 C1681 0.950 1_565 S
H1676 C1682 0.949 . S
C1677 H1672 0.950 1_565 S
C1677 C1679 1.327 . S
C1677 C1683 1.429 . S
C1678 C1670 1.574 . S
C1678 H1673 0.949 . S
C1678 C1684 1.368 . S
C1679 C1663 1.349 . S
C1679 H1671 0.950 . S
C1679 C1677 1.327 . S
C1680 C1668 1.349 . S
C1680 H1674 0.950 . S
C1680 C1681 1.327 . S
C1681 H1675 0.950 1_545 S
C1681 C1680 1.327 . S
C1681 C1685 1.429 . S
C1682 C1665 1.574 . S
C1682 H1676 0.949 . S
C1682 C1686 1.368 . S
C1683 C1664 1.429 . S
C1683 C1677 1.429 . S
C1683 C1684 1.523 . S
C1684 C1665 1.368 1_565 S
C1684 C1678 1.368 . S
C1684 C1683 1.523 . S
C1685 C1669 1.429 . S
C1685 C1681 1.429 . S
C1685 C1686 1.523 1_556 S
C1686 C1670 1.368 1_545 S
C1686 C1682 1.368 . S
C1686 C1685 1.523 1_554 S
H1687 C1662 0.950 . S
H1688 C1664 0.950 . S
H1689 C1665 0.949 . S
H1690 C1667 0.950 . S
H1691 C1669 0.950 1_554 S
C1692 C1693 1.349 . S
C1692 C1694 1.327 . S
C1692 H1717 0.950 . S
C1693 C1692 1.349 . S
C1693 C1709 1.349 . S
C1694 C1692 1.327 . S
C1694 C1713 1.429 . S
C1694 H1718 0.950 . S
C1695 C1712 1.574 . S
C1695 C1714 1.368 . S
C1695 H1719 0.949 . S
H1696 C1700 0.949 . S
C1697 C1698 1.349 . S
C1697 C1699 1.327 . S
C1697 H1720 0.950 . S
C1698 C1697 1.349 . S
C1698 C1710 1.349 . S
C1699 C1697 1.327 . S
C1699 C1715 1.429 . S
C1699 H1721 0.950 . S
C1700 H1696 0.949 . S
C1700 C1708 1.574 . S
C1700 C1716 1.368 . S
H1701 C1709 0.950 . S
H1702 C1707 0.950 . S
H1703 C1708 0.949 . S
H1704 C1710 0.950 . S
H1705 C1711 0.950 . S
H1706 C1712 0.949 . S
C1707 H1702 0.950 . S
C1707 C1709 1.327 . S
C1707 C1713 1.429 . S
C1708 C1700 1.574 . S
C1708 H1703 0.949 . S
C1708 C1714 1.368 . S
C1709 C1693 1.349 . S
C1709 H1701 0.950 . S
C1709 C1707 1.327 . S
C1710 C1698 1.349 . S
C1710 H1704 0.950 . S
C1710 C1711 1.327 . S
C1711 H1705 0.950 . S
C1711 C1710 1.327 . S
C1711 C1715 1.429 . S
C1712 C1695 1.574 . S
C1712 H1706 0.949 . S
C1712 C1716 1.368 . S
C1713 C1694 1.429 . S
C1713 C1707 1.429 . S
C1713 C1714 1.523 . S
C1714 C1695 1.368 . S
C1714 C1708 1.368 . S
C1714 C1713 1.523 . S
C1715 C1699 1.429 . S
C1715 C1711 1.429 . S
C1715 C1716 1.523 . S
C1716 C1700 1.368 . S
C1716 C1712 1.368 . S
C1716 C1715 1.523 . S
H1717 C1692 0.950 . S
H1718 C1694 0.950 . S
H1719 C1695 0.949 . S
H1720 C1697 0.950 . S
H1721 C1699 0.950 . S
C1722 C1723 1.349 . S
C1722 C1724 1.327 . S
C1722 H1747 0.950 . S
C1723 C1722 1.349 . S
C1723 C1739 1.349 . S
C1724 C1722 1.327 . S
C1724 C1743 1.429 . S
C1724 H1748 0.950 . S
C1725 C1742 1.574 . S
C1725 C1744 1.368 1_565 S
C1725 H1749 0.949 . S
H1726 C1730 0.949 . S
C1727 C1728 1.349 . S
C1727 C1729 1.327 . S
C1727 H1750 0.950 . S
C1728 C1727 1.349 . S
C1728 C1740 1.349 . S
C1729 C1727 1.327 . S
C1729 C1745 1.429 . S
C1729 H1751 0.950 . S
C1730 H1726 0.949 . S
C1730 C1738 1.574 . S
C1730 C1746 1.368 1_545 S
H1731 C1739 0.950 . S
H1732 C1737 0.950 1_565 S
H1733 C1738 0.949 . S
H1734 C1740 0.950 . S
H1735 C1741 0.950 1_545 S
H1736 C1742 0.949 . S
C1737 H1732 0.950 1_545 S
C1737 C1739 1.327 . S
C1737 C1743 1.429 . S
C1738 C1730 1.574 . S
C1738 H1733 0.949 . S
C1738 C1744 1.368 . S
C1739 C1723 1.349 . S
C1739 H1731 0.950 . S
C1739 C1737 1.327 . S
C1740 C1728 1.349 . S
C1740 H1734 0.950 . S
C1740 C1741 1.327 . S
C1741 H1735 0.950 1_565 S
C1741 C1740 1.327 . S
C1741 C1745 1.429 . S
C1742 C1725 1.574 . S
C1742 H1736 0.949 . S
C1742 C1746 1.368 . S
C1743 C1724 1.429 . S
C1743 C1737 1.429 . S
C1743 C1744 1.523 . S
C1744 C1725 1.368 1_545 S
C1744 C1738 1.368 . S
C1744 C1743 1.523 . S
C1745 C1729 1.429 . S
C1745 C1741 1.429 . S
C1745 C1746 1.523 . S
C1746 C1730 1.368 1_565 S
C1746 C1742 1.368 . S
C1746 C1745 1.523 . S
H1747 C1722 0.950 . S
H1748 C1724 0.950 . S
H1749 C1725 0.949 . S
H1750 C1727 0.950 . S
H1751 C1729 0.950 . S
C1752 C1753 1.349 . S
C1752 C1754 1.327 . S
C1752 H1777 0.950 . S
C1753 C1752 1.349 . S
C1753 C1769 1.349 . S
C1754 C1752 1.327 . S
C1754 C1773 1.429 . S
C1754 H1778 0.950 . S
C1755 C1772 1.574 . S
C1755 C1774 1.368 . S
C1755 H1779 0.949 . S
H1756 C1760 0.949 . S
C1757 C1758 1.349 . S
C1757 C1759 1.327 . S
C1757 H1780 0.950 . S
C1758 C1757 1.349 . S
C1758 C1770 1.349 . S
C1759 C1757 1.327 . S
C1759 C1775 1.429 . S
C1759 H1781 0.950 . S
C1760 H1756 0.949 . S
C1760 C1768 1.574 . S
C1760 C1776 1.368 . S
H1761 C1769 0.950 . S
H1762 C1767 0.950 . S
H1763 C1768 0.949 . S
H1764 C1770 0.950 . S
H1765 C1771 0.950 . S
H1766 C1772 0.949 . S
C1767 H1762 0.950 . S
C1767 C1769 1.327 . S
C1767 C1773 1.429 . S
C1768 C1760 1.574 . S
C1768 H1763 0.949 . S
C1768 C1774 1.368 . S
C1769 C1753 1.349 . S
C1769 H1761 0.950 . S
C1769 C1767 1.327 . S
C1770 C1758 1.349 . S
C1770 H1764 0.950 . S
C1770 C1771 1.327 . S
C1771 H1765 0.950 . S
C1771 C1770 1.327 . S
C1771 C1775 1.429 . S
C1772 C1755 1.574 . S
C1772 H1766 0.949 . S
C1772 C1776 1.368 . S
C1773 C1754 1.429 . S
C1773 C1767 1.429 . S
C1773 C1774 1.523 . S
C1774 C1755 1.368 . S
C1774 C1768 1.368 . S
C1774 C1773 1.523 . S
C1775 C1759 1.429 . S
C1775 C1771 1.429 . S
C1775 C1776 1.523 . S
C1776 C1760 1.368 . S
C1776 C1772 1.368 . S
C1776 C1775 1.523 . S
H1777 C1752 0.950 . S
H1778 C1754 0.950 . S
H1779 C1755 0.949 . S
H1780 C1757 0.950 . S
H1781 C1759 0.950 . S
C1782 C1783 1.349 . S
C1782 C1784 1.327 . S
C1782 H1807 0.950 . S
C1783 C1782 1.349 . S
C1783 C1799 1.349 . S
C1784 C1782 1.327 . S
C1784 C1803 1.429 . S
C1784 H1808 0.950 1_556 S
C1785 C1802 1.574 . S
C1785 C1804 1.368 1_565 S
C1785 H1809 0.949 . S
H1786 C1790 0.949 . S
C1787 C1788 1.349 . S
C1787 C1789 1.327 . S
C1787 H1810 0.950 . S
C1788 C1787 1.349 . S
C1788 C1800 1.349 . S
C1789 C1787 1.327 . S
C1789 C1805 1.429 . S
C1789 H1811 0.950 . S
C1790 H1786 0.949 . S
C1790 C1798 1.574 . S
C1790 C1806 1.368 1_545 S
H1791 C1799 0.950 . S
H1792 C1797 0.967 . S
H1793 C1798 0.949 . S
H1794 C1800 0.950 . S
H1795 C1801 1.000 . S
H1796 C1802 0.949 . S
C1797 H1792 0.967 . S
C1797 C1799 1.327 . S
C1797 C1803 1.429 . S
C1798 C1790 1.574 . S
C1798 H1793 0.949 . S
C1798 C1804 1.368 . S
C1799 C1783 1.349 . S
C1799 H1791 0.950 . S
C1799 C1797 1.327 . S
C1800 C1788 1.349 . S
C1800 H1794 0.950 . S
C1800 C1801 1.327 . S
C1801 H1795 1.000 . S
C1801 C1800 1.327 . S
C1801 C1805 1.429 . S
C1802 C1785 1.574 . S
C1802 H1796 0.949 . S
C1802 C1806 1.368 . S
C1803 C1784 1.429 . S
C1803 C1797 1.429 . S
C1803 C1804 1.523 1_556 S
C1804 C1785 1.368 1_545 S
C1804 C1798 1.368 . S
C1804 C1803 1.523 1_554 S
C1805 C1789 1.429 . S
C1805 C1801 1.429 . S
C1805 C1806 1.523 . S
C1806 C1790 1.368 1_565 S
C1806 C1802 1.368 . S
C1806 C1805 1.523 . S
H1807 C1782 0.950 . S
H1808 C1784 0.950 1_554 S
H1809 C1785 0.949 . S
H1810 C1787 0.950 . S
H1811 C1789 0.950 . S
C1812 C1813 1.349 . S
C1812 C1814 1.327 . S
C1812 H1837 0.950 . S
C1813 C1812 1.349 . S
C1813 C1829 1.349 . S
C1814 C1812 1.327 . S
C1814 C1833 1.429 . S
C1814 H1838 0.950 . S
C1815 C1832 1.574 . S
C1815 C1834 1.368 . S
C1815 H1839 0.949 . S
H1816 C1820 0.949 . S
C1817 C1818 1.349 . S
C1817 C1819 1.327 . S
C1817 H1840 0.950 . S
C1818 C1817 1.349 . S
C1818 C1830 1.349 . S
C1819 C1817 1.327 . S
C1819 C1835 1.429 . S
C1819 H1841 0.950 . S
C1820 H1816 0.949 . S
C1820 C1828 1.574 . S
C1820 C1836 1.368 . S
H1821 C1829 0.950 . S
H1822 C1827 0.950 . S
H1823 C1828 0.949 . S
H1824 C1830 0.950 . S
H1825 C1831 0.950 . S
H1826 C1832 0.949 . S
C1827 H1822 0.950 . S
C1827 C1829 1.327 . S
C1827 C1833 1.429 . S
C1828 C1820 1.574 . S
C1828 H1823 0.949 . S
C1828 C1834 1.368 . S
C1829 C1813 1.349 . S
C1829 H1821 0.950 . S
C1829 C1827 1.327 . S
C1830 C1818 1.349 . S
C1830 H1824 0.950 . S
C1830 C1831 1.327 . S
C1831 H1825 0.950 . S
C1831 C1830 1.327 . S
C1831 C1835 1.429 . S
C1832 C1815 1.574 . S
C1832 H1826 0.949 . S
C1832 C1836 1.368 . S
C1833 C1814 1.429 . S
C1833 C1827 1.429 . S
C1833 C1834 1.523 . S
C1834 C1815 1.368 . S
C1834 C1828 1.368 . S
C1834 C1833 1.523 . S
C1835 C1819 1.429 . S
C1835 C1831 1.429 . S
C1835 C1836 1.523 . S
C1836 C1820 1.368 . S
C1836 C1832 1.368 . S
C1836 C1835 1.523 . S
H1837 C1812 0.950 . S
H1838 C1814 0.950 . S
H1839 C1815 0.949 . S
H1840 C1817 0.950 . S
H1841 C1819 0.950 . S
C1842 C1843 1.349 . S
C1842 C1844 1.327 . S
C1842 H1867 0.950 . S
C1843 C1842 1.349 . S
C1843 C1859 1.349 . S
C1844 C1842 1.327 . S
C1844 C1863 1.429 . S
C1844 H1868 0.950 . S
C1845 C1862 1.574 . S
C1845 C1864 1.368 1_565 S
C1845 H1869 0.949 . S
H1846 C1850 0.949 . S
C1847 C1848 1.349 . S
C1847 C1849 1.327 . S
C1847 H1870 0.950 . S
C1848 C1847 1.349 . S
C1848 C1860 1.349 . S
C1849 C1847 1.327 . S
C1849 C1865 1.429 . S
C1849 H1871 0.950 . S
C1850 H1846 0.949 . S
C1850 C1858 1.574 . S
C1850 C1866 1.368 1_545 S
H1851 C1859 0.950 . S
H1852 C1857 0.950 . S
H1853 C1858 0.949 . S
H1854 C1860 0.950 . S
H1855 C1861 0.950 . S
H1856 C1862 0.949 . S
C1857 H1852 0.950 . S
C1857 C1859 1.327 . S
C1857 C1863 1.429 . S
C1858 C1850 1.574 . S
C1858 H1853 0.949 . S
C1858 C1864 1.368 . S
C1859 C1843 1.349 . S
C1859 H1851 0.950 . S
C1859 C1857 1.327 . S
C1860 C1848 1.349 . S
C1860 H1854 0.950 . S
C1860 C1861 1.327 . S
C1861 H1855 0.950 . S
C1861 C1860 1.327 . S
C1861 C1865 1.429 . S
C1862 C1845 1.574 . S
C1862 H1856 0.949 . S
C1862 C1866 1.368 . S
C1863 C1844 1.429 . S
C1863 C1857 1.429 . S
C1863 C1864 1.523 . S
C1864 C1845 1.368 1_545 S
C1864 C1858 1.368 . S
C1864 C1863 1.523 . S
C1865 C1849 1.429 . S
C1865 C1861 1.429 . S
C1865 C1866 1.523 . S
C1866 C1850 1.368 1_565 S
C1866 C1862 1.368 . S
C1866 C1865 1.523 . S
H1867 C1842 0.950 . S
H1868 C1844 0.950 . S
H1869 C1845 0.949 . S
H1870 C1847 0.950 . S
H1871 C1849 0.950 . S
C1872 C1873 1.349 . S
C1872 C1874 1.327 . S
C1872 H1897 0.950 . S
C1873 C1872 1.349 . S
C1873 C1889 1.349 . S
C1874 C1872 1.327 . S
C1874 C1893 1.429 . S
C1874 H1898 0.950 . S
C1875 C1892 1.574 . S
C1875 C1894 1.368 . S
C1875 H1899 0.949 . S
H1876 C1880 0.949 . S
C1877 C1878 1.349 . S
C1877 C1879 1.327 . S
C1877 H1900 0.950 . S
C1878 C1877 1.349 . S
C1878 C1890 1.349 . S
C1879 C1877 1.327 . S
C1879 C1895 1.429 . S
C1879 H1901 0.950 . S
C1880 H1876 0.949 . S
C1880 C1888 1.574 . S
C1880 C1896 1.368 . S
H1881 C1889 0.950 . S
H1882 C1887 0.950 . S
H1883 C1888 0.949 . S
H1884 C1890 0.950 . S
H1885 C1891 0.950 . S
H1886 C1892 0.949 . S
C1887 H1882 0.950 . S
C1887 C1889 1.327 . S
C1887 C1893 1.429 . S
C1888 C1880 1.574 . S
C1888 H1883 0.949 . S
C1888 C1894 1.368 . S
C1889 C1873 1.349 . S
C1889 H1881 0.950 . S
C1889 C1887 1.327 . S
C1890 C1878 1.349 . S
C1890 H1884 0.950 . S
C1890 C1891 1.327 . S
C1891 H1885 0.950 . S
C1891 C1890 1.327 . S
C1891 C1895 1.429 . S
C1892 C1875 1.574 . S
C1892 H1886 0.949 . S
C1892 C1896 1.368 . S
C1893 C1874 1.429 . S
C1893 C1887 1.429 . S
C1893 C1894 1.523 . S
C1894 C1875 1.368 . S
C1894 C1888 1.368 . S
C1894 C1893 1.523 . S
C1895 C1879 1.429 . S
C1895 C1891 1.429 . S
C1895 C1896 1.523 . S
C1896 C1880 1.368 . S
C1896 C1892 1.368 . S
C1896 C1895 1.523 . S
H1897 C1872 0.950 . S
H1898 C1874 0.950 . S
H1899 C1875 0.949 . S
H1900 C1877 0.950 . S
H1901 C1879 0.950 . S
C1902 C1903 1.349 . S
C1902 C1904 1.327 . S
C1902 H1927 0.950 . S
C1903 C1902 1.349 . S
C1903 C1919 1.349 . S
C1904 C1902 1.327 . S
C1904 C1923 1.429 . S
C1904 H1928 0.950 . S
C1905 C1922 1.574 . S
C1905 C1924 1.368 . S
C1905 H1929 0.949 . S
H1906 C1910 0.949 . S
C1907 C1908 1.349 . S
C1907 C1909 1.327 . S
C1907 H1930 0.950 . S
C1908 C1907 1.349 . S
C1908 C1920 1.349 . S
C1909 C1907 1.327 . S
C1909 C1925 1.429 . S
C1909 H1931 0.950 . S
C1910 H1906 0.949 . S
C1910 C1918 1.574 . S
C1910 C1926 1.368 . S
H1911 C1919 0.950 . S
H1912 C1917 0.950 . S
H1913 C1918 0.949 . S
H1914 C1920 0.950 . S
H1915 C1921 0.950 . S
H1916 C1922 0.949 . S
C1917 H1912 0.950 . S
C1917 C1919 1.327 . S
C1917 C1923 1.429 . S
C1918 C1910 1.574 . S
C1918 H1913 0.949 . S
C1918 C1924 1.368 . S
C1919 C1903 1.349 . S
C1919 H1911 0.950 . S
C1919 C1917 1.327 . S
C1920 C1908 1.349 . S
C1920 H1914 0.950 . S
C1920 C1921 1.327 . S
C1921 H1915 0.950 . S
C1921 C1920 1.327 . S
C1921 C1925 1.429 . S
C1922 C1905 1.574 . S
C1922 H1916 0.949 . S
C1922 C1926 1.368 . S
C1923 C1904 1.429 . S
C1923 C1917 1.429 . S
C1923 C1924 1.523 . S
C1924 C1905 1.368 . S
C1924 C1918 1.368 . S
C1924 C1923 1.523 . S
C1925 C1909 1.429 . S
C1925 C1921 1.429 . S
C1925 C1926 1.523 . S
C1926 C1910 1.368 . S
C1926 C1922 1.368 . S
C1926 C1925 1.523 . S
H1927 C1902 0.950 . S
H1928 C1904 0.950 . S
H1929 C1905 0.949 . S
H1930 C1907 0.950 . S
H1931 C1909 0.950 . S
C1932 C1933 1.349 . S
C1932 C1934 1.327 . S
C1932 H1957 0.950 . S
C1933 C1932 1.349 . S
C1933 C1949 1.349 . S
C1934 C1932 1.327 . S
C1934 C1953 1.429 . S
C1934 H1958 0.950 . S
C1935 C1952 1.574 . S
C1935 C1954 1.368 . S
C1935 H1959 0.949 . S
H1936 C1940 0.949 . S
C1937 C1938 1.349 . S
C1937 C1939 1.327 . S
C1937 H1960 0.950 . S
C1938 C1937 1.349 . S
C1938 C1950 1.349 . S
C1939 C1937 1.327 . S
C1939 C1955 1.429 . S
C1939 H1961 0.950 . S
C1940 H1936 0.949 . S
C1940 C1948 1.574 . S
C1940 C1956 1.368 . S
H1941 C1949 0.950 . S
H1942 C1947 0.950 . S
H1943 C1948 0.949 . S
H1944 C1950 0.950 . S
H1945 C1951 0.950 . S
H1946 C1952 0.949 . S
C1947 H1942 0.950 . S
C1947 C1949 1.327 . S
C1947 C1953 1.429 . S
C1948 C1940 1.574 . S
C1948 H1943 0.949 . S
C1948 C1954 1.368 . S
C1949 C1933 1.349 . S
C1949 H1941 0.950 . S
C1949 C1947 1.327 . S
C1950 C1938 1.349 . S
C1950 H1944 0.950 . S
C1950 C1951 1.327 . S
C1951 H1945 0.950 . S
C1951 C1950 1.327 . S
C1951 C1955 1.429 . S
C1952 C1935 1.574 . S
C1952 H1946 0.949 . S
C1952 C1956 1.368 . S
C1953 C1934 1.429 . S
C1953 C1947 1.429 . S
C1953 C1954 1.523 . S
C1954 C1935 1.368 . S
C1954 C1948 1.368 . S
C1954 C1953 1.523 . S
C1955 C1939 1.429 . S
C1955 C1951 1.429 . S
C1955 C1956 1.523 . S
C1956 C1940 1.368 . S
C1956 C1952 1.368 . S
C1956 C1955 1.523 . S
H1957 C1932 0.950 . S
H1958 C1934 0.950 . S
H1959 C1935 0.949 . S
H1960 C1937 0.950 . S
H1961 C1939 0.950 . S
C1962 C1963 1.349 . S
C1962 C1964 1.327 . S
C1962 H1987 0.950 . S
C1963 C1962 1.349 . S
C1963 C1979 1.349 . S
C1964 C1962 1.327 . S
C1964 C1983 1.429 . S
C1964 H1988 0.950 . S
C1965 C1982 1.574 . S
C1965 C1984 1.368 . S
C1965 H1989 0.949 . S
H1966 C1970 0.949 . S
C1967 C1968 1.349 . S
C1967 C1969 1.327 . S
C1967 H1990 0.950 . S
C1968 C1967 1.349 . S
C1968 C1980 1.349 . S
C1969 C1967 1.327 . S
C1969 C1985 1.429 . S
C1969 H1991 0.950 1_556 S
C1970 H1966 0.949 . S
C1970 C1978 1.574 . S
C1970 C1986 1.368 . S
H1971 C1979 0.950 . S
H1972 C1977 0.950 . S
H1973 C1978 0.949 . S
H1974 C1980 0.950 . S
H1975 C1981 0.950 . S
H1976 C1982 0.949 . S
C1977 H1972 0.950 . S
C1977 C1979 1.327 . S
C1977 C1983 1.429 . S
C1978 C1970 1.574 . S
C1978 H1973 0.949 . S
C1978 C1984 1.368 . S
C1979 C1963 1.349 . S
C1979 H1971 0.950 . S
C1979 C1977 1.327 . S
C1980 C1968 1.349 . S
C1980 H1974 0.950 . S
C1980 C1981 1.327 . S
C1981 H1975 0.950 . S
C1981 C1980 1.327 . S
C1981 C1985 1.429 . S
C1982 C1965 1.574 . S
C1982 H1976 0.949 . S
C1982 C1986 1.368 . S
C1983 C1964 1.429 . S
C1983 C1977 1.429 . S
C1983 C1984 1.523 . S
C1984 C1965 1.368 . S
C1984 C1978 1.368 . S
C1984 C1983 1.523 . S
C1985 C1969 1.429 . S
C1985 C1981 1.429 . S
C1985 C1986 1.523 1_556 S
C1986 C1970 1.368 . S
C1986 C1982 1.368 . S
C1986 C1985 1.523 1_554 S
H1987 C1962 0.950 . S
H1988 C1964 0.950 . S
H1989 C1965 0.949 . S
H1990 C1967 0.950 . S
H1991 C1969 0.950 1_554 S
C1992 C1993 1.349 . S
C1992 C1994 1.327 . S
C1992 H2017 0.950 . S
C1993 C1992 1.349 . S
C1993 C2009 1.349 . S
C1994 C1992 1.327 . S
C1994 C2013 1.429 . S
C1994 H2018 0.950 . S
C1995 C2012 1.574 . S
C1995 C2014 1.368 . S
C1995 H2019 0.949 . S
H1996 C2000 0.949 . S
C1997 C1998 1.349 . S
C1997 C1999 1.327 . S
C1997 H2020 0.950 . S
C1998 C1997 1.349 . S
C1998 C2010 1.349 . S
C1999 C1997 1.327 . S
C1999 C2015 1.429 . S
C1999 H2021 0.950 . S
C2000 H1996 0.949 . S
C2000 C2008 1.574 . S
C2000 C2016 1.368 . S
H2001 C2009 0.950 . S
H2002 C2007 0.950 . S
H2003 C2008 0.949 . S
H2004 C2010 0.950 . S
H2005 C2011 0.950 . S
H2006 C2012 0.949 . S
C2007 H2002 0.950 . S
C2007 C2009 1.327 . S
C2007 C2013 1.429 . S
C2008 C2000 1.574 . S
C2008 H2003 0.949 . S
C2008 C2014 1.368 . S
C2009 C1993 1.349 . S
C2009 H2001 0.950 . S
C2009 C2007 1.327 . S
C2010 C1998 1.349 . S
C2010 H2004 0.950 . S
C2010 C2011 1.327 . S
C2011 H2005 0.950 . S
C2011 C2010 1.327 . S
C2011 C2015 1.429 . S
C2012 C1995 1.574 . S
C2012 H2006 0.949 . S
C2012 C2016 1.368 . S
C2013 C1994 1.429 . S
C2013 C2007 1.429 . S
C2013 C2014 1.523 . S
C2014 C1995 1.368 . S
C2014 C2008 1.368 . S
C2014 C2013 1.523 . S
C2015 C1999 1.429 . S
C2015 C2011 1.429 . S
C2015 C2016 1.523 . S
C2016 C2000 1.368 . S
C2016 C2012 1.368 . S
C2016 C2015 1.523 . S
H2017 C1992 0.950 . S
H2018 C1994 0.950 . S
H2019 C1995 0.949 . S
H2020 C1997 0.950 . S
H2021 C1999 0.950 . S
C2022 C2023 1.349 . S
C2022 C2024 1.327 . S
C2022 H2047 0.950 . S
C2023 C2022 1.349 . S
C2023 C2039 1.349 . S
C2024 C2022 1.327 . S
C2024 C2043 1.429 . S
C2024 H2048 0.950 . S
C2025 C2042 1.574 . S
C2025 C2044 1.368 . S
C2025 H2049 0.949 . S
H2026 C2030 0.949 . S
C2027 C2028 1.349 . S
C2027 C2029 1.327 . S
C2027 H2050 0.950 . S
C2028 C2027 1.349 . S
C2028 C2040 1.349 . S
C2029 C2027 1.327 . S
C2029 C2045 1.429 . S
C2029 H2051 0.950 . S
C2030 H2026 0.949 . S
C2030 C2038 1.574 . S
C2030 C2046 1.368 . S
H2031 C2039 0.950 . S
H2032 C2037 0.950 . S
H2033 C2038 0.949 . S
H2034 C2040 0.950 . S
H2035 C2041 0.950 . S
H2036 C2042 0.949 . S
C2037 H2032 0.950 . S
C2037 C2039 1.327 . S
C2037 C2043 1.429 . S
C2038 C2030 1.574 . S
C2038 H2033 0.949 . S
C2038 C2044 1.368 . S
C2039 C2023 1.349 . S
C2039 H2031 0.950 . S
C2039 C2037 1.327 . S
C2040 C2028 1.349 . S
C2040 H2034 0.950 . S
C2040 C2041 1.327 . S
C2041 H2035 0.950 . S
C2041 C2040 1.327 . S
C2041 C2045 1.429 . S
C2042 C2025 1.574 . S
C2042 H2036 0.949 . S
C2042 C2046 1.368 . S
C2043 C2024 1.429 . S
C2043 C2037 1.429 . S
C2043 C2044 1.523 . S
C2044 C2025 1.368 . S
C2044 C2038 1.368 . S
C2044 C2043 1.523 . S
C2045 C2029 1.429 . S
C2045 C2041 1.429 . S
C2045 C2046 1.523 . S
C2046 C2030 1.368 . S
C2046 C2042 1.368 . S
C2046 C2045 1.523 . S
H2047 C2022 0.950 . S
H2048 C2024 0.950 . S
H2049 C2025 0.949 . S
H2050 C2027 0.950 . S
H2051 C2029 0.950 . S
C2052 C2053 1.349 . S
C2052 C2054 1.327 . S
C2052 H2077 0.950 . S
C2053 C2052 1.349 . S
C2053 C2069 1.349 . S
C2054 C2052 1.327 . S
C2054 C2073 1.429 . S
C2054 H2078 0.950 . S
C2055 C2072 1.574 . S
C2055 C2074 1.368 . S
C2055 H2079 0.949 . S
H2056 C2060 0.949 . S
C2057 C2058 1.349 . S
C2057 C2059 1.327 . S
C2057 H2080 0.950 . S
C2058 C2057 1.349 . S
C2058 C2070 1.349 . S
C2059 C2057 1.327 . S
C2059 C2075 1.429 . S
C2059 H2081 0.950 . S
C2060 H2056 0.949 . S
C2060 C2068 1.574 . S
C2060 C2076 1.368 . S
H2061 C2069 0.950 . S
H2062 C2067 0.950 . S
H2063 C2068 0.949 . S
H2064 C2070 0.950 . S
H2065 C2071 0.950 . S
H2066 C2072 0.949 . S
C2067 H2062 0.950 . S
C2067 C2069 1.327 . S
C2067 C2073 1.429 . S
C2068 C2060 1.574 . S
C2068 H2063 0.949 . S
C2068 C2074 1.368 . S
C2069 C2053 1.349 . S
C2069 H2061 0.950 . S
C2069 C2067 1.327 . S
C2070 C2058 1.349 . S
C2070 H2064 0.950 . S
C2070 C2071 1.327 . S
C2071 H2065 0.950 . S
C2071 C2070 1.327 . S
C2071 C2075 1.429 . S
C2072 C2055 1.574 . S
C2072 H2066 0.949 . S
C2072 C2076 1.368 . S
C2073 C2054 1.429 . S
C2073 C2067 1.429 . S
C2073 C2074 1.523 . S
C2074 C2055 1.368 . S
C2074 C2068 1.368 . S
C2074 C2073 1.523 . S
C2075 C2059 1.429 . S
C2075 C2071 1.429 . S
C2075 C2076 1.523 . S
C2076 C2060 1.368 . S
C2076 C2072 1.368 . S
C2076 C2075 1.523 . S
H2077 C2052 0.950 . S
H2078 C2054 0.950 . S
H2079 C2055 0.949 . S
H2080 C2057 0.950 . S
H2081 C2059 0.950 . S
C2082 C2083 1.349 . S
C2082 C2084 1.327 . S
C2082 H2107 0.950 . S
C2083 C2082 1.349 . S
C2083 C2099 1.349 . S
C2084 C2082 1.327 . S
C2084 C2103 1.429 . S
C2084 H2108 0.950 . S
C2085 C2102 1.574 . S
C2085 C2104 1.368 . S
C2085 H2109 0.949 . S
H2086 C2090 0.949 . S
C2087 C2088 1.349 . S
C2087 C2089 1.327 . S
C2087 H2110 0.950 . S
C2088 C2087 1.349 . S
C2088 C2100 1.349 . S
C2089 C2087 1.327 . S
C2089 C2105 1.429 . S
C2089 H2111 0.950 . S
C2090 H2086 0.949 . S
C2090 C2098 1.574 . S
C2090 C2106 1.368 . S
H2091 C2099 0.950 . S
H2092 C2097 0.950 . S
H2093 C2098 0.949 . S
H2094 C2100 0.950 . S
H2095 C2101 0.950 . S
H2096 C2102 0.949 . S
C2097 H2092 0.950 . S
C2097 C2099 1.327 . S
C2097 C2103 1.429 . S
C2098 C2090 1.574 . S
C2098 H2093 0.949 . S
C2098 C2104 1.368 . S
C2099 C2083 1.349 . S
C2099 H2091 0.950 . S
C2099 C2097 1.327 . S
C2100 C2088 1.349 . S
C2100 H2094 0.950 . S
C2100 C2101 1.327 . S
C2101 H2095 0.950 . S
C2101 C2100 1.327 . S
C2101 C2105 1.429 . S
C2102 C2085 1.574 . S
C2102 H2096 0.949 . S
C2102 C2106 1.368 . S
C2103 C2084 1.429 . S
C2103 C2097 1.429 . S
C2103 C2104 1.523 . S
C2104 C2085 1.368 . S
C2104 C2098 1.368 . S
C2104 C2103 1.523 . S
C2105 C2089 1.429 . S
C2105 C2101 1.429 . S
C2105 C2106 1.523 1_556 S
C2106 C2090 1.368 . S
C2106 C2102 1.368 . S
C2106 C2105 1.523 1_554 S
H2107 C2082 0.950 . S
H2108 C2084 0.950 . S
H2109 C2085 0.949 . S
H2110 C2087 0.950 . S
H2111 C2089 0.950 . S
C2112 C2113 1.349 . S
C2112 C2114 1.327 . S
C2112 H2137 0.950 . S
C2113 C2112 1.349 . S
C2113 C2129 1.349 . S
C2114 C2112 1.327 . S
C2114 C2133 1.429 . S
C2114 H2138 0.950 . S
C2115 C2132 1.574 . S
C2115 C2134 1.368 . S
C2115 H2139 0.949 . S
H2116 C2120 0.949 . S
C2117 C2118 1.349 . S
C2117 C2119 1.327 . S
C2117 H2140 0.950 . S
C2118 C2117 1.349 . S
C2118 C2130 1.349 . S
C2119 C2117 1.327 . S
C2119 C2135 1.429 . S
C2119 H2141 0.950 . S
C2120 H2116 0.949 . S
C2120 C2128 1.574 . S
C2120 C2136 1.368 . S
H2121 C2129 0.950 . S
H2122 C2127 0.950 . S
H2123 C2128 0.949 . S
H2124 C2130 0.950 . S
H2125 C2131 0.950 . S
H2126 C2132 0.949 . S
C2127 H2122 0.950 . S
C2127 C2129 1.327 . S
C2127 C2133 1.429 . S
C2128 C2120 1.574 . S
C2128 H2123 0.949 . S
C2128 C2134 1.368 . S
C2129 C2113 1.349 . S
C2129 H2121 0.950 . S
C2129 C2127 1.327 . S
C2130 C2118 1.349 . S
C2130 H2124 0.950 . S
C2130 C2131 1.327 . S
C2131 H2125 0.950 . S
C2131 C2130 1.327 . S
C2131 C2135 1.429 . S
C2132 C2115 1.574 . S
C2132 H2126 0.949 . S
C2132 C2136 1.368 . S
C2133 C2114 1.429 . S
C2133 C2127 1.429 . S
C2133 C2134 1.523 . S
C2134 C2115 1.368 . S
C2134 C2128 1.368 . S
C2134 C2133 1.523 . S
C2135 C2119 1.429 . S
C2135 C2131 1.429 . S
C2135 C2136 1.523 . S
C2136 C2120 1.368 . S
C2136 C2132 1.368 . S
C2136 C2135 1.523 . S
H2137 C2112 0.950 . S
H2138 C2114 0.950 . S
H2139 C2115 0.949 . S
H2140 C2117 0.950 . S
H2141 C2119 0.950 . S
C2142 C2143 1.349 . S
C2142 C2144 1.327 . S
C2142 H2167 0.950 . S
C2143 C2142 1.349 . S
C2143 C2159 1.349 . S
C2144 C2142 1.327 . S
C2144 C2163 1.429 . S
C2144 H2168 0.950 . S
C2145 C2162 1.574 1_455 S
C2145 C2164 1.368 . S
C2145 H2169 0.949 . S
H2146 C2150 0.949 . S
C2147 C2148 1.349 . S
C2147 C2149 1.327 . S
C2147 H2170 0.950 . S
C2148 C2147 1.349 . S
C2148 C2160 1.349 . S
C2149 C2147 1.327 . S
C2149 C2165 1.429 . S
C2149 H2171 0.950 . S
C2150 H2146 0.949 . S
C2150 C2158 1.574 1_655 S
C2150 C2166 1.368 . S
H2151 C2159 0.950 . S
H2152 C2157 0.950 . S
H2153 C2158 0.949 . S
H2154 C2160 0.950 . S
H2155 C2161 0.950 . S
H2156 C2162 0.949 . S
C2157 H2152 0.950 . S
C2157 C2159 1.327 . S
C2157 C2163 1.429 . S
C2158 C2150 1.574 1_455 S
C2158 H2153 0.949 . S
C2158 C2164 1.368 . S
C2159 C2143 1.349 . S
C2159 H2151 0.950 . S
C2159 C2157 1.327 . S
C2160 C2148 1.349 . S
C2160 H2154 0.950 . S
C2160 C2161 1.327 . S
C2161 H2155 0.950 . S
C2161 C2160 1.327 . S
C2161 C2165 1.429 . S
C2162 C2145 1.574 1_655 S
C2162 H2156 0.949 . S
C2162 C2166 1.368 . S
C2163 C2144 1.429 . S
C2163 C2157 1.429 . S
C2163 C2164 1.523 . S
C2164 C2145 1.368 . S
C2164 C2158 1.368 . S
C2164 C2163 1.523 . S
C2165 C2149 1.429 . S
C2165 C2161 1.429 . S
C2165 C2166 1.523 . S
C2166 C2150 1.368 . S
C2166 C2162 1.368 . S
C2166 C2165 1.523 . S
H2167 C2142 0.950 . S
H2168 C2144 0.950 . S
H2169 C2145 0.949 . S
H2170 C2147 0.950 . S
H2171 C2149 0.950 . S
C2172 C2173 1.349 . S
C2172 C2174 1.327 . S
C2172 H2197 0.950 . S
C2173 C2172 1.349 . S
C2173 C2189 1.349 . S
C2174 C2172 1.327 . S
C2174 C2193 1.429 . S
C2174 H2198 0.950 . S
C2175 C2192 1.574 . S
C2175 C2194 1.368 . S
C2175 H2199 0.949 . S
H2176 C2180 0.949 . S
C2177 C2178 1.349 . S
C2177 C2179 1.327 . S
C2177 H2200 0.950 . S
C2178 C2177 1.349 . S
C2178 C2190 1.349 . S
C2179 C2177 1.327 . S
C2179 C2195 1.429 . S
C2179 H2201 0.950 . S
C2180 H2176 0.949 . S
C2180 C2188 1.574 . S
C2180 C2196 1.368 . S
H2181 C2189 0.950 . S
H2182 C2187 0.950 . S
H2183 C2188 0.949 . S
H2184 C2190 0.950 . S
H2185 C2191 0.950 . S
H2186 C2192 0.949 . S
C2187 H2182 0.950 . S
C2187 C2189 1.327 . S
C2187 C2193 1.429 . S
C2188 C2180 1.574 . S
C2188 H2183 0.949 . S
C2188 C2194 1.368 . S
C2189 C2173 1.349 . S
C2189 H2181 0.950 . S
C2189 C2187 1.327 . S
C2190 C2178 1.349 . S
C2190 H2184 0.950 . S
C2190 C2191 1.327 . S
C2191 H2185 0.950 . S
C2191 C2190 1.327 . S
C2191 C2195 1.429 . S
C2192 C2175 1.574 . S
C2192 H2186 0.949 . S
C2192 C2196 1.368 . S
C2193 C2174 1.429 . S
C2193 C2187 1.429 . S
C2193 C2194 1.523 . S
C2194 C2175 1.368 . S
C2194 C2188 1.368 . S
C2194 C2193 1.523 . S
C2195 C2179 1.429 . S
C2195 C2191 1.429 . S
C2195 C2196 1.523 . S
C2196 C2180 1.368 . S
C2196 C2192 1.368 . S
C2196 C2195 1.523 . S
H2197 C2172 0.950 . S
H2198 C2174 0.950 . S
H2199 C2175 0.949 . S
H2200 C2177 0.950 . S
H2201 C2179 0.950 . S
C2202 C2203 1.349 . S
C2202 C2204 1.327 . S
C2202 H2227 0.950 . S
C2203 C2202 1.349 . S
C2203 C2219 1.349 . S
C2204 C2202 1.327 . S
C2204 C2223 1.429 . S
C2204 H2228 0.950 . S
C2205 C2222 1.574 . S
C2205 C2224 1.368 . S
C2205 H2229 0.949 . S
H2206 C2210 0.949 . S
C2207 C2208 1.349 . S
C2207 C2209 1.327 . S
C2207 H2230 0.950 . S
C2208 C2207 1.349 . S
C2208 C2220 1.349 . S
C2209 C2207 1.327 . S
C2209 C2225 1.429 . S
C2209 H2231 0.950 . S
C2210 H2206 0.949 . S
C2210 C2218 1.574 . S
C2210 C2226 1.368 . S
H2211 C2219 0.950 . S
H2212 C2217 0.950 . S
H2213 C2218 0.949 . S
H2214 C2220 0.950 . S
H2215 C2221 0.950 . S
H2216 C2222 0.949 . S
C2217 H2212 0.950 . S
C2217 C2219 1.327 . S
C2217 C2223 1.429 . S
C2218 C2210 1.574 . S
C2218 H2213 0.949 . S
C2218 C2224 1.368 . S
C2219 C2203 1.349 . S
C2219 H2211 0.950 . S
C2219 C2217 1.327 . S
C2220 C2208 1.349 . S
C2220 H2214 0.950 . S
C2220 C2221 1.327 . S
C2221 H2215 0.950 . S
C2221 C2220 1.327 . S
C2221 C2225 1.429 . S
C2222 C2205 1.574 . S
C2222 H2216 0.949 . S
C2222 C2226 1.368 . S
C2223 C2204 1.429 . S
C2223 C2217 1.429 . S
C2223 C2224 1.523 . S
C2224 C2205 1.368 . S
C2224 C2218 1.368 . S
C2224 C2223 1.523 . S
C2225 C2209 1.429 . S
C2225 C2221 1.429 . S
C2225 C2226 1.523 . S
C2226 C2210 1.368 . S
C2226 C2222 1.368 . S
C2226 C2225 1.523 . S
H2227 C2202 0.950 . S
H2228 C2204 0.950 . S
H2229 C2205 0.949 . S
H2230 C2207 0.950 . S
H2231 C2209 0.950 . S
C2232 C2233 1.349 . S
C2232 C2234 1.327 . S
C2232 H2257 0.950 . S
C2233 C2232 1.349 . S
C2233 C2249 1.349 . S
C2234 C2232 1.327 . S
C2234 C2253 1.429 . S
C2234 H2258 0.950 . S
C2235 C2252 1.574 . S
C2235 C2254 1.368 . S
C2235 H2259 0.949 . S
H2236 C2240 0.949 . S
C2237 C2238 1.349 . S
C2237 C2239 1.327 . S
C2237 H2260 0.950 . S
C2238 C2237 1.349 . S
C2238 C2250 1.349 . S
C2239 C2237 1.327 . S
C2239 C2255 1.429 . S
C2239 H2261 0.950 . S
C2240 H2236 0.949 . S
C2240 C2248 1.574 . S
C2240 C2256 1.368 . S
H2241 C2249 0.950 . S
H2242 C2247 0.950 . S
H2243 C2248 0.949 . S
H2244 C2250 0.950 . S
H2245 C2251 0.950 . S
H2246 C2252 0.949 . S
C2247 H2242 0.950 . S
C2247 C2249 1.327 . S
C2247 C2253 1.429 . S
C2248 C2240 1.574 . S
C2248 H2243 0.949 . S
C2248 C2254 1.368 . S
C2249 C2233 1.349 . S
C2249 H2241 0.950 . S
C2249 C2247 1.327 . S
C2250 C2238 1.349 . S
C2250 H2244 0.950 . S
C2250 C2251 1.327 . S
C2251 H2245 0.950 . S
C2251 C2250 1.327 . S
C2251 C2255 1.429 . S
C2252 C2235 1.574 . S
C2252 H2246 0.949 . S
C2252 C2256 1.368 . S
C2253 C2234 1.429 . S
C2253 C2247 1.429 . S
C2253 C2254 1.523 . S
C2254 C2235 1.368 . S
C2254 C2248 1.368 . S
C2254 C2253 1.523 . S
C2255 C2239 1.429 . S
C2255 C2251 1.429 . S
C2255 C2256 1.523 . S
C2256 C2240 1.368 . S
C2256 C2252 1.368 . S
C2256 C2255 1.523 . S
H2257 C2232 0.950 . S
H2258 C2234 0.950 . S
H2259 C2235 0.949 . S
H2260 C2237 0.950 . S
H2261 C2239 0.950 . S
C2262 C2263 1.349 . S
C2262 C2264 1.327 . S
C2262 H2287 0.950 . S
C2263 C2262 1.349 . S
C2263 C2279 1.349 . S
C2264 C2262 1.327 . S
C2264 C2283 1.429 . S
C2264 H2288 0.950 . S
C2265 C2282 1.574 . S
C2265 C2284 1.368 . S
C2265 H2289 0.949 . S
H2266 C2270 0.949 . S
C2267 C2268 1.349 . S
C2267 C2269 1.327 . S
C2267 H2290 0.950 . S
C2268 C2267 1.349 . S
C2268 C2280 1.349 . S
C2269 C2267 1.327 . S
C2269 C2285 1.429 . S
C2269 H2291 0.950 . S
C2270 H2266 0.949 . S
C2270 C2278 1.574 . S
C2270 C2286 1.368 . S
H2271 C2279 0.950 . S
H2272 C2277 0.950 . S
H2273 C2278 0.949 . S
H2274 C2280 0.950 . S
H2275 C2281 0.950 . S
H2276 C2282 0.949 . S
C2277 H2272 0.950 . S
C2277 C2279 1.327 . S
C2277 C2283 1.429 . S
C2278 C2270 1.574 . S
C2278 H2273 0.949 . S
C2278 C2284 1.368 . S
C2279 C2263 1.349 . S
C2279 H2271 0.950 . S
C2279 C2277 1.327 . S
C2280 C2268 1.349 . S
C2280 H2274 0.950 . S
C2280 C2281 1.327 . S
C2281 H2275 0.950 . S
C2281 C2280 1.327 . S
C2281 C2285 1.429 . S
C2282 C2265 1.574 . S
C2282 H2276 0.949 . S
C2282 C2286 1.368 . S
C2283 C2264 1.429 . S
C2283 C2277 1.429 . S
C2283 C2284 1.523 . S
C2284 C2265 1.368 . S
C2284 C2278 1.368 . S
C2284 C2283 1.523 . S
C2285 C2269 1.429 . S
C2285 C2281 1.429 . S
C2285 C2286 1.523 . S
C2286 C2270 1.368 . S
C2286 C2282 1.368 . S
C2286 C2285 1.523 . S
H2287 C2262 0.950 . S
H2288 C2264 0.950 . S
H2289 C2265 0.949 . S
H2290 C2267 0.950 . S
H2291 C2269 0.950 . S
C2292 C2293 1.349 . S
C2292 C2294 1.327 . S
C2292 H2317 0.950 . S
C2293 C2292 1.349 . S
C2293 C2309 1.349 . S
C2294 C2292 1.327 . S
C2294 C2313 1.429 . S
C2294 H2318 0.950 . S
C2295 C2312 1.574 . S
C2295 C2314 1.368 . S
C2295 H2319 0.949 . S
H2296 C2300 0.949 . S
C2297 C2298 1.349 . S
C2297 C2299 1.327 . S
C2297 H2320 0.950 . S
C2298 C2297 1.349 . S
C2298 C2310 1.349 . S
C2299 C2297 1.327 . S
C2299 C2315 1.429 . S
C2299 H2321 0.950 . S
C2300 H2296 0.949 . S
C2300 C2308 1.574 . S
C2300 C2316 1.368 . S
H2301 C2309 0.950 . S
H2302 C2307 0.950 . S
H2303 C2308 0.949 . S
H2304 C2310 0.950 . S
H2305 C2311 0.950 . S
H2306 C2312 0.949 . S
C2307 H2302 0.950 . S
C2307 C2309 1.327 . S
C2307 C2313 1.429 . S
C2308 C2300 1.574 . S
C2308 H2303 0.949 . S
C2308 C2314 1.368 . S
C2309 C2293 1.349 . S
C2309 H2301 0.950 . S
C2309 C2307 1.327 . S
C2310 C2298 1.349 . S
C2310 H2304 0.950 . S
C2310 C2311 1.327 . S
C2311 H2305 0.950 . S
C2311 C2310 1.327 . S
C2311 C2315 1.429 . S
C2312 C2295 1.574 . S
C2312 H2306 0.949 . S
C2312 C2316 1.368 . S
C2313 C2294 1.429 . S
C2313 C2307 1.429 . S
C2313 C2314 1.523 . S
C2314 C2295 1.368 . S
C2314 C2308 1.368 . S
C2314 C2313 1.523 . S
C2315 C2299 1.429 . S
C2315 C2311 1.429 . S
C2315 C2316 1.523 . S
C2316 C2300 1.368 . S
C2316 C2312 1.368 . S
C2316 C2315 1.523 . S
H2317 C2292 0.950 . S
H2318 C2294 0.950 . S
H2319 C2295 0.949 . S
H2320 C2297 0.950 . S
H2321 C2299 0.950 . S
C2322 C2323 1.349 . S
C2322 C2324 1.327 . S
C2322 H2347 0.950 . S
C2323 C2322 1.349 . S
C2323 C2339 1.349 . S
C2324 C2322 1.327 . S
C2324 C2343 1.429 . S
C2324 H2348 0.950 . S
C2325 C2342 1.574 1_655 S
C2325 C2344 1.368 . S
C2325 H2349 0.949 . S
H2326 C2330 0.949 . S
C2327 C2328 1.349 . S
C2327 C2329 1.327 . S
C2327 H2350 0.950 . S
C2328 C2327 1.349 . S
C2328 C2340 1.349 . S
C2329 C2327 1.327 . S
C2329 C2345 1.429 . S
C2329 H2351 0.950 . S
C2330 H2326 0.949 . S
C2330 C2338 1.574 1_455 S
C2330 C2346 1.368 . S
H2331 C2339 0.950 . S
H2332 C2337 0.950 . S
H2333 C2338 0.949 . S
H2334 C2340 0.950 . S
H2335 C2341 0.950 . S
H2336 C2342 0.949 . S
C2337 H2332 0.950 . S
C2337 C2339 1.327 . S
C2337 C2343 1.429 . S
C2338 C2330 1.574 1_655 S
C2338 H2333 0.949 . S
C2338 C2344 1.368 . S
C2339 C2323 1.349 . S
C2339 H2331 0.950 . S
C2339 C2337 1.327 . S
C2340 C2328 1.349 . S
C2340 H2334 0.950 . S
C2340 C2341 1.327 . S
C2341 H2335 0.950 . S
C2341 C2340 1.327 . S
C2341 C2345 1.429 . S
C2342 C2325 1.574 1_455 S
C2342 H2336 0.949 . S
C2342 C2346 1.368 . S
C2343 C2324 1.429 . S
C2343 C2337 1.429 . S
C2343 C2344 1.523 . S
C2344 C2325 1.368 . S
C2344 C2338 1.368 . S
C2344 C2343 1.523 . S
C2345 C2329 1.429 . S
C2345 C2341 1.429 . S
C2345 C2346 1.523 . S
C2346 C2330 1.368 . S
C2346 C2342 1.368 . S
C2346 C2345 1.523 . S
H2347 C2322 0.950 . S
H2348 C2324 0.950 . S
H2349 C2325 0.949 . S
H2350 C2327 0.950 . S
H2351 C2329 0.950 . S
C2352 C2353 1.349 . S
C2352 C2354 1.327 . S
C2352 H2377 0.950 . S
C2353 C2352 1.349 . S
C2353 C2369 1.349 . S
C2354 C2352 1.327 . S
C2354 C2373 1.429 . S
C2354 H2378 0.950 . S
C2355 C2372 1.574 . S
C2355 C2374 1.368 . S
C2355 H2379 0.949 . S
H2356 C2360 0.949 . S
C2357 C2358 1.349 . S
C2357 C2359 1.327 . S
C2357 H2380 0.950 . S
C2358 C2357 1.349 . S
C2358 C2370 1.349 . S
C2359 C2357 1.327 . S
C2359 C2375 1.429 . S
C2359 H2381 0.950 . S
C2360 H2356 0.949 . S
C2360 C2368 1.574 . S
C2360 C2376 1.368 . S
H2361 C2369 0.950 . S
H2362 C2367 0.950 . S
H2363 C2368 0.949 . S
H2364 C2370 0.950 . S
H2365 C2371 0.950 . S
H2366 C2372 0.949 . S
C2367 H2362 0.950 . S
C2367 C2369 1.327 . S
C2367 C2373 1.429 . S
C2368 C2360 1.574 . S
C2368 H2363 0.949 . S
C2368 C2374 1.368 . S
C2369 C2353 1.349 . S
C2369 H2361 0.950 . S
C2369 C2367 1.327 . S
C2370 C2358 1.349 . S
C2370 H2364 0.950 . S
C2370 C2371 1.327 . S
C2371 H2365 0.950 . S
C2371 C2370 1.327 . S
C2371 C2375 1.429 . S
C2372 C2355 1.574 . S
C2372 H2366 0.949 . S
C2372 C2376 1.368 . S
C2373 C2354 1.429 . S
C2373 C2367 1.429 . S
C2373 C2374 1.523 . S
C2374 C2355 1.368 . S
C2374 C2368 1.368 . S
C2374 C2373 1.523 . S
C2375 C2359 1.429 . S
C2375 C2371 1.429 . S
C2375 C2376 1.523 . S
C2376 C2360 1.368 . S
C2376 C2372 1.368 . S
C2376 C2375 1.523 . S
H2377 C2352 0.950 . S
H2378 C2354 0.950 . S
H2379 C2355 0.949 . S
H2380 C2357 0.950 . S
H2381 C2359 0.950 . S
C2382 C2383 1.349 . S
C2382 C2384 1.327 . S
C2382 H2407 0.950 . S
C2383 C2382 1.349 . S
C2383 C2399 1.349 . S
C2384 C2382 1.327 . S
C2384 C2403 1.429 . S
C2384 H2408 0.950 . S
C2385 C2402 1.574 . S
C2385 C2404 1.368 . S
C2385 H2409 0.949 . S
H2386 C2390 0.949 . S
C2387 C2388 1.349 . S
C2387 C2389 1.327 . S
C2387 H2410 0.950 . S
C2388 C2387 1.349 . S
C2388 C2400 1.349 . S
C2389 C2387 1.327 . S
C2389 C2405 1.429 . S
C2389 H2411 0.950 . S
C2390 H2386 0.949 . S
C2390 C2398 1.574 . S
C2390 C2406 1.368 . S
H2391 C2399 0.950 . S
H2392 C2397 0.950 . S
H2393 C2398 0.949 . S
H2394 C2400 0.950 . S
H2395 C2401 0.950 . S
H2396 C2402 0.949 . S
C2397 H2392 0.950 . S
C2397 C2399 1.327 . S
C2397 C2403 1.429 . S
C2398 C2390 1.574 . S
C2398 H2393 0.949 . S
C2398 C2404 1.368 . S
C2399 C2383 1.349 . S
C2399 H2391 0.950 . S
C2399 C2397 1.327 . S
C2400 C2388 1.349 . S
C2400 H2394 0.950 . S
C2400 C2401 1.327 . S
C2401 H2395 0.950 . S
C2401 C2400 1.327 . S
C2401 C2405 1.429 . S
C2402 C2385 1.574 . S
C2402 H2396 0.949 . S
C2402 C2406 1.368 . S
C2403 C2384 1.429 . S
C2403 C2397 1.429 . S
C2403 C2404 1.523 . S
C2404 C2385 1.368 . S
C2404 C2398 1.368 . S
C2404 C2403 1.523 . S
C2405 C2389 1.429 . S
C2405 C2401 1.429 . S
C2405 C2406 1.523 . S
C2406 C2390 1.368 . S
C2406 C2402 1.368 . S
C2406 C2405 1.523 . S
H2407 C2382 0.950 . S
H2408 C2384 0.950 . S
H2409 C2385 0.949 . S
H2410 C2387 0.950 . S
H2411 C2389 0.950 . S
C2412 C2413 1.349 . S
C2412 C2414 1.327 . S
C2412 H2437 0.950 . S
C2413 C2412 1.349 . S
C2413 C2429 1.349 . S
C2414 C2412 1.327 . S
C2414 C2433 1.429 . S
C2414 H2438 0.950 . S
C2415 C2432 1.574 . S
C2415 C2434 1.368 . S
C2415 H2439 0.949 . S
H2416 C2420 0.949 . S
C2417 C2418 1.349 . S
C2417 C2419 1.327 . S
C2417 H2440 0.950 . S
C2418 C2417 1.349 . S
C2418 C2430 1.349 . S
C2419 C2417 1.327 . S
C2419 C2435 1.429 . S
C2419 H2441 0.950 . S
C2420 H2416 0.949 . S
C2420 C2428 1.574 . S
C2420 C2436 1.368 . S
H2421 C2429 0.950 . S
H2422 C2427 0.950 . S
H2423 C2428 0.949 . S
H2424 C2430 0.950 . S
H2425 C2431 0.950 . S
H2426 C2432 0.949 . S
C2427 H2422 0.950 . S
C2427 C2429 1.327 . S
C2427 C2433 1.429 . S
C2428 C2420 1.574 . S
C2428 H2423 0.949 . S
C2428 C2434 1.368 . S
C2429 C2413 1.349 . S
C2429 H2421 0.950 . S
C2429 C2427 1.327 . S
C2430 C2418 1.349 . S
C2430 H2424 0.950 . S
C2430 C2431 1.327 . S
C2431 H2425 0.950 . S
C2431 C2430 1.327 . S
C2431 C2435 1.429 . S
C2432 C2415 1.574 . S
C2432 H2426 0.949 . S
C2432 C2436 1.368 . S
C2433 C2414 1.429 . S
C2433 C2427 1.429 . S
C2433 C2434 1.523 . S
C2434 C2415 1.368 . S
C2434 C2428 1.368 . S
C2434 C2433 1.523 . S
C2435 C2419 1.429 . S
C2435 C2431 1.429 . S
C2435 C2436 1.523 . S
C2436 C2420 1.368 . S
C2436 C2432 1.368 . S
C2436 C2435 1.523 . S
H2437 C2412 0.950 . S
H2438 C2414 0.950 . S
H2439 C2415 0.949 . S
H2440 C2417 0.950 . S
H2441 C2419 0.950 . S
C2442 C2443 1.349 . S
C2442 C2444 1.327 . S
C2442 H2467 0.950 . S
C2443 C2442 1.349 . S
C2443 C2459 1.349 . S
C2444 C2442 1.327 . S
C2444 C2463 1.429 . S
C2444 H2468 0.950 . S
C2445 C2462 1.574 . S
C2445 C2464 1.368 . S
C2445 H2469 0.949 . S
H2446 C2450 0.949 . S
C2447 C2448 1.349 . S
C2447 C2449 1.327 . S
C2447 H2470 0.950 . S
C2448 C2447 1.349 . S
C2448 C2460 1.349 . S
C2449 C2447 1.327 . S
C2449 C2465 1.429 . S
C2449 H2471 0.950 . S
C2450 H2446 0.949 . S
C2450 C2458 1.574 . S
C2450 C2466 1.368 . S
H2451 C2459 0.950 . S
H2452 C2457 0.950 . S
H2453 C2458 0.949 . S
H2454 C2460 0.950 . S
H2455 C2461 0.950 . S
H2456 C2462 0.949 . S
C2457 H2452 0.950 . S
C2457 C2459 1.327 . S
C2457 C2463 1.429 . S
C2458 C2450 1.574 . S
C2458 H2453 0.949 . S
C2458 C2464 1.368 . S
C2459 C2443 1.349 . S
C2459 H2451 0.950 . S
C2459 C2457 1.327 . S
C2460 C2448 1.349 . S
C2460 H2454 0.950 . S
C2460 C2461 1.327 . S
C2461 H2455 0.950 . S
C2461 C2460 1.327 . S
C2461 C2465 1.429 . S
C2462 C2445 1.574 . S
C2462 H2456 0.949 . S
C2462 C2466 1.368 . S
C2463 C2444 1.429 . S
C2463 C2457 1.429 . S
C2463 C2464 1.523 . S
C2464 C2445 1.368 . S
C2464 C2458 1.368 . S
C2464 C2463 1.523 . S
C2465 C2449 1.429 . S
C2465 C2461 1.429 . S
C2465 C2466 1.523 . S
C2466 C2450 1.368 . S
C2466 C2462 1.368 . S
C2466 C2465 1.523 . S
H2467 C2442 0.950 . S
H2468 C2444 0.950 . S
H2469 C2445 0.949 . S
H2470 C2447 0.950 . S
H2471 C2449 0.950 . S
C2472 C2473 1.349 . S
C2472 C2474 1.327 . S
C2472 H2497 0.950 . S
C2473 C2472 1.349 . S
C2473 C2489 1.349 . S
C2474 C2472 1.327 . S
C2474 C2493 1.429 . S
C2474 H2498 0.950 . S
C2475 C2492 1.574 . S
C2475 C2494 1.368 . S
C2475 H2499 0.949 . S
H2476 C2480 0.949 . S
C2477 C2478 1.349 . S
C2477 C2479 1.327 . S
C2477 H2500 0.950 . S
C2478 C2477 1.349 . S
C2478 C2490 1.349 . S
C2479 C2477 1.327 . S
C2479 C2495 1.429 . S
C2479 H2501 0.950 . S
C2480 H2476 0.949 . S
C2480 C2488 1.574 . S
C2480 C2496 1.368 . S
H2481 C2489 0.950 . S
H2482 C2487 0.950 . S
H2483 C2488 0.949 . S
H2484 C2490 0.950 . S
H2485 C2491 0.950 . S
H2486 C2492 0.949 . S
C2487 H2482 0.950 . S
C2487 C2489 1.327 . S
C2487 C2493 1.429 . S
C2488 C2480 1.574 . S
C2488 H2483 0.949 . S
C2488 C2494 1.368 . S
C2489 C2473 1.349 . S
C2489 H2481 0.950 . S
C2489 C2487 1.327 . S
C2490 C2478 1.349 . S
C2490 H2484 0.950 . S
C2490 C2491 1.327 . S
C2491 H2485 0.950 . S
C2491 C2490 1.327 . S
C2491 C2495 1.429 . S
C2492 C2475 1.574 . S
C2492 H2486 0.949 . S
C2492 C2496 1.368 . S
C2493 C2474 1.429 . S
C2493 C2487 1.429 . S
C2493 C2494 1.523 . S
C2494 C2475 1.368 . S
C2494 C2488 1.368 . S
C2494 C2493 1.523 . S
C2495 C2479 1.429 . S
C2495 C2491 1.429 . S
C2495 C2496 1.523 . S
C2496 C2480 1.368 . S
C2496 C2492 1.368 . S
C2496 C2495 1.523 . S
H2497 C2472 0.950 . S
H2498 C2474 0.950 . S
H2499 C2475 0.949 . S
H2500 C2477 0.950 . S
H2501 C2479 0.950 . S
C2502 C2503 1.349 . S
C2502 C2504 1.327 . S
C2502 H2527 0.950 . S
C2503 C2502 1.349 . S
C2503 C2519 1.349 . S
C2504 C2502 1.327 . S
C2504 C2523 1.429 . S
C2504 H2528 0.950 . S
C2505 C2522 1.574 1_655 S
C2505 C2524 1.368 . S
C2505 H2529 0.949 . S
H2506 C2510 0.949 . S
C2507 C2508 1.349 . S
C2507 C2509 1.327 . S
C2507 H2530 0.950 . S
C2508 C2507 1.349 . S
C2508 C2520 1.349 . S
C2509 C2507 1.327 . S
C2509 C2525 1.429 . S
C2509 H2531 0.950 . S
C2510 H2506 0.949 . S
C2510 C2518 1.574 1_455 S
C2510 C2526 1.368 . S
H2511 C2519 0.950 . S
H2512 C2517 0.950 . S
H2513 C2518 0.949 . S
H2514 C2520 0.950 . S
H2515 C2521 0.950 . S
H2516 C2522 0.949 . S
C2517 H2512 0.950 . S
C2517 C2519 1.327 . S
C2517 C2523 1.429 . S
C2518 C2510 1.574 1_655 S
C2518 H2513 0.949 . S
C2518 C2524 1.368 . S
C2519 C2503 1.349 . S
C2519 H2511 0.950 . S
C2519 C2517 1.327 . S
C2520 C2508 1.349 . S
C2520 H2514 0.950 . S
C2520 C2521 1.327 . S
C2521 H2515 0.950 . S
C2521 C2520 1.327 . S
C2521 C2525 1.429 . S
C2522 C2505 1.574 1_455 S
C2522 H2516 0.949 . S
C2522 C2526 1.368 . S
C2523 C2504 1.429 . S
C2523 C2517 1.429 . S
C2523 C2524 1.523 . S
C2524 C2505 1.368 . S
C2524 C2518 1.368 . S
C2524 C2523 1.523 . S
C2525 C2509 1.429 . S
C2525 C2521 1.429 . S
C2525 C2526 1.523 . S
C2526 C2510 1.368 . S
C2526 C2522 1.368 . S
C2526 C2525 1.523 . S
H2527 C2502 0.950 . S
H2528 C2504 0.950 . S
H2529 C2505 0.949 . S
H2530 C2507 0.950 . S
H2531 C2509 0.950 . S
C2532 C2533 1.349 . S
C2532 C2534 1.327 . S
C2532 H2557 0.950 . S
C2533 C2532 1.349 . S
C2533 C2549 1.349 . S
C2534 C2532 1.327 . S
C2534 C2553 1.429 . S
C2534 H2558 0.950 . S
C2535 C2552 1.574 1_655 S
C2535 C2554 1.368 . S
C2535 H2559 0.949 . S
H2536 C2540 0.949 . S
C2537 C2538 1.349 . S
C2537 C2539 1.327 . S
C2537 H2560 0.950 . S
C2538 C2537 1.349 . S
C2538 C2550 1.349 . S
C2539 C2537 1.327 . S
C2539 C2555 1.429 . S
C2539 H2561 0.950 . S
C2540 H2536 0.949 . S
C2540 C2548 1.574 1_455 S
C2540 C2556 1.368 . S
H2541 C2549 0.950 . S
H2542 C2547 0.950 . S
H2543 C2548 0.949 . S
H2544 C2550 0.950 . S
H2545 C2551 0.950 . S
H2546 C2552 0.949 . S
C2547 H2542 0.950 . S
C2547 C2549 1.327 . S
C2547 C2553 1.429 . S
C2548 C2540 1.574 1_655 S
C2548 H2543 0.949 . S
C2548 C2554 1.368 . S
C2549 C2533 1.349 . S
C2549 H2541 0.950 . S
C2549 C2547 1.327 . S
C2550 C2538 1.349 . S
C2550 H2544 0.950 . S
C2550 C2551 1.327 . S
C2551 H2545 0.950 . S
C2551 C2550 1.327 . S
C2551 C2555 1.429 . S
C2552 C2535 1.574 1_455 S
C2552 H2546 0.949 . S
C2552 C2556 1.368 . S
C2553 C2534 1.429 . S
C2553 C2547 1.429 . S
C2553 C2554 1.523 . S
C2554 C2535 1.368 . S
C2554 C2548 1.368 . S
C2554 C2553 1.523 . S
C2555 C2539 1.429 . S
C2555 C2551 1.429 . S
C2555 C2556 1.523 . S
C2556 C2540 1.368 . S
C2556 C2552 1.368 . S
C2556 C2555 1.523 . S
H2557 C2532 0.950 . S
H2558 C2534 0.950 . S
H2559 C2535 0.949 . S
H2560 C2537 0.950 . S
H2561 C2539 0.950 . S
C2562 C2563 1.349 . S
C2562 C2564 1.327 . S
C2562 H2587 0.950 . S
C2563 C2562 1.349 . S
C2563 C2579 1.349 . S
C2564 C2562 1.327 . S
C2564 C2583 1.429 . S
C2564 H2588 0.950 . S
C2565 C2582 1.574 . S
C2565 C2584 1.368 . S
C2565 H2589 0.949 . S
H2566 C2570 0.949 . S
C2567 C2568 1.349 . S
C2567 C2569 1.327 . S
C2567 H2590 0.950 . S
C2568 C2567 1.349 . S
C2568 C2580 1.349 . S
C2569 C2567 1.327 . S
C2569 C2585 1.429 . S
C2569 H2591 0.950 . S
C2570 H2566 0.949 . S
C2570 C2578 1.574 . S
C2570 C2586 1.368 . S
H2571 C2579 0.950 . S
H2572 C2577 0.950 . S
H2573 C2578 0.949 . S
H2574 C2580 0.950 . S
H2575 C2581 0.950 . S
H2576 C2582 0.949 . S
C2577 H2572 0.950 . S
C2577 C2579 1.327 . S
C2577 C2583 1.429 . S
C2578 C2570 1.574 . S
C2578 H2573 0.949 . S
C2578 C2584 1.368 . S
C2579 C2563 1.349 . S
C2579 H2571 0.950 . S
C2579 C2577 1.327 . S
C2580 C2568 1.349 . S
C2580 H2574 0.950 . S
C2580 C2581 1.327 . S
C2581 H2575 0.950 . S
C2581 C2580 1.327 . S
C2581 C2585 1.429 . S
C2582 C2565 1.574 . S
C2582 H2576 0.949 . S
C2582 C2586 1.368 . S
C2583 C2564 1.429 . S
C2583 C2577 1.429 . S
C2583 C2584 1.523 . S
C2584 C2565 1.368 . S
C2584 C2578 1.368 . S
C2584 C2583 1.523 . S
C2585 C2569 1.429 . S
C2585 C2581 1.429 . S
C2585 C2586 1.523 . S
C2586 C2570 1.368 . S
C2586 C2582 1.368 . S
C2586 C2585 1.523 . S
H2587 C2562 0.950 . S
H2588 C2564 0.950 . S
H2589 C2565 0.949 . S
H2590 C2567 0.950 . S
H2591 C2569 0.950 . S
C2592 C2593 1.349 . S
C2592 C2594 1.327 . S
C2592 H2617 0.950 . S
C2593 C2592 1.349 . S
C2593 C2609 1.349 . S
C2594 C2592 1.327 . S
C2594 C2613 1.429 . S
C2594 H2618 0.950 . S
C2595 C2612 1.574 . S
C2595 C2614 1.368 . S
C2595 H2619 0.949 . S
H2596 C2600 0.949 . S
C2597 C2598 1.349 . S
C2597 C2599 1.327 . S
C2597 H2620 0.950 . S
C2598 C2597 1.349 . S
C2598 C2610 1.349 . S
C2599 C2597 1.327 . S
C2599 C2615 1.429 . S
C2599 H2621 0.950 . S
C2600 H2596 0.949 . S
C2600 C2608 1.574 . S
C2600 C2616 1.368 . S
H2601 C2609 0.950 . S
H2602 C2607 0.950 . S
H2603 C2608 0.949 . S
H2604 C2610 0.950 . S
H2605 C2611 0.950 . S
H2606 C2612 0.949 . S
C2607 H2602 0.950 . S
C2607 C2609 1.327 . S
C2607 C2613 1.429 . S
C2608 C2600 1.574 . S
C2608 H2603 0.949 . S
C2608 C2614 1.368 . S
C2609 C2593 1.349 . S
C2609 H2601 0.950 . S
C2609 C2607 1.327 . S
C2610 C2598 1.349 . S
C2610 H2604 0.950 . S
C2610 C2611 1.327 . S
C2611 H2605 0.950 . S
C2611 C2610 1.327 . S
C2611 C2615 1.429 . S
C2612 C2595 1.574 . S
C2612 H2606 0.949 . S
C2612 C2616 1.368 . S
C2613 C2594 1.429 . S
C2613 C2607 1.429 . S
C2613 C2614 1.523 . S
C2614 C2595 1.368 . S
C2614 C2608 1.368 . S
C2614 C2613 1.523 . S
C2615 C2599 1.429 . S
C2615 C2611 1.429 . S
C2615 C2616 1.523 . S
C2616 C2600 1.368 . S
C2616 C2612 1.368 . S
C2616 C2615 1.523 . S
H2617 C2592 0.950 . S
H2618 C2594 0.950 . S
H2619 C2595 0.949 . S
H2620 C2597 0.950 . S
H2621 C2599 0.950 . S
C2622 C2623 1.349 . S
C2622 C2624 1.327 . S
C2622 H2647 0.950 . S
C2623 C2622 1.349 . S
C2623 C2639 1.349 . S
C2624 C2622 1.327 . S
C2624 C2643 1.429 . S
C2624 H2648 0.950 . S
C2625 C2642 1.574 . S
C2625 C2644 1.368 1_545 S
C2625 H2649 0.949 . S
H2626 C2630 0.949 . S
C2627 C2628 1.349 . S
C2627 C2629 1.327 . S
C2627 H2650 0.950 . S
C2628 C2627 1.349 . S
C2628 C2640 1.349 . S
C2629 C2627 1.327 . S
C2629 C2645 1.429 . S
C2629 H2651 0.950 . S
C2630 H2626 0.949 . S
C2630 C2638 1.574 . S
C2630 C2646 1.368 1_565 S
H2631 C2639 0.950 . S
H2632 C2637 0.950 1_545 S
H2633 C2638 0.949 . S
H2634 C2640 0.950 . S
H2635 C2641 0.950 1_565 S
H2636 C2642 0.949 . S
C2637 H2632 0.950 1_565 S
C2637 C2639 1.327 . S
C2637 C2643 1.429 . S
C2638 C2630 1.574 . S
C2638 H2633 0.949 . S
C2638 C2644 1.368 . S
C2639 C2623 1.349 . S
C2639 H2631 0.950 . S
C2639 C2637 1.327 . S
C2640 C2628 1.349 . S
C2640 H2634 0.950 . S
C2640 C2641 1.327 . S
C2641 H2635 0.950 1_545 S
C2641 C2640 1.327 . S
C2641 C2645 1.429 . S
C2642 C2625 1.574 . S
C2642 H2636 0.949 . S
C2642 C2646 1.368 . S
C2643 C2624 1.429 . S
C2643 C2637 1.429 . S
C2643 C2644 1.523 . S
C2644 C2625 1.368 1_565 S
C2644 C2638 1.368 . S
C2644 C2643 1.523 . S
C2645 C2629 1.429 . S
C2645 C2641 1.429 . S
C2645 C2646 1.523 . S
C2646 C2630 1.368 1_545 S
C2646 C2642 1.368 . S
C2646 C2645 1.523 . S
H2647 C2622 0.950 . S
H2648 C2624 0.950 . S
H2649 C2625 0.949 . S
H2650 C2627 0.950 . S
H2651 C2629 0.950 . S
C2652 C2653 1.349 . S
C2652 C2654 1.327 . S
C2652 H2677 0.950 . S
C2653 C2652 1.349 . S
C2653 C2669 1.349 . S
C2654 C2652 1.327 . S
C2654 C2673 1.429 . S
C2654 H2678 0.950 . S
C2655 C2672 1.574 . S
C2655 C2674 1.368 . S
C2655 H2679 0.949 . S
H2656 C2660 0.949 . S
C2657 C2658 1.349 . S
C2657 C2659 1.327 . S
C2657 H2680 0.950 . S
C2658 C2657 1.349 . S
C2658 C2670 1.349 . S
C2659 C2657 1.327 . S
C2659 C2675 1.429 . S
C2659 H2681 0.950 . S
C2660 H2656 0.949 . S
C2660 C2668 1.574 . S
C2660 C2676 1.368 . S
H2661 C2669 0.950 . S
H2662 C2667 0.950 . S
H2663 C2668 0.949 . S
H2664 C2670 0.950 . S
H2665 C2671 0.950 . S
H2666 C2672 0.949 . S
C2667 H2662 0.950 . S
C2667 C2669 1.327 . S
C2667 C2673 1.429 . S
C2668 C2660 1.574 . S
C2668 H2663 0.949 . S
C2668 C2674 1.368 . S
C2669 C2653 1.349 . S
C2669 H2661 0.950 . S
C2669 C2667 1.327 . S
C2670 C2658 1.349 . S
C2670 H2664 0.950 . S
C2670 C2671 1.327 . S
C2671 H2665 0.950 . S
C2671 C2670 1.327 . S
C2671 C2675 1.429 . S
C2672 C2655 1.574 . S
C2672 H2666 0.949 . S
C2672 C2676 1.368 . S
C2673 C2654 1.429 . S
C2673 C2667 1.429 . S
C2673 C2674 1.523 . S
C2674 C2655 1.368 . S
C2674 C2668 1.368 . S
C2674 C2673 1.523 . S
C2675 C2659 1.429 . S
C2675 C2671 1.429 . S
C2675 C2676 1.523 . S
C2676 C2660 1.368 . S
C2676 C2672 1.368 . S
C2676 C2675 1.523 . S
H2677 C2652 0.950 . S
H2678 C2654 0.950 . S
H2679 C2655 0.949 . S
H2680 C2657 0.950 . S
H2681 C2659 0.950 . S
C2682 C2683 1.349 . S
C2682 C2684 1.327 . S
C2682 H2707 0.950 . S
C2683 C2682 1.349 . S
C2683 C2699 1.349 . S
C2684 C2682 1.327 . S
C2684 C2703 1.429 . S
C2684 H2708 0.950 1_556 S
C2685 C2702 1.574 . S
C2685 C2704 1.368 1_565 S
C2685 H2709 0.949 . S
H2686 C2690 0.949 . S
C2687 C2688 1.349 . S
C2687 C2689 1.327 . S
C2687 H2710 0.950 . S
C2688 C2687 1.349 . S
C2688 C2700 1.349 . S
C2689 C2687 1.327 . S
C2689 C2705 1.429 . S
C2689 H2711 0.950 . S
C2690 H2686 0.949 . S
C2690 C2698 1.574 . S
C2690 C2706 1.368 1_545 S
H2691 C2699 0.950 . S
H2692 C2697 0.950 1_565 S
H2693 C2698 0.949 . S
H2694 C2700 0.950 . S
H2695 C2701 0.883 1_545 S
H2696 C2702 0.949 . S
C2697 H2692 0.950 1_545 S
C2697 C2699 1.327 . S
C2697 C2703 1.429 . S
C2698 C2690 1.574 . S
C2698 H2693 0.949 . S
C2698 C2704 1.368 . S
C2699 C2683 1.349 . S
C2699 H2691 0.950 . S
C2699 C2697 1.327 . S
C2700 C2688 1.349 . S
C2700 H2694 0.950 . S
C2700 C2701 1.327 . S
C2701 H2695 0.883 1_565 S
C2701 C2700 1.327 . S
C2701 C2705 1.429 . S
C2702 C2685 1.574 . S
C2702 H2696 0.949 . S
C2702 C2706 1.368 . S
C2703 C2684 1.429 . S
C2703 C2697 1.429 . S
C2703 C2704 1.523 1_556 S
C2704 C2685 1.368 1_545 S
C2704 C2698 1.368 . S
C2704 C2703 1.523 1_554 S
C2705 C2689 1.429 . S
C2705 C2701 1.429 . S
C2705 C2706 1.523 . S
C2706 C2690 1.368 1_565 S
C2706 C2702 1.368 . S
C2706 C2705 1.523 . S
H2707 C2682 0.950 . S
H2708 C2684 0.950 1_554 S
H2709 C2685 0.949 . S
H2710 C2687 0.950 . S
H2711 C2689 0.950 . S
C2712 C2713 1.349 . S
C2712 C2714 1.327 . S
C2712 H2737 0.950 . S
C2713 C2712 1.349 . S
C2713 C2729 1.349 . S
C2714 C2712 1.327 . S
C2714 C2733 1.429 . S
C2714 H2738 0.950 . S
C2715 C2732 1.574 . S
C2715 C2734 1.368 . S
C2715 H2739 0.949 . S
H2716 C2720 0.949 . S
C2717 C2718 1.349 . S
C2717 C2719 1.327 . S
C2717 H2740 0.950 . S
C2718 C2717 1.349 . S
C2718 C2730 1.349 . S
C2719 C2717 1.327 . S
C2719 C2735 1.429 . S
C2719 H2741 0.950 . S
C2720 H2716 0.949 . S
C2720 C2728 1.574 . S
C2720 C2736 1.368 . S
H2721 C2729 0.950 . S
H2722 C2727 0.950 . S
H2723 C2728 0.949 . S
H2724 C2730 0.950 . S
H2725 C2731 0.950 . S
H2726 C2732 0.949 . S
C2727 H2722 0.950 . S
C2727 C2729 1.327 . S
C2727 C2733 1.429 . S
C2728 C2720 1.574 . S
C2728 H2723 0.949 . S
C2728 C2734 1.368 . S
C2729 C2713 1.349 . S
C2729 H2721 0.950 . S
C2729 C2727 1.327 . S
C2730 C2718 1.349 . S
C2730 H2724 0.950 . S
C2730 C2731 1.327 . S
C2731 H2725 0.950 . S
C2731 C2730 1.327 . S
C2731 C2735 1.429 . S
C2732 C2715 1.574 . S
C2732 H2726 0.949 . S
C2732 C2736 1.368 . S
C2733 C2714 1.429 . S
C2733 C2727 1.429 . S
C2733 C2734 1.523 . S
C2734 C2715 1.368 . S
C2734 C2728 1.368 . S
C2734 C2733 1.523 . S
C2735 C2719 1.429 . S
C2735 C2731 1.429 . S
C2735 C2736 1.523 . S
C2736 C2720 1.368 . S
C2736 C2732 1.368 . S
C2736 C2735 1.523 . S
H2737 C2712 0.950 . S
H2738 C2714 0.950 . S
H2739 C2715 0.949 . S
H2740 C2717 0.950 . S
H2741 C2719 0.950 . S
C2742 C2743 1.349 . S
C2742 C2744 1.327 . S
C2742 H2767 0.950 . S
C2743 C2742 1.349 . S
C2743 C2759 1.349 . S
C2744 C2742 1.327 . S
C2744 C2763 1.429 . S
C2744 H2768 0.950 . S
C2745 C2762 1.574 1_545 S
C2745 C2764 1.368 . S
C2745 H2769 0.949 . S
H2746 C2750 0.949 . S
C2747 C2748 1.349 . S
C2747 C2749 1.327 . S
C2747 H2770 0.950 . S
C2748 C2747 1.349 . S
C2748 C2760 1.349 . S
C2749 C2747 1.327 . S
C2749 C2765 1.429 . S
C2749 H2771 0.950 . S
C2750 H2746 0.949 . S
C2750 C2758 1.574 1_565 S
C2750 C2766 1.368 . S
H2751 C2759 0.950 . S
H2752 C2757 0.950 . S
H2753 C2758 0.949 . S
H2754 C2760 0.950 . S
H2755 C2761 0.950 . S
H2756 C2762 0.949 . S
C2757 H2752 0.950 . S
C2757 C2759 1.327 . S
C2757 C2763 1.429 . S
C2758 C2750 1.574 1_545 S
C2758 H2753 0.949 . S
C2758 C2764 1.368 . S
C2759 C2743 1.349 . S
C2759 H2751 0.950 . S
C2759 C2757 1.327 . S
C2760 C2748 1.349 . S
C2760 H2754 0.950 . S
C2760 C2761 1.327 . S
C2761 H2755 0.950 . S
C2761 C2760 1.327 . S
C2761 C2765 1.429 . S
C2762 C2745 1.574 1_565 S
C2762 H2756 0.949 . S
C2762 C2766 1.368 . S
C2763 C2744 1.429 . S
C2763 C2757 1.429 . S
C2763 C2764 1.523 . S
C2764 C2745 1.368 . S
C2764 C2758 1.368 . S
C2764 C2763 1.523 . S
C2765 C2749 1.429 . S
C2765 C2761 1.429 . S
C2765 C2766 1.523 . S
C2766 C2750 1.368 . S
C2766 C2762 1.368 . S
C2766 C2765 1.523 . S
H2767 C2742 0.950 . S
H2768 C2744 0.950 . S
H2769 C2745 0.949 . S
H2770 C2747 0.950 . S
H2771 C2749 0.950 . S
C2772 C2773 1.349 . S
C2772 C2774 1.327 . S
C2772 H2797 0.950 . S
C2773 C2772 1.349 . S
C2773 C2789 1.349 . S
C2774 C2772 1.327 . S
C2774 C2793 1.429 . S
C2774 H2798 0.950 . S
C2775 C2792 1.574 . S
C2775 C2794 1.368 . S
C2775 H2799 0.949 . S
H2776 C2780 0.949 . S
C2777 C2778 1.349 . S
C2777 C2779 1.327 . S
C2777 H2800 0.950 . S
C2778 C2777 1.349 . S
C2778 C2790 1.349 . S
C2779 C2777 1.327 . S
C2779 C2795 1.429 . S
C2779 H2801 0.950 . S
C2780 H2776 0.949 . S
C2780 C2788 1.574 . S
C2780 C2796 1.368 . S
H2781 C2789 0.950 . S
H2782 C2787 0.950 . S
H2783 C2788 0.949 . S
H2784 C2790 0.950 . S
H2785 C2791 0.950 . S
H2786 C2792 0.949 . S
C2787 H2782 0.950 . S
C2787 C2789 1.327 . S
C2787 C2793 1.429 . S
C2788 C2780 1.574 . S
C2788 H2783 0.949 . S
C2788 C2794 1.368 . S
C2789 C2773 1.349 . S
C2789 H2781 0.950 . S
C2789 C2787 1.327 . S
C2790 C2778 1.349 . S
C2790 H2784 0.950 . S
C2790 C2791 1.327 . S
C2791 H2785 0.950 . S
C2791 C2790 1.327 . S
C2791 C2795 1.429 . S
C2792 C2775 1.574 . S
C2792 H2786 0.949 . S
C2792 C2796 1.368 . S
C2793 C2774 1.429 . S
C2793 C2787 1.429 . S
C2793 C2794 1.523 . S
C2794 C2775 1.368 . S
C2794 C2788 1.368 . S
C2794 C2793 1.523 . S
C2795 C2779 1.429 . S
C2795 C2791 1.429 . S
C2795 C2796 1.523 . S
C2796 C2780 1.368 . S
C2796 C2792 1.368 . S
C2796 C2795 1.523 . S
H2797 C2772 0.950 . S
H2798 C2774 0.950 . S
H2799 C2775 0.949 . S
H2800 C2777 0.950 . S
H2801 C2779 0.950 . S
C2802 C2803 1.349 . S
C2802 C2804 1.327 . S
C2802 H2827 0.950 . S
C2803 C2802 1.349 . S
C2803 C2819 1.349 . S
C2804 C2802 1.327 . S
C2804 C2823 1.429 . S
C2804 H2828 0.950 . S
C2805 C2822 1.574 . S
C2805 C2824 1.368 . S
C2805 H2829 0.949 . S
H2806 C2810 0.949 . S
C2807 C2808 1.349 . S
C2807 C2809 1.327 . S
C2807 H2830 0.950 . S
C2808 C2807 1.349 . S
C2808 C2820 1.349 . S
C2809 C2807 1.327 . S
C2809 C2825 1.429 . S
C2809 H2831 0.950 . S
C2810 H2806 0.949 . S
C2810 C2818 1.574 . S
C2810 C2826 1.368 . S
H2811 C2819 0.950 . S
H2812 C2817 0.950 . S
H2813 C2818 0.949 . S
H2814 C2820 0.950 . S
H2815 C2821 0.950 1_554 S
H2816 C2822 0.949 . S
C2817 H2812 0.950 . S
C2817 C2819 1.327 . S
C2817 C2823 1.429 . S
C2818 C2810 1.574 . S
C2818 H2813 0.949 . S
C2818 C2824 1.368 1_545 S
C2819 C2803 1.349 . S
C2819 H2811 0.950 . S
C2819 C2817 1.327 . S
C2820 C2808 1.349 . S
C2820 H2814 0.950 . S
C2820 C2821 1.327 . S
C2821 H2815 0.950 1_556 S
C2821 C2820 1.327 . S
C2821 C2825 1.429 . S
C2822 C2805 1.574 . S
C2822 H2816 0.949 . S
C2822 C2826 1.368 1_565 S
C2823 C2804 1.429 . S
C2823 C2817 1.429 . S
C2823 C2824 1.523 . S
C2824 C2805 1.368 . S
C2824 C2818 1.368 1_565 S
C2824 C2823 1.523 . S
C2825 C2809 1.429 . S
C2825 C2821 1.429 . S
C2825 C2826 1.523 1_556 S
C2826 C2810 1.368 . S
C2826 C2822 1.368 1_545 S
C2826 C2825 1.523 1_554 S
H2827 C2802 0.950 . S
H2828 C2804 0.950 . S
H2829 C2805 0.949 . S
H2830 C2807 0.950 . S
H2831 C2809 0.950 . S
C2832 C2833 1.349 . S
C2832 C2834 1.327 . S
C2832 H2857 0.950 . S
C2833 C2832 1.349 . S
C2833 C2849 1.349 . S
C2834 C2832 1.327 . S
C2834 C2853 1.429 . S
C2834 H2858 0.950 . S
C2835 C2852 1.574 . S
C2835 C2854 1.368 . S
C2835 H2859 0.949 . S
H2836 C2840 0.949 . S
C2837 C2838 1.349 . S
C2837 C2839 1.327 . S
C2837 H2860 0.950 . S
C2838 C2837 1.349 . S
C2838 C2850 1.349 . S
C2839 C2837 1.327 . S
C2839 C2855 1.429 . S
C2839 H2861 0.950 . S
C2840 H2836 0.949 . S
C2840 C2848 1.574 . S
C2840 C2856 1.368 . S
H2841 C2849 0.950 . S
H2842 C2847 0.950 . S
H2843 C2848 0.949 . S
H2844 C2850 0.950 . S
H2845 C2851 0.950 . S
H2846 C2852 0.949 . S
C2847 H2842 0.950 . S
C2847 C2849 1.327 . S
C2847 C2853 1.429 . S
C2848 C2840 1.574 . S
C2848 H2843 0.949 . S
C2848 C2854 1.368 . S
C2849 C2833 1.349 . S
C2849 H2841 0.950 . S
C2849 C2847 1.327 . S
C2850 C2838 1.349 . S
C2850 H2844 0.950 . S
C2850 C2851 1.327 . S
C2851 H2845 0.950 . S
C2851 C2850 1.327 . S
C2851 C2855 1.429 . S
C2852 C2835 1.574 . S
C2852 H2846 0.949 . S
C2852 C2856 1.368 . S
C2853 C2834 1.429 . S
C2853 C2847 1.429 . S
C2853 C2854 1.523 . S
C2854 C2835 1.368 . S
C2854 C2848 1.368 . S
C2854 C2853 1.523 . S
C2855 C2839 1.429 . S
C2855 C2851 1.429 . S
C2855 C2856 1.523 . S
C2856 C2840 1.368 . S
C2856 C2852 1.368 . S
C2856 C2855 1.523 . S
H2857 C2832 0.950 . S
H2858 C2834 0.950 . S
H2859 C2835 0.949 . S
H2860 C2837 0.950 . S
H2861 C2839 0.950 . S
C2862 C2863 1.349 . S
C2862 C2864 1.327 . S
C2862 H2887 0.950 . S
C2863 C2862 1.349 . S
C2863 C2879 1.349 . S
C2864 C2862 1.327 . S
C2864 C2883 1.429 . S
C2864 H2888 0.950 . S
C2865 C2882 1.574 . S
C2865 C2884 1.368 . S
C2865 H2889 0.949 . S
H2866 C2870 0.949 . S
C2867 C2868 1.349 . S
C2867 C2869 1.327 . S
C2867 H2890 0.950 . S
C2868 C2867 1.349 . S
C2868 C2880 1.349 . S
C2869 C2867 1.327 . S
C2869 C2885 1.429 . S
C2869 H2891 0.950 . S
C2870 H2866 0.949 . S
C2870 C2878 1.574 . S
C2870 C2886 1.368 . S
H2871 C2879 0.950 . S
H2872 C2877 0.950 . S
H2873 C2878 0.949 . S
H2874 C2880 0.950 . S
H2875 C2881 0.950 1_554 S
H2876 C2882 0.949 . S
C2877 H2872 0.950 . S
C2877 C2879 1.327 . S
C2877 C2883 1.429 . S
C2878 C2870 1.574 . S
C2878 H2873 0.949 . S
C2878 C2884 1.368 . S
C2879 C2863 1.349 . S
C2879 H2871 0.950 . S
C2879 C2877 1.327 . S
C2880 C2868 1.349 . S
C2880 H2874 0.950 . S
C2880 C2881 1.327 . S
C2881 H2875 0.950 1_556 S
C2881 C2880 1.327 . S
C2881 C2885 1.429 . S
C2882 C2865 1.574 . S
C2882 H2876 0.949 . S
C2882 C2886 1.368 . S
C2883 C2864 1.429 . S
C2883 C2877 1.429 . S
C2883 C2884 1.523 . S
C2884 C2865 1.368 . S
C2884 C2878 1.368 . S
C2884 C2883 1.523 . S
C2885 C2869 1.429 . S
C2885 C2881 1.429 . S
C2885 C2886 1.523 1_556 S
C2886 C2870 1.368 . S
C2886 C2882 1.368 . S
C2886 C2885 1.523 1_554 S
H2887 C2862 0.950 . S
H2888 C2864 0.950 . S
H2889 C2865 0.949 . S
H2890 C2867 0.950 . S
H2891 C2869 0.950 . S
C2892 C2893 1.349 . S
C2892 C2894 1.327 . S
C2892 H2917 0.950 . S
C2893 C2892 1.349 . S
C2893 C2909 1.349 . S
C2894 C2892 1.327 . S
C2894 C2913 1.429 . S
C2894 H2918 0.950 . S
C2895 C2912 1.574 . S
C2895 C2914 1.368 . S
C2895 H2919 0.949 . S
H2896 C2900 0.949 . S
C2897 C2898 1.349 . S
C2897 C2899 1.327 . S
C2897 H2920 0.950 . S
C2898 C2897 1.349 . S
C2898 C2910 1.349 . S
C2899 C2897 1.327 . S
C2899 C2915 1.429 . S
C2899 H2921 0.950 . S
C2900 H2896 0.949 . S
C2900 C2908 1.574 . S
C2900 C2916 1.368 . S
H2901 C2909 0.950 . S
H2902 C2907 0.950 . S
H2903 C2908 0.949 . S
H2904 C2910 0.950 . S
H2905 C2911 0.950 . S
H2906 C2912 0.949 . S
C2907 H2902 0.950 . S
C2907 C2909 1.327 . S
C2907 C2913 1.429 . S
C2908 C2900 1.574 . S
C2908 H2903 0.949 . S
C2908 C2914 1.368 . S
C2909 C2893 1.349 . S
C2909 H2901 0.950 . S
C2909 C2907 1.327 . S
C2910 C2898 1.349 . S
C2910 H2904 0.950 . S
C2910 C2911 1.327 . S
C2911 H2905 0.950 . S
C2911 C2910 1.327 . S
C2911 C2915 1.429 . S
C2912 C2895 1.574 . S
C2912 H2906 0.949 . S
C2912 C2916 1.368 . S
C2913 C2894 1.429 . S
C2913 C2907 1.429 . S
C2913 C2914 1.523 . S
C2914 C2895 1.368 . S
C2914 C2908 1.368 . S
C2914 C2913 1.523 . S
C2915 C2899 1.429 . S
C2915 C2911 1.429 . S
C2915 C2916 1.523 . S
C2916 C2900 1.368 . S
C2916 C2912 1.368 . S
C2916 C2915 1.523 . S
H2917 C2892 0.950 . S
H2918 C2894 0.950 . S
H2919 C2895 0.949 . S
H2920 C2897 0.950 . S
H2921 C2899 0.950 . S
C2922 C2923 1.349 . S
C2922 C2924 1.327 . S
C2922 H2947 0.950 . S
C2923 C2922 1.349 . S
C2923 C2939 1.349 . S
C2924 C2922 1.327 . S
C2924 C2943 1.429 . S
C2924 H2948 0.950 . S
C2925 C2942 1.574 . S
C2925 C2944 1.368 . S
C2925 H2949 0.949 . S
H2926 C2930 0.949 . S
C2927 C2928 1.349 . S
C2927 C2929 1.327 . S
C2927 H2950 0.950 . S
C2928 C2927 1.349 . S
C2928 C2940 1.349 . S
C2929 C2927 1.327 . S
C2929 C2945 1.429 . S
C2929 H2951 0.950 . S
C2930 H2926 0.949 . S
C2930 C2938 1.574 . S
C2930 C2946 1.368 . S
H2931 C2939 0.950 . S
H2932 C2937 0.950 . S
H2933 C2938 0.949 . S
H2934 C2940 0.950 . S
H2935 C2941 0.950 . S
H2936 C2942 0.949 . S
C2937 H2932 0.950 . S
C2937 C2939 1.327 . S
C2937 C2943 1.429 . S
C2938 C2930 1.574 . S
C2938 H2933 0.949 . S
C2938 C2944 1.368 . S
C2939 C2923 1.349 . S
C2939 H2931 0.950 . S
C2939 C2937 1.327 . S
C2940 C2928 1.349 . S
C2940 H2934 0.950 . S
C2940 C2941 1.327 . S
C2941 H2935 0.950 . S
C2941 C2940 1.327 . S
C2941 C2945 1.429 . S
C2942 C2925 1.574 . S
C2942 H2936 0.949 . S
C2942 C2946 1.368 . S
C2943 C2924 1.429 . S
C2943 C2937 1.429 . S
C2943 C2944 1.523 . S
C2944 C2925 1.368 . S
C2944 C2938 1.368 . S
C2944 C2943 1.523 . S
C2945 C2929 1.429 . S
C2945 C2941 1.429 . S
C2945 C2946 1.523 . S
C2946 C2930 1.368 . S
C2946 C2942 1.368 . S
C2946 C2945 1.523 . S
H2947 C2922 0.950 . S
H2948 C2924 0.950 . S
H2949 C2925 0.949 . S
H2950 C2927 0.950 . S
H2951 C2929 0.950 . S
C2952 C2953 1.349 . S
C2952 C2954 1.327 . S
C2952 H2977 0.950 . S
C2953 C2952 1.349 . S
C2953 C2969 1.349 . S
C2954 C2952 1.327 . S
C2954 C2973 1.429 . S
C2954 H2978 0.950 . S
C2955 C2972 1.574 . S
C2955 C2974 1.368 . S
C2955 H2979 0.949 . S
H2956 C2960 0.949 . S
C2957 C2958 1.349 . S
C2957 C2959 1.327 . S
C2957 H2980 0.950 . S
C2958 C2957 1.349 . S
C2958 C2970 1.349 . S
C2959 C2957 1.327 . S
C2959 C2975 1.429 . S
C2959 H2981 0.950 . S
C2960 H2956 0.949 . S
C2960 C2968 1.574 . S
C2960 C2976 1.368 . S
H2961 C2969 0.950 . S
H2962 C2967 0.950 . S
H2963 C2968 0.949 . S
H2964 C2970 0.950 . S
H2965 C2971 0.950 . S
H2966 C2972 0.949 . S
C2967 H2962 0.950 . S
C2967 C2969 1.327 . S
C2967 C2973 1.429 . S
C2968 C2960 1.574 . S
C2968 H2963 0.949 . S
C2968 C2974 1.368 . S
C2969 C2953 1.349 . S
C2969 H2961 0.950 . S
C2969 C2967 1.327 . S
C2970 C2958 1.349 . S
C2970 H2964 0.950 . S
C2970 C2971 1.327 . S
C2971 H2965 0.950 . S
C2971 C2970 1.327 . S
C2971 C2975 1.429 . S
C2972 C2955 1.574 . S
C2972 H2966 0.949 . S
C2972 C2976 1.368 . S
C2973 C2954 1.429 . S
C2973 C2967 1.429 . S
C2973 C2974 1.523 . S
C2974 C2955 1.368 . S
C2974 C2968 1.368 . S
C2974 C2973 1.523 . S
C2975 C2959 1.429 . S
C2975 C2971 1.429 . S
C2975 C2976 1.523 . S
C2976 C2960 1.368 . S
C2976 C2972 1.368 . S
C2976 C2975 1.523 . S
H2977 C2952 0.950 . S
H2978 C2954 0.950 . S
H2979 C2955 0.949 . S
H2980 C2957 0.950 . S
H2981 C2959 0.950 . S
C2982 C2983 1.349 . S
C2982 C2984 1.327 . S
C2982 H3007 0.950 . S
C2983 C2982 1.349 . S
C2983 C2999 1.349 . S
C2984 C2982 1.327 . S
C2984 C3003 1.429 . S
C2984 H3008 0.950 . S
C2985 C3002 1.574 . S
C2985 C3004 1.368 . S
C2985 H3009 0.949 . S
H2986 C2990 0.949 . S
C2987 C2988 1.349 . S
C2987 C2989 1.327 . S
C2987 H3010 0.950 . S
C2988 C2987 1.349 . S
C2988 C3000 1.349 . S
C2989 C2987 1.327 . S
C2989 C3005 1.429 . S
C2989 H3011 0.950 . S
C2990 H2986 0.949 . S
C2990 C2998 1.574 . S
C2990 C3006 1.368 . S
H2991 C2999 0.950 . S
H2992 C2997 0.950 1_554 S
H2993 C2998 0.949 . S
H2994 C3000 0.950 . S
H2995 C3001 0.950 . S
H2996 C3002 0.949 . S
C2997 H2992 0.950 1_556 S
C2997 C2999 1.327 . S
C2997 C3003 1.429 . S
C2998 C2990 1.574 . S
C2998 H2993 0.949 . S
C2998 C3004 1.368 . S
C2999 C2983 1.349 . S
C2999 H2991 0.950 . S
C2999 C2997 1.327 . S
C3000 C2988 1.349 . S
C3000 H2994 0.950 . S
C3000 C3001 1.327 . S
C3001 H2995 0.950 . S
C3001 C3000 1.327 . S
C3001 C3005 1.429 . S
C3002 C2985 1.574 . S
C3002 H2996 0.949 . S
C3002 C3006 1.368 . S
C3003 C2984 1.429 . S
C3003 C2997 1.429 . S
C3003 C3004 1.523 1_556 S
C3004 C2985 1.368 . S
C3004 C2998 1.368 . S
C3004 C3003 1.523 1_554 S
C3005 C2989 1.429 . S
C3005 C3001 1.429 . S
C3005 C3006 1.523 . S
C3006 C2990 1.368 . S
C3006 C3002 1.368 . S
C3006 C3005 1.523 . S
H3007 C2982 0.950 . S
H3008 C2984 0.950 . S
H3009 C2985 0.949 . S
H3010 C2987 0.950 . S
H3011 C2989 0.950 . S
C3012 C3013 1.349 . S
C3012 C3014 1.327 . S
C3012 H3037 0.950 . S
C3013 C3012 1.349 . S
C3013 C3029 1.349 . S
C3014 C3012 1.327 . S
C3014 C3033 1.429 . S
C3014 H3038 0.950 . S
C3015 C3032 1.574 . S
C3015 C3034 1.368 . S
C3015 H3039 0.949 . S
H3016 C3020 0.949 . S
C3017 C3018 1.349 . S
C3017 C3019 1.327 . S
C3017 H3040 0.950 . S
C3018 C3017 1.349 . S
C3018 C3030 1.349 . S
C3019 C3017 1.327 . S
C3019 C3035 1.429 . S
C3019 H3041 0.950 . S
C3020 H3016 0.949 . S
C3020 C3028 1.574 . S
C3020 C3036 1.368 . S
H3021 C3029 0.950 . S
H3022 C3027 0.950 . S
H3023 C3028 0.949 . S
H3024 C3030 0.950 . S
H3025 C3031 0.950 . S
H3026 C3032 0.949 . S
C3027 H3022 0.950 . S
C3027 C3029 1.327 . S
C3027 C3033 1.429 . S
C3028 C3020 1.574 . S
C3028 H3023 0.949 . S
C3028 C3034 1.368 . S
C3029 C3013 1.349 . S
C3029 H3021 0.950 . S
C3029 C3027 1.327 . S
C3030 C3018 1.349 . S
C3030 H3024 0.950 . S
C3030 C3031 1.327 . S
C3031 H3025 0.950 . S
C3031 C3030 1.327 . S
C3031 C3035 1.429 . S
C3032 C3015 1.574 . S
C3032 H3026 0.949 . S
C3032 C3036 1.368 . S
C3033 C3014 1.429 . S
C3033 C3027 1.429 . S
C3033 C3034 1.523 . S
C3034 C3015 1.368 . S
C3034 C3028 1.368 . S
C3034 C3033 1.523 . S
C3035 C3019 1.429 . S
C3035 C3031 1.429 . S
C3035 C3036 1.523 . S
C3036 C3020 1.368 . S
C3036 C3032 1.368 . S
C3036 C3035 1.523 . S
H3037 C3012 0.950 . S
H3038 C3014 0.950 . S
H3039 C3015 0.949 . S
H3040 C3017 0.950 . S
H3041 C3019 0.950 . S
C3042 C3043 1.349 . S
C3042 C3044 1.327 . S
C3042 H3067 0.950 . S
C3043 C3042 1.349 . S
C3043 C3059 1.349 . S
C3044 C3042 1.327 . S
C3044 C3063 1.429 . S
C3044 H3068 0.950 . S
C3045 C3062 1.574 . S
C3045 C3064 1.368 . S
C3045 H3069 0.949 . S
H3046 C3050 0.949 . S
C3047 C3048 1.349 . S
C3047 C3049 1.327 . S
C3047 H3070 0.950 . S
C3048 C3047 1.349 . S
C3048 C3060 1.349 . S
C3049 C3047 1.327 . S
C3049 C3065 1.429 . S
C3049 H3071 0.950 . S
C3050 H3046 0.949 . S
C3050 C3058 1.574 . S
C3050 C3066 1.368 . S
H3051 C3059 0.950 . S
H3052 C3057 0.950 . S
H3053 C3058 0.949 . S
H3054 C3060 0.950 . S
H3055 C3061 0.950 . S
H3056 C3062 0.949 . S
C3057 H3052 0.950 . S
C3057 C3059 1.327 . S
C3057 C3063 1.429 . S
C3058 C3050 1.574 . S
C3058 H3053 0.949 . S
C3058 C3064 1.368 . S
C3059 C3043 1.349 . S
C3059 H3051 0.950 . S
C3059 C3057 1.327 . S
C3060 C3048 1.349 . S
C3060 H3054 0.950 . S
C3060 C3061 1.327 . S
C3061 H3055 0.950 . S
C3061 C3060 1.327 . S
C3061 C3065 1.429 . S
C3062 C3045 1.574 . S
C3062 H3056 0.949 . S
C3062 C3066 1.368 . S
C3063 C3044 1.429 . S
C3063 C3057 1.429 . S
C3063 C3064 1.523 . S
C3064 C3045 1.368 . S
C3064 C3058 1.368 . S
C3064 C3063 1.523 . S
C3065 C3049 1.429 . S
C3065 C3061 1.429 . S
C3065 C3066 1.523 . S
C3066 C3050 1.368 . S
C3066 C3062 1.368 . S
C3066 C3065 1.523 . S
H3067 C3042 0.950 . S
H3068 C3044 0.950 . S
H3069 C3045 0.949 . S
H3070 C3047 0.950 . S
H3071 C3049 0.950 . S
C1153 C255 1.416 . S
C1158 C3 1.416 . S
C1183 C39 1.416 . S
C1188 C147 1.416 . S
C1213 C183 1.416 . S
C1218 C75 1.416 . S
C1243 C111 1.415 . S
C1248 C219 1.415 . S
C1273 C291 1.416 . S
C1278 C543 1.416 . S
C1303 C327 1.416 . S
C1308 C435 1.416 . S
C1333 C363 1.415 . S
C1338 C471 1.415 . S
C1363 C399 1.416 . S
C1368 C507 1.416 . S
C1393 C579 1.416 . S
C1398 C831 1.416 . S
C1423 C615 1.415 . S
C1428 C723 1.415 . S
C1453 C759 1.416 . S
C1458 C651 1.416 . S
C1483 C795 1.416 . S
C1488 C687 1.416 . S
C1513 C867 1.415 . S
C1518 C1119 1.415 . S
C1543 C1011 1.416 . S
C1548 C903 1.416 . S
C1573 C1047 1.416 . S
C1578 C939 1.416 . S
C1603 C975 1.416 . S
C1608 C1083 1.416 . S
C1633 C2 0.483 . S
C1638 C218 0.483 . S
C1663 C38 0.483 . S
C1668 C254 0.483 . S
C1693 C146 0.483 . S
C1698 C74 0.483 . S
C1723 C110 0.483 . S
C1728 C182 0.483 . S
C1753 C290 0.483 . S
C1758 C506 0.483 . S
C1783 C326 0.483 . S
C1788 C542 0.483 . S
C1813 C434 0.483 . S
C1818 C362 0.483 . S
C1843 C470 0.483 . S
C1848 C398 0.483 . S
C1873 C578 0.483 . S
C1878 C794 0.483 . S
C1903 C830 0.483 . S
C1908 C614 0.483 . S
C1933 C722 0.483 . S
C1938 C650 0.483 . S
C1963 C686 0.483 . S
C1968 C758 0.483 . S
C1993 C866 0.483 . S
C1998 C1082 0.483 . S
C2023 C902 0.483 . S
C2028 C1118 0.483 . S
C2053 C1010 0.483 . S
C2058 C938 0.483 . S
C2083 C1046 0.483 . S
C2088 C974 0.483 . S
C2113 C4 1.487 . S
C2118 C1084 1.487 . S
C2143 C40 1.487 . S
C2148 C544 1.487 . S
C2173 C76 1.487 . S
C2178 C1012 1.486 . S
C2203 C112 1.487 . S
C2208 C472 1.487 . S
C2233 C148 1.487 . S
C2238 C940 1.487 . S
C2263 C184 1.486 . S
C2268 C400 1.486 . S
C2293 C220 1.487 . S
C2298 C868 1.487 . S
C2323 C328 1.486 . S
C2328 C256 1.486 . S
C2353 C796 1.487 . S
C2358 C292 1.487 . S
C2383 C364 1.487 . S
C2388 C724 1.487 . S
C2413 C652 1.487 . S
C2418 C436 1.487 . S
C2443 C580 1.486 . S
C2448 C508 1.487 . S
C2473 C616 1.486 . S
C2478 C1120 1.486 . S
C2503 C688 1.487 . S
C2508 C1048 1.487 . S
C2533 C760 1.487 . S
C2538 C976 1.487 . S
C2563 C904 1.487 . S
C2568 C832 1.487 . S
C2593 C14 1.486 . S
C2598 C230 1.486 . S
C2623 C50 1.486 . S
C2628 C266 1.486 . S
C2653 C158 1.486 1_556 S
C2658 C86 1.486 . S
C2683 C122 1.486 . S
C2688 C194 1.486 . S
C2713 C302 1.486 1_556 S
C2718 C518 1.486 . S
C2743 C338 1.486 . S
C2748 C554 1.486 . S
C2773 C446 1.486 . S
C2778 C374 1.486 . S
C2803 C410 1.486 . S
C2808 C482 1.486 . S
C2833 C806 1.486 1_556 S
C2838 C590 1.486 . S
C2863 C842 1.486 . S
C2868 C626 1.486 . S
C2893 C734 1.486 . S
C2898 C662 1.486 . S
C2923 C770 1.486 . S
C2928 C698 1.486 . S
C2953 C1094 1.486 . S
C2958 C878 1.486 . S
C2983 C1130 1.486 . S
C2988 C914 1.486 . S
C3013 C950 1.486 1_556 S
C3018 C1022 1.486 . S
C3043 C1058 1.486 . S
C3048 C986 1.486 . S
