# Generated by pormake.
# Topology snl, (6)-cn, num edge types: 1
# Building blocks:
#     Node 0, Type 0, BuildingBlock: BETDEL_clean_sbu_0, # of connection points: 6
#     Node 1, Type 0, BuildingBlock: BETDEL_clean_sbu_0, # of connection points: 6
#     Node 2, Type 0, BuildingBlock: BETDEL_clean_sbu_0, # of connection points: 6
#     Node 3, Type 0, BuildingBlock: BETDEL_clean_sbu_0, # of connection points: 6
#     Node 4, Type 0, BuildingBlock: BETDEL_clean_sbu_0, # of connection points: 6
#     Node 5, Type 0, BuildingBlock: BETDEL_clean_sbu_0, # of connection points: 6
#     Node 6, Type 0, BuildingBlock: BETDEL_clean_sbu_0, # of connection points: 6
#     Node 7, Type 0, BuildingBlock: BETDEL_clean_sbu_0, # of connection points: 6
#     Node 8, Type 0, BuildingBlock: BETDEL_clean_sbu_0, # of connection points: 6
#     Node 9, Type 0, BuildingBlock: BETDEL_clean_sbu_0, # of connection points: 6
#     Node 10, Type 0, BuildingBlock: BETDEL_clean_sbu_0, # of connection points: 6
#     Node 11, Type 0, BuildingBlock: BETDEL_clean_sbu_0, # of connection points: 6
#     Node 12, Type 0, BuildingBlock: BETDEL_clean_sbu_0, # of connection points: 6
#     Node 13, Type 0, BuildingBlock: BETDEL_clean_sbu_0, # of connection points: 6
#     Node 14, Type 0, BuildingBlock: BETDEL_clean_sbu_0, # of connection points: 6
#     Node 15, Type 0, BuildingBlock: BETDEL_clean_sbu_0, # of connection points: 6
#     Edge 16, Type (0, 0), BuildingBlock: UVAHIK_clean_linker_0, # of connection points: 2
#     Edge 17, Type (0, 0), BuildingBlock: UVAHIK_clean_linker_0, # of connection points: 2
#     Edge 18, Type (0, 0), BuildingBlock: UVAHIK_clean_linker_0, # of connection points: 2
#     Edge 19, Type (0, 0), BuildingBlock: UVAHIK_clean_linker_0, # of connection points: 2
#     Edge 20, Type (0, 0), BuildingBlock: UVAHIK_clean_linker_0, # of connection points: 2
#     Edge 21, Type (0, 0), BuildingBlock: UVAHIK_clean_linker_0, # of connection points: 2
#     Edge 22, Type (0, 0), BuildingBlock: UVAHIK_clean_linker_0, # of connection points: 2
#     Edge 23, Type (0, 0), BuildingBlock: UVAHIK_clean_linker_0, # of connection points: 2
#     Edge 24, Type (0, 0), BuildingBlock: UVAHIK_clean_linker_0, # of connection points: 2
#     Edge 25, Type (0, 0), BuildingBlock: UVAHIK_clean_linker_0, # of connection points: 2
#     Edge 26, Type (0, 0), BuildingBlock: UVAHIK_clean_linker_0, # of connection points: 2
#     Edge 27, Type (0, 0), BuildingBlock: UVAHIK_clean_linker_0, # of connection points: 2
#     Edge 28, Type (0, 0), BuildingBlock: UVAHIK_clean_linker_0, # of connection points: 2
#     Edge 29, Type (0, 0), BuildingBlock: UVAHIK_clean_linker_0, # of connection points: 2
#     Edge 30, Type (0, 0), BuildingBlock: UVAHIK_clean_linker_0, # of connection points: 2
#     Edge 31, Type (0, 0), BuildingBlock: UVAHIK_clean_linker_0, # of connection points: 2
#     Edge 32, Type (0, 0), BuildingBlock: UVAHIK_clean_linker_0, # of connection points: 2
#     Edge 33, Type (0, 0), BuildingBlock: UVAHIK_clean_linker_0, # of connection points: 2
#     Edge 34, Type (0, 0), BuildingBlock: UVAHIK_clean_linker_0, # of connection points: 2
#     Edge 35, Type (0, 0), BuildingBlock: UVAHIK_clean_linker_0, # of connection points: 2
#     Edge 36, Type (0, 0), BuildingBlock: UVAHIK_clean_linker_0, # of connection points: 2
#     Edge 37, Type (0, 0), BuildingBlock: UVAHIK_clean_linker_0, # of connection points: 2
#     Edge 38, Type (0, 0), BuildingBlock: UVAHIK_clean_linker_0, # of connection points: 2
#     Edge 39, Type (0, 0), BuildingBlock: UVAHIK_clean_linker_0, # of connection points: 2
#     Edge 40, Type (0, 0), BuildingBlock: UVAHIK_clean_linker_0, # of connection points: 2
#     Edge 41, Type (0, 0), BuildingBlock: UVAHIK_clean_linker_0, # of connection points: 2
#     Edge 42, Type (0, 0), BuildingBlock: UVAHIK_clean_linker_0, # of connection points: 2
#     Edge 43, Type (0, 0), BuildingBlock: UVAHIK_clean_linker_0, # of connection points: 2
#     Edge 44, Type (0, 0), BuildingBlock: UVAHIK_clean_linker_0, # of connection points: 2
#     Edge 45, Type (0, 0), BuildingBlock: UVAHIK_clean_linker_0, # of connection points: 2
#     Edge 46, Type (0, 0), BuildingBlock: UVAHIK_clean_linker_0, # of connection points: 2
#     Edge 47, Type (0, 0), BuildingBlock: UVAHIK_clean_linker_0, # of connection points: 2
#     Edge 48, Type (0, 0), BuildingBlock: UVAHIK_clean_linker_0, # of connection points: 2
#     Edge 49, Type (0, 0), BuildingBlock: UVAHIK_clean_linker_0, # of connection points: 2
#     Edge 50, Type (0, 0), BuildingBlock: UVAHIK_clean_linker_0, # of connection points: 2
#     Edge 51, Type (0, 0), BuildingBlock: UVAHIK_clean_linker_0, # of connection points: 2
#     Edge 52, Type (0, 0), BuildingBlock: UVAHIK_clean_linker_0, # of connection points: 2
#     Edge 53, Type (0, 0), BuildingBlock: UVAHIK_clean_linker_0, # of connection points: 2
#     Edge 54, Type (0, 0), BuildingBlock: UVAHIK_clean_linker_0, # of connection points: 2
#     Edge 55, Type (0, 0), BuildingBlock: UVAHIK_clean_linker_0, # of connection points: 2
#     Edge 56, Type (0, 0), BuildingBlock: UVAHIK_clean_linker_0, # of connection points: 2
#     Edge 57, Type (0, 0), BuildingBlock: UVAHIK_clean_linker_0, # of connection points: 2
#     Edge 58, Type (0, 0), BuildingBlock: UVAHIK_clean_linker_0, # of connection points: 2
#     Edge 59, Type (0, 0), BuildingBlock: UVAHIK_clean_linker_0, # of connection points: 2
#     Edge 60, Type (0, 0), BuildingBlock: UVAHIK_clean_linker_0, # of connection points: 2
#     Edge 61, Type (0, 0), BuildingBlock: UVAHIK_clean_linker_0, # of connection points: 2
#     Edge 62, Type (0, 0), BuildingBlock: UVAHIK_clean_linker_0, # of connection points: 2
#     Edge 63, Type (0, 0), BuildingBlock: UVAHIK_clean_linker_0, # of connection points: 2
# Relax obj value: 0.144
# Max RMSD: 0.204
# Mean RMSD: 0.173
data_MOF--net-snl--node1-BETDEL_clean_sbu_0--edge1-UVAHIK_clean_linker_0
_symmetry_space_group_name_H-M    P1
_symmetry_Int_Tables_number       1
_symmetry_cell_setting            triclinic
loop_
_symmetry_equiv_pos_as_xyz
'x, y, z'
_cell_length_a     75.694213
_cell_length_b     75.796952
_cell_length_c     22.638744
_cell_angle_alpha  100.61927
_cell_angle_beta   90.033149
_cell_angle_gamma 89.972546
loop_
_atom_site_label
_atom_site_type_symbol
_atom_site_fract_x
_atom_site_fract_y
_atom_site_fract_z
_atom_type_partial_charge
Dy0 Dy 0.13813 0.62899 0.09829 0.0
C1 C 0.12934 0.62836 0.34462 0.0
C2 C 0.13954 0.62708 0.97682 0.0
Dy3 Dy 0.13057 0.62746 0.22364 0.0
O4 O 0.13834 0.64166 0.01651 0.0
O5 O 0.14009 0.61327 1.00331 0.0
O6 O 0.15217 0.65484 0.12805 0.0
O7 O 0.12923 0.64967 0.17394 0.0
C8 C 0.14133 0.66102 0.17124 0.0
C9 C 0.12711 0.59592 0.14829 0.0
O10 O 0.1036 0.63503 0.20045 0.0
O11 O 0.1082 0.62648 0.09842 0.0
O12 O 0.13177 0.61416 0.30403 0.0
O13 O 0.12749 0.6423 0.31931 0.0
O14 O 0.11632 0.60153 0.19214 0.0
O15 O 0.13942 0.60707 0.1476 0.0
O16 O 0.16555 0.62231 0.12447 0.0
O17 O 0.15987 0.6318 0.2254 0.0
C18 C 0.09745 0.63129 0.14498 0.0
C19 C 0.1711 0.6269 0.18065 0.0
Dy20 Dy 0.63762 0.87697 0.41784 0.0
C21 C 0.63156 0.87692 0.17048 0.0
C22 C 0.6376 0.87894 0.53912 0.0
Dy23 Dy 0.63118 0.87795 0.29129 0.0
O24 O 0.63299 0.86511 0.49974 0.0
O25 O 0.64236 0.89197 0.51246 0.0
O26 O 0.652 0.85113 0.39194 0.0
O27 O 0.6298 0.85592 0.34167 0.0
C28 C 0.64193 0.8448 0.34668 0.0
C29 C 0.62658 0.90976 0.36425 0.0
O30 O 0.60394 0.87075 0.31298 0.0
O31 O 0.60792 0.88029 0.4149 0.0
O32 O 0.63734 0.89 0.21073 0.0
O33 O 0.62547 0.86415 0.196 0.0
O34 O 0.61676 0.90399 0.31784 0.0
O35 O 0.63884 0.89876 0.36795 0.0
O36 O 0.66535 0.88299 0.39328 0.0
O37 O 0.66022 0.87252 0.29252 0.0
C38 C 0.59746 0.87499 0.3679 0.0
C39 C 0.6712 0.87773 0.33776 0.0
Dy40 Dy 0.38107 0.38759 0.67778 0.0
C41 C 0.38076 0.36894 0.42004 0.0
C42 C 0.37821 0.39194 0.8006 0.0
Dy43 Dy 0.37768 0.37321 0.54271 0.0
O44 O 0.39219 0.39536 0.77152 0.0
O45 O 0.36558 0.38667 0.76256 0.0
O46 O 0.40683 0.40019 0.66208 0.0
O47 O 0.39959 0.37581 0.60663 0.0
C48 C 0.41099 0.38822 0.61535 0.0
C49 C 0.34778 0.37295 0.60593 0.0
O50 O 0.38608 0.34759 0.56905 0.0
O51 O 0.38071 0.35748 0.67081 0.0
O52 O 0.36693 0.3649 0.4487 0.0
O53 O 0.39316 0.37477 0.45843 0.0
O54 O 0.35144 0.36108 0.55834 0.0
O55 O 0.35943 0.38503 0.614 0.0
O56 O 0.37272 0.41337 0.65051 0.0
O57 O 0.37759 0.40306 0.54859 0.0
C58 C 0.38415 0.34445 0.62438 0.0
C59 C 0.37415 0.41619 0.59447 0.0
Dy60 Dy 0.88239 0.11759 0.83633 0.0
C61 C 0.88054 0.13642 0.09443 0.0
C62 C 0.88037 0.11302 0.71332 0.0
Dy63 Dy 0.87868 0.13196 0.97145 0.0
O64 O 0.89468 0.11202 0.7441 0.0
O65 O 0.86698 0.11598 0.74974 0.0
O66 O 0.90802 0.1049 0.85322 0.0
O67 O 0.90066 0.12936 0.9081 0.0
C68 C 0.91205 0.11695 0.89993 0.0
C69 C 0.84908 0.13241 0.907 0.0
O70 O 0.88641 0.15777 0.9454 0.0
O71 O 0.8812 0.1477 0.84355 0.0
O72 O 0.86621 0.13698 0.06336 0.0
O73 O 0.89403 0.13399 0.05832 0.0
O74 O 0.85276 0.14438 0.95432 0.0
O75 O 0.8606 0.12018 0.89949 0.0
O76 O 0.87441 0.09177 0.86387 0.0
O77 O 0.88028 0.10216 0.96498 0.0
C78 C 0.88441 0.16082 0.88997 0.0
C79 C 0.87659 0.08894 0.91963 0.0
Dy80 Dy 0.13799 0.37753 0.9134 0.0
C81 C 0.12712 0.37529 0.66573 0.0
C82 C 0.14035 0.38106 0.03571 0.0
Dy83 Dy 0.12948 0.37804 0.78781 0.0
O84 O 0.14586 0.36747 0.9969 0.0
O85 O 0.1337 0.39304 0.0078 0.0
O86 O 0.15141 0.35126 0.88495 0.0
O87 O 0.12834 0.35639 0.83996 0.0
C88 C 0.14038 0.34498 0.84257 0.0
C89 C 0.12719 0.4102 0.86083 0.0
O90 O 0.1033 0.36868 0.81334 0.0
O91 O 0.10797 0.3785 0.9147 0.0
O92 O 0.1213 0.38854 0.70533 0.0
O93 O 0.13407 0.36326 0.6927 0.0
O94 O 0.1161 0.40456 0.81802 0.0
O95 O 0.13929 0.39884 0.86143 0.0
O96 O 0.16473 0.38566 0.88559 0.0
O97 O 0.15908 0.37571 0.78485 0.0
C98 C 0.09718 0.37285 0.86881 0.0
C99 C 0.17031 0.38097 0.82947 0.0
Dy100 Dy 0.88044 0.88805 0.17876 0.0
C101 C 0.8806 0.86834 0.92069 0.0
C102 C 0.87799 0.89264 0.30184 0.0
Dy103 Dy 0.87761 0.8728 0.04356 0.0
O104 O 0.89218 0.89481 0.27187 0.0
O105 O 0.86492 0.88855 0.26456 0.0
O106 O 0.90542 0.90177 0.16203 0.0
O107 O 0.89936 0.87671 0.10828 0.0
C108 C 0.91011 0.88971 0.1162 0.0
C109 C 0.84785 0.87175 0.10666 0.0
O110 O 0.88647 0.84758 0.07188 0.0
O111 O 0.88046 0.85802 0.17294 0.0
O112 O 0.86661 0.86492 0.94973 0.0
O113 O 0.89323 0.87358 0.95882 0.0
O114 O 0.85187 0.85979 0.05966 0.0
O115 O 0.85905 0.88425 0.11409 0.0
O116 O 0.87144 0.91337 0.14995 0.0
O117 O 0.87665 0.90262 0.04839 0.0
C118 C 0.88435 0.84481 0.12761 0.0
C119 C 0.87279 0.91586 0.09353 0.0
Dy120 Dy 0.382 0.61821 0.33733 0.0
C121 C 0.38023 0.63724 0.59527 0.0
C122 C 0.37976 0.61354 0.21426 0.0
Dy123 Dy 0.37836 0.63273 0.47219 0.0
O124 O 0.39409 0.61235 0.24474 0.0
O125 O 0.36647 0.61672 0.25102 0.0
O126 O 0.40782 0.60584 0.35391 0.0
O127 O 0.40032 0.63028 0.40865 0.0
C128 C 0.41183 0.61797 0.4004 0.0
C129 C 0.34857 0.63265 0.40816 0.0
O130 O 0.38589 0.65855 0.44587 0.0
O131 O 0.38073 0.64831 0.3441 0.0
O132 O 0.36592 0.63791 0.56422 0.0
O133 O 0.3937 0.6347 0.5591 0.0
O134 O 0.35223 0.64474 0.45515 0.0
O135 O 0.36026 0.62057 0.40067 0.0
O136 O 0.37453 0.59229 0.36546 0.0
O137 O 0.38044 0.60301 0.46631 0.0
C138 C 0.38389 0.66151 0.39034 0.0
C139 C 0.37691 0.58964 0.42135 0.0
Dy140 Dy 0.63813 0.12758 0.59916 0.0
C141 C 0.63473 0.12955 0.84798 0.0
C142 C 0.63671 0.12478 0.47761 0.0
Dy143 Dy 0.63299 0.12757 0.72684 0.0
O144 O 0.63066 0.13803 0.51659 0.0
O145 O 0.64367 0.11279 0.50482 0.0
O146 O 0.65218 0.15372 0.62083 0.0
O147 O 0.63073 0.14911 0.67456 0.0
C148 C 0.64256 0.16028 0.667 0.0
C149 C 0.62817 0.09522 0.65727 0.0
O150 O 0.60534 0.13399 0.70681 0.0
O151 O 0.60863 0.12336 0.60525 0.0
O152 O 0.6418 0.11713 0.80812 0.0
O153 O 0.62662 0.14114 0.82187 0.0
O154 O 0.61893 0.10119 0.70488 0.0
O155 O 0.64013 0.10627 0.65092 0.0
O156 O 0.66618 0.12206 0.62185 0.0
O157 O 0.66181 0.13365 0.72222 0.0
C158 C 0.59847 0.12895 0.65273 0.0
C159 C 0.67247 0.12797 0.67644 0.0
Dy160 Dy 0.87444 0.37797 0.79269 0.0
C161 C 0.86705 0.37845 0.03978 0.0
C162 C 0.8747 0.37723 0.6719 0.0
Dy163 Dy 0.86757 0.37658 0.91841 0.0
O164 O 0.87027 0.39084 0.71247 0.0
O165 O 0.8791 0.36379 0.6971 0.0
O166 O 0.88906 0.40378 0.82211 0.0
O167 O 0.86637 0.39855 0.86932 0.0
C168 C 0.87872 0.40955 0.86709 0.0
C169 C 0.86348 0.34459 0.84576 0.0
O170 O 0.84001 0.38309 0.89375 0.0
O171 O 0.84516 0.37324 0.79268 0.0
O172 O 0.87015 0.36417 1.00023 0.0
O173 O 0.86409 0.39197 0.01322 0.0
O174 O 0.8531 0.35087 0.8902 0.0
O175 O 0.8757 0.35573 0.84222 0.0
O176 O 0.90161 0.37041 0.8146 0.0
O177 O 0.8974 0.37929 0.91667 0.0
C178 C 0.83416 0.37831 0.83802 0.0
C179 C 0.90795 0.37418 0.86982 0.0
Dy180 Dy 0.37449 0.12742 0.72706 0.0
C181 C 0.36857 0.12642 0.47954 0.0
C182 C 0.37402 0.12839 0.8479 0.0
Dy183 Dy 0.36835 0.12852 0.60096 0.0
O184 O 0.36834 0.11529 0.80751 0.0
O185 O 0.38005 0.1412 0.82251 0.0
O186 O 0.38875 0.10128 0.6998 0.0
O187 O 0.36654 0.10671 0.65058 0.0
C188 C 0.37865 0.09556 0.65409 0.0
C189 C 0.36441 0.16081 0.67197 0.0
O190 O 0.34049 0.12275 0.62491 0.0
O191 O 0.34551 0.13315 0.72571 0.0
O192 O 0.37302 0.14032 0.51889 0.0
O193 O 0.36386 0.11341 0.50631 0.0
O194 O 0.35422 0.15451 0.62698 0.0
O195 O 0.3764 0.14953 0.67693 0.0
O196 O 0.40187 0.13429 0.70639 0.0
O197 O 0.39806 0.12481 0.60445 0.0
C198 C 0.33456 0.12801 0.68033 0.0
C199 C 0.40847 0.12992 0.65173 0.0
Dy200 Dy 0.62841 0.63203 0.47096 0.0
C201 C 0.62637 0.613 0.21284 0.0
C202 C 0.62656 0.63652 0.59395 0.0
Dy203 Dy 0.6245 0.61763 0.33591 0.0
O204 O 0.64091 0.63689 0.56288 0.0
O205 O 0.61306 0.63427 0.55784 0.0
O206 O 0.65446 0.64416 0.4539 0.0
O207 O 0.64638 0.62005 0.3988 0.0
C208 C 0.65803 0.63216 0.40657 0.0
C209 C 0.59486 0.61733 0.40001 0.0
O210 O 0.63217 0.59172 0.36363 0.0
O211 O 0.62641 0.60228 0.4647 0.0
O212 O 0.61207 0.61219 0.2438 0.0
O213 O 0.63981 0.61579 0.2491 0.0
O214 O 0.59877 0.6052 0.35339 0.0
O215 O 0.60637 0.62962 0.40769 0.0
O216 O 0.62081 0.65787 0.44485 0.0
O217 O 0.6259 0.64772 0.34299 0.0
C218 C 0.62991 0.58898 0.41946 0.0
C219 C 0.62278 0.66088 0.38937 0.0
Dy220 Dy 0.12854 0.87249 0.03778 0.0
C221 C 0.12798 0.89199 0.29582 0.0
C222 C 0.12592 0.86814 0.91488 0.0
Dy223 Dy 0.12547 0.88746 0.17284 0.0
O224 O 0.13996 0.86512 0.94443 0.0
O225 O 0.11307 0.87294 0.95249 0.0
O226 O 0.15397 0.85901 0.055 0.0
O227 O 0.14701 0.88366 0.10897 0.0
C228 C 0.15803 0.871 0.10185 0.0
C229 C 0.09599 0.88957 0.10946 0.0
O230 O 0.13462 0.91284 0.14481 0.0
O231 O 0.12955 0.90232 0.04308 0.0
O232 O 0.11371 0.89394 0.26587 0.0
O233 O 0.14108 0.88813 0.25856 0.0
O234 O 0.10069 0.90152 0.15561 0.0
O235 O 0.10663 0.87647 0.10182 0.0
O236 O 0.11931 0.8473 0.06488 0.0
O237 O 0.12503 0.85734 0.1664 0.0
C238 C 0.13338 0.91547 0.08851 0.0
C239 C 0.12116 0.8443 0.12042 0.0
Dy240 Dy 0.87375 0.62753 0.219 0.0
C241 C 0.86683 0.6275 0.97181 0.0
C242 C 0.874 0.62841 0.33978 0.0
Dy243 Dy 0.8673 0.62932 0.09309 0.0
O244 O 0.86999 0.61461 0.29927 0.0
O245 O 0.87795 0.64195 0.31452 0.0
O246 O 0.88785 0.60144 0.18963 0.0
O247 O 0.86544 0.60728 0.1418 0.0
C248 C 0.87755 0.59602 0.1442 0.0
C249 C 0.8642 0.66133 0.16647 0.0
O250 O 0.83958 0.6232 0.11693 0.0
O251 O 0.84455 0.63269 0.21831 0.0
O252 O 0.86945 0.64187 0.01145 0.0
O253 O 0.86435 0.61387 0.99822 0.0
O254 O 0.85364 0.65553 0.12202 0.0
O255 O 0.87596 0.6497 0.16966 0.0
O256 O 0.90115 0.63436 0.19761 0.0
O257 O 0.89708 0.62595 0.09525 0.0
C258 C 0.83363 0.62791 0.17254 0.0
C259 C 0.9076 0.63053 0.14255 0.0
Dy260 Dy 0.12784 0.1325 0.97287 0.0
C261 C 0.12728 0.11362 0.71474 0.0
C262 C 0.12518 0.13686 0.09566 0.0
Dy263 Dy 0.12457 0.1181 0.83759 0.0
O264 O 0.1393 0.1396 0.06617 0.0
O265 O 0.11227 0.13229 0.05805 0.0
O266 O 0.15387 0.1449 0.95729 0.0
O267 O 0.14618 0.12079 0.90153 0.0
C268 C 0.15768 0.13303 0.90988 0.0
C269 C 0.09475 0.11733 0.9004 0.0
O270 O 0.13304 0.09242 0.86531 0.0
O271 O 0.12719 0.10264 0.96653 0.0
O272 O 0.11318 0.11075 0.74417 0.0
O273 O 0.1401 0.11841 0.75244 0.0
O274 O 0.09888 0.10534 0.85368 0.0
O275 O 0.10609 0.12978 0.90859 0.0
O276 O 0.11952 0.15813 0.94654 0.0
O277 O 0.12492 0.14824 0.84474 0.0
C278 C 0.13101 0.08951 0.92105 0.0
C279 C 0.12145 0.16127 0.89118 0.0
Dy280 Dy 0.62827 0.37287 0.54248 0.0
C281 C 0.62676 0.39191 0.80053 0.0
C282 C 0.62553 0.36851 0.41968 0.0
Dy283 Dy 0.62457 0.38743 0.6775 0.0
O284 O 0.63961 0.36548 0.44905 0.0
O285 O 0.61272 0.37335 0.45741 0.0
O286 O 0.65426 0.36042 0.55901 0.0
O287 O 0.6464 0.38452 0.61446 0.0
C288 C 0.65792 0.37229 0.60662 0.0
C289 C 0.59493 0.38827 0.6135 0.0
O290 O 0.63301 0.41317 0.65023 0.0
O291 O 0.62841 0.40268 0.54821 0.0
O292 O 0.61258 0.39395 0.77022 0.0
O293 O 0.63992 0.38796 0.76363 0.0
O294 O 0.59909 0.40033 0.66003 0.0
O295 O 0.60622 0.37575 0.60584 0.0
O296 O 0.61987 0.3473 0.56889 0.0
O297 O 0.62523 0.35731 0.67063 0.0
C298 C 0.63183 0.41586 0.59397 0.0
C299 C 0.62182 0.34423 0.6243 0.0
Dy300 Dy 0.37576 0.87842 0.29094 0.0
C301 C 0.36511 0.87925 0.53793 0.0
C302 C 0.37806 0.87598 0.16919 0.0
Dy303 Dy 0.36719 0.87678 0.4161 0.0
O304 O 0.38306 0.88958 0.20899 0.0
O305 O 0.37197 0.86346 0.19579 0.0
O306 O 0.38975 0.90445 0.32305 0.0
O307 O 0.36654 0.89873 0.36672 0.0
C308 C 0.37886 0.9099 0.36672 0.0
C309 C 0.36408 0.84497 0.34141 0.0
O310 O 0.34014 0.88437 0.38968 0.0
O311 O 0.34616 0.87769 0.28789 0.0
O312 O 0.36267 0.8648 0.49836 0.0
O313 O 0.36857 0.89259 0.51107 0.0
O314 O 0.35304 0.8511 0.38398 0.0
O315 O 0.3764 0.85619 0.34065 0.0
O316 O 0.4018 0.86868 0.31565 0.0
O317 O 0.3972 0.87794 0.41731 0.0
C318 C 0.33486 0.8817 0.33296 0.0
C319 C 0.40793 0.8725 0.37114 0.0
C320 C 0.14001 0.61036 0.87057 0.0
C321 C 0.13938 0.62664 0.91163 0.0
C322 C 0.13919 0.61029 0.80877 0.0
C323 C 0.14531 0.63969 0.69666 0.0
H324 H 0.11553 0.60477 0.59632 0.0
C325 C 0.12834 0.64449 0.45141 0.0
C326 C 0.12951 0.6284 0.40957 0.0
C327 C 0.12929 0.64429 0.51298 0.0
C328 C 0.12401 0.61452 0.62371 0.0
H329 H 0.13749 0.65557 0.92091 0.0
H330 H 0.13585 0.65545 0.81362 0.0
H331 H 0.11846 0.60395 0.70309 0.0
H332 H 0.13235 0.59951 0.39864 0.0
H333 H 0.13406 0.59915 0.50581 0.0
H334 H 0.15078 0.65031 0.61732 0.0
C335 C 0.13725 0.64276 0.82864 0.0
C336 C 0.12574 0.614 0.68478 0.0
C337 C 0.13808 0.64282 0.89014 0.0
C338 C 0.13138 0.61212 0.43007 0.0
C339 C 0.13226 0.6119 0.49141 0.0
C340 C 0.14355 0.64023 0.63566 0.0
C341 C 0.13773 0.62651 0.78723 0.0
C342 C 0.13638 0.62661 0.72194 0.0
C343 C 0.13133 0.62797 0.53353 0.0
C344 C 0.13287 0.62766 0.59856 0.0
H345 H 0.14102 0.59772 0.88618 0.0
H346 H 0.13977 0.59756 0.77788 0.0
H347 H 0.15382 0.64943 0.72394 0.0
H348 H 0.12689 0.65721 0.43658 0.0
H349 H 0.12836 0.65687 0.54451 0.0
C350 C 0.62608 0.86208 0.06402 0.0
C351 C 0.63197 0.87694 0.10569 0.0
C352 C 0.62671 0.86239 1.0025 0.0
C353 C 0.62871 0.89346 0.89546 0.0
H354 H 0.64653 0.85206 0.78497 0.0
C355 C 0.64275 0.89459 0.64505 0.0
C356 C 0.63729 0.87935 0.60418 0.0
C357 C 0.64236 0.89456 0.7068 0.0
C358 C 0.64137 0.86366 0.81523 0.0
H359 H 0.64308 0.90372 0.11654 0.0
H360 H 0.64423 0.90421 0.00943 0.0
H361 H 0.64474 0.85119 0.89192 0.0
H362 H 0.62703 0.85227 0.59505 0.0
H363 H 0.62614 0.8523 0.70233 0.0
H364 H 0.62525 0.9059 0.81873 0.0
C365 C 0.63898 0.89243 0.02397 0.0
C366 C 0.64032 0.86314 0.87636 0.0
C367 C 0.63842 0.89209 0.08521 0.0
C368 C 0.6314 0.86417 0.6257 0.0
C369 C 0.631 0.86414 0.68711 0.0
C370 C 0.62972 0.89397 0.83426 0.0
C371 C 0.63314 0.87759 0.982 0.0
C372 C 0.63397 0.87802 0.91704 0.0
C373 C 0.63652 0.87929 0.72834 0.0
C374 C 0.63601 0.87905 0.79352 0.0
H375 H 0.62104 0.85026 0.0789 0.0
H376 H 0.62199 0.85082 0.97103 0.0
H377 H 0.62357 0.90505 0.9258 0.0
H378 H 0.64736 0.90644 0.62933 0.0
H379 H 0.64683 0.90638 0.73761 0.0
C380 C 0.39617 0.37617 0.32937 0.0
C381 C 0.38126 0.36952 0.35499 0.0
C382 C 0.39594 0.37842 0.26929 0.0
C383 C 0.37166 0.36519 0.12465 0.0
H384 H 0.39292 0.40826 0.08661 0.0
C385 C 0.36263 0.38516 0.89158 0.0
C386 C 0.37767 0.39148 0.86572 0.0
C387 C 0.36279 0.38299 0.95175 0.0
C388 C 0.38706 0.39607 0.09626 0.0
H389 H 0.35454 0.35971 0.33755 0.0
H390 H 0.35407 0.36369 0.23303 0.0
H391 H 0.39422 0.40272 0.18924 0.0
H392 H 0.40454 0.40084 0.88286 0.0
H393 H 0.40488 0.39706 0.98764 0.0
H394 H 0.36448 0.35856 0.03168 0.0
C395 C 0.36604 0.367 0.25889 0.0
C396 C 0.38784 0.39286 0.1552 0.0
C397 C 0.36628 0.36475 0.31893 0.0
C398 C 0.39271 0.39604 0.90165 0.0
C399 C 0.39288 0.39391 0.96182 0.0
C400 C 0.37086 0.36841 0.06573 0.0
C401 C 0.38078 0.37409 0.2334 0.0
C402 C 0.38017 0.37736 0.17026 0.0
C403 C 0.378 0.38711 0.9875 0.0
C404 C 0.37855 0.38389 0.05067 0.0
H405 H 0.4079 0.37998 0.3561 0.0
H406 H 0.40764 0.38364 0.25103 0.0
H407 H 0.36582 0.35298 0.13424 0.0
H408 H 0.35084 0.38152 0.86495 0.0
H409 H 0.35101 0.37799 0.9702 0.0
C410 C 0.89571 0.11196 0.61492 0.0
C411 C 0.87994 0.11346 0.64819 0.0
C412 C 0.89574 0.11418 0.5549 0.0
C413 C 0.86673 0.11456 0.42278 0.0
H414 H 0.90473 0.14254 0.37138 0.0
C415 C 0.86513 0.1371 0.19248 0.0
C416 C 0.88093 0.13587 0.15948 0.0
C417 C 0.86509 0.13479 0.25241 0.0
C418 C 0.89412 0.13453 0.38471 0.0
H419 H 0.85177 0.11806 0.64435 0.0
H420 H 0.85176 0.12195 0.53941 0.0
H421 H 0.90436 0.13694 0.47403 0.0
H422 H 0.90916 0.13162 0.16367 0.0
H423 H 0.90915 0.12754 0.26838 0.0
H424 H 0.8565 0.11213 0.33344 0.0
C425 C 0.86412 0.11893 0.55953 0.0
C426 C 0.89391 0.1313 0.44366 0.0
C427 C 0.86411 0.11674 0.61971 0.0
C428 C 0.89679 0.13274 0.18812 0.0
C429 C 0.89676 0.13044 0.24819 0.0
C430 C 0.86695 0.11778 0.3638 0.0
C431 C 0.87999 0.11795 0.52658 0.0
C432 C 0.88022 0.12126 0.46353 0.0
C433 C 0.88086 0.13118 0.2809 0.0
C434 C 0.88064 0.12783 0.34394 0.0
H435 H 0.90813 0.10943 0.63566 0.0
H436 H 0.90815 0.11302 0.53073 0.0
H437 H 0.85611 0.10657 0.43615 0.0
H438 H 0.85269 0.1395 0.17162 0.0
H439 H 0.85264 0.13578 0.27638 0.0
C440 C 0.14731 0.36733 0.1247 0.0
C441 C 0.14021 0.3817 0.10121 0.0
C442 C 0.14614 0.36703 0.18603 0.0
C443 C 0.12 0.38537 0.3205 0.0
H444 H 0.15882 0.36765 0.40511 0.0
C445 C 0.12017 0.38955 0.57777 0.0
C446 C 0.12732 0.37505 0.60045 0.0
C447 C 0.12141 0.39017 0.51666 0.0
C448 C 0.14777 0.37241 0.38195 0.0
H449 H 0.12666 0.40723 0.12329 0.0
H450 H 0.12476 0.40686 0.2311 0.0
H451 H 0.1623 0.36998 0.29979 0.0
H452 H 0.14103 0.34964 0.57716 0.0
H453 H 0.14303 0.35057 0.46984 0.0
H454 H 0.10546 0.38777 0.40265 0.0
C455 C 0.13104 0.39569 0.20189 0.0
C456 C 0.14979 0.3738 0.32162 0.0
C457 C 0.13223 0.39599 0.14034 0.0
C458 C 0.13542 0.36098 0.56075 0.0
C459 C 0.13668 0.3616 0.49947 0.0
C460 C 0.11799 0.38397 0.38085 0.0
C461 C 0.13784 0.38111 0.22533 0.0
C462 C 0.13592 0.38025 0.29012 0.0
C463 C 0.12984 0.3763 0.47683 0.0
C464 C 0.13184 0.37745 0.41229 0.0
H465 H 0.15347 0.35609 0.09547 0.0
H466 H 0.15132 0.3555 0.20236 0.0
H467 H 0.10895 0.3901 0.2973 0.0
H468 H 0.11391 0.40062 0.60748 0.0
H469 H 0.11619 0.40179 0.50094 0.0
C470 C 0.89622 0.87494 0.82934 0.0
C471 C 0.88106 0.86901 0.85561 0.0
C472 C 0.896 0.87733 0.76934 0.0
C473 C 0.87062 0.86576 0.62591 0.0
H474 H 0.8944 0.90744 0.58698 0.0
C475 C 0.86219 0.88676 0.39382 0.0
C476 C 0.87754 0.8921 0.367 0.0
C477 C 0.86238 0.88445 0.4539 0.0
C478 C 0.88781 0.89564 0.59686 0.0
H479 H 0.85387 0.86062 0.83934 0.0
H480 H 0.85338 0.86486 0.73514 0.0
H481 H 0.89564 0.90165 0.68931 0.0
H482 H 0.90499 0.89961 0.38245 0.0
H483 H 0.90535 0.89562 0.487 0.0
H484 H 0.86274 0.85979 0.53345 0.0
C485 C 0.86556 0.86748 0.76033 0.0
C486 C 0.88857 0.89227 0.65566 0.0
C487 C 0.86581 0.86509 0.82024 0.0
C488 C 0.89292 0.89557 0.40196 0.0
C489 C 0.8931 0.89332 0.46202 0.0
C490 C 0.86983 0.86914 0.56714 0.0
C491 C 0.88058 0.87386 0.73416 0.0
C492 C 0.88 0.87727 0.67109 0.0
C493 C 0.87791 0.88749 0.48864 0.0
C494 C 0.87843 0.88412 0.55173 0.0
H495 H 0.90817 0.8781 0.85551 0.0
H496 H 0.90791 0.88196 0.75061 0.0
H497 H 0.86407 0.85393 0.63567 0.0
H498 H 0.85014 0.88395 0.36798 0.0
H499 H 0.85035 0.8802 0.47306 0.0
C500 C 0.36482 0.63802 0.69347 0.0
C501 C 0.38061 0.63665 0.66035 0.0
C502 C 0.36476 0.63571 0.75342 0.0
C503 C 0.39071 0.61492 0.86153 0.0
H504 H 0.36047 0.64363 0.98008 0.0
C505 C 0.39493 0.61227 0.1154 0.0
C506 C 0.37924 0.61397 0.14908 0.0
C507 C 0.39488 0.61446 0.05532 0.0
C508 C 0.36882 0.6353 0.94742 0.0
H509 H 0.4088 0.63217 0.66442 0.0
H510 H 0.4088 0.62837 0.76947 0.0
H511 H 0.36121 0.64945 0.87776 0.0
H512 H 0.35109 0.61882 0.14583 0.0
H513 H 0.3509 0.62233 0.04052 0.0
H514 H 0.39831 0.60076 0.93113 0.0
C515 C 0.39638 0.63099 0.74889 0.0
C516 C 0.36928 0.63868 0.88863 0.0
C517 C 0.39643 0.63333 0.68886 0.0
C518 C 0.36339 0.61743 0.12097 0.0
C519 C 0.36333 0.61961 0.06077 0.0
C520 C 0.39024 0.61153 0.92029 0.0
C521 C 0.38051 0.63193 0.7818 0.0
C522 C 0.38024 0.62855 0.84484 0.0
C523 C 0.37913 0.61839 0.0273 0.0
C524 C 0.3793 0.62168 0.96414 0.0
H525 H 0.3524 0.64045 0.6726 0.0
H526 H 0.35226 0.63633 0.77693 0.0
H527 H 0.39908 0.60662 0.82885 0.0
H528 H 0.40737 0.60972 0.13595 0.0
H529 H 0.40733 0.61362 0.03143 0.0
C530 C 0.64439 0.11589 0.93399 0.0
C531 C 0.63537 0.12967 0.91285 0.0
C532 C 0.64461 0.1153 0.99509 0.0
C533 C 0.62011 0.13084 0.13467 0.0
H534 H 0.66302 0.11789 0.21038 0.0
C535 C 0.62737 0.13791 0.39022 0.0
C536 C 0.636 0.1241 0.41244 0.0
C537 C 0.627 0.13796 0.3288 0.0
C538 C 0.65089 0.12128 0.18962 0.0
H539 H 0.61973 0.15379 0.93841 0.0
H540 H 0.62025 0.15292 0.04606 0.0
H541 H 0.66337 0.12017 0.1043 0.0
H542 H 0.65084 0.09938 0.38847 0.0
H543 H 0.65018 0.0994 0.28012 0.0
H544 H 0.60767 0.13206 0.22011 0.0
C545 C 0.62696 0.14244 0.01517 0.0
C546 C 0.65109 0.12264 0.129 0.0
C547 C 0.62674 0.14302 0.9538 0.0
C548 C 0.64412 0.11018 0.37223 0.0
C549 C 0.64381 0.11025 0.31049 0.0
C550 C 0.61992 0.12951 0.19529 0.0
C551 C 0.63583 0.12851 0.03631 0.0
C552 C 0.63571 0.12746 0.10094 0.0
C553 C 0.63529 0.1242 0.28831 0.0
C554 C 0.63531 0.12477 0.22338 0.0
H555 H 0.65111 0.10539 0.90321 0.0
H556 H 0.65135 0.10427 0.00986 0.0
H557 H 0.60798 0.13426 0.114 0.0
H558 H 0.62103 0.14883 0.42038 0.0
H559 H 0.62055 0.149 0.31312 0.0
C560 C 0.86404 0.39484 0.14584 0.0
C561 C 0.86752 0.37895 0.10492 0.0
C562 C 0.8649 0.39502 0.20767 0.0
C563 C 0.88447 0.37052 0.31778 0.0
H564 H 0.84769 0.39356 0.4239 0.0
C565 C 0.87861 0.36185 0.56515 0.0
C566 C 0.87439 0.3773 0.60709 0.0
C567 C 0.87793 0.36215 0.50362 0.0
C568 C 0.85817 0.38724 0.39492 0.0
H569 H 0.87447 0.35082 0.09582 0.0
H570 H 0.87589 0.35111 0.20334 0.0
H571 H 0.84632 0.39446 0.31682 0.0
H572 H 0.86634 0.40518 0.61836 0.0
H573 H 0.86538 0.40579 0.51133 0.0
H574 H 0.89634 0.36332 0.39576 0.0
C575 C 0.8727 0.36346 0.18803 0.0
C576 C 0.85738 0.38778 0.33369 0.0
C577 C 0.87178 0.36327 0.12651 0.0
C578 C 0.86959 0.39305 0.58683 0.0
C579 C 0.86893 0.39337 0.52556 0.0
C580 C 0.88528 0.37002 0.379 0.0
C581 C 0.86935 0.37933 0.22926 0.0
C582 C 0.87048 0.37936 0.29451 0.0
C583 C 0.87301 0.37791 0.48326 0.0
C584 C 0.87212 0.37833 0.41819 0.0
H585 H 0.86076 0.4071 0.13011 0.0
H586 H 0.86237 0.40747 0.23856 0.0
H587 H 0.89488 0.36412 0.28868 0.0
H588 H 0.8823 0.34953 0.57984 0.0
H589 H 0.88098 0.34998 0.47202 0.0
C590 C 0.36374 0.11056 0.37369 0.0
C591 C 0.36914 0.12585 0.4144 0.0
C592 C 0.36441 0.11039 0.31185 0.0
C593 C 0.38602 0.13273 0.19979 0.0
H594 H 0.34613 0.11484 0.09889 0.0
C595 C 0.3797 0.14308 0.95438 0.0
C596 C 0.37362 0.12833 0.91268 0.0
C597 C 0.37922 0.1427 0.01586 0.0
C598 C 0.35745 0.11971 0.12639 0.0
H599 H 0.37943 0.15292 0.42314 0.0
H600 H 0.38052 0.15266 0.31563 0.0
H601 H 0.34541 0.11363 0.20578 0.0
H602 H 0.36236 0.10162 0.90177 0.0
H603 H 0.36173 0.10084 0.00868 0.0
H604 H 0.39808 0.1388 0.12049 0.0
C605 C 0.37596 0.14074 0.33108 0.0
C606 C 0.35704 0.11898 0.1875 0.0
C607 C 0.37523 0.14092 0.39261 0.0
C608 C 0.36707 0.11321 0.93313 0.0
C609 C 0.36661 0.11281 0.99435 0.0
C610 C 0.38645 0.13343 0.13867 0.0
C611 C 0.37058 0.12549 0.29005 0.0
C612 C 0.37129 0.12555 0.22481 0.0
C613 C 0.37265 0.12754 0.03639 0.0
C614 C 0.37215 0.12697 0.10138 0.0
H615 H 0.35902 0.09878 0.38959 0.0
H616 H 0.3603 0.09841 0.2811 0.0
H617 H 0.39729 0.13768 0.22741 0.0
H618 H 0.38477 0.1549 0.93954 0.0
H619 H 0.3838 0.15433 0.04732 0.0
C620 C 0.64264 0.61652 0.1191 0.0
C621 C 0.62677 0.61344 0.14769 0.0
C622 C 0.64264 0.61871 0.05893 0.0
C623 C 0.61296 0.63141 0.94311 0.0
H624 H 0.65024 0.61187 0.83292 0.0
C625 C 0.61023 0.63299 0.68758 0.0
C626 C 0.62613 0.63595 0.65901 0.0
C627 C 0.6102 0.63066 0.74763 0.0
C628 C 0.63983 0.61763 0.86326 0.0
H629 H 0.59854 0.60976 0.13534 0.0
H630 H 0.59854 0.61334 0.03039 0.0
H631 H 0.65053 0.60629 0.93559 0.0
H632 H 0.6544 0.63925 0.67123 0.0
H633 H 0.65436 0.6355 0.77596 0.0
H634 H 0.60228 0.64277 0.87085 0.0
C635 C 0.61097 0.61435 0.05449 0.0
C636 C 0.64 0.6144 0.92222 0.0
C637 C 0.61099 0.61213 0.11452 0.0
C638 C 0.64193 0.63698 0.69205 0.0
C639 C 0.64191 0.63465 0.75196 0.0
C640 C 0.6128 0.63465 0.88416 0.0
C641 C 0.62676 0.61792 0.02606 0.0
C642 C 0.62656 0.62123 0.96298 0.0
C643 C 0.62609 0.63121 0.78039 0.0
C644 C 0.62625 0.62783 0.8434 0.0
H645 H 0.655 0.61769 0.14367 0.0
H646 H 0.65503 0.62158 0.03875 0.0
H647 H 0.60256 0.63716 0.97347 0.0
H648 H 0.59786 0.63201 0.6631 0.0
H649 H 0.59777 0.62789 0.76777 0.0
C650 C 0.1131 0.89473 0.39585 0.0
C651 C 0.12852 0.89151 0.36099 0.0
C652 C 0.11303 0.89255 0.45597 0.0
C653 C 0.13688 0.86899 0.56159 0.0
H654 H 0.11042 0.90106 0.68312 0.0
C655 C 0.14092 0.86528 0.81497 0.0
C656 C 0.12553 0.86881 0.84983 0.0
C657 C 0.14116 0.86765 0.75504 0.0
C658 C 0.11769 0.89181 0.64965 0.0
H659 H 0.15608 0.8839 0.36215 0.0
H660 H 0.15605 0.88028 0.46738 0.0
H661 H 0.11155 0.90678 0.58071 0.0
H662 H 0.09819 0.87717 0.84883 0.0
H663 H 0.09846 0.881 0.74391 0.0
H664 H 0.14297 0.85397 0.63041 0.0
C665 C 0.14392 0.88427 0.44809 0.0
C666 C 0.11837 0.89513 0.59081 0.0
C667 C 0.144 0.8865 0.38793 0.0
C668 C 0.11025 0.87433 0.82306 0.0
C669 C 0.11047 0.87669 0.76306 0.0
C670 C 0.13617 0.86564 0.62041 0.0
C671 C 0.12837 0.88705 0.48275 0.0
C672 C 0.12797 0.88377 0.54591 0.0
C673 C 0.12601 0.87361 0.72839 0.0
C674 C 0.12655 0.877 0.66532 0.0
H675 H 0.10094 0.89851 0.37625 0.0
H676 H 0.10076 0.89464 0.48089 0.0
H677 H 0.14415 0.85975 0.52808 0.0
H678 H 0.15294 0.86113 0.83447 0.0
H679 H 0.15342 0.86532 0.7302 0.0
C680 C 0.86445 0.61097 0.86581 0.0
C681 C 0.86725 0.62701 0.90672 0.0
C682 C 0.86527 0.61081 0.80401 0.0
C683 C 0.88366 0.63605 0.69421 0.0
H684 H 0.84787 0.6113 0.58742 0.0
C685 C 0.87732 0.64407 0.44639 0.0
C686 C 0.87375 0.6284 0.4046 0.0
C687 C 0.87669 0.64384 0.50794 0.0
C688 C 0.85808 0.61811 0.6166 0.0
H689 H 0.87296 0.65543 0.91588 0.0
H690 H 0.8743 0.65516 0.80835 0.0
H691 H 0.84658 0.6105 0.69455 0.0
H692 H 0.86693 0.6002 0.39358 0.0
H693 H 0.86608 0.59971 0.50069 0.0
H694 H 0.89519 0.64364 0.61636 0.0
C695 C 0.87168 0.64269 0.82367 0.0
C696 C 0.85733 0.61762 0.67785 0.0
C697 C 0.8708 0.64286 0.88518 0.0
C698 C 0.86967 0.6125 0.42501 0.0
C699 C 0.86907 0.61224 0.48632 0.0
C700 C 0.88443 0.6365 0.63296 0.0
C701 C 0.869 0.62667 0.78246 0.0
C702 C 0.87008 0.62665 0.71724 0.0
C703 C 0.87249 0.62791 0.52846 0.0
C704 C 0.87163 0.62756 0.59355 0.0
H705 H 0.86172 0.59859 0.88153 0.0
H706 H 0.86327 0.59824 0.77312 0.0
H707 H 0.89381 0.64292 0.72351 0.0
H708 H 0.88045 0.65651 0.43157 0.0
H709 H 0.87922 0.65617 0.53945 0.0
C710 C 0.11248 0.11038 0.61443 0.0
C711 C 0.12779 0.11405 0.6496 0.0
C712 C 0.11235 0.11253 0.5543 0.0
C713 C 0.13574 0.13662 0.44914 0.0
H714 H 0.10986 0.10407 0.32724 0.0
C715 C 0.14008 0.13986 0.1957 0.0
C716 C 0.12472 0.13629 0.16071 0.0
C717 C 0.14027 0.13759 0.2557 0.0
C718 C 0.11696 0.11344 0.36085 0.0
H719 H 0.15514 0.12241 0.64903 0.0
H720 H 0.15505 0.12591 0.54376 0.0
H721 H 0.11106 0.09838 0.4297 0.0
H722 H 0.09737 0.12797 0.16146 0.0
H723 H 0.09757 0.12427 0.26655 0.0
H724 H 0.14163 0.15168 0.3803 0.0
C725 C 0.14302 0.12164 0.56281 0.0
C726 C 0.11769 0.11015 0.4197 0.0
C727 C 0.14313 0.11947 0.62299 0.0
C728 C 0.1094 0.13084 0.18737 0.0
C729 C 0.10958 0.12856 0.24743 0.0
C730 C 0.13501 0.13991 0.3903 0.0
C731 C 0.12755 0.11843 0.52785 0.0
C732 C 0.12708 0.12169 0.46471 0.0
C733 C 0.12509 0.13169 0.28222 0.0
C734 C 0.12561 0.12837 0.3453 0.0
H735 H 0.10042 0.10628 0.63381 0.0
H736 H 0.10015 0.11011 0.52915 0.0
H737 H 0.14283 0.146 0.48274 0.0
H738 H 0.15213 0.14397 0.17626 0.0
H739 H 0.15251 0.13995 0.28072 0.0
C740 C 0.64044 0.36577 0.31972 0.0
C741 C 0.62505 0.36911 0.35463 0.0
C742 C 0.64058 0.3681 0.25978 0.0
C743 C 0.61141 0.37216 0.13094 0.0
H744 H 0.65215 0.39544 0.07535 0.0
C745 C 0.61166 0.39448 0.9001 0.0
C746 C 0.62717 0.39145 0.86568 0.0
C747 C 0.61151 0.3923 0.9602 0.0
C748 C 0.64075 0.38875 0.08983 0.0
H749 H 0.59762 0.37717 0.35383 0.0
H750 H 0.59779 0.38123 0.24912 0.0
H751 H 0.65151 0.38981 0.17794 0.0
H752 H 0.65479 0.38414 0.86749 0.0
H753 H 0.65458 0.38024 0.9723 0.0
H754 H 0.60066 0.37103 0.04282 0.0
C755 C 0.60976 0.37668 0.26784 0.0
C756 C 0.64038 0.38549 0.14877 0.0
C757 C 0.60965 0.37439 0.3279 0.0
C758 C 0.64266 0.38666 0.89303 0.0
C759 C 0.64253 0.38447 0.9532 0.0
C760 C 0.61178 0.37538 0.07198 0.0
C761 C 0.6253 0.37381 0.2332 0.0
C762 C 0.62571 0.37714 0.17015 0.0
C763 C 0.62688 0.38701 0.9874 0.0
C764 C 0.62645 0.38374 0.05056 0.0
H765 H 0.65253 0.3617 0.33911 0.0
H766 H 0.6527 0.36548 0.23429 0.0
H767 H 0.6 0.36548 0.14549 0.0
H768 H 0.59951 0.39819 0.88024 0.0
H769 H 0.5993 0.3947 0.98529 0.0
C770 C 0.3716 0.86066 0.0638 0.0
C771 C 0.37783 0.8757 0.10398 0.0
C772 C 0.37038 0.86102 1.00237 0.0
C773 C 0.38611 0.88579 0.88542 0.0
H774 H 0.34469 0.86489 0.79885 0.0
C775 C 0.37026 0.89539 0.64337 0.0
C776 C 0.3652 0.87981 0.6033 0.0
C777 C 0.37139 0.8953 0.70503 0.0
C778 C 0.35639 0.87068 0.82233 0.0
H779 H 0.38784 0.90282 0.11186 0.0
H780 H 0.38547 0.9036 1.00512 0.0
H781 H 0.34811 0.86337 0.90486 0.0
H782 H 0.35704 0.85208 0.59586 0.0
H783 H 0.35899 0.85192 0.70317 0.0
H784 H 0.39431 0.89319 0.80282 0.0
C785 C 0.38179 0.8914 0.02051 0.0
C786 C 0.35839 0.86974 0.88302 0.0
C787 C 0.38308 0.89099 0.08174 0.0
C788 C 0.36093 0.8643 0.62585 0.0
C789 C 0.36197 0.86422 0.68733 0.0
C790 C 0.38407 0.88679 0.82479 0.0
C791 C 0.37529 0.87648 0.9801 0.0
C792 C 0.3733 0.87725 0.91528 0.0
C793 C 0.36737 0.87966 0.72757 0.0
C794 C 0.36921 0.8792 0.79254 0.0
H795 H 0.3675 0.8487 0.0799 0.0
H796 H 0.36557 0.8492 0.97234 0.0
H797 H 0.39788 0.89149 0.90868 0.0
H798 H 0.37362 0.90752 0.627 0.0
H799 H 0.37541 0.90745 0.73508 0.0
C800 C 0.15308 0.69199 0.18263 0.0
C801 C 0.13888 0.68059 0.18895 0.0
C802 C 0.15027 0.71028 0.18456 0.0
C803 C 0.13779 0.74222 0.13451 0.0
H804 H 0.10684 0.77409 0.24145 0.0
C805 C 0.11822 0.81109 0.08364 0.0
C806 C 0.11987 0.82567 0.13165 0.0
C807 C 0.11884 0.79347 0.09394 0.0
C808 C 0.11555 0.76533 0.21132 0.0
H809 H 0.11083 0.67954 0.20715 0.0
H810 H 0.10587 0.71166 0.21043 0.0
H811 H 0.11223 0.74358 0.25921 0.0
H812 H 0.12262 0.8331 0.22857 0.0
H813 H 0.12376 0.80238 0.24626 0.0
H814 H 0.1413 0.76382 0.08688 0.0
C815 C 0.11919 0.70643 0.20403 0.0
C816 C 0.11855 0.74786 0.22132 0.0
C817 C 0.12203 0.68806 0.20227 0.0
C818 C 0.12138 0.8222 0.19043 0.0
C819 C 0.12193 0.80458 0.20071 0.0
C820 C 0.13471 0.75956 0.12432 0.0
C821 C 0.13318 0.71756 0.19262 0.0
C822 C 0.12984 0.73618 0.18326 0.0
C823 C 0.12105 0.79001 0.15246 0.0
C824 C 0.1236 0.77135 0.16261 0.0
H825 H 0.16624 0.6866 0.17286 0.0
H826 H 0.16139 0.71859 0.17714 0.0
H827 H 0.14631 0.73346 0.10367 0.0
H828 H 0.11696 0.81324 0.03785 0.0
H829 H 0.11786 0.78252 0.05588 0.0
C830 C 0.57015 0.88048 0.43233 0.0
C831 C 0.57806 0.87437 0.37603 0.0
C832 C 0.55171 0.88055 0.43841 0.0
C833 C 0.51136 0.88093 0.34708 0.0
H834 H 0.48715 0.86477 0.47839 0.0
C835 C 0.4381 0.86419 0.33135 0.0
C836 C 0.42725 0.87135 0.38029 0.0
C837 C 0.45642 0.86472 0.33691 0.0
C838 C 0.49377 0.86951 0.44188 0.0
H839 H 0.57277 0.86297 0.2825 0.0
H840 H 0.54091 0.86294 0.29324 0.0
H841 H 0.51957 0.86561 0.47688 0.0
H842 H 0.4272 0.88392 0.47447 0.0
H843 H 0.45951 0.8848 0.48418 0.0
H844 H 0.48577 0.8846 0.31149 0.0
C845 C 0.54885 0.86802 0.3325 0.0
C846 C 0.51229 0.87 0.44101 0.0
C847 C 0.56717 0.86796 0.32643 0.0
C848 C 0.4352 0.87833 0.43589 0.0
C849 C 0.45367 0.87881 0.4415 0.0
C850 C 0.49297 0.88039 0.34787 0.0
C851 C 0.54087 0.87456 0.38826 0.0
C852 C 0.52128 0.87536 0.39283 0.0
C853 C 0.46444 0.87241 0.39152 0.0
C854 C 0.48396 0.87431 0.39451 0.0
H855 H 0.57817 0.88548 0.47148 0.0
H856 H 0.54594 0.8857 0.48194 0.0
H857 H 0.51785 0.88559 0.31016 0.0
H858 H 0.43248 0.85849 0.28802 0.0
H859 H 0.46437 0.85931 0.29796 0.0
C860 C 0.38683 0.31125 0.58683 0.0
C861 C 0.38516 0.32575 0.63507 0.0
C862 C 0.38617 0.29358 0.59671 0.0
C863 C 0.3893 0.2653 0.71383 0.0
H864 H 0.35913 0.23328 0.60439 0.0
C865 C 0.35237 0.19163 0.68231 0.0
C866 C 0.3666 0.18039 0.68986 0.0
C867 C 0.35503 0.20994 0.68447 0.0
C868 C 0.36748 0.24209 0.63574 0.0
H869 H 0.38222 0.333 0.73198 0.0
H870 H 0.38096 0.30223 0.74893 0.0
H871 H 0.364 0.26371 0.58819 0.0
H872 H 0.39453 0.17964 0.71039 0.0
H873 H 0.39924 0.21179 0.71395 0.0
H874 H 0.39254 0.24355 0.76172 0.0
C875 C 0.38288 0.30451 0.70352 0.0
C876 C 0.37048 0.25946 0.62589 0.0
C877 C 0.38349 0.32217 0.69366 0.0
C878 C 0.38331 0.18803 0.70457 0.0
C879 C 0.386 0.20643 0.70648 0.0
C880 C 0.38635 0.24781 0.72355 0.0
C881 C 0.38386 0.29001 0.65505 0.0
C882 C 0.38138 0.27131 0.66483 0.0
C883 C 0.37201 0.21741 0.69389 0.0
C884 C 0.37527 0.23606 0.68484 0.0
H885 H 0.38822 0.3135 0.54118 0.0
H886 H 0.38723 0.28269 0.5585 0.0
H887 H 0.39784 0.27409 0.74445 0.0
H888 H 0.33932 0.18608 0.67145 0.0
H889 H 0.34389 0.21813 0.67615 0.0
C890 C 0.94103 0.10323 0.91615 0.0
C891 C 0.92981 0.1182 0.92729 0.0
C892 C 0.9586 0.10464 0.93497 0.0
C893 C 0.9941 0.13753 0.96215 0.0
H894 H 0.01958 0.09789 0.00896 0.0
C895 C 0.07047 0.13475 0.9604 0.0
C896 C 0.07698 0.11852 0.92751 0.0
C897 C 0.05275 0.13616 0.97873 0.0
C898 C 0.01266 0.10912 0.99619 0.0
H899 H 0.92782 0.14621 0.96943 0.0
H900 H 0.95878 0.14878 1.00215 0.0
H901 H 0.98734 0.09782 0.00898 0.0
H902 H 0.07052 0.09081 0.89111 0.0
H903 H 0.03982 0.09319 0.92303 0.0
H904 H 0.01942 0.14843 0.94668 0.0
C905 C 0.95395 0.13595 0.97859 0.0
C906 C 0.9942 0.10908 0.99619 0.0
C907 C 0.93624 0.13447 0.96016 0.0
C908 C 0.06582 0.10351 0.9162 0.0
C909 C 0.04824 0.10485 0.93493 0.0
C910 C 0.01259 0.13757 0.96215 0.0
C911 C 0.96541 0.12112 0.96515 0.0
C912 C 0.98471 0.12295 0.97699 0.0
C913 C 0.04137 0.12128 0.96517 0.0
C914 C 0.02206 0.12303 0.97699 0.0
H915 H 0.93638 0.0905 0.89108 0.0
H916 H 0.96708 0.09301 0.92317 0.0
H917 H 0.9872 0.14835 0.94668 0.0
H918 H 0.07884 0.14652 0.9698 0.0
H919 H 0.04786 0.14896 1.00233 0.0
C920 C 0.12102 0.31792 0.81309 0.0
C921 C 0.13791 0.32541 0.8253 0.0
C922 C 0.11832 0.29952 0.8113 0.0
C923 C 0.118 0.25804 0.79301 0.0
H924 H 0.1417 0.24194 0.92561 0.0
C925 C 0.12169 0.18356 0.82187 0.0
C926 C 0.12037 0.17997 0.88054 0.0
C927 C 0.12215 0.20123 0.812 0.0
C928 C 0.13485 0.24624 0.88869 0.0
H929 H 0.1654 0.31947 0.83947 0.0
H930 H 0.16078 0.28745 0.83516 0.0
H931 H 0.14625 0.27242 0.90935 0.0
H932 H 0.11779 0.19221 0.97462 0.0
H933 H 0.11856 0.22302 0.95732 0.0
H934 H 0.1065 0.23173 0.77286 0.0
C935 C 0.14955 0.29575 0.82862 0.0
C936 C 0.13766 0.26365 0.87881 0.0
C937 C 0.15223 0.31404 0.83059 0.0
C938 C 0.11891 0.19447 0.9289 0.0
C939 C 0.11944 0.21213 0.91902 0.0
C940 C 0.11527 0.24051 0.8027 0.0
C941 C 0.13247 0.28841 0.82158 0.0
C942 C 0.12936 0.26974 0.83072 0.0
C943 C 0.12137 0.21572 0.86057 0.0
C944 C 0.12368 0.23444 0.85072 0.0
H945 H 0.10974 0.32641 0.80903 0.0
H946 H 0.105 0.29425 0.8057 0.0
H947 H 0.11142 0.26237 0.75564 0.0
H948 H 0.12278 0.17274 0.78347 0.0
H949 H 0.12378 0.20354 0.7665 0.0
C950 C 0.06935 0.8727 0.06303 0.0
C951 C 0.0779 0.88904 0.08513 0.0
C952 C 0.05112 0.87239 0.05158 0.0
C953 C 0.01228 0.89942 0.10653 0.0
H954 H 0.9864 0.86795 0.98165 0.0
C955 C 0.93771 0.90519 0.09676 0.0
C956 C 0.92811 0.88916 0.09121 0.0
C957 C 0.95569 0.90488 0.08346 0.0
C958 C 0.99348 0.87675 0.01689 0.0
H959 H 0.07467 0.91788 0.10707 0.0
H960 H 0.04316 0.91744 0.08546 0.0
H961 H 0.01886 0.86792 0.98016 0.0
H962 H 0.92939 0.86027 0.06351 0.0
H963 H 0.96115 0.85964 0.04148 0.0
H964 H 0.98726 0.90803 0.14425 0.0
C965 C 0.05026 0.90481 0.07886 0.0
C966 C 0.01203 0.87673 0.01603 0.0
C967 C 0.06832 0.90509 0.09088 0.0
C968 C 0.93654 0.87282 0.0682 0.0
C969 C 0.9547 0.87248 0.05549 0.0
C970 C 0.9939 0.89943 0.1074 0.0
C971 C 0.04128 0.88843 0.06167 0.0
C972 C 0.02162 0.88821 0.06068 0.0
C973 C 0.96458 0.8885 0.0652 0.0
C974 C 0.98422 0.88823 0.06244 0.0
H975 H 0.0765 0.86013 0.05823 0.0
H976 H 0.0446 0.85956 0.03836 0.0
H977 H 0.0192 0.90802 0.14272 0.0
H978 H 0.93143 0.91798 0.11359 0.0
H979 H 0.96279 0.9175 0.08978 0.0
C980 C 0.38552 0.69479 0.42731 0.0
C981 C 0.3845 0.68017 0.37922 0.0
C982 C 0.38464 0.71239 0.41689 0.0
C983 C 0.38879 0.74046 0.29988 0.0
H984 H 0.35723 0.77223 0.40468 0.0
C985 C 0.35191 0.81412 0.32722 0.0
C986 C 0.36635 0.82541 0.32285 0.0
C987 C 0.35443 0.79577 0.32463 0.0
C988 C 0.36597 0.76349 0.3746 0.0
H989 H 0.38243 0.67265 0.28212 0.0
H990 H 0.38083 0.70333 0.2642 0.0
H991 H 0.3619 0.74182 0.42151 0.0
H992 H 0.39456 0.82622 0.30734 0.0
H993 H 0.39902 0.794 0.30299 0.0
H994 H 0.39271 0.76229 0.25278 0.0
C995 C 0.38239 0.70118 0.30991 0.0
C996 C 0.36884 0.74613 0.38483 0.0
C997 C 0.3832 0.68358 0.32031 0.0
C998 C 0.38319 0.81779 0.31072 0.0
C999 C 0.38574 0.79935 0.30834 0.0
C1000 C 0.38599 0.75795 0.28984 0.0
C1001 C 0.38278 0.71577 0.35815 0.0
C1002 C 0.38026 0.73439 0.34763 0.0
C1003 C 0.37147 0.78831 0.31789 0.0
C1004 C 0.37444 0.76961 0.32691 0.0
H1005 H 0.3866 0.69268 0.4732 0.0
H1006 H 0.38523 0.72337 0.45496 0.0
H1007 H 0.39774 0.73174 0.27063 0.0
H1008 H 0.33876 0.81965 0.33604 0.0
H1009 H 0.34311 0.78753 0.33061 0.0
C1010 C 0.56824 0.13449 0.69672 0.0
C1011 C 0.57898 0.1289 0.6461 0.0
C1012 C 0.54988 0.13391 0.69171 0.0
C1013 C 0.51284 0.1324 0.5853 0.0
H1014 H 0.48713 0.11554 0.71222 0.0
C1015 C 0.43602 0.12387 0.58856 0.0
C1016 C 0.42794 0.12997 0.64457 0.0
C1017 C 0.4545 0.12313 0.58365 0.0
C1018 C 0.49409 0.1204 0.67661 0.0
H1019 H 0.57875 0.11865 0.55006 0.0
H1020 H 0.5465 0.11759 0.54142 0.0
H1021 H 0.51925 0.11528 0.71282 0.0
H1022 H 0.43301 0.14061 0.73887 0.0
H1023 H 0.46491 0.13941 0.73014 0.0
H1024 H 0.48749 0.13766 0.54955 0.0
C1025 C 0.5524 0.12248 0.58495 0.0
C1026 C 0.51251 0.12026 0.67698 0.0
C1027 C 0.57086 0.12302 0.58999 0.0
C1028 C 0.43871 0.13567 0.69507 0.0
C1029 C 0.45706 0.13489 0.69019 0.0
C1030 C 0.49431 0.13254 0.58492 0.0
C1031 C 0.54172 0.12772 0.63598 0.0
C1032 C 0.52212 0.1266 0.63209 0.0
C1033 C 0.46519 0.12838 0.63471 0.0
C1034 C 0.48476 0.12688 0.63135 0.0
H1035 H 0.57399 0.13923 0.7406 0.0
H1036 H 0.54204 0.13838 0.73169 0.0
H1037 H 0.51987 0.13743 0.55018 0.0
H1038 H 0.4281 0.1194 0.54876 0.0
H1039 H 0.46039 0.11802 0.54029 0.0
C1040 C 0.88314 0.18306 0.82063 0.0
C1041 C 0.88494 0.17952 0.87924 0.0
C1042 C 0.88214 0.20069 0.81072 0.0
C1043 C 0.86906 0.24559 0.88812 0.0
H1044 H 0.89124 0.26186 0.75327 0.0
C1045 C 0.88218 0.31728 0.81221 0.0
C1046 C 0.86552 0.325 0.82716 0.0
C1047 C 0.88475 0.29883 0.8095 0.0
C1048 C 0.885 0.2575 0.79114 0.0
H1049 H 0.88778 0.19186 0.97316 0.0
H1050 H 0.88611 0.22262 0.95577 0.0
H1051 H 0.89669 0.2313 0.7701 0.0
H1052 H 0.83819 0.31944 0.84511 0.0
H1053 H 0.84254 0.28729 0.83901 0.0
H1054 H 0.85756 0.2717 0.90988 0.0
C1055 C 0.88525 0.2117 0.91756 0.0
C1056 C 0.88803 0.23999 0.8006 0.0
C1057 C 0.8863 0.19407 0.92749 0.0
C1058 C 0.8512 0.31382 0.8341 0.0
C1059 C 0.85373 0.29546 0.83114 0.0
C1060 C 0.86598 0.26298 0.87854 0.0
C1061 C 0.88285 0.21521 0.85918 0.0
C1062 C 0.88011 0.23387 0.84933 0.0
C1063 C 0.87068 0.28788 0.8215 0.0
C1064 C 0.87384 0.26914 0.82986 0.0
H1065 H 0.88209 0.1722 0.78232 0.0
H1066 H 0.88016 0.20293 0.76529 0.0
H1067 H 0.86257 0.24124 0.92559 0.0
H1068 H 0.89346 0.32563 0.80681 0.0
H1069 H 0.89796 0.2934 0.80191 0.0
C1070 C 0.65456 0.81419 0.33452 0.0
C1071 C 0.64012 0.82522 0.32756 0.0
C1072 C 0.65225 0.79578 0.33107 0.0
C1073 C 0.64034 0.76316 0.37796 0.0
H1074 H 0.61007 0.73116 0.26886 0.0
C1075 C 0.62065 0.69411 0.42665 0.0
C1076 C 0.62221 0.67956 0.37851 0.0
C1077 C 0.62156 0.71174 0.41664 0.0
C1078 C 0.61861 0.73994 0.29953 0.0
H1079 H 0.61219 0.82557 0.30664 0.0
H1080 H 0.60807 0.79325 0.30098 0.0
H1081 H 0.61519 0.76179 0.25221 0.0
H1082 H 0.62526 0.67221 0.28167 0.0
H1083 H 0.62693 0.70294 0.2645 0.0
H1084 H 0.64395 0.74145 0.42504 0.0
C1085 C 0.62121 0.79884 0.30891 0.0
C1086 C 0.62145 0.75749 0.29018 0.0
C1087 C 0.62356 0.81733 0.31206 0.0
C1088 C 0.62406 0.68307 0.3199 0.0
C1089 C 0.62492 0.70071 0.30991 0.0
C1090 C 0.63745 0.74574 0.38744 0.0
C1091 C 0.6354 0.78803 0.32098 0.0
C1092 C 0.63245 0.76925 0.32916 0.0
C1093 C 0.62399 0.71523 0.35828 0.0
C1094 C 0.62656 0.73391 0.34841 0.0
H1095 H 0.6675 0.81995 0.34593 0.0
H1096 H 0.66353 0.78773 0.33899 0.0
H1097 H 0.64863 0.77197 0.40951 0.0
H1098 H 0.61912 0.69192 0.47231 0.0
H1099 H 0.62053 0.72266 0.45477 0.0
C1100 C 0.85325 0.69272 0.17988 0.0
C1101 C 0.86704 0.68078 0.18578 0.0
C1102 C 0.85654 0.71108 0.18575 0.0
C1103 C 0.86605 0.75063 0.22037 0.0
H1104 H 0.90553 0.76174 0.12428 0.0
C1105 C 0.88257 0.8233 0.19904 0.0
C1106 C 0.88549 0.82633 0.14033 0.0
C1107 C 0.88212 0.80588 0.21094 0.0
C1108 C 0.89448 0.75884 0.1513 0.0
H1109 H 0.89488 0.67872 0.20599 0.0
H1110 H 0.90067 0.71094 0.21609 0.0
H1111 H 0.90095 0.73088 0.13861 0.0
H1112 H 0.89086 0.81335 0.04847 0.0
H1113 H 0.89005 0.78285 0.06936 0.0
H1114 H 0.85924 0.77844 0.23159 0.0
C1115 C 0.88733 0.70604 0.20656 0.0
C1116 C 0.89197 0.74122 0.16013 0.0
C1117 C 0.88399 0.68765 0.20136 0.0
C1118 C 0.88856 0.81151 0.09416 0.0
C1119 C 0.88818 0.79404 0.10618 0.0
C1120 C 0.86863 0.76825 0.21194 0.0
C1121 C 0.87373 0.71786 0.19714 0.0
C1122 C 0.87756 0.73688 0.19394 0.0
C1123 C 0.88465 0.79103 0.16455 0.0
C1124 C 0.88271 0.77251 0.17655 0.0
H1125 H 0.84007 0.68774 0.16782 0.0
H1126 H 0.84579 0.71981 0.17789 0.0
H1127 H 0.85488 0.7477 0.24683 0.0
H1128 H 0.88025 0.83436 0.23593 0.0
H1129 H 0.87963 0.80402 0.25651 0.0
C1130 C 0.65475 0.19096 0.67504 0.0
C1131 C 0.64063 0.17988 0.68489 0.0
C1132 C 0.65217 0.20931 0.67793 0.0
C1133 C 0.6392 0.24179 0.63231 0.0
H1134 H 0.61005 0.27379 0.74547 0.0
C1135 C 0.61897 0.31106 0.58688 0.0
C1136 C 0.62103 0.32554 0.63501 0.0
C1137 C 0.61987 0.29339 0.59652 0.0
C1138 C 0.61827 0.265 0.71363 0.0
H1139 H 0.61304 0.17943 0.71011 0.0
H1140 H 0.60844 0.21164 0.71476 0.0
H1141 H 0.61567 0.24317 0.76146 0.0
H1142 H 0.62492 0.33272 0.73154 0.0
H1143 H 0.62662 0.30193 0.74805 0.0
H1144 H 0.64205 0.26349 0.58482 0.0
C1145 C 0.62154 0.20613 0.70502 0.0
C1146 C 0.62139 0.24747 0.72261 0.0
C1147 C 0.62417 0.1877 0.70245 0.0
C1148 C 0.62333 0.32191 0.69332 0.0
C1149 C 0.6242 0.30424 0.70294 0.0
C1150 C 0.63603 0.25921 0.62324 0.0
C1151 C 0.63535 0.21698 0.69032 0.0
C1152 C 0.63201 0.23571 0.68222 0.0
C1153 C 0.62283 0.28978 0.65449 0.0
C1154 C 0.62556 0.27105 0.66375 0.0
H1155 H 0.66762 0.18526 0.66201 0.0
H1156 H 0.66319 0.21738 0.66796 0.0
H1157 H 0.64717 0.23298 0.59969 0.0
H1158 H 0.61707 0.31334 0.54146 0.0
H1159 H 0.61848 0.28252 0.55836 0.0
C1160 C 0.93815 0.36528 0.83028 0.0
C1161 C 0.9273 0.37285 0.87875 0.0
C1162 C 0.9564 0.36415 0.83758 0.0
C1163 C 0.99352 0.38449 0.93023 0.0
H1164 H 0.0183 0.34195 0.85025 0.0
C1165 C 0.07016 0.37796 0.93486 0.0
C1166 C 0.07794 0.37117 0.87886 0.0
C1167 C 0.0518 0.37715 0.94239 0.0
C1168 C 0.0116 0.35396 0.87267 0.0
H1169 H 0.92722 0.38517 0.97318 0.0
H1170 H 0.95927 0.38324 0.98584 0.0
H1171 H 0.98613 0.34251 0.84967 0.0
H1172 H 0.07249 0.35788 0.78726 0.0
H1173 H 0.04076 0.35657 0.80027 0.0
H1174 H 0.01908 0.39609 0.9519 0.0
C1175 C 0.95354 0.37822 0.94212 0.0
C1176 C 0.99315 0.35428 0.87234 0.0
C1177 C 0.93519 0.37924 0.93491 0.0
C1178 C 0.067 0.36326 0.83106 0.0
C1179 C 0.04875 0.36237 0.83864 0.0
C1180 C 0.01203 0.38418 0.93047 0.0
C1181 C 0.96435 0.37062 0.89349 0.0
C1182 C 0.98388 0.36969 0.89988 0.0
C1183 C 0.04088 0.3694 0.89421 0.0
C1184 C 0.02129 0.36906 0.90043 0.0
H1185 H 0.93257 0.36022 0.78636 0.0
H1186 H 0.96434 0.35848 0.79893 0.0
H1187 H 0.98678 0.3966 0.95156 0.0
H1188 H 0.0782 0.38417 0.97259 0.0
H1189 H 0.04615 0.38258 0.9859 0.0
C1190 C 0.44083 0.60436 0.41696 0.0
C1191 C 0.42965 0.61938 0.42731 0.0
C1192 C 0.45844 0.60582 0.4353 0.0
C1193 C 0.49418 0.63853 0.45956 0.0
H1194 H 0.51942 0.59926 0.50979 0.0
C1195 C 0.57061 0.63529 0.45859 0.0
C1196 C 0.57707 0.61884 0.42712 0.0
C1197 C 0.55286 0.63695 0.47655 0.0
C1198 C 0.51257 0.61039 0.49602 0.0
H1199 H 0.42783 0.64756 0.46741 0.0
H1200 H 0.45889 0.65022 0.49923 0.0
H1201 H 0.48718 0.59938 0.50982 0.0
H1202 H 0.57047 0.59104 0.3929 0.0
H1203 H 0.53973 0.59384 0.42425 0.0
H1204 H 0.51957 0.64911 0.44316 0.0
C1205 C 0.45397 0.63731 0.47671 0.0
C1206 C 0.49411 0.61046 0.49604 0.0
C1207 C 0.43621 0.63578 0.45882 0.0
C1208 C 0.56581 0.60389 0.41691 0.0
C1209 C 0.54821 0.60548 0.4353 0.0
C1210 C 0.51267 0.63846 0.45954 0.0
C1211 C 0.46536 0.62239 0.46414 0.0
C1212 C 0.4847 0.62418 0.47568 0.0
C1213 C 0.54139 0.62211 0.46408 0.0
C1214 C 0.52206 0.62404 0.47564 0.0
H1215 H 0.43609 0.59153 0.39293 0.0
H1216 H 0.46686 0.59412 0.42417 0.0
H1217 H 0.48734 0.64923 0.44319 0.0
H1218 H 0.57905 0.64703 0.46708 0.0
H1219 H 0.54802 0.6499 0.49902 0.0
C1220 C 0.44011 0.40194 0.60091 0.0
C1221 C 0.42896 0.38691 0.58949 0.0
C1222 C 0.45781 0.40055 0.58349 0.0
C1223 C 0.49371 0.3679 0.55885 0.0
H1224 H 0.51893 0.40731 0.50969 0.0
C1225 C 0.57021 0.37057 0.55661 0.0
C1226 C 0.57697 0.38695 0.58755 0.0
C1227 C 0.55234 0.3691 0.53992 0.0
C1228 C 0.51209 0.39615 0.52326 0.0
H1229 H 0.42732 0.35877 0.54857 0.0
H1230 H 0.45851 0.35625 0.51831 0.0
H1231 H 0.4867 0.40731 0.51033 0.0
H1232 H 0.57073 0.41482 0.62222 0.0
H1233 H 0.53978 0.41235 0.59317 0.0
H1234 H 0.51912 0.35713 0.57426 0.0
C1235 C 0.45351 0.36912 0.54098 0.0
C1236 C 0.49362 0.39615 0.52361 0.0
C1237 C 0.43566 0.37057 0.55796 0.0
C1238 C 0.56585 0.40201 0.59857 0.0
C1239 C 0.54812 0.40061 0.5815 0.0
C1240 C 0.51221 0.3679 0.55854 0.0
C1241 C 0.46485 0.38404 0.5545 0.0
C1242 C 0.48421 0.38234 0.54339 0.0
C1243 C 0.54102 0.38406 0.55321 0.0
C1244 C 0.52161 0.38235 0.54273 0.0
H1245 H 0.43527 0.41471 0.62502 0.0
H1246 H 0.46617 0.41225 0.59533 0.0
H1247 H 0.48689 0.35712 0.57477 0.0
H1248 H 0.57853 0.35874 0.54752 0.0
H1249 H 0.5473 0.3562 0.51775 0.0
C1250 C 0.07025 0.62587 0.07944 0.0
C1251 C 0.07804 0.63177 0.13611 0.0
C1252 C 0.05179 0.62526 0.07324 0.0
C1253 C 0.01187 0.62198 0.16356 0.0
H1254 H 0.98625 0.63984 0.03832 0.0
C1255 C 0.93796 0.63627 0.18506 0.0
C1256 C 0.92705 0.63083 0.13473 0.0
C1257 C 0.9563 0.63576 0.17941 0.0
C1258 C 0.99325 0.63458 0.07306 0.0
H1259 H 0.07246 0.64234 0.2301 0.0
H1260 H 0.04062 0.64133 0.21915 0.0
H1261 H 0.01868 0.64008 0.03838 0.0
H1262 H 0.92698 0.62102 0.03845 0.0
H1263 H 0.95925 0.6201 0.02866 0.0
H1264 H 0.98667 0.6166 0.19876 0.0
C1265 C 0.04868 0.63687 0.17968 0.0
C1266 C 0.01179 0.63472 0.07309 0.0
C1267 C 0.06699 0.63753 0.18585 0.0
C1268 C 0.93499 0.62528 0.07815 0.0
C1269 C 0.95346 0.6248 0.07248 0.0
C1270 C 0.99345 0.62181 0.1635 0.0
C1271 C 0.04083 0.63044 0.12364 0.0
C1272 C 0.02127 0.62881 0.11925 0.0
C1273 C 0.9643 0.62978 0.12332 0.0
C1274 C 0.9839 0.6285 0.11916 0.0
H1275 H 0.07838 0.62137 0.0402 0.0
H1276 H 0.0461 0.62025 0.02945 0.0
H1277 H 0.01878 0.6169 0.19889 0.0
H1278 H 0.93237 0.6408 0.22929 0.0
H1279 H 0.96424 0.64007 0.21927 0.0
C1280 C 0.14298 0.5694 0.08973 0.0
C1281 C 0.12728 0.5773 0.11481 0.0
C1282 C 0.14334 0.55124 0.06276 0.0
C1283 C 0.11719 0.50896 0.05471 0.0
H1284 H 0.14894 0.49129 0.92267 0.0
C1285 C 0.11208 0.43917 0.89996 0.0
C1286 C 0.12754 0.42877 0.89467 0.0
C1287 C 0.11241 0.45706 0.92944 0.0
C1288 C 0.14011 0.49608 0.95984 0.0
H1289 H 0.0995 0.57286 0.12896 0.0
H1290 H 0.09978 0.54154 0.07907 0.0
H1291 H 0.14838 0.52329 0.96547 0.0
H1292 H 0.15544 0.42873 0.91611 0.0
H1293 H 0.15613 0.46036 0.96615 0.0
H1294 H 0.10841 0.48172 0.04664 0.0
C1295 C 0.11206 0.54896 0.08239 0.0
C1296 C 0.13982 0.5144 0.98466 0.0
C1297 C 0.11181 0.56699 0.11047 0.0
C1298 C 0.14334 0.43649 0.91975 0.0
C1299 C 0.14376 0.45454 0.94804 0.0
C1300 C 0.11723 0.49073 0.02899 0.0
C1301 C 0.1279 0.54069 0.05918 0.0
C1302 C 0.12832 0.52114 0.03248 0.0
C1303 C 0.12829 0.46496 0.95296 0.0
C1304 C 0.12869 0.48415 0.98141 0.0
H1305 H 0.15512 0.57708 0.09281 0.0
H1306 H 0.15586 0.54541 0.04629 0.0
H1307 H 0.10848 0.51343 0.09241 0.0
H1308 H 0.09973 0.43348 0.88109 0.0
H1309 H 0.10034 0.46487 0.93259 0.0
C1310 C 0.69634 0.86438 0.27465 0.0
C1311 C 0.69033 0.8767 0.3246 0.0
C1312 C 0.71401 0.8641 0.2575 0.0
C1313 C 0.75915 0.87967 0.30548 0.0
H1314 H 0.76665 0.87129 0.13303 0.0
C1315 C 0.82679 0.88657 0.18607 0.0
C1316 C 0.83088 0.87229 0.13901 0.0
C1317 C 0.81025 0.88744 0.21415 0.0
C1318 C 0.76478 0.87353 0.18129 0.0
H1319 H 0.69821 0.89798 0.39733 0.0
H1320 H 0.7293 0.89788 0.3662 0.0
H1321 H 0.73675 0.87263 0.17233 0.0
H1322 H 0.82115 0.84754 0.08546 0.0
H1323 H 0.79221 0.84922 0.13364 0.0
H1324 H 0.78744 0.88094 0.31362 0.0
C1325 C 0.72031 0.88824 0.34079 0.0
C1326 C 0.74763 0.87423 0.20394 0.0
C1327 C 0.70253 0.88835 0.35859 0.0
C1328 C 0.81832 0.85874 0.12138 0.0
C1329 C 0.80176 0.85972 0.14885 0.0
C1330 C 0.7764 0.87918 0.28263 0.0
C1331 C 0.72615 0.87635 0.28914 0.0
C1332 C 0.74456 0.87692 0.26626 0.0
C1333 C 0.79746 0.87418 0.19494 0.0
C1334 C 0.77935 0.87576 0.22025 0.0
H1335 H 0.68733 0.85498 0.24824 0.0
H1336 H 0.7181 0.85434 0.21877 0.0
H1337 H 0.75728 0.88172 0.35367 0.0
H1338 H 0.83623 0.89724 0.20035 0.0
H1339 H 0.80723 0.89877 0.24937 0.0
C1340 C 0.36803 0.43612 0.5208 0.0
C1341 C 0.37167 0.43435 0.58039 0.0
C1342 C 0.36715 0.45299 0.50478 0.0
C1343 C 0.38391 0.4987 0.55014 0.0
H1344 H 0.34951 0.51021 0.43581 0.0
C1345 C 0.37841 0.5694 0.49641 0.0
C1346 C 0.37562 0.57144 0.43652 0.0
C1347 C 0.37737 0.55262 0.51274 0.0
C1348 C 0.35934 0.5071 0.46713 0.0
H1349 H 0.37669 0.44899 0.67037 0.0
H1350 H 0.37519 0.47872 0.64222 0.0
H1351 H 0.34767 0.48153 0.47021 0.0
H1352 H 0.36942 0.55723 0.34683 0.0
H1353 H 0.36771 0.52756 0.37557 0.0
H1354 H 0.39571 0.5241 0.54672 0.0
C1355 C 0.37313 0.46691 0.60791 0.0
C1356 C 0.35824 0.49072 0.48712 0.0
C1357 C 0.37387 0.44993 0.62415 0.0
C1358 C 0.37165 0.55613 0.39327 0.0
C1359 C 0.37059 0.53918 0.40982 0.0
C1360 C 0.38504 0.51502 0.53007 0.0
C1361 C 0.36997 0.46858 0.54781 0.0
C1362 C 0.37051 0.48635 0.52893 0.0
C1363 C 0.37356 0.53726 0.4698 0.0
C1364 C 0.37273 0.51946 0.48853 0.0
H1365 H 0.36613 0.42441 0.48592 0.0
H1366 H 0.36486 0.45377 0.45808 0.0
H1367 H 0.39379 0.49558 0.58129 0.0
H1368 H 0.3814 0.58081 0.53135 0.0
H1369 H 0.37937 0.55173 0.55949 0.0
C1370 C 0.8282 0.11739 0.82695 0.0
C1371 C 0.83217 0.13169 0.87406 0.0
C1372 C 0.81167 0.11644 0.79854 0.0
C1373 C 0.76611 0.13061 0.83066 0.0
H1374 H 0.75867 0.12226 0.6582 0.0
C1375 C 0.6981 0.14136 0.73699 0.0
C1376 C 0.69169 0.12886 0.68815 0.0
C1377 C 0.7158 0.1413 0.75366 0.0
C1378 C 0.76053 0.12436 0.70642 0.0
H1379 H 0.82227 0.15645 0.92716 0.0
H1380 H 0.79345 0.15467 0.87836 0.0
H1381 H 0.78882 0.12258 0.69853 0.0
H1382 H 0.69895 0.10695 0.61664 0.0
H1383 H 0.73012 0.10652 0.64679 0.0
H1384 H 0.73808 0.13213 0.83936 0.0
C1385 C 0.80302 0.14416 0.86346 0.0
C1386 C 0.77777 0.12458 0.72943 0.0
C1387 C 0.81953 0.1452 0.89128 0.0
C1388 C 0.70357 0.11674 0.6545 0.0
C1389 C 0.72139 0.11652 0.67176 0.0
C1390 C 0.74898 0.13022 0.80786 0.0
C1391 C 0.79881 0.12966 0.81742 0.0
C1392 C 0.7807 0.12809 0.79185 0.0
C1393 C 0.72758 0.12853 0.72259 0.0
C1394 C 0.74595 0.12752 0.74552 0.0
H1395 H 0.83771 0.10677 0.8129 0.0
H1396 H 0.80873 0.10509 0.76331 0.0
H1397 H 0.76794 0.13292 0.87894 0.0
H1398 H 0.68934 0.15111 0.76314 0.0
H1399 H 0.72019 0.15114 0.79175 0.0
C1400 C 0.86208 0.5696 0.08351 0.0
C1401 C 0.87763 0.57749 0.11012 0.0
C1402 C 0.86194 0.55148 0.05596 0.0
C1403 C 0.88868 0.51508 0.97904 0.0
H1404 H 0.85797 0.48293 0.0463 0.0
C1405 C 0.89416 0.43858 0.90226 0.0
C1406 C 0.8787 0.42828 0.89946 0.0
C1407 C 0.89398 0.45671 0.92923 0.0
C1408 C 0.86641 0.49169 0.02605 0.0
H1409 H 0.90531 0.57306 0.12686 0.0
H1410 H 0.9052 0.54154 0.07648 0.0
H1411 H 0.85721 0.51507 0.0865 0.0
H1412 H 0.85097 0.42865 0.92295 0.0
H1413 H 0.85034 0.46045 0.96735 0.0
H1414 H 0.89748 0.49208 0.91702 0.0
C1415 C 0.89311 0.54927 0.07797 0.0
C1416 C 0.866 0.51009 0.04941 0.0
C1417 C 0.89316 0.56723 0.10678 0.0
C1418 C 0.8631 0.43631 0.92489 0.0
C1419 C 0.8628 0.45455 0.95067 0.0
C1420 C 0.88883 0.49674 0.95471 0.0
C1421 C 0.87744 0.54119 0.05326 0.0
C1422 C 0.87724 0.52189 0.02642 0.0
C1423 C 0.87822 0.46508 0.95277 0.0
C1424 C 0.87782 0.48472 0.97825 0.0
H1425 H 0.84993 0.57725 0.08568 0.0
H1426 H 0.84973 0.54549 0.03691 0.0
H1427 H 0.89739 0.52399 0.96044 0.0
H1428 H 0.9064 0.43261 0.88342 0.0
H1429 H 0.90625 0.46412 0.9314 0.0
C1430 C 0.18752 0.14553 0.89656 0.0
C1431 C 0.17471 0.13232 0.87774 0.0
C1432 C 0.2041 0.14446 0.86924 0.0
C1433 C 0.22928 0.12575 0.73439 0.0
H1434 H 0.26892 0.13115 0.84476 0.0
C1435 C 0.30327 0.11738 0.65832 0.0
C1436 C 0.31541 0.12885 0.69334 0.0
C1437 C 0.28548 0.11723 0.67589 0.0
C1438 C 0.25805 0.12986 0.81316 0.0
H1439 H 0.16896 0.10789 0.81435 0.0
H1440 H 0.19803 0.10618 0.7656 0.0
H1441 H 0.23901 0.13219 0.88389 0.0
H1442 H 0.31826 0.15001 0.77149 0.0
H1443 H 0.28748 0.15019 0.80067 0.0
H1444 H 0.24844 0.12384 0.66358 0.0
C1445 C 0.19518 0.11732 0.8017 0.0
C1446 C 0.24089 0.13037 0.8357 0.0
C1447 C 0.1786 0.11828 0.82964 0.0
C1448 C 0.3093 0.14075 0.7442 0.0
C1449 C 0.29163 0.14077 0.76118 0.0
C1450 C 0.24656 0.12542 0.71168 0.0
C1451 C 0.2082 0.13023 0.82208 0.0
C1452 C 0.22632 0.1286 0.79673 0.0
C1453 C 0.27956 0.12867 0.72841 0.0
C1454 C 0.26114 0.1278 0.75098 0.0
H1455 H 0.18487 0.15656 0.93327 0.0
H1456 H 0.21382 0.15471 0.88535 0.0
H1457 H 0.21825 0.12434 0.70339 0.0
H1458 H 0.30764 0.10807 0.61888 0.0
H1459 H 0.27654 0.10773 0.64959 0.0
C1460 C 0.62817 0.56844 0.49355 0.0
C1461 C 0.6314 0.57075 0.43419 0.0
C1462 C 0.62975 0.55164 0.50958 0.0
C1463 C 0.62897 0.50339 0.44884 0.0
H1464 H 0.65005 0.49997 0.60272 0.0
C1465 C 0.63897 0.43529 0.5199 0.0
C1466 C 0.63461 0.43389 0.57925 0.0
C1467 C 0.64009 0.45198 0.50275 0.0
C1468 C 0.64397 0.50072 0.55992 0.0
H1469 H 0.63872 0.55701 0.34497 0.0
H1470 H 0.64152 0.52738 0.37326 0.0
H1471 H 0.64947 0.5288 0.56936 0.0
H1472 H 0.62861 0.449 0.66777 0.0
H1473 H 0.63033 0.47842 0.63753 0.0
H1474 H 0.62324 0.47541 0.43967 0.0
C1475 C 0.63769 0.53874 0.4072 0.0
C1476 C 0.64369 0.51722 0.54067 0.0
C1477 C 0.63613 0.55569 0.391 0.0
C1478 C 0.63202 0.44967 0.62179 0.0
C1479 C 0.63304 0.46649 0.6044 0.0
C1480 C 0.62924 0.4869 0.46811 0.0
C1481 C 0.63461 0.5366 0.46687 0.0
C1482 C 0.63605 0.51878 0.48513 0.0
C1483 C 0.63676 0.46778 0.54431 0.0
C1484 C 0.63667 0.48537 0.52401 0.0
H1485 H 0.62435 0.57962 0.52821 0.0
H1486 H 0.62689 0.55043 0.55554 0.0
H1487 H 0.62275 0.50418 0.40631 0.0
H1488 H 0.64136 0.42342 0.48611 0.0
H1489 H 0.64346 0.45246 0.45658 0.0
C1490 C 0.3109 0.88436 0.25964 0.0
C1491 C 0.31588 0.88263 0.31808 0.0
C1492 C 0.29319 0.88339 0.2425 0.0
C1493 C 0.25766 0.86788 0.2047 0.0
H1494 H 0.21913 0.88945 0.30558 0.0
C1495 C 0.18585 0.8562 0.12625 0.0
C1496 C 0.17472 0.87124 0.13571 0.0
C1497 C 0.20224 0.8568 0.15501 0.0
C1498 C 0.22976 0.88341 0.27676 0.0
H1499 H 0.30609 0.87917 0.40517 0.0
H1500 H 0.27495 0.87717 0.37481 0.0
H1501 H 0.24949 0.89313 0.34284 0.0
H1502 H 0.1716 0.89851 0.1842 0.0
H1503 H 0.20041 0.89978 0.23323 0.0
H1504 H 0.23823 0.85873 0.1378 0.0
C1505 C 0.28482 0.87947 0.34244 0.0
C1506 C 0.24714 0.88536 0.29839 0.0
C1507 C 0.30264 0.88059 0.35984 0.0
C1508 C 0.17997 0.88671 0.17603 0.0
C1509 C 0.19644 0.88739 0.20445 0.0
C1510 C 0.24038 0.86599 0.18309 0.0
C1511 C 0.27995 0.88046 0.2831 0.0
C1512 C 0.26132 0.87782 0.26221 0.0
C1513 C 0.20793 0.87254 0.19342 0.0
C1514 C 0.22619 0.87383 0.21856 0.0
H1515 H 0.32073 0.88622 0.22657 0.0
H1516 H 0.2899 0.88473 0.19697 0.0
H1517 H 0.2682 0.86158 0.176 0.0
H1518 H 0.18201 0.84402 0.09595 0.0
H1519 H 0.21055 0.84497 0.14649 0.0
C1520 C 0.61347 0.94043 0.38278 0.0
C1521 C 0.62613 0.92842 0.39748 0.0
C1522 C 0.61351 0.95839 0.41149 0.0
C1523 C 0.61051 0.99335 0.50012 0.0
H1524 H 0.65526 0.01814 0.53261 0.0
C1525 C 0.6152 0.06453 0.64223 0.0
C1526 C 0.62747 0.07648 0.6249 0.0
C1527 C 0.61493 0.04654 0.61391 0.0
C1528 C 0.64264 0.01147 0.52332 0.0
H1529 H 0.6485 0.92555 0.45469 0.0
H1530 H 0.64841 0.95694 0.50589 0.0
H1531 H 0.65495 0.98652 0.48533 0.0
H1532 H 0.64883 0.07919 0.56357 0.0
H1533 H 0.64819 0.04773 0.5131 0.0
H1534 H 0.59818 0.01837 0.53657 0.0
C1535 C 0.63865 0.95257 0.47129 0.0
C1536 C 0.64247 0.99326 0.49701 0.0
C1537 C 0.63864 0.93458 0.44236 0.0
C1538 C 0.63929 0.07021 0.57794 0.0
C1539 C 0.63899 0.05218 0.5494 0.0
C1540 C 0.61068 0.01154 0.52625 0.0
C1541 C 0.62616 0.96472 0.45584 0.0
C1542 C 0.6264 0.98398 0.48506 0.0
C1543 C 0.62687 0.0401 0.56734 0.0
C1544 C 0.62674 0.02083 0.53827 0.0
H1545 H 0.60369 0.93604 0.34826 0.0
H1546 H 0.60384 0.96739 0.39787 0.0
H1547 H 0.5979 0.9866 0.49213 0.0
H1548 H 0.60595 0.069 0.67838 0.0
H1549 H 0.60559 0.03759 0.62946 0.0
C1550 C 0.19566 0.37028 0.76204 0.0
C1551 C 0.18943 0.38089 0.81549 0.0
C1552 C 0.21364 0.36963 0.74831 0.0
C1553 C 0.2544 0.39476 0.76888 0.0
H1554 H 0.27653 0.34824 0.71918 0.0
C1555 C 0.32725 0.38775 0.6873 0.0
C1556 C 0.33081 0.37382 0.63861 0.0
C1557 C 0.3109 0.38868 0.71675 0.0
C1558 C 0.27056 0.36136 0.73227 0.0
H1559 H 0.19718 0.39935 0.89621 0.0
H1560 H 0.22882 0.39861 0.87102 0.0
H1561 H 0.2462 0.35001 0.75565 0.0
H1562 H 0.32011 0.34997 0.58251 0.0
H1563 H 0.29153 0.35186 0.63202 0.0
H1564 H 0.27839 0.40614 0.74274 0.0
C1565 C 0.21966 0.39065 0.84032 0.0
C1566 C 0.2532 0.36234 0.7536 0.0
C1567 C 0.20161 0.39103 0.85475 0.0
C1568 C 0.31778 0.36082 0.62011 0.0
C1569 C 0.30141 0.36184 0.649 0.0
C1570 C 0.27172 0.39378 0.74665 0.0
C1571 C 0.22583 0.37981 0.78716 0.0
C1572 C 0.24485 0.37902 0.7711 0.0
C1573 C 0.2977 0.37578 0.69773 0.0
C1574 C 0.27992 0.37703 0.72688 0.0
H1575 H 0.18667 0.36222 0.73094 0.0
H1576 H 0.21801 0.3613 0.70677 0.0
H1577 H 0.2482 0.40778 0.78177 0.0
H1578 H 0.33705 0.398 0.70239 0.0
H1579 H 0.30864 0.39949 0.75447 0.0
C1580 C 0.86615 0.93508 0.01821 0.0
C1581 C 0.86993 0.9338 0.07812 0.0
C1582 C 0.86504 0.95173 1.00074 0.0
C1583 C 0.86032 1.00049 0.05725 0.0
H1584 H 0.88314 0.00418 0.90649 0.0
C1585 C 0.87723 0.06834 0.99378 0.0
C1586 C 0.87468 0.07072 0.93412 0.0
C1587 C 0.87531 0.05153 0.00942 0.0
C1588 C 0.87647 0.00332 0.94818 0.0
H1589 H 0.87491 0.94908 0.1672 0.0
H1590 H 0.87322 0.97841 0.13646 0.0
H1591 H 0.88227 0.97536 0.93948 0.0
H1592 H 0.86818 0.05707 0.84398 0.0
H1593 H 0.8648 0.02741 0.87155 0.0
H1594 H 0.85478 0.02856 0.0663 0.0
C1595 C 0.87094 0.96642 0.10312 0.0
C1596 C 0.87598 0.9868 0.96723 0.0
C1597 C 0.87194 0.94965 0.12079 0.0
C1598 C 0.87025 0.05571 0.89027 0.0
C1599 C 0.86836 0.03874 0.90605 0.0
C1600 C 0.86083 0.01702 0.03823 0.0
C1601 C 0.8678 0.96761 0.04256 0.0
C1602 C 0.86799 0.9852 0.02218 0.0
C1603 C 0.87079 0.03652 0.96598 0.0
C1604 C 0.86907 0.01867 0.98374 0.0
H1605 H 0.86423 0.92315 0.98425 0.0
H1606 H 0.86215 0.95214 0.95415 0.0
H1607 H 0.85381 0.99968 0.09926 0.0
H1608 H 0.88076 0.0795 0.02898 0.0
H1609 H 0.87765 0.05025 0.05566 0.0
C1610 C 0.1961 0.63796 0.24875 0.0
C1611 C 0.19018 0.62718 0.19525 0.0
C1612 C 0.21376 0.63771 0.26593 0.0
C1613 C 0.25905 0.62412 0.21273 0.0
H1614 H 0.26721 0.6285 0.38402 0.0
C1615 C 0.32772 0.61738 0.32831 0.0
C1616 C 0.33141 0.63147 0.37646 0.0
C1617 C 0.31104 0.61603 0.3008 0.0
C1618 C 0.26514 0.62731 0.33608 0.0
H1619 H 0.19826 0.60801 0.11675 0.0
H1620 H 0.22929 0.60716 0.14771 0.0
H1621 H 0.23714 0.62715 0.34593 0.0
H1622 H 0.32076 0.65536 0.43268 0.0
H1623 H 0.29164 0.65275 0.38574 0.0
H1624 H 0.28734 0.62394 0.20364 0.0
C1625 C 0.22023 0.61602 0.17597 0.0
C1626 C 0.24789 0.62664 0.31415 0.0
C1627 C 0.20247 0.61646 0.15826 0.0
C1628 C 0.31828 0.64431 0.39588 0.0
C1629 C 0.3016 0.6428 0.36912 0.0
C1630 C 0.27641 0.62454 0.2348 0.0
C1631 C 0.22602 0.62644 0.23067 0.0
C1632 C 0.24456 0.62551 0.25238 0.0
C1633 C 0.29774 0.62856 0.32179 0.0
C1634 C 0.27957 0.62655 0.29687 0.0
H1635 H 0.18705 0.64664 0.27775 0.0
H1636 H 0.21777 0.64638 0.30726 0.0
H1637 H 0.257 0.62328 0.16496 0.0
H1638 H 0.33759 0.60726 0.31261 0.0
H1639 H 0.30835 0.60488 0.26452 0.0
C1640 C 0.39432 0.93856 0.4074 0.0
C1641 C 0.37873 0.92835 0.40146 0.0
C1642 C 0.39412 0.95642 0.43719 0.0
C1643 C 0.36698 0.99569 0.46518 0.0
H1644 H 0.39728 0.01285 0.60173 0.0
C1645 C 0.36334 0.06899 0.59388 0.0
C1646 C 0.37876 0.07687 0.6213 0.0
C1647 C 0.36316 0.05081 0.56716 0.0
C1648 C 0.38896 0.00843 0.56293 0.0
H1649 H 0.35078 0.9286 0.42223 0.0
H1650 H 0.35034 0.96018 0.4727 0.0
H1651 H 0.39744 0.98111 0.55608 0.0
H1652 H 0.40625 0.07237 0.64005 0.0
H1653 H 0.40633 0.041 0.59053 0.0
H1654 H 0.35906 0.02294 0.46949 0.0
C1655 C 0.3627 0.95423 0.45492 0.0
C1656 C 0.38896 0.99019 0.53728 0.0
C1657 C 0.36297 0.93621 0.42638 0.0
C1658 C 0.39414 0.06651 0.61969 0.0
C1659 C 0.3941 0.04846 0.5918 0.0
C1660 C 0.36726 0.01401 0.4899 0.0
C1661 C 0.37826 0.96447 0.46029 0.0
C1662 C 0.37794 0.98368 0.48837 0.0
C1663 C 0.37851 0.04022 0.56608 0.0
C1664 C 0.37824 0.02067 0.53925 0.0
H1665 H 0.40663 0.93275 0.38867 0.0
H1666 H 0.40626 0.96411 0.44074 0.0
H1667 H 0.35851 0.99094 0.42695 0.0
H1668 H 0.35126 0.0767 0.59485 0.0
H1669 H 0.35081 0.04501 0.54881 0.0
C1670 C 0.80794 0.63983 0.23648 0.0
C1671 C 0.81441 0.62853 0.18479 0.0
C1672 C 0.78996 0.64026 0.2501 0.0
C1673 C 0.75038 0.61321 0.23464 0.0
H1674 H 0.72639 0.65883 0.28218 0.0
C1675 C 0.67825 0.61762 0.32373 0.0
C1676 C 0.67464 0.63167 0.37198 0.0
C1677 C 0.69424 0.61717 0.29227 0.0
C1678 C 0.7329 0.64596 0.26964 0.0
H1679 H 0.80709 0.60879 0.10668 0.0
H1680 H 0.77544 0.60919 0.13165 0.0
H1681 H 0.75639 0.65814 0.24282 0.0
H1682 H 0.68488 0.65622 0.42527 0.0
H1683 H 0.71285 0.65519 0.37223 0.0
H1684 H 0.72731 0.60104 0.26426 0.0
C1685 C 0.78441 0.61784 0.16107 0.0
C1686 C 0.75005 0.64559 0.24667 0.0
C1687 C 0.80245 0.61768 0.1467 0.0
C1688 C 0.68725 0.64526 0.38807 0.0
C1689 C 0.70325 0.64474 0.35714 0.0
C1690 C 0.73327 0.61358 0.25845 0.0
C1691 C 0.77802 0.62918 0.21292 0.0
C1692 C 0.75909 0.62926 0.23002 0.0
C1693 C 0.70701 0.6307 0.30878 0.0
C1694 C 0.72445 0.63002 0.27753 0.0
H1695 H 0.8168 0.64842 0.2666 0.0
H1696 H 0.78543 0.649 0.29062 0.0
H1697 H 0.75712 0.60044 0.22253 0.0
H1698 H 0.66878 0.60691 0.31055 0.0
H1699 H 0.69655 0.60625 0.25496 0.0
C1700 C 0.13683 0.05621 0.8906 0.0
C1701 C 0.13327 0.07129 0.93528 0.0
C1702 C 0.13866 0.03917 0.90584 0.0
C1703 C 0.14715 0.01677 0.03625 0.0
H1704 H 0.1235 0.97618 0.93924 0.0
C1705 C 0.13501 0.94924 0.11712 0.0
C1706 C 0.13632 0.93348 0.07361 0.0
C1707 C 0.13621 0.96611 0.10021 0.0
C1708 C 0.13039 0.98732 0.96647 0.0
H1709 H 0.12892 0.08015 0.0312 0.0
H1710 H 0.13191 0.05077 0.05699 0.0
H1711 H 0.12311 0.00518 0.90751 0.0
H1712 H 0.14098 0.9231 0.97886 0.0
H1713 H 0.14336 0.95223 0.95006 0.0
H1714 H 0.15426 0.99892 0.09558 0.0
C1715 C 0.13357 0.05203 0.01042 0.0
C1716 C 0.13019 0.00394 0.94813 0.0
C1717 C 0.13171 0.06893 0.99532 0.0
C1718 C 0.13959 0.93495 0.01353 0.0
C1719 C 0.14088 0.95169 0.99681 0.0
C1720 C 0.14736 1.00013 0.0546 0.0
C1721 C 0.13706 0.03692 0.96604 0.0
C1722 C 0.13843 0.01891 0.98305 0.0
C1723 C 0.13884 0.96749 0.03957 0.0
C1724 C 0.1389 0.98521 0.02009 0.0
H1725 H 0.13813 0.05755 0.844 0.0
H1726 H 0.14145 0.02777 0.8706 0.0
H1727 H 0.15384 0.02799 0.0638 0.0
H1728 H 0.13246 0.94854 0.16371 0.0
H1729 H 0.13451 0.97804 0.13428 0.0
C1730 C 0.67827 0.38681 0.68897 0.0
C1731 C 0.67464 0.37279 0.64065 0.0
C1732 C 0.69437 0.38737 0.71983 0.0
C1733 C 0.73361 0.35906 0.74047 0.0
H1734 H 0.75712 0.40493 0.78807 0.0
C1735 C 0.80861 0.36627 0.77353 0.0
C1736 C 0.81496 0.37762 0.82533 0.0
C1737 C 0.79062 0.36562 0.75983 0.0
C1738 C 0.75059 0.39206 0.77582 0.0
H1739 H 0.68495 0.34839 0.58666 0.0
H1740 H 0.71315 0.34963 0.63867 0.0
H1741 H 0.72722 0.40393 0.74691 0.0
H1742 H 0.80742 0.39722 0.90351 0.0
H1743 H 0.77577 0.39644 0.87838 0.0
H1744 H 0.75739 0.3472 0.76665 0.0
C1745 C 0.70348 0.35997 0.65425 0.0
C1746 C 0.73343 0.39145 0.75232 0.0
C1747 C 0.68735 0.35932 0.62393 0.0
C1748 C 0.80288 0.38831 0.86337 0.0
C1749 C 0.78483 0.38792 0.84893 0.0
C1750 C 0.75082 0.35967 0.76314 0.0
C1751 C 0.70727 0.37401 0.70261 0.0
C1752 C 0.72483 0.3749 0.73315 0.0
C1753 C 0.77855 0.37651 0.79704 0.0
C1754 C 0.7596 0.37614 0.78 0.0
H1755 H 0.66873 0.39742 0.70267 0.0
H1756 H 0.69669 0.39828 0.7572 0.0
H1757 H 0.7273 0.3461 0.72784 0.0
H1758 H 0.81754 0.35778 0.74345 0.0
H1759 H 0.78618 0.35683 0.71927 0.0
loop_
_geom_bond_atom_site_label_1
_geom_bond_atom_site_label_2
_geom_bond_distance
_geom_bond_site_symmetry_2
_ccdc_geom_bond_type
Dy0 O4 2.398 1_554 S
Dy0 O5 2.491 1_554 S
Dy0 O6 2.403 . S
Dy0 O7 2.664 . S
Dy0 O11 2.326 . S
Dy0 O15 2.310 . S
Dy0 O16 2.351 . S
C1 O12 1.185 . S
C1 O13 1.355 . S
C2 O4 1.185 . S
C2 O5 1.355 . S
Dy3 O7 2.310 . S
Dy3 O10 2.351 . S
Dy3 O12 2.398 . S
Dy3 O13 2.491 . S
Dy3 O14 2.403 . S
Dy3 O15 2.664 . S
Dy3 O17 2.326 . S
O4 Dy0 2.398 1_556 S
O4 C2 1.185 . S
O5 Dy0 2.491 1_556 S
O5 C2 1.355 . S
O6 Dy0 2.403 . S
O6 C8 1.254 . S
O7 Dy0 2.664 . S
O7 Dy3 2.310 . S
O7 C8 1.268 . S
C8 O6 1.254 . S
C8 O7 1.268 . S
C9 O14 1.254 . S
C9 O15 1.268 . S
O10 Dy3 2.351 . S
O10 C18 1.249 . S
O11 Dy0 2.326 . S
O11 C18 1.267 . S
O12 C1 1.185 . S
O12 Dy3 2.398 . S
O13 C1 1.355 . S
O13 Dy3 2.491 . S
O14 Dy3 2.403 . S
O14 C9 1.254 . S
O15 Dy0 2.310 . S
O15 Dy3 2.664 . S
O15 C9 1.268 . S
O16 Dy0 2.351 . S
O16 C19 1.249 . S
O17 Dy3 2.326 . S
O17 C19 1.267 . S
C18 O10 1.249 . S
C18 O11 1.267 . S
C19 O16 1.249 . S
C19 O17 1.267 . S
Dy20 O24 2.398 . S
Dy20 O25 2.491 . S
Dy20 O26 2.403 . S
Dy20 O27 2.664 . S
Dy20 O31 2.326 . S
Dy20 O35 2.310 . S
Dy20 O36 2.351 . S
C21 O32 1.185 . S
C21 O33 1.355 . S
C22 O24 1.185 . S
C22 O25 1.355 . S
Dy23 O27 2.310 . S
Dy23 O30 2.351 . S
Dy23 O32 2.398 . S
Dy23 O33 2.491 . S
Dy23 O34 2.403 . S
Dy23 O35 2.664 . S
Dy23 O37 2.326 . S
O24 Dy20 2.398 . S
O24 C22 1.185 . S
O25 Dy20 2.491 . S
O25 C22 1.355 . S
O26 Dy20 2.403 . S
O26 C28 1.254 . S
O27 Dy20 2.664 . S
O27 Dy23 2.310 . S
O27 C28 1.268 . S
C28 O26 1.254 . S
C28 O27 1.268 . S
C29 O34 1.254 . S
C29 O35 1.268 . S
O30 Dy23 2.351 . S
O30 C38 1.249 . S
O31 Dy20 2.326 . S
O31 C38 1.267 . S
O32 C21 1.185 . S
O32 Dy23 2.398 . S
O33 C21 1.355 . S
O33 Dy23 2.491 . S
O34 Dy23 2.403 . S
O34 C29 1.254 . S
O35 Dy20 2.310 . S
O35 Dy23 2.664 . S
O35 C29 1.268 . S
O36 Dy20 2.351 . S
O36 C39 1.249 . S
O37 Dy23 2.326 . S
O37 C39 1.267 . S
C38 O30 1.249 . S
C38 O31 1.267 . S
C39 O36 1.249 . S
C39 O37 1.267 . S
Dy40 O44 2.398 . S
Dy40 O45 2.491 . S
Dy40 O46 2.403 . S
Dy40 O47 2.664 . S
Dy40 O51 2.326 . S
Dy40 O55 2.310 . S
Dy40 O56 2.351 . S
C41 O52 1.185 . S
C41 O53 1.355 . S
C42 O44 1.185 . S
C42 O45 1.355 . S
Dy43 O47 2.310 . S
Dy43 O50 2.351 . S
Dy43 O52 2.398 . S
Dy43 O53 2.491 . S
Dy43 O54 2.403 . S
Dy43 O55 2.664 . S
Dy43 O57 2.326 . S
O44 Dy40 2.398 . S
O44 C42 1.185 . S
O45 Dy40 2.491 . S
O45 C42 1.355 . S
O46 Dy40 2.403 . S
O46 C48 1.254 . S
O47 Dy40 2.664 . S
O47 Dy43 2.310 . S
O47 C48 1.268 . S
C48 O46 1.254 . S
C48 O47 1.268 . S
C49 O54 1.254 . S
C49 O55 1.268 . S
O50 Dy43 2.351 . S
O50 C58 1.249 . S
O51 Dy40 2.326 . S
O51 C58 1.267 . S
O52 C41 1.185 . S
O52 Dy43 2.398 . S
O53 C41 1.355 . S
O53 Dy43 2.491 . S
O54 Dy43 2.403 . S
O54 C49 1.254 . S
O55 Dy40 2.310 . S
O55 Dy43 2.664 . S
O55 C49 1.268 . S
O56 Dy40 2.351 . S
O56 C59 1.249 . S
O57 Dy43 2.326 . S
O57 C59 1.267 . S
C58 O50 1.249 . S
C58 O51 1.267 . S
C59 O56 1.249 . S
C59 O57 1.267 . S
Dy60 O64 2.398 . S
Dy60 O65 2.491 . S
Dy60 O66 2.403 . S
Dy60 O67 2.664 . S
Dy60 O71 2.326 . S
Dy60 O75 2.310 . S
Dy60 O76 2.351 . S
C61 O72 1.185 . S
C61 O73 1.355 . S
C62 O64 1.185 . S
C62 O65 1.355 . S
Dy63 O67 2.310 . S
Dy63 O70 2.351 . S
Dy63 O72 2.398 1_556 S
Dy63 O73 2.491 1_556 S
Dy63 O74 2.403 . S
Dy63 O75 2.664 . S
Dy63 O77 2.326 . S
O64 Dy60 2.398 . S
O64 C62 1.185 . S
O65 Dy60 2.491 . S
O65 C62 1.355 . S
O66 Dy60 2.403 . S
O66 C68 1.254 . S
O67 Dy60 2.664 . S
O67 Dy63 2.310 . S
O67 C68 1.268 . S
C68 O66 1.254 . S
C68 O67 1.268 . S
C69 O74 1.254 . S
C69 O75 1.268 . S
O70 Dy63 2.351 . S
O70 C78 1.249 . S
O71 Dy60 2.326 . S
O71 C78 1.267 . S
O72 C61 1.185 . S
O72 Dy63 2.398 1_554 S
O73 C61 1.355 . S
O73 Dy63 2.491 1_554 S
O74 Dy63 2.403 . S
O74 C69 1.254 . S
O75 Dy60 2.310 . S
O75 Dy63 2.664 . S
O75 C69 1.268 . S
O76 Dy60 2.351 . S
O76 C79 1.249 . S
O77 Dy63 2.326 . S
O77 C79 1.267 . S
C78 O70 1.249 . S
C78 O71 1.267 . S
C79 O76 1.249 . S
C79 O77 1.267 . S
Dy80 O84 2.398 1_556 S
Dy80 O85 2.491 1_556 S
Dy80 O86 2.403 . S
Dy80 O87 2.664 . S
Dy80 O91 2.326 . S
Dy80 O95 2.310 . S
Dy80 O96 2.351 . S
C81 O92 1.185 . S
C81 O93 1.355 . S
C82 O84 1.185 . S
C82 O85 1.355 . S
Dy83 O87 2.310 . S
Dy83 O90 2.351 . S
Dy83 O92 2.398 . S
Dy83 O93 2.491 . S
Dy83 O94 2.403 . S
Dy83 O95 2.664 . S
Dy83 O97 2.326 . S
O84 Dy80 2.398 1_554 S
O84 C82 1.185 . S
O85 Dy80 2.491 1_554 S
O85 C82 1.355 . S
O86 Dy80 2.403 . S
O86 C88 1.254 . S
O87 Dy80 2.664 . S
O87 Dy83 2.310 . S
O87 C88 1.268 . S
C88 O86 1.254 . S
C88 O87 1.268 . S
C89 O94 1.254 . S
C89 O95 1.268 . S
O90 Dy83 2.351 . S
O90 C98 1.249 . S
O91 Dy80 2.326 . S
O91 C98 1.267 . S
O92 C81 1.185 . S
O92 Dy83 2.398 . S
O93 C81 1.355 . S
O93 Dy83 2.491 . S
O94 Dy83 2.403 . S
O94 C89 1.254 . S
O95 Dy80 2.310 . S
O95 Dy83 2.664 . S
O95 C89 1.268 . S
O96 Dy80 2.351 . S
O96 C99 1.249 . S
O97 Dy83 2.326 . S
O97 C99 1.267 . S
C98 O90 1.249 . S
C98 O91 1.267 . S
C99 O96 1.249 . S
C99 O97 1.267 . S
Dy100 O104 2.398 . S
Dy100 O105 2.491 . S
Dy100 O106 2.403 . S
Dy100 O107 2.664 . S
Dy100 O111 2.326 . S
Dy100 O115 2.310 . S
Dy100 O116 2.351 . S
C101 O112 1.185 . S
C101 O113 1.355 . S
C102 O104 1.185 . S
C102 O105 1.355 . S
Dy103 O107 2.310 . S
Dy103 O110 2.351 . S
Dy103 O112 2.398 1_554 S
Dy103 O113 2.491 1_554 S
Dy103 O114 2.403 . S
Dy103 O115 2.664 . S
Dy103 O117 2.326 . S
O104 Dy100 2.398 . S
O104 C102 1.185 . S
O105 Dy100 2.491 . S
O105 C102 1.355 . S
O106 Dy100 2.403 . S
O106 C108 1.254 . S
O107 Dy100 2.664 . S
O107 Dy103 2.310 . S
O107 C108 1.268 . S
C108 O106 1.254 . S
C108 O107 1.268 . S
C109 O114 1.254 . S
C109 O115 1.268 . S
O110 Dy103 2.351 . S
O110 C118 1.249 . S
O111 Dy100 2.326 . S
O111 C118 1.267 . S
O112 C101 1.185 . S
O112 Dy103 2.398 1_556 S
O113 C101 1.355 . S
O113 Dy103 2.491 1_556 S
O114 Dy103 2.403 . S
O114 C109 1.254 . S
O115 Dy100 2.310 . S
O115 Dy103 2.664 . S
O115 C109 1.268 . S
O116 Dy100 2.351 . S
O116 C119 1.249 . S
O117 Dy103 2.326 . S
O117 C119 1.267 . S
C118 O110 1.249 . S
C118 O111 1.267 . S
C119 O116 1.249 . S
C119 O117 1.267 . S
Dy120 O124 2.398 . S
Dy120 O125 2.491 . S
Dy120 O126 2.403 . S
Dy120 O127 2.664 . S
Dy120 O131 2.326 . S
Dy120 O135 2.310 . S
Dy120 O136 2.351 . S
C121 O132 1.185 . S
C121 O133 1.355 . S
C122 O124 1.185 . S
C122 O125 1.355 . S
Dy123 O127 2.310 . S
Dy123 O130 2.351 . S
Dy123 O132 2.398 . S
Dy123 O133 2.491 . S
Dy123 O134 2.403 . S
Dy123 O135 2.664 . S
Dy123 O137 2.326 . S
O124 Dy120 2.398 . S
O124 C122 1.185 . S
O125 Dy120 2.491 . S
O125 C122 1.355 . S
O126 Dy120 2.403 . S
O126 C128 1.254 . S
O127 Dy120 2.664 . S
O127 Dy123 2.310 . S
O127 C128 1.268 . S
C128 O126 1.254 . S
C128 O127 1.268 . S
C129 O134 1.254 . S
C129 O135 1.268 . S
O130 Dy123 2.351 . S
O130 C138 1.249 . S
O131 Dy120 2.326 . S
O131 C138 1.267 . S
O132 C121 1.185 . S
O132 Dy123 2.398 . S
O133 C121 1.355 . S
O133 Dy123 2.491 . S
O134 Dy123 2.403 . S
O134 C129 1.254 . S
O135 Dy120 2.310 . S
O135 Dy123 2.664 . S
O135 C129 1.268 . S
O136 Dy120 2.351 . S
O136 C139 1.249 . S
O137 Dy123 2.326 . S
O137 C139 1.267 . S
C138 O130 1.249 . S
C138 O131 1.267 . S
C139 O136 1.249 . S
C139 O137 1.267 . S
Dy140 O144 2.398 . S
Dy140 O145 2.491 . S
Dy140 O146 2.403 . S
Dy140 O147 2.664 . S
Dy140 O151 2.326 . S
Dy140 O155 2.310 . S
Dy140 O156 2.351 . S
C141 O152 1.185 . S
C141 O153 1.355 . S
C142 O144 1.185 . S
C142 O145 1.355 . S
Dy143 O147 2.310 . S
Dy143 O150 2.351 . S
Dy143 O152 2.398 . S
Dy143 O153 2.491 . S
Dy143 O154 2.403 . S
Dy143 O155 2.664 . S
Dy143 O157 2.326 . S
O144 Dy140 2.398 . S
O144 C142 1.185 . S
O145 Dy140 2.491 . S
O145 C142 1.355 . S
O146 Dy140 2.403 . S
O146 C148 1.254 . S
O147 Dy140 2.664 . S
O147 Dy143 2.310 . S
O147 C148 1.268 . S
C148 O146 1.254 . S
C148 O147 1.268 . S
C149 O154 1.254 . S
C149 O155 1.268 . S
O150 Dy143 2.351 . S
O150 C158 1.249 . S
O151 Dy140 2.326 . S
O151 C158 1.267 . S
O152 C141 1.185 . S
O152 Dy143 2.398 . S
O153 C141 1.355 . S
O153 Dy143 2.491 . S
O154 Dy143 2.403 . S
O154 C149 1.254 . S
O155 Dy140 2.310 . S
O155 Dy143 2.664 . S
O155 C149 1.268 . S
O156 Dy140 2.351 . S
O156 C159 1.249 . S
O157 Dy143 2.326 . S
O157 C159 1.267 . S
C158 O150 1.249 . S
C158 O151 1.267 . S
C159 O156 1.249 . S
C159 O157 1.267 . S
Dy160 O164 2.398 . S
Dy160 O165 2.491 . S
Dy160 O166 2.403 . S
Dy160 O167 2.664 . S
Dy160 O171 2.326 . S
Dy160 O175 2.310 . S
Dy160 O176 2.351 . S
C161 O172 1.185 . S
C161 O173 1.355 . S
C162 O164 1.185 . S
C162 O165 1.355 . S
Dy163 O167 2.310 . S
Dy163 O170 2.351 . S
Dy163 O172 2.398 1_556 S
Dy163 O173 2.491 1_556 S
Dy163 O174 2.403 . S
Dy163 O175 2.664 . S
Dy163 O177 2.326 . S
O164 Dy160 2.398 . S
O164 C162 1.185 . S
O165 Dy160 2.491 . S
O165 C162 1.355 . S
O166 Dy160 2.403 . S
O166 C168 1.254 . S
O167 Dy160 2.664 . S
O167 Dy163 2.310 . S
O167 C168 1.268 . S
C168 O166 1.254 . S
C168 O167 1.268 . S
C169 O174 1.254 . S
C169 O175 1.268 . S
O170 Dy163 2.351 . S
O170 C178 1.249 . S
O171 Dy160 2.326 . S
O171 C178 1.267 . S
O172 C161 1.185 . S
O172 Dy163 2.398 1_554 S
O173 C161 1.355 . S
O173 Dy163 2.491 1_554 S
O174 Dy163 2.403 . S
O174 C169 1.254 . S
O175 Dy160 2.310 . S
O175 Dy163 2.664 . S
O175 C169 1.268 . S
O176 Dy160 2.351 . S
O176 C179 1.249 . S
O177 Dy163 2.326 . S
O177 C179 1.267 . S
C178 O170 1.249 . S
C178 O171 1.267 . S
C179 O176 1.249 . S
C179 O177 1.267 . S
Dy180 O184 2.398 . S
Dy180 O185 2.491 . S
Dy180 O186 2.403 . S
Dy180 O187 2.664 . S
Dy180 O191 2.326 . S
Dy180 O195 2.310 . S
Dy180 O196 2.351 . S
C181 O192 1.185 . S
C181 O193 1.355 . S
C182 O184 1.185 . S
C182 O185 1.355 . S
Dy183 O187 2.310 . S
Dy183 O190 2.351 . S
Dy183 O192 2.398 . S
Dy183 O193 2.491 . S
Dy183 O194 2.403 . S
Dy183 O195 2.664 . S
Dy183 O197 2.326 . S
O184 Dy180 2.398 . S
O184 C182 1.185 . S
O185 Dy180 2.491 . S
O185 C182 1.355 . S
O186 Dy180 2.403 . S
O186 C188 1.254 . S
O187 Dy180 2.664 . S
O187 Dy183 2.310 . S
O187 C188 1.268 . S
C188 O186 1.254 . S
C188 O187 1.268 . S
C189 O194 1.254 . S
C189 O195 1.268 . S
O190 Dy183 2.351 . S
O190 C198 1.249 . S
O191 Dy180 2.326 . S
O191 C198 1.267 . S
O192 C181 1.185 . S
O192 Dy183 2.398 . S
O193 C181 1.355 . S
O193 Dy183 2.491 . S
O194 Dy183 2.403 . S
O194 C189 1.254 . S
O195 Dy180 2.310 . S
O195 Dy183 2.664 . S
O195 C189 1.268 . S
O196 Dy180 2.351 . S
O196 C199 1.249 . S
O197 Dy183 2.326 . S
O197 C199 1.267 . S
C198 O190 1.249 . S
C198 O191 1.267 . S
C199 O196 1.249 . S
C199 O197 1.267 . S
Dy200 O204 2.398 . S
Dy200 O205 2.491 . S
Dy200 O206 2.403 . S
Dy200 O207 2.664 . S
Dy200 O211 2.326 . S
Dy200 O215 2.310 . S
Dy200 O216 2.351 . S
C201 O212 1.185 . S
C201 O213 1.355 . S
C202 O204 1.185 . S
C202 O205 1.355 . S
Dy203 O207 2.310 . S
Dy203 O210 2.351 . S
Dy203 O212 2.398 . S
Dy203 O213 2.491 . S
Dy203 O214 2.403 . S
Dy203 O215 2.664 . S
Dy203 O217 2.326 . S
O204 Dy200 2.398 . S
O204 C202 1.185 . S
O205 Dy200 2.491 . S
O205 C202 1.355 . S
O206 Dy200 2.403 . S
O206 C208 1.254 . S
O207 Dy200 2.664 . S
O207 Dy203 2.310 . S
O207 C208 1.268 . S
C208 O206 1.254 . S
C208 O207 1.268 . S
C209 O214 1.254 . S
C209 O215 1.268 . S
O210 Dy203 2.351 . S
O210 C218 1.249 . S
O211 Dy200 2.326 . S
O211 C218 1.267 . S
O212 C201 1.185 . S
O212 Dy203 2.398 . S
O213 C201 1.355 . S
O213 Dy203 2.491 . S
O214 Dy203 2.403 . S
O214 C209 1.254 . S
O215 Dy200 2.310 . S
O215 Dy203 2.664 . S
O215 C209 1.268 . S
O216 Dy200 2.351 . S
O216 C219 1.249 . S
O217 Dy203 2.326 . S
O217 C219 1.267 . S
C218 O210 1.249 . S
C218 O211 1.267 . S
C219 O216 1.249 . S
C219 O217 1.267 . S
Dy220 O224 2.398 1_554 S
Dy220 O225 2.491 1_554 S
Dy220 O226 2.403 . S
Dy220 O227 2.664 . S
Dy220 O231 2.326 . S
Dy220 O235 2.310 . S
Dy220 O236 2.351 . S
C221 O232 1.185 . S
C221 O233 1.355 . S
C222 O224 1.185 . S
C222 O225 1.355 . S
Dy223 O227 2.310 . S
Dy223 O230 2.351 . S
Dy223 O232 2.398 . S
Dy223 O233 2.491 . S
Dy223 O234 2.403 . S
Dy223 O235 2.664 . S
Dy223 O237 2.326 . S
O224 Dy220 2.398 1_556 S
O224 C222 1.185 . S
O225 Dy220 2.491 1_556 S
O225 C222 1.355 . S
O226 Dy220 2.403 . S
O226 C228 1.254 . S
O227 Dy220 2.664 . S
O227 Dy223 2.310 . S
O227 C228 1.268 . S
C228 O226 1.254 . S
C228 O227 1.268 . S
C229 O234 1.254 . S
C229 O235 1.268 . S
O230 Dy223 2.351 . S
O230 C238 1.249 . S
O231 Dy220 2.326 . S
O231 C238 1.267 . S
O232 C221 1.185 . S
O232 Dy223 2.398 . S
O233 C221 1.355 . S
O233 Dy223 2.491 . S
O234 Dy223 2.403 . S
O234 C229 1.254 . S
O235 Dy220 2.310 . S
O235 Dy223 2.664 . S
O235 C229 1.268 . S
O236 Dy220 2.351 . S
O236 C239 1.249 . S
O237 Dy223 2.326 . S
O237 C239 1.267 . S
C238 O230 1.249 . S
C238 O231 1.267 . S
C239 O236 1.249 . S
C239 O237 1.267 . S
Dy240 O244 2.398 . S
Dy240 O245 2.491 . S
Dy240 O246 2.403 . S
Dy240 O247 2.664 . S
Dy240 O251 2.326 . S
Dy240 O255 2.310 . S
Dy240 O256 2.351 . S
C241 O252 1.185 . S
C241 O253 1.355 . S
C242 O244 1.185 . S
C242 O245 1.355 . S
Dy243 O247 2.310 . S
Dy243 O250 2.351 . S
Dy243 O252 2.398 1_554 S
Dy243 O253 2.491 1_554 S
Dy243 O254 2.403 . S
Dy243 O255 2.664 . S
Dy243 O257 2.326 . S
O244 Dy240 2.398 . S
O244 C242 1.185 . S
O245 Dy240 2.491 . S
O245 C242 1.355 . S
O246 Dy240 2.403 . S
O246 C248 1.254 . S
O247 Dy240 2.664 . S
O247 Dy243 2.310 . S
O247 C248 1.268 . S
C248 O246 1.254 . S
C248 O247 1.268 . S
C249 O254 1.254 . S
C249 O255 1.268 . S
O250 Dy243 2.351 . S
O250 C258 1.249 . S
O251 Dy240 2.326 . S
O251 C258 1.267 . S
O252 C241 1.185 . S
O252 Dy243 2.398 1_556 S
O253 C241 1.355 . S
O253 Dy243 2.491 1_556 S
O254 Dy243 2.403 . S
O254 C249 1.254 . S
O255 Dy240 2.310 . S
O255 Dy243 2.664 . S
O255 C249 1.268 . S
O256 Dy240 2.351 . S
O256 C259 1.249 . S
O257 Dy243 2.326 . S
O257 C259 1.267 . S
C258 O250 1.249 . S
C258 O251 1.267 . S
C259 O256 1.249 . S
C259 O257 1.267 . S
Dy260 O264 2.398 1_556 S
Dy260 O265 2.491 1_556 S
Dy260 O266 2.403 . S
Dy260 O267 2.664 . S
Dy260 O271 2.326 . S
Dy260 O275 2.310 . S
Dy260 O276 2.351 . S
C261 O272 1.185 . S
C261 O273 1.355 . S
C262 O264 1.185 . S
C262 O265 1.355 . S
Dy263 O267 2.310 . S
Dy263 O270 2.351 . S
Dy263 O272 2.398 . S
Dy263 O273 2.491 . S
Dy263 O274 2.403 . S
Dy263 O275 2.664 . S
Dy263 O277 2.326 . S
O264 Dy260 2.398 1_554 S
O264 C262 1.185 . S
O265 Dy260 2.491 1_554 S
O265 C262 1.355 . S
O266 Dy260 2.403 . S
O266 C268 1.254 . S
O267 Dy260 2.664 . S
O267 Dy263 2.310 . S
O267 C268 1.268 . S
C268 O266 1.254 . S
C268 O267 1.268 . S
C269 O274 1.254 . S
C269 O275 1.268 . S
O270 Dy263 2.351 . S
O270 C278 1.249 . S
O271 Dy260 2.326 . S
O271 C278 1.267 . S
O272 C261 1.185 . S
O272 Dy263 2.398 . S
O273 C261 1.355 . S
O273 Dy263 2.491 . S
O274 Dy263 2.403 . S
O274 C269 1.254 . S
O275 Dy260 2.310 . S
O275 Dy263 2.664 . S
O275 C269 1.268 . S
O276 Dy260 2.351 . S
O276 C279 1.249 . S
O277 Dy263 2.326 . S
O277 C279 1.267 . S
C278 O270 1.249 . S
C278 O271 1.267 . S
C279 O276 1.249 . S
C279 O277 1.267 . S
Dy280 O284 2.398 . S
Dy280 O285 2.491 . S
Dy280 O286 2.403 . S
Dy280 O287 2.664 . S
Dy280 O291 2.326 . S
Dy280 O295 2.310 . S
Dy280 O296 2.351 . S
C281 O292 1.185 . S
C281 O293 1.355 . S
C282 O284 1.185 . S
C282 O285 1.355 . S
Dy283 O287 2.310 . S
Dy283 O290 2.351 . S
Dy283 O292 2.398 . S
Dy283 O293 2.491 . S
Dy283 O294 2.403 . S
Dy283 O295 2.664 . S
Dy283 O297 2.326 . S
O284 Dy280 2.398 . S
O284 C282 1.185 . S
O285 Dy280 2.491 . S
O285 C282 1.355 . S
O286 Dy280 2.403 . S
O286 C288 1.254 . S
O287 Dy280 2.664 . S
O287 Dy283 2.310 . S
O287 C288 1.268 . S
C288 O286 1.254 . S
C288 O287 1.268 . S
C289 O294 1.254 . S
C289 O295 1.268 . S
O290 Dy283 2.351 . S
O290 C298 1.249 . S
O291 Dy280 2.326 . S
O291 C298 1.267 . S
O292 C281 1.185 . S
O292 Dy283 2.398 . S
O293 C281 1.355 . S
O293 Dy283 2.491 . S
O294 Dy283 2.403 . S
O294 C289 1.254 . S
O295 Dy280 2.310 . S
O295 Dy283 2.664 . S
O295 C289 1.268 . S
O296 Dy280 2.351 . S
O296 C299 1.249 . S
O297 Dy283 2.326 . S
O297 C299 1.267 . S
C298 O290 1.249 . S
C298 O291 1.267 . S
C299 O296 1.249 . S
C299 O297 1.267 . S
Dy300 O304 2.398 . S
Dy300 O305 2.491 . S
Dy300 O306 2.403 . S
Dy300 O307 2.664 . S
Dy300 O311 2.326 . S
Dy300 O315 2.310 . S
Dy300 O316 2.351 . S
C301 O312 1.185 . S
C301 O313 1.355 . S
C302 O304 1.185 . S
C302 O305 1.355 . S
Dy303 O307 2.310 . S
Dy303 O310 2.351 . S
Dy303 O312 2.398 . S
Dy303 O313 2.491 . S
Dy303 O314 2.403 . S
Dy303 O315 2.664 . S
Dy303 O317 2.326 . S
O304 Dy300 2.398 . S
O304 C302 1.185 . S
O305 Dy300 2.491 . S
O305 C302 1.355 . S
O306 Dy300 2.403 . S
O306 C308 1.254 . S
O307 Dy300 2.664 . S
O307 Dy303 2.310 . S
O307 C308 1.268 . S
C308 O306 1.254 . S
C308 O307 1.268 . S
C309 O314 1.254 . S
C309 O315 1.268 . S
O310 Dy303 2.351 . S
O310 C318 1.249 . S
O311 Dy300 2.326 . S
O311 C318 1.267 . S
O312 C301 1.185 . S
O312 Dy303 2.398 . S
O313 C301 1.355 . S
O313 Dy303 2.491 . S
O314 Dy303 2.403 . S
O314 C309 1.254 . S
O315 Dy300 2.310 . S
O315 Dy303 2.664 . S
O315 C309 1.268 . S
O316 Dy300 2.351 . S
O316 C319 1.249 . S
O317 Dy303 2.326 . S
O317 C319 1.267 . S
C318 O310 1.249 . S
C318 O311 1.267 . S
C319 O316 1.249 . S
C319 O317 1.267 . S
C320 C321 1.349 . S
C320 C322 1.327 . S
C320 H345 0.950 . S
C321 C320 1.349 . S
C321 C337 1.349 . S
C322 C320 1.327 . S
C322 C341 1.429 . S
C322 H346 0.950 . S
C323 C340 1.574 . S
C323 C342 1.368 . S
C323 H347 0.949 . S
H324 C328 0.949 . S
C325 C326 1.349 . S
C325 C327 1.327 . S
C325 H348 0.950 . S
C326 C325 1.349 . S
C326 C338 1.349 . S
C327 C325 1.327 . S
C327 C343 1.429 . S
C327 H349 0.950 . S
C328 H324 0.949 . S
C328 C336 1.574 . S
C328 C344 1.368 . S
H329 C337 0.950 . S
H330 C335 0.950 . S
H331 C336 0.949 . S
H332 C338 0.950 . S
H333 C339 0.950 . S
H334 C340 0.949 . S
C335 H330 0.950 . S
C335 C337 1.327 . S
C335 C341 1.429 . S
C336 C328 1.574 . S
C336 H331 0.949 . S
C336 C342 1.368 . S
C337 C321 1.349 . S
C337 H329 0.950 . S
C337 C335 1.327 . S
C338 C326 1.349 . S
C338 H332 0.950 . S
C338 C339 1.327 . S
C339 H333 0.950 . S
C339 C338 1.327 . S
C339 C343 1.429 . S
C340 C323 1.574 . S
C340 H334 0.949 . S
C340 C344 1.368 . S
C341 C322 1.429 . S
C341 C335 1.429 . S
C341 C342 1.523 . S
C342 C323 1.368 . S
C342 C336 1.368 . S
C342 C341 1.523 . S
C343 C327 1.429 . S
C343 C339 1.429 . S
C343 C344 1.523 . S
C344 C328 1.368 . S
C344 C340 1.368 . S
C344 C343 1.523 . S
H345 C320 0.950 . S
H346 C322 0.950 . S
H347 C323 0.949 . S
H348 C325 0.950 . S
H349 C327 0.950 . S
C350 C351 1.349 . S
C350 C352 1.327 . S
C350 H375 0.950 . S
C351 C350 1.349 . S
C351 C367 1.349 . S
C352 C350 1.327 . S
C352 C371 1.429 1_554 S
C352 H376 0.950 1_554 S
C353 C370 1.574 . S
C353 C372 1.368 . S
C353 H377 0.949 . S
H354 C358 0.949 . S
C355 C356 1.349 . S
C355 C357 1.327 . S
C355 H378 0.950 . S
C356 C355 1.349 . S
C356 C368 1.349 . S
C357 C355 1.327 . S
C357 C373 1.429 . S
C357 H379 0.950 . S
C358 H354 0.949 . S
C358 C366 1.574 . S
C358 C374 1.368 . S
H359 C367 0.950 . S
H360 C365 0.950 . S
H361 C366 0.949 . S
H362 C368 0.950 . S
H363 C369 0.950 . S
H364 C370 0.949 . S
C365 H360 0.950 . S
C365 C367 1.327 . S
C365 C371 1.429 1_554 S
C366 C358 1.574 . S
C366 H361 0.949 . S
C366 C372 1.368 . S
C367 C351 1.349 . S
C367 H359 0.950 . S
C367 C365 1.327 . S
C368 C356 1.349 . S
C368 H362 0.950 . S
C368 C369 1.327 . S
C369 H363 0.950 . S
C369 C368 1.327 . S
C369 C373 1.429 . S
C370 C353 1.574 . S
C370 H364 0.949 . S
C370 C374 1.368 . S
C371 C352 1.429 1_556 S
C371 C365 1.429 1_556 S
C371 C372 1.523 . S
C372 C353 1.368 . S
C372 C366 1.368 . S
C372 C371 1.523 . S
C373 C357 1.429 . S
C373 C369 1.429 . S
C373 C374 1.523 . S
C374 C358 1.368 . S
C374 C370 1.368 . S
C374 C373 1.523 . S
H375 C350 0.950 . S
H376 C352 0.950 1_556 S
H377 C353 0.949 . S
H378 C355 0.950 . S
H379 C357 0.950 . S
C380 C381 1.349 . S
C380 C382 1.327 . S
C380 H405 0.950 . S
C381 C380 1.349 . S
C381 C397 1.349 . S
C382 C380 1.327 . S
C382 C401 1.429 . S
C382 H406 0.950 . S
C383 C400 1.574 . S
C383 C402 1.368 . S
C383 H407 0.949 . S
H384 C388 0.949 . S
C385 C386 1.349 . S
C385 C387 1.327 . S
C385 H408 0.950 . S
C386 C385 1.349 . S
C386 C398 1.349 . S
C387 C385 1.327 . S
C387 C403 1.429 1_556 S
C387 H409 0.950 . S
C388 H384 0.949 . S
C388 C396 1.574 . S
C388 C404 1.368 . S
H389 C397 0.950 . S
H390 C395 0.950 . S
H391 C396 0.949 . S
H392 C398 0.950 . S
H393 C399 0.949 1_554 S
H394 C400 0.949 . S
C395 H390 0.950 . S
C395 C397 1.327 . S
C395 C401 1.429 . S
C396 C388 1.574 . S
C396 H391 0.949 . S
C396 C402 1.368 . S
C397 C381 1.349 . S
C397 H389 0.950 . S
C397 C395 1.327 . S
C398 C386 1.349 . S
C398 H392 0.950 . S
C398 C399 1.327 . S
C399 H393 0.949 1_556 S
C399 C398 1.327 . S
C399 C403 1.429 1_556 S
C400 C383 1.574 . S
C400 H394 0.949 . S
C400 C404 1.368 . S
C401 C382 1.429 . S
C401 C395 1.429 . S
C401 C402 1.523 . S
C402 C383 1.368 . S
C402 C396 1.368 . S
C402 C401 1.523 . S
C403 C387 1.429 1_554 S
C403 C399 1.429 1_554 S
C403 C404 1.523 . S
C404 C388 1.368 . S
C404 C400 1.368 . S
C404 C403 1.523 . S
H405 C380 0.950 . S
H406 C382 0.950 . S
H407 C383 0.949 . S
H408 C385 0.950 . S
H409 C387 0.950 . S
C410 C411 1.349 . S
C410 C412 1.327 . S
C410 H435 0.950 . S
C411 C410 1.349 . S
C411 C427 1.349 . S
C412 C410 1.327 . S
C412 C431 1.429 . S
C412 H436 0.950 . S
C413 C430 1.574 . S
C413 C432 1.368 . S
C413 H437 0.949 . S
H414 C418 0.949 . S
C415 C416 1.349 . S
C415 C417 1.327 . S
C415 H438 0.950 . S
C416 C415 1.349 . S
C416 C428 1.349 . S
C417 C415 1.327 . S
C417 C433 1.429 . S
C417 H439 0.950 . S
C418 H414 0.949 . S
C418 C426 1.574 . S
C418 C434 1.368 . S
H419 C427 0.950 . S
H420 C425 0.950 . S
H421 C426 0.949 . S
H422 C428 0.950 . S
H423 C429 0.950 . S
H424 C430 0.949 . S
C425 H420 0.950 . S
C425 C427 1.327 . S
C425 C431 1.429 . S
C426 C418 1.574 . S
C426 H421 0.949 . S
C426 C432 1.368 . S
C427 C411 1.349 . S
C427 H419 0.950 . S
C427 C425 1.327 . S
C428 C416 1.349 . S
C428 H422 0.950 . S
C428 C429 1.327 . S
C429 H423 0.950 . S
C429 C428 1.327 . S
C429 C433 1.429 . S
C430 C413 1.574 . S
C430 H424 0.949 . S
C430 C434 1.368 . S
C431 C412 1.429 . S
C431 C425 1.429 . S
C431 C432 1.523 . S
C432 C413 1.368 . S
C432 C426 1.368 . S
C432 C431 1.523 . S
C433 C417 1.429 . S
C433 C429 1.429 . S
C433 C434 1.523 . S
C434 C418 1.368 . S
C434 C430 1.368 . S
C434 C433 1.523 . S
H435 C410 0.950 . S
H436 C412 0.950 . S
H437 C413 0.949 . S
H438 C415 0.950 . S
H439 C417 0.950 . S
C440 C441 1.349 . S
C440 C442 1.327 . S
C440 H465 0.950 . S
C441 C440 1.349 . S
C441 C457 1.349 . S
C442 C440 1.327 . S
C442 C461 1.429 . S
C442 H466 0.950 . S
C443 C460 1.574 . S
C443 C462 1.368 . S
C443 H467 0.949 . S
H444 C448 0.949 . S
C445 C446 1.349 . S
C445 C447 1.327 . S
C445 H468 0.950 . S
C446 C445 1.349 . S
C446 C458 1.349 . S
C447 C445 1.327 . S
C447 C463 1.429 . S
C447 H469 0.950 . S
C448 H444 0.949 . S
C448 C456 1.574 . S
C448 C464 1.368 . S
H449 C457 0.950 . S
H450 C455 0.950 . S
H451 C456 0.949 . S
H452 C458 0.950 . S
H453 C459 0.950 . S
H454 C460 0.949 . S
C455 H450 0.950 . S
C455 C457 1.327 . S
C455 C461 1.429 . S
C456 C448 1.574 . S
C456 H451 0.949 . S
C456 C462 1.368 . S
C457 C441 1.349 . S
C457 H449 0.950 . S
C457 C455 1.327 . S
C458 C446 1.349 . S
C458 H452 0.950 . S
C458 C459 1.327 . S
C459 H453 0.950 . S
C459 C458 1.327 . S
C459 C463 1.429 . S
C460 C443 1.574 . S
C460 H454 0.949 . S
C460 C464 1.368 . S
C461 C442 1.429 . S
C461 C455 1.429 . S
C461 C462 1.523 . S
C462 C443 1.368 . S
C462 C456 1.368 . S
C462 C461 1.523 . S
C463 C447 1.429 . S
C463 C459 1.429 . S
C463 C464 1.523 . S
C464 C448 1.368 . S
C464 C460 1.368 . S
C464 C463 1.523 . S
H465 C440 0.950 . S
H466 C442 0.950 . S
H467 C443 0.949 . S
H468 C445 0.950 . S
H469 C447 0.950 . S
C470 C471 1.349 . S
C470 C472 1.327 . S
C470 H495 0.950 . S
C471 C470 1.349 . S
C471 C487 1.349 . S
C472 C470 1.327 . S
C472 C491 1.429 . S
C472 H496 0.950 . S
C473 C490 1.574 . S
C473 C492 1.368 . S
C473 H497 0.949 . S
H474 C478 0.949 . S
C475 C476 1.349 . S
C475 C477 1.327 . S
C475 H498 0.950 . S
C476 C475 1.349 . S
C476 C488 1.349 . S
C477 C475 1.327 . S
C477 C493 1.429 . S
C477 H499 0.950 . S
C478 H474 0.949 . S
C478 C486 1.574 . S
C478 C494 1.368 . S
H479 C487 0.950 . S
H480 C485 0.950 . S
H481 C486 0.949 . S
H482 C488 0.950 . S
H483 C489 0.950 . S
H484 C490 0.949 . S
C485 H480 0.950 . S
C485 C487 1.327 . S
C485 C491 1.429 . S
C486 C478 1.574 . S
C486 H481 0.949 . S
C486 C492 1.368 . S
C487 C471 1.349 . S
C487 H479 0.950 . S
C487 C485 1.327 . S
C488 C476 1.349 . S
C488 H482 0.950 . S
C488 C489 1.327 . S
C489 H483 0.950 . S
C489 C488 1.327 . S
C489 C493 1.429 . S
C490 C473 1.574 . S
C490 H484 0.949 . S
C490 C494 1.368 . S
C491 C472 1.429 . S
C491 C485 1.429 . S
C491 C492 1.523 . S
C492 C473 1.368 . S
C492 C486 1.368 . S
C492 C491 1.523 . S
C493 C477 1.429 . S
C493 C489 1.429 . S
C493 C494 1.523 . S
C494 C478 1.368 . S
C494 C490 1.368 . S
C494 C493 1.523 . S
H495 C470 0.950 . S
H496 C472 0.950 . S
H497 C473 0.949 . S
H498 C475 0.950 . S
H499 C477 0.950 . S
C500 C501 1.349 . S
C500 C502 1.327 . S
C500 H525 0.950 . S
C501 C500 1.349 . S
C501 C517 1.349 . S
C502 C500 1.327 . S
C502 C521 1.429 . S
C502 H526 0.950 . S
C503 C520 1.574 . S
C503 C522 1.368 . S
C503 H527 0.949 . S
H504 C508 0.949 . S
C505 C506 1.349 . S
C505 C507 1.327 . S
C505 H528 0.950 . S
C506 C505 1.349 . S
C506 C518 1.349 . S
C507 C505 1.327 . S
C507 C523 1.429 1_554 S
C507 H529 0.950 . S
C508 H504 0.949 . S
C508 C516 1.574 . S
C508 C524 1.368 . S
H509 C517 0.950 . S
H510 C515 0.950 . S
H511 C516 0.949 . S
H512 C518 0.950 . S
H513 C519 0.950 . S
H514 C520 0.949 . S
C515 H510 0.950 . S
C515 C517 1.327 . S
C515 C521 1.429 . S
C516 C508 1.574 . S
C516 H511 0.949 . S
C516 C522 1.368 . S
C517 C501 1.349 . S
C517 H509 0.950 . S
C517 C515 1.327 . S
C518 C506 1.349 . S
C518 H512 0.950 . S
C518 C519 1.327 . S
C519 H513 0.950 . S
C519 C518 1.327 . S
C519 C523 1.429 1_554 S
C520 C503 1.574 . S
C520 H514 0.949 . S
C520 C524 1.368 . S
C521 C502 1.429 . S
C521 C515 1.429 . S
C521 C522 1.523 . S
C522 C503 1.368 . S
C522 C516 1.368 . S
C522 C521 1.523 . S
C523 C507 1.429 1_556 S
C523 C519 1.429 1_556 S
C523 C524 1.523 . S
C524 C508 1.368 . S
C524 C520 1.368 . S
C524 C523 1.523 . S
H525 C500 0.950 . S
H526 C502 0.950 . S
H527 C503 0.949 . S
H528 C505 0.950 . S
H529 C507 0.950 . S
C530 C531 1.349 . S
C530 C532 1.327 . S
C530 H555 0.950 . S
C531 C530 1.349 . S
C531 C547 1.349 . S
C532 C530 1.327 . S
C532 C551 1.429 1_556 S
C532 H556 0.950 . S
C533 C550 1.574 . S
C533 C552 1.368 . S
C533 H557 0.949 . S
H534 C538 0.949 . S
C535 C536 1.349 . S
C535 C537 1.327 . S
C535 H558 0.950 . S
C536 C535 1.349 . S
C536 C548 1.349 . S
C537 C535 1.327 . S
C537 C553 1.429 . S
C537 H559 0.950 . S
C538 H534 0.949 . S
C538 C546 1.574 . S
C538 C554 1.368 . S
H539 C547 0.950 . S
H540 C545 0.946 1_554 S
H541 C546 0.949 . S
H542 C548 0.950 . S
H543 C549 0.950 . S
H544 C550 0.949 . S
C545 H540 0.946 1_556 S
C545 C547 1.327 . S
C545 C551 1.429 1_556 S
C546 C538 1.574 . S
C546 H541 0.949 . S
C546 C552 1.368 . S
C547 C531 1.349 . S
C547 H539 0.950 . S
C547 C545 1.327 . S
C548 C536 1.349 . S
C548 H542 0.950 . S
C548 C549 1.327 . S
C549 H543 0.950 . S
C549 C548 1.327 . S
C549 C553 1.429 . S
C550 C533 1.574 . S
C550 H544 0.949 . S
C550 C554 1.368 . S
C551 C532 1.429 1_554 S
C551 C545 1.429 1_554 S
C551 C552 1.523 . S
C552 C533 1.368 . S
C552 C546 1.368 . S
C552 C551 1.523 . S
C553 C537 1.429 . S
C553 C549 1.429 . S
C553 C554 1.523 . S
C554 C538 1.368 . S
C554 C550 1.368 . S
C554 C553 1.523 . S
H555 C530 0.950 . S
H556 C532 0.950 . S
H557 C533 0.949 . S
H558 C535 0.950 . S
H559 C537 0.950 . S
C560 C561 1.349 . S
C560 C562 1.327 . S
C560 H585 0.950 . S
C561 C560 1.349 . S
C561 C577 1.349 . S
C562 C560 1.327 . S
C562 C581 1.429 . S
C562 H586 0.950 . S
C563 C580 1.574 . S
C563 C582 1.368 . S
C563 H587 0.949 . S
H564 C568 0.949 . S
C565 C566 1.349 . S
C565 C567 1.327 . S
C565 H588 0.950 . S
C566 C565 1.349 . S
C566 C578 1.349 . S
C567 C565 1.327 . S
C567 C583 1.429 . S
C567 H589 0.950 . S
C568 H564 0.949 . S
C568 C576 1.574 . S
C568 C584 1.368 . S
H569 C577 0.950 . S
H570 C575 0.950 . S
H571 C576 0.949 . S
H572 C578 0.950 . S
H573 C579 0.950 . S
H574 C580 0.949 . S
C575 H570 0.950 . S
C575 C577 1.327 . S
C575 C581 1.429 . S
C576 C568 1.574 . S
C576 H571 0.949 . S
C576 C582 1.368 . S
C577 C561 1.349 . S
C577 H569 0.950 . S
C577 C575 1.327 . S
C578 C566 1.349 . S
C578 H572 0.950 . S
C578 C579 1.327 . S
C579 H573 0.950 . S
C579 C578 1.327 . S
C579 C583 1.429 . S
C580 C563 1.574 . S
C580 H574 0.949 . S
C580 C584 1.368 . S
C581 C562 1.429 . S
C581 C575 1.429 . S
C581 C582 1.523 . S
C582 C563 1.368 . S
C582 C576 1.368 . S
C582 C581 1.523 . S
C583 C567 1.429 . S
C583 C579 1.429 . S
C583 C584 1.523 . S
C584 C568 1.368 . S
C584 C580 1.368 . S
C584 C583 1.523 . S
H585 C560 0.950 . S
H586 C562 0.950 . S
H587 C563 0.949 . S
H588 C565 0.950 . S
H589 C567 0.950 . S
C590 C591 1.349 . S
C590 C592 1.327 . S
C590 H615 0.950 . S
C591 C590 1.349 . S
C591 C607 1.349 . S
C592 C590 1.327 . S
C592 C611 1.429 . S
C592 H616 0.950 . S
C593 C610 1.574 . S
C593 C612 1.368 . S
C593 H617 0.949 . S
H594 C598 0.949 . S
C595 C596 1.349 . S
C595 C597 1.327 . S
C595 H618 0.950 . S
C596 C595 1.349 . S
C596 C608 1.349 . S
C597 C595 1.327 . S
C597 C613 1.429 1_556 S
C597 H619 0.950 1_556 S
C598 H594 0.949 . S
C598 C606 1.574 . S
C598 C614 1.368 . S
H599 C607 0.950 . S
H600 C605 0.950 . S
H601 C606 0.949 . S
H602 C608 0.950 . S
H603 C609 0.950 . S
H604 C610 0.949 . S
C605 H600 0.950 . S
C605 C607 1.327 . S
C605 C611 1.429 . S
C606 C598 1.574 . S
C606 H601 0.949 . S
C606 C612 1.368 . S
C607 C591 1.349 . S
C607 H599 0.950 . S
C607 C605 1.327 . S
C608 C596 1.349 . S
C608 H602 0.950 . S
C608 C609 1.327 . S
C609 H603 0.950 . S
C609 C608 1.327 . S
C609 C613 1.429 1_556 S
C610 C593 1.574 . S
C610 H604 0.949 . S
C610 C614 1.368 . S
C611 C592 1.429 . S
C611 C605 1.429 . S
C611 C612 1.523 . S
C612 C593 1.368 . S
C612 C606 1.368 . S
C612 C611 1.523 . S
C613 C597 1.429 1_554 S
C613 C609 1.429 1_554 S
C613 C614 1.523 . S
C614 C598 1.368 . S
C614 C610 1.368 . S
C614 C613 1.523 . S
H615 C590 0.950 . S
H616 C592 0.950 . S
H617 C593 0.949 . S
H618 C595 0.950 . S
H619 C597 0.950 1_554 S
C620 C621 1.349 . S
C620 C622 1.327 . S
C620 H645 0.950 . S
C621 C620 1.349 . S
C621 C637 1.349 . S
C622 C620 1.327 . S
C622 C641 1.429 1_554 S
C622 H646 0.950 . S
C623 C640 1.574 . S
C623 C642 1.368 . S
C623 H647 0.949 . S
H624 C628 0.949 . S
C625 C626 1.349 . S
C625 C627 1.327 . S
C625 H648 0.950 . S
C626 C625 1.349 . S
C626 C638 1.349 . S
C627 C625 1.327 . S
C627 C643 1.429 . S
C627 H649 0.950 . S
C628 H624 0.949 . S
C628 C636 1.574 . S
C628 C644 1.368 . S
H629 C637 0.950 . S
H630 C635 0.950 . S
H631 C636 0.949 . S
H632 C638 0.950 . S
H633 C639 0.950 . S
H634 C640 0.949 . S
C635 H630 0.950 . S
C635 C637 1.327 . S
C635 C641 1.429 1_554 S
C636 C628 1.574 . S
C636 H631 0.949 . S
C636 C642 1.368 . S
C637 C621 1.349 . S
C637 H629 0.950 . S
C637 C635 1.327 . S
C638 C626 1.349 . S
C638 H632 0.950 . S
C638 C639 1.327 . S
C639 H633 0.950 . S
C639 C638 1.327 . S
C639 C643 1.429 . S
C640 C623 1.574 . S
C640 H634 0.949 . S
C640 C644 1.368 . S
C641 C622 1.429 1_556 S
C641 C635 1.429 1_556 S
C641 C642 1.523 . S
C642 C623 1.368 . S
C642 C636 1.368 . S
C642 C641 1.523 . S
C643 C627 1.429 . S
C643 C639 1.429 . S
C643 C644 1.523 . S
C644 C628 1.368 . S
C644 C640 1.368 . S
C644 C643 1.523 . S
H645 C620 0.950 . S
H646 C622 0.950 . S
H647 C623 0.949 . S
H648 C625 0.950 . S
H649 C627 0.950 . S
C650 C651 1.349 . S
C650 C652 1.327 . S
C650 H675 0.950 . S
C651 C650 1.349 . S
C651 C667 1.349 . S
C652 C650 1.327 . S
C652 C671 1.429 . S
C652 H676 0.950 . S
C653 C670 1.574 . S
C653 C672 1.368 . S
C653 H677 0.949 . S
H654 C658 0.949 . S
C655 C656 1.349 . S
C655 C657 1.327 . S
C655 H678 0.950 . S
C656 C655 1.349 . S
C656 C668 1.349 . S
C657 C655 1.327 . S
C657 C673 1.429 . S
C657 H679 0.950 . S
C658 H654 0.949 . S
C658 C666 1.574 . S
C658 C674 1.368 . S
H659 C667 0.950 . S
H660 C665 0.950 . S
H661 C666 0.949 . S
H662 C668 0.950 . S
H663 C669 0.950 . S
H664 C670 0.949 . S
C665 H660 0.950 . S
C665 C667 1.327 . S
C665 C671 1.429 . S
C666 C658 1.574 . S
C666 H661 0.949 . S
C666 C672 1.368 . S
C667 C651 1.349 . S
C667 H659 0.950 . S
C667 C665 1.327 . S
C668 C656 1.349 . S
C668 H662 0.950 . S
C668 C669 1.327 . S
C669 H663 0.950 . S
C669 C668 1.327 . S
C669 C673 1.429 . S
C670 C653 1.574 . S
C670 H664 0.949 . S
C670 C674 1.368 . S
C671 C652 1.429 . S
C671 C665 1.429 . S
C671 C672 1.523 . S
C672 C653 1.368 . S
C672 C666 1.368 . S
C672 C671 1.523 . S
C673 C657 1.429 . S
C673 C669 1.429 . S
C673 C674 1.523 . S
C674 C658 1.368 . S
C674 C670 1.368 . S
C674 C673 1.523 . S
H675 C650 0.950 . S
H676 C652 0.950 . S
H677 C653 0.949 . S
H678 C655 0.950 . S
H679 C657 0.950 . S
C680 C681 1.349 . S
C680 C682 1.327 . S
C680 H705 0.950 . S
C681 C680 1.349 . S
C681 C697 1.349 . S
C682 C680 1.327 . S
C682 C701 1.429 . S
C682 H706 0.950 . S
C683 C700 1.574 . S
C683 C702 1.368 . S
C683 H707 0.949 . S
H684 C688 0.949 . S
C685 C686 1.349 . S
C685 C687 1.327 . S
C685 H708 0.950 . S
C686 C685 1.349 . S
C686 C698 1.349 . S
C687 C685 1.327 . S
C687 C703 1.429 . S
C687 H709 0.950 . S
C688 H684 0.949 . S
C688 C696 1.574 . S
C688 C704 1.368 . S
H689 C697 0.950 . S
H690 C695 0.950 . S
H691 C696 0.949 . S
H692 C698 0.950 . S
H693 C699 0.950 . S
H694 C700 0.949 . S
C695 H690 0.950 . S
C695 C697 1.327 . S
C695 C701 1.429 . S
C696 C688 1.574 . S
C696 H691 0.949 . S
C696 C702 1.368 . S
C697 C681 1.349 . S
C697 H689 0.950 . S
C697 C695 1.327 . S
C698 C686 1.349 . S
C698 H692 0.950 . S
C698 C699 1.327 . S
C699 H693 0.950 . S
C699 C698 1.327 . S
C699 C703 1.429 . S
C700 C683 1.574 . S
C700 H694 0.949 . S
C700 C704 1.368 . S
C701 C682 1.429 . S
C701 C695 1.429 . S
C701 C702 1.523 . S
C702 C683 1.368 . S
C702 C696 1.368 . S
C702 C701 1.523 . S
C703 C687 1.429 . S
C703 C699 1.429 . S
C703 C704 1.523 . S
C704 C688 1.368 . S
C704 C700 1.368 . S
C704 C703 1.523 . S
H705 C680 0.950 . S
H706 C682 0.950 . S
H707 C683 0.949 . S
H708 C685 0.950 . S
H709 C687 0.950 . S
C710 C711 1.349 . S
C710 C712 1.327 . S
C710 H735 0.950 . S
C711 C710 1.349 . S
C711 C727 1.349 . S
C712 C710 1.327 . S
C712 C731 1.429 . S
C712 H736 0.950 . S
C713 C730 1.574 . S
C713 C732 1.368 . S
C713 H737 0.949 . S
H714 C718 0.949 . S
C715 C716 1.349 . S
C715 C717 1.327 . S
C715 H738 0.950 . S
C716 C715 1.349 . S
C716 C728 1.349 . S
C717 C715 1.327 . S
C717 C733 1.429 . S
C717 H739 0.950 . S
C718 H714 0.949 . S
C718 C726 1.574 . S
C718 C734 1.368 . S
H719 C727 0.950 . S
H720 C725 0.950 . S
H721 C726 0.949 . S
H722 C728 0.950 . S
H723 C729 0.950 . S
H724 C730 0.949 . S
C725 H720 0.950 . S
C725 C727 1.327 . S
C725 C731 1.429 . S
C726 C718 1.574 . S
C726 H721 0.949 . S
C726 C732 1.368 . S
C727 C711 1.349 . S
C727 H719 0.950 . S
C727 C725 1.327 . S
C728 C716 1.349 . S
C728 H722 0.950 . S
C728 C729 1.327 . S
C729 H723 0.950 . S
C729 C728 1.327 . S
C729 C733 1.429 . S
C730 C713 1.574 . S
C730 H724 0.949 . S
C730 C734 1.368 . S
C731 C712 1.429 . S
C731 C725 1.429 . S
C731 C732 1.523 . S
C732 C713 1.368 . S
C732 C726 1.368 . S
C732 C731 1.523 . S
C733 C717 1.429 . S
C733 C729 1.429 . S
C733 C734 1.523 . S
C734 C718 1.368 . S
C734 C730 1.368 . S
C734 C733 1.523 . S
H735 C710 0.950 . S
H736 C712 0.950 . S
H737 C713 0.949 . S
H738 C715 0.950 . S
H739 C717 0.950 . S
C740 C741 1.349 . S
C740 C742 1.327 . S
C740 H765 0.950 . S
C741 C740 1.349 . S
C741 C757 1.349 . S
C742 C740 1.327 . S
C742 C761 1.429 . S
C742 H766 0.950 . S
C743 C760 1.574 . S
C743 C762 1.368 . S
C743 H767 0.949 . S
H744 C748 0.949 . S
C745 C746 1.349 . S
C745 C747 1.327 . S
C745 H768 0.950 . S
C746 C745 1.349 . S
C746 C758 1.349 . S
C747 C745 1.327 . S
C747 C763 1.429 1_556 S
C747 H769 0.950 . S
C748 H744 0.949 . S
C748 C756 1.574 . S
C748 C764 1.368 . S
H749 C757 0.950 . S
H750 C755 0.950 . S
H751 C756 0.949 . S
H752 C758 0.950 . S
H753 C759 0.950 . S
H754 C760 0.949 . S
C755 H750 0.950 . S
C755 C757 1.327 . S
C755 C761 1.429 . S
C756 C748 1.574 . S
C756 H751 0.949 . S
C756 C762 1.368 . S
C757 C741 1.349 . S
C757 H749 0.950 . S
C757 C755 1.327 . S
C758 C746 1.349 . S
C758 H752 0.950 . S
C758 C759 1.327 . S
C759 H753 0.950 . S
C759 C758 1.327 . S
C759 C763 1.429 1_556 S
C760 C743 1.574 . S
C760 H754 0.949 . S
C760 C764 1.368 . S
C761 C742 1.429 . S
C761 C755 1.429 . S
C761 C762 1.523 . S
C762 C743 1.368 . S
C762 C756 1.368 . S
C762 C761 1.523 . S
C763 C747 1.429 1_554 S
C763 C759 1.429 1_554 S
C763 C764 1.523 . S
C764 C748 1.368 . S
C764 C760 1.368 . S
C764 C763 1.523 . S
H765 C740 0.950 . S
H766 C742 0.950 . S
H767 C743 0.949 . S
H768 C745 0.950 . S
H769 C747 0.950 . S
C770 C771 1.349 . S
C770 C772 1.327 . S
C770 H795 0.950 . S
C771 C770 1.349 . S
C771 C787 1.349 . S
C772 C770 1.327 . S
C772 C791 1.429 1_554 S
C772 H796 0.950 1_554 S
C773 C790 1.574 . S
C773 C792 1.368 . S
C773 H797 0.949 . S
H774 C778 0.949 . S
C775 C776 1.349 . S
C775 C777 1.327 . S
C775 H798 0.950 . S
C776 C775 1.349 . S
C776 C788 1.349 . S
C777 C775 1.327 . S
C777 C793 1.429 . S
C777 H799 0.950 . S
C778 H774 0.949 . S
C778 C786 1.574 . S
C778 C794 1.368 . S
H779 C787 0.950 . S
H780 C785 0.950 . S
H781 C786 0.949 . S
H782 C788 0.950 . S
H783 C789 0.950 . S
H784 C790 0.949 . S
C785 H780 0.950 . S
C785 C787 1.327 . S
C785 C791 1.429 1_554 S
C786 C778 1.574 . S
C786 H781 0.949 . S
C786 C792 1.368 . S
C787 C771 1.349 . S
C787 H779 0.950 . S
C787 C785 1.327 . S
C788 C776 1.349 . S
C788 H782 0.950 . S
C788 C789 1.327 . S
C789 H783 0.950 . S
C789 C788 1.327 . S
C789 C793 1.429 . S
C790 C773 1.574 . S
C790 H784 0.949 . S
C790 C794 1.368 . S
C791 C772 1.429 1_556 S
C791 C785 1.429 1_556 S
C791 C792 1.523 . S
C792 C773 1.368 . S
C792 C786 1.368 . S
C792 C791 1.523 . S
C793 C777 1.429 . S
C793 C789 1.429 . S
C793 C794 1.523 . S
C794 C778 1.368 . S
C794 C790 1.368 . S
C794 C793 1.523 . S
H795 C770 0.950 . S
H796 C772 0.950 1_556 S
H797 C773 0.949 . S
H798 C775 0.950 . S
H799 C777 0.950 . S
C800 C801 1.349 . S
C800 C802 1.327 . S
C800 H825 0.950 . S
C801 C800 1.349 . S
C801 C817 1.349 . S
C802 C800 1.327 . S
C802 C821 1.429 . S
C802 H826 0.950 . S
C803 C820 1.574 . S
C803 C822 1.368 . S
C803 H827 0.949 . S
H804 C808 0.949 . S
C805 C806 1.349 . S
C805 C807 1.327 . S
C805 H828 0.950 . S
C806 C805 1.349 . S
C806 C818 1.349 . S
C807 C805 1.327 . S
C807 C823 1.429 . S
C807 H829 0.950 . S
C808 H804 0.949 . S
C808 C816 1.574 . S
C808 C824 1.368 . S
H809 C817 0.950 . S
H810 C815 0.950 . S
H811 C816 0.949 . S
H812 C818 0.950 . S
H813 C819 0.950 . S
H814 C820 0.949 . S
C815 H810 0.950 . S
C815 C817 1.327 . S
C815 C821 1.429 . S
C816 C808 1.574 . S
C816 H811 0.949 . S
C816 C822 1.368 . S
C817 C801 1.349 . S
C817 H809 0.950 . S
C817 C815 1.327 . S
C818 C806 1.349 . S
C818 H812 0.950 . S
C818 C819 1.327 . S
C819 H813 0.950 . S
C819 C818 1.327 . S
C819 C823 1.429 . S
C820 C803 1.574 . S
C820 H814 0.949 . S
C820 C824 1.368 . S
C821 C802 1.429 . S
C821 C815 1.429 . S
C821 C822 1.523 . S
C822 C803 1.368 . S
C822 C816 1.368 . S
C822 C821 1.523 . S
C823 C807 1.429 . S
C823 C819 1.429 . S
C823 C824 1.523 . S
C824 C808 1.368 . S
C824 C820 1.368 . S
C824 C823 1.523 . S
H825 C800 0.950 . S
H826 C802 0.950 . S
H827 C803 0.949 . S
H828 C805 0.950 . S
H829 C807 0.950 . S
C830 C831 1.349 . S
C830 C832 1.327 . S
C830 H855 0.950 . S
C831 C830 1.349 . S
C831 C847 1.349 . S
C832 C830 1.327 . S
C832 C851 1.429 . S
C832 H856 0.950 . S
C833 C850 1.574 . S
C833 C852 1.368 . S
C833 H857 0.949 . S
H834 C838 0.949 . S
C835 C836 1.349 . S
C835 C837 1.327 . S
C835 H858 0.950 . S
C836 C835 1.349 . S
C836 C848 1.349 . S
C837 C835 1.327 . S
C837 C853 1.429 . S
C837 H859 0.950 . S
C838 H834 0.949 . S
C838 C846 1.574 . S
C838 C854 1.368 . S
H839 C847 0.950 . S
H840 C845 0.950 . S
H841 C846 0.949 . S
H842 C848 0.950 . S
H843 C849 0.950 . S
H844 C850 0.949 . S
C845 H840 0.950 . S
C845 C847 1.327 . S
C845 C851 1.429 . S
C846 C838 1.574 . S
C846 H841 0.949 . S
C846 C852 1.368 . S
C847 C831 1.349 . S
C847 H839 0.950 . S
C847 C845 1.327 . S
C848 C836 1.349 . S
C848 H842 0.950 . S
C848 C849 1.327 . S
C849 H843 0.950 . S
C849 C848 1.327 . S
C849 C853 1.429 . S
C850 C833 1.574 . S
C850 H844 0.949 . S
C850 C854 1.368 . S
C851 C832 1.429 . S
C851 C845 1.429 . S
C851 C852 1.523 . S
C852 C833 1.368 . S
C852 C846 1.368 . S
C852 C851 1.523 . S
C853 C837 1.429 . S
C853 C849 1.429 . S
C853 C854 1.523 . S
C854 C838 1.368 . S
C854 C850 1.368 . S
C854 C853 1.523 . S
H855 C830 0.950 . S
H856 C832 0.950 . S
H857 C833 0.949 . S
H858 C835 0.950 . S
H859 C837 0.950 . S
C860 C861 1.349 . S
C860 C862 1.327 . S
C860 H885 0.950 . S
C861 C860 1.349 . S
C861 C877 1.349 . S
C862 C860 1.327 . S
C862 C881 1.429 . S
C862 H886 0.950 . S
C863 C880 1.574 . S
C863 C882 1.368 . S
C863 H887 0.949 . S
H864 C868 0.949 . S
C865 C866 1.349 . S
C865 C867 1.327 . S
C865 H888 0.950 . S
C866 C865 1.349 . S
C866 C878 1.349 . S
C867 C865 1.327 . S
C867 C883 1.429 . S
C867 H889 0.950 . S
C868 H864 0.949 . S
C868 C876 1.574 . S
C868 C884 1.368 . S
H869 C877 0.950 . S
H870 C875 0.950 . S
H871 C876 0.949 . S
H872 C878 0.950 . S
H873 C879 0.950 . S
H874 C880 0.949 . S
C875 H870 0.950 . S
C875 C877 1.327 . S
C875 C881 1.429 . S
C876 C868 1.574 . S
C876 H871 0.949 . S
C876 C882 1.368 . S
C877 C861 1.349 . S
C877 H869 0.950 . S
C877 C875 1.327 . S
C878 C866 1.349 . S
C878 H872 0.950 . S
C878 C879 1.327 . S
C879 H873 0.950 . S
C879 C878 1.327 . S
C879 C883 1.429 . S
C880 C863 1.574 . S
C880 H874 0.949 . S
C880 C884 1.368 . S
C881 C862 1.429 . S
C881 C875 1.429 . S
C881 C882 1.523 . S
C882 C863 1.368 . S
C882 C876 1.368 . S
C882 C881 1.523 . S
C883 C867 1.429 . S
C883 C879 1.429 . S
C883 C884 1.523 . S
C884 C868 1.368 . S
C884 C880 1.368 . S
C884 C883 1.523 . S
H885 C860 0.950 . S
H886 C862 0.950 . S
H887 C863 0.949 . S
H888 C865 0.950 . S
H889 C867 0.950 . S
C890 C891 1.349 . S
C890 C892 1.327 . S
C890 H915 0.950 . S
C891 C890 1.349 . S
C891 C907 1.349 . S
C892 C890 1.327 . S
C892 C911 1.429 . S
C892 H916 0.950 . S
C893 C910 1.574 1_655 S
C893 C912 1.368 . S
C893 H917 0.949 . S
H894 C898 0.949 . S
C895 C896 1.349 . S
C895 C897 1.327 . S
C895 H918 0.950 . S
C896 C895 1.349 . S
C896 C908 1.349 . S
C897 C895 1.327 . S
C897 C913 1.429 . S
C897 H919 0.950 . S
C898 H894 0.949 . S
C898 C906 1.574 1_455 S
C898 C914 1.368 . S
H899 C907 0.950 . S
H900 C905 0.950 . S
H901 C906 0.949 . S
H902 C908 0.950 . S
H903 C909 0.950 . S
H904 C910 0.949 . S
C905 H900 0.950 . S
C905 C907 1.327 . S
C905 C911 1.429 . S
C906 C898 1.574 1_655 S
C906 H901 0.949 . S
C906 C912 1.368 . S
C907 C891 1.349 . S
C907 H899 0.950 . S
C907 C905 1.327 . S
C908 C896 1.349 . S
C908 H902 0.950 . S
C908 C909 1.327 . S
C909 H903 0.950 . S
C909 C908 1.327 . S
C909 C913 1.429 . S
C910 C893 1.574 1_455 S
C910 H904 0.949 . S
C910 C914 1.368 . S
C911 C892 1.429 . S
C911 C905 1.429 . S
C911 C912 1.523 . S
C912 C893 1.368 . S
C912 C906 1.368 . S
C912 C911 1.523 . S
C913 C897 1.429 . S
C913 C909 1.429 . S
C913 C914 1.523 . S
C914 C898 1.368 . S
C914 C910 1.368 . S
C914 C913 1.523 . S
H915 C890 0.950 . S
H916 C892 0.950 . S
H917 C893 0.949 . S
H918 C895 0.950 . S
H919 C897 0.950 . S
C920 C921 1.349 . S
C920 C922 1.327 . S
C920 H945 0.950 . S
C921 C920 1.349 . S
C921 C937 1.349 . S
C922 C920 1.327 . S
C922 C941 1.429 . S
C922 H946 0.950 . S
C923 C940 1.574 . S
C923 C942 1.368 . S
C923 H947 0.949 . S
H924 C928 0.949 . S
C925 C926 1.349 . S
C925 C927 1.327 . S
C925 H948 0.950 . S
C926 C925 1.349 . S
C926 C938 1.349 . S
C927 C925 1.327 . S
C927 C943 1.429 . S
C927 H949 0.950 . S
C928 H924 0.949 . S
C928 C936 1.574 . S
C928 C944 1.368 . S
H929 C937 0.950 . S
H930 C935 0.950 . S
H931 C936 0.949 . S
H932 C938 0.950 . S
H933 C939 0.950 . S
H934 C940 0.949 . S
C935 H930 0.950 . S
C935 C937 1.327 . S
C935 C941 1.429 . S
C936 C928 1.574 . S
C936 H931 0.949 . S
C936 C942 1.368 . S
C937 C921 1.349 . S
C937 H929 0.950 . S
C937 C935 1.327 . S
C938 C926 1.349 . S
C938 H932 0.950 . S
C938 C939 1.327 . S
C939 H933 0.950 . S
C939 C938 1.327 . S
C939 C943 1.429 . S
C940 C923 1.574 . S
C940 H934 0.949 . S
C940 C944 1.368 . S
C941 C922 1.429 . S
C941 C935 1.429 . S
C941 C942 1.523 . S
C942 C923 1.368 . S
C942 C936 1.368 . S
C942 C941 1.523 . S
C943 C927 1.429 . S
C943 C939 1.429 . S
C943 C944 1.523 . S
C944 C928 1.368 . S
C944 C940 1.368 . S
C944 C943 1.523 . S
H945 C920 0.950 . S
H946 C922 0.950 . S
H947 C923 0.949 . S
H948 C925 0.950 . S
H949 C927 0.950 . S
C950 C951 1.349 . S
C950 C952 1.327 . S
C950 H975 0.950 . S
C951 C950 1.349 . S
C951 C967 1.349 . S
C952 C950 1.327 . S
C952 C971 1.429 . S
C952 H976 0.950 . S
C953 C970 1.574 1_455 S
C953 C972 1.368 . S
C953 H977 0.949 . S
H954 C958 0.949 . S
C955 C956 1.349 . S
C955 C957 1.327 . S
C955 H978 0.950 . S
C956 C955 1.349 . S
C956 C968 1.349 . S
C957 C955 1.327 . S
C957 C973 1.429 . S
C957 H979 0.950 . S
C958 H954 0.949 . S
C958 C966 1.574 1_655 S
C958 C974 1.368 . S
H959 C967 0.950 . S
H960 C965 0.950 . S
H961 C966 0.949 . S
H962 C968 0.950 . S
H963 C969 0.950 . S
H964 C970 0.949 . S
C965 H960 0.950 . S
C965 C967 1.327 . S
C965 C971 1.429 . S
C966 C958 1.574 1_455 S
C966 H961 0.949 . S
C966 C972 1.368 . S
C967 C951 1.349 . S
C967 H959 0.950 . S
C967 C965 1.327 . S
C968 C956 1.349 . S
C968 H962 0.950 . S
C968 C969 1.327 . S
C969 H963 0.950 . S
C969 C968 1.327 . S
C969 C973 1.429 . S
C970 C953 1.574 1_655 S
C970 H964 0.949 . S
C970 C974 1.368 . S
C971 C952 1.429 . S
C971 C965 1.429 . S
C971 C972 1.523 . S
C972 C953 1.368 . S
C972 C966 1.368 . S
C972 C971 1.523 . S
C973 C957 1.429 . S
C973 C969 1.429 . S
C973 C974 1.523 . S
C974 C958 1.368 . S
C974 C970 1.368 . S
C974 C973 1.523 . S
H975 C950 0.950 . S
H976 C952 0.950 . S
H977 C953 0.949 . S
H978 C955 0.950 . S
H979 C957 0.950 . S
C980 C981 1.349 . S
C980 C982 1.327 . S
C980 H1005 0.950 . S
C981 C980 1.349 . S
C981 C997 1.349 . S
C982 C980 1.327 . S
C982 C1001 1.429 . S
C982 H1006 0.950 . S
C983 C1000 1.574 . S
C983 C1002 1.368 . S
C983 H1007 0.949 . S
H984 C988 0.949 . S
C985 C986 1.349 . S
C985 C987 1.327 . S
C985 H1008 0.950 . S
C986 C985 1.349 . S
C986 C998 1.349 . S
C987 C985 1.327 . S
C987 C1003 1.429 . S
C987 H1009 0.950 . S
C988 H984 0.949 . S
C988 C996 1.574 . S
C988 C1004 1.368 . S
H989 C997 0.950 . S
H990 C995 0.950 . S
H991 C996 0.949 . S
H992 C998 0.950 . S
H993 C999 0.950 . S
H994 C1000 0.949 . S
C995 H990 0.950 . S
C995 C997 1.327 . S
C995 C1001 1.429 . S
C996 C988 1.574 . S
C996 H991 0.949 . S
C996 C1002 1.368 . S
C997 C981 1.349 . S
C997 H989 0.950 . S
C997 C995 1.327 . S
C998 C986 1.349 . S
C998 H992 0.950 . S
C998 C999 1.327 . S
C999 H993 0.950 . S
C999 C998 1.327 . S
C999 C1003 1.429 . S
C1000 C983 1.574 . S
C1000 H994 0.949 . S
C1000 C1004 1.368 . S
C1001 C982 1.429 . S
C1001 C995 1.429 . S
C1001 C1002 1.523 . S
C1002 C983 1.368 . S
C1002 C996 1.368 . S
C1002 C1001 1.523 . S
C1003 C987 1.429 . S
C1003 C999 1.429 . S
C1003 C1004 1.523 . S
C1004 C988 1.368 . S
C1004 C1000 1.368 . S
C1004 C1003 1.523 . S
H1005 C980 0.950 . S
H1006 C982 0.950 . S
H1007 C983 0.949 . S
H1008 C985 0.950 . S
H1009 C987 0.950 . S
C1010 C1011 1.349 . S
C1010 C1012 1.327 . S
C1010 H1035 0.950 . S
C1011 C1010 1.349 . S
C1011 C1027 1.349 . S
C1012 C1010 1.327 . S
C1012 C1031 1.429 . S
C1012 H1036 0.950 . S
C1013 C1030 1.574 . S
C1013 C1032 1.368 . S
C1013 H1037 0.949 . S
H1014 C1018 0.949 . S
C1015 C1016 1.349 . S
C1015 C1017 1.327 . S
C1015 H1038 0.950 . S
C1016 C1015 1.349 . S
C1016 C1028 1.349 . S
C1017 C1015 1.327 . S
C1017 C1033 1.429 . S
C1017 H1039 0.950 . S
C1018 H1014 0.949 . S
C1018 C1026 1.574 . S
C1018 C1034 1.368 . S
H1019 C1027 0.950 . S
H1020 C1025 0.950 . S
H1021 C1026 0.949 . S
H1022 C1028 0.950 . S
H1023 C1029 0.950 . S
H1024 C1030 0.949 . S
C1025 H1020 0.950 . S
C1025 C1027 1.327 . S
C1025 C1031 1.429 . S
C1026 C1018 1.574 . S
C1026 H1021 0.949 . S
C1026 C1032 1.368 . S
C1027 C1011 1.349 . S
C1027 H1019 0.950 . S
C1027 C1025 1.327 . S
C1028 C1016 1.349 . S
C1028 H1022 0.950 . S
C1028 C1029 1.327 . S
C1029 H1023 0.950 . S
C1029 C1028 1.327 . S
C1029 C1033 1.429 . S
C1030 C1013 1.574 . S
C1030 H1024 0.949 . S
C1030 C1034 1.368 . S
C1031 C1012 1.429 . S
C1031 C1025 1.429 . S
C1031 C1032 1.523 . S
C1032 C1013 1.368 . S
C1032 C1026 1.368 . S
C1032 C1031 1.523 . S
C1033 C1017 1.429 . S
C1033 C1029 1.429 . S
C1033 C1034 1.523 . S
C1034 C1018 1.368 . S
C1034 C1030 1.368 . S
C1034 C1033 1.523 . S
H1035 C1010 0.950 . S
H1036 C1012 0.950 . S
H1037 C1013 0.949 . S
H1038 C1015 0.950 . S
H1039 C1017 0.950 . S
C1040 C1041 1.349 . S
C1040 C1042 1.327 . S
C1040 H1065 0.950 . S
C1041 C1040 1.349 . S
C1041 C1057 1.349 . S
C1042 C1040 1.327 . S
C1042 C1061 1.429 . S
C1042 H1066 0.950 . S
C1043 C1060 1.574 . S
C1043 C1062 1.368 . S
C1043 H1067 0.949 . S
H1044 C1048 0.949 . S
C1045 C1046 1.349 . S
C1045 C1047 1.327 . S
C1045 H1068 0.950 . S
C1046 C1045 1.349 . S
C1046 C1058 1.349 . S
C1047 C1045 1.327 . S
C1047 C1063 1.429 . S
C1047 H1069 0.950 . S
C1048 H1044 0.949 . S
C1048 C1056 1.574 . S
C1048 C1064 1.368 . S
H1049 C1057 0.950 . S
H1050 C1055 0.950 . S
H1051 C1056 0.949 . S
H1052 C1058 0.950 . S
H1053 C1059 0.950 . S
H1054 C1060 0.949 . S
C1055 H1050 0.950 . S
C1055 C1057 1.327 . S
C1055 C1061 1.429 . S
C1056 C1048 1.574 . S
C1056 H1051 0.949 . S
C1056 C1062 1.368 . S
C1057 C1041 1.349 . S
C1057 H1049 0.950 . S
C1057 C1055 1.327 . S
C1058 C1046 1.349 . S
C1058 H1052 0.950 . S
C1058 C1059 1.327 . S
C1059 H1053 0.950 . S
C1059 C1058 1.327 . S
C1059 C1063 1.429 . S
C1060 C1043 1.574 . S
C1060 H1054 0.949 . S
C1060 C1064 1.368 . S
C1061 C1042 1.429 . S
C1061 C1055 1.429 . S
C1061 C1062 1.523 . S
C1062 C1043 1.368 . S
C1062 C1056 1.368 . S
C1062 C1061 1.523 . S
C1063 C1047 1.429 . S
C1063 C1059 1.429 . S
C1063 C1064 1.523 . S
C1064 C1048 1.368 . S
C1064 C1060 1.368 . S
C1064 C1063 1.523 . S
H1065 C1040 0.950 . S
H1066 C1042 0.950 . S
H1067 C1043 0.949 . S
H1068 C1045 0.950 . S
H1069 C1047 0.950 . S
C1070 C1071 1.349 . S
C1070 C1072 1.327 . S
C1070 H1095 0.950 . S
C1071 C1070 1.349 . S
C1071 C1087 1.349 . S
C1072 C1070 1.327 . S
C1072 C1091 1.429 . S
C1072 H1096 0.950 . S
C1073 C1090 1.574 . S
C1073 C1092 1.368 . S
C1073 H1097 0.949 . S
H1074 C1078 0.949 . S
C1075 C1076 1.349 . S
C1075 C1077 1.327 . S
C1075 H1098 0.950 . S
C1076 C1075 1.349 . S
C1076 C1088 1.349 . S
C1077 C1075 1.327 . S
C1077 C1093 1.429 . S
C1077 H1099 0.950 . S
C1078 H1074 0.949 . S
C1078 C1086 1.574 . S
C1078 C1094 1.368 . S
H1079 C1087 0.950 . S
H1080 C1085 0.950 . S
H1081 C1086 0.949 . S
H1082 C1088 0.950 . S
H1083 C1089 0.950 . S
H1084 C1090 0.949 . S
C1085 H1080 0.950 . S
C1085 C1087 1.327 . S
C1085 C1091 1.429 . S
C1086 C1078 1.574 . S
C1086 H1081 0.949 . S
C1086 C1092 1.368 . S
C1087 C1071 1.349 . S
C1087 H1079 0.950 . S
C1087 C1085 1.327 . S
C1088 C1076 1.349 . S
C1088 H1082 0.950 . S
C1088 C1089 1.327 . S
C1089 H1083 0.950 . S
C1089 C1088 1.327 . S
C1089 C1093 1.429 . S
C1090 C1073 1.574 . S
C1090 H1084 0.949 . S
C1090 C1094 1.368 . S
C1091 C1072 1.429 . S
C1091 C1085 1.429 . S
C1091 C1092 1.523 . S
C1092 C1073 1.368 . S
C1092 C1086 1.368 . S
C1092 C1091 1.523 . S
C1093 C1077 1.429 . S
C1093 C1089 1.429 . S
C1093 C1094 1.523 . S
C1094 C1078 1.368 . S
C1094 C1090 1.368 . S
C1094 C1093 1.523 . S
H1095 C1070 0.950 . S
H1096 C1072 0.950 . S
H1097 C1073 0.949 . S
H1098 C1075 0.950 . S
H1099 C1077 0.950 . S
C1100 C1101 1.349 . S
C1100 C1102 1.327 . S
C1100 H1125 0.950 . S
C1101 C1100 1.349 . S
C1101 C1117 1.349 . S
C1102 C1100 1.327 . S
C1102 C1121 1.429 . S
C1102 H1126 0.950 . S
C1103 C1120 1.574 . S
C1103 C1122 1.368 . S
C1103 H1127 0.949 . S
H1104 C1108 0.949 . S
C1105 C1106 1.349 . S
C1105 C1107 1.327 . S
C1105 H1128 0.950 . S
C1106 C1105 1.349 . S
C1106 C1118 1.349 . S
C1107 C1105 1.327 . S
C1107 C1123 1.429 . S
C1107 H1129 0.950 . S
C1108 H1104 0.949 . S
C1108 C1116 1.574 . S
C1108 C1124 1.368 . S
H1109 C1117 0.950 . S
H1110 C1115 0.950 . S
H1111 C1116 0.949 . S
H1112 C1118 0.950 . S
H1113 C1119 0.950 . S
H1114 C1120 0.949 . S
C1115 H1110 0.950 . S
C1115 C1117 1.327 . S
C1115 C1121 1.429 . S
C1116 C1108 1.574 . S
C1116 H1111 0.949 . S
C1116 C1122 1.368 . S
C1117 C1101 1.349 . S
C1117 H1109 0.950 . S
C1117 C1115 1.327 . S
C1118 C1106 1.349 . S
C1118 H1112 0.950 . S
C1118 C1119 1.327 . S
C1119 H1113 0.950 . S
C1119 C1118 1.327 . S
C1119 C1123 1.429 . S
C1120 C1103 1.574 . S
C1120 H1114 0.949 . S
C1120 C1124 1.368 . S
C1121 C1102 1.429 . S
C1121 C1115 1.429 . S
C1121 C1122 1.523 . S
C1122 C1103 1.368 . S
C1122 C1116 1.368 . S
C1122 C1121 1.523 . S
C1123 C1107 1.429 . S
C1123 C1119 1.429 . S
C1123 C1124 1.523 . S
C1124 C1108 1.368 . S
C1124 C1120 1.368 . S
C1124 C1123 1.523 . S
H1125 C1100 0.950 . S
H1126 C1102 0.950 . S
H1127 C1103 0.949 . S
H1128 C1105 0.950 . S
H1129 C1107 0.950 . S
C1130 C1131 1.349 . S
C1130 C1132 1.327 . S
C1130 H1155 0.950 . S
C1131 C1130 1.349 . S
C1131 C1147 1.349 . S
C1132 C1130 1.327 . S
C1132 C1151 1.429 . S
C1132 H1156 0.950 . S
C1133 C1150 1.574 . S
C1133 C1152 1.368 . S
C1133 H1157 0.949 . S
H1134 C1138 0.949 . S
C1135 C1136 1.349 . S
C1135 C1137 1.327 . S
C1135 H1158 0.950 . S
C1136 C1135 1.349 . S
C1136 C1148 1.349 . S
C1137 C1135 1.327 . S
C1137 C1153 1.429 . S
C1137 H1159 0.950 . S
C1138 H1134 0.949 . S
C1138 C1146 1.574 . S
C1138 C1154 1.368 . S
H1139 C1147 0.950 . S
H1140 C1145 0.950 . S
H1141 C1146 0.949 . S
H1142 C1148 0.950 . S
H1143 C1149 0.950 . S
H1144 C1150 0.949 . S
C1145 H1140 0.950 . S
C1145 C1147 1.327 . S
C1145 C1151 1.429 . S
C1146 C1138 1.574 . S
C1146 H1141 0.949 . S
C1146 C1152 1.368 . S
C1147 C1131 1.349 . S
C1147 H1139 0.950 . S
C1147 C1145 1.327 . S
C1148 C1136 1.349 . S
C1148 H1142 0.950 . S
C1148 C1149 1.327 . S
C1149 H1143 0.950 . S
C1149 C1148 1.327 . S
C1149 C1153 1.429 . S
C1150 C1133 1.574 . S
C1150 H1144 0.949 . S
C1150 C1154 1.368 . S
C1151 C1132 1.429 . S
C1151 C1145 1.429 . S
C1151 C1152 1.523 . S
C1152 C1133 1.368 . S
C1152 C1146 1.368 . S
C1152 C1151 1.523 . S
C1153 C1137 1.429 . S
C1153 C1149 1.429 . S
C1153 C1154 1.523 . S
C1154 C1138 1.368 . S
C1154 C1150 1.368 . S
C1154 C1153 1.523 . S
H1155 C1130 0.950 . S
H1156 C1132 0.950 . S
H1157 C1133 0.949 . S
H1158 C1135 0.950 . S
H1159 C1137 0.950 . S
C1160 C1161 1.349 . S
C1160 C1162 1.327 . S
C1160 H1185 0.950 . S
C1161 C1160 1.349 . S
C1161 C1177 1.349 . S
C1162 C1160 1.327 . S
C1162 C1181 1.429 . S
C1162 H1186 0.950 . S
C1163 C1180 1.574 1_655 S
C1163 C1182 1.368 . S
C1163 H1187 0.949 . S
H1164 C1168 0.949 . S
C1165 C1166 1.349 . S
C1165 C1167 1.327 . S
C1165 H1188 0.950 . S
C1166 C1165 1.349 . S
C1166 C1178 1.349 . S
C1167 C1165 1.327 . S
C1167 C1183 1.429 . S
C1167 H1189 0.950 . S
C1168 H1164 0.949 . S
C1168 C1176 1.574 1_455 S
C1168 C1184 1.368 . S
H1169 C1177 0.950 . S
H1170 C1175 0.950 . S
H1171 C1176 0.949 . S
H1172 C1178 0.950 . S
H1173 C1179 0.950 . S
H1174 C1180 0.949 . S
C1175 H1170 0.950 . S
C1175 C1177 1.327 . S
C1175 C1181 1.429 . S
C1176 C1168 1.574 1_655 S
C1176 H1171 0.949 . S
C1176 C1182 1.368 . S
C1177 C1161 1.349 . S
C1177 H1169 0.950 . S
C1177 C1175 1.327 . S
C1178 C1166 1.349 . S
C1178 H1172 0.950 . S
C1178 C1179 1.327 . S
C1179 H1173 0.950 . S
C1179 C1178 1.327 . S
C1179 C1183 1.429 . S
C1180 C1163 1.574 1_455 S
C1180 H1174 0.949 . S
C1180 C1184 1.368 . S
C1181 C1162 1.429 . S
C1181 C1175 1.429 . S
C1181 C1182 1.523 . S
C1182 C1163 1.368 . S
C1182 C1176 1.368 . S
C1182 C1181 1.523 . S
C1183 C1167 1.429 . S
C1183 C1179 1.429 . S
C1183 C1184 1.523 . S
C1184 C1168 1.368 . S
C1184 C1180 1.368 . S
C1184 C1183 1.523 . S
H1185 C1160 0.950 . S
H1186 C1162 0.950 . S
H1187 C1163 0.949 . S
H1188 C1165 0.950 . S
H1189 C1167 0.950 . S
C1190 C1191 1.349 . S
C1190 C1192 1.327 . S
C1190 H1215 0.950 . S
C1191 C1190 1.349 . S
C1191 C1207 1.349 . S
C1192 C1190 1.327 . S
C1192 C1211 1.429 . S
C1192 H1216 0.950 . S
C1193 C1210 1.574 . S
C1193 C1212 1.368 . S
C1193 H1217 0.949 . S
H1194 C1198 0.949 . S
C1195 C1196 1.349 . S
C1195 C1197 1.327 . S
C1195 H1218 0.950 . S
C1196 C1195 1.349 . S
C1196 C1208 1.349 . S
C1197 C1195 1.327 . S
C1197 C1213 1.429 . S
C1197 H1219 0.950 . S
C1198 H1194 0.949 . S
C1198 C1206 1.574 . S
C1198 C1214 1.368 . S
H1199 C1207 0.950 . S
H1200 C1205 0.950 . S
H1201 C1206 0.949 . S
H1202 C1208 0.950 . S
H1203 C1209 0.950 . S
H1204 C1210 0.949 . S
C1205 H1200 0.950 . S
C1205 C1207 1.327 . S
C1205 C1211 1.429 . S
C1206 C1198 1.574 . S
C1206 H1201 0.949 . S
C1206 C1212 1.368 . S
C1207 C1191 1.349 . S
C1207 H1199 0.950 . S
C1207 C1205 1.327 . S
C1208 C1196 1.349 . S
C1208 H1202 0.950 . S
C1208 C1209 1.327 . S
C1209 H1203 0.950 . S
C1209 C1208 1.327 . S
C1209 C1213 1.429 . S
C1210 C1193 1.574 . S
C1210 H1204 0.949 . S
C1210 C1214 1.368 . S
C1211 C1192 1.429 . S
C1211 C1205 1.429 . S
C1211 C1212 1.523 . S
C1212 C1193 1.368 . S
C1212 C1206 1.368 . S
C1212 C1211 1.523 . S
C1213 C1197 1.429 . S
C1213 C1209 1.429 . S
C1213 C1214 1.523 . S
C1214 C1198 1.368 . S
C1214 C1210 1.368 . S
C1214 C1213 1.523 . S
H1215 C1190 0.950 . S
H1216 C1192 0.950 . S
H1217 C1193 0.949 . S
H1218 C1195 0.950 . S
H1219 C1197 0.950 . S
C1220 C1221 1.349 . S
C1220 C1222 1.327 . S
C1220 H1245 0.950 . S
C1221 C1220 1.349 . S
C1221 C1237 1.349 . S
C1222 C1220 1.327 . S
C1222 C1241 1.429 . S
C1222 H1246 0.950 . S
C1223 C1240 1.574 . S
C1223 C1242 1.368 . S
C1223 H1247 0.949 . S
H1224 C1228 0.949 . S
C1225 C1226 1.349 . S
C1225 C1227 1.327 . S
C1225 H1248 0.950 . S
C1226 C1225 1.349 . S
C1226 C1238 1.349 . S
C1227 C1225 1.327 . S
C1227 C1243 1.429 . S
C1227 H1249 0.950 . S
C1228 H1224 0.949 . S
C1228 C1236 1.574 . S
C1228 C1244 1.368 . S
H1229 C1237 0.950 . S
H1230 C1235 0.950 . S
H1231 C1236 0.949 . S
H1232 C1238 0.950 . S
H1233 C1239 0.950 . S
H1234 C1240 0.949 . S
C1235 H1230 0.950 . S
C1235 C1237 1.327 . S
C1235 C1241 1.429 . S
C1236 C1228 1.574 . S
C1236 H1231 0.949 . S
C1236 C1242 1.368 . S
C1237 C1221 1.349 . S
C1237 H1229 0.950 . S
C1237 C1235 1.327 . S
C1238 C1226 1.349 . S
C1238 H1232 0.950 . S
C1238 C1239 1.327 . S
C1239 H1233 0.950 . S
C1239 C1238 1.327 . S
C1239 C1243 1.429 . S
C1240 C1223 1.574 . S
C1240 H1234 0.949 . S
C1240 C1244 1.368 . S
C1241 C1222 1.429 . S
C1241 C1235 1.429 . S
C1241 C1242 1.523 . S
C1242 C1223 1.368 . S
C1242 C1236 1.368 . S
C1242 C1241 1.523 . S
C1243 C1227 1.429 . S
C1243 C1239 1.429 . S
C1243 C1244 1.523 . S
C1244 C1228 1.368 . S
C1244 C1240 1.368 . S
C1244 C1243 1.523 . S
H1245 C1220 0.950 . S
H1246 C1222 0.950 . S
H1247 C1223 0.949 . S
H1248 C1225 0.950 . S
H1249 C1227 0.950 . S
C1250 C1251 1.349 . S
C1250 C1252 1.327 . S
C1250 H1275 0.950 . S
C1251 C1250 1.349 . S
C1251 C1267 1.349 . S
C1252 C1250 1.327 . S
C1252 C1271 1.429 . S
C1252 H1276 0.950 . S
C1253 C1270 1.574 1_455 S
C1253 C1272 1.368 . S
C1253 H1277 0.949 . S
H1254 C1258 0.945 1_556 S
C1255 C1256 1.349 . S
C1255 C1257 1.327 . S
C1255 H1278 0.950 . S
C1256 C1255 1.349 . S
C1256 C1268 1.349 . S
C1257 C1255 1.327 . S
C1257 C1273 1.429 . S
C1257 H1279 0.950 . S
C1258 H1254 0.945 1_554 S
C1258 C1266 1.574 1_655 S
C1258 C1274 1.368 . S
H1259 C1267 0.950 . S
H1260 C1265 0.950 . S
H1261 C1266 0.945 1_556 S
H1262 C1268 0.950 . S
H1263 C1269 0.950 . S
H1264 C1270 0.949 . S
C1265 H1260 0.950 . S
C1265 C1267 1.327 . S
C1265 C1271 1.429 . S
C1266 C1258 1.574 1_455 S
C1266 H1261 0.945 1_554 S
C1266 C1272 1.368 . S
C1267 C1251 1.349 . S
C1267 H1259 0.950 . S
C1267 C1265 1.327 . S
C1268 C1256 1.349 . S
C1268 H1262 0.950 . S
C1268 C1269 1.327 . S
C1269 H1263 0.950 . S
C1269 C1268 1.327 . S
C1269 C1273 1.429 . S
C1270 C1253 1.574 1_655 S
C1270 H1264 0.949 . S
C1270 C1274 1.368 . S
C1271 C1252 1.429 . S
C1271 C1265 1.429 . S
C1271 C1272 1.523 . S
C1272 C1253 1.368 . S
C1272 C1266 1.368 . S
C1272 C1271 1.523 . S
C1273 C1257 1.429 . S
C1273 C1269 1.429 . S
C1273 C1274 1.523 . S
C1274 C1258 1.368 . S
C1274 C1270 1.368 . S
C1274 C1273 1.523 . S
H1275 C1250 0.950 . S
H1276 C1252 0.950 . S
H1277 C1253 0.949 . S
H1278 C1255 0.950 . S
H1279 C1257 0.950 . S
C1280 C1281 1.349 . S
C1280 C1282 1.327 . S
C1280 H1305 0.950 . S
C1281 C1280 1.349 . S
C1281 C1297 1.349 . S
C1282 C1280 1.327 . S
C1282 C1301 1.429 . S
C1282 H1306 0.950 1_554 S
C1283 C1300 1.574 . S
C1283 C1302 1.368 . S
C1283 H1307 0.949 . S
H1284 C1288 0.949 . S
C1285 C1286 1.349 . S
C1285 C1287 1.327 . S
C1285 H1308 0.950 . S
C1286 C1285 1.349 . S
C1286 C1298 1.349 . S
C1287 C1285 1.327 . S
C1287 C1303 1.429 . S
C1287 H1309 0.950 1_556 S
C1288 H1284 0.949 . S
C1288 C1296 1.574 . S
C1288 C1304 1.368 . S
H1289 C1297 0.950 . S
H1290 C1295 0.950 . S
H1291 C1296 0.949 . S
H1292 C1298 0.950 . S
H1293 C1299 0.950 . S
H1294 C1300 0.949 . S
C1295 H1290 0.950 . S
C1295 C1297 1.327 . S
C1295 C1301 1.429 . S
C1296 C1288 1.574 . S
C1296 H1291 0.949 . S
C1296 C1302 1.368 1_556 S
C1297 C1281 1.349 . S
C1297 H1289 0.950 . S
C1297 C1295 1.327 . S
C1298 C1286 1.349 . S
C1298 H1292 0.950 . S
C1298 C1299 1.327 . S
C1299 H1293 0.950 . S
C1299 C1298 1.327 . S
C1299 C1303 1.429 . S
C1300 C1283 1.574 . S
C1300 H1294 0.949 . S
C1300 C1304 1.368 1_554 S
C1301 C1282 1.429 . S
C1301 C1295 1.429 . S
C1301 C1302 1.523 . S
C1302 C1283 1.368 . S
C1302 C1296 1.368 1_554 S
C1302 C1301 1.523 . S
C1303 C1287 1.429 . S
C1303 C1299 1.429 . S
C1303 C1304 1.523 . S
C1304 C1288 1.368 . S
C1304 C1300 1.368 1_556 S
C1304 C1303 1.523 . S
H1305 C1280 0.950 . S
H1306 C1282 0.950 1_556 S
H1307 C1283 0.949 . S
H1308 C1285 0.950 . S
H1309 C1287 0.950 1_554 S
C1310 C1311 1.349 . S
C1310 C1312 1.327 . S
C1310 H1335 0.950 . S
C1311 C1310 1.349 . S
C1311 C1327 1.349 . S
C1312 C1310 1.327 . S
C1312 C1331 1.429 . S
C1312 H1336 0.950 . S
C1313 C1330 1.574 . S
C1313 C1332 1.368 . S
C1313 H1337 0.949 . S
H1314 C1318 0.949 . S
C1315 C1316 1.349 . S
C1315 C1317 1.327 . S
C1315 H1338 0.950 . S
C1316 C1315 1.349 . S
C1316 C1328 1.349 . S
C1317 C1315 1.327 . S
C1317 C1333 1.429 . S
C1317 H1339 0.950 . S
C1318 H1314 0.949 . S
C1318 C1326 1.574 . S
C1318 C1334 1.368 . S
H1319 C1327 0.950 . S
H1320 C1325 0.950 . S
H1321 C1326 0.949 . S
H1322 C1328 0.950 . S
H1323 C1329 0.950 . S
H1324 C1330 0.949 . S
C1325 H1320 0.950 . S
C1325 C1327 1.327 . S
C1325 C1331 1.429 . S
C1326 C1318 1.574 . S
C1326 H1321 0.949 . S
C1326 C1332 1.368 . S
C1327 C1311 1.349 . S
C1327 H1319 0.950 . S
C1327 C1325 1.327 . S
C1328 C1316 1.349 . S
C1328 H1322 0.950 . S
C1328 C1329 1.327 . S
C1329 H1323 0.950 . S
C1329 C1328 1.327 . S
C1329 C1333 1.429 . S
C1330 C1313 1.574 . S
C1330 H1324 0.949 . S
C1330 C1334 1.368 . S
C1331 C1312 1.429 . S
C1331 C1325 1.429 . S
C1331 C1332 1.523 . S
C1332 C1313 1.368 . S
C1332 C1326 1.368 . S
C1332 C1331 1.523 . S
C1333 C1317 1.429 . S
C1333 C1329 1.429 . S
C1333 C1334 1.523 . S
C1334 C1318 1.368 . S
C1334 C1330 1.368 . S
C1334 C1333 1.523 . S
H1335 C1310 0.950 . S
H1336 C1312 0.950 . S
H1337 C1313 0.949 . S
H1338 C1315 0.950 . S
H1339 C1317 0.950 . S
C1340 C1341 1.349 . S
C1340 C1342 1.327 . S
C1340 H1365 0.950 . S
C1341 C1340 1.349 . S
C1341 C1357 1.349 . S
C1342 C1340 1.327 . S
C1342 C1361 1.429 . S
C1342 H1366 0.950 . S
C1343 C1360 1.574 . S
C1343 C1362 1.368 . S
C1343 H1367 0.949 . S
H1344 C1348 0.949 . S
C1345 C1346 1.349 . S
C1345 C1347 1.327 . S
C1345 H1368 0.950 . S
C1346 C1345 1.349 . S
C1346 C1358 1.349 . S
C1347 C1345 1.327 . S
C1347 C1363 1.429 . S
C1347 H1369 0.950 . S
C1348 H1344 0.949 . S
C1348 C1356 1.574 . S
C1348 C1364 1.368 . S
H1349 C1357 0.950 . S
H1350 C1355 0.950 . S
H1351 C1356 0.949 . S
H1352 C1358 0.950 . S
H1353 C1359 0.950 . S
H1354 C1360 0.949 . S
C1355 H1350 0.950 . S
C1355 C1357 1.327 . S
C1355 C1361 1.429 . S
C1356 C1348 1.574 . S
C1356 H1351 0.949 . S
C1356 C1362 1.368 . S
C1357 C1341 1.349 . S
C1357 H1349 0.950 . S
C1357 C1355 1.327 . S
C1358 C1346 1.349 . S
C1358 H1352 0.950 . S
C1358 C1359 1.327 . S
C1359 H1353 0.950 . S
C1359 C1358 1.327 . S
C1359 C1363 1.429 . S
C1360 C1343 1.574 . S
C1360 H1354 0.949 . S
C1360 C1364 1.368 . S
C1361 C1342 1.429 . S
C1361 C1355 1.429 . S
C1361 C1362 1.523 . S
C1362 C1343 1.368 . S
C1362 C1356 1.368 . S
C1362 C1361 1.523 . S
C1363 C1347 1.429 . S
C1363 C1359 1.429 . S
C1363 C1364 1.523 . S
C1364 C1348 1.368 . S
C1364 C1360 1.368 . S
C1364 C1363 1.523 . S
H1365 C1340 0.950 . S
H1366 C1342 0.950 . S
H1367 C1343 0.949 . S
H1368 C1345 0.950 . S
H1369 C1347 0.950 . S
C1370 C1371 1.349 . S
C1370 C1372 1.327 . S
C1370 H1395 0.950 . S
C1371 C1370 1.349 . S
C1371 C1387 1.349 . S
C1372 C1370 1.327 . S
C1372 C1391 1.429 . S
C1372 H1396 0.950 . S
C1373 C1390 1.574 . S
C1373 C1392 1.368 . S
C1373 H1397 0.949 . S
H1374 C1378 0.949 . S
C1375 C1376 1.349 . S
C1375 C1377 1.327 . S
C1375 H1398 0.950 . S
C1376 C1375 1.349 . S
C1376 C1388 1.349 . S
C1377 C1375 1.327 . S
C1377 C1393 1.429 . S
C1377 H1399 0.950 . S
C1378 H1374 0.949 . S
C1378 C1386 1.574 . S
C1378 C1394 1.368 . S
H1379 C1387 0.950 . S
H1380 C1385 0.950 . S
H1381 C1386 0.949 . S
H1382 C1388 0.950 . S
H1383 C1389 0.950 . S
H1384 C1390 0.949 . S
C1385 H1380 0.950 . S
C1385 C1387 1.327 . S
C1385 C1391 1.429 . S
C1386 C1378 1.574 . S
C1386 H1381 0.949 . S
C1386 C1392 1.368 . S
C1387 C1371 1.349 . S
C1387 H1379 0.950 . S
C1387 C1385 1.327 . S
C1388 C1376 1.349 . S
C1388 H1382 0.950 . S
C1388 C1389 1.327 . S
C1389 H1383 0.950 . S
C1389 C1388 1.327 . S
C1389 C1393 1.429 . S
C1390 C1373 1.574 . S
C1390 H1384 0.949 . S
C1390 C1394 1.368 . S
C1391 C1372 1.429 . S
C1391 C1385 1.429 . S
C1391 C1392 1.523 . S
C1392 C1373 1.368 . S
C1392 C1386 1.368 . S
C1392 C1391 1.523 . S
C1393 C1377 1.429 . S
C1393 C1389 1.429 . S
C1393 C1394 1.523 . S
C1394 C1378 1.368 . S
C1394 C1390 1.368 . S
C1394 C1393 1.523 . S
H1395 C1370 0.950 . S
H1396 C1372 0.950 . S
H1397 C1373 0.949 . S
H1398 C1375 0.950 . S
H1399 C1377 0.950 . S
C1400 C1401 1.349 . S
C1400 C1402 1.327 . S
C1400 H1425 0.950 . S
C1401 C1400 1.349 . S
C1401 C1417 1.349 . S
C1402 C1400 1.327 . S
C1402 C1421 1.429 . S
C1402 H1426 0.950 . S
C1403 C1420 1.574 . S
C1403 C1422 1.368 1_556 S
C1403 H1427 0.949 . S
H1404 C1408 0.949 . S
C1405 C1406 1.349 . S
C1405 C1407 1.327 . S
C1405 H1428 0.950 . S
C1406 C1405 1.349 . S
C1406 C1418 1.349 . S
C1407 C1405 1.327 . S
C1407 C1423 1.429 . S
C1407 H1429 0.950 . S
C1408 H1404 0.949 . S
C1408 C1416 1.574 . S
C1408 C1424 1.368 1_554 S
H1409 C1417 0.950 . S
H1410 C1415 0.950 1_556 S
H1411 C1416 0.949 . S
H1412 C1418 0.950 . S
H1413 C1419 0.950 1_554 S
H1414 C1420 0.949 . S
C1415 H1410 0.950 1_554 S
C1415 C1417 1.327 . S
C1415 C1421 1.429 . S
C1416 C1408 1.574 . S
C1416 H1411 0.949 . S
C1416 C1422 1.368 . S
C1417 C1401 1.349 . S
C1417 H1409 0.950 . S
C1417 C1415 1.327 . S
C1418 C1406 1.349 . S
C1418 H1412 0.950 . S
C1418 C1419 1.327 . S
C1419 H1413 0.950 1_556 S
C1419 C1418 1.327 . S
C1419 C1423 1.429 . S
C1420 C1403 1.574 . S
C1420 H1414 0.949 . S
C1420 C1424 1.368 . S
C1421 C1402 1.429 . S
C1421 C1415 1.429 . S
C1421 C1422 1.523 . S
C1422 C1403 1.368 1_554 S
C1422 C1416 1.368 . S
C1422 C1421 1.523 . S
C1423 C1407 1.429 . S
C1423 C1419 1.429 . S
C1423 C1424 1.523 . S
C1424 C1408 1.368 1_556 S
C1424 C1420 1.368 . S
C1424 C1423 1.523 . S
H1425 C1400 0.950 . S
H1426 C1402 0.950 . S
H1427 C1403 0.949 . S
H1428 C1405 0.950 . S
H1429 C1407 0.950 . S
C1430 C1431 1.349 . S
C1430 C1432 1.327 . S
C1430 H1455 0.950 . S
C1431 C1430 1.349 . S
C1431 C1447 1.349 . S
C1432 C1430 1.327 . S
C1432 C1451 1.429 . S
C1432 H1456 0.950 . S
C1433 C1450 1.574 . S
C1433 C1452 1.368 . S
C1433 H1457 0.949 . S
H1434 C1438 0.949 . S
C1435 C1436 1.349 . S
C1435 C1437 1.327 . S
C1435 H1458 0.950 . S
C1436 C1435 1.349 . S
C1436 C1448 1.349 . S
C1437 C1435 1.327 . S
C1437 C1453 1.429 . S
C1437 H1459 0.950 . S
C1438 H1434 0.949 . S
C1438 C1446 1.574 . S
C1438 C1454 1.368 . S
H1439 C1447 0.950 . S
H1440 C1445 0.950 . S
H1441 C1446 0.949 . S
H1442 C1448 0.950 . S
H1443 C1449 0.950 . S
H1444 C1450 0.949 . S
C1445 H1440 0.950 . S
C1445 C1447 1.327 . S
C1445 C1451 1.429 . S
C1446 C1438 1.574 . S
C1446 H1441 0.949 . S
C1446 C1452 1.368 . S
C1447 C1431 1.349 . S
C1447 H1439 0.950 . S
C1447 C1445 1.327 . S
C1448 C1436 1.349 . S
C1448 H1442 0.950 . S
C1448 C1449 1.327 . S
C1449 H1443 0.950 . S
C1449 C1448 1.327 . S
C1449 C1453 1.429 . S
C1450 C1433 1.574 . S
C1450 H1444 0.949 . S
C1450 C1454 1.368 . S
C1451 C1432 1.429 . S
C1451 C1445 1.429 . S
C1451 C1452 1.523 . S
C1452 C1433 1.368 . S
C1452 C1446 1.368 . S
C1452 C1451 1.523 . S
C1453 C1437 1.429 . S
C1453 C1449 1.429 . S
C1453 C1454 1.523 . S
C1454 C1438 1.368 . S
C1454 C1450 1.368 . S
C1454 C1453 1.523 . S
H1455 C1430 0.950 . S
H1456 C1432 0.950 . S
H1457 C1433 0.949 . S
H1458 C1435 0.950 . S
H1459 C1437 0.950 . S
C1460 C1461 1.349 . S
C1460 C1462 1.327 . S
C1460 H1485 0.950 . S
C1461 C1460 1.349 . S
C1461 C1477 1.349 . S
C1462 C1460 1.327 . S
C1462 C1481 1.429 . S
C1462 H1486 0.950 . S
C1463 C1480 1.574 . S
C1463 C1482 1.368 . S
C1463 H1487 0.949 . S
H1464 C1468 0.949 . S
C1465 C1466 1.349 . S
C1465 C1467 1.327 . S
C1465 H1488 0.950 . S
C1466 C1465 1.349 . S
C1466 C1478 1.349 . S
C1467 C1465 1.327 . S
C1467 C1483 1.429 . S
C1467 H1489 0.950 . S
C1468 H1464 0.949 . S
C1468 C1476 1.574 . S
C1468 C1484 1.368 . S
H1469 C1477 0.950 . S
H1470 C1475 0.950 . S
H1471 C1476 0.949 . S
H1472 C1478 0.950 . S
H1473 C1479 0.950 . S
H1474 C1480 0.949 . S
C1475 H1470 0.950 . S
C1475 C1477 1.327 . S
C1475 C1481 1.429 . S
C1476 C1468 1.574 . S
C1476 H1471 0.949 . S
C1476 C1482 1.368 . S
C1477 C1461 1.349 . S
C1477 H1469 0.950 . S
C1477 C1475 1.327 . S
C1478 C1466 1.349 . S
C1478 H1472 0.950 . S
C1478 C1479 1.327 . S
C1479 H1473 0.950 . S
C1479 C1478 1.327 . S
C1479 C1483 1.429 . S
C1480 C1463 1.574 . S
C1480 H1474 0.949 . S
C1480 C1484 1.368 . S
C1481 C1462 1.429 . S
C1481 C1475 1.429 . S
C1481 C1482 1.523 . S
C1482 C1463 1.368 . S
C1482 C1476 1.368 . S
C1482 C1481 1.523 . S
C1483 C1467 1.429 . S
C1483 C1479 1.429 . S
C1483 C1484 1.523 . S
C1484 C1468 1.368 . S
C1484 C1480 1.368 . S
C1484 C1483 1.523 . S
H1485 C1460 0.950 . S
H1486 C1462 0.950 . S
H1487 C1463 0.949 . S
H1488 C1465 0.950 . S
H1489 C1467 0.950 . S
C1490 C1491 1.349 . S
C1490 C1492 1.327 . S
C1490 H1515 0.950 . S
C1491 C1490 1.349 . S
C1491 C1507 1.349 . S
C1492 C1490 1.327 . S
C1492 C1511 1.429 . S
C1492 H1516 0.950 . S
C1493 C1510 1.574 . S
C1493 C1512 1.368 . S
C1493 H1517 0.949 . S
H1494 C1498 0.949 . S
C1495 C1496 1.349 . S
C1495 C1497 1.327 . S
C1495 H1518 0.950 . S
C1496 C1495 1.349 . S
C1496 C1508 1.349 . S
C1497 C1495 1.327 . S
C1497 C1513 1.429 . S
C1497 H1519 0.950 . S
C1498 H1494 0.949 . S
C1498 C1506 1.574 . S
C1498 C1514 1.368 . S
H1499 C1507 0.950 . S
H1500 C1505 0.950 . S
H1501 C1506 0.949 . S
H1502 C1508 0.950 . S
H1503 C1509 0.950 . S
H1504 C1510 0.949 . S
C1505 H1500 0.950 . S
C1505 C1507 1.327 . S
C1505 C1511 1.429 . S
C1506 C1498 1.574 . S
C1506 H1501 0.949 . S
C1506 C1512 1.368 . S
C1507 C1491 1.349 . S
C1507 H1499 0.950 . S
C1507 C1505 1.327 . S
C1508 C1496 1.349 . S
C1508 H1502 0.950 . S
C1508 C1509 1.327 . S
C1509 H1503 0.950 . S
C1509 C1508 1.327 . S
C1509 C1513 1.429 . S
C1510 C1493 1.574 . S
C1510 H1504 0.949 . S
C1510 C1514 1.368 . S
C1511 C1492 1.429 . S
C1511 C1505 1.429 . S
C1511 C1512 1.523 . S
C1512 C1493 1.368 . S
C1512 C1506 1.368 . S
C1512 C1511 1.523 . S
C1513 C1497 1.429 . S
C1513 C1509 1.429 . S
C1513 C1514 1.523 . S
C1514 C1498 1.368 . S
C1514 C1510 1.368 . S
C1514 C1513 1.523 . S
H1515 C1490 0.950 . S
H1516 C1492 0.950 . S
H1517 C1493 0.949 . S
H1518 C1495 0.950 . S
H1519 C1497 0.950 . S
C1520 C1521 1.349 . S
C1520 C1522 1.327 . S
C1520 H1545 0.950 . S
C1521 C1520 1.349 . S
C1521 C1537 1.349 . S
C1522 C1520 1.327 . S
C1522 C1541 1.429 . S
C1522 H1546 0.950 . S
C1523 C1540 1.574 1_565 S
C1523 C1542 1.368 . S
C1523 H1547 0.949 . S
H1524 C1528 0.949 . S
C1525 C1526 1.349 . S
C1525 C1527 1.327 . S
C1525 H1548 0.950 . S
C1526 C1525 1.349 . S
C1526 C1538 1.349 . S
C1527 C1525 1.327 . S
C1527 C1543 1.429 . S
C1527 H1549 0.950 . S
C1528 H1524 0.949 . S
C1528 C1536 1.574 1_545 S
C1528 C1544 1.368 . S
H1529 C1537 0.950 . S
H1530 C1535 0.950 . S
H1531 C1536 0.949 . S
H1532 C1538 0.950 . S
H1533 C1539 0.950 . S
H1534 C1540 0.949 . S
C1535 H1530 0.950 . S
C1535 C1537 1.327 . S
C1535 C1541 1.429 . S
C1536 C1528 1.574 1_565 S
C1536 H1531 0.949 . S
C1536 C1542 1.368 . S
C1537 C1521 1.349 . S
C1537 H1529 0.950 . S
C1537 C1535 1.327 . S
C1538 C1526 1.349 . S
C1538 H1532 0.950 . S
C1538 C1539 1.327 . S
C1539 H1533 0.950 . S
C1539 C1538 1.327 . S
C1539 C1543 1.429 . S
C1540 C1523 1.574 1_545 S
C1540 H1534 0.949 . S
C1540 C1544 1.368 . S
C1541 C1522 1.429 . S
C1541 C1535 1.429 . S
C1541 C1542 1.523 . S
C1542 C1523 1.368 . S
C1542 C1536 1.368 . S
C1542 C1541 1.523 . S
C1543 C1527 1.429 . S
C1543 C1539 1.429 . S
C1543 C1544 1.523 . S
C1544 C1528 1.368 . S
C1544 C1540 1.368 . S
C1544 C1543 1.523 . S
H1545 C1520 0.950 . S
H1546 C1522 0.950 . S
H1547 C1523 0.949 . S
H1548 C1525 0.950 . S
H1549 C1527 0.950 . S
C1550 C1551 1.349 . S
C1550 C1552 1.327 . S
C1550 H1575 0.950 . S
C1551 C1550 1.349 . S
C1551 C1567 1.349 . S
C1552 C1550 1.327 . S
C1552 C1571 1.429 . S
C1552 H1576 0.950 . S
C1553 C1570 1.574 . S
C1553 C1572 1.368 . S
C1553 H1577 0.949 . S
H1554 C1558 0.949 . S
C1555 C1556 1.349 . S
C1555 C1557 1.327 . S
C1555 H1578 0.950 . S
C1556 C1555 1.349 . S
C1556 C1568 1.349 . S
C1557 C1555 1.327 . S
C1557 C1573 1.429 . S
C1557 H1579 0.950 . S
C1558 H1554 0.949 . S
C1558 C1566 1.574 . S
C1558 C1574 1.368 . S
H1559 C1567 0.950 . S
H1560 C1565 0.950 . S
H1561 C1566 0.949 . S
H1562 C1568 0.950 . S
H1563 C1569 0.950 . S
H1564 C1570 0.949 . S
C1565 H1560 0.950 . S
C1565 C1567 1.327 . S
C1565 C1571 1.429 . S
C1566 C1558 1.574 . S
C1566 H1561 0.949 . S
C1566 C1572 1.368 . S
C1567 C1551 1.349 . S
C1567 H1559 0.950 . S
C1567 C1565 1.327 . S
C1568 C1556 1.349 . S
C1568 H1562 0.950 . S
C1568 C1569 1.327 . S
C1569 H1563 0.950 . S
C1569 C1568 1.327 . S
C1569 C1573 1.429 . S
C1570 C1553 1.574 . S
C1570 H1564 0.949 . S
C1570 C1574 1.368 . S
C1571 C1552 1.429 . S
C1571 C1565 1.429 . S
C1571 C1572 1.523 . S
C1572 C1553 1.368 . S
C1572 C1566 1.368 . S
C1572 C1571 1.523 . S
C1573 C1557 1.429 . S
C1573 C1569 1.429 . S
C1573 C1574 1.523 . S
C1574 C1558 1.368 . S
C1574 C1570 1.368 . S
C1574 C1573 1.523 . S
H1575 C1550 0.950 . S
H1576 C1552 0.950 . S
H1577 C1553 0.949 . S
H1578 C1555 0.950 . S
H1579 C1557 0.950 . S
C1580 C1581 1.349 . S
C1580 C1582 1.327 . S
C1580 H1605 0.950 1_554 S
C1581 C1580 1.349 . S
C1581 C1597 1.349 . S
C1582 C1580 1.327 . S
C1582 C1601 1.429 . S
C1582 H1606 0.950 1_554 S
C1583 C1600 1.574 1_565 S
C1583 C1602 1.368 . S
C1583 H1607 0.949 . S
H1584 C1588 0.949 . S
C1585 C1586 1.349 . S
C1585 C1587 1.327 . S
C1585 H1608 0.950 1_556 S
C1586 C1585 1.349 . S
C1586 C1598 1.349 . S
C1587 C1585 1.327 . S
C1587 C1603 1.429 . S
C1587 H1609 0.950 1_556 S
C1588 H1584 0.949 . S
C1588 C1596 1.574 1_545 S
C1588 C1604 1.368 . S
H1589 C1597 0.950 . S
H1590 C1595 0.950 . S
H1591 C1596 0.949 . S
H1592 C1598 0.950 . S
H1593 C1599 0.950 . S
H1594 C1600 0.949 . S
C1595 H1590 0.950 . S
C1595 C1597 1.327 . S
C1595 C1601 1.429 . S
C1596 C1588 1.574 1_565 S
C1596 H1591 0.949 . S
C1596 C1602 1.368 1_556 S
C1597 C1581 1.349 . S
C1597 H1589 0.950 . S
C1597 C1595 1.327 . S
C1598 C1586 1.349 . S
C1598 H1592 0.950 . S
C1598 C1599 1.327 . S
C1599 H1593 0.950 . S
C1599 C1598 1.327 . S
C1599 C1603 1.429 . S
C1600 C1583 1.574 1_545 S
C1600 H1594 0.949 . S
C1600 C1604 1.368 1_554 S
C1601 C1582 1.429 . S
C1601 C1595 1.429 . S
C1601 C1602 1.523 . S
C1602 C1583 1.368 . S
C1602 C1596 1.368 1_554 S
C1602 C1601 1.523 . S
C1603 C1587 1.429 . S
C1603 C1599 1.429 . S
C1603 C1604 1.523 . S
C1604 C1588 1.368 . S
C1604 C1600 1.368 1_556 S
C1604 C1603 1.523 . S
H1605 C1580 0.950 1_556 S
H1606 C1582 0.950 1_556 S
H1607 C1583 0.949 . S
H1608 C1585 0.950 1_554 S
H1609 C1587 0.950 1_554 S
C1610 C1611 1.349 . S
C1610 C1612 1.327 . S
C1610 H1635 0.950 . S
C1611 C1610 1.349 . S
C1611 C1627 1.349 . S
C1612 C1610 1.327 . S
C1612 C1631 1.429 . S
C1612 H1636 0.950 . S
C1613 C1630 1.574 . S
C1613 C1632 1.368 . S
C1613 H1637 0.949 . S
H1614 C1618 0.949 . S
C1615 C1616 1.349 . S
C1615 C1617 1.327 . S
C1615 H1638 0.950 . S
C1616 C1615 1.349 . S
C1616 C1628 1.349 . S
C1617 C1615 1.327 . S
C1617 C1633 1.429 . S
C1617 H1639 0.950 . S
C1618 H1614 0.949 . S
C1618 C1626 1.574 . S
C1618 C1634 1.368 . S
H1619 C1627 0.950 . S
H1620 C1625 0.950 . S
H1621 C1626 0.949 . S
H1622 C1628 0.950 . S
H1623 C1629 0.950 . S
H1624 C1630 0.949 . S
C1625 H1620 0.950 . S
C1625 C1627 1.327 . S
C1625 C1631 1.429 . S
C1626 C1618 1.574 . S
C1626 H1621 0.949 . S
C1626 C1632 1.368 . S
C1627 C1611 1.349 . S
C1627 H1619 0.950 . S
C1627 C1625 1.327 . S
C1628 C1616 1.349 . S
C1628 H1622 0.950 . S
C1628 C1629 1.327 . S
C1629 H1623 0.950 . S
C1629 C1628 1.327 . S
C1629 C1633 1.429 . S
C1630 C1613 1.574 . S
C1630 H1624 0.949 . S
C1630 C1634 1.368 . S
C1631 C1612 1.429 . S
C1631 C1625 1.429 . S
C1631 C1632 1.523 . S
C1632 C1613 1.368 . S
C1632 C1626 1.368 . S
C1632 C1631 1.523 . S
C1633 C1617 1.429 . S
C1633 C1629 1.429 . S
C1633 C1634 1.523 . S
C1634 C1618 1.368 . S
C1634 C1630 1.368 . S
C1634 C1633 1.523 . S
H1635 C1610 0.950 . S
H1636 C1612 0.950 . S
H1637 C1613 0.949 . S
H1638 C1615 0.950 . S
H1639 C1617 0.950 . S
C1640 C1641 1.349 . S
C1640 C1642 1.327 . S
C1640 H1665 0.950 . S
C1641 C1640 1.349 . S
C1641 C1657 1.349 . S
C1642 C1640 1.327 . S
C1642 C1661 1.429 . S
C1642 H1666 0.950 . S
C1643 C1660 1.574 1_565 S
C1643 C1662 1.368 . S
C1643 H1667 0.949 . S
H1644 C1648 0.949 . S
C1645 C1646 1.349 . S
C1645 C1647 1.327 . S
C1645 H1668 0.950 . S
C1646 C1645 1.349 . S
C1646 C1658 1.349 . S
C1647 C1645 1.327 . S
C1647 C1663 1.429 . S
C1647 H1669 0.950 . S
C1648 H1644 0.949 . S
C1648 C1656 1.574 1_545 S
C1648 C1664 1.368 . S
H1649 C1657 0.950 . S
H1650 C1655 0.950 . S
H1651 C1656 0.949 . S
H1652 C1658 0.950 . S
H1653 C1659 0.950 . S
H1654 C1660 0.949 . S
C1655 H1650 0.950 . S
C1655 C1657 1.327 . S
C1655 C1661 1.429 . S
C1656 C1648 1.574 1_565 S
C1656 H1651 0.949 . S
C1656 C1662 1.368 . S
C1657 C1641 1.349 . S
C1657 H1649 0.950 . S
C1657 C1655 1.327 . S
C1658 C1646 1.349 . S
C1658 H1652 0.950 . S
C1658 C1659 1.327 . S
C1659 H1653 0.950 . S
C1659 C1658 1.327 . S
C1659 C1663 1.429 . S
C1660 C1643 1.574 1_545 S
C1660 H1654 0.949 . S
C1660 C1664 1.368 . S
C1661 C1642 1.429 . S
C1661 C1655 1.429 . S
C1661 C1662 1.523 . S
C1662 C1643 1.368 . S
C1662 C1656 1.368 . S
C1662 C1661 1.523 . S
C1663 C1647 1.429 . S
C1663 C1659 1.429 . S
C1663 C1664 1.523 . S
C1664 C1648 1.368 . S
C1664 C1660 1.368 . S
C1664 C1663 1.523 . S
H1665 C1640 0.950 . S
H1666 C1642 0.950 . S
H1667 C1643 0.949 . S
H1668 C1645 0.950 . S
H1669 C1647 0.950 . S
C1670 C1671 1.349 . S
C1670 C1672 1.327 . S
C1670 H1695 0.950 . S
C1671 C1670 1.349 . S
C1671 C1687 1.349 . S
C1672 C1670 1.327 . S
C1672 C1691 1.429 . S
C1672 H1696 0.950 . S
C1673 C1690 1.574 . S
C1673 C1692 1.368 . S
C1673 H1697 0.949 . S
H1674 C1678 0.949 . S
C1675 C1676 1.349 . S
C1675 C1677 1.327 . S
C1675 H1698 0.950 . S
C1676 C1675 1.349 . S
C1676 C1688 1.349 . S
C1677 C1675 1.327 . S
C1677 C1693 1.429 . S
C1677 H1699 0.950 . S
C1678 H1674 0.949 . S
C1678 C1686 1.574 . S
C1678 C1694 1.368 . S
H1679 C1687 0.950 . S
H1680 C1685 0.950 . S
H1681 C1686 0.949 . S
H1682 C1688 0.950 . S
H1683 C1689 0.950 . S
H1684 C1690 0.949 . S
C1685 H1680 0.950 . S
C1685 C1687 1.327 . S
C1685 C1691 1.429 . S
C1686 C1678 1.574 . S
C1686 H1681 0.949 . S
C1686 C1692 1.368 . S
C1687 C1671 1.349 . S
C1687 H1679 0.950 . S
C1687 C1685 1.327 . S
C1688 C1676 1.349 . S
C1688 H1682 0.950 . S
C1688 C1689 1.327 . S
C1689 H1683 0.950 . S
C1689 C1688 1.327 . S
C1689 C1693 1.429 . S
C1690 C1673 1.574 . S
C1690 H1684 0.949 . S
C1690 C1694 1.368 . S
C1691 C1672 1.429 . S
C1691 C1685 1.429 . S
C1691 C1692 1.523 . S
C1692 C1673 1.368 . S
C1692 C1686 1.368 . S
C1692 C1691 1.523 . S
C1693 C1677 1.429 . S
C1693 C1689 1.429 . S
C1693 C1694 1.523 . S
C1694 C1678 1.368 . S
C1694 C1690 1.368 . S
C1694 C1693 1.523 . S
H1695 C1670 0.950 . S
H1696 C1672 0.950 . S
H1697 C1673 0.949 . S
H1698 C1675 0.950 . S
H1699 C1677 0.950 . S
C1700 C1701 1.349 . S
C1700 C1702 1.327 . S
C1700 H1725 0.950 . S
C1701 C1700 1.349 . S
C1701 C1717 1.349 . S
C1702 C1700 1.327 . S
C1702 C1721 1.429 . S
C1702 H1726 0.950 . S
C1703 C1720 1.574 1_545 S
C1703 C1722 1.368 1_554 S
C1703 H1727 0.949 . S
H1704 C1708 0.949 . S
C1705 C1706 1.349 . S
C1705 C1707 1.327 . S
C1705 H1728 0.950 . S
C1706 C1705 1.349 . S
C1706 C1718 1.349 . S
C1707 C1705 1.327 . S
C1707 C1723 1.429 . S
C1707 H1729 0.950 . S
C1708 H1704 0.949 . S
C1708 C1716 1.574 1_565 S
C1708 C1724 1.368 1_556 S
H1709 C1717 0.950 . S
H1710 C1715 0.950 1_554 S
H1711 C1716 0.949 . S
H1712 C1718 0.950 . S
H1713 C1719 0.950 1_556 S
H1714 C1720 0.949 . S
C1715 H1710 0.950 1_556 S
C1715 C1717 1.327 . S
C1715 C1721 1.429 . S
C1716 C1708 1.574 1_545 S
C1716 H1711 0.949 . S
C1716 C1722 1.368 . S
C1717 C1701 1.349 . S
C1717 H1709 0.950 . S
C1717 C1715 1.327 . S
C1718 C1706 1.349 . S
C1718 H1712 0.950 . S
C1718 C1719 1.327 . S
C1719 H1713 0.950 1_554 S
C1719 C1718 1.327 . S
C1719 C1723 1.429 . S
C1720 C1703 1.574 1_565 S
C1720 H1714 0.949 . S
C1720 C1724 1.368 . S
C1721 C1702 1.429 . S
C1721 C1715 1.429 . S
C1721 C1722 1.523 . S
C1722 C1703 1.368 1_556 S
C1722 C1716 1.368 . S
C1722 C1721 1.523 . S
C1723 C1707 1.429 . S
C1723 C1719 1.429 . S
C1723 C1724 1.523 . S
C1724 C1708 1.368 1_554 S
C1724 C1720 1.368 . S
C1724 C1723 1.523 . S
H1725 C1700 0.950 . S
H1726 C1702 0.950 . S
H1727 C1703 0.949 . S
H1728 C1705 0.950 . S
H1729 C1707 0.950 . S
C1730 C1731 1.349 . S
C1730 C1732 1.327 . S
C1730 H1755 0.950 . S
C1731 C1730 1.349 . S
C1731 C1747 1.349 . S
C1732 C1730 1.327 . S
C1732 C1751 1.429 . S
C1732 H1756 0.950 . S
C1733 C1750 1.574 . S
C1733 C1752 1.368 . S
C1733 H1757 0.949 . S
H1734 C1738 0.949 . S
C1735 C1736 1.349 . S
C1735 C1737 1.327 . S
C1735 H1758 0.950 . S
C1736 C1735 1.349 . S
C1736 C1748 1.349 . S
C1737 C1735 1.327 . S
C1737 C1753 1.429 . S
C1737 H1759 0.950 . S
C1738 H1734 0.949 . S
C1738 C1746 1.574 . S
C1738 C1754 1.368 . S
H1739 C1747 0.950 . S
H1740 C1745 0.950 . S
H1741 C1746 0.949 . S
H1742 C1748 0.950 . S
H1743 C1749 0.950 . S
H1744 C1750 0.949 . S
C1745 H1740 0.950 . S
C1745 C1747 1.327 . S
C1745 C1751 1.429 . S
C1746 C1738 1.574 . S
C1746 H1741 0.949 . S
C1746 C1752 1.368 . S
C1747 C1731 1.349 . S
C1747 H1739 0.950 . S
C1747 C1745 1.327 . S
C1748 C1736 1.349 . S
C1748 H1742 0.950 . S
C1748 C1749 1.327 . S
C1749 H1743 0.950 . S
C1749 C1748 1.327 . S
C1749 C1753 1.429 . S
C1750 C1733 1.574 . S
C1750 H1744 0.949 . S
C1750 C1754 1.368 . S
C1751 C1732 1.429 . S
C1751 C1745 1.429 . S
C1751 C1752 1.523 . S
C1752 C1733 1.368 . S
C1752 C1746 1.368 . S
C1752 C1751 1.523 . S
C1753 C1737 1.429 . S
C1753 C1749 1.429 . S
C1753 C1754 1.523 . S
C1754 C1738 1.368 . S
C1754 C1750 1.368 . S
C1754 C1753 1.523 . S
H1755 C1730 0.950 . S
H1756 C1732 0.950 . S
H1757 C1733 0.949 . S
H1758 C1735 0.950 . S
H1759 C1737 0.950 . S
C321 C2 1.568 . S
C326 C1 1.568 . S
C351 C21 1.568 . S
C356 C22 1.568 . S
C381 C41 1.483 . S
C386 C42 1.483 . S
C411 C62 1.483 . S
C416 C61 1.483 . S
C441 C82 1.568 . S
C446 C81 1.568 . S
C471 C101 1.483 . S
C476 C102 1.483 . S
C501 C121 1.483 . S
C506 C122 1.483 . S
C531 C141 1.568 . S
C536 C142 1.568 . S
C561 C161 1.568 . S
C566 C162 1.568 . S
C591 C181 1.568 . S
C596 C182 1.568 . S
C621 C201 1.483 . S
C626 C202 1.483 . S
C651 C221 1.483 . S
C656 C222 1.483 . S
C681 C241 1.568 . S
C686 C242 1.568 . S
C711 C261 1.483 . S
C716 C262 1.483 . S
C741 C282 1.483 . S
C746 C281 1.483 . S
C771 C302 1.568 . S
C776 C301 1.568 . S
C801 C8 1.563 . S
C806 C239 1.623 . S
C831 C38 1.583 . S
C836 C319 1.583 . S
C861 C58 1.623 . S
C866 C189 1.563 . S
C891 C68 1.654 . S
C896 C269 1.654 . S
C921 C88 1.563 . S
C926 C279 1.623 . S
C951 C229 1.654 . S
C956 C108 1.654 . S
C981 C138 1.623 . S
C986 C309 1.563 . S
C1011 C158 1.583 . S
C1016 C199 1.583 . S
C1041 C78 1.623 . S
C1046 C169 1.563 . S
C1071 C28 1.563 . S
C1076 C219 1.623 . S
C1101 C249 1.563 . S
C1106 C118 1.623 . S
C1131 C148 1.563 . S
C1136 C299 1.623 . S
C1161 C179 1.583 . S
C1166 C98 1.583 . S
C1191 C128 1.654 . S
C1196 C209 1.654 . S
C1221 C48 1.654 . S
C1226 C289 1.654 . S
C1251 C18 1.583 . S
C1256 C259 1.583 . S
C1281 C9 1.286 . S
C1286 C89 1.286 . S
C1311 C39 1.598 . S
C1316 C109 1.592 . S
C1341 C59 1.861 . S
C1346 C139 1.861 . S
C1371 C69 1.592 . S
C1376 C159 1.598 . S
C1401 C248 1.286 . S
C1406 C168 1.286 . S
C1431 C268 1.592 . S
C1436 C198 1.598 . S
C1461 C218 1.861 . S
C1466 C298 1.861 . S
C1491 C318 1.598 . S
C1496 C228 1.592 . S
C1521 C29 1.286 . S
C1526 C149 1.286 . S
C1551 C99 1.598 . S
C1556 C49 1.592 . S
C1581 C119 1.861 . S
C1586 C79 1.861 . S
C1611 C19 1.598 . S
C1616 C129 1.592 . S
C1641 C308 1.286 . S
C1646 C188 1.286 . S
C1671 C258 1.598 . S
C1676 C208 1.592 . S
C1701 C278 1.861 . S
C1706 C238 1.861 . S
C1731 C288 1.592 . S
C1736 C178 1.598 . S
