# Generated by pormake.
# Topology unl, (4)-cn, num edge types: 1
# Building blocks:
#     Node 0, Type 0, BuildingBlock: NAHDIM_clean_sbu_0, # of connection points: 4
#     Node 1, Type 0, BuildingBlock: NAHDIM_clean_sbu_0, # of connection points: 4
#     Node 2, Type 0, BuildingBlock: NAHDIM_clean_sbu_0, # of connection points: 4
#     Node 3, Type 0, BuildingBlock: NAHDIM_clean_sbu_0, # of connection points: 4
#     Node 4, Type 0, BuildingBlock: NAHDIM_clean_sbu_0, # of connection points: 4
#     Node 5, Type 0, BuildingBlock: NAHDIM_clean_sbu_0, # of connection points: 4
#     Node 6, Type 0, BuildingBlock: NAHDIM_clean_sbu_0, # of connection points: 4
#     Node 7, Type 0, BuildingBlock: NAHDIM_clean_sbu_0, # of connection points: 4
#     Node 8, Type 0, BuildingBlock: NAHDIM_clean_sbu_0, # of connection points: 4
#     Node 9, Type 0, BuildingBlock: NAHDIM_clean_sbu_0, # of connection points: 4
#     Node 10, Type 0, BuildingBlock: NAHDIM_clean_sbu_0, # of connection points: 4
#     Node 11, Type 0, BuildingBlock: NAHDIM_clean_sbu_0, # of connection points: 4
#     Node 12, Type 0, BuildingBlock: NAHDIM_clean_sbu_0, # of connection points: 4
#     Node 13, Type 0, BuildingBlock: NAHDIM_clean_sbu_0, # of connection points: 4
#     Node 14, Type 0, BuildingBlock: NAHDIM_clean_sbu_0, # of connection points: 4
#     Node 15, Type 0, BuildingBlock: NAHDIM_clean_sbu_0, # of connection points: 4
#     Node 16, Type 0, BuildingBlock: NAHDIM_clean_sbu_0, # of connection points: 4
#     Node 17, Type 0, BuildingBlock: NAHDIM_clean_sbu_0, # of connection points: 4
#     Node 18, Type 0, BuildingBlock: NAHDIM_clean_sbu_0, # of connection points: 4
#     Node 19, Type 0, BuildingBlock: NAHDIM_clean_sbu_0, # of connection points: 4
#     Node 20, Type 0, BuildingBlock: NAHDIM_clean_sbu_0, # of connection points: 4
#     Node 21, Type 0, BuildingBlock: NAHDIM_clean_sbu_0, # of connection points: 4
#     Node 22, Type 0, BuildingBlock: NAHDIM_clean_sbu_0, # of connection points: 4
#     Node 23, Type 0, BuildingBlock: NAHDIM_clean_sbu_0, # of connection points: 4
#     Node 24, Type 0, BuildingBlock: NAHDIM_clean_sbu_0, # of connection points: 4
#     Node 25, Type 0, BuildingBlock: NAHDIM_clean_sbu_0, # of connection points: 4
#     Node 26, Type 0, BuildingBlock: NAHDIM_clean_sbu_0, # of connection points: 4
#     Node 27, Type 0, BuildingBlock: NAHDIM_clean_sbu_0, # of connection points: 4
#     Node 28, Type 0, BuildingBlock: NAHDIM_clean_sbu_0, # of connection points: 4
#     Node 29, Type 0, BuildingBlock: NAHDIM_clean_sbu_0, # of connection points: 4
#     Node 30, Type 0, BuildingBlock: NAHDIM_clean_sbu_0, # of connection points: 4
#     Node 31, Type 0, BuildingBlock: NAHDIM_clean_sbu_0, # of connection points: 4
#     Node 32, Type 0, BuildingBlock: NAHDIM_clean_sbu_0, # of connection points: 4
#     Node 33, Type 0, BuildingBlock: NAHDIM_clean_sbu_0, # of connection points: 4
#     Node 34, Type 0, BuildingBlock: NAHDIM_clean_sbu_0, # of connection points: 4
#     Node 35, Type 0, BuildingBlock: NAHDIM_clean_sbu_0, # of connection points: 4
#     Edge 36, Type (0, 0), BuildingBlock: XIVTED_clean_linker_0, # of connection points: 2
#     Edge 37, Type (0, 0), BuildingBlock: XIVTED_clean_linker_0, # of connection points: 2
#     Edge 38, Type (0, 0), BuildingBlock: XIVTED_clean_linker_0, # of connection points: 2
#     Edge 39, Type (0, 0), BuildingBlock: XIVTED_clean_linker_0, # of connection points: 2
#     Edge 40, Type (0, 0), BuildingBlock: XIVTED_clean_linker_0, # of connection points: 2
#     Edge 41, Type (0, 0), BuildingBlock: XIVTED_clean_linker_0, # of connection points: 2
#     Edge 42, Type (0, 0), BuildingBlock: XIVTED_clean_linker_0, # of connection points: 2
#     Edge 43, Type (0, 0), BuildingBlock: XIVTED_clean_linker_0, # of connection points: 2
#     Edge 44, Type (0, 0), BuildingBlock: XIVTED_clean_linker_0, # of connection points: 2
#     Edge 45, Type (0, 0), BuildingBlock: XIVTED_clean_linker_0, # of connection points: 2
#     Edge 46, Type (0, 0), BuildingBlock: XIVTED_clean_linker_0, # of connection points: 2
#     Edge 47, Type (0, 0), BuildingBlock: XIVTED_clean_linker_0, # of connection points: 2
#     Edge 48, Type (0, 0), BuildingBlock: XIVTED_clean_linker_0, # of connection points: 2
#     Edge 49, Type (0, 0), BuildingBlock: XIVTED_clean_linker_0, # of connection points: 2
#     Edge 50, Type (0, 0), BuildingBlock: XIVTED_clean_linker_0, # of connection points: 2
#     Edge 51, Type (0, 0), BuildingBlock: XIVTED_clean_linker_0, # of connection points: 2
#     Edge 52, Type (0, 0), BuildingBlock: XIVTED_clean_linker_0, # of connection points: 2
#     Edge 53, Type (0, 0), BuildingBlock: XIVTED_clean_linker_0, # of connection points: 2
#     Edge 54, Type (0, 0), BuildingBlock: XIVTED_clean_linker_0, # of connection points: 2
#     Edge 55, Type (0, 0), BuildingBlock: XIVTED_clean_linker_0, # of connection points: 2
#     Edge 56, Type (0, 0), BuildingBlock: XIVTED_clean_linker_0, # of connection points: 2
#     Edge 57, Type (0, 0), BuildingBlock: XIVTED_clean_linker_0, # of connection points: 2
#     Edge 58, Type (0, 0), BuildingBlock: XIVTED_clean_linker_0, # of connection points: 2
#     Edge 59, Type (0, 0), BuildingBlock: XIVTED_clean_linker_0, # of connection points: 2
#     Edge 60, Type (0, 0), BuildingBlock: XIVTED_clean_linker_0, # of connection points: 2
#     Edge 61, Type (0, 0), BuildingBlock: XIVTED_clean_linker_0, # of connection points: 2
#     Edge 62, Type (0, 0), BuildingBlock: XIVTED_clean_linker_0, # of connection points: 2
#     Edge 63, Type (0, 0), BuildingBlock: XIVTED_clean_linker_0, # of connection points: 2
#     Edge 64, Type (0, 0), BuildingBlock: XIVTED_clean_linker_0, # of connection points: 2
#     Edge 65, Type (0, 0), BuildingBlock: XIVTED_clean_linker_0, # of connection points: 2
#     Edge 66, Type (0, 0), BuildingBlock: XIVTED_clean_linker_0, # of connection points: 2
#     Edge 67, Type (0, 0), BuildingBlock: XIVTED_clean_linker_0, # of connection points: 2
#     Edge 68, Type (0, 0), BuildingBlock: XIVTED_clean_linker_0, # of connection points: 2
#     Edge 69, Type (0, 0), BuildingBlock: XIVTED_clean_linker_0, # of connection points: 2
#     Edge 70, Type (0, 0), BuildingBlock: XIVTED_clean_linker_0, # of connection points: 2
#     Edge 71, Type (0, 0), BuildingBlock: XIVTED_clean_linker_0, # of connection points: 2
#     Edge 72, Type (0, 0), BuildingBlock: XIVTED_clean_linker_0, # of connection points: 2
#     Edge 73, Type (0, 0), BuildingBlock: XIVTED_clean_linker_0, # of connection points: 2
#     Edge 74, Type (0, 0), BuildingBlock: XIVTED_clean_linker_0, # of connection points: 2
#     Edge 75, Type (0, 0), BuildingBlock: XIVTED_clean_linker_0, # of connection points: 2
#     Edge 76, Type (0, 0), BuildingBlock: XIVTED_clean_linker_0, # of connection points: 2
#     Edge 77, Type (0, 0), BuildingBlock: XIVTED_clean_linker_0, # of connection points: 2
#     Edge 78, Type (0, 0), BuildingBlock: XIVTED_clean_linker_0, # of connection points: 2
#     Edge 79, Type (0, 0), BuildingBlock: XIVTED_clean_linker_0, # of connection points: 2
#     Edge 80, Type (0, 0), BuildingBlock: XIVTED_clean_linker_0, # of connection points: 2
#     Edge 81, Type (0, 0), BuildingBlock: XIVTED_clean_linker_0, # of connection points: 2
#     Edge 82, Type (0, 0), BuildingBlock: XIVTED_clean_linker_0, # of connection points: 2
#     Edge 83, Type (0, 0), BuildingBlock: XIVTED_clean_linker_0, # of connection points: 2
#     Edge 84, Type (0, 0), BuildingBlock: XIVTED_clean_linker_0, # of connection points: 2
#     Edge 85, Type (0, 0), BuildingBlock: XIVTED_clean_linker_0, # of connection points: 2
#     Edge 86, Type (0, 0), BuildingBlock: XIVTED_clean_linker_0, # of connection points: 2
#     Edge 87, Type (0, 0), BuildingBlock: XIVTED_clean_linker_0, # of connection points: 2
#     Edge 88, Type (0, 0), BuildingBlock: XIVTED_clean_linker_0, # of connection points: 2
#     Edge 89, Type (0, 0), BuildingBlock: XIVTED_clean_linker_0, # of connection points: 2
#     Edge 90, Type (0, 0), BuildingBlock: XIVTED_clean_linker_0, # of connection points: 2
#     Edge 91, Type (0, 0), BuildingBlock: XIVTED_clean_linker_0, # of connection points: 2
#     Edge 92, Type (0, 0), BuildingBlock: XIVTED_clean_linker_0, # of connection points: 2
#     Edge 93, Type (0, 0), BuildingBlock: XIVTED_clean_linker_0, # of connection points: 2
#     Edge 94, Type (0, 0), BuildingBlock: XIVTED_clean_linker_0, # of connection points: 2
#     Edge 95, Type (0, 0), BuildingBlock: XIVTED_clean_linker_0, # of connection points: 2
#     Edge 96, Type (0, 0), BuildingBlock: XIVTED_clean_linker_0, # of connection points: 2
#     Edge 97, Type (0, 0), BuildingBlock: XIVTED_clean_linker_0, # of connection points: 2
#     Edge 98, Type (0, 0), BuildingBlock: XIVTED_clean_linker_0, # of connection points: 2
#     Edge 99, Type (0, 0), BuildingBlock: XIVTED_clean_linker_0, # of connection points: 2
#     Edge 100, Type (0, 0), BuildingBlock: XIVTED_clean_linker_0, # of connection points: 2
#     Edge 101, Type (0, 0), BuildingBlock: XIVTED_clean_linker_0, # of connection points: 2
#     Edge 102, Type (0, 0), BuildingBlock: XIVTED_clean_linker_0, # of connection points: 2
#     Edge 103, Type (0, 0), BuildingBlock: XIVTED_clean_linker_0, # of connection points: 2
#     Edge 104, Type (0, 0), BuildingBlock: XIVTED_clean_linker_0, # of connection points: 2
#     Edge 105, Type (0, 0), BuildingBlock: XIVTED_clean_linker_0, # of connection points: 2
#     Edge 106, Type (0, 0), BuildingBlock: XIVTED_clean_linker_0, # of connection points: 2
#     Edge 107, Type (0, 0), BuildingBlock: XIVTED_clean_linker_0, # of connection points: 2
# Relax obj value: 0.182
# Max RMSD: 0.223
# Mean RMSD: 0.223
data_MOF--net-unl--node1-NAHDIM_clean_sbu_0--edge1-XIVTED_clean_linker_0
_symmetry_space_group_name_H-M    P1
_symmetry_Int_Tables_number       1
_symmetry_cell_setting            triclinic
loop_
_symmetry_equiv_pos_as_xyz
'x, y, z'
_cell_length_a     64.635253
_cell_length_b     64.621098
_cell_length_c     39.302724
_cell_angle_alpha  90.06453
_cell_angle_beta   89.982714
_cell_angle_gamma 119.95961
loop_
_atom_site_label
_atom_site_type_symbol
_atom_site_fract_x
_atom_site_fract_y
_atom_site_fract_z
_atom_type_partial_charge
C0 C 0.24759 0.1146 0.14994 0.0
O1 O 0.23269 0.10192 0.17428 0.0
O2 O 0.19358 0.06229 0.10237 0.0
Zn3 Zn 0.20415 0.09675 0.11195 0.0
O4 O 0.18728 0.10194 0.15129 0.0
C5 C 0.18371 0.09754 0.04669 0.0
O6 O 0.17366 0.07422 0.04908 0.0
O7 O 0.23939 0.11486 0.12068 0.0
C8 C 0.16506 0.09488 0.15158 0.0
O9 O 0.15159 0.08198 0.12614 0.0
C10 C 0.17688 0.04374 0.11638 0.0
O11 O 0.16545 0.046 0.14247 0.0
O12 O 0.19751 0.11062 0.0703 0.0
C13 C 0.86369 0.1127 0.11925 0.0
O14 O 0.87069 0.11392 0.08757 0.0
O15 O 0.91806 0.10406 0.11884 0.0
Zn16 Zn 0.88302 0.08139 0.12542 0.0
O17 O 0.87699 0.05618 0.16017 0.0
C18 C 0.88009 0.07269 0.0526 0.0
O19 O 0.90061 0.09277 0.05211 0.0
O20 O 0.86707 0.09972 0.14022 0.0
C21 C 0.88732 0.06064 0.18892 0.0
O22 O 0.90311 0.08279 0.19678 0.0
C23 C 0.93294 0.0967 0.11716 0.0
O24 O 0.92552 0.07401 0.12275 0.0
O25 O 0.86922 0.06483 0.08073 0.0
C26 C 0.85295 0.73657 0.10398 0.0
O27 O 0.85419 0.74324 0.07212 0.0
O28 O 0.85902 0.79768 0.09703 0.0
Zn29 Zn 0.88162 0.78674 0.11259 0.0
O30 O 0.903 0.80668 0.15102 0.0
C31 C 0.90227 0.79793 0.04454 0.0
O32 O 0.88701 0.80542 0.03947 0.0
O33 O 0.86317 0.75243 0.12681 0.0
C34 C 0.92282 0.82524 0.14415 0.0
O35 O 0.9281 0.83189 0.11227 0.0
C36 C 0.86116 0.81787 0.10389 0.0
O37 O 0.87818 0.83247 0.1246 0.0
O38 O 0.90274 0.78909 0.07322 0.0
C39 C 0.12462 0.25391 0.36872 0.0
O40 O 0.11479 0.24703 0.3989 0.0
O41 O 0.07041 0.19459 0.37191 0.0
Zn42 Zn 0.10411 0.20358 0.35958 0.0
O43 O 0.10715 0.18456 0.32128 0.0
C44 C 0.10765 0.1862 0.42599 0.0
O45 O 0.08424 0.1756 0.425 0.0
O46 O 0.12221 0.23823 0.34709 0.0
C47 C 0.10042 0.16245 0.32312 0.0
O48 O 0.08908 0.15033 0.35037 0.0
C49 C 0.0509 0.17672 0.36222 0.0
O50 O 0.05121 0.16211 0.33923 0.0
O51 O 0.11974 0.19902 0.40099 0.0
C52 C 0.74889 0.8661 0.36125 0.0
O53 O 0.76477 0.86971 0.33768 0.0
O54 O 0.80341 0.87199 0.41616 0.0
Zn55 Zn 0.79069 0.89357 0.40265 0.0
O56 O 0.80866 0.91494 0.36312 0.0
C57 C 0.80625 0.91691 0.46854 0.0
O58 O 0.81656 0.90388 0.47127 0.0
O59 O 0.75594 0.8743 0.391 0.0
C60 C 0.82832 0.93412 0.36819 0.0
O61 O 0.83738 0.939 0.39902 0.0
C62 C 0.82196 0.87292 0.40359 0.0
O63 O 0.83324 0.88781 0.37858 0.0
O64 O 0.79409 0.91497 0.44209 0.0
C65 C 0.12413 0.87174 0.35493 0.0
O66 O 0.12371 0.87683 0.38721 0.0
O67 O 0.11505 0.92564 0.36297 0.0
Zn68 Zn 0.0933 0.89123 0.3505 0.0
O69 O 0.06908 0.88753 0.31498 0.0
C70 C 0.08105 0.88257 0.42241 0.0
O71 O 0.09915 0.90432 0.42625 0.0
O72 O 0.11255 0.87676 0.33355 0.0
C73 C 0.04831 0.88298 0.32397 0.0
O74 O 0.04316 0.88155 0.35652 0.0
C75 C 0.10873 0.94131 0.3606 0.0
O76 O 0.08806 0.93548 0.34664 0.0
O77 O 0.07569 0.87342 0.3928 0.0
C78 C 0.74685 0.87458 0.86596 0.0
O79 O 0.75197 0.88034 0.89816 0.0
O80 O 0.8062 0.93125 0.87553 0.0
Zn81 Zn 0.79748 0.89784 0.86221 0.0
O82 O 0.81971 0.89724 0.82658 0.0
C83 C 0.80256 0.88967 0.93388 0.0
O84 O 0.80417 0.91059 0.93815 0.0
O85 O 0.76378 0.8805 0.84486 0.0
C86 C 0.83728 0.89475 0.83546 0.0
O87 O 0.84138 0.89378 0.86799 0.0
C88 C 0.8273 0.94895 0.87413 0.0
O89 O 0.84428 0.94613 0.86048 0.0
O90 O 0.79928 0.88076 0.90416 0.0
C91 C 0.1167 0.86991 0.88743 0.0
O92 O 0.11735 0.87578 0.91959 0.0
O93 O 0.05551 0.87395 0.89071 0.0
Zn94 Zn 0.09045 0.89501 0.88023 0.0
O95 O 0.09474 0.91745 0.84199 0.0
C96 C 0.09816 0.91154 0.95092 0.0
O97 O 0.07602 0.8944 0.95546 0.0
O98 O 0.10569 0.87575 0.86617 0.0
C99 C 0.09412 0.93656 0.84703 0.0
O100 O 0.08964 0.94134 0.87776 0.0
C101 C 0.04744 0.85328 0.9035 0.0
O102 O 0.06202 0.84491 0.90829 0.0
O103 O 0.10756 0.91477 0.92156 0.0
C104 C 0.12013 0.23973 0.86304 0.0
O105 O 0.12058 0.2244 0.84149 0.0
O106 O 0.11479 0.1856 0.90407 0.0
Zn107 Zn 0.09097 0.19669 0.89837 0.0
O108 O 0.06935 0.18094 0.85821 0.0
C109 C 0.07358 0.17812 0.96614 0.0
O110 O 0.09055 0.1726 0.96532 0.0
O111 O 0.10843 0.23201 0.89054 0.0
C112 C 0.04933 0.16186 0.86118 0.0
O113 O 0.04284 0.15146 0.89105 0.0
C114 C 0.11075 0.16499 0.89525 0.0
O115 O 0.09081 0.15057 0.87924 0.0
O116 O 0.07087 0.18888 0.94092 0.0
C117 C 0.87652 0.75754 0.6402 0.0
O118 O 0.86371 0.76769 0.63359 0.0
O119 O 0.94837 0.81655 0.61063 0.0
Zn120 Zn 0.91426 0.80433 0.62442 0.0
O121 O 0.91152 0.82374 0.66254 0.0
C122 C 0.90602 0.81718 0.5566 0.0
O123 O 0.92931 0.82736 0.55368 0.0
O124 O 0.89913 0.76999 0.6386 0.0
C125 C 0.90966 0.84197 0.65564 0.0
O126 O 0.91113 0.84871 0.62379 0.0
C127 C 0.95292 0.80274 0.59313 0.0
O128 O 0.93569 0.78077 0.58737 0.0
O129 O 0.896 0.80628 0.58396 0.0
C130 C 0.22668 0.11481 0.64113 0.0
O131 O 0.21216 0.11747 0.66172 0.0
O132 O 0.17108 0.10705 0.59912 0.0
Zn133 Zn 0.18317 0.08397 0.60461 0.0
O134 O 0.16538 0.05967 0.64105 0.0
C135 C 0.16685 0.06817 0.53537 0.0
O136 O 0.15762 0.08216 0.53808 0.0
O137 O 0.21818 0.10135 0.61527 0.0
C138 C 0.15609 0.0632 0.66732 0.0
O139 O 0.15767 0.08409 0.67182 0.0
C140 C 0.18446 0.12704 0.58488 0.0
O141 O 0.20654 0.13293 0.57737 0.0
O142 O 0.17836 0.06631 0.56031 0.0
C143 C 0.88018 0.12654 0.64515 0.0
O144 O 0.8798 0.11129 0.66755 0.0
O145 O 0.88941 0.07836 0.60269 0.0
Zn146 Zn 0.91087 0.11382 0.6082 0.0
O147 O 0.93428 0.12073 0.6462 0.0
C148 C 0.92315 0.11708 0.53615 0.0
O149 O 0.90312 0.09661 0.53369 0.0
O150 O 0.89206 0.1302 0.61786 0.0
C151 C 0.93026 0.10662 0.67102 0.0
O152 O 0.90988 0.0864 0.67241 0.0
C153 C 0.86782 0.06923 0.59309 0.0
O154 O 0.85881 0.08322 0.58792 0.0
O155 O 0.92959 0.12737 0.56495 0.0
C156 C 0.91602 0.46278 0.4537 0.0
O157 O 0.91359 0.46553 0.4211 0.0
O158 O 0.85276 0.39924 0.44146 0.0
Zn159 Zn 0.86464 0.43398 0.45097 0.0
O160 O 0.84271 0.43809 0.48287 0.0
C161 C 0.85315 0.43901 0.3811 0.0
O162 O 0.84102 0.41557 0.38191 0.0
O163 O 0.89757 0.4498 0.47146 0.0
C164 C 0.83999 0.43184 0.51391 0.0
O165 O 0.85123 0.4212 0.52599 0.0
C166 C 0.86625 0.39343 0.42562 0.0
O167 O 0.88816 0.41009 0.4183 0.0
O168 O 0.86484 0.45045 0.40728 0.0
C169 C 0.54726 0.46762 0.46121 0.0
O170 O 0.54883 0.46395 0.42867 0.0
O171 O 0.60266 0.45694 0.45727 0.0
Zn172 Zn 0.56782 0.43723 0.46908 0.0
O173 O 0.56215 0.41405 0.50732 0.0
C174 C 0.55941 0.42235 0.39793 0.0
O175 O 0.58084 0.44078 0.39319 0.0
O176 O 0.55469 0.45832 0.48299 0.0
C177 C 0.55503 0.3922 0.5009 0.0
O178 O 0.55266 0.38514 0.46908 0.0
C179 C 0.61598 0.44768 0.45708 0.0
O180 O 0.60732 0.42567 0.46798 0.0
O181 O 0.55024 0.41817 0.42753 0.0
C182 C 0.54226 0.08007 0.4782 0.0
O183 O 0.5359 0.09361 0.49497 0.0
O184 O 0.55073 0.1343 0.43888 0.0
Zn185 Zn 0.57548 0.12482 0.44799 0.0
O186 O 0.59722 0.14216 0.48738 0.0
C187 C 0.59844 0.1484 0.3857 0.0
O188 O 0.58825 0.16112 0.39268 0.0
O189 O 0.55906 0.08962 0.4566 0.0
C190 C 0.6099 0.16476 0.48962 0.0
O191 O 0.60826 0.17823 0.46599 0.0
C192 C 0.54606 0.14833 0.45554 0.0
O193 O 0.5576 0.15806 0.4839 0.0
O194 O 0.59554 0.1318 0.40589 0.0
C195 C 0.79855 0.58188 0.68753 0.0
O196 O 0.81136 0.57186 0.69501 0.0
O197 O 0.72625 0.52177 0.71275 0.0
Zn198 Zn 0.76113 0.53507 0.70281 0.0
O199 O 0.76682 0.51586 0.66724 0.0
C200 C 0.76737 0.52974 0.77518 0.0
O201 O 0.74583 0.52682 0.77812 0.0
O202 O 0.77592 0.56929 0.6884 0.0
C203 C 0.76939 0.49845 0.67669 0.0
O204 O 0.76717 0.49278 0.7091 0.0
C205 C 0.71074 0.49979 0.70974 0.0
O206 O 0.71702 0.48508 0.69646 0.0
O207 O 0.77725 0.53396 0.74608 0.0
C208 C 0.40339 0.19919 0.68229 0.0
O209 O 0.41805 0.19717 0.66116 0.0
O210 O 0.45721 0.20529 0.72986 0.0
Zn211 Zn 0.44665 0.22906 0.71961 0.0
O212 O 0.46536 0.25088 0.6808 0.0
C213 C 0.45626 0.24349 0.79063 0.0
O214 O 0.45703 0.22369 0.79415 0.0
O215 O 0.41173 0.21192 0.70884 0.0
C216 C 0.48376 0.27101 0.68693 0.0
O217 O 0.49078 0.27696 0.71857 0.0
C218 C 0.47723 0.20777 0.72106 0.0
O219 O 0.49156 0.22589 0.70172 0.0
O220 O 0.45175 0.24897 0.76158 0.0
C221 C 0.79686 0.21998 0.68718 0.0
O222 O 0.79825 0.23579 0.66492 0.0
O223 O 0.79167 0.26935 0.72879 0.0
Zn224 Zn 0.76746 0.235 0.71951 0.0
O225 O 0.74751 0.22988 0.67769 0.0
C226 C 0.74205 0.20597 0.77889 0.0
O227 O 0.75345 0.19431 0.77256 0.0
O228 O 0.78444 0.21638 0.71387 0.0
C229 C 0.73138 0.2356 0.6758 0.0
O230 O 0.72832 0.24697 0.7013 0.0
C231 C 0.79326 0.28788 0.71508 0.0
O232 O 0.77858 0.2856 0.69039 0.0
O233 O 0.7454 0.22322 0.75979 0.0
C234 C 0.42279 0.21334 0.19984 0.0
O235 O 0.43784 0.22593 0.17561 0.0
O236 O 0.476 0.26444 0.2531 0.0
Zn237 Zn 0.46577 0.23065 0.23972 0.0
O238 O 0.48405 0.2286 0.1995 0.0
C239 C 0.47656 0.22258 0.30905 0.0
O240 O 0.47862 0.24345 0.31573 0.0
O241 O 0.43076 0.21302 0.22924 0.0
C242 C 0.50387 0.22927 0.2039 0.0
O243 O 0.51298 0.23288 0.23467 0.0
C244 C 0.49475 0.28297 0.24292 0.0
O245 O 0.50862 0.2808 0.22049 0.0
O246 O 0.47113 0.21406 0.27912 0.0
C247 C 0.7923 0.21035 0.20137 0.0
O248 O 0.79002 0.21285 0.2341 0.0
O249 O 0.73965 0.22435 0.21082 0.0
Zn250 Zn 0.77437 0.24272 0.1978 0.0
O251 O 0.77967 0.26763 0.16314 0.0
C252 C 0.78494 0.25668 0.26903 0.0
O253 O 0.76276 0.23977 0.27407 0.0
O254 O 0.78631 0.22132 0.18027 0.0
C255 C 0.76818 0.2638 0.13545 0.0
O256 O 0.75154 0.24195 0.1277 0.0
C257 C 0.7277 0.20181 0.21438 0.0
O258 O 0.73763 0.18894 0.20685 0.0
O259 O 0.79353 0.26053 0.23909 0.0
C260 C 0.77703 0.56343 0.16671 0.0
O261 O 0.76975 0.54711 0.14272 0.0
O262 O 0.77961 0.51011 0.21492 0.0
Zn263 Zn 0.75659 0.52234 0.21095 0.0
O264 O 0.73029 0.50329 0.17748 0.0
C265 C 0.73866 0.50251 0.27705 0.0
O266 O 0.74643 0.48802 0.26798 0.0
O267 O 0.77358 0.55696 0.19767 0.0
C268 C 0.7316 0.49132 0.15275 0.0
O269 O 0.75139 0.4907 0.14788 0.0
C270 C 0.79957 0.52322 0.2294 0.0
O271 O 0.80541 0.54512 0.23805 0.0
O272 O 0.74126 0.51895 0.25674 0.0
C273 C 0.52502 0.09481 0.9747 0.0
O274 O 0.51048 0.10344 0.97233 0.0
O275 O 0.5942 0.15844 0.94219 0.0
Zn276 Zn 0.55924 0.14228 0.95403 0.0
O277 O 0.55286 0.1601 0.99064 0.0
C278 C 0.54965 0.14557 0.88252 0.0
O279 O 0.57101 0.14834 0.87784 0.0
O280 O 0.54707 0.10838 0.96845 0.0
C281 C 0.56403 0.1666 0.01873 0.0
O282 O 0.58118 0.16181 0.0249 0.0
C283 C 0.60532 0.14691 0.93968 0.0
O284 O 0.59428 0.12414 0.94765 0.0
O285 O 0.54111 0.14233 0.91245 0.0
C286 C 0.91653 0.46611 0.94086 0.0
O287 O 0.91364 0.46485 0.90768 0.0
O288 O 0.85486 0.4645 0.92919 0.0
Zn289 Zn 0.86502 0.4407 0.94132 0.0
O290 O 0.8437 0.417 0.97646 0.0
C291 C 0.85866 0.4264 0.86988 0.0
O292 O 0.85448 0.44414 0.86573 0.0
O293 O 0.89829 0.45742 0.96003 0.0
C294 C 0.82551 0.3973 0.96806 0.0
O295 O 0.81945 0.39307 0.93582 0.0
C296 C 0.83461 0.46209 0.9364 0.0
O297 O 0.81951 0.4438 0.95485 0.0
O298 O 0.86393 0.42224 0.89931 0.0
C299 C 0.5341 0.45005 0.9809 0.0
O300 O 0.52964 0.43235 0.00161 0.0
O301 O 0.53525 0.39948 0.93753 0.0
Zn302 Zn 0.56172 0.43309 0.9456 0.0
O303 O 0.58327 0.43558 0.98431 0.0
C304 C 0.57924 0.43198 0.8778 0.0
O305 O 0.56381 0.40901 0.87953 0.0
O306 O 0.5475 0.45377 0.95532 0.0
C307 C 0.60123 0.43289 0.9793 0.0
O308 O 0.60502 0.42728 0.94869 0.0
C309 C 0.53552 0.38079 0.94678 0.0
O310 O 0.55346 0.38287 0.96511 0.0
O311 O 0.58128 0.44541 0.90277 0.0
C312 C 0.57658 0.7848 0.78719 0.0
O313 O 0.57117 0.78307 0.75471 0.0
O314 O 0.51001 0.72659 0.78702 0.0
Zn315 Zn 0.52539 0.76196 0.79556 0.0
O316 O 0.50797 0.76845 0.83287 0.0
C317 C 0.51812 0.76718 0.72361 0.0
O318 O 0.51561 0.74578 0.72112 0.0
O319 O 0.55989 0.77651 0.80911 0.0
C320 C 0.49188 0.77368 0.82611 0.0
O321 O 0.48586 0.77392 0.79425 0.0
C322 C 0.52185 0.7165 0.77869 0.0
O323 O 0.54528 0.729 0.77892 0.0
O324 O 0.52294 0.7776 0.75239 0.0
C325 C 0.21123 0.79402 0.80995 0.0
O326 O 0.21444 0.79246 0.77725 0.0
O327 O 0.27092 0.79349 0.80134 0.0
Zn328 Zn 0.23737 0.76913 0.81438 0.0
O329 O 0.23652 0.74664 0.85058 0.0
C330 C 0.22978 0.75528 0.74299 0.0
O331 O 0.25053 0.77477 0.7389 0.0
O332 O 0.21983 0.78548 0.83112 0.0
C333 C 0.23544 0.72711 0.84216 0.0
O334 O 0.23611 0.72243 0.80978 0.0
C335 C 0.28877 0.79057 0.80561 0.0
O336 O 0.286 0.77178 0.82236 0.0
O337 O 0.22062 0.74973 0.77256 0.0
C338 C 0.20096 0.41437 0.80746 0.0
O339 O 0.20081 0.42997 0.82878 0.0
O340 O 0.20561 0.46694 0.75761 0.0
Zn341 Zn 0.22944 0.45652 0.76834 0.0
O342 O 0.25012 0.47448 0.80855 0.0
C343 C 0.25147 0.47527 0.70273 0.0
O344 O 0.23862 0.48584 0.70383 0.0
O345 O 0.21203 0.42164 0.77941 0.0
C346 C 0.27171 0.49098 0.80504 0.0
O347 O 0.28071 0.49719 0.77432 0.0
C348 C 0.20566 0.48484 0.7711 0.0
O349 O 0.22144 0.49706 0.79479 0.0
O350 O 0.25018 0.4618 0.72717 0.0
C351 C 0.45998 0.92131 0.02747 0.0
O352 O 0.47458 0.91272 0.0293 0.0
O353 O 0.39177 0.85706 0.05862 0.0
Zn354 Zn 0.42653 0.87346 0.04589 0.0
O355 O 0.43243 0.85643 0.00716 0.0
C356 C 0.43665 0.86898 0.11679 0.0
O357 O 0.41545 0.86645 0.12215 0.0
O358 O 0.4379 0.90752 0.03328 0.0
C359 C 0.43801 0.84058 0.01389 0.0
O360 O 0.43917 0.83526 0.04582 0.0
C361 C 0.37773 0.83484 0.05416 0.0
O362 O 0.38551 0.82219 0.03818 0.0
O363 O 0.44509 0.8729 0.08677 0.0
C364 C 0.08019 0.53208 0.04117 0.0
O365 O 0.08277 0.53259 0.07438 0.0
O366 O 0.14004 0.53363 0.0592 0.0
Zn367 Zn 0.13124 0.55778 0.04344 0.0
O368 O 0.15459 0.58072 0.00918 0.0
C369 C 0.13771 0.57445 0.11357 0.0
O370 O 0.14461 0.55869 0.11825 0.0
O371 O 0.09865 0.54142 0.02242 0.0
C372 C 0.1723 0.60047 0.01864 0.0
O373 O 0.1761 0.60519 0.0513 0.0
C374 C 0.15969 0.53453 0.05248 0.0
O375 O 0.17481 0.55098 0.03156 0.0
O376 O 0.13094 0.57679 0.08414 0.0
C377 C 0.45444 0.54757 0.01626 0.0
O378 O 0.45785 0.56433 0.99435 0.0
O379 O 0.44583 0.59604 0.05116 0.0
Zn380 Zn 0.42243 0.56104 0.04622 0.0
O381 O 0.40112 0.55483 0.00542 0.0
C382 C 0.40876 0.56167 0.1165 0.0
O383 O 0.42858 0.58241 0.11738 0.0
O384 O 0.44004 0.5431 0.04079 0.0
C385 C 0.37913 0.54837 0.00861 0.0
O386 O 0.37009 0.5461 0.03922 0.0
C387 C 0.4395 0.61153 0.04646 0.0
O388 O 0.4178 0.60453 0.03543 0.0
O389 O 0.40278 0.54951 0.08914 0.0
C390 C 0.07914 0.548 0.55904 0.0
O391 O 0.08159 0.54738 0.59214 0.0
O392 O 0.14085 0.6066 0.57741 0.0
Zn393 Zn 0.13048 0.57341 0.56079 0.0
O394 O 0.15307 0.57277 0.52625 0.0
C395 C 0.1363 0.56153 0.63037 0.0
O396 O 0.1412 0.58342 0.6372 0.0
O397 O 0.09766 0.55848 0.5405 0.0
C398 C 0.15353 0.57804 0.49504 0.0
O399 O 0.13929 0.58565 0.48412 0.0
C400 C 0.16173 0.62422 0.57303 0.0
O401 O 0.17712 0.62139 0.55466 0.0
O402 O 0.13064 0.55357 0.60018 0.0
C403 C 0.46263 0.55409 0.5375 0.0
O404 O 0.46256 0.5588 0.57 0.0
O405 O 0.40051 0.55656 0.54009 0.0
Zn406 Zn 0.43581 0.57855 0.53308 0.0
O407 O 0.44196 0.60447 0.49954 0.0
C408 C 0.43804 0.59361 0.60348 0.0
O409 O 0.41465 0.5819 0.60115 0.0
O410 O 0.4519 0.56051 0.51659 0.0
C411 C 0.43149 0.60071 0.47096 0.0
O412 O 0.41534 0.5788 0.46252 0.0
C413 C 0.3928 0.53579 0.55235 0.0
O414 O 0.40788 0.52805 0.55735 0.0
O415 O 0.45048 0.59457 0.57782 0.0
C416 C 0.45832 0.90375 0.52252 0.0
O417 O 0.46531 0.89018 0.50726 0.0
O418 O 0.44982 0.85024 0.56569 0.0
Zn419 Zn 0.42522 0.85988 0.55647 0.0
O420 O 0.40208 0.84012 0.51945 0.0
C421 C 0.41404 0.85305 0.62864 0.0
O422 O 0.43425 0.85294 0.63087 0.0
O423 O 0.44146 0.8945 0.54406 0.0
C424 C 0.38258 0.82137 0.52692 0.0
O425 O 0.37823 0.81445 0.55882 0.0
C426 C 0.44649 0.82936 0.56076 0.0
O427 O 0.4267 0.81327 0.54599 0.0
O428 O 0.40692 0.85588 0.59976 0.0
C429 C 0.2181 0.42701 0.3045 0.0
O430 O 0.22884 0.43352 0.27485 0.0
O431 O 0.26734 0.48814 0.29467 0.0
Zn432 Zn 0.233 0.47636 0.30643 0.0
O433 O 0.22914 0.49734 0.34096 0.0
C434 C 0.22488 0.47783 0.2339 0.0
O435 O 0.24578 0.47922 0.23094 0.0
O436 O 0.21784 0.44272 0.32368 0.0
C437 C 0.22541 0.51396 0.33115 0.0
O438 O 0.22532 0.518 0.29841 0.0
C439 C 0.28314 0.51012 0.29357 0.0
O440 O 0.27773 0.52615 0.30404 0.0
O441 O 0.21594 0.47608 0.26332 0.0
C442 C 0.57483 0.7929 0.30581 0.0
O443 O 0.55917 0.79006 0.32933 0.0
O444 O 0.52467 0.79704 0.25517 0.0
Zn445 Zn 0.533 0.77138 0.26381 0.0
O446 O 0.51358 0.74901 0.30175 0.0
C447 C 0.51433 0.75255 0.19666 0.0
O448 O 0.50513 0.76659 0.19892 0.0
O449 O 0.56774 0.7864 0.2755 0.0
C450 C 0.49372 0.73022 0.29596 0.0
O451 O 0.48496 0.72602 0.26495 0.0
C452 C 0.50582 0.79649 0.26574 0.0
O453 O 0.49114 0.77899 0.28571 0.0
O454 O 0.52703 0.752 0.22097 0.0
C455 C 0.20671 0.78214 0.28441 0.0
O456 O 0.21244 0.78225 0.25231 0.0
O457 O 0.20687 0.71874 0.28359 0.0
Zn458 Zn 0.22947 0.7538 0.29152 0.0
O459 O 0.25441 0.75939 0.32648 0.0
C460 C 0.24943 0.75552 0.22497 0.0
O461 O 0.24022 0.73247 0.22994 0.0
O462 O 0.21191 0.7708 0.30598 0.0
C463 C 0.25006 0.75085 0.35639 0.0
O464 O 0.22782 0.73668 0.36575 0.0
C465 C 0.18781 0.71246 0.26685 0.0
O466 O 0.18233 0.72878 0.2583 0.0
O467 O 0.24696 0.76811 0.24773 0.0
H468 H 0.13469 0.00205 0.12763 0.0
H469 H 0.14522 0.94628 0.95179 0.0
H470 H 0.19786 0.03267 0.06468 0.0
H471 H 0.0819 0.91395 0.01444 0.0
H472 H 0.16638 0.97519 0.99684 0.0
H473 H 0.11689 0.96664 0.09103 0.0
C474 C 0.145 0.00115 0.10652 0.0
C475 C 0.16765 0.02051 0.09889 0.0
C476 C 0.14791 0.96167 0.00091 0.0
C477 C 0.14731 0.98024 0.05676 0.0
C478 C 0.13579 0.94517 0.97512 0.0
C479 C 0.11166 0.92786 0.97916 0.0
C480 C 0.13579 0.96104 0.03092 0.0
C481 C 0.10045 0.92712 0.01012 0.0
C482 C 0.13478 0.98098 0.08554 0.0
C483 C 0.1802 0.01833 0.07126 0.0
N484 N 0.11254 0.94365 0.03469 0.0
N485 N 0.16976 -0.00128 0.051 0.0
H486 H 0.95099 0.14194 0.09196 0.0
H487 H 0.06868 0.1474 0.01745 0.0
H488 H 0.96961 0.08729 0.10956 0.0
H489 H 0.03902 0.18974 0.97945 0.0
H490 H 0.03732 0.13064 0.06068 0.0
H491 H 0.98823 0.16506 0.06059 0.0
C492 C 0.96307 0.13495 0.0897 0.0
C493 C 0.95701 0.11246 0.10302 0.0
C494 C 0.03784 0.14377 0.04307 0.0
C495 C -0.00039 0.13885 0.06699 0.0
C496 C 0.05576 0.1534 0.01843 0.0
C497 C 0.0563 0.1698 0.99454 0.0
C498 C 0.02046 0.15073 0.04398 0.0
C499 C 0.03913 0.17696 0.99712 0.0
C500 C 0.98428 0.14813 0.07164 0.0
C501 C 0.97344 0.10441 0.0994 0.0
N502 N 0.02182 0.16727 0.02126 0.0
N503 N 0.99391 0.11751 0.08146 0.0
H504 H 0.8179 0.90709 0.99812 0.0
H505 H 0.82741 0.79344 0.05516 0.0
H506 H 0.79622 0.84455 0.93567 0.0
H507 H 0.86315 0.86126 0.10754 0.0
H508 H 0.80886 0.80931 0.01725 0.0
H509 H 0.82782 0.88794 0.04394 0.0
C510 C 0.81498 0.88924 0.99415 0.0
C511 C 0.80647 0.8775 0.96287 0.0
C512 C 0.82058 0.82065 0.03724 0.0
C513 C 0.81773 0.85552 0.01518 0.0
C514 C 0.83114 0.81159 0.05901 0.0
C515 C 0.84715 0.82616 0.0843 0.0
C516 C 0.82602 0.84446 0.04075 0.0
C517 C 0.85111 0.84946 0.08819 0.0
C518 C 0.8207 0.87836 0.0203 0.0
C519 C 0.80297 0.85437 0.95922 0.0
N520 N 0.84079 0.85798 0.0664 0.0
N521 N 0.80874 0.8442 0.98499 0.0
H522 H 0.91925 0.09641 0.47371 0.0
H523 H 0.0441 0.20393 0.40911 0.0
H524 H 0.96297 0.16118 0.53043 0.0
H525 H 0.00763 0.13504 0.35974 0.0
H526 H 0.01035 0.19104 0.44761 0.0
H527 H 0.94757 0.11266 0.42638 0.0
C528 C 0.93466 0.11413 0.47611 0.0
C529 C 0.9389 0.12735 0.50624 0.0
C530 C 0.00959 0.17879 0.42815 0.0
C531 C 0.97126 0.14602 0.4522 0.0
C532 C 0.02884 0.18617 0.40605 0.0
C533 C 0.02886 0.1704 0.38146 0.0
C534 C 0.99018 0.15544 0.42582 0.0
C535 C 0.00846 0.14771 0.37849 0.0
C536 C 0.95082 0.12336 0.44909 0.0
C537 C 0.95912 0.15024 0.50785 0.0
N538 N 0.99003 0.14078 0.40073 0.0
N539 N 0.97459 0.15877 0.48131 0.0
H540 H 0.86491 0.87565 0.39018 0.0
H541 H 0.85795 0.80101 0.55608 0.0
H542 H 0.8031 0.84055 0.45547 0.0
H543 H 0.92188 0.84101 0.49613 0.0
H544 H 0.83579 0.81025 0.51436 0.0
H545 H 0.8841 0.85795 0.42344 0.0
C546 C 0.85524 0.86398 0.41121 0.0
C547 C 0.83248 0.85983 0.42032 0.0
C548 C 0.85463 0.81685 0.51017 0.0
C549 C 0.85439 0.83964 0.45858 0.0
C550 C 0.8673 0.81155 0.53399 0.0
C551 C 0.89189 0.82051 0.52983 0.0
C552 C 0.86662 0.83124 0.482 0.0
C553 C 0.903 0.83393 0.50056 0.0
C554 C 0.86624 0.85393 0.43025 0.0
C555 C 0.82076 0.84446 0.44773 0.0
N556 N 0.89033 0.83907 0.47791 0.0
N557 N 0.83194 0.83511 0.46607 0.0
H558 H 0.14944 0.95678 0.39835 0.0
H559 H 0.14042 0.0654 0.47935 0.0
H560 H 0.09887 0.97782 0.36541 0.0
H561 H 0.18331 0.03743 0.52099 0.0
H562 H 0.13042 0.03826 0.431 0.0
H563 H 0.16759 0.99127 0.43628 0.0
C564 C 0.14236 0.96885 0.39868 0.0
C565 C 0.12234 0.96419 0.37904 0.0
C566 C 0.14217 0.03821 0.45058 0.0
C567 C 0.14296 0.00361 0.42268 0.0
C568 C 0.1479 0.0537 0.47822 0.0
C569 C 0.16245 0.05344 0.50452 0.0
C570 C 0.15108 0.02236 0.44923 0.0
C571 C 0.1718 0.03804 0.5015 0.0
C572 C 0.1527 0.9885 0.42047 0.0
C573 C 0.11409 0.98056 0.38038 0.0
N574 N 0.1658 0.02299 0.4745 0.0
N575 N 0.12427 -0.0006 0.40216 0.0
H576 H 0.90352 0.07816 0.99231 0.0
H577 H 0.79752 0.95774 0.91328 0.0
H578 H 0.83574 0.03405 0.04183 0.0
H579 H 0.87073 0.99005 0.87943 0.0
H580 H 0.809 0.99108 0.95235 0.0
H581 H 0.88932 0.0512 0.94327 0.0
C582 C 0.88554 0.06299 0.99271 0.0
C583 C 0.87087 0.05816 0.02138 0.0
C584 C 0.82249 0.99101 0.93608 0.0
C585 C 0.85457 0.02739 0.96538 0.0
C586 C 0.81596 0.97203 0.91363 0.0
C587 C 0.83328 0.97091 0.89339 0.0
C588 C 0.8465 0.00907 0.93825 0.0
C589 C 0.85684 0.99004 0.89484 0.0
C590 C 0.8775 0.0476 0.96475 0.0
C591 C 0.84774 0.03829 0.02044 0.0
N592 N 0.86282 0.00825 0.91718 0.0
N593 N 0.84035 0.02356 0.99298 0.0
H594 H 0.91126 0.82277 0.98483 0.0
H595 H 0.02703 0.81284 0.9426 0.0
H596 H 0.93445 0.78212 0.04478 0.0
H597 H 0.01229 0.86493 0.89717 0.0
H598 H 0.98879 0.7955 0.97234 0.0
H599 H 0.94392 0.8325 0.94501 0.0
C600 C 0.92305 0.81567 0.98944 0.0
C601 C 0.92031 0.80185 0.01841 0.0
C602 C 0.99383 0.81058 0.95559 0.0
C603 C 0.95767 0.81293 0.97295 0.0
C604 C 0.01562 0.82044 0.93849 0.0
C605 C 0.02302 0.84057 0.91771 0.0
C606 C 0.97929 0.82086 0.95178 0.0
C607 C 0.00742 0.84958 0.91324 0.0
C608 C 0.94171 0.82128 0.96672 0.0
C609 C 0.93606 0.79306 0.02298 0.0
N610 N 0.98638 0.83978 0.93038 0.0
N611 N 0.95416 0.79887 0.00061 0.0
H612 H 0.10393 0.11965 0.89055 0.0
H613 H 0.20115 0.14503 0.03377 0.0
H614 H 0.15229 0.18961 0.93131 0.0
H615 H 0.15202 0.07471 0.99487 0.0
H616 H 0.18757 0.16233 0.9901 0.0
H617 H 0.1256 0.10369 0.92169 0.0
C618 C 0.11933 0.13174 0.90559 0.0
C619 C 0.12606 0.15593 0.90878 0.0
C620 C 0.17991 0.14312 0.99089 0.0
C621 C 0.15077 0.13774 0.94473 0.0
C622 C 0.18765 0.13323 0.01587 0.0
C623 C 0.17745 0.10836 0.0183 0.0
C624 C 0.16174 0.12805 0.96828 0.0
C625 C 0.1602 0.09397 0.99418 0.0
C626 C 0.13166 0.12259 0.92346 0.0
C627 C 0.14626 0.17077 0.92846 0.0
N628 N 0.15269 0.10401 0.9704 0.0
N629 N 0.1577 0.16138 0.94602 0.0
H630 H 0.96575 0.77979 0.54645 0.0
H631 H 0.08206 0.89958 0.4866 0.0
H632 H 0.99169 0.84799 0.59611 0.0
H633 H 0.04545 0.83585 0.42514 0.0
H634 H 0.05417 0.87868 0.53308 0.0
H635 H 0.00025 0.7979 0.50857 0.0
C636 C 0.97888 0.79849 0.54976 0.0
C637 C 0.97563 0.81249 0.57416 0.0
C638 C 0.05241 0.86923 0.50952 0.0
C639 C 0.01509 0.83332 0.53072 0.0
C640 C 0.06834 0.88112 0.48299 0.0
C641 C 0.06589 0.86952 0.45179 0.0
C642 C 0.03403 0.84555 0.50487 0.0
C643 C 0.04783 0.84557 0.44862 0.0
C644 C -0.00147 0.80883 0.52801 0.0
C645 C 0.99334 0.83659 0.57741 0.0
N646 N 0.03251 0.83442 0.47475 0.0
N647 N 0.0122 0.84632 0.55567 0.0
H648 H 0.1557 0.20614 0.43714 0.0
H649 H 0.13804 0.11717 0.58888 0.0
H650 H 0.08712 0.15664 0.48062 0.0
H651 H 0.2067 0.16787 0.54684 0.0
H652 H 0.11968 0.13552 0.55539 0.0
H653 H 0.17514 0.19618 0.4823 0.0
C654 C 0.14472 0.1933 0.45633 0.0
C655 C 0.11972 0.18196 0.45482 0.0
C656 C 0.13881 0.14285 0.55384 0.0
C657 C 0.14188 0.17042 0.50658 0.0
C658 C 0.14934 0.13242 0.57307 0.0
C659 C 0.1739 0.14074 0.57022 0.0
C660 C 0.15293 0.16163 0.53149 0.0
C661 C 0.18765 0.16066 0.54951 0.0
C662 C 0.15585 0.18766 0.48217 0.0
C663 C 0.10644 0.16566 0.48058 0.0
N664 N 0.17692 0.17021 0.53057 0.0
N665 N 0.11767 0.16019 0.50519 0.0
H666 H 0.82431 0.04542 0.56142 0.0
H667 H 0.83648 0.93046 0.5233 0.0
H668 H 0.88096 0.03527 0.60084 0.0
H669 H 0.78718 0.94635 0.47138 0.0
H670 H 0.84787 0.96485 0.56044 0.0
H671 H 0.80547 0.00525 0.53716 0.0
C672 C 0.83263 0.03464 0.56539 0.0
C673 C 0.85445 0.04386 0.58273 0.0
C674 C 0.83438 0.96066 0.54114 0.0
C675 C 0.83303 -0.00206 0.55489 0.0
C676 C 0.82783 0.941 0.51995 0.0
C677 C 0.8111 0.93573 0.49386 0.0
C678 C 0.82411 0.97512 0.53622 0.0
C679 C 0.80038 0.94992 0.49089 0.0
C680 C 0.82189 0.01173 0.55144 0.0
C681 C 0.8643 0.029 0.58727 0.0
N682 N 0.80722 0.96909 0.5116 0.0
N683 N 0.85365 0.00687 0.57313 0.0
H684 H 0.83251 0.29004 0.26957 0.0
H685 H 0.8214 0.35483 0.43422 0.0
H686 H 0.76926 0.26039 0.33227 0.0
H687 H 0.8878 0.37753 0.38112 0.0
H688 H 0.80304 0.31797 0.40093 0.0
H689 H 0.85411 0.32003 0.31331 0.0
C690 C 0.82322 0.28969 0.29271 0.0
C691 C 0.79895 0.2729 0.29707 0.0
C692 C 0.82172 0.33085 0.39691 0.0
C693 C 0.82353 0.30733 0.34717 0.0
C694 C 0.83223 0.35191 0.41594 0.0
C695 C 0.85608 0.36946 0.41008 0.0
C696 C 0.8351 0.32744 0.37162 0.0
C697 C 0.86929 0.36462 0.38625 0.0
C698 C 0.83559 0.30679 0.31773 0.0
C699 C 0.78791 0.27312 0.32772 0.0
N700 N 0.85852 0.34423 0.36754 0.0
N701 N 0.80019 0.2903 0.3514 0.0
H702 H 0.64773 0.43182 0.44766 0.0
H703 H 0.71832 0.52773 0.30247 0.0
H704 H 0.63653 0.49074 0.42404 0.0
H705 H 0.72838 0.46793 0.32482 0.0
H706 H 0.69274 0.51797 0.35255 0.0
H707 H 0.68185 0.44847 0.40902 0.0
C708 C 0.65265 0.44845 0.43476 0.0
C709 C 0.63901 0.45969 0.4387 0.0
C710 C 0.70073 0.50712 0.3467 0.0
C711 C 0.67791 0.47872 0.39413 0.0
C712 C 0.71534 0.51267 0.31807 0.0
C713 C 0.72522 0.49841 0.30914 0.0
C714 C 0.6959 0.4871 0.36647 0.0
C715 C 0.72091 0.47926 0.33049 0.0
C716 C 0.67212 0.45793 0.41261 0.0
C717 C 0.64637 0.48131 0.42153 0.0
N718 N 0.70638 0.47403 0.35796 0.0
N719 N 0.66512 0.48995 0.39965 0.0
H720 H 0.51437 0.12681 0.40384 0.0
H721 H 0.49492 0.238 0.37307 0.0
H722 H 0.54198 0.18759 0.47135 0.0
H723 H 0.47098 0.17791 0.30482 0.0
H724 H 0.50736 0.21761 0.41374 0.0
H725 H 0.49307 0.14276 0.37226 0.0
C726 C 0.51573 0.14341 0.41227 0.0
C727 C 0.53024 0.15606 0.43998 0.0
C728 C 0.49917 0.20882 0.39 0.0
C729 C 0.50609 0.17466 0.40358 0.0
C730 C 0.49206 0.22043 0.36677 0.0
C731 C 0.48216 0.20976 0.33531 0.0
C732 C 0.49631 0.1864 0.38167 0.0
C733 C 0.47877 0.18695 0.32858 0.0
C734 C 0.50358 0.15255 0.39417 0.0
C735 C 0.53109 0.17733 0.45001 0.0
N736 N 0.48599 0.17614 0.35143 0.0
N737 N 0.51945 0.18616 0.43149 0.0
H738 H 0.5837 0.40774 0.82366 0.0
H739 H 0.69375 0.52491 0.74453 0.0
H740 H 0.61088 0.4789 0.86389 0.0
H741 H 0.67473 0.45321 0.71473 0.0
H742 H 0.65848 0.50859 0.78081 0.0
H743 H 0.61229 0.42445 0.77682 0.0
C744 C 0.59554 0.42689 0.82251 0.0
C745 C 0.5951 0.44193 0.84796 0.0
C746 C 0.66187 0.49643 0.76605 0.0
C747 C 0.62776 0.46112 0.79441 0.0
C748 C 0.68198 0.50574 0.7452 0.0
C749 C 0.68742 0.49038 0.72694 0.0
C750 C 0.64709 0.47159 0.76873 0.0
C751 C 0.67137 0.46571 0.72863 0.0
C752 C 0.61185 0.4364 0.79576 0.0
C753 C 0.61076 0.4666 0.84505 0.0
N754 N 0.65206 0.45705 0.74951 0.0
N755 N 0.62654 0.4754 0.81888 0.0
H756 H 0.52058 0.21018 0.71312 0.0
H757 H 0.50314 0.1351 0.88101 0.0
H758 H 0.45361 0.17165 0.76692 0.0
H759 H 0.56669 0.16359 0.81908 0.0
H760 H 0.4835 0.14509 0.83626 0.0
H761 H 0.53659 0.19003 0.74782 0.0
C762 C 0.50912 0.19722 0.73184 0.0
C763 C 0.48585 0.1929 0.73749 0.0
C764 C 0.50165 0.14891 0.83222 0.0
C765 C 0.50412 0.16997 0.77749 0.0
C766 C 0.5129 0.14326 0.85783 0.0
C767 C 0.5367 0.14882 0.85396 0.0
C768 C 0.51438 0.16052 0.80267 0.0
C769 C 0.54837 0.15914 0.82323 0.0
C770 C 0.51828 0.18573 0.75167 0.0
C771 C 0.47176 0.17578 0.76193 0.0
N772 N 0.53721 0.16498 0.79894 0.0
N773 N 0.48123 0.16522 0.78134 0.0
H774 H 0.84011 0.42509 0.80663 0.0
H775 H 0.82839 0.29917 0.76209 0.0
H776 H 0.86806 0.38959 0.86874 0.0
H777 H 0.7938 0.33016 0.70439 0.0
H778 H 0.84945 0.33597 0.79489 0.0
H779 H 0.82922 0.39424 0.76311 0.0
C780 C 0.84424 0.411 0.81095 0.0
C781 C 0.8547 0.40972 0.8416 0.0
C782 C 0.83746 0.33486 0.77482 0.0
C783 C 0.84227 0.37441 0.79196 0.0
C784 C 0.82544 0.31384 0.75601 0.0
C785 C 0.80898 0.31143 0.73084 0.0
C786 C 0.8329 0.35361 0.76863 0.0
C787 C 0.80615 0.33116 0.72378 0.0
C788 C 0.83799 0.39338 0.7861 0.0
C789 C 0.85975 0.39113 0.84571 0.0
N790 N 0.81774 0.35134 0.74295 0.0
N791 N 0.8533 0.37411 0.82133 0.0
H792 H 0.51389 0.38433 0.39744 0.0
H793 H 0.53596 0.32579 0.23292 0.0
H794 H 0.57749 0.42025 0.33574 0.0
H795 H 0.47059 0.29301 0.2912 0.0
H796 H 0.54986 0.36239 0.26622 0.0
H797 H 0.49608 0.35269 0.35492 0.0
C798 C 0.52402 0.3857 0.37475 0.0
C799 C 0.54733 0.40483 0.37034 0.0
C800 C 0.53236 0.34727 0.27143 0.0
C801 C 0.52712 0.36848 0.32163 0.0
C802 C 0.5244 0.32637 0.25241 0.0
C803 C 0.50221 0.30618 0.25958 0.0
C804 C 0.51805 0.34792 0.29788 0.0
C805 C 0.48795 0.30802 0.285 0.0
C806 C 0.51383 0.36761 0.35044 0.0
C807 C 0.55952 0.40576 0.34029 0.0
N808 N 0.49622 0.32841 0.30344 0.0
N809 N 0.54939 0.38766 0.31727 0.0
H810 H 0.70156 0.15625 0.23918 0.0
H811 H 0.61153 0.18503 0.3405 0.0
H812 H 0.70126 0.22273 0.23098 0.0
H813 H 0.62071 0.12459 0.36208 0.0
H814 H 0.63941 0.19564 0.29305 0.0
H815 H 0.6667 0.14088 0.27646 0.0
C816 C 0.69395 0.16749 0.24477 0.0
C817 C 0.70453 0.19093 0.23231 0.0
C818 C 0.6352 0.17997 0.30803 0.0
C819 C 0.66479 0.17351 0.2751 0.0
C820 C 0.61928 0.17389 0.33514 0.0
C821 C 0.614 0.15405 0.35555 0.0
C822 C 0.64589 0.16608 0.30123 0.0
C823 C 0.62445 0.14018 0.34724 0.0
C824 C 0.67412 0.15873 0.26619 0.0
C825 C 0.69386 0.20465 0.24033 0.0
N826 N 0.64002 0.14655 0.32083 0.0
N827 N 0.6747 0.19581 0.26145 0.0
H828 H 0.82705 0.42017 0.32294 0.0
H829 H 0.84091 0.54488 0.26657 0.0
H830 H 0.8739 0.4874 0.37226 0.0
H831 H 0.78979 0.47696 0.2228 0.0
H832 H 0.85907 0.52516 0.29727 0.0
H833 H 0.81907 0.44165 0.27854 0.0
C834 C 0.8359 0.43947 0.32424 0.0
C835 C 0.85082 0.45197 0.35172 0.0
C836 C 0.84409 0.51462 0.28057 0.0
C837 C 0.84168 0.47666 0.30101 0.0
C838 C 0.83374 0.52589 0.26294 0.0
C839 C 0.8135 0.51247 0.24258 0.0
C840 C 0.83408 0.48975 0.27793 0.0
C841 C 0.80516 0.48796 0.23858 0.0
C842 C 0.83132 0.45173 0.29886 0.0
C843 C 0.86199 0.47699 0.35182 0.0
N844 N 0.81527 0.47733 0.25651 0.0
N845 N 0.85696 0.48849 0.32709 0.0
H846 H 0.63142 0.1924 0.91483 0.0
H847 H 0.72631 0.16698 0.82075 0.0
H848 H 0.6328 0.1266 0.92549 0.0
H849 H 0.71845 0.22849 0.8017 0.0
H850 H 0.69587 0.15431 0.86524 0.0
H851 H 0.6674 0.20845 0.88002 0.0
C852 C 0.63944 0.18141 0.91022 0.0
C853 C 0.6289 0.158 0.92277 0.0
C854 C 0.70094 0.17066 0.85144 0.0
C855 C 0.67002 0.17622 0.88263 0.0
C856 C 0.71831 0.1779 0.82605 0.0
C857 C 0.72477 0.1987 0.80723 0.0
C858 C 0.69002 0.18436 0.85811 0.0
C859 C 0.71388 0.21221 0.81532 0.0
C860 C 0.65996 0.19057 0.89021 0.0
C861 C 0.64019 0.14466 0.91609 0.0
N862 N 0.69698 0.20474 0.84001 0.0
N863 N 0.66003 0.15389 0.8962 0.0
H864 H 0.86065 0.49976 0.89382 0.0
H865 H 0.74775 0.5106 0.83719 0.0
H866 H 0.79107 0.4597 0.94036 0.0
H867 H 0.81327 0.53862 0.77981 0.0
H868 H 0.76582 0.49877 0.88231 0.0
H869 H 0.84595 0.52113 0.85955 0.0
C870 C 0.84235 0.49566 0.89719 0.0
C871 C 0.82695 0.47761 0.91962 0.0
C872 C 0.77631 0.50775 0.86 0.0
C873 C 0.80998 0.50197 0.88023 0.0
C874 C 0.76604 0.51457 0.83428 0.0
C875 C 0.77893 0.52532 0.80449 0.0
C876 C 0.79964 0.51184 0.85593 0.0
C877 C 0.80258 0.5301 0.80215 0.0
C878 C 0.83396 0.50785 0.87752 0.0
C879 C 0.80349 0.47328 0.92311 0.0
N880 N 0.8121 0.52316 0.8274 0.0
N881 N 0.79563 0.48518 0.9033 0.0
H882 H 0.49724 0.37082 0.90638 0.0
H883 H 0.47595 0.24251 0.85193 0.0
H884 H 0.53447 0.3379 0.95195 0.0
H885 H 0.45153 0.28315 0.7945 0.0
H886 H 0.49061 0.27327 0.89622 0.0
H887 H 0.47323 0.33457 0.87345 0.0
C888 C 0.50016 0.35584 0.90985 0.0
C889 C 0.51821 0.35756 0.93154 0.0
C890 C 0.48181 0.27529 0.87408 0.0
C891 C 0.49084 0.31603 0.89363 0.0
C892 C 0.4734 0.25773 0.84882 0.0
C893 C 0.46278 0.26044 0.81927 0.0
C894 C 0.47943 0.29557 0.86981 0.0
C895 C 0.45986 0.28048 0.81666 0.0
C896 C 0.48647 0.33516 0.89094 0.0
C897 C 0.52094 0.33745 0.93525 0.0
N898 N 0.46829 0.29735 0.84148 0.0
N899 N 0.5076 0.31759 0.91613 0.0
H900 H 0.41705 0.59957 0.6603 0.0
H901 H 0.54173 0.69398 0.74383 0.0
H902 H 0.48585 0.61788 0.61827 0.0
H903 H 0.47371 0.68572 0.77371 0.0
H904 H 0.52092 0.65953 0.7061 0.0
H905 H 0.43711 0.62476 0.70958 0.0
C906 C 0.43637 0.60871 0.66155 0.0
C907 C 0.44982 0.60693 0.63485 0.0
C908 C 0.51054 0.66506 0.72129 0.0
C909 C 0.47285 0.63572 0.69122 0.0
C910 C 0.5224 0.68466 0.74299 0.0
C911 C 0.50946 0.69301 0.76151 0.0
C912 C 0.4856 0.65372 0.71817 0.0
C913 C 0.48443 0.68011 0.75953 0.0
C914 C 0.4478 0.62309 0.68971 0.0
C915 C 0.47478 0.619 0.63804 0.0
N916 N 0.47333 0.66129 0.73789 0.0
N917 N 0.4855 0.63305 0.66557 0.0
H918 H 0.41841 0.83671 0.691 0.0
H919 H 0.29806 0.82715 0.76199 0.0
H920 H 0.37521 0.85892 0.63543 0.0
H921 H 0.3298 0.78786 0.80446 0.0
H922 H 0.33161 0.84674 0.72275 0.0
H923 H 0.39103 0.82611 0.73931 0.0
C924 C 0.40332 0.8396 0.68908 0.0
C925 C 0.39891 0.84846 0.65901 0.0
C926 C 0.33136 0.83404 0.74092 0.0
C927 C 0.36771 0.83652 0.71415 0.0
C928 C 0.31227 0.8229 0.76347 0.0
C929 C 0.31092 0.80553 0.78621 0.0
C930 C 0.3493 0.82784 0.74113 0.0
C931 C 0.32997 0.80093 0.78708 0.0
C932 C 0.38771 0.8335 0.71663 0.0
C933 C 0.37914 0.85189 0.65797 0.0
N934 N 0.34828 0.81184 0.76457 0.0
N935 N 0.36421 0.84581 0.68508 0.0
H936 H 0.12573 0.51501 0.62603 0.0
H937 H 0.2044 0.52539 0.78816 0.0
H938 H 0.1566 0.57594 0.69346 0.0
H939 H 0.17185 0.46418 0.72131 0.0
H940 H 0.18255 0.5419 0.75872 0.0
H941 H 0.1378 0.49386 0.66541 0.0
C942 C 0.13482 0.52386 0.64932 0.0
C943 C 0.14048 0.54742 0.65621 0.0
C944 C 0.17998 0.52472 0.75077 0.0
C945 C 0.15458 0.52336 0.70133 0.0
C946 C 0.19243 0.51527 0.7676 0.0
C947 C 0.19023 0.49354 0.75686 0.0
C948 C 0.16529 0.51238 0.72295 0.0
C949 C 0.17434 0.48114 0.73021 0.0
C950 C 0.14172 0.51176 0.67183 0.0
C951 C 0.15205 0.55788 0.68696 0.0
N952 N 0.1627 0.49086 0.71395 0.0
N953 N 0.15901 0.54589 0.70819 0.0
H954 H 0.34494 0.787 0.05593 0.0
H955 H 0.2715 0.80274 0.20714 0.0
H956 H 0.35755 0.85528 0.09301 0.0
H957 H 0.26079 0.73447 0.17333 0.0
H958 H 0.29884 0.8219 0.15968 0.0
H959 H 0.30978 0.76719 0.09252 0.0
C960 C 0.34014 0.79785 0.07139 0.0
C961 C 0.35443 0.82283 0.07179 0.0
C962 C 0.29036 0.8027 0.16246 0.0
C963 C 0.31434 0.80026 0.11393 0.0
C964 C 0.27474 0.79174 0.18959 0.0
C965 C 0.26412 0.767 0.19452 0.0
C966 C 0.29547 0.78885 0.14014 0.0
C967 C 0.2688 0.75363 0.17074 0.0
C968 C 0.32009 0.78652 0.09235 0.0
C969 C 0.34722 0.83597 0.09215 0.0
N970 N 0.28432 0.76476 0.14477 0.0
N971 N 0.32785 0.82451 0.11269 0.0
H972 H 0.20196 0.5342 0.04963 0.0
H973 H 0.17956 0.4707 0.22944 0.0
H974 H 0.13437 0.50231 0.10244 0.0
H975 H 0.24289 0.49117 0.16953 0.0
H976 H 0.16155 0.47921 0.18086 0.0
H977 H 0.2161 0.51543 0.09034 0.0
C978 C 0.18996 0.52296 0.06943 0.0
C979 C 0.16708 0.52014 0.07293 0.0
C980 C 0.17928 0.4816 0.17816 0.0
C981 C 0.18323 0.49885 0.11978 0.0
C982 C 0.1896 0.47679 0.20595 0.0
C983 C 0.21287 0.4805 0.20365 0.0
C984 C 0.19242 0.49047 0.14796 0.0
C985 C 0.22496 0.48821 0.17249 0.0
C986 C 0.19805 0.51227 0.0927 0.0
C987 C 0.15225 0.50523 0.09896 0.0
N988 N 0.21471 0.49325 0.14597 0.0
N989 N 0.1607 0.49544 0.12165 0.0
H990 H 0.53149 0.7224 0.18252 0.0
H991 H 0.43023 0.64855 0.04581 0.0
H992 H 0.48231 0.74407 0.14548 0.0
H993 H 0.48317 0.63036 0.07732 0.0
H994 H 0.45222 0.68644 0.07627 0.0
H995 H 0.51718 0.69142 0.13887 0.0
C996 C 0.51784 0.7208 0.16499 0.0
C997 C 0.50784 0.73563 0.16797 0.0
C998 C 0.45921 0.6743 0.07613 0.0
C999 C 0.49124 0.70007 0.11802 0.0
C1000 C 0.44667 0.65267 0.05867 0.0
C1001 C 0.45465 0.63608 0.05948 0.0
C1002 C 0.47976 0.67928 0.09469 0.0
C1003 C 0.47618 0.64247 0.07634 0.0
C1004 C 0.50968 0.70311 0.14001 0.0
C1005 C 0.49037 0.73289 0.14433 0.0
N1006 N 0.48779 0.66341 0.09367 0.0
N1007 N 0.4824 0.71524 0.12061 0.0
H1008 H 0.13623 0.63336 0.6203 0.0
H1009 H 0.24804 0.75728 0.67943 0.0
H1010 H 0.20518 0.6655 0.57124 0.0
H1011 H 0.18505 0.71592 0.74063 0.0
H1012 H 0.22987 0.72785 0.63375 0.0
H1013 H 0.15121 0.66776 0.65827 0.0
C1014 C 0.15443 0.64779 0.61718 0.0
C1015 C 0.16958 0.6464 0.5928 0.0
C1016 C 0.21997 0.72535 0.65708 0.0
C1017 C 0.18683 0.68579 0.63637 0.0
C1018 C 0.23029 0.74215 0.68315 0.0
C1019 C 0.21814 0.73891 0.71404 0.0
C1020 C 0.19728 0.70526 0.66187 0.0
C1021 C 0.19516 0.71901 0.71737 0.0
C1022 C 0.16299 0.66739 0.63899 0.0
C1023 C 0.19295 0.66571 0.58988 0.0
N1024 N 0.18553 0.70287 0.69167 0.0
N1025 N 0.20093 0.68454 0.61162 0.0
H1026 H 0.2616 0.50615 0.64944 0.0
H1027 H 0.37203 0.49308 0.58616 0.0
H1028 H 0.28081 0.45658 0.69241 0.0
H1029 H 0.35816 0.54846 0.55189 0.0
H1030 H 0.33451 0.47493 0.61773 0.0
H1031 H 0.29285 0.51742 0.60668 0.0
C1032 C 0.27223 0.49747 0.64972 0.0
C1033 C 0.26877 0.4806 0.67482 0.0
C1034 C 0.33954 0.4909 0.603 0.0
C1035 C 0.30459 0.49344 0.62593 0.0
C1036 C 0.36094 0.50125 0.58484 0.0
C1037 C 0.36843 0.52253 0.56673 0.0
C1038 C 0.32553 0.50193 0.60309 0.0
C1039 C 0.35322 0.53219 0.56578 0.0
C1040 C 0.29009 0.50393 0.62529 0.0
C1041 C 0.283 0.46984 0.67376 0.0
N1042 N 0.33262 0.52196 0.58404 0.0
N1043 N 0.3004 0.47658 0.6499 0.0
H1044 H 0.49844 0.74623 0.66249 0.0
H1045 H 0.48584 0.857 0.59988 0.0
H1046 H 0.52566 0.81262 0.71763 0.0
H1047 H 0.44368 0.78557 0.55967 0.0
H1048 H 0.50798 0.8434 0.63466 0.0
H1049 H 0.48556 0.76292 0.6168 0.0
C1050 C 0.502 0.76442 0.66481 0.0
C1051 C 0.51287 0.77796 0.69412 0.0
C1052 C 0.49407 0.83077 0.61792 0.0
C1053 C 0.49822 0.79711 0.64195 0.0
C1054 C 0.48146 0.83852 0.59793 0.0
C1055 C 0.46259 0.82229 0.57721 0.0
C1056 C 0.48784 0.80663 0.61717 0.0
C1057 C 0.4579 0.79863 0.57557 0.0
C1058 C 0.49459 0.77389 0.63875 0.0
C1059 C 0.51709 0.80145 0.69567 0.0
N1060 N 0.47027 0.79144 0.59561 0.0
N1061 N 0.50962 0.81023 0.67005 0.0
H1062 H 0.32119 0.55537 0.28503 0.0
H1063 H 0.37119 0.51684 0.12797 0.0
H1064 H 0.29569 0.48175 0.2578 0.0
H1065 H 0.41012 0.58701 0.17315 0.0
H1066 H 0.34356 0.50369 0.17598 0.0
H1067 H 0.35458 0.56754 0.24556 0.0
C1068 C 0.32279 0.54174 0.27117 0.0
C1069 C 0.30546 0.51753 0.27445 0.0
C1070 C 0.35829 0.5219 0.17559 0.0
C1071 C 0.34336 0.53134 0.22895 0.0
C1072 C 0.374 0.52945 0.1481 0.0
C1073 C 0.39288 0.55309 0.14646 0.0
C1074 C 0.36123 0.53821 0.20139 0.0
C1075 C 0.39577 0.56863 0.17338 0.0
C1076 C 0.34185 0.5487 0.24863 0.0
C1077 C 0.30852 0.50064 0.25594 0.0
N1078 N 0.37993 0.56099 0.19957 0.0
N1079 N 0.32688 0.5079 0.23364 0.0
H1080 H 0.53103 0.83307 0.22112 0.0
H1081 H 0.41999 0.85115 0.18047 0.0
H1082 H 0.46425 0.79739 0.2759 0.0
H1083 H 0.48187 0.87559 0.11582 0.0
H1084 H 0.43916 0.83833 0.22255 0.0
H1085 H 0.51647 0.8558 0.1898 0.0
C1086 C 0.51341 0.83023 0.22693 0.0
C1087 C 0.49868 0.813 0.25082 0.0
C1088 C 0.44863 0.84675 0.19932 0.0
C1089 C 0.48185 0.8389 0.21479 0.0
C1090 C 0.43774 0.85414 0.17532 0.0
C1091 C 0.44922 0.86417 0.14437 0.0
C1092 C 0.47119 0.84951 0.19236 0.0
C1093 C 0.47224 0.86769 0.13914 0.0
C1094 C 0.50509 0.84319 0.20894 0.0
C1095 C 0.47612 0.8103 0.25746 0.0
N1096 N 0.48237 0.86019 0.16276 0.0
N1097 N 0.46828 0.82291 0.23923 0.0
H1098 H 0.14951 0.69492 0.22374 0.0
H1099 H 0.158 0.57912 0.17631 0.0
H1100 H 0.19641 0.67521 0.27445 0.0
H1101 H 0.12283 0.60738 0.11408 0.0
H1102 H 0.16551 0.60941 0.21937 0.0
H1103 H 0.1327 0.65794 0.19093 0.0
C1104 C 0.15603 0.68265 0.22839 0.0
C1105 C 0.17468 0.68837 0.25151 0.0
C1106 C 0.15594 0.60882 0.19643 0.0
C1107 C 0.15559 0.64607 0.21382 0.0
C1108 C 0.15161 0.59151 0.17184 0.0
C1109 C 0.14005 0.59092 0.14133 0.0
C1110 C 0.14857 0.62558 0.19052 0.0
C1111 C 0.13206 0.60735 0.13704 0.0
C1112 C 0.14647 0.66157 0.20953 0.0
C1113 C 0.18225 0.67167 0.25663 0.0
N1114 N 0.13663 0.62412 0.16125 0.0
N1115 N 0.17286 0.65139 0.23763 0.0
H1116 H 0.08074 0.11485 0.30753 0.0
H1117 H 0.18927 0.13372 0.19263 0.0
H1118 H 0.13771 0.18482 0.27911 0.0
H1119 H 0.11827 0.07567 0.17132 0.0
H1120 H 0.17245 0.14951 0.23401 0.0
H1121 H 0.09576 0.09709 0.26575 0.0
C1122 C 0.0963 0.12644 0.29243 0.0
C1123 C 0.10798 0.15133 0.29669 0.0
C1124 C 0.16059 0.13327 0.22033 0.0
C1125 C 0.12542 0.1312 0.24987 0.0
C1126 C 0.17016 0.12414 0.19691 0.0
C1127 C 0.1551 0.10339 0.17844 0.0
C1128 C 0.13586 0.12132 0.22588 0.0
C1129 C 0.13045 0.0918 0.18493 0.0
C1130 C 0.10479 0.11632 0.26866 0.0
C1131 C 0.12807 0.16556 0.27651 0.0
N1132 N 0.12155 0.10086 0.20832 0.0
N1133 N 0.13632 0.15528 0.25428 0.0
H1134 H 0.86826 0.97843 0.37172 0.0
H1135 H 0.85469 0.01319 0.18095 0.0
H1136 H 0.81419 0.93011 0.30161 0.0
H1137 H 0.9048 0.06349 0.25344 0.0
H1138 H 0.84238 0.98154 0.22313 0.0
H1139 H 0.88465 0.00864 0.32697 0.0
C1140 C 0.85994 0.97408 0.34684 0.0
C1141 C 0.83969 0.95174 0.3405 0.0
C1142 C 0.85614 -0.00053 0.2298 0.0
C1143 C 0.85834 0.98632 0.28918 0.0
C1144 C 0.8632 0.01758 0.2057 0.0
C1145 C 0.8807 0.04111 0.21374 0.0
C1146 C 0.86663 0.00485 0.26225 0.0
C1147 C 0.89116 0.04566 0.24618 0.0
C1148 C 0.86929 0.99138 0.32132 0.0
C1149 C 0.82973 0.94713 0.30773 0.0
N1150 N 0.88388 0.02771 0.26931 0.0
N1151 N 0.83908 0.96431 0.28337 0.0
H1152 H 0.96959 0.85984 0.13651 0.0
H1153 H 0.00053 0.86515 0.33444 0.0
H1154 H 0.91723 0.81857 0.21318 0.0
H1155 H 0.05359 0.88906 0.25486 0.0
H1156 H 0.96955 0.85412 0.29125 0.0
H1157 H 0.00017 0.87692 0.18076 0.0
C1158 C 0.96445 0.85455 0.16269 0.0
C1159 C 0.94084 0.83756 0.17112 0.0
C1160 C 0.98799 0.8619 0.28328 0.0
C1161 C 0.97579 0.85706 0.22183 0.0
C1162 C 0.00571 0.86827 0.30791 0.0
C1163 C 0.02968 0.87786 0.29822 0.0
C1164 C 0.99429 0.86533 0.24873 0.0
C1165 C 0.03532 0.88153 0.26345 0.0
C1166 C 0.98195 0.86425 0.1879 0.0
C1167 C 0.93524 0.83145 0.2055 0.0
N1168 N 0.01774 0.87521 0.23995 0.0
N1169 N 0.95262 0.84112 0.22959 0.0
H1170 H 0.89519 0.87487 0.64772 0.0
H1171 H 0.86994 0.88024 0.84579 0.0
H1172 H 0.90901 0.83569 0.72471 0.0
H1173 H 0.83723 0.90022 0.76628 0.0
H1174 H 0.89093 0.87057 0.80249 0.0
H1175 H 0.88058 0.89102 0.69189 0.0
C1176 C 0.89541 0.86986 0.67395 0.0
C1177 C 0.90315 0.85373 0.6825 0.0
C1178 C 0.87927 0.87721 0.79457 0.0
C1179 C 0.88646 0.87218 0.73311 0.0
C1180 C 0.86734 0.88283 0.81925 0.0
C1181 C 0.85163 0.89086 0.80962 0.0
C1182 C 0.87567 0.87986 0.76001 0.0
C1183 C 0.84901 0.89389 0.77483 0.0
C1184 C 0.88697 0.87902 0.69911 0.0
C1185 C 0.90304 0.84792 0.71693 0.0
N1186 N 0.86085 0.88832 0.75126 0.0
N1187 N 0.89473 0.85708 0.74098 0.0
H1188 H 0.13752 0.06523 0.72932 0.0
H1189 H 0.10469 0.93237 0.78087 0.0
H1190 H 0.14807 0.01753 0.66397 0.0
H1191 H 0.09765 0.98066 0.84962 0.0
H1192 H 0.1175 0.96246 0.73624 0.0
H1193 H 0.11995 0.03365 0.77228 0.0
C1194 C 0.13605 0.04811 0.72392 0.0
C1195 C 0.14442 0.04409 0.69306 0.0
C1196 C 0.11306 0.96647 0.76103 0.0
C1197 C 0.12435 0.0079 0.74206 0.0
C1198 C 0.1057 0.94926 0.78655 0.0
C1199 C 0.10023 0.95404 0.81914 0.0
C1200 C 0.11504 0.98871 0.76806 0.0
C1201 C 0.10179 0.97623 0.82492 0.0
C1202 C 0.12604 0.03009 0.74847 0.0
C1203 C 0.142 0.02152 0.68745 0.0
N1204 N 0.10917 0.9928 0.79968 0.0
N1205 N 0.13227 0.00435 0.71172 0.0
H1206 H 0.92637 0.08268 0.73041 0.0
H1207 H 0.0562 0.18035 0.79686 0.0
H1208 H 0.97512 0.14569 0.67387 0.0
H1209 H 0.00499 0.12179 0.85848 0.0
H1210 H 0.02789 0.16581 0.74969 0.0
H1211 H 0.95606 0.09478 0.77587 0.0
C1212 C 0.94333 0.09901 0.72749 0.0
C1213 C 0.94821 0.11325 0.69835 0.0
C1214 C 0.02286 0.15608 0.77348 0.0
C1215 C 0.98226 0.12716 0.75022 0.0
C1216 C 0.03905 0.16435 0.80044 0.0
C1217 C 0.03291 0.15235 0.83177 0.0
C1218 C 0.00034 0.13563 0.77779 0.0
C1219 C 0.01044 0.13167 0.83484 0.0
C1220 C 0.96026 0.10591 0.75346 0.0
C1221 C 0.97051 0.1342 0.69594 0.0
N1222 N 0.99493 0.12401 0.80822 0.0
N1223 N 0.98667 0.14053 0.72154 0.0
H1224 H 0.77957 0.4629 0.68965 0.0
H1225 H 0.81714 0.45653 0.49765 0.0
H1226 H 0.77514 0.50491 0.60761 0.0
H1227 H 0.83108 0.42254 0.5821 0.0
H1228 H 0.79703 0.4703 0.53638 0.0
H1229 H 0.7938 0.44401 0.64939 0.0
C1230 C 0.78142 0.46805 0.66312 0.0
C1231 C 0.77632 0.48567 0.65204 0.0
C1232 C 0.80437 0.45972 0.54642 0.0
C1233 C 0.79266 0.46408 0.60581 0.0
C1234 C 0.81583 0.4518 0.52431 0.0
C1235 C 0.82601 0.43851 0.53669 0.0
C1236 C 0.80301 0.45432 0.58121 0.0
C1237 C 0.82364 0.43286 0.57146 0.0
C1238 C 0.7896 0.45727 0.64016 0.0
C1239 C 0.77899 0.49153 0.61733 0.0
N1240 N 0.81249 0.4409 0.59254 0.0
N1241 N 0.78708 0.48084 0.59548 0.0
H1242 H 0.47738 0.26319 0.61819 0.0
H1243 H 0.56043 0.40048 0.5697 0.0
H1244 H 0.51874 0.31785 0.69222 0.0
H1245 H 0.53229 0.34356 0.49549 0.0
H1246 H 0.54506 0.37062 0.61509 0.0
H1247 H 0.49693 0.29248 0.57281 0.0
C1248 C 0.49065 0.28132 0.6249 0.0
C1249 C 0.49635 0.28811 0.65906 0.0
C1250 C 0.54242 0.36468 0.58886 0.0
C1251 C 0.51869 0.32175 0.60728 0.0
C1252 C 0.55116 0.38172 0.56294 0.0
C1253 C 0.54754 0.37451 0.52873 0.0
C1254 C 0.52974 0.34028 0.58052 0.0
C1255 C 0.53547 0.34995 0.52149 0.0
C1256 C 0.50185 0.29802 0.59898 0.0
C1257 C 0.51376 0.31183 0.66625 0.0
N1258 N 0.52683 0.33373 0.54715 0.0
N1259 N 0.52417 0.32784 0.64059 0.0
H1260 H 0.62844 0.14328 0.52898 0.0
H1261 H 0.70131 0.25166 0.65502 0.0
H1262 H 0.6315 0.21086 0.51334 0.0
H1263 H 0.72296 0.20004 0.63092 0.0
H1264 H 0.67167 0.23514 0.60896 0.0
H1265 H 0.65876 0.16166 0.57337 0.0
C1266 C 0.63538 0.16196 0.53504 0.0
C1267 C 0.62749 0.1756 0.51743 0.0
C1268 C 0.68307 0.22762 0.61373 0.0
C1269 C 0.66207 0.19664 0.56829 0.0
C1270 C 0.69991 0.23696 0.63996 0.0
C1271 C 0.7146 0.22719 0.64678 0.0
C1272 C 0.6806 0.20806 0.59484 0.0
C1273 C 0.71208 0.20819 0.62648 0.0
C1274 C 0.65279 0.17245 0.5602 0.0
C1275 C 0.6372 0.19976 0.52623 0.0
N1276 N 0.69522 0.19907 0.6017 0.0
N1277 N 0.65392 0.20953 0.55128 0.0
H1278 H 0.52926 0.1788 0.01373 0.0
H1279 H 0.54453 0.22602 0.2055 0.0
H1280 H 0.58267 0.18174 0.08268 0.0
H1281 H 0.48915 0.21957 0.1375 0.0
H1282 H 0.56101 0.21322 0.15945 0.0
H1283 H 0.51654 0.19687 0.05741 0.0
C1284 C 0.5384 0.18333 0.03803 0.0
C1285 C 0.55699 0.17859 0.0446 0.0
C1286 C 0.54534 0.21475 0.15454 0.0
C1287 C 0.54242 0.19932 0.09487 0.0
C1288 C 0.53594 0.22211 0.18082 0.0
C1289 C 0.51531 0.22371 0.17545 0.0
C1290 C 0.53404 0.20893 0.12264 0.0
C1291 C 0.505 0.21848 0.14289 0.0
C1292 C 0.53111 0.19367 0.06298 0.0
C1293 C 0.5682 0.18497 0.07653 0.0
N1294 N 0.51439 0.2112 0.1178 0.0
N1295 N 0.56066 0.19491 0.10053 0.0
H1296 H 0.78886 0.35145 0.95822 0.0
H1297 H 0.79865 0.31126 0.1469 0.0
H1298 H 0.83444 0.39967 0.0364 0.0
H1299 H 0.75108 0.26232 0.07092 0.0
H1300 H 0.80965 0.34421 0.10761 0.0
H1301 H 0.77226 0.31911 -0.0 0.0
C1302 C 0.79519 0.35532 0.98424 0.0
C1303 C 0.81325 0.37828 0.99374 0.0
C1304 C 0.79672 0.3263 0.0995 0.0
C1305 C 0.79445 0.3413 0.04157 0.0
C1306 C 0.79045 0.30742 0.12194 0.0
C1307 C 0.77405 0.28393 0.1121 0.0
C1308 C 0.78665 0.32174 0.0668 0.0
C1309 C 0.76388 0.28013 0.07952 0.0
C1310 C 0.78574 0.33682 0.00805 0.0
C1311 C 0.8207 0.38223 0.02783 0.0
N1312 N 0.77047 0.29884 0.05791 0.0
N1313 N 0.81141 0.3639 0.0504 0.0
H1314 H 0.59953 0.44608 0.045 0.0
H1315 H 0.7295 0.46831 0.09294 0.0
H1316 H 0.6428 0.43133 0.97646 0.0
H1317 H 0.6876 0.48737 0.15765 0.0
H1318 H 0.69651 0.45107 0.05207 0.0
H1319 H 0.63011 0.4575 0.08875 0.0
C1320 C 0.61539 0.44508 0.0392 0.0
C1321 C 0.61868 0.43792 0.0069 0.0
C1322 C 0.69452 0.45892 0.07531 0.0
C1323 C 0.65388 0.4511 0.05691 0.0
C1324 C 0.71333 0.46874 0.09867 0.0
C1325 C 0.71139 0.47946 0.12866 0.0
C1326 C 0.67361 0.4598 0.08203 0.0
C1327 C 0.68998 0.47945 0.13477 0.0
C1328 C 0.63288 0.45164 0.06421 0.0
C1329 C 0.63956 0.43686 0.00094 0.0
N1330 N 0.672 0.46988 0.11162 0.0
N1331 N 0.65644 0.44353 0.02564 0.0
H1332 H 0.45497 0.8096 0.02023 0.0
H1333 H 0.46268 0.79286 0.81978 0.0
H1334 H 0.43433 0.84446 0.94488 0.0
H1335 H 0.4972 0.77169 0.89497 0.0
H1336 H 0.44761 0.80751 0.86542 0.0
H1337 H 0.46603 0.79132 0.97465 0.0
C1338 C 0.45266 0.81335 0.99409 0.0
C1339 C 0.44382 0.82871 0.98637 0.0
C1340 C 0.45841 0.79958 0.8719 0.0
C1341 C 0.45645 0.80777 0.93403 0.0
C1342 C 0.46695 0.79113 0.84589 0.0
C1343 C 0.48134 0.78115 0.85356 0.0
C1344 C 0.46415 0.79789 0.90585 0.0
C1345 C 0.48629 0.77938 0.88786 0.0
C1346 C 0.45903 0.80293 0.96808 0.0
C1347 C 0.44118 0.83284 0.952 0.0
N1348 N 0.47774 0.78771 0.91272 0.0
N1349 N 0.4475 0.82245 0.92709 0.0
H1350 H 0.22372 0.68062 0.83207 0.0
H1351 H 0.20446 0.64767 0.02995 0.0
H1352 H 0.23712 0.73202 0.91155 0.0
H1353 H 0.17247 0.59561 0.94943 0.0
H1354 H 0.22413 0.67899 0.98715 0.0
H1355 H 0.2125 0.64968 0.87533 0.0
C1356 C 0.22457 0.68548 0.85863 0.0
C1357 C 0.23111 0.7089 0.8682 0.0
C1358 C 0.21298 0.66068 0.9789 0.0
C1359 C 0.21831 0.67357 0.91776 0.0
C1360 C 0.20181 0.64277 0.00329 0.0
C1361 C 0.18657 0.61902 0.99323 0.0
C1362 C 0.20903 0.65477 0.94422 0.0
C1363 C 0.18386 0.61372 0.95831 0.0
C1364 C 0.21809 0.66778 0.88328 0.0
C1365 C 0.23195 0.71415 0.90301 0.0
N1366 N 0.19487 0.63148 0.93505 0.0
N1367 N 0.2255 0.69658 0.92654 0.0
H1368 H 0.39239 0.55437 0.9415 0.0
H1369 H 0.25837 0.48486 0.87212 0.0
H1370 H 0.33056 0.52864 0.00656 0.0
H1371 H 0.32 0.52157 0.80685 0.0
H1372 H 0.28448 0.50081 0.92172 0.0
H1373 H 0.36618 0.5425 0.89182 0.0
C1374 C 0.37331 0.54631 0.94535 0.0
C1375 C 0.36365 0.54239 0.97826 0.0
C1376 C 0.29227 0.5055 0.89655 0.0
C1377 C 0.33353 0.52866 0.92148 0.0
C1378 C 0.27738 0.49638 0.8682 0.0
C1379 C 0.28703 0.50179 0.83527 0.0
C1380 C 0.31703 0.51997 0.89196 0.0
C1381 C 0.31177 0.51689 0.83175 0.0
C1382 C 0.35836 0.53958 0.91696 0.0
C1383 C 0.3388 0.53197 0.98168 0.0
N1384 N 0.32594 0.5253 0.85975 0.0
N1385 N 0.32459 0.52532 0.95366 0.0
H1386 H 0.15792 0.58535 0.42597 0.0
H1387 H 0.22602 0.51194 0.40076 0.0
H1388 H 0.18221 0.55921 0.50905 0.0
H1389 H 0.21014 0.54578 0.31813 0.0
H1390 H 0.21199 0.53105 0.44102 0.0
H1391 H 0.17889 0.57307 0.38618 0.0
C1392 C 0.16784 0.57724 0.43589 0.0
C1393 C 0.1681 0.57309 0.47088 0.0
C1394 C 0.21176 0.53447 0.4141 0.0
C1395 C 0.19199 0.55884 0.42548 0.0
C1396 C 0.21976 0.52353 0.39109 0.0
C1397 C 0.21907 0.5271 0.356 0.0
C1398 C 0.20281 0.54891 0.40195 0.0
C1399 C 0.21089 0.54243 0.34495 0.0
C1400 C 0.17981 0.57023 0.41315 0.0
C1401 C 0.18135 0.56261 0.48228 0.0
N1402 N 0.20287 0.55258 0.36783 0.0
N1403 N 0.19256 0.55565 0.45963 0.0
H1404 H 0.46468 0.64783 0.48039 0.0
H1405 H 0.45333 0.6863 0.29089 0.0
H1406 H 0.41434 0.59926 0.40657 0.0
H1407 H 0.50709 0.73289 0.3627 0.0
H1408 H 0.4361 0.65538 0.33464 0.0
H1409 H 0.47774 0.68022 0.43929 0.0
C1410 C 0.45627 0.64397 0.45558 0.0
C1411 C 0.43849 0.62071 0.44685 0.0
C1412 C 0.45157 0.67242 0.34088 0.0
C1413 C 0.45343 0.65782 0.39954 0.0
C1414 C 0.4614 0.69012 0.31594 0.0
C1415 C 0.48181 0.71218 0.32305 0.0
C1416 C 0.46221 0.67679 0.37321 0.0
C1417 C 0.49144 0.71611 0.35599 0.0
C1418 C 0.46376 0.66251 0.43209 0.0
C1419 C 0.42818 0.61686 0.41436 0.0
N1420 N 0.48164 0.69855 0.37977 0.0
N1421 N 0.43589 0.63521 0.39182 0.0
H1422 H 0.38581 0.83018 0.45837 0.0
H1423 H 0.24773 0.73756 0.42328 0.0
H1424 H 0.33735 0.78349 0.53534 0.0
H1425 H 0.29769 0.78127 0.34553 0.0
H1426 H 0.28065 0.75248 0.46414 0.0
H1427 H 0.35415 0.8108 0.41605 0.0
C1428 C 0.36856 0.81575 0.46635 0.0
C1429 C 0.3642 0.80858 0.50052 0.0
C1430 C 0.28442 0.75868 0.43808 0.0
C1431 C 0.32777 0.78636 0.45219 0.0
C1432 C 0.26562 0.75016 0.41473 0.0
C1433 C 0.2699 0.7583 0.38097 0.0
C1434 C 0.30765 0.77552 0.42762 0.0
C1435 C 0.29348 0.77458 0.37132 0.0
C1436 C 0.35047 0.80467 0.44216 0.0
C1437 C 0.34151 0.78969 0.50932 0.0
N1438 N 0.31141 0.78275 0.39456 0.0
N1439 N 0.3241 0.77936 0.48536 0.0
H1440 H 0.28314 0.14286 0.10536 0.0
H1441 H 0.38709 0.18531 0.24427 0.0
H1442 H 0.27109 0.11921 0.2099 0.0
H1443 H 0.39945 0.20874 0.13963 0.0
H1444 H 0.34451 0.16119 0.23214 0.0
H1445 H 0.32578 0.16711 0.11736 0.0
C1446 C 0.28945 0.14273 0.13084 0.0
C1447 C 0.2735 0.12898 0.15669 0.0
C1448 C 0.35651 0.17161 0.21182 0.0
C1449 C 0.32233 0.15676 0.17059 0.0
C1450 C 0.38086 0.18542 0.21873 0.0
C1451 C 0.39689 0.19907 0.1929 0.0
C1452 C 0.34808 0.1714 0.17884 0.0
C1453 C 0.38775 0.1985 0.16031 0.0
C1454 C 0.31382 0.1566 0.13767 0.0
C1455 C 0.28272 0.12952 0.1892 0.0
N1456 N 0.36395 0.18487 0.1542 0.0
N1457 N 0.30652 0.1432 0.19523 0.0
H1458 H 0.80456 0.18277 0.23955 0.0
H1459 H 0.85224 0.14087 0.08077 0.0
H1460 H 0.80189 0.20323 0.13581 0.0
H1461 H 0.84933 0.11603 0.18356 0.0
H1462 H 0.83406 0.16405 0.10035 0.0
H1463 H 0.8212 0.15839 0.21942 0.0
C1464 C 0.80744 0.18211 0.21252 0.0
C1465 C 0.80187 0.19511 0.18934 0.0
C1466 C 0.83735 0.15349 0.1186 0.0
C1467 C 0.82099 0.16725 0.1661 0.0
C1468 C 0.84776 0.14026 0.10745 0.0
C1469 C 0.85236 0.12652 0.13057 0.0
C1470 C 0.83158 0.15303 0.15315 0.0
C1471 C 0.84613 0.12638 0.16483 0.0
C1472 C 0.81693 0.16816 0.20103 0.0
C1473 C 0.80594 0.19352 0.15459 0.0
N1474 N 0.83612 0.13948 0.17508 0.0
N1475 N 0.81532 0.1799 0.14403 0.0
H1476 H 0.7955 0.60176 0.20999 0.0
H1477 H 0.83151 0.69814 0.06104 0.0
H1478 H 0.78435 0.58343 0.10329 0.0
H1479 H 0.84696 0.71662 0.16724 0.0
H1480 H 0.8129 0.65594 0.07615 0.0
H1481 H 0.81345 0.64387 0.19489 0.0
C1482 C 0.79685 0.60658 0.18337 0.0
C1483 C 0.7884 0.58902 0.15785 0.0
C1484 C 0.82034 0.66923 0.09615 0.0
C1485 C 0.80888 0.63725 0.1404 0.0
C1486 C 0.83093 0.69334 0.08755 0.0
C1487 C 0.84085 0.71095 0.11291 0.0
C1488 C 0.81963 0.66266 0.13037 0.0
C1489 C 0.83957 0.70366 0.14684 0.0
C1490 C 0.8071 0.63065 0.17477 0.0
C1491 C 0.79064 0.59635 0.1238 0.0
N1492 N 0.82918 0.68007 0.15457 0.0
N1493 N 0.80063 0.61991 0.11607 0.0
H1494 H 0.21365 0.38886 0.26823 0.0
H1495 H 0.13246 0.29217 0.40812 0.0
H1496 H 0.19368 0.4072 0.36364 0.0
H1497 H 0.14886 0.27412 0.30978 0.0
H1498 H 0.15598 0.33448 0.39333 0.0
H1499 H 0.19139 0.34681 0.28424 0.0
C1500 C 0.20465 0.38407 0.29262 0.0
C1501 C 0.20548 0.40159 0.31459 0.0
C1502 C 0.15443 0.32125 0.375 0.0
C1503 C 0.17987 0.3534 0.33306 0.0
C1504 C 0.14099 0.29709 0.38342 0.0
C1505 C 0.13865 0.27957 0.36014 0.0
C1506 C 0.16565 0.32794 0.34309 0.0
C1507 C 0.15013 0.287 0.32851 0.0
C1508 C 0.19189 0.36002 0.30172 0.0
C1509 C 0.19348 0.39429 0.34588 0.0
N1510 N 0.16312 0.31061 0.32094 0.0
N1511 N 0.18114 0.37074 0.35415 0.0
H1512 H 0.59606 0.80827 0.36809 0.0
H1513 H 0.72747 0.84807 0.29968 0.0
H1514 H 0.61172 0.80078 0.26347 0.0
H1515 H 0.71165 0.8563 0.40393 0.0
H1516 H 0.68497 0.82952 0.28621 0.0
H1517 H 0.63827 0.825 0.38194 0.0
C1518 C 0.60837 0.81015 0.34801 0.0
C1519 C 0.60034 0.80315 0.31455 0.0
C1520 C 0.6908 0.83533 0.31205 0.0
C1521 C 0.64871 0.82227 0.33025 0.0
C1522 C 0.71506 0.84589 0.31977 0.0
C1523 C 0.72315 0.85382 0.35296 0.0
C1524 C 0.67451 0.8327 0.33769 0.0
C1525 C 0.70625 0.85051 0.37797 0.0
C1526 C 0.63248 0.81969 0.35595 0.0
C1527 C 0.61711 0.80597 0.28961 0.0
N1528 N 0.68276 0.84027 0.36979 0.0
N1529 N 0.6405 0.81532 0.29796 0.0
H1530 H 0.19595 0.78922 0.34928 0.0
H1531 H 0.13082 0.86079 0.28998 0.0
H1532 H 0.18984 0.80501 0.24426 0.0
H1533 H 0.14656 0.85428 0.39489 0.0
H1534 H 0.15104 0.83906 0.2727 0.0
H1535 H 0.17628 0.81149 0.3665 0.0
C1536 C 0.19044 0.79734 0.32983 0.0
C1537 C 0.19456 0.79526 0.29527 0.0
C1538 C 0.15013 0.84245 0.29949 0.0
C1539 C 0.17204 0.82077 0.31481 0.0
C1540 C 0.13858 0.85485 0.30938 0.0
C1541 C 0.13698 0.85934 0.34394 0.0
C1542 C 0.16004 0.83437 0.32434 0.0
C1543 C 0.14738 0.85124 0.36796 0.0
C1544 C 0.17927 0.8101 0.33969 0.0
C1545 C 0.18707 0.80618 0.2712 0.0
N1546 N 0.15839 0.83907 0.35771 0.0
N1547 N 0.17614 0.81843 0.28142 0.0
H1548 H 0.70658 0.85702 0.90508 0.0
H1549 H 0.61668 0.80351 0.74734 0.0
H1550 H 0.72982 0.86122 0.80103 0.0
H1551 H 0.59396 0.79408 0.85228 0.0
H1552 H 0.65823 0.82501 0.76631 0.0
H1553 H 0.66517 0.83446 0.88598 0.0
C1554 C 0.70299 0.85322 0.87819 0.0
C1555 C 0.72171 0.86105 0.85461 0.0
C1556 C 0.64415 0.81817 0.78518 0.0
C1557 C 0.67429 0.83518 0.83255 0.0
C1558 C 0.62041 0.80589 0.77437 0.0
C1559 C 0.6018 0.79702 0.79826 0.0
C1560 C 0.64932 0.8217 0.82012 0.0
C1561 C 0.60772 0.80061 0.83295 0.0
C1562 C 0.67932 0.84029 0.86731 0.0
C1563 C 0.71595 0.85555 0.8201 0.0
N1564 N 0.63095 0.81274 0.84282 0.0
N1565 N 0.69275 0.84298 0.81011 0.0
H1566 H 0.20249 0.80158 0.8757 0.0
H1567 H 0.12134 0.8577 0.8223 0.0
H1568 H 0.18791 0.81131 0.77152 0.0
H1569 H 0.14135 0.85419 0.92604 0.0
H1570 H 0.144 0.83884 0.80345 0.0
H1571 H 0.17876 0.81924 0.89481 0.0
C1572 C 0.19432 0.80745 0.85683 0.0
C1573 C 0.19722 0.80499 0.82194 0.0
C1574 C 0.14341 0.84216 0.83034 0.0
C1575 C 0.16996 0.82515 0.84367 0.0
C1576 C 0.13042 0.85288 0.84115 0.0
C1577 C 0.1295 0.85759 0.87582 0.0
C1578 C 0.15554 0.83605 0.85436 0.0
C1579 C 0.14162 0.85095 0.89906 0.0
C1580 C 0.18077 0.81753 0.86777 0.0
C1581 C 0.1862 0.81289 0.79866 0.0
N1582 N 0.15416 0.84054 0.8879 0.0
N1583 N 0.17304 0.82259 0.80996 0.0
H1584 H 0.17596 0.3926 0.8654 0.0
H1585 H 0.14598 0.26191 0.80604 0.0
H1586 H 0.19839 0.37767 0.76942 0.0
H1587 H 0.12248 0.27624 0.90155 0.0
H1588 H 0.16568 0.30441 0.79259 0.0
H1589 H 0.15648 0.35013 0.87941 0.0
C1590 C 0.17678 0.3804 0.84725 0.0
C1591 C 0.18883 0.38871 0.81618 0.0
C1592 C 0.15624 0.29828 0.81651 0.0
C1593 C 0.16661 0.34009 0.83208 0.0
C1594 C 0.14499 0.274 0.82423 0.0
C1595 C 0.13254 0.26549 0.85496 0.0
C1596 C 0.15504 0.31421 0.83967 0.0
C1597 C 0.13187 0.282 0.87754 0.0
C1598 C 0.16566 0.35615 0.85528 0.0
C1599 C 0.18931 0.37208 0.79366 0.0
N1600 N 0.14295 0.30557 0.86943 0.0
N1601 N 0.17837 0.34858 0.80207 0.0
H1602 H 0.82862 0.72554 0.6442 0.0
H1603 H 0.84645 0.61397 0.68431 0.0
H1604 H 0.89761 0.7307 0.65353 0.0
H1605 H 0.77747 0.6086 0.67326 0.0
H1606 H 0.86552 0.65678 0.67314 0.0
H1607 H 0.80955 0.68273 0.65533 0.0
C1608 C 0.83977 0.7177 0.64868 0.0
C1609 C 0.86476 0.73174 0.64792 0.0
C1610 C 0.84621 0.64623 0.67311 0.0
C1611 C 0.84303 0.68269 0.66057 0.0
C1612 C 0.8353 0.62177 0.67944 0.0
C1613 C 0.81031 0.60767 0.67974 0.0
C1614 C 0.83205 0.65671 0.66705 0.0
C1615 C 0.79679 0.61877 0.67328 0.0
C1616 C 0.82886 0.69323 0.65498 0.0
C1617 C 0.87829 0.72058 0.65388 0.0
N1618 N 0.80783 0.64264 0.66725 0.0
N1619 N 0.86725 0.69671 0.65992 0.0
H1620 H 0.2511 0.14455 0.69425 0.0
H1621 H 0.37912 0.17027 0.62834 0.0
H1622 H 0.2615 0.11395 0.6026 0.0
H1623 H 0.3685 0.19982 0.72092 0.0
H1624 H 0.33608 0.1498 0.6181 0.0
H1625 H 0.29417 0.16528 0.70417 0.0
C1626 C 0.26243 0.14218 0.67621 0.0
C1627 C 0.25267 0.12747 0.64758 0.0
C1628 C 0.34318 0.16077 0.64066 0.0
C1629 C 0.30198 0.15116 0.65874 0.0
C1630 C 0.36776 0.17247 0.64651 0.0
C1631 C 0.37744 0.18676 0.67554 0.0
C1632 C 0.32817 0.1634 0.664 0.0
C1633 C 0.36184 0.18897 0.6982 0.0
C1634 C 0.28702 0.15403 0.68189 0.0
C1635 C 0.26823 0.12509 0.62505 0.0
N1636 N 0.338 0.17741 0.69195 0.0
N1637 N 0.2921 0.1368 0.63112 0.0
H1638 H 0.85324 0.12351 0.70084 0.0
H1639 H 0.82413 0.22287 0.63223 0.0
H1640 H 0.87791 0.15965 0.60445 0.0
H1641 H 0.79774 0.18592 0.72772 0.0
H1642 H 0.84412 0.19991 0.62194 0.0
H1643 H 0.8328 0.14613 0.71137 0.0
C1644 C 0.85433 0.13616 0.68187 0.0
C1645 C 0.86733 0.13971 0.65173 0.0
C1646 C 0.83396 0.19681 0.64516 0.0
C1647 C 0.84403 0.16567 0.66365 0.0
C1648 C 0.82255 0.20994 0.65107 0.0
C1649 C 0.80924 0.20632 0.68089 0.0
C1650 C 0.83209 0.17991 0.66923 0.0
C1651 C 0.80782 0.1893 0.70438 0.0
C1652 C 0.84267 0.14908 0.68791 0.0
C1653 C 0.86812 0.15634 0.62805 0.0
N1654 N 0.81911 0.17672 0.69804 0.0
N1655 N 0.85667 0.1687 0.63455 0.0
H1656 H 0.06785 0.54667 0.49166 0.0
H1657 H 0.92728 0.46261 0.52087 0.0
H1658 H 0.0358 0.52185 0.59052 0.0
H1659 H 0.9592 0.49094 0.42298 0.0
H1660 H 0.96692 0.48356 0.54677 0.0
H1661 H 0.02818 0.52591 0.46601 0.0
C1662 C 0.05246 0.53689 0.50801 0.0
C1663 C 0.05516 0.53599 0.54332 0.0
C1664 C 0.96525 0.48519 0.51962 0.0
C1665 C 0.00965 0.5121 0.51405 0.0
C1666 C 0.94262 0.4732 0.50479 0.0
C1667 C 0.93991 0.47503 0.46968 0.0
C1668 C 0.98533 0.49908 0.4992 0.0
C1669 C 0.96043 0.48902 0.45014 0.0
C1670 C 0.0298 0.52503 0.49332 0.0
C1671 C 0.03457 0.52304 0.5632 0.0
N1672 N 0.98226 0.50051 0.46517 0.0
N1673 N 0.01269 0.51157 0.54827 0.0
H1674 H 0.46774 0.54272 0.47193 0.0
H1675 H 0.54193 0.4792 0.52635 0.0
H1676 H 0.48629 0.53715 0.57572 0.0
H1677 H 0.52653 0.48735 0.42192 0.0
H1678 H 0.5217 0.50059 0.54473 0.0
H1679 H 0.48904 0.52241 0.45293 0.0
C1680 C 0.47627 0.53721 0.49073 0.0
C1681 C 0.47521 0.54163 0.52548 0.0
C1682 C 0.52278 0.49777 0.51778 0.0
C1683 C 0.49964 0.51842 0.50391 0.0
C1684 C 0.53436 0.48555 0.50725 0.0
C1685 C 0.53589 0.48142 0.47253 0.0
C1686 C 0.51258 0.50589 0.49345 0.0
C1687 C 0.52577 0.49011 0.44895 0.0
C1688 C 0.48846 0.52565 0.47986 0.0
C1689 C 0.48662 0.53413 0.54868 0.0
N1690 N 0.51447 0.50188 0.45986 0.0
N1691 N 0.49833 0.52288 0.53748 0.0
H1692 H 0.55117 0.04712 0.44794 0.0
H1693 H 0.44853 0.93663 0.55067 0.0
H1694 H 0.50534 0.05365 0.52192 0.0
H1695 H 0.49521 0.92992 0.47843 0.0
H1696 H 0.46875 0.97944 0.53963 0.0
H1697 H 0.53057 0.00412 0.45807 0.0
C1698 C 0.53677 0.03952 0.46633 0.0
C1699 C 0.52998 0.05403 0.48414 0.0
C1700 C 0.47458 0.96863 0.52615 0.0
C1701 C 0.50631 0.00478 0.49582 0.0
C1702 C 0.46302 0.94415 0.53242 0.0
C1703 C 0.47021 0.92965 0.51546 0.0
C1704 C 0.49348 0.97876 0.50274 0.0
C1705 C 0.48909 0.94041 0.4921 0.0
C1706 C 0.52502 0.01495 0.47209 0.0
C1707 C 0.51119 0.04318 0.50763 0.0
N1708 N 0.50009 0.96433 0.48644 0.0
N1709 N 0.50002 0.01921 0.51278 0.0
H1710 H 0.55001 0.071 0.97934 0.0
H1711 H 0.43494 0.94516 0.02378 0.0
H1712 H 0.47897 0.06074 0.98958 0.0
H1713 H 0.50603 0.95557 0.01328 0.0
H1714 H 0.45072 0.98746 0.0115 0.0
H1715 H 0.53423 0.02881 0.99222 0.0
C1716 C 0.53109 0.05989 0.98439 0.0
C1717 C 0.51578 0.06943 0.98335 0.0
C1718 C 0.46287 0.9805 0.01186 0.0
C1719 C 0.49758 0.02104 0.99805 0.0
C1720 C 0.45387 0.95633 0.01883 0.0
C1721 C 0.46919 0.9468 0.01956 0.0
C1722 C 0.48737 0.99527 0.00553 0.0
C1723 C 0.49355 0.96213 0.013 0.0
C1724 C 0.52209 0.03578 0.9917 0.0
C1725 C 0.49143 0.05416 0.99007 0.0
N1726 N 0.50188 0.98561 0.00627 0.0
N1727 N 0.48308 0.03072 0.9971 0.0
H1728 H 0.92846 0.47041 0.00829 0.0
H1729 H 0.06862 0.52866 0.97357 0.0
H1730 H 0.95953 0.48516 0.90775 0.0
H1731 H 0.03707 0.51237 0.07381 0.0
H1732 H 0.02888 0.51293 0.94892 0.0
H1733 H 0.96822 0.4862 0.03268 0.0
C1734 C 0.94365 0.47704 0.99131 0.0
C1735 C 0.94064 0.47644 0.95589 0.0
C1736 C 0.03064 0.51276 0.97631 0.0
C1737 C 0.98627 0.49448 0.98371 0.0
C1738 C 0.05333 0.52171 0.99042 0.0
C1739 C 0.05618 0.52185 0.02584 0.0
C1740 C 0.01063 0.5039 0.99775 0.0
C1741 C 0.03572 0.51262 0.04638 0.0
C1742 C 0.96637 0.48602 0.00528 0.0
C1743 C 0.961 0.48527 0.93519 0.0
N1744 N 0.01383 0.50406 0.03203 0.0
N1745 N 0.98296 0.4939 0.94941 0.0
H1746 H 0.53954 0.48777 0.9426 0.0
H1747 H 0.45114 0.51169 0.05693 0.0
H1748 H 0.50402 0.44691 0.03236 0.0
H1749 H 0.48595 0.55183 0.96637 0.0
H1750 H 0.47116 0.48847 0.04922 0.0
H1751 H 0.52089 0.5121 0.95181 0.0
C1752 C 0.52785 0.48393 0.96431 0.0
C1753 C 0.52329 0.46522 0.98671 0.0
C1754 C 0.47445 0.50238 0.03106 0.0
C1755 C 0.50184 0.49304 0.99737 0.0
C1756 C 0.46302 0.51566 0.03544 0.0
C1757 C 0.46683 0.53371 0.0122 0.0
C1758 C 0.48981 0.50715 0.00323 0.0
C1759 C 0.48246 0.53807 0.98488 0.0
C1760 C 0.5172 0.49784 0.96954 0.0
C1761 C 0.50801 0.46112 0.01441 0.0
N1762 N 0.49334 0.52485 0.98112 0.0
N1763 N 0.4978 0.4749 0.01892 0.0
loop_
_geom_bond_atom_site_label_1
_geom_bond_atom_site_label_2
_geom_bond_distance
_geom_bond_site_symmetry_2
_ccdc_geom_bond_type
C0 O1 1.160 . S
C0 O7 1.185 . S
O1 C0 1.160 . S
O2 Zn3 1.899 . S
O2 C10 1.284 . S
Zn3 O2 1.899 . S
Zn3 O4 2.032 . S
Zn3 O7 2.086 . S
Zn3 O12 1.977 . S
O4 Zn3 2.032 . S
O4 C8 1.278 . S
C5 O6 1.203 . S
C5 O12 1.267 . S
O6 C5 1.203 . S
O7 C0 1.185 . S
O7 Zn3 2.086 . S
C8 O4 1.278 . S
C8 O9 1.211 . S
O9 C8 1.211 . S
C10 O2 1.284 . S
C10 O11 1.273 . S
O11 C10 1.273 . S
O12 Zn3 1.977 . S
O12 C5 1.267 . S
C13 O14 1.160 . S
C13 O20 1.185 . S
O14 C13 1.160 . S
O15 Zn16 1.899 . S
O15 C23 1.284 . S
Zn16 O15 1.899 . S
Zn16 O17 2.032 . S
Zn16 O20 2.086 . S
Zn16 O25 1.977 . S
O17 Zn16 2.032 . S
O17 C21 1.278 . S
C18 O19 1.203 . S
C18 O25 1.267 . S
O19 C18 1.203 . S
O20 C13 1.185 . S
O20 Zn16 2.086 . S
C21 O17 1.278 . S
C21 O22 1.211 . S
O22 C21 1.211 . S
C23 O15 1.284 . S
C23 O24 1.273 . S
O24 C23 1.273 . S
O25 Zn16 1.977 . S
O25 C18 1.267 . S
C26 O27 1.160 . S
C26 O33 1.185 . S
O27 C26 1.160 . S
O28 Zn29 1.899 . S
O28 C36 1.284 . S
Zn29 O28 1.899 . S
Zn29 O30 2.032 . S
Zn29 O33 2.086 . S
Zn29 O38 1.977 . S
O30 Zn29 2.032 . S
O30 C34 1.278 . S
C31 O32 1.203 . S
C31 O38 1.267 . S
O32 C31 1.203 . S
O33 C26 1.185 . S
O33 Zn29 2.086 . S
C34 O30 1.278 . S
C34 O35 1.211 . S
O35 C34 1.211 . S
C36 O28 1.284 . S
C36 O37 1.273 . S
O37 C36 1.273 . S
O38 Zn29 1.977 . S
O38 C31 1.267 . S
C39 O40 1.160 . S
C39 O46 1.185 . S
O40 C39 1.160 . S
O41 Zn42 1.899 . S
O41 C49 1.284 . S
Zn42 O41 1.899 . S
Zn42 O43 2.032 . S
Zn42 O46 2.086 . S
Zn42 O51 1.977 . S
O43 Zn42 2.032 . S
O43 C47 1.278 . S
C44 O45 1.203 . S
C44 O51 1.267 . S
O45 C44 1.203 . S
O46 C39 1.185 . S
O46 Zn42 2.086 . S
C47 O43 1.278 . S
C47 O48 1.211 . S
O48 C47 1.211 . S
C49 O41 1.284 . S
C49 O50 1.273 . S
O50 C49 1.273 . S
O51 Zn42 1.977 . S
O51 C44 1.267 . S
C52 O53 1.160 . S
C52 O59 1.185 . S
O53 C52 1.160 . S
O54 Zn55 1.899 . S
O54 C62 1.284 . S
Zn55 O54 1.899 . S
Zn55 O56 2.032 . S
Zn55 O59 2.086 . S
Zn55 O64 1.977 . S
O56 Zn55 2.032 . S
O56 C60 1.278 . S
C57 O58 1.203 . S
C57 O64 1.267 . S
O58 C57 1.203 . S
O59 C52 1.185 . S
O59 Zn55 2.086 . S
C60 O56 1.278 . S
C60 O61 1.211 . S
O61 C60 1.211 . S
C62 O54 1.284 . S
C62 O63 1.273 . S
O63 C62 1.273 . S
O64 Zn55 1.977 . S
O64 C57 1.267 . S
C65 O66 1.160 . S
C65 O72 1.185 . S
O66 C65 1.160 . S
O67 Zn68 1.899 . S
O67 C75 1.284 . S
Zn68 O67 1.899 . S
Zn68 O69 2.032 . S
Zn68 O72 2.086 . S
Zn68 O77 1.977 . S
O69 Zn68 2.032 . S
O69 C73 1.278 . S
C70 O71 1.203 . S
C70 O77 1.267 . S
O71 C70 1.203 . S
O72 C65 1.185 . S
O72 Zn68 2.086 . S
C73 O69 1.278 . S
C73 O74 1.211 . S
O74 C73 1.211 . S
C75 O67 1.284 . S
C75 O76 1.273 . S
O76 C75 1.273 . S
O77 Zn68 1.977 . S
O77 C70 1.267 . S
C78 O79 1.160 . S
C78 O85 1.185 . S
O79 C78 1.160 . S
O80 Zn81 1.899 . S
O80 C88 1.284 . S
Zn81 O80 1.899 . S
Zn81 O82 2.032 . S
Zn81 O85 2.086 . S
Zn81 O90 1.977 . S
O82 Zn81 2.032 . S
O82 C86 1.278 . S
C83 O84 1.203 . S
C83 O90 1.267 . S
O84 C83 1.203 . S
O85 C78 1.185 . S
O85 Zn81 2.086 . S
C86 O82 1.278 . S
C86 O87 1.211 . S
O87 C86 1.211 . S
C88 O80 1.284 . S
C88 O89 1.273 . S
O89 C88 1.273 . S
O90 Zn81 1.977 . S
O90 C83 1.267 . S
C91 O92 1.160 . S
C91 O98 1.185 . S
O92 C91 1.160 . S
O93 Zn94 1.899 . S
O93 C101 1.284 . S
Zn94 O93 1.899 . S
Zn94 O95 2.032 . S
Zn94 O98 2.086 . S
Zn94 O103 1.977 . S
O95 Zn94 2.032 . S
O95 C99 1.278 . S
C96 O97 1.203 . S
C96 O103 1.267 . S
O97 C96 1.203 . S
O98 C91 1.185 . S
O98 Zn94 2.086 . S
C99 O95 1.278 . S
C99 O100 1.211 . S
O100 C99 1.211 . S
C101 O93 1.284 . S
C101 O102 1.273 . S
O102 C101 1.273 . S
O103 Zn94 1.977 . S
O103 C96 1.267 . S
C104 O105 1.160 . S
C104 O111 1.185 . S
O105 C104 1.160 . S
O106 Zn107 1.899 . S
O106 C114 1.284 . S
Zn107 O106 1.899 . S
Zn107 O108 2.032 . S
Zn107 O111 2.086 . S
Zn107 O116 1.977 . S
O108 Zn107 2.032 . S
O108 C112 1.278 . S
C109 O110 1.203 . S
C109 O116 1.267 . S
O110 C109 1.203 . S
O111 C104 1.185 . S
O111 Zn107 2.086 . S
C112 O108 1.278 . S
C112 O113 1.211 . S
O113 C112 1.211 . S
C114 O106 1.284 . S
C114 O115 1.273 . S
O115 C114 1.273 . S
O116 Zn107 1.977 . S
O116 C109 1.267 . S
C117 O118 1.160 . S
C117 O124 1.185 . S
O118 C117 1.160 . S
O119 Zn120 1.899 . S
O119 C127 1.284 . S
Zn120 O119 1.899 . S
Zn120 O121 2.032 . S
Zn120 O124 2.086 . S
Zn120 O129 1.977 . S
O121 Zn120 2.032 . S
O121 C125 1.278 . S
C122 O123 1.203 . S
C122 O129 1.267 . S
O123 C122 1.203 . S
O124 C117 1.185 . S
O124 Zn120 2.086 . S
C125 O121 1.278 . S
C125 O126 1.211 . S
O126 C125 1.211 . S
C127 O119 1.284 . S
C127 O128 1.273 . S
O128 C127 1.273 . S
O129 Zn120 1.977 . S
O129 C122 1.267 . S
C130 O131 1.160 . S
C130 O137 1.185 . S
O131 C130 1.160 . S
O132 Zn133 1.899 . S
O132 C140 1.284 . S
Zn133 O132 1.899 . S
Zn133 O134 2.032 . S
Zn133 O137 2.086 . S
Zn133 O142 1.977 . S
O134 Zn133 2.032 . S
O134 C138 1.278 . S
C135 O136 1.203 . S
C135 O142 1.267 . S
O136 C135 1.203 . S
O137 C130 1.185 . S
O137 Zn133 2.086 . S
C138 O134 1.278 . S
C138 O139 1.211 . S
O139 C138 1.211 . S
C140 O132 1.284 . S
C140 O141 1.273 . S
O141 C140 1.273 . S
O142 Zn133 1.977 . S
O142 C135 1.267 . S
C143 O144 1.160 . S
C143 O150 1.185 . S
O144 C143 1.160 . S
O145 Zn146 1.899 . S
O145 C153 1.284 . S
Zn146 O145 1.899 . S
Zn146 O147 2.032 . S
Zn146 O150 2.086 . S
Zn146 O155 1.977 . S
O147 Zn146 2.032 . S
O147 C151 1.278 . S
C148 O149 1.203 . S
C148 O155 1.267 . S
O149 C148 1.203 . S
O150 C143 1.185 . S
O150 Zn146 2.086 . S
C151 O147 1.278 . S
C151 O152 1.211 . S
O152 C151 1.211 . S
C153 O145 1.284 . S
C153 O154 1.273 . S
O154 C153 1.273 . S
O155 Zn146 1.977 . S
O155 C148 1.267 . S
C156 O157 1.160 . S
C156 O163 1.185 . S
O157 C156 1.160 . S
O158 Zn159 1.899 . S
O158 C166 1.284 . S
Zn159 O158 1.899 . S
Zn159 O160 2.032 . S
Zn159 O163 2.086 . S
Zn159 O168 1.977 . S
O160 Zn159 2.032 . S
O160 C164 1.278 . S
C161 O162 1.203 . S
C161 O168 1.267 . S
O162 C161 1.203 . S
O163 C156 1.185 . S
O163 Zn159 2.086 . S
C164 O160 1.278 . S
C164 O165 1.211 . S
O165 C164 1.211 . S
C166 O158 1.284 . S
C166 O167 1.273 . S
O167 C166 1.273 . S
O168 Zn159 1.977 . S
O168 C161 1.267 . S
C169 O170 1.160 . S
C169 O176 1.185 . S
O170 C169 1.160 . S
O171 Zn172 1.899 . S
O171 C179 1.284 . S
Zn172 O171 1.899 . S
Zn172 O173 2.032 . S
Zn172 O176 2.086 . S
Zn172 O181 1.977 . S
O173 Zn172 2.032 . S
O173 C177 1.278 . S
C174 O175 1.203 . S
C174 O181 1.267 . S
O175 C174 1.203 . S
O176 C169 1.185 . S
O176 Zn172 2.086 . S
C177 O173 1.278 . S
C177 O178 1.211 . S
O178 C177 1.211 . S
C179 O171 1.284 . S
C179 O180 1.273 . S
O180 C179 1.273 . S
O181 Zn172 1.977 . S
O181 C174 1.267 . S
C182 O183 1.160 . S
C182 O189 1.185 . S
O183 C182 1.160 . S
O184 Zn185 1.899 . S
O184 C192 1.284 . S
Zn185 O184 1.899 . S
Zn185 O186 2.032 . S
Zn185 O189 2.086 . S
Zn185 O194 1.977 . S
O186 Zn185 2.032 . S
O186 C190 1.278 . S
C187 O188 1.203 . S
C187 O194 1.267 . S
O188 C187 1.203 . S
O189 C182 1.185 . S
O189 Zn185 2.086 . S
C190 O186 1.278 . S
C190 O191 1.211 . S
O191 C190 1.211 . S
C192 O184 1.284 . S
C192 O193 1.273 . S
O193 C192 1.273 . S
O194 Zn185 1.977 . S
O194 C187 1.267 . S
C195 O196 1.160 . S
C195 O202 1.185 . S
O196 C195 1.160 . S
O197 Zn198 1.899 . S
O197 C205 1.284 . S
Zn198 O197 1.899 . S
Zn198 O199 2.032 . S
Zn198 O202 2.086 . S
Zn198 O207 1.977 . S
O199 Zn198 2.032 . S
O199 C203 1.278 . S
C200 O201 1.203 . S
C200 O207 1.267 . S
O201 C200 1.203 . S
O202 C195 1.185 . S
O202 Zn198 2.086 . S
C203 O199 1.278 . S
C203 O204 1.211 . S
O204 C203 1.211 . S
C205 O197 1.284 . S
C205 O206 1.273 . S
O206 C205 1.273 . S
O207 Zn198 1.977 . S
O207 C200 1.267 . S
C208 O209 1.160 . S
C208 O215 1.185 . S
O209 C208 1.160 . S
O210 Zn211 1.899 . S
O210 C218 1.284 . S
Zn211 O210 1.899 . S
Zn211 O212 2.032 . S
Zn211 O215 2.086 . S
Zn211 O220 1.977 . S
O212 Zn211 2.032 . S
O212 C216 1.278 . S
C213 O214 1.203 . S
C213 O220 1.267 . S
O214 C213 1.203 . S
O215 C208 1.185 . S
O215 Zn211 2.086 . S
C216 O212 1.278 . S
C216 O217 1.211 . S
O217 C216 1.211 . S
C218 O210 1.284 . S
C218 O219 1.273 . S
O219 C218 1.273 . S
O220 Zn211 1.977 . S
O220 C213 1.267 . S
C221 O222 1.160 . S
C221 O228 1.185 . S
O222 C221 1.160 . S
O223 Zn224 1.899 . S
O223 C231 1.284 . S
Zn224 O223 1.899 . S
Zn224 O225 2.032 . S
Zn224 O228 2.086 . S
Zn224 O233 1.977 . S
O225 Zn224 2.032 . S
O225 C229 1.278 . S
C226 O227 1.203 . S
C226 O233 1.267 . S
O227 C226 1.203 . S
O228 C221 1.185 . S
O228 Zn224 2.086 . S
C229 O225 1.278 . S
C229 O230 1.211 . S
O230 C229 1.211 . S
C231 O223 1.284 . S
C231 O232 1.273 . S
O232 C231 1.273 . S
O233 Zn224 1.977 . S
O233 C226 1.267 . S
C234 O235 1.160 . S
C234 O241 1.185 . S
O235 C234 1.160 . S
O236 Zn237 1.899 . S
O236 C244 1.284 . S
Zn237 O236 1.899 . S
Zn237 O238 2.032 . S
Zn237 O241 2.086 . S
Zn237 O246 1.977 . S
O238 Zn237 2.032 . S
O238 C242 1.278 . S
C239 O240 1.203 . S
C239 O246 1.267 . S
O240 C239 1.203 . S
O241 C234 1.185 . S
O241 Zn237 2.086 . S
C242 O238 1.278 . S
C242 O243 1.211 . S
O243 C242 1.211 . S
C244 O236 1.284 . S
C244 O245 1.273 . S
O245 C244 1.273 . S
O246 Zn237 1.977 . S
O246 C239 1.267 . S
C247 O248 1.160 . S
C247 O254 1.185 . S
O248 C247 1.160 . S
O249 Zn250 1.899 . S
O249 C257 1.284 . S
Zn250 O249 1.899 . S
Zn250 O251 2.032 . S
Zn250 O254 2.086 . S
Zn250 O259 1.977 . S
O251 Zn250 2.032 . S
O251 C255 1.278 . S
C252 O253 1.203 . S
C252 O259 1.267 . S
O253 C252 1.203 . S
O254 C247 1.185 . S
O254 Zn250 2.086 . S
C255 O251 1.278 . S
C255 O256 1.211 . S
O256 C255 1.211 . S
C257 O249 1.284 . S
C257 O258 1.273 . S
O258 C257 1.273 . S
O259 Zn250 1.977 . S
O259 C252 1.267 . S
C260 O261 1.160 . S
C260 O267 1.185 . S
O261 C260 1.160 . S
O262 Zn263 1.899 . S
O262 C270 1.284 . S
Zn263 O262 1.899 . S
Zn263 O264 2.032 . S
Zn263 O267 2.086 . S
Zn263 O272 1.977 . S
O264 Zn263 2.032 . S
O264 C268 1.278 . S
C265 O266 1.203 . S
C265 O272 1.267 . S
O266 C265 1.203 . S
O267 C260 1.185 . S
O267 Zn263 2.086 . S
C268 O264 1.278 . S
C268 O269 1.211 . S
O269 C268 1.211 . S
C270 O262 1.284 . S
C270 O271 1.273 . S
O271 C270 1.273 . S
O272 Zn263 1.977 . S
O272 C265 1.267 . S
C273 O274 1.160 . S
C273 O280 1.185 . S
O274 C273 1.160 . S
O275 Zn276 1.899 . S
O275 C283 1.284 . S
Zn276 O275 1.899 . S
Zn276 O277 2.032 . S
Zn276 O280 2.086 . S
Zn276 O285 1.977 . S
O277 Zn276 2.032 . S
O277 C281 1.278 . S
C278 O279 1.203 . S
C278 O285 1.267 . S
O279 C278 1.203 . S
O280 C273 1.185 . S
O280 Zn276 2.086 . S
C281 O277 1.278 . S
C281 O282 1.211 . S
O282 C281 1.211 . S
C283 O275 1.284 . S
C283 O284 1.273 . S
O284 C283 1.273 . S
O285 Zn276 1.977 . S
O285 C278 1.267 . S
C286 O287 1.160 . S
C286 O293 1.185 . S
O287 C286 1.160 . S
O288 Zn289 1.899 . S
O288 C296 1.284 . S
Zn289 O288 1.899 . S
Zn289 O290 2.032 . S
Zn289 O293 2.086 . S
Zn289 O298 1.977 . S
O290 Zn289 2.032 . S
O290 C294 1.278 . S
C291 O292 1.203 . S
C291 O298 1.267 . S
O292 C291 1.203 . S
O293 C286 1.185 . S
O293 Zn289 2.086 . S
C294 O290 1.278 . S
C294 O295 1.211 . S
O295 C294 1.211 . S
C296 O288 1.284 . S
C296 O297 1.273 . S
O297 C296 1.273 . S
O298 Zn289 1.977 . S
O298 C291 1.267 . S
C299 O300 1.160 . S
C299 O306 1.185 . S
O300 C299 1.160 . S
O301 Zn302 1.899 . S
O301 C309 1.284 . S
Zn302 O301 1.899 . S
Zn302 O303 2.032 . S
Zn302 O306 2.086 . S
Zn302 O311 1.977 . S
O303 Zn302 2.032 . S
O303 C307 1.278 . S
C304 O305 1.203 . S
C304 O311 1.267 . S
O305 C304 1.203 . S
O306 C299 1.185 . S
O306 Zn302 2.086 . S
C307 O303 1.278 . S
C307 O308 1.211 . S
O308 C307 1.211 . S
C309 O301 1.284 . S
C309 O310 1.273 . S
O310 C309 1.273 . S
O311 Zn302 1.977 . S
O311 C304 1.267 . S
C312 O313 1.160 . S
C312 O319 1.185 . S
O313 C312 1.160 . S
O314 Zn315 1.899 . S
O314 C322 1.284 . S
Zn315 O314 1.899 . S
Zn315 O316 2.032 . S
Zn315 O319 2.086 . S
Zn315 O324 1.977 . S
O316 Zn315 2.032 . S
O316 C320 1.278 . S
C317 O318 1.203 . S
C317 O324 1.267 . S
O318 C317 1.203 . S
O319 C312 1.185 . S
O319 Zn315 2.086 . S
C320 O316 1.278 . S
C320 O321 1.211 . S
O321 C320 1.211 . S
C322 O314 1.284 . S
C322 O323 1.273 . S
O323 C322 1.273 . S
O324 Zn315 1.977 . S
O324 C317 1.267 . S
C325 O326 1.160 . S
C325 O332 1.185 . S
O326 C325 1.160 . S
O327 Zn328 1.899 . S
O327 C335 1.284 . S
Zn328 O327 1.899 . S
Zn328 O329 2.032 . S
Zn328 O332 2.086 . S
Zn328 O337 1.977 . S
O329 Zn328 2.032 . S
O329 C333 1.278 . S
C330 O331 1.203 . S
C330 O337 1.267 . S
O331 C330 1.203 . S
O332 C325 1.185 . S
O332 Zn328 2.086 . S
C333 O329 1.278 . S
C333 O334 1.211 . S
O334 C333 1.211 . S
C335 O327 1.284 . S
C335 O336 1.273 . S
O336 C335 1.273 . S
O337 Zn328 1.977 . S
O337 C330 1.267 . S
C338 O339 1.160 . S
C338 O345 1.185 . S
O339 C338 1.160 . S
O340 Zn341 1.899 . S
O340 C348 1.284 . S
Zn341 O340 1.899 . S
Zn341 O342 2.032 . S
Zn341 O345 2.086 . S
Zn341 O350 1.977 . S
O342 Zn341 2.032 . S
O342 C346 1.278 . S
C343 O344 1.203 . S
C343 O350 1.267 . S
O344 C343 1.203 . S
O345 C338 1.185 . S
O345 Zn341 2.086 . S
C346 O342 1.278 . S
C346 O347 1.211 . S
O347 C346 1.211 . S
C348 O340 1.284 . S
C348 O349 1.273 . S
O349 C348 1.273 . S
O350 Zn341 1.977 . S
O350 C343 1.267 . S
C351 O352 1.160 . S
C351 O358 1.185 . S
O352 C351 1.160 . S
O353 Zn354 1.899 . S
O353 C361 1.284 . S
Zn354 O353 1.899 . S
Zn354 O355 2.032 . S
Zn354 O358 2.086 . S
Zn354 O363 1.977 . S
O355 Zn354 2.032 . S
O355 C359 1.278 . S
C356 O357 1.203 . S
C356 O363 1.267 . S
O357 C356 1.203 . S
O358 C351 1.185 . S
O358 Zn354 2.086 . S
C359 O355 1.278 . S
C359 O360 1.211 . S
O360 C359 1.211 . S
C361 O353 1.284 . S
C361 O362 1.273 . S
O362 C361 1.273 . S
O363 Zn354 1.977 . S
O363 C356 1.267 . S
C364 O365 1.160 . S
C364 O371 1.185 . S
O365 C364 1.160 . S
O366 Zn367 1.899 . S
O366 C374 1.284 . S
Zn367 O366 1.899 . S
Zn367 O368 2.032 . S
Zn367 O371 2.086 . S
Zn367 O376 1.977 . S
O368 Zn367 2.032 . S
O368 C372 1.278 . S
C369 O370 1.203 . S
C369 O376 1.267 . S
O370 C369 1.203 . S
O371 C364 1.185 . S
O371 Zn367 2.086 . S
C372 O368 1.278 . S
C372 O373 1.211 . S
O373 C372 1.211 . S
C374 O366 1.284 . S
C374 O375 1.273 . S
O375 C374 1.273 . S
O376 Zn367 1.977 . S
O376 C369 1.267 . S
C377 O378 1.160 . S
C377 O384 1.185 . S
O378 C377 1.160 . S
O379 Zn380 1.899 . S
O379 C387 1.284 . S
Zn380 O379 1.899 . S
Zn380 O381 2.032 . S
Zn380 O384 2.086 . S
Zn380 O389 1.977 . S
O381 Zn380 2.032 . S
O381 C385 1.278 . S
C382 O383 1.203 . S
C382 O389 1.267 . S
O383 C382 1.203 . S
O384 C377 1.185 . S
O384 Zn380 2.086 . S
C385 O381 1.278 . S
C385 O386 1.211 . S
O386 C385 1.211 . S
C387 O379 1.284 . S
C387 O388 1.273 . S
O388 C387 1.273 . S
O389 Zn380 1.977 . S
O389 C382 1.267 . S
C390 O391 1.160 . S
C390 O397 1.185 . S
O391 C390 1.160 . S
O392 Zn393 1.899 . S
O392 C400 1.284 . S
Zn393 O392 1.899 . S
Zn393 O394 2.032 . S
Zn393 O397 2.086 . S
Zn393 O402 1.977 . S
O394 Zn393 2.032 . S
O394 C398 1.278 . S
C395 O396 1.203 . S
C395 O402 1.267 . S
O396 C395 1.203 . S
O397 C390 1.185 . S
O397 Zn393 2.086 . S
C398 O394 1.278 . S
C398 O399 1.211 . S
O399 C398 1.211 . S
C400 O392 1.284 . S
C400 O401 1.273 . S
O401 C400 1.273 . S
O402 Zn393 1.977 . S
O402 C395 1.267 . S
C403 O404 1.160 . S
C403 O410 1.185 . S
O404 C403 1.160 . S
O405 Zn406 1.899 . S
O405 C413 1.284 . S
Zn406 O405 1.899 . S
Zn406 O407 2.032 . S
Zn406 O410 2.086 . S
Zn406 O415 1.977 . S
O407 Zn406 2.032 . S
O407 C411 1.278 . S
C408 O409 1.203 . S
C408 O415 1.267 . S
O409 C408 1.203 . S
O410 C403 1.185 . S
O410 Zn406 2.086 . S
C411 O407 1.278 . S
C411 O412 1.211 . S
O412 C411 1.211 . S
C413 O405 1.284 . S
C413 O414 1.273 . S
O414 C413 1.273 . S
O415 Zn406 1.977 . S
O415 C408 1.267 . S
C416 O417 1.160 . S
C416 O423 1.185 . S
O417 C416 1.160 . S
O418 Zn419 1.899 . S
O418 C426 1.284 . S
Zn419 O418 1.899 . S
Zn419 O420 2.032 . S
Zn419 O423 2.086 . S
Zn419 O428 1.977 . S
O420 Zn419 2.032 . S
O420 C424 1.278 . S
C421 O422 1.203 . S
C421 O428 1.267 . S
O422 C421 1.203 . S
O423 C416 1.185 . S
O423 Zn419 2.086 . S
C424 O420 1.278 . S
C424 O425 1.211 . S
O425 C424 1.211 . S
C426 O418 1.284 . S
C426 O427 1.273 . S
O427 C426 1.273 . S
O428 Zn419 1.977 . S
O428 C421 1.267 . S
C429 O430 1.160 . S
C429 O436 1.185 . S
O430 C429 1.160 . S
O431 Zn432 1.899 . S
O431 C439 1.284 . S
Zn432 O431 1.899 . S
Zn432 O433 2.032 . S
Zn432 O436 2.086 . S
Zn432 O441 1.977 . S
O433 Zn432 2.032 . S
O433 C437 1.278 . S
C434 O435 1.203 . S
C434 O441 1.267 . S
O435 C434 1.203 . S
O436 C429 1.185 . S
O436 Zn432 2.086 . S
C437 O433 1.278 . S
C437 O438 1.211 . S
O438 C437 1.211 . S
C439 O431 1.284 . S
C439 O440 1.273 . S
O440 C439 1.273 . S
O441 Zn432 1.977 . S
O441 C434 1.267 . S
C442 O443 1.160 . S
C442 O449 1.185 . S
O443 C442 1.160 . S
O444 Zn445 1.899 . S
O444 C452 1.284 . S
Zn445 O444 1.899 . S
Zn445 O446 2.032 . S
Zn445 O449 2.086 . S
Zn445 O454 1.977 . S
O446 Zn445 2.032 . S
O446 C450 1.278 . S
C447 O448 1.203 . S
C447 O454 1.267 . S
O448 C447 1.203 . S
O449 C442 1.185 . S
O449 Zn445 2.086 . S
C450 O446 1.278 . S
C450 O451 1.211 . S
O451 C450 1.211 . S
C452 O444 1.284 . S
C452 O453 1.273 . S
O453 C452 1.273 . S
O454 Zn445 1.977 . S
O454 C447 1.267 . S
C455 O456 1.160 . S
C455 O462 1.185 . S
O456 C455 1.160 . S
O457 Zn458 1.899 . S
O457 C465 1.284 . S
Zn458 O457 1.899 . S
Zn458 O459 2.032 . S
Zn458 O462 2.086 . S
Zn458 O467 1.977 . S
O459 Zn458 2.032 . S
O459 C463 1.278 . S
C460 O461 1.203 . S
C460 O467 1.267 . S
O461 C460 1.203 . S
O462 C455 1.185 . S
O462 Zn458 2.086 . S
C463 O459 1.278 . S
C463 O464 1.211 . S
O464 C463 1.211 . S
C465 O457 1.284 . S
C465 O466 1.273 . S
O466 C465 1.273 . S
O467 Zn458 1.977 . S
O467 C460 1.267 . S
H468 C474 0.930 . S
H469 C478 0.930 . S
H470 C483 0.929 . S
H471 C481 0.929 . S
H472 C476 0.934 . S
H473 C482 0.929 . S
C474 H468 0.930 . S
C474 C475 1.367 . S
C474 C482 1.378 . S
C475 C474 1.367 . S
C475 C483 1.433 . S
C476 H472 0.934 . S
C476 C478 1.369 1_545 S
C476 C480 1.357 1_556 S
C477 C480 1.463 . S
C477 C482 1.350 . S
C477 N485 1.427 . S
C478 H469 0.930 . S
C478 C476 1.369 1_565 S
C478 C479 1.367 . S
C479 C478 1.367 . S
C479 C481 1.433 . S
C480 C476 1.357 1_554 S
C480 C477 1.463 . S
C480 N484 1.427 1_544 S
C481 H471 0.929 . S
C481 C479 1.433 . S
C481 N484 1.384 . S
C482 H473 0.929 . S
C482 C474 1.378 . S
C482 C477 1.350 . S
C483 H470 0.929 . S
C483 C475 1.433 . S
C483 N485 1.384 . S
N484 C480 1.427 1_566 S
N484 C481 1.384 . S
N485 C477 1.427 . S
N485 C483 1.384 . S
H486 C492 0.930 . S
H487 C496 0.930 . S
H488 C501 0.929 . S
H489 C499 0.929 . S
H490 C494 0.929 . S
H491 C500 0.929 1_556 S
C492 H486 0.930 . S
C492 C493 1.367 . S
C492 C500 1.378 . S
C493 C492 1.367 . S
C493 C501 1.433 . S
C494 H490 0.929 . S
C494 C496 1.378 1_554 S
C494 C498 1.350 1_455 S
C495 C498 1.463 . S
C495 C500 1.350 . S
C495 N503 1.427 . S
C496 H487 0.930 . S
C496 C494 1.378 1_556 S
C496 C497 1.367 . S
C497 C496 1.367 . S
C497 C499 1.433 . S
C498 C494 1.350 1_655 S
C498 C495 1.463 . S
C498 N502 1.427 1_554 S
C499 H489 0.929 . S
C499 C497 1.433 . S
C499 N502 1.384 1_455 S
C500 H491 0.929 1_554 S
C500 C492 1.378 . S
C500 C495 1.350 . S
C501 H488 0.929 . S
C501 C493 1.433 . S
C501 N503 1.384 . S
N502 C498 1.427 1_556 S
N502 C499 1.384 1_655 S
N503 C495 1.427 . S
N503 C501 1.384 . S
H504 C510 0.930 . S
H505 C514 0.930 . S
H506 C519 0.929 . S
H507 C517 0.929 . S
H508 C512 0.929 . S
H509 C518 0.929 . S
C510 H504 0.930 . S
C510 C511 1.367 . S
C510 C518 1.378 1_556 S
C511 C510 1.367 . S
C511 C519 1.433 . S
C512 H508 0.929 . S
C512 C514 1.378 . S
C512 C516 1.350 . S
C513 C516 1.463 . S
C513 C518 1.350 . S
C513 N521 1.427 1_554 S
C514 H505 0.930 . S
C514 C512 1.378 . S
C514 C515 1.367 . S
C515 C514 1.367 . S
C515 C517 1.433 . S
C516 C512 1.350 . S
C516 C513 1.463 . S
C516 N520 1.427 . S
C517 H507 0.929 . S
C517 C515 1.433 . S
C517 N520 1.384 . S
C518 H509 0.929 . S
C518 C510 1.378 1_554 S
C518 C513 1.350 . S
C519 H506 0.929 . S
C519 C511 1.433 . S
C519 N521 1.384 . S
N520 C516 1.427 . S
N520 C517 1.384 . S
N521 C513 1.427 1_556 S
N521 C519 1.384 . S
H522 C528 0.930 . S
H523 C532 0.930 . S
H524 C537 0.929 . S
H525 C535 0.929 . S
H526 C530 0.929 . S
H527 C536 0.929 . S
C528 H522 0.930 . S
C528 C529 1.367 . S
C528 C536 1.378 . S
C529 C528 1.367 . S
C529 C537 1.433 . S
C530 H526 0.929 . S
C530 C532 1.378 . S
C530 C534 1.350 . S
C531 C534 1.463 . S
C531 C536 1.350 1_455 S
C531 N539 1.427 . S
C532 H523 0.930 . S
C532 C530 1.378 . S
C532 C533 1.367 . S
C533 C532 1.367 . S
C533 C535 1.433 . S
C534 C530 1.350 . S
C534 C531 1.463 . S
C534 N538 1.427 . S
C535 H525 0.929 . S
C535 C533 1.433 . S
C535 N538 1.384 . S
C536 H527 0.929 . S
C536 C528 1.378 . S
C536 C531 1.350 1_655 S
C537 H524 0.929 . S
C537 C529 1.433 . S
C537 N539 1.384 1_655 S
N538 C534 1.427 . S
N538 C535 1.384 . S
N539 C531 1.427 . S
N539 C537 1.384 1_455 S
H540 C546 0.930 . S
H541 C550 0.930 . S
H542 C555 0.929 . S
H543 C553 0.929 . S
H544 C548 0.929 . S
H545 C554 0.929 . S
C546 H540 0.930 . S
C546 C547 1.367 . S
C546 C554 1.378 . S
C547 C546 1.367 . S
C547 C555 1.433 . S
C548 H544 0.929 . S
C548 C550 1.378 . S
C548 C552 1.350 . S
C549 C552 1.463 . S
C549 C554 1.350 . S
C549 N557 1.427 . S
C550 H541 0.930 . S
C550 C548 1.378 . S
C550 C551 1.367 . S
C551 C550 1.367 . S
C551 C553 1.433 . S
C552 C548 1.350 . S
C552 C549 1.463 . S
C552 N556 1.427 . S
C553 H543 0.929 . S
C553 C551 1.433 . S
C553 N556 1.384 . S
C554 H545 0.929 . S
C554 C546 1.378 . S
C554 C549 1.350 . S
C555 H542 0.929 . S
C555 C547 1.433 . S
C555 N557 1.384 . S
N556 C552 1.427 . S
N556 C553 1.384 . S
N557 C549 1.427 . S
N557 C555 1.384 . S
H558 C564 0.930 . S
H559 C568 0.930 . S
H560 C573 0.929 . S
H561 C571 0.929 . S
H562 C566 0.929 . S
H563 C572 0.929 . S
C564 H558 0.930 . S
C564 C565 1.367 . S
C564 C572 1.378 . S
C565 C564 1.367 . S
C565 C573 1.433 . S
C566 H562 0.929 . S
C566 C568 1.378 . S
C566 C570 1.350 1_545 S
C567 C570 1.463 . S
C567 C572 1.350 . S
C567 N575 1.427 . S
C568 H559 0.930 . S
C568 C566 1.378 . S
C568 C569 1.367 . S
C569 C568 1.367 . S
C569 C571 1.433 . S
C570 C566 1.350 1_565 S
C570 C567 1.463 . S
C570 N574 1.427 . S
C571 H561 0.929 . S
C571 C569 1.433 . S
C571 N574 1.384 1_545 S
C572 H563 0.929 . S
C572 C564 1.378 . S
C572 C567 1.350 . S
C573 H560 0.929 . S
C573 C565 1.433 . S
C573 N575 1.384 . S
N574 C570 1.427 . S
N574 C571 1.384 1_565 S
N575 C567 1.427 . S
N575 C573 1.384 . S
H576 C582 0.930 . S
H577 C586 0.930 . S
H578 C591 0.929 . S
H579 C589 0.929 . S
H580 C584 0.929 . S
H581 C590 0.929 . S
C582 H576 0.930 . S
C582 C583 1.367 . S
C582 C590 1.378 . S
C583 C582 1.367 . S
C583 C591 1.433 . S
C584 H580 0.929 . S
C584 C586 1.378 . S
C584 C588 1.350 . S
C585 C588 1.463 . S
C585 C590 1.350 1_566 S
C585 N593 1.427 1_566 S
C586 H577 0.930 . S
C586 C584 1.378 . S
C586 C587 1.367 . S
C587 C586 1.367 . S
C587 C589 1.433 . S
C588 C584 1.350 . S
C588 C585 1.463 . S
C588 N592 1.427 . S
C589 H579 0.929 . S
C589 C587 1.433 . S
C589 N592 1.384 . S
C590 H581 0.929 . S
C590 C582 1.378 . S
C590 C585 1.350 1_544 S
C591 H578 0.929 . S
C591 C583 1.433 . S
C591 N593 1.384 . S
N592 C588 1.427 . S
N592 C589 1.384 . S
N593 C585 1.427 1_544 S
N593 C591 1.384 . S
H594 C600 0.930 . S
H595 C604 0.930 . S
H596 C609 0.929 . S
H597 C607 0.929 . S
H598 C602 0.929 . S
H599 C608 0.929 . S
C600 H594 0.930 . S
C600 C601 1.367 . S
C600 C608 1.378 1_655 S
C601 C600 1.367 . S
C601 C609 1.433 . S
C602 H598 0.929 . S
C602 C604 1.378 . S
C602 C606 1.350 . S
C603 C606 1.463 . S
C603 C608 1.350 1_556 S
C603 N611 1.427 1_455 S
C604 H595 0.930 . S
C604 C602 1.378 . S
C604 C605 1.367 . S
C605 C604 1.367 . S
C605 C607 1.433 . S
C606 C602 1.350 . S
C606 C603 1.463 . S
C606 N610 1.427 . S
C607 H597 0.929 . S
C607 C605 1.433 . S
C607 N610 1.384 . S
C608 H599 0.929 . S
C608 C600 1.378 1_455 S
C608 C603 1.350 1_554 S
C609 H596 0.929 . S
C609 C601 1.433 . S
C609 N611 1.384 1_554 S
N610 C606 1.427 . S
N610 C607 1.384 . S
N611 C603 1.427 1_655 S
N611 C609 1.384 1_556 S
H612 C618 0.930 . S
H613 C622 0.930 . S
H614 C627 0.929 . S
H615 C625 0.929 . S
H616 C620 0.929 . S
H617 C626 0.929 . S
C618 H612 0.930 . S
C618 C619 1.367 . S
C618 C626 1.378 . S
C619 C618 1.367 . S
C619 C627 1.433 . S
C620 H616 0.929 . S
C620 C622 1.378 . S
C620 C624 1.350 1_554 S
C621 C624 1.463 . S
C621 C626 1.350 . S
C621 N629 1.427 . S
C622 H613 0.930 . S
C622 C620 1.378 . S
C622 C623 1.367 . S
C623 C622 1.367 . S
C623 C625 1.433 . S
C624 C620 1.350 1_556 S
C624 C621 1.463 . S
C624 N628 1.427 1_556 S
C625 H615 0.929 . S
C625 C623 1.433 . S
C625 N628 1.384 . S
C626 H617 0.929 . S
C626 C618 1.378 . S
C626 C621 1.350 . S
C627 H614 0.929 . S
C627 C619 1.433 . S
C627 N629 1.384 . S
N628 C624 1.427 1_554 S
N628 C625 1.384 . S
N629 C621 1.427 . S
N629 C627 1.384 . S
H630 C636 0.930 . S
H631 C640 0.930 . S
H632 C645 0.929 . S
H633 C643 0.929 . S
H634 C638 0.929 . S
H635 C644 0.929 . S
C636 H630 0.930 . S
C636 C637 1.367 . S
C636 C644 1.378 . S
C637 C636 1.367 . S
C637 C645 1.433 . S
C638 H634 0.929 . S
C638 C640 1.378 1_655 S
C638 C642 1.350 . S
C639 C642 1.463 . S
C639 C644 1.350 . S
C639 N647 1.427 . S
C640 H631 0.930 . S
C640 C638 1.378 1_455 S
C640 C641 1.367 . S
C641 C640 1.367 . S
C641 C643 1.433 . S
C642 C638 1.350 . S
C642 C639 1.463 . S
C642 N646 1.427 1_655 S
C643 H633 0.929 . S
C643 C641 1.433 . S
C643 N646 1.384 . S
C644 H635 0.929 . S
C644 C636 1.378 . S
C644 C639 1.350 . S
C645 H632 0.929 . S
C645 C637 1.433 . S
C645 N647 1.384 . S
N646 C642 1.427 1_455 S
N646 C643 1.384 . S
N647 C639 1.427 . S
N647 C645 1.384 . S
H648 C654 0.930 . S
H649 C658 0.930 . S
H650 C663 0.929 . S
H651 C661 0.929 . S
H652 C656 0.929 . S
H653 C662 0.929 . S
C654 H648 0.930 . S
C654 C655 1.367 . S
C654 C662 1.378 . S
C655 C654 1.367 . S
C655 C663 1.433 . S
C656 H652 0.929 . S
C656 C658 1.378 . S
C656 C660 1.350 . S
C657 C660 1.463 . S
C657 C662 1.350 . S
C657 N665 1.427 . S
C658 H649 0.930 . S
C658 C656 1.378 . S
C658 C659 1.367 . S
C659 C658 1.367 . S
C659 C661 1.433 . S
C660 C656 1.350 . S
C660 C657 1.463 . S
C660 N664 1.427 . S
C661 H651 0.929 . S
C661 C659 1.433 . S
C661 N664 1.384 . S
C662 H653 0.929 . S
C662 C654 1.378 . S
C662 C657 1.350 . S
C663 H650 0.929 . S
C663 C655 1.433 . S
C663 N665 1.384 . S
N664 C660 1.427 . S
N664 C661 1.384 . S
N665 C657 1.427 . S
N665 C663 1.384 . S
H666 C672 0.930 . S
H667 C676 0.930 . S
H668 C681 0.929 . S
H669 C679 0.929 . S
H670 C674 0.929 . S
H671 C680 0.929 . S
C672 H666 0.930 . S
C672 C673 1.367 . S
C672 C680 1.378 . S
C673 C672 1.367 . S
C673 C681 1.433 . S
C674 H670 0.929 . S
C674 C676 1.378 1_545 S
C674 C678 1.350 . S
C675 C678 1.463 . S
C675 C680 1.350 . S
C675 N683 1.427 . S
C676 H667 0.930 . S
C676 C674 1.378 1_565 S
C676 C677 1.367 . S
C677 C676 1.367 . S
C677 C679 1.433 . S
C678 C674 1.350 . S
C678 C675 1.463 . S
C678 N682 1.427 1_545 S
C679 H669 0.929 . S
C679 C677 1.433 . S
C679 N682 1.384 . S
C680 H671 0.929 . S
C680 C672 1.378 . S
C680 C675 1.350 . S
C681 H668 0.929 . S
C681 C673 1.433 . S
C681 N683 1.384 . S
N682 C678 1.427 1_565 S
N682 C679 1.384 . S
N683 C675 1.427 . S
N683 C681 1.384 . S
H684 C690 0.930 . S
H685 C694 0.930 . S
H686 C699 0.929 . S
H687 C697 0.929 . S
H688 C692 0.929 . S
H689 C698 0.929 . S
C690 H684 0.930 . S
C690 C691 1.367 . S
C690 C698 1.378 . S
C691 C690 1.367 . S
C691 C699 1.433 . S
C692 H688 0.929 . S
C692 C694 1.378 . S
C692 C696 1.350 . S
C693 C696 1.463 . S
C693 C698 1.350 . S
C693 N701 1.427 . S
C694 H685 0.930 . S
C694 C692 1.378 . S
C694 C695 1.367 . S
C695 C694 1.367 . S
C695 C697 1.433 . S
C696 C692 1.350 . S
C696 C693 1.463 . S
C696 N700 1.427 . S
C697 H687 0.929 . S
C697 C695 1.433 . S
C697 N700 1.384 . S
C698 H689 0.929 . S
C698 C690 1.378 . S
C698 C693 1.350 . S
C699 H686 0.929 . S
C699 C691 1.433 . S
C699 N701 1.384 . S
N700 C696 1.427 . S
N700 C697 1.384 . S
N701 C693 1.427 . S
N701 C699 1.384 . S
H702 C708 0.930 . S
H703 C712 0.930 . S
H704 C717 0.929 . S
H705 C715 0.929 . S
H706 C710 0.929 . S
H707 C716 0.929 . S
C708 H702 0.930 . S
C708 C709 1.367 . S
C708 C716 1.378 . S
C709 C708 1.367 . S
C709 C717 1.433 . S
C710 H706 0.929 . S
C710 C712 1.378 . S
C710 C714 1.350 . S
C711 C714 1.463 . S
C711 C716 1.350 . S
C711 N719 1.427 . S
C712 H703 0.930 . S
C712 C710 1.378 . S
C712 C713 1.367 . S
C713 C712 1.367 . S
C713 C715 1.433 . S
C714 C710 1.350 . S
C714 C711 1.463 . S
C714 N718 1.427 . S
C715 H705 0.929 . S
C715 C713 1.433 . S
C715 N718 1.384 . S
C716 H707 0.929 . S
C716 C708 1.378 . S
C716 C711 1.350 . S
C717 H704 0.929 . S
C717 C709 1.433 . S
C717 N719 1.384 . S
N718 C714 1.427 . S
N718 C715 1.384 . S
N719 C711 1.427 . S
N719 C717 1.384 . S
H720 C726 0.930 . S
H721 C730 0.930 . S
H722 C735 0.929 . S
H723 C733 0.929 . S
H724 C728 0.929 . S
H725 C734 0.929 . S
C726 H720 0.930 . S
C726 C727 1.367 . S
C726 C734 1.378 . S
C727 C726 1.367 . S
C727 C735 1.433 . S
C728 H724 0.929 . S
C728 C730 1.378 . S
C728 C732 1.350 . S
C729 C732 1.463 . S
C729 C734 1.350 . S
C729 N737 1.427 . S
C730 H721 0.930 . S
C730 C728 1.378 . S
C730 C731 1.367 . S
C731 C730 1.367 . S
C731 C733 1.433 . S
C732 C728 1.350 . S
C732 C729 1.463 . S
C732 N736 1.427 . S
C733 H723 0.929 . S
C733 C731 1.433 . S
C733 N736 1.384 . S
C734 H725 0.929 . S
C734 C726 1.378 . S
C734 C729 1.350 . S
C735 H722 0.929 . S
C735 C727 1.433 . S
C735 N737 1.384 . S
N736 C732 1.427 . S
N736 C733 1.384 . S
N737 C729 1.427 . S
N737 C735 1.384 . S
H738 C744 0.930 . S
H739 C748 0.930 . S
H740 C753 0.929 . S
H741 C751 0.929 . S
H742 C746 0.929 . S
H743 C752 0.929 . S
C744 H738 0.930 . S
C744 C745 1.367 . S
C744 C752 1.378 . S
C745 C744 1.367 . S
C745 C753 1.433 . S
C746 H742 0.929 . S
C746 C748 1.378 . S
C746 C750 1.350 . S
C747 C750 1.463 . S
C747 C752 1.350 . S
C747 N755 1.427 . S
C748 H739 0.930 . S
C748 C746 1.378 . S
C748 C749 1.367 . S
C749 C748 1.367 . S
C749 C751 1.433 . S
C750 C746 1.350 . S
C750 C747 1.463 . S
C750 N754 1.427 . S
C751 H741 0.929 . S
C751 C749 1.433 . S
C751 N754 1.384 . S
C752 H743 0.929 . S
C752 C744 1.378 . S
C752 C747 1.350 . S
C753 H740 0.929 . S
C753 C745 1.433 . S
C753 N755 1.384 . S
N754 C750 1.427 . S
N754 C751 1.384 . S
N755 C747 1.427 . S
N755 C753 1.384 . S
H756 C762 0.930 . S
H757 C766 0.930 . S
H758 C771 0.929 . S
H759 C769 0.929 . S
H760 C764 0.929 . S
H761 C770 0.929 . S
C762 H756 0.930 . S
C762 C763 1.367 . S
C762 C770 1.378 . S
C763 C762 1.367 . S
C763 C771 1.433 . S
C764 H760 0.929 . S
C764 C766 1.378 . S
C764 C768 1.350 . S
C765 C768 1.463 . S
C765 C770 1.350 . S
C765 N773 1.427 . S
C766 H757 0.930 . S
C766 C764 1.378 . S
C766 C767 1.367 . S
C767 C766 1.367 . S
C767 C769 1.433 . S
C768 C764 1.350 . S
C768 C765 1.463 . S
C768 N772 1.427 . S
C769 H759 0.929 . S
C769 C767 1.433 . S
C769 N772 1.384 . S
C770 H761 0.929 . S
C770 C762 1.378 . S
C770 C765 1.350 . S
C771 H758 0.929 . S
C771 C763 1.433 . S
C771 N773 1.384 . S
N772 C768 1.427 . S
N772 C769 1.384 . S
N773 C765 1.427 . S
N773 C771 1.384 . S
H774 C780 0.930 . S
H775 C784 0.930 . S
H776 C789 0.929 . S
H777 C787 0.929 . S
H778 C782 0.929 . S
H779 C788 0.929 . S
C780 H774 0.930 . S
C780 C781 1.367 . S
C780 C788 1.378 . S
C781 C780 1.367 . S
C781 C789 1.433 . S
C782 H778 0.929 . S
C782 C784 1.378 . S
C782 C786 1.350 . S
C783 C786 1.463 . S
C783 C788 1.350 . S
C783 N791 1.427 . S
C784 H775 0.930 . S
C784 C782 1.378 . S
C784 C785 1.367 . S
C785 C784 1.367 . S
C785 C787 1.433 . S
C786 C782 1.350 . S
C786 C783 1.463 . S
C786 N790 1.427 . S
C787 H777 0.929 . S
C787 C785 1.433 . S
C787 N790 1.384 . S
C788 H779 0.929 . S
C788 C780 1.378 . S
C788 C783 1.350 . S
C789 H776 0.929 . S
C789 C781 1.433 . S
C789 N791 1.384 . S
N790 C786 1.427 . S
N790 C787 1.384 . S
N791 C783 1.427 . S
N791 C789 1.384 . S
H792 C798 0.930 . S
H793 C802 0.930 . S
H794 C807 0.929 . S
H795 C805 0.929 . S
H796 C800 0.929 . S
H797 C806 0.929 . S
C798 H792 0.930 . S
C798 C799 1.367 . S
C798 C806 1.378 . S
C799 C798 1.367 . S
C799 C807 1.433 . S
C800 H796 0.929 . S
C800 C802 1.378 . S
C800 C804 1.350 . S
C801 C804 1.463 . S
C801 C806 1.350 . S
C801 N809 1.427 . S
C802 H793 0.930 . S
C802 C800 1.378 . S
C802 C803 1.367 . S
C803 C802 1.367 . S
C803 C805 1.433 . S
C804 C800 1.350 . S
C804 C801 1.463 . S
C804 N808 1.427 . S
C805 H795 0.929 . S
C805 C803 1.433 . S
C805 N808 1.384 . S
C806 H797 0.929 . S
C806 C798 1.378 . S
C806 C801 1.350 . S
C807 H794 0.929 . S
C807 C799 1.433 . S
C807 N809 1.384 . S
N808 C804 1.427 . S
N808 C805 1.384 . S
N809 C801 1.427 . S
N809 C807 1.384 . S
H810 C816 0.930 . S
H811 C820 0.930 . S
H812 C825 0.929 . S
H813 C823 0.929 . S
H814 C818 0.929 . S
H815 C824 0.929 . S
C816 H810 0.930 . S
C816 C817 1.367 . S
C816 C824 1.378 . S
C817 C816 1.367 . S
C817 C825 1.433 . S
C818 H814 0.929 . S
C818 C820 1.378 . S
C818 C822 1.350 . S
C819 C822 1.463 . S
C819 C824 1.350 . S
C819 N827 1.427 . S
C820 H811 0.930 . S
C820 C818 1.378 . S
C820 C821 1.367 . S
C821 C820 1.367 . S
C821 C823 1.433 . S
C822 C818 1.350 . S
C822 C819 1.463 . S
C822 N826 1.427 . S
C823 H813 0.929 . S
C823 C821 1.433 . S
C823 N826 1.384 . S
C824 H815 0.929 . S
C824 C816 1.378 . S
C824 C819 1.350 . S
C825 H812 0.929 . S
C825 C817 1.433 . S
C825 N827 1.384 . S
N826 C822 1.427 . S
N826 C823 1.384 . S
N827 C819 1.427 . S
N827 C825 1.384 . S
H828 C834 0.930 . S
H829 C838 0.930 . S
H830 C843 0.929 . S
H831 C841 0.929 . S
H832 C836 0.929 . S
H833 C842 0.929 . S
C834 H828 0.930 . S
C834 C835 1.367 . S
C834 C842 1.378 . S
C835 C834 1.367 . S
C835 C843 1.433 . S
C836 H832 0.929 . S
C836 C838 1.378 . S
C836 C840 1.350 . S
C837 C840 1.463 . S
C837 C842 1.350 . S
C837 N845 1.427 . S
C838 H829 0.930 . S
C838 C836 1.378 . S
C838 C839 1.367 . S
C839 C838 1.367 . S
C839 C841 1.433 . S
C840 C836 1.350 . S
C840 C837 1.463 . S
C840 N844 1.427 . S
C841 H831 0.929 . S
C841 C839 1.433 . S
C841 N844 1.384 . S
C842 H833 0.929 . S
C842 C834 1.378 . S
C842 C837 1.350 . S
C843 H830 0.929 . S
C843 C835 1.433 . S
C843 N845 1.384 . S
N844 C840 1.427 . S
N844 C841 1.384 . S
N845 C837 1.427 . S
N845 C843 1.384 . S
H846 C852 0.930 . S
H847 C856 0.930 . S
H848 C861 0.929 . S
H849 C859 0.929 . S
H850 C854 0.929 . S
H851 C860 0.929 . S
C852 H846 0.930 . S
C852 C853 1.367 . S
C852 C860 1.378 . S
C853 C852 1.367 . S
C853 C861 1.433 . S
C854 H850 0.929 . S
C854 C856 1.378 . S
C854 C858 1.350 . S
C855 C858 1.463 . S
C855 C860 1.350 . S
C855 N863 1.427 . S
C856 H847 0.930 . S
C856 C854 1.378 . S
C856 C857 1.367 . S
C857 C856 1.367 . S
C857 C859 1.433 . S
C858 C854 1.350 . S
C858 C855 1.463 . S
C858 N862 1.427 . S
C859 H849 0.929 . S
C859 C857 1.433 . S
C859 N862 1.384 . S
C860 H851 0.929 . S
C860 C852 1.378 . S
C860 C855 1.350 . S
C861 H848 0.929 . S
C861 C853 1.433 . S
C861 N863 1.384 . S
N862 C858 1.427 . S
N862 C859 1.384 . S
N863 C855 1.427 . S
N863 C861 1.384 . S
H864 C870 0.930 . S
H865 C874 0.930 . S
H866 C879 0.929 . S
H867 C877 0.929 . S
H868 C872 0.929 . S
H869 C878 0.929 . S
C870 H864 0.930 . S
C870 C871 1.367 . S
C870 C878 1.378 . S
C871 C870 1.367 . S
C871 C879 1.433 . S
C872 H868 0.929 . S
C872 C874 1.378 . S
C872 C876 1.350 . S
C873 C876 1.463 . S
C873 C878 1.350 . S
C873 N881 1.427 . S
C874 H865 0.930 . S
C874 C872 1.378 . S
C874 C875 1.367 . S
C875 C874 1.367 . S
C875 C877 1.433 . S
C876 C872 1.350 . S
C876 C873 1.463 . S
C876 N880 1.427 . S
C877 H867 0.929 . S
C877 C875 1.433 . S
C877 N880 1.384 . S
C878 H869 0.929 . S
C878 C870 1.378 . S
C878 C873 1.350 . S
C879 H866 0.929 . S
C879 C871 1.433 . S
C879 N881 1.384 . S
N880 C876 1.427 . S
N880 C877 1.384 . S
N881 C873 1.427 . S
N881 C879 1.384 . S
H882 C888 0.930 . S
H883 C892 0.930 . S
H884 C897 0.929 . S
H885 C895 0.929 . S
H886 C890 0.929 . S
H887 C896 0.929 . S
C888 H882 0.930 . S
C888 C889 1.367 . S
C888 C896 1.378 . S
C889 C888 1.367 . S
C889 C897 1.433 . S
C890 H886 0.929 . S
C890 C892 1.378 . S
C890 C894 1.350 . S
C891 C894 1.463 . S
C891 C896 1.350 . S
C891 N899 1.427 . S
C892 H883 0.930 . S
C892 C890 1.378 . S
C892 C893 1.367 . S
C893 C892 1.367 . S
C893 C895 1.433 . S
C894 C890 1.350 . S
C894 C891 1.463 . S
C894 N898 1.427 . S
C895 H885 0.929 . S
C895 C893 1.433 . S
C895 N898 1.384 . S
C896 H887 0.929 . S
C896 C888 1.378 . S
C896 C891 1.350 . S
C897 H884 0.929 . S
C897 C889 1.433 . S
C897 N899 1.384 . S
N898 C894 1.427 . S
N898 C895 1.384 . S
N899 C891 1.427 . S
N899 C897 1.384 . S
H900 C906 0.930 . S
H901 C910 0.930 . S
H902 C915 0.929 . S
H903 C913 0.929 . S
H904 C908 0.929 . S
H905 C914 0.929 . S
C906 H900 0.930 . S
C906 C907 1.367 . S
C906 C914 1.378 . S
C907 C906 1.367 . S
C907 C915 1.433 . S
C908 H904 0.929 . S
C908 C910 1.378 . S
C908 C912 1.350 . S
C909 C912 1.463 . S
C909 C914 1.350 . S
C909 N917 1.427 . S
C910 H901 0.930 . S
C910 C908 1.378 . S
C910 C911 1.367 . S
C911 C910 1.367 . S
C911 C913 1.433 . S
C912 C908 1.350 . S
C912 C909 1.463 . S
C912 N916 1.427 . S
C913 H903 0.929 . S
C913 C911 1.433 . S
C913 N916 1.384 . S
C914 H905 0.929 . S
C914 C906 1.378 . S
C914 C909 1.350 . S
C915 H902 0.929 . S
C915 C907 1.433 . S
C915 N917 1.384 . S
N916 C912 1.427 . S
N916 C913 1.384 . S
N917 C909 1.427 . S
N917 C915 1.384 . S
H918 C924 0.930 . S
H919 C928 0.930 . S
H920 C933 0.929 . S
H921 C931 0.929 . S
H922 C926 0.929 . S
H923 C932 0.929 . S
C924 H918 0.930 . S
C924 C925 1.367 . S
C924 C932 1.378 . S
C925 C924 1.367 . S
C925 C933 1.433 . S
C926 H922 0.929 . S
C926 C928 1.378 . S
C926 C930 1.350 . S
C927 C930 1.463 . S
C927 C932 1.350 . S
C927 N935 1.427 . S
C928 H919 0.930 . S
C928 C926 1.378 . S
C928 C929 1.367 . S
C929 C928 1.367 . S
C929 C931 1.433 . S
C930 C926 1.350 . S
C930 C927 1.463 . S
C930 N934 1.427 . S
C931 H921 0.929 . S
C931 C929 1.433 . S
C931 N934 1.384 . S
C932 H923 0.929 . S
C932 C924 1.378 . S
C932 C927 1.350 . S
C933 H920 0.929 . S
C933 C925 1.433 . S
C933 N935 1.384 . S
N934 C930 1.427 . S
N934 C931 1.384 . S
N935 C927 1.427 . S
N935 C933 1.384 . S
H936 C942 0.930 . S
H937 C946 0.930 . S
H938 C951 0.929 . S
H939 C949 0.929 . S
H940 C944 0.929 . S
H941 C950 0.929 . S
C942 H936 0.930 . S
C942 C943 1.367 . S
C942 C950 1.378 . S
C943 C942 1.367 . S
C943 C951 1.433 . S
C944 H940 0.929 . S
C944 C946 1.378 . S
C944 C948 1.350 . S
C945 C948 1.463 . S
C945 C950 1.350 . S
C945 N953 1.427 . S
C946 H937 0.930 . S
C946 C944 1.378 . S
C946 C947 1.367 . S
C947 C946 1.367 . S
C947 C949 1.433 . S
C948 C944 1.350 . S
C948 C945 1.463 . S
C948 N952 1.427 . S
C949 H939 0.929 . S
C949 C947 1.433 . S
C949 N952 1.384 . S
C950 H941 0.929 . S
C950 C942 1.378 . S
C950 C945 1.350 . S
C951 H938 0.929 . S
C951 C943 1.433 . S
C951 N953 1.384 . S
N952 C948 1.427 . S
N952 C949 1.384 . S
N953 C945 1.427 . S
N953 C951 1.384 . S
H954 C960 0.930 . S
H955 C964 0.930 . S
H956 C969 0.929 . S
H957 C967 0.929 . S
H958 C962 0.929 . S
H959 C968 0.929 . S
C960 H954 0.930 . S
C960 C961 1.367 . S
C960 C968 1.378 . S
C961 C960 1.367 . S
C961 C969 1.433 . S
C962 H958 0.929 . S
C962 C964 1.378 . S
C962 C966 1.350 . S
C963 C966 1.463 . S
C963 C968 1.350 . S
C963 N971 1.427 . S
C964 H955 0.930 . S
C964 C962 1.378 . S
C964 C965 1.367 . S
C965 C964 1.367 . S
C965 C967 1.433 . S
C966 C962 1.350 . S
C966 C963 1.463 . S
C966 N970 1.427 . S
C967 H957 0.929 . S
C967 C965 1.433 . S
C967 N970 1.384 . S
C968 H959 0.929 . S
C968 C960 1.378 . S
C968 C963 1.350 . S
C969 H956 0.929 . S
C969 C961 1.433 . S
C969 N971 1.384 . S
N970 C966 1.427 . S
N970 C967 1.384 . S
N971 C963 1.427 . S
N971 C969 1.384 . S
H972 C978 0.930 . S
H973 C982 0.930 . S
H974 C987 0.929 . S
H975 C985 0.929 . S
H976 C980 0.929 . S
H977 C986 0.929 . S
C978 H972 0.930 . S
C978 C979 1.367 . S
C978 C986 1.378 . S
C979 C978 1.367 . S
C979 C987 1.433 . S
C980 H976 0.929 . S
C980 C982 1.378 . S
C980 C984 1.350 . S
C981 C984 1.463 . S
C981 C986 1.350 . S
C981 N989 1.427 . S
C982 H973 0.930 . S
C982 C980 1.378 . S
C982 C983 1.367 . S
C983 C982 1.367 . S
C983 C985 1.433 . S
C984 C980 1.350 . S
C984 C981 1.463 . S
C984 N988 1.427 . S
C985 H975 0.929 . S
C985 C983 1.433 . S
C985 N988 1.384 . S
C986 H977 0.929 . S
C986 C978 1.378 . S
C986 C981 1.350 . S
C987 H974 0.929 . S
C987 C979 1.433 . S
C987 N989 1.384 . S
N988 C984 1.427 . S
N988 C985 1.384 . S
N989 C981 1.427 . S
N989 C987 1.384 . S
H990 C996 0.930 . S
H991 C1000 0.930 . S
H992 C1005 0.929 . S
H993 C1003 0.929 . S
H994 C998 0.929 . S
H995 C1004 0.929 . S
C996 H990 0.930 . S
C996 C997 1.367 . S
C996 C1004 1.378 . S
C997 C996 1.367 . S
C997 C1005 1.433 . S
C998 H994 0.929 . S
C998 C1000 1.378 . S
C998 C1002 1.350 . S
C999 C1002 1.463 . S
C999 C1004 1.350 . S
C999 N1007 1.427 . S
C1000 H991 0.930 . S
C1000 C998 1.378 . S
C1000 C1001 1.367 . S
C1001 C1000 1.367 . S
C1001 C1003 1.433 . S
C1002 C998 1.350 . S
C1002 C999 1.463 . S
C1002 N1006 1.427 . S
C1003 H993 0.929 . S
C1003 C1001 1.433 . S
C1003 N1006 1.384 . S
C1004 H995 0.929 . S
C1004 C996 1.378 . S
C1004 C999 1.350 . S
C1005 H992 0.929 . S
C1005 C997 1.433 . S
C1005 N1007 1.384 . S
N1006 C1002 1.427 . S
N1006 C1003 1.384 . S
N1007 C999 1.427 . S
N1007 C1005 1.384 . S
H1008 C1014 0.930 . S
H1009 C1018 0.930 . S
H1010 C1023 0.929 . S
H1011 C1021 0.929 . S
H1012 C1016 0.929 . S
H1013 C1022 0.929 . S
C1014 H1008 0.930 . S
C1014 C1015 1.367 . S
C1014 C1022 1.378 . S
C1015 C1014 1.367 . S
C1015 C1023 1.433 . S
C1016 H1012 0.929 . S
C1016 C1018 1.378 . S
C1016 C1020 1.350 . S
C1017 C1020 1.463 . S
C1017 C1022 1.350 . S
C1017 N1025 1.427 . S
C1018 H1009 0.930 . S
C1018 C1016 1.378 . S
C1018 C1019 1.367 . S
C1019 C1018 1.367 . S
C1019 C1021 1.433 . S
C1020 C1016 1.350 . S
C1020 C1017 1.463 . S
C1020 N1024 1.427 . S
C1021 H1011 0.929 . S
C1021 C1019 1.433 . S
C1021 N1024 1.384 . S
C1022 H1013 0.929 . S
C1022 C1014 1.378 . S
C1022 C1017 1.350 . S
C1023 H1010 0.929 . S
C1023 C1015 1.433 . S
C1023 N1025 1.384 . S
N1024 C1020 1.427 . S
N1024 C1021 1.384 . S
N1025 C1017 1.427 . S
N1025 C1023 1.384 . S
H1026 C1032 0.930 . S
H1027 C1036 0.930 . S
H1028 C1041 0.929 . S
H1029 C1039 0.929 . S
H1030 C1034 0.929 . S
H1031 C1040 0.929 . S
C1032 H1026 0.930 . S
C1032 C1033 1.367 . S
C1032 C1040 1.378 . S
C1033 C1032 1.367 . S
C1033 C1041 1.433 . S
C1034 H1030 0.929 . S
C1034 C1036 1.378 . S
C1034 C1038 1.350 . S
C1035 C1038 1.463 . S
C1035 C1040 1.350 . S
C1035 N1043 1.427 . S
C1036 H1027 0.930 . S
C1036 C1034 1.378 . S
C1036 C1037 1.367 . S
C1037 C1036 1.367 . S
C1037 C1039 1.433 . S
C1038 C1034 1.350 . S
C1038 C1035 1.463 . S
C1038 N1042 1.427 . S
C1039 H1029 0.929 . S
C1039 C1037 1.433 . S
C1039 N1042 1.384 . S
C1040 H1031 0.929 . S
C1040 C1032 1.378 . S
C1040 C1035 1.350 . S
C1041 H1028 0.929 . S
C1041 C1033 1.433 . S
C1041 N1043 1.384 . S
N1042 C1038 1.427 . S
N1042 C1039 1.384 . S
N1043 C1035 1.427 . S
N1043 C1041 1.384 . S
H1044 C1050 0.930 . S
H1045 C1054 0.930 . S
H1046 C1059 0.929 . S
H1047 C1057 0.929 . S
H1048 C1052 0.929 . S
H1049 C1058 0.929 . S
C1050 H1044 0.930 . S
C1050 C1051 1.367 . S
C1050 C1058 1.378 . S
C1051 C1050 1.367 . S
C1051 C1059 1.433 . S
C1052 H1048 0.929 . S
C1052 C1054 1.378 . S
C1052 C1056 1.350 . S
C1053 C1056 1.463 . S
C1053 C1058 1.350 . S
C1053 N1061 1.427 . S
C1054 H1045 0.930 . S
C1054 C1052 1.378 . S
C1054 C1055 1.367 . S
C1055 C1054 1.367 . S
C1055 C1057 1.433 . S
C1056 C1052 1.350 . S
C1056 C1053 1.463 . S
C1056 N1060 1.427 . S
C1057 H1047 0.929 . S
C1057 C1055 1.433 . S
C1057 N1060 1.384 . S
C1058 H1049 0.929 . S
C1058 C1050 1.378 . S
C1058 C1053 1.350 . S
C1059 H1046 0.929 . S
C1059 C1051 1.433 . S
C1059 N1061 1.384 . S
N1060 C1056 1.427 . S
N1060 C1057 1.384 . S
N1061 C1053 1.427 . S
N1061 C1059 1.384 . S
H1062 C1068 0.930 . S
H1063 C1072 0.930 . S
H1064 C1077 0.929 . S
H1065 C1075 0.929 . S
H1066 C1070 0.929 . S
H1067 C1076 0.929 . S
C1068 H1062 0.930 . S
C1068 C1069 1.367 . S
C1068 C1076 1.378 . S
C1069 C1068 1.367 . S
C1069 C1077 1.433 . S
C1070 H1066 0.929 . S
C1070 C1072 1.378 . S
C1070 C1074 1.350 . S
C1071 C1074 1.463 . S
C1071 C1076 1.350 . S
C1071 N1079 1.427 . S
C1072 H1063 0.930 . S
C1072 C1070 1.378 . S
C1072 C1073 1.367 . S
C1073 C1072 1.367 . S
C1073 C1075 1.433 . S
C1074 C1070 1.350 . S
C1074 C1071 1.463 . S
C1074 N1078 1.427 . S
C1075 H1065 0.929 . S
C1075 C1073 1.433 . S
C1075 N1078 1.384 . S
C1076 H1067 0.929 . S
C1076 C1068 1.378 . S
C1076 C1071 1.350 . S
C1077 H1064 0.929 . S
C1077 C1069 1.433 . S
C1077 N1079 1.384 . S
N1078 C1074 1.427 . S
N1078 C1075 1.384 . S
N1079 C1071 1.427 . S
N1079 C1077 1.384 . S
H1080 C1086 0.930 . S
H1081 C1090 0.930 . S
H1082 C1095 0.929 . S
H1083 C1093 0.929 . S
H1084 C1088 0.929 . S
H1085 C1094 0.929 . S
C1086 H1080 0.930 . S
C1086 C1087 1.367 . S
C1086 C1094 1.378 . S
C1087 C1086 1.367 . S
C1087 C1095 1.433 . S
C1088 H1084 0.929 . S
C1088 C1090 1.378 . S
C1088 C1092 1.350 . S
C1089 C1092 1.463 . S
C1089 C1094 1.350 . S
C1089 N1097 1.427 . S
C1090 H1081 0.930 . S
C1090 C1088 1.378 . S
C1090 C1091 1.367 . S
C1091 C1090 1.367 . S
C1091 C1093 1.433 . S
C1092 C1088 1.350 . S
C1092 C1089 1.463 . S
C1092 N1096 1.427 . S
C1093 H1083 0.929 . S
C1093 C1091 1.433 . S
C1093 N1096 1.384 . S
C1094 H1085 0.929 . S
C1094 C1086 1.378 . S
C1094 C1089 1.350 . S
C1095 H1082 0.929 . S
C1095 C1087 1.433 . S
C1095 N1097 1.384 . S
N1096 C1092 1.427 . S
N1096 C1093 1.384 . S
N1097 C1089 1.427 . S
N1097 C1095 1.384 . S
H1098 C1104 0.930 . S
H1099 C1108 0.930 . S
H1100 C1113 0.929 . S
H1101 C1111 0.929 . S
H1102 C1106 0.929 . S
H1103 C1112 0.929 . S
C1104 H1098 0.930 . S
C1104 C1105 1.367 . S
C1104 C1112 1.378 . S
C1105 C1104 1.367 . S
C1105 C1113 1.433 . S
C1106 H1102 0.929 . S
C1106 C1108 1.378 . S
C1106 C1110 1.350 . S
C1107 C1110 1.463 . S
C1107 C1112 1.350 . S
C1107 N1115 1.427 . S
C1108 H1099 0.930 . S
C1108 C1106 1.378 . S
C1108 C1109 1.367 . S
C1109 C1108 1.367 . S
C1109 C1111 1.433 . S
C1110 C1106 1.350 . S
C1110 C1107 1.463 . S
C1110 N1114 1.427 . S
C1111 H1101 0.929 . S
C1111 C1109 1.433 . S
C1111 N1114 1.384 . S
C1112 H1103 0.929 . S
C1112 C1104 1.378 . S
C1112 C1107 1.350 . S
C1113 H1100 0.929 . S
C1113 C1105 1.433 . S
C1113 N1115 1.384 . S
N1114 C1110 1.427 . S
N1114 C1111 1.384 . S
N1115 C1107 1.427 . S
N1115 C1113 1.384 . S
H1116 C1122 0.930 . S
H1117 C1126 0.930 . S
H1118 C1131 0.929 . S
H1119 C1129 0.929 . S
H1120 C1124 0.929 . S
H1121 C1130 0.929 . S
C1122 H1116 0.930 . S
C1122 C1123 1.367 . S
C1122 C1130 1.378 . S
C1123 C1122 1.367 . S
C1123 C1131 1.433 . S
C1124 H1120 0.929 . S
C1124 C1126 1.378 . S
C1124 C1128 1.350 . S
C1125 C1128 1.463 . S
C1125 C1130 1.350 . S
C1125 N1133 1.427 . S
C1126 H1117 0.930 . S
C1126 C1124 1.378 . S
C1126 C1127 1.367 . S
C1127 C1126 1.367 . S
C1127 C1129 1.433 . S
C1128 C1124 1.350 . S
C1128 C1125 1.463 . S
C1128 N1132 1.427 . S
C1129 H1119 0.929 . S
C1129 C1127 1.433 . S
C1129 N1132 1.384 . S
C1130 H1121 0.929 . S
C1130 C1122 1.378 . S
C1130 C1125 1.350 . S
C1131 H1118 0.929 . S
C1131 C1123 1.433 . S
C1131 N1133 1.384 . S
N1132 C1128 1.427 . S
N1132 C1129 1.384 . S
N1133 C1125 1.427 . S
N1133 C1131 1.384 . S
H1134 C1140 0.930 . S
H1135 C1144 0.930 . S
H1136 C1149 0.929 . S
H1137 C1147 0.929 . S
H1138 C1142 0.929 1_565 S
H1139 C1148 0.929 1_545 S
C1140 H1134 0.930 . S
C1140 C1141 1.367 . S
C1140 C1148 1.378 . S
C1141 C1140 1.367 . S
C1141 C1149 1.433 . S
C1142 H1138 0.929 1_545 S
C1142 C1144 1.378 . S
C1142 C1146 1.350 . S
C1143 C1146 1.463 1_565 S
C1143 C1148 1.350 . S
C1143 N1151 1.427 . S
C1144 H1135 0.930 . S
C1144 C1142 1.378 . S
C1144 C1145 1.367 . S
C1145 C1144 1.367 . S
C1145 C1147 1.433 . S
C1146 C1142 1.350 . S
C1146 C1143 1.463 1_545 S
C1146 N1150 1.427 . S
C1147 H1137 0.929 . S
C1147 C1145 1.433 . S
C1147 N1150 1.384 . S
C1148 H1139 0.929 1_565 S
C1148 C1140 1.378 . S
C1148 C1143 1.350 . S
C1149 H1136 0.929 . S
C1149 C1141 1.433 . S
C1149 N1151 1.384 . S
N1150 C1146 1.427 . S
N1150 C1147 1.384 . S
N1151 C1143 1.427 . S
N1151 C1149 1.384 . S
H1152 C1158 0.930 . S
H1153 C1162 0.930 . S
H1154 C1167 0.929 . S
H1155 C1165 0.929 . S
H1156 C1160 0.929 1_655 S
H1157 C1166 0.929 1_455 S
C1158 H1152 0.930 . S
C1158 C1159 1.367 . S
C1158 C1166 1.378 . S
C1159 C1158 1.367 . S
C1159 C1167 1.433 . S
C1160 H1156 0.929 1_455 S
C1160 C1162 1.378 . S
C1160 C1164 1.350 . S
C1161 C1164 1.463 1_655 S
C1161 C1166 1.350 . S
C1161 N1169 1.427 . S
C1162 H1153 0.930 . S
C1162 C1160 1.378 . S
C1162 C1163 1.367 . S
C1163 C1162 1.367 . S
C1163 C1165 1.433 . S
C1164 C1160 1.350 . S
C1164 C1161 1.463 1_455 S
C1164 N1168 1.427 . S
C1165 H1155 0.929 . S
C1165 C1163 1.433 . S
C1165 N1168 1.384 . S
C1166 H1157 0.929 1_655 S
C1166 C1158 1.378 . S
C1166 C1161 1.350 . S
C1167 H1154 0.929 . S
C1167 C1159 1.433 . S
C1167 N1169 1.384 . S
N1168 C1164 1.427 . S
N1168 C1165 1.384 . S
N1169 C1161 1.427 . S
N1169 C1167 1.384 . S
H1170 C1176 0.930 . S
H1171 C1180 0.930 . S
H1172 C1185 0.929 . S
H1173 C1183 0.929 . S
H1174 C1178 0.929 . S
H1175 C1184 0.929 . S
C1176 H1170 0.930 . S
C1176 C1177 1.367 . S
C1176 C1184 1.378 . S
C1177 C1176 1.367 . S
C1177 C1185 1.433 . S
C1178 H1174 0.929 . S
C1178 C1180 1.378 . S
C1178 C1182 1.350 . S
C1179 C1182 1.463 . S
C1179 C1184 1.350 . S
C1179 N1187 1.427 . S
C1180 H1171 0.930 . S
C1180 C1178 1.378 . S
C1180 C1181 1.367 . S
C1181 C1180 1.367 . S
C1181 C1183 1.433 . S
C1182 C1178 1.350 . S
C1182 C1179 1.463 . S
C1182 N1186 1.427 . S
C1183 H1173 0.929 . S
C1183 C1181 1.433 . S
C1183 N1186 1.384 . S
C1184 H1175 0.929 . S
C1184 C1176 1.378 . S
C1184 C1179 1.350 . S
C1185 H1172 0.929 . S
C1185 C1177 1.433 . S
C1185 N1187 1.384 . S
N1186 C1182 1.427 . S
N1186 C1183 1.384 . S
N1187 C1179 1.427 . S
N1187 C1185 1.384 . S
H1188 C1194 0.930 . S
H1189 C1198 0.930 . S
H1190 C1203 0.929 . S
H1191 C1201 0.929 . S
H1192 C1196 0.929 . S
H1193 C1202 0.929 . S
C1194 H1188 0.930 . S
C1194 C1195 1.367 . S
C1194 C1202 1.378 . S
C1195 C1194 1.367 . S
C1195 C1203 1.433 . S
C1196 H1192 0.929 . S
C1196 C1198 1.378 . S
C1196 C1200 1.350 . S
C1197 C1200 1.463 1_545 S
C1197 C1202 1.350 . S
C1197 N1205 1.427 . S
C1198 H1189 0.930 . S
C1198 C1196 1.378 . S
C1198 C1199 1.367 . S
C1199 C1198 1.367 . S
C1199 C1201 1.433 . S
C1200 C1196 1.350 . S
C1200 C1197 1.463 1_565 S
C1200 N1204 1.427 . S
C1201 H1191 0.929 . S
C1201 C1199 1.433 . S
C1201 N1204 1.384 . S
C1202 H1193 0.929 . S
C1202 C1194 1.378 . S
C1202 C1197 1.350 . S
C1203 H1190 0.929 . S
C1203 C1195 1.433 . S
C1203 N1205 1.384 . S
N1204 C1200 1.427 . S
N1204 C1201 1.384 . S
N1205 C1197 1.427 . S
N1205 C1203 1.384 . S
H1206 C1212 0.930 . S
H1207 C1216 0.930 . S
H1208 C1221 0.929 . S
H1209 C1219 0.929 . S
H1210 C1214 0.929 . S
H1211 C1220 0.929 . S
C1212 H1206 0.930 . S
C1212 C1213 1.367 . S
C1212 C1220 1.378 . S
C1213 C1212 1.367 . S
C1213 C1221 1.433 . S
C1214 H1210 0.929 . S
C1214 C1216 1.378 . S
C1214 C1218 1.350 . S
C1215 C1218 1.463 1_655 S
C1215 C1220 1.350 . S
C1215 N1223 1.427 . S
C1216 H1207 0.930 . S
C1216 C1214 1.378 . S
C1216 C1217 1.367 . S
C1217 C1216 1.367 . S
C1217 C1219 1.433 . S
C1218 C1214 1.350 . S
C1218 C1215 1.463 1_455 S
C1218 N1222 1.427 . S
C1219 H1209 0.929 . S
C1219 C1217 1.433 . S
C1219 N1222 1.384 . S
C1220 H1211 0.929 . S
C1220 C1212 1.378 . S
C1220 C1215 1.350 . S
C1221 H1208 0.929 . S
C1221 C1213 1.433 . S
C1221 N1223 1.384 . S
N1222 C1218 1.427 . S
N1222 C1219 1.384 . S
N1223 C1215 1.427 . S
N1223 C1221 1.384 . S
H1224 C1230 0.930 . S
H1225 C1234 0.930 . S
H1226 C1239 0.929 . S
H1227 C1237 0.929 . S
H1228 C1232 0.929 . S
H1229 C1238 0.929 . S
C1230 H1224 0.930 . S
C1230 C1231 1.367 . S
C1230 C1238 1.378 . S
C1231 C1230 1.367 . S
C1231 C1239 1.433 . S
C1232 H1228 0.929 . S
C1232 C1234 1.378 . S
C1232 C1236 1.350 . S
C1233 C1236 1.463 . S
C1233 C1238 1.350 . S
C1233 N1241 1.427 . S
C1234 H1225 0.930 . S
C1234 C1232 1.378 . S
C1234 C1235 1.367 . S
C1235 C1234 1.367 . S
C1235 C1237 1.433 . S
C1236 C1232 1.350 . S
C1236 C1233 1.463 . S
C1236 N1240 1.427 . S
C1237 H1227 0.929 . S
C1237 C1235 1.433 . S
C1237 N1240 1.384 . S
C1238 H1229 0.929 . S
C1238 C1230 1.378 . S
C1238 C1233 1.350 . S
C1239 H1226 0.929 . S
C1239 C1231 1.433 . S
C1239 N1241 1.384 . S
N1240 C1236 1.427 . S
N1240 C1237 1.384 . S
N1241 C1233 1.427 . S
N1241 C1239 1.384 . S
H1242 C1248 0.930 . S
H1243 C1252 0.930 . S
H1244 C1257 0.929 . S
H1245 C1255 0.929 . S
H1246 C1250 0.929 . S
H1247 C1256 0.929 . S
C1248 H1242 0.930 . S
C1248 C1249 1.367 . S
C1248 C1256 1.378 . S
C1249 C1248 1.367 . S
C1249 C1257 1.433 . S
C1250 H1246 0.929 . S
C1250 C1252 1.378 . S
C1250 C1254 1.350 . S
C1251 C1254 1.463 . S
C1251 C1256 1.350 . S
C1251 N1259 1.427 . S
C1252 H1243 0.930 . S
C1252 C1250 1.378 . S
C1252 C1253 1.367 . S
C1253 C1252 1.367 . S
C1253 C1255 1.433 . S
C1254 C1250 1.350 . S
C1254 C1251 1.463 . S
C1254 N1258 1.427 . S
C1255 H1245 0.929 . S
C1255 C1253 1.433 . S
C1255 N1258 1.384 . S
C1256 H1247 0.929 . S
C1256 C1248 1.378 . S
C1256 C1251 1.350 . S
C1257 H1244 0.929 . S
C1257 C1249 1.433 . S
C1257 N1259 1.384 . S
N1258 C1254 1.427 . S
N1258 C1255 1.384 . S
N1259 C1251 1.427 . S
N1259 C1257 1.384 . S
H1260 C1266 0.930 . S
H1261 C1270 0.930 . S
H1262 C1275 0.929 . S
H1263 C1273 0.929 . S
H1264 C1268 0.929 . S
H1265 C1274 0.929 . S
C1266 H1260 0.930 . S
C1266 C1267 1.367 . S
C1266 C1274 1.378 . S
C1267 C1266 1.367 . S
C1267 C1275 1.433 . S
C1268 H1264 0.929 . S
C1268 C1270 1.378 . S
C1268 C1272 1.350 . S
C1269 C1272 1.463 . S
C1269 C1274 1.350 . S
C1269 N1277 1.427 . S
C1270 H1261 0.930 . S
C1270 C1268 1.378 . S
C1270 C1271 1.367 . S
C1271 C1270 1.367 . S
C1271 C1273 1.433 . S
C1272 C1268 1.350 . S
C1272 C1269 1.463 . S
C1272 N1276 1.427 . S
C1273 H1263 0.929 . S
C1273 C1271 1.433 . S
C1273 N1276 1.384 . S
C1274 H1265 0.929 . S
C1274 C1266 1.378 . S
C1274 C1269 1.350 . S
C1275 H1262 0.929 . S
C1275 C1267 1.433 . S
C1275 N1277 1.384 . S
N1276 C1272 1.427 . S
N1276 C1273 1.384 . S
N1277 C1269 1.427 . S
N1277 C1275 1.384 . S
H1278 C1284 0.930 1_556 S
H1279 C1288 0.930 . S
H1280 C1293 0.929 . S
H1281 C1291 0.929 . S
H1282 C1286 0.929 . S
H1283 C1292 0.929 . S
C1284 H1278 0.930 1_554 S
C1284 C1285 1.367 . S
C1284 C1292 1.378 . S
C1285 C1284 1.367 . S
C1285 C1293 1.433 . S
C1286 H1282 0.929 . S
C1286 C1288 1.378 . S
C1286 C1290 1.350 . S
C1287 C1290 1.463 . S
C1287 C1292 1.350 . S
C1287 N1295 1.427 . S
C1288 H1279 0.930 . S
C1288 C1286 1.378 . S
C1288 C1289 1.367 . S
C1289 C1288 1.367 . S
C1289 C1291 1.433 . S
C1290 C1286 1.350 . S
C1290 C1287 1.463 . S
C1290 N1294 1.427 . S
C1291 H1281 0.929 . S
C1291 C1289 1.433 . S
C1291 N1294 1.384 . S
C1292 H1283 0.929 . S
C1292 C1284 1.378 . S
C1292 C1287 1.350 . S
C1293 H1280 0.929 . S
C1293 C1285 1.433 . S
C1293 N1295 1.384 . S
N1294 C1290 1.427 . S
N1294 C1291 1.384 . S
N1295 C1287 1.427 . S
N1295 C1293 1.384 . S
H1296 C1302 0.922 1_556 S
H1297 C1306 0.930 . S
H1298 C1311 0.929 . S
H1299 C1309 0.929 . S
H1300 C1304 0.929 . S
H1301 C1310 0.929 . S
C1302 H1296 0.922 1_554 S
C1302 C1303 1.367 . S
C1302 C1310 1.378 . S
C1303 C1302 1.367 . S
C1303 C1311 1.433 . S
C1304 H1300 0.929 . S
C1304 C1306 1.378 . S
C1304 C1308 1.350 . S
C1305 C1308 1.463 . S
C1305 C1310 1.350 . S
C1305 N1313 1.427 . S
C1306 H1297 0.930 . S
C1306 C1304 1.378 . S
C1306 C1307 1.367 . S
C1307 C1306 1.367 . S
C1307 C1309 1.433 . S
C1308 C1304 1.350 . S
C1308 C1305 1.463 . S
C1308 N1312 1.427 . S
C1309 H1299 0.929 . S
C1309 C1307 1.433 . S
C1309 N1312 1.384 . S
C1310 H1301 0.929 . S
C1310 C1302 1.378 . S
C1310 C1305 1.350 . S
C1311 H1298 0.929 . S
C1311 C1303 1.433 . S
C1311 N1313 1.384 . S
N1312 C1308 1.427 . S
N1312 C1309 1.384 . S
N1313 C1305 1.427 . S
N1313 C1311 1.384 . S
H1314 C1320 0.930 . S
H1315 C1324 0.930 . S
H1316 C1329 0.929 . S
H1317 C1327 0.929 . S
H1318 C1322 0.929 . S
H1319 C1328 0.929 . S
C1320 H1314 0.930 . S
C1320 C1321 1.367 . S
C1320 C1328 1.378 . S
C1321 C1320 1.367 . S
C1321 C1329 1.433 . S
C1322 H1318 0.929 . S
C1322 C1324 1.378 . S
C1322 C1326 1.350 . S
C1323 C1326 1.463 . S
C1323 C1328 1.350 . S
C1323 N1331 1.427 . S
C1324 H1315 0.930 . S
C1324 C1322 1.378 . S
C1324 C1325 1.367 . S
C1325 C1324 1.367 . S
C1325 C1327 1.433 . S
C1326 C1322 1.350 . S
C1326 C1323 1.463 . S
C1326 N1330 1.427 . S
C1327 H1317 0.929 . S
C1327 C1325 1.433 . S
C1327 N1330 1.384 . S
C1328 H1319 0.929 . S
C1328 C1320 1.378 . S
C1328 C1323 1.350 . S
C1329 H1316 0.929 . S
C1329 C1321 1.433 . S
C1329 N1331 1.384 . S
N1330 C1326 1.427 . S
N1330 C1327 1.384 . S
N1331 C1323 1.427 . S
N1331 C1329 1.384 . S
H1332 C1338 0.930 1_554 S
H1333 C1342 0.930 . S
H1334 C1347 0.929 . S
H1335 C1345 0.929 . S
H1336 C1340 0.929 . S
H1337 C1346 0.929 . S
C1338 H1332 0.930 1_556 S
C1338 C1339 1.367 . S
C1338 C1346 1.378 . S
C1339 C1338 1.367 . S
C1339 C1347 1.433 . S
C1340 H1336 0.929 . S
C1340 C1342 1.378 . S
C1340 C1344 1.350 . S
C1341 C1344 1.463 . S
C1341 C1346 1.350 . S
C1341 N1349 1.427 . S
C1342 H1333 0.930 . S
C1342 C1340 1.378 . S
C1342 C1343 1.367 . S
C1343 C1342 1.367 . S
C1343 C1345 1.433 . S
C1344 C1340 1.350 . S
C1344 C1341 1.463 . S
C1344 N1348 1.427 . S
C1345 H1335 0.929 . S
C1345 C1343 1.433 . S
C1345 N1348 1.384 . S
C1346 H1337 0.929 . S
C1346 C1338 1.378 . S
C1346 C1341 1.350 . S
C1347 H1334 0.929 . S
C1347 C1339 1.433 . S
C1347 N1349 1.384 . S
N1348 C1344 1.427 . S
N1348 C1345 1.384 . S
N1349 C1341 1.427 . S
N1349 C1347 1.384 . S
H1350 C1356 0.930 . S
H1351 C1360 0.930 1_554 S
H1352 C1365 0.929 . S
H1353 C1363 0.929 . S
H1354 C1358 0.929 . S
H1355 C1364 0.929 . S
C1356 H1350 0.930 . S
C1356 C1357 1.367 . S
C1356 C1364 1.378 . S
C1357 C1356 1.367 . S
C1357 C1365 1.433 . S
C1358 H1354 0.929 . S
C1358 C1360 1.378 . S
C1358 C1362 1.350 . S
C1359 C1362 1.463 . S
C1359 C1364 1.350 . S
C1359 N1367 1.427 . S
C1360 H1351 0.930 1_556 S
C1360 C1358 1.378 . S
C1360 C1361 1.367 . S
C1361 C1360 1.367 . S
C1361 C1363 1.433 . S
C1362 C1358 1.350 . S
C1362 C1359 1.463 . S
C1362 N1366 1.427 . S
C1363 H1353 0.929 . S
C1363 C1361 1.433 . S
C1363 N1366 1.384 . S
C1364 H1355 0.929 . S
C1364 C1356 1.378 . S
C1364 C1359 1.350 . S
C1365 H1352 0.929 . S
C1365 C1357 1.433 . S
C1365 N1367 1.384 . S
N1366 C1362 1.427 . S
N1366 C1363 1.384 . S
N1367 C1359 1.427 . S
N1367 C1365 1.384 . S
H1368 C1374 0.930 . S
H1369 C1378 0.930 . S
H1370 C1383 0.929 1_554 S
H1371 C1381 0.929 . S
H1372 C1376 0.929 . S
H1373 C1382 0.929 . S
C1374 H1368 0.930 . S
C1374 C1375 1.367 . S
C1374 C1382 1.378 . S
C1375 C1374 1.367 . S
C1375 C1383 1.433 . S
C1376 H1372 0.929 . S
C1376 C1378 1.378 . S
C1376 C1380 1.350 . S
C1377 C1380 1.463 . S
C1377 C1382 1.350 . S
C1377 N1385 1.427 . S
C1378 H1369 0.930 . S
C1378 C1376 1.378 . S
C1378 C1379 1.367 . S
C1379 C1378 1.367 . S
C1379 C1381 1.433 . S
C1380 C1376 1.350 . S
C1380 C1377 1.463 . S
C1380 N1384 1.427 . S
C1381 H1371 0.929 . S
C1381 C1379 1.433 . S
C1381 N1384 1.384 . S
C1382 H1373 0.929 . S
C1382 C1374 1.378 . S
C1382 C1377 1.350 . S
C1383 H1370 0.929 1_556 S
C1383 C1375 1.433 . S
C1383 N1385 1.384 . S
N1384 C1380 1.427 . S
N1384 C1381 1.384 . S
N1385 C1377 1.427 . S
N1385 C1383 1.384 . S
H1386 C1392 0.930 . S
H1387 C1396 0.930 . S
H1388 C1401 0.929 . S
H1389 C1399 0.929 . S
H1390 C1394 0.929 . S
H1391 C1400 0.929 . S
C1392 H1386 0.930 . S
C1392 C1393 1.367 . S
C1392 C1400 1.378 . S
C1393 C1392 1.367 . S
C1393 C1401 1.433 . S
C1394 H1390 0.929 . S
C1394 C1396 1.378 . S
C1394 C1398 1.350 . S
C1395 C1398 1.463 . S
C1395 C1400 1.350 . S
C1395 N1403 1.427 . S
C1396 H1387 0.930 . S
C1396 C1394 1.378 . S
C1396 C1397 1.367 . S
C1397 C1396 1.367 . S
C1397 C1399 1.433 . S
C1398 C1394 1.350 . S
C1398 C1395 1.463 . S
C1398 N1402 1.427 . S
C1399 H1389 0.929 . S
C1399 C1397 1.433 . S
C1399 N1402 1.384 . S
C1400 H1391 0.929 . S
C1400 C1392 1.378 . S
C1400 C1395 1.350 . S
C1401 H1388 0.929 . S
C1401 C1393 1.433 . S
C1401 N1403 1.384 . S
N1402 C1398 1.427 . S
N1402 C1399 1.384 . S
N1403 C1395 1.427 . S
N1403 C1401 1.384 . S
H1404 C1410 0.930 . S
H1405 C1414 0.930 . S
H1406 C1419 0.929 . S
H1407 C1417 0.929 . S
H1408 C1412 0.929 . S
H1409 C1418 0.929 . S
C1410 H1404 0.930 . S
C1410 C1411 1.367 . S
C1410 C1418 1.378 . S
C1411 C1410 1.367 . S
C1411 C1419 1.433 . S
C1412 H1408 0.929 . S
C1412 C1414 1.378 . S
C1412 C1416 1.350 . S
C1413 C1416 1.463 . S
C1413 C1418 1.350 . S
C1413 N1421 1.427 . S
C1414 H1405 0.930 . S
C1414 C1412 1.378 . S
C1414 C1415 1.367 . S
C1415 C1414 1.367 . S
C1415 C1417 1.433 . S
C1416 C1412 1.350 . S
C1416 C1413 1.463 . S
C1416 N1420 1.427 . S
C1417 H1407 0.929 . S
C1417 C1415 1.433 . S
C1417 N1420 1.384 . S
C1418 H1409 0.929 . S
C1418 C1410 1.378 . S
C1418 C1413 1.350 . S
C1419 H1406 0.929 . S
C1419 C1411 1.433 . S
C1419 N1421 1.384 . S
N1420 C1416 1.427 . S
N1420 C1417 1.384 . S
N1421 C1413 1.427 . S
N1421 C1419 1.384 . S
H1422 C1428 0.930 . S
H1423 C1432 0.930 . S
H1424 C1437 0.929 . S
H1425 C1435 0.929 . S
H1426 C1430 0.929 . S
H1427 C1436 0.929 . S
C1428 H1422 0.930 . S
C1428 C1429 1.367 . S
C1428 C1436 1.378 . S
C1429 C1428 1.367 . S
C1429 C1437 1.433 . S
C1430 H1426 0.929 . S
C1430 C1432 1.378 . S
C1430 C1434 1.350 . S
C1431 C1434 1.463 . S
C1431 C1436 1.350 . S
C1431 N1439 1.427 . S
C1432 H1423 0.930 . S
C1432 C1430 1.378 . S
C1432 C1433 1.367 . S
C1433 C1432 1.367 . S
C1433 C1435 1.433 . S
C1434 C1430 1.350 . S
C1434 C1431 1.463 . S
C1434 N1438 1.427 . S
C1435 H1425 0.929 . S
C1435 C1433 1.433 . S
C1435 N1438 1.384 . S
C1436 H1427 0.929 . S
C1436 C1428 1.378 . S
C1436 C1431 1.350 . S
C1437 H1424 0.929 . S
C1437 C1429 1.433 . S
C1437 N1439 1.384 . S
N1438 C1434 1.427 . S
N1438 C1435 1.384 . S
N1439 C1431 1.427 . S
N1439 C1437 1.384 . S
H1440 C1446 0.930 . S
H1441 C1450 0.930 . S
H1442 C1455 0.929 . S
H1443 C1453 0.929 . S
H1444 C1448 0.929 . S
H1445 C1454 0.929 . S
C1446 H1440 0.930 . S
C1446 C1447 1.367 . S
C1446 C1454 1.378 . S
C1447 C1446 1.367 . S
C1447 C1455 1.433 . S
C1448 H1444 0.929 . S
C1448 C1450 1.378 . S
C1448 C1452 1.350 . S
C1449 C1452 1.463 . S
C1449 C1454 1.350 . S
C1449 N1457 1.427 . S
C1450 H1441 0.930 . S
C1450 C1448 1.378 . S
C1450 C1451 1.367 . S
C1451 C1450 1.367 . S
C1451 C1453 1.433 . S
C1452 C1448 1.350 . S
C1452 C1449 1.463 . S
C1452 N1456 1.427 . S
C1453 H1443 0.929 . S
C1453 C1451 1.433 . S
C1453 N1456 1.384 . S
C1454 H1445 0.929 . S
C1454 C1446 1.378 . S
C1454 C1449 1.350 . S
C1455 H1442 0.929 . S
C1455 C1447 1.433 . S
C1455 N1457 1.384 . S
N1456 C1452 1.427 . S
N1456 C1453 1.384 . S
N1457 C1449 1.427 . S
N1457 C1455 1.384 . S
H1458 C1464 0.930 . S
H1459 C1468 0.930 . S
H1460 C1473 0.929 . S
H1461 C1471 0.929 . S
H1462 C1466 0.929 . S
H1463 C1472 0.929 . S
C1464 H1458 0.930 . S
C1464 C1465 1.367 . S
C1464 C1472 1.378 . S
C1465 C1464 1.367 . S
C1465 C1473 1.433 . S
C1466 H1462 0.929 . S
C1466 C1468 1.378 . S
C1466 C1470 1.350 . S
C1467 C1470 1.463 . S
C1467 C1472 1.350 . S
C1467 N1475 1.427 . S
C1468 H1459 0.930 . S
C1468 C1466 1.378 . S
C1468 C1469 1.367 . S
C1469 C1468 1.367 . S
C1469 C1471 1.433 . S
C1470 C1466 1.350 . S
C1470 C1467 1.463 . S
C1470 N1474 1.427 . S
C1471 H1461 0.929 . S
C1471 C1469 1.433 . S
C1471 N1474 1.384 . S
C1472 H1463 0.929 . S
C1472 C1464 1.378 . S
C1472 C1467 1.350 . S
C1473 H1460 0.929 . S
C1473 C1465 1.433 . S
C1473 N1475 1.384 . S
N1474 C1470 1.427 . S
N1474 C1471 1.384 . S
N1475 C1467 1.427 . S
N1475 C1473 1.384 . S
H1476 C1482 0.930 . S
H1477 C1486 0.930 . S
H1478 C1491 0.929 . S
H1479 C1489 0.929 . S
H1480 C1484 0.929 . S
H1481 C1490 0.929 . S
C1482 H1476 0.930 . S
C1482 C1483 1.367 . S
C1482 C1490 1.378 . S
C1483 C1482 1.367 . S
C1483 C1491 1.433 . S
C1484 H1480 0.929 . S
C1484 C1486 1.378 . S
C1484 C1488 1.350 . S
C1485 C1488 1.463 . S
C1485 C1490 1.350 . S
C1485 N1493 1.427 . S
C1486 H1477 0.930 . S
C1486 C1484 1.378 . S
C1486 C1487 1.367 . S
C1487 C1486 1.367 . S
C1487 C1489 1.433 . S
C1488 C1484 1.350 . S
C1488 C1485 1.463 . S
C1488 N1492 1.427 . S
C1489 H1479 0.929 . S
C1489 C1487 1.433 . S
C1489 N1492 1.384 . S
C1490 H1481 0.929 . S
C1490 C1482 1.378 . S
C1490 C1485 1.350 . S
C1491 H1478 0.929 . S
C1491 C1483 1.433 . S
C1491 N1493 1.384 . S
N1492 C1488 1.427 . S
N1492 C1489 1.384 . S
N1493 C1485 1.427 . S
N1493 C1491 1.384 . S
H1494 C1500 0.930 . S
H1495 C1504 0.930 . S
H1496 C1509 0.929 . S
H1497 C1507 0.929 . S
H1498 C1502 0.929 . S
H1499 C1508 0.929 . S
C1500 H1494 0.930 . S
C1500 C1501 1.367 . S
C1500 C1508 1.378 . S
C1501 C1500 1.367 . S
C1501 C1509 1.433 . S
C1502 H1498 0.929 . S
C1502 C1504 1.378 . S
C1502 C1506 1.350 . S
C1503 C1506 1.463 . S
C1503 C1508 1.350 . S
C1503 N1511 1.427 . S
C1504 H1495 0.930 . S
C1504 C1502 1.378 . S
C1504 C1505 1.367 . S
C1505 C1504 1.367 . S
C1505 C1507 1.433 . S
C1506 C1502 1.350 . S
C1506 C1503 1.463 . S
C1506 N1510 1.427 . S
C1507 H1497 0.929 . S
C1507 C1505 1.433 . S
C1507 N1510 1.384 . S
C1508 H1499 0.929 . S
C1508 C1500 1.378 . S
C1508 C1503 1.350 . S
C1509 H1496 0.929 . S
C1509 C1501 1.433 . S
C1509 N1511 1.384 . S
N1510 C1506 1.427 . S
N1510 C1507 1.384 . S
N1511 C1503 1.427 . S
N1511 C1509 1.384 . S
H1512 C1518 0.930 . S
H1513 C1522 0.930 . S
H1514 C1527 0.929 . S
H1515 C1525 0.929 . S
H1516 C1520 0.929 . S
H1517 C1526 0.929 . S
C1518 H1512 0.930 . S
C1518 C1519 1.367 . S
C1518 C1526 1.378 . S
C1519 C1518 1.367 . S
C1519 C1527 1.433 . S
C1520 H1516 0.929 . S
C1520 C1522 1.378 . S
C1520 C1524 1.350 . S
C1521 C1524 1.463 . S
C1521 C1526 1.350 . S
C1521 N1529 1.427 . S
C1522 H1513 0.930 . S
C1522 C1520 1.378 . S
C1522 C1523 1.367 . S
C1523 C1522 1.367 . S
C1523 C1525 1.433 . S
C1524 C1520 1.350 . S
C1524 C1521 1.463 . S
C1524 N1528 1.427 . S
C1525 H1515 0.929 . S
C1525 C1523 1.433 . S
C1525 N1528 1.384 . S
C1526 H1517 0.929 . S
C1526 C1518 1.378 . S
C1526 C1521 1.350 . S
C1527 H1514 0.929 . S
C1527 C1519 1.433 . S
C1527 N1529 1.384 . S
N1528 C1524 1.427 . S
N1528 C1525 1.384 . S
N1529 C1521 1.427 . S
N1529 C1527 1.384 . S
H1530 C1536 0.930 . S
H1531 C1540 0.930 . S
H1532 C1545 0.929 . S
H1533 C1543 0.929 . S
H1534 C1538 0.929 . S
H1535 C1544 0.929 . S
C1536 H1530 0.930 . S
C1536 C1537 1.367 . S
C1536 C1544 1.378 . S
C1537 C1536 1.367 . S
C1537 C1545 1.433 . S
C1538 H1534 0.929 . S
C1538 C1540 1.378 . S
C1538 C1542 1.350 . S
C1539 C1542 1.463 . S
C1539 C1544 1.350 . S
C1539 N1547 1.427 . S
C1540 H1531 0.930 . S
C1540 C1538 1.378 . S
C1540 C1541 1.367 . S
C1541 C1540 1.367 . S
C1541 C1543 1.433 . S
C1542 C1538 1.350 . S
C1542 C1539 1.463 . S
C1542 N1546 1.427 . S
C1543 H1533 0.929 . S
C1543 C1541 1.433 . S
C1543 N1546 1.384 . S
C1544 H1535 0.929 . S
C1544 C1536 1.378 . S
C1544 C1539 1.350 . S
C1545 H1532 0.929 . S
C1545 C1537 1.433 . S
C1545 N1547 1.384 . S
N1546 C1542 1.427 . S
N1546 C1543 1.384 . S
N1547 C1539 1.427 . S
N1547 C1545 1.384 . S
H1548 C1554 0.930 . S
H1549 C1558 0.930 . S
H1550 C1563 0.929 . S
H1551 C1561 0.929 . S
H1552 C1556 0.929 . S
H1553 C1562 0.929 . S
C1554 H1548 0.930 . S
C1554 C1555 1.367 . S
C1554 C1562 1.378 . S
C1555 C1554 1.367 . S
C1555 C1563 1.433 . S
C1556 H1552 0.929 . S
C1556 C1558 1.378 . S
C1556 C1560 1.350 . S
C1557 C1560 1.463 . S
C1557 C1562 1.350 . S
C1557 N1565 1.427 . S
C1558 H1549 0.930 . S
C1558 C1556 1.378 . S
C1558 C1559 1.367 . S
C1559 C1558 1.367 . S
C1559 C1561 1.433 . S
C1560 C1556 1.350 . S
C1560 C1557 1.463 . S
C1560 N1564 1.427 . S
C1561 H1551 0.929 . S
C1561 C1559 1.433 . S
C1561 N1564 1.384 . S
C1562 H1553 0.929 . S
C1562 C1554 1.378 . S
C1562 C1557 1.350 . S
C1563 H1550 0.929 . S
C1563 C1555 1.433 . S
C1563 N1565 1.384 . S
N1564 C1560 1.427 . S
N1564 C1561 1.384 . S
N1565 C1557 1.427 . S
N1565 C1563 1.384 . S
H1566 C1572 0.930 . S
H1567 C1576 0.930 . S
H1568 C1581 0.929 . S
H1569 C1579 0.929 . S
H1570 C1574 0.929 . S
H1571 C1580 0.929 . S
C1572 H1566 0.930 . S
C1572 C1573 1.367 . S
C1572 C1580 1.378 . S
C1573 C1572 1.367 . S
C1573 C1581 1.433 . S
C1574 H1570 0.929 . S
C1574 C1576 1.378 . S
C1574 C1578 1.350 . S
C1575 C1578 1.463 . S
C1575 C1580 1.350 . S
C1575 N1583 1.427 . S
C1576 H1567 0.930 . S
C1576 C1574 1.378 . S
C1576 C1577 1.367 . S
C1577 C1576 1.367 . S
C1577 C1579 1.433 . S
C1578 C1574 1.350 . S
C1578 C1575 1.463 . S
C1578 N1582 1.427 . S
C1579 H1569 0.929 . S
C1579 C1577 1.433 . S
C1579 N1582 1.384 . S
C1580 H1571 0.929 . S
C1580 C1572 1.378 . S
C1580 C1575 1.350 . S
C1581 H1568 0.929 . S
C1581 C1573 1.433 . S
C1581 N1583 1.384 . S
N1582 C1578 1.427 . S
N1582 C1579 1.384 . S
N1583 C1575 1.427 . S
N1583 C1581 1.384 . S
H1584 C1590 0.930 . S
H1585 C1594 0.930 . S
H1586 C1599 0.929 . S
H1587 C1597 0.929 . S
H1588 C1592 0.929 . S
H1589 C1598 0.929 . S
C1590 H1584 0.930 . S
C1590 C1591 1.367 . S
C1590 C1598 1.378 . S
C1591 C1590 1.367 . S
C1591 C1599 1.433 . S
C1592 H1588 0.929 . S
C1592 C1594 1.378 . S
C1592 C1596 1.350 . S
C1593 C1596 1.463 . S
C1593 C1598 1.350 . S
C1593 N1601 1.427 . S
C1594 H1585 0.930 . S
C1594 C1592 1.378 . S
C1594 C1595 1.367 . S
C1595 C1594 1.367 . S
C1595 C1597 1.433 . S
C1596 C1592 1.350 . S
C1596 C1593 1.463 . S
C1596 N1600 1.427 . S
C1597 H1587 0.929 . S
C1597 C1595 1.433 . S
C1597 N1600 1.384 . S
C1598 H1589 0.929 . S
C1598 C1590 1.378 . S
C1598 C1593 1.350 . S
C1599 H1586 0.929 . S
C1599 C1591 1.433 . S
C1599 N1601 1.384 . S
N1600 C1596 1.427 . S
N1600 C1597 1.384 . S
N1601 C1593 1.427 . S
N1601 C1599 1.384 . S
H1602 C1608 0.930 . S
H1603 C1612 0.930 . S
H1604 C1617 0.929 . S
H1605 C1615 0.929 . S
H1606 C1610 0.929 . S
H1607 C1616 0.929 . S
C1608 H1602 0.930 . S
C1608 C1609 1.367 . S
C1608 C1616 1.378 . S
C1609 C1608 1.367 . S
C1609 C1617 1.433 . S
C1610 H1606 0.929 . S
C1610 C1612 1.378 . S
C1610 C1614 1.350 . S
C1611 C1614 1.463 . S
C1611 C1616 1.350 . S
C1611 N1619 1.427 . S
C1612 H1603 0.930 . S
C1612 C1610 1.378 . S
C1612 C1613 1.367 . S
C1613 C1612 1.367 . S
C1613 C1615 1.433 . S
C1614 C1610 1.350 . S
C1614 C1611 1.463 . S
C1614 N1618 1.427 . S
C1615 H1605 0.929 . S
C1615 C1613 1.433 . S
C1615 N1618 1.384 . S
C1616 H1607 0.929 . S
C1616 C1608 1.378 . S
C1616 C1611 1.350 . S
C1617 H1604 0.929 . S
C1617 C1609 1.433 . S
C1617 N1619 1.384 . S
N1618 C1614 1.427 . S
N1618 C1615 1.384 . S
N1619 C1611 1.427 . S
N1619 C1617 1.384 . S
H1620 C1626 0.930 . S
H1621 C1630 0.930 . S
H1622 C1635 0.929 . S
H1623 C1633 0.929 . S
H1624 C1628 0.929 . S
H1625 C1634 0.929 . S
C1626 H1620 0.930 . S
C1626 C1627 1.367 . S
C1626 C1634 1.378 . S
C1627 C1626 1.367 . S
C1627 C1635 1.433 . S
C1628 H1624 0.929 . S
C1628 C1630 1.378 . S
C1628 C1632 1.350 . S
C1629 C1632 1.463 . S
C1629 C1634 1.350 . S
C1629 N1637 1.427 . S
C1630 H1621 0.930 . S
C1630 C1628 1.378 . S
C1630 C1631 1.367 . S
C1631 C1630 1.367 . S
C1631 C1633 1.433 . S
C1632 C1628 1.350 . S
C1632 C1629 1.463 . S
C1632 N1636 1.427 . S
C1633 H1623 0.929 . S
C1633 C1631 1.433 . S
C1633 N1636 1.384 . S
C1634 H1625 0.929 . S
C1634 C1626 1.378 . S
C1634 C1629 1.350 . S
C1635 H1622 0.929 . S
C1635 C1627 1.433 . S
C1635 N1637 1.384 . S
N1636 C1632 1.427 . S
N1636 C1633 1.384 . S
N1637 C1629 1.427 . S
N1637 C1635 1.384 . S
H1638 C1644 0.930 . S
H1639 C1648 0.930 . S
H1640 C1653 0.929 . S
H1641 C1651 0.929 . S
H1642 C1646 0.929 . S
H1643 C1652 0.929 . S
C1644 H1638 0.930 . S
C1644 C1645 1.367 . S
C1644 C1652 1.378 . S
C1645 C1644 1.367 . S
C1645 C1653 1.433 . S
C1646 H1642 0.929 . S
C1646 C1648 1.378 . S
C1646 C1650 1.350 . S
C1647 C1650 1.463 . S
C1647 C1652 1.350 . S
C1647 N1655 1.427 . S
C1648 H1639 0.930 . S
C1648 C1646 1.378 . S
C1648 C1649 1.367 . S
C1649 C1648 1.367 . S
C1649 C1651 1.433 . S
C1650 C1646 1.350 . S
C1650 C1647 1.463 . S
C1650 N1654 1.427 . S
C1651 H1641 0.929 . S
C1651 C1649 1.433 . S
C1651 N1654 1.384 . S
C1652 H1643 0.929 . S
C1652 C1644 1.378 . S
C1652 C1647 1.350 . S
C1653 H1640 0.929 . S
C1653 C1645 1.433 . S
C1653 N1655 1.384 . S
N1654 C1650 1.427 . S
N1654 C1651 1.384 . S
N1655 C1647 1.427 . S
N1655 C1653 1.384 . S
H1656 C1662 0.930 . S
H1657 C1666 0.930 . S
H1658 C1671 0.929 . S
H1659 C1669 0.929 . S
H1660 C1664 0.929 . S
H1661 C1670 0.929 . S
C1662 H1656 0.930 . S
C1662 C1663 1.367 . S
C1662 C1670 1.378 . S
C1663 C1662 1.367 . S
C1663 C1671 1.433 . S
C1664 H1660 0.929 . S
C1664 C1666 1.378 . S
C1664 C1668 1.350 . S
C1665 C1668 1.463 1_455 S
C1665 C1670 1.350 . S
C1665 N1673 1.427 . S
C1666 H1657 0.930 . S
C1666 C1664 1.378 . S
C1666 C1667 1.367 . S
C1667 C1666 1.367 . S
C1667 C1669 1.433 . S
C1668 C1664 1.350 . S
C1668 C1665 1.463 1_655 S
C1668 N1672 1.427 . S
C1669 H1659 0.929 . S
C1669 C1667 1.433 . S
C1669 N1672 1.384 . S
C1670 H1661 0.929 . S
C1670 C1662 1.378 . S
C1670 C1665 1.350 . S
C1671 H1658 0.929 . S
C1671 C1663 1.433 . S
C1671 N1673 1.384 . S
N1672 C1668 1.427 . S
N1672 C1669 1.384 . S
N1673 C1665 1.427 . S
N1673 C1671 1.384 . S
H1674 C1680 0.930 . S
H1675 C1684 0.930 . S
H1676 C1689 0.929 . S
H1677 C1687 0.929 . S
H1678 C1682 0.929 . S
H1679 C1688 0.929 . S
C1680 H1674 0.930 . S
C1680 C1681 1.367 . S
C1680 C1688 1.378 . S
C1681 C1680 1.367 . S
C1681 C1689 1.433 . S
C1682 H1678 0.929 . S
C1682 C1684 1.378 . S
C1682 C1686 1.350 . S
C1683 C1686 1.463 . S
C1683 C1688 1.350 . S
C1683 N1691 1.427 . S
C1684 H1675 0.930 . S
C1684 C1682 1.378 . S
C1684 C1685 1.367 . S
C1685 C1684 1.367 . S
C1685 C1687 1.433 . S
C1686 C1682 1.350 . S
C1686 C1683 1.463 . S
C1686 N1690 1.427 . S
C1687 H1677 0.929 . S
C1687 C1685 1.433 . S
C1687 N1690 1.384 . S
C1688 H1679 0.929 . S
C1688 C1680 1.378 . S
C1688 C1683 1.350 . S
C1689 H1676 0.929 . S
C1689 C1681 1.433 . S
C1689 N1691 1.384 . S
N1690 C1686 1.427 . S
N1690 C1687 1.384 . S
N1691 C1683 1.427 . S
N1691 C1689 1.384 . S
H1692 C1698 0.930 . S
H1693 C1702 0.930 . S
H1694 C1707 0.929 . S
H1695 C1705 0.929 . S
H1696 C1700 0.929 . S
H1697 C1706 0.929 . S
C1698 H1692 0.930 . S
C1698 C1699 1.367 . S
C1698 C1706 1.378 . S
C1699 C1698 1.367 . S
C1699 C1707 1.433 . S
C1700 H1696 0.929 . S
C1700 C1702 1.378 . S
C1700 C1704 1.350 . S
C1701 C1704 1.463 1_545 S
C1701 C1706 1.350 . S
C1701 N1709 1.427 . S
C1702 H1693 0.930 . S
C1702 C1700 1.378 . S
C1702 C1703 1.367 . S
C1703 C1702 1.367 . S
C1703 C1705 1.433 . S
C1704 C1700 1.350 . S
C1704 C1701 1.463 1_565 S
C1704 N1708 1.427 . S
C1705 H1695 0.929 . S
C1705 C1703 1.433 . S
C1705 N1708 1.384 . S
C1706 H1697 0.929 . S
C1706 C1698 1.378 . S
C1706 C1701 1.350 . S
C1707 H1694 0.929 . S
C1707 C1699 1.433 . S
C1707 N1709 1.384 . S
N1708 C1704 1.427 . S
N1708 C1705 1.384 . S
N1709 C1701 1.427 . S
N1709 C1707 1.384 . S
H1710 C1716 0.930 . S
H1711 C1720 0.930 . S
H1712 C1725 0.929 . S
H1713 C1723 0.929 . S
H1714 C1718 0.929 . S
H1715 C1724 0.929 . S
C1716 H1710 0.930 . S
C1716 C1717 1.367 . S
C1716 C1724 1.378 . S
C1717 C1716 1.367 . S
C1717 C1725 1.433 1_556 S
C1718 H1714 0.929 . S
C1718 C1720 1.378 . S
C1718 C1722 1.350 . S
C1719 C1722 1.463 1_546 S
C1719 C1724 1.350 . S
C1719 N1727 1.427 1_556 S
C1720 H1711 0.930 . S
C1720 C1718 1.378 . S
C1720 C1721 1.367 . S
C1721 C1720 1.367 . S
C1721 C1723 1.433 1_554 S
C1722 C1718 1.350 . S
C1722 C1719 1.463 1_564 S
C1722 N1726 1.427 1_554 S
C1723 H1713 0.929 . S
C1723 C1721 1.433 1_556 S
C1723 N1726 1.384 . S
C1724 H1715 0.929 . S
C1724 C1716 1.378 . S
C1724 C1719 1.350 . S
C1725 H1712 0.929 . S
C1725 C1717 1.433 1_554 S
C1725 N1727 1.384 . S
N1726 C1722 1.427 1_556 S
N1726 C1723 1.384 . S
N1727 C1719 1.427 1_554 S
N1727 C1725 1.384 . S
H1728 C1734 0.930 1_554 S
H1729 C1738 0.930 1_556 S
H1730 C1743 0.929 . S
H1731 C1741 0.929 . S
H1732 C1736 0.929 . S
H1733 C1742 0.929 . S
C1734 H1728 0.930 1_556 S
C1734 C1735 1.367 . S
C1734 C1742 1.378 1_556 S
C1735 C1734 1.367 . S
C1735 C1743 1.433 . S
C1736 H1732 0.929 . S
C1736 C1738 1.378 1_556 S
C1736 C1740 1.350 1_556 S
C1737 C1740 1.463 1_656 S
C1737 C1742 1.350 1_556 S
C1737 N1745 1.427 . S
C1738 H1729 0.930 1_554 S
C1738 C1736 1.378 1_554 S
C1738 C1739 1.367 . S
C1739 C1738 1.367 . S
C1739 C1741 1.433 . S
C1740 C1736 1.350 1_554 S
C1740 C1737 1.463 1_454 S
C1740 N1744 1.427 . S
C1741 H1731 0.929 . S
C1741 C1739 1.433 . S
C1741 N1744 1.384 . S
C1742 H1733 0.929 . S
C1742 C1734 1.378 1_554 S
C1742 C1737 1.350 1_554 S
C1743 H1730 0.929 . S
C1743 C1735 1.433 . S
C1743 N1745 1.384 . S
N1744 C1740 1.427 . S
N1744 C1741 1.384 . S
N1745 C1737 1.427 . S
N1745 C1743 1.384 . S
H1746 C1752 0.930 . S
H1747 C1756 0.930 . S
H1748 C1761 0.929 . S
H1749 C1759 0.929 . S
H1750 C1754 0.929 . S
H1751 C1760 0.929 . S
C1752 H1746 0.930 . S
C1752 C1753 1.367 . S
C1752 C1760 1.378 . S
C1753 C1752 1.367 . S
C1753 C1761 1.433 1_556 S
C1754 H1750 0.929 . S
C1754 C1756 1.378 . S
C1754 C1758 1.350 . S
C1755 C1758 1.463 1_556 S
C1755 C1760 1.350 . S
C1755 N1763 1.427 1_556 S
C1756 H1747 0.930 . S
C1756 C1754 1.378 . S
C1756 C1757 1.367 . S
C1757 C1756 1.367 . S
C1757 C1759 1.433 1_554 S
C1758 C1754 1.350 . S
C1758 C1755 1.463 1_554 S
C1758 N1762 1.427 1_554 S
C1759 H1749 0.929 . S
C1759 C1757 1.433 1_556 S
C1759 N1762 1.384 . S
C1760 H1751 0.929 . S
C1760 C1752 1.378 . S
C1760 C1755 1.350 . S
C1761 H1748 0.929 . S
C1761 C1753 1.433 1_554 S
C1761 N1763 1.384 . S
N1762 C1758 1.427 1_556 S
N1762 C1759 1.384 . S
N1763 C1755 1.427 1_554 S
N1763 C1761 1.384 . S
C475 C10 1.101 . S
C479 C96 1.069 . S
C493 C23 1.098 . S
C497 C109 1.060 . S
C511 C83 1.048 . S
C515 C36 1.100 . S
C529 C148 1.046 . S
C533 C49 1.101 . S
C547 C62 1.103 . S
C551 C122 1.066 . S
C565 C75 1.100 . S
C569 C135 1.047 . S
C583 C18 1.046 . S
C587 C88 1.102 . S
C601 C31 1.050 . S
C605 C101 1.104 . S
C619 C114 1.101 . S
C623 C5 1.069 . S
C637 C127 1.104 . S
C641 C70 1.048 . S
C655 C44 1.063 . S
C659 C140 1.098 . S
C673 C153 1.105 . S
C677 C57 1.051 . S
C691 C252 1.064 . S
C695 C166 1.098 . S
C709 C179 1.100 . S
C713 C265 1.069 . S
C727 C192 1.098 . S
C731 C239 1.056 . S
C745 C304 1.051 . S
C749 C205 1.099 . S
C763 C218 1.100 . S
C767 C278 1.069 . S
C781 C291 1.050 . S
C785 C231 1.104 . S
C799 C174 1.069 . S
C803 C244 1.100 . S
C817 C257 1.105 . S
C821 C187 1.051 . S
C835 C161 1.047 . S
C839 C270 1.103 . S
C853 C283 1.098 . S
C857 C226 1.058 . S
C871 C296 1.099 . S
C875 C200 1.050 . S
C889 C309 1.102 . S
C893 C213 1.046 . S
C907 C408 1.048 . S
C911 C322 1.104 . S
C925 C421 1.047 . S
C929 C335 1.103 . S
C943 C395 1.068 . S
C947 C348 1.102 . S
C961 C361 1.099 . S
C965 C460 1.069 . S
C979 C374 1.102 . S
C983 C434 1.069 . S
C997 C447 1.068 . S
C1001 C387 1.099 . S
C1015 C400 1.098 . S
C1019 C330 1.059 . S
C1033 C343 1.049 . S
C1037 C413 1.104 . S
C1051 C317 1.046 . S
C1055 C426 1.102 . S
C1069 C439 1.100 . S
C1073 C382 1.069 . S
C1087 C452 1.098 . S
C1091 C356 1.055 . S
C1105 C465 1.104 . S
C1109 C369 1.048 . S
C1123 C47 1.301 . S
C1127 C8 1.297 . S
C1141 C60 1.283 . S
C1145 C21 1.280 . S
C1159 C34 1.279 . S
C1163 C73 1.280 . S
C1177 C125 1.282 . S
C1181 C86 1.279 . S
C1195 C138 1.299 . S
C1199 C99 1.294 . S
C1213 C151 1.302 . S
C1217 C112 1.301 . S
C1231 C203 1.291 . S
C1235 C164 1.286 . S
C1249 C216 1.300 . S
C1253 C177 1.302 . S
C1267 C190 1.281 . S
C1271 C229 1.286 . S
C1285 C281 1.279 1_554 S
C1289 C242 1.282 . S
C1303 C294 1.283 1_554 S
C1307 C255 1.280 . S
C1321 C307 1.284 1_554 S
C1325 C268 1.289 . S
C1339 C359 1.279 1_556 S
C1343 C320 1.279 . S
C1357 C333 1.279 . S
C1361 C372 1.279 1_556 S
C1375 C385 1.303 1_556 S
C1379 C346 1.301 . S
C1393 C398 1.302 . S
C1397 C437 1.298 . S
C1411 C411 1.279 . S
C1415 C450 1.280 . S
C1429 C424 1.285 . S
C1433 C463 1.290 . S
C1447 C0 1.420 . S
C1451 C234 1.420 . S
C1465 C247 1.417 . S
C1469 C13 1.417 . S
C1483 C260 1.417 . S
C1487 C26 1.417 . S
C1501 C429 1.415 . S
C1505 C39 1.415 . S
C1519 C442 1.422 . S
C1523 C52 1.422 . S
C1537 C455 1.426 . S
C1541 C65 1.426 . S
C1555 C78 1.414 . S
C1559 C312 1.414 . S
C1573 C325 1.424 . S
C1577 C91 1.424 . S
C1591 C338 1.416 . S
C1595 C104 1.416 . S
C1609 C117 1.421 . S
C1613 C195 1.421 . S
C1627 C130 1.417 . S
C1631 C208 1.417 . S
C1645 C143 1.414 . S
C1649 C221 1.414 . S
C1663 C390 1.426 . S
C1667 C156 1.426 . S
C1681 C403 1.423 . S
C1685 C169 1.423 . S
C1699 C182 1.424 . S
C1703 C416 1.424 . S
C1717 C273 1.421 . S
C1721 C351 1.421 . S
C1735 C286 1.424 . S
C1739 C364 1.424 . S
C1753 C299 1.421 . S
C1757 C377 1.421 . S
