# Generated by pormake.
# Topology pcu-g, (3)-cn, num edge types: 1
# Building blocks:
#     Node 0, Type 0, BuildingBlock: OLANEW_clean_sbu_2, # of connection points: 3
#     Node 1, Type 0, BuildingBlock: OLANEW_clean_sbu_2, # of connection points: 3
#     Node 2, Type 0, BuildingBlock: OLANEW_clean_sbu_2, # of connection points: 3
#     Node 3, Type 0, BuildingBlock: OLANEW_clean_sbu_2, # of connection points: 3
#     Node 4, Type 0, BuildingBlock: OLANEW_clean_sbu_2, # of connection points: 3
#     Node 5, Type 0, BuildingBlock: OLANEW_clean_sbu_2, # of connection points: 3
#     Node 6, Type 0, BuildingBlock: OLANEW_clean_sbu_2, # of connection points: 3
#     Node 7, Type 0, BuildingBlock: OLANEW_clean_sbu_2, # of connection points: 3
#     Node 8, Type 0, BuildingBlock: OLANEW_clean_sbu_2, # of connection points: 3
#     Node 9, Type 0, BuildingBlock: OLANEW_clean_sbu_2, # of connection points: 3
#     Node 10, Type 0, BuildingBlock: OLANEW_clean_sbu_2, # of connection points: 3
#     Node 11, Type 0, BuildingBlock: OLANEW_clean_sbu_2, # of connection points: 3
#     Node 12, Type 0, BuildingBlock: OLANEW_clean_sbu_2, # of connection points: 3
#     Node 13, Type 0, BuildingBlock: OLANEW_clean_sbu_2, # of connection points: 3
#     Node 14, Type 0, BuildingBlock: OLANEW_clean_sbu_2, # of connection points: 3
#     Node 15, Type 0, BuildingBlock: OLANEW_clean_sbu_2, # of connection points: 3
#     Node 16, Type 0, BuildingBlock: OLANEW_clean_sbu_2, # of connection points: 3
#     Node 17, Type 0, BuildingBlock: OLANEW_clean_sbu_2, # of connection points: 3
#     Node 18, Type 0, BuildingBlock: OLANEW_clean_sbu_2, # of connection points: 3
#     Node 19, Type 0, BuildingBlock: OLANEW_clean_sbu_2, # of connection points: 3
#     Node 20, Type 0, BuildingBlock: OLANEW_clean_sbu_2, # of connection points: 3
#     Node 21, Type 0, BuildingBlock: OLANEW_clean_sbu_2, # of connection points: 3
#     Node 22, Type 0, BuildingBlock: OLANEW_clean_sbu_2, # of connection points: 3
#     Node 23, Type 0, BuildingBlock: OLANEW_clean_sbu_2, # of connection points: 3
#     Node 24, Type 0, BuildingBlock: OLANEW_clean_sbu_2, # of connection points: 3
#     Node 25, Type 0, BuildingBlock: OLANEW_clean_sbu_2, # of connection points: 3
#     Node 26, Type 0, BuildingBlock: OLANEW_clean_sbu_2, # of connection points: 3
#     Node 27, Type 0, BuildingBlock: OLANEW_clean_sbu_2, # of connection points: 3
#     Node 28, Type 0, BuildingBlock: OLANEW_clean_sbu_2, # of connection points: 3
#     Node 29, Type 0, BuildingBlock: OLANEW_clean_sbu_2, # of connection points: 3
#     Node 30, Type 0, BuildingBlock: OLANEW_clean_sbu_2, # of connection points: 3
#     Node 31, Type 0, BuildingBlock: OLANEW_clean_sbu_2, # of connection points: 3
#     Node 32, Type 0, BuildingBlock: OLANEW_clean_sbu_2, # of connection points: 3
#     Node 33, Type 0, BuildingBlock: OLANEW_clean_sbu_2, # of connection points: 3
#     Node 34, Type 0, BuildingBlock: OLANEW_clean_sbu_2, # of connection points: 3
#     Node 35, Type 0, BuildingBlock: OLANEW_clean_sbu_2, # of connection points: 3
#     Node 36, Type 0, BuildingBlock: OLANEW_clean_sbu_2, # of connection points: 3
#     Node 37, Type 0, BuildingBlock: OLANEW_clean_sbu_2, # of connection points: 3
#     Node 38, Type 0, BuildingBlock: OLANEW_clean_sbu_2, # of connection points: 3
#     Node 39, Type 0, BuildingBlock: OLANEW_clean_sbu_2, # of connection points: 3
#     Node 40, Type 0, BuildingBlock: OLANEW_clean_sbu_2, # of connection points: 3
#     Node 41, Type 0, BuildingBlock: OLANEW_clean_sbu_2, # of connection points: 3
#     Node 42, Type 0, BuildingBlock: OLANEW_clean_sbu_2, # of connection points: 3
#     Node 43, Type 0, BuildingBlock: OLANEW_clean_sbu_2, # of connection points: 3
#     Node 44, Type 0, BuildingBlock: OLANEW_clean_sbu_2, # of connection points: 3
#     Node 45, Type 0, BuildingBlock: OLANEW_clean_sbu_2, # of connection points: 3
#     Node 46, Type 0, BuildingBlock: OLANEW_clean_sbu_2, # of connection points: 3
#     Node 47, Type 0, BuildingBlock: OLANEW_clean_sbu_2, # of connection points: 3
#     Edge 48, Type (0, 0), BuildingBlock: TEMPAE_clean_linker_10, # of connection points: 2
#     Edge 49, Type (0, 0), BuildingBlock: TEMPAE_clean_linker_10, # of connection points: 2
#     Edge 50, Type (0, 0), BuildingBlock: TEMPAE_clean_linker_10, # of connection points: 2
#     Edge 51, Type (0, 0), BuildingBlock: TEMPAE_clean_linker_10, # of connection points: 2
#     Edge 52, Type (0, 0), BuildingBlock: TEMPAE_clean_linker_10, # of connection points: 2
#     Edge 53, Type (0, 0), BuildingBlock: TEMPAE_clean_linker_10, # of connection points: 2
#     Edge 54, Type (0, 0), BuildingBlock: TEMPAE_clean_linker_10, # of connection points: 2
#     Edge 55, Type (0, 0), BuildingBlock: TEMPAE_clean_linker_10, # of connection points: 2
#     Edge 56, Type (0, 0), BuildingBlock: TEMPAE_clean_linker_10, # of connection points: 2
#     Edge 57, Type (0, 0), BuildingBlock: TEMPAE_clean_linker_10, # of connection points: 2
#     Edge 58, Type (0, 0), BuildingBlock: TEMPAE_clean_linker_10, # of connection points: 2
#     Edge 59, Type (0, 0), BuildingBlock: TEMPAE_clean_linker_10, # of connection points: 2
#     Edge 60, Type (0, 0), BuildingBlock: TEMPAE_clean_linker_10, # of connection points: 2
#     Edge 61, Type (0, 0), BuildingBlock: TEMPAE_clean_linker_10, # of connection points: 2
#     Edge 62, Type (0, 0), BuildingBlock: TEMPAE_clean_linker_10, # of connection points: 2
#     Edge 63, Type (0, 0), BuildingBlock: TEMPAE_clean_linker_10, # of connection points: 2
#     Edge 64, Type (0, 0), BuildingBlock: TEMPAE_clean_linker_10, # of connection points: 2
#     Edge 65, Type (0, 0), BuildingBlock: TEMPAE_clean_linker_10, # of connection points: 2
#     Edge 66, Type (0, 0), BuildingBlock: TEMPAE_clean_linker_10, # of connection points: 2
#     Edge 67, Type (0, 0), BuildingBlock: TEMPAE_clean_linker_10, # of connection points: 2
#     Edge 68, Type (0, 0), BuildingBlock: TEMPAE_clean_linker_10, # of connection points: 2
#     Edge 69, Type (0, 0), BuildingBlock: TEMPAE_clean_linker_10, # of connection points: 2
#     Edge 70, Type (0, 0), BuildingBlock: TEMPAE_clean_linker_10, # of connection points: 2
#     Edge 71, Type (0, 0), BuildingBlock: TEMPAE_clean_linker_10, # of connection points: 2
#     Edge 72, Type (0, 0), BuildingBlock: TEMPAE_clean_linker_10, # of connection points: 2
#     Edge 73, Type (0, 0), BuildingBlock: TEMPAE_clean_linker_10, # of connection points: 2
#     Edge 74, Type (0, 0), BuildingBlock: TEMPAE_clean_linker_10, # of connection points: 2
#     Edge 75, Type (0, 0), BuildingBlock: TEMPAE_clean_linker_10, # of connection points: 2
#     Edge 76, Type (0, 0), BuildingBlock: TEMPAE_clean_linker_10, # of connection points: 2
#     Edge 77, Type (0, 0), BuildingBlock: TEMPAE_clean_linker_10, # of connection points: 2
#     Edge 78, Type (0, 0), BuildingBlock: TEMPAE_clean_linker_10, # of connection points: 2
#     Edge 79, Type (0, 0), BuildingBlock: TEMPAE_clean_linker_10, # of connection points: 2
#     Edge 80, Type (0, 0), BuildingBlock: TEMPAE_clean_linker_10, # of connection points: 2
#     Edge 81, Type (0, 0), BuildingBlock: TEMPAE_clean_linker_10, # of connection points: 2
#     Edge 82, Type (0, 0), BuildingBlock: TEMPAE_clean_linker_10, # of connection points: 2
#     Edge 83, Type (0, 0), BuildingBlock: TEMPAE_clean_linker_10, # of connection points: 2
#     Edge 84, Type (0, 0), BuildingBlock: TEMPAE_clean_linker_10, # of connection points: 2
#     Edge 85, Type (0, 0), BuildingBlock: TEMPAE_clean_linker_10, # of connection points: 2
#     Edge 86, Type (0, 0), BuildingBlock: TEMPAE_clean_linker_10, # of connection points: 2
#     Edge 87, Type (0, 0), BuildingBlock: TEMPAE_clean_linker_10, # of connection points: 2
#     Edge 88, Type (0, 0), BuildingBlock: TEMPAE_clean_linker_10, # of connection points: 2
#     Edge 89, Type (0, 0), BuildingBlock: TEMPAE_clean_linker_10, # of connection points: 2
#     Edge 90, Type (0, 0), BuildingBlock: TEMPAE_clean_linker_10, # of connection points: 2
#     Edge 91, Type (0, 0), BuildingBlock: TEMPAE_clean_linker_10, # of connection points: 2
#     Edge 92, Type (0, 0), BuildingBlock: TEMPAE_clean_linker_10, # of connection points: 2
#     Edge 93, Type (0, 0), BuildingBlock: TEMPAE_clean_linker_10, # of connection points: 2
#     Edge 94, Type (0, 0), BuildingBlock: TEMPAE_clean_linker_10, # of connection points: 2
#     Edge 95, Type (0, 0), BuildingBlock: TEMPAE_clean_linker_10, # of connection points: 2
#     Edge 96, Type (0, 0), BuildingBlock: TEMPAE_clean_linker_10, # of connection points: 2
#     Edge 97, Type (0, 0), BuildingBlock: TEMPAE_clean_linker_10, # of connection points: 2
#     Edge 98, Type (0, 0), BuildingBlock: TEMPAE_clean_linker_10, # of connection points: 2
#     Edge 99, Type (0, 0), BuildingBlock: TEMPAE_clean_linker_10, # of connection points: 2
#     Edge 100, Type (0, 0), BuildingBlock: TEMPAE_clean_linker_10, # of connection points: 2
#     Edge 101, Type (0, 0), BuildingBlock: TEMPAE_clean_linker_10, # of connection points: 2
#     Edge 102, Type (0, 0), BuildingBlock: TEMPAE_clean_linker_10, # of connection points: 2
#     Edge 103, Type (0, 0), BuildingBlock: TEMPAE_clean_linker_10, # of connection points: 2
#     Edge 104, Type (0, 0), BuildingBlock: TEMPAE_clean_linker_10, # of connection points: 2
#     Edge 105, Type (0, 0), BuildingBlock: TEMPAE_clean_linker_10, # of connection points: 2
#     Edge 106, Type (0, 0), BuildingBlock: TEMPAE_clean_linker_10, # of connection points: 2
#     Edge 107, Type (0, 0), BuildingBlock: TEMPAE_clean_linker_10, # of connection points: 2
#     Edge 108, Type (0, 0), BuildingBlock: TEMPAE_clean_linker_10, # of connection points: 2
#     Edge 109, Type (0, 0), BuildingBlock: TEMPAE_clean_linker_10, # of connection points: 2
#     Edge 110, Type (0, 0), BuildingBlock: TEMPAE_clean_linker_10, # of connection points: 2
#     Edge 111, Type (0, 0), BuildingBlock: TEMPAE_clean_linker_10, # of connection points: 2
#     Edge 112, Type (0, 0), BuildingBlock: TEMPAE_clean_linker_10, # of connection points: 2
#     Edge 113, Type (0, 0), BuildingBlock: TEMPAE_clean_linker_10, # of connection points: 2
#     Edge 114, Type (0, 0), BuildingBlock: TEMPAE_clean_linker_10, # of connection points: 2
#     Edge 115, Type (0, 0), BuildingBlock: TEMPAE_clean_linker_10, # of connection points: 2
#     Edge 116, Type (0, 0), BuildingBlock: TEMPAE_clean_linker_10, # of connection points: 2
#     Edge 117, Type (0, 0), BuildingBlock: TEMPAE_clean_linker_10, # of connection points: 2
#     Edge 118, Type (0, 0), BuildingBlock: TEMPAE_clean_linker_10, # of connection points: 2
#     Edge 119, Type (0, 0), BuildingBlock: TEMPAE_clean_linker_10, # of connection points: 2
# Relax obj value: 0.007
# Max RMSD: 0.081
# Mean RMSD: 0.065
data_MOF--net-pcu-g--node1-OLANEW_clean_sbu_2--edge1-TEMPAE_clean_linker_10
_symmetry_space_group_name_H-M    P1
_symmetry_Int_Tables_number       1
_symmetry_cell_setting            triclinic
loop_
_symmetry_equiv_pos_as_xyz
'x, y, z'
_cell_length_a     83.683626
_cell_length_b     87.271695
_cell_length_c     88.965436
_cell_angle_alpha  87.537472
_cell_angle_beta   90.003665
_cell_angle_gamma 89.939565
loop_
_atom_site_label
_atom_site_type_symbol
_atom_site_fract_x
_atom_site_fract_y
_atom_site_fract_z
_atom_type_partial_charge
O0 O 0.03457 0.14898 0.46719 0.0
Cd1 Cd 0.02667 0.16421 0.44614 0.0
O2 O 0.04081 0.13661 0.44716 0.0
Cd3 Cd 0.04181 0.13504 0.42288 0.0
O4 O 0.01624 0.13107 0.42071 0.0
C5 C 0.01364 0.11766 0.42628 0.0
O6 O 0.02576 0.11093 0.43343 0.0
C7 C 0.04044 0.13722 0.4614 0.0
C8 C 0.01373 0.19268 0.45098 0.0
O9 O 0.01633 0.18383 0.46258 0.0
O10 O 0.01676 0.18758 0.43803 0.0
O11 O 0.99355 0.35033 0.44029 0.0
Cd12 Cd 0.99117 0.33551 0.46256 0.0
O13 O 0.99144 0.36765 0.45743 0.0
Cd14 Cd 0.98767 0.36925 0.48159 0.0
O15 O 0.96209 0.36243 0.48109 0.0
C16 C 0.9564 0.37586 0.47948 0.0
O17 O 0.96623 0.3875 0.48081 0.0
C18 C 0.99332 0.36425 0.44376 0.0
C19 C 0.99364 0.30451 0.45788 0.0
O20 O 0.99271 0.31409 0.44666 0.0
O21 O 0.99341 0.30952 0.47116 0.0
O22 O 0.03428 0.83855 0.02151 0.0
Cd23 Cd 0.02683 0.82394 0.04287 0.0
O24 O 0.04228 0.85161 0.04068 0.0
Cd25 Cd 0.04149 0.85133 0.06527 0.0
O26 O 0.01533 0.85671 0.06781 0.0
C27 C 0.01681 0.87114 0.06609 0.0
O28 O 0.03151 0.87647 0.06489 0.0
C29 C 0.04147 0.85005 0.02651 0.0
C30 C 0.01451 0.79549 0.03745 0.0
O31 O 0.01751 0.80472 0.02625 0.0
O32 O 0.01705 0.79988 0.05074 0.0
O33 O 0.99409 0.63808 0.04799 0.0
Cd34 Cd 0.99149 0.65286 0.02561 0.0
O35 O 0.99109 0.62058 0.03105 0.0
Cd36 Cd 0.98761 0.61852 0.00676 0.0
O37 O 0.96243 0.62548 0.00663 0.0
C38 C 0.95618 0.61243 0.00935 0.0
O39 O 0.96536 0.6002 0.00908 0.0
C40 C 0.99293 0.62414 0.04468 0.0
C41 C 0.99419 0.68397 0.02976 0.0
O42 O 0.99383 0.67445 0.04107 0.0
O43 O 0.99285 0.67882 0.01659 0.0
O44 O 0.47489 0.01518 0.14406 0.0
Cd45 Cd 0.45242 0.00615 0.15861 0.0
O46 O 0.45253 0.01773 0.13207 0.0
Cd47 Cd 0.42706 0.01786 0.1273 0.0
O48 O 0.42835 0.99553 0.12671 0.0
C49 C 0.43535 0.99194 0.11468 0.0
O50 O 0.44454 -0.00028 0.1086 0.0
C51 C 0.46756 0.01979 0.13227 0.0
C52 C 0.45847 -0.00345 0.1879 0.0
O53 O 0.47028 -7e-05 0.17925 0.0
O54 O 0.44438 -0.00284 0.18239 0.0
O55 O 0.54059 0.48804 0.14423 0.0
Cd56 Cd 0.51653 0.48263 0.15742 0.0
O57 O 0.52335 0.48446 0.12607 0.0
Cd58 Cd 0.49826 0.47823 0.12189 0.0
O59 O 0.49962 0.45315 0.1274 0.0
C60 C 0.50345 0.44884 0.11444 0.0
O61 O 0.50352 0.45921 0.10325 0.0
C62 C 0.53751 0.48763 0.13029 0.0
C63 C 0.51841 0.48329 0.18886 0.0
O64 O 0.53115 0.48435 0.18093 0.0
O65 O 0.50515 0.48184 0.18191 0.0
O66 O 0.47554 0.97346 0.34379 0.0
Cd67 Cd 0.45288 0.98221 0.32882 0.0
O68 O 0.45306 0.97115 0.35553 0.0
Cd69 Cd 0.42762 0.97082 0.36047 0.0
O70 O 0.42871 0.9957 0.36181 0.0
C71 C 0.43493 -0.00407 0.37416 0.0
O72 O 0.44368 0.98717 0.38067 0.0
C73 C 0.46808 0.96896 0.35553 0.0
C74 C 0.45916 0.99304 0.29979 0.0
O75 O 0.47071 0.98895 0.30848 0.0
O76 O 0.4449 0.99208 0.30484 0.0
O77 O 0.54022 0.50025 0.34435 0.0
Cd78 Cd 0.51643 0.50649 0.33042 0.0
O79 O 0.52233 0.50423 0.36145 0.0
Cd80 Cd 0.49804 0.51062 0.36701 0.0
O81 O 0.50006 0.53522 0.36052 0.0
C82 C 0.50751 0.54102 0.37135 0.0
O83 O 0.51152 0.53138 0.38256 0.0
C84 C 0.53655 0.50048 0.3582 0.0
C85 C 0.51849 0.50538 0.29902 0.0
O86 O 0.53107 0.5042 0.30715 0.0
O87 O 0.50509 0.50704 0.30563 0.0
O88 O 0.13831 0.40554 0.01002 0.0
Cd89 Cd 0.15399 0.42819 0.01355 0.0
O90 O 0.12281 0.42534 0.01267 0.0
Cd91 Cd 0.11986 0.44955 0.01782 0.0
O92 O 0.12592 0.44971 0.04259 0.0
C93 C 0.11231 0.4456 0.04764 0.0
O94 O 0.10134 0.443 0.03743 0.0
C95 C 0.1244 0.41126 0.00963 0.0
C96 C 0.18683 0.42535 0.01009 0.0
O97 O 0.1781 0.41333 0.00998 0.0
O98 O 0.18004 0.43824 0.01193 0.0
O99 O 0.1375 0.58339 0.4776 0.0
Cd100 Cd 0.15397 0.56106 0.47439 0.0
O101 O 0.12248 0.56355 0.47425 0.0
Cd102 Cd 0.11761 0.53953 0.47014 0.0
O103 O 0.12392 0.54114 0.44629 0.0
C104 C 0.11143 0.54536 0.43907 0.0
O105 O 0.0984 0.54719 0.44705 0.0
C106 C 0.1236 0.57768 0.47711 0.0
C107 C 0.18712 0.56352 0.47675 0.0
O108 O 0.17884 0.57585 0.47688 0.0
O109 O 0.1797 0.55089 0.4752 0.0
O110 O 0.84935 0.91865 0.47213 0.0
Cd111 Cd 0.83299 0.94098 0.46953 0.0
O112 O 0.8646 0.9387 0.46859 0.0
Cd113 Cd 0.86773 0.96341 0.46504 0.0
O114 O 0.86005 0.96502 0.44145 0.0
C115 C 0.87029 0.95698 0.43481 0.0
O116 O 0.87977 0.94842 0.44363 0.0
C117 C 0.86322 0.92427 0.47073 0.0
C118 C 0.80043 0.93546 0.47282 0.0
O119 O 0.8101 0.92423 0.47184 0.0
O120 O 0.80614 0.94907 0.47204 0.0
O121 O 0.34711 0.57151 0.51735 0.0
Cd122 Cd 0.3312 0.54891 0.52044 0.0
O123 O 0.36202 0.5512 0.52063 0.0
Cd124 Cd 0.3677 0.527 0.52431 0.0
O125 O 0.3603 0.52758 0.54766 0.0
C126 C 0.37277 0.53193 0.55436 0.0
O127 O 0.386 0.5332 0.54639 0.0
C128 C 0.3609 0.56564 0.51814 0.0
C129 C 0.29859 0.55369 0.51713 0.0
O130 O 0.30791 0.56525 0.51773 0.0
O131 O 0.30471 0.54028 0.5183 0.0
O132 O -0.00383 0.85069 0.55206 0.0
Cd133 Cd 0.9815 0.8297 0.54635 0.0
O134 O 0.97423 0.8572 0.55257 0.0
Cd135 Cd 0.94833 0.85551 0.55213 0.0
O136 O 0.94921 0.85535 0.52787 0.0
C137 C 0.94826 0.8695 0.52411 0.0
O138 O 0.94706 0.87922 0.53496 0.0
C139 C 0.98882 0.861 0.55397 0.0
C140 C 0.99388 0.80039 0.54318 0.0
O141 O 0.0007 0.81153 0.54419 0.0
O142 O 0.97896 0.80354 0.54309 0.0
O143 O 0.04468 0.64566 0.54077 0.0
Cd144 Cd 0.0178 0.6558 0.54527 0.0
O145 O 0.02748 0.62711 0.53934 0.0
Cd146 Cd 0.00346 0.61736 0.54067 0.0
O147 O 0.00064 0.61735 0.56511 0.0
C148 C 0.00659 0.60451 0.56935 0.0
O149 O 0.01082 0.59508 0.55891 0.0
C150 C 0.0419 0.63172 0.53819 0.0
C151 C 0.01442 0.68734 0.54958 0.0
O152 O 0.02826 0.68124 0.54875 0.0
O153 O 0.0022 0.67871 0.5483 0.0
O154 O 0.99844 0.13819 0.93832 0.0
Cd155 Cd 0.98096 0.15882 0.94504 0.0
O156 O 0.97319 0.13218 0.9379 0.0
Cd157 Cd 0.94772 0.13682 0.94098 0.0
O158 O 0.94611 0.1353 0.96635 0.0
C159 C 0.94834 0.12094 0.96809 0.0
O160 O 0.95161 0.11377 0.9557 0.0
C161 C 0.98768 0.12843 0.9357 0.0
C162 C 0.99312 0.18804 0.94836 0.0
O163 O -0.00017 0.17686 0.94699 0.0
O164 O 0.97814 0.18518 0.94854 0.0
O165 O 0.04446 0.34237 0.95014 0.0
Cd166 Cd 0.01767 0.33237 0.94607 0.0
O167 O 0.02794 0.36157 0.95179 0.0
Cd168 Cd 0.00365 0.37072 0.9506 0.0
O169 O 0.00159 0.37041 0.92606 0.0
C170 C 0.0095 0.38184 0.92077 0.0
O171 O 0.0164 0.3904 0.93076 0.0
C172 C 0.04218 0.35642 0.95256 0.0
C173 C 0.01406 0.30081 0.9422 0.0
O174 O 0.02801 0.3067 0.94314 0.0
O175 O 0.002 0.30974 0.94297 0.0
O176 O 0.55488 0.996 0.85 0.0
Cd177 Cd 0.552 0.97605 0.8319 0.0
O178 O 0.56157 0.97415 0.8611 0.0
Cd179 Cd 0.56417 0.94932 0.86024 0.0
O180 O 0.53885 0.94309 0.86079 0.0
C181 C 0.53679 0.94278 0.87493 0.0
O182 O 0.54936 0.94501 0.88348 0.0
C183 C 0.56006 0.98864 0.86162 0.0
C184 C 0.54494 0.98406 0.80171 0.0
O185 O 0.54492 0.99437 0.81153 0.0
O186 O 0.54799 0.97026 0.80616 0.0
O187 O 0.44298 0.49357 0.84652 0.0
Cd188 Cd 0.44638 0.51278 0.82801 0.0
O189 O 0.43729 0.51615 0.85438 0.0
Cd190 Cd 0.4338 0.54049 0.85568 0.0
O191 O 0.4598 0.54222 0.85497 0.0
C192 C 0.46501 0.54069 0.86835 0.0
O193 O 0.45436 0.53661 0.87872 0.0
C194 C 0.43745 0.5017 0.85674 0.0
C195 C 0.45579 0.50371 0.80041 0.0
O196 O 0.45481 0.4932 0.81086 0.0
O197 O 0.45269 0.51753 0.80354 0.0
O198 O 0.55457 0.99554 0.64145 0.0
Cd199 Cd 0.55147 0.01243 0.65968 0.0
O200 O 0.56123 0.01417 0.62937 0.0
Cd201 Cd 0.56344 0.03893 0.63252 0.0
O202 O 0.53766 0.04561 0.63175 0.0
C203 C 0.53631 0.04551 0.61754 0.0
O204 O 0.54926 0.0422 0.60989 0.0
C205 C 0.5589 -0.00028 0.62941 0.0
C206 C 0.54436 0.00332 0.68965 0.0
O207 O 0.5449 0.99618 0.67935 0.0
O208 O 0.5473 0.01731 0.68578 0.0
O209 O 0.44368 0.49511 0.64447 0.0
Cd210 Cd 0.44612 0.47544 0.66327 0.0
O211 O 0.43755 0.47292 0.63593 0.0
Cd212 Cd 0.435 0.44821 0.63985 0.0
O213 O 0.46149 0.44385 0.63816 0.0
C214 C 0.46179 0.44336 0.62392 0.0
O215 O 0.44788 0.44428 0.61697 0.0
C216 C 0.43903 0.48734 0.63363 0.0
C217 C 0.45533 0.48526 0.69087 0.0
O218 O 0.45462 0.49525 0.67996 0.0
O219 O 0.45227 0.47128 0.68826 0.0
O220 O 0.84638 0.55592 -0.00475 0.0
Cd221 Cd 0.8256 0.55306 0.98131 0.0
O222 O 0.85577 0.56052 0.97608 0.0
Cd223 Cd 0.85234 0.56342 0.95196 0.0
O224 O 0.8518 0.53874 0.94929 0.0
C225 C 0.86668 0.53676 0.94769 0.0
O226 O 0.87592 0.54893 0.94605 0.0
C227 C 0.85813 0.55894 0.99017 0.0
C228 C 0.79606 0.54633 0.99382 0.0
O229 O 0.80824 0.54725 -0.00113 0.0
O230 O 0.79788 0.54895 0.97968 0.0
O231 O 0.84638 0.4323 0.49226 0.0
Cd232 Cd 0.82561 0.43535 0.50973 0.0
O233 O 0.85459 0.42768 0.51523 0.0
Cd234 Cd 0.85381 0.42455 0.53951 0.0
O235 O 0.85229 0.44911 0.54187 0.0
C236 C 0.86695 0.45253 0.54284 0.0
O237 O 0.8774 0.44125 0.54391 0.0
C238 C 0.85766 0.42874 0.50122 0.0
C239 C 0.79623 0.44232 0.497 0.0
O240 O 0.80853 0.44271 0.48848 0.0
O241 O 0.79822 0.43917 0.51106 0.0
O242 O 0.13334 0.07632 0.51853 0.0
Cd243 Cd 0.15267 0.07119 0.53703 0.0
O244 O 0.11972 0.0805 0.53913 0.0
Cd245 Cd 0.12269 0.07942 0.56356 0.0
O246 O 0.12186 0.05442 0.56822 0.0
C247 C 0.10683 0.05262 0.56893 0.0
O248 O 0.09781 0.06497 0.56766 0.0
C249 C 0.12045 0.08026 0.52484 0.0
C250 C 0.18215 0.06253 0.52572 0.0
O251 O 0.17025 0.06461 0.51685 0.0
O252 O 0.18007 0.0645 0.53974 0.0
O253 O 0.63413 0.41131 0.47248 0.0
Cd254 Cd 0.65376 0.41615 0.45348 0.0
O255 O 0.62297 0.40787 0.45069 0.0
Cd256 Cd 0.6247 0.40827 0.42612 0.0
O257 O 0.62376 0.43378 0.42195 0.0
C258 C 0.60873 0.43531 0.42058 0.0
O259 O 0.60019 0.42263 0.42076 0.0
C260 C 0.62194 0.40763 0.465 0.0
C261 C 0.68392 0.42467 0.46324 0.0
O262 O 0.67239 0.42376 0.47268 0.0
O263 O 0.68106 0.42159 0.44958 0.0
O264 O 0.53561 0.65055 0.96852 0.0
Cd265 Cd 0.52847 0.6656 0.94701 0.0
O266 O 0.54299 0.63743 0.94935 0.0
Cd267 Cd 0.54471 0.63534 0.92512 0.0
O268 O 0.5193 0.63151 0.92424 0.0
C269 C 0.51747 0.61716 0.92646 0.0
O270 O 0.53045 0.60879 0.92838 0.0
C271 C 0.542 0.63864 0.96352 0.0
C272 C 0.51623 0.69418 0.95233 0.0
O273 O 0.51914 0.68494 0.96355 0.0
O274 O 0.51872 0.6897 0.93905 0.0
O275 O 0.49269 0.85196 0.94109 0.0
Cd276 Cd 0.49008 0.83691 0.96383 0.0
O277 O 0.48975 0.86796 0.95909 0.0
Cd278 Cd 0.48662 0.8723 0.98281 0.0
O279 O 0.46199 0.86498 0.98224 0.0
C280 C 0.45459 0.87695 0.97763 0.0
O281 O 0.46271 0.88983 0.97625 0.0
C282 C 0.4916 0.86562 0.94519 0.0
C283 C 0.49283 0.80574 0.95994 0.0
O284 O 0.4926 0.8152 0.94858 0.0
O285 O 0.49139 0.81094 0.97309 0.0
O286 O 0.53554 0.3372 0.52209 0.0
Cd287 Cd 0.52779 0.32279 0.54395 0.0
O288 O 0.54276 0.34893 0.54222 0.0
Cd289 Cd 0.54318 0.35033 0.56667 0.0
O290 O 0.51757 0.35556 0.56954 0.0
C291 C 0.51865 0.37003 0.56808 0.0
O292 O 0.53308 0.37605 0.56728 0.0
C293 C 0.54263 0.34826 0.52793 0.0
C294 C 0.51572 0.29422 0.53824 0.0
O295 O 0.51803 0.3037 0.52711 0.0
O296 O 0.51843 0.29873 0.55149 0.0
O297 O 0.49191 0.13643 0.55034 0.0
Cd298 Cd 0.48946 0.15139 0.5277 0.0
O299 O 0.48935 0.12095 0.53206 0.0
Cd300 Cd 0.48587 0.11776 0.50799 0.0
O301 O 0.4603 0.12514 0.5074 0.0
C302 C 0.45426 0.11339 0.51411 0.0
O303 O 0.46441 0.10264 0.51888 0.0
C304 C 0.49138 0.1228 0.54605 0.0
C305 C 0.49201 0.18257 0.53113 0.0
O306 O 0.49125 0.17355 0.54281 0.0
O307 O 0.49152 0.17689 0.51815 0.0
O308 O 0.97525 0.51591 0.64634 0.0
Cd309 Cd 0.95344 0.50709 0.66101 0.0
O310 O 0.9539 0.52034 0.63275 0.0
Cd311 Cd 0.92833 0.51853 0.62946 0.0
O312 O 0.92868 0.49362 0.62852 0.0
C313 C 0.93631 0.49019 0.61678 0.0
O314 O 0.94655 0.50057 0.6114 0.0
C315 C 0.96889 0.52159 0.63443 0.0
C316 C 0.96082 0.49584 0.6898 0.0
O317 O 0.97219 0.49964 0.6808 0.0
O318 O 0.94645 0.49754 0.68516 0.0
O319 O 0.03916 0.98848 0.64567 0.0
Cd320 Cd 0.01549 0.98315 0.65911 0.0
O321 O 0.02179 0.98553 0.62747 0.0
Cd322 Cd -0.00312 0.97925 0.62314 0.0
O323 O -0.00099 0.95447 0.62849 0.0
C324 C 0.00669 0.94964 0.6173 0.0
O325 O 0.01009 0.95991 0.60649 0.0
C326 C 0.03592 0.98866 0.63172 0.0
C327 C 0.01714 0.98461 0.69043 0.0
O328 O 0.03005 0.98554 0.68273 0.0
O329 O 0.00406 0.98272 0.68332 0.0
O330 O 0.97703 0.47225 0.84521 0.0
Cd331 Cd 0.95455 0.4811 0.83093 0.0
O332 O 0.95438 0.46844 0.85698 0.0
Cd333 Cd 0.92795 0.47087 0.85792 0.0
O334 O 0.92616 0.49581 0.86265 0.0
C335 C 0.93422 0.49578 0.87477 0.0
O336 O 0.94179 0.48288 0.87837 0.0
C337 C 0.96955 0.4669 0.85662 0.0
C338 C 0.96127 0.4913 0.80186 0.0
O339 O 0.97298 0.48769 0.81053 0.0
O340 O 0.94718 0.49096 0.80744 0.0
O341 O 0.03886 -0.00014 0.84553 0.0
Cd342 Cd 0.01482 0.0048 0.8321 0.0
O343 O 0.02099 0.00228 0.86339 0.0
Cd344 Cd -0.00436 0.00851 0.86582 0.0
O345 O -0.0031 0.03425 0.86062 0.0
C346 C 0.0017 0.03754 0.87363 0.0
O347 O 0.0034 0.02589 0.88342 0.0
C348 C 0.0353 -0.00056 0.85942 0.0
C349 C 0.0162 0.00386 0.8007 0.0
O350 O 0.02903 0.0025 0.80848 0.0
O351 O 0.00302 0.00556 0.80766 0.0
O352 O 0.6401 0.90803 0.51152 0.0
Cd353 Cd 0.65612 0.9298 0.51576 0.0
O354 O 0.62311 0.92659 0.51416 0.0
Cd355 Cd 0.61861 0.95031 0.51936 0.0
O356 O 0.62559 0.94911 0.54303 0.0
C357 C 0.61313 0.94544 0.55052 0.0
O358 O 0.5998 0.94378 0.54293 0.0
C359 C 0.62574 0.9127 0.51112 0.0
C360 C 0.68896 0.92546 0.5126 0.0
O361 O 0.67978 0.91375 0.51316 0.0
O362 O 0.6826 0.93867 0.51383 0.0
O363 O 0.63886 0.08071 0.97862 0.0
Cd364 Cd 0.65533 0.05849 0.97594 0.0
O365 O 0.62235 0.06187 0.97604 0.0
Cd366 Cd 0.61862 0.03779 0.97183 0.0
O367 O 0.62624 0.03933 0.94819 0.0
C368 C 0.61475 0.04461 0.94016 0.0
O369 O 0.60216 0.04927 0.94767 0.0
C370 C 0.62452 0.07595 0.97851 0.0
C371 C 0.68826 0.06139 0.97922 0.0
O372 O 0.6794 0.07333 0.9795 0.0
O373 O 0.68163 0.04847 0.97724 0.0
O374 O 0.34823 0.41706 0.97404 0.0
Cd375 Cd 0.33146 0.43929 0.97115 0.0
O376 O 0.36284 0.43752 0.97046 0.0
Cd377 Cd 0.36469 0.46214 0.96727 0.0
O378 O 0.35791 0.46203 0.94314 0.0
C379 C 0.3719 0.46009 0.93811 0.0
O380 O 0.38382 0.46023 0.94781 0.0
C381 C 0.36192 0.42307 0.97235 0.0
C382 C 0.29888 0.43474 0.97501 0.0
O383 O 0.30843 0.42331 0.97474 0.0
O384 O 0.30465 0.44822 0.97295 0.0
O385 O 0.84879 0.06973 0.01485 0.0
Cd386 Cd 0.83254 0.0477 0.01834 0.0
O387 O 0.86365 0.04935 0.0184 0.0
Cd388 Cd 0.86606 0.02495 0.02283 0.0
O389 O 0.85938 0.02576 0.04709 0.0
C390 C 0.87352 0.02664 0.0521 0.0
O391 O 0.88533 0.02492 0.04252 0.0
C392 C 0.86255 0.06372 0.01577 0.0
C393 C 0.80004 0.0525 0.01469 0.0
O394 O 0.80947 0.06401 0.01503 0.0
O395 O 0.80604 0.03907 0.01638 0.0
O396 O 0.49607 0.34858 0.05102 0.0
Cd397 Cd 0.47884 0.32796 0.04476 0.0
O398 O 0.47167 0.35736 0.05198 0.0
Cd399 Cd 0.44608 0.35419 0.0498 0.0
O400 O 0.44638 0.35424 0.02547 0.0
C401 C 0.4456 0.36845 0.02195 0.0
O402 O 0.44383 0.37799 0.0329 0.0
C403 C 0.4866 0.35958 0.05339 0.0
C404 C 0.49133 0.29894 0.04005 0.0
O405 O 0.50098 0.31015 0.04154 0.0
O406 O 0.47635 0.30155 0.04088 0.0
O407 O 0.5449 0.14474 0.03898 0.0
Cd408 Cd 0.519 0.15453 0.04389 0.0
O409 O 0.52906 0.12506 0.03717 0.0
Cd410 Cd 0.50509 0.11541 0.03877 0.0
O411 O 0.50365 0.11654 0.06312 0.0
C412 C 0.50998 0.10434 0.06868 0.0
O413 O 0.51497 0.09432 0.05907 0.0
C414 C 0.54308 0.13069 0.03623 0.0
C415 C 0.51549 0.18606 0.04735 0.0
O416 O 0.52963 0.18046 0.04712 0.0
O417 O 0.50379 0.17677 0.04628 0.0
O418 O 0.49772 0.63921 0.43761 0.0
Cd419 Cd 0.47957 0.66059 0.44334 0.0
O420 O 0.47266 0.63358 0.43793 0.0
Cd421 Cd 0.44671 0.63306 0.43797 0.0
O422 O 0.44927 0.63395 0.46226 0.0
C423 C 0.44926 0.6202 0.46754 0.0
O424 O 0.45032 0.60944 0.45765 0.0
C425 C 0.48697 0.6293 0.4356 0.0
C426 C 0.49229 0.68967 0.44736 0.0
O427 O 0.50153 0.67817 0.44581 0.0
O428 O 0.47721 0.68744 0.44721 0.0
O429 O 0.54565 0.84395 0.4482 0.0
Cd430 Cd 0.51903 0.834 0.4444 0.0
O431 O 0.52997 0.86361 0.45 0.0
Cd432 Cd 0.50579 0.87303 0.44917 0.0
O433 O 0.50415 0.87199 0.4248 0.0
C434 C 0.5107 0.88403 0.41913 0.0
O435 O 0.51623 0.89384 0.42871 0.0
C436 C 0.54407 0.85813 0.4505 0.0
C437 C 0.51618 0.80234 0.44034 0.0
O438 O 0.52996 0.8086 0.44104 0.0
O439 O 0.50393 0.811 0.44147 0.0
O440 O 0.05266 0.49424 0.34791 0.0
Cd441 Cd 0.05053 0.47482 0.32982 0.0
O442 O 0.06024 0.47325 0.3608 0.0
Cd443 Cd 0.06171 0.44817 0.35688 0.0
O444 O 0.03626 0.44031 0.35748 0.0
C445 C 0.03322 0.44343 0.37099 0.0
O446 O 0.04443 0.45104 0.37798 0.0
C447 C 0.05771 0.48773 0.36008 0.0
C448 C 0.0425 0.48339 0.29991 0.0
O449 O 0.04273 0.49343 0.30998 0.0
O450 O 0.04599 0.46955 0.3039 0.0
O451 O 0.94397 0.99399 0.34464 0.0
Cd452 Cd 0.94765 0.01158 0.32592 0.0
O453 O 0.93893 0.01456 0.35113 0.0
Cd454 Cd 0.93473 0.03873 0.35421 0.0
O455 O 0.96041 0.04163 0.35388 0.0
C456 C 0.96442 0.0419 0.36761 0.0
O457 O 0.95291 0.04164 0.37769 0.0
C458 C 0.93868 0.00025 0.35456 0.0
C459 C 0.95678 0.00157 0.29856 0.0
O460 O 0.95671 0.99468 0.30984 0.0
O461 O 0.95311 0.01558 0.30038 0.0
O462 O 0.0534 0.49493 0.14062 0.0
Cd463 Cd 0.05048 0.5143 0.15835 0.0
O464 O 0.06065 0.51567 0.12753 0.0
Cd465 Cd 0.0622 0.54057 0.12918 0.0
O466 O 0.03651 0.54686 0.12936 0.0
C467 C 0.03441 0.54744 0.11522 0.0
O468 O 0.04701 0.54515 0.10671 0.0
C469 C 0.05881 0.50116 0.12849 0.0
C470 C 0.04256 0.50477 0.18804 0.0
O471 O 0.0428 0.49504 0.17769 0.0
O472 O 0.04589 0.51872 0.18432 0.0
O473 O 0.94507 0.99599 0.14336 0.0
Cd474 Cd 0.94803 0.977 0.16131 0.0
O475 O 0.9381 0.9741 0.13427 0.0
Cd476 Cd 0.93601 0.94935 0.13693 0.0
O477 O 0.96208 0.94541 0.13573 0.0
C478 C 0.96298 0.94467 0.12156 0.0
O479 O 0.9495 0.94493 0.11388 0.0
C480 C 0.93931 0.98861 0.1327 0.0
C481 C 0.95647 0.98641 0.18903 0.0
O482 O 0.95569 0.9971 0.17874 0.0
O483 O 0.95382 0.97268 0.18537 0.0
O484 O 0.34474 0.05406 0.49841 0.0
Cd485 Cd 0.32359 0.05164 0.48026 0.0
O486 O 0.35053 0.05834 0.47487 0.0
Cd487 Cd 0.35249 0.06264 0.45067 0.0
O488 O 0.35094 0.03812 0.44826 0.0
C489 C 0.36561 0.03457 0.44794 0.0
O490 O 0.37612 0.0458 0.44758 0.0
C491 C 0.35496 0.05822 0.48858 0.0
C492 C 0.2941 0.04507 0.49218 0.0
O493 O 0.30632 0.04537 0.5008 0.0
O494 O 0.29596 0.04781 0.47806 0.0
O495 O 0.3464 0.9342 0.99374 0.0
Cd496 Cd 0.32424 0.93685 0.00786 0.0
O497 O 0.35233 0.93105 0.01372 0.0
Cd498 Cd 0.35307 0.92604 0.03776 0.0
O499 O 0.3512 0.95061 0.03999 0.0
C500 C 0.3658 0.95427 0.04089 0.0
O501 O 0.37643 0.94315 0.04185 0.0
C502 C 0.35693 0.93192 0.00011 0.0
C503 C 0.29483 0.9441 -0.0049 0.0
O504 O 0.30757 0.94326 0.99049 0.0
O505 O 0.2961 0.94097 0.00922 0.0
O506 O 0.63466 0.57794 0.01643 0.0
Cd507 Cd 0.65427 0.57267 0.03514 0.0
O508 O 0.62283 0.58182 0.03779 0.0
Cd509 Cd 0.62358 0.58123 0.06215 0.0
O510 O 0.623 0.55634 0.06615 0.0
C511 C 0.60815 0.55341 0.06664 0.0
O512 O 0.59813 0.56502 0.06567 0.0
C513 C 0.62238 0.58218 0.0235 0.0
C514 C 0.68387 0.56418 0.02392 0.0
O515 O 0.67198 0.56628 0.01507 0.0
O516 O 0.68179 0.56606 0.03797 0.0
O517 O 0.13262 0.9122 0.9736 0.0
Cd518 Cd 0.15259 0.91719 0.95511 0.0
O519 O 0.12161 0.90855 0.95185 0.0
Cd520 Cd 0.12357 0.90877 0.9275 0.0
O521 O 0.12264 0.93384 0.9231 0.0
C522 C 0.10759 0.93545 0.92239 0.0
O523 O 0.09875 0.92298 0.92368 0.0
C524 C 0.12044 0.90842 0.9661 0.0
C525 C 0.18277 0.9252 0.96523 0.0
O526 O 0.17134 0.92364 0.97472 0.0
O527 O 0.17976 0.92296 0.9514 0.0
C528 C 0.10831 0.08686 0.50005 0.0
C529 C 0.10658 0.08528 0.5157 0.0
C530 C 0.09635 0.09366 0.49106 0.0
C531 C 0.08217 0.0989 0.49787 0.0
C532 C 0.07977 0.09643 0.5136 0.0
C533 C 0.09204 0.08952 0.52241 0.0
C534 C 0.09954 0.09604 0.47437 0.0
C535 C 0.06441 0.10129 0.52112 0.0
C536 C 0.06265 0.13341 0.4786 0.0
C537 C 0.05021 0.12679 0.47074 0.0
C538 C 0.073 0.12442 0.4875 0.0
C539 C 0.0707 0.10833 0.48873 0.0
C540 C 0.05778 0.10146 0.48108 0.0
C541 C 0.04769 0.11085 0.47186 0.0
C542 C 0.08644 0.13229 0.49553 0.0
C543 C 0.0548 0.08433 0.48242 0.0
H544 H 0.11939 0.08341 0.49475 0.0
H545 H 0.09046 0.08796 0.53452 0.0
H546 H 0.08837 0.09583 0.46761 0.0
H547 H 0.10534 0.10741 0.47228 0.0
H548 H 0.1078 0.08711 0.47027 0.0
H549 H 0.06627 0.1031 0.53332 0.0
H550 H 0.05937 0.11201 0.51579 0.0
H551 H 0.05536 0.09206 0.52006 0.0
H552 H 0.06449 0.14576 0.47755 0.0
H553 H 0.03788 0.10582 0.46574 0.0
H554 H 0.0981 0.12867 0.49083 0.0
H555 H 0.08634 0.12883 0.50773 0.0
H556 H 0.08564 0.14503 0.49438 0.0
H557 H 0.06124 0.07876 0.47316 0.0
H558 H 0.04183 0.08175 0.48127 0.0
H559 H 0.05912 0.07909 0.4933 0.0
C560 C 0.87346 0.41715 0.48142 0.0
C561 C 0.87305 0.424 0.49538 0.0
C562 C 0.88697 0.40912 0.47705 0.0
C563 C 0.90027 0.40821 0.48688 0.0
C564 C 0.90057 0.41653 0.50025 0.0
C565 C 0.8868 0.42447 0.50435 0.0
C566 C 0.88636 0.40065 0.46253 0.0
C567 C 0.91509 0.41673 0.51043 0.0
C568 C 0.92697 0.37324 0.48521 0.0
C569 C 0.93954 0.37959 0.47644 0.0
C570 C 0.91364 0.3825 0.48849 0.0
C571 C 0.9136 0.39813 0.48322 0.0
C572 C 0.92582 0.40392 0.47366 0.0
C573 C 0.93756 0.39396 0.46905 0.0
C574 C 0.90026 0.37617 0.49847 0.0
C575 C 0.9272 0.42068 0.46864 0.0
H576 H 0.86282 0.41702 0.47439 0.0
H577 H 0.8865 0.43031 0.5149 0.0
H578 H 0.89827 0.39997 0.45705 0.0
H579 H 0.88207 0.38875 0.46507 0.0
H580 H 0.8779 0.40627 0.45433 0.0
H581 H 0.91168 0.41905 0.52224 0.0
H582 H 0.92185 0.40575 0.51049 0.0
H583 H 0.92325 0.42606 0.5063 0.0
H584 H 0.9283 0.36193 0.49068 0.0
H585 H 0.94698 0.39853 0.46167 0.0
H586 H 0.88889 0.37624 0.49195 0.0
H587 H 0.89843 0.38358 0.50821 0.0
H588 H 0.90273 0.36425 0.5028 0.0
H589 H 0.92215 0.42229 0.4571 0.0
H590 H 0.93998 0.42429 0.46811 0.0
H591 H 0.92078 0.42844 0.47618 0.0
C592 C 0.09124 0.90458 0.97238 0.0
C593 C 0.1074 0.90029 0.9739 0.0
C594 C 0.07937 0.8963 0.98062 0.0
C595 C 0.08401 0.88379 0.99043 0.0
C596 C 0.10028 0.87929 0.99141 0.0
C597 C 0.11171 0.88765 0.98317 0.0
C598 C 0.06199 0.90107 0.97914 0.0
C599 C 0.10571 0.86606 -0.00255 0.0
C600 C 0.05813 0.87364 0.02099 0.0
C601 C 0.05042 0.86041 0.01608 0.0
C602 C 0.06899 0.88169 0.01144 0.0
C603 C 0.07193 0.87641 -0.0032 0.0
C604 C 0.06397 0.86274 0.99527 0.0
C605 C 0.05281 0.85585 0.00133 0.0
C606 C 0.07796 0.89535 0.01716 0.0
C607 C 0.06709 0.85615 0.98007 0.0
H608 H 0.08798 0.91438 0.96505 0.0
H609 H 0.1242 0.88421 0.98396 0.0
H610 H 0.05375 0.89108 0.9803 0.0
H611 H 0.05907 0.90902 0.9882 0.0
H612 H 0.05968 0.90717 0.96809 0.0
H613 H 0.11843 0.86726 0.00093 0.0
H614 H 0.09834 0.86409 0.00776 0.0
H615 H 0.10491 0.85512 0.99411 0.0
H616 H 0.0562 0.8773 0.03239 0.0
H617 H 0.04678 0.84574 -0.0026 0.0
H618 H 0.07476 0.90582 0.01021 0.0
H619 H 0.09108 0.8936 0.01603 0.0
H620 H 0.0752 0.89737 0.02917 0.0
H621 H 0.05853 0.86136 0.97174 0.0
H622 H 0.06519 0.8435 0.98047 0.0
H623 H 0.07942 0.85851 0.97593 0.0
C624 C 0.87163 0.57522 0.00464 0.0
C625 C 0.87293 0.56433 0.99658 0.0
C626 C 0.88497 0.58334 0.00914 0.0
C627 C 0.89979 0.58086 0.00199 0.0
C628 C 0.90152 0.56884 0.99465 0.0
C629 C 0.88779 0.56096 0.99021 0.0
C630 C 0.88274 0.59536 0.02074 0.0
C631 C 0.91749 0.56517 0.98759 0.0
C632 C 0.92838 0.61443 2e-05 0.0
C633 C 0.93908 0.60985 0.0115 0.0
C634 C 0.91536 0.60493 -0.00325 0.0
C635 C 0.91324 0.59095 0.00534 0.0
C636 C 0.92335 0.58712 0.01767 0.0
C637 C 0.93545 0.59729 0.02125 0.0
C638 C 0.90473 0.60858 0.98694 0.0
C639 C 0.92216 0.57203 0.0267 0.0
H640 H 0.86002 0.57775 0.00946 0.0
H641 H 0.88854 0.55265 0.98146 0.0
H642 H 0.89357 0.59676 0.02778 0.0
H643 H 0.88011 0.60658 0.01482 0.0
H644 H 0.8725 0.59246 0.02835 0.0
H645 H 0.91591 0.56007 0.97642 0.0
H646 H 0.92523 0.57548 0.98615 0.0
H647 H 0.92387 0.55665 0.99509 0.0
H648 H 0.9314 0.62364 0.99599 0.0
H649 H 0.94374 0.59401 0.03027 0.0
H650 H 0.89242 0.61078 0.99108 0.0
H651 H 0.904 0.5989 0.97922 0.0
H652 H 0.909 0.61897 0.98043 0.0
H653 H 0.91493 0.57379 0.03698 0.0
H654 H 0.93422 0.56795 0.03041 0.0
H655 H 0.91645 0.56283 0.0203 0.0
C656 C 0.51325 0.09122 0.09421 0.0
C657 C 0.50345 0.09775 0.0827 0.0
C658 C 0.50739 0.07893 0.10353 0.0
C659 C 0.49211 0.07279 0.10033 0.0
C660 C 0.48213 0.08006 0.08933 0.0
C661 C 0.48767 0.09295 0.08127 0.0
C662 C 0.51783 0.07181 0.11593 0.0
C663 C 0.46566 0.0742 0.08551 0.0
C664 C 0.48371 0.03084 0.11036 0.0
C665 C 0.47439 0.03245 0.12337 0.0
C666 C 0.48974 0.0441 0.10261 0.0
C667 C 0.48642 0.05874 0.10837 0.0
C668 C 0.47697 0.06004 0.12144 0.0
C669 C 0.47139 0.04684 0.12889 0.0
C670 C 0.49922 0.04269 0.0882 0.0
C671 C 0.47256 0.07524 0.12785 0.0
H672 H 0.52559 0.09491 0.0952 0.0
H673 H 0.48021 0.09802 0.07232 0.0
H674 H 0.51062 0.06711 0.12558 0.0
H675 H 0.52481 0.0622 0.11135 0.0
H676 H 0.52642 0.08034 0.12017 0.0
H677 H 0.46256 0.07699 0.07351 0.0
H678 H 0.46448 0.0616 0.08757 0.0
H679 H 0.45671 0.07993 0.09263 0.0
H680 H 0.48604 0.01951 0.10626 0.0
H681 H 0.46435 0.04782 0.13911 0.0
H682 H 0.51161 0.04694 0.08988 0.0
H683 H 0.49377 0.04998 0.07896 0.0
H684 H 0.49978 0.03064 0.0846 0.0
H685 H 0.48179 0.07829 0.13622 0.0
H686 H 0.46083 0.07453 0.13379 0.0
H687 H 0.47187 0.0847 0.1191 0.0
C688 C 0.50505 0.37222 0.07055 0.0
C689 C 0.49246 0.37357 0.0602 0.0
C690 C 0.50882 0.38425 0.07982 0.0
C691 C 0.4999 0.39803 0.07855 0.0
C692 C 0.48813 0.40007 0.06708 0.0
C693 C 0.48447 0.38769 0.058 0.0
C694 C 0.5216 0.38162 0.09172 0.0
C695 C 0.47918 0.41508 0.06464 0.0
C696 C 0.49566 0.4211 0.1138 0.0
C697 C 0.50676 0.4329 0.11058 0.0
C698 C 0.49342 0.40945 0.1034 0.0
C699 C 0.50246 0.40987 0.08981 0.0
C700 C 0.51442 0.42114 0.08734 0.0
C701 C 0.51724 0.43168 0.09838 0.0
C702 C 0.48057 0.39743 0.10622 0.0
C703 C 0.52381 0.42281 0.0728 0.0
H704 H 0.5113 0.36134 0.07219 0.0
H705 H 0.47499 0.38883 0.04965 0.0
H706 H 0.52807 0.39235 0.0942 0.0
H707 H 0.51587 0.37713 0.10231 0.0
H708 H 0.53054 0.373 0.08822 0.0
H709 H 0.46741 0.41332 0.05912 0.0
H710 H 0.47713 0.42089 0.07536 0.0
H711 H 0.4864 0.42292 0.05714 0.0
H712 H 0.48761 0.42195 0.12332 0.0
H713 H 0.5261 0.44064 0.09615 0.0
H714 H 0.48622 0.38589 0.10742 0.0
H715 H 0.47224 0.39728 0.09646 0.0
H716 H 0.47353 0.39947 0.11657 0.0
H717 H 0.5354 0.41667 0.07427 0.0
H718 H 0.52653 0.4351 0.06994 0.0
H719 H 0.51741 0.41803 0.0631 0.0
C720 C 0.51258 0.8964 0.39296 0.0
C721 C 0.50356 0.89098 0.40553 0.0
C722 C 0.5066 0.90865 0.38362 0.0
C723 C 0.49221 0.91593 0.38789 0.0
C724 C 0.48301 0.90983 0.40008 0.0
C725 C 0.48843 0.89693 0.40814 0.0
C726 C 0.516 0.9145 0.36994 0.0
C727 C 0.46753 0.91695 0.40516 0.0
C728 C 0.48564 0.95789 0.37654 0.0
C729 C 0.47472 0.95628 0.36465 0.0
C730 C 0.49157 0.94462 0.38437 0.0
C731 C 0.4866 0.92995 0.37974 0.0
C732 C 0.47556 0.92865 0.36783 0.0
C733 C 0.47004 0.94184 0.36031 0.0
C734 C 0.50275 0.94607 0.39767 0.0
C735 C 0.46941 0.91344 0.36268 0.0
H736 H 0.52445 0.89181 0.39102 0.0
H737 H 0.48157 0.89269 0.41788 0.0
H738 H 0.50804 0.91919 0.36082 0.0
H739 H 0.52412 0.92386 0.37328 0.0
H740 H 0.52345 0.9052 0.36535 0.0
H741 H 0.46568 0.91495 0.41751 0.0
H742 H 0.46699 0.92951 0.40257 0.0
H743 H 0.45742 0.91146 0.3993 0.0
H744 H 0.4893 0.96925 0.37972 0.0
H745 H 0.46182 0.94082 0.3509 0.0
H746 H 0.51456 0.94096 0.39503 0.0
H747 H 0.49792 0.93956 0.40772 0.0
H748 H 0.50454 0.95823 0.40057 0.0
H749 H 0.47739 0.90943 0.35364 0.0
H750 H 0.45713 0.91461 0.3579 0.0
H751 H 0.46912 0.90443 0.3719 0.0
C752 C 0.51236 0.56989 0.37376 0.0
C753 C 0.50297 0.55644 0.37584 0.0
C754 C 0.50939 0.58266 0.38281 0.0
C755 C 0.49785 0.58113 0.39454 0.0
C756 C 0.48824 0.56783 0.39595 0.0
C757 C 0.4904 0.55616 0.38609 0.0
C758 C 0.51897 0.59738 0.38053 0.0
C759 C 0.47559 0.56544 0.40799 0.0
C760 C 0.50205 0.60491 0.42929 0.0
C761 C 0.49016 0.61616 0.42623 0.0
C762 C 0.50466 0.5932 0.41898 0.0
C763 C 0.49559 0.59332 0.40542 0.0
C764 C 0.48361 0.60454 0.40268 0.0
C765 C 0.48124 0.61582 0.41301 0.0
C766 C 0.51679 0.58058 0.42243 0.0
C767 C 0.47319 0.60508 0.38876 0.0
H768 H 0.52218 0.57018 0.36575 0.0
H769 H 0.48307 0.54587 0.38749 0.0
H770 H 0.51184 0.60766 0.3833 0.0
H771 H 0.52958 0.59684 0.38808 0.0
H772 H 0.52325 0.59886 0.36871 0.0
H773 H 0.47416 0.55305 0.41128 0.0
H774 H 0.47827 0.57168 0.41833 0.0
H775 H 0.46394 0.56965 0.4034 0.0
H776 H 0.50902 0.60522 0.43958 0.0
H777 H 0.47234 0.62468 0.41055 0.0
H778 H 0.5266 0.58135 0.41397 0.0
H779 H 0.51109 0.56912 0.42155 0.0
H780 H 0.52202 0.58134 0.43388 0.0
H781 H 0.4791 0.61244 0.37987 0.0
H782 H 0.46129 0.61022 0.39108 0.0
H783 H 0.47121 0.59357 0.38423 0.0
C784 C 0.08996 0.44691 0.06488 0.0
C785 C 0.10659 0.44788 0.06334 0.0
C786 C 0.0818 0.4553 0.07526 0.0
C787 C 0.09046 0.46279 0.08637 0.0
C788 C 0.10739 0.46097 0.08729 0.0
C789 C 0.11555 0.45376 0.07538 0.0
C790 C 0.06393 0.45713 0.07312 0.0
C791 C 0.11662 0.46734 0.10034 0.0
C792 C 0.07109 0.49789 0.10277 0.0
C793 C 0.0648 0.4915 0.11638 0.0
C794 C 0.07951 0.48859 0.09282 0.0
C795 C 0.08159 0.47273 0.09666 0.0
C796 C 0.07459 0.46623 0.10994 0.0
C797 C 0.06594 0.47562 0.11938 0.0
C798 C 0.08685 0.49569 0.07856 0.0
C799 C 0.07644 0.44943 0.1146 0.0
H800 H 0.0828 0.44116 0.05663 0.0
H801 H 0.12853 0.45369 0.07498 0.0
H802 H 0.05755 0.45799 0.08401 0.0
H803 H 0.06162 0.46785 0.06622 0.0
H804 H 0.05867 0.44741 0.06707 0.0
H805 H 0.12939 0.46937 0.09733 0.0
H806 H 0.1114 0.47827 0.1041 0.0
H807 H 0.11617 0.45888 0.11007 0.0
H808 H 0.07002 0.51015 0.10021 0.0
H809 H 0.06086 0.4705 0.12967 0.0
H810 H 0.08115 0.49073 0.06856 0.0
H811 H 0.09984 0.49294 0.07812 0.0
H812 H 0.08538 0.50838 0.07776 0.0
H813 H 0.06618 0.44294 0.11009 0.0
H814 H 0.07635 0.4477 0.12709 0.0
H815 H 0.08767 0.4444 0.11028 0.0
C816 C 0.08107 0.50098 0.36914 0.0
C817 C 0.06508 0.49714 0.37151 0.0
C818 C 0.08904 0.5109 0.37852 0.0
C819 C 0.081 0.51678 0.39103 0.0
C820 C 0.06463 0.51303 0.39364 0.0
C821 C 0.05671 0.50318 0.38373 0.0
C822 C 0.10635 0.51463 0.3751 0.0
C823 C 0.05558 0.51963 0.40667 0.0
C824 C 0.1083 0.52375 0.42387 0.0
C825 C 0.10891 0.53968 0.424 0.0
C826 C 0.09857 0.51643 0.41372 0.0
C827 C 0.09047 0.52515 0.40227 0.0
C828 C 0.09215 0.5414 0.40134 0.0
C829 C 0.10132 0.54861 0.41245 0.0
C830 C 0.0964 0.49928 0.41588 0.0
C831 C 0.08376 0.5511 0.38916 0.0
H832 H 0.0874 0.49642 0.35962 0.0
H833 H 0.04416 0.50039 0.3854 0.0
H834 H 0.10976 0.52622 0.37872 0.0
H835 H 0.11408 0.50603 0.38118 0.0
H836 H 0.1089 0.51407 0.36284 0.0
H837 H 0.04512 0.51236 0.40998 0.0
H838 H 0.06331 0.52088 0.41674 0.0
H839 H 0.0511 0.53124 0.40313 0.0
H840 H 0.11386 0.51693 0.43299 0.0
H841 H 0.10156 0.56104 0.41274 0.0
H842 H 0.1021 0.49351 0.40634 0.0
H843 H 0.08348 0.49629 0.41593 0.0
H844 H 0.1018 0.49457 0.42658 0.0
H845 H 0.0919 0.55263 0.3793 0.0
H846 H 0.08081 0.56268 0.39316 0.0
H847 H 0.07257 0.54566 0.38525 0.0
C848 C 0.87267 0.96562 0.40675 0.0
C849 C 0.8783 0.96439 0.4218 0.0
C850 C 0.88249 0.97289 0.39551 0.0
C851 C 0.89785 0.97819 0.39977 0.0
C852 C 0.90296 0.97714 0.41486 0.0
C853 C 0.89292 0.97076 0.42556 0.0
C854 C 0.87688 0.97476 0.37926 0.0
C855 C 0.91889 0.98305 0.42028 0.0
C856 C 0.93118 0.98082 0.37159 0.0
C857 C 0.9312 0.99673 0.36805 0.0
C858 C 0.92017 0.97457 0.38201 0.0
C859 C 0.90911 0.98453 0.38866 0.0
C860 C 0.90951 -0.00203 0.38609 0.0
C861 C 0.92066 0.00388 0.37581 0.0
C862 C 0.92008 0.95743 0.38579 0.0
C863 C 0.89845 0.00909 0.39356 0.0
H864 H 0.86106 0.96098 0.40388 0.0
H865 H 0.89683 0.9706 0.43727 0.0
H866 H 0.88158 0.98547 0.37361 0.0
H867 H 0.8813 0.96491 0.37289 0.0
H868 H 0.86359 0.97493 0.37858 0.0
H869 H 0.92318 0.97627 0.43041 0.0
H870 H 0.9284 0.9828 0.41158 0.0
H871 H 0.91733 0.99512 0.42356 0.0
H872 H 0.93918 0.97328 0.36574 0.0
H873 H 0.92083 0.01616 0.37319 0.0
H874 H 0.90854 0.95243 0.38213 0.0
H875 H 0.92105 0.95519 0.39818 0.0
H876 H 0.93006 0.9514 0.38024 0.0
H877 H 0.88757 0.01075 0.38647 0.0
H878 H 0.90424 0.0205 0.39457 0.0
H879 H 0.8946 0.00488 0.40497 0.0
C880 C 0.41366 0.49756 0.62602 0.0
C881 C 0.42953 0.49513 0.62212 0.0
C882 C 0.40347 0.50566 0.61633 0.0
C883 C 0.40933 0.51124 0.60223 0.0
C884 C 0.42569 0.50936 0.59829 0.0
C885 C 0.43586 0.50134 0.60854 0.0
C886 C 0.38622 0.5074 0.62109 0.0
C887 C 0.43232 0.51578 0.58343 0.0
C888 C 0.37748 0.51202 0.57262 0.0
C889 C 0.37502 0.52773 0.57015 0.0
C890 C 0.38952 0.50672 0.58228 0.0
C891 C 0.39773 0.51729 0.59113 0.0
C892 C 0.39388 0.53313 0.59014 0.0
C893 C 0.38242 0.53825 0.57947 0.0
C894 C 0.39403 0.48991 0.58229 0.0
C895 C 0.40231 0.54464 0.59969 0.0
H896 H 0.40914 0.49304 0.63681 0.0
H897 H 0.44845 0.49982 0.60596 0.0
H898 H 0.38066 0.51803 0.61613 0.0
H899 H 0.37929 0.49739 0.6173 0.0
H900 H 0.38515 0.50759 0.63358 0.0
H901 H 0.44327 0.5095 0.58012 0.0
H902 H 0.42342 0.5153 0.57416 0.0
H903 H 0.43557 0.52803 0.58467 0.0
H904 H 0.37187 0.50402 0.56517 0.0
H905 H 0.38054 0.55048 0.57732 0.0
H906 H 0.39036 0.48419 0.59317 0.0
H907 H 0.4072 0.48858 0.5812 0.0
H908 H 0.3882 0.48385 0.57298 0.0
H909 H 0.39524 0.54609 0.61014 0.0
H910 H 0.40316 0.55604 0.59363 0.0
H911 H 0.41456 0.54088 0.60305 0.0
C912 C 0.92586 0.86708 0.50773 0.0
C913 C 0.94054 0.87425 0.5101 0.0
C914 C 0.91273 0.87571 0.50279 0.0
C915 C 0.91494 0.89135 0.49842 0.0
C916 C 0.9302 0.89831 0.49932 0.0
C917 C 0.94304 0.88948 0.5049 0.0
C918 C 0.89652 0.868 0.50267 0.0
C919 C 0.93274 0.91525 0.49553 0.0
C920 C 0.88707 0.9071 0.46826 0.0
C921 C 0.87661 0.91564 0.47698 0.0
C922 C 0.89983 0.8991 0.47531 0.0
C923 C 0.90174 0.89984 0.49114 0.0
C924 C 0.89113 0.90854 0.49976 0.0
C925 C 0.87855 0.91617 0.49251 0.0
C926 C 0.91146 0.89005 0.46604 0.0
C927 C 0.89273 0.90993 0.5166 0.0
H928 H 0.92396 0.85531 0.51191 0.0
H929 H 0.9544 0.89501 0.50711 0.0
H930 H 0.88655 0.87622 0.5042 0.0
H931 H 0.89487 0.86261 0.49167 0.0
H932 H 0.89565 0.85877 0.5117 0.0
H933 H 0.9455 0.91777 0.49284 0.0
H934 H 0.92526 0.91941 0.48584 0.0
H935 H 0.92934 0.92189 0.50545 0.0
H936 H 0.88532 0.90676 0.45616 0.0
H937 H 0.87019 0.92275 0.49906 0.0
H938 H 0.91059 0.87764 0.46937 0.0
H939 H 0.92397 0.89372 0.46821 0.0
H940 H 0.90905 0.89155 0.45374 0.0
H941 H 0.88547 0.90077 0.52239 0.0
H942 H 0.88811 0.92119 0.52016 0.0
H943 H 0.90531 0.90865 0.52047 0.0
C944 C 0.07089 0.62406 0.53424 0.0
C945 C 0.05438 0.62166 0.53201 0.0
C946 C 0.08235 0.61592 0.52597 0.0
C947 C 0.07704 0.60565 0.51505 0.0
C948 C 0.0605 0.60255 0.51359 0.0
C949 C 0.04946 0.61034 0.52231 0.0
C950 C 0.10001 0.61894 0.52827 0.0
C951 C 0.0542 0.59122 0.5026 0.0
C952 C 0.10401 0.59943 0.48113 0.0
C953 C 0.1106 0.58497 0.48524 0.0
C954 C 0.09275 0.60624 0.49073 0.0
C955 C 0.08864 0.59857 0.50467 0.0
C956 C 0.09522 0.58394 0.50845 0.0
C957 C 0.10608 0.57744 0.49871 0.0
C958 C 0.08519 0.62155 0.48617 0.0
C959 C 0.09134 0.57503 0.52293 0.0
H960 H 0.07481 0.63258 0.542 0.0
H961 H 0.03677 0.60818 0.52074 0.0
H962 H 0.10744 0.60867 0.52621 0.0
H963 H 0.10388 0.62836 0.52025 0.0
H964 H 0.1024 0.6226 0.53991 0.0
H965 H 0.04169 0.59399 0.49913 0.0
H966 H 0.06165 0.59084 0.49227 0.0
H967 H 0.05422 0.57956 0.5082 0.0
H968 H 0.10767 0.60532 0.47067 0.0
H969 H 0.11149 0.56643 0.50197 0.0
H970 H 0.08902 0.63034 0.49413 0.0
H971 H 0.07193 0.62071 0.48686 0.0
H972 H 0.08857 0.6255 0.47453 0.0
H973 H 0.10015 0.57811 0.53168 0.0
H974 H 0.09226 0.56243 0.52149 0.0
H975 H 0.07916 0.57758 0.52714 0.0
C976 C 0.93528 0.09741 0.97612 0.0
C977 C 0.9411 0.11149 0.98072 0.0
C978 C 0.92274 0.09013 0.98335 0.0
C979 C 0.91793 0.09509 0.99748 0.0
C980 C 0.92591 0.10789 0.00084 0.0
C981 C 0.93737 0.11605 0.9955 0.0
C982 C 0.91399 0.078 0.97482 0.0
C983 C 0.92198 0.11182 0.01693 0.0
C984 C 0.87513 0.08678 0.00402 0.0
C985 C 0.87683 0.07279 0.01221 0.0
C986 C 0.88851 0.0945 -0.00179 0.0
C987 C 0.90388 0.08825 0.00117 0.0
C988 C 0.90578 0.07445 0.00996 0.0
C989 C 0.89212 0.0668 0.01544 0.0
C990 C 0.88629 0.10847 0.99198 0.0
C991 C 0.92207 0.06734 0.01302 0.0
H992 H 0.93889 0.09278 0.9655 0.0
H993 H 0.94247 0.12696 -0.00369 0.0
H994 H 0.90921 0.06869 0.98246 0.0
H995 H 0.90375 0.08349 0.96867 0.0
H996 H 0.9218 0.07267 0.96633 0.0
H997 H 0.92543 0.12382 0.01916 0.0
H998 H 0.90906 0.11029 0.01959 0.0
H999 H 0.92879 0.10396 0.0248 0.0
H1000 H 0.86329 0.09133 0.00146 0.0
H1001 H 0.89339 0.05595 0.02181 0.0
H1002 H 0.88992 0.10641 0.98019 0.0
H1003 H 0.894 0.1178 0.99608 0.0
H1004 H 0.87365 0.11248 0.99191 0.0
H1005 H 0.92471 0.05905 0.00418 0.0
H1006 H 0.92222 0.06091 0.02412 0.0
H1007 H 0.9318 0.07603 0.01291 0.0
C1008 C 0.10105 0.41086 0.99642 0.0
C1009 C 0.11129 0.40294 0.00246 0.0
C1010 C 0.09114 0.40362 0.98621 0.0
C1011 C 0.09076 0.38738 0.9861 0.0
C1012 C 0.10075 0.37858 0.99613 0.0
C1013 C 0.11098 0.38678 0.00245 0.0
C1014 C 0.08114 0.41358 0.97553 0.0
C1015 C 0.10108 0.3612 0.99605 0.0
C1016 C 0.05141 0.37029 0.97415 0.0
C1017 C 0.05471 0.36551 0.95969 0.0
C1018 C 0.06319 0.37706 0.98281 0.0
C1019 C 0.07862 0.37974 0.97668 0.0
C1020 C 0.0821 0.37532 0.9618 0.0
C1021 C 0.07 0.36816 0.95338 0.0
C1022 C 0.05903 0.38151 -0.00468 0.0
C1023 C 0.09852 0.37795 0.95491 0.0
H1024 H 0.10143 0.42333 0.99617 0.0
H1025 H 0.11919 0.38017 0.00964 0.0
H1026 H 0.07904 0.4081 0.96464 0.0
H1027 H 0.06934 0.41566 0.98084 0.0
H1028 H 0.08691 0.42493 0.97311 0.0
H1029 H 0.10504 0.35667 0.00362 0.0
H1030 H 0.08918 0.3563 0.99341 0.0
H1031 H 0.10962 0.35766 0.98725 0.0
H1032 H 0.03967 0.36806 0.97903 0.0
H1033 H 0.07255 0.36443 0.94212 0.0
H1034 H 0.0594 0.39417 -0.00368 0.0
H1035 H 0.06801 0.37638 0.00329 0.0
H1036 H 0.04696 0.37733 -0.00115 0.0
H1037 H 0.09873 0.38943 0.94895 0.0
H1038 H 0.10124 0.36919 0.94653 0.0
H1039 H 0.10815 0.37769 0.96354 0.0
C1040 C 0.51724 0.92168 0.87685 0.0
C1041 C 0.52301 0.93548 0.8823 0.0
C1042 C 0.51288 0.90965 0.88706 0.0
C1043 C 0.51386 0.91194 0.90276 0.0
C1044 C 0.51847 0.92634 0.90806 0.0
C1045 C 0.5217 0.93831 0.89764 0.0
C1046 C 0.50793 0.89438 0.88106 0.0
C1047 C 0.52125 0.92892 0.92461 0.0
C1048 C 0.48619 0.8891 0.92871 0.0
C1049 C 0.49678 0.87799 0.93483 0.0
C1050 C 0.49179 0.90026 0.91807 0.0
C1051 C 0.5081 0.90004 0.91368 0.0
C1052 C 0.51875 0.88897 0.92015 0.0
C1053 C 0.51281 0.87792 0.93048 0.0
C1054 C 0.48047 0.91243 0.91157 0.0
C1055 C 0.53635 0.88852 0.91629 0.0
H1056 H 0.51809 0.9196 0.86491 0.0
H1057 H 0.52602 0.94914 0.90171 0.0
H1058 H 0.51134 0.88456 0.88881 0.0
H1059 H 0.49471 0.89425 0.87973 0.0
H1060 H 0.51337 0.89259 0.86984 0.0
H1061 H 0.52082 0.94134 0.92703 0.0
H1062 H 0.51235 0.92275 0.93191 0.0
H1063 H 0.53333 0.92451 0.9278 0.0
H1064 H 0.4737 0.88892 0.93209 0.0
H1065 H 0.52082 0.86916 0.93526 0.0
H1066 H 0.4793 0.91124 0.89921 0.0
H1067 H 0.4853 0.92409 0.91338 0.0
H1068 H 0.46837 0.91158 0.91676 0.0
H1069 H 0.53808 0.88098 0.90664 0.0
H1070 H 0.54351 0.88365 0.92594 0.0
H1071 H 0.54114 0.90007 0.91303 0.0
C1072 C 0.49146 0.5507 0.8784 0.0
C1073 C 0.47577 0.55277 0.87276 0.0
C1074 C 0.4985 0.56252 0.88661 0.0
C1075 C 0.48891 0.57538 0.88998 0.0
C1076 C 0.47349 0.57735 0.88378 0.0
C1077 C 0.46769 0.56651 0.87445 0.0
C1078 C 0.51557 0.56108 0.89232 0.0
C1079 C 0.46262 0.5907 0.88697 0.0
C1080 C 0.49707 0.5968 0.925 0.0
C1081 C 0.50466 0.60988 0.91857 0.0
C1082 C 0.49162 0.58532 0.91567 0.0
C1083 C 0.4946 0.58702 0.89996 0.0
C1084 C 0.50123 0.60068 0.89355 0.0
C1085 C 0.50568 0.61216 0.90297 0.0
C1086 C 0.48321 0.57124 0.92243 0.0
C1087 C 0.5046 0.60311 0.87687 0.0
H1088 H 0.49777 0.53999 0.87691 0.0
H1089 H 0.45569 0.56807 0.86981 0.0
H1090 H 0.52147 0.57248 0.89292 0.0
H1091 H 0.5155 0.5556 0.90386 0.0
H1092 H 0.52284 0.55379 0.88495 0.0
H1093 H 0.4498 0.58721 0.88674 0.0
H1094 H 0.46499 0.59567 0.89805 0.0
H1095 H 0.46436 0.59984 0.87801 0.0
H1096 H 0.49657 0.59507 0.93718 0.0
H1097 H 0.51193 0.62215 0.89812 0.0
H1098 H 0.49053 0.56084 0.92055 0.0
H1099 H 0.4715 0.56966 0.91674 0.0
H1100 H 0.48109 0.57207 0.93473 0.0
H1101 H 0.51657 0.59824 0.87441 0.0
H1102 H 0.50481 0.61554 0.87344 0.0
H1103 H 0.49566 0.59738 0.86978 0.0
C1104 C 0.51271 0.06397 0.61454 0.0
C1105 C 0.52308 0.05283 0.60884 0.0
C1106 C 0.50709 0.07607 0.60474 0.0
C1107 C 0.51268 0.07697 0.58961 0.0
C1108 C 0.52249 0.06534 0.58411 0.0
C1109 C 0.52544 0.05246 0.59327 0.0
C1110 C 0.49594 0.08819 0.61053 0.0
C1111 C 0.53064 0.06656 0.56886 0.0
C1112 C 0.48796 0.09653 0.55879 0.0
C1113 C 0.49629 0.11045 0.55672 0.0
C1114 C 0.49317 0.08553 0.56983 0.0
C1115 C 0.50675 0.08882 0.57875 0.0
C1116 C 0.51523 0.10272 0.57639 0.0
C1117 C 0.50962 0.11346 0.56565 0.0
C1118 C 0.48458 0.07025 0.57182 0.0
C1119 C 0.5303 0.10644 0.58494 0.0
H1120 H 0.51019 0.064 0.62653 0.0
H1121 H 0.53235 0.04323 0.5886 0.0
H1122 H 0.49824 0.0997 0.60506 0.0
H1123 H 0.4834 0.08496 0.60796 0.0
H1124 H 0.49706 0.08905 0.62294 0.0
H1125 H 0.53466 0.05518 0.56508 0.0
H1126 H 0.52273 0.07184 0.56003 0.0
H1127 H 0.5414 0.07398 0.56971 0.0
H1128 H 0.47749 0.09435 0.55196 0.0
H1129 H 0.516 0.12428 0.564 0.0
H1130 H 0.47963 0.06897 0.58343 0.0
H1131 H 0.49309 0.06062 0.57037 0.0
H1132 H 0.47466 0.06917 0.5636 0.0
H1133 H 0.52693 0.11237 0.59531 0.0
H1134 H 0.53823 0.11429 0.57811 0.0
H1135 H 0.53724 0.09599 0.58836 0.0
C1136 C 0.47196 0.43816 0.59945 0.0
C1137 C 0.47571 0.4387 0.61476 0.0
C1138 C 0.47719 0.42613 0.59121 0.0
C1139 C 0.48976 0.41693 0.59699 0.0
C1140 C 0.49719 0.42025 0.6109 0.0
C1141 C 0.48958 0.43093 0.62021 0.0
C1142 C 0.46805 0.42266 0.577 0.0
C1143 C 0.51238 0.41197 0.61597 0.0
C1144 C 0.49374 0.37742 0.58155 0.0
C1145 C 0.50533 0.3806 0.57038 0.0
C1146 C 0.48833 0.38938 0.59043 0.0
C1147 C 0.49506 0.40424 0.58799 0.0
C1148 C 0.50542 0.40746 0.57573 0.0
C1149 C 0.5089 0.39585 0.56609 0.0
C1150 C 0.47651 0.38609 0.60309 0.0
C1151 C 0.51356 0.42285 0.57298 0.0
H1152 H 0.46256 0.44543 0.59457 0.0
H1153 H 0.49352 0.43216 0.63174 0.0
H1154 H 0.47602 0.41872 0.56796 0.0
H1155 H 0.45928 0.41336 0.57971 0.0
H1156 H 0.46128 0.43283 0.57244 0.0
H1157 H 0.51378 0.41195 0.62842 0.0
H1158 H 0.51269 0.39991 0.61238 0.0
H1159 H 0.52283 0.41803 0.61075 0.0
H1160 H 0.49048 0.36561 0.5845 0.0
H1161 H 0.51716 0.3983 0.55682 0.0
H1162 H 0.46522 0.39249 0.60066 0.0
H1163 H 0.48132 0.39016 0.61389 0.0
H1164 H 0.4737 0.37365 0.60455 0.0
H1165 H 0.50685 0.42959 0.56414 0.0
H1166 H 0.52597 0.42128 0.56875 0.0
H1167 H 0.51419 0.42966 0.58324 0.0
C1168 C 0.92495 0.49471 0.90023 0.0
C1169 C 0.92834 0.50434 0.88768 0.0
C1170 C 0.91419 0.49876 0.91091 0.0
C1171 C 0.90864 0.51394 0.91071 0.0
C1172 C 0.91438 0.52515 0.89991 0.0
C1173 C 0.92389 0.52006 0.88779 0.0
C1174 C 0.90777 0.48596 0.92135 0.0
C1175 C 0.91001 0.54197 0.90115 0.0
C1176 C 0.86869 0.51742 0.92938 0.0
C1177 C 0.87358 0.52233 0.94346 0.0
C1178 C 0.88018 0.51526 0.91821 0.0
C1179 C 0.89653 0.51739 0.92181 0.0
C1180 C 0.90138 0.52 0.93671 0.0
C1181 C 0.88966 0.52092 0.94778 0.0
C1182 C 0.87493 0.51164 0.90243 0.0
C1183 C 0.91873 0.52249 0.94094 0.0
H1184 H 0.92889 0.48283 0.90088 0.0
H1185 H 0.92728 0.52794 0.87855 0.0
H1186 H 0.90498 0.48986 0.93277 0.0
H1187 H 0.89656 0.48146 0.91644 0.0
H1188 H 0.91633 0.4762 0.92268 0.0
H1189 H 0.91106 0.54835 0.89008 0.0
H1190 H 0.89767 0.54346 0.90555 0.0
H1191 H 0.91837 0.54724 0.90919 0.0
H1192 H 0.8561 0.51792 0.92634 0.0
H1193 H 0.8932 0.5242 0.95898 0.0
H1194 H 0.87865 0.49976 0.90001 0.0
H1195 H 0.88081 0.51954 0.89395 0.0
H1196 H 0.86174 0.51257 0.90097 0.0
H1197 H 0.92363 0.51163 0.94609 0.0
H1198 H 0.91969 0.53142 0.94948 0.0
H1199 H 0.92632 0.52606 0.93114 0.0
C1200 C 0.88755 0.47157 0.54432 0.0
C1201 C 0.87204 0.46701 0.54858 0.0
C1202 C 0.89867 0.47514 0.55535 0.0
C1203 C 0.89354 0.47493 0.57051 0.0
C1204 C 0.87719 0.47315 0.57434 0.0
C1205 C 0.86635 0.46982 0.563 0.0
C1206 C 0.91604 0.47764 0.55099 0.0
C1207 C 0.87119 0.47413 0.59038 0.0
C1208 C 0.92409 0.46901 0.60156 0.0
C1209 C 0.92596 0.48446 0.60526 0.0
C1210 C 0.91324 0.4655 0.59 0.0
C1211 C 0.90503 0.47781 0.58229 0.0
C1212 C 0.90706 0.4931 0.58631 0.0
C1213 C 0.91724 0.49608 0.59787 0.0
C1214 C 0.91008 0.44898 0.58618 0.0
C1215 C 0.89885 0.50675 0.57852 0.0
H1216 H 0.89171 0.46963 0.53296 0.0
H1217 H 0.85414 0.46673 0.56605 0.0
H1218 H 0.92189 0.4863 0.55799 0.0
H1219 H 0.92264 0.46663 0.55274 0.0
H1220 H 0.9172 0.48147 0.53893 0.0
H1221 H 0.86039 0.46686 0.59236 0.0
H1222 H 0.88035 0.4706 0.59891 0.0
H1223 H 0.86778 0.48621 0.59229 0.0
H1224 H 0.93076 0.46001 0.60763 0.0
H1225 H 0.91862 0.50793 0.60107 0.0
H1226 H 0.91394 0.44714 0.57442 0.0
H1227 H 0.89702 0.44653 0.58679 0.0
H1228 H 0.91648 0.44069 0.59393 0.0
H1229 H 0.90654 0.51112 0.56907 0.0
H1230 H 0.89716 0.51629 0.58631 0.0
H1231 H 0.88697 0.50385 0.57385 0.0
C1232 C 0.10554 0.0292 0.58627 0.0
C1233 C 0.099 0.03837 0.5744 0.0
C1234 C 0.09531 0.02081 0.59623 0.0
C1235 C 0.07851 0.0214 0.59382 0.0
C1236 C 0.07217 0.02999 0.58133 0.0
C1237 C 0.0826 0.03759 0.57134 0.0
C1238 C 0.10239 0.01188 0.60963 0.0
C1239 C 0.05436 0.03222 0.57896 0.0
C1240 C 0.05333 0.99077 0.60838 0.0
C1241 C 0.04675 0.99699 0.62136 0.0
C1242 C 0.06357 -0.00305 0.59934 0.0
C1243 C 0.06754 0.01203 0.6035 0.0
C1244 C 0.06046 0.01825 0.61636 0.0
C1245 C 0.05009 0.00921 0.62518 0.0
C1246 C 0.07124 0.99312 0.58525 0.0
C1247 C 0.06367 0.03439 0.62112 0.0
H1248 H 0.11826 0.02982 0.58867 0.0
H1249 H 0.0776 0.0446 0.56206 0.0
H1250 H 0.09429 0.01168 0.61957 0.0
H1251 H 0.10441 -0.00018 0.60652 0.0
H1252 H 0.11409 0.01676 0.61297 0.0
H1253 H 0.05151 0.03533 0.56697 0.0
H1254 H 0.04741 0.02181 0.58243 0.0
H1255 H 0.05024 0.04178 0.5859 0.0
H1256 H 0.05025 0.97917 0.60547 0.0
H1257 H 0.04486 0.01394 0.63519 0.0
H1258 H 0.08446 0.99227 0.58644 0.0
H1259 H 0.06817 -0.00171 0.57529 0.0
H1260 H 0.06637 0.98157 0.58303 0.0
H1261 H 0.07401 0.03416 0.62899 0.0
H1262 H 0.0532 0.03909 0.62716 0.0
H1263 H 0.06657 0.04234 0.61139 0.0
C1264 C 0.58351 0.44902 0.41861 0.0
C1265 C 0.60016 0.45 0.4171 0.0
C1266 C 0.57333 0.45833 0.4099 0.0
C1267 C 0.57982 0.47037 0.40068 0.0
C1268 C 0.59657 0.47334 0.40104 0.0
C1269 C 0.60679 0.46297 0.40929 0.0
C1270 C 0.55579 0.4541 0.40966 0.0
C1271 C 0.60359 0.48694 0.39209 0.0
C1272 C 0.5565 0.48108 0.36534 0.0
C1273 C 0.5477 0.49382 0.36955 0.0
C1274 C 0.56704 0.47354 0.37529 0.0
C1275 C 0.56915 0.479 0.38994 0.0
C1276 C 0.56065 0.4922 0.39433 0.0
C1277 C 0.54973 0.49945 0.38408 0.0
C1278 C 0.57579 0.45956 0.37004 0.0
C1279 C 0.56284 0.4984 0.40987 0.0
H1280 H 0.57824 0.43962 0.42536 0.0
H1281 H 0.61969 0.46423 0.40853 0.0
H1282 H 0.548 0.46433 0.40782 0.0
H1283 H 0.55366 0.44627 0.40031 0.0
H1284 H 0.55208 0.44797 0.42036 0.0
H1285 H 0.61648 0.48512 0.38961 0.0
H1286 H 0.5972 0.48933 0.38126 0.0
H1287 H 0.6025 0.49733 0.39885 0.0
H1288 H 0.55486 0.47667 0.35418 0.0
H1289 H 0.54299 0.50943 0.38734 0.0
H1290 H 0.57158 0.4492 0.37662 0.0
H1291 H 0.58885 0.4607 0.37207 0.0
H1292 H 0.57387 0.4577 0.35785 0.0
H1293 H 0.55372 0.49313 0.4176 0.0
H1294 H 0.56106 0.51106 0.40957 0.0
H1295 H 0.57487 0.49578 0.41468 0.0
C1296 C 0.56265 0.63636 0.98265 0.0
C1297 C 0.5516 0.62888 0.97379 0.0
C1298 C 0.57268 0.62819 0.9926 0.0
C1299 C 0.57164 0.61198 0.99372 0.0
C1300 C 0.55994 0.60422 0.98526 0.0
C1301 C 0.54995 0.61283 0.97521 0.0
C1302 C 0.58475 0.63766 -0.00223 0.0
C1303 C 0.55808 0.58694 0.98685 0.0
C1304 C 0.6101 0.59192 -0.00027 0.0
C1305 C 0.60845 0.58849 0.0152 0.0
C1306 C 0.59821 0.59905 0.99503 0.0
C1307 C 0.58381 0.60374 -0.00104 0.0
C1308 C 0.5816 0.59966 0.01447 0.0
C1309 C 0.59407 0.59213 0.02251 0.0
C1310 C 0.60099 0.60303 0.97848 0.0
C1311 C 0.56639 0.60365 0.02268 0.0
H1312 H 0.56378 0.64879 0.98154 0.0
H1313 H 0.54101 0.60712 0.96857 0.0
H1314 H 0.58777 0.63187 0.0088 0.0
H1315 H 0.59602 0.63819 0.99444 0.0
H1316 H 0.58039 0.64946 -0.00015 0.0
H1317 H 0.55225 0.58231 0.97674 0.0
H1318 H 0.56973 0.58099 0.98865 0.0
H1319 H 0.5504 0.58406 0.9968 0.0
H1320 H 0.62125 0.58851 0.99747 0.0
H1321 H 0.59268 0.58937 0.03449 0.0
H1322 H 0.60172 0.61571 0.97667 0.0
H1323 H 0.5908 0.59896 0.97167 0.0
H1324 H 0.6122 0.59789 0.9742 0.0
H1325 H 0.56795 0.615 0.02774 0.0
H1326 H 0.56386 0.59503 0.03198 0.0
H1327 H 0.55584 0.60438 0.01506 0.0
C1328 C 0.38629 0.93105 0.99698 0.0
C1329 C 0.37143 0.92415 -0.00416 0.0
C1330 C 0.40008 0.92232 0.99418 0.0
C1331 C 0.39857 0.90613 0.99358 0.0
C1332 C 0.38367 0.89883 0.9961 0.0
C1333 C 0.37021 0.90829 -0.00469 0.0
C1334 C 0.41605 0.93028 0.99179 0.0
C1335 C 0.38162 0.88157 0.9965 0.0
C1336 C 0.42759 0.88488 0.96974 0.0
C1337 C 0.43779 0.87858 0.98092 0.0
C1338 C 0.41451 0.89386 0.97382 0.0
C1339 C 0.41214 0.89668 0.98926 0.0
C1340 C 0.42175 0.89002 -0.00295 0.0
C1341 C 0.4344 0.88015 0.99614 0.0
C1342 C 0.40357 0.90081 0.96173 0.0
C1343 C 0.41977 0.89266 0.01366 0.0
H1344 H 0.38705 0.94344 0.99759 0.0
H1345 H 0.35872 0.90273 -0.00261 0.0
H1346 H 0.4262 0.92298 0.99589 0.0
H1347 H 0.41781 0.93286 0.97953 0.0
H1348 H 0.41644 0.94132 0.99761 0.0
H1349 H 0.3691 0.87828 0.99382 0.0
H1350 H 0.38972 0.87594 0.98851 0.0
H1351 H 0.38428 0.87748 0.00459 0.0
H1352 H 0.4306 0.88385 0.95793 0.0
H1353 H 0.44258 0.87617 0.00118 0.0
H1354 H 0.40448 0.91354 0.96156 0.0
H1355 H 0.39091 0.89774 0.96428 0.0
H1356 H 0.40658 0.89684 0.95034 0.0
H1357 H 0.42681 0.90295 0.01652 0.0
H1358 H 0.42434 0.88272 0.02069 0.0
H1359 H 0.40709 0.89468 0.01674 0.0
C1360 C 0.56701 0.36375 0.52473 0.0
C1361 C 0.55271 0.35852 0.51859 0.0
C1362 C 0.57865 0.3708 0.51553 0.0
C1363 C 0.5755 0.37345 0.49996 0.0
C1364 C 0.56088 0.36848 0.49368 0.0
C1365 C 0.5496 0.36099 0.50313 0.0
C1366 C 0.59427 0.37535 0.52264 0.0
C1367 C 0.55742 0.37045 0.47697 0.0
C1368 C 0.59689 0.40712 0.48049 0.0
C1369 C 0.60895 0.39949 0.47275 0.0
C1370 C 0.5857 0.39862 0.48929 0.0
C1371 C 0.58702 0.38237 0.49045 0.0
C1372 C 0.59917 0.37481 0.48248 0.0
C1373 C 0.61003 0.38353 0.4738 0.0
C1374 C 0.57245 0.40682 0.49736 0.0
C1375 C 0.60112 0.35756 0.48319 0.0
H1376 H 0.56955 0.36155 0.53663 0.0
H1377 H 0.53859 0.35668 0.49836 0.0
H1378 H 0.60446 0.37484 0.51464 0.0
H1379 H 0.59323 0.38732 0.52634 0.0
H1380 H 0.59709 0.36782 0.53274 0.0
H1381 H 0.54432 0.37064 0.47473 0.0
H1382 H 0.56275 0.38114 0.47187 0.0
H1383 H 0.56264 0.36057 0.47116 0.0
H1384 H 0.59635 0.41958 0.47979 0.0
H1385 H 0.61968 0.37781 0.46804 0.0
H1386 H 0.57402 0.40508 0.50975 0.0
H1387 H 0.56062 0.40192 0.49443 0.0
H1388 H 0.57231 0.41935 0.49445 0.0
H1389 H 0.60935 0.35425 0.49262 0.0
H1390 H 0.60649 0.35351 0.4726 0.0
H1391 H 0.58957 0.3515 0.48516 0.0
C1392 C 0.37788 0.07462 0.48228 0.0
C1393 C 0.36991 0.06537 0.49306 0.0
C1394 C 0.38977 0.08466 0.4865 0.0
C1395 C 0.3944 0.0848 0.50181 0.0
C1396 C 0.3871 0.07483 0.5128 0.0
C1397 C 0.37472 0.0652 0.50829 0.0
C1398 C 0.39742 0.09488 0.47433 0.0
C1399 C 0.39202 0.07472 0.52926 0.0
C1400 C 0.43746 0.09317 0.50619 0.0
C1401 C 0.43781 0.10818 0.51091 0.0
C1402 C 0.42345 0.08547 0.50395 0.0
C1403 C 0.40885 0.09319 0.50566 0.0
C1404 C 0.40841 0.10861 0.51024 0.0
C1405 C 0.4232 0.11621 0.51288 0.0
C1406 C 0.42465 0.06896 0.49939 0.0
C1407 C 0.3925 0.11676 0.51214 0.0
H1408 H 0.37424 0.0747 0.47053 0.0
H1409 H 0.36848 0.05799 0.51667 0.0
H1410 H 0.40194 0.10579 0.47875 0.0
H1411 H 0.40766 0.08868 0.46941 0.0
H1412 H 0.3888 0.09774 0.46506 0.0
H1413 H 0.38883 0.06367 0.53524 0.0
H1414 H 0.40506 0.07669 0.53069 0.0
H1415 H 0.38557 0.0841 0.5348 0.0
H1416 H 0.44852 0.08708 0.50403 0.0
H1417 H 0.42332 0.12791 0.51658 0.0
H1418 H 0.42069 0.06817 0.4875 0.0
H1419 H 0.41676 0.06144 0.50655 0.0
H1420 H 0.43704 0.06429 0.50031 0.0
H1421 H 0.38925 0.12286 0.50131 0.0
H1422 H 0.39337 0.12542 0.52092 0.0
H1423 H 0.38263 0.10866 0.51521 0.0
C1424 C 0.01523 0.58608 0.58906 0.0
C1425 C 0.00466 0.59795 0.58467 0.0
C1426 C 0.00981 0.57342 0.5978 0.0
C1427 C 0.99676 0.57317 0.60276 0.0
C1428 C 0.98684 0.58627 0.60032 0.0
C1429 C 0.99264 0.59882 0.59151 0.0
C1430 C 0.02083 0.55976 0.60031 0.0
C1431 C 0.96988 0.58678 0.60625 0.0
C1432 C 0.97633 0.53466 0.60964 0.0
C1433 C 0.97766 0.53307 0.6254 0.0
C1434 C 0.98284 0.54768 0.60194 0.0
C1435 C 0.99034 0.55916 0.6104 0.0
C1436 C 0.99163 0.55733 0.62623 0.0
C1437 C 0.98573 0.54408 0.63342 0.0
C1438 C 0.98116 0.54962 0.58499 0.0
C1439 C -0.0041 0.56934 0.6359 0.0
H1440 H 0.027 0.58565 0.5839 0.0
H1441 H 0.98461 0.60821 0.58831 0.0
H1442 H 0.01859 0.55359 0.61132 0.0
H1443 H 0.01877 0.55158 0.59125 0.0
H1444 H 0.03361 0.56331 0.59986 0.0
H1445 H 0.96227 0.59469 0.59916 0.0
H1446 H 0.96412 0.57529 0.60684 0.0
H1447 H 0.97014 0.59112 0.61784 0.0
H1448 H 0.96995 0.52604 0.60352 0.0
H1449 H 0.98653 0.54286 0.64564 0.0
H1450 H 0.99322 0.54975 0.57971 0.0
H1451 H 0.97536 0.56081 0.5819 0.0
H1452 H 0.97398 0.54025 0.5802 0.0
H1453 H 0.00883 0.56673 0.63752 0.0
H1454 H 0.99324 0.56919 0.64725 0.0
H1455 H 0.99783 0.58113 0.63077 0.0
C1456 C 0.9933 0.9337 0.60283 0.0
C1457 C 0.00362 0.9342 0.61216 0.0
C1458 C 0.99235 0.92334 0.59144 0.0
C1459 C 0.00101 0.91171 0.59054 0.0
C1460 C 0.01413 0.91116 0.60075 0.0
C1461 C 0.01561 0.92285 0.61129 0.0
C1462 C 0.97862 0.92513 0.58045 0.0
C1463 C 0.02681 0.89877 0.59993 0.0
C1464 C 0.98731 0.87484 0.57686 0.0
C1465 C 0.99299 0.87464 0.56216 0.0
C1466 C 0.99121 0.88669 0.58614 0.0
C1467 C -0.00208 0.89891 0.58052 0.0
C1468 C 0.00386 0.89897 0.56551 0.0
C1469 C -0.00017 0.88662 0.55637 0.0
C1470 C 0.9849 0.88599 0.60211 0.0
C1471 C 0.01424 0.91198 0.5592 0.0
H1472 H 0.98428 0.9427 0.60326 0.0
H1473 H 0.0263 0.92353 0.61818 0.0
H1474 H 0.98145 0.92044 0.56933 0.0
H1475 H 0.96803 0.91895 0.58524 0.0
H1476 H 0.97526 0.93743 0.5786 0.0
H1477 H 0.03316 0.89704 0.61088 0.0
H1478 H 0.0217 0.88758 0.59676 0.0
H1479 H 0.03575 0.90233 0.5912 0.0
H1480 H 0.97991 0.86542 0.58128 0.0
H1481 H 0.00429 0.88635 0.5449 0.0
H1482 H 0.97619 0.89545 0.60352 0.0
H1483 H 0.99484 0.88753 0.61023 0.0
H1484 H 0.97882 0.87492 0.60511 0.0
H1485 H 0.00643 0.92092 0.55372 0.0
H1486 H 0.02261 0.90785 0.55052 0.0
H1487 H 0.02131 0.91745 0.56811 0.0
C1488 C 0.97043 0.44041 0.86482 0.0
C1489 C 0.97702 0.45492 0.8661 0.0
C1490 C 0.97763 0.42754 0.8715 0.0
C1491 C 0.99157 0.42929 0.88024 0.0
C1492 C 0.99855 0.44401 0.88172 0.0
C1493 C 0.99127 0.45686 0.87428 0.0
C1494 C 0.96971 0.41219 0.86951 0.0
C1495 C 0.01064 0.44602 0.8909 0.0
C1496 C 0.99332 0.39986 0.91194 0.0
C1497 C 0.00275 0.3904 0.90779 0.0
C1498 C 0.98964 0.41307 0.90357 0.0
C1499 C 0.99718 0.41598 0.88952 0.0
C1500 C 0.0059 0.40572 0.88422 0.0
C1501 C 0.0105 0.39299 0.89375 0.0
C1502 C 0.97794 0.42414 0.91024 0.0
C1503 C 0.01371 0.4085 0.86891 0.0
H1504 H 0.95969 0.43897 0.85808 0.0
H1505 H 0.99659 0.46818 0.87483 0.0
H1506 H 0.97843 0.40257 0.87004 0.0
H1507 H 0.96076 0.41017 0.87863 0.0
H1508 H 0.96328 0.41198 0.85854 0.0
H1509 H 0.01168 0.45794 0.89476 0.0
H1510 H 0.01115 0.43794 0.90092 0.0
H1511 H 0.02118 0.44368 0.88372 0.0
H1512 H 0.98753 0.39783 0.92283 0.0
H1513 H 0.02036 0.38566 0.89062 0.0
H1514 H 0.96654 0.42399 0.90381 0.0
H1515 H 0.98273 0.43604 0.90941 0.0
H1516 H 0.97525 0.42122 0.9223 0.0
H1517 H 0.00666 0.4025 0.86033 0.0
H1518 H 0.0261 0.40383 0.86888 0.0
H1519 H 0.01415 0.42089 0.8654 0.0
C1520 C -0.00355 0.06724 0.87326 0.0
C1521 C 0.00238 0.0532 0.87983 0.0
C1522 C 0.99616 0.07971 0.88274 0.0
C1523 C 0.99826 0.07746 0.89861 0.0
C1524 C 0.00148 0.06361 0.9047 0.0
C1525 C 0.00654 0.05268 0.8951 0.0
C1526 C 0.98985 0.09491 0.87621 0.0
C1527 C 0.00251 0.05968 0.92147 0.0
C1528 C 0.0036 0.11133 0.92246 0.0
C1529 C 0.99142 0.11391 0.92863 0.0
C1530 C 0.00591 0.09936 0.91262 0.0
C1531 C 0.99578 0.08994 0.90903 0.0
C1532 C 0.98092 0.09156 0.91643 0.0
C1533 C 0.97895 0.10356 0.92617 0.0
C1534 C 0.02223 0.09703 0.90563 0.0
C1535 C 0.96677 0.08125 0.91364 0.0
H1536 H 0.99673 0.06819 0.86131 0.0
H1537 H 0.01251 0.04271 0.90026 0.0
H1538 H 0.98123 0.10028 0.88394 0.0
H1539 H -0.00298 0.10299 0.87443 0.0
H1540 H 0.98389 0.09347 0.86518 0.0
H1541 H 0.01148 0.05052 0.92417 0.0
H1542 H 0.00561 0.06979 0.92806 0.0
H1543 H 0.99367 0.05537 0.92543 0.0
H1544 H 0.01338 0.11913 0.92461 0.0
H1545 H 0.96728 0.1053 0.93118 0.0
H1546 H 0.02146 0.09919 0.89322 0.0
H1547 H 0.02629 0.08498 0.90772 0.0
H1548 H 0.03142 0.10481 0.91019 0.0
H1549 H 0.95967 0.08635 0.90408 0.0
H1550 H 0.9588 0.0803 0.92368 0.0
H1551 H 0.97047 0.06952 0.91069 0.0
C1552 C 0.60053 0.94214 0.57584 0.0
C1553 C 0.61153 0.94987 0.56619 0.0
C1554 C 0.59256 0.95006 0.58714 0.0
C1555 C 0.5955 0.96598 0.5884 0.0
C1556 C 0.60776 0.97322 0.57963 0.0
C1557 C 0.61609 0.96485 0.56908 0.0
C1558 C 0.58005 0.94178 0.59676 0.0
C1559 C 0.61181 0.99002 0.58075 0.0
C1560 C 0.56248 0.99168 0.60325 0.0
C1561 C 0.5678 0.99335 0.61817 0.0
C1562 C 0.57136 0.98253 0.59337 0.0
C1563 C 0.58565 0.97521 0.59865 0.0
C1564 C 0.59091 0.97722 0.61356 0.0
C1565 C 0.58179 0.98602 0.62311 0.0
C1566 C 0.56587 0.98085 0.57725 0.0
C1567 C 0.60619 0.97015 0.61976 0.0
H1568 H 0.59705 0.93045 0.57361 0.0
H1569 H 0.62467 0.97077 0.56171 0.0
H1570 H 0.57919 0.94648 0.60817 0.0
H1571 H 0.56818 0.94316 0.59121 0.0
H1572 H 0.58271 0.92929 0.59802 0.0
H1573 H 0.61672 0.99497 0.56995 0.0
H1574 H 0.60131 0.99701 0.58389 0.0
H1575 H 0.62113 0.99116 0.58956 0.0
H1576 H 0.55155 0.99733 0.59942 0.0
H1577 H 0.58582 0.98733 0.63463 0.0
H1578 H 0.56296 0.96862 0.57545 0.0
H1579 H 0.57566 0.9842 0.56929 0.0
H1580 H 0.55516 0.988 0.57448 0.0
H1581 H 0.60341 0.95865 0.62502 0.0
H1582 H 0.61146 0.97726 0.62862 0.0
H1583 H 0.61538 0.96868 0.61091 0.0
C1584 C 0.61176 0.04114 0.91158 0.0
C1585 C 0.61091 0.03591 0.92689 0.0
C1586 C 0.60427 0.0324 0.90036 0.0
C1587 C 0.59518 0.01922 0.905 0.0
C1588 C 0.59496 0.01412 0.92031 0.0
C1589 C 0.60338 0.02213 0.93076 0.0
C1590 C 0.6054 0.03738 0.88381 0.0
C1591 C 0.58583 0.00016 0.92616 0.0
C1592 C 0.56044 0.0067 0.88076 0.0
C1593 C 0.56788 0.9967 0.87382 0.0
C1594 C 0.56944 0.01498 0.89116 0.0
C1595 C 0.58557 0.0107 0.89412 0.0
C1596 C 0.59213 -0.0024 0.88757 0.0
C1597 C 0.58347 0.99213 0.87754 0.0
C1598 C 0.56195 0.02832 0.899 0.0
C1599 C 0.60964 0.99486 0.89063 0.0
H1600 H 0.61775 0.05187 0.90851 0.0
H1601 H 0.603 0.01804 0.94252 0.0
H1602 H 0.60523 0.02739 0.87643 0.0
H1603 H 0.59497 0.04479 0.88073 0.0
H1604 H 0.6165 0.04409 0.88147 0.0
H1605 H 0.58179 0.00145 0.93799 0.0
H1606 H 0.57515 -0.00227 0.91923 0.0
H1607 H 0.59449 0.99268 0.9261 0.0
H1608 H 0.54827 0.01013 0.87797 0.0
H1609 H 0.5888 0.98243 0.87209 0.0
H1610 H 0.56816 0.03914 0.89539 0.0
H1611 H 0.56345 0.02677 0.91142 0.0
H1612 H 0.54898 0.02954 0.89641 0.0
H1613 H 0.61716 -0.00209 0.88218 0.0
H1614 H 0.61072 0.98224 0.88951 0.0
H1615 H 0.61391 0.99766 0.90202 0.0
C1616 C 0.42475 0.50224 0.882 0.0
C1617 C 0.42859 0.49435 0.86908 0.0
C1618 C 0.41314 0.49628 0.89201 0.0
C1619 C 0.40563 0.48219 0.88884 0.0
C1620 C 0.40997 0.47404 0.87607 0.0
C1621 C 0.42163 0.48012 0.86648 0.0
C1622 C 0.4089 0.50507 0.90576 0.0
C1623 C 0.40191 0.45921 0.87198 0.0
C1624 C 0.39192 0.4554 0.9198 0.0
C1625 C 0.3762 0.46024 0.92205 0.0
C1626 C 0.40186 0.4639 0.91025 0.0
C1627 C 0.39497 0.47465 0.89987 0.0
C1628 C 0.37812 0.47678 0.89928 0.0
C1629 C 0.36872 0.4699 0.91098 0.0
C1630 C 0.41979 0.46163 0.9117 0.0
C1631 C 0.3704 0.4871 0.88718 0.0
H1632 H 0.43028 0.51325 0.88393 0.0
H1633 H 0.42447 0.47411 0.85636 0.0
H1634 H 0.3962 0.50333 0.90914 0.0
H1635 H 0.4166 0.501 0.91533 0.0
H1636 H 0.41103 0.5176 0.90376 0.0
H1637 H 0.40969 0.45233 0.86465 0.0
H1638 H 0.39859 0.45188 0.88202 0.0
H1639 H 0.39075 0.46206 0.86563 0.0
H1640 H 0.39729 0.447 0.92768 0.0
H1641 H 0.35627 0.47314 0.91222 0.0
H1642 H 0.42561 0.4727 0.91417 0.0
H1643 H 0.4248 0.45776 0.90092 0.0
H1644 H 0.42305 0.45302 0.92081 0.0
H1645 H 0.36978 0.49899 0.89117 0.0
H1646 H 0.35799 0.48324 0.88486 0.0
H1647 H 0.37728 0.48739 0.87645 0.0
C1648 C 0.89352 0.03442 0.06928 0.0
C1649 C 0.87796 0.02874 0.06795 0.0
C1650 C 0.90417 0.02718 0.07919 0.0
C1651 C 0.89815 0.01679 0.09037 0.0
C1652 C 0.88141 0.01419 0.09178 0.0
C1653 C 0.87126 0.01996 0.08008 0.0
C1654 C 0.92191 0.02959 0.07651 0.0
C1655 C 0.87461 0.00475 0.10503 0.0
C1656 C 0.92713 0.98978 0.1072 0.0
C1657 C 0.9316 0.99703 0.12031 0.0
C1658 C 0.91631 0.99703 0.09717 0.0
C1659 C 0.90951 0.00898 0.10061 0.0
C1660 C 0.91466 0.01648 0.11351 0.0
C1661 C 0.92581 0.00928 0.12293 0.0
C1662 C 0.91091 0.98887 0.08337 0.0
C1663 C 0.90822 0.03192 0.11782 0.0
H1664 H 0.8983 0.04211 0.06041 0.0
H1665 H 0.85887 0.01628 0.07962 0.0
H1666 H 0.9287 0.02986 0.08725 0.0
H1667 H 0.92662 0.01992 0.07005 0.0
H1668 H 0.92434 0.04045 0.06985 0.0
H1669 H 0.86286 -0.00036 0.10218 0.0
H1670 H 0.88338 0.99802 0.10898 0.0
H1671 H 0.87276 0.01239 0.11459 0.0
H1672 H 0.93142 0.97829 0.1052 0.0
H1673 H 0.92943 0.01496 0.13303 0.0
H1674 H 0.91488 0.99548 0.07306 0.0
H1675 H 0.89762 0.98827 0.08304 0.0
H1676 H 0.91579 0.97701 0.0831 0.0
H1677 H 0.91624 0.04109 0.11311 0.0
H1678 H 0.90799 0.03283 0.13029 0.0
H1679 H 0.89594 0.03416 0.11347 0.0
C1680 C 0.38764 0.40902 0.96828 0.0
C1681 C 0.37593 0.41479 0.97785 0.0
C1682 C 0.40129 0.40171 0.97452 0.0
C1683 C 0.40282 0.40026 0.99042 0.0
C1684 C 0.39102 0.40714 -0.00355 0.0
C1685 C 0.37784 0.41377 0.99343 0.0
C1686 C 0.41381 0.39521 0.96422 0.0
C1687 C 0.39247 0.40662 0.01343 0.0
C1688 C 0.42604 0.3667 0.00221 0.0
C1689 C 0.43991 0.37383 0.0072 0.0
C1690 C 0.41359 0.37559 -0.00397 0.0
C1691 C 0.41596 0.39104 0.99704 0.0
C1692 C 0.43064 0.39854 -0.00299 0.0
C1693 C 0.44288 0.3893 0.00319 0.0
C1694 C 0.39778 0.36744 0.9966 0.0
C1695 C 0.43338 0.41568 -0.00494 0.0
H1696 H 0.38613 0.41018 0.95614 0.0
H1697 H 0.36873 0.4193 -0.00284 0.0
H1698 H 0.42606 0.39576 0.96906 0.0
H1699 H 0.41099 0.38296 0.96245 0.0
H1700 H 0.41386 0.40145 0.95303 0.0
H1701 H 0.38053 0.40729 0.01893 0.0
H1702 H 0.3986 0.39604 0.01785 0.0
H1703 H 0.39961 0.41666 0.0168 0.0
H1704 H 0.42387 0.35469 0.00533 0.0
H1705 H 0.45377 0.39467 0.00709 0.0
H1706 H 0.39541 0.36779 0.98428 0.0
H1707 H 0.38781 0.37431 -0.00143 0.0
H1708 H 0.39733 0.35583 -0.00257 0.0
H1709 H 0.43935 0.4176 0.98744 0.0
H1710 H 0.44152 0.41978 0.00395 0.0
H1711 H 0.4221 0.4224 -0.00463 0.0
C1712 C 0.56992 0.12981 0.02449 0.0
C1713 C 0.55659 0.1218 0.03032 0.0
C1714 C 0.58162 0.12245 0.01615 0.0
C1715 C 0.5801 0.10659 0.01372 0.0
C1716 C 0.5675 0.09804 0.02079 0.0
C1717 C 0.5558 0.10577 0.02907 0.0
C1718 C 0.59498 0.13203 0.00914 0.0
C1719 C 0.56618 0.08084 0.01934 0.0
C1720 C 0.59849 0.09074 0.98136 0.0
C1721 C 0.61272 0.0842 0.98723 0.0
C1722 C 0.58774 0.09807 0.99109 0.0
C1723 C 0.5913 0.09913 0.00326 0.0
C1724 C 0.60564 0.09242 0.00888 0.0
C1725 C 0.61613 0.08563 -0.00098 0.0
C1726 C 0.5723 0.10499 0.98497 0.0
C1727 C 0.61023 0.0922 0.02533 0.0
H1728 H 0.57081 0.14214 0.02563 0.0
H1729 H 0.54579 0.09941 0.03401 0.0
H1730 H 0.60621 0.12534 0.00808 0.0
H1731 H 0.59124 0.13621 -0.00233 0.0
H1732 H 0.59756 0.14223 0.01585 0.0
H1733 H 0.55367 0.07681 0.02109 0.0
H1734 H 0.57032 0.07716 0.00816 0.0
H1735 H 0.57383 0.07501 0.02809 0.0
H1736 H 0.59584 0.0901 0.96943 0.0
H1737 H 0.62716 0.08057 0.00345 0.0
H1738 H 0.57237 0.11761 0.98637 0.0
H1739 H 0.56192 0.10021 0.99146 0.0
H1740 H 0.57054 0.10277 0.97285 0.0
H1741 H 0.61762 0.10251 0.02737 0.0
H1742 H 0.61755 0.08188 0.02851 0.0
H1743 H 0.59965 0.09233 0.03288 0.0
C1744 C 0.38388 0.56825 0.50159 0.0
C1745 C 0.37463 0.57454 0.51283 0.0
C1746 C 0.39567 0.57689 0.49419 0.0
C1747 C 0.39873 0.59193 0.49878 0.0
C1748 C 0.38935 0.59856 0.51007 0.0
C1749 C 0.37712 0.58974 0.51697 0.0
C1750 C 0.40487 0.56968 0.48165 0.0
C1751 C 0.39193 0.615 0.51448 0.0
C1752 C 0.44053 0.6069 0.49183 0.0
C1753 C 0.43758 0.61687 0.47925 0.0
C1754 C 0.4276 0.59902 0.49881 0.0
C1755 C 0.41217 0.60057 0.49222 0.0
C1756 C 0.40943 0.61089 0.47982 0.0
C1757 C 0.42204 0.61946 0.47408 0.0
C1758 C 0.43023 0.58877 0.51284 0.0
C1759 C 0.39356 0.61249 0.47173 0.0
H1760 H 0.38146 0.55667 0.4981 0.0
H1761 H 0.36948 0.59468 0.52539 0.0
H1762 H 0.40892 0.57835 0.47294 0.0
H1763 H 0.41561 0.56381 0.48653 0.0
H1764 H 0.39752 0.56093 0.47606 0.0
H1765 H 0.38761 0.61673 0.52613 0.0
H1766 H 0.40471 0.6185 0.51381 0.0
H1767 H 0.38503 0.6228 0.50665 0.0
H1768 H 0.45271 0.60475 0.49561 0.0
H1769 H 0.41994 0.62687 0.46408 0.0
H1770 H 0.4278 0.57662 0.51026 0.0
H1771 H 0.42174 0.59192 0.52184 0.0
H1772 H 0.44265 0.58965 0.51721 0.0
H1773 H 0.39291 0.60373 0.46301 0.0
H1774 H 0.39227 0.624 0.46591 0.0
H1775 H 0.38327 0.61067 0.4795 0.0
C1776 C 0.55819 0.86165 0.47395 0.0
C1777 C 0.55677 0.86588 0.4587 0.0
C1778 C 0.5701 0.86782 0.48288 0.0
C1779 C 0.58079 0.87886 0.47648 0.0
C1780 C 0.57995 0.88288 0.46079 0.0
C1781 C 0.56783 0.87627 0.45194 0.0
C1782 C 0.57063 0.8628 0.49936 0.0
C1783 C 0.5919 0.89395 0.45346 0.0
C1784 C 0.59746 0.90832 0.50273 0.0
C1785 C 0.61313 0.90287 0.50504 0.0
C1786 C 0.58682 0.90051 0.49343 0.0
C1787 C 0.59194 0.88694 0.48656 0.0
C1788 C 0.60745 0.88102 0.48962 0.0
C1789 C 0.61761 0.88879 0.49923 0.0
C1790 C 0.57041 0.9072 0.49016 0.0
C1791 C 0.61375 0.86682 0.48242 0.0
H1792 H 0.54982 0.85339 0.47902 0.0
H1793 H 0.56702 0.87917 0.43995 0.0
H1794 H 0.58295 0.86308 0.50402 0.0
H1795 H 0.56304 0.87069 0.5058 0.0
H1796 H 0.56582 0.85097 0.50125 0.0
H1797 H 0.58696 0.89951 0.44294 0.0
H1798 H 0.59555 0.90308 0.46112 0.0
H1799 H 0.60283 0.88749 0.45047 0.0
H1800 H 0.59385 0.9191 0.50739 0.0
H1801 H 0.62958 0.88429 0.50124 0.0
H1802 H 0.56109 0.89911 0.4946 0.0
H1803 H 0.56856 0.90873 0.47778 0.0
H1804 H 0.56868 0.91848 0.49532 0.0
H1805 H 0.61114 0.85663 0.48998 0.0
H1806 H 0.62696 0.86746 0.48086 0.0
H1807 H 0.60816 0.865 0.4713 0.0
C1808 C 0.00881 0.42535 0.37602 0.0
C1809 C 0.02251 0.43358 0.38063 0.0
C1810 C 0.00247 0.41342 0.38575 0.0
C1811 C 0.01059 0.40963 0.39948 0.0
C1812 C 0.02411 0.41794 0.40375 0.0
C1813 C 0.02872 0.43051 0.39504 0.0
C1814 C 0.99063 0.40458 0.38148 0.0
C1815 C 0.0345 0.41352 0.41725 0.0
C1816 C 0.9923 0.39149 0.43315 0.0
C1817 C 0.99748 0.37617 0.43235 0.0
C1818 C 0.99728 0.40254 0.42211 0.0
C1819 C 0.00442 0.39796 0.41033 0.0
C1820 C 0.01002 0.38271 0.40993 0.0
C1821 C 0.00461 0.37196 0.42074 0.0
C1822 C 0.99218 0.41917 0.42311 0.0
C1823 C 0.02187 0.37751 0.39831 0.0
H1824 H 0.00352 0.42786 0.36502 0.0
H1825 H 0.03876 0.43694 0.39925 0.0
H1826 H 0.99129 0.3923 0.38542 0.0
H1827 H 0.98002 0.40971 0.38691 0.0
H1828 H 0.98873 0.40516 0.36908 0.0
H1829 H 0.04146 0.42344 0.42128 0.0
H1830 H 0.02745 0.40864 0.42689 0.0
H1831 H 0.04324 0.40467 0.41389 0.0
H1832 H 0.98452 0.39474 0.44227 0.0
H1833 H 0.00886 0.36021 0.42031 0.0
H1834 H 0.98515 0.42275 0.41291 0.0
H1835 H -0.00018 0.42677 0.42343 0.0
H1836 H 0.9848 0.42104 0.43328 0.0
H1837 H 0.01515 0.37357 0.38839 0.0
H1838 H 0.02922 0.36769 0.40283 0.0
H1839 H 0.0301 0.38684 0.39437 0.0
C1840 C 0.9865 0.04516 0.38541 0.0
C1841 C 0.97905 0.04959 0.37171 0.0
C1842 C 0.99318 0.05633 0.3944 0.0
C1843 C 0.99183 0.07193 0.38947 0.0
C1844 C 0.98595 0.07609 0.37493 0.0
C1845 C 0.98034 0.06466 0.36589 0.0
C1846 C -0.00268 0.05164 0.40959 0.0
C1847 C 0.98496 0.09261 0.36896 0.0
C1848 C 0.99209 0.10243 0.41856 0.0
C1849 C 0.00494 0.10764 0.41654 0.0
C1850 C 0.98635 0.0907 0.40943 0.0
C1851 C 0.99712 0.08403 0.39916 0.0
C1852 C 0.00977 0.08966 0.39722 0.0
C1853 C 0.01468 0.10168 0.40557 0.0
C1854 C 0.96908 0.08538 0.41049 0.0
C1855 C 0.02193 0.08294 0.38676 0.0
H1856 H 0.98547 0.03338 0.38982 0.0
H1857 H 0.97467 0.06795 0.35521 0.0
H1858 H 0.0073 0.05932 0.41266 0.0
H1859 H 0.99094 0.05229 0.41839 0.0
H1860 H 0.00185 0.03963 0.4097 0.0
H1861 H 0.9749 0.09427 0.36084 0.0
H1862 H 0.98339 0.10085 0.37804 0.0
H1863 H 0.99624 0.09555 0.36286 0.0
H1864 H 0.98452 0.10724 0.42709 0.0
H1865 H 0.02687 0.10591 0.40409 0.0
H1866 H 0.96866 0.07317 0.41465 0.0
H1867 H 0.96345 0.08599 0.39912 0.0
H1868 H 0.96191 0.09243 0.41816 0.0
H1869 H 0.02838 0.07347 0.39297 0.0
H1870 H 0.03099 0.09163 0.38293 0.0
H1871 H 0.01638 0.0782 0.37661 0.0
C1872 C 0.00754 0.61388 0.06445 0.0
C1873 C 0.99656 0.61221 0.05615 0.0
C1874 C 0.01174 0.60315 0.07585 0.0
C1875 C 0.00167 0.59033 0.07887 0.0
C1876 C 0.99031 0.58861 0.07063 0.0
C1877 C 0.98637 0.59965 0.05917 0.0
C1878 C 0.02731 0.60542 0.08412 0.0
C1879 C 0.97911 0.57522 0.07405 0.0
C1880 C 0.02054 0.55318 0.09199 0.0
C1881 C 0.0202 0.55414 0.10765 0.0
C1882 C 0.01576 0.56553 0.08274 0.0
C1883 C 0.00723 0.57765 0.08908 0.0
C1884 C 0.00359 0.57709 0.10474 0.0
C1885 C 0.01053 0.56535 0.11412 0.0
C1886 C 0.02055 0.5658 0.06629 0.0
C1887 C 0.9966 0.58943 0.11164 0.0
H1888 H 0.01538 0.62361 0.06194 0.0
H1889 H 0.97536 0.59859 0.05278 0.0
H1890 H 0.02691 0.60041 0.09583 0.0
H1891 H 0.03709 0.5997 0.078 0.0
H1892 H 0.03035 0.61782 0.08455 0.0
H1893 H 0.97124 0.57305 0.06426 0.0
H1894 H 0.98562 0.56443 0.07717 0.0
H1895 H 0.97137 0.578 0.08374 0.0
H1896 H 0.02708 0.5439 0.08697 0.0
H1897 H 0.0097 0.56585 0.12629 0.0
H1898 H 0.02828 0.57593 0.06364 0.0
H1899 H 0.00974 0.5669 0.05903 0.0
H1900 H 0.02719 0.5553 0.06326 0.0
H1901 H 0.0016 0.5987 0.11537 0.0
H1902 H 0.99002 0.5847 0.12169 0.0
H1903 H 0.98781 0.59461 0.10351 0.0
C1904 C 0.0095 0.89771 0.06697 0.0
C1905 C 0.00397 0.88259 0.0684 0.0
C1906 C 0.00392 0.9087 0.07631 0.0
C1907 C 0.99305 0.90557 0.0848 0.0
C1908 C 0.98453 0.8916 0.0833 0.0
C1909 C 0.99197 0.87971 0.07534 0.0
C1910 C 0.01403 0.92298 0.07793 0.0
C1911 C 0.9683 0.88918 0.09068 0.0
C1912 C 0.98743 0.92849 0.11955 0.0
C1913 C 0.9774 0.94014 0.11348 0.0
C1914 C 0.99289 0.91698 0.11014 0.0
C1915 C 0.98766 0.91733 0.0949 0.0
C1916 C 0.979 0.92999 0.08876 0.0
C1917 C 0.97589 0.94218 0.09783 0.0
C1918 C 0.00011 0.90391 0.11652 0.0
C1919 C 0.97231 0.93062 0.0729 0.0
H1920 H 0.02005 0.90052 0.06025 0.0
H1921 H 0.98685 0.86826 0.0756 0.0
H1922 H 0.00665 0.93338 0.07939 0.0
H1923 H 0.02177 0.92131 0.08805 0.0
H1924 H 0.02196 0.92521 0.06801 0.0
H1925 H 0.96565 0.87676 0.0927 0.0
H1926 H 0.96738 0.89495 0.10157 0.0
H1927 H 0.95893 0.89419 0.08306 0.0
H1928 H 0.98926 0.9273 0.13164 0.0
H1929 H 0.96894 0.9518 0.09311 0.0
H1930 H 0.0121 0.90443 0.1111 0.0
H1931 H 0.99771 0.89268 0.11395 0.0
H1932 H 0.00166 0.9044 0.12893 0.0
H1933 H 0.9803 0.93781 0.06549 0.0
H1934 H 0.96028 0.93611 0.07264 0.0
H1935 H 0.97119 0.91912 0.0681 0.0
C1936 C 0.4134 0.99611 0.39023 0.0
C1937 C 0.42451 0.00343 0.38457 0.0
C1938 C 0.40488 -0.00368 0.40326 0.0
C1939 C 0.40649 0.01083 0.40938 0.0
C1940 C 0.41742 0.02191 0.40321 0.0
C1941 C 0.42711 0.01777 0.39096 0.0
C1942 C 0.3948 0.98631 0.40974 0.0
C1943 C 0.4189 0.03766 0.40972 0.0
C1944 C 0.36714 0.02136 0.4255 0.0
C1945 C 0.37068 0.02082 0.44087 0.0
C1946 C 0.37934 0.01942 0.41514 0.0
C1947 C 0.39462 0.01477 0.42046 0.0
C1948 C 0.39752 0.01171 0.43598 0.0
C1949 C 0.38517 0.01443 0.44615 0.0
C1950 C 0.3761 0.02314 0.39858 0.0
C1951 C 0.41367 0.00624 0.44185 0.0
H1952 H 0.41146 0.98509 0.38518 0.0
H1953 H 0.4364 0.02542 0.38655 0.0
H1954 H 0.39249 0.98728 0.42197 0.0
H1955 H 0.38317 0.9867 0.40367 0.0
H1956 H 0.40023 0.97484 0.40808 0.0
H1957 H 0.42384 0.04617 0.40127 0.0
H1958 H 0.4072 0.04196 0.41378 0.0
H1959 H 0.42718 0.0369 0.41953 0.0
H1960 H 0.35579 0.02618 0.42158 0.0
H1961 H 0.38767 0.01391 0.45817 0.0
H1962 H 0.37579 0.01232 0.39242 0.0
H1963 H 0.38578 0.03045 0.39357 0.0
H1964 H 0.36449 0.02919 0.39672 0.0
H1965 H 0.41405 0.99616 0.44329 0.0
H1966 H 0.41622 0.01093 0.45305 0.0
H1967 H 0.42364 0.00952 0.43408 0.0
C1968 C 0.38585 0.9739 0.04269 0.0
C1969 C 0.37058 0.96866 0.04702 0.0
C1970 C 0.39697 0.9776 0.0537 0.0
C1971 C 0.39211 0.97656 0.06894 0.0
C1972 C 0.37594 0.9739 0.07296 0.0
C1973 C 0.36505 0.97068 0.06165 0.0
C1974 C 0.4141 0.98115 0.04918 0.0
C1975 C 0.37018 0.97382 0.08915 0.0
C1976 C 0.42347 0.9707 0.09928 0.0
C1977 C 0.42438 0.98596 0.10382 0.0
C1978 C 0.41256 0.9672 0.08775 0.0
C1979 C 0.40362 0.97943 0.08071 0.0
C1980 C 0.40474 0.99452 0.08557 0.0
C1981 C 0.41466 0.99736 0.09735 0.0
C1982 C 0.41019 0.95078 0.08322 0.0
C1983 C 0.39535 0.00547 0.07836 0.0
H1984 H 0.3899 0.97253 0.0312 0.0
H1985 H 0.35302 0.96701 0.06478 0.0
H1986 H 0.4196 0.98975 0.05648 0.0
H1987 H 0.42131 0.97044 0.05034 0.0
H1988 H 0.41484 0.98556 0.03726 0.0
H1989 H 0.35981 0.96595 0.09096 0.0
H1990 H 0.37965 0.97034 0.09739 0.0
H1991 H 0.36617 0.98559 0.09168 0.0
H1992 H 0.43094 0.96185 0.10463 0.0
H1993 H 0.41479 0.0064 0.10117 0.0
H1994 H 0.41397 0.94968 0.07131 0.0
H1995 H 0.39728 0.94768 0.08389 0.0
H1996 H 0.41712 0.94248 0.09051 0.0
H1997 H 0.40277 0.01047 0.06899 0.0
H1998 H 0.39334 0.01464 0.08652 0.0
H1999 H 0.38356 0.0023 0.07368 0.0
C2000 C 0.5508 0.51089 0.12104 0.0
C2001 C 0.54873 0.49515 0.11967 0.0
C2002 C 0.56243 0.519 0.11272 0.0
C2003 C 0.57206 0.51119 0.1024 0.0
C2004 C 0.57032 0.4951 0.10108 0.0
C2005 C 0.55858 0.48712 0.10984 0.0
C2006 C 0.56388 0.53604 0.11483 0.0
C2007 C 0.58104 0.4864 0.09064 0.0
C2008 C 0.58634 0.53473 0.06826 0.0
C2009 C 0.60187 0.53869 0.07259 0.0
C2010 C 0.57658 0.52574 0.0779 0.0
C2011 C 0.58278 0.52007 0.09192 0.0
C2012 C 0.59903 0.52279 0.09565 0.0
C2013 C 0.6085 0.532 0.08579 0.0
C2014 C 0.55937 0.52294 0.07345 0.0
C2015 C 0.60622 0.51697 0.11043 0.0
H2016 H 0.54337 0.51694 0.1289 0.0
H2017 H 0.55732 0.47477 0.10921 0.0
H2018 H 0.57624 0.54028 0.11272 0.0
H2019 H 0.5557 0.54223 0.10677 0.0
H2020 H 0.56031 0.539 0.12643 0.0
H2021 H 0.57541 0.47545 0.08746 0.0
H2022 H 0.58399 0.49322 0.08014 0.0
H2023 H 0.59248 0.48363 0.09655 0.0
H2024 H 0.58129 0.53999 0.058 0.0
H2025 H 0.62047 0.53525 0.08922 0.0
H2026 H 0.55122 0.52866 0.08136 0.0
H2027 H 0.55669 0.51045 0.07424 0.0
H2028 H 0.55671 0.52738 0.06178 0.0
H2029 H 0.60444 0.52576 0.11898 0.0
H2030 H 0.61932 0.51502 0.10928 0.0
H2031 H 0.60056 0.50611 0.11472 0.0
C2032 C 0.10623 0.95946 0.90565 0.0
C2033 C 0.09954 0.94963 0.91694 0.0
C2034 C 0.0961 0.968 0.89568 0.0
C2035 C 0.07924 0.96677 0.89746 0.0
C2036 C 0.07274 0.95746 0.90936 0.0
C2037 C 0.08302 0.94986 0.91947 0.0
C2038 C 0.10333 0.97778 0.88292 0.0
C2039 C 0.05496 0.9545 0.91099 0.0
C2040 C 0.05198 -0.00301 0.88341 0.0
C2041 C 0.04666 0.99376 0.86995 0.0
C2042 C 0.06347 0.99086 0.89243 0.0
C2043 C 0.06827 0.97617 0.88778 0.0
C2044 C 0.06194 0.97027 0.87444 0.0
C2045 C 0.05145 0.97926 0.86567 0.0
C2046 C 0.06977 0.99693 0.90704 0.0
C2047 C 0.06604 0.95451 0.86913 0.0
H2048 H 0.11906 0.95932 0.90369 0.0
H2049 H 0.07788 0.94245 0.92837 0.0
H2050 H 0.09564 0.97814 0.87269 0.0
H2051 H 0.10469 0.98972 0.88663 0.0
H2052 H 0.11537 0.97349 0.87981 0.0
H2053 H 0.05174 0.95079 0.92275 0.0
H2054 H 0.04771 0.96478 0.90768 0.0
H2055 H 0.05154 0.94513 0.90352 0.0
H2056 H 0.04829 0.00832 0.88669 0.0
H2057 H 0.04682 0.97475 0.85531 0.0
H2058 H 0.08241 -0.00433 0.90632 0.0
H2059 H 0.06725 0.9886 0.9166 0.0
H2060 H 0.06375 0.00551 0.9096 0.0
H2061 H 0.07666 0.95546 0.86162 0.0
H2062 H 0.05603 0.94971 0.86252 0.0
H2063 H 0.0689 0.94626 0.87862 0.0
C2064 C 0.98511 0.27881 0.44994 0.0
C2065 C 0.9969 0.2884 0.4556 0.0
C2066 C 0.98834 0.26319 0.44822 0.0
C2067 C 0.00057 0.25729 0.45242 0.0
C2068 C 0.0127 0.26721 0.45745 0.0
C2069 C 0.00913 0.28272 0.45904 0.0
C2070 C 0.97528 0.25297 0.44242 0.0
C2071 C 0.02947 0.26161 0.46108 0.0
C2072 C 0.00328 0.21526 0.46509 0.0
C2073 C 0.00935 0.20893 0.45196 0.0
C2074 C 0.00031 0.23118 0.46535 0.0
C2075 C 0.00361 0.24064 0.45229 0.0
C2076 C 0.00994 0.23423 0.43924 0.0
C2077 C 0.0124 0.21849 0.43919 0.0
C2078 C 0.99699 0.23804 0.47954 0.0
C2079 C 0.01418 0.2437 0.42512 0.0
H2080 H 0.97336 0.28345 0.44714 0.0
H2081 H 0.01827 0.29042 0.46302 0.0
H2082 H 0.98017 0.24349 0.43584 0.0
H2083 H 0.96856 0.2478 0.45218 0.0
H2084 H 0.96667 0.25966 0.43518 0.0
H2085 H 0.03549 0.26907 0.46921 0.0
H2086 H 0.0296 0.24961 0.46586 0.0
H2087 H 0.03663 0.26196 0.45053 0.0
H2088 H 0.00099 0.20789 0.47503 0.0
H2089 H 0.01725 0.21378 0.42903 0.0
H2090 H 0.98488 0.24293 0.47734 0.0
H2091 H 0.00182 0.24759 0.48292 0.0
H2092 H 0.9962 0.22939 0.4891 0.0
H2093 H 0.00367 0.24402 0.41744 0.0
H2094 H 0.02433 0.23848 0.41903 0.0
H2095 H 0.01745 0.25569 0.42753 0.0
C2096 C 0.02032 0.77034 0.02714 0.0
C2097 C 0.01019 0.77957 0.03543 0.0
C2098 C 0.01818 0.75439 0.02745 0.0
C2099 C 0.00526 0.7478 0.03581 0.0
C2100 C 0.99808 0.75717 0.04426 0.0
C2101 C -0.00224 0.77301 0.04405 0.0
C2102 C 0.02963 0.74473 0.01869 0.0
C2103 C 0.98458 0.75053 0.05384 0.0
C2104 C 0.99088 0.71129 0.02149 0.0
C2105 C 0.99723 0.70027 0.03175 0.0
C2106 C 0.9943 0.72687 0.02289 0.0
C2107 C 0.00152 0.73137 0.03462 0.0
C2108 C 0.00784 0.72026 0.04513 0.0
C2109 C 0.00413 0.70475 0.0435 0.0
C2110 C 0.98687 0.73856 0.01189 0.0
C2111 C 0.01866 0.72452 0.05796 0.0
H2112 H 0.0303 0.7755 0.02094 0.0
H2113 H 0.99335 0.78025 0.05084 0.0
H2114 H 0.0312 0.73305 0.024 0.0
H2115 H 0.02481 0.74352 0.00713 0.0
H2116 H 0.04159 0.75028 0.01765 0.0
H2117 H 0.97509 0.75923 0.0556 0.0
H2118 H 0.97897 0.7404 0.04881 0.0
H2119 H 0.98943 0.7468 0.06507 0.0
H2120 H 0.98317 0.70772 0.01244 0.0
H2121 H 0.00922 0.69611 0.0513 0.0
H2122 H 0.99642 0.74426 0.00498 0.0
H2123 H 0.98061 0.74761 0.01809 0.0
H2124 H 0.97814 0.73328 0.0042 0.0
H2125 H 0.0313 0.72417 0.05409 0.0
H2126 H 0.0174 0.71621 0.06776 0.0
H2127 H 0.01617 0.73624 0.06181 0.0
C2128 C 0.47276 0.00192 0.21165 0.0
C2129 C 0.46096 0.9971 0.20422 0.0
C2130 C 0.47236 0.00303 0.22736 0.0
C2131 C 0.45962 -0.00396 0.23565 0.0
C2132 C 0.44782 0.99097 0.22814 0.0
C2133 C 0.44844 0.99019 0.2125 0.0
C2134 C 0.48556 0.01166 0.23502 0.0
C2135 C 0.43357 0.98398 0.2364 0.0
C2136 C 0.46948 0.98511 0.27552 0.0
C2137 C 0.46173 0.99623 0.28375 0.0
C2138 C 0.46881 0.98576 0.25978 0.0
C2139 C 0.46068 0.99811 0.25225 0.0
C2140 C 0.45254 0.00696 0.26055 0.0
C2141 C 0.45325 0.0059 0.27634 0.0
C2142 C 0.47627 0.97293 0.25123 0.0
C2143 C 0.44344 0.02016 0.25296 0.0
H2144 H 0.48225 0.0076 0.20517 0.0
H2145 H 0.43874 0.98464 0.20668 0.0
H2146 H 0.48129 0.0172 0.24531 0.0
H2147 H 0.49524 0.00345 0.23837 0.0
H2148 H 0.49081 0.02068 0.22726 0.0
H2149 H 0.42804 0.97466 0.22997 0.0
H2150 H 0.43679 0.97922 0.2478 0.0
H2151 H 0.42439 0.99305 0.23775 0.0
H2152 H 0.47518 0.97539 0.28142 0.0
H2153 H 0.44709 0.01433 0.28289 0.0
H2154 H 0.48642 0.97755 0.24434 0.0
H2155 H 0.46741 0.9681 0.24339 0.0
H2156 H 0.4808 0.96344 0.25887 0.0
H2157 H 0.45176 0.02998 0.25094 0.0
H2158 H 0.43354 0.02407 0.26026 0.0
H2159 H 0.43831 0.01714 0.24193 0.0
C2160 C 0.50434 0.4874 0.21301 0.0
C2161 C 0.51869 0.48454 0.20542 0.0
C2162 C 0.50414 0.48966 0.22854 0.0
C2163 C 0.51869 0.48918 0.23672 0.0
C2164 C 0.53319 0.48564 0.22929 0.0
C2165 C 0.53304 0.48337 0.21367 0.0
C2166 C 0.48833 0.49314 0.23594 0.0
C2167 C 0.54886 0.48415 0.23781 0.0
C2168 C 0.52102 0.51298 0.27158 0.0
C2169 C 0.51892 0.50166 0.2831 0.0
C2170 C 0.52106 0.50898 0.25637 0.0
C2171 C 0.51887 0.49339 0.25279 0.0
C2172 C 0.51693 0.48198 0.26452 0.0
C2173 C 0.51681 0.48633 0.27953 0.0
C2174 C 0.5236 0.52131 0.24408 0.0
C2175 C 0.51483 0.46519 0.26144 0.0
H2176 H 0.49318 0.48828 0.20675 0.0
H2177 H 0.54414 0.48086 0.20792 0.0
H2178 H 0.48791 0.48874 0.24787 0.0
H2179 H 0.48661 0.50579 0.23576 0.0
H2180 H 0.47815 0.48809 0.22979 0.0
H2181 H 0.55926 0.48634 0.2302 0.0
H2182 H 0.54959 0.49213 0.2472 0.0
H2183 H 0.54991 0.47224 0.24272 0.0
H2184 H 0.52261 0.52487 0.27446 0.0
H2185 H 0.51511 0.47765 0.28856 0.0
H2186 H 0.51263 0.52248 0.23704 0.0
H2187 H 0.53357 0.51804 0.23656 0.0
H2188 H 0.52641 0.53265 0.24871 0.0
H2189 H 0.50183 0.46268 0.26046 0.0
H2190 H 0.5197 0.45774 0.27086 0.0
H2191 H 0.52075 0.46201 0.25082 0.0
C2192 C 0.27956 0.4229 0.99288 0.0
C2193 C 0.28239 0.4327 0.98026 0.0
C2194 C 0.26434 0.42277 -0.00379 0.0
C2195 C 0.25178 0.43104 0.99326 0.0
C2196 C 0.25458 0.44108 0.98051 0.0
C2197 C 0.27 0.4419 0.97422 0.0
C2198 C 0.26205 0.41234 0.01011 0.0
C2199 C 0.24151 0.45125 0.97376 0.0
C2200 C 0.20993 0.4155 -0.00432 0.0
C2201 C 0.204 0.42497 0.00675 0.0
C2202 C 0.22559 0.41717 0.99343 0.0
C2203 C 0.23524 0.4294 -0.00423 0.0
C2204 C 0.22939 0.43865 0.00729 0.0
C2205 C 0.21388 0.43612 0.0128 0.0
C2206 C 0.2314 0.4075 0.98077 0.0
C2207 C 0.23918 0.45141 0.01371 0.0
H2208 H 0.28933 0.41616 0.99781 0.0
H2209 H 0.27239 0.44979 0.96468 0.0
H2210 H 0.25283 0.41678 0.01781 0.0
H2211 H 0.25813 0.40086 0.00657 0.0
H2212 H 0.27343 0.41082 0.01651 0.0
H2213 H 0.24393 0.45431 0.96168 0.0
H2214 H 0.22953 0.44576 0.97465 0.0
H2215 H 0.24107 0.46206 0.97994 0.0
H2216 H 0.20227 0.40646 0.99433 0.0
H2217 H 0.20922 0.4434 0.0214 0.0
H2218 H 0.24157 0.40021 0.98483 0.0
H2219 H 0.23584 0.41498 0.97121 0.0
H2220 H 0.22184 0.39993 0.97653 0.0
H2221 H 0.24583 0.44674 0.02374 0.0
H2222 H 0.23134 0.46084 0.01745 0.0
H2223 H 0.248 0.45634 0.0055 0.0
C2224 C 0.20861 0.55023 0.49039 0.0
C2225 C 0.20409 0.56288 0.48115 0.0
C2226 C 0.22427 0.54824 0.49534 0.0
C2227 C 0.23585 0.55943 0.49122 0.0
C2228 C 0.23168 0.57218 0.48146 0.0
C2229 C 0.21563 0.57389 0.47655 0.0
C2230 C 0.228 0.53431 0.50547 0.0
C2231 C 0.24418 0.58378 0.47613 0.0
C2232 C 0.27043 0.56371 0.51843 0.0
C2233 C 0.28238 0.55543 0.51123 0.0
C2234 C 0.25508 0.56506 0.51193 0.0
C2235 C 0.25201 0.55823 0.49798 0.0
C2236 C 0.26424 0.5501 0.49073 0.0
C2237 C 0.27919 0.54862 0.4976 0.0
C2238 C 0.24216 0.57393 0.51975 0.0
C2239 C 0.26179 0.54277 0.47578 0.0
H2240 H 0.19972 0.54178 0.49409 0.0
H2241 H 0.2122 0.58357 0.46915 0.0
H2242 H 0.24049 0.53026 0.50406 0.0
H2243 H 0.22638 0.53735 0.5174 0.0
H2244 H 0.21977 0.52462 0.50327 0.0
H2245 H 0.23861 0.59502 0.47283 0.0
H2246 H 0.25343 0.58569 0.48484 0.0
H2247 H 0.25033 0.57942 0.46607 0.0
H2248 H 0.27304 0.56894 0.52903 0.0
H2249 H 0.28858 0.54231 0.49208 0.0
H2250 H 0.2323 0.56601 0.52327 0.0
H2251 H 0.237 0.58287 0.51185 0.0
H2252 H 0.24676 0.57959 0.52987 0.0
H2253 H 0.25795 0.53067 0.47792 0.0
H2254 H 0.27314 0.54264 0.46921 0.0
H2255 H 0.25251 0.54876 0.46877 0.0
C2256 C 0.7173 0.91501 0.51255 0.0
C2257 C 0.70519 0.92463 0.50647 0.0
C2258 C 0.7328 0.9155 0.50614 0.0
C2259 C 0.73589 0.92575 0.49358 0.0
C2260 C 0.7234 0.93489 0.48724 0.0
C2261 C 0.70828 0.93415 0.49376 0.0
C2262 C 0.74594 0.9055 0.51302 0.0
C2263 C 0.72574 0.9455 0.47348 0.0
C2264 C 0.7776 0.94174 0.48867 0.0
C2265 C 0.78373 0.93294 0.47723 0.0
C2266 C 0.76209 0.9394 0.49409 0.0
C2267 C 0.75239 0.92799 0.48781 0.0
C2268 C 0.7583 0.91931 0.47583 0.0
C2269 C 0.77417 0.92166 0.47086 0.0
C2270 C 0.75607 0.94923 0.50651 0.0
C2271 C 0.74807 0.90747 0.4684 0.0
H2272 H 0.7148 0.90751 0.52234 0.0
H2273 H 0.69873 0.94119 0.48882 0.0
H2274 H 0.75473 0.90197 0.50444 0.0
H2275 H 0.75247 0.91207 0.52154 0.0
H2276 H 0.74092 0.895 0.51879 0.0
H2277 H 0.71688 0.95505 0.47313 0.0
H2278 H 0.73792 0.95056 0.47294 0.0
H2279 H 0.72396 0.93882 0.46323 0.0
H2280 H 0.78512 0.95033 0.49366 0.0
H2281 H 0.77901 0.91486 0.46196 0.0
H2282 H 0.75367 0.94186 0.51679 0.0
H2283 H 0.74462 0.95487 0.50309 0.0
H2284 H 0.76478 0.95829 0.50941 0.0
H2285 H 0.74985 0.89615 0.47441 0.0
H2286 H 0.75163 0.90631 0.45643 0.0
H2287 H 0.73512 0.9103 0.46876 0.0
C2288 C 0.01138 0.77923 0.54793 0.0
C2289 C -0.00411 0.78411 0.54367 0.0
C2290 C 0.01472 0.76341 0.55044 0.0
C2291 C 0.0024 0.75248 0.54833 0.0
C2292 C 0.98992 0.75749 0.54403 0.0
C2293 C 0.98697 0.77312 0.54162 0.0
C2294 C 0.03135 0.75837 0.55529 0.0
C2295 C 0.97609 0.74651 0.54231 0.0
C2296 C 0.01452 0.71289 0.53657 0.0
C2297 C 0.01252 0.70405 0.54995 0.0
C2298 C 0.01115 0.72866 0.53597 0.0
C2299 C 0.00601 0.73577 0.54918 0.0
C2300 C 0.00393 0.72684 0.56281 0.0
C2301 C 0.00735 0.711 0.56305 0.0
C2302 C 0.01268 0.73767 0.52108 0.0
C2303 C -0.002 0.73384 0.57708 0.0
H2304 H 0.02065 0.78766 0.54975 0.0
H2305 H 0.97494 0.77672 0.53845 0.0
H2306 H 0.03112 0.74774 0.56267 0.0
H2307 H 0.0385 0.75598 0.5451 0.0
H2308 H 0.03754 0.76751 0.5614 0.0
H2309 H 0.96677 0.75144 0.53455 0.0
H2310 H 0.97998 0.73533 0.53802 0.0
H2311 H 0.97044 0.74427 0.55353 0.0
H2312 H 0.01828 0.70734 0.52643 0.0
H2313 H 0.00569 0.70401 0.57336 0.0
H2314 H 0.02232 0.74638 0.52192 0.0
H2315 H 0.00136 0.74391 0.51837 0.0
H2316 H 0.01554 0.73019 0.51161 0.0
H2317 H 0.00848 0.73776 0.5836 0.0
H2318 H 0.99439 0.72525 0.58429 0.0
H2319 H 0.9931 0.7439 0.57471 0.0
C2320 C 0.00647 0.20965 0.93744 0.0
C2321 C 0.99844 0.20407 0.94823 0.0
C2322 C 0.00884 0.22556 0.93505 0.0
C2323 C 0.00042 0.23592 0.94406 0.0
C2324 C 0.99239 0.23021 0.95505 0.0
C2325 C 0.99004 0.21434 0.95698 0.0
C2326 C 0.02035 0.23124 0.92289 0.0
C2327 C 0.98254 0.24075 0.96447 0.0
C2328 C 0.02053 0.27398 0.95086 0.0
C2329 C 0.01172 0.28414 0.9414 0.0
C2330 C 0.01674 0.25827 0.9519 0.0
C2331 C 0.00421 0.25258 0.94293 0.0
C2332 C 0.99845 0.2628 0.93319 0.0
C2333 C -0.00061 0.27848 0.93248 0.0
C2334 C 0.02581 0.24776 0.96292 0.0
C2335 C 0.98478 0.25739 0.92359 0.0
H2336 H 0.01261 0.20168 0.93035 0.0
H2337 H 0.98122 0.20998 0.96506 0.0
H2338 H 0.01674 0.24257 0.91777 0.0
H2339 H 0.03242 0.2325 0.92795 0.0
H2340 H 0.0213 0.22293 0.91377 0.0
H2341 H 0.97867 0.23487 0.97523 0.0
H2342 H 0.98915 0.25134 0.96715 0.0
H2343 H 0.97161 0.24423 0.95804 0.0
H2344 H 0.02988 0.27844 0.95795 0.0
H2345 H 0.99561 0.2864 0.92518 0.0
H2346 H 0.03275 0.23926 0.95662 0.0
H2347 H 0.01732 0.24126 0.97043 0.0
H2348 H 0.03421 0.25417 0.97005 0.0
H2349 H 0.98956 0.25431 0.91245 0.0
H2350 H 0.97573 0.26664 0.92162 0.0
H2351 H 0.97867 0.24714 0.92874 0.0
C2352 C 0.55554 0.997 0.77841 0.0
C2353 C 0.54364 0.98795 0.78549 0.0
C2354 C 0.55581 -0.00411 0.76259 0.0
C2355 C 0.54468 0.99132 0.75373 0.0
C2356 C 0.53261 0.98219 0.76091 0.0
C2357 C 0.53232 0.98051 0.77674 0.0
C2358 C 0.5692 0.00534 0.75545 0.0
C2359 C 0.52029 0.97373 0.75193 0.0
C2360 C 0.53464 0.00791 0.71557 0.0
C2361 C 0.54283 -0.00145 0.70571 0.0
C2362 C 0.53482 0.00459 0.7312 0.0
C2363 C 0.54419 0.99442 0.73709 0.0
C2364 C 0.55216 0.98467 0.72711 0.0
C2365 C 0.55165 0.98819 0.71149 0.0
C2366 C 0.52569 0.01487 0.74147 0.0
C2367 C 0.56159 0.97078 0.73277 0.0
H2368 H 0.56402 -0.00031 0.78522 0.0
H2369 H 0.52343 0.97313 0.78227 0.0
H2370 H 0.57279 0.00109 0.74433 0.0
H2371 H 0.56508 0.01741 0.75373 0.0
H2372 H 0.57993 0.00532 0.76287 0.0
H2373 H 0.50925 0.9714 0.75865 0.0
H2374 H 0.51688 0.98017 0.74134 0.0
H2375 H 0.5254 0.96252 0.74885 0.0
H2376 H 0.52828 0.01796 0.71107 0.0
H2377 H 0.5582 0.98108 0.70385 0.0
H2378 H 0.53426 0.02087 0.74878 0.0
H2379 H 0.51759 0.0079 0.74898 0.0
H2380 H 0.51841 0.02363 0.73508 0.0
H2381 H 0.57418 0.97428 0.73474 0.0
H2382 H 0.56169 0.96175 0.72429 0.0
H2383 H 0.55676 0.96572 0.74353 0.0
C2384 C 0.44652 0.5083 0.77493 0.0
C2385 C 0.45714 0.50034 0.78457 0.0
C2386 C 0.44764 0.50743 0.75944 0.0
C2387 C 0.45945 0.49791 0.75339 0.0
C2388 C 0.47036 0.48967 0.763 0.0
C2389 C 0.46909 0.49097 0.77873 0.0
C2390 C 0.43571 0.51645 0.7498 0.0
C2391 C 0.48347 0.47983 0.75666 0.0
C2392 C 0.44821 0.48063 0.71709 0.0
C2393 C 0.4569 0.48953 0.70652 0.0
C2394 C 0.44915 0.48321 0.73232 0.0
C2395 C 0.459 0.49518 0.73719 0.0
C2396 C 0.46784 0.5045 0.72664 0.0
C2397 C 0.4665 0.5017 0.71116 0.0
C2398 C 0.43966 0.47289 0.74317 0.0
C2399 C 0.4786 0.5173 0.73164 0.0
H2400 H 0.43719 0.51543 0.77954 0.0
H2401 H 0.4775 0.48508 0.7863 0.0
H2402 H 0.44067 0.51993 0.73857 0.0
H2403 H 0.42498 0.5092 0.74809 0.0
H2404 H 0.43172 0.52698 0.75539 0.0
H2405 H 0.48756 0.47088 0.7651 0.0
H2406 H 0.47959 0.47409 0.74634 0.0
H2407 H 0.49386 0.48729 0.75358 0.0
H2408 H 0.44047 0.47149 0.71344 0.0
H2409 H 0.47315 0.50865 0.70287 0.0
H2410 H 0.43027 0.47973 0.74866 0.0
H2411 H 0.4476 0.46796 0.75218 0.0
H2412 H 0.43377 0.46324 0.73751 0.0
H2413 H 0.4716 0.52815 0.73158 0.0
H2414 H 0.48885 0.51906 0.72376 0.0
H2415 H 0.48338 0.51503 0.7432 0.0
C2416 C 0.70874 0.54873 0.02602 0.0
C2417 C 0.69961 0.5599 0.01814 0.0
C2418 C 0.72408 0.5449 0.02102 0.0
C2419 C 0.73055 0.55285 0.00818 0.0
C2420 C 0.72119 0.56393 -4e-05 0.0
C2421 C 0.70567 0.5672 0.00498 0.0
C2422 C 0.7335 0.53274 0.02987 0.0
C2423 C 0.72754 0.57171 0.98931 0.0
C2424 C 0.77558 0.55707 0.00713 0.0
C2425 C 0.77982 0.5463 -0.00337 0.0
C2426 C 0.7595 0.55942 0.01078 0.0
C2427 C 0.74753 0.55042 0.0041 0.0
C2428 C 0.75196 0.53866 0.99716 0.0
C2429 C 0.76818 0.53669 0.99358 0.0
C2430 C 0.75527 0.57193 0.02138 0.0
C2431 C 0.7396 0.52898 0.98953 0.0
H2432 H 0.70388 0.54297 0.03611 0.0
H2433 H 0.69847 0.57577 -0.00115 0.0
H2434 H 0.74174 0.52636 0.02257 0.0
H2435 H 0.74078 0.53835 0.03854 0.0
H2436 H 0.72539 0.52432 0.03577 0.0
H2437 H 0.72148 0.58299 0.98734 0.0
H2438 H 0.74066 0.5737 0.98976 0.0
H2439 H 0.72503 0.56463 0.97947 0.0
H2440 H 0.78476 0.56431 0.0118 0.0
H2441 H 0.77161 0.52851 0.98527 0.0
H2442 H 0.75002 0.56668 0.03188 0.0
H2443 H 0.74613 0.57976 0.01615 0.0
H2444 H 0.76587 0.57888 0.02443 0.0
H2445 H 0.73774 0.5182 0.99645 0.0
H2446 H 0.74374 0.5258 0.97817 0.0
H2447 H 0.72787 0.53491 0.98827 0.0
C2448 C 0.71312 0.42215 0.46016 0.0
C2449 C 0.70026 0.42859 0.46779 0.0
C2450 C 0.72892 0.4258 0.46373 0.0
C2451 C 0.73191 0.43608 0.47531 0.0
C2452 C 0.71896 0.44287 0.48294 0.0
C2453 C 0.70317 0.43897 0.47912 0.0
C2454 C 0.74231 0.41824 0.45531 0.0
C2455 C 0.72172 0.45442 0.49493 0.0
C2456 C 0.77023 0.43008 0.49695 0.0
C2457 C 0.78002 0.44171 0.49084 0.0
C2458 C 0.75462 0.42826 0.492 0.0
C2459 C 0.74853 0.43839 0.48053 0.0
C2460 C 0.75827 0.45042 0.47424 0.0
C2461 C 0.77421 0.45181 0.47932 0.0
C2462 C 0.74466 0.41547 0.49923 0.0
C2463 C 0.75195 0.46167 0.46221 0.0
H2464 H 0.71085 0.41407 0.45143 0.0
H2465 H 0.69317 0.44418 0.48481 0.0
H2466 H 0.75306 0.4257 0.45422 0.0
H2467 H 0.7458 0.40743 0.46157 0.0
H2468 H 0.73842 0.41524 0.44382 0.0
H2469 H 0.71134 0.4549 0.50274 0.0
H2470 H 0.73265 0.45184 0.50169 0.0
H2471 H 0.72324 0.46599 0.48934 0.0
H2472 H 0.77487 0.42212 0.50566 0.0
H2473 H 0.78191 0.46081 0.47457 0.0
H2474 H 0.74178 0.40693 0.49071 0.0
H2475 H 0.73316 0.42011 0.50339 0.0
H2476 H 0.75088 0.40944 0.50887 0.0
H2477 H 0.75461 0.45721 0.45094 0.0
H2478 H 0.7579 0.47304 0.4629 0.0
H2479 H 0.7388 0.46335 0.46304 0.0
C2480 C 0.2076 0.04815 0.52878 0.0
C2481 C 0.19789 0.05812 0.52001 0.0
C2482 C 0.22296 0.04426 0.5239 0.0
C2483 C 0.22886 0.05094 0.51018 0.0
C2484 C 0.21894 0.06079 0.50109 0.0
C2485 C 0.20343 0.06414 0.50607 0.0
C2486 C 0.23299 0.03344 0.53377 0.0
C2487 C 0.22458 0.06774 0.48609 0.0
C2488 C 0.27361 0.05648 0.50774 0.0
C2489 C 0.27805 0.0447 0.49844 0.0
C2490 C 0.25756 0.05873 0.51142 0.0
C2491 C 0.24581 0.0486 0.50602 0.0
C2492 C 0.25034 0.03642 0.49682 0.0
C2493 C 0.26655 0.03458 0.49313 0.0
C2494 C 0.2531 0.07227 0.52065 0.0
C2495 C 0.23819 0.02548 0.49063 0.0
H2496 H 0.20318 0.04336 0.5395 0.0
H2497 H 0.19581 0.07179 0.49926 0.0
H2498 H 0.24133 0.02652 0.52707 0.0
H2499 H 0.24022 0.04027 0.54157 0.0
H2500 H 0.22533 0.02545 0.5407 0.0
H2501 H 0.21807 0.07857 0.48306 0.0
H2502 H 0.23763 0.0702 0.48603 0.0
H2503 H 0.22215 0.05947 0.47719 0.0
H2504 H 0.28262 0.06449 0.51144 0.0
H2505 H 0.27016 0.02561 0.48573 0.0
H2506 H 0.24826 0.06803 0.53172 0.0
H2507 H 0.24358 0.0792 0.51485 0.0
H2508 H 0.26349 0.07988 0.52268 0.0
H2509 H 0.23686 0.01546 0.49871 0.0
H2510 H 0.24223 0.02111 0.47966 0.0
H2511 H 0.22623 0.03087 0.48899 0.0
C2512 C 0.52067 0.71895 0.9642 0.0
C2513 C 0.51188 0.71015 0.9543 0.0
C2514 C 0.51869 0.73492 0.96408 0.0
C2515 C 0.50725 0.74196 0.95422 0.0
C2516 C 0.49837 0.73303 0.9442 0.0
C2517 C 0.50089 0.71718 0.94432 0.0
C2518 C 0.52872 0.74414 0.97461 0.0
C2519 C 0.48655 0.74014 0.93303 0.0
C2520 C 0.48806 0.77833 0.96705 0.0
C2521 C 0.496 0.78947 0.95804 0.0
C2522 C 0.49154 0.76274 0.96569 0.0
C2523 C 0.50347 0.7584 0.95535 0.0
C2524 C 0.51142 0.76967 0.94612 0.0
C2525 C 0.50758 0.78516 0.94764 0.0
C2526 C 0.48241 0.75088 0.97521 0.0
C2527 C 0.52408 0.76559 0.93479 0.0
H2528 H 0.52957 0.71345 0.97155 0.0
H2529 H 0.49447 0.71029 0.93639 0.0
H2530 H 0.53117 0.75593 0.9699 0.0
H2531 H 0.52217 0.74513 0.98542 0.0
H2532 H 0.54036 0.73838 0.97714 0.0
H2533 H 0.47737 0.73167 0.92974 0.0
H2534 H 0.4803 0.75023 0.93751 0.0
H2535 H 0.49311 0.74408 0.92268 0.0
H2536 H 0.47908 0.78181 0.97505 0.0
H2537 H 0.51385 0.79392 0.94086 0.0
H2538 H 0.49076 0.74484 0.98322 0.0
H2539 H 0.47713 0.74213 0.96796 0.0
H2540 H 0.47262 0.7561 0.98177 0.0
H2541 H 0.53599 0.76564 0.94038 0.0
H2542 H 0.5244 0.77417 0.92514 0.0
H2543 H 0.52216 0.75403 0.93031 0.0
C2544 C 0.50676 0.27235 0.5225 0.0
C2545 C 0.51221 0.27794 0.5362 0.0
C2546 C 0.50451 0.25644 0.52107 0.0
C2547 C 0.50768 0.24628 0.53364 0.0
C2548 C 0.51361 0.25195 0.54721 0.0
C2549 C 0.51573 0.26766 0.54829 0.0
C2550 C 0.49846 0.25058 0.50631 0.0
C2551 C 0.51805 0.24159 0.56069 0.0
C2552 C 0.48442 0.20913 0.53721 0.0
C2553 C 0.49585 0.19871 0.53238 0.0
C2554 C 0.48821 0.22479 0.53761 0.0
C2555 C 0.5037 0.22984 0.53309 0.0
C2556 C 0.51536 0.21915 0.52863 0.0
C2557 C 0.51114 0.20368 0.52808 0.0
C2558 C 0.47578 0.23594 0.54296 0.0
C2559 C 0.5322 0.22385 0.52425 0.0
H2560 H 0.50428 0.28028 0.51302 0.0
H2561 H 0.52049 0.27182 0.55874 0.0
H2562 H 0.50319 0.23897 0.50415 0.0
H2563 H 0.48519 0.24985 0.50674 0.0
H2564 H 0.50179 0.25851 0.49667 0.0
H2565 H 0.51733 0.24777 0.57138 0.0
H2566 H 0.51028 0.23128 0.56181 0.0
H2567 H 0.5306 0.23766 0.55933 0.0
H2568 H 0.47258 0.20508 0.54046 0.0
H2569 H 0.51987 0.1954 0.52436 0.0
H2570 H 0.47256 0.2442 0.53356 0.0
H2571 H 0.48071 0.24267 0.55224 0.0
H2572 H 0.46471 0.23003 0.54706 0.0
H2573 H 0.53258 0.22652 0.51189 0.0
H2574 H 0.54083 0.21437 0.52682 0.0
H2575 H 0.53626 0.23419 0.53006 0.0
C2576 C 0.97718 0.49679 0.77792 0.0
C2577 C 0.96304 0.49218 0.78543 0.0
C2578 C 0.97816 0.49609 0.76208 0.0
C2579 C 0.96479 0.49065 0.75401 0.0
C2580 C 0.95083 0.48567 0.76173 0.0
C2581 C 0.95018 0.48654 0.77726 0.0
C2582 C 0.99324 0.50139 0.75397 0.0
C2583 C 0.93647 0.47911 0.75387 0.0
C2584 C 0.95862 0.50633 0.7144 0.0
C2585 C 0.96358 0.49411 0.70594 0.0
C2586 C 0.95895 0.50524 0.73005 0.0
C2587 C 0.96466 0.4916 0.7374 0.0
C2588 C 0.96963 0.47899 0.72892 0.0
C2589 C 0.96925 0.48048 0.71305 0.0
C2590 C 0.9528 0.51862 0.73867 0.0
C2591 C 0.97519 0.46403 0.7365 0.0
H2592 H 0.98728 0.50088 0.7843 0.0
H2593 H 0.93949 0.48234 0.78304 0.0
H2594 H 0.99547 0.4949 0.74367 0.0
H2595 H 0.99198 0.51374 0.7505 0.0
H2596 H 0.00085 0.50014 0.76146 0.0
H2597 H 0.92529 0.48054 0.76049 0.0
H2598 H 0.9346 0.48449 0.74244 0.0
H2599 H 0.93842 0.46661 0.75267 0.0
H2600 H 0.9541 0.51674 0.70869 0.0
H2601 H 0.97282 0.47096 0.70631 0.0
H2602 H 0.96279 0.52358 0.74514 0.0
H2603 H 0.94349 0.51468 0.7469 0.0
H2604 H 0.94757 0.52785 0.73115 0.0
H2605 H 0.98836 0.46456 0.73819 0.0
H2606 H 0.9726 0.45417 0.72934 0.0
H2607 H 0.96952 0.46178 0.74769 0.0
C2608 C 0.01322 0.98892 0.78006 0.0
C2609 C 0.01608 0.00109 0.78454 0.0
C2610 C 0.012 0.98578 0.76475 0.0
C2611 C 0.0146 0.99773 0.75369 0.0
C2612 C 0.01704 0.01026 0.7582 0.0
C2613 C 0.01801 0.01311 0.77368 0.0
C2614 C 0.00836 0.96953 0.76053 0.0
C2615 C 0.01897 0.0235 0.74675 0.0
C2616 C 0.03073 0.98636 0.71569 0.0
C2617 C 0.01681 0.98705 0.70679 0.0
C2618 C 0.03009 0.98984 0.73104 0.0
C2619 C 0.01528 0.99412 0.73749 0.0
C2620 C 0.0013 0.99489 0.72847 0.0
C2621 C 0.00222 0.99108 0.71335 0.0
C2622 C 0.04525 0.98927 0.74038 0.0
C2623 C 0.98771 -0.00291 0.73454 0.0
H2624 H 0.0114 0.97975 0.78857 0.0
H2625 H 0.02018 0.02468 0.77727 0.0
H2626 H 0.0015 0.96918 0.74984 0.0
H2627 H 0.01982 0.96329 0.75905 0.0
H2628 H 0.00141 0.96327 0.76956 0.0
H2629 H 0.02607 0.03298 0.75143 0.0
H2630 H 0.02486 0.01995 0.73623 0.0
H2631 H 0.00693 0.02809 0.7437 0.0
H2632 H 0.04205 0.98327 0.71066 0.0
H2633 H 0.99444 0.99174 0.70654 0.0
H2634 H 0.04418 0.98012 0.74943 0.0
H2635 H 0.04644 -0.00231 0.74592 0.0
H2636 H 0.05602 0.98694 0.73348 0.0
H2637 H 0.98169 0.98934 0.73873 0.0
H2638 H 0.98033 0.00289 0.72554 0.0
H2639 H 0.9889 0.00495 0.74399 0.0
C2640 C 0.70782 0.06589 -0.00435 0.0
C2641 C 0.70488 0.06168 0.9842 0.0
C2642 C 0.72285 0.06305 0.00214 0.0
C2643 C 0.73537 0.05649 0.9967 0.0
C2644 C 0.73234 0.05281 0.98155 0.0
C2645 C 0.71697 0.05532 0.97549 0.0
C2646 C 0.72538 0.06662 0.01848 0.0
C2647 C 0.74505 0.04575 0.97188 0.0
C2648 C 0.77747 0.06799 0.0037 0.0
C2649 C 0.78301 0.05437 0.01089 0.0
C2650 C 0.76192 0.06887 -0.00222 0.0
C2651 C 0.75167 0.05595 -0.00059 0.0
C2652 C 0.75713 0.04226 0.00694 0.0
C2653 C 0.77269 0.04174 0.01279 0.0
C2654 C 0.7567 0.08286 0.99279 0.0
C2655 C 0.74679 0.02806 0.00876 0.0
H2656 H 0.69819 0.07026 0.00249 0.0
H2657 H 0.71431 0.052 0.96411 0.0
H2658 H 0.73434 0.05887 0.02409 0.0
H2659 H 0.72977 0.07861 0.01906 0.0
H2660 H 0.71399 0.06567 0.02495 0.0
H2661 H 0.74265 0.04813 0.95967 0.0
H2662 H 0.75724 0.05 0.97446 0.0
H2663 H 0.74498 0.03309 0.97405 0.0
H2664 H 0.78549 0.07772 0.00209 0.0
H2665 H 0.77693 0.0312 0.01844 0.0
H2666 H 0.74666 0.08879 -0.00441 0.0
H2667 H 0.75205 0.08019 0.98147 0.0
H2668 H 0.76656 0.09136 0.99132 0.0
H2669 H 0.74025 0.02837 0.01964 0.0
H2670 H 0.75422 0.01745 0.00905 0.0
H2671 H 0.73784 0.0273 -0.00043 0.0
C2672 C 0.49624 0.27516 0.05481 0.0
C2673 C 0.49678 0.283 0.04075 0.0
C2674 C 0.49806 0.2592 0.05609 0.0
C2675 C 0.50099 0.25096 0.04297 0.0
C2676 C 0.50134 0.25881 0.02861 0.0
C2677 C 0.49914 0.27486 0.02765 0.0
C2678 C 0.49699 0.25132 0.07156 0.0
C2679 C 0.50348 0.25027 0.01427 0.0
C2680 C 0.52456 0.21378 0.04816 0.0
C2681 C 0.5123 0.20276 0.04748 0.0
C2682 C 0.52093 0.22959 0.04666 0.0
C2683 C 0.50481 0.23433 0.04447 0.0
C2684 C 0.49251 0.22323 0.04384 0.0
C2685 C 0.4964 0.20768 0.04566 0.0
C2686 C 0.53427 0.24133 0.04699 0.0
C2687 C 0.47515 0.22746 0.04122 0.0
H2688 H 0.49382 0.28149 0.06484 0.0
H2689 H 0.49881 0.28094 0.01672 0.0
H2690 H 0.49215 0.23949 0.07115 0.0
H2691 H 0.50919 0.25061 0.07655 0.0
H2692 H 0.48931 0.25792 0.07921 0.0
H2693 H 0.50845 0.2579 0.00506 0.0
H2694 H 0.51148 0.24015 0.0159 0.0
H2695 H 0.49161 0.24608 0.01057 0.0
H2696 H 0.5369 0.21007 0.04953 0.0
H2697 H 0.48679 0.19933 0.04518 0.0
H2698 H 0.53277 0.24845 0.05699 0.0
H2699 H 0.53371 0.24919 0.0368 0.0
H2700 H 0.54629 0.23586 0.04752 0.0
H2701 H 0.46918 0.22851 0.05231 0.0
H2702 H 0.46878 0.21839 0.03512 0.0
H2703 H 0.47376 0.23853 0.03468 0.0
C2704 C 0.49946 0.77963 0.43467 0.0
C2705 C 0.51427 0.78557 0.43906 0.0
C2706 C 0.49673 0.76373 0.43489 0.0
C2707 C 0.50903 0.75353 0.4399 0.0
C2708 C 0.52427 0.75941 0.44369 0.0
C2709 C 0.52677 0.7754 0.4431 0.0
C2710 C 0.48041 0.75801 0.43038 0.0
C2711 C 0.53795 0.74888 0.44845 0.0
C2712 C 0.49597 0.71532 0.45818 0.0
C2713 C 0.49852 0.70538 0.44645 0.0
C2714 C 0.49964 0.73103 0.45622 0.0
C2715 C 0.50566 0.73682 0.44213 0.0
C2716 C 0.50856 0.72664 0.4304 0.0
C2717 C 0.50493 0.711 0.43274 0.0
C2718 C 0.49694 0.74151 0.46912 0.0
C2719 C 0.51503 0.73214 0.41521 0.0
H2720 H 0.48983 0.78742 0.43132 0.0
H2721 H 0.53832 0.77992 0.44633 0.0
H2722 H 0.48107 0.74662 0.42526 0.0
H2723 H 0.47272 0.75686 0.44058 0.0
H2724 H 0.47451 0.76624 0.42221 0.0
H2725 H 0.54673 0.75485 0.45557 0.0
H2726 H 0.53378 0.73837 0.45479 0.0
H2727 H 0.54428 0.74525 0.43819 0.0
H2728 H 0.49082 0.71088 0.46872 0.0
H2729 H 0.50654 0.70326 0.42359 0.0
H2730 H 0.48734 0.7499 0.46604 0.0
H2731 H 0.508 0.74815 0.47131 0.0
H2732 H 0.49343 0.73506 0.47969 0.0
H2733 H 0.50481 0.73522 0.40765 0.0
H2734 H 0.52201 0.72293 0.40991 0.0
H2735 H 0.52279 0.74241 0.41597 0.0
C2736 C 0.0316 0.51046 0.21324 0.0
C2737 C 0.03939 0.50018 0.20397 0.0
C2738 C 0.03032 0.5074 0.22885 0.0
C2739 C 0.03734 0.49391 0.23543 0.0
C2740 C 0.04462 0.48312 0.22603 0.0
C2741 C 0.04537 0.4863 0.21033 0.0
C2742 C 0.02212 0.51906 0.23833 0.0
C2743 C 0.05174 0.46828 0.23248 0.0
C2744 C 0.05187 0.49588 0.27593 0.0
C2745 C 0.03995 0.48769 0.28389 0.0
C2746 C 0.0512 0.4978 0.26014 0.0
C2747 C 0.03807 0.49169 0.2522 0.0
C2748 C 0.02584 0.48359 0.26029 0.0
C2749 C 0.0269 0.48175 0.2761 0.0
C2750 C 0.06479 0.50594 0.25186 0.0
C2751 C 0.01174 0.47665 0.25237 0.0
H2752 H 0.0268 0.52112 0.20831 0.0
H2753 H 0.05132 0.47828 0.20316 0.0
H2754 H 0.01623 0.51362 0.24843 0.0
H2755 H 0.03119 0.52734 0.24221 0.0
H2756 H 0.01293 0.52565 0.23167 0.0
H2757 H 0.06124 0.4639 0.22501 0.0
H2758 H 0.05693 0.46956 0.24388 0.0
H2759 H 0.04214 0.45948 0.23346 0.0
H2760 H 0.06211 0.50018 0.282 0.0
H2761 H 0.01777 0.47527 0.28233 0.0
H2762 H 0.06029 0.51678 0.24632 0.0
H2763 H 0.06952 0.49869 0.24288 0.0
H2764 H 0.07481 0.50875 0.25952 0.0
H2765 H 0.00187 0.48521 0.25164 0.0
H2766 H 0.00722 0.46628 0.25878 0.0
H2767 H 0.01471 0.47338 0.24074 0.0
C2768 C 0.97227 0.99452 0.27661 0.0
C2769 C 0.95737 -0.00381 0.28341 0.0
C2770 C 0.97244 0.99157 0.26119 0.0
C2771 C 0.95808 0.99338 0.25277 0.0
C2772 C 0.94352 0.99692 0.25996 0.0
C2773 C 0.9431 -0.0031 0.27528 0.0
C2774 C 0.98804 0.98728 0.2538 0.0
C2775 C 0.92772 0.99804 0.25165 0.0
C2776 C 0.96064 0.001 0.21097 0.0
C2777 C 0.95849 0.98914 0.2051 0.0
C2778 C 0.96062 0.00254 0.22673 0.0
C2779 C 0.95833 0.99203 0.23636 0.0
C2780 C 0.95544 0.97762 0.23034 0.0
C2781 C 0.95606 0.97634 0.21493 0.0
C2782 C 0.96319 0.01813 0.23321 0.0
C2783 C 0.9517 0.96326 0.23988 0.0
H2784 H 0.98326 0.99398 0.28314 0.0
H2785 H 0.93205 3e-05 0.28086 0.0
H2786 H 0.98617 0.97947 0.24439 0.0
H2787 H 0.99391 0.99789 0.24913 0.0
H2788 H 0.99635 0.98161 0.2621 0.0
H2789 H 0.91864 0.00314 0.25728 0.0
H2790 H 0.92858 -0.00038 0.23975 0.0
H2791 H 0.92222 0.98643 0.25165 0.0
H2792 H 0.96244 0.01096 0.20339 0.0
H2793 H 0.95402 0.96502 0.21068 0.0
H2794 H 0.97441 0.01797 0.23994 0.0
H2795 H 0.95321 0.02083 0.24095 0.0
H2796 H 0.96402 0.02744 0.22427 0.0
H2797 H 0.96304 0.95698 0.24234 0.0
H2798 H 0.94367 0.95544 0.23378 0.0
H2799 H 0.94594 0.9658 0.25075 0.0
C2800 C 0.26799 0.95476 0.99253 0.0
C2801 C 0.27929 0.94298 0.9914 0.0
C2802 C 0.25233 0.95278 0.98705 0.0
C2803 C 0.24805 0.93858 0.98091 0.0
C2804 C 0.25974 0.92698 0.97935 0.0
C2805 C 0.27528 0.92944 0.98448 0.0
C2806 C 0.24024 0.96556 0.98847 0.0
C2807 C 0.256 0.91187 0.97238 0.0
C2808 C 0.2047 0.92604 0.98448 0.0
C2809 C 0.1991 0.92928 0.96978 0.0
C2810 C 0.22075 0.92893 0.9882 0.0
C2811 C 0.23117 0.93544 0.97702 0.0
C2812 C 0.22551 0.93864 0.96219 0.0
C2813 C 0.20949 0.93569 0.95883 0.0
C2814 C 0.22661 0.92532 0.00047 0.0
C2815 C 0.23615 0.94522 0.94974 0.0
H2816 H 0.27126 0.96527 0.9979 0.0
H2817 H 0.28419 0.92043 0.98363 0.0
H2818 H 0.23121 0.96569 0.97928 0.0
H2819 H 0.23371 0.96445 -0.00407 0.0
H2820 H 0.24622 0.97696 0.98834 0.0
H2821 H 0.26424 0.90261 0.97661 0.0
H2822 H 0.24351 0.90805 0.9746 0.0
H2823 H 0.2576 0.91327 0.95997 0.0
H2824 H 0.19669 0.9209 0.99291 0.0
H2825 H 0.20515 0.93829 0.94747 0.0
H2826 H 0.2301 0.93593 0.00614 0.0
H2827 H 0.23743 0.91794 -5e-05 0.0
H2828 H 0.21741 0.91915 0.00746 0.0
H2829 H 0.23535 0.95796 0.94956 0.0
H2830 H 0.23217 0.94143 0.93853 0.0
H2831 H 0.24889 0.94193 0.95134 0.0
loop_
_geom_bond_atom_site_label_1
_geom_bond_atom_site_label_2
_geom_bond_distance
_geom_bond_site_symmetry_2
_ccdc_geom_bond_type
O0 Cd1 2.300 . S
O0 C7 1.275 . S
Cd1 O0 2.300 . S
Cd1 O9 2.381 . S
Cd1 O10 2.378 . S
O2 Cd3 2.385 . S
O2 C7 1.255 . S
Cd3 O2 2.385 . S
Cd3 O4 2.317 . S
O4 Cd3 2.317 . S
O4 C5 1.232 . S
C5 O4 1.232 . S
C5 O6 1.218 . S
O6 C5 1.218 . S
C7 O0 1.275 . S
C7 O2 1.255 . S
C8 O9 1.258 . S
C8 O10 1.256 . S
O9 Cd1 2.381 . S
O9 C8 1.258 . S
O10 Cd1 2.378 . S
O10 C8 1.256 . S
O11 Cd12 2.300 . S
O11 C18 1.275 . S
Cd12 O11 2.300 . S
Cd12 O20 2.381 . S
Cd12 O21 2.378 . S
O13 Cd14 2.385 . S
O13 C18 1.255 . S
Cd14 O13 2.385 . S
Cd14 O15 2.317 . S
O15 Cd14 2.317 . S
O15 C16 1.232 . S
C16 O15 1.232 . S
C16 O17 1.218 . S
O17 C16 1.218 . S
C18 O11 1.275 . S
C18 O13 1.255 . S
C19 O20 1.258 . S
C19 O21 1.256 . S
O20 Cd12 2.381 . S
O20 C19 1.258 . S
O21 Cd12 2.378 . S
O21 C19 1.256 . S
O22 Cd23 2.300 . S
O22 C29 1.275 . S
Cd23 O22 2.300 . S
Cd23 O31 2.381 . S
Cd23 O32 2.378 . S
O24 Cd25 2.385 . S
O24 C29 1.255 . S
Cd25 O24 2.385 . S
Cd25 O26 2.317 . S
O26 Cd25 2.317 . S
O26 C27 1.232 . S
C27 O26 1.232 . S
C27 O28 1.218 . S
O28 C27 1.218 . S
C29 O22 1.275 . S
C29 O24 1.255 . S
C30 O31 1.258 . S
C30 O32 1.256 . S
O31 Cd23 2.381 . S
O31 C30 1.258 . S
O32 Cd23 2.378 . S
O32 C30 1.256 . S
O33 Cd34 2.300 . S
O33 C40 1.275 . S
Cd34 O33 2.300 . S
Cd34 O42 2.381 . S
Cd34 O43 2.378 . S
O35 Cd36 2.385 . S
O35 C40 1.255 . S
Cd36 O35 2.385 . S
Cd36 O37 2.317 . S
O37 Cd36 2.317 . S
O37 C38 1.232 . S
C38 O37 1.232 . S
C38 O39 1.218 . S
O39 C38 1.218 . S
C40 O33 1.275 . S
C40 O35 1.255 . S
C41 O42 1.258 . S
C41 O43 1.256 . S
O42 Cd34 2.381 . S
O42 C41 1.258 . S
O43 Cd34 2.378 . S
O43 C41 1.256 . S
O44 Cd45 2.300 . S
O44 C51 1.275 . S
Cd45 O44 2.300 . S
Cd45 O53 2.381 . S
Cd45 O54 2.378 . S
O46 Cd47 2.385 . S
O46 C51 1.255 . S
Cd47 O46 2.385 . S
Cd47 O48 2.317 1_545 S
O48 Cd47 2.317 1_565 S
O48 C49 1.232 . S
C49 O48 1.232 . S
C49 O50 1.218 1_565 S
O50 C49 1.218 1_545 S
C51 O44 1.275 . S
C51 O46 1.255 . S
C52 O53 1.262 . S
C52 O54 1.257 . S
O53 Cd45 2.381 . S
O53 C52 1.262 . S
O54 Cd45 2.378 . S
O54 C52 1.257 . S
O55 Cd56 2.300 . S
O55 C62 1.275 . S
Cd56 O55 2.300 . S
Cd56 O64 2.381 . S
Cd56 O65 2.378 . S
O57 Cd58 2.385 . S
O57 C62 1.255 . S
Cd58 O57 2.385 . S
Cd58 O59 2.317 . S
O59 Cd58 2.317 . S
O59 C60 1.232 . S
C60 O59 1.232 . S
C60 O61 1.218 . S
O61 C60 1.218 . S
C62 O55 1.275 . S
C62 O57 1.255 . S
C63 O64 1.258 . S
C63 O65 1.256 . S
O64 Cd56 2.381 . S
O64 C63 1.258 . S
O65 Cd56 2.378 . S
O65 C63 1.256 . S
O66 Cd67 2.300 . S
O66 C73 1.275 . S
Cd67 O66 2.300 . S
Cd67 O75 2.381 . S
Cd67 O76 2.378 . S
O68 Cd69 2.385 . S
O68 C73 1.255 . S
Cd69 O68 2.385 . S
Cd69 O70 2.317 . S
O70 Cd69 2.317 . S
O70 C71 1.228 1_565 S
C71 O70 1.228 1_545 S
C71 O72 1.202 1_545 S
O72 C71 1.202 1_565 S
C73 O66 1.275 . S
C73 O68 1.255 . S
C74 O75 1.258 . S
C74 O76 1.256 . S
O75 Cd67 2.381 . S
O75 C74 1.258 . S
O76 Cd67 2.378 . S
O76 C74 1.256 . S
O77 Cd78 2.300 . S
O77 C84 1.275 . S
Cd78 O77 2.300 . S
Cd78 O86 2.381 . S
Cd78 O87 2.378 . S
O79 Cd80 2.385 . S
O79 C84 1.255 . S
Cd80 O79 2.385 . S
Cd80 O81 2.317 . S
O81 Cd80 2.317 . S
O81 C82 1.232 . S
C82 O81 1.232 . S
C82 O83 1.218 . S
O83 C82 1.218 . S
C84 O77 1.275 . S
C84 O79 1.255 . S
C85 O86 1.258 . S
C85 O87 1.256 . S
O86 Cd78 2.381 . S
O86 C85 1.258 . S
O87 Cd78 2.378 . S
O87 C85 1.256 . S
O88 Cd89 2.300 . S
O88 C95 1.275 . S
Cd89 O88 2.300 . S
Cd89 O97 2.381 . S
Cd89 O98 2.378 . S
O90 Cd91 2.385 . S
O90 C95 1.255 . S
Cd91 O90 2.385 . S
Cd91 O92 2.317 . S
O92 Cd91 2.317 . S
O92 C93 1.232 . S
C93 O92 1.232 . S
C93 O94 1.218 . S
O94 C93 1.218 . S
C95 O88 1.275 . S
C95 O90 1.255 . S
C96 O97 1.258 . S
C96 O98 1.256 . S
O97 Cd89 2.381 . S
O97 C96 1.258 . S
O98 Cd89 2.378 . S
O98 C96 1.256 . S
O99 Cd100 2.300 . S
O99 C106 1.275 . S
Cd100 O99 2.300 . S
Cd100 O108 2.381 . S
Cd100 O109 2.378 . S
O101 Cd102 2.385 . S
O101 C106 1.255 . S
Cd102 O101 2.385 . S
Cd102 O103 2.317 . S
O103 Cd102 2.317 . S
O103 C104 1.232 . S
C104 O103 1.232 . S
C104 O105 1.218 . S
O105 C104 1.218 . S
C106 O99 1.275 . S
C106 O101 1.255 . S
C107 O108 1.258 . S
C107 O109 1.256 . S
O108 Cd100 2.381 . S
O108 C107 1.258 . S
O109 Cd100 2.378 . S
O109 C107 1.256 . S
O110 Cd111 2.300 . S
O110 C117 1.275 . S
Cd111 O110 2.300 . S
Cd111 O119 2.381 . S
Cd111 O120 2.378 . S
O112 Cd113 2.385 . S
O112 C117 1.255 . S
Cd113 O112 2.385 . S
Cd113 O114 2.317 . S
O114 Cd113 2.317 . S
O114 C115 1.232 . S
C115 O114 1.232 . S
C115 O116 1.218 . S
O116 C115 1.218 . S
C117 O110 1.275 . S
C117 O112 1.255 . S
C118 O119 1.258 . S
C118 O120 1.256 . S
O119 Cd111 2.381 . S
O119 C118 1.258 . S
O120 Cd111 2.378 . S
O120 C118 1.256 . S
O121 Cd122 2.300 . S
O121 C128 1.275 . S
Cd122 O121 2.300 . S
Cd122 O130 2.381 . S
Cd122 O131 2.378 . S
O123 Cd124 2.385 . S
O123 C128 1.255 . S
Cd124 O123 2.385 . S
Cd124 O125 2.317 . S
O125 Cd124 2.317 . S
O125 C126 1.232 . S
C126 O125 1.232 . S
C126 O127 1.218 . S
O127 C126 1.218 . S
C128 O121 1.275 . S
C128 O123 1.255 . S
C129 O130 1.258 . S
C129 O131 1.256 . S
O130 Cd122 2.381 . S
O130 C129 1.258 . S
O131 Cd122 2.378 . S
O131 C129 1.256 . S
O132 Cd133 2.313 . S
O132 C139 1.287 . S
Cd133 O132 2.313 . S
Cd133 O141 2.381 1_655 S
Cd133 O142 2.378 . S
O134 Cd135 2.385 . S
O134 C139 1.255 . S
Cd135 O134 2.385 . S
Cd135 O136 2.317 . S
O136 Cd135 2.317 . S
O136 C137 1.232 . S
C137 O136 1.232 . S
C137 O138 1.218 . S
O138 C137 1.218 . S
C139 O132 1.287 . S
C139 O134 1.255 . S
C140 O141 1.258 1_655 S
C140 O142 1.256 . S
O141 Cd133 2.381 1_455 S
O141 C140 1.258 1_455 S
O142 Cd133 2.378 . S
O142 C140 1.256 . S
O143 Cd144 2.300 . S
O143 C150 1.275 . S
Cd144 O143 2.300 . S
Cd144 O152 2.381 . S
Cd144 O153 2.378 . S
O145 Cd146 2.385 . S
O145 C150 1.255 . S
Cd146 O145 2.385 . S
Cd146 O147 2.317 . S
O147 Cd146 2.317 . S
O147 C148 1.232 . S
C148 O147 1.232 . S
C148 O149 1.218 . S
O149 C148 1.218 . S
C150 O143 1.275 . S
C150 O145 1.255 . S
C151 O152 1.258 . S
C151 O153 1.256 . S
O152 Cd144 2.381 . S
O152 C151 1.258 . S
O153 Cd144 2.378 . S
O153 C151 1.256 . S
O154 Cd155 2.314 . S
O154 C161 1.289 . S
Cd155 O154 2.314 . S
Cd155 O163 2.381 1_655 S
Cd155 O164 2.378 . S
O156 Cd157 2.385 . S
O156 C161 1.255 . S
Cd157 O156 2.385 . S
Cd157 O158 2.317 . S
O158 Cd157 2.317 . S
O158 C159 1.232 . S
C159 O158 1.232 . S
C159 O160 1.218 . S
O160 C159 1.218 . S
C161 O154 1.289 . S
C161 O156 1.255 . S
C162 O163 1.258 1_655 S
C162 O164 1.256 . S
O163 Cd155 2.381 1_455 S
O163 C162 1.258 1_455 S
O164 Cd155 2.378 . S
O164 C162 1.256 . S
O165 Cd166 2.300 . S
O165 C172 1.275 . S
Cd166 O165 2.300 . S
Cd166 O174 2.381 . S
Cd166 O175 2.378 . S
O167 Cd168 2.385 . S
O167 C172 1.255 . S
Cd168 O167 2.385 . S
Cd168 O169 2.317 . S
O169 Cd168 2.317 . S
O169 C170 1.232 . S
C170 O169 1.232 . S
C170 O171 1.218 . S
O171 C170 1.218 . S
C172 O165 1.275 . S
C172 O167 1.255 . S
C173 O174 1.258 . S
C173 O175 1.256 . S
O174 Cd166 2.381 . S
O174 C173 1.258 . S
O175 Cd166 2.378 . S
O175 C173 1.256 . S
O176 Cd177 2.300 . S
O176 C183 1.275 . S
Cd177 O176 2.300 . S
Cd177 O185 2.381 . S
Cd177 O186 2.378 . S
O178 Cd179 2.385 . S
O178 C183 1.255 . S
Cd179 O178 2.385 . S
Cd179 O180 2.317 . S
O180 Cd179 2.317 . S
O180 C181 1.232 . S
C181 O180 1.232 . S
C181 O182 1.218 . S
O182 C181 1.218 . S
C183 O176 1.275 . S
C183 O178 1.255 . S
C184 O185 1.258 . S
C184 O186 1.256 . S
O185 Cd177 2.381 . S
O185 C184 1.258 . S
O186 Cd177 2.378 . S
O186 C184 1.256 . S
O187 Cd188 2.300 . S
O187 C194 1.275 . S
Cd188 O187 2.300 . S
Cd188 O196 2.381 . S
Cd188 O197 2.378 . S
O189 Cd190 2.385 . S
O189 C194 1.255 . S
Cd190 O189 2.385 . S
Cd190 O191 2.317 . S
O191 Cd190 2.317 . S
O191 C192 1.232 . S
C192 O191 1.232 . S
C192 O193 1.218 . S
O193 C192 1.218 . S
C194 O187 1.275 . S
C194 O189 1.255 . S
C195 O196 1.258 . S
C195 O197 1.256 . S
O196 Cd188 2.381 . S
O196 C195 1.258 . S
O197 Cd188 2.378 . S
O197 C195 1.256 . S
O198 Cd199 2.300 1_565 S
O198 C205 1.275 1_565 S
Cd199 O198 2.300 1_545 S
Cd199 O207 2.381 1_545 S
Cd199 O208 2.378 . S
O200 Cd201 2.385 . S
O200 C205 1.255 . S
Cd201 O200 2.385 . S
Cd201 O202 2.317 . S
O202 Cd201 2.317 . S
O202 C203 1.232 . S
C203 O202 1.232 . S
C203 O204 1.218 . S
O204 C203 1.218 . S
C205 O198 1.275 1_545 S
C205 O200 1.255 . S
C206 O207 1.258 1_545 S
C206 O208 1.256 . S
O207 Cd199 2.381 1_565 S
O207 C206 1.258 1_565 S
O208 Cd199 2.378 . S
O208 C206 1.256 . S
O209 Cd210 2.300 . S
O209 C216 1.275 . S
Cd210 O209 2.300 . S
Cd210 O218 2.381 . S
Cd210 O219 2.378 . S
O211 Cd212 2.385 . S
O211 C216 1.255 . S
Cd212 O211 2.385 . S
Cd212 O213 2.317 . S
O213 Cd212 2.317 . S
O213 C214 1.232 . S
C214 O213 1.232 . S
C214 O215 1.218 . S
O215 C214 1.218 . S
C216 O209 1.275 . S
C216 O211 1.255 . S
C217 O218 1.258 . S
C217 O219 1.256 . S
O218 Cd210 2.381 . S
O218 C217 1.258 . S
O219 Cd210 2.378 . S
O219 C217 1.256 . S
O220 Cd221 2.300 1_554 S
O220 C227 1.275 1_554 S
Cd221 O220 2.300 1_556 S
Cd221 O229 2.381 1_556 S
Cd221 O230 2.378 . S
O222 Cd223 2.385 . S
O222 C227 1.255 . S
Cd223 O222 2.385 . S
Cd223 O224 2.317 . S
O224 Cd223 2.317 . S
O224 C225 1.232 . S
C225 O224 1.232 . S
C225 O226 1.218 . S
O226 C225 1.218 . S
C227 O220 1.275 1_556 S
C227 O222 1.255 . S
C228 O229 1.258 1_556 S
C228 O230 1.256 . S
O229 Cd221 2.381 1_554 S
O229 C228 1.258 1_554 S
O230 Cd221 2.378 . S
O230 C228 1.256 . S
O231 Cd232 2.300 . S
O231 C238 1.275 . S
Cd232 O231 2.300 . S
Cd232 O240 2.381 . S
Cd232 O241 2.378 . S
O233 Cd234 2.385 . S
O233 C238 1.255 . S
Cd234 O233 2.385 . S
Cd234 O235 2.317 . S
O235 Cd234 2.317 . S
O235 C236 1.232 . S
C236 O235 1.232 . S
C236 O237 1.218 . S
O237 C236 1.218 . S
C238 O231 1.275 . S
C238 O233 1.255 . S
C239 O240 1.258 . S
C239 O241 1.256 . S
O240 Cd232 2.381 . S
O240 C239 1.258 . S
O241 Cd232 2.378 . S
O241 C239 1.256 . S
O242 Cd243 2.300 . S
O242 C249 1.275 . S
Cd243 O242 2.300 . S
Cd243 O251 2.381 . S
Cd243 O252 2.378 . S
O244 Cd245 2.385 . S
O244 C249 1.255 . S
Cd245 O244 2.385 . S
Cd245 O246 2.317 . S
O246 Cd245 2.317 . S
O246 C247 1.232 . S
C247 O246 1.232 . S
C247 O248 1.218 . S
O248 C247 1.218 . S
C249 O242 1.275 . S
C249 O244 1.255 . S
C250 O251 1.258 . S
C250 O252 1.256 . S
O251 Cd243 2.381 . S
O251 C250 1.258 . S
O252 Cd243 2.378 . S
O252 C250 1.256 . S
O253 Cd254 2.300 . S
O253 C260 1.275 . S
Cd254 O253 2.300 . S
Cd254 O262 2.381 . S
Cd254 O263 2.378 . S
O255 Cd256 2.385 . S
O255 C260 1.255 . S
Cd256 O255 2.385 . S
Cd256 O257 2.317 . S
O257 Cd256 2.317 . S
O257 C258 1.232 . S
C258 O257 1.232 . S
C258 O259 1.218 . S
O259 C258 1.218 . S
C260 O253 1.275 . S
C260 O255 1.255 . S
C261 O262 1.258 . S
C261 O263 1.256 . S
O262 Cd254 2.381 . S
O262 C261 1.258 . S
O263 Cd254 2.378 . S
O263 C261 1.256 . S
O264 Cd265 2.300 . S
O264 C271 1.275 . S
Cd265 O264 2.300 . S
Cd265 O273 2.381 . S
Cd265 O274 2.378 . S
O266 Cd267 2.385 . S
O266 C271 1.255 . S
Cd267 O266 2.385 . S
Cd267 O268 2.317 . S
O268 Cd267 2.317 . S
O268 C269 1.232 . S
C269 O268 1.232 . S
C269 O270 1.218 . S
O270 C269 1.218 . S
C271 O264 1.275 . S
C271 O266 1.255 . S
C272 O273 1.258 . S
C272 O274 1.256 . S
O273 Cd265 2.381 . S
O273 C272 1.258 . S
O274 Cd265 2.378 . S
O274 C272 1.256 . S
O275 Cd276 2.300 . S
O275 C282 1.275 . S
Cd276 O275 2.300 . S
Cd276 O284 2.381 . S
Cd276 O285 2.378 . S
O277 Cd278 2.385 . S
O277 C282 1.255 . S
Cd278 O277 2.385 . S
Cd278 O279 2.317 . S
O279 Cd278 2.317 . S
O279 C280 1.232 . S
C280 O279 1.232 . S
C280 O281 1.218 . S
O281 C280 1.218 . S
C282 O275 1.275 . S
C282 O277 1.255 . S
C283 O284 1.258 . S
C283 O285 1.256 . S
O284 Cd276 2.381 . S
O284 C283 1.258 . S
O285 Cd276 2.378 . S
O285 C283 1.256 . S
O286 Cd287 2.300 . S
O286 C293 1.275 . S
Cd287 O286 2.300 . S
Cd287 O295 2.381 . S
Cd287 O296 2.378 . S
O288 Cd289 2.385 . S
O288 C293 1.255 . S
Cd289 O288 2.385 . S
Cd289 O290 2.317 . S
O290 Cd289 2.317 . S
O290 C291 1.232 . S
C291 O290 1.232 . S
C291 O292 1.218 . S
O292 C291 1.218 . S
C293 O286 1.275 . S
C293 O288 1.255 . S
C294 O295 1.258 . S
C294 O296 1.256 . S
O295 Cd287 2.381 . S
O295 C294 1.258 . S
O296 Cd287 2.378 . S
O296 C294 1.256 . S
O297 Cd298 2.300 . S
O297 C304 1.275 . S
Cd298 O297 2.300 . S
Cd298 O306 2.381 . S
Cd298 O307 2.378 . S
O299 Cd300 2.385 . S
O299 C304 1.255 . S
Cd300 O299 2.385 . S
Cd300 O301 2.317 . S
O301 Cd300 2.317 . S
O301 C302 1.232 . S
C302 O301 1.232 . S
C302 O303 1.218 . S
O303 C302 1.218 . S
C304 O297 1.275 . S
C304 O299 1.255 . S
C305 O306 1.258 . S
C305 O307 1.256 . S
O306 Cd298 2.381 . S
O306 C305 1.258 . S
O307 Cd298 2.378 . S
O307 C305 1.256 . S
O308 Cd309 2.300 . S
O308 C315 1.275 . S
Cd309 O308 2.300 . S
Cd309 O317 2.381 . S
Cd309 O318 2.378 . S
O310 Cd311 2.385 . S
O310 C315 1.255 . S
Cd311 O310 2.385 . S
Cd311 O312 2.317 . S
O312 Cd311 2.317 . S
O312 C313 1.232 . S
C313 O312 1.232 . S
C313 O314 1.218 . S
O314 C313 1.218 . S
C315 O308 1.275 . S
C315 O310 1.255 . S
C316 O317 1.258 . S
C316 O318 1.256 . S
O317 Cd309 2.381 . S
O317 C316 1.258 . S
O318 Cd309 2.378 . S
O318 C316 1.256 . S
O319 Cd320 2.300 . S
O319 C326 1.275 . S
Cd320 O319 2.300 . S
Cd320 O328 2.381 . S
Cd320 O329 2.378 . S
O321 Cd322 2.385 1_455 S
O321 C326 1.255 . S
Cd322 O321 2.385 1_655 S
Cd322 O323 2.317 1_655 S
O323 Cd322 2.317 1_455 S
O323 C324 1.232 . S
C324 O323 1.232 . S
C324 O325 1.218 . S
O325 C324 1.218 . S
C326 O319 1.275 . S
C326 O321 1.255 . S
C327 O328 1.258 . S
C327 O329 1.256 . S
O328 Cd320 2.381 . S
O328 C327 1.258 . S
O329 Cd320 2.378 . S
O329 C327 1.256 . S
O330 Cd331 2.300 . S
O330 C337 1.275 . S
Cd331 O330 2.300 . S
Cd331 O339 2.381 . S
Cd331 O340 2.378 . S
O332 Cd333 2.385 . S
O332 C337 1.255 . S
Cd333 O332 2.385 . S
Cd333 O334 2.317 . S
O334 Cd333 2.317 . S
O334 C335 1.232 . S
C335 O334 1.232 . S
C335 O336 1.218 . S
O336 C335 1.218 . S
C337 O330 1.275 . S
C337 O332 1.255 . S
C338 O339 1.258 . S
C338 O340 1.256 . S
O339 Cd331 2.381 . S
O339 C338 1.258 . S
O340 Cd331 2.378 . S
O340 C338 1.256 . S
O341 Cd342 2.300 . S
O341 C348 1.275 . S
Cd342 O341 2.300 . S
Cd342 O350 2.381 . S
Cd342 O351 2.378 . S
O343 Cd344 2.385 1_455 S
O343 C348 1.255 . S
Cd344 O343 2.385 1_655 S
Cd344 O345 2.317 1_655 S
O345 Cd344 2.317 1_455 S
O345 C346 1.232 . S
C346 O345 1.232 . S
C346 O347 1.218 . S
O347 C346 1.218 . S
C348 O341 1.275 . S
C348 O343 1.255 . S
C349 O350 1.258 . S
C349 O351 1.256 . S
O350 Cd342 2.381 . S
O350 C349 1.258 . S
O351 Cd342 2.378 . S
O351 C349 1.256 . S
O352 Cd353 2.300 . S
O352 C359 1.275 . S
Cd353 O352 2.300 . S
Cd353 O361 2.381 . S
Cd353 O362 2.378 . S
O354 Cd355 2.385 . S
O354 C359 1.255 . S
Cd355 O354 2.385 . S
Cd355 O356 2.317 . S
O356 Cd355 2.317 . S
O356 C357 1.232 . S
C357 O356 1.232 . S
C357 O358 1.218 . S
O358 C357 1.218 . S
C359 O352 1.275 . S
C359 O354 1.255 . S
C360 O361 1.258 . S
C360 O362 1.256 . S
O361 Cd353 2.381 . S
O361 C360 1.258 . S
O362 Cd353 2.378 . S
O362 C360 1.256 . S
O363 Cd364 2.300 . S
O363 C370 1.275 . S
Cd364 O363 2.300 . S
Cd364 O372 2.381 . S
Cd364 O373 2.378 . S
O365 Cd366 2.385 . S
O365 C370 1.255 . S
Cd366 O365 2.385 . S
Cd366 O367 2.317 . S
O367 Cd366 2.317 . S
O367 C368 1.232 . S
C368 O367 1.232 . S
C368 O369 1.218 . S
O369 C368 1.218 . S
C370 O363 1.275 . S
C370 O365 1.255 . S
C371 O372 1.258 . S
C371 O373 1.256 . S
O372 Cd364 2.381 . S
O372 C371 1.258 . S
O373 Cd364 2.378 . S
O373 C371 1.256 . S
O374 Cd375 2.300 . S
O374 C381 1.275 . S
Cd375 O374 2.300 . S
Cd375 O383 2.381 . S
Cd375 O384 2.378 . S
O376 Cd377 2.385 . S
O376 C381 1.255 . S
Cd377 O376 2.385 . S
Cd377 O378 2.317 . S
O378 Cd377 2.317 . S
O378 C379 1.232 . S
C379 O378 1.232 . S
C379 O380 1.218 . S
O380 C379 1.218 . S
C381 O374 1.275 . S
C381 O376 1.255 . S
C382 O383 1.258 . S
C382 O384 1.256 . S
O383 Cd375 2.381 . S
O383 C382 1.258 . S
O384 Cd375 2.378 . S
O384 C382 1.256 . S
O385 Cd386 2.300 . S
O385 C392 1.275 . S
Cd386 O385 2.300 . S
Cd386 O394 2.381 . S
Cd386 O395 2.378 . S
O387 Cd388 2.385 . S
O387 C392 1.255 . S
Cd388 O387 2.385 . S
Cd388 O389 2.317 . S
O389 Cd388 2.317 . S
O389 C390 1.232 . S
C390 O389 1.232 . S
C390 O391 1.218 . S
O391 C390 1.218 . S
C392 O385 1.275 . S
C392 O387 1.255 . S
C393 O394 1.258 . S
C393 O395 1.256 . S
O394 Cd386 2.381 . S
O394 C393 1.258 . S
O395 Cd386 2.378 . S
O395 C393 1.256 . S
O396 Cd397 2.300 . S
O396 C403 1.275 . S
Cd397 O396 2.300 . S
Cd397 O405 2.381 . S
Cd397 O406 2.378 . S
O398 Cd399 2.385 . S
O398 C403 1.255 . S
Cd399 O398 2.385 . S
Cd399 O400 2.317 . S
O400 Cd399 2.317 . S
O400 C401 1.232 . S
C401 O400 1.232 . S
C401 O402 1.218 . S
O402 C401 1.218 . S
C403 O396 1.275 . S
C403 O398 1.255 . S
C404 O405 1.258 . S
C404 O406 1.256 . S
O405 Cd397 2.381 . S
O405 C404 1.258 . S
O406 Cd397 2.378 . S
O406 C404 1.256 . S
O407 Cd408 2.300 . S
O407 C414 1.275 . S
Cd408 O407 2.300 . S
Cd408 O416 2.381 . S
Cd408 O417 2.378 . S
O409 Cd410 2.385 . S
O409 C414 1.255 . S
Cd410 O409 2.385 . S
Cd410 O411 2.317 . S
O411 Cd410 2.317 . S
O411 C412 1.232 . S
C412 O411 1.232 . S
C412 O413 1.218 . S
O413 C412 1.218 . S
C414 O407 1.275 . S
C414 O409 1.255 . S
C415 O416 1.258 . S
C415 O417 1.256 . S
O416 Cd408 2.381 . S
O416 C415 1.258 . S
O417 Cd408 2.378 . S
O417 C415 1.256 . S
O418 Cd419 2.300 . S
O418 C425 1.275 . S
Cd419 O418 2.300 . S
Cd419 O427 2.381 . S
Cd419 O428 2.378 . S
O420 Cd421 2.385 . S
O420 C425 1.255 . S
Cd421 O420 2.385 . S
Cd421 O422 2.317 . S
O422 Cd421 2.317 . S
O422 C423 1.232 . S
C423 O422 1.232 . S
C423 O424 1.218 . S
O424 C423 1.218 . S
C425 O418 1.275 . S
C425 O420 1.255 . S
C426 O427 1.258 . S
C426 O428 1.256 . S
O427 Cd419 2.381 . S
O427 C426 1.258 . S
O428 Cd419 2.378 . S
O428 C426 1.256 . S
O429 Cd430 2.300 . S
O429 C436 1.275 . S
Cd430 O429 2.300 . S
Cd430 O438 2.381 . S
Cd430 O439 2.378 . S
O431 Cd432 2.385 . S
O431 C436 1.255 . S
Cd432 O431 2.385 . S
Cd432 O433 2.317 . S
O433 Cd432 2.317 . S
O433 C434 1.232 . S
C434 O433 1.232 . S
C434 O435 1.218 . S
O435 C434 1.218 . S
C436 O429 1.275 . S
C436 O431 1.255 . S
C437 O438 1.258 . S
C437 O439 1.256 . S
O438 Cd430 2.381 . S
O438 C437 1.258 . S
O439 Cd430 2.378 . S
O439 C437 1.256 . S
O440 Cd441 2.300 . S
O440 C447 1.275 . S
Cd441 O440 2.300 . S
Cd441 O449 2.381 . S
Cd441 O450 2.378 . S
O442 Cd443 2.385 . S
O442 C447 1.255 . S
Cd443 O442 2.385 . S
Cd443 O444 2.317 . S
O444 Cd443 2.317 . S
O444 C445 1.232 . S
C445 O444 1.232 . S
C445 O446 1.218 . S
O446 C445 1.218 . S
C447 O440 1.275 . S
C447 O442 1.255 . S
C448 O449 1.258 . S
C448 O450 1.256 . S
O449 Cd441 2.381 . S
O449 C448 1.258 . S
O450 Cd441 2.378 . S
O450 C448 1.256 . S
O451 Cd452 2.300 1_565 S
O451 C458 1.275 1_565 S
Cd452 O451 2.300 1_545 S
Cd452 O460 2.381 1_545 S
Cd452 O461 2.378 . S
O453 Cd454 2.385 . S
O453 C458 1.255 . S
Cd454 O453 2.385 . S
Cd454 O455 2.317 . S
O455 Cd454 2.317 . S
O455 C456 1.232 . S
C456 O455 1.232 . S
C456 O457 1.218 . S
O457 C456 1.218 . S
C458 O451 1.275 1_545 S
C458 O453 1.255 . S
C459 O460 1.258 1_545 S
C459 O461 1.256 . S
O460 Cd452 2.381 1_565 S
O460 C459 1.258 1_565 S
O461 Cd452 2.378 . S
O461 C459 1.256 . S
O462 Cd463 2.300 . S
O462 C469 1.275 . S
Cd463 O462 2.300 . S
Cd463 O471 2.381 . S
Cd463 O472 2.378 . S
O464 Cd465 2.385 . S
O464 C469 1.255 . S
Cd465 O464 2.385 . S
Cd465 O466 2.317 . S
O466 Cd465 2.317 . S
O466 C467 1.232 . S
C467 O466 1.232 . S
C467 O468 1.218 . S
O468 C467 1.218 . S
C469 O462 1.275 . S
C469 O464 1.255 . S
C470 O471 1.258 . S
C470 O472 1.256 . S
O471 Cd463 2.381 . S
O471 C470 1.258 . S
O472 Cd463 2.378 . S
O472 C470 1.256 . S
O473 Cd474 2.300 . S
O473 C480 1.275 . S
Cd474 O473 2.300 . S
Cd474 O482 2.381 . S
Cd474 O483 2.378 . S
O475 Cd476 2.385 . S
O475 C480 1.255 . S
Cd476 O475 2.385 . S
Cd476 O477 2.317 . S
O477 Cd476 2.317 . S
O477 C478 1.232 . S
C478 O477 1.232 . S
C478 O479 1.218 . S
O479 C478 1.218 . S
C480 O473 1.275 . S
C480 O475 1.255 . S
C481 O482 1.258 . S
C481 O483 1.256 . S
O482 Cd474 2.381 . S
O482 C481 1.258 . S
O483 Cd474 2.378 . S
O483 C481 1.256 . S
O484 Cd485 2.300 . S
O484 C491 1.275 . S
Cd485 O484 2.300 . S
Cd485 O493 2.381 . S
Cd485 O494 2.378 . S
O486 Cd487 2.385 . S
O486 C491 1.255 . S
Cd487 O486 2.385 . S
Cd487 O488 2.317 . S
O488 Cd487 2.317 . S
O488 C489 1.232 . S
C489 O488 1.232 . S
C489 O490 1.218 . S
O490 C489 1.218 . S
C491 O484 1.275 . S
C491 O486 1.255 . S
C492 O493 1.258 . S
C492 O494 1.256 . S
O493 Cd485 2.381 . S
O493 C492 1.258 . S
O494 Cd485 2.378 . S
O494 C492 1.256 . S
O495 Cd496 2.300 1_556 S
O495 C502 1.275 1_556 S
Cd496 O495 2.300 1_554 S
Cd496 O504 2.381 1_554 S
Cd496 O505 2.378 . S
O497 Cd498 2.385 . S
O497 C502 1.255 . S
Cd498 O497 2.385 . S
Cd498 O499 2.317 . S
O499 Cd498 2.317 . S
O499 C500 1.232 . S
C500 O499 1.232 . S
C500 O501 1.218 . S
O501 C500 1.218 . S
C502 O495 1.275 1_554 S
C502 O497 1.255 . S
C503 O504 1.245 1_554 S
C503 O505 1.278 . S
O504 Cd496 2.381 1_556 S
O504 C503 1.245 1_556 S
O505 Cd496 2.378 . S
O505 C503 1.278 . S
O506 Cd507 2.300 . S
O506 C513 1.275 . S
Cd507 O506 2.300 . S
Cd507 O515 2.381 . S
Cd507 O516 2.378 . S
O508 Cd509 2.385 . S
O508 C513 1.255 . S
Cd509 O508 2.385 . S
Cd509 O510 2.317 . S
O510 Cd509 2.317 . S
O510 C511 1.232 . S
C511 O510 1.232 . S
C511 O512 1.218 . S
O512 C511 1.218 . S
C513 O506 1.275 . S
C513 O508 1.255 . S
C514 O515 1.258 . S
C514 O516 1.256 . S
O515 Cd507 2.381 . S
O515 C514 1.258 . S
O516 Cd507 2.378 . S
O516 C514 1.256 . S
O517 Cd518 2.300 . S
O517 C524 1.275 . S
Cd518 O517 2.300 . S
Cd518 O526 2.381 . S
Cd518 O527 2.378 . S
O519 Cd520 2.385 . S
O519 C524 1.255 . S
Cd520 O519 2.385 . S
Cd520 O521 2.317 . S
O521 Cd520 2.317 . S
O521 C522 1.232 . S
C522 O521 1.232 . S
C522 O523 1.218 . S
O523 C522 1.218 . S
C524 O517 1.275 . S
C524 O519 1.255 . S
C525 O526 1.258 . S
C525 O527 1.256 . S
O526 Cd518 2.381 . S
O526 C525 1.258 . S
O527 Cd518 2.378 . S
O527 C525 1.256 . S
C528 C529 1.391 . S
C528 C530 1.394 . S
C528 H544 0.931 . S
C529 C528 1.391 . S
C529 C533 1.376 . S
C530 C528 1.394 . S
C530 C531 1.369 . S
C530 C534 1.531 . S
C531 C530 1.369 . S
C531 C532 1.410 . S
C531 C539 1.503 . S
C532 C531 1.410 . S
C532 C533 1.392 . S
C532 C535 1.511 . S
C533 C529 1.376 . S
C533 C532 1.392 . S
C533 H545 0.929 . S
C534 C530 1.531 . S
C534 H546 0.960 . S
C534 H547 0.962 . S
C534 H548 0.960 . S
C535 C532 1.511 . S
C535 H549 0.961 . S
C535 H550 0.961 . S
C535 H551 0.961 . S
C536 C537 1.370 . S
C536 C538 1.363 . S
C536 H552 0.931 . S
C537 C536 1.370 . S
C537 C541 1.408 . S
C538 C536 1.363 . S
C538 C539 1.370 . S
C538 C542 1.524 . S
C539 C531 1.503 . S
C539 C538 1.370 . S
C539 C540 1.403 . S
C540 C539 1.403 . S
C540 C541 1.404 . S
C540 C543 1.539 . S
C541 C537 1.408 . S
C541 C540 1.404 . S
C541 H553 0.930 . S
C542 C538 1.524 . S
C542 H554 0.956 . S
C542 H555 0.961 . S
C542 H556 0.961 . S
C543 C540 1.539 . S
C543 H557 0.958 . S
C543 H558 0.961 . S
C543 H559 0.960 . S
H544 C528 0.931 . S
H545 C533 0.929 . S
H546 C534 0.960 . S
H547 C534 0.962 . S
H548 C534 0.960 . S
H549 C535 0.961 . S
H550 C535 0.961 . S
H551 C535 0.961 . S
H552 C536 0.931 . S
H553 C541 0.930 . S
H554 C542 0.956 . S
H555 C542 0.961 . S
H556 C542 0.961 . S
H557 C543 0.958 . S
H558 C543 0.961 . S
H559 C543 0.960 . S
C560 C561 1.391 . S
C560 C562 1.394 . S
C560 H576 0.931 . S
C561 C560 1.391 . S
C561 C565 1.376 . S
C562 C560 1.394 . S
C562 C563 1.369 . S
C562 C566 1.531 . S
C563 C562 1.369 . S
C563 C564 1.410 . S
C563 C571 1.503 . S
C564 C563 1.410 . S
C564 C565 1.392 . S
C564 C567 1.511 . S
C565 C561 1.376 . S
C565 C564 1.392 . S
C565 H577 0.929 . S
C566 C562 1.531 . S
C566 H578 0.960 . S
C566 H579 0.962 . S
C566 H580 0.960 . S
C567 C564 1.511 . S
C567 H581 0.961 . S
C567 H582 0.961 . S
C567 H583 0.961 . S
C568 C569 1.370 . S
C568 C570 1.363 . S
C568 H584 0.931 . S
C569 C568 1.370 . S
C569 C573 1.408 . S
C570 C568 1.363 . S
C570 C571 1.370 . S
C570 C574 1.524 . S
C571 C563 1.503 . S
C571 C570 1.370 . S
C571 C572 1.403 . S
C572 C571 1.403 . S
C572 C573 1.404 . S
C572 C575 1.539 . S
C573 C569 1.408 . S
C573 C572 1.404 . S
C573 H585 0.930 . S
C574 C570 1.524 . S
C574 H586 0.956 . S
C574 H587 0.961 . S
C574 H588 0.961 . S
C575 C572 1.539 . S
C575 H589 0.958 . S
C575 H590 0.961 . S
C575 H591 0.960 . S
H576 C560 0.931 . S
H577 C565 0.929 . S
H578 C566 0.960 . S
H579 C566 0.962 . S
H580 C566 0.960 . S
H581 C567 0.961 . S
H582 C567 0.961 . S
H583 C567 0.961 . S
H584 C568 0.931 . S
H585 C573 0.930 . S
H586 C574 0.956 . S
H587 C574 0.961 . S
H588 C574 0.961 . S
H589 C575 0.958 . S
H590 C575 0.961 . S
H591 C575 0.960 . S
C592 C593 1.391 . S
C592 C594 1.394 . S
C592 H608 0.931 . S
C593 C592 1.391 . S
C593 C597 1.376 . S
C594 C592 1.394 . S
C594 C595 1.369 . S
C594 C598 1.531 . S
C595 C594 1.369 . S
C595 C596 1.410 . S
C595 C603 1.503 1_556 S
C596 C595 1.410 . S
C596 C597 1.392 . S
C596 C599 1.511 1_556 S
C597 C593 1.376 . S
C597 C596 1.392 . S
C597 H609 0.929 . S
C598 C594 1.531 . S
C598 H610 0.960 . S
C598 H611 0.962 . S
C598 H612 0.960 . S
C599 C596 1.511 1_554 S
C599 H613 0.961 . S
C599 H614 0.961 . S
C599 H615 0.961 1_554 S
C600 C601 1.370 . S
C600 C602 1.363 . S
C600 H616 0.931 . S
C601 C600 1.370 . S
C601 C605 1.408 . S
C602 C600 1.363 . S
C602 C603 1.370 . S
C602 C606 1.524 . S
C603 C595 1.503 1_554 S
C603 C602 1.370 . S
C603 C604 1.403 1_554 S
C604 C603 1.403 1_556 S
C604 C605 1.404 1_556 S
C604 C607 1.539 . S
C605 C601 1.408 . S
C605 C604 1.404 1_554 S
C605 H617 0.930 . S
C606 C602 1.524 . S
C606 H618 0.956 . S
C606 H619 0.961 . S
C606 H620 0.961 . S
C607 C604 1.539 . S
C607 H621 0.958 . S
C607 H622 0.961 . S
C607 H623 0.960 . S
H608 C592 0.931 . S
H609 C597 0.929 . S
H610 C598 0.960 . S
H611 C598 0.962 . S
H612 C598 0.960 . S
H613 C599 0.961 . S
H614 C599 0.961 . S
H615 C599 0.961 1_556 S
H616 C600 0.931 . S
H617 C605 0.930 . S
H618 C606 0.956 . S
H619 C606 0.961 . S
H620 C606 0.961 . S
H621 C607 0.958 . S
H622 C607 0.961 . S
H623 C607 0.960 . S
C624 C625 1.391 1_554 S
C624 C626 1.394 . S
C624 H640 0.931 . S
C625 C624 1.391 1_556 S
C625 C629 1.376 . S
C626 C624 1.394 . S
C626 C627 1.369 . S
C626 C630 1.531 . S
C627 C626 1.369 . S
C627 C628 1.410 1_554 S
C627 C635 1.503 . S
C628 C627 1.410 1_556 S
C628 C629 1.392 . S
C628 C631 1.511 . S
C629 C625 1.376 . S
C629 C628 1.392 . S
C629 H641 0.929 . S
C630 C626 1.531 . S
C630 H642 0.960 . S
C630 H643 0.962 . S
C630 H644 0.960 . S
C631 C628 1.511 . S
C631 H645 0.961 . S
C631 H646 0.961 . S
C631 H647 0.961 . S
C632 C633 1.370 . S
C632 C634 1.363 . S
C632 H648 0.931 1_554 S
C633 C632 1.370 . S
C633 C637 1.408 . S
C634 C632 1.363 . S
C634 C635 1.370 . S
C634 C638 1.524 1_554 S
C635 C627 1.503 . S
C635 C634 1.370 . S
C635 C636 1.403 . S
C636 C635 1.403 . S
C636 C637 1.404 . S
C636 C639 1.539 . S
C637 C633 1.408 . S
C637 C636 1.404 . S
C637 H649 0.930 . S
C638 C634 1.524 1_556 S
C638 H650 0.956 . S
C638 H651 0.961 . S
C638 H652 0.961 . S
C639 C636 1.539 . S
C639 H653 0.958 . S
C639 H654 0.961 . S
C639 H655 0.960 . S
H640 C624 0.931 . S
H641 C629 0.929 . S
H642 C630 0.960 . S
H643 C630 0.962 . S
H644 C630 0.960 . S
H645 C631 0.961 . S
H646 C631 0.961 . S
H647 C631 0.961 . S
H648 C632 0.931 1_556 S
H649 C637 0.930 . S
H650 C638 0.956 . S
H651 C638 0.961 . S
H652 C638 0.961 . S
H653 C639 0.958 . S
H654 C639 0.961 . S
H655 C639 0.960 . S
C656 C657 1.391 . S
C656 C658 1.394 . S
C656 H672 0.931 . S
C657 C656 1.391 . S
C657 C661 1.376 . S
C658 C656 1.394 . S
C658 C659 1.369 . S
C658 C662 1.531 . S
C659 C658 1.369 . S
C659 C660 1.410 . S
C659 C667 1.503 . S
C660 C659 1.410 . S
C660 C661 1.392 . S
C660 C663 1.511 . S
C661 C657 1.376 . S
C661 C660 1.392 . S
C661 H673 0.929 . S
C662 C658 1.531 . S
C662 H674 0.960 . S
C662 H675 0.962 . S
C662 H676 0.960 . S
C663 C660 1.511 . S
C663 H677 0.961 . S
C663 H678 0.961 . S
C663 H679 0.961 . S
C664 C665 1.370 . S
C664 C666 1.363 . S
C664 H680 0.931 . S
C665 C664 1.370 . S
C665 C669 1.408 . S
C666 C664 1.363 . S
C666 C667 1.370 . S
C666 C670 1.524 . S
C667 C659 1.503 . S
C667 C666 1.370 . S
C667 C668 1.403 . S
C668 C667 1.403 . S
C668 C669 1.404 . S
C668 C671 1.539 . S
C669 C665 1.408 . S
C669 C668 1.404 . S
C669 H681 0.930 . S
C670 C666 1.524 . S
C670 H682 0.956 . S
C670 H683 0.961 . S
C670 H684 0.961 . S
C671 C668 1.539 . S
C671 H685 0.958 . S
C671 H686 0.961 . S
C671 H687 0.960 . S
H672 C656 0.931 . S
H673 C661 0.929 . S
H674 C662 0.960 . S
H675 C662 0.962 . S
H676 C662 0.960 . S
H677 C663 0.961 . S
H678 C663 0.961 . S
H679 C663 0.961 . S
H680 C664 0.931 . S
H681 C669 0.930 . S
H682 C670 0.956 . S
H683 C670 0.961 . S
H684 C670 0.961 . S
H685 C671 0.958 . S
H686 C671 0.961 . S
H687 C671 0.960 . S
C688 C689 1.391 . S
C688 C690 1.394 . S
C688 H704 0.931 . S
C689 C688 1.391 . S
C689 C693 1.376 . S
C690 C688 1.394 . S
C690 C691 1.369 . S
C690 C694 1.531 . S
C691 C690 1.369 . S
C691 C692 1.410 . S
C691 C699 1.503 . S
C692 C691 1.410 . S
C692 C693 1.392 . S
C692 C695 1.511 . S
C693 C689 1.376 . S
C693 C692 1.392 . S
C693 H705 0.929 . S
C694 C690 1.531 . S
C694 H706 0.960 . S
C694 H707 0.962 . S
C694 H708 0.960 . S
C695 C692 1.511 . S
C695 H709 0.961 . S
C695 H710 0.961 . S
C695 H711 0.961 . S
C696 C697 1.370 . S
C696 C698 1.363 . S
C696 H712 0.931 . S
C697 C696 1.370 . S
C697 C701 1.408 . S
C698 C696 1.363 . S
C698 C699 1.370 . S
C698 C702 1.524 . S
C699 C691 1.503 . S
C699 C698 1.370 . S
C699 C700 1.403 . S
C700 C699 1.403 . S
C700 C701 1.404 . S
C700 C703 1.539 . S
C701 C697 1.408 . S
C701 C700 1.404 . S
C701 H713 0.930 . S
C702 C698 1.524 . S
C702 H714 0.956 . S
C702 H715 0.961 . S
C702 H716 0.961 . S
C703 C700 1.539 . S
C703 H717 0.958 . S
C703 H718 0.961 . S
C703 H719 0.960 . S
H704 C688 0.931 . S
H705 C693 0.929 . S
H706 C694 0.960 . S
H707 C694 0.962 . S
H708 C694 0.960 . S
H709 C695 0.961 . S
H710 C695 0.961 . S
H711 C695 0.961 . S
H712 C696 0.931 . S
H713 C701 0.930 . S
H714 C702 0.956 . S
H715 C702 0.961 . S
H716 C702 0.961 . S
H717 C703 0.958 . S
H718 C703 0.961 . S
H719 C703 0.960 . S
C720 C721 1.391 . S
C720 C722 1.394 . S
C720 H736 0.931 . S
C721 C720 1.391 . S
C721 C725 1.376 . S
C722 C720 1.394 . S
C722 C723 1.369 . S
C722 C726 1.531 . S
C723 C722 1.369 . S
C723 C724 1.410 . S
C723 C731 1.503 . S
C724 C723 1.410 . S
C724 C725 1.392 . S
C724 C727 1.511 . S
C725 C721 1.376 . S
C725 C724 1.392 . S
C725 H737 0.929 . S
C726 C722 1.531 . S
C726 H738 0.960 . S
C726 H739 0.962 . S
C726 H740 0.960 . S
C727 C724 1.511 . S
C727 H741 0.961 . S
C727 H742 0.961 . S
C727 H743 0.961 . S
C728 C729 1.370 . S
C728 C730 1.363 . S
C728 H744 0.931 . S
C729 C728 1.370 . S
C729 C733 1.408 . S
C730 C728 1.363 . S
C730 C731 1.370 . S
C730 C734 1.524 . S
C731 C723 1.503 . S
C731 C730 1.370 . S
C731 C732 1.403 . S
C732 C731 1.403 . S
C732 C733 1.404 . S
C732 C735 1.539 . S
C733 C729 1.408 . S
C733 C732 1.404 . S
C733 H745 0.930 . S
C734 C730 1.524 . S
C734 H746 0.956 . S
C734 H747 0.961 . S
C734 H748 0.961 . S
C735 C732 1.539 . S
C735 H749 0.958 . S
C735 H750 0.961 . S
C735 H751 0.960 . S
H736 C720 0.931 . S
H737 C725 0.929 . S
H738 C726 0.960 . S
H739 C726 0.962 . S
H740 C726 0.960 . S
H741 C727 0.961 . S
H742 C727 0.961 . S
H743 C727 0.961 . S
H744 C728 0.931 . S
H745 C733 0.930 . S
H746 C734 0.956 . S
H747 C734 0.961 . S
H748 C734 0.961 . S
H749 C735 0.958 . S
H750 C735 0.961 . S
H751 C735 0.960 . S
C752 C753 1.391 . S
C752 C754 1.394 . S
C752 H768 0.931 . S
C753 C752 1.391 . S
C753 C757 1.376 . S
C754 C752 1.394 . S
C754 C755 1.369 . S
C754 C758 1.531 . S
C755 C754 1.369 . S
C755 C756 1.410 . S
C755 C763 1.503 . S
C756 C755 1.410 . S
C756 C757 1.392 . S
C756 C759 1.511 . S
C757 C753 1.376 . S
C757 C756 1.392 . S
C757 H769 0.929 . S
C758 C754 1.531 . S
C758 H770 0.960 . S
C758 H771 0.962 . S
C758 H772 0.960 . S
C759 C756 1.511 . S
C759 H773 0.961 . S
C759 H774 0.961 . S
C759 H775 0.961 . S
C760 C761 1.370 . S
C760 C762 1.363 . S
C760 H776 0.931 . S
C761 C760 1.370 . S
C761 C765 1.408 . S
C762 C760 1.363 . S
C762 C763 1.370 . S
C762 C766 1.524 . S
C763 C755 1.503 . S
C763 C762 1.370 . S
C763 C764 1.403 . S
C764 C763 1.403 . S
C764 C765 1.404 . S
C764 C767 1.539 . S
C765 C761 1.408 . S
C765 C764 1.404 . S
C765 H777 0.930 . S
C766 C762 1.524 . S
C766 H778 0.956 . S
C766 H779 0.961 . S
C766 H780 0.961 . S
C767 C764 1.539 . S
C767 H781 0.958 . S
C767 H782 0.961 . S
C767 H783 0.960 . S
H768 C752 0.931 . S
H769 C757 0.929 . S
H770 C758 0.960 . S
H771 C758 0.962 . S
H772 C758 0.960 . S
H773 C759 0.961 . S
H774 C759 0.961 . S
H775 C759 0.961 . S
H776 C760 0.931 . S
H777 C765 0.930 . S
H778 C766 0.956 . S
H779 C766 0.961 . S
H780 C766 0.961 . S
H781 C767 0.958 . S
H782 C767 0.961 . S
H783 C767 0.960 . S
C784 C785 1.391 . S
C784 C786 1.394 . S
C784 H800 0.931 . S
C785 C784 1.391 . S
C785 C789 1.376 . S
C786 C784 1.394 . S
C786 C787 1.369 . S
C786 C790 1.531 . S
C787 C786 1.369 . S
C787 C788 1.410 . S
C787 C795 1.503 . S
C788 C787 1.410 . S
C788 C789 1.392 . S
C788 C791 1.511 . S
C789 C785 1.376 . S
C789 C788 1.392 . S
C789 H801 0.929 . S
C790 C786 1.531 . S
C790 H802 0.960 . S
C790 H803 0.962 . S
C790 H804 0.960 . S
C791 C788 1.511 . S
C791 H805 0.961 . S
C791 H806 0.961 . S
C791 H807 0.961 . S
C792 C793 1.370 . S
C792 C794 1.363 . S
C792 H808 0.931 . S
C793 C792 1.370 . S
C793 C797 1.408 . S
C794 C792 1.363 . S
C794 C795 1.370 . S
C794 C798 1.524 . S
C795 C787 1.503 . S
C795 C794 1.370 . S
C795 C796 1.403 . S
C796 C795 1.403 . S
C796 C797 1.404 . S
C796 C799 1.539 . S
C797 C793 1.408 . S
C797 C796 1.404 . S
C797 H809 0.930 . S
C798 C794 1.524 . S
C798 H810 0.956 . S
C798 H811 0.961 . S
C798 H812 0.961 . S
C799 C796 1.539 . S
C799 H813 0.958 . S
C799 H814 0.961 . S
C799 H815 0.960 . S
H800 C784 0.931 . S
H801 C789 0.929 . S
H802 C790 0.960 . S
H803 C790 0.962 . S
H804 C790 0.960 . S
H805 C791 0.961 . S
H806 C791 0.961 . S
H807 C791 0.961 . S
H808 C792 0.931 . S
H809 C797 0.930 . S
H810 C798 0.956 . S
H811 C798 0.961 . S
H812 C798 0.961 . S
H813 C799 0.958 . S
H814 C799 0.961 . S
H815 C799 0.960 . S
C816 C817 1.391 . S
C816 C818 1.394 . S
C816 H832 0.931 . S
C817 C816 1.391 . S
C817 C821 1.376 . S
C818 C816 1.394 . S
C818 C819 1.369 . S
C818 C822 1.531 . S
C819 C818 1.369 . S
C819 C820 1.410 . S
C819 C827 1.503 . S
C820 C819 1.410 . S
C820 C821 1.392 . S
C820 C823 1.511 . S
C821 C817 1.376 . S
C821 C820 1.392 . S
C821 H833 0.929 . S
C822 C818 1.531 . S
C822 H834 0.960 . S
C822 H835 0.962 . S
C822 H836 0.960 . S
C823 C820 1.511 . S
C823 H837 0.961 . S
C823 H838 0.961 . S
C823 H839 0.961 . S
C824 C825 1.370 . S
C824 C826 1.363 . S
C824 H840 0.931 . S
C825 C824 1.370 . S
C825 C829 1.408 . S
C826 C824 1.363 . S
C826 C827 1.370 . S
C826 C830 1.524 . S
C827 C819 1.503 . S
C827 C826 1.370 . S
C827 C828 1.403 . S
C828 C827 1.403 . S
C828 C829 1.404 . S
C828 C831 1.539 . S
C829 C825 1.408 . S
C829 C828 1.404 . S
C829 H841 0.930 . S
C830 C826 1.524 . S
C830 H842 0.956 . S
C830 H843 0.961 . S
C830 H844 0.961 . S
C831 C828 1.539 . S
C831 H845 0.958 . S
C831 H846 0.961 . S
C831 H847 0.960 . S
H832 C816 0.931 . S
H833 C821 0.929 . S
H834 C822 0.960 . S
H835 C822 0.962 . S
H836 C822 0.960 . S
H837 C823 0.961 . S
H838 C823 0.961 . S
H839 C823 0.961 . S
H840 C824 0.931 . S
H841 C829 0.930 . S
H842 C830 0.956 . S
H843 C830 0.961 . S
H844 C830 0.961 . S
H845 C831 0.958 . S
H846 C831 0.961 . S
H847 C831 0.960 . S
C848 C849 1.391 . S
C848 C850 1.394 . S
C848 H864 0.931 . S
C849 C848 1.391 . S
C849 C853 1.376 . S
C850 C848 1.394 . S
C850 C851 1.369 . S
C850 C854 1.531 . S
C851 C850 1.369 . S
C851 C852 1.410 . S
C851 C859 1.503 . S
C852 C851 1.410 . S
C852 C853 1.392 . S
C852 C855 1.511 . S
C853 C849 1.376 . S
C853 C852 1.392 . S
C853 H865 0.929 . S
C854 C850 1.531 . S
C854 H866 0.960 . S
C854 H867 0.962 . S
C854 H868 0.960 . S
C855 C852 1.511 . S
C855 H869 0.961 . S
C855 H870 0.961 . S
C855 H871 0.961 . S
C856 C857 1.370 . S
C856 C858 1.363 . S
C856 H872 0.931 . S
C857 C856 1.370 . S
C857 C861 1.408 1_565 S
C858 C856 1.363 . S
C858 C859 1.370 . S
C858 C862 1.524 . S
C859 C851 1.503 . S
C859 C858 1.370 . S
C859 C860 1.403 1_565 S
C860 C859 1.403 1_545 S
C860 C861 1.404 . S
C860 C863 1.539 . S
C861 C857 1.408 1_545 S
C861 C860 1.404 . S
C861 H873 0.930 . S
C862 C858 1.524 . S
C862 H874 0.956 . S
C862 H875 0.961 . S
C862 H876 0.961 . S
C863 C860 1.539 . S
C863 H877 0.958 . S
C863 H878 0.961 . S
C863 H879 0.960 . S
H864 C848 0.931 . S
H865 C853 0.929 . S
H866 C854 0.960 . S
H867 C854 0.962 . S
H868 C854 0.960 . S
H869 C855 0.961 . S
H870 C855 0.961 . S
H871 C855 0.961 . S
H872 C856 0.931 . S
H873 C861 0.930 . S
H874 C862 0.956 . S
H875 C862 0.961 . S
H876 C862 0.961 . S
H877 C863 0.958 . S
H878 C863 0.961 . S
H879 C863 0.960 . S
C880 C881 1.391 . S
C880 C882 1.394 . S
C880 H896 0.931 . S
C881 C880 1.391 . S
C881 C885 1.376 . S
C882 C880 1.394 . S
C882 C883 1.369 . S
C882 C886 1.531 . S
C883 C882 1.369 . S
C883 C884 1.410 . S
C883 C891 1.503 . S
C884 C883 1.410 . S
C884 C885 1.392 . S
C884 C887 1.511 . S
C885 C881 1.376 . S
C885 C884 1.392 . S
C885 H897 0.929 . S
C886 C882 1.531 . S
C886 H898 0.960 . S
C886 H899 0.962 . S
C886 H900 0.960 . S
C887 C884 1.511 . S
C887 H901 0.961 . S
C887 H902 0.961 . S
C887 H903 0.961 . S
C888 C889 1.370 . S
C888 C890 1.363 . S
C888 H904 0.931 . S
C889 C888 1.370 . S
C889 C893 1.408 . S
C890 C888 1.363 . S
C890 C891 1.370 . S
C890 C894 1.524 . S
C891 C883 1.503 . S
C891 C890 1.370 . S
C891 C892 1.403 . S
C892 C891 1.403 . S
C892 C893 1.404 . S
C892 C895 1.539 . S
C893 C889 1.408 . S
C893 C892 1.404 . S
C893 H905 0.930 . S
C894 C890 1.524 . S
C894 H906 0.956 . S
C894 H907 0.961 . S
C894 H908 0.961 . S
C895 C892 1.539 . S
C895 H909 0.958 . S
C895 H910 0.961 . S
C895 H911 0.960 . S
H896 C880 0.931 . S
H897 C885 0.929 . S
H898 C886 0.960 . S
H899 C886 0.962 . S
H900 C886 0.960 . S
H901 C887 0.961 . S
H902 C887 0.961 . S
H903 C887 0.961 . S
H904 C888 0.931 . S
H905 C893 0.930 . S
H906 C894 0.956 . S
H907 C894 0.961 . S
H908 C894 0.961 . S
H909 C895 0.958 . S
H910 C895 0.961 . S
H911 C895 0.960 . S
C912 C913 1.391 . S
C912 C914 1.394 . S
C912 H928 0.931 . S
C913 C912 1.391 . S
C913 C917 1.376 . S
C914 C912 1.394 . S
C914 C915 1.369 . S
C914 C918 1.531 . S
C915 C914 1.369 . S
C915 C916 1.410 . S
C915 C923 1.503 . S
C916 C915 1.410 . S
C916 C917 1.392 . S
C916 C919 1.511 . S
C917 C913 1.376 . S
C917 C916 1.392 . S
C917 H929 0.929 . S
C918 C914 1.531 . S
C918 H930 0.960 . S
C918 H931 0.962 . S
C918 H932 0.960 . S
C919 C916 1.511 . S
C919 H933 0.961 . S
C919 H934 0.961 . S
C919 H935 0.961 . S
C920 C921 1.370 . S
C920 C922 1.363 . S
C920 H936 0.931 . S
C921 C920 1.370 . S
C921 C925 1.408 . S
C922 C920 1.363 . S
C922 C923 1.370 . S
C922 C926 1.524 . S
C923 C915 1.503 . S
C923 C922 1.370 . S
C923 C924 1.403 . S
C924 C923 1.403 . S
C924 C925 1.404 . S
C924 C927 1.539 . S
C925 C921 1.408 . S
C925 C924 1.404 . S
C925 H937 0.930 . S
C926 C922 1.524 . S
C926 H938 0.956 . S
C926 H939 0.961 . S
C926 H940 0.961 . S
C927 C924 1.539 . S
C927 H941 0.958 . S
C927 H942 0.961 . S
C927 H943 0.960 . S
H928 C912 0.931 . S
H929 C917 0.929 . S
H930 C918 0.960 . S
H931 C918 0.962 . S
H932 C918 0.960 . S
H933 C919 0.961 . S
H934 C919 0.961 . S
H935 C919 0.961 . S
H936 C920 0.931 . S
H937 C925 0.930 . S
H938 C926 0.956 . S
H939 C926 0.961 . S
H940 C926 0.961 . S
H941 C927 0.958 . S
H942 C927 0.961 . S
H943 C927 0.960 . S
C944 C945 1.391 . S
C944 C946 1.394 . S
C944 H960 0.931 . S
C945 C944 1.391 . S
C945 C949 1.376 . S
C946 C944 1.394 . S
C946 C947 1.369 . S
C946 C950 1.531 . S
C947 C946 1.369 . S
C947 C948 1.410 . S
C947 C955 1.503 . S
C948 C947 1.410 . S
C948 C949 1.392 . S
C948 C951 1.511 . S
C949 C945 1.376 . S
C949 C948 1.392 . S
C949 H961 0.929 . S
C950 C946 1.531 . S
C950 H962 0.960 . S
C950 H963 0.962 . S
C950 H964 0.960 . S
C951 C948 1.511 . S
C951 H965 0.961 . S
C951 H966 0.961 . S
C951 H967 0.961 . S
C952 C953 1.370 . S
C952 C954 1.363 . S
C952 H968 0.931 . S
C953 C952 1.370 . S
C953 C957 1.408 . S
C954 C952 1.363 . S
C954 C955 1.370 . S
C954 C958 1.524 . S
C955 C947 1.503 . S
C955 C954 1.370 . S
C955 C956 1.403 . S
C956 C955 1.403 . S
C956 C957 1.404 . S
C956 C959 1.539 . S
C957 C953 1.408 . S
C957 C956 1.404 . S
C957 H969 0.930 . S
C958 C954 1.524 . S
C958 H970 0.956 . S
C958 H971 0.961 . S
C958 H972 0.961 . S
C959 C956 1.539 . S
C959 H973 0.958 . S
C959 H974 0.961 . S
C959 H975 0.960 . S
H960 C944 0.931 . S
H961 C949 0.929 . S
H962 C950 0.960 . S
H963 C950 0.962 . S
H964 C950 0.960 . S
H965 C951 0.961 . S
H966 C951 0.961 . S
H967 C951 0.961 . S
H968 C952 0.931 . S
H969 C957 0.930 . S
H970 C958 0.956 . S
H971 C958 0.961 . S
H972 C958 0.961 . S
H973 C959 0.958 . S
H974 C959 0.961 . S
H975 C959 0.960 . S
C976 C977 1.391 . S
C976 C978 1.394 . S
C976 H992 0.931 . S
C977 C976 1.391 . S
C977 C981 1.376 . S
C978 C976 1.394 . S
C978 C979 1.369 . S
C978 C982 1.531 . S
C979 C978 1.369 . S
C979 C980 1.410 1_556 S
C979 C987 1.503 1_556 S
C980 C979 1.410 1_554 S
C980 C981 1.392 1_554 S
C980 C983 1.511 . S
C981 C977 1.376 . S
C981 C980 1.392 1_556 S
C981 H993 0.929 1_556 S
C982 C978 1.531 . S
C982 H994 0.960 . S
C982 H995 0.962 . S
C982 H996 0.960 . S
C983 C980 1.511 . S
C983 H997 0.961 . S
C983 H998 0.961 . S
C983 H999 0.961 . S
C984 C985 1.370 . S
C984 C986 1.363 . S
C984 H1000 0.931 . S
C985 C984 1.370 . S
C985 C989 1.408 . S
C986 C984 1.363 . S
C986 C987 1.370 . S
C986 C990 1.524 1_554 S
C987 C979 1.503 1_554 S
C987 C986 1.370 . S
C987 C988 1.403 . S
C988 C987 1.403 . S
C988 C989 1.404 . S
C988 C991 1.539 . S
C989 C985 1.408 . S
C989 C988 1.404 . S
C989 H1001 0.930 . S
C990 C986 1.524 1_556 S
C990 H1002 0.956 . S
C990 H1003 0.961 . S
C990 H1004 0.961 . S
C991 C988 1.539 . S
C991 H1005 0.958 . S
C991 H1006 0.961 . S
C991 H1007 0.960 . S
H992 C976 0.931 . S
H993 C981 0.929 1_554 S
H994 C982 0.960 . S
H995 C982 0.962 . S
H996 C982 0.960 . S
H997 C983 0.961 . S
H998 C983 0.961 . S
H999 C983 0.961 . S
H1000 C984 0.931 . S
H1001 C989 0.930 . S
H1002 C990 0.956 . S
H1003 C990 0.961 . S
H1004 C990 0.961 . S
H1005 C991 0.958 . S
H1006 C991 0.961 . S
H1007 C991 0.960 . S
C1008 C1009 1.391 1_556 S
C1008 C1010 1.394 . S
C1008 H1024 0.931 . S
C1009 C1008 1.391 1_554 S
C1009 C1013 1.376 . S
C1010 C1008 1.394 . S
C1010 C1011 1.369 . S
C1010 C1014 1.531 . S
C1011 C1010 1.369 . S
C1011 C1012 1.410 . S
C1011 C1019 1.503 . S
C1012 C1011 1.410 . S
C1012 C1013 1.392 1_556 S
C1012 C1015 1.511 . S
C1013 C1009 1.376 . S
C1013 C1012 1.392 1_554 S
C1013 H1025 0.929 . S
C1014 C1010 1.531 . S
C1014 H1026 0.960 . S
C1014 H1027 0.962 . S
C1014 H1028 0.960 . S
C1015 C1012 1.511 . S
C1015 H1029 0.961 1_556 S
C1015 H1030 0.961 . S
C1015 H1031 0.961 . S
C1016 C1017 1.370 . S
C1016 C1018 1.363 . S
C1016 H1032 0.931 . S
C1017 C1016 1.370 . S
C1017 C1021 1.408 . S
C1018 C1016 1.363 . S
C1018 C1019 1.370 . S
C1018 C1022 1.507 1_556 S
C1019 C1011 1.503 . S
C1019 C1018 1.370 . S
C1019 C1020 1.403 . S
C1020 C1019 1.403 . S
C1020 C1021 1.404 . S
C1020 C1023 1.539 . S
C1021 C1017 1.408 . S
C1021 C1020 1.404 . S
C1021 H1033 0.930 . S
C1022 C1018 1.507 1_554 S
C1022 H1034 0.958 . S
C1022 H1035 0.972 . S
C1022 H1036 0.965 . S
C1023 C1020 1.539 . S
C1023 H1037 0.958 . S
C1023 H1038 0.961 . S
C1023 H1039 0.960 . S
H1024 C1008 0.931 . S
H1025 C1013 0.929 . S
H1026 C1014 0.960 . S
H1027 C1014 0.962 . S
H1028 C1014 0.960 . S
H1029 C1015 0.961 1_554 S
H1030 C1015 0.961 . S
H1031 C1015 0.961 . S
H1032 C1016 0.931 . S
H1033 C1021 0.930 . S
H1034 C1022 0.958 . S
H1035 C1022 0.972 . S
H1036 C1022 0.965 . S
H1037 C1023 0.958 . S
H1038 C1023 0.961 . S
H1039 C1023 0.960 . S
C1040 C1041 1.391 . S
C1040 C1042 1.394 . S
C1040 H1056 0.931 . S
C1041 C1040 1.391 . S
C1041 C1045 1.376 . S
C1042 C1040 1.394 . S
C1042 C1043 1.369 . S
C1042 C1046 1.531 . S
C1043 C1042 1.369 . S
C1043 C1044 1.410 . S
C1043 C1051 1.503 . S
C1044 C1043 1.410 . S
C1044 C1045 1.392 . S
C1044 C1047 1.511 . S
C1045 C1041 1.376 . S
C1045 C1044 1.392 . S
C1045 H1057 0.929 . S
C1046 C1042 1.531 . S
C1046 H1058 0.960 . S
C1046 H1059 0.962 . S
C1046 H1060 0.960 . S
C1047 C1044 1.511 . S
C1047 H1061 0.961 . S
C1047 H1062 0.961 . S
C1047 H1063 0.961 . S
C1048 C1049 1.370 . S
C1048 C1050 1.363 . S
C1048 H1064 0.931 . S
C1049 C1048 1.370 . S
C1049 C1053 1.408 . S
C1050 C1048 1.363 . S
C1050 C1051 1.370 . S
C1050 C1054 1.524 . S
C1051 C1043 1.503 . S
C1051 C1050 1.370 . S
C1051 C1052 1.403 . S
C1052 C1051 1.403 . S
C1052 C1053 1.404 . S
C1052 C1055 1.539 . S
C1053 C1049 1.408 . S
C1053 C1052 1.404 . S
C1053 H1065 0.930 . S
C1054 C1050 1.524 . S
C1054 H1066 0.956 . S
C1054 H1067 0.961 . S
C1054 H1068 0.961 . S
C1055 C1052 1.539 . S
C1055 H1069 0.958 . S
C1055 H1070 0.961 . S
C1055 H1071 0.960 . S
H1056 C1040 0.931 . S
H1057 C1045 0.929 . S
H1058 C1046 0.960 . S
H1059 C1046 0.962 . S
H1060 C1046 0.960 . S
H1061 C1047 0.961 . S
H1062 C1047 0.961 . S
H1063 C1047 0.961 . S
H1064 C1048 0.931 . S
H1065 C1053 0.930 . S
H1066 C1054 0.956 . S
H1067 C1054 0.961 . S
H1068 C1054 0.961 . S
H1069 C1055 0.958 . S
H1070 C1055 0.961 . S
H1071 C1055 0.960 . S
C1072 C1073 1.391 . S
C1072 C1074 1.394 . S
C1072 H1088 0.931 . S
C1073 C1072 1.391 . S
C1073 C1077 1.376 . S
C1074 C1072 1.394 . S
C1074 C1075 1.369 . S
C1074 C1078 1.531 . S
C1075 C1074 1.369 . S
C1075 C1076 1.410 . S
C1075 C1083 1.503 . S
C1076 C1075 1.410 . S
C1076 C1077 1.392 . S
C1076 C1079 1.511 . S
C1077 C1073 1.376 . S
C1077 C1076 1.392 . S
C1077 H1089 0.929 . S
C1078 C1074 1.531 . S
C1078 H1090 0.960 . S
C1078 H1091 0.962 . S
C1078 H1092 0.960 . S
C1079 C1076 1.511 . S
C1079 H1093 0.961 . S
C1079 H1094 0.961 . S
C1079 H1095 0.961 . S
C1080 C1081 1.370 . S
C1080 C1082 1.363 . S
C1080 H1096 0.931 . S
C1081 C1080 1.370 . S
C1081 C1085 1.408 . S
C1082 C1080 1.363 . S
C1082 C1083 1.370 . S
C1082 C1086 1.524 . S
C1083 C1075 1.503 . S
C1083 C1082 1.370 . S
C1083 C1084 1.403 . S
C1084 C1083 1.403 . S
C1084 C1085 1.404 . S
C1084 C1087 1.539 . S
C1085 C1081 1.408 . S
C1085 C1084 1.404 . S
C1085 H1097 0.930 . S
C1086 C1082 1.524 . S
C1086 H1098 0.956 . S
C1086 H1099 0.961 . S
C1086 H1100 0.961 . S
C1087 C1084 1.539 . S
C1087 H1101 0.958 . S
C1087 H1102 0.961 . S
C1087 H1103 0.960 . S
H1088 C1072 0.931 . S
H1089 C1077 0.929 . S
H1090 C1078 0.960 . S
H1091 C1078 0.962 . S
H1092 C1078 0.960 . S
H1093 C1079 0.961 . S
H1094 C1079 0.961 . S
H1095 C1079 0.961 . S
H1096 C1080 0.931 . S
H1097 C1085 0.930 . S
H1098 C1086 0.956 . S
H1099 C1086 0.961 . S
H1100 C1086 0.961 . S
H1101 C1087 0.958 . S
H1102 C1087 0.961 . S
H1103 C1087 0.960 . S
C1104 C1105 1.391 . S
C1104 C1106 1.394 . S
C1104 H1120 0.931 . S
C1105 C1104 1.391 . S
C1105 C1109 1.376 . S
C1106 C1104 1.394 . S
C1106 C1107 1.369 . S
C1106 C1110 1.531 . S
C1107 C1106 1.369 . S
C1107 C1108 1.410 . S
C1107 C1115 1.503 . S
C1108 C1107 1.410 . S
C1108 C1109 1.392 . S
C1108 C1111 1.511 . S
C1109 C1105 1.376 . S
C1109 C1108 1.392 . S
C1109 H1121 0.929 . S
C1110 C1106 1.531 . S
C1110 H1122 0.960 . S
C1110 H1123 0.962 . S
C1110 H1124 0.960 . S
C1111 C1108 1.511 . S
C1111 H1125 0.961 . S
C1111 H1126 0.961 . S
C1111 H1127 0.961 . S
C1112 C1113 1.370 . S
C1112 C1114 1.363 . S
C1112 H1128 0.931 . S
C1113 C1112 1.370 . S
C1113 C1117 1.408 . S
C1114 C1112 1.363 . S
C1114 C1115 1.370 . S
C1114 C1118 1.524 . S
C1115 C1107 1.503 . S
C1115 C1114 1.370 . S
C1115 C1116 1.403 . S
C1116 C1115 1.403 . S
C1116 C1117 1.404 . S
C1116 C1119 1.539 . S
C1117 C1113 1.408 . S
C1117 C1116 1.404 . S
C1117 H1129 0.930 . S
C1118 C1114 1.524 . S
C1118 H1130 0.956 . S
C1118 H1131 0.961 . S
C1118 H1132 0.961 . S
C1119 C1116 1.539 . S
C1119 H1133 0.958 . S
C1119 H1134 0.961 . S
C1119 H1135 0.960 . S
H1120 C1104 0.931 . S
H1121 C1109 0.929 . S
H1122 C1110 0.960 . S
H1123 C1110 0.962 . S
H1124 C1110 0.960 . S
H1125 C1111 0.961 . S
H1126 C1111 0.961 . S
H1127 C1111 0.961 . S
H1128 C1112 0.931 . S
H1129 C1117 0.930 . S
H1130 C1118 0.956 . S
H1131 C1118 0.961 . S
H1132 C1118 0.961 . S
H1133 C1119 0.958 . S
H1134 C1119 0.961 . S
H1135 C1119 0.960 . S
C1136 C1137 1.391 . S
C1136 C1138 1.394 . S
C1136 H1152 0.931 . S
C1137 C1136 1.391 . S
C1137 C1141 1.376 . S
C1138 C1136 1.394 . S
C1138 C1139 1.369 . S
C1138 C1142 1.531 . S
C1139 C1138 1.369 . S
C1139 C1140 1.410 . S
C1139 C1147 1.503 . S
C1140 C1139 1.410 . S
C1140 C1141 1.392 . S
C1140 C1143 1.511 . S
C1141 C1137 1.376 . S
C1141 C1140 1.392 . S
C1141 H1153 0.929 . S
C1142 C1138 1.531 . S
C1142 H1154 0.960 . S
C1142 H1155 0.962 . S
C1142 H1156 0.960 . S
C1143 C1140 1.511 . S
C1143 H1157 0.961 . S
C1143 H1158 0.961 . S
C1143 H1159 0.961 . S
C1144 C1145 1.370 . S
C1144 C1146 1.363 . S
C1144 H1160 0.931 . S
C1145 C1144 1.370 . S
C1145 C1149 1.408 . S
C1146 C1144 1.363 . S
C1146 C1147 1.370 . S
C1146 C1150 1.524 . S
C1147 C1139 1.503 . S
C1147 C1146 1.370 . S
C1147 C1148 1.403 . S
C1148 C1147 1.403 . S
C1148 C1149 1.404 . S
C1148 C1151 1.539 . S
C1149 C1145 1.408 . S
C1149 C1148 1.404 . S
C1149 H1161 0.930 . S
C1150 C1146 1.524 . S
C1150 H1162 0.956 . S
C1150 H1163 0.961 . S
C1150 H1164 0.961 . S
C1151 C1148 1.539 . S
C1151 H1165 0.958 . S
C1151 H1166 0.961 . S
C1151 H1167 0.960 . S
H1152 C1136 0.931 . S
H1153 C1141 0.929 . S
H1154 C1142 0.960 . S
H1155 C1142 0.962 . S
H1156 C1142 0.960 . S
H1157 C1143 0.961 . S
H1158 C1143 0.961 . S
H1159 C1143 0.961 . S
H1160 C1144 0.931 . S
H1161 C1149 0.930 . S
H1162 C1150 0.956 . S
H1163 C1150 0.961 . S
H1164 C1150 0.961 . S
H1165 C1151 0.958 . S
H1166 C1151 0.961 . S
H1167 C1151 0.960 . S
C1168 C1169 1.391 . S
C1168 C1170 1.394 . S
C1168 H1184 0.931 . S
C1169 C1168 1.391 . S
C1169 C1173 1.376 . S
C1170 C1168 1.394 . S
C1170 C1171 1.369 . S
C1170 C1174 1.531 . S
C1171 C1170 1.369 . S
C1171 C1172 1.410 . S
C1171 C1179 1.503 . S
C1172 C1171 1.410 . S
C1172 C1173 1.392 . S
C1172 C1175 1.511 . S
C1173 C1169 1.376 . S
C1173 C1172 1.392 . S
C1173 H1185 0.929 . S
C1174 C1170 1.531 . S
C1174 H1186 0.960 . S
C1174 H1187 0.962 . S
C1174 H1188 0.960 . S
C1175 C1172 1.511 . S
C1175 H1189 0.961 . S
C1175 H1190 0.961 . S
C1175 H1191 0.961 . S
C1176 C1177 1.370 . S
C1176 C1178 1.363 . S
C1176 H1192 0.931 . S
C1177 C1176 1.370 . S
C1177 C1181 1.408 . S
C1178 C1176 1.363 . S
C1178 C1179 1.370 . S
C1178 C1182 1.524 . S
C1179 C1171 1.503 . S
C1179 C1178 1.370 . S
C1179 C1180 1.403 . S
C1180 C1179 1.403 . S
C1180 C1181 1.404 . S
C1180 C1183 1.539 . S
C1181 C1177 1.408 . S
C1181 C1180 1.404 . S
C1181 H1193 0.930 . S
C1182 C1178 1.524 . S
C1182 H1194 0.956 . S
C1182 H1195 0.961 . S
C1182 H1196 0.961 . S
C1183 C1180 1.539 . S
C1183 H1197 0.958 . S
C1183 H1198 0.961 . S
C1183 H1199 0.960 . S
H1184 C1168 0.931 . S
H1185 C1173 0.929 . S
H1186 C1174 0.960 . S
H1187 C1174 0.962 . S
H1188 C1174 0.960 . S
H1189 C1175 0.961 . S
H1190 C1175 0.961 . S
H1191 C1175 0.961 . S
H1192 C1176 0.931 . S
H1193 C1181 0.930 . S
H1194 C1182 0.956 . S
H1195 C1182 0.961 . S
H1196 C1182 0.961 . S
H1197 C1183 0.958 . S
H1198 C1183 0.961 . S
H1199 C1183 0.960 . S
C1200 C1201 1.391 . S
C1200 C1202 1.394 . S
C1200 H1216 0.931 . S
C1201 C1200 1.391 . S
C1201 C1205 1.376 . S
C1202 C1200 1.394 . S
C1202 C1203 1.369 . S
C1202 C1206 1.531 . S
C1203 C1202 1.369 . S
C1203 C1204 1.410 . S
C1203 C1211 1.503 . S
C1204 C1203 1.410 . S
C1204 C1205 1.392 . S
C1204 C1207 1.511 . S
C1205 C1201 1.376 . S
C1205 C1204 1.392 . S
C1205 H1217 0.929 . S
C1206 C1202 1.531 . S
C1206 H1218 0.960 . S
C1206 H1219 0.962 . S
C1206 H1220 0.960 . S
C1207 C1204 1.511 . S
C1207 H1221 0.961 . S
C1207 H1222 0.961 . S
C1207 H1223 0.961 . S
C1208 C1209 1.370 . S
C1208 C1210 1.363 . S
C1208 H1224 0.931 . S
C1209 C1208 1.370 . S
C1209 C1213 1.408 . S
C1210 C1208 1.363 . S
C1210 C1211 1.370 . S
C1210 C1214 1.524 . S
C1211 C1203 1.503 . S
C1211 C1210 1.370 . S
C1211 C1212 1.403 . S
C1212 C1211 1.403 . S
C1212 C1213 1.404 . S
C1212 C1215 1.539 . S
C1213 C1209 1.408 . S
C1213 C1212 1.404 . S
C1213 H1225 0.930 . S
C1214 C1210 1.524 . S
C1214 H1226 0.956 . S
C1214 H1227 0.961 . S
C1214 H1228 0.961 . S
C1215 C1212 1.539 . S
C1215 H1229 0.958 . S
C1215 H1230 0.961 . S
C1215 H1231 0.960 . S
H1216 C1200 0.931 . S
H1217 C1205 0.929 . S
H1218 C1206 0.960 . S
H1219 C1206 0.962 . S
H1220 C1206 0.960 . S
H1221 C1207 0.961 . S
H1222 C1207 0.961 . S
H1223 C1207 0.961 . S
H1224 C1208 0.931 . S
H1225 C1213 0.930 . S
H1226 C1214 0.956 . S
H1227 C1214 0.961 . S
H1228 C1214 0.961 . S
H1229 C1215 0.958 . S
H1230 C1215 0.961 . S
H1231 C1215 0.960 . S
C1232 C1233 1.391 . S
C1232 C1234 1.394 . S
C1232 H1248 0.931 . S
C1233 C1232 1.391 . S
C1233 C1237 1.376 . S
C1234 C1232 1.394 . S
C1234 C1235 1.369 . S
C1234 C1238 1.531 . S
C1235 C1234 1.369 . S
C1235 C1236 1.410 . S
C1235 C1243 1.503 . S
C1236 C1235 1.410 . S
C1236 C1237 1.392 . S
C1236 C1239 1.511 . S
C1237 C1233 1.376 . S
C1237 C1236 1.392 . S
C1237 H1249 0.929 . S
C1238 C1234 1.531 . S
C1238 H1250 0.960 . S
C1238 H1251 0.962 . S
C1238 H1252 0.960 . S
C1239 C1236 1.511 . S
C1239 H1253 0.961 . S
C1239 H1254 0.961 . S
C1239 H1255 0.961 . S
C1240 C1241 1.370 . S
C1240 C1242 1.363 1_565 S
C1240 H1256 0.931 . S
C1241 C1240 1.370 . S
C1241 C1245 1.408 1_565 S
C1242 C1240 1.363 1_545 S
C1242 C1243 1.370 . S
C1242 C1246 1.524 1_545 S
C1243 C1235 1.503 . S
C1243 C1242 1.370 . S
C1243 C1244 1.403 . S
C1244 C1243 1.403 . S
C1244 C1245 1.404 . S
C1244 C1247 1.539 . S
C1245 C1241 1.408 1_545 S
C1245 C1244 1.404 . S
C1245 H1257 0.930 . S
C1246 C1242 1.524 1_565 S
C1246 H1258 0.956 . S
C1246 H1259 0.961 1_565 S
C1246 H1260 0.961 . S
C1247 C1244 1.539 . S
C1247 H1261 0.958 . S
C1247 H1262 0.961 . S
C1247 H1263 0.960 . S
H1248 C1232 0.931 . S
H1249 C1237 0.929 . S
H1250 C1238 0.960 . S
H1251 C1238 0.962 . S
H1252 C1238 0.960 . S
H1253 C1239 0.961 . S
H1254 C1239 0.961 . S
H1255 C1239 0.961 . S
H1256 C1240 0.931 . S
H1257 C1245 0.930 . S
H1258 C1246 0.956 . S
H1259 C1246 0.961 1_545 S
H1260 C1246 0.961 . S
H1261 C1247 0.958 . S
H1262 C1247 0.961 . S
H1263 C1247 0.960 . S
C1264 C1265 1.391 . S
C1264 C1266 1.394 . S
C1264 H1280 0.931 . S
C1265 C1264 1.391 . S
C1265 C1269 1.376 . S
C1266 C1264 1.394 . S
C1266 C1267 1.369 . S
C1266 C1270 1.531 . S
C1267 C1266 1.369 . S
C1267 C1268 1.410 . S
C1267 C1275 1.503 . S
C1268 C1267 1.410 . S
C1268 C1269 1.392 . S
C1268 C1271 1.511 . S
C1269 C1265 1.376 . S
C1269 C1268 1.392 . S
C1269 H1281 0.929 . S
C1270 C1266 1.531 . S
C1270 H1282 0.960 . S
C1270 H1283 0.962 . S
C1270 H1284 0.960 . S
C1271 C1268 1.511 . S
C1271 H1285 0.961 . S
C1271 H1286 0.961 . S
C1271 H1287 0.961 . S
C1272 C1273 1.370 . S
C1272 C1274 1.363 . S
C1272 H1288 0.931 . S
C1273 C1272 1.370 . S
C1273 C1277 1.408 . S
C1274 C1272 1.363 . S
C1274 C1275 1.370 . S
C1274 C1278 1.524 . S
C1275 C1267 1.503 . S
C1275 C1274 1.370 . S
C1275 C1276 1.403 . S
C1276 C1275 1.403 . S
C1276 C1277 1.404 . S
C1276 C1279 1.539 . S
C1277 C1273 1.408 . S
C1277 C1276 1.404 . S
C1277 H1289 0.930 . S
C1278 C1274 1.524 . S
C1278 H1290 0.956 . S
C1278 H1291 0.961 . S
C1278 H1292 0.961 . S
C1279 C1276 1.539 . S
C1279 H1293 0.958 . S
C1279 H1294 0.961 . S
C1279 H1295 0.960 . S
H1280 C1264 0.931 . S
H1281 C1269 0.929 . S
H1282 C1270 0.960 . S
H1283 C1270 0.962 . S
H1284 C1270 0.960 . S
H1285 C1271 0.961 . S
H1286 C1271 0.961 . S
H1287 C1271 0.961 . S
H1288 C1272 0.931 . S
H1289 C1277 0.930 . S
H1290 C1278 0.956 . S
H1291 C1278 0.961 . S
H1292 C1278 0.961 . S
H1293 C1279 0.958 . S
H1294 C1279 0.961 . S
H1295 C1279 0.960 . S
C1296 C1297 1.391 . S
C1296 C1298 1.394 . S
C1296 H1312 0.931 . S
C1297 C1296 1.391 . S
C1297 C1301 1.376 . S
C1298 C1296 1.394 . S
C1298 C1299 1.369 . S
C1298 C1302 1.531 1_556 S
C1299 C1298 1.369 . S
C1299 C1300 1.410 . S
C1299 C1307 1.503 1_556 S
C1300 C1299 1.410 . S
C1300 C1301 1.392 . S
C1300 C1303 1.511 . S
C1301 C1297 1.376 . S
C1301 C1300 1.392 . S
C1301 H1313 0.929 . S
C1302 C1298 1.531 1_554 S
C1302 H1314 0.960 . S
C1302 H1315 0.962 1_554 S
C1302 H1316 0.960 . S
C1303 C1300 1.511 . S
C1303 H1317 0.961 . S
C1303 H1318 0.961 . S
C1303 H1319 0.961 . S
C1304 C1305 1.370 . S
C1304 C1306 1.363 1_554 S
C1304 H1320 0.936 . S
C1305 C1304 1.370 . S
C1305 C1309 1.408 . S
C1306 C1304 1.363 1_556 S
C1306 C1307 1.370 1_556 S
C1306 C1310 1.524 . S
C1307 C1299 1.503 1_554 S
C1307 C1306 1.370 1_554 S
C1307 C1308 1.403 . S
C1308 C1307 1.403 . S
C1308 C1309 1.404 . S
C1308 C1311 1.539 . S
C1309 C1305 1.408 . S
C1309 C1308 1.404 . S
C1309 H1321 0.930 . S
C1310 C1306 1.524 . S
C1310 H1322 0.956 . S
C1310 H1323 0.961 . S
C1310 H1324 0.961 . S
C1311 C1308 1.539 . S
C1311 H1325 0.958 . S
C1311 H1326 0.961 . S
C1311 H1327 0.960 . S
H1312 C1296 0.931 . S
H1313 C1301 0.929 . S
H1314 C1302 0.960 . S
H1315 C1302 0.962 1_556 S
H1316 C1302 0.960 . S
H1317 C1303 0.961 . S
H1318 C1303 0.961 . S
H1319 C1303 0.961 . S
H1320 C1304 0.936 . S
H1321 C1309 0.930 . S
H1322 C1310 0.956 . S
H1323 C1310 0.961 . S
H1324 C1310 0.961 . S
H1325 C1311 0.958 . S
H1326 C1311 0.961 . S
H1327 C1311 0.960 . S
C1328 C1329 1.386 1_556 S
C1328 C1330 1.394 . S
C1328 H1344 0.931 . S
C1329 C1328 1.386 1_554 S
C1329 C1333 1.376 . S
C1330 C1328 1.394 . S
C1330 C1331 1.369 . S
C1330 C1334 1.531 . S
C1331 C1330 1.369 . S
C1331 C1332 1.410 . S
C1331 C1339 1.503 . S
C1332 C1331 1.410 . S
C1332 C1333 1.383 1_556 S
C1332 C1335 1.511 . S
C1333 C1329 1.376 . S
C1333 C1332 1.383 1_554 S
C1333 H1345 0.938 . S
C1334 C1330 1.531 . S
C1334 H1346 0.960 . S
C1334 H1347 0.962 . S
C1334 H1348 0.960 . S
C1335 C1332 1.511 . S
C1335 H1349 0.961 . S
C1335 H1350 0.961 . S
C1335 H1351 0.961 1_556 S
C1336 C1337 1.370 . S
C1336 C1338 1.363 . S
C1336 H1352 0.931 . S
C1337 C1336 1.370 . S
C1337 C1341 1.408 . S
C1338 C1336 1.363 . S
C1338 C1339 1.370 . S
C1338 C1342 1.524 . S
C1339 C1331 1.503 . S
C1339 C1338 1.370 . S
C1339 C1340 1.403 1_556 S
C1340 C1339 1.403 1_554 S
C1340 C1341 1.404 1_554 S
C1340 C1343 1.539 . S
C1341 C1337 1.408 . S
C1341 C1340 1.404 1_556 S
C1341 H1353 0.930 1_556 S
C1342 C1338 1.524 . S
C1342 H1354 0.956 . S
C1342 H1355 0.961 . S
C1342 H1356 0.961 . S
C1343 C1340 1.539 . S
C1343 H1357 0.958 . S
C1343 H1358 0.961 . S
C1343 H1359 0.960 . S
H1344 C1328 0.931 . S
H1345 C1333 0.938 . S
H1346 C1334 0.960 . S
H1347 C1334 0.962 . S
H1348 C1334 0.960 . S
H1349 C1335 0.961 . S
H1350 C1335 0.961 . S
H1351 C1335 0.961 1_554 S
H1352 C1336 0.931 . S
H1353 C1341 0.930 1_554 S
H1354 C1342 0.956 . S
H1355 C1342 0.961 . S
H1356 C1342 0.961 . S
H1357 C1343 0.958 . S
H1358 C1343 0.961 . S
H1359 C1343 0.960 . S
C1360 C1361 1.391 . S
C1360 C1362 1.394 . S
C1360 H1376 0.931 . S
C1361 C1360 1.391 . S
C1361 C1365 1.376 . S
C1362 C1360 1.394 . S
C1362 C1363 1.369 . S
C1362 C1366 1.531 . S
C1363 C1362 1.369 . S
C1363 C1364 1.410 . S
C1363 C1371 1.503 . S
C1364 C1363 1.410 . S
C1364 C1365 1.392 . S
C1364 C1367 1.511 . S
C1365 C1361 1.376 . S
C1365 C1364 1.392 . S
C1365 H1377 0.929 . S
C1366 C1362 1.531 . S
C1366 H1378 0.960 . S
C1366 H1379 0.962 . S
C1366 H1380 0.960 . S
C1367 C1364 1.511 . S
C1367 H1381 0.961 . S
C1367 H1382 0.961 . S
C1367 H1383 0.961 . S
C1368 C1369 1.370 . S
C1368 C1370 1.363 . S
C1368 H1384 0.931 . S
C1369 C1368 1.370 . S
C1369 C1373 1.408 . S
C1370 C1368 1.363 . S
C1370 C1371 1.370 . S
C1370 C1374 1.524 . S
C1371 C1363 1.503 . S
C1371 C1370 1.370 . S
C1371 C1372 1.403 . S
C1372 C1371 1.403 . S
C1372 C1373 1.404 . S
C1372 C1375 1.539 . S
C1373 C1369 1.408 . S
C1373 C1372 1.404 . S
C1373 H1385 0.930 . S
C1374 C1370 1.524 . S
C1374 H1386 0.956 . S
C1374 H1387 0.961 . S
C1374 H1388 0.961 . S
C1375 C1372 1.539 . S
C1375 H1389 0.958 . S
C1375 H1390 0.961 . S
C1375 H1391 0.960 . S
H1376 C1360 0.931 . S
H1377 C1365 0.929 . S
H1378 C1366 0.960 . S
H1379 C1366 0.962 . S
H1380 C1366 0.960 . S
H1381 C1367 0.961 . S
H1382 C1367 0.961 . S
H1383 C1367 0.961 . S
H1384 C1368 0.931 . S
H1385 C1373 0.930 . S
H1386 C1374 0.956 . S
H1387 C1374 0.961 . S
H1388 C1374 0.961 . S
H1389 C1375 0.958 . S
H1390 C1375 0.961 . S
H1391 C1375 0.960 . S
C1392 C1393 1.391 . S
C1392 C1394 1.394 . S
C1392 H1408 0.931 . S
C1393 C1392 1.391 . S
C1393 C1397 1.376 . S
C1394 C1392 1.394 . S
C1394 C1395 1.369 . S
C1394 C1398 1.531 . S
C1395 C1394 1.369 . S
C1395 C1396 1.410 . S
C1395 C1403 1.503 . S
C1396 C1395 1.410 . S
C1396 C1397 1.392 . S
C1396 C1399 1.511 . S
C1397 C1393 1.376 . S
C1397 C1396 1.392 . S
C1397 H1409 0.929 . S
C1398 C1394 1.531 . S
C1398 H1410 0.960 . S
C1398 H1411 0.962 . S
C1398 H1412 0.960 . S
C1399 C1396 1.511 . S
C1399 H1413 0.961 . S
C1399 H1414 0.961 . S
C1399 H1415 0.961 . S
C1400 C1401 1.370 . S
C1400 C1402 1.363 . S
C1400 H1416 0.931 . S
C1401 C1400 1.370 . S
C1401 C1405 1.408 . S
C1402 C1400 1.363 . S
C1402 C1403 1.370 . S
C1402 C1406 1.524 . S
C1403 C1395 1.503 . S
C1403 C1402 1.370 . S
C1403 C1404 1.403 . S
C1404 C1403 1.403 . S
C1404 C1405 1.404 . S
C1404 C1407 1.539 . S
C1405 C1401 1.408 . S
C1405 C1404 1.404 . S
C1405 H1417 0.930 . S
C1406 C1402 1.524 . S
C1406 H1418 0.956 . S
C1406 H1419 0.961 . S
C1406 H1420 0.961 . S
C1407 C1404 1.539 . S
C1407 H1421 0.958 . S
C1407 H1422 0.961 . S
C1407 H1423 0.960 . S
H1408 C1392 0.931 . S
H1409 C1397 0.929 . S
H1410 C1398 0.960 . S
H1411 C1398 0.962 . S
H1412 C1398 0.960 . S
H1413 C1399 0.961 . S
H1414 C1399 0.961 . S
H1415 C1399 0.961 . S
H1416 C1400 0.931 . S
H1417 C1405 0.930 . S
H1418 C1406 0.956 . S
H1419 C1406 0.961 . S
H1420 C1406 0.961 . S
H1421 C1407 0.958 . S
H1422 C1407 0.961 . S
H1423 C1407 0.960 . S
C1424 C1425 1.391 . S
C1424 C1426 1.394 . S
C1424 H1440 0.931 . S
C1425 C1424 1.391 . S
C1425 C1429 1.376 1_455 S
C1426 C1424 1.394 . S
C1426 C1427 1.369 1_455 S
C1426 C1430 1.531 . S
C1427 C1426 1.369 1_655 S
C1427 C1428 1.410 . S
C1427 C1435 1.503 . S
C1428 C1427 1.410 . S
C1428 C1429 1.392 . S
C1428 C1431 1.511 . S
C1429 C1425 1.376 1_655 S
C1429 C1428 1.392 . S
C1429 H1441 0.929 . S
C1430 C1426 1.531 . S
C1430 H1442 0.960 . S
C1430 H1443 0.962 . S
C1430 H1444 0.960 . S
C1431 C1428 1.511 . S
C1431 H1445 0.961 . S
C1431 H1446 0.961 . S
C1431 H1447 0.961 . S
C1432 C1433 1.370 . S
C1432 C1434 1.363 . S
C1432 H1448 0.931 . S
C1433 C1432 1.370 . S
C1433 C1437 1.408 . S
C1434 C1432 1.363 . S
C1434 C1435 1.370 . S
C1434 C1438 1.524 . S
C1435 C1427 1.503 . S
C1435 C1434 1.370 . S
C1435 C1436 1.403 . S
C1436 C1435 1.403 . S
C1436 C1437 1.404 . S
C1436 C1439 1.541 1_655 S
C1437 C1433 1.408 . S
C1437 C1436 1.404 . S
C1437 H1449 0.930 . S
C1438 C1434 1.524 . S
C1438 H1450 0.956 . S
C1438 H1451 0.961 . S
C1438 H1452 0.961 . S
C1439 C1436 1.541 1_455 S
C1439 H1453 0.953 . S
C1439 H1454 0.964 1_455 S
C1439 H1455 0.960 1_455 S
H1440 C1424 0.931 . S
H1441 C1429 0.929 . S
H1442 C1430 0.960 . S
H1443 C1430 0.962 . S
H1444 C1430 0.960 . S
H1445 C1431 0.961 . S
H1446 C1431 0.961 . S
H1447 C1431 0.961 . S
H1448 C1432 0.931 . S
H1449 C1437 0.930 . S
H1450 C1438 0.956 . S
H1451 C1438 0.961 . S
H1452 C1438 0.961 . S
H1453 C1439 0.953 . S
H1454 C1439 0.964 1_655 S
H1455 C1439 0.960 1_655 S
C1456 C1457 1.391 1_655 S
C1456 C1458 1.394 . S
C1456 H1472 0.931 . S
C1457 C1456 1.391 1_455 S
C1457 C1461 1.376 . S
C1458 C1456 1.394 . S
C1458 C1459 1.369 1_655 S
C1458 C1462 1.531 . S
C1459 C1458 1.369 1_455 S
C1459 C1460 1.410 . S
C1459 C1467 1.503 . S
C1460 C1459 1.410 . S
C1460 C1461 1.392 . S
C1460 C1463 1.511 . S
C1461 C1457 1.376 . S
C1461 C1460 1.392 . S
C1461 H1473 0.929 . S
C1462 C1458 1.531 . S
C1462 H1474 0.960 . S
C1462 H1475 0.962 . S
C1462 H1476 0.960 . S
C1463 C1460 1.511 . S
C1463 H1477 0.961 . S
C1463 H1478 0.961 . S
C1463 H1479 0.961 . S
C1464 C1465 1.370 . S
C1464 C1466 1.363 . S
C1464 H1480 0.931 . S
C1465 C1464 1.370 . S
C1465 C1469 1.408 1_655 S
C1466 C1464 1.363 . S
C1466 C1467 1.370 1_655 S
C1466 C1470 1.524 . S
C1467 C1459 1.503 . S
C1467 C1466 1.370 1_455 S
C1467 C1468 1.403 . S
C1468 C1467 1.403 . S
C1468 C1469 1.404 . S
C1468 C1471 1.539 . S
C1469 C1465 1.408 1_455 S
C1469 C1468 1.404 . S
C1469 H1481 0.930 . S
C1470 C1466 1.524 . S
C1470 H1482 0.956 . S
C1470 H1483 0.961 . S
C1470 H1484 0.961 . S
C1471 C1468 1.539 . S
C1471 H1485 0.958 . S
C1471 H1486 0.961 . S
C1471 H1487 0.960 . S
H1472 C1456 0.931 . S
H1473 C1461 0.929 . S
H1474 C1462 0.960 . S
H1475 C1462 0.962 . S
H1476 C1462 0.960 . S
H1477 C1463 0.961 . S
H1478 C1463 0.961 . S
H1479 C1463 0.961 . S
H1480 C1464 0.931 . S
H1481 C1469 0.930 . S
H1482 C1470 0.956 . S
H1483 C1470 0.961 . S
H1484 C1470 0.961 . S
H1485 C1471 0.958 . S
H1486 C1471 0.961 . S
H1487 C1471 0.960 . S
C1488 C1489 1.391 . S
C1488 C1490 1.394 . S
C1488 H1504 0.931 . S
C1489 C1488 1.391 . S
C1489 C1493 1.376 . S
C1490 C1488 1.394 . S
C1490 C1491 1.369 . S
C1490 C1494 1.531 . S
C1491 C1490 1.369 . S
C1491 C1492 1.404 1_655 S
C1491 C1499 1.503 . S
C1492 C1491 1.404 1_455 S
C1492 C1493 1.387 1_455 S
C1492 C1495 1.522 . S
C1493 C1489 1.376 . S
C1493 C1492 1.387 1_655 S
C1493 H1505 0.929 . S
C1494 C1490 1.531 . S
C1494 H1506 0.960 . S
C1494 H1507 0.962 . S
C1494 H1508 0.960 . S
C1495 C1492 1.522 . S
C1495 H1509 0.961 . S
C1495 H1510 0.961 . S
C1495 H1511 0.961 . S
C1496 C1497 1.370 1_655 S
C1496 C1498 1.363 . S
C1496 H1512 0.931 . S
C1497 C1496 1.370 1_455 S
C1497 C1501 1.408 . S
C1498 C1496 1.363 . S
C1498 C1499 1.370 . S
C1498 C1502 1.524 . S
C1499 C1491 1.503 . S
C1499 C1498 1.370 . S
C1499 C1500 1.403 1_655 S
C1500 C1499 1.403 1_455 S
C1500 C1501 1.404 . S
C1500 C1503 1.539 . S
C1501 C1497 1.408 . S
C1501 C1500 1.404 . S
C1501 H1513 0.930 . S
C1502 C1498 1.524 . S
C1502 H1514 0.956 . S
C1502 H1515 0.961 . S
C1502 H1516 0.961 . S
C1503 C1500 1.539 . S
C1503 H1517 0.958 . S
C1503 H1518 0.961 . S
C1503 H1519 0.960 . S
H1504 C1488 0.931 . S
H1505 C1493 0.929 . S
H1506 C1494 0.960 . S
H1507 C1494 0.962 . S
H1508 C1494 0.960 . S
H1509 C1495 0.961 . S
H1510 C1495 0.961 . S
H1511 C1495 0.961 . S
H1512 C1496 0.931 . S
H1513 C1501 0.930 . S
H1514 C1502 0.956 . S
H1515 C1502 0.961 . S
H1516 C1502 0.961 . S
H1517 C1503 0.958 . S
H1518 C1503 0.961 . S
H1519 C1503 0.960 . S
C1520 C1521 1.391 . S
C1520 C1522 1.394 1_455 S
C1520 H1536 0.930 . S
C1521 C1520 1.391 . S
C1521 C1525 1.376 . S
C1522 C1520 1.394 1_655 S
C1522 C1523 1.372 . S
C1522 C1526 1.531 . S
C1523 C1522 1.372 . S
C1523 C1524 1.402 1_655 S
C1523 C1531 1.506 . S
C1524 C1523 1.402 1_455 S
C1524 C1525 1.392 . S
C1524 C1527 1.511 . S
C1525 C1521 1.376 . S
C1525 C1524 1.392 . S
C1525 H1537 0.929 . S
C1526 C1522 1.531 . S
C1526 H1538 0.960 . S
C1526 H1539 0.956 1_655 S
C1526 H1540 0.960 . S
C1527 C1524 1.511 . S
C1527 H1541 0.961 . S
C1527 H1542 0.961 . S
C1527 H1543 0.961 1_455 S
C1528 C1529 1.370 1_455 S
C1528 C1530 1.363 . S
C1528 H1544 0.931 . S
C1529 C1528 1.370 1_655 S
C1529 C1533 1.408 . S
C1530 C1528 1.363 . S
C1530 C1531 1.370 1_455 S
C1530 C1534 1.524 . S
C1531 C1523 1.506 . S
C1531 C1530 1.370 1_655 S
C1531 C1532 1.403 . S
C1532 C1531 1.403 . S
C1532 C1533 1.404 . S
C1532 C1535 1.539 . S
C1533 C1529 1.408 . S
C1533 C1532 1.404 . S
C1533 H1545 0.930 . S
C1534 C1530 1.524 . S
C1534 H1546 0.956 . S
C1534 H1547 0.961 . S
C1534 H1548 0.961 . S
C1535 C1532 1.539 . S
C1535 H1549 0.958 . S
C1535 H1550 0.961 . S
C1535 H1551 0.960 . S
H1536 C1520 0.930 . S
H1537 C1525 0.929 . S
H1538 C1526 0.960 . S
H1539 C1526 0.956 1_455 S
H1540 C1526 0.960 . S
H1541 C1527 0.961 . S
H1542 C1527 0.961 . S
H1543 C1527 0.961 1_655 S
H1544 C1528 0.931 . S
H1545 C1533 0.930 . S
H1546 C1534 0.956 . S
H1547 C1534 0.961 . S
H1548 C1534 0.961 . S
H1549 C1535 0.958 . S
H1550 C1535 0.961 . S
H1551 C1535 0.960 . S
C1552 C1553 1.391 . S
C1552 C1554 1.394 . S
C1552 H1568 0.931 . S
C1553 C1552 1.391 . S
C1553 C1557 1.376 . S
C1554 C1552 1.394 . S
C1554 C1555 1.369 . S
C1554 C1558 1.531 . S
C1555 C1554 1.369 . S
C1555 C1556 1.410 . S
C1555 C1563 1.503 . S
C1556 C1555 1.410 . S
C1556 C1557 1.392 . S
C1556 C1559 1.511 . S
C1557 C1553 1.376 . S
C1557 C1556 1.392 . S
C1557 H1569 0.929 . S
C1558 C1554 1.531 . S
C1558 H1570 0.960 . S
C1558 H1571 0.962 . S
C1558 H1572 0.960 . S
C1559 C1556 1.511 . S
C1559 H1573 0.961 . S
C1559 H1574 0.961 . S
C1559 H1575 0.961 . S
C1560 C1561 1.370 . S
C1560 C1562 1.363 . S
C1560 H1576 0.931 . S
C1561 C1560 1.370 . S
C1561 C1565 1.408 . S
C1562 C1560 1.363 . S
C1562 C1563 1.370 . S
C1562 C1566 1.524 . S
C1563 C1555 1.503 . S
C1563 C1562 1.370 . S
C1563 C1564 1.403 . S
C1564 C1563 1.403 . S
C1564 C1565 1.404 . S
C1564 C1567 1.539 . S
C1565 C1561 1.408 . S
C1565 C1564 1.404 . S
C1565 H1577 0.930 . S
C1566 C1562 1.524 . S
C1566 H1578 0.956 . S
C1566 H1579 0.961 . S
C1566 H1580 0.961 . S
C1567 C1564 1.539 . S
C1567 H1581 0.958 . S
C1567 H1582 0.961 . S
C1567 H1583 0.960 . S
H1568 C1552 0.931 . S
H1569 C1557 0.929 . S
H1570 C1558 0.960 . S
H1571 C1558 0.962 . S
H1572 C1558 0.960 . S
H1573 C1559 0.961 . S
H1574 C1559 0.961 . S
H1575 C1559 0.961 . S
H1576 C1560 0.931 . S
H1577 C1565 0.930 . S
H1578 C1566 0.956 . S
H1579 C1566 0.961 . S
H1580 C1566 0.961 . S
H1581 C1567 0.958 . S
H1582 C1567 0.961 . S
H1583 C1567 0.960 . S
C1584 C1585 1.391 . S
C1584 C1586 1.394 . S
C1584 H1600 0.931 . S
C1585 C1584 1.391 . S
C1585 C1589 1.376 . S
C1586 C1584 1.394 . S
C1586 C1587 1.369 . S
C1586 C1590 1.531 . S
C1587 C1586 1.369 . S
C1587 C1588 1.410 . S
C1587 C1595 1.503 . S
C1588 C1587 1.410 . S
C1588 C1589 1.392 . S
C1588 C1591 1.511 . S
C1589 C1585 1.376 . S
C1589 C1588 1.392 . S
C1589 H1601 0.929 . S
C1590 C1586 1.531 . S
C1590 H1602 0.960 . S
C1590 H1603 0.962 . S
C1590 H1604 0.960 . S
C1591 C1588 1.511 . S
C1591 H1605 0.961 . S
C1591 H1606 0.961 . S
C1591 H1607 0.961 1_545 S
C1592 C1593 1.332 1_545 S
C1592 C1594 1.363 . S
C1592 H1608 0.931 . S
C1593 C1592 1.332 1_565 S
C1593 C1597 1.423 . S
C1594 C1592 1.363 . S
C1594 C1595 1.370 . S
C1594 C1598 1.524 . S
C1595 C1587 1.503 . S
C1595 C1594 1.370 . S
C1595 C1596 1.403 . S
C1596 C1595 1.403 . S
C1596 C1597 1.404 1_545 S
C1596 C1599 1.539 1_545 S
C1597 C1593 1.423 . S
C1597 C1596 1.404 1_565 S
C1597 H1609 0.930 . S
C1598 C1594 1.524 . S
C1598 H1610 0.956 . S
C1598 H1611 0.961 . S
C1598 H1612 0.961 . S
C1599 C1596 1.539 1_565 S
C1599 H1613 0.958 1_565 S
C1599 H1614 0.961 . S
C1599 H1615 0.966 . S
H1600 C1584 0.931 . S
H1601 C1589 0.929 . S
H1602 C1590 0.960 . S
H1603 C1590 0.962 . S
H1604 C1590 0.960 . S
H1605 C1591 0.961 . S
H1606 C1591 0.961 . S
H1607 C1591 0.961 1_565 S
H1608 C1592 0.931 . S
H1609 C1597 0.930 . S
H1610 C1598 0.956 . S
H1611 C1598 0.961 . S
H1612 C1598 0.961 . S
H1613 C1599 0.958 1_545 S
H1614 C1599 0.961 . S
H1615 C1599 0.966 . S
C1616 C1617 1.391 . S
C1616 C1618 1.394 . S
C1616 H1632 0.931 . S
C1617 C1616 1.391 . S
C1617 C1621 1.376 . S
C1618 C1616 1.394 . S
C1618 C1619 1.369 . S
C1618 C1622 1.531 . S
C1619 C1618 1.369 . S
C1619 C1620 1.410 . S
C1619 C1627 1.503 . S
C1620 C1619 1.410 . S
C1620 C1621 1.392 . S
C1620 C1623 1.511 . S
C1621 C1617 1.376 . S
C1621 C1620 1.392 . S
C1621 H1633 0.929 . S
C1622 C1618 1.531 . S
C1622 H1634 0.960 . S
C1622 H1635 0.962 . S
C1622 H1636 0.960 . S
C1623 C1620 1.511 . S
C1623 H1637 0.961 . S
C1623 H1638 0.961 . S
C1623 H1639 0.961 . S
C1624 C1625 1.370 . S
C1624 C1626 1.363 . S
C1624 H1640 0.931 . S
C1625 C1624 1.370 . S
C1625 C1629 1.408 . S
C1626 C1624 1.363 . S
C1626 C1627 1.370 . S
C1626 C1630 1.524 . S
C1627 C1619 1.503 . S
C1627 C1626 1.370 . S
C1627 C1628 1.403 . S
C1628 C1627 1.403 . S
C1628 C1629 1.404 . S
C1628 C1631 1.539 . S
C1629 C1625 1.408 . S
C1629 C1628 1.404 . S
C1629 H1641 0.930 . S
C1630 C1626 1.524 . S
C1630 H1642 0.956 . S
C1630 H1643 0.961 . S
C1630 H1644 0.961 . S
C1631 C1628 1.539 . S
C1631 H1645 0.958 . S
C1631 H1646 0.961 . S
C1631 H1647 0.960 . S
H1632 C1616 0.931 . S
H1633 C1621 0.929 . S
H1634 C1622 0.960 . S
H1635 C1622 0.962 . S
H1636 C1622 0.960 . S
H1637 C1623 0.961 . S
H1638 C1623 0.961 . S
H1639 C1623 0.961 . S
H1640 C1624 0.931 . S
H1641 C1629 0.930 . S
H1642 C1630 0.956 . S
H1643 C1630 0.961 . S
H1644 C1630 0.961 . S
H1645 C1631 0.958 . S
H1646 C1631 0.961 . S
H1647 C1631 0.960 . S
C1648 C1649 1.391 . S
C1648 C1650 1.394 . S
C1648 H1664 0.931 . S
C1649 C1648 1.391 . S
C1649 C1653 1.376 . S
C1650 C1648 1.394 . S
C1650 C1651 1.369 . S
C1650 C1654 1.531 . S
C1651 C1650 1.369 . S
C1651 C1652 1.410 . S
C1651 C1659 1.503 . S
C1652 C1651 1.410 . S
C1652 C1653 1.392 . S
C1652 C1655 1.511 . S
C1653 C1649 1.376 . S
C1653 C1652 1.392 . S
C1653 H1665 0.929 . S
C1654 C1650 1.531 . S
C1654 H1666 0.960 . S
C1654 H1667 0.962 . S
C1654 H1668 0.960 . S
C1655 C1652 1.511 . S
C1655 H1669 0.961 . S
C1655 H1670 0.961 . S
C1655 H1671 0.961 . S
C1656 C1657 1.370 . S
C1656 C1658 1.363 . S
C1656 H1672 0.931 . S
C1657 C1656 1.370 . S
C1657 C1661 1.408 1_565 S
C1658 C1656 1.363 . S
C1658 C1659 1.370 1_565 S
C1658 C1662 1.524 . S
C1659 C1651 1.503 . S
C1659 C1658 1.370 1_545 S
C1659 C1660 1.403 . S
C1660 C1659 1.403 . S
C1660 C1661 1.404 . S
C1660 C1663 1.539 . S
C1661 C1657 1.408 1_545 S
C1661 C1660 1.404 . S
C1661 H1673 0.930 . S
C1662 C1658 1.524 . S
C1662 H1674 0.956 . S
C1662 H1675 0.961 . S
C1662 H1676 0.961 . S
C1663 C1660 1.539 . S
C1663 H1677 0.958 . S
C1663 H1678 0.961 . S
C1663 H1679 0.960 . S
H1664 C1648 0.931 . S
H1665 C1653 0.929 . S
H1666 C1654 0.960 . S
H1667 C1654 0.962 . S
H1668 C1654 0.960 . S
H1669 C1655 0.961 . S
H1670 C1655 0.961 . S
H1671 C1655 0.961 . S
H1672 C1656 0.931 . S
H1673 C1661 0.930 . S
H1674 C1662 0.956 . S
H1675 C1662 0.961 . S
H1676 C1662 0.961 . S
H1677 C1663 0.958 . S
H1678 C1663 0.961 . S
H1679 C1663 0.960 . S
C1680 C1681 1.391 . S
C1680 C1682 1.394 . S
C1680 H1696 0.931 . S
C1681 C1680 1.391 . S
C1681 C1685 1.376 . S
C1682 C1680 1.394 . S
C1682 C1683 1.369 . S
C1682 C1686 1.531 . S
C1683 C1682 1.369 . S
C1683 C1684 1.410 1_556 S
C1683 C1691 1.529 . S
C1684 C1683 1.410 1_554 S
C1684 C1685 1.392 1_554 S
C1684 C1687 1.511 . S
C1685 C1681 1.376 . S
C1685 C1684 1.392 1_556 S
C1685 H1697 0.928 1_556 S
C1686 C1682 1.531 . S
C1686 H1698 0.960 . S
C1686 H1699 0.962 . S
C1686 H1700 0.960 . S
C1687 C1684 1.511 . S
C1687 H1701 0.961 . S
C1687 H1702 0.961 . S
C1687 H1703 0.961 . S
C1688 C1689 1.370 . S
C1688 C1690 1.363 . S
C1688 H1704 0.931 . S
C1689 C1688 1.370 . S
C1689 C1693 1.408 . S
C1690 C1688 1.363 . S
C1690 C1691 1.363 1_554 S
C1690 C1694 1.524 1_554 S
C1691 C1683 1.529 . S
C1691 C1690 1.363 1_556 S
C1691 C1692 1.389 1_556 S
C1692 C1691 1.389 1_554 S
C1692 C1693 1.404 . S
C1692 C1695 1.542 . S
C1693 C1689 1.408 . S
C1693 C1692 1.404 . S
C1693 H1705 0.930 . S
C1694 C1690 1.524 1_556 S
C1694 H1706 0.956 . S
C1694 H1707 0.961 1_556 S
C1694 H1708 0.961 1_556 S
C1695 C1692 1.542 . S
C1695 H1709 0.937 1_554 S
C1695 H1710 0.979 . S
C1695 H1711 0.958 . S
H1696 C1680 0.931 . S
H1697 C1685 0.928 1_554 S
H1698 C1686 0.960 . S
H1699 C1686 0.962 . S
H1700 C1686 0.960 . S
H1701 C1687 0.961 . S
H1702 C1687 0.961 . S
H1703 C1687 0.961 . S
H1704 C1688 0.931 . S
H1705 C1693 0.930 . S
H1706 C1694 0.956 . S
H1707 C1694 0.961 1_554 S
H1708 C1694 0.961 1_554 S
H1709 C1695 0.937 1_556 S
H1710 C1695 0.979 . S
H1711 C1695 0.958 . S
C1712 C1713 1.391 . S
C1712 C1714 1.394 . S
C1712 H1728 0.931 . S
C1713 C1712 1.391 . S
C1713 C1717 1.376 . S
C1714 C1712 1.394 . S
C1714 C1715 1.369 . S
C1714 C1718 1.531 . S
C1715 C1714 1.369 . S
C1715 C1716 1.410 . S
C1715 C1723 1.503 . S
C1716 C1715 1.410 . S
C1716 C1717 1.392 . S
C1716 C1719 1.511 . S
C1717 C1713 1.376 . S
C1717 C1716 1.392 . S
C1717 H1729 0.929 . S
C1718 C1714 1.531 . S
C1718 H1730 0.960 . S
C1718 H1731 0.962 . S
C1718 H1732 0.960 . S
C1719 C1716 1.511 . S
C1719 H1733 0.961 . S
C1719 H1734 0.961 . S
C1719 H1735 0.961 . S
C1720 C1721 1.370 . S
C1720 C1722 1.363 . S
C1720 H1736 0.931 . S
C1721 C1720 1.370 . S
C1721 C1725 1.408 1_556 S
C1722 C1720 1.363 . S
C1722 C1723 1.370 1_556 S
C1722 C1726 1.524 . S
C1723 C1715 1.503 . S
C1723 C1722 1.370 1_554 S
C1723 C1724 1.403 . S
C1724 C1723 1.403 . S
C1724 C1725 1.404 . S
C1724 C1727 1.539 . S
C1725 C1721 1.408 1_554 S
C1725 C1724 1.404 . S
C1725 H1737 0.930 . S
C1726 C1722 1.524 . S
C1726 H1738 0.956 . S
C1726 H1739 0.961 . S
C1726 H1740 0.961 . S
C1727 C1724 1.539 . S
C1727 H1741 0.958 . S
C1727 H1742 0.961 . S
C1727 H1743 0.960 . S
H1728 C1712 0.931 . S
H1729 C1717 0.929 . S
H1730 C1718 0.960 . S
H1731 C1718 0.962 . S
H1732 C1718 0.960 . S
H1733 C1719 0.961 . S
H1734 C1719 0.961 . S
H1735 C1719 0.961 . S
H1736 C1720 0.931 . S
H1737 C1725 0.930 . S
H1738 C1726 0.956 . S
H1739 C1726 0.961 . S
H1740 C1726 0.961 . S
H1741 C1727 0.958 . S
H1742 C1727 0.961 . S
H1743 C1727 0.960 . S
C1744 C1745 1.391 . S
C1744 C1746 1.394 . S
C1744 H1760 0.931 . S
C1745 C1744 1.391 . S
C1745 C1749 1.376 . S
C1746 C1744 1.394 . S
C1746 C1747 1.369 . S
C1746 C1750 1.531 . S
C1747 C1746 1.369 . S
C1747 C1748 1.410 . S
C1747 C1755 1.503 . S
C1748 C1747 1.410 . S
C1748 C1749 1.392 . S
C1748 C1751 1.511 . S
C1749 C1745 1.376 . S
C1749 C1748 1.392 . S
C1749 H1761 0.929 . S
C1750 C1746 1.531 . S
C1750 H1762 0.960 . S
C1750 H1763 0.962 . S
C1750 H1764 0.960 . S
C1751 C1748 1.511 . S
C1751 H1765 0.961 . S
C1751 H1766 0.961 . S
C1751 H1767 0.961 . S
C1752 C1753 1.370 . S
C1752 C1754 1.363 . S
C1752 H1768 0.931 . S
C1753 C1752 1.370 . S
C1753 C1757 1.408 . S
C1754 C1752 1.363 . S
C1754 C1755 1.370 . S
C1754 C1758 1.524 . S
C1755 C1747 1.503 . S
C1755 C1754 1.370 . S
C1755 C1756 1.403 . S
C1756 C1755 1.403 . S
C1756 C1757 1.404 . S
C1756 C1759 1.539 . S
C1757 C1753 1.408 . S
C1757 C1756 1.404 . S
C1757 H1769 0.930 . S
C1758 C1754 1.524 . S
C1758 H1770 0.956 . S
C1758 H1771 0.961 . S
C1758 H1772 0.961 . S
C1759 C1756 1.539 . S
C1759 H1773 0.958 . S
C1759 H1774 0.961 . S
C1759 H1775 0.960 . S
H1760 C1744 0.931 . S
H1761 C1749 0.929 . S
H1762 C1750 0.960 . S
H1763 C1750 0.962 . S
H1764 C1750 0.960 . S
H1765 C1751 0.961 . S
H1766 C1751 0.961 . S
H1767 C1751 0.961 . S
H1768 C1752 0.931 . S
H1769 C1757 0.930 . S
H1770 C1758 0.956 . S
H1771 C1758 0.961 . S
H1772 C1758 0.961 . S
H1773 C1759 0.958 . S
H1774 C1759 0.961 . S
H1775 C1759 0.960 . S
C1776 C1777 1.391 . S
C1776 C1778 1.394 . S
C1776 H1792 0.931 . S
C1777 C1776 1.391 . S
C1777 C1781 1.376 . S
C1778 C1776 1.394 . S
C1778 C1779 1.369 . S
C1778 C1782 1.531 . S
C1779 C1778 1.369 . S
C1779 C1780 1.410 . S
C1779 C1787 1.503 . S
C1780 C1779 1.410 . S
C1780 C1781 1.392 . S
C1780 C1783 1.511 . S
C1781 C1777 1.376 . S
C1781 C1780 1.392 . S
C1781 H1793 0.929 . S
C1782 C1778 1.531 . S
C1782 H1794 0.960 . S
C1782 H1795 0.962 . S
C1782 H1796 0.960 . S
C1783 C1780 1.511 . S
C1783 H1797 0.961 . S
C1783 H1798 0.961 . S
C1783 H1799 0.961 . S
C1784 C1785 1.370 . S
C1784 C1786 1.363 . S
C1784 H1800 0.931 . S
C1785 C1784 1.370 . S
C1785 C1789 1.408 . S
C1786 C1784 1.363 . S
C1786 C1787 1.370 . S
C1786 C1790 1.524 . S
C1787 C1779 1.503 . S
C1787 C1786 1.370 . S
C1787 C1788 1.403 . S
C1788 C1787 1.403 . S
C1788 C1789 1.404 . S
C1788 C1791 1.539 . S
C1789 C1785 1.408 . S
C1789 C1788 1.404 . S
C1789 H1801 0.930 . S
C1790 C1786 1.524 . S
C1790 H1802 0.956 . S
C1790 H1803 0.961 . S
C1790 H1804 0.961 . S
C1791 C1788 1.539 . S
C1791 H1805 0.958 . S
C1791 H1806 0.961 . S
C1791 H1807 0.960 . S
H1792 C1776 0.931 . S
H1793 C1781 0.929 . S
H1794 C1782 0.960 . S
H1795 C1782 0.962 . S
H1796 C1782 0.960 . S
H1797 C1783 0.961 . S
H1798 C1783 0.961 . S
H1799 C1783 0.961 . S
H1800 C1784 0.931 . S
H1801 C1789 0.930 . S
H1802 C1790 0.956 . S
H1803 C1790 0.961 . S
H1804 C1790 0.961 . S
H1805 C1791 0.958 . S
H1806 C1791 0.961 . S
H1807 C1791 0.960 . S
C1808 C1809 1.391 . S
C1808 C1810 1.394 . S
C1808 H1824 0.931 . S
C1809 C1808 1.391 . S
C1809 C1813 1.376 . S
C1810 C1808 1.394 . S
C1810 C1811 1.369 . S
C1810 C1814 1.531 1_455 S
C1811 C1810 1.369 . S
C1811 C1812 1.410 . S
C1811 C1819 1.503 . S
C1812 C1811 1.410 . S
C1812 C1813 1.392 . S
C1812 C1815 1.511 . S
C1813 C1809 1.376 . S
C1813 C1812 1.392 . S
C1813 H1825 0.929 . S
C1814 C1810 1.531 1_655 S
C1814 H1826 0.960 . S
C1814 H1827 0.962 . S
C1814 H1828 0.960 . S
C1815 C1812 1.511 . S
C1815 H1829 0.961 . S
C1815 H1830 0.961 . S
C1815 H1831 0.961 . S
C1816 C1817 1.370 . S
C1816 C1818 1.385 . S
C1816 H1832 0.931 . S
C1817 C1816 1.370 . S
C1817 C1821 1.408 1_655 S
C1818 C1816 1.385 . S
C1818 C1819 1.335 1_655 S
C1818 C1822 1.542 . S
C1819 C1811 1.503 . S
C1819 C1818 1.335 1_455 S
C1819 C1820 1.403 . S
C1820 C1819 1.403 . S
C1820 C1821 1.404 . S
C1820 C1823 1.539 . S
C1821 C1817 1.408 1_455 S
C1821 C1820 1.404 . S
C1821 H1833 0.930 . S
C1822 C1818 1.542 . S
C1822 H1834 0.956 . S
C1822 H1835 0.961 1_655 S
C1822 H1836 0.961 . S
C1823 C1820 1.539 . S
C1823 H1837 0.958 . S
C1823 H1838 0.961 . S
C1823 H1839 0.960 . S
H1824 C1808 0.931 . S
H1825 C1813 0.929 . S
H1826 C1814 0.960 . S
H1827 C1814 0.962 . S
H1828 C1814 0.960 . S
H1829 C1815 0.961 . S
H1830 C1815 0.961 . S
H1831 C1815 0.961 . S
H1832 C1816 0.931 . S
H1833 C1821 0.930 . S
H1834 C1822 0.956 . S
H1835 C1822 0.961 1_455 S
H1836 C1822 0.961 . S
H1837 C1823 0.958 . S
H1838 C1823 0.961 . S
H1839 C1823 0.960 . S
C1840 C1841 1.391 . S
C1840 C1842 1.394 . S
C1840 H1856 0.931 . S
C1841 C1840 1.391 . S
C1841 C1845 1.376 . S
C1842 C1840 1.394 . S
C1842 C1843 1.369 . S
C1842 C1846 1.531 1_655 S
C1843 C1842 1.369 . S
C1843 C1844 1.410 . S
C1843 C1851 1.503 . S
C1844 C1843 1.410 . S
C1844 C1845 1.392 . S
C1844 C1847 1.511 . S
C1845 C1841 1.376 . S
C1845 C1844 1.392 . S
C1845 H1857 0.929 . S
C1846 C1842 1.531 1_455 S
C1846 H1858 0.960 . S
C1846 H1859 0.962 1_455 S
C1846 H1860 0.960 . S
C1847 C1844 1.511 . S
C1847 H1861 0.961 . S
C1847 H1862 0.961 . S
C1847 H1863 0.961 . S
C1848 C1849 1.370 1_655 S
C1848 C1850 1.363 . S
C1848 H1864 0.931 . S
C1849 C1848 1.370 1_455 S
C1849 C1853 1.408 . S
C1850 C1848 1.363 . S
C1850 C1851 1.370 . S
C1850 C1854 1.524 . S
C1851 C1843 1.503 . S
C1851 C1850 1.370 . S
C1851 C1852 1.403 1_655 S
C1852 C1851 1.403 1_455 S
C1852 C1853 1.404 . S
C1852 C1855 1.539 . S
C1853 C1849 1.408 . S
C1853 C1852 1.404 . S
C1853 H1865 0.930 . S
C1854 C1850 1.524 . S
C1854 H1866 0.956 . S
C1854 H1867 0.961 . S
C1854 H1868 0.961 . S
C1855 C1852 1.539 . S
C1855 H1869 0.958 . S
C1855 H1870 0.961 . S
C1855 H1871 0.960 . S
H1856 C1840 0.931 . S
H1857 C1845 0.929 . S
H1858 C1846 0.960 . S
H1859 C1846 0.962 1_655 S
H1860 C1846 0.960 . S
H1861 C1847 0.961 . S
H1862 C1847 0.961 . S
H1863 C1847 0.961 . S
H1864 C1848 0.931 . S
H1865 C1853 0.930 . S
H1866 C1854 0.956 . S
H1867 C1854 0.961 . S
H1868 C1854 0.961 . S
H1869 C1855 0.958 . S
H1870 C1855 0.961 . S
H1871 C1855 0.960 . S
C1872 C1873 1.391 1_455 S
C1872 C1874 1.394 . S
C1872 H1888 0.931 . S
C1873 C1872 1.391 1_655 S
C1873 C1877 1.376 . S
C1874 C1872 1.394 . S
C1874 C1875 1.369 . S
C1874 C1878 1.531 . S
C1875 C1874 1.369 . S
C1875 C1876 1.410 1_455 S
C1875 C1883 1.503 . S
C1876 C1875 1.410 1_655 S
C1876 C1877 1.392 . S
C1876 C1879 1.511 . S
C1877 C1873 1.376 . S
C1877 C1876 1.392 . S
C1877 H1889 0.929 . S
C1878 C1874 1.531 . S
C1878 H1890 0.960 . S
C1878 H1891 0.962 . S
C1878 H1892 0.960 . S
C1879 C1876 1.511 . S
C1879 H1893 0.961 . S
C1879 H1894 0.961 . S
C1879 H1895 0.961 . S
C1880 C1881 1.370 . S
C1880 C1882 1.363 . S
C1880 H1896 0.931 . S
C1881 C1880 1.370 . S
C1881 C1885 1.408 . S
C1882 C1880 1.363 . S
C1882 C1883 1.370 . S
C1882 C1886 1.524 . S
C1883 C1875 1.503 . S
C1883 C1882 1.370 . S
C1883 C1884 1.403 . S
C1884 C1883 1.403 . S
C1884 C1885 1.404 . S
C1884 C1887 1.539 1_455 S
C1885 C1881 1.408 . S
C1885 C1884 1.404 . S
C1885 H1897 0.930 . S
C1886 C1882 1.524 . S
C1886 H1898 0.956 . S
C1886 H1899 0.961 . S
C1886 H1900 0.961 . S
C1887 C1884 1.539 1_655 S
C1887 H1901 0.958 1_655 S
C1887 H1902 0.961 . S
C1887 H1903 0.960 . S
H1888 C1872 0.931 . S
H1889 C1877 0.929 . S
H1890 C1878 0.960 . S
H1891 C1878 0.962 . S
H1892 C1878 0.960 . S
H1893 C1879 0.961 . S
H1894 C1879 0.961 . S
H1895 C1879 0.961 . S
H1896 C1880 0.931 . S
H1897 C1885 0.930 . S
H1898 C1886 0.956 . S
H1899 C1886 0.961 . S
H1900 C1886 0.961 . S
H1901 C1887 0.958 1_455 S
H1902 C1887 0.961 . S
H1903 C1887 0.960 . S
C1904 C1905 1.391 . S
C1904 C1906 1.394 . S
C1904 H1920 0.931 . S
C1905 C1904 1.391 . S
C1905 C1909 1.376 1_455 S
C1906 C1904 1.394 . S
C1906 C1907 1.369 1_455 S
C1906 C1910 1.531 . S
C1907 C1906 1.369 1_655 S
C1907 C1908 1.410 . S
C1907 C1915 1.503 . S
C1908 C1907 1.410 . S
C1908 C1909 1.392 . S
C1908 C1911 1.511 . S
C1909 C1905 1.376 1_655 S
C1909 C1908 1.392 . S
C1909 H1921 0.929 . S
C1910 C1906 1.531 . S
C1910 H1922 0.960 . S
C1910 H1923 0.962 . S
C1910 H1924 0.960 . S
C1911 C1908 1.511 . S
C1911 H1925 0.961 . S
C1911 H1926 0.961 . S
C1911 H1927 0.961 . S
C1912 C1913 1.370 . S
C1912 C1914 1.363 . S
C1912 H1928 0.931 . S
C1913 C1912 1.370 . S
C1913 C1917 1.408 . S
C1914 C1912 1.363 . S
C1914 C1915 1.370 . S
C1914 C1918 1.524 1_655 S
C1915 C1907 1.503 . S
C1915 C1914 1.370 . S
C1915 C1916 1.403 . S
C1916 C1915 1.403 . S
C1916 C1917 1.404 . S
C1916 C1919 1.539 . S
C1917 C1913 1.408 . S
C1917 C1916 1.404 . S
C1917 H1929 0.930 . S
C1918 C1914 1.524 1_455 S
C1918 H1930 0.956 . S
C1918 H1931 0.945 1_455 S
C1918 H1932 0.961 . S
C1919 C1916 1.539 . S
C1919 H1933 0.958 . S
C1919 H1934 0.961 . S
C1919 H1935 0.960 . S
H1920 C1904 0.931 . S
H1921 C1909 0.929 . S
H1922 C1910 0.960 . S
H1923 C1910 0.962 . S
H1924 C1910 0.960 . S
H1925 C1911 0.961 . S
H1926 C1911 0.961 . S
H1927 C1911 0.961 . S
H1928 C1912 0.931 . S
H1929 C1917 0.930 . S
H1930 C1918 0.956 . S
H1931 C1918 0.945 1_655 S
H1932 C1918 0.961 . S
H1933 C1919 0.958 . S
H1934 C1919 0.961 . S
H1935 C1919 0.960 . S
C1936 C1937 1.391 1_565 S
C1936 C1938 1.381 1_565 S
C1936 H1952 0.931 . S
C1937 C1936 1.391 1_545 S
C1937 C1941 1.376 . S
C1938 C1936 1.381 1_545 S
C1938 C1939 1.425 . S
C1938 C1942 1.488 1_545 S
C1939 C1938 1.425 . S
C1939 C1940 1.410 . S
C1939 C1947 1.503 . S
C1940 C1939 1.410 . S
C1940 C1941 1.392 . S
C1940 C1943 1.511 . S
C1941 C1937 1.376 . S
C1941 C1940 1.392 . S
C1941 H1953 0.929 . S
C1942 C1938 1.488 1_565 S
C1942 H1954 0.960 . S
C1942 H1955 0.962 . S
C1942 H1956 0.960 . S
C1943 C1940 1.511 . S
C1943 H1957 0.961 . S
C1943 H1958 0.961 . S
C1943 H1959 0.961 . S
C1944 C1945 1.370 . S
C1944 C1946 1.363 . S
C1944 H1960 0.931 . S
C1945 C1944 1.370 . S
C1945 C1949 1.408 . S
C1946 C1944 1.363 . S
C1946 C1947 1.370 . S
C1946 C1950 1.524 . S
C1947 C1939 1.503 . S
C1947 C1946 1.370 . S
C1947 C1948 1.403 . S
C1948 C1947 1.403 . S
C1948 C1949 1.404 . S
C1948 C1951 1.539 . S
C1949 C1945 1.408 . S
C1949 C1948 1.404 . S
C1949 H1961 0.930 . S
C1950 C1946 1.524 . S
C1950 H1962 0.956 . S
C1950 H1963 0.961 . S
C1950 H1964 0.961 . S
C1951 C1948 1.539 . S
C1951 H1965 0.919 1_545 S
C1951 H1966 0.961 . S
C1951 H1967 0.960 . S
H1952 C1936 0.931 . S
H1953 C1941 0.929 . S
H1954 C1942 0.960 . S
H1955 C1942 0.962 . S
H1956 C1942 0.960 . S
H1957 C1943 0.961 . S
H1958 C1943 0.961 . S
H1959 C1943 0.961 . S
H1960 C1944 0.931 . S
H1961 C1949 0.930 . S
H1962 C1950 0.956 . S
H1963 C1950 0.961 . S
H1964 C1950 0.961 . S
H1965 C1951 0.919 1_565 S
H1966 C1951 0.961 . S
H1967 C1951 0.960 . S
C1968 C1969 1.391 . S
C1968 C1970 1.394 . S
C1968 H1984 0.931 . S
C1969 C1968 1.391 . S
C1969 C1973 1.376 . S
C1970 C1968 1.394 . S
C1970 C1971 1.369 . S
C1970 C1974 1.531 . S
C1971 C1970 1.369 . S
C1971 C1972 1.410 . S
C1971 C1979 1.503 . S
C1972 C1971 1.410 . S
C1972 C1973 1.392 . S
C1972 C1975 1.511 . S
C1973 C1969 1.376 . S
C1973 C1972 1.392 . S
C1973 H1985 0.929 . S
C1974 C1970 1.531 . S
C1974 H1986 0.960 . S
C1974 H1987 0.962 . S
C1974 H1988 0.960 . S
C1975 C1972 1.511 . S
C1975 H1989 0.961 . S
C1975 H1990 0.961 . S
C1975 H1991 0.961 . S
C1976 C1977 1.370 . S
C1976 C1978 1.363 . S
C1976 H1992 0.931 . S
C1977 C1976 1.370 . S
C1977 C1981 1.408 . S
C1978 C1976 1.363 . S
C1978 C1979 1.370 . S
C1978 C1982 1.524 . S
C1979 C1971 1.503 . S
C1979 C1978 1.370 . S
C1979 C1980 1.403 . S
C1980 C1979 1.403 . S
C1980 C1981 1.404 . S
C1980 C1983 1.539 1_565 S
C1981 C1977 1.408 . S
C1981 C1980 1.404 . S
C1981 H1993 0.930 1_565 S
C1982 C1978 1.524 . S
C1982 H1994 0.956 . S
C1982 H1995 0.961 . S
C1982 H1996 0.961 . S
C1983 C1980 1.539 1_545 S
C1983 H1997 0.958 . S
C1983 H1998 0.961 . S
C1983 H1999 0.960 . S
H1984 C1968 0.931 . S
H1985 C1973 0.929 . S
H1986 C1974 0.960 . S
H1987 C1974 0.962 . S
H1988 C1974 0.960 . S
H1989 C1975 0.961 . S
H1990 C1975 0.961 . S
H1991 C1975 0.961 . S
H1992 C1976 0.931 . S
H1993 C1981 0.930 1_545 S
H1994 C1982 0.956 . S
H1995 C1982 0.961 . S
H1996 C1982 0.961 . S
H1997 C1983 0.958 . S
H1998 C1983 0.961 . S
H1999 C1983 0.960 . S
C2000 C2001 1.391 . S
C2000 C2002 1.394 . S
C2000 H2016 0.931 . S
C2001 C2000 1.391 . S
C2001 C2005 1.376 . S
C2002 C2000 1.394 . S
C2002 C2003 1.369 . S
C2002 C2006 1.531 . S
C2003 C2002 1.369 . S
C2003 C2004 1.410 . S
C2003 C2011 1.503 . S
C2004 C2003 1.410 . S
C2004 C2005 1.392 . S
C2004 C2007 1.511 . S
C2005 C2001 1.376 . S
C2005 C2004 1.392 . S
C2005 H2017 0.929 . S
C2006 C2002 1.531 . S
C2006 H2018 0.960 . S
C2006 H2019 0.962 . S
C2006 H2020 0.960 . S
C2007 C2004 1.511 . S
C2007 H2021 0.961 . S
C2007 H2022 0.961 . S
C2007 H2023 0.961 . S
C2008 C2009 1.370 . S
C2008 C2010 1.363 . S
C2008 H2024 0.931 . S
C2009 C2008 1.370 . S
C2009 C2013 1.408 . S
C2010 C2008 1.363 . S
C2010 C2011 1.370 . S
C2010 C2014 1.524 . S
C2011 C2003 1.503 . S
C2011 C2010 1.370 . S
C2011 C2012 1.403 . S
C2012 C2011 1.403 . S
C2012 C2013 1.404 . S
C2012 C2015 1.539 . S
C2013 C2009 1.408 . S
C2013 C2012 1.404 . S
C2013 H2025 0.930 . S
C2014 C2010 1.524 . S
C2014 H2026 0.956 . S
C2014 H2027 0.961 . S
C2014 H2028 0.961 . S
C2015 C2012 1.539 . S
C2015 H2029 0.958 . S
C2015 H2030 0.961 . S
C2015 H2031 0.960 . S
H2016 C2000 0.931 . S
H2017 C2005 0.929 . S
H2018 C2006 0.960 . S
H2019 C2006 0.962 . S
H2020 C2006 0.960 . S
H2021 C2007 0.961 . S
H2022 C2007 0.961 . S
H2023 C2007 0.961 . S
H2024 C2008 0.931 . S
H2025 C2013 0.930 . S
H2026 C2014 0.956 . S
H2027 C2014 0.961 . S
H2028 C2014 0.961 . S
H2029 C2015 0.958 . S
H2030 C2015 0.961 . S
H2031 C2015 0.960 . S
C2032 C2033 1.391 . S
C2032 C2034 1.394 . S
C2032 H2048 0.931 . S
C2033 C2032 1.391 . S
C2033 C2037 1.376 . S
C2034 C2032 1.394 . S
C2034 C2035 1.369 . S
C2034 C2038 1.531 . S
C2035 C2034 1.369 . S
C2035 C2036 1.410 . S
C2035 C2043 1.503 . S
C2036 C2035 1.410 . S
C2036 C2037 1.392 . S
C2036 C2039 1.511 . S
C2037 C2033 1.376 . S
C2037 C2036 1.392 . S
C2037 H2049 0.929 . S
C2038 C2034 1.531 . S
C2038 H2050 0.960 . S
C2038 H2051 0.962 . S
C2038 H2052 0.960 . S
C2039 C2036 1.511 . S
C2039 H2053 0.961 . S
C2039 H2054 0.961 . S
C2039 H2055 0.961 . S
C2040 C2041 1.370 1_545 S
C2040 C2042 1.363 1_545 S
C2040 H2056 0.931 . S
C2041 C2040 1.370 1_565 S
C2041 C2045 1.408 . S
C2042 C2040 1.363 1_565 S
C2042 C2043 1.370 . S
C2042 C2046 1.524 . S
C2043 C2035 1.503 . S
C2043 C2042 1.370 . S
C2043 C2044 1.403 . S
C2044 C2043 1.403 . S
C2044 C2045 1.404 . S
C2044 C2047 1.539 . S
C2045 C2041 1.408 . S
C2045 C2044 1.404 . S
C2045 H2057 0.930 . S
C2046 C2042 1.524 . S
C2046 H2058 0.957 . S
C2046 H2059 0.961 . S
C2046 H2060 0.961 1_565 S
C2047 C2044 1.539 . S
C2047 H2061 0.958 . S
C2047 H2062 0.961 . S
C2047 H2063 0.960 . S
H2048 C2032 0.931 . S
H2049 C2037 0.929 . S
H2050 C2038 0.960 . S
H2051 C2038 0.962 . S
H2052 C2038 0.960 . S
H2053 C2039 0.961 . S
H2054 C2039 0.961 . S
H2055 C2039 0.961 . S
H2056 C2040 0.931 . S
H2057 C2045 0.930 . S
H2058 C2046 0.957 . S
H2059 C2046 0.961 . S
H2060 C2046 0.961 1_545 S
H2061 C2047 0.958 . S
H2062 C2047 0.961 . S
H2063 C2047 0.960 . S
C2064 C2065 1.391 . S
C2064 C2066 1.394 . S
C2064 H2080 0.931 . S
C2065 C2064 1.391 . S
C2065 C2069 1.376 1_655 S
C2066 C2064 1.394 . S
C2066 C2067 1.369 1_655 S
C2066 C2070 1.531 . S
C2067 C2066 1.369 1_455 S
C2067 C2068 1.410 . S
C2067 C2075 1.503 . S
C2068 C2067 1.410 . S
C2068 C2069 1.392 . S
C2068 C2071 1.511 . S
C2069 C2065 1.376 1_455 S
C2069 C2068 1.392 . S
C2069 H2081 0.929 . S
C2070 C2066 1.531 . S
C2070 H2082 0.960 . S
C2070 H2083 0.962 . S
C2070 H2084 0.960 . S
C2071 C2068 1.511 . S
C2071 H2085 0.961 . S
C2071 H2086 0.961 . S
C2071 H2087 0.961 . S
C2072 C2073 1.370 . S
C2072 C2074 1.363 . S
C2072 H2088 0.931 . S
C2073 C2072 1.370 . S
C2073 C2077 1.408 . S
C2074 C2072 1.363 . S
C2074 C2075 1.370 . S
C2074 C2078 1.524 1_455 S
C2075 C2067 1.503 . S
C2075 C2074 1.370 . S
C2075 C2076 1.403 . S
C2076 C2075 1.403 . S
C2076 C2077 1.404 . S
C2076 C2079 1.539 . S
C2077 C2073 1.408 . S
C2077 C2076 1.404 . S
C2077 H2089 0.930 . S
C2078 C2074 1.524 1_655 S
C2078 H2090 0.956 . S
C2078 H2091 0.961 1_655 S
C2078 H2092 0.961 . S
C2079 C2076 1.539 . S
C2079 H2093 0.958 . S
C2079 H2094 0.961 . S
C2079 H2095 0.960 . S
H2080 C2064 0.931 . S
H2081 C2069 0.929 . S
H2082 C2070 0.960 . S
H2083 C2070 0.962 . S
H2084 C2070 0.960 . S
H2085 C2071 0.961 . S
H2086 C2071 0.961 . S
H2087 C2071 0.961 . S
H2088 C2072 0.931 . S
H2089 C2077 0.930 . S
H2090 C2078 0.956 . S
H2091 C2078 0.961 1_455 S
H2092 C2078 0.961 . S
H2093 C2079 0.958 . S
H2094 C2079 0.961 . S
H2095 C2079 0.960 . S
C2096 C2097 1.391 . S
C2096 C2098 1.394 . S
C2096 H2112 0.931 . S
C2097 C2096 1.391 . S
C2097 C2101 1.376 . S
C2098 C2096 1.394 . S
C2098 C2099 1.369 . S
C2098 C2102 1.531 . S
C2099 C2098 1.369 . S
C2099 C2100 1.395 1_455 S
C2099 C2107 1.503 . S
C2100 C2099 1.395 1_655 S
C2100 C2101 1.389 1_655 S
C2100 C2103 1.530 . S
C2101 C2097 1.376 . S
C2101 C2100 1.389 1_455 S
C2101 H2113 0.929 1_455 S
C2102 C2098 1.531 . S
C2102 H2114 0.960 . S
C2102 H2115 0.962 . S
C2102 H2116 0.960 . S
C2103 C2100 1.530 . S
C2103 H2117 0.961 . S
C2103 H2118 0.961 . S
C2103 H2119 0.961 . S
C2104 C2105 1.370 . S
C2104 C2106 1.363 . S
C2104 H2120 0.931 . S
C2105 C2104 1.370 . S
C2105 C2109 1.408 1_655 S
C2106 C2104 1.363 . S
C2106 C2107 1.370 1_655 S
C2106 C2110 1.524 . S
C2107 C2099 1.503 . S
C2107 C2106 1.370 1_455 S
C2107 C2108 1.403 . S
C2108 C2107 1.403 . S
C2108 C2109 1.404 . S
C2108 C2111 1.539 . S
C2109 C2105 1.408 1_455 S
C2109 C2108 1.404 . S
C2109 H2121 0.930 . S
C2110 C2106 1.524 . S
C2110 H2122 0.956 . S
C2110 H2123 0.961 . S
C2110 H2124 0.961 . S
C2111 C2108 1.539 . S
C2111 H2125 0.958 . S
C2111 H2126 0.961 . S
C2111 H2127 0.960 . S
H2112 C2096 0.931 . S
H2113 C2101 0.929 1_655 S
H2114 C2102 0.960 . S
H2115 C2102 0.962 . S
H2116 C2102 0.960 . S
H2117 C2103 0.961 . S
H2118 C2103 0.961 . S
H2119 C2103 0.961 . S
H2120 C2104 0.931 . S
H2121 C2109 0.930 . S
H2122 C2110 0.956 . S
H2123 C2110 0.961 . S
H2124 C2110 0.961 . S
H2125 C2111 0.958 . S
H2126 C2111 0.961 . S
H2127 C2111 0.960 . S
C2128 C2129 1.391 1_545 S
C2128 C2130 1.394 . S
C2128 H2144 0.931 . S
C2129 C2128 1.391 1_565 S
C2129 C2133 1.376 . S
C2130 C2128 1.394 . S
C2130 C2131 1.390 . S
C2130 C2134 1.531 . S
C2131 C2130 1.390 . S
C2131 C2132 1.386 1_545 S
C2131 C2139 1.504 1_545 S
C2132 C2131 1.386 1_565 S
C2132 C2133 1.392 . S
C2132 C2135 1.511 . S
C2133 C2129 1.376 . S
C2133 C2132 1.392 . S
C2133 H2145 0.929 . S
C2134 C2130 1.531 . S
C2134 H2146 0.960 . S
C2134 H2147 0.962 . S
C2134 H2148 0.960 . S
C2135 C2132 1.511 . S
C2135 H2149 0.961 . S
C2135 H2150 0.961 . S
C2135 H2151 0.961 . S
C2136 C2137 1.370 . S
C2136 C2138 1.363 . S
C2136 H2152 0.931 . S
C2137 C2136 1.370 . S
C2137 C2141 1.408 1_565 S
C2138 C2136 1.363 . S
C2138 C2139 1.385 . S
C2138 C2142 1.524 . S
C2139 C2131 1.504 1_565 S
C2139 C2138 1.385 . S
C2139 C2140 1.388 1_565 S
C2140 C2139 1.388 1_545 S
C2140 C2141 1.404 . S
C2140 C2143 1.539 . S
C2141 C2137 1.408 1_545 S
C2141 C2140 1.404 . S
C2141 H2153 0.930 . S
C2142 C2138 1.524 . S
C2142 H2154 0.956 . S
C2142 H2155 0.961 . S
C2142 H2156 0.961 . S
C2143 C2140 1.539 . S
C2143 H2157 0.958 . S
C2143 H2158 0.961 . S
C2143 H2159 0.960 . S
H2144 C2128 0.931 . S
H2145 C2133 0.929 . S
H2146 C2134 0.960 . S
H2147 C2134 0.962 . S
H2148 C2134 0.960 . S
H2149 C2135 0.961 . S
H2150 C2135 0.961 . S
H2151 C2135 0.961 . S
H2152 C2136 0.931 . S
H2153 C2141 0.930 . S
H2154 C2142 0.956 . S
H2155 C2142 0.961 . S
H2156 C2142 0.961 . S
H2157 C2143 0.958 . S
H2158 C2143 0.961 . S
H2159 C2143 0.960 . S
C2160 C2161 1.391 . S
C2160 C2162 1.394 . S
C2160 H2176 0.931 . S
C2161 C2160 1.391 . S
C2161 C2165 1.376 . S
C2162 C2160 1.394 . S
C2162 C2163 1.369 . S
C2162 C2166 1.531 . S
C2163 C2162 1.369 . S
C2163 C2164 1.410 . S
C2163 C2171 1.503 . S
C2164 C2163 1.410 . S
C2164 C2165 1.392 . S
C2164 C2167 1.511 . S
C2165 C2161 1.376 . S
C2165 C2164 1.392 . S
C2165 H2177 0.929 . S
C2166 C2162 1.531 . S
C2166 H2178 0.960 . S
C2166 H2179 0.962 . S
C2166 H2180 0.960 . S
C2167 C2164 1.511 . S
C2167 H2181 0.961 . S
C2167 H2182 0.961 . S
C2167 H2183 0.961 . S
C2168 C2169 1.370 . S
C2168 C2170 1.363 . S
C2168 H2184 0.931 . S
C2169 C2168 1.370 . S
C2169 C2173 1.408 . S
C2170 C2168 1.363 . S
C2170 C2171 1.370 . S
C2170 C2174 1.524 . S
C2171 C2163 1.503 . S
C2171 C2170 1.370 . S
C2171 C2172 1.403 . S
C2172 C2171 1.403 . S
C2172 C2173 1.404 . S
C2172 C2175 1.539 . S
C2173 C2169 1.408 . S
C2173 C2172 1.404 . S
C2173 H2185 0.930 . S
C2174 C2170 1.524 . S
C2174 H2186 0.956 . S
C2174 H2187 0.961 . S
C2174 H2188 0.961 . S
C2175 C2172 1.539 . S
C2175 H2189 0.958 . S
C2175 H2190 0.961 . S
C2175 H2191 0.960 . S
H2176 C2160 0.931 . S
H2177 C2165 0.929 . S
H2178 C2166 0.960 . S
H2179 C2166 0.962 . S
H2180 C2166 0.960 . S
H2181 C2167 0.961 . S
H2182 C2167 0.961 . S
H2183 C2167 0.961 . S
H2184 C2168 0.931 . S
H2185 C2173 0.930 . S
H2186 C2174 0.956 . S
H2187 C2174 0.961 . S
H2188 C2174 0.961 . S
H2189 C2175 0.958 . S
H2190 C2175 0.961 . S
H2191 C2175 0.960 . S
C2192 C2193 1.391 . S
C2192 C2194 1.394 1_556 S
C2192 H2208 0.931 . S
C2193 C2192 1.391 . S
C2193 C2197 1.376 . S
C2194 C2192 1.394 1_554 S
C2194 C2195 1.369 1_554 S
C2194 C2198 1.531 . S
C2195 C2194 1.369 1_556 S
C2195 C2196 1.410 . S
C2195 C2203 1.481 1_556 S
C2196 C2195 1.410 . S
C2196 C2197 1.392 . S
C2196 C2199 1.511 . S
C2197 C2193 1.376 . S
C2197 C2196 1.392 . S
C2197 H2209 0.929 . S
C2198 C2194 1.531 . S
C2198 H2210 0.960 . S
C2198 H2211 0.962 . S
C2198 H2212 0.960 . S
C2199 C2196 1.511 . S
C2199 H2213 0.961 . S
C2199 H2214 0.961 . S
C2199 H2215 0.961 . S
C2200 C2201 1.392 . S
C2200 C2202 1.353 1_554 S
C2200 H2216 0.920 1_554 S
C2201 C2200 1.392 . S
C2201 C2205 1.408 . S
C2202 C2200 1.353 1_556 S
C2202 C2203 1.343 1_556 S
C2202 C2206 1.524 . S
C2203 C2195 1.481 1_554 S
C2203 C2202 1.343 1_554 S
C2203 C2204 1.457 . S
C2204 C2203 1.457 . S
C2204 C2205 1.404 . S
C2204 C2207 1.539 . S
C2205 C2201 1.408 . S
C2205 C2204 1.404 . S
C2205 H2217 0.930 . S
C2206 C2202 1.524 . S
C2206 H2218 0.956 . S
C2206 H2219 0.961 . S
C2206 H2220 0.961 . S
C2207 C2204 1.539 . S
C2207 H2221 0.958 . S
C2207 H2222 0.961 . S
C2207 H2223 0.960 . S
H2208 C2192 0.931 . S
H2209 C2197 0.929 . S
H2210 C2198 0.960 . S
H2211 C2198 0.962 . S
H2212 C2198 0.960 . S
H2213 C2199 0.961 . S
H2214 C2199 0.961 . S
H2215 C2199 0.961 . S
H2216 C2200 0.920 1_556 S
H2217 C2205 0.930 . S
H2218 C2206 0.956 . S
H2219 C2206 0.961 . S
H2220 C2206 0.961 . S
H2221 C2207 0.958 . S
H2222 C2207 0.961 . S
H2223 C2207 0.960 . S
C2224 C2225 1.391 . S
C2224 C2226 1.394 . S
C2224 H2240 0.931 . S
C2225 C2224 1.391 . S
C2225 C2229 1.376 . S
C2226 C2224 1.394 . S
C2226 C2227 1.369 . S
C2226 C2230 1.531 . S
C2227 C2226 1.369 . S
C2227 C2228 1.410 . S
C2227 C2235 1.503 . S
C2228 C2227 1.410 . S
C2228 C2229 1.392 . S
C2228 C2231 1.511 . S
C2229 C2225 1.376 . S
C2229 C2228 1.392 . S
C2229 H2241 0.929 . S
C2230 C2226 1.531 . S
C2230 H2242 0.960 . S
C2230 H2243 0.962 . S
C2230 H2244 0.960 . S
C2231 C2228 1.511 . S
C2231 H2245 0.961 . S
C2231 H2246 0.961 . S
C2231 H2247 0.961 . S
C2232 C2233 1.370 . S
C2232 C2234 1.363 . S
C2232 H2248 0.931 . S
C2233 C2232 1.370 . S
C2233 C2237 1.408 . S
C2234 C2232 1.363 . S
C2234 C2235 1.370 . S
C2234 C2238 1.524 . S
C2235 C2227 1.503 . S
C2235 C2234 1.370 . S
C2235 C2236 1.403 . S
C2236 C2235 1.403 . S
C2236 C2237 1.404 . S
C2236 C2239 1.539 . S
C2237 C2233 1.408 . S
C2237 C2236 1.404 . S
C2237 H2249 0.930 . S
C2238 C2234 1.524 . S
C2238 H2250 0.956 . S
C2238 H2251 0.961 . S
C2238 H2252 0.961 . S
C2239 C2236 1.539 . S
C2239 H2253 0.958 . S
C2239 H2254 0.961 . S
C2239 H2255 0.960 . S
H2240 C2224 0.931 . S
H2241 C2229 0.929 . S
H2242 C2230 0.960 . S
H2243 C2230 0.962 . S
H2244 C2230 0.960 . S
H2245 C2231 0.961 . S
H2246 C2231 0.961 . S
H2247 C2231 0.961 . S
H2248 C2232 0.931 . S
H2249 C2237 0.930 . S
H2250 C2238 0.956 . S
H2251 C2238 0.961 . S
H2252 C2238 0.961 . S
H2253 C2239 0.958 . S
H2254 C2239 0.961 . S
H2255 C2239 0.960 . S
C2256 C2257 1.391 . S
C2256 C2258 1.394 . S
C2256 H2272 0.931 . S
C2257 C2256 1.391 . S
C2257 C2261 1.376 . S
C2258 C2256 1.394 . S
C2258 C2259 1.369 . S
C2258 C2262 1.531 . S
C2259 C2258 1.369 . S
C2259 C2260 1.410 . S
C2259 C2267 1.503 . S
C2260 C2259 1.410 . S
C2260 C2261 1.392 . S
C2260 C2263 1.511 . S
C2261 C2257 1.376 . S
C2261 C2260 1.392 . S
C2261 H2273 0.929 . S
C2262 C2258 1.531 . S
C2262 H2274 0.960 . S
C2262 H2275 0.962 . S
C2262 H2276 0.960 . S
C2263 C2260 1.511 . S
C2263 H2277 0.961 . S
C2263 H2278 0.961 . S
C2263 H2279 0.961 . S
C2264 C2265 1.370 . S
C2264 C2266 1.363 . S
C2264 H2280 0.931 . S
C2265 C2264 1.370 . S
C2265 C2269 1.408 . S
C2266 C2264 1.363 . S
C2266 C2267 1.370 . S
C2266 C2270 1.524 . S
C2267 C2259 1.503 . S
C2267 C2266 1.370 . S
C2267 C2268 1.403 . S
C2268 C2267 1.403 . S
C2268 C2269 1.404 . S
C2268 C2271 1.539 . S
C2269 C2265 1.408 . S
C2269 C2268 1.404 . S
C2269 H2281 0.930 . S
C2270 C2266 1.524 . S
C2270 H2282 0.956 . S
C2270 H2283 0.961 . S
C2270 H2284 0.961 . S
C2271 C2268 1.539 . S
C2271 H2285 0.958 . S
C2271 H2286 0.961 . S
C2271 H2287 0.960 . S
H2272 C2256 0.931 . S
H2273 C2261 0.929 . S
H2274 C2262 0.960 . S
H2275 C2262 0.962 . S
H2276 C2262 0.960 . S
H2277 C2263 0.961 . S
H2278 C2263 0.961 . S
H2279 C2263 0.961 . S
H2280 C2264 0.931 . S
H2281 C2269 0.930 . S
H2282 C2270 0.956 . S
H2283 C2270 0.961 . S
H2284 C2270 0.961 . S
H2285 C2271 0.958 . S
H2286 C2271 0.961 . S
H2287 C2271 0.960 . S
C2288 C2289 1.448 . S
C2288 C2290 1.394 . S
C2288 H2304 0.931 . S
C2289 C2288 1.448 . S
C2289 C2293 1.330 1_455 S
C2290 C2288 1.394 . S
C2290 C2291 1.369 . S
C2290 C2294 1.531 . S
C2291 C2290 1.369 . S
C2291 C2292 1.410 1_455 S
C2291 C2299 1.503 . S
C2292 C2291 1.410 1_655 S
C2292 C2293 1.392 . S
C2292 C2295 1.511 . S
C2293 C2289 1.330 1_655 S
C2293 C2292 1.392 . S
C2293 H2305 0.929 . S
C2294 C2290 1.531 . S
C2294 H2306 0.960 . S
C2294 H2307 0.962 . S
C2294 H2308 0.960 . S
C2295 C2292 1.511 . S
C2295 H2309 0.961 . S
C2295 H2310 0.961 . S
C2295 H2311 0.961 . S
C2296 C2297 1.370 . S
C2296 C2298 1.363 . S
C2296 H2312 0.931 . S
C2297 C2296 1.370 . S
C2297 C2301 1.408 . S
C2298 C2296 1.363 . S
C2298 C2299 1.370 . S
C2298 C2302 1.524 . S
C2299 C2291 1.503 . S
C2299 C2298 1.370 . S
C2299 C2300 1.403 . S
C2300 C2299 1.403 . S
C2300 C2301 1.404 . S
C2300 C2303 1.539 . S
C2301 C2297 1.408 . S
C2301 C2300 1.404 . S
C2301 H2313 0.930 . S
C2302 C2298 1.524 . S
C2302 H2314 0.956 . S
C2302 H2315 0.961 . S
C2302 H2316 0.961 . S
C2303 C2300 1.539 . S
C2303 H2317 0.958 . S
C2303 H2318 0.961 1_455 S
C2303 H2319 0.960 1_455 S
H2304 C2288 0.931 . S
H2305 C2293 0.929 . S
H2306 C2294 0.960 . S
H2307 C2294 0.962 . S
H2308 C2294 0.960 . S
H2309 C2295 0.961 . S
H2310 C2295 0.961 . S
H2311 C2295 0.961 . S
H2312 C2296 0.931 . S
H2313 C2301 0.930 . S
H2314 C2302 0.956 . S
H2315 C2302 0.961 . S
H2316 C2302 0.961 . S
H2317 C2303 0.958 . S
H2318 C2303 0.961 1_655 S
H2319 C2303 0.960 1_655 S
C2320 C2321 1.394 . S
C2320 C2322 1.394 . S
C2320 H2336 0.931 . S
C2321 C2320 1.394 . S
C2321 C2325 1.373 1_455 S
C2322 C2320 1.394 . S
C2322 C2323 1.369 . S
C2322 C2326 1.531 . S
C2323 C2322 1.369 . S
C2323 C2324 1.410 1_455 S
C2323 C2331 1.503 . S
C2324 C2323 1.410 1_655 S
C2324 C2325 1.392 . S
C2324 C2327 1.511 . S
C2325 C2321 1.373 1_655 S
C2325 C2324 1.392 . S
C2325 H2337 0.929 . S
C2326 C2322 1.531 . S
C2326 H2338 0.960 . S
C2326 H2339 0.962 . S
C2326 H2340 0.960 . S
C2327 C2324 1.511 . S
C2327 H2341 0.961 . S
C2327 H2342 0.961 . S
C2327 H2343 0.961 . S
C2328 C2329 1.370 . S
C2328 C2330 1.363 . S
C2328 H2344 0.931 . S
C2329 C2328 1.370 . S
C2329 C2333 1.408 . S
C2330 C2328 1.363 . S
C2330 C2331 1.370 . S
C2330 C2334 1.524 . S
C2331 C2323 1.503 . S
C2331 C2330 1.370 . S
C2331 C2332 1.410 . S
C2332 C2331 1.410 . S
C2332 C2333 1.407 . S
C2332 C2335 1.528 1_455 S
C2333 C2329 1.408 . S
C2333 C2332 1.407 . S
C2333 H2345 0.930 1_455 S
C2334 C2330 1.524 . S
C2334 H2346 0.956 . S
C2334 H2347 0.961 . S
C2334 H2348 0.961 . S
C2335 C2332 1.528 1_655 S
C2335 H2349 0.958 . S
C2335 H2350 0.961 . S
C2335 H2351 0.960 . S
H2336 C2320 0.931 . S
H2337 C2325 0.929 . S
H2338 C2326 0.960 . S
H2339 C2326 0.962 . S
H2340 C2326 0.960 . S
H2341 C2327 0.961 . S
H2342 C2327 0.961 . S
H2343 C2327 0.961 . S
H2344 C2328 0.931 . S
H2345 C2333 0.930 1_655 S
H2346 C2334 0.956 . S
H2347 C2334 0.961 . S
H2348 C2334 0.961 . S
H2349 C2335 0.958 . S
H2350 C2335 0.961 . S
H2351 C2335 0.960 . S
C2352 C2353 1.391 . S
C2352 C2354 1.393 1_565 S
C2352 H2368 0.931 1_565 S
C2353 C2352 1.391 . S
C2353 C2357 1.376 . S
C2354 C2352 1.393 1_545 S
C2354 C2355 1.360 1_545 S
C2354 C2358 1.540 . S
C2355 C2354 1.360 1_565 S
C2355 C2356 1.410 . S
C2355 C2363 1.503 . S
C2356 C2355 1.410 . S
C2356 C2357 1.392 . S
C2356 C2359 1.511 . S
C2357 C2353 1.376 . S
C2357 C2356 1.392 . S
C2357 H2369 0.929 . S
C2358 C2354 1.540 . S
C2358 H2370 0.960 . S
C2358 H2371 0.962 . S
C2358 H2372 0.960 . S
C2359 C2356 1.511 . S
C2359 H2373 0.961 . S
C2359 H2374 0.961 . S
C2359 H2375 0.961 . S
C2360 C2361 1.370 . S
C2360 C2362 1.363 . S
C2360 H2376 0.931 . S
C2361 C2360 1.370 . S
C2361 C2365 1.408 1_545 S
C2362 C2360 1.363 . S
C2362 C2363 1.370 1_545 S
C2362 C2366 1.524 . S
C2363 C2355 1.503 . S
C2363 C2362 1.370 1_565 S
C2363 C2364 1.403 . S
C2364 C2363 1.403 . S
C2364 C2365 1.404 . S
C2364 C2367 1.539 . S
C2365 C2361 1.408 1_565 S
C2365 C2364 1.404 . S
C2365 H2377 0.930 . S
C2366 C2362 1.524 . S
C2366 H2378 0.956 . S
C2366 H2379 0.961 . S
C2366 H2380 0.961 . S
C2367 C2364 1.539 . S
C2367 H2381 0.958 . S
C2367 H2382 0.961 . S
C2367 H2383 0.960 . S
H2368 C2352 0.931 1_545 S
H2369 C2357 0.929 . S
H2370 C2358 0.960 . S
H2371 C2358 0.962 . S
H2372 C2358 0.960 . S
H2373 C2359 0.961 . S
H2374 C2359 0.961 . S
H2375 C2359 0.961 . S
H2376 C2360 0.931 . S
H2377 C2365 0.930 . S
H2378 C2366 0.956 . S
H2379 C2366 0.961 . S
H2380 C2366 0.961 . S
H2381 C2367 0.958 . S
H2382 C2367 0.961 . S
H2383 C2367 0.960 . S
C2384 C2385 1.391 . S
C2384 C2386 1.394 . S
C2384 H2400 0.931 . S
C2385 C2384 1.391 . S
C2385 C2389 1.376 . S
C2386 C2384 1.394 . S
C2386 C2387 1.369 . S
C2386 C2390 1.531 . S
C2387 C2386 1.369 . S
C2387 C2388 1.410 . S
C2387 C2395 1.503 . S
C2388 C2387 1.410 . S
C2388 C2389 1.392 . S
C2388 C2391 1.511 . S
C2389 C2385 1.376 . S
C2389 C2388 1.392 . S
C2389 H2401 0.929 . S
C2390 C2386 1.531 . S
C2390 H2402 0.960 . S
C2390 H2403 0.962 . S
C2390 H2404 0.960 . S
C2391 C2388 1.511 . S
C2391 H2405 0.961 . S
C2391 H2406 0.961 . S
C2391 H2407 0.961 . S
C2392 C2393 1.370 . S
C2392 C2394 1.363 . S
C2392 H2408 0.931 . S
C2393 C2392 1.370 . S
C2393 C2397 1.408 . S
C2394 C2392 1.363 . S
C2394 C2395 1.370 . S
C2394 C2398 1.524 . S
C2395 C2387 1.503 . S
C2395 C2394 1.370 . S
C2395 C2396 1.403 . S
C2396 C2395 1.403 . S
C2396 C2397 1.404 . S
C2396 C2399 1.539 . S
C2397 C2393 1.408 . S
C2397 C2396 1.404 . S
C2397 H2409 0.930 . S
C2398 C2394 1.524 . S
C2398 H2410 0.956 . S
C2398 H2411 0.961 . S
C2398 H2412 0.961 . S
C2399 C2396 1.539 . S
C2399 H2413 0.958 . S
C2399 H2414 0.961 . S
C2399 H2415 0.960 . S
H2400 C2384 0.931 . S
H2401 C2389 0.929 . S
H2402 C2390 0.960 . S
H2403 C2390 0.962 . S
H2404 C2390 0.960 . S
H2405 C2391 0.961 . S
H2406 C2391 0.961 . S
H2407 C2391 0.961 . S
H2408 C2392 0.931 . S
H2409 C2397 0.930 . S
H2410 C2398 0.956 . S
H2411 C2398 0.961 . S
H2412 C2398 0.961 . S
H2413 C2399 0.958 . S
H2414 C2399 0.961 . S
H2415 C2399 0.960 . S
C2416 C2417 1.391 . S
C2416 C2418 1.394 . S
C2416 H2432 0.931 . S
C2417 C2416 1.391 . S
C2417 C2421 1.376 . S
C2418 C2416 1.394 . S
C2418 C2419 1.369 . S
C2418 C2422 1.531 . S
C2419 C2418 1.369 . S
C2419 C2420 1.410 . S
C2419 C2427 1.503 . S
C2420 C2419 1.410 . S
C2420 C2421 1.392 . S
C2420 C2423 1.511 1_554 S
C2421 C2417 1.376 . S
C2421 C2420 1.392 . S
C2421 H2433 0.929 . S
C2422 C2418 1.531 . S
C2422 H2434 0.960 . S
C2422 H2435 0.962 . S
C2422 H2436 0.960 . S
C2423 C2420 1.511 1_556 S
C2423 H2437 0.961 . S
C2423 H2438 0.961 . S
C2423 H2439 0.961 . S
C2424 C2425 1.370 . S
C2424 C2426 1.363 . S
C2424 H2440 0.931 . S
C2425 C2424 1.370 . S
C2425 C2429 1.408 1_554 S
C2426 C2424 1.363 . S
C2426 C2427 1.370 . S
C2426 C2430 1.524 . S
C2427 C2419 1.503 . S
C2427 C2426 1.370 . S
C2427 C2428 1.353 1_554 S
C2428 C2427 1.353 1_556 S
C2428 C2429 1.426 . S
C2428 C2431 1.577 . S
C2429 C2425 1.408 1_556 S
C2429 C2428 1.426 . S
C2429 H2441 0.930 . S
C2430 C2426 1.524 . S
C2430 H2442 0.956 . S
C2430 H2443 0.961 . S
C2430 H2444 0.961 . S
C2431 C2428 1.577 . S
C2431 H2445 0.958 . S
C2431 H2446 0.961 . S
C2431 H2447 0.960 . S
H2432 C2416 0.931 . S
H2433 C2421 0.929 . S
H2434 C2422 0.960 . S
H2435 C2422 0.962 . S
H2436 C2422 0.960 . S
H2437 C2423 0.961 . S
H2438 C2423 0.961 . S
H2439 C2423 0.961 . S
H2440 C2424 0.931 . S
H2441 C2429 0.930 . S
H2442 C2430 0.956 . S
H2443 C2430 0.961 . S
H2444 C2430 0.961 . S
H2445 C2431 0.958 . S
H2446 C2431 0.961 . S
H2447 C2431 0.960 . S
C2448 C2449 1.391 . S
C2448 C2450 1.394 . S
C2448 H2464 0.931 . S
C2449 C2448 1.391 . S
C2449 C2453 1.376 . S
C2450 C2448 1.394 . S
C2450 C2451 1.369 . S
C2450 C2454 1.531 . S
C2451 C2450 1.369 . S
C2451 C2452 1.410 . S
C2451 C2459 1.503 . S
C2452 C2451 1.410 . S
C2452 C2453 1.392 . S
C2452 C2455 1.511 . S
C2453 C2449 1.376 . S
C2453 C2452 1.392 . S
C2453 H2465 0.929 . S
C2454 C2450 1.531 . S
C2454 H2466 0.960 . S
C2454 H2467 0.962 . S
C2454 H2468 0.960 . S
C2455 C2452 1.511 . S
C2455 H2469 0.961 . S
C2455 H2470 0.961 . S
C2455 H2471 0.961 . S
C2456 C2457 1.370 . S
C2456 C2458 1.363 . S
C2456 H2472 0.931 . S
C2457 C2456 1.370 . S
C2457 C2461 1.408 . S
C2458 C2456 1.363 . S
C2458 C2459 1.370 . S
C2458 C2462 1.524 . S
C2459 C2451 1.503 . S
C2459 C2458 1.370 . S
C2459 C2460 1.403 . S
C2460 C2459 1.403 . S
C2460 C2461 1.404 . S
C2460 C2463 1.539 . S
C2461 C2457 1.408 . S
C2461 C2460 1.404 . S
C2461 H2473 0.930 . S
C2462 C2458 1.524 . S
C2462 H2474 0.956 . S
C2462 H2475 0.961 . S
C2462 H2476 0.961 . S
C2463 C2460 1.539 . S
C2463 H2477 0.958 . S
C2463 H2478 0.961 . S
C2463 H2479 0.960 . S
H2464 C2448 0.931 . S
H2465 C2453 0.929 . S
H2466 C2454 0.960 . S
H2467 C2454 0.962 . S
H2468 C2454 0.960 . S
H2469 C2455 0.961 . S
H2470 C2455 0.961 . S
H2471 C2455 0.961 . S
H2472 C2456 0.931 . S
H2473 C2461 0.930 . S
H2474 C2462 0.956 . S
H2475 C2462 0.961 . S
H2476 C2462 0.961 . S
H2477 C2463 0.958 . S
H2478 C2463 0.961 . S
H2479 C2463 0.960 . S
C2480 C2481 1.391 . S
C2480 C2482 1.394 . S
C2480 H2496 0.931 . S
C2481 C2480 1.391 . S
C2481 C2485 1.376 . S
C2482 C2480 1.394 . S
C2482 C2483 1.369 . S
C2482 C2486 1.531 . S
C2483 C2482 1.369 . S
C2483 C2484 1.410 . S
C2483 C2491 1.503 . S
C2484 C2483 1.410 . S
C2484 C2485 1.392 . S
C2484 C2487 1.511 . S
C2485 C2481 1.376 . S
C2485 C2484 1.392 . S
C2485 H2497 0.929 . S
C2486 C2482 1.531 . S
C2486 H2498 0.960 . S
C2486 H2499 0.962 . S
C2486 H2500 0.960 . S
C2487 C2484 1.511 . S
C2487 H2501 0.961 . S
C2487 H2502 0.961 . S
C2487 H2503 0.961 . S
C2488 C2489 1.370 . S
C2488 C2490 1.363 . S
C2488 H2504 0.931 . S
C2489 C2488 1.370 . S
C2489 C2493 1.408 . S
C2490 C2488 1.363 . S
C2490 C2491 1.370 . S
C2490 C2494 1.524 . S
C2491 C2483 1.503 . S
C2491 C2490 1.370 . S
C2491 C2492 1.403 . S
C2492 C2491 1.403 . S
C2492 C2493 1.404 . S
C2492 C2495 1.539 . S
C2493 C2489 1.408 . S
C2493 C2492 1.404 . S
C2493 H2505 0.930 . S
C2494 C2490 1.524 . S
C2494 H2506 0.956 . S
C2494 H2507 0.961 . S
C2494 H2508 0.961 . S
C2495 C2492 1.539 . S
C2495 H2509 0.958 . S
C2495 H2510 0.961 . S
C2495 H2511 0.960 . S
H2496 C2480 0.931 . S
H2497 C2485 0.929 . S
H2498 C2486 0.960 . S
H2499 C2486 0.962 . S
H2500 C2486 0.960 . S
H2501 C2487 0.961 . S
H2502 C2487 0.961 . S
H2503 C2487 0.961 . S
H2504 C2488 0.931 . S
H2505 C2493 0.930 . S
H2506 C2494 0.956 . S
H2507 C2494 0.961 . S
H2508 C2494 0.961 . S
H2509 C2495 0.958 . S
H2510 C2495 0.961 . S
H2511 C2495 0.960 . S
C2512 C2513 1.391 . S
C2512 C2514 1.394 . S
C2512 H2528 0.931 . S
C2513 C2512 1.391 . S
C2513 C2517 1.376 . S
C2514 C2512 1.394 . S
C2514 C2515 1.369 . S
C2514 C2518 1.531 . S
C2515 C2514 1.369 . S
C2515 C2516 1.410 . S
C2515 C2523 1.503 . S
C2516 C2515 1.410 . S
C2516 C2517 1.392 . S
C2516 C2519 1.511 . S
C2517 C2513 1.376 . S
C2517 C2516 1.392 . S
C2517 H2529 0.929 . S
C2518 C2514 1.531 . S
C2518 H2530 0.960 . S
C2518 H2531 0.962 . S
C2518 H2532 0.960 . S
C2519 C2516 1.511 . S
C2519 H2533 0.961 . S
C2519 H2534 0.961 . S
C2519 H2535 0.961 . S
C2520 C2521 1.370 . S
C2520 C2522 1.363 . S
C2520 H2536 0.931 . S
C2521 C2520 1.370 . S
C2521 C2525 1.408 . S
C2522 C2520 1.363 . S
C2522 C2523 1.370 . S
C2522 C2526 1.524 . S
C2523 C2515 1.503 . S
C2523 C2522 1.370 . S
C2523 C2524 1.403 . S
C2524 C2523 1.403 . S
C2524 C2525 1.404 . S
C2524 C2527 1.539 . S
C2525 C2521 1.408 . S
C2525 C2524 1.404 . S
C2525 H2537 0.930 . S
C2526 C2522 1.524 . S
C2526 H2538 0.956 . S
C2526 H2539 0.961 . S
C2526 H2540 0.961 . S
C2527 C2524 1.539 . S
C2527 H2541 0.958 . S
C2527 H2542 0.961 . S
C2527 H2543 0.960 . S
H2528 C2512 0.931 . S
H2529 C2517 0.929 . S
H2530 C2518 0.960 . S
H2531 C2518 0.962 . S
H2532 C2518 0.960 . S
H2533 C2519 0.961 . S
H2534 C2519 0.961 . S
H2535 C2519 0.961 . S
H2536 C2520 0.931 . S
H2537 C2525 0.930 . S
H2538 C2526 0.956 . S
H2539 C2526 0.961 . S
H2540 C2526 0.961 . S
H2541 C2527 0.958 . S
H2542 C2527 0.961 . S
H2543 C2527 0.960 . S
C2544 C2545 1.391 . S
C2544 C2546 1.394 . S
C2544 H2560 0.931 . S
C2545 C2544 1.391 . S
C2545 C2549 1.376 . S
C2546 C2544 1.394 . S
C2546 C2547 1.369 . S
C2546 C2550 1.531 . S
C2547 C2546 1.369 . S
C2547 C2548 1.410 . S
C2547 C2555 1.503 . S
C2548 C2547 1.410 . S
C2548 C2549 1.392 . S
C2548 C2551 1.511 . S
C2549 C2545 1.376 . S
C2549 C2548 1.392 . S
C2549 H2561 0.929 . S
C2550 C2546 1.531 . S
C2550 H2562 0.960 . S
C2550 H2563 0.962 . S
C2550 H2564 0.960 . S
C2551 C2548 1.511 . S
C2551 H2565 0.961 . S
C2551 H2566 0.961 . S
C2551 H2567 0.961 . S
C2552 C2553 1.370 . S
C2552 C2554 1.363 . S
C2552 H2568 0.931 . S
C2553 C2552 1.370 . S
C2553 C2557 1.408 . S
C2554 C2552 1.363 . S
C2554 C2555 1.370 . S
C2554 C2558 1.524 . S
C2555 C2547 1.503 . S
C2555 C2554 1.370 . S
C2555 C2556 1.403 . S
C2556 C2555 1.403 . S
C2556 C2557 1.404 . S
C2556 C2559 1.539 . S
C2557 C2553 1.408 . S
C2557 C2556 1.404 . S
C2557 H2569 0.930 . S
C2558 C2554 1.524 . S
C2558 H2570 0.956 . S
C2558 H2571 0.961 . S
C2558 H2572 0.961 . S
C2559 C2556 1.539 . S
C2559 H2573 0.958 . S
C2559 H2574 0.961 . S
C2559 H2575 0.960 . S
H2560 C2544 0.931 . S
H2561 C2549 0.929 . S
H2562 C2550 0.960 . S
H2563 C2550 0.962 . S
H2564 C2550 0.960 . S
H2565 C2551 0.961 . S
H2566 C2551 0.961 . S
H2567 C2551 0.961 . S
H2568 C2552 0.931 . S
H2569 C2557 0.930 . S
H2570 C2558 0.956 . S
H2571 C2558 0.961 . S
H2572 C2558 0.961 . S
H2573 C2559 0.958 . S
H2574 C2559 0.961 . S
H2575 C2559 0.960 . S
C2576 C2577 1.391 . S
C2576 C2578 1.394 . S
C2576 H2592 0.931 . S
C2577 C2576 1.391 . S
C2577 C2581 1.376 . S
C2578 C2576 1.394 . S
C2578 C2579 1.369 . S
C2578 C2582 1.531 . S
C2579 C2578 1.369 . S
C2579 C2580 1.410 . S
C2579 C2587 1.503 . S
C2580 C2579 1.410 . S
C2580 C2581 1.392 . S
C2580 C2583 1.511 . S
C2581 C2577 1.376 . S
C2581 C2580 1.392 . S
C2581 H2593 0.929 . S
C2582 C2578 1.531 . S
C2582 H2594 0.960 . S
C2582 H2595 0.962 . S
C2582 H2596 0.960 1_655 S
C2583 C2580 1.511 . S
C2583 H2597 0.961 . S
C2583 H2598 0.961 . S
C2583 H2599 0.961 . S
C2584 C2585 1.370 . S
C2584 C2586 1.363 . S
C2584 H2600 0.931 . S
C2585 C2584 1.370 . S
C2585 C2589 1.408 . S
C2586 C2584 1.363 . S
C2586 C2587 1.370 . S
C2586 C2590 1.524 . S
C2587 C2579 1.503 . S
C2587 C2586 1.370 . S
C2587 C2588 1.403 . S
C2588 C2587 1.403 . S
C2588 C2589 1.404 . S
C2588 C2591 1.539 . S
C2589 C2585 1.408 . S
C2589 C2588 1.404 . S
C2589 H2601 0.930 . S
C2590 C2586 1.524 . S
C2590 H2602 0.956 . S
C2590 H2603 0.961 . S
C2590 H2604 0.961 . S
C2591 C2588 1.539 . S
C2591 H2605 0.958 . S
C2591 H2606 0.961 . S
C2591 H2607 0.960 . S
H2592 C2576 0.931 . S
H2593 C2581 0.929 . S
H2594 C2582 0.960 . S
H2595 C2582 0.962 . S
H2596 C2582 0.960 1_455 S
H2597 C2583 0.961 . S
H2598 C2583 0.961 . S
H2599 C2583 0.961 . S
H2600 C2584 0.931 . S
H2601 C2589 0.930 . S
H2602 C2590 0.956 . S
H2603 C2590 0.961 . S
H2604 C2590 0.961 . S
H2605 C2591 0.958 . S
H2606 C2591 0.961 . S
H2607 C2591 0.960 . S
C2608 C2609 1.391 1_565 S
C2608 C2610 1.394 . S
C2608 H2624 0.931 . S
C2609 C2608 1.391 1_545 S
C2609 C2613 1.376 . S
C2610 C2608 1.394 . S
C2610 C2611 1.386 . S
C2610 C2614 1.531 . S
C2611 C2610 1.386 . S
C2611 C2612 1.386 1_565 S
C2611 C2619 1.510 . S
C2612 C2611 1.386 1_545 S
C2612 C2613 1.392 . S
C2612 C2615 1.511 . S
C2613 C2609 1.376 . S
C2613 C2612 1.392 . S
C2613 H2625 0.929 . S
C2614 C2610 1.531 . S
C2614 H2626 0.960 . S
C2614 H2627 0.962 . S
C2614 H2628 0.960 . S
C2615 C2612 1.511 . S
C2615 H2629 0.961 . S
C2615 H2630 0.961 . S
C2615 H2631 0.961 . S
C2616 C2617 1.370 . S
C2616 C2618 1.363 . S
C2616 H2632 0.931 . S
C2617 C2616 1.370 . S
C2617 C2621 1.408 . S
C2618 C2616 1.363 . S
C2618 C2619 1.370 . S
C2618 C2622 1.524 . S
C2619 C2611 1.510 . S
C2619 C2618 1.370 . S
C2619 C2620 1.403 . S
C2620 C2619 1.403 . S
C2620 C2621 1.404 . S
C2620 C2623 1.539 1_465 S
C2621 C2617 1.408 . S
C2621 C2620 1.404 . S
C2621 H2633 0.930 1_455 S
C2622 C2618 1.524 . S
C2622 H2634 0.956 . S
C2622 H2635 0.961 1_565 S
C2622 H2636 0.961 . S
C2623 C2620 1.539 1_645 S
C2623 H2637 0.958 1_545 S
C2623 H2638 0.961 . S
C2623 H2639 0.960 . S
H2624 C2608 0.931 . S
H2625 C2613 0.929 . S
H2626 C2614 0.960 . S
H2627 C2614 0.962 . S
H2628 C2614 0.960 . S
H2629 C2615 0.961 . S
H2630 C2615 0.961 . S
H2631 C2615 0.961 . S
H2632 C2616 0.931 . S
H2633 C2621 0.930 1_655 S
H2634 C2622 0.956 . S
H2635 C2622 0.961 1_545 S
H2636 C2622 0.961 . S
H2637 C2623 0.958 1_565 S
H2638 C2623 0.961 . S
H2639 C2623 0.960 . S
C2640 C2641 1.340 1_554 S
C2640 C2642 1.415 . S
C2640 H2656 0.962 . S
C2641 C2640 1.340 1_556 S
C2641 C2645 1.376 . S
C2642 C2640 1.415 . S
C2642 C2643 1.369 1_554 S
C2642 C2646 1.531 . S
C2643 C2642 1.369 1_556 S
C2643 C2644 1.410 . S
C2643 C2651 1.503 1_556 S
C2644 C2643 1.410 . S
C2644 C2645 1.392 . S
C2644 C2647 1.511 . S
C2645 C2641 1.376 . S
C2645 C2644 1.392 . S
C2645 H2657 0.929 . S
C2646 C2642 1.531 . S
C2646 H2658 0.960 . S
C2646 H2659 0.962 . S
C2646 H2660 0.960 . S
C2647 C2644 1.511 . S
C2647 H2661 0.961 . S
C2647 H2662 0.961 . S
C2647 H2663 0.961 . S
C2648 C2649 1.370 . S
C2648 C2650 1.363 . S
C2648 H2664 0.931 . S
C2649 C2648 1.370 . S
C2649 C2653 1.408 . S
C2650 C2648 1.363 . S
C2650 C2651 1.370 . S
C2650 C2654 1.524 1_554 S
C2651 C2643 1.503 1_554 S
C2651 C2650 1.370 . S
C2651 C2652 1.403 . S
C2652 C2651 1.403 . S
C2652 C2653 1.404 . S
C2652 C2655 1.539 . S
C2653 C2649 1.408 . S
C2653 C2652 1.404 . S
C2653 H2665 0.930 . S
C2654 C2650 1.524 1_556 S
C2654 H2666 0.955 . S
C2654 H2667 0.961 . S
C2654 H2668 0.961 . S
C2655 C2652 1.539 . S
C2655 H2669 0.958 . S
C2655 H2670 0.961 . S
C2655 H2671 0.960 . S
H2656 C2640 0.962 . S
H2657 C2645 0.929 . S
H2658 C2646 0.960 . S
H2659 C2646 0.962 . S
H2660 C2646 0.960 . S
H2661 C2647 0.961 . S
H2662 C2647 0.961 . S
H2663 C2647 0.961 . S
H2664 C2648 0.931 . S
H2665 C2653 0.930 . S
H2666 C2654 0.955 . S
H2667 C2654 0.961 . S
H2668 C2654 0.961 . S
H2669 C2655 0.958 . S
H2670 C2655 0.961 . S
H2671 C2655 0.960 . S
C2672 C2673 1.391 . S
C2672 C2674 1.394 . S
C2672 H2688 0.931 . S
C2673 C2672 1.391 . S
C2673 C2677 1.376 . S
C2674 C2672 1.394 . S
C2674 C2675 1.369 . S
C2674 C2678 1.531 . S
C2675 C2674 1.369 . S
C2675 C2676 1.410 . S
C2675 C2683 1.503 . S
C2676 C2675 1.410 . S
C2676 C2677 1.392 . S
C2676 C2679 1.511 . S
C2677 C2673 1.376 . S
C2677 C2676 1.392 . S
C2677 H2689 0.929 . S
C2678 C2674 1.531 . S
C2678 H2690 0.960 . S
C2678 H2691 0.962 . S
C2678 H2692 0.960 . S
C2679 C2676 1.511 . S
C2679 H2693 0.961 . S
C2679 H2694 0.961 . S
C2679 H2695 0.961 . S
C2680 C2681 1.370 . S
C2680 C2682 1.363 . S
C2680 H2696 0.931 . S
C2681 C2680 1.370 . S
C2681 C2685 1.408 . S
C2682 C2680 1.363 . S
C2682 C2683 1.370 . S
C2682 C2686 1.524 . S
C2683 C2675 1.503 . S
C2683 C2682 1.370 . S
C2683 C2684 1.403 . S
C2684 C2683 1.403 . S
C2684 C2685 1.404 . S
C2684 C2687 1.539 . S
C2685 C2681 1.408 . S
C2685 C2684 1.404 . S
C2685 H2697 0.930 . S
C2686 C2682 1.524 . S
C2686 H2698 0.956 . S
C2686 H2699 0.961 . S
C2686 H2700 0.961 . S
C2687 C2684 1.539 . S
C2687 H2701 0.958 . S
C2687 H2702 0.961 . S
C2687 H2703 0.960 . S
H2688 C2672 0.931 . S
H2689 C2677 0.929 . S
H2690 C2678 0.960 . S
H2691 C2678 0.962 . S
H2692 C2678 0.960 . S
H2693 C2679 0.961 . S
H2694 C2679 0.961 . S
H2695 C2679 0.961 . S
H2696 C2680 0.931 . S
H2697 C2685 0.930 . S
H2698 C2686 0.956 . S
H2699 C2686 0.961 . S
H2700 C2686 0.961 . S
H2701 C2687 0.958 . S
H2702 C2687 0.961 . S
H2703 C2687 0.960 . S
C2704 C2705 1.391 . S
C2704 C2706 1.394 . S
C2704 H2720 0.931 . S
C2705 C2704 1.391 . S
C2705 C2709 1.376 . S
C2706 C2704 1.394 . S
C2706 C2707 1.369 . S
C2706 C2710 1.531 . S
C2707 C2706 1.369 . S
C2707 C2708 1.410 . S
C2707 C2715 1.503 . S
C2708 C2707 1.410 . S
C2708 C2709 1.392 . S
C2708 C2711 1.511 . S
C2709 C2705 1.376 . S
C2709 C2708 1.392 . S
C2709 H2721 0.929 . S
C2710 C2706 1.531 . S
C2710 H2722 0.960 . S
C2710 H2723 0.962 . S
C2710 H2724 0.960 . S
C2711 C2708 1.511 . S
C2711 H2725 0.961 . S
C2711 H2726 0.961 . S
C2711 H2727 0.961 . S
C2712 C2713 1.370 . S
C2712 C2714 1.363 . S
C2712 H2728 0.931 . S
C2713 C2712 1.370 . S
C2713 C2717 1.408 . S
C2714 C2712 1.363 . S
C2714 C2715 1.370 . S
C2714 C2718 1.524 . S
C2715 C2707 1.503 . S
C2715 C2714 1.370 . S
C2715 C2716 1.403 . S
C2716 C2715 1.403 . S
C2716 C2717 1.404 . S
C2716 C2719 1.539 . S
C2717 C2713 1.408 . S
C2717 C2716 1.404 . S
C2717 H2729 0.930 . S
C2718 C2714 1.524 . S
C2718 H2730 0.956 . S
C2718 H2731 0.961 . S
C2718 H2732 0.961 . S
C2719 C2716 1.539 . S
C2719 H2733 0.958 . S
C2719 H2734 0.961 . S
C2719 H2735 0.960 . S
H2720 C2704 0.931 . S
H2721 C2709 0.929 . S
H2722 C2710 0.960 . S
H2723 C2710 0.962 . S
H2724 C2710 0.960 . S
H2725 C2711 0.961 . S
H2726 C2711 0.961 . S
H2727 C2711 0.961 . S
H2728 C2712 0.931 . S
H2729 C2717 0.930 . S
H2730 C2718 0.956 . S
H2731 C2718 0.961 . S
H2732 C2718 0.961 . S
H2733 C2719 0.958 . S
H2734 C2719 0.961 . S
H2735 C2719 0.960 . S
C2736 C2737 1.391 . S
C2736 C2738 1.394 . S
C2736 H2752 0.931 . S
C2737 C2736 1.391 . S
C2737 C2741 1.376 . S
C2738 C2736 1.394 . S
C2738 C2739 1.369 . S
C2738 C2742 1.531 . S
C2739 C2738 1.369 . S
C2739 C2740 1.410 . S
C2739 C2747 1.503 . S
C2740 C2739 1.410 . S
C2740 C2741 1.392 . S
C2740 C2743 1.511 . S
C2741 C2737 1.376 . S
C2741 C2740 1.392 . S
C2741 H2753 0.929 . S
C2742 C2738 1.531 . S
C2742 H2754 0.960 . S
C2742 H2755 0.962 . S
C2742 H2756 0.960 . S
C2743 C2740 1.511 . S
C2743 H2757 0.961 . S
C2743 H2758 0.961 . S
C2743 H2759 0.961 . S
C2744 C2745 1.370 . S
C2744 C2746 1.363 . S
C2744 H2760 0.931 . S
C2745 C2744 1.370 . S
C2745 C2749 1.408 . S
C2746 C2744 1.363 . S
C2746 C2747 1.370 . S
C2746 C2750 1.524 . S
C2747 C2739 1.503 . S
C2747 C2746 1.370 . S
C2747 C2748 1.403 . S
C2748 C2747 1.403 . S
C2748 C2749 1.404 . S
C2748 C2751 1.539 . S
C2749 C2745 1.408 . S
C2749 C2748 1.404 . S
C2749 H2761 0.930 . S
C2750 C2746 1.524 . S
C2750 H2762 0.956 . S
C2750 H2763 0.961 . S
C2750 H2764 0.961 . S
C2751 C2748 1.539 . S
C2751 H2765 0.958 . S
C2751 H2766 0.961 . S
C2751 H2767 0.960 . S
H2752 C2736 0.931 . S
H2753 C2741 0.929 . S
H2754 C2742 0.960 . S
H2755 C2742 0.962 . S
H2756 C2742 0.960 . S
H2757 C2743 0.961 . S
H2758 C2743 0.961 . S
H2759 C2743 0.961 . S
H2760 C2744 0.931 . S
H2761 C2749 0.930 . S
H2762 C2750 0.956 . S
H2763 C2750 0.961 . S
H2764 C2750 0.961 . S
H2765 C2751 0.958 . S
H2766 C2751 0.961 . S
H2767 C2751 0.960 . S
C2768 C2769 1.375 1_565 S
C2768 C2770 1.394 . S
C2768 H2784 0.931 . S
C2769 C2768 1.375 1_545 S
C2769 C2773 1.379 . S
C2770 C2768 1.394 . S
C2770 C2771 1.369 . S
C2770 C2774 1.531 . S
C2771 C2770 1.369 . S
C2771 C2772 1.410 . S
C2771 C2779 1.503 . S
C2772 C2771 1.410 . S
C2772 C2773 1.392 1_565 S
C2772 C2775 1.513 . S
C2773 C2769 1.379 . S
C2773 C2772 1.392 1_545 S
C2773 H2785 0.929 . S
C2774 C2770 1.531 . S
C2774 H2786 0.960 . S
C2774 H2787 0.962 . S
C2774 H2788 0.960 . S
C2775 C2772 1.513 . S
C2775 H2789 0.940 1_565 S
C2775 H2790 0.953 1_565 S
C2775 H2791 0.990 . S
C2776 C2777 1.370 1_545 S
C2776 C2778 1.363 . S
C2776 H2792 0.931 . S
C2777 C2776 1.370 1_565 S
C2777 C2781 1.408 . S
C2778 C2776 1.363 . S
C2778 C2779 1.370 1_545 S
C2778 C2782 1.524 . S
C2779 C2771 1.503 . S
C2779 C2778 1.370 1_565 S
C2779 C2780 1.403 . S
C2780 C2779 1.403 . S
C2780 C2781 1.404 . S
C2780 C2783 1.539 . S
C2781 C2777 1.408 . S
C2781 C2780 1.404 . S
C2781 H2793 0.930 . S
C2782 C2778 1.524 . S
C2782 H2794 0.956 . S
C2782 H2795 0.961 . S
C2782 H2796 0.961 . S
C2783 C2780 1.539 . S
C2783 H2797 0.958 . S
C2783 H2798 0.961 . S
C2783 H2799 0.960 . S
H2784 C2768 0.931 . S
H2785 C2773 0.929 . S
H2786 C2774 0.960 . S
H2787 C2774 0.962 . S
H2788 C2774 0.960 . S
H2789 C2775 0.940 1_545 S
H2790 C2775 0.953 1_545 S
H2791 C2775 0.990 . S
H2792 C2776 0.931 . S
H2793 C2781 0.930 . S
H2794 C2782 0.956 . S
H2795 C2782 0.961 . S
H2796 C2782 0.961 . S
H2797 C2783 0.958 . S
H2798 C2783 0.961 . S
H2799 C2783 0.960 . S
C2800 C2801 1.391 . S
C2800 C2802 1.394 . S
C2800 H2816 0.931 . S
C2801 C2800 1.391 . S
C2801 C2805 1.376 . S
C2802 C2800 1.394 . S
C2802 C2803 1.369 . S
C2802 C2806 1.531 . S
C2803 C2802 1.369 . S
C2803 C2804 1.410 . S
C2803 C2811 1.503 . S
C2804 C2803 1.410 . S
C2804 C2805 1.392 . S
C2804 C2807 1.511 . S
C2805 C2801 1.376 . S
C2805 C2804 1.392 . S
C2805 H2817 0.929 . S
C2806 C2802 1.531 . S
C2806 H2818 0.960 . S
C2806 H2819 0.996 . S
C2806 H2820 0.960 . S
C2807 C2804 1.511 . S
C2807 H2821 0.961 . S
C2807 H2822 0.961 . S
C2807 H2823 0.961 . S
C2808 C2809 1.370 . S
C2808 C2810 1.363 . S
C2808 H2824 0.931 . S
C2809 C2808 1.370 . S
C2809 C2813 1.408 . S
C2810 C2808 1.363 . S
C2810 C2811 1.370 . S
C2810 C2814 1.524 1_556 S
C2811 C2803 1.503 . S
C2811 C2810 1.370 . S
C2811 C2812 1.403 . S
C2812 C2811 1.403 . S
C2812 C2813 1.404 . S
C2812 C2815 1.539 . S
C2813 C2809 1.408 . S
C2813 C2812 1.404 . S
C2813 H2825 0.930 . S
C2814 C2810 1.524 1_554 S
C2814 H2826 0.956 . S
C2814 H2827 0.961 . S
C2814 H2828 0.961 . S
C2815 C2812 1.539 . S
C2815 H2829 0.958 . S
C2815 H2830 0.961 . S
C2815 H2831 0.960 . S
H2816 C2800 0.931 . S
H2817 C2805 0.929 . S
H2818 C2806 0.960 . S
H2819 C2806 0.996 . S
H2820 C2806 0.960 . S
H2821 C2807 0.961 . S
H2822 C2807 0.961 . S
H2823 C2807 0.961 . S
H2824 C2808 0.931 . S
H2825 C2813 0.930 . S
H2826 C2814 0.956 . S
H2827 C2814 0.961 . S
H2828 C2814 0.961 . S
H2829 C2815 0.958 . S
H2830 C2815 0.961 . S
H2831 C2815 0.960 . S
C529 C249 1.543 . S
C537 C7 1.526 . S
C561 C238 1.368 . S
C569 C16 1.241 . S
C593 C524 1.518 . S
C601 C29 1.511 . S
C625 C227 1.365 . S
C633 C38 1.248 . S
C657 C412 1.352 . S
C665 C51 1.452 . S
C689 C403 1.589 . S
C697 C60 1.440 . S
C721 C434 1.345 . S
C729 C73 1.452 . S
C753 C82 1.455 . S
C761 C425 1.554 . S
C785 C93 1.494 . S
C793 C469 1.664 . S
C817 C447 1.661 . S
C825 C104 1.465 . S
C849 C115 1.180 . S
C857 C458 1.361 1_565 S
C881 C216 1.362 . S
C889 C126 1.222 . S
C913 C137 1.166 . S
C921 C117 1.438 . S
C945 C150 1.674 . S
C953 C106 1.619 . S
C977 C159 1.272 . S
C985 C392 1.454 . S
C1009 C95 1.597 . S
C1017 C172 1.662 . S
C1041 C181 1.228 . S
C1049 C282 1.498 . S
C1073 C192 1.235 . S
C1081 C269 1.241 . S
C1105 C203 1.235 . S
C1113 C304 1.499 . S
C1137 C214 1.276 . S
C1145 C291 1.244 . S
C1169 C335 1.167 . S
C1177 C225 1.135 . S
C1201 C236 1.210 . S
C1209 C313 1.094 . S
C1233 C247 1.407 . S
C1241 C326 1.566 . S
C1265 C258 1.499 . S
C1273 C84 1.587 . S
C1297 C271 1.525 . S
C1305 C513 1.533 . S
C1329 C502 1.339 . S
C1337 C280 1.245 . S
C1361 C293 1.488 . S
C1369 C260 1.520 . S
C1393 C491 1.309 . S
C1401 C302 1.277 . S
C1425 C148 1.373 . S
C1433 C315 1.455 . S
C1457 C324 1.424 . S
C1465 C139 1.577 . S
C1489 C337 1.450 . S
C1497 C170 1.340 . S
C1521 C346 1.407 . S
C1529 C161 1.565 . S
C1553 C357 1.496 . S
C1561 C205 1.658 1_565 S
C1585 C368 1.450 . S
C1593 C183 1.688 . S
C1617 C194 1.326 . S
C1625 C379 1.226 . S
C1649 C390 1.262 . S
C1657 C480 1.357 . S
C1681 C381 1.440 . S
C1689 C401 1.233 . S
C1713 C414 1.676 . S
C1721 C370 1.616 . S
C1745 C128 1.428 . S
C1753 C423 1.207 . S
C1777 C436 1.652 . S
C1785 C359 1.626 . S
C1809 C445 1.247 . S
C1817 C18 1.500 . S
C1841 C456 1.281 . S
C1849 C5 1.229 . S
C1873 C40 1.508 . S
C1881 C467 1.306 . S
C1905 C27 1.302 . S
C1913 C478 1.215 . S
C1937 C71 1.149 . S
C1945 C489 1.150 . S
C1969 C500 1.209 . S
C1977 C49 1.093 . S
C2001 C62 1.572 . S
C2009 C511 1.459 . S
C2033 C522 1.408 . S
C2041 C348 1.566 1_565 S
C2065 C19 1.481 . S
C2073 C8 1.469 . S
C2097 C30 1.457 . S
C2105 C41 1.484 . S
C2129 C52 1.433 1_565 S
C2137 C74 1.464 . S
C2161 C63 1.597 . S
C2169 C85 1.590 . S
C2193 C382 1.515 . S
C2201 C96 1.520 . S
C2225 C107 1.523 . S
C2233 C129 1.525 . S
C2257 C360 1.516 . S
C2265 C118 1.538 . S
C2289 C140 1.541 1_455 S
C2297 C151 1.592 . S
C2321 C162 1.553 1_455 S
C2329 C173 1.589 . S
C2353 C184 1.598 . S
C2361 C206 1.617 . S
C2385 C195 1.427 . S
C2393 C217 1.440 . S
C2417 C514 1.535 . S
C2425 C228 1.510 1_554 S
C2449 C261 1.530 . S
C2457 C239 1.516 . S
C2481 C250 1.535 . S
C2489 C492 1.511 . S
C2513 C272 1.456 . S
C2521 C283 1.483 . S
C2545 C294 1.463 . S
C2553 C305 1.481 . S
C2577 C338 1.445 . S
C2585 C316 1.470 . S
C2609 C349 1.588 . S
C2617 C327 1.591 . S
C2641 C371 1.500 . S
C2649 C393 1.531 . S
C2673 C404 1.559 . S
C2681 C415 1.585 . S
C2705 C437 1.596 . S
C2713 C426 1.575 . S
C2737 C470 1.626 . S
C2745 C448 1.618 . S
C2769 C459 1.459 . S
C2777 C481 1.424 . S
C2801 C503 1.509 1_556 S
C2809 C525 1.533 . S
