# Generated by pormake.
# Topology snl, (6)-cn, num edge types: 1
# Building blocks:
#     Node 0, Type 0, BuildingBlock: KUMBUR_clean_sbu_1, # of connection points: 6
#     Node 1, Type 0, BuildingBlock: KUMBUR_clean_sbu_1, # of connection points: 6
#     Node 2, Type 0, BuildingBlock: KUMBUR_clean_sbu_1, # of connection points: 6
#     Node 3, Type 0, BuildingBlock: KUMBUR_clean_sbu_1, # of connection points: 6
#     Node 4, Type 0, BuildingBlock: KUMBUR_clean_sbu_1, # of connection points: 6
#     Node 5, Type 0, BuildingBlock: KUMBUR_clean_sbu_1, # of connection points: 6
#     Node 6, Type 0, BuildingBlock: KUMBUR_clean_sbu_1, # of connection points: 6
#     Node 7, Type 0, BuildingBlock: KUMBUR_clean_sbu_1, # of connection points: 6
#     Node 8, Type 0, BuildingBlock: KUMBUR_clean_sbu_1, # of connection points: 6
#     Node 9, Type 0, BuildingBlock: KUMBUR_clean_sbu_1, # of connection points: 6
#     Node 10, Type 0, BuildingBlock: KUMBUR_clean_sbu_1, # of connection points: 6
#     Node 11, Type 0, BuildingBlock: KUMBUR_clean_sbu_1, # of connection points: 6
#     Node 12, Type 0, BuildingBlock: KUMBUR_clean_sbu_1, # of connection points: 6
#     Node 13, Type 0, BuildingBlock: KUMBUR_clean_sbu_1, # of connection points: 6
#     Node 14, Type 0, BuildingBlock: KUMBUR_clean_sbu_1, # of connection points: 6
#     Node 15, Type 0, BuildingBlock: KUMBUR_clean_sbu_1, # of connection points: 6
#     Edge 16, Type (0, 0), BuildingBlock: AJUNOK_clean_linker_0, # of connection points: 2
#     Edge 17, Type (0, 0), BuildingBlock: AJUNOK_clean_linker_0, # of connection points: 2
#     Edge 18, Type (0, 0), BuildingBlock: AJUNOK_clean_linker_0, # of connection points: 2
#     Edge 19, Type (0, 0), BuildingBlock: AJUNOK_clean_linker_0, # of connection points: 2
#     Edge 20, Type (0, 0), BuildingBlock: AJUNOK_clean_linker_0, # of connection points: 2
#     Edge 21, Type (0, 0), BuildingBlock: AJUNOK_clean_linker_0, # of connection points: 2
#     Edge 22, Type (0, 0), BuildingBlock: AJUNOK_clean_linker_0, # of connection points: 2
#     Edge 23, Type (0, 0), BuildingBlock: AJUNOK_clean_linker_0, # of connection points: 2
#     Edge 24, Type (0, 0), BuildingBlock: AJUNOK_clean_linker_0, # of connection points: 2
#     Edge 25, Type (0, 0), BuildingBlock: AJUNOK_clean_linker_0, # of connection points: 2
#     Edge 26, Type (0, 0), BuildingBlock: AJUNOK_clean_linker_0, # of connection points: 2
#     Edge 27, Type (0, 0), BuildingBlock: AJUNOK_clean_linker_0, # of connection points: 2
#     Edge 28, Type (0, 0), BuildingBlock: AJUNOK_clean_linker_0, # of connection points: 2
#     Edge 29, Type (0, 0), BuildingBlock: AJUNOK_clean_linker_0, # of connection points: 2
#     Edge 30, Type (0, 0), BuildingBlock: AJUNOK_clean_linker_0, # of connection points: 2
#     Edge 31, Type (0, 0), BuildingBlock: AJUNOK_clean_linker_0, # of connection points: 2
#     Edge 32, Type (0, 0), BuildingBlock: AJUNOK_clean_linker_0, # of connection points: 2
#     Edge 33, Type (0, 0), BuildingBlock: AJUNOK_clean_linker_0, # of connection points: 2
#     Edge 34, Type (0, 0), BuildingBlock: AJUNOK_clean_linker_0, # of connection points: 2
#     Edge 35, Type (0, 0), BuildingBlock: AJUNOK_clean_linker_0, # of connection points: 2
#     Edge 36, Type (0, 0), BuildingBlock: AJUNOK_clean_linker_0, # of connection points: 2
#     Edge 37, Type (0, 0), BuildingBlock: AJUNOK_clean_linker_0, # of connection points: 2
#     Edge 38, Type (0, 0), BuildingBlock: AJUNOK_clean_linker_0, # of connection points: 2
#     Edge 39, Type (0, 0), BuildingBlock: AJUNOK_clean_linker_0, # of connection points: 2
#     Edge 40, Type (0, 0), BuildingBlock: AJUNOK_clean_linker_0, # of connection points: 2
#     Edge 41, Type (0, 0), BuildingBlock: AJUNOK_clean_linker_0, # of connection points: 2
#     Edge 42, Type (0, 0), BuildingBlock: AJUNOK_clean_linker_0, # of connection points: 2
#     Edge 43, Type (0, 0), BuildingBlock: AJUNOK_clean_linker_0, # of connection points: 2
#     Edge 44, Type (0, 0), BuildingBlock: AJUNOK_clean_linker_0, # of connection points: 2
#     Edge 45, Type (0, 0), BuildingBlock: AJUNOK_clean_linker_0, # of connection points: 2
#     Edge 46, Type (0, 0), BuildingBlock: AJUNOK_clean_linker_0, # of connection points: 2
#     Edge 47, Type (0, 0), BuildingBlock: AJUNOK_clean_linker_0, # of connection points: 2
#     Edge 48, Type (0, 0), BuildingBlock: AJUNOK_clean_linker_0, # of connection points: 2
#     Edge 49, Type (0, 0), BuildingBlock: AJUNOK_clean_linker_0, # of connection points: 2
#     Edge 50, Type (0, 0), BuildingBlock: AJUNOK_clean_linker_0, # of connection points: 2
#     Edge 51, Type (0, 0), BuildingBlock: AJUNOK_clean_linker_0, # of connection points: 2
#     Edge 52, Type (0, 0), BuildingBlock: AJUNOK_clean_linker_0, # of connection points: 2
#     Edge 53, Type (0, 0), BuildingBlock: AJUNOK_clean_linker_0, # of connection points: 2
#     Edge 54, Type (0, 0), BuildingBlock: AJUNOK_clean_linker_0, # of connection points: 2
#     Edge 55, Type (0, 0), BuildingBlock: AJUNOK_clean_linker_0, # of connection points: 2
#     Edge 56, Type (0, 0), BuildingBlock: AJUNOK_clean_linker_0, # of connection points: 2
#     Edge 57, Type (0, 0), BuildingBlock: AJUNOK_clean_linker_0, # of connection points: 2
#     Edge 58, Type (0, 0), BuildingBlock: AJUNOK_clean_linker_0, # of connection points: 2
#     Edge 59, Type (0, 0), BuildingBlock: AJUNOK_clean_linker_0, # of connection points: 2
#     Edge 60, Type (0, 0), BuildingBlock: AJUNOK_clean_linker_0, # of connection points: 2
#     Edge 61, Type (0, 0), BuildingBlock: AJUNOK_clean_linker_0, # of connection points: 2
#     Edge 62, Type (0, 0), BuildingBlock: AJUNOK_clean_linker_0, # of connection points: 2
#     Edge 63, Type (0, 0), BuildingBlock: AJUNOK_clean_linker_0, # of connection points: 2
# Relax obj value: 0.157
# Max RMSD: 0.240
# Mean RMSD: 0.236
data_MOF--net-snl--node1-KUMBUR_clean_sbu_1--edge1-AJUNOK_clean_linker_0
_symmetry_space_group_name_H-M    P1
_symmetry_Int_Tables_number       1
_symmetry_cell_setting            triclinic
loop_
_symmetry_equiv_pos_as_xyz
'x, y, z'
_cell_length_a     41.205638
_cell_length_b     41.224884
_cell_length_c     20.644901
_cell_angle_alpha  89.95173
_cell_angle_beta   90.214164
_cell_angle_gamma 89.92124
loop_
_atom_site_label
_atom_site_type_symbol
_atom_site_fract_x
_atom_site_fract_y
_atom_site_fract_z
_atom_type_partial_charge
Tb0 Tb 0.13103 0.62111 0.22249 0.0
C1 C 0.235 0.68192 0.05409 0.0
N2 N 0.20433 0.69221 0.06706 0.0
C3 C 0.22409 0.74561 0.08957 0.0
C4 C 0.26142 0.70354 0.05681 0.0
C5 C 0.19841 0.72408 0.0802 0.0
C6 C 0.25575 0.73548 0.07674 0.0
C7 C 0.27136 0.63803 0.02496 0.0
C8 C 0.24 0.64922 0.04086 0.0
C9 C 0.29749 0.65989 0.02416 0.0
C10 C 0.29261 0.69245 0.04095 0.0
Tb11 Tb 0.16516 0.65346 0.05929 0.0
N12 N 0.21432 0.62843 0.04473 0.0
C13 C 0.27559 0.60516 1.01075 0.0
C14 C 0.21836 0.59654 0.02874 0.0
C15 C 0.24894 0.58438 1.01248 0.0
H16 H 0.17399 0.73325 0.08177 0.0
H17 H 0.25179 0.55905 0.99989 0.0
H18 H 0.13753 0.542 0.2454 0.0
H19 H 0.03662 0.71197 0.21826 0.0
H20 H 0.19819 0.58047 0.025 0.0
H21 H 0.29923 0.59566 0.9978 0.0
H22 H 0.0875 0.68902 0.19312 0.0
H23 H 0.21926 0.7704 0.10375 0.0
H24 H 0.32169 0.65172 1.01178 0.0
H25 H 0.31314 0.70884 0.04168 0.0
H26 H 0.10777 0.49718 0.29192 0.0
H27 H 0.27552 0.75261 0.08139 0.0
H28 H 0.99647 0.68504 0.27672 0.0
N29 N 0.10004 0.57647 0.25006 0.0
C30 C 0.07004 0.5838 0.27232 0.0
C31 C 0.096 0.52061 0.28809 0.0
C32 C 0.0513 0.55523 0.31949 0.0
C33 C 0.11235 0.54574 0.25616 0.0
C34 C 0.0667 0.5253 0.32042 0.0
N35 N 0.07932 0.64203 0.22845 0.0
C36 C 0.07126 0.67355 0.21706 0.0
C37 C 0.02284 0.63768 0.28789 0.0
C38 C 0.05785 0.62198 0.25699 0.0
C39 C 1.01774 0.67057 0.26678 0.0
C40 C 0.04126 0.68701 0.2321 0.0
H41 H 0.05608 0.5053 0.34686 0.0
H42 H 1.00712 0.53879 0.38925 0.0
H43 H 0.97205 0.59487 0.38945 0.0
O44 O 0.14045 0.64832 0.30869 0.0
O45 O 0.09537 0.61862 0.14271 0.0
O46 O 0.11076 0.65777 0.06813 0.0
O47 O 0.13047 0.59781 0.31128 0.0
O48 O 0.14688 0.67355 0.21829 0.0
O49 O 0.13697 0.68828 0.11329 0.0
O50 O 0.16619 0.63679 0.96302 0.0
O51 O 0.19846 0.6543 0.14669 0.0
O52 O 0.18319 0.61175 0.21105 0.0
O53 O 0.1631 0.68772 0.98411 0.0
O54 O 0.14494 0.60455 0.05599 0.0
O55 O 0.15134 0.5821 0.15776 0.0
C56 C 0.08868 0.63781 0.09325 0.0
C57 C 0.15867 0.61643 0.39958 0.0
C58 C 0.1681 0.61837 0.51588 0.0
C59 C 0.19359 0.59599 0.50897 0.0
C60 C 0.18423 0.59403 0.39331 0.0
C61 C 0.2017 0.58406 0.44783 0.0
C62 C 0.15069 0.62847 0.46084 0.0
C63 C 0.14389 0.69628 0.17312 0.0
C64 C 0.1366 0.6229 0.34544 0.0
C65 C 1.01618 0.55917 0.36174 0.0
C66 C 0.99444 0.59443 0.36108 0.0
C67 C 0.20453 0.63411 0.1953 0.0
C68 C 0.14049 0.6697 0.88517 0.0
C69 C 0.12935 0.66355 0.77006 0.0
C70 C 0.10021 0.68076 0.77774 0.0
C71 C 0.11101 0.68639 0.89264 0.0
C72 C 0.14925 0.65782 0.82406 0.0
C73 C 0.09099 0.69185 0.83894 0.0
C74 C 0.14724 0.57903 0.0938 0.0
C75 C 0.16346 0.6658 0.93903 0.0
H76 H 0.20724 0.5878 0.55085 0.0
H77 H 0.19024 0.58385 0.34648 0.0
H78 H 0.22126 0.56672 0.4428 0.0
H79 H 0.13006 0.64463 0.466 0.0
H80 H 0.08461 0.68549 0.73643 0.0
H81 H 0.10373 0.69558 0.93954 0.0
H82 H 0.17206 0.64499 0.8181 0.0
H83 H 0.06844 0.70503 0.84464 0.0
Tb84 Tb 0.63388 0.91506 0.31113 0.0
C85 C 0.73656 0.861 0.49237 0.0
N86 N 0.70631 0.8495 0.48001 0.0
C87 C 0.72743 0.79558 0.47091 0.0
C88 C 0.76365 0.8401 0.4928 0.0
C89 C 0.70119 0.81697 0.47415 0.0
C90 C 0.75883 0.8071 0.48055 0.0
C91 C 0.77128 0.90683 0.51565 0.0
C92 C 0.7403 0.89408 0.50291 0.0
C93 C 0.79829 0.88602 0.51661 0.0
C94 C 0.79456 0.85281 0.50494 0.0
Tb95 Tb 0.66594 0.8872 0.48039 0.0
N96 N 0.7136 0.91365 0.50062 0.0
C97 C 0.77408 0.94014 0.52675 0.0
C98 C 0.71609 0.94539 0.51868 0.0
C99 C 0.74638 0.95939 0.52962 0.0
H100 H 0.67691 0.80732 0.4715 0.0
H101 H 0.74826 0.98482 0.54209 0.0
H102 H 0.5965 0.97261 0.40173 0.0
H103 H 0.60283 0.82773 0.12806 0.0
H104 H 0.69505 0.95971 0.52858 0.0
H105 H 0.79725 0.9512 0.5352 0.0
H106 H 0.63208 0.84664 0.2211 0.0
H107 H 0.72333 0.77015 0.46139 0.0
H108 H 0.82215 0.89518 0.52683 0.0
H109 H 0.81571 0.83717 0.50574 0.0
H110 H 0.54528 0.99796 0.41101 0.0
H111 H 0.77906 0.7903 0.47927 0.0
H112 H 0.55481 0.855 0.08559 0.0
N113 N 0.58411 0.93865 0.32912 0.0
C114 C 0.56098 0.92873 0.2869 0.0
C115 C 0.54805 0.97893 0.37529 0.0
C116 C 0.52496 0.94921 0.28283 0.0
C117 C 0.57816 0.96369 0.37033 0.0
C118 C 0.52175 0.97165 0.33568 0.0
N119 N 0.60042 0.88585 0.24417 0.0
C120 C 0.6097 0.85898 0.20973 0.0
C121 C 0.55213 0.88997 0.16204 0.0
C122 C 0.57221 0.90133 0.23088 0.0
C123 C 0.56614 0.86425 0.12921 0.0
C124 C 0.59333 0.84845 0.15406 0.0
H125 H 0.50022 0.9857 0.34609 0.0
H126 H 0.46684 0.94393 0.15872 0.0
H127 H 0.50086 0.9182 0.14933 0.0
O128 O 0.65139 0.90784 0.21731 0.0
O129 O 0.59794 0.88879 0.37104 0.0
O130 O 0.61311 0.90087 0.47576 0.0
O131 O 0.62598 0.95204 0.24093 0.0
O132 O 0.65432 0.86467 0.31975 0.0
O133 O 0.64167 0.84931 0.42387 0.0
O134 O 0.67082 0.89822 0.58044 0.0
O135 O 0.70127 0.88568 0.39548 0.0
O136 O 0.68528 0.92622 0.32708 0.0
O137 O 0.65431 0.85154 0.5483 0.0
O138 O 0.64694 0.93676 0.47844 0.0
O139 O 0.6514 0.95683 0.37412 0.0
C140 C 0.59051 0.89294 0.43259 0.0
C141 C 0.65167 0.94858 0.13553 0.0
C142 C 0.65758 0.94555 1.01717 0.0
C143 C 0.67171 0.97662 1.0186 0.0
C144 C 0.66646 0.97905 0.13563 0.0
C145 C 0.67647 0.99292 0.07731 0.0
C146 C 0.64765 0.93172 0.07652 0.0
C147 C 0.64792 0.84185 0.36326 0.0
C148 C 0.63848 0.93421 0.19508 0.0
C149 C 0.49293 0.93262 0.17608 0.0
C150 C 0.51594 0.9028 0.13316 0.0
C151 C 0.70749 0.90551 0.34617 0.0
C152 C 0.64053 0.86593 0.65652 0.0
C153 C 0.63415 0.87483 0.77362 0.0
C154 C 0.61517 0.84645 0.77641 0.0
C155 C 0.61928 0.83954 0.66069 0.0
C156 C 0.64656 0.88452 0.71255 0.0
C157 C 0.60718 0.82952 0.72023 0.0
C158 C 0.65174 0.96112 0.43843 0.0
C159 C 0.66101 0.86963 0.59805 0.0
H160 H 0.67847 0.98882 0.97425 0.0
H161 H 0.66978 0.99228 0.18047 0.0
H162 H 0.68742 1.01676 0.07744 0.0
H163 H 0.6365 0.90791 0.07699 0.0
H164 H 0.60638 0.83712 0.8221 0.0
H165 H 0.61291 0.82602 0.61793 0.0
H166 H 0.66121 0.90612 0.70796 0.0
H167 H 0.59208 0.8081 0.723 0.0
Tb168 Tb 0.37103 0.38505 0.5586 0.0
C169 C 0.43657 0.47673 0.76444 0.0
N170 N 0.44593 0.44588 0.75106 0.0
C171 C 0.49874 0.45669 0.79428 0.0
C172 C 0.45914 0.49973 0.78698 0.0
C173 C 0.47713 0.43606 0.76244 0.0
C174 C 0.49007 0.48901 0.80491 0.0
C175 C 0.39484 0.51801 0.76144 0.0
C176 C 0.40422 0.48538 0.75554 0.0
C177 C 0.41822 0.54167 0.77622 0.0
C178 C 0.45 0.53241 0.79155 0.0
Tb179 Tb 0.40457 0.41156 0.72798 0.0
N180 N 0.38249 0.4622 0.73719 0.0
C181 C 0.36246 0.52607 0.75042 0.0
C182 C 0.35067 0.47015 0.72678 0.0
C183 C 0.34017 0.50214 0.73359 0.0
H184 H 0.48468 0.41153 0.7516 0.0
H185 H 0.315 0.50841 0.72488 0.0
H186 H 0.29069 0.3853 0.54471 0.0
H187 H 0.46265 0.29826 0.4825 0.0
H188 H 0.33329 0.45259 0.71127 0.0
H189 H 0.35468 0.5507 0.75481 0.0
H190 H 0.44377 0.34804 0.53164 0.0
H191 H 0.52249 0.44798 0.8086 0.0
H192 H 0.41191 0.56716 0.77664 0.0
H193 H 0.4674 0.55073 0.80598 0.0
H194 H 0.24872 0.34967 0.499 0.0
H195 H 0.50748 0.5055 0.82643 0.0
H196 H 0.42344 0.25886 0.43847 0.0
N197 N 0.3295 0.35221 0.52725 0.0
C198 C 0.3386 0.32405 0.49855 0.0
C199 C 0.27386 0.34206 0.49885 0.0
C200 C 0.3155 0.30396 0.46784 0.0
C201 C 0.2977 0.36177 0.5264 0.0
C202 C 0.28279 0.31305 0.46925 0.0
N203 N 0.39329 0.33712 0.52316 0.0
C204 C 0.42578 0.33111 0.51657 0.0
C205 C 0.38155 0.28735 0.46573 0.0
C206 C 0.37137 0.31603 0.49715 0.0
C207 C 0.41468 0.28053 0.46232 0.0
C208 C 0.43686 0.3027 0.48717 0.0
H209 H 0.26431 0.29804 0.44698 0.0
H210 H 0.30827 0.2598 0.41282 0.0
H211 H 0.36604 0.24522 0.41117 0.0
O212 O 0.38482 0.38714 0.45858 0.0
O213 O 0.36788 0.34502 0.62809 0.0
O214 O 0.40633 0.35889 0.70526 0.0
O215 O 0.34102 0.40976 0.49516 0.0
O216 O 0.42423 0.39965 0.5651 0.0
O217 O 0.43827 0.38523 0.66847 0.0
O218 O 0.39058 0.41446 0.82848 0.0
O219 O 0.41127 0.44856 0.64701 0.0
O220 O 0.36636 0.43592 0.58921 0.0
O221 O 0.43455 0.39046 0.79594 0.0
O222 O 0.3544 0.39631 0.73448 0.0
O223 O 0.33096 0.39229 0.63183 0.0
C224 C 0.38673 0.33767 0.6774 0.0
C225 C 0.34265 0.40345 0.38026 0.0
C226 C 0.34823 0.40815 0.26295 0.0
C227 C 0.3168 0.42101 0.25886 0.0
C228 C 0.3105 0.41486 0.37451 0.0
C229 C 0.29796 0.42402 0.31437 0.0
C230 C 0.36133 0.39983 0.32388 0.0
C231 C 0.44672 0.39383 0.61034 0.0
C232 C 0.35848 0.40319 0.44465 0.0
C233 C 0.32569 0.27556 0.43643 0.0
C234 C 0.35856 0.26713 0.43592 0.0
C235 C 0.39065 0.45589 0.59942 0.0
C236 C 0.42801 0.39049 0.9103 0.0
C237 C 0.41905 0.38522 0.02614 0.0
C238 C 0.4494 0.37006 0.03269 0.0
C239 C 0.45843 0.37534 0.91809 0.0
C240 C 0.4084 0.39571 0.96473 0.0
C241 C 0.46882 0.36504 0.97881 0.0
C242 C 0.32904 0.39287 0.69651 0.0
C243 C 0.41715 0.39922 0.84463 0.0
H244 H 0.30655 0.42797 0.21246 0.0
H245 H 0.29563 0.41872 0.41696 0.0
H246 H 0.27366 0.43388 0.3109 0.0
H247 H 0.3863 0.39166 0.32741 0.0
H248 H 0.45822 0.36226 0.0797 0.0
H249 H 0.4742 0.37103 0.87711 0.0
H250 H 0.38484 0.40717 0.95933 0.0
H251 H 0.49185 0.35287 0.98407 0.0
Tb252 Tb 0.87712 0.15515 0.97821 0.0
C253 C 0.93044 0.04902 0.8045 0.0
N254 N 0.94269 0.07889 0.81779 0.0
C255 C 0.9958 0.05622 0.83137 0.0
C256 C 0.95076 0.0215 0.80338 0.0
C257 C 0.97518 0.08303 0.82739 0.0
C258 C 0.98369 0.02533 0.81833 0.0
C259 C 0.88414 1.01556 0.7765 0.0
C260 C 0.8973 0.0461 0.7926 0.0
C261 C 0.90447 0.98821 0.77366 0.0
C262 C 0.93763 0.99114 0.78748 0.0
Tb263 Tb 0.90665 0.12048 0.81141 0.0
N264 N 0.87826 0.07321 0.79523 0.0
C265 C 0.85104 1.01344 0.76229 0.0
C266 C 0.84618 0.07124 0.77829 0.0
C267 C 0.83204 0.04141 0.76294 0.0
H268 H 0.98551 0.10694 0.83079 0.0
H269 H 0.80662 0.04019 0.7497 0.0
H270 H 0.83471 0.19931 0.86387 0.0
H271 H 0.95244 0.18443 0.18154 0.0
H272 H 0.83143 0.09238 0.77259 0.0
H273 H 0.84009 0.99049 0.74924 0.0
H274 H 0.93935 0.15731 0.0814 0.0
H275 H 0.02126 0.05956 0.84241 0.0
H276 H 0.89478 0.96466 0.76076 0.0
H277 H 0.95295 0.96978 0.78542 0.0
H278 H 0.80791 0.24954 0.85389 0.0
H279 H 1.00003 1.00473 0.81907 0.0
H280 H 0.92212 0.23109 0.2215 0.0
N281 N 0.85442 0.20592 0.95792 0.0
C282 C 0.86052 0.22814 1.00439 0.0
C283 C 0.82114 0.24467 0.89832 0.0
C284 C 0.83958 0.2639 1.00506 0.0
C285 C 0.83629 0.21457 0.90515 0.0
C286 C 0.82168 0.26846 0.94584 0.0
N287 N 0.90071 0.18859 0.05374 0.0
C288 C 0.9258 0.17897 0.0929 0.0
C289 C 0.89149 0.23519 0.13774 0.0
C290 C 0.88439 0.21634 0.06552 0.0
C291 C 0.91544 0.22063 0.17525 0.0
C292 C 0.93299 0.19419 0.15194 0.0
H293 H 0.80772 0.28985 0.93363 0.0
H294 H 0.83711 0.32033 0.13203 0.0
H295 H 0.86219 0.28619 0.14656 0.0
O296 O 0.8856 0.12781 0.06218 0.0
O297 O 0.9063 0.18936 0.92142 0.0
O298 O 0.89553 0.1741 0.81574 0.0
O299 O 0.84325 0.15953 0.05537 0.0
O300 O 0.9285 0.13758 0.97189 0.0
O301 O 0.94445 0.14531 0.86547 0.0
O302 O 0.89601 0.11229 0.71269 0.0
O303 O 0.9092 0.08853 0.90035 0.0
O304 O 0.86394 0.10575 0.94944 0.0
O305 O 0.94208 0.13147 0.74175 0.0
O306 O 0.85794 0.14068 0.80945 0.0
O307 O 0.83488 0.14341 0.91227 0.0
C308 C 0.90349 0.19658 0.85935 0.0
C309 C 0.84967 0.12638 0.1525 0.0
C310 C 0.85628 0.11911 0.26993 0.0
C311 C 0.8353 0.09224 0.26626 0.0
C312 C 0.82901 0.09958 0.15023 0.0
C313 C 0.82173 0.08272 0.20702 0.0
C314 C 0.86297 0.13635 0.21236 0.0
C315 C 0.95119 0.14174 0.92727 0.0
C316 C 0.86159 0.14145 0.0927 0.0
C317 C 0.84934 0.29444 0.11667 0.0
C318 C 0.87668 0.27085 0.16541 0.0
C319 C 0.88657 0.08363 0.94449 0.0
C320 C 0.9223 0.14644 0.6372 0.0
C321 C 0.91082 0.15606 0.52206 0.0
C322 C 0.92461 0.18707 0.5279 0.0
C323 C 0.9355 0.17776 0.64181 0.0
C324 C 0.90947 0.13589 0.57724 0.0
C325 C 0.93663 0.19785 0.58742 0.0
C326 C 0.83249 0.14187 0.84761 0.0
C327 C 0.9235 0.12386 0.69301 0.0
H328 H 0.8298 0.07813 0.3091 0.0
H329 H 0.81905 0.09138 0.10451 0.0
H330 H 0.80594 0.06179 0.20497 0.0
H331 H 0.87887 0.15724 0.21373 0.0
H332 H 0.92579 0.20311 0.48639 0.0
H333 H 0.94532 0.18663 0.68719 0.0
H334 H 0.89925 0.11176 0.57311 0.0
H335 H 0.94709 0.22184 0.59132 0.0
Tb336 Tb 0.13601 0.41343 0.80793 0.0
C337 C 0.2384 0.35744 0.98497 0.0
N338 N 0.20911 0.34586 0.96497 0.0
C339 C 0.23361 0.29498 0.93752 0.0
C340 C 0.26619 0.33747 0.98491 0.0
C341 C 0.20615 0.31458 0.9443 0.0
C342 C 0.26359 0.30606 0.95987 0.0
C343 C 0.27089 0.40261 0.0231 0.0
C344 C 0.24084 0.39004 1.00167 0.0
C345 C 0.29803 0.38209 0.02788 0.0
C346 C 0.29579 0.34971 1.00805 0.0
Tb347 Tb 0.16693 0.38101 0.97795 0.0
N348 N 0.21413 0.40947 0.9952 0.0
C349 C 0.27294 0.43553 0.03848 0.0
C350 C 0.21654 0.44174 1.00895 0.0
C351 C 0.24572 0.45521 0.03064 0.0
H352 H 0.18278 0.30428 0.93474 0.0
H353 H 0.24704 0.4808 0.04212 0.0
H354 H 0.13622 0.49413 0.80837 0.0
H355 H 0.05129 0.32746 0.70802 0.0
H356 H 0.19631 0.45734 1.00526 0.0
H357 H 0.29547 0.44603 0.05568 0.0
H358 H 0.10219 0.34456 0.75863 0.0
H359 H 0.2313 0.27063 0.91847 0.0
H360 H 0.32113 0.39127 0.04517 0.0
H361 H 0.31722 0.33447 1.00991 0.0
H362 H 0.09804 0.53837 0.78423 0.0
H363 H 0.28452 0.29018 0.95755 0.0
H364 H 1.00898 0.36799 0.68245 0.0
N365 N 0.10171 0.45655 0.7933 0.0
C366 C 0.07233 0.44905 0.76701 0.0
C367 C 0.09021 0.51338 0.78044 0.0
C368 C 0.05099 0.47361 0.74543 0.0
C369 C 0.11133 0.48825 0.79742 0.0
C370 C 0.05984 0.50604 0.75442 0.0
N371 N 0.0875 0.39381 0.77155 0.0
C372 C 0.08335 0.36232 0.75221 0.0
C373 C 0.03624 0.40812 0.72255 0.0
C374 C 0.06508 0.41668 0.75531 0.0
C375 C 0.03079 0.37549 0.70767 0.0
C376 C 0.05462 0.35254 0.72197 0.0
H377 H 0.04402 0.52557 0.73881 0.0
H378 H 1.0058 0.48368 0.69521 0.0
H379 H 0.99307 0.42646 0.67495 0.0
O380 O 0.15161 0.39098 0.72131 0.0
O381 O 0.09591 0.39778 0.86927 0.0
O382 O 0.11231 0.38533 0.97518 0.0
O383 O 0.14026 0.44172 0.72409 0.0
O384 O 0.15003 0.36071 0.81704 0.0
O385 O 0.13889 0.34676 0.92287 0.0
O386 O 0.17451 0.39109 0.07666 0.0
O387 O 0.19848 0.37803 0.89001 0.0
O388 O 0.18608 0.42397 0.83487 0.0
O389 O 0.16054 0.34336 0.04566 0.0
O390 O 0.142 0.42746 0.9813 0.0
O391 O 0.14955 0.45174 0.88202 0.0
C392 C 0.08955 0.39015 0.92983 0.0
C393 C 0.16959 0.42407 0.63314 0.0
C394 C 0.17711 0.42213 0.51622 0.0
C395 C 0.20402 0.44274 0.52248 0.0
C396 C 0.19634 0.44483 0.63889 0.0
C397 C 0.21352 0.45405 0.58358 0.0
C398 C 0.16014 0.4127 0.57188 0.0
C399 C 0.14143 0.33905 0.8615 0.0
C400 C 0.14814 0.41746 0.68785 0.0
C401 C 0.02225 0.46513 0.71288 0.0
C402 C 1.01482 0.4325 0.70184 0.0
C403 C 0.20646 0.40051 0.84767 0.0
C404 C 0.14496 0.35993 0.15185 0.0
C405 C 0.13552 0.37193 0.26625 0.0
C406 C 0.1068 0.35365 0.26359 0.0
C407 C 0.11603 0.34194 0.15011 0.0
C408 C 0.15455 0.37487 0.21015 0.0
C409 C 0.09716 0.33881 0.20584 0.0
C410 C 0.14338 0.45357 0.94541 0.0
C411 C 0.1665 0.36207 0.09503 0.0
H412 H 0.21729 0.45051 0.48002 0.0
H413 H 0.20342 0.45442 0.6857 0.0
H414 H 0.23392 0.47041 0.58792 0.0
H415 H 0.13908 0.39707 0.56731 0.0
H416 H 0.09212 0.35037 0.30651 0.0
H417 H 0.10817 0.32999 0.10607 0.0
H418 H 0.17693 0.38866 0.21198 0.0
H419 H 0.07514 0.32455 0.20444 0.0
Tb420 Tb 0.90159 0.91571 0.23564 0.0
C421 C 0.81384 0.85824 0.02127 0.0
N422 N 0.84394 0.84923 0.04148 0.0
C423 C 0.83301 0.79437 1.00985 0.0
C424 C 0.79116 0.83504 0.99964 0.0
C425 C 0.8538 0.81771 0.03569 0.0
C426 C 0.80116 0.80275 0.99396 0.0
C427 C 0.77529 0.90129 0.99854 0.0
C428 C 0.80644 0.89108 1.01811 0.0
C429 C 0.75191 0.87809 0.98094 0.0
C430 C 0.75996 0.84506 0.98072 0.0
Tb431 Tb 0.87846 0.89111 0.06141 0.0
N432 N 0.82994 0.91305 0.03292 0.0
C433 C 0.76858 0.93455 0.99893 0.0
C434 C 0.82466 0.94521 0.0227 0.0
C435 C 0.79363 0.95666 1.0084 0.0
H436 H 0.87839 0.81071 0.04641 0.0
H437 H 0.78916 0.98244 1.00377 0.0
H438 H 0.90371 0.99803 0.23172 0.0
H439 H 0.9831 0.82947 0.34281 0.0
H440 H 0.84428 0.96189 0.02299 0.0
H441 H 0.74442 0.9436 0.99186 0.0
H442 H 0.93279 0.84744 0.28963 0.0
H443 H 0.84173 0.76997 1.00168 0.0
H444 H 0.72769 0.88542 0.96659 0.0
H445 H 0.74205 0.82751 0.96494 0.0
H446 H 0.94281 0.04034 0.25572 0.0
H447 H 0.7849 0.78438 0.97508 0.0
H448 H 0.02728 0.86858 0.3627 0.0
N449 N 0.93705 0.95854 0.24631 0.0
C450 C 0.96669 0.95031 0.27144 0.0
C451 C 0.95005 1.01514 0.25927 0.0
C452 C 0.98855 0.9744 0.29301 0.0
C453 C 0.92819 0.99064 0.24287 0.0
C454 C 0.98034 1.00702 0.28446 0.0
N455 N 0.94973 0.89544 0.27159 0.0
C456 C 0.95251 0.8644 0.29456 0.0
C457 C 1.0017 0.90876 0.31821 0.0
C458 C 0.97312 0.91778 0.28479 0.0
C459 C 1.00578 0.87636 0.33674 0.0
C460 C 0.98081 0.85423 0.32591 0.0
H461 H 0.99662 0.02615 0.29998 0.0
H462 H 0.03398 0.98358 0.34298 0.0
H463 H 0.04568 0.92621 0.36394 0.0
O464 O 0.87637 0.89592 0.31679 0.0
O465 O 0.93966 0.89342 0.17635 0.0
O466 O 0.9288 0.91058 0.07379 0.0
O467 O 0.90683 0.93789 0.3249 0.0
O468 O 0.88642 0.86324 0.22355 0.0
O469 O 0.90108 0.85325 0.11855 0.0
O470 O 0.87437 0.89908 0.95989 0.0
O471 O 0.8394 0.88734 0.14043 0.0
O472 O 0.8524 0.92901 0.20786 0.0
O473 O 0.90443 0.86019 1.00068 0.0
O474 O 0.89524 0.94142 0.06479 0.0
O475 O 0.88405 0.95671 0.16991 0.0
C476 C 0.9499 0.90153 0.11856 0.0
C477 C 0.87142 0.93103 0.40998 0.0
C478 C 0.87191 0.93616 0.52744 0.0
C479 C 0.8578 0.96706 0.52151 0.0
C480 C 0.85603 0.96128 0.40473 0.0
C481 C 0.84912 0.97912 0.46049 0.0
C482 C 0.87842 0.91824 0.47115 0.0
C483 C 0.89426 0.84259 0.17662 0.0
C484 C 0.88918 0.9173 0.35556 0.0
C485 C 1.01713 0.96536 0.32566 0.0
C486 C 0.02392 0.93265 0.33729 0.0
C487 C 0.8313 0.90724 0.18911 0.0
C488 C 0.90155 0.86217 0.88435 0.0
C489 C 0.90203 0.86922 0.76739 0.0
C490 C 0.91393 0.83744 0.76061 0.0
C491 C 0.91329 0.8304 0.87676 0.0
C492 C 0.89629 0.88162 0.82963 0.0
C493 C 0.91959 0.81824 0.81511 0.0
C494 C 0.89064 0.96416 0.10827 0.0
C495 C 0.89278 0.87396 0.9489 0.0
H496 H 0.85318 0.98173 0.56396 0.0
H497 H 0.85127 0.9719 0.3576 0.0
H498 H 0.83796 1.00282 0.45632 0.0
H499 H 0.89039 0.89484 0.47474 0.0
H500 H 0.91825 0.82722 0.71309 0.0
H501 H 0.91706 0.81476 0.91834 0.0
H502 H 0.88752 0.90626 0.83544 0.0
H503 H 0.92844 0.79372 0.80946 0.0
Tb504 Tb 0.37255 0.65088 0.4927 0.0
C505 C 0.43307 0.55366 0.30734 0.0
N506 N 0.44285 0.58352 0.32714 0.0
C507 C 0.49625 0.56296 0.34828 0.0
C508 C 0.45483 0.52723 0.30678 0.0
C509 C 0.47464 0.5889 0.34219 0.0
C510 C 0.48645 0.53199 0.32966 0.0
C511 C 0.3901 0.51889 0.26741 0.0
C512 C 0.40078 0.54936 0.29015 0.0
C513 C 0.41207 0.49286 0.26411 0.0
C514 C 0.44422 0.4969 0.28458 0.0
Tb515 Tb 0.40436 0.62323 0.32161 0.0
N516 N 0.37967 0.57454 0.29847 0.0
C517 C 0.35735 0.51511 0.25134 0.0
C518 C 0.34742 0.57005 0.28593 0.0
C519 C 0.33589 0.54068 0.2614 0.0
H520 H 0.48376 0.61313 0.34757 0.0
H521 H 0.31028 0.53763 0.25123 0.0
H522 H 0.29254 0.65176 0.50287 0.0
H523 H 0.46013 0.72716 0.60977 0.0
H524 H 0.3301 0.58846 0.29473 0.0
H525 H 0.34797 0.49216 0.23445 0.0
H526 H 0.4414 0.67893 0.55207 0.0
H527 H 0.52095 0.56717 0.36412 0.0
H528 H 0.40421 0.46919 0.24788 0.0
H529 H 0.46066 0.47638 0.28335 0.0
H530 H 0.24945 0.6906 0.53232 0.0
H531 H 0.50368 0.51213 0.33171 0.0
H532 H 0.42225 0.7721 0.63098 0.0
N533 N 0.33063 0.68626 0.51026 0.0
C534 C 0.33942 0.71559 0.53517 0.0
C535 C 0.27454 0.69829 0.53138 0.0
C536 C 0.31579 0.73737 0.55886 0.0
C537 C 0.29883 0.67679 0.51186 0.0
C538 C 0.28301 0.72897 0.55384 0.0
N539 N 0.39398 0.69764 0.53269 0.0
C540 C 0.42488 0.69896 0.55722 0.0
C541 C 0.38178 0.74906 0.58256 0.0
C542 C 0.37215 0.72132 0.54736 0.0
C543 C 0.41407 0.75157 0.6029 0.0
C544 C 0.43552 0.72612 0.59138 0.0
H545 H 0.2642 0.74514 0.57116 0.0
H546 H 0.30768 0.78286 0.60882 0.0
H547 H 0.36537 0.79315 0.62914 0.0
O548 O 0.39196 0.62469 0.57397 0.0
O549 O 0.39601 0.68887 0.43563 0.0
O550 O 0.38916 0.67585 0.3277 0.0
O551 O 0.34846 0.65277 0.58078 0.0
O552 O 0.42494 0.635 0.48558 0.0
O553 O 0.43893 0.64946 0.3818 0.0
O554 O 0.39744 0.61706 0.22111 0.0
O555 O 0.4067 0.58852 0.40611 0.0
O556 O 0.36158 0.60171 0.46295 0.0
O557 O 0.44171 0.63717 0.25856 0.0
O558 O 0.35442 0.64063 0.31414 0.0
O559 O 0.33172 0.64223 0.41757 0.0
C560 C 0.39214 0.69766 0.37492 0.0
C561 C 0.35863 0.62016 0.6708 0.0
C562 C 0.35769 0.62133 0.78899 0.0
C563 C 0.32757 0.6055 0.78792 0.0
C564 C 0.32895 0.60356 0.67053 0.0
C565 C 0.31337 0.59658 0.7289 0.0
C566 C 0.37305 0.62879 0.73018 0.0
C567 C 0.44728 0.64173 0.44136 0.0
C568 C 0.36998 0.63656 0.61222 0.0
C569 C 0.32552 0.76582 0.59073 0.0
C570 C 0.35843 0.7718 0.60196 0.0
C571 C 0.38582 0.58187 0.45281 0.0
C572 C 0.42727 0.65132 0.1501 0.0
C573 C 0.41637 0.66011 0.03453 0.0
C574 C 0.43832 0.68618 0.03525 0.0
C575 C 0.44912 0.67743 0.14932 0.0
C576 C 0.41037 0.64334 0.09287 0.0
C577 C 0.45431 0.69489 0.09237 0.0
C578 C 0.32893 0.64279 0.35228 0.0
C579 C 0.42549 0.62939 0.20676 0.0
H580 H 0.31522 0.59984 0.83274 0.0
H581 H 0.31706 0.59759 0.62519 0.0
H582 H 0.29022 0.58422 0.72845 0.0
H583 H 0.39544 0.64262 0.73062 0.0
H584 H 0.44384 0.69935 0.99124 0.0
H585 H 0.46288 0.6839 0.19219 0.0
H586 H 0.39322 0.62344 0.09353 0.0
H587 H 0.47152 0.71469 0.09207 0.0
Tb588 Tb 0.66467 0.1566 0.56508 0.0
C589 C 0.60455 0.05404 0.74011 0.0
N590 N 0.59444 0.08459 0.72551 0.0
C591 C 0.54015 0.06544 0.71024 0.0
C592 C 0.58222 0.02825 0.74421 0.0
C593 C 0.56238 0.0908 0.7141 0.0
C594 C 0.54981 0.03415 0.72742 0.0
C595 C 0.64893 1.01656 0.75998 0.0
C596 C 0.63769 0.04816 0.74642 0.0
C597 C 0.62655 0.99127 0.76861 0.0
C598 C 0.59329 0.99705 0.76033 0.0
Tb599 Tb 0.63432 0.12265 0.7283 0.0
N600 N 0.65882 0.07301 0.73556 0.0
C601 C 0.68237 1.01116 0.76329 0.0
C602 C 0.69148 0.06766 0.73846 0.0
C603 C 0.70372 0.03676 0.75216 0.0
H604 H 0.55352 0.11524 0.71022 0.0
H605 H 0.72967 0.03275 0.75442 0.0
H606 H 0.74248 0.14912 0.53661 0.0
H607 H 0.56948 0.24555 0.53852 0.0
H608 H 0.70843 0.08675 0.73068 0.0
H609 H 0.69193 0.98725 0.77343 0.0
H610 H 0.59228 0.19353 0.55043 0.0
H611 H 0.51523 0.07035 0.69684 0.0
H612 H 0.63478 0.96691 0.77968 0.0
H613 H 0.57642 0.97702 0.76441 0.0
H614 H 0.78678 0.17894 0.4876 0.0
H615 H 0.53221 1.01467 0.72672 0.0
H616 H 0.59934 0.2912 0.50756 0.0
N617 N 0.70823 0.18736 0.53282 0.0
C618 C 0.70124 0.21828 0.51418 0.0
C619 C 0.76355 0.19097 0.49283 0.0
C620 C 0.73009 0.2379 0.46928 0.0
C621 C 0.73824 0.17413 0.52314 0.0
C622 C 0.75958 0.22173 0.46563 0.0
N623 N 0.64185 0.20711 0.54996 0.0
C624 C 0.60924 0.21259 0.54615 0.0
C625 C 0.64715 0.26567 0.4985 0.0
C626 C 0.66265 0.23006 0.52822 0.0
C627 C 0.61355 0.26945 0.51491 0.0
C628 C 0.59557 0.24295 0.53465 0.0
H629 H 0.77971 0.23273 0.44027 0.0
H630 H 0.74696 0.28315 0.40262 0.0
H631 H 0.69082 0.31799 0.40156 0.0
O632 O 0.64135 0.13006 0.48941 0.0
O633 O 0.66267 0.1938 0.64094 0.0
O634 O 0.62601 0.17634 0.71872 0.0
O635 O 0.67919 0.16387 0.4699 0.0
O636 O 0.61239 0.14121 0.57479 0.0
O637 O 0.59778 0.15139 0.67981 0.0
O638 O 0.65431 0.12508 0.8227 0.0
O639 O 0.63587 0.09025 0.63974 0.0
O640 O 0.68032 0.10671 0.5839 0.0
O641 O 0.60316 0.11835 0.80728 0.0
O642 O 0.68238 0.14455 0.73411 0.0
O643 O 0.70579 0.14208 0.63225 0.0
C644 C 0.64329 0.19949 0.69004 0.0
C645 C 0.67233 0.12478 0.39175 0.0
C646 C 0.67465 0.11834 0.27481 0.0
C647 C 0.70365 0.10068 0.2815 0.0
C648 C 0.70225 0.10876 0.39765 0.0
C649 C 0.71731 0.09586 0.34286 0.0
C650 C 0.65856 0.12926 0.33042 0.0
C651 C 0.58988 0.14633 0.61943 0.0
C652 C 0.65899 0.14382 0.44499 0.0
C653 C 0.72646 0.27375 0.42923 0.0
C654 C 0.69114 0.29536 0.42934 0.0
C655 C 0.65823 0.08442 0.59482 0.0
C656 C 0.61839 0.14281 0.90518 0.0
C657 C 0.62108 0.15091 0.02196 0.0
C658 C 0.59478 0.17265 1.01715 0.0
C659 C 0.59405 0.1665 0.90077 0.0
C660 C 0.63249 0.13579 0.96542 0.0
C661 C 0.58184 0.18084 0.95675 0.0
C662 C 0.70808 0.14491 0.69682 0.0
C663 C 0.62605 0.12197 0.84982 0.0
H664 H 0.71641 0.09189 0.23922 0.0
H665 H 0.71459 0.10759 0.44394 0.0
H666 H 0.74033 0.08338 0.34763 0.0
H667 H 0.6362 0.14302 0.32566 0.0
H668 H 0.58406 0.18323 0.06002 0.0
H669 H 0.58384 0.17299 0.8542 0.0
H670 H 0.65192 0.11807 0.9682 0.0
H671 H 0.56196 0.19796 0.95343 0.0
Tb672 Tb 0.90457 0.41528 0.80922 0.0
C673 C 0.83343 0.32211 1.01887 0.0
N674 N 0.82773 0.35249 0.99576 0.0
C675 C 0.76967 0.34796 1.01634 0.0
C676 C 0.8012 0.30171 0.05166 0.0
C677 C 0.79693 0.36505 0.99446 0.0
C678 C 0.77164 0.3174 0.04498 0.0
C679 C 0.88562 0.27487 0.05105 0.0
C680 C 0.87262 0.3106 1.01805 0.0
C681 C 0.83642 0.244 0.10203 0.0
C682 C 0.80148 0.26541 0.09064 0.0
Tb683 Tb 0.87364 0.38322 0.97748 0.0
N684 N 0.89471 0.33334 1.00152 0.0
C685 C 0.92034 0.27194 0.04745 0.0
C686 C 0.9265 0.32903 1.01791 0.0
C687 C 0.93942 0.29901 0.03558 0.0
H688 H 0.7929 0.38982 0.97966 0.0
H689 H 0.96547 0.29695 0.04166 0.0
H690 H 0.98192 0.42918 0.85404 0.0
H691 H 0.81155 0.4938 0.71139 0.0
H692 H 0.94304 0.34899 1.01785 0.0
H693 H 0.93403 0.25036 0.05913 0.0
H694 H 0.8346 0.44216 0.74915 0.0
H695 H 0.74616 0.35964 1.01346 0.0
H696 H 0.83455 0.22113 0.12872 0.0
H697 H 0.77901 0.2556 0.1091 0.0
H698 H 1.0168 0.47649 0.86917 0.0
H699 H 0.74974 0.30611 0.06296 0.0
H700 H 0.84677 0.54225 0.70574 0.0
N701 N 0.94113 0.45627 0.82137 0.0
C702 C 0.93088 0.48543 0.79793 0.0
C703 C 0.99257 0.47944 0.84956 0.0
C704 C 0.9516 0.51258 0.79791 0.0
C705 C 0.97218 0.45261 0.84339 0.0
C706 C 0.98238 0.50955 0.82613 0.0
N707 N 0.87889 0.4623 0.78108 0.0
C708 C 0.84829 0.46387 0.75597 0.0
C709 C 0.88833 0.51766 0.74763 0.0
C710 C 0.89915 0.48822 0.77536 0.0
C711 C 0.85613 0.51993 0.7264 0.0
C712 C 0.83602 0.49285 0.73056 0.0
H713 H 0.99874 0.53005 0.82854 0.0
H714 H 0.9568 0.56276 0.76848 0.0
H715 H 0.90178 0.5669 0.72247 0.0
O716 O 0.88954 0.41653 0.71226 0.0
O717 O 0.90475 0.4494 0.89582 0.0
O718 O 0.86235 0.43408 0.96019 0.0
O719 O 0.9401 0.41236 0.73646 0.0
O720 O 0.85606 0.39389 0.81128 0.0
O721 O 0.83556 0.405 0.91207 0.0
O722 O 0.89851 0.40167 0.0597 0.0
O723 O 0.8814 0.34362 0.90723 0.0
O724 O 0.90666 0.36114 0.81236 0.0
O725 O 0.85138 0.38019 0.06784 0.0
O726 O 0.92615 0.39714 0.96481 0.0
O727 O 0.94024 0.38586 0.85964 0.0
C728 C 0.88467 0.4553 0.94488 0.0
C729 C 0.9222 0.39231 0.63418 0.0
C730 C 0.91219 0.38309 0.51942 0.0
C731 C 0.93008 0.35413 0.52327 0.0
C732 C 0.93929 0.36294 0.63797 0.0
C733 C 0.94328 0.344 0.58246 0.0
C734 C 0.90825 0.40201 0.57512 0.0
C735 C 0.83147 0.40071 0.8488 0.0
C736 C 0.91873 0.41391 0.68997 0.0
C737 C 0.94099 0.5418 0.76995 0.0
C738 C 0.90967 0.54414 0.74367 0.0
C739 C 0.89488 0.33798 0.85041 0.0
C740 C 0.86581 0.41503 0.15111 0.0
C741 C 0.8649 0.42472 0.26733 0.0
C742 C 0.84241 0.44995 0.25746 0.0
C743 C 0.84286 0.43974 0.14181 0.0
C744 C 0.87668 0.40762 0.21361 0.0
C745 C 0.83153 0.4574 0.19488 0.0
C746 C 0.94777 0.38744 0.92128 0.0
C747 C 0.87522 0.39325 0.09873 0.0
H748 H 0.93372 0.33935 0.48055 0.0
H749 H 0.94972 0.35483 0.68343 0.0
H750 H 0.95683 0.32154 0.58519 0.0
H751 H 0.89502 0.42476 0.57213 0.0
H752 H 0.83331 0.46389 0.29796 0.0
H753 H 0.8335 0.44503 0.09383 0.0
H754 H 0.89338 0.38753 0.22068 0.0
H755 H 0.81397 0.47662 0.18762 0.0
Tb756 Tb 0.37252 0.15703 0.56596 0.0
C757 C 0.46206 0.08537 0.78216 0.0
N758 N 0.4337 0.0777 0.75199 0.0
C759 C 0.44391 0.02102 0.77057 0.0
C760 C 0.48148 0.06113 0.81116 0.0
C761 C 0.42445 0.04593 0.74584 0.0
C762 C 0.47232 0.02866 0.80414 0.0
C763 C 0.4999 0.12656 0.81871 0.0
C764 C 0.47102 0.11779 0.78626 0.0
C765 C 0.51884 0.1026 0.84905 0.0
C766 C 0.50946 0.07002 0.84592 0.0
Tb767 Tb 0.40101 0.12131 0.73016 0.0
N768 N 0.45101 0.14072 0.76017 0.0
C769 C 0.50836 0.1593 0.82172 0.0
C770 C 0.4589 0.17283 0.76557 0.0
C771 C 0.48795 0.18249 0.79451 0.0
H772 H 0.40078 0.03984 0.72692 0.0
H773 H 0.49396 0.20799 0.79797 0.0
H774 H 0.36589 0.23713 0.5894 0.0
H775 H 0.28074 0.06392 0.53393 0.0
H776 H 0.44301 0.19155 0.74988 0.0
H777 H 0.52997 0.16706 0.84675 0.0
H778 H 0.33322 0.08368 0.57116 0.0
H779 H 0.43625 0.99601 0.76615 0.0
H780 H 0.54084 0.10901 0.87493 0.0
H781 H 0.52451 0.05176 0.86901 0.0
H782 H 0.32095 0.27638 0.59604 0.0
H783 H 0.48689 1.00934 0.82484 0.0
H784 H 0.23908 0.10262 0.49709 0.0
N785 N 0.33536 0.19746 0.56549 0.0
C786 C 0.30568 0.18821 0.54353 0.0
C787 C 0.31635 0.25171 0.5808 0.0
C788 C 0.28049 0.21103 0.53618 0.0
C789 C 0.34153 0.22907 0.58028 0.0
C790 C 0.28575 0.24279 0.55761 0.0
N791 N 0.32295 0.13343 0.55243 0.0
C792 C 0.31609 0.10106 0.55396 0.0
C793 C 0.26872 0.14486 0.5141 0.0
C794 C 0.29965 0.15523 0.53449 0.0
C795 C 0.26239 0.1116 0.51224 0.0
C796 C 0.2859 0.08966 0.53334 0.0
H797 H 0.26642 0.26061 0.55621 0.0
H798 H 0.2309 0.21828 0.50422 0.0
H799 H 0.22073 0.16053 0.48412 0.0
O800 O 0.37055 0.1416 0.46899 0.0
O801 O 0.33675 0.15884 0.64978 0.0
O802 O 0.34985 0.11339 0.70654 0.0
O803 O 0.37787 0.19173 0.49222 0.0
O804 O 0.39353 0.10867 0.5571 0.0
O805 O 0.38582 0.08386 0.6561 0.0
O806 O 0.38951 0.14369 0.82102 0.0
O807 O 0.44131 0.12318 0.66141 0.0
O808 O 0.42651 0.16011 0.58096 0.0
O809 O 0.39352 0.0919 0.80995 0.0
O810 O 0.38724 0.17433 0.72514 0.0
O811 O 0.40162 0.18967 0.62257 0.0
C812 C 0.32952 0.13734 0.6956 0.0
C813 C 0.39897 0.173 0.39263 0.0
C814 C 0.41029 0.16546 0.2779 0.0
C815 C 0.43976 0.18202 0.28574 0.0
C816 C 0.42884 0.18894 0.40014 0.0
C817 C 0.44905 0.19347 0.34673 0.0
C818 C 0.39006 0.16083 0.33165 0.0
C819 C 0.39172 0.08236 0.59249 0.0
C820 C 0.37576 0.17044 0.44616 0.0
C821 C 0.25039 0.20098 0.51147 0.0
C822 C 0.24462 0.16799 0.49987 0.0
C823 C 0.44844 0.14209 0.61224 0.0
C824 C 0.37244 0.10872 0.90989 0.0
C825 C 0.37119 0.11214 0.0281 0.0
C826 C 0.35 0.08539 0.02862 0.0
C827 C 0.35039 0.08281 0.91206 0.0
C828 C 0.38264 0.12342 0.96788 0.0
C829 C 0.33908 0.07145 0.97113 0.0
C830 C 0.39458 0.19713 0.68215 0.0
C831 C 0.39028 0.11561 0.85012 0.0
H832 H 0.45572 0.18574 0.24483 0.0
H833 H 0.43631 0.19825 0.44691 0.0
H834 H 0.4719 0.20607 0.35255 0.0
H835 H 0.36703 0.14843 0.32567 0.0
H836 H 0.34149 0.07517 0.0737 0.0
H837 H 0.34305 0.07032 0.86827 0.0
H838 H 0.40115 0.14204 0.96602 0.0
H839 H 0.32249 0.05113 0.97251 0.0
Tb840 Tb 0.63498 0.6278 0.31137 0.0
C841 C 0.69985 0.71056 0.53669 0.0
N842 N 0.70889 0.68339 0.50436 0.0
C843 C 0.76501 0.69609 0.52344 0.0
C844 C 0.72306 0.73093 0.5661 0.0
C845 C 0.74108 0.67609 0.49683 0.0
C846 C 0.75598 0.72341 0.55895 0.0
C847 C 0.65683 0.74669 0.57094 0.0
C848 C 0.66714 0.71814 0.53964 0.0
C849 C 0.67971 0.76657 0.60206 0.0
C850 C 0.71273 0.75851 0.60025 0.0
Tb851 Tb 0.66725 0.6489 0.47982 0.0
N852 N 0.64551 0.6977 0.51105 0.0
C853 C 0.62378 0.75419 0.57056 0.0
C854 C 0.61328 0.70544 0.51023 0.0
C855 C 0.602 0.73385 0.53901 0.0
H856 H 0.74857 0.65395 0.47366 0.0
H857 H 0.57635 0.73956 0.53832 0.0
H858 H 0.55663 0.62859 0.27702 0.0
H859 H 0.72642 0.53227 0.29833 0.0
H860 H 0.59577 0.69002 0.48882 0.0
H861 H 0.61463 0.77527 0.59502 0.0
H862 H 0.70772 0.58738 0.31343 0.0
H863 H 0.7904 0.68992 0.51802 0.0
H864 H 0.67217 0.78843 0.62695 0.0
H865 H 0.73018 0.77438 0.62346 0.0
H866 H 0.51738 0.59121 0.22632 0.0
H867 H 0.77457 0.73867 0.58017 0.0
H868 H 0.68739 0.48917 0.2713 0.0
N869 N 0.59488 0.59387 0.27888 0.0
C870 C 0.60413 0.56292 0.26593 0.0
C871 C 0.54152 0.58277 0.2385 0.0
C872 C 0.58154 0.53993 0.24318 0.0
C873 C 0.56389 0.60392 0.26687 0.0
C874 C 0.55007 0.55038 0.2283 0.0
N875 N 0.65792 0.57753 0.29414 0.0
C876 C 0.69007 0.56987 0.30049 0.0
C877 C 0.64634 0.52185 0.26553 0.0
C878 C 0.63645 0.5543 0.27479 0.0
C879 C 0.67896 0.5139 0.27533 0.0
C880 C 0.70101 0.53813 0.2915 0.0
H881 H 0.53224 0.53371 0.20879 0.0
H882 H 0.574 0.48937 0.21879 0.0
H883 H 0.63042 0.47327 0.24104 0.0
O884 O 0.64968 0.62668 0.21271 0.0
O885 O 0.63012 0.58808 0.38823 0.0
O886 O 0.67446 0.59864 0.44974 0.0
O887 O 0.60962 0.65604 0.2447 0.0
O888 O 0.68389 0.64838 0.31093 0.0
O889 O 0.70505 0.63315 0.40863 0.0
O890 O 0.65112 0.64286 0.57809 0.0
O891 O 0.67116 0.68992 0.41161 0.0
O892 O 0.62781 0.67884 0.34631 0.0
O893 O 0.6998 0.63028 0.5469 0.0
O894 O 0.61359 0.63476 0.47608 0.0
O895 O 0.59479 0.64266 0.37095 0.0
C896 C 0.65101 0.57889 0.43415 0.0
C897 C 0.61009 0.64352 0.13321 0.0
C898 C 0.61368 0.64504 1.01557 0.0
C899 C 0.57992 0.64887 1.01141 0.0
C900 C 0.57624 0.6477 0.12814 0.0
C901 C 0.56131 0.64998 0.06758 0.0
C902 C 0.62861 0.64197 0.07654 0.0
C903 C 0.70909 0.64327 0.34816 0.0
C904 C 0.62699 0.64705 0.19577 0.0
C905 C 0.59121 0.50753 0.23485 0.0
C906 C 0.62341 0.49841 0.24709 0.0
C907 C 0.64965 0.69956 0.36854 0.0
C908 C 0.69027 0.62264 0.6602 0.0
C909 C 0.6863 0.62561 0.77829 0.0
C910 C 0.71691 0.61056 0.78286 0.0
C911 C 0.72011 0.60642 0.66687 0.0
C912 C 0.67288 0.63146 0.71615 0.0
C913 C 0.73305 0.60018 0.7278 0.0
C914 C 0.58943 0.63765 0.43265 0.0
C915 C 0.67998 0.63298 0.5949 0.0
H916 H 0.56796 0.65067 0.96473 0.0
H917 H 0.5613 0.65053 0.17065 0.0
H918 H 0.53528 0.65326 0.06424 0.0
H919 H 0.65481 0.63967 0.07983 0.0
H920 H 0.72845 0.60639 0.82933 0.0
H921 H 0.73394 0.59905 0.62484 0.0
H922 H 0.64932 0.64287 0.71107 0.0
H923 H 0.75593 0.58753 0.73254 0.0
Tb924 Tb 0.13635 0.91379 0.22733 0.0
C925 C 0.20333 0.82384 1.01092 0.0
N926 N 0.2107 0.85241 0.04075 0.0
C927 C 0.26761 0.84105 0.02879 0.0
C928 C 0.22795 0.80351 0.98648 0.0
C929 C 0.24247 0.86129 0.04941 0.0
C930 C 0.26036 0.81219 0.99674 0.0
C931 C 0.1624 0.78763 0.96658 0.0
C932 C 0.17087 0.81612 1.00049 0.0
C933 C 0.18688 0.76723 0.94281 0.0
C934 C 0.21954 0.77537 0.95193 0.0
Tb935 Tb 0.16711 0.88604 0.05634 0.0
N936 N 0.14773 0.83746 1.02043 0.0
C937 C 0.12962 0.78143 0.95413 0.0
C938 C 0.11596 0.83263 1.00372 0.0
C939 C 0.10639 0.80434 0.97169 0.0
H940 H 0.24895 0.88472 0.06854 0.0
H941 H 0.0811 0.80052 0.95955 0.0
H942 H 0.05766 0.92599 0.19623 0.0
H943 H 0.22934 0.99437 0.31973 0.0
H944 H 0.09777 0.85066 1.01318 0.0
H945 H 0.12213 0.75976 0.92846 0.0
H946 H 0.20825 0.94265 0.28009 0.0
H947 H 0.29263 0.84834 0.03548 0.0
H948 H 0.18081 0.74545 0.91608 0.0
H949 H 0.23816 0.75954 0.93265 0.0
H950 H 0.02238 0.9728 0.17376 0.0
H951 H 0.27994 0.79702 0.97926 0.0
H952 H 0.19307 0.04204 0.32695 0.0
N953 N 0.09915 0.95438 0.21715 0.0
C954 C 0.10935 0.98391 0.23816 0.0
C955 C 0.04693 0.97642 0.19112 0.0
C956 C 0.08833 1.01092 0.23705 0.0
C957 C 0.06754 0.94989 0.19985 0.0
C958 C 0.05728 1.00717 0.21034 0.0
N959 N 0.16181 0.96123 0.25431 0.0
C960 C 0.19293 0.96357 0.27685 0.0
C961 C 0.15182 1.01692 0.28566 0.0
C962 C 0.14124 0.98711 0.25951 0.0
C963 C 0.18397 0.01952 0.30689 0.0
C964 C 0.20462 0.99279 0.3021 0.0
H965 H 0.04072 0.02752 0.20674 0.0
H966 H 0.08292 0.0615 0.2631 0.0
H967 H 0.13813 0.06652 0.30771 0.0
O968 O 0.14768 0.91745 0.32631 0.0
O969 O 0.13424 0.94801 0.14178 0.0
O970 O 0.17895 0.93532 0.08295 0.0
O971 O 0.0991 0.90652 0.29494 0.0
O972 O 0.18579 0.89409 0.22678 0.0
O973 O 0.20504 0.90601 0.12479 0.0
O974 O 0.14339 0.90362 0.97198 0.0
O975 O 0.15865 0.84457 0.11991 0.0
O976 O 0.14253 0.85993 0.22388 0.0
O977 O 0.19368 0.88913 0.97081 0.0
O978 O 0.11413 0.89947 0.06833 0.0
O979 O 0.10194 0.8845 0.17256 0.0
C980 C 0.15587 0.95568 0.09704 0.0
C981 C 0.11481 0.88959 0.40066 0.0
C982 C 0.12282 0.88209 0.51679 0.0
C983 C 0.10381 0.85384 0.51393 0.0
C984 C 0.09609 0.86123 0.3984 0.0
C985 C 0.09064 0.84348 0.45496 0.0
C986 C 0.12857 0.89954 0.4596 0.0
C987 C 0.21011 0.89897 0.18701 0.0
C988 C 0.11827 0.91095 0.34428 0.0
C989 C 0.09892 0.04062 0.26251 0.0
C990 C 0.13035 0.04344 0.28797 0.0
C991 C 0.15122 0.83783 0.18029 0.0
C992 C 0.17602 0.91949 0.88146 0.0
C993 C 0.17392 0.92582 0.76446 0.0
C994 C 0.19636 0.95134 0.769 0.0
C995 C 0.19845 0.94493 0.88568 0.0
C996 C 0.16375 0.91011 0.82099 0.0
C997 C 0.20847 0.96086 0.82944 0.0
C998 C 0.0927 0.89025 0.11278 0.0
C999 C 0.16905 0.8986 0.93668 0.0
H1000 H 0.09869 0.84011 0.55745 0.0
H1001 H 0.08531 0.85308 0.35335 0.0
H1002 H 0.07577 0.82188 0.45326 0.0
H1003 H 0.1434 0.92126 0.46104 0.0
H1004 H 0.20485 0.96352 0.72576 0.0
H1005 H 0.20881 0.95178 0.932 0.0
H1006 H 0.14688 0.88997 0.81773 0.0
H1007 H 0.22612 0.98022 0.83255 0.0
Tb1008 Tb 0.86899 0.65505 0.05936 0.0
C1009 C 0.97547 0.60838 0.25737 0.0
N1010 N 0.9522 0.59749 0.21655 0.0
C1011 C 0.98667 0.55348 0.17945 0.0
C1012 C 1.01148 0.58795 0.26279 0.0
C1013 C 0.95686 0.56942 0.18286 0.0
C1014 C 1.01383 0.56312 0.2142 0.0
C1015 C 0.98606 0.65178 0.37544 0.0
C1016 C 0.96487 0.63783 0.30981 0.0
C1017 C 0.02269 0.64019 0.40388 0.0
C1018 C 0.04505 0.60876 0.36452 0.0
Tb1019 Tb 0.90365 0.62435 0.22627 0.0
N1020 N 0.93623 0.65263 0.29651 0.0
C1021 C 0.97187 0.67764 0.40731 0.0
C1022 C 0.92585 0.67873 0.33205 0.0
C1023 C 0.94297 0.69109 0.38517 0.0
H1024 H 0.93779 0.55839 0.15608 0.0
H1025 H 0.93283 0.71146 0.41128 0.0
H1026 H 0.8541 0.73184 0.10395 0.0
H1027 H 0.78579 0.55638 1.00169 0.0
H1028 H 0.90245 0.68953 0.3228 0.0
H1029 H 0.98377 0.68823 0.44908 0.0
H1030 H 0.83657 0.57864 0.03985 0.0
H1031 H 0.98871 0.53264 0.14777 0.0
H1032 H 0.03752 0.62418 0.38923 0.0
H1033 H 0.07138 0.59808 0.38215 0.0
H1034 H 0.80628 0.76621 0.12056 0.0
H1035 H 0.03525 0.54877 0.20455 0.0
H1036 H 0.73862 0.59236 0.98405 0.0
N1037 N 0.82727 0.69086 0.0726 0.0
C1038 C 0.7979 0.68009 0.05141 0.0
C1039 C 0.80361 0.74211 0.10047 0.0
C1040 C 0.77048 0.70063 0.0514 0.0
C1041 C 0.83067 0.72198 0.0939 0.0
C1042 C 0.77354 0.73179 0.07735 0.0
N1043 N 0.82093 0.62761 0.04271 0.0
C1044 C 0.81735 0.5951 0.03238 0.0
C1045 C 0.76436 0.63551 1.01441 0.0
C1046 C 0.79475 0.64758 0.03513 0.0
C1047 C 0.76142 0.60249 1.00074 0.0
C1048 C 0.78793 0.58215 1.01075 0.0
H1049 H 0.75286 0.74798 0.0801 0.0
H1050 H 0.71945 0.70457 0.02703 0.0
H1051 H 0.71432 0.64777 0.99275 0.0
O1052 O 0.86207 0.64533 0.95938 0.0
O1053 O 0.83747 0.65764 0.14819 0.0
O1054 O 0.85322 0.61294 0.20274 0.0
O1055 O 0.87494 0.69289 0.99268 0.0
O1056 O 0.89051 0.60674 0.05616 0.0
O1057 O 0.88808 0.58389 0.15835 0.0
O1058 O 0.88119 0.63057 0.31741 0.0
O1059 O 0.94221 0.64417 0.16363 0.0
O1060 O 0.92248 0.64285 0.05755 0.0
O1061 O 0.9094 0.58699 0.29564 0.0
O1062 O 0.88879 0.67712 0.21601 0.0
O1063 O 0.89908 0.69025 0.10993 0.0
C1064 C 0.83166 0.63572 0.1934 0.0
C1065 C 0.8891 0.68023 0.88338 0.0
C1066 C 0.89879 0.67075 0.76691 0.0
C1067 C 0.91873 0.69847 0.76639 0.0
C1068 C 0.90992 0.70716 0.88072 0.0
C1069 C 0.92464 0.716 0.82282 0.0
C1070 C 0.88415 0.66163 0.82643 0.0
C1071 C 0.89014 0.58108 0.09388 0.0
C1072 C 0.86909 0.67483 0.94231 0.0
C1073 C 0.74061 0.68896 0.02857 0.0
C1074 C 0.73766 0.65657 1.00932 0.0
C1075 C 0.94688 0.64334 0.10035 0.0
C1076 C 0.88808 0.59154 0.40543 0.0
C1077 C 0.88302 0.59975 0.52259 0.0
C1078 C 0.87545 0.56672 0.52946 0.0
C1079 C 0.8813 0.55852 0.4141 0.0
C1080 C 0.8893 0.61222 0.46003 0.0
C1081 C 0.87472 0.54631 0.47563 0.0
C1082 C 0.89728 0.69872 0.17116 0.0
C1083 C 0.89384 0.6037 0.33917 0.0
H1084 H 0.92962 0.70704 0.72192 0.0
H1085 H 0.91416 0.72216 0.92298 0.0
H1086 H 0.94029 0.73702 0.82137 0.0
H1087 H 0.86869 0.64046 0.82865 0.0
H1088 H 0.87074 0.55653 0.57691 0.0
H1089 H 0.88041 0.54225 0.37294 0.0
H1090 H 0.89515 0.63767 0.454 0.0
H1091 H 0.8691 0.52085 0.48166 0.0
Tb1092 Tb 0.16331 0.15425 0.98264 0.0
C1093 C 0.07841 0.08763 0.75686 0.0
N1094 N 0.107 0.07922 0.78515 0.0
C1095 C 0.09574 0.02294 0.76518 0.0
C1096 C 0.05783 0.06393 0.72953 0.0
C1097 C 0.1161 0.04734 0.78862 0.0
C1098 C 0.06665 0.03126 0.73471 0.0
C1099 C 0.03995 0.12957 0.72676 0.0
C1100 C 0.06982 0.12013 0.75493 0.0
C1101 C 0.0199 0.10618 0.69779 0.0
C1102 C 0.02895 0.07348 0.69865 0.0
Tb1103 Tb 0.14029 0.12137 0.8123 0.0
N1104 N 0.0907 0.14239 0.7804 0.0
C1105 C 0.03128 0.1623 0.72749 0.0
C1106 C 0.08255 0.17458 0.7786 0.0
C1107 C 0.05267 0.18486 0.75366 0.0
H1108 H 0.13971 0.04054 0.80693 0.0
H1109 H 0.04648 0.21039 0.75345 0.0
H1110 H 0.16694 0.23475 0.99156 0.0
H1111 H 0.25474 0.06047 1.0118 0.0
H1112 H 0.09855 0.19302 0.79493 0.0
H1113 H 1.0084 0.17044 0.70714 0.0
H1114 H 0.20542 0.08268 0.96424 0.0
H1115 H 0.1029 0.99776 0.7692 0.0
H1116 H 0.99728 0.11312 0.67474 0.0
H1117 H 1.01302 0.05564 0.67683 0.0
H1118 H 0.20222 0.27322 0.04932 0.0
H1119 H 0.05122 1.01232 0.71533 0.0
H1120 H 0.29192 0.09654 0.07169 0.0
N1121 N 0.19891 0.19474 1.00472 0.0
C1122 C 0.22793 0.18432 0.02825 0.0
C1123 C 0.21036 0.24863 0.04106 0.0
C1124 C 0.25013 0.20625 0.05626 0.0
C1125 C 0.19041 0.22671 1.00837 0.0
C1126 C 0.24083 0.2387 0.06312 0.0
N1127 N 0.21298 0.13071 0.99917 0.0
C1128 C 0.22073 0.09878 0.99052 0.0
C1129 C 0.26493 0.13987 0.05 0.0
C1130 C 0.23514 0.15138 0.02558 0.0
C1131 C 0.27094 0.1066 0.04811 0.0
C1132 C 0.24943 0.0861 1.01609 0.0
H1133 H 0.25664 0.25609 0.08665 0.0
H1134 H 0.29759 0.21139 0.10064 0.0
H1135 H 0.31057 0.1532 0.0951 0.0
O1136 O 0.16102 0.1397 0.08234 0.0
O1137 O 0.20163 0.16092 0.90582 0.0
O1138 O 0.19002 0.11593 0.8477 0.0
O1139 O 0.14422 0.18674 0.04887 0.0
O1140 O 0.14438 0.10498 0.98574 0.0
O1141 O 0.15232 0.08208 0.88484 0.0
O1142 O 0.14391 0.13561 0.71247 0.0
O1143 O 0.10043 0.11654 0.88164 0.0
O1144 O 0.11162 0.15849 0.9518 0.0
O1145 O 0.16408 0.09043 0.74903 0.0
O1146 O 0.15346 0.17515 0.81759 0.0
O1147 O 0.13718 0.1861 0.91993 0.0
C1148 C 0.20953 0.14014 0.85952 0.0
C1149 C 0.13899 0.17825 0.16284 0.0
C1150 C 0.13429 0.16929 0.27893 0.0
C1151 C 0.12004 0.20008 0.28556 0.0
C1152 C 0.12454 0.20895 0.17057 0.0
C1153 C 0.11514 0.21971 0.23155 0.0
C1154 C 0.14389 0.15843 0.21727 0.0
C1155 C 0.14717 0.07943 0.94839 0.0
C1156 C 0.14868 0.16772 0.0977 0.0
C1157 C 0.28013 0.19486 0.07937 0.0
C1158 C 0.28747 0.16172 0.07646 0.0
C1159 C 0.09128 0.13729 0.92613 0.0
C1160 C 0.169 0.0977 0.63424 0.0
C1161 C 0.16648 0.10118 0.51629 0.0
C1162 C 0.18266 0.07126 0.51215 0.0
C1163 C 0.18581 0.06812 0.62859 0.0
C1164 C 0.1597 0.11447 0.57773 0.0
C1165 C 0.1926 0.0551 0.56797 0.0
C1166 C 0.14688 0.19662 0.8641 0.0
C1167 C 0.15788 0.10812 0.69876 0.0
H1168 H 0.11332 0.20926 0.33279 0.0
H1169 H 0.12052 0.22484 0.12947 0.0
H1170 H 0.10429 0.24347 0.23702 0.0
H1171 H 0.15509 0.13477 0.21186 0.0
H1172 H 0.18782 0.06046 0.46548 0.0
H1173 H 0.19304 0.05446 0.67112 0.0
H1174 H 0.1468 0.13732 0.58148 0.0
H1175 H 0.20523 0.03215 0.56426 0.0
Tb1176 Tb 0.63275 0.41548 0.73399 0.0
C1177 C 0.67607 0.31266 0.53319 0.0
N1178 N 0.68814 0.33628 0.57184 0.0
C1179 C 0.73221 0.30134 0.6071 0.0
C1180 C 0.69656 0.27664 0.52686 0.0
C1181 C 0.71742 0.33176 0.60104 0.0
C1182 C 0.72104 0.27379 0.57596 0.0
C1183 C 0.63393 0.30407 0.41266 0.0
C1184 C 0.64719 0.32403 0.48029 0.0
C1185 C 0.64587 0.2679 0.38254 0.0
C1186 C 0.67695 0.24483 0.42222 0.0
Tb1187 Tb 0.66235 0.38574 0.56244 0.0
N1188 N 0.63305 0.35294 0.49376 0.0
C1189 C 0.60828 0.31889 0.38078 0.0
C1190 C 0.60703 0.36383 0.4584 0.0
C1191 C 0.59472 0.34742 0.40429 0.0
H1192 H 0.73096 0.35203 0.61834 0.0
H1193 H 0.5744 0.35796 0.37831 0.0
H1194 H 0.55578 0.43224 0.69303 0.0
H1195 H 0.72556 0.4891 0.84725 0.0
H1196 H 0.59628 0.3871 0.46874 0.0
H1197 H 0.59789 0.30771 0.33805 0.0
H1198 H 0.70068 0.43841 0.80957 0.0
H1199 H 0.75471 0.29931 0.63371 0.0
H1200 H 0.66173 0.25278 0.39703 0.0
H1201 H 0.68784 0.21885 0.40358 0.0
H1202 H 0.52259 0.48097 0.67729 0.0
H1203 H 0.73507 0.25213 0.58588 0.0
H1204 H 0.69368 0.53964 0.84444 0.0
N1205 N 0.59737 0.45783 0.72567 0.0
C1206 C 0.60787 0.48605 0.75235 0.0
C1207 C 0.54657 0.48279 0.69857 0.0
C1208 C 0.58728 0.51337 0.75593 0.0
C1209 C 0.56622 0.45532 0.70379 0.0
C1210 C 0.55674 0.5118 0.72645 0.0
N1211 N 0.65894 0.46103 0.76969 0.0
C1212 C 0.6885 0.46088 0.79971 0.0
C1213 C 0.65158 0.51702 0.80074 0.0
C1214 C 0.63983 0.48794 0.77356 0.0
C1215 C 0.68348 0.51781 0.82397 0.0
C1216 C 0.70179 0.4894 0.82475 0.0
H1217 H 0.54078 0.53269 0.72541 0.0
H1218 H 0.58316 0.56317 0.78806 0.0
H1219 H 0.63921 0.56633 0.8266 0.0
O1220 O 0.63879 0.4202 0.83456 0.0
O1221 O 0.6324 0.45212 0.65021 0.0
O1222 O 0.67471 0.43582 0.58812 0.0
O1223 O 0.59446 0.40106 0.79622 0.0
O1224 O 0.68306 0.3974 0.73676 0.0
O1225 O 0.70354 0.39965 0.63159 0.0
O1226 O 0.65447 0.4107 0.47394 0.0
O1227 O 0.63745 0.34852 0.62065 0.0
O1228 O 0.64883 0.36338 0.7263 0.0
O1229 O 0.69668 0.37965 0.48806 0.0
O1230 O 0.61129 0.40414 0.57354 0.0
O1231 O 0.59632 0.38954 0.67673 0.0
C1232 C 0.65294 0.45802 0.60176 0.0
C1233 C 0.60547 0.39248 0.91065 0.0
C1234 C 0.6186 0.38702 0.02693 0.0
C1235 C 0.58916 0.37033 0.03518 0.0
C1236 C 0.5765 0.37553 0.92107 0.0
C1237 C 0.56873 0.36425 0.98269 0.0
C1238 C 0.6268 0.39771 0.96379 0.0
C1239 C 0.70771 0.398 0.69625 0.0
C1240 C 0.61013 0.40977 0.84827 0.0
C1241 C 0.59865 0.54198 0.7846 0.0
C1242 C 0.6308 0.5439 0.80606 0.0
C1243 C 0.64199 0.34092 0.68203 0.0
C1244 C 0.69345 0.40838 0.38641 0.0
C1245 C 0.69082 0.41274 0.26778 0.0
C1246 C 0.7215 0.42771 0.26901 0.0
C1247 C 0.72359 0.42389 0.38626 0.0
C1248 C 0.677 0.40301 0.32728 0.0
C1249 C 0.73749 0.43351 0.32776 0.0
C1250 C 0.58891 0.39466 0.61552 0.0
C1251 C 0.67925 0.39649 0.44722 0.0
H1252 H 0.58147 0.36239 0.08271 0.0
H1253 H 0.55928 0.37185 0.88199 0.0
H1254 H 0.54638 0.35123 0.99025 0.0
H1255 H 0.64929 0.41069 0.95615 0.0
H1256 H 0.73342 0.43463 0.22447 0.0
H1257 H 0.73643 0.42828 0.43127 0.0
H1258 H 0.65352 0.39115 0.32772 0.0
H1259 H 0.76098 0.44522 0.32785 0.0
Tb1260 Tb 0.37139 0.88493 0.47879 0.0
C1261 C 0.46653 0.95386 0.27052 0.0
N1262 N 0.43584 0.96021 0.29079 0.0
C1263 C 0.43994 1.01711 0.25986 0.0
C1264 C 0.48601 0.98417 0.22913 0.0
C1265 C 0.4231 0.99081 0.28671 0.0
C1266 C 0.47018 1.01386 0.23038 0.0
C1267 C 0.51399 0.90069 0.24911 0.0
C1268 C 0.47848 0.91507 0.28028 0.0
C1269 C 0.54346 0.94667 0.18483 0.0
C1270 C 0.52176 0.98187 0.18859 0.0
Tb1271 Tb 0.40496 0.91515 0.3149 0.0
N1272 N 0.45593 0.89361 0.30109 0.0
C1273 C 0.51819 0.86675 0.26286 0.0
C1274 C 0.46197 0.86114 0.29711 0.0
C1275 C 0.49232 0.84813 0.28335 0.0
H1276 H 0.39814 0.99473 0.29955 0.0
H1277 H 0.4955 0.82207 0.28672 0.0
H1278 H 0.36024 0.80535 0.45493 0.0
H1279 H 0.28811 0.98235 0.53578 0.0
H1280 H 0.44345 0.84378 0.30422 0.0
H1281 H 0.53995 0.85286 0.25401 0.0
H1282 H 0.34109 0.95891 0.51178 0.0
H1283 H 0.42812 0.04057 0.25854 0.0
H1284 H 0.56605 0.94719 0.15713 0.0
H1285 H 0.53112 1.0032 0.16453 0.0
H1286 H 0.31388 0.76885 0.44134 0.0
H1287 H 0.48113 0.03481 0.20763 0.0
H1288 H 0.23961 0.94721 0.5393 0.0
N1289 N 0.33131 0.84722 0.47185 0.0
C1290 C 0.30117 0.85846 0.48645 0.0
C1291 C 0.30996 0.79389 0.45491 0.0
C1292 C 0.27439 0.83726 0.48875 0.0
C1293 C 0.33619 0.81511 0.45906 0.0
C1294 C 0.27907 0.80468 0.47206 0.0
N1295 N 0.32323 0.91165 0.49182 0.0
C1296 C 0.32031 0.94367 0.50752 0.0
C1297 C 0.26613 0.90379 0.51337 0.0
C1298 C 0.29702 0.89159 0.49702 0.0
C1299 C 0.26287 0.93695 0.52599 0.0
C1300 C 0.29013 0.9569 0.52349 0.0
H1301 H 0.25895 0.78781 0.47133 0.0
H1302 H 0.22288 0.83342 0.50767 0.0
H1303 H 0.21575 0.89149 0.53075 0.0
O1304 O 0.37293 0.90261 0.57471 0.0
O1305 O 0.33892 0.88437 0.38991 0.0
O1306 O 0.35438 0.92866 0.33249 0.0
O1307 O 0.36913 0.85154 0.55484 0.0
O1308 O 0.39495 0.93231 0.48102 0.0
O1309 O 0.38559 0.95415 0.38034 0.0
O1310 O 0.38482 0.8905 0.23338 0.0
O1311 O 0.44253 0.91318 0.39096 0.0
O1312 O 0.42529 0.87691 0.46992 0.0
O1313 O 0.41024 0.93531 0.22337 0.0
O1314 O 0.39006 0.86231 0.32284 0.0
O1315 O 0.39951 0.84902 0.42906 0.0
C1316 C 0.33268 0.90613 0.34402 0.0
C1317 C 0.39289 0.86626 0.65449 0.0
C1318 C 0.40287 0.87151 0.77044 0.0
C1319 C 0.42522 0.84575 0.76676 0.0
C1320 C 0.41644 0.84171 0.65114 0.0
C1321 C 0.43234 0.83141 0.70728 0.0
C1322 C 0.38677 0.88158 0.71377 0.0
C1323 C 0.39201 0.95767 0.44323 0.0
C1324 C 0.37158 0.87359 0.59932 0.0
C1325 C 0.24369 0.8494 0.50515 0.0
C1326 C 0.2396 0.88253 0.51784 0.0
C1327 C 0.44849 0.89371 0.44013 0.0
C1328 C 0.37546 0.92336 0.13915 0.0
C1329 C 0.36936 0.92501 0.02199 0.0
C1330 C 0.34866 0.95195 0.02803 0.0
C1331 C 0.35574 0.95099 0.14447 0.0
C1332 C 0.38194 0.91033 0.07804 0.0
C1333 C 0.34184 0.96478 0.08914 0.0
C1334 C 0.39452 0.84026 0.3691 0.0
C1335 C 0.39554 0.91239 0.1933 0.0
H1336 H 0.43688 0.83632 0.80994 0.0
H1337 H 0.42169 0.82977 0.60565 0.0
H1338 H 0.44974 0.81176 0.70498 0.0
H1339 H 0.36885 0.90085 0.71591 0.0
H1340 H 0.33866 0.9637 0.98545 0.0
H1341 H 0.35243 0.96271 0.19084 0.0
H1342 H 0.39806 0.8896 0.07395 0.0
H1343 H 0.32675 0.98618 0.09339 0.0
C1344 C 0.14345 0.61916 0.69278 0.0
C1345 C 0.13959 0.65244 0.70534 0.0
C1346 C 0.15284 0.60827 0.63131 0.0
C1347 C 0.15886 0.63035 0.58075 0.0
H1348 H 0.13875 0.60148 0.73046 0.0
H1349 H 0.15496 0.5824 0.62301 0.0
S1350 S 0.15517 0.72004 0.59135 0.0
N1351 N 0.14438 0.70737 0.66408 0.0
N1352 N 0.16217 0.68696 0.54849 0.0
C1353 C 0.1557 0.66369 0.59327 0.0
C1354 C 0.14608 0.67473 0.65568 0.0
C1355 C 0.62306 0.91117 0.94288 0.0
C1356 C 0.65215 0.92815 0.95405 0.0
C1357 C 0.61734 0.89479 0.88433 0.0
C1358 C 0.6409 0.89344 0.83479 0.0
H1359 H 0.6041 0.91111 0.97907 0.0
H1360 H 0.59394 0.8833 0.87797 0.0
S1361 S 0.7222 0.93228 0.84116 0.0
N1362 N 0.70435 0.94335 0.90893 0.0
N1363 N 0.69566 0.90897 0.80375 0.0
C1364 C 0.67043 0.90968 0.846 0.0
C1365 C 0.6755 0.92783 0.90421 0.0
C1366 C 0.37157 0.42729 0.15783 0.0
C1367 C 0.36656 0.40218 0.20291 0.0
C1368 C 0.38793 0.42154 0.0997 0.0
C1369 C 0.3991 0.39032 0.08428 0.0
H1370 H 0.36304 0.45155 0.16762 0.0
H1371 H 0.39239 0.44171 0.06724 0.0
S1372 S 0.3873 0.31548 0.18102 0.0
N1373 N 0.37145 0.34462 0.22573 0.0
N1374 N 0.4009 0.33339 0.1149 0.0
C1375 C 0.39282 0.36474 0.12742 0.0
C1376 C 0.37688 0.37077 0.18716 0.0
C1377 C 0.86514 0.13637 0.45133 0.0
C1378 C 0.8979 0.14522 0.4581 0.0
C1379 C 0.85198 0.12837 0.39044 0.0
C1380 C 0.87107 0.12856 0.33377 0.0
H1381 H 0.84936 0.1364 0.49319 0.0
H1382 H 0.82642 0.1224 0.38769 0.0
S1383 S 0.95923 0.14735 0.32712 0.0
N1384 N 0.94964 0.15223 0.4041 0.0
N1385 N 0.92531 0.1366 0.29005 0.0
C1386 C 0.90415 0.13678 0.34039 0.0
C1387 C 0.91744 0.14515 0.40238 0.0
C1388 C 0.17738 0.3797 0.35324 0.0
C1389 C 0.14627 0.38661 0.32836 0.0
C1390 C 0.18731 0.39164 0.41377 0.0
C1391 C 0.16644 0.41075 0.45157 0.0
H1392 H 0.19389 0.36434 0.32637 0.0
H1393 H 0.21125 0.3854 0.43173 0.0
S1394 S 0.08392 0.43859 0.40549 0.0
N1395 N 0.0957 0.41595 0.34389 0.0
N1396 N 0.11412 0.43781 0.45835 0.0
C1397 C 0.13558 0.41848 0.4267 0.0
C1398 C 0.12558 0.40658 0.36487 0.0
C1399 C 0.91745 0.8904 0.6586 0.0
C1400 C 0.89478 0.88887 0.70916 0.0
C1401 C 0.91023 0.90669 0.6009 0.0
C1402 C 0.8801 0.92217 0.59168 0.0
H1403 H 0.94084 0.87858 0.66337 0.0
H1404 H 0.92827 0.90682 0.56286 0.0
S1405 S 0.81224 0.92495 0.70941 0.0
N1406 N 0.84093 0.90395 0.74653 0.0
N1407 N 0.82762 0.93519 0.63864 0.0
C1408 C 0.85757 0.92158 0.64271 0.0
C1409 C 0.86482 0.90474 0.70129 0.0
C1410 C 0.37574 0.66371 0.86815 0.0
C1411 C 0.37251 0.63082 0.85162 0.0
C1412 C 0.38934 0.67297 0.92781 0.0
C1413 C 0.40104 0.64968 0.9723 0.0
H1414 H 0.36722 0.68235 0.83515 0.0
H1415 H 0.39058 0.69858 0.93924 0.0
S1416 S 0.40029 0.56035 0.94848 0.0
N1417 N 0.38169 0.57503 0.88388 0.0
N1418 N 0.41055 0.5922 0.99236 0.0
C1419 C 0.39862 0.6167 0.95511 0.0
C1420 C 0.38358 0.60736 0.89567 0.0
C1421 C 0.64419 0.11104 0.10197 0.0
C1422 C 0.63589 0.14326 0.08594 0.0
C1423 C 0.65725 0.10321 0.16277 0.0
C1424 C 0.66208 0.12723 0.20997 0.0
H1425 H 0.63995 0.09153 0.06788 0.0
H1426 H 0.66288 0.07808 0.17348 0.0
S1427 S 0.64777 0.21563 0.19034 0.0
N1428 N 0.63638 0.1997 0.12057 0.0
N1429 N 0.65982 0.1848 0.23553 0.0
C1430 C 0.6547 0.15962 0.19421 0.0
C1431 C 0.64186 0.16767 0.13208 0.0
C1432 C 0.90946 0.41074 0.34479 0.0
C1433 C 0.87612 0.41557 0.33319 0.0
C1434 C 0.92081 0.40028 0.40526 0.0
C1435 C 0.89929 0.39449 0.45649 0.0
H1436 H 0.92696 0.41501 0.30668 0.0
H1437 H 0.94667 0.39681 0.41213 0.0
S1438 S 0.80966 0.40209 0.45091 0.0
N1439 N 0.82157 0.41246 0.37743 0.0
N1440 N 0.84314 0.39386 0.49211 0.0
C1441 C 0.86593 0.3995 0.44605 0.0
C1442 C 0.85428 0.40977 0.38411 0.0
C1443 C 0.3957 0.11935 0.20566 0.0
C1444 C 0.4007 0.15272 0.21375 0.0
C1445 C 0.38715 0.10656 0.14523 0.0
C1446 C 0.3822 0.12672 0.09073 0.0
H1447 H 0.39895 0.10292 0.24619 0.0
H1448 H 0.38466 0.08049 0.14147 0.0
S1449 S 0.39075 0.21655 0.08888 0.0
N1450 N 0.40003 0.20599 0.16386 0.0
N1451 N 0.38208 0.18245 0.05066 0.0
C1452 C 0.38687 0.16041 0.09877 0.0
C1453 C 0.39641 0.17328 0.1602 0.0
C1454 C 0.65319 0.61535 0.94812 0.0
C1455 C 0.63324 0.64248 0.95621 0.0
C1456 C 0.6706 0.61091 0.89127 0.0
C1457 C 0.66836 0.63293 0.83912 0.0
H1458 H 0.65485 0.59698 0.98557 0.0
H1459 H 0.68509 0.58918 0.88778 0.0
S1460 S 0.62346 0.71112 0.84171 0.0
N1461 N 0.61503 0.69405 0.91209 0.0
N1462 N 0.64744 0.68536 0.80344 0.0
C1463 C 0.64947 0.6611 0.84786 0.0
C1464 C 0.63194 0.66587 0.90672 0.0
C1465 C 0.15227 0.8722 0.62135 0.0
C1466 C 0.13599 0.8938 0.57953 0.0
C1467 C 0.1646 0.88269 0.68116 0.0
C1468 C 0.16131 0.9152 0.70082 0.0
H1469 H 0.1557 0.84708 0.60751 0.0
H1470 H 0.177 0.86535 0.71203 0.0
S1471 S 0.11917 0.98086 0.61145 0.0
N1472 N 0.11596 0.94886 0.56375 0.0
N1473 N 0.13983 0.96849 0.67554 0.0
C1474 C 0.14508 0.93694 0.65976 0.0
C1475 C 0.13228 0.92629 0.59922 0.0
C1476 C 0.91947 0.64932 0.65991 0.0
C1477 C 0.89367 0.65238 0.70461 0.0
C1478 C 0.91542 0.63387 0.59975 0.0
C1479 C 0.88558 0.62011 0.58197 0.0
H1480 H 0.94334 0.65857 0.67171 0.0
H1481 H 0.93613 0.6317 0.56785 0.0
S1482 S 0.80971 0.62263 0.67722 0.0
N1483 N 0.83639 0.64157 0.72341 0.0
N1484 N 0.82946 0.61134 0.61163 0.0
C1485 C 0.85952 0.62302 0.62529 0.0
C1486 C 0.8634 0.63925 0.68625 0.0
C1487 C 0.1803 0.12218 0.40642 0.0
C1488 C 0.15716 0.11814 0.45576 0.0
C1489 C 0.17248 0.13795 0.34856 0.0
C1490 C 0.141 0.1497 0.33734 0.0
H1491 H 0.20489 0.11359 0.41276 0.0
H1492 H 0.19143 0.14167 0.31308 0.0
S1493 S 0.0701 0.14054 0.44583 0.0
N1494 N 0.10063 0.12442 0.48686 0.0
N1495 N 0.08555 0.1531 0.37651 0.0
C1496 C 0.11714 0.14441 0.38464 0.0
C1497 C 0.12528 0.12887 0.44425 0.0
C1498 C 0.65903 0.37635 0.19278 0.0
C1499 C 0.67375 0.40656 0.20463 0.0
C1500 C 0.64261 0.36998 0.13439 0.0
C1501 C 0.63944 0.39371 0.08535 0.0
H1502 H 0.66043 0.35724 0.22876 0.0
H1503 H 0.63204 0.34616 0.12792 0.0
S1504 S 0.67301 0.47726 0.09267 0.0
N1505 N 0.68457 0.46036 0.16144 0.0
N1506 N 0.65226 0.4491 0.05377 0.0
C1507 C 0.65427 0.42401 0.09635 0.0
C1508 C 0.67165 0.43024 0.15535 0.0
C1509 C 0.35456 0.90602 0.91099 0.0
C1510 C 0.37866 0.91274 0.95729 0.0
C1511 C 0.3626 0.89313 0.85041 0.0
C1512 C 0.39511 0.88674 0.83371 0.0
H1513 H 0.3292 0.90998 0.92231 0.0
H1514 H 0.34308 0.88739 0.8171 0.0
S1515 S 0.46762 0.90374 0.93528 0.0
N1516 N 0.43656 0.91428 0.98103 0.0
N1517 N 0.45173 0.89085 0.86646 0.0
C1518 C 0.41955 0.89452 0.87881 0.0
C1519 C 0.41133 0.90732 0.94074 0.0
C1520 C 0.16762 0.74799 0.22377 0.0
C1521 C 0.14228 0.73194 0.19022 0.0
C1522 C 0.16982 0.78254 0.22494 0.0
C1523 C 0.14639 0.80228 0.19377 0.0
H1524 H 0.18712 0.73384 0.245 0.0
H1525 H 0.19081 0.79369 0.24727 0.0
S1526 S 0.07471 0.77296 0.10359 0.0
N1527 N 0.09291 0.7395 0.12775 0.0
N1528 N 0.09716 0.80289 0.13107 0.0
C1529 C 0.12065 0.78639 0.16306 0.0
C1530 C 0.11848 0.75178 0.16117 0.0
C1531 C 0.53628 0.86351 0.42892 0.0
C1532 C 0.55479 0.89021 0.45069 0.0
C1533 C 0.50193 0.8628 0.43382 0.0
C1534 C 0.48401 0.88954 0.45685 0.0
H1535 H 0.54838 0.84328 0.40592 0.0
H1536 H 0.48931 0.84199 0.41489 0.0
S1537 S 0.5197 0.9635 0.52861 0.0
N1538 N 0.55167 0.94186 0.5067 0.0
N1539 N 0.48759 0.94216 0.50745 0.0
C1540 C 0.5021 0.91554 0.48181 0.0
C1541 C 0.53717 0.91547 0.48073 0.0
C1542 C 0.3661 0.28335 0.71864 0.0
C1543 C 0.39126 0.30235 0.69201 0.0
C1544 C 0.36875 0.24909 0.72336 0.0
C1545 C 0.39607 0.23253 0.69893 0.0
H1546 H 0.34377 0.29492 0.73374 0.0
H1547 H 0.3481 0.23537 0.74057 0.0
S1548 S 0.46935 0.27126 0.62889 0.0
N1549 N 0.44547 0.30203 0.64738 0.0
N1550 N 0.44922 0.23843 0.65026 0.0
C1551 C 0.42172 0.2516 0.67486 0.0
C1552 C 0.41958 0.28623 0.67271 0.0
C1553 C 1.00324 0.11385 0.95814 0.0
C1554 C 0.98612 0.1427 0.94517 0.0
C1555 C 0.03735 0.11244 0.95362 0.0
C1556 C 0.05574 0.1402 0.93881 0.0
H1557 H 0.99015 0.09163 0.96619 0.0
H1558 H 0.04934 0.08922 0.95972 0.0
S1559 S 0.02232 0.22227 0.906 0.0
N1560 N 0.99003 0.1998 0.91996 0.0
N1561 N 0.05379 0.19774 0.91439 0.0
C1562 C 0.03888 0.1696 0.93014 0.0
C1563 C 1.0042 0.17074 0.93286 0.0
C1564 C 0.15716 0.28572 0.80394 0.0
C1565 C 0.13735 0.3033 0.84756 0.0
C1566 C 0.15905 0.25109 0.80595 0.0
C1567 C 0.14202 0.23286 0.85296 0.0
H1568 H 0.17275 0.29878 0.77086 0.0
H1569 H 0.17542 0.23878 0.77322 0.0
S1570 S 0.08645 0.2681 0.97776 0.0
N1571 N 0.09809 0.29938 0.93437 0.0
N1572 N 0.10481 0.2368 0.94468 0.0
C1573 C 0.12152 0.25071 0.89527 0.0
C1574 C 0.11829 0.2851 0.89066 0.0
C1575 C 0.03957 0.91384 0.06462 0.0
C1576 C 0.05621 0.88933 0.09985 0.0
C1577 C 1.00501 0.91716 0.06724 0.0
C1578 C 0.98555 0.89562 0.10387 0.0
H1579 H 0.05342 0.93207 0.03904 0.0
H1580 H 0.99372 0.93767 0.0433 0.0
S1581 S 1.01625 0.82421 0.19528 0.0
N1582 N 0.04925 0.84248 0.16937 0.0
N1583 N 0.98582 0.84605 0.16704 0.0
C1584 C 1.00184 0.86965 0.1342 0.0
C1585 C 0.03658 0.86718 0.13401 0.0
C1586 C 0.37569 0.75154 0.31895 0.0
C1587 C 0.39635 0.73368 0.36096 0.0
C1588 C 0.37645 0.78623 0.31658 0.0
C1589 C 0.39829 0.80433 0.35537 0.0
H1590 H 0.35748 0.73885 0.29084 0.0
H1591 H 0.35854 0.79889 0.28751 0.0
S1592 S 0.46058 0.76975 0.46571 0.0
N1593 N 0.44081 0.73792 0.43782 0.0
N1594 N 0.44337 0.80116 0.43051 0.0
C1595 C 0.42046 0.7865 0.39316 0.0
C1596 C 0.41915 0.75187 0.39684 0.0
C1597 C 0.53528 0.17362 0.62564 0.0
C1598 C 0.55439 0.14781 0.60221 0.0
C1599 C 0.50106 0.17278 0.62309 0.0
C1600 C 0.48409 0.14579 0.59868 0.0
H1601 H 0.54689 0.19415 0.64883 0.0
H1602 H 0.48791 0.19244 0.64495 0.0
S1603 S 0.52244 0.07103 0.53407 0.0
N1604 N 0.55359 0.09444 0.55297 0.0
N1605 N 0.48947 0.09205 0.55196 0.0
C1606 C 0.50291 0.11995 0.57432 0.0
C1607 C 0.53789 0.12124 0.57481 0.0
C1608 C 0.92543 0.2525 0.88228 0.0
C1609 C 0.90626 0.23234 0.84241 0.0
C1610 C 0.92434 0.28657 0.87768 0.0
C1611 C 0.9024 0.30274 0.83669 0.0
H1612 H 0.94088 0.24193 0.91914 0.0
H1613 H 0.94032 0.3006 0.90798 0.0
S1614 S 0.85276 0.2624 0.70999 0.0
N1615 N 0.86987 0.23184 0.74935 0.0
N1616 N 0.8656 0.29597 0.74564 0.0
C1617 C 0.88528 0.28327 0.792 0.0
C1618 C 0.88763 0.24817 0.79409 0.0
C1619 C 0.67753 0.78828 0.34597 0.0
C1620 C 0.64845 0.80628 0.34601 0.0
C1621 C 0.67755 0.75397 0.35192 0.0
C1622 C 0.64849 0.73569 0.35262 0.0
H1623 H 0.70051 0.80094 0.34605 0.0
H1624 H 0.70065 0.74166 0.35711 0.0
S1625 S 0.56668 0.7716 0.32612 0.0
N1626 N 0.59048 0.80343 0.33288 0.0
N1627 N 0.59025 0.73926 0.33416 0.0
C1628 C 0.61955 0.7535 0.34219 0.0
C1629 C 0.6196 0.78855 0.34084 0.0
C1630 C 0.88224 0.75235 0.23064 0.0
C1631 C 0.90105 0.73503 0.18469 0.0
C1632 C 0.88109 0.78713 0.23148 0.0
C1633 C 0.89902 0.80616 0.18692 0.0
H1634 H 0.8667 0.73903 0.26338 0.0
H1635 H 0.86481 0.79905 0.26493 0.0
S1636 S 0.95354 0.77318 0.05965 0.0
N1637 N 0.93845 0.74077 0.09511 0.0
N1638 N 0.93828 0.80406 0.0995 0.0
C1639 C 0.91942 0.78888 0.14417 0.0
C1640 C 0.91987 0.7541 0.14225 0.0
C1641 C 0.61186 0.25246 0.68505 0.0
C1642 C 0.63914 0.23482 0.70669 0.0
C1643 C 0.61245 0.2868 0.67964 0.0
C1644 C 0.63957 0.30531 0.69964 0.0
H1645 H 0.59071 0.23951 0.66789 0.0
H1646 H 0.5918 0.2989 0.65776 0.0
S1647 S 0.71402 0.2708 0.77402 0.0
N1648 N 0.69251 0.23857 0.7546 0.0
N1649 N 0.69224 0.30273 0.75213 0.0
C1650 C 0.66548 0.28797 0.72798 0.0
C1651 C 0.66556 0.25298 0.72982 0.0
C1652 C 1.0027 0.36479 0.89363 0.0
C1653 C 0.98348 0.38275 0.93724 0.0
C1654 C 0.03679 0.36503 0.89662 0.0
C1655 C 0.05403 0.38358 0.94251 0.0
H1656 H 0.99134 0.35139 0.85454 0.0
H1657 H 0.0499 0.35133 0.8607 0.0
S1658 S 1.01596 0.42978 0.07652 0.0
N1659 N 0.98464 0.41564 0.03496 0.0
N1660 N 0.04892 0.41664 0.03923 0.0
C1661 C 0.03536 0.39929 0.99036 0.0
C1662 C 1.00017 0.39876 0.98793 0.0
C1663 C 0.50105 0.61664 0.48346 0.0
C1664 C 0.48323 0.64308 0.45727 0.0
C1665 C 0.53578 0.61547 0.48053 0.0
C1666 C 0.55403 0.64092 0.45227 0.0
H1667 H 0.4881 0.59565 0.50136 0.0
H1668 H 0.54815 0.59368 0.49652 0.0
S1669 S 0.51868 0.7156 0.38068 0.0
N1670 N 0.487 0.6948 0.40428 0.0
N1671 N 0.55059 0.6937 0.4012 0.0
C1672 C 0.53617 0.6678 0.42953 0.0
C1673 C 0.50144 0.66863 0.43163 0.0
C1674 C 0.50099 0.36673 0.62362 0.0
C1675 C 0.48271 0.39237 0.59641 0.0
C1676 C 0.53516 0.3666 0.62414 0.0
C1677 C 0.55337 0.39225 0.59776 0.0
H1678 H 0.48876 0.34711 0.64807 0.0
H1679 H 0.54749 0.34685 0.64868 0.0
S1680 S 0.51815 0.467 0.52542 0.0
N1681 N 0.48598 0.44519 0.5449 0.0
N1682 N 0.55023 0.4449 0.54517 0.0
C1683 C 0.53565 0.41787 0.5687 0.0
C1684 C 0.50047 0.41803 0.56848 0.0
C1685 C 0.03353 0.61122 0.07901 0.0
C1686 C 0.05286 0.63947 0.07522 0.0
C1687 C 0.99913 0.61254 0.07774 0.0
C1688 C 0.98206 0.64209 0.07819 0.0
H1689 H 0.04511 0.58777 0.08449 0.0
H1690 H 0.9857 0.59019 0.07769 0.0
S1691 S 0.01987 0.72174 0.04579 0.0
N1692 N 0.05131 0.69711 0.05268 0.0
N1693 N 0.98724 0.69947 0.05789 0.0
C1694 C 1.00086 0.67004 0.06739 0.0
C1695 C 0.03596 0.66871 0.06449 0.0
C1696 C 0.14227 0.5456 0.98973 0.0
C1697 C 0.14567 0.54635 0.05837 0.0
C1698 C 0.14155 0.51636 0.95356 0.0
C1699 C 0.14237 0.48566 0.9835 0.0
H1700 H 0.14096 0.56805 0.9626 0.0
H1701 H 0.1405 0.5183 0.90173 0.0
S1702 S 0.15288 0.47297 0.16184 0.0
N1703 N 0.15355 0.51267 0.15292 0.0
N1704 N 0.14651 0.45848 0.08862 0.0
C1705 C 0.14475 0.48607 0.05257 0.0
C1706 C 0.14789 0.51591 0.08868 0.0
C1707 C 0.76995 0.90947 0.33426 0.0
C1708 C 0.73919 0.90308 0.30687 0.0
C1709 C 0.79888 0.9105 0.29633 0.0
C1710 C 0.79951 0.90411 0.22861 0.0
H1711 H 0.77168 0.91524 0.38507 0.0
H1712 H 0.82095 0.91701 0.32083 0.0
S1713 S 0.72545 0.88655 0.13196 0.0
N1714 N 0.71168 0.89068 0.20626 0.0
N1715 N 0.7651 0.89162 0.13704 0.0
C1716 C 0.76891 0.89717 0.20113 0.0
C1717 C 0.73934 0.89695 0.23939 0.0
C1718 C 0.40544 0.51743 0.58727 0.0
C1719 C 0.39165 0.48852 0.56216 0.0
C1720 C 0.40385 0.54765 0.55283 0.0
C1721 C 0.38866 0.55049 0.49113 0.0
H1722 H 0.41739 0.51692 0.63388 0.0
H1723 H 0.41494 0.56869 0.57473 0.0
S1724 S 0.3526 0.48316 0.39952 0.0
N1725 N 0.36527 0.46646 0.46743 0.0
N1726 N 0.36169 0.52172 0.40611 0.0
C1727 C 0.37605 0.52211 0.46529 0.0
C1728 C 0.37769 0.49179 0.49969 0.0
C1729 C 0.77061 0.13478 0.83745 0.0
C1730 C 0.80019 0.14577 0.81179 0.0
C1731 C 0.74161 0.13477 0.79992 0.0
C1732 C 0.74035 0.14534 0.7341 0.0
H1733 H 0.76993 0.12522 0.8863 0.0
H1734 H 0.71994 0.12559 0.82292 0.0
S1735 S 0.81024 0.18057 0.64605 0.0
N1736 N 0.82545 0.1706 0.71734 0.0
N1737 N 0.77167 0.16996 0.64846 0.0
C1738 C 0.76957 0.15738 0.70892 0.0
C1739 C 0.79904 0.15776 0.74712 0.0
C1740 C 0.89329 0.51742 0.08792 0.0
C1741 C 0.89046 0.54816 0.05754 0.0
C1742 C 0.89233 0.48776 0.05169 0.0
C1743 C 0.88703 0.48694 0.98362 0.0
H1744 H 0.89648 0.5161 0.13993 0.0
H1745 H 0.896 0.46526 0.07739 0.0
S1746 S 0.87296 0.55951 0.88148 0.0
N1747 N 0.88163 0.57452 0.95307 0.0
N1748 N 0.87484 0.51983 0.89038 0.0
C1749 C 0.88305 0.51718 0.9537 0.0
C1750 C 0.886 0.54722 0.98902 0.0
C1751 C 0.27035 0.12884 0.84211 0.0
C1752 C 0.24081 0.14275 0.8209 0.0
C1753 C 0.2983 0.12766 0.80156 0.0
C1754 C 0.29877 0.14038 0.73778 0.0
H1755 H 0.27177 0.1181 0.88989 0.0
H1756 H 0.32 0.11663 0.82034 0.0
S1757 S 0.22709 0.17941 0.65962 0.0
N1758 N 0.21358 0.16902 0.73163 0.0
N1759 N 0.26557 0.16812 0.65769 0.0
C1760 C 0.26932 0.15494 0.71715 0.0
C1761 C 0.24071 0.15561 0.75785 0.0
C1762 C 0.6623 0.51757 0.4534 0.0
C1763 C 0.64785 0.54714 0.4729 0.0
C1764 C 0.66374 0.48959 0.49458 0.0
C1765 C 0.65067 0.489 0.55834 0.0
H1766 H 0.67371 0.51617 0.40666 0.0
H1767 H 0.6759 0.46834 0.47608 0.0
S1768 S 0.6138 0.56181 0.63559 0.0
N1769 N 0.62254 0.5746 0.56225 0.0
N1770 N 0.62503 0.52335 0.63844 0.0
C1771 C 0.63665 0.51884 0.57812 0.0
C1772 C 0.6354 0.54727 0.53623 0.0
C1773 C 0.29366 0.92752 0.25476 0.0
C1774 C 0.30235 0.90313 0.30037 0.0
C1775 C 0.26556 0.92521 0.21413 0.0
C1776 C 0.24382 0.89877 0.21823 0.0
H1777 H 0.30819 0.94924 0.25165 0.0
H1778 H 0.25987 0.94522 0.182 0.0
S1779 S 0.25526 0.82705 0.32442 0.0
N1780 N 0.28705 0.84999 0.34098 0.0
N1781 N 0.23385 0.84719 0.27011 0.0
C1782 C 0.25236 0.87416 0.26262 0.0
C1783 C 0.28141 0.87593 0.30215 0.0
C1784 C 0.67603 1.01837 0.46149 0.0
C1785 C 0.65121 0.995 0.46996 0.0
C1786 C 0.67856 0.04658 0.50191 0.0
C1787 C 0.65571 0.05401 0.55122 0.0
H1788 H 0.6948 1.01389 0.42606 0.0
H1789 H 0.6993 0.06214 0.49574 0.0
S1790 S 0.58573 1.00142 0.59221 0.0
N1791 N 0.6043 0.98139 0.53422 0.0
N1792 N 0.60642 0.03515 0.60211 0.0
C1793 C 0.63031 0.03134 0.5579 0.0
C1794 C 0.62875 1.00201 0.51957 0.0
C1795 C 0.26665 0.40967 0.83215 0.0
C1796 C 0.2372 0.39719 0.80861 0.0
C1797 C 0.29555 0.40787 0.79557 0.0
C1798 C 0.29675 0.39385 0.73263 0.0
H1799 H 0.2674 0.4212 0.87925 0.0
H1800 H 0.31721 0.41814 0.8171 0.0
S1801 S 0.22675 0.35376 0.65233 0.0
N1802 N 0.21175 0.36712 0.72136 0.0
N1803 N 0.26524 0.36478 0.65219 0.0
C1804 C 0.26745 0.38052 0.70955 0.0
C1805 C 0.23806 0.38188 0.74749 0.0
C1806 C 0.86184 1.01671 0.06976 0.0
C1807 C 0.89078 0.99893 0.08148 0.0
C1808 C 0.86068 0.04376 0.02634 0.0
C1809 C 0.8885 0.05529 0.99317 0.0
H1810 H 0.83934 1.00835 0.09088 0.0
H1811 H 0.8374 0.05505 1.01697 0.0
S1812 S 0.97175 0.02261 1.01908 0.0
N1813 N 0.94875 0.99846 0.06321 0.0
N1814 N 0.94687 0.04905 0.98487 0.0
C1815 C 0.91791 0.03931 1.00889 0.0
C1816 C 0.91897 1.01157 0.05216 0.0
C1817 C 0.26663 0.63237 0.20912 0.0
C1818 C 0.23569 0.6379 0.23563 0.0
C1819 C 0.29561 0.63531 0.24651 0.0
C1820 C 0.29598 0.64254 0.31434 0.0
H1821 H 0.26863 0.62529 0.15894 0.0
H1822 H 0.31818 0.63089 0.22132 0.0
S1823 S 0.22181 0.66823 0.40251 0.0
N1824 N 0.20797 0.65837 0.33009 0.0
N1825 N 0.26109 0.66062 0.4011 0.0
C1826 C 0.26501 0.64972 0.34005 0.0
C1827 C 0.23553 0.64806 0.30098 0.0
C1828 C 0.40473 0.99226 0.54261 0.0
C1829 C 0.39313 0.99041 0.47777 0.0
C1830 C 0.40381 0.02125 0.57954 0.0
C1831 C 0.3915 0.0505 0.5541 0.0
H1832 H 0.41463 0.97084 0.56584 0.0
H1833 H 0.41372 0.02061 0.62778 0.0
S1834 S 0.35728 0.05948 0.38705 0.0
N1835 N 0.3676 0.02088 0.39122 0.0
N1836 N 0.36755 0.07518 0.45763 0.0
C1837 C 0.38024 0.04906 0.48876 0.0
C1838 C 0.38058 0.01932 0.45166 0.0
C1839 C 0.77428 0.65676 0.21633 0.0
C1840 C 0.80111 0.6377 0.23566 0.0
C1841 C 0.74548 0.65891 0.25347 0.0
C1842 C 0.74185 0.64296 0.31383 0.0
H1843 H 0.7751 0.66989 0.17132 0.0
H1844 H 0.72566 0.67325 0.23405 0.0
S1845 S 0.80429 0.59038 0.38974 0.0
N1846 N 0.82103 0.60183 0.32084 0.0
N1847 N 0.76835 0.6079 0.39179 0.0
C1848 C 0.76864 0.62454 0.33503 0.0
C1849 C 0.79765 0.62137 0.29594 0.0
C1850 C 0.14246 1.01675 0.95613 0.0
C1851 C 0.14945 0.04714 0.98459 0.0
C1852 C 0.14405 0.98738 0.99247 0.0
C1853 C 0.15311 0.98684 0.05872 0.0
H1854 H 0.13513 1.01546 0.90599 0.0
H1855 H 0.13786 0.96499 0.96835 0.0
S1856 S 0.17887 0.05828 0.15421 0.0
N1857 N 0.16805 0.07342 0.08366 0.0
N1858 N 0.173 1.01887 0.14786 0.0
C1859 C 0.16136 1.0166 0.08657 0.0
C1860 C 0.15902 0.04639 0.05074 0.0
C1861 C 0.7547 0.42735 0.75399 0.0
C1862 C 0.74154 0.39815 0.72901 0.0
C1863 C 0.78066 0.42791 0.79989 0.0
C1864 C 0.79816 0.39962 0.81688 0.0
H1865 H 0.74419 0.45024 0.73932 0.0
H1866 H 0.78847 0.45112 0.81877 0.0
S1867 S 0.77916 0.31712 0.75949 0.0
N1868 N 0.74975 0.33966 0.72845 0.0
N1869 N 0.80269 0.34212 0.79998 0.0
C1870 C 0.78709 0.37067 0.78914 0.0
C1871 C 0.75839 0.36959 0.74846 0.0
loop_
_geom_bond_atom_site_label_1
_geom_bond_atom_site_label_2
_geom_bond_distance
_geom_bond_site_symmetry_2
_ccdc_geom_bond_type
Tb0 N29 2.617 . S
Tb0 N35 2.572 . S
Tb0 O44 2.465 . S
Tb0 O45 2.387 . S
Tb0 O47 2.428 . S
Tb0 O48 2.308 . S
Tb0 O52 2.349 . S
Tb0 O55 2.393 . S
Tb0 C64 2.802 . S
C1 N2 1.379 1_556 S
C1 C4 1.416 . S
C1 C8 1.424 . S
N2 C1 1.379 1_554 S
N2 C5 1.334 . S
N2 Tb11 2.617 . S
C3 C5 1.390 . S
C3 C6 1.339 . S
C3 H23 0.930 . S
C4 C1 1.416 . S
C4 C6 1.416 1_556 S
C4 C10 1.448 . S
C5 N2 1.334 . S
C5 C3 1.390 . S
C5 H16 0.930 . S
C6 C3 1.339 . S
C6 C4 1.416 1_554 S
C6 H27 0.930 . S
C7 C8 1.413 . S
C7 C9 1.427 . S
C7 C13 1.416 . S
C8 C1 1.424 . S
C8 C7 1.413 . S
C8 N12 1.361 . S
C9 C7 1.427 . S
C9 C10 1.328 . S
C9 H24 0.929 . S
C10 C4 1.448 . S
C10 C9 1.328 . S
C10 H25 0.930 . S
Tb11 N2 2.617 . S
Tb11 N12 2.572 1_554 S
Tb11 O46 2.349 . S
Tb11 O49 2.393 . S
Tb11 O50 2.465 1_554 S
Tb11 O51 2.387 . S
Tb11 O53 2.428 1_554 S
Tb11 O54 2.308 . S
Tb11 C75 2.802 1_554 S
N12 C8 1.361 . S
N12 Tb11 2.572 1_556 S
N12 C14 1.340 . S
C13 C7 1.416 . S
C13 C15 1.332 . S
C13 H21 0.931 . S
C14 N12 1.340 . S
C14 C15 1.407 . S
C14 H20 0.930 . S
C15 C13 1.332 . S
C15 C14 1.407 . S
C15 H17 0.929 . S
H16 C5 0.930 . S
H17 C15 0.929 . S
H18 C33 0.930 . S
H19 C40 0.929 . S
H20 C14 0.930 . S
H21 C13 0.931 . S
H22 C36 0.930 . S
H23 C3 0.930 . S
H24 C9 0.929 . S
H25 C10 0.930 . S
H26 C31 0.930 . S
H27 C6 0.930 . S
H28 C39 0.931 1_655 S
N29 Tb0 2.617 . S
N29 C30 1.379 . S
N29 C33 1.334 . S
C30 N29 1.379 . S
C30 C32 1.416 . S
C30 C38 1.424 . S
C31 H26 0.930 . S
C31 C33 1.390 . S
C31 C34 1.339 . S
C32 C30 1.416 . S
C32 C34 1.416 . S
C32 C65 1.448 1_455 S
C33 H18 0.930 . S
C33 N29 1.334 . S
C33 C31 1.390 . S
C34 C31 1.339 . S
C34 C32 1.416 . S
C34 H41 0.930 . S
N35 Tb0 2.572 . S
N35 C36 1.340 . S
N35 C38 1.361 . S
C36 H22 0.930 . S
C36 N35 1.340 . S
C36 C40 1.407 . S
C37 C38 1.413 . S
C37 C39 1.416 . S
C37 C66 1.427 1_455 S
C38 C30 1.424 . S
C38 N35 1.361 . S
C38 C37 1.413 . S
C39 H28 0.931 1_455 S
C39 C37 1.416 . S
C39 C40 1.332 . S
C40 H19 0.929 . S
C40 C36 1.407 . S
C40 C39 1.332 . S
H41 C34 0.930 . S
H42 C65 0.930 . S
H43 C66 0.929 . S
O44 Tb0 2.465 . S
O44 C64 1.264 . S
O45 Tb0 2.387 . S
O45 C56 1.264 . S
O46 Tb11 2.349 . S
O46 C56 1.243 . S
O47 Tb0 2.428 . S
O47 C64 1.256 . S
O48 Tb0 2.308 . S
O48 C63 1.266 . S
O49 Tb11 2.393 . S
O49 C63 1.248 . S
O50 Tb11 2.465 1_556 S
O50 C75 1.264 . S
O51 Tb11 2.387 . S
O51 C67 1.264 . S
O52 Tb0 2.349 . S
O52 C67 1.243 . S
O53 Tb11 2.428 1_556 S
O53 C75 1.256 . S
O54 Tb11 2.308 . S
O54 C74 1.266 . S
O55 Tb0 2.393 . S
O55 C74 1.248 . S
C56 O45 1.264 . S
C56 O46 1.243 . S
C57 C60 1.399 . S
C57 C62 1.383 . S
C57 C64 1.496 . S
C58 C59 1.399 . S
C58 C62 1.389 . S
C59 C58 1.399 . S
C59 C61 1.380 . S
C59 H76 0.929 . S
C60 C57 1.399 . S
C60 C61 1.392 . S
C60 H77 0.929 . S
C61 C59 1.380 . S
C61 C60 1.392 . S
C61 H78 0.929 . S
C62 C57 1.383 . S
C62 C58 1.389 . S
C62 H79 0.931 . S
C63 O48 1.266 . S
C63 O49 1.248 . S
C64 Tb0 2.802 . S
C64 O44 1.264 . S
C64 O47 1.256 . S
C64 C57 1.496 . S
C65 C32 1.448 1_655 S
C65 H42 0.930 . S
C65 C66 1.328 . S
C66 C37 1.427 1_655 S
C66 H43 0.929 . S
C66 C65 1.328 . S
C67 O51 1.264 . S
C67 O52 1.243 . S
C68 C71 1.399 . S
C68 C72 1.383 . S
C68 C75 1.496 . S
C69 C70 1.399 . S
C69 C72 1.389 . S
C70 C69 1.399 . S
C70 C73 1.380 . S
C70 H80 0.929 . S
C71 C68 1.399 . S
C71 C73 1.392 . S
C71 H81 0.929 . S
C72 C68 1.383 . S
C72 C69 1.389 . S
C72 H82 0.931 . S
C73 C70 1.380 . S
C73 C71 1.392 . S
C73 H83 0.929 . S
C74 O54 1.266 . S
C74 O55 1.248 . S
C75 Tb11 2.802 1_556 S
C75 O50 1.264 . S
C75 O53 1.256 . S
C75 C68 1.496 . S
H76 C59 0.929 . S
H77 C60 0.929 . S
H78 C61 0.929 . S
H79 C62 0.931 . S
H80 C70 0.929 . S
H81 C71 0.929 . S
H82 C72 0.931 . S
H83 C73 0.929 . S
Tb84 N113 2.617 . S
Tb84 N119 2.572 . S
Tb84 O128 2.465 . S
Tb84 O129 2.387 . S
Tb84 O131 2.428 . S
Tb84 O132 2.308 . S
Tb84 O136 2.349 . S
Tb84 O139 2.393 . S
Tb84 C148 2.802 . S
C85 N86 1.379 . S
C85 C88 1.416 . S
C85 C92 1.424 . S
N86 C85 1.379 . S
N86 C89 1.334 . S
N86 Tb95 2.617 . S
C87 C89 1.390 . S
C87 C90 1.339 . S
C87 H107 0.930 . S
C88 C85 1.416 . S
C88 C90 1.416 . S
C88 C94 1.448 . S
C89 N86 1.334 . S
C89 C87 1.390 . S
C89 H100 0.930 . S
C90 C87 1.339 . S
C90 C88 1.416 . S
C90 H111 0.930 . S
C91 C92 1.413 . S
C91 C93 1.427 . S
C91 C97 1.416 . S
C92 C85 1.424 . S
C92 C91 1.413 . S
C92 N96 1.361 . S
C93 C91 1.427 . S
C93 C94 1.328 . S
C93 H108 0.929 . S
C94 C88 1.448 . S
C94 C93 1.328 . S
C94 H109 0.930 . S
Tb95 N86 2.617 . S
Tb95 N96 2.572 . S
Tb95 O130 2.349 . S
Tb95 O133 2.393 . S
Tb95 O134 2.465 . S
Tb95 O135 2.387 . S
Tb95 O137 2.428 . S
Tb95 O138 2.308 . S
Tb95 C159 2.802 . S
N96 C92 1.361 . S
N96 Tb95 2.572 . S
N96 C98 1.340 . S
C97 C91 1.416 . S
C97 C99 1.332 . S
C97 H105 0.931 . S
C98 N96 1.340 . S
C98 C99 1.407 . S
C98 H104 0.930 . S
C99 C97 1.332 . S
C99 C98 1.407 . S
C99 H101 0.929 . S
H100 C89 0.930 . S
H101 C99 0.929 . S
H102 C117 0.930 . S
H103 C124 0.929 . S
H104 C98 0.930 . S
H105 C97 0.931 . S
H106 C120 0.930 . S
H107 C87 0.930 . S
H108 C93 0.929 . S
H109 C94 0.930 . S
H110 C115 0.930 1_545 S
H111 C90 0.930 . S
H112 C123 0.931 . S
N113 Tb84 2.617 . S
N113 C114 1.379 . S
N113 C117 1.334 . S
C114 N113 1.379 . S
C114 C116 1.416 . S
C114 C122 1.424 . S
C115 H110 0.930 1_565 S
C115 C117 1.390 . S
C115 C118 1.339 . S
C116 C114 1.416 . S
C116 C118 1.416 . S
C116 C149 1.448 . S
C117 H102 0.930 . S
C117 N113 1.334 . S
C117 C115 1.390 . S
C118 C115 1.339 . S
C118 C116 1.416 . S
C118 H125 0.930 1_565 S
N119 Tb84 2.572 . S
N119 C120 1.340 . S
N119 C122 1.361 . S
C120 H106 0.930 . S
C120 N119 1.340 . S
C120 C124 1.407 . S
C121 C122 1.413 . S
C121 C123 1.416 . S
C121 C150 1.427 . S
C122 C114 1.424 . S
C122 N119 1.361 . S
C122 C121 1.413 . S
C123 H112 0.931 . S
C123 C121 1.416 . S
C123 C124 1.332 . S
C124 H103 0.929 . S
C124 C120 1.407 . S
C124 C123 1.332 . S
H125 C118 0.930 1_545 S
H126 C149 0.930 . S
H127 C150 0.929 . S
O128 Tb84 2.465 . S
O128 C148 1.264 . S
O129 Tb84 2.387 . S
O129 C140 1.264 . S
O130 Tb95 2.349 . S
O130 C140 1.243 . S
O131 Tb84 2.428 . S
O131 C148 1.256 . S
O132 Tb84 2.308 . S
O132 C147 1.266 . S
O133 Tb95 2.393 . S
O133 C147 1.248 . S
O134 Tb95 2.465 . S
O134 C159 1.264 . S
O135 Tb95 2.387 . S
O135 C151 1.264 . S
O136 Tb84 2.349 . S
O136 C151 1.243 . S
O137 Tb95 2.428 . S
O137 C159 1.256 . S
O138 Tb95 2.308 . S
O138 C158 1.266 . S
O139 Tb84 2.393 . S
O139 C158 1.248 . S
C140 O129 1.264 . S
C140 O130 1.243 . S
C141 C144 1.399 . S
C141 C146 1.383 . S
C141 C148 1.496 . S
C142 C143 1.399 . S
C142 C146 1.389 1_556 S
C143 C142 1.399 . S
C143 C145 1.380 1_556 S
C143 H160 0.929 . S
C144 C141 1.399 . S
C144 C145 1.392 . S
C144 H161 0.929 . S
C145 C143 1.380 1_554 S
C145 C144 1.392 . S
C145 H162 0.929 1_554 S
C146 C141 1.383 . S
C146 C142 1.389 1_554 S
C146 H163 0.931 . S
C147 O132 1.266 . S
C147 O133 1.248 . S
C148 Tb84 2.802 . S
C148 O128 1.264 . S
C148 O131 1.256 . S
C148 C141 1.496 . S
C149 C116 1.448 . S
C149 H126 0.930 . S
C149 C150 1.328 . S
C150 C121 1.427 . S
C150 H127 0.929 . S
C150 C149 1.328 . S
C151 O135 1.264 . S
C151 O136 1.243 . S
C152 C155 1.399 . S
C152 C156 1.383 . S
C152 C159 1.496 . S
C153 C154 1.399 . S
C153 C156 1.389 . S
C154 C153 1.399 . S
C154 C157 1.380 . S
C154 H164 0.929 . S
C155 C152 1.399 . S
C155 C157 1.392 . S
C155 H165 0.929 . S
C156 C152 1.383 . S
C156 C153 1.389 . S
C156 H166 0.931 . S
C157 C154 1.380 . S
C157 C155 1.392 . S
C157 H167 0.929 . S
C158 O138 1.266 . S
C158 O139 1.248 . S
C159 Tb95 2.802 . S
C159 O134 1.264 . S
C159 O137 1.256 . S
C159 C152 1.496 . S
H160 C143 0.929 . S
H161 C144 0.929 . S
H162 C145 0.929 1_556 S
H163 C146 0.931 . S
H164 C154 0.929 . S
H165 C155 0.929 . S
H166 C156 0.931 . S
H167 C157 0.929 . S
Tb168 N197 2.617 . S
Tb168 N203 2.572 . S
Tb168 O212 2.465 . S
Tb168 O213 2.387 . S
Tb168 O215 2.428 . S
Tb168 O216 2.308 . S
Tb168 O220 2.349 . S
Tb168 O223 2.393 . S
Tb168 C232 2.802 . S
C169 N170 1.379 . S
C169 C172 1.416 . S
C169 C176 1.424 . S
N170 C169 1.379 . S
N170 C173 1.334 . S
N170 Tb179 2.617 . S
C171 C173 1.390 . S
C171 C174 1.339 . S
C171 H191 0.930 . S
C172 C169 1.416 . S
C172 C174 1.416 . S
C172 C178 1.448 . S
C173 N170 1.334 . S
C173 C171 1.390 . S
C173 H184 0.930 . S
C174 C171 1.339 . S
C174 C172 1.416 . S
C174 H195 0.930 . S
C175 C176 1.413 . S
C175 C177 1.427 . S
C175 C181 1.416 . S
C176 C169 1.424 . S
C176 C175 1.413 . S
C176 N180 1.361 . S
C177 C175 1.427 . S
C177 C178 1.328 . S
C177 H192 0.929 . S
C178 C172 1.448 . S
C178 C177 1.328 . S
C178 H193 0.930 . S
Tb179 N170 2.617 . S
Tb179 N180 2.572 . S
Tb179 O214 2.349 . S
Tb179 O217 2.393 . S
Tb179 O218 2.465 . S
Tb179 O219 2.387 . S
Tb179 O221 2.428 . S
Tb179 O222 2.308 . S
Tb179 C243 2.802 . S
N180 C176 1.361 . S
N180 Tb179 2.572 . S
N180 C182 1.340 . S
C181 C175 1.416 . S
C181 C183 1.332 . S
C181 H189 0.931 . S
C182 N180 1.340 . S
C182 C183 1.407 . S
C182 H188 0.930 . S
C183 C181 1.332 . S
C183 C182 1.407 . S
C183 H185 0.929 . S
H184 C173 0.930 . S
H185 C183 0.929 . S
H186 C201 0.930 . S
H187 C208 0.929 . S
H188 C182 0.930 . S
H189 C181 0.931 . S
H190 C204 0.930 . S
H191 C171 0.930 . S
H192 C177 0.929 . S
H193 C178 0.930 . S
H194 C199 0.930 . S
H195 C174 0.930 . S
H196 C207 0.931 . S
N197 Tb168 2.617 . S
N197 C198 1.379 . S
N197 C201 1.334 . S
C198 N197 1.379 . S
C198 C200 1.416 . S
C198 C206 1.424 . S
C199 H194 0.930 . S
C199 C201 1.390 . S
C199 C202 1.339 . S
C200 C198 1.416 . S
C200 C202 1.416 . S
C200 C233 1.448 . S
C201 H186 0.930 . S
C201 N197 1.334 . S
C201 C199 1.390 . S
C202 C199 1.339 . S
C202 C200 1.416 . S
C202 H209 0.930 . S
N203 Tb168 2.572 . S
N203 C204 1.340 . S
N203 C206 1.361 . S
C204 H190 0.930 . S
C204 N203 1.340 . S
C204 C208 1.407 . S
C205 C206 1.413 . S
C205 C207 1.416 . S
C205 C234 1.427 . S
C206 C198 1.424 . S
C206 N203 1.361 . S
C206 C205 1.413 . S
C207 H196 0.931 . S
C207 C205 1.416 . S
C207 C208 1.332 . S
C208 H187 0.929 . S
C208 C204 1.407 . S
C208 C207 1.332 . S
H209 C202 0.930 . S
H210 C233 0.930 . S
H211 C234 0.929 . S
O212 Tb168 2.465 . S
O212 C232 1.264 . S
O213 Tb168 2.387 . S
O213 C224 1.264 . S
O214 Tb179 2.349 . S
O214 C224 1.243 . S
O215 Tb168 2.428 . S
O215 C232 1.256 . S
O216 Tb168 2.308 . S
O216 C231 1.266 . S
O217 Tb179 2.393 . S
O217 C231 1.248 . S
O218 Tb179 2.465 . S
O218 C243 1.264 . S
O219 Tb179 2.387 . S
O219 C235 1.264 . S
O220 Tb168 2.349 . S
O220 C235 1.243 . S
O221 Tb179 2.428 . S
O221 C243 1.256 . S
O222 Tb179 2.308 . S
O222 C242 1.266 . S
O223 Tb168 2.393 . S
O223 C242 1.248 . S
C224 O213 1.264 . S
C224 O214 1.243 . S
C225 C228 1.399 . S
C225 C230 1.383 . S
C225 C232 1.496 . S
C226 C227 1.399 . S
C226 C230 1.389 . S
C227 C226 1.399 . S
C227 C229 1.380 . S
C227 H244 0.929 . S
C228 C225 1.399 . S
C228 C229 1.392 . S
C228 H245 0.929 . S
C229 C227 1.380 . S
C229 C228 1.392 . S
C229 H246 0.929 . S
C230 C225 1.383 . S
C230 C226 1.389 . S
C230 H247 0.931 . S
C231 O216 1.266 . S
C231 O217 1.248 . S
C232 Tb168 2.802 . S
C232 O212 1.264 . S
C232 O215 1.256 . S
C232 C225 1.496 . S
C233 C200 1.448 . S
C233 H210 0.930 . S
C233 C234 1.328 . S
C234 C205 1.427 . S
C234 H211 0.929 . S
C234 C233 1.328 . S
C235 O219 1.264 . S
C235 O220 1.243 . S
C236 C239 1.399 . S
C236 C240 1.383 . S
C236 C243 1.496 . S
C237 C238 1.399 . S
C237 C240 1.389 1_554 S
C238 C237 1.399 . S
C238 C241 1.380 1_554 S
C238 H248 0.929 . S
C239 C236 1.399 . S
C239 C241 1.392 . S
C239 H249 0.929 . S
C240 C236 1.383 . S
C240 C237 1.389 1_556 S
C240 H250 0.931 . S
C241 C238 1.380 1_556 S
C241 C239 1.392 . S
C241 H251 0.929 1_556 S
C242 O222 1.266 . S
C242 O223 1.248 . S
C243 Tb179 2.802 . S
C243 O218 1.264 . S
C243 O221 1.256 . S
C243 C236 1.496 . S
H244 C227 0.929 . S
H245 C228 0.929 . S
H246 C229 0.929 . S
H247 C230 0.931 . S
H248 C238 0.929 . S
H249 C239 0.929 . S
H250 C240 0.931 . S
H251 C241 0.929 1_554 S
Tb252 N281 2.617 . S
Tb252 N287 2.572 1_556 S
Tb252 O296 2.465 1_556 S
Tb252 O297 2.387 . S
Tb252 O299 2.428 1_556 S
Tb252 O300 2.308 . S
Tb252 O304 2.349 . S
Tb252 O307 2.393 . S
Tb252 C316 2.802 1_556 S
C253 N254 1.379 . S
C253 C256 1.416 . S
C253 C260 1.424 . S
N254 C253 1.379 . S
N254 C257 1.334 . S
N254 Tb263 2.617 . S
C255 C257 1.390 . S
C255 C258 1.339 . S
C255 H275 0.930 1_655 S
C256 C253 1.416 . S
C256 C258 1.416 . S
C256 C262 1.448 1_545 S
C257 N254 1.334 . S
C257 C255 1.390 . S
C257 H268 0.930 . S
C258 C255 1.339 . S
C258 C256 1.416 . S
C258 H279 0.930 1_545 S
C259 C260 1.413 1_565 S
C259 C261 1.427 . S
C259 C265 1.416 . S
C260 C253 1.424 . S
C260 C259 1.413 1_545 S
C260 N264 1.361 . S
C261 C259 1.427 . S
C261 C262 1.328 . S
C261 H276 0.929 . S
C262 C256 1.448 1_565 S
C262 C261 1.328 . S
C262 H277 0.930 . S
Tb263 N254 2.617 . S
Tb263 N264 2.572 . S
Tb263 O298 2.349 . S
Tb263 O301 2.393 . S
Tb263 O302 2.465 . S
Tb263 O303 2.387 . S
Tb263 O305 2.428 . S
Tb263 O306 2.308 . S
Tb263 C327 2.802 . S
N264 C260 1.361 . S
N264 Tb263 2.572 . S
N264 C266 1.340 . S
C265 C259 1.416 . S
C265 C267 1.332 1_565 S
C265 H273 0.931 . S
C266 N264 1.340 . S
C266 C267 1.407 . S
C266 H272 0.930 . S
C267 C265 1.332 1_545 S
C267 C266 1.407 . S
C267 H269 0.929 . S
H268 C257 0.930 . S
H269 C267 0.929 . S
H270 C285 0.930 . S
H271 C292 0.929 . S
H272 C266 0.930 . S
H273 C265 0.931 . S
H274 C288 0.930 . S
H275 C255 0.930 1_455 S
H276 C261 0.929 . S
H277 C262 0.930 . S
H278 C283 0.930 . S
H279 C258 0.930 1_565 S
H280 C291 0.931 . S
N281 Tb252 2.617 . S
N281 C282 1.379 1_556 S
N281 C285 1.334 . S
C282 N281 1.379 1_554 S
C282 C284 1.416 . S
C282 C290 1.424 . S
C283 H278 0.930 . S
C283 C285 1.390 . S
C283 C286 1.339 . S
C284 C282 1.416 . S
C284 C286 1.416 1_554 S
C284 C317 1.448 . S
C285 H270 0.930 . S
C285 N281 1.334 . S
C285 C283 1.390 . S
C286 C283 1.339 . S
C286 C284 1.416 1_556 S
C286 H293 0.930 . S
N287 Tb252 2.572 1_554 S
N287 C288 1.340 . S
N287 C290 1.361 . S
C288 H274 0.930 . S
C288 N287 1.340 . S
C288 C292 1.407 . S
C289 C290 1.413 . S
C289 C291 1.416 . S
C289 C318 1.427 . S
C290 C282 1.424 . S
C290 N287 1.361 . S
C290 C289 1.413 . S
C291 H280 0.931 . S
C291 C289 1.416 . S
C291 C292 1.332 . S
C292 H271 0.929 . S
C292 C288 1.407 . S
C292 C291 1.332 . S
H293 C286 0.930 . S
H294 C317 0.930 . S
H295 C318 0.929 . S
O296 Tb252 2.465 1_554 S
O296 C316 1.264 . S
O297 Tb252 2.387 . S
O297 C308 1.264 . S
O298 Tb263 2.349 . S
O298 C308 1.243 . S
O299 Tb252 2.428 1_554 S
O299 C316 1.256 . S
O300 Tb252 2.308 . S
O300 C315 1.266 . S
O301 Tb263 2.393 . S
O301 C315 1.248 . S
O302 Tb263 2.465 . S
O302 C327 1.264 . S
O303 Tb263 2.387 . S
O303 C319 1.264 . S
O304 Tb252 2.349 . S
O304 C319 1.243 . S
O305 Tb263 2.428 . S
O305 C327 1.256 . S
O306 Tb263 2.308 . S
O306 C326 1.266 . S
O307 Tb252 2.393 . S
O307 C326 1.248 . S
C308 O297 1.264 . S
C308 O298 1.243 . S
C309 C312 1.399 . S
C309 C314 1.383 . S
C309 C316 1.496 . S
C310 C311 1.399 . S
C310 C314 1.389 . S
C311 C310 1.399 . S
C311 C313 1.380 . S
C311 H328 0.929 . S
C312 C309 1.399 . S
C312 C313 1.392 . S
C312 H329 0.929 . S
C313 C311 1.380 . S
C313 C312 1.392 . S
C313 H330 0.929 . S
C314 C309 1.383 . S
C314 C310 1.389 . S
C314 H331 0.931 . S
C315 O300 1.266 . S
C315 O301 1.248 . S
C316 Tb252 2.802 1_554 S
C316 O296 1.264 . S
C316 O299 1.256 . S
C316 C309 1.496 . S
C317 C284 1.448 . S
C317 H294 0.930 . S
C317 C318 1.328 . S
C318 C289 1.427 . S
C318 H295 0.929 . S
C318 C317 1.328 . S
C319 O303 1.264 . S
C319 O304 1.243 . S
C320 C323 1.399 . S
C320 C324 1.383 . S
C320 C327 1.496 . S
C321 C322 1.399 . S
C321 C324 1.389 . S
C322 C321 1.399 . S
C322 C325 1.380 . S
C322 H332 0.929 . S
C323 C320 1.399 . S
C323 C325 1.392 . S
C323 H333 0.929 . S
C324 C320 1.383 . S
C324 C321 1.389 . S
C324 H334 0.931 . S
C325 C322 1.380 . S
C325 C323 1.392 . S
C325 H335 0.929 . S
C326 O306 1.266 . S
C326 O307 1.248 . S
C327 Tb263 2.802 . S
C327 O302 1.264 . S
C327 O305 1.256 . S
C327 C320 1.496 . S
H328 C311 0.929 . S
H329 C312 0.929 . S
H330 C313 0.929 . S
H331 C314 0.931 . S
H332 C322 0.929 . S
H333 C323 0.929 . S
H334 C324 0.931 . S
H335 C325 0.929 . S
Tb336 N365 2.617 . S
Tb336 N371 2.572 . S
Tb336 O380 2.465 . S
Tb336 O381 2.387 . S
Tb336 O383 2.428 . S
Tb336 O384 2.308 . S
Tb336 O388 2.349 . S
Tb336 O391 2.393 . S
Tb336 C400 2.802 . S
C337 N338 1.379 1_554 S
C337 C340 1.416 . S
C337 C344 1.424 . S
N338 C337 1.379 1_556 S
N338 C341 1.334 . S
N338 Tb347 2.617 . S
C339 C341 1.390 . S
C339 C342 1.339 . S
C339 H359 0.930 . S
C340 C337 1.416 . S
C340 C342 1.416 1_554 S
C340 C346 1.448 . S
C341 N338 1.334 . S
C341 C339 1.390 . S
C341 H352 0.930 . S
C342 C339 1.339 . S
C342 C340 1.416 1_556 S
C342 H363 0.930 . S
C343 C344 1.413 . S
C343 C345 1.427 . S
C343 C349 1.416 . S
C344 C337 1.424 . S
C344 C343 1.413 . S
C344 N348 1.361 . S
C345 C343 1.427 . S
C345 C346 1.328 . S
C345 H360 0.929 . S
C346 C340 1.448 . S
C346 C345 1.328 . S
C346 H361 0.930 . S
Tb347 N338 2.617 . S
Tb347 N348 2.572 1_556 S
Tb347 O382 2.349 . S
Tb347 O385 2.393 . S
Tb347 O386 2.465 1_556 S
Tb347 O387 2.387 . S
Tb347 O389 2.428 1_556 S
Tb347 O390 2.308 . S
Tb347 C411 2.802 1_556 S
N348 C344 1.361 . S
N348 Tb347 2.572 1_554 S
N348 C350 1.340 . S
C349 C343 1.416 . S
C349 C351 1.332 . S
C349 H357 0.931 . S
C350 N348 1.340 . S
C350 C351 1.407 . S
C350 H356 0.930 . S
C351 C349 1.332 . S
C351 C350 1.407 . S
C351 H353 0.929 . S
H352 C341 0.930 . S
H353 C351 0.929 . S
H354 C369 0.930 . S
H355 C376 0.929 . S
H356 C350 0.930 . S
H357 C349 0.931 . S
H358 C372 0.930 . S
H359 C339 0.930 . S
H360 C345 0.929 . S
H361 C346 0.930 . S
H362 C367 0.930 . S
H363 C342 0.930 . S
H364 C375 0.931 1_655 S
N365 Tb336 2.617 . S
N365 C366 1.379 . S
N365 C369 1.334 . S
C366 N365 1.379 . S
C366 C368 1.416 . S
C366 C374 1.424 . S
C367 H362 0.930 . S
C367 C369 1.390 . S
C367 C370 1.339 . S
C368 C366 1.416 . S
C368 C370 1.416 . S
C368 C401 1.448 1_455 S
C369 H354 0.930 . S
C369 N365 1.334 . S
C369 C367 1.390 . S
C370 C367 1.339 . S
C370 C368 1.416 . S
C370 H377 0.930 . S
N371 Tb336 2.572 . S
N371 C372 1.340 . S
N371 C374 1.361 . S
C372 H358 0.930 . S
C372 N371 1.340 . S
C372 C376 1.407 . S
C373 C374 1.413 . S
C373 C375 1.416 . S
C373 C402 1.427 1_455 S
C374 C366 1.424 . S
C374 N371 1.361 . S
C374 C373 1.413 . S
C375 H364 0.931 1_455 S
C375 C373 1.416 . S
C375 C376 1.332 . S
C376 H355 0.929 . S
C376 C372 1.407 . S
C376 C375 1.332 . S
H377 C370 0.930 . S
H378 C401 0.930 . S
H379 C402 0.929 . S
O380 Tb336 2.465 . S
O380 C400 1.264 . S
O381 Tb336 2.387 . S
O381 C392 1.264 . S
O382 Tb347 2.349 . S
O382 C392 1.243 . S
O383 Tb336 2.428 . S
O383 C400 1.256 . S
O384 Tb336 2.308 . S
O384 C399 1.266 . S
O385 Tb347 2.393 . S
O385 C399 1.248 . S
O386 Tb347 2.465 1_554 S
O386 C411 1.264 . S
O387 Tb347 2.387 . S
O387 C403 1.264 . S
O388 Tb336 2.349 . S
O388 C403 1.243 . S
O389 Tb347 2.428 1_554 S
O389 C411 1.256 . S
O390 Tb347 2.308 . S
O390 C410 1.266 . S
O391 Tb336 2.393 . S
O391 C410 1.248 . S
C392 O381 1.264 . S
C392 O382 1.243 . S
C393 C396 1.399 . S
C393 C398 1.383 . S
C393 C400 1.496 . S
C394 C395 1.399 . S
C394 C398 1.389 . S
C395 C394 1.399 . S
C395 C397 1.380 . S
C395 H412 0.929 . S
C396 C393 1.399 . S
C396 C397 1.392 . S
C396 H413 0.929 . S
C397 C395 1.380 . S
C397 C396 1.392 . S
C397 H414 0.929 . S
C398 C393 1.383 . S
C398 C394 1.389 . S
C398 H415 0.931 . S
C399 O384 1.266 . S
C399 O385 1.248 . S
C400 Tb336 2.802 . S
C400 O380 1.264 . S
C400 O383 1.256 . S
C400 C393 1.496 . S
C401 C368 1.448 1_655 S
C401 H378 0.930 . S
C401 C402 1.328 . S
C402 C373 1.427 1_655 S
C402 H379 0.929 . S
C402 C401 1.328 . S
C403 O387 1.264 . S
C403 O388 1.243 . S
C404 C407 1.399 . S
C404 C408 1.383 . S
C404 C411 1.496 . S
C405 C406 1.399 . S
C405 C408 1.389 . S
C406 C405 1.399 . S
C406 C409 1.380 . S
C406 H416 0.929 . S
C407 C404 1.399 . S
C407 C409 1.392 . S
C407 H417 0.929 . S
C408 C404 1.383 . S
C408 C405 1.389 . S
C408 H418 0.931 . S
C409 C406 1.380 . S
C409 C407 1.392 . S
C409 H419 0.929 . S
C410 O390 1.266 . S
C410 O391 1.248 . S
C411 Tb347 2.802 1_554 S
C411 O386 1.264 . S
C411 O389 1.256 . S
C411 C404 1.496 . S
H412 C395 0.929 . S
H413 C396 0.929 . S
H414 C397 0.929 . S
H415 C398 0.931 . S
H416 C406 0.929 . S
H417 C407 0.929 . S
H418 C408 0.931 . S
H419 C409 0.929 . S
Tb420 N449 2.617 . S
Tb420 N455 2.572 . S
Tb420 O464 2.465 . S
Tb420 O465 2.387 . S
Tb420 O467 2.428 . S
Tb420 O468 2.308 . S
Tb420 O472 2.349 . S
Tb420 O475 2.393 . S
Tb420 C484 2.802 . S
C421 N422 1.379 1_556 S
C421 C424 1.416 . S
C421 C428 1.424 . S
N422 C421 1.379 1_554 S
N422 C425 1.334 . S
N422 Tb431 2.617 . S
C423 C425 1.390 . S
C423 C426 1.339 . S
C423 H443 0.930 . S
C424 C421 1.416 . S
C424 C426 1.416 1_556 S
C424 C430 1.448 . S
C425 N422 1.334 . S
C425 C423 1.390 . S
C425 H436 0.930 . S
C426 C423 1.339 . S
C426 C424 1.416 1_554 S
C426 H447 0.930 . S
C427 C428 1.413 . S
C427 C429 1.427 . S
C427 C433 1.416 . S
C428 C421 1.424 . S
C428 C427 1.413 . S
C428 N432 1.361 . S
C429 C427 1.427 . S
C429 C430 1.328 . S
C429 H444 0.929 . S
C430 C424 1.448 . S
C430 C429 1.328 . S
C430 H445 0.930 . S
Tb431 N422 2.617 . S
Tb431 N432 2.572 1_554 S
Tb431 O466 2.349 . S
Tb431 O469 2.393 . S
Tb431 O470 2.465 1_554 S
Tb431 O471 2.387 . S
Tb431 O473 2.428 1_554 S
Tb431 O474 2.308 . S
Tb431 C495 2.802 1_554 S
N432 C428 1.361 . S
N432 Tb431 2.572 1_556 S
N432 C434 1.340 . S
C433 C427 1.416 . S
C433 C435 1.332 . S
C433 H441 0.931 . S
C434 N432 1.340 . S
C434 C435 1.407 . S
C434 H440 0.930 . S
C435 C433 1.332 . S
C435 C434 1.407 . S
C435 H437 0.929 . S
H436 C425 0.930 . S
H437 C435 0.929 . S
H438 C453 0.930 . S
H439 C460 0.929 . S
H440 C434 0.930 . S
H441 C433 0.931 . S
H442 C456 0.930 . S
H443 C423 0.930 . S
H444 C429 0.929 . S
H445 C430 0.930 . S
H446 C451 0.930 1_545 S
H447 C426 0.930 . S
H448 C459 0.931 1_455 S
N449 Tb420 2.617 . S
N449 C450 1.379 . S
N449 C453 1.334 . S
C450 N449 1.379 . S
C450 C452 1.416 . S
C450 C458 1.424 . S
C451 H446 0.930 1_565 S
C451 C453 1.390 . S
C451 C454 1.339 . S
C452 C450 1.416 . S
C452 C454 1.416 . S
C452 C485 1.448 1_655 S
C453 H438 0.930 . S
C453 N449 1.334 . S
C453 C451 1.390 . S
C454 C451 1.339 . S
C454 C452 1.416 . S
C454 H461 0.930 1_565 S
N455 Tb420 2.572 . S
N455 C456 1.340 . S
N455 C458 1.361 . S
C456 H442 0.930 . S
C456 N455 1.340 . S
C456 C460 1.407 . S
C457 C458 1.413 . S
C457 C459 1.416 . S
C457 C486 1.427 1_655 S
C458 C450 1.424 . S
C458 N455 1.361 . S
C458 C457 1.413 . S
C459 H448 0.931 1_655 S
C459 C457 1.416 . S
C459 C460 1.332 . S
C460 H439 0.929 . S
C460 C456 1.407 . S
C460 C459 1.332 . S
H461 C454 0.930 1_545 S
H462 C485 0.930 . S
H463 C486 0.929 . S
O464 Tb420 2.465 . S
O464 C484 1.264 . S
O465 Tb420 2.387 . S
O465 C476 1.264 . S
O466 Tb431 2.349 . S
O466 C476 1.243 . S
O467 Tb420 2.428 . S
O467 C484 1.256 . S
O468 Tb420 2.308 . S
O468 C483 1.266 . S
O469 Tb431 2.393 . S
O469 C483 1.248 . S
O470 Tb431 2.465 1_556 S
O470 C495 1.264 . S
O471 Tb431 2.387 . S
O471 C487 1.264 . S
O472 Tb420 2.349 . S
O472 C487 1.243 . S
O473 Tb431 2.428 1_556 S
O473 C495 1.256 . S
O474 Tb431 2.308 . S
O474 C494 1.266 . S
O475 Tb420 2.393 . S
O475 C494 1.248 . S
C476 O465 1.264 . S
C476 O466 1.243 . S
C477 C480 1.399 . S
C477 C482 1.383 . S
C477 C484 1.496 . S
C478 C479 1.399 . S
C478 C482 1.389 . S
C479 C478 1.399 . S
C479 C481 1.380 . S
C479 H496 0.929 . S
C480 C477 1.399 . S
C480 C481 1.392 . S
C480 H497 0.929 . S
C481 C479 1.380 . S
C481 C480 1.392 . S
C481 H498 0.929 . S
C482 C477 1.383 . S
C482 C478 1.389 . S
C482 H499 0.931 . S
C483 O468 1.266 . S
C483 O469 1.248 . S
C484 Tb420 2.802 . S
C484 O464 1.264 . S
C484 O467 1.256 . S
C484 C477 1.496 . S
C485 C452 1.448 1_455 S
C485 H462 0.930 . S
C485 C486 1.328 . S
C486 C457 1.427 1_455 S
C486 H463 0.929 . S
C486 C485 1.328 . S
C487 O471 1.264 . S
C487 O472 1.243 . S
C488 C491 1.399 . S
C488 C492 1.383 . S
C488 C495 1.496 . S
C489 C490 1.399 . S
C489 C492 1.389 . S
C490 C489 1.399 . S
C490 C493 1.380 . S
C490 H500 0.929 . S
C491 C488 1.399 . S
C491 C493 1.392 . S
C491 H501 0.929 . S
C492 C488 1.383 . S
C492 C489 1.389 . S
C492 H502 0.931 . S
C493 C490 1.380 . S
C493 C491 1.392 . S
C493 H503 0.929 . S
C494 O474 1.266 . S
C494 O475 1.248 . S
C495 Tb431 2.802 1_556 S
C495 O470 1.264 . S
C495 O473 1.256 . S
C495 C488 1.496 . S
H496 C479 0.929 . S
H497 C480 0.929 . S
H498 C481 0.929 . S
H499 C482 0.931 . S
H500 C490 0.929 . S
H501 C491 0.929 . S
H502 C492 0.931 . S
H503 C493 0.929 . S
Tb504 N533 2.617 . S
Tb504 N539 2.572 . S
Tb504 O548 2.465 . S
Tb504 O549 2.387 . S
Tb504 O551 2.428 . S
Tb504 O552 2.308 . S
Tb504 O556 2.349 . S
Tb504 O559 2.393 . S
Tb504 C568 2.802 . S
C505 N506 1.379 . S
C505 C508 1.416 . S
C505 C512 1.424 . S
N506 C505 1.379 . S
N506 C509 1.334 . S
N506 Tb515 2.617 . S
C507 C509 1.390 . S
C507 C510 1.339 . S
C507 H527 0.930 . S
C508 C505 1.416 . S
C508 C510 1.416 . S
C508 C514 1.448 . S
C509 N506 1.334 . S
C509 C507 1.390 . S
C509 H520 0.930 . S
C510 C507 1.339 . S
C510 C508 1.416 . S
C510 H531 0.930 . S
C511 C512 1.413 . S
C511 C513 1.427 . S
C511 C517 1.416 . S
C512 C505 1.424 . S
C512 C511 1.413 . S
C512 N516 1.361 . S
C513 C511 1.427 . S
C513 C514 1.328 . S
C513 H528 0.929 . S
C514 C508 1.448 . S
C514 C513 1.328 . S
C514 H529 0.930 . S
Tb515 N506 2.617 . S
Tb515 N516 2.572 . S
Tb515 O550 2.349 . S
Tb515 O553 2.393 . S
Tb515 O554 2.465 . S
Tb515 O555 2.387 . S
Tb515 O557 2.428 . S
Tb515 O558 2.308 . S
Tb515 C579 2.802 . S
N516 C512 1.361 . S
N516 Tb515 2.572 . S
N516 C518 1.340 . S
C517 C511 1.416 . S
C517 C519 1.332 . S
C517 H525 0.931 . S
C518 N516 1.340 . S
C518 C519 1.407 . S
C518 H524 0.930 . S
C519 C517 1.332 . S
C519 C518 1.407 . S
C519 H521 0.929 . S
H520 C509 0.930 . S
H521 C519 0.929 . S
H522 C537 0.930 . S
H523 C544 0.929 . S
H524 C518 0.930 . S
H525 C517 0.931 . S
H526 C540 0.930 . S
H527 C507 0.930 . S
H528 C513 0.929 . S
H529 C514 0.930 . S
H530 C535 0.930 . S
H531 C510 0.930 . S
H532 C543 0.931 . S
N533 Tb504 2.617 . S
N533 C534 1.379 . S
N533 C537 1.334 . S
C534 N533 1.379 . S
C534 C536 1.416 . S
C534 C542 1.424 . S
C535 H530 0.930 . S
C535 C537 1.390 . S
C535 C538 1.339 . S
C536 C534 1.416 . S
C536 C538 1.416 . S
C536 C569 1.448 . S
C537 H522 0.930 . S
C537 N533 1.334 . S
C537 C535 1.390 . S
C538 C535 1.339 . S
C538 C536 1.416 . S
C538 H545 0.930 . S
N539 Tb504 2.572 . S
N539 C540 1.340 . S
N539 C542 1.361 . S
C540 H526 0.930 . S
C540 N539 1.340 . S
C540 C544 1.407 . S
C541 C542 1.413 . S
C541 C543 1.416 . S
C541 C570 1.427 . S
C542 C534 1.424 . S
C542 N539 1.361 . S
C542 C541 1.413 . S
C543 H532 0.931 . S
C543 C541 1.416 . S
C543 C544 1.332 . S
C544 H523 0.929 . S
C544 C540 1.407 . S
C544 C543 1.332 . S
H545 C538 0.930 . S
H546 C569 0.930 . S
H547 C570 0.929 . S
O548 Tb504 2.465 . S
O548 C568 1.264 . S
O549 Tb504 2.387 . S
O549 C560 1.264 . S
O550 Tb515 2.349 . S
O550 C560 1.243 . S
O551 Tb504 2.428 . S
O551 C568 1.256 . S
O552 Tb504 2.308 . S
O552 C567 1.266 . S
O553 Tb515 2.393 . S
O553 C567 1.248 . S
O554 Tb515 2.465 . S
O554 C579 1.264 . S
O555 Tb515 2.387 . S
O555 C571 1.264 . S
O556 Tb504 2.349 . S
O556 C571 1.243 . S
O557 Tb515 2.428 . S
O557 C579 1.256 . S
O558 Tb515 2.308 . S
O558 C578 1.266 . S
O559 Tb504 2.393 . S
O559 C578 1.248 . S
C560 O549 1.264 . S
C560 O550 1.243 . S
C561 C564 1.399 . S
C561 C566 1.383 . S
C561 C568 1.496 . S
C562 C563 1.399 . S
C562 C566 1.389 . S
C563 C562 1.399 . S
C563 C565 1.380 . S
C563 H580 0.929 . S
C564 C561 1.399 . S
C564 C565 1.392 . S
C564 H581 0.929 . S
C565 C563 1.380 . S
C565 C564 1.392 . S
C565 H582 0.929 . S
C566 C561 1.383 . S
C566 C562 1.389 . S
C566 H583 0.931 . S
C567 O552 1.266 . S
C567 O553 1.248 . S
C568 Tb504 2.802 . S
C568 O548 1.264 . S
C568 O551 1.256 . S
C568 C561 1.496 . S
C569 C536 1.448 . S
C569 H546 0.930 . S
C569 C570 1.328 . S
C570 C541 1.427 . S
C570 H547 0.929 . S
C570 C569 1.328 . S
C571 O555 1.264 . S
C571 O556 1.243 . S
C572 C575 1.399 . S
C572 C576 1.383 . S
C572 C579 1.496 . S
C573 C574 1.399 . S
C573 C576 1.389 1_556 S
C574 C573 1.399 . S
C574 C577 1.380 1_556 S
C574 H584 0.929 . S
C575 C572 1.399 . S
C575 C577 1.392 . S
C575 H585 0.929 . S
C576 C572 1.383 . S
C576 C573 1.389 1_554 S
C576 H586 0.931 . S
C577 C574 1.380 1_554 S
C577 C575 1.392 . S
C577 H587 0.929 1_554 S
C578 O558 1.266 . S
C578 O559 1.248 . S
C579 Tb515 2.802 . S
C579 O554 1.264 . S
C579 O557 1.256 . S
C579 C572 1.496 . S
H580 C563 0.929 . S
H581 C564 0.929 . S
H582 C565 0.929 . S
H583 C566 0.931 . S
H584 C574 0.929 . S
H585 C575 0.929 . S
H586 C576 0.931 . S
H587 C577 0.929 1_556 S
Tb588 N617 2.617 . S
Tb588 N623 2.572 . S
Tb588 O632 2.465 . S
Tb588 O633 2.387 . S
Tb588 O635 2.428 . S
Tb588 O636 2.308 . S
Tb588 O640 2.349 . S
Tb588 O643 2.393 . S
Tb588 C652 2.802 . S
C589 N590 1.379 . S
C589 C592 1.416 . S
C589 C596 1.424 . S
N590 C589 1.379 . S
N590 C593 1.334 . S
N590 Tb599 2.617 . S
C591 C593 1.390 . S
C591 C594 1.339 . S
C591 H611 0.930 . S
C592 C589 1.416 . S
C592 C594 1.416 . S
C592 C598 1.448 1_545 S
C593 N590 1.334 . S
C593 C591 1.390 . S
C593 H604 0.930 . S
C594 C591 1.339 . S
C594 C592 1.416 . S
C594 H615 0.930 1_545 S
C595 C596 1.413 1_565 S
C595 C597 1.427 . S
C595 C601 1.416 . S
C596 C589 1.424 . S
C596 C595 1.413 1_545 S
C596 N600 1.361 . S
C597 C595 1.427 . S
C597 C598 1.328 . S
C597 H612 0.929 . S
C598 C592 1.448 1_565 S
C598 C597 1.328 . S
C598 H613 0.930 . S
Tb599 N590 2.617 . S
Tb599 N600 2.572 . S
Tb599 O634 2.349 . S
Tb599 O637 2.393 . S
Tb599 O638 2.465 . S
Tb599 O639 2.387 . S
Tb599 O641 2.428 . S
Tb599 O642 2.308 . S
Tb599 C663 2.802 . S
N600 C596 1.361 . S
N600 Tb599 2.572 . S
N600 C602 1.340 . S
C601 C595 1.416 . S
C601 C603 1.332 1_565 S
C601 H609 0.931 . S
C602 N600 1.340 . S
C602 C603 1.407 . S
C602 H608 0.930 . S
C603 C601 1.332 1_545 S
C603 C602 1.407 . S
C603 H605 0.929 . S
H604 C593 0.930 . S
H605 C603 0.929 . S
H606 C621 0.930 . S
H607 C628 0.929 . S
H608 C602 0.930 . S
H609 C601 0.931 . S
H610 C624 0.930 . S
H611 C591 0.930 . S
H612 C597 0.929 . S
H613 C598 0.930 . S
H614 C619 0.930 . S
H615 C594 0.930 1_565 S
H616 C627 0.931 . S
N617 Tb588 2.617 . S
N617 C618 1.379 . S
N617 C621 1.334 . S
C618 N617 1.379 . S
C618 C620 1.416 . S
C618 C626 1.424 . S
C619 H614 0.930 . S
C619 C621 1.390 . S
C619 C622 1.339 . S
C620 C618 1.416 . S
C620 C622 1.416 . S
C620 C653 1.448 . S
C621 H606 0.930 . S
C621 N617 1.334 . S
C621 C619 1.390 . S
C622 C619 1.339 . S
C622 C620 1.416 . S
C622 H629 0.930 . S
N623 Tb588 2.572 . S
N623 C624 1.340 . S
N623 C626 1.361 . S
C624 H610 0.930 . S
C624 N623 1.340 . S
C624 C628 1.407 . S
C625 C626 1.413 . S
C625 C627 1.416 . S
C625 C654 1.427 . S
C626 C618 1.424 . S
C626 N623 1.361 . S
C626 C625 1.413 . S
C627 H616 0.931 . S
C627 C625 1.416 . S
C627 C628 1.332 . S
C628 H607 0.929 . S
C628 C624 1.407 . S
C628 C627 1.332 . S
H629 C622 0.930 . S
H630 C653 0.930 . S
H631 C654 0.929 . S
O632 Tb588 2.465 . S
O632 C652 1.264 . S
O633 Tb588 2.387 . S
O633 C644 1.264 . S
O634 Tb599 2.349 . S
O634 C644 1.243 . S
O635 Tb588 2.428 . S
O635 C652 1.256 . S
O636 Tb588 2.308 . S
O636 C651 1.266 . S
O637 Tb599 2.393 . S
O637 C651 1.248 . S
O638 Tb599 2.465 . S
O638 C663 1.264 . S
O639 Tb599 2.387 . S
O639 C655 1.264 . S
O640 Tb588 2.349 . S
O640 C655 1.243 . S
O641 Tb599 2.428 . S
O641 C663 1.256 . S
O642 Tb599 2.308 . S
O642 C662 1.266 . S
O643 Tb588 2.393 . S
O643 C662 1.248 . S
C644 O633 1.264 . S
C644 O634 1.243 . S
C645 C648 1.399 . S
C645 C650 1.383 . S
C645 C652 1.496 . S
C646 C647 1.399 . S
C646 C650 1.389 . S
C647 C646 1.399 . S
C647 C649 1.380 . S
C647 H664 0.929 . S
C648 C645 1.399 . S
C648 C649 1.392 . S
C648 H665 0.929 . S
C649 C647 1.380 . S
C649 C648 1.392 . S
C649 H666 0.929 . S
C650 C645 1.383 . S
C650 C646 1.389 . S
C650 H667 0.931 . S
C651 O636 1.266 . S
C651 O637 1.248 . S
C652 Tb588 2.802 . S
C652 O632 1.264 . S
C652 O635 1.256 . S
C652 C645 1.496 . S
C653 C620 1.448 . S
C653 H630 0.930 . S
C653 C654 1.328 . S
C654 C625 1.427 . S
C654 H631 0.929 . S
C654 C653 1.328 . S
C655 O639 1.264 . S
C655 O640 1.243 . S
C656 C659 1.399 . S
C656 C660 1.383 . S
C656 C663 1.496 . S
C657 C658 1.399 . S
C657 C660 1.389 1_554 S
C658 C657 1.399 . S
C658 C661 1.380 1_554 S
C658 H668 0.929 . S
C659 C656 1.399 . S
C659 C661 1.392 . S
C659 H669 0.929 . S
C660 C656 1.383 . S
C660 C657 1.389 1_556 S
C660 H670 0.931 . S
C661 C658 1.380 1_556 S
C661 C659 1.392 . S
C661 H671 0.929 1_556 S
C662 O642 1.266 . S
C662 O643 1.248 . S
C663 Tb599 2.802 . S
C663 O638 1.264 . S
C663 O641 1.256 . S
C663 C656 1.496 . S
H664 C647 0.929 . S
H665 C648 0.929 . S
H666 C649 0.929 . S
H667 C650 0.931 . S
H668 C658 0.929 . S
H669 C659 0.929 . S
H670 C660 0.931 . S
H671 C661 0.929 1_554 S
Tb672 N701 2.617 . S
Tb672 N707 2.572 . S
Tb672 O716 2.465 . S
Tb672 O717 2.387 . S
Tb672 O719 2.428 . S
Tb672 O720 2.308 . S
Tb672 O724 2.349 . S
Tb672 O727 2.393 . S
Tb672 C736 2.802 . S
C673 N674 1.379 1_554 S
C673 C676 1.416 . S
C673 C680 1.424 . S
N674 C673 1.379 1_556 S
N674 C677 1.334 . S
N674 Tb683 2.617 . S
C675 C677 1.390 . S
C675 C678 1.339 . S
C675 H695 0.930 . S
C676 C673 1.416 . S
C676 C678 1.416 1_554 S
C676 C682 1.448 . S
C677 N674 1.334 . S
C677 C675 1.390 . S
C677 H688 0.930 . S
C678 C675 1.339 . S
C678 C676 1.416 1_556 S
C678 H699 0.930 . S
C679 C680 1.413 . S
C679 C681 1.427 . S
C679 C685 1.416 . S
C680 C673 1.424 . S
C680 C679 1.413 . S
C680 N684 1.361 . S
C681 C679 1.427 . S
C681 C682 1.328 . S
C681 H696 0.929 . S
C682 C676 1.448 . S
C682 C681 1.328 . S
C682 H697 0.930 . S
Tb683 N674 2.617 . S
Tb683 N684 2.572 1_556 S
Tb683 O718 2.349 . S
Tb683 O721 2.393 . S
Tb683 O722 2.465 1_556 S
Tb683 O723 2.387 . S
Tb683 O725 2.428 1_556 S
Tb683 O726 2.308 . S
Tb683 C747 2.802 1_556 S
N684 C680 1.361 . S
N684 Tb683 2.572 1_554 S
N684 C686 1.340 . S
C685 C679 1.416 . S
C685 C687 1.332 . S
C685 H693 0.931 . S
C686 N684 1.340 . S
C686 C687 1.407 . S
C686 H692 0.930 . S
C687 C685 1.332 . S
C687 C686 1.407 . S
C687 H689 0.929 . S
H688 C677 0.930 . S
H689 C687 0.929 . S
H690 C705 0.930 . S
H691 C712 0.929 . S
H692 C686 0.930 . S
H693 C685 0.931 . S
H694 C708 0.930 . S
H695 C675 0.930 . S
H696 C681 0.929 . S
H697 C682 0.930 . S
H698 C703 0.930 1_455 S
H699 C678 0.930 . S
H700 C711 0.931 . S
N701 Tb672 2.617 . S
N701 C702 1.379 . S
N701 C705 1.334 . S
C702 N701 1.379 . S
C702 C704 1.416 . S
C702 C710 1.424 . S
C703 H698 0.930 1_655 S
C703 C705 1.390 . S
C703 C706 1.339 . S
C704 C702 1.416 . S
C704 C706 1.416 . S
C704 C737 1.448 . S
C705 H690 0.930 . S
C705 N701 1.334 . S
C705 C703 1.390 . S
C706 C703 1.339 . S
C706 C704 1.416 . S
C706 H713 0.930 . S
N707 Tb672 2.572 . S
N707 C708 1.340 . S
N707 C710 1.361 . S
C708 H694 0.930 . S
C708 N707 1.340 . S
C708 C712 1.407 . S
C709 C710 1.413 . S
C709 C711 1.416 . S
C709 C738 1.427 . S
C710 C702 1.424 . S
C710 N707 1.361 . S
C710 C709 1.413 . S
C711 H700 0.931 . S
C711 C709 1.416 . S
C711 C712 1.332 . S
C712 H691 0.929 . S
C712 C708 1.407 . S
C712 C711 1.332 . S
H713 C706 0.930 . S
H714 C737 0.930 . S
H715 C738 0.929 . S
O716 Tb672 2.465 . S
O716 C736 1.264 . S
O717 Tb672 2.387 . S
O717 C728 1.264 . S
O718 Tb683 2.349 . S
O718 C728 1.243 . S
O719 Tb672 2.428 . S
O719 C736 1.256 . S
O720 Tb672 2.308 . S
O720 C735 1.266 . S
O721 Tb683 2.393 . S
O721 C735 1.248 . S
O722 Tb683 2.465 1_554 S
O722 C747 1.264 . S
O723 Tb683 2.387 . S
O723 C739 1.264 . S
O724 Tb672 2.349 . S
O724 C739 1.243 . S
O725 Tb683 2.428 1_554 S
O725 C747 1.256 . S
O726 Tb683 2.308 . S
O726 C746 1.266 . S
O727 Tb672 2.393 . S
O727 C746 1.248 . S
C728 O717 1.264 . S
C728 O718 1.243 . S
C729 C732 1.399 . S
C729 C734 1.383 . S
C729 C736 1.496 . S
C730 C731 1.399 . S
C730 C734 1.389 . S
C731 C730 1.399 . S
C731 C733 1.380 . S
C731 H748 0.929 . S
C732 C729 1.399 . S
C732 C733 1.392 . S
C732 H749 0.929 . S
C733 C731 1.380 . S
C733 C732 1.392 . S
C733 H750 0.929 . S
C734 C729 1.383 . S
C734 C730 1.389 . S
C734 H751 0.931 . S
C735 O720 1.266 . S
C735 O721 1.248 . S
C736 Tb672 2.802 . S
C736 O716 1.264 . S
C736 O719 1.256 . S
C736 C729 1.496 . S
C737 C704 1.448 . S
C737 H714 0.930 . S
C737 C738 1.328 . S
C738 C709 1.427 . S
C738 H715 0.929 . S
C738 C737 1.328 . S
C739 O723 1.264 . S
C739 O724 1.243 . S
C740 C743 1.399 . S
C740 C744 1.383 . S
C740 C747 1.496 . S
C741 C742 1.399 . S
C741 C744 1.389 . S
C742 C741 1.399 . S
C742 C745 1.380 . S
C742 H752 0.929 . S
C743 C740 1.399 . S
C743 C745 1.392 . S
C743 H753 0.929 . S
C744 C740 1.383 . S
C744 C741 1.389 . S
C744 H754 0.931 . S
C745 C742 1.380 . S
C745 C743 1.392 . S
C745 H755 0.929 . S
C746 O726 1.266 . S
C746 O727 1.248 . S
C747 Tb683 2.802 1_554 S
C747 O722 1.264 . S
C747 O725 1.256 . S
C747 C740 1.496 . S
H748 C731 0.929 . S
H749 C732 0.929 . S
H750 C733 0.929 . S
H751 C734 0.931 . S
H752 C742 0.929 . S
H753 C743 0.929 . S
H754 C744 0.931 . S
H755 C745 0.929 . S
Tb756 N785 2.617 . S
Tb756 N791 2.572 . S
Tb756 O800 2.465 . S
Tb756 O801 2.387 . S
Tb756 O803 2.428 . S
Tb756 O804 2.308 . S
Tb756 O808 2.349 . S
Tb756 O811 2.393 . S
Tb756 C820 2.802 . S
C757 N758 1.379 . S
C757 C760 1.416 . S
C757 C764 1.424 . S
N758 C757 1.379 . S
N758 C761 1.334 . S
N758 Tb767 2.617 . S
C759 C761 1.390 . S
C759 C762 1.339 . S
C759 H779 0.930 1_545 S
C760 C757 1.416 . S
C760 C762 1.416 . S
C760 C766 1.448 . S
C761 N758 1.334 . S
C761 C759 1.390 . S
C761 H772 0.930 . S
C762 C759 1.339 . S
C762 C760 1.416 . S
C762 H783 0.930 1_545 S
C763 C764 1.413 . S
C763 C765 1.427 . S
C763 C769 1.416 . S
C764 C757 1.424 . S
C764 C763 1.413 . S
C764 N768 1.361 . S
C765 C763 1.427 . S
C765 C766 1.328 . S
C765 H780 0.929 . S
C766 C760 1.448 . S
C766 C765 1.328 . S
C766 H781 0.930 . S
Tb767 N758 2.617 . S
Tb767 N768 2.572 . S
Tb767 O802 2.349 . S
Tb767 O805 2.393 . S
Tb767 O806 2.465 . S
Tb767 O807 2.387 . S
Tb767 O809 2.428 . S
Tb767 O810 2.308 . S
Tb767 C831 2.802 . S
N768 C764 1.361 . S
N768 Tb767 2.572 . S
N768 C770 1.340 . S
C769 C763 1.416 . S
C769 C771 1.332 . S
C769 H777 0.931 . S
C770 N768 1.340 . S
C770 C771 1.407 . S
C770 H776 0.930 . S
C771 C769 1.332 . S
C771 C770 1.407 . S
C771 H773 0.929 . S
H772 C761 0.930 . S
H773 C771 0.929 . S
H774 C789 0.930 . S
H775 C796 0.929 . S
H776 C770 0.930 . S
H777 C769 0.931 . S
H778 C792 0.930 . S
H779 C759 0.930 1_565 S
H780 C765 0.929 . S
H781 C766 0.930 . S
H782 C787 0.930 . S
H783 C762 0.930 1_565 S
H784 C795 0.931 . S
N785 Tb756 2.617 . S
N785 C786 1.379 . S
N785 C789 1.334 . S
C786 N785 1.379 . S
C786 C788 1.416 . S
C786 C794 1.424 . S
C787 H782 0.930 . S
C787 C789 1.390 . S
C787 C790 1.339 . S
C788 C786 1.416 . S
C788 C790 1.416 . S
C788 C821 1.448 . S
C789 H774 0.930 . S
C789 N785 1.334 . S
C789 C787 1.390 . S
C790 C787 1.339 . S
C790 C788 1.416 . S
C790 H797 0.930 . S
N791 Tb756 2.572 . S
N791 C792 1.340 . S
N791 C794 1.361 . S
C792 H778 0.930 . S
C792 N791 1.340 . S
C792 C796 1.407 . S
C793 C794 1.413 . S
C793 C795 1.416 . S
C793 C822 1.427 . S
C794 C786 1.424 . S
C794 N791 1.361 . S
C794 C793 1.413 . S
C795 H784 0.931 . S
C795 C793 1.416 . S
C795 C796 1.332 . S
C796 H775 0.929 . S
C796 C792 1.407 . S
C796 C795 1.332 . S
H797 C790 0.930 . S
H798 C821 0.930 . S
H799 C822 0.929 . S
O800 Tb756 2.465 . S
O800 C820 1.264 . S
O801 Tb756 2.387 . S
O801 C812 1.264 . S
O802 Tb767 2.349 . S
O802 C812 1.243 . S
O803 Tb756 2.428 . S
O803 C820 1.256 . S
O804 Tb756 2.308 . S
O804 C819 1.266 . S
O805 Tb767 2.393 . S
O805 C819 1.248 . S
O806 Tb767 2.465 . S
O806 C831 1.264 . S
O807 Tb767 2.387 . S
O807 C823 1.264 . S
O808 Tb756 2.349 . S
O808 C823 1.243 . S
O809 Tb767 2.428 . S
O809 C831 1.256 . S
O810 Tb767 2.308 . S
O810 C830 1.266 . S
O811 Tb756 2.393 . S
O811 C830 1.248 . S
C812 O801 1.264 . S
C812 O802 1.243 . S
C813 C816 1.399 . S
C813 C818 1.383 . S
C813 C820 1.496 . S
C814 C815 1.399 . S
C814 C818 1.389 . S
C815 C814 1.399 . S
C815 C817 1.380 . S
C815 H832 0.929 . S
C816 C813 1.399 . S
C816 C817 1.392 . S
C816 H833 0.929 . S
C817 C815 1.380 . S
C817 C816 1.392 . S
C817 H834 0.929 . S
C818 C813 1.383 . S
C818 C814 1.389 . S
C818 H835 0.931 . S
C819 O804 1.266 . S
C819 O805 1.248 . S
C820 Tb756 2.802 . S
C820 O800 1.264 . S
C820 O803 1.256 . S
C820 C813 1.496 . S
C821 C788 1.448 . S
C821 H798 0.930 . S
C821 C822 1.328 . S
C822 C793 1.427 . S
C822 H799 0.929 . S
C822 C821 1.328 . S
C823 O807 1.264 . S
C823 O808 1.243 . S
C824 C827 1.399 . S
C824 C828 1.383 . S
C824 C831 1.496 . S
C825 C826 1.399 . S
C825 C828 1.390 1_554 S
C826 C825 1.399 . S
C826 C829 1.380 1_554 S
C826 H836 0.929 . S
C827 C824 1.399 . S
C827 C829 1.392 . S
C827 H837 0.929 . S
C828 C824 1.383 . S
C828 C825 1.390 1_556 S
C828 H838 0.931 . S
C829 C826 1.380 1_556 S
C829 C827 1.392 . S
C829 H839 0.929 1_556 S
C830 O810 1.266 . S
C830 O811 1.248 . S
C831 Tb767 2.802 . S
C831 O806 1.264 . S
C831 O809 1.256 . S
C831 C824 1.496 . S
H832 C815 0.929 . S
H833 C816 0.929 . S
H834 C817 0.929 . S
H835 C818 0.931 . S
H836 C826 0.929 . S
H837 C827 0.929 . S
H838 C828 0.931 . S
H839 C829 0.929 1_554 S
Tb840 N869 2.617 . S
Tb840 N875 2.572 . S
Tb840 O884 2.465 . S
Tb840 O885 2.387 . S
Tb840 O887 2.428 . S
Tb840 O888 2.308 . S
Tb840 O892 2.349 . S
Tb840 O895 2.393 . S
Tb840 C904 2.802 . S
C841 N842 1.379 . S
C841 C844 1.416 . S
C841 C848 1.424 . S
N842 C841 1.379 . S
N842 C845 1.334 . S
N842 Tb851 2.617 . S
C843 C845 1.390 . S
C843 C846 1.339 . S
C843 H863 0.930 . S
C844 C841 1.416 . S
C844 C846 1.416 . S
C844 C850 1.448 . S
C845 N842 1.334 . S
C845 C843 1.390 . S
C845 H856 0.930 . S
C846 C843 1.339 . S
C846 C844 1.416 . S
C846 H867 0.930 . S
C847 C848 1.413 . S
C847 C849 1.427 . S
C847 C853 1.416 . S
C848 C841 1.424 . S
C848 C847 1.413 . S
C848 N852 1.361 . S
C849 C847 1.427 . S
C849 C850 1.328 . S
C849 H864 0.929 . S
C850 C844 1.448 . S
C850 C849 1.328 . S
C850 H865 0.930 . S
Tb851 N842 2.617 . S
Tb851 N852 2.572 . S
Tb851 O886 2.349 . S
Tb851 O889 2.393 . S
Tb851 O890 2.465 . S
Tb851 O891 2.387 . S
Tb851 O893 2.428 . S
Tb851 O894 2.308 . S
Tb851 C915 2.802 . S
N852 C848 1.361 . S
N852 Tb851 2.572 . S
N852 C854 1.340 . S
C853 C847 1.416 . S
C853 C855 1.332 . S
C853 H861 0.931 . S
C854 N852 1.340 . S
C854 C855 1.407 . S
C854 H860 0.930 . S
C855 C853 1.332 . S
C855 C854 1.407 . S
C855 H857 0.929 . S
H856 C845 0.930 . S
H857 C855 0.929 . S
H858 C873 0.930 . S
H859 C880 0.929 . S
H860 C854 0.930 . S
H861 C853 0.931 . S
H862 C876 0.930 . S
H863 C843 0.930 . S
H864 C849 0.929 . S
H865 C850 0.930 . S
H866 C871 0.930 . S
H867 C846 0.930 . S
H868 C879 0.931 . S
N869 Tb840 2.617 . S
N869 C870 1.379 . S
N869 C873 1.334 . S
C870 N869 1.379 . S
C870 C872 1.416 . S
C870 C878 1.424 . S
C871 H866 0.930 . S
C871 C873 1.390 . S
C871 C874 1.339 . S
C872 C870 1.416 . S
C872 C874 1.416 . S
C872 C905 1.448 . S
C873 H858 0.930 . S
C873 N869 1.334 . S
C873 C871 1.390 . S
C874 C871 1.339 . S
C874 C872 1.416 . S
C874 H881 0.930 . S
N875 Tb840 2.572 . S
N875 C876 1.340 . S
N875 C878 1.361 . S
C876 H862 0.930 . S
C876 N875 1.340 . S
C876 C880 1.407 . S
C877 C878 1.413 . S
C877 C879 1.416 . S
C877 C906 1.427 . S
C878 C870 1.424 . S
C878 N875 1.361 . S
C878 C877 1.413 . S
C879 H868 0.931 . S
C879 C877 1.416 . S
C879 C880 1.332 . S
C880 H859 0.929 . S
C880 C876 1.407 . S
C880 C879 1.332 . S
H881 C874 0.930 . S
H882 C905 0.930 . S
H883 C906 0.929 . S
O884 Tb840 2.465 . S
O884 C904 1.264 . S
O885 Tb840 2.387 . S
O885 C896 1.264 . S
O886 Tb851 2.349 . S
O886 C896 1.243 . S
O887 Tb840 2.428 . S
O887 C904 1.256 . S
O888 Tb840 2.308 . S
O888 C903 1.266 . S
O889 Tb851 2.393 . S
O889 C903 1.248 . S
O890 Tb851 2.465 . S
O890 C915 1.264 . S
O891 Tb851 2.387 . S
O891 C907 1.264 . S
O892 Tb840 2.349 . S
O892 C907 1.243 . S
O893 Tb851 2.428 . S
O893 C915 1.256 . S
O894 Tb851 2.308 . S
O894 C914 1.266 . S
O895 Tb840 2.393 . S
O895 C914 1.248 . S
C896 O885 1.264 . S
C896 O886 1.243 . S
C897 C900 1.399 . S
C897 C902 1.383 . S
C897 C904 1.496 . S
C898 C899 1.398 . S
C898 C902 1.391 1_556 S
C899 C898 1.398 . S
C899 C901 1.380 1_556 S
C899 H916 0.929 . S
C900 C897 1.399 . S
C900 C901 1.392 . S
C900 H917 0.929 . S
C901 C899 1.380 1_554 S
C901 C900 1.392 . S
C901 H918 0.929 1_554 S
C902 C897 1.383 . S
C902 C898 1.391 1_554 S
C902 H919 0.931 . S
C903 O888 1.266 . S
C903 O889 1.248 . S
C904 Tb840 2.802 . S
C904 O884 1.264 . S
C904 O887 1.256 . S
C904 C897 1.496 . S
C905 C872 1.448 . S
C905 H882 0.930 . S
C905 C906 1.328 . S
C906 C877 1.427 . S
C906 H883 0.929 . S
C906 C905 1.328 . S
C907 O891 1.264 . S
C907 O892 1.243 . S
C908 C911 1.399 . S
C908 C912 1.383 . S
C908 C915 1.496 . S
C909 C910 1.399 . S
C909 C912 1.389 . S
C910 C909 1.399 . S
C910 C913 1.380 . S
C910 H920 0.929 . S
C911 C908 1.399 . S
C911 C913 1.392 . S
C911 H921 0.929 . S
C912 C908 1.383 . S
C912 C909 1.389 . S
C912 H922 0.931 . S
C913 C910 1.380 . S
C913 C911 1.392 . S
C913 H923 0.929 . S
C914 O894 1.266 . S
C914 O895 1.248 . S
C915 Tb851 2.802 . S
C915 O890 1.264 . S
C915 O893 1.256 . S
C915 C908 1.496 . S
H916 C899 0.929 . S
H917 C900 0.929 . S
H918 C901 0.929 1_556 S
H919 C902 0.931 . S
H920 C910 0.929 . S
H921 C911 0.929 . S
H922 C912 0.931 . S
H923 C913 0.929 . S
Tb924 N953 2.617 . S
Tb924 N959 2.572 . S
Tb924 O968 2.465 . S
Tb924 O969 2.387 . S
Tb924 O971 2.428 . S
Tb924 O972 2.308 . S
Tb924 O976 2.349 . S
Tb924 O979 2.393 . S
Tb924 C988 2.802 . S
C925 N926 1.379 1_556 S
C925 C928 1.416 . S
C925 C932 1.424 . S
N926 C925 1.379 1_554 S
N926 C929 1.334 . S
N926 Tb935 2.617 . S
C927 C929 1.390 . S
C927 C930 1.339 . S
C927 H947 0.930 . S
C928 C925 1.416 . S
C928 C930 1.416 1_556 S
C928 C934 1.448 . S
C929 N926 1.334 . S
C929 C927 1.390 . S
C929 H940 0.930 . S
C930 C927 1.339 . S
C930 C928 1.416 1_554 S
C930 H951 0.930 . S
C931 C932 1.413 . S
C931 C933 1.427 . S
C931 C937 1.416 . S
C932 C925 1.424 . S
C932 C931 1.413 . S
C932 N936 1.361 . S
C933 C931 1.427 . S
C933 C934 1.328 . S
C933 H948 0.929 . S
C934 C928 1.448 . S
C934 C933 1.328 . S
C934 H949 0.930 . S
Tb935 N926 2.617 . S
Tb935 N936 2.572 1_554 S
Tb935 O970 2.349 . S
Tb935 O973 2.393 . S
Tb935 O974 2.465 1_554 S
Tb935 O975 2.387 . S
Tb935 O977 2.428 1_554 S
Tb935 O978 2.308 . S
Tb935 C999 2.802 1_554 S
N936 C932 1.361 . S
N936 Tb935 2.572 1_556 S
N936 C938 1.340 . S
C937 C931 1.416 . S
C937 C939 1.332 . S
C937 H945 0.931 . S
C938 N936 1.340 . S
C938 C939 1.407 . S
C938 H944 0.930 . S
C939 C937 1.332 . S
C939 C938 1.407 . S
C939 H941 0.929 . S
H940 C929 0.930 . S
H941 C939 0.929 . S
H942 C957 0.930 . S
H943 C964 0.929 . S
H944 C938 0.930 . S
H945 C937 0.931 . S
H946 C960 0.930 . S
H947 C927 0.930 . S
H948 C933 0.929 . S
H949 C934 0.930 . S
H950 C955 0.930 1_655 S
H951 C930 0.930 . S
H952 C963 0.931 . S
N953 Tb924 2.617 . S
N953 C954 1.379 . S
N953 C957 1.334 . S
C954 N953 1.379 . S
C954 C956 1.416 . S
C954 C962 1.424 . S
C955 H950 0.930 1_455 S
C955 C957 1.390 . S
C955 C958 1.339 . S
C956 C954 1.416 . S
C956 C958 1.416 . S
C956 C989 1.448 1_565 S
C957 H942 0.930 . S
C957 N953 1.334 . S
C957 C955 1.390 . S
C958 C955 1.339 . S
C958 C956 1.416 . S
C958 H965 0.930 1_565 S
N959 Tb924 2.572 . S
N959 C960 1.340 . S
N959 C962 1.361 . S
C960 H946 0.930 . S
C960 N959 1.340 . S
C960 C964 1.407 . S
C961 C962 1.413 1_545 S
C961 C963 1.416 . S
C961 C990 1.427 . S
C962 C954 1.424 . S
C962 N959 1.361 . S
C962 C961 1.413 1_565 S
C963 H952 0.931 . S
C963 C961 1.416 . S
C963 C964 1.332 1_545 S
C964 H943 0.929 . S
C964 C960 1.407 . S
C964 C963 1.332 1_565 S
H965 C958 0.930 1_545 S
H966 C989 0.930 . S
H967 C990 0.929 . S
O968 Tb924 2.465 . S
O968 C988 1.264 . S
O969 Tb924 2.387 . S
O969 C980 1.264 . S
O970 Tb935 2.349 . S
O970 C980 1.243 . S
O971 Tb924 2.428 . S
O971 C988 1.256 . S
O972 Tb924 2.308 . S
O972 C987 1.266 . S
O973 Tb935 2.393 . S
O973 C987 1.248 . S
O974 Tb935 2.465 1_556 S
O974 C999 1.264 . S
O975 Tb935 2.387 . S
O975 C991 1.264 . S
O976 Tb924 2.349 . S
O976 C991 1.243 . S
O977 Tb935 2.428 1_556 S
O977 C999 1.256 . S
O978 Tb935 2.308 . S
O978 C998 1.266 . S
O979 Tb924 2.393 . S
O979 C998 1.248 . S
C980 O969 1.264 . S
C980 O970 1.243 . S
C981 C984 1.399 . S
C981 C986 1.383 . S
C981 C988 1.496 . S
C982 C983 1.399 . S
C982 C986 1.389 . S
C983 C982 1.399 . S
C983 C985 1.380 . S
C983 H1000 0.929 . S
C984 C981 1.399 . S
C984 C985 1.392 . S
C984 H1001 0.929 . S
C985 C983 1.380 . S
C985 C984 1.392 . S
C985 H1002 0.929 . S
C986 C981 1.383 . S
C986 C982 1.389 . S
C986 H1003 0.931 . S
C987 O972 1.266 . S
C987 O973 1.248 . S
C988 Tb924 2.802 . S
C988 O968 1.264 . S
C988 O971 1.256 . S
C988 C981 1.496 . S
C989 C956 1.448 1_545 S
C989 H966 0.930 . S
C989 C990 1.328 . S
C990 C961 1.427 . S
C990 H967 0.929 . S
C990 C989 1.328 . S
C991 O975 1.264 . S
C991 O976 1.243 . S
C992 C995 1.399 . S
C992 C996 1.383 . S
C992 C999 1.496 . S
C993 C994 1.399 . S
C993 C996 1.389 . S
C994 C993 1.399 . S
C994 C997 1.380 . S
C994 H1004 0.929 . S
C995 C992 1.399 . S
C995 C997 1.392 . S
C995 H1005 0.929 . S
C996 C992 1.383 . S
C996 C993 1.389 . S
C996 H1006 0.931 . S
C997 C994 1.380 . S
C997 C995 1.392 . S
C997 H1007 0.929 . S
C998 O978 1.266 . S
C998 O979 1.248 . S
C999 Tb935 2.802 1_556 S
C999 O974 1.264 . S
C999 O977 1.256 . S
C999 C992 1.496 . S
H1000 C983 0.929 . S
H1001 C984 0.929 . S
H1002 C985 0.929 . S
H1003 C986 0.931 . S
H1004 C994 0.929 . S
H1005 C995 0.929 . S
H1006 C996 0.931 . S
H1007 C997 0.929 . S
Tb1008 N1037 2.617 . S
Tb1008 N1043 2.572 1_554 S
Tb1008 O1052 2.465 1_554 S
Tb1008 O1053 2.387 . S
Tb1008 O1055 2.428 1_554 S
Tb1008 O1056 2.308 . S
Tb1008 O1060 2.349 . S
Tb1008 O1063 2.393 . S
Tb1008 C1072 2.802 1_554 S
C1009 N1010 1.379 . S
C1009 C1012 1.416 . S
C1009 C1016 1.424 . S
N1010 C1009 1.379 . S
N1010 C1013 1.334 . S
N1010 Tb1019 2.617 . S
C1011 C1013 1.390 . S
C1011 C1014 1.339 . S
C1011 H1031 0.930 . S
C1012 C1009 1.416 . S
C1012 C1014 1.416 . S
C1012 C1018 1.448 1_655 S
C1013 N1010 1.334 . S
C1013 C1011 1.390 . S
C1013 H1024 0.930 . S
C1014 C1011 1.339 . S
C1014 C1012 1.416 . S
C1014 H1035 0.930 . S
C1015 C1016 1.413 . S
C1015 C1017 1.427 1_655 S
C1015 C1021 1.416 . S
C1016 C1009 1.424 . S
C1016 C1015 1.413 . S
C1016 N1020 1.361 . S
C1017 C1015 1.427 1_455 S
C1017 C1018 1.328 . S
C1017 H1032 0.929 . S
C1018 C1012 1.448 1_455 S
C1018 C1017 1.328 . S
C1018 H1033 0.930 . S
Tb1019 N1010 2.617 . S
Tb1019 N1020 2.572 . S
Tb1019 O1054 2.349 . S
Tb1019 O1057 2.393 . S
Tb1019 O1058 2.465 . S
Tb1019 O1059 2.387 . S
Tb1019 O1061 2.428 . S
Tb1019 O1062 2.308 . S
Tb1019 C1083 2.802 . S
N1020 C1016 1.361 . S
N1020 Tb1019 2.572 . S
N1020 C1022 1.340 . S
C1021 C1015 1.416 . S
C1021 C1023 1.332 . S
C1021 H1029 0.931 1_655 S
C1022 N1020 1.340 . S
C1022 C1023 1.407 . S
C1022 H1028 0.930 . S
C1023 C1021 1.332 . S
C1023 C1022 1.407 . S
C1023 H1025 0.929 . S
H1024 C1013 0.930 . S
H1025 C1023 0.929 . S
H1026 C1041 0.930 . S
H1027 C1048 0.929 . S
H1028 C1022 0.930 . S
H1029 C1021 0.931 1_455 S
H1030 C1044 0.930 . S
H1031 C1011 0.930 . S
H1032 C1017 0.929 . S
H1033 C1018 0.930 . S
H1034 C1039 0.930 . S
H1035 C1014 0.930 . S
H1036 C1047 0.931 . S
N1037 Tb1008 2.617 . S
N1037 C1038 1.379 1_554 S
N1037 C1041 1.334 . S
C1038 N1037 1.379 1_556 S
C1038 C1040 1.416 . S
C1038 C1046 1.424 . S
C1039 H1034 0.930 . S
C1039 C1041 1.390 . S
C1039 C1042 1.339 . S
C1040 C1038 1.416 . S
C1040 C1042 1.416 1_556 S
C1040 C1073 1.448 . S
C1041 H1026 0.930 . S
C1041 N1037 1.334 . S
C1041 C1039 1.390 . S
C1042 C1039 1.339 . S
C1042 C1040 1.416 1_554 S
C1042 H1049 0.930 . S
N1043 Tb1008 2.572 1_556 S
N1043 C1044 1.340 . S
N1043 C1046 1.361 . S
C1044 H1030 0.930 . S
C1044 N1043 1.340 . S
C1044 C1048 1.407 . S
C1045 C1046 1.413 . S
C1045 C1047 1.416 . S
C1045 C1074 1.427 . S
C1046 C1038 1.424 . S
C1046 N1043 1.361 . S
C1046 C1045 1.413 . S
C1047 H1036 0.931 . S
C1047 C1045 1.416 . S
C1047 C1048 1.332 . S
C1048 H1027 0.929 . S
C1048 C1044 1.407 . S
C1048 C1047 1.332 . S
H1049 C1042 0.930 . S
H1050 C1073 0.930 . S
H1051 C1074 0.929 . S
O1052 Tb1008 2.465 1_556 S
O1052 C1072 1.264 . S
O1053 Tb1008 2.387 . S
O1053 C1064 1.264 . S
O1054 Tb1019 2.349 . S
O1054 C1064 1.243 . S
O1055 Tb1008 2.428 1_556 S
O1055 C1072 1.256 . S
O1056 Tb1008 2.308 . S
O1056 C1071 1.266 . S
O1057 Tb1019 2.393 . S
O1057 C1071 1.248 . S
O1058 Tb1019 2.465 . S
O1058 C1083 1.264 . S
O1059 Tb1019 2.387 . S
O1059 C1075 1.264 . S
O1060 Tb1008 2.349 . S
O1060 C1075 1.243 . S
O1061 Tb1019 2.428 . S
O1061 C1083 1.256 . S
O1062 Tb1019 2.308 . S
O1062 C1082 1.266 . S
O1063 Tb1008 2.393 . S
O1063 C1082 1.248 . S
C1064 O1053 1.264 . S
C1064 O1054 1.243 . S
C1065 C1068 1.399 . S
C1065 C1070 1.383 . S
C1065 C1072 1.496 . S
C1066 C1067 1.399 . S
C1066 C1070 1.389 . S
C1067 C1066 1.399 . S
C1067 C1069 1.380 . S
C1067 H1084 0.929 . S
C1068 C1065 1.399 . S
C1068 C1069 1.392 . S
C1068 H1085 0.929 . S
C1069 C1067 1.380 . S
C1069 C1068 1.392 . S
C1069 H1086 0.929 . S
C1070 C1065 1.383 . S
C1070 C1066 1.389 . S
C1070 H1087 0.931 . S
C1071 O1056 1.266 . S
C1071 O1057 1.248 . S
C1072 Tb1008 2.802 1_556 S
C1072 O1052 1.264 . S
C1072 O1055 1.256 . S
C1072 C1065 1.496 . S
C1073 C1040 1.448 . S
C1073 H1050 0.930 . S
C1073 C1074 1.328 . S
C1074 C1045 1.427 . S
C1074 H1051 0.929 . S
C1074 C1073 1.328 . S
C1075 O1059 1.264 . S
C1075 O1060 1.243 . S
C1076 C1079 1.399 . S
C1076 C1080 1.383 . S
C1076 C1083 1.496 . S
C1077 C1078 1.399 . S
C1077 C1080 1.389 . S
C1078 C1077 1.399 . S
C1078 C1081 1.380 . S
C1078 H1088 0.929 . S
C1079 C1076 1.399 . S
C1079 C1081 1.392 . S
C1079 H1089 0.929 . S
C1080 C1076 1.383 . S
C1080 C1077 1.389 . S
C1080 H1090 0.931 . S
C1081 C1078 1.380 . S
C1081 C1079 1.392 . S
C1081 H1091 0.929 . S
C1082 O1062 1.266 . S
C1082 O1063 1.248 . S
C1083 Tb1019 2.802 . S
C1083 O1058 1.264 . S
C1083 O1061 1.256 . S
C1083 C1076 1.496 . S
H1084 C1067 0.929 . S
H1085 C1068 0.929 . S
H1086 C1069 0.929 . S
H1087 C1070 0.931 . S
H1088 C1078 0.929 . S
H1089 C1079 0.929 . S
H1090 C1080 0.931 . S
H1091 C1081 0.929 . S
Tb1092 N1121 2.617 . S
Tb1092 N1127 2.572 1_556 S
Tb1092 O1136 2.465 1_556 S
Tb1092 O1137 2.387 . S
Tb1092 O1139 2.428 1_556 S
Tb1092 O1140 2.308 . S
Tb1092 O1144 2.349 . S
Tb1092 O1147 2.393 . S
Tb1092 C1156 2.802 1_556 S
C1093 N1094 1.379 . S
C1093 C1096 1.416 . S
C1093 C1100 1.424 . S
N1094 C1093 1.379 . S
N1094 C1097 1.334 . S
N1094 Tb1103 2.617 . S
C1095 C1097 1.390 . S
C1095 C1098 1.339 . S
C1095 H1115 0.930 1_545 S
C1096 C1093 1.416 . S
C1096 C1098 1.416 . S
C1096 C1102 1.448 1_455 S
C1097 N1094 1.334 . S
C1097 C1095 1.390 . S
C1097 H1108 0.930 . S
C1098 C1095 1.339 . S
C1098 C1096 1.416 . S
C1098 H1119 0.930 1_545 S
C1099 C1100 1.413 . S
C1099 C1101 1.427 1_455 S
C1099 C1105 1.416 . S
C1100 C1093 1.424 . S
C1100 C1099 1.413 . S
C1100 N1104 1.361 . S
C1101 C1099 1.427 1_655 S
C1101 C1102 1.328 . S
C1101 H1116 0.929 . S
C1102 C1096 1.448 1_655 S
C1102 C1101 1.328 . S
C1102 H1117 0.930 . S
Tb1103 N1094 2.617 . S
Tb1103 N1104 2.572 . S
Tb1103 O1138 2.349 . S
Tb1103 O1141 2.393 . S
Tb1103 O1142 2.465 . S
Tb1103 O1143 2.387 . S
Tb1103 O1145 2.428 . S
Tb1103 O1146 2.308 . S
Tb1103 C1167 2.802 . S
N1104 C1100 1.361 . S
N1104 Tb1103 2.572 . S
N1104 C1106 1.340 . S
C1105 C1099 1.416 . S
C1105 C1107 1.332 . S
C1105 H1113 0.931 1_455 S
C1106 N1104 1.340 . S
C1106 C1107 1.407 . S
C1106 H1112 0.930 . S
C1107 C1105 1.332 . S
C1107 C1106 1.407 . S
C1107 H1109 0.929 . S
H1108 C1097 0.930 . S
H1109 C1107 0.929 . S
H1110 C1125 0.930 . S
H1111 C1132 0.929 . S
H1112 C1106 0.930 . S
H1113 C1105 0.931 1_655 S
H1114 C1128 0.930 . S
H1115 C1095 0.930 1_565 S
H1116 C1101 0.929 . S
H1117 C1102 0.930 . S
H1118 C1123 0.930 . S
H1119 C1098 0.930 1_565 S
H1120 C1131 0.931 . S
N1121 Tb1092 2.617 . S
N1121 C1122 1.379 1_556 S
N1121 C1125 1.334 . S
C1122 N1121 1.379 1_554 S
C1122 C1124 1.416 . S
C1122 C1130 1.424 . S
C1123 H1118 0.930 . S
C1123 C1125 1.390 . S
C1123 C1126 1.339 . S
C1124 C1122 1.416 . S
C1124 C1126 1.416 1_554 S
C1124 C1157 1.448 . S
C1125 H1110 0.930 . S
C1125 N1121 1.334 . S
C1125 C1123 1.390 . S
C1126 C1123 1.339 . S
C1126 C1124 1.416 1_556 S
C1126 H1133 0.930 . S
N1127 Tb1092 2.572 1_554 S
N1127 C1128 1.340 . S
N1127 C1130 1.361 . S
C1128 H1114 0.930 . S
C1128 N1127 1.340 . S
C1128 C1132 1.407 . S
C1129 C1130 1.413 . S
C1129 C1131 1.416 . S
C1129 C1158 1.427 . S
C1130 C1122 1.424 . S
C1130 N1127 1.361 . S
C1130 C1129 1.413 . S
C1131 H1120 0.931 . S
C1131 C1129 1.416 . S
C1131 C1132 1.332 . S
C1132 H1111 0.929 . S
C1132 C1128 1.407 . S
C1132 C1131 1.332 . S
H1133 C1126 0.930 . S
H1134 C1157 0.930 . S
H1135 C1158 0.929 . S
O1136 Tb1092 2.465 1_554 S
O1136 C1156 1.264 . S
O1137 Tb1092 2.387 . S
O1137 C1148 1.264 . S
O1138 Tb1103 2.349 . S
O1138 C1148 1.243 . S
O1139 Tb1092 2.428 1_554 S
O1139 C1156 1.256 . S
O1140 Tb1092 2.308 . S
O1140 C1155 1.266 . S
O1141 Tb1103 2.393 . S
O1141 C1155 1.248 . S
O1142 Tb1103 2.465 . S
O1142 C1167 1.264 . S
O1143 Tb1103 2.387 . S
O1143 C1159 1.264 . S
O1144 Tb1092 2.349 . S
O1144 C1159 1.243 . S
O1145 Tb1103 2.428 . S
O1145 C1167 1.256 . S
O1146 Tb1103 2.308 . S
O1146 C1166 1.266 . S
O1147 Tb1092 2.393 . S
O1147 C1166 1.248 . S
C1148 O1137 1.264 . S
C1148 O1138 1.243 . S
C1149 C1152 1.399 . S
C1149 C1154 1.383 . S
C1149 C1156 1.496 . S
C1150 C1151 1.399 . S
C1150 C1154 1.389 . S
C1151 C1150 1.399 . S
C1151 C1153 1.380 . S
C1151 H1168 0.929 . S
C1152 C1149 1.399 . S
C1152 C1153 1.392 . S
C1152 H1169 0.929 . S
C1153 C1151 1.380 . S
C1153 C1152 1.392 . S
C1153 H1170 0.929 . S
C1154 C1149 1.383 . S
C1154 C1150 1.389 . S
C1154 H1171 0.931 . S
C1155 O1140 1.266 . S
C1155 O1141 1.248 . S
C1156 Tb1092 2.802 1_554 S
C1156 O1136 1.264 . S
C1156 O1139 1.256 . S
C1156 C1149 1.496 . S
C1157 C1124 1.448 . S
C1157 H1134 0.930 . S
C1157 C1158 1.328 . S
C1158 C1129 1.427 . S
C1158 H1135 0.929 . S
C1158 C1157 1.328 . S
C1159 O1143 1.264 . S
C1159 O1144 1.243 . S
C1160 C1163 1.399 . S
C1160 C1164 1.383 . S
C1160 C1167 1.496 . S
C1161 C1162 1.399 . S
C1161 C1164 1.389 . S
C1162 C1161 1.399 . S
C1162 C1165 1.380 . S
C1162 H1172 0.929 . S
C1163 C1160 1.399 . S
C1163 C1165 1.392 . S
C1163 H1173 0.929 . S
C1164 C1160 1.383 . S
C1164 C1161 1.389 . S
C1164 H1174 0.931 . S
C1165 C1162 1.380 . S
C1165 C1163 1.392 . S
C1165 H1175 0.929 . S
C1166 O1146 1.266 . S
C1166 O1147 1.248 . S
C1167 Tb1103 2.802 . S
C1167 O1142 1.264 . S
C1167 O1145 1.256 . S
C1167 C1160 1.496 . S
H1168 C1151 0.929 . S
H1169 C1152 0.929 . S
H1170 C1153 0.929 . S
H1171 C1154 0.931 . S
H1172 C1162 0.929 . S
H1173 C1163 0.929 . S
H1174 C1164 0.931 . S
H1175 C1165 0.929 . S
Tb1176 N1205 2.617 . S
Tb1176 N1211 2.572 . S
Tb1176 O1220 2.465 . S
Tb1176 O1221 2.387 . S
Tb1176 O1223 2.428 . S
Tb1176 O1224 2.308 . S
Tb1176 O1228 2.349 . S
Tb1176 O1231 2.393 . S
Tb1176 C1240 2.802 . S
C1177 N1178 1.379 . S
C1177 C1180 1.416 . S
C1177 C1184 1.424 . S
N1178 C1177 1.379 . S
N1178 C1181 1.334 . S
N1178 Tb1187 2.617 . S
C1179 C1181 1.390 . S
C1179 C1182 1.339 . S
C1179 H1199 0.930 . S
C1180 C1177 1.416 . S
C1180 C1182 1.416 . S
C1180 C1186 1.448 . S
C1181 N1178 1.334 . S
C1181 C1179 1.390 . S
C1181 H1192 0.930 . S
C1182 C1179 1.339 . S
C1182 C1180 1.416 . S
C1182 H1203 0.930 . S
C1183 C1184 1.413 . S
C1183 C1185 1.427 . S
C1183 C1189 1.416 . S
C1184 C1177 1.424 . S
C1184 C1183 1.413 . S
C1184 N1188 1.361 . S
C1185 C1183 1.427 . S
C1185 C1186 1.328 . S
C1185 H1200 0.929 . S
C1186 C1180 1.448 . S
C1186 C1185 1.328 . S
C1186 H1201 0.930 . S
Tb1187 N1178 2.617 . S
Tb1187 N1188 2.572 . S
Tb1187 O1222 2.349 . S
Tb1187 O1225 2.393 . S
Tb1187 O1226 2.465 . S
Tb1187 O1227 2.387 . S
Tb1187 O1229 2.428 . S
Tb1187 O1230 2.308 . S
Tb1187 C1251 2.802 . S
N1188 C1184 1.361 . S
N1188 Tb1187 2.572 . S
N1188 C1190 1.340 . S
C1189 C1183 1.416 . S
C1189 C1191 1.332 . S
C1189 H1197 0.931 . S
C1190 N1188 1.340 . S
C1190 C1191 1.407 . S
C1190 H1196 0.930 . S
C1191 C1189 1.332 . S
C1191 C1190 1.407 . S
C1191 H1193 0.929 . S
H1192 C1181 0.930 . S
H1193 C1191 0.929 . S
H1194 C1209 0.930 . S
H1195 C1216 0.929 . S
H1196 C1190 0.930 . S
H1197 C1189 0.931 . S
H1198 C1212 0.930 . S
H1199 C1179 0.930 . S
H1200 C1185 0.929 . S
H1201 C1186 0.930 . S
H1202 C1207 0.930 . S
H1203 C1182 0.930 . S
H1204 C1215 0.931 . S
N1205 Tb1176 2.617 . S
N1205 C1206 1.379 . S
N1205 C1209 1.334 . S
C1206 N1205 1.379 . S
C1206 C1208 1.416 . S
C1206 C1214 1.424 . S
C1207 H1202 0.930 . S
C1207 C1209 1.390 . S
C1207 C1210 1.339 . S
C1208 C1206 1.416 . S
C1208 C1210 1.416 . S
C1208 C1241 1.448 . S
C1209 H1194 0.930 . S
C1209 N1205 1.334 . S
C1209 C1207 1.390 . S
C1210 C1207 1.339 . S
C1210 C1208 1.416 . S
C1210 H1217 0.930 . S
N1211 Tb1176 2.572 . S
N1211 C1212 1.340 . S
N1211 C1214 1.361 . S
C1212 H1198 0.930 . S
C1212 N1211 1.340 . S
C1212 C1216 1.407 . S
C1213 C1214 1.413 . S
C1213 C1215 1.416 . S
C1213 C1242 1.427 . S
C1214 C1206 1.424 . S
C1214 N1211 1.361 . S
C1214 C1213 1.413 . S
C1215 H1204 0.931 . S
C1215 C1213 1.416 . S
C1215 C1216 1.332 . S
C1216 H1195 0.929 . S
C1216 C1212 1.407 . S
C1216 C1215 1.332 . S
H1217 C1210 0.930 . S
H1218 C1241 0.930 . S
H1219 C1242 0.929 . S
O1220 Tb1176 2.465 . S
O1220 C1240 1.264 . S
O1221 Tb1176 2.387 . S
O1221 C1232 1.264 . S
O1222 Tb1187 2.349 . S
O1222 C1232 1.243 . S
O1223 Tb1176 2.428 . S
O1223 C1240 1.256 . S
O1224 Tb1176 2.308 . S
O1224 C1239 1.266 . S
O1225 Tb1187 2.393 . S
O1225 C1239 1.248 . S
O1226 Tb1187 2.465 . S
O1226 C1251 1.264 . S
O1227 Tb1187 2.387 . S
O1227 C1243 1.264 . S
O1228 Tb1176 2.349 . S
O1228 C1243 1.243 . S
O1229 Tb1187 2.428 . S
O1229 C1251 1.256 . S
O1230 Tb1187 2.308 . S
O1230 C1250 1.266 . S
O1231 Tb1176 2.393 . S
O1231 C1250 1.248 . S
C1232 O1221 1.264 . S
C1232 O1222 1.243 . S
C1233 C1236 1.399 . S
C1233 C1238 1.383 . S
C1233 C1240 1.496 . S
C1234 C1235 1.399 . S
C1234 C1238 1.389 1_554 S
C1235 C1234 1.399 . S
C1235 C1237 1.380 . S
C1235 H1252 0.929 . S
C1236 C1233 1.399 . S
C1236 C1237 1.392 1_556 S
C1236 H1253 0.929 . S
C1237 C1235 1.380 . S
C1237 C1236 1.392 1_554 S
C1237 H1254 0.929 . S
C1238 C1233 1.383 . S
C1238 C1234 1.389 1_556 S
C1238 H1255 0.931 . S
C1239 O1224 1.266 . S
C1239 O1225 1.248 . S
C1240 Tb1176 2.802 . S
C1240 O1220 1.264 . S
C1240 O1223 1.256 . S
C1240 C1233 1.496 . S
C1241 C1208 1.448 . S
C1241 H1218 0.930 . S
C1241 C1242 1.328 . S
C1242 C1213 1.427 . S
C1242 H1219 0.929 . S
C1242 C1241 1.328 . S
C1243 O1227 1.264 . S
C1243 O1228 1.243 . S
C1244 C1247 1.399 . S
C1244 C1248 1.383 . S
C1244 C1251 1.496 . S
C1245 C1246 1.399 . S
C1245 C1248 1.389 . S
C1246 C1245 1.399 . S
C1246 C1249 1.380 . S
C1246 H1256 0.929 . S
C1247 C1244 1.399 . S
C1247 C1249 1.392 . S
C1247 H1257 0.929 . S
C1248 C1244 1.383 . S
C1248 C1245 1.389 . S
C1248 H1258 0.931 . S
C1249 C1246 1.380 . S
C1249 C1247 1.392 . S
C1249 H1259 0.929 . S
C1250 O1230 1.266 . S
C1250 O1231 1.248 . S
C1251 Tb1187 2.802 . S
C1251 O1226 1.264 . S
C1251 O1229 1.256 . S
C1251 C1244 1.496 . S
H1252 C1235 0.929 . S
H1253 C1236 0.929 . S
H1254 C1237 0.929 . S
H1255 C1238 0.931 . S
H1256 C1246 0.929 . S
H1257 C1247 0.929 . S
H1258 C1248 0.931 . S
H1259 C1249 0.929 . S
Tb1260 N1289 2.617 . S
Tb1260 N1295 2.572 . S
Tb1260 O1304 2.465 . S
Tb1260 O1305 2.387 . S
Tb1260 O1307 2.428 . S
Tb1260 O1308 2.308 . S
Tb1260 O1312 2.349 . S
Tb1260 O1315 2.393 . S
Tb1260 C1324 2.802 . S
C1261 N1262 1.379 . S
C1261 C1264 1.416 . S
C1261 C1268 1.424 . S
N1262 C1261 1.379 . S
N1262 C1265 1.334 . S
N1262 Tb1271 2.617 . S
C1263 C1265 1.390 . S
C1263 C1266 1.339 . S
C1263 H1283 0.930 1_565 S
C1264 C1261 1.416 . S
C1264 C1266 1.416 . S
C1264 C1270 1.448 . S
C1265 N1262 1.334 . S
C1265 C1263 1.390 . S
C1265 H1276 0.930 . S
C1266 C1263 1.339 . S
C1266 C1264 1.416 . S
C1266 H1287 0.930 1_565 S
C1267 C1268 1.413 . S
C1267 C1269 1.427 . S
C1267 C1273 1.416 . S
C1268 C1261 1.424 . S
C1268 C1267 1.413 . S
C1268 N1272 1.361 . S
C1269 C1267 1.427 . S
C1269 C1270 1.328 . S
C1269 H1284 0.929 . S
C1270 C1264 1.448 . S
C1270 C1269 1.328 . S
C1270 H1285 0.930 . S
Tb1271 N1262 2.617 . S
Tb1271 N1272 2.572 . S
Tb1271 O1306 2.349 . S
Tb1271 O1309 2.393 . S
Tb1271 O1310 2.465 . S
Tb1271 O1311 2.387 . S
Tb1271 O1313 2.428 . S
Tb1271 O1314 2.308 . S
Tb1271 C1335 2.802 . S
N1272 C1268 1.361 . S
N1272 Tb1271 2.572 . S
N1272 C1274 1.340 . S
C1273 C1267 1.416 . S
C1273 C1275 1.332 . S
C1273 H1281 0.931 . S
C1274 N1272 1.340 . S
C1274 C1275 1.407 . S
C1274 H1280 0.930 . S
C1275 C1273 1.332 . S
C1275 C1274 1.407 . S
C1275 H1277 0.929 . S
H1276 C1265 0.930 . S
H1277 C1275 0.929 . S
H1278 C1293 0.930 . S
H1279 C1300 0.929 . S
H1280 C1274 0.930 . S
H1281 C1273 0.931 . S
H1282 C1296 0.930 . S
H1283 C1263 0.930 1_545 S
H1284 C1269 0.929 . S
H1285 C1270 0.930 . S
H1286 C1291 0.930 . S
H1287 C1266 0.930 1_545 S
H1288 C1299 0.931 . S
N1289 Tb1260 2.617 . S
N1289 C1290 1.379 . S
N1289 C1293 1.334 . S
C1290 N1289 1.379 . S
C1290 C1292 1.416 . S
C1290 C1298 1.424 . S
C1291 H1286 0.930 . S
C1291 C1293 1.390 . S
C1291 C1294 1.339 . S
C1292 C1290 1.416 . S
C1292 C1294 1.416 . S
C1292 C1325 1.448 . S
C1293 H1278 0.930 . S
C1293 N1289 1.334 . S
C1293 C1291 1.390 . S
C1294 C1291 1.339 . S
C1294 C1292 1.416 . S
C1294 H1301 0.930 . S
N1295 Tb1260 2.572 . S
N1295 C1296 1.340 . S
N1295 C1298 1.361 . S
C1296 H1282 0.930 . S
C1296 N1295 1.340 . S
C1296 C1300 1.407 . S
C1297 C1298 1.413 . S
C1297 C1299 1.416 . S
C1297 C1326 1.427 . S
C1298 C1290 1.424 . S
C1298 N1295 1.361 . S
C1298 C1297 1.413 . S
C1299 H1288 0.931 . S
C1299 C1297 1.416 . S
C1299 C1300 1.332 . S
C1300 H1279 0.929 . S
C1300 C1296 1.407 . S
C1300 C1299 1.332 . S
H1301 C1294 0.930 . S
H1302 C1325 0.930 . S
H1303 C1326 0.929 . S
O1304 Tb1260 2.465 . S
O1304 C1324 1.264 . S
O1305 Tb1260 2.387 . S
O1305 C1316 1.264 . S
O1306 Tb1271 2.349 . S
O1306 C1316 1.243 . S
O1307 Tb1260 2.428 . S
O1307 C1324 1.256 . S
O1308 Tb1260 2.308 . S
O1308 C1323 1.266 . S
O1309 Tb1271 2.393 . S
O1309 C1323 1.248 . S
O1310 Tb1271 2.465 . S
O1310 C1335 1.264 . S
O1311 Tb1271 2.387 . S
O1311 C1327 1.264 . S
O1312 Tb1260 2.349 . S
O1312 C1327 1.243 . S
O1313 Tb1271 2.428 . S
O1313 C1335 1.256 . S
O1314 Tb1271 2.308 . S
O1314 C1334 1.266 . S
O1315 Tb1260 2.393 . S
O1315 C1334 1.248 . S
C1316 O1305 1.264 . S
C1316 O1306 1.243 . S
C1317 C1320 1.399 . S
C1317 C1322 1.383 . S
C1317 C1324 1.496 . S
C1318 C1319 1.399 . S
C1318 C1322 1.389 . S
C1319 C1318 1.399 . S
C1319 C1321 1.380 . S
C1319 H1336 0.929 . S
C1320 C1317 1.399 . S
C1320 C1321 1.392 . S
C1320 H1337 0.929 . S
C1321 C1319 1.380 . S
C1321 C1320 1.392 . S
C1321 H1338 0.929 . S
C1322 C1317 1.383 . S
C1322 C1318 1.389 . S
C1322 H1339 0.931 . S
C1323 O1308 1.266 . S
C1323 O1309 1.248 . S
C1324 Tb1260 2.802 . S
C1324 O1304 1.264 . S
C1324 O1307 1.256 . S
C1324 C1317 1.496 . S
C1325 C1292 1.448 . S
C1325 H1302 0.930 . S
C1325 C1326 1.328 . S
C1326 C1297 1.427 . S
C1326 H1303 0.929 . S
C1326 C1325 1.328 . S
C1327 O1311 1.264 . S
C1327 O1312 1.243 . S
C1328 C1331 1.399 . S
C1328 C1332 1.383 . S
C1328 C1335 1.496 . S
C1329 C1330 1.399 . S
C1329 C1332 1.389 1_556 S
C1330 C1329 1.399 . S
C1330 C1333 1.380 1_556 S
C1330 H1340 0.929 . S
C1331 C1328 1.399 . S
C1331 C1333 1.392 . S
C1331 H1341 0.929 . S
C1332 C1328 1.383 . S
C1332 C1329 1.389 1_554 S
C1332 H1342 0.931 . S
C1333 C1330 1.380 1_554 S
C1333 C1331 1.392 . S
C1333 H1343 0.929 1_554 S
C1334 O1314 1.266 . S
C1334 O1315 1.248 . S
C1335 Tb1271 2.802 . S
C1335 O1310 1.264 . S
C1335 O1313 1.256 . S
C1335 C1328 1.496 . S
H1336 C1319 0.929 . S
H1337 C1320 0.929 . S
H1338 C1321 0.929 . S
H1339 C1322 0.931 . S
H1340 C1330 0.929 . S
H1341 C1331 0.929 . S
H1342 C1332 0.931 . S
H1343 C1333 0.929 1_556 S
C1344 C1345 1.369 . S
C1344 C1346 1.419 . S
C1344 H1348 0.930 . S
C1345 C1344 1.369 . S
C1345 C1354 1.429 . S
C1346 C1344 1.419 . S
C1346 C1347 1.363 . S
C1346 H1349 0.929 . S
C1347 C1346 1.363 . S
C1347 C1353 1.428 . S
H1348 C1344 0.930 . S
H1349 C1346 0.929 . S
S1350 N1351 1.613 . S
S1350 N1352 1.610 . S
N1351 S1350 1.613 . S
N1351 C1354 1.350 . S
N1352 S1350 1.610 . S
N1352 C1353 1.351 . S
C1353 C1347 1.428 . S
C1353 N1352 1.351 . S
C1353 C1354 1.434 . S
C1354 C1345 1.429 . S
C1354 N1351 1.350 . S
C1354 C1353 1.434 . S
C1355 C1356 1.369 . S
C1355 C1357 1.419 . S
C1355 H1359 0.930 . S
C1356 C1355 1.369 . S
C1356 C1365 1.429 . S
C1357 C1355 1.419 . S
C1357 C1358 1.363 . S
C1357 H1360 0.929 . S
C1358 C1357 1.363 . S
C1358 C1364 1.428 . S
H1359 C1355 0.930 . S
H1360 C1357 0.929 . S
S1361 N1362 1.613 . S
S1361 N1363 1.610 . S
N1362 S1361 1.613 . S
N1362 C1365 1.350 . S
N1363 S1361 1.610 . S
N1363 C1364 1.351 . S
C1364 C1358 1.428 . S
C1364 N1363 1.351 . S
C1364 C1365 1.434 . S
C1365 C1356 1.429 . S
C1365 N1362 1.350 . S
C1365 C1364 1.434 . S
C1366 C1367 1.369 . S
C1366 C1368 1.419 . S
C1366 H1370 0.930 . S
C1367 C1366 1.369 . S
C1367 C1376 1.429 . S
C1368 C1366 1.419 . S
C1368 C1369 1.363 . S
C1368 H1371 0.929 . S
C1369 C1368 1.363 . S
C1369 C1375 1.428 . S
H1370 C1366 0.930 . S
H1371 C1368 0.929 . S
S1372 N1373 1.613 . S
S1372 N1374 1.610 . S
N1373 S1372 1.613 . S
N1373 C1376 1.350 . S
N1374 S1372 1.610 . S
N1374 C1375 1.351 . S
C1375 C1369 1.428 . S
C1375 N1374 1.351 . S
C1375 C1376 1.434 . S
C1376 C1367 1.429 . S
C1376 N1373 1.350 . S
C1376 C1375 1.434 . S
C1377 C1378 1.369 . S
C1377 C1379 1.419 . S
C1377 H1381 0.930 . S
C1378 C1377 1.369 . S
C1378 C1387 1.429 . S
C1379 C1377 1.419 . S
C1379 C1380 1.363 . S
C1379 H1382 0.929 . S
C1380 C1379 1.363 . S
C1380 C1386 1.428 . S
H1381 C1377 0.930 . S
H1382 C1379 0.929 . S
S1383 N1384 1.613 . S
S1383 N1385 1.610 . S
N1384 S1383 1.613 . S
N1384 C1387 1.350 . S
N1385 S1383 1.610 . S
N1385 C1386 1.351 . S
C1386 C1380 1.428 . S
C1386 N1385 1.351 . S
C1386 C1387 1.434 . S
C1387 C1378 1.429 . S
C1387 N1384 1.350 . S
C1387 C1386 1.434 . S
C1388 C1389 1.369 . S
C1388 C1390 1.419 . S
C1388 H1392 0.930 . S
C1389 C1388 1.369 . S
C1389 C1398 1.429 . S
C1390 C1388 1.419 . S
C1390 C1391 1.363 . S
C1390 H1393 0.929 . S
C1391 C1390 1.363 . S
C1391 C1397 1.428 . S
H1392 C1388 0.930 . S
H1393 C1390 0.929 . S
S1394 N1395 1.613 . S
S1394 N1396 1.610 . S
N1395 S1394 1.613 . S
N1395 C1398 1.350 . S
N1396 S1394 1.610 . S
N1396 C1397 1.351 . S
C1397 C1391 1.428 . S
C1397 N1396 1.351 . S
C1397 C1398 1.434 . S
C1398 C1389 1.429 . S
C1398 N1395 1.350 . S
C1398 C1397 1.434 . S
C1399 C1400 1.369 . S
C1399 C1401 1.419 . S
C1399 H1403 0.930 . S
C1400 C1399 1.369 . S
C1400 C1409 1.429 . S
C1401 C1399 1.419 . S
C1401 C1402 1.363 . S
C1401 H1404 0.929 . S
C1402 C1401 1.363 . S
C1402 C1408 1.428 . S
H1403 C1399 0.930 . S
H1404 C1401 0.929 . S
S1405 N1406 1.613 . S
S1405 N1407 1.610 . S
N1406 S1405 1.613 . S
N1406 C1409 1.350 . S
N1407 S1405 1.610 . S
N1407 C1408 1.351 . S
C1408 C1402 1.428 . S
C1408 N1407 1.351 . S
C1408 C1409 1.434 . S
C1409 C1400 1.429 . S
C1409 N1406 1.350 . S
C1409 C1408 1.434 . S
C1410 C1411 1.369 . S
C1410 C1412 1.419 . S
C1410 H1414 0.930 . S
C1411 C1410 1.369 . S
C1411 C1420 1.429 . S
C1412 C1410 1.419 . S
C1412 C1413 1.363 . S
C1412 H1415 0.929 . S
C1413 C1412 1.363 . S
C1413 C1419 1.428 . S
H1414 C1410 0.930 . S
H1415 C1412 0.929 . S
S1416 N1417 1.613 . S
S1416 N1418 1.610 . S
N1417 S1416 1.613 . S
N1417 C1420 1.350 . S
N1418 S1416 1.610 . S
N1418 C1419 1.351 . S
C1419 C1413 1.428 . S
C1419 N1418 1.351 . S
C1419 C1420 1.434 . S
C1420 C1411 1.429 . S
C1420 N1417 1.350 . S
C1420 C1419 1.434 . S
C1421 C1422 1.369 . S
C1421 C1423 1.419 . S
C1421 H1425 0.930 . S
C1422 C1421 1.369 . S
C1422 C1431 1.429 . S
C1423 C1421 1.419 . S
C1423 C1424 1.363 . S
C1423 H1426 0.929 . S
C1424 C1423 1.363 . S
C1424 C1430 1.428 . S
H1425 C1421 0.930 . S
H1426 C1423 0.929 . S
S1427 N1428 1.613 . S
S1427 N1429 1.610 . S
N1428 S1427 1.613 . S
N1428 C1431 1.350 . S
N1429 S1427 1.610 . S
N1429 C1430 1.351 . S
C1430 C1424 1.428 . S
C1430 N1429 1.351 . S
C1430 C1431 1.434 . S
C1431 C1422 1.429 . S
C1431 N1428 1.350 . S
C1431 C1430 1.434 . S
C1432 C1433 1.369 . S
C1432 C1434 1.419 . S
C1432 H1436 0.930 . S
C1433 C1432 1.369 . S
C1433 C1442 1.429 . S
C1434 C1432 1.419 . S
C1434 C1435 1.363 . S
C1434 H1437 0.929 . S
C1435 C1434 1.363 . S
C1435 C1441 1.428 . S
H1436 C1432 0.930 . S
H1437 C1434 0.929 . S
S1438 N1439 1.613 . S
S1438 N1440 1.610 . S
N1439 S1438 1.613 . S
N1439 C1442 1.350 . S
N1440 S1438 1.610 . S
N1440 C1441 1.351 . S
C1441 C1435 1.428 . S
C1441 N1440 1.351 . S
C1441 C1442 1.434 . S
C1442 C1433 1.429 . S
C1442 N1439 1.350 . S
C1442 C1441 1.434 . S
C1443 C1444 1.369 . S
C1443 C1445 1.419 . S
C1443 H1447 0.930 . S
C1444 C1443 1.369 . S
C1444 C1453 1.429 . S
C1445 C1443 1.419 . S
C1445 C1446 1.363 . S
C1445 H1448 0.929 . S
C1446 C1445 1.363 . S
C1446 C1452 1.428 . S
H1447 C1443 0.930 . S
H1448 C1445 0.929 . S
S1449 N1450 1.613 . S
S1449 N1451 1.610 . S
N1450 S1449 1.613 . S
N1450 C1453 1.350 . S
N1451 S1449 1.610 . S
N1451 C1452 1.351 . S
C1452 C1446 1.428 . S
C1452 N1451 1.351 . S
C1452 C1453 1.434 . S
C1453 C1444 1.429 . S
C1453 N1450 1.350 . S
C1453 C1452 1.434 . S
C1454 C1455 1.369 . S
C1454 C1456 1.419 . S
C1454 H1458 0.930 . S
C1455 C1454 1.369 . S
C1455 C1464 1.429 . S
C1456 C1454 1.419 . S
C1456 C1457 1.363 . S
C1456 H1459 0.929 . S
C1457 C1456 1.363 . S
C1457 C1463 1.428 . S
H1458 C1454 0.930 . S
H1459 C1456 0.929 . S
S1460 N1461 1.613 . S
S1460 N1462 1.610 . S
N1461 S1460 1.613 . S
N1461 C1464 1.350 . S
N1462 S1460 1.610 . S
N1462 C1463 1.351 . S
C1463 C1457 1.428 . S
C1463 N1462 1.351 . S
C1463 C1464 1.434 . S
C1464 C1455 1.429 . S
C1464 N1461 1.350 . S
C1464 C1463 1.434 . S
C1465 C1466 1.369 . S
C1465 C1467 1.419 . S
C1465 H1469 0.930 . S
C1466 C1465 1.369 . S
C1466 C1475 1.429 . S
C1467 C1465 1.419 . S
C1467 C1468 1.363 . S
C1467 H1470 0.929 . S
C1468 C1467 1.363 . S
C1468 C1474 1.428 . S
H1469 C1465 0.930 . S
H1470 C1467 0.929 . S
S1471 N1472 1.613 . S
S1471 N1473 1.610 . S
N1472 S1471 1.613 . S
N1472 C1475 1.350 . S
N1473 S1471 1.610 . S
N1473 C1474 1.351 . S
C1474 C1468 1.428 . S
C1474 N1473 1.351 . S
C1474 C1475 1.434 . S
C1475 C1466 1.429 . S
C1475 N1472 1.350 . S
C1475 C1474 1.434 . S
C1476 C1477 1.369 . S
C1476 C1478 1.419 . S
C1476 H1480 0.930 . S
C1477 C1476 1.369 . S
C1477 C1486 1.429 . S
C1478 C1476 1.419 . S
C1478 C1479 1.363 . S
C1478 H1481 0.929 . S
C1479 C1478 1.363 . S
C1479 C1485 1.428 . S
H1480 C1476 0.930 . S
H1481 C1478 0.929 . S
S1482 N1483 1.613 . S
S1482 N1484 1.610 . S
N1483 S1482 1.613 . S
N1483 C1486 1.350 . S
N1484 S1482 1.610 . S
N1484 C1485 1.351 . S
C1485 C1479 1.428 . S
C1485 N1484 1.351 . S
C1485 C1486 1.434 . S
C1486 C1477 1.429 . S
C1486 N1483 1.350 . S
C1486 C1485 1.434 . S
C1487 C1488 1.369 . S
C1487 C1489 1.419 . S
C1487 H1491 0.930 . S
C1488 C1487 1.369 . S
C1488 C1497 1.429 . S
C1489 C1487 1.419 . S
C1489 C1490 1.363 . S
C1489 H1492 0.929 . S
C1490 C1489 1.363 . S
C1490 C1496 1.428 . S
H1491 C1487 0.930 . S
H1492 C1489 0.929 . S
S1493 N1494 1.613 . S
S1493 N1495 1.610 . S
N1494 S1493 1.613 . S
N1494 C1497 1.350 . S
N1495 S1493 1.610 . S
N1495 C1496 1.351 . S
C1496 C1490 1.428 . S
C1496 N1495 1.351 . S
C1496 C1497 1.434 . S
C1497 C1488 1.429 . S
C1497 N1494 1.350 . S
C1497 C1496 1.434 . S
C1498 C1499 1.369 . S
C1498 C1500 1.419 . S
C1498 H1502 0.930 . S
C1499 C1498 1.369 . S
C1499 C1508 1.429 . S
C1500 C1498 1.419 . S
C1500 C1501 1.363 . S
C1500 H1503 0.929 . S
C1501 C1500 1.363 . S
C1501 C1507 1.428 . S
H1502 C1498 0.930 . S
H1503 C1500 0.929 . S
S1504 N1505 1.613 . S
S1504 N1506 1.610 . S
N1505 S1504 1.613 . S
N1505 C1508 1.350 . S
N1506 S1504 1.610 . S
N1506 C1507 1.351 . S
C1507 C1501 1.428 . S
C1507 N1506 1.351 . S
C1507 C1508 1.434 . S
C1508 C1499 1.429 . S
C1508 N1505 1.350 . S
C1508 C1507 1.434 . S
C1509 C1510 1.369 . S
C1509 C1511 1.419 . S
C1509 H1513 0.930 . S
C1510 C1509 1.369 . S
C1510 C1519 1.429 . S
C1511 C1509 1.419 . S
C1511 C1512 1.363 . S
C1511 H1514 0.929 . S
C1512 C1511 1.363 . S
C1512 C1518 1.428 . S
H1513 C1509 0.930 . S
H1514 C1511 0.929 . S
S1515 N1516 1.613 . S
S1515 N1517 1.610 . S
N1516 S1515 1.613 . S
N1516 C1519 1.350 . S
N1517 S1515 1.610 . S
N1517 C1518 1.351 . S
C1518 C1512 1.428 . S
C1518 N1517 1.351 . S
C1518 C1519 1.434 . S
C1519 C1510 1.429 . S
C1519 N1516 1.350 . S
C1519 C1518 1.434 . S
C1520 C1521 1.369 . S
C1520 C1522 1.419 . S
C1520 H1524 0.930 . S
C1521 C1520 1.369 . S
C1521 C1530 1.429 . S
C1522 C1520 1.419 . S
C1522 C1523 1.363 . S
C1522 H1525 0.929 . S
C1523 C1522 1.363 . S
C1523 C1529 1.428 . S
H1524 C1520 0.930 . S
H1525 C1522 0.929 . S
S1526 N1527 1.613 . S
S1526 N1528 1.610 . S
N1527 S1526 1.613 . S
N1527 C1530 1.350 . S
N1528 S1526 1.610 . S
N1528 C1529 1.351 . S
C1529 C1523 1.428 . S
C1529 N1528 1.351 . S
C1529 C1530 1.434 . S
C1530 C1521 1.429 . S
C1530 N1527 1.350 . S
C1530 C1529 1.434 . S
C1531 C1532 1.369 . S
C1531 C1533 1.419 . S
C1531 H1535 0.930 . S
C1532 C1531 1.369 . S
C1532 C1541 1.429 . S
C1533 C1531 1.419 . S
C1533 C1534 1.363 . S
C1533 H1536 0.929 . S
C1534 C1533 1.363 . S
C1534 C1540 1.428 . S
H1535 C1531 0.930 . S
H1536 C1533 0.929 . S
S1537 N1538 1.613 . S
S1537 N1539 1.610 . S
N1538 S1537 1.613 . S
N1538 C1541 1.350 . S
N1539 S1537 1.610 . S
N1539 C1540 1.351 . S
C1540 C1534 1.428 . S
C1540 N1539 1.351 . S
C1540 C1541 1.434 . S
C1541 C1532 1.429 . S
C1541 N1538 1.350 . S
C1541 C1540 1.434 . S
C1542 C1543 1.369 . S
C1542 C1544 1.419 . S
C1542 H1546 0.930 . S
C1543 C1542 1.369 . S
C1543 C1552 1.429 . S
C1544 C1542 1.419 . S
C1544 C1545 1.363 . S
C1544 H1547 0.929 . S
C1545 C1544 1.363 . S
C1545 C1551 1.428 . S
H1546 C1542 0.930 . S
H1547 C1544 0.929 . S
S1548 N1549 1.613 . S
S1548 N1550 1.610 . S
N1549 S1548 1.613 . S
N1549 C1552 1.350 . S
N1550 S1548 1.610 . S
N1550 C1551 1.351 . S
C1551 C1545 1.428 . S
C1551 N1550 1.351 . S
C1551 C1552 1.434 . S
C1552 C1543 1.429 . S
C1552 N1549 1.350 . S
C1552 C1551 1.434 . S
C1553 C1554 1.369 . S
C1553 C1555 1.419 1_655 S
C1553 H1557 0.930 . S
C1554 C1553 1.369 . S
C1554 C1563 1.429 . S
C1555 C1553 1.419 1_455 S
C1555 C1556 1.363 . S
C1555 H1558 0.929 . S
C1556 C1555 1.363 . S
C1556 C1562 1.428 . S
H1557 C1553 0.930 . S
H1558 C1555 0.929 . S
S1559 N1560 1.613 . S
S1559 N1561 1.610 1_655 S
N1560 S1559 1.613 . S
N1560 C1563 1.350 . S
N1561 S1559 1.610 1_455 S
N1561 C1562 1.351 . S
C1562 C1556 1.428 . S
C1562 N1561 1.351 . S
C1562 C1563 1.434 1_455 S
C1563 C1554 1.429 . S
C1563 N1560 1.350 . S
C1563 C1562 1.434 1_655 S
C1564 C1565 1.369 . S
C1564 C1566 1.419 . S
C1564 H1568 0.930 . S
C1565 C1564 1.369 . S
C1565 C1574 1.429 . S
C1566 C1564 1.419 . S
C1566 C1567 1.363 . S
C1566 H1569 0.929 . S
C1567 C1566 1.363 . S
C1567 C1573 1.428 . S
H1568 C1564 0.930 . S
H1569 C1566 0.929 . S
S1570 N1571 1.613 . S
S1570 N1572 1.610 . S
N1571 S1570 1.613 . S
N1571 C1574 1.350 . S
N1572 S1570 1.610 . S
N1572 C1573 1.351 . S
C1573 C1567 1.428 . S
C1573 N1572 1.351 . S
C1573 C1574 1.434 . S
C1574 C1565 1.429 . S
C1574 N1571 1.350 . S
C1574 C1573 1.434 . S
C1575 C1576 1.369 . S
C1575 C1577 1.419 1_455 S
C1575 H1579 0.930 . S
C1576 C1575 1.369 . S
C1576 C1585 1.429 . S
C1577 C1575 1.419 1_655 S
C1577 C1578 1.363 . S
C1577 H1580 0.929 . S
C1578 C1577 1.363 . S
C1578 C1584 1.428 . S
H1579 C1575 0.930 . S
H1580 C1577 0.929 . S
S1581 N1582 1.613 . S
S1581 N1583 1.610 1_455 S
N1582 S1581 1.613 . S
N1582 C1585 1.350 . S
N1583 S1581 1.610 1_655 S
N1583 C1584 1.351 . S
C1584 C1578 1.428 . S
C1584 N1583 1.351 . S
C1584 C1585 1.434 1_655 S
C1585 C1576 1.429 . S
C1585 N1582 1.350 . S
C1585 C1584 1.434 1_455 S
C1586 C1587 1.369 . S
C1586 C1588 1.419 . S
C1586 H1590 0.930 . S
C1587 C1586 1.369 . S
C1587 C1596 1.429 . S
C1588 C1586 1.419 . S
C1588 C1589 1.363 . S
C1588 H1591 0.929 . S
C1589 C1588 1.363 . S
C1589 C1595 1.428 . S
H1590 C1586 0.930 . S
H1591 C1588 0.929 . S
S1592 N1593 1.613 . S
S1592 N1594 1.610 . S
N1593 S1592 1.613 . S
N1593 C1596 1.350 . S
N1594 S1592 1.610 . S
N1594 C1595 1.351 . S
C1595 C1589 1.428 . S
C1595 N1594 1.351 . S
C1595 C1596 1.434 . S
C1596 C1587 1.429 . S
C1596 N1593 1.350 . S
C1596 C1595 1.434 . S
C1597 C1598 1.369 . S
C1597 C1599 1.419 . S
C1597 H1601 0.930 . S
C1598 C1597 1.369 . S
C1598 C1607 1.429 . S
C1599 C1597 1.419 . S
C1599 C1600 1.363 . S
C1599 H1602 0.929 . S
C1600 C1599 1.363 . S
C1600 C1606 1.428 . S
H1601 C1597 0.930 . S
H1602 C1599 0.929 . S
S1603 N1604 1.613 . S
S1603 N1605 1.610 . S
N1604 S1603 1.613 . S
N1604 C1607 1.350 . S
N1605 S1603 1.610 . S
N1605 C1606 1.351 . S
C1606 C1600 1.428 . S
C1606 N1605 1.351 . S
C1606 C1607 1.434 . S
C1607 C1598 1.429 . S
C1607 N1604 1.350 . S
C1607 C1606 1.434 . S
C1608 C1609 1.369 . S
C1608 C1610 1.419 . S
C1608 H1612 0.930 . S
C1609 C1608 1.369 . S
C1609 C1618 1.429 . S
C1610 C1608 1.419 . S
C1610 C1611 1.363 . S
C1610 H1613 0.929 . S
C1611 C1610 1.363 . S
C1611 C1617 1.428 . S
H1612 C1608 0.930 . S
H1613 C1610 0.929 . S
S1614 N1615 1.613 . S
S1614 N1616 1.610 . S
N1615 S1614 1.613 . S
N1615 C1618 1.350 . S
N1616 S1614 1.610 . S
N1616 C1617 1.351 . S
C1617 C1611 1.428 . S
C1617 N1616 1.351 . S
C1617 C1618 1.434 . S
C1618 C1609 1.429 . S
C1618 N1615 1.350 . S
C1618 C1617 1.434 . S
C1619 C1620 1.369 . S
C1619 C1621 1.419 . S
C1619 H1623 0.930 . S
C1620 C1619 1.369 . S
C1620 C1629 1.429 . S
C1621 C1619 1.419 . S
C1621 C1622 1.363 . S
C1621 H1624 0.929 . S
C1622 C1621 1.363 . S
C1622 C1628 1.428 . S
H1623 C1619 0.930 . S
H1624 C1621 0.929 . S
S1625 N1626 1.613 . S
S1625 N1627 1.610 . S
N1626 S1625 1.613 . S
N1626 C1629 1.350 . S
N1627 S1625 1.610 . S
N1627 C1628 1.351 . S
C1628 C1622 1.428 . S
C1628 N1627 1.351 . S
C1628 C1629 1.434 . S
C1629 C1620 1.429 . S
C1629 N1626 1.350 . S
C1629 C1628 1.434 . S
C1630 C1631 1.369 . S
C1630 C1632 1.419 . S
C1630 H1634 0.930 . S
C1631 C1630 1.369 . S
C1631 C1640 1.429 . S
C1632 C1630 1.419 . S
C1632 C1633 1.363 . S
C1632 H1635 0.929 . S
C1633 C1632 1.363 . S
C1633 C1639 1.428 . S
H1634 C1630 0.930 . S
H1635 C1632 0.929 . S
S1636 N1637 1.613 . S
S1636 N1638 1.610 . S
N1637 S1636 1.613 . S
N1637 C1640 1.350 . S
N1638 S1636 1.610 . S
N1638 C1639 1.351 . S
C1639 C1633 1.428 . S
C1639 N1638 1.351 . S
C1639 C1640 1.434 . S
C1640 C1631 1.429 . S
C1640 N1637 1.350 . S
C1640 C1639 1.434 . S
C1641 C1642 1.369 . S
C1641 C1643 1.419 . S
C1641 H1645 0.930 . S
C1642 C1641 1.369 . S
C1642 C1651 1.429 . S
C1643 C1641 1.419 . S
C1643 C1644 1.363 . S
C1643 H1646 0.929 . S
C1644 C1643 1.363 . S
C1644 C1650 1.428 . S
H1645 C1641 0.930 . S
H1646 C1643 0.929 . S
S1647 N1648 1.613 . S
S1647 N1649 1.610 . S
N1648 S1647 1.613 . S
N1648 C1651 1.350 . S
N1649 S1647 1.610 . S
N1649 C1650 1.351 . S
C1650 C1644 1.428 . S
C1650 N1649 1.351 . S
C1650 C1651 1.434 . S
C1651 C1642 1.429 . S
C1651 N1648 1.350 . S
C1651 C1650 1.434 . S
C1652 C1653 1.369 . S
C1652 C1654 1.419 1_655 S
C1652 H1656 0.930 . S
C1653 C1652 1.369 . S
C1653 C1662 1.429 . S
C1654 C1652 1.419 1_455 S
C1654 C1655 1.363 . S
C1654 H1657 0.929 . S
C1655 C1654 1.363 . S
C1655 C1661 1.428 . S
H1656 C1652 0.930 . S
H1657 C1654 0.929 . S
S1658 N1659 1.613 . S
S1658 N1660 1.610 1_655 S
N1659 S1658 1.613 . S
N1659 C1662 1.350 1_554 S
N1660 S1658 1.610 1_455 S
N1660 C1661 1.351 1_554 S
C1661 C1655 1.428 . S
C1661 N1660 1.351 1_556 S
C1661 C1662 1.434 1_455 S
C1662 C1653 1.429 . S
C1662 N1659 1.350 1_556 S
C1662 C1661 1.434 1_655 S
C1663 C1664 1.369 . S
C1663 C1665 1.419 . S
C1663 H1667 0.930 . S
C1664 C1663 1.369 . S
C1664 C1673 1.429 . S
C1665 C1663 1.419 . S
C1665 C1666 1.363 . S
C1665 H1668 0.929 . S
C1666 C1665 1.363 . S
C1666 C1672 1.428 . S
H1667 C1663 0.930 . S
H1668 C1665 0.929 . S
S1669 N1670 1.613 . S
S1669 N1671 1.610 . S
N1670 S1669 1.613 . S
N1670 C1673 1.350 . S
N1671 S1669 1.610 . S
N1671 C1672 1.351 . S
C1672 C1666 1.428 . S
C1672 N1671 1.351 . S
C1672 C1673 1.434 . S
C1673 C1664 1.429 . S
C1673 N1670 1.350 . S
C1673 C1672 1.434 . S
C1674 C1675 1.369 . S
C1674 C1676 1.419 . S
C1674 H1678 0.930 . S
C1675 C1674 1.369 . S
C1675 C1684 1.429 . S
C1676 C1674 1.419 . S
C1676 C1677 1.363 . S
C1676 H1679 0.929 . S
C1677 C1676 1.363 . S
C1677 C1683 1.428 . S
H1678 C1674 0.930 . S
H1679 C1676 0.929 . S
S1680 N1681 1.613 . S
S1680 N1682 1.610 . S
N1681 S1680 1.613 . S
N1681 C1684 1.350 . S
N1682 S1680 1.610 . S
N1682 C1683 1.351 . S
C1683 C1677 1.428 . S
C1683 N1682 1.351 . S
C1683 C1684 1.434 . S
C1684 C1675 1.429 . S
C1684 N1681 1.350 . S
C1684 C1683 1.434 . S
C1685 C1686 1.369 . S
C1685 C1687 1.419 1_455 S
C1685 H1689 0.930 . S
C1686 C1685 1.369 . S
C1686 C1695 1.429 . S
C1687 C1685 1.419 1_655 S
C1687 C1688 1.363 . S
C1687 H1690 0.929 . S
C1688 C1687 1.363 . S
C1688 C1694 1.428 . S
H1689 C1685 0.930 . S
H1690 C1687 0.929 . S
S1691 N1692 1.627 . S
S1691 N1693 1.597 1_455 S
N1692 S1691 1.627 . S
N1692 C1695 1.350 . S
N1693 S1691 1.597 1_655 S
N1693 C1694 1.351 . S
C1694 C1688 1.428 . S
C1694 N1693 1.351 . S
C1694 C1695 1.434 1_655 S
C1695 C1686 1.429 . S
C1695 N1692 1.350 . S
C1695 C1694 1.434 1_455 S
C1696 C1697 1.369 1_556 S
C1696 C1698 1.419 . S
C1696 H1700 0.930 . S
C1697 C1696 1.369 1_554 S
C1697 C1706 1.429 . S
C1698 C1696 1.419 . S
C1698 C1699 1.363 . S
C1698 H1701 0.929 . S
C1699 C1698 1.363 . S
C1699 C1705 1.428 1_556 S
H1700 C1696 0.930 . S
H1701 C1698 0.929 . S
S1702 N1703 1.613 . S
S1702 N1704 1.610 . S
N1703 S1702 1.613 . S
N1703 C1706 1.350 . S
N1704 S1702 1.610 . S
N1704 C1705 1.351 . S
C1705 C1699 1.428 1_554 S
C1705 N1704 1.351 . S
C1705 C1706 1.434 . S
C1706 C1697 1.429 . S
C1706 N1703 1.350 . S
C1706 C1705 1.434 . S
C1707 C1708 1.369 . S
C1707 C1709 1.419 . S
C1707 H1711 0.930 . S
C1708 C1707 1.369 . S
C1708 C1717 1.429 . S
C1709 C1707 1.419 . S
C1709 C1710 1.363 . S
C1709 H1712 0.929 . S
C1710 C1709 1.363 . S
C1710 C1716 1.428 . S
H1711 C1707 0.930 . S
H1712 C1709 0.929 . S
S1713 N1714 1.613 . S
S1713 N1715 1.610 . S
N1714 S1713 1.613 . S
N1714 C1717 1.350 . S
N1715 S1713 1.610 . S
N1715 C1716 1.351 . S
C1716 C1710 1.428 . S
C1716 N1715 1.351 . S
C1716 C1717 1.434 . S
C1717 C1708 1.429 . S
C1717 N1714 1.350 . S
C1717 C1716 1.434 . S
C1718 C1719 1.369 . S
C1718 C1720 1.419 . S
C1718 H1722 0.930 . S
C1719 C1718 1.369 . S
C1719 C1728 1.429 . S
C1720 C1718 1.419 . S
C1720 C1721 1.363 . S
C1720 H1723 0.929 . S
C1721 C1720 1.363 . S
C1721 C1727 1.428 . S
H1722 C1718 0.930 . S
H1723 C1720 0.929 . S
S1724 N1725 1.613 . S
S1724 N1726 1.610 . S
N1725 S1724 1.613 . S
N1725 C1728 1.350 . S
N1726 S1724 1.610 . S
N1726 C1727 1.351 . S
C1727 C1721 1.428 . S
C1727 N1726 1.351 . S
C1727 C1728 1.434 . S
C1728 C1719 1.429 . S
C1728 N1725 1.350 . S
C1728 C1727 1.434 . S
C1729 C1730 1.369 . S
C1729 C1731 1.419 . S
C1729 H1733 0.930 . S
C1730 C1729 1.369 . S
C1730 C1739 1.429 . S
C1731 C1729 1.419 . S
C1731 C1732 1.363 . S
C1731 H1734 0.929 . S
C1732 C1731 1.363 . S
C1732 C1738 1.428 . S
H1733 C1729 0.930 . S
H1734 C1731 0.929 . S
S1735 N1736 1.613 . S
S1735 N1737 1.610 . S
N1736 S1735 1.613 . S
N1736 C1739 1.350 . S
N1737 S1735 1.610 . S
N1737 C1738 1.351 . S
C1738 C1732 1.428 . S
C1738 N1737 1.351 . S
C1738 C1739 1.434 . S
C1739 C1730 1.429 . S
C1739 N1736 1.350 . S
C1739 C1738 1.434 . S
C1740 C1741 1.369 . S
C1740 C1742 1.419 . S
C1740 H1744 0.930 . S
C1741 C1740 1.369 . S
C1741 C1750 1.429 1_554 S
C1742 C1740 1.419 . S
C1742 C1743 1.363 1_554 S
C1742 H1745 0.929 . S
C1743 C1742 1.363 1_556 S
C1743 C1749 1.428 . S
H1744 C1740 0.930 . S
H1745 C1742 0.929 . S
S1746 N1747 1.613 . S
S1746 N1748 1.610 . S
N1747 S1746 1.613 . S
N1747 C1750 1.350 . S
N1748 S1746 1.610 . S
N1748 C1749 1.351 . S
C1749 C1743 1.428 . S
C1749 N1748 1.351 . S
C1749 C1750 1.434 . S
C1750 C1741 1.429 1_556 S
C1750 N1747 1.350 . S
C1750 C1749 1.434 . S
C1751 C1752 1.369 . S
C1751 C1753 1.419 . S
C1751 H1755 0.930 . S
C1752 C1751 1.369 . S
C1752 C1761 1.429 . S
C1753 C1751 1.419 . S
C1753 C1754 1.363 . S
C1753 H1756 0.929 . S
C1754 C1753 1.363 . S
C1754 C1760 1.428 . S
H1755 C1751 0.930 . S
H1756 C1753 0.929 . S
S1757 N1758 1.613 . S
S1757 N1759 1.610 . S
N1758 S1757 1.613 . S
N1758 C1761 1.350 . S
N1759 S1757 1.610 . S
N1759 C1760 1.351 . S
C1760 C1754 1.428 . S
C1760 N1759 1.351 . S
C1760 C1761 1.434 . S
C1761 C1752 1.429 . S
C1761 N1758 1.350 . S
C1761 C1760 1.434 . S
C1762 C1763 1.369 . S
C1762 C1764 1.419 . S
C1762 H1766 0.930 . S
C1763 C1762 1.369 . S
C1763 C1772 1.429 . S
C1764 C1762 1.419 . S
C1764 C1765 1.363 . S
C1764 H1767 0.929 . S
C1765 C1764 1.363 . S
C1765 C1771 1.428 . S
H1766 C1762 0.930 . S
H1767 C1764 0.929 . S
S1768 N1769 1.613 . S
S1768 N1770 1.610 . S
N1769 S1768 1.613 . S
N1769 C1772 1.350 . S
N1770 S1768 1.610 . S
N1770 C1771 1.351 . S
C1771 C1765 1.428 . S
C1771 N1770 1.351 . S
C1771 C1772 1.434 . S
C1772 C1763 1.429 . S
C1772 N1769 1.350 . S
C1772 C1771 1.434 . S
C1773 C1774 1.369 . S
C1773 C1775 1.419 . S
C1773 H1777 0.930 . S
C1774 C1773 1.369 . S
C1774 C1783 1.429 . S
C1775 C1773 1.419 . S
C1775 C1776 1.363 . S
C1775 H1778 0.929 . S
C1776 C1775 1.363 . S
C1776 C1782 1.428 . S
H1777 C1773 0.930 . S
H1778 C1775 0.929 . S
S1779 N1780 1.613 . S
S1779 N1781 1.610 . S
N1780 S1779 1.613 . S
N1780 C1783 1.350 . S
N1781 S1779 1.610 . S
N1781 C1782 1.351 . S
C1782 C1776 1.428 . S
C1782 N1781 1.351 . S
C1782 C1783 1.434 . S
C1783 C1774 1.429 . S
C1783 N1780 1.350 . S
C1783 C1782 1.434 . S
C1784 C1785 1.369 . S
C1784 C1786 1.419 1_565 S
C1784 H1788 0.930 . S
C1785 C1784 1.369 . S
C1785 C1794 1.429 . S
C1786 C1784 1.419 1_545 S
C1786 C1787 1.363 . S
C1786 H1789 0.929 . S
C1787 C1786 1.363 . S
C1787 C1793 1.455 . S
H1788 C1784 0.930 . S
H1789 C1786 0.929 . S
S1790 N1791 1.613 . S
S1790 N1792 1.608 1_565 S
N1791 S1790 1.613 . S
N1791 C1794 1.350 . S
N1792 S1790 1.608 1_545 S
N1792 C1793 1.350 . S
C1793 C1787 1.455 . S
C1793 N1792 1.350 . S
C1793 C1794 1.406 1_545 S
C1794 C1785 1.429 . S
C1794 N1791 1.350 . S
C1794 C1793 1.406 1_565 S
C1795 C1796 1.369 . S
C1795 C1797 1.419 . S
C1795 H1799 0.930 . S
C1796 C1795 1.369 . S
C1796 C1805 1.429 . S
C1797 C1795 1.419 . S
C1797 C1798 1.363 . S
C1797 H1800 0.929 . S
C1798 C1797 1.363 . S
C1798 C1804 1.428 . S
H1799 C1795 0.930 . S
H1800 C1797 0.929 . S
S1801 N1802 1.613 . S
S1801 N1803 1.610 . S
N1802 S1801 1.613 . S
N1802 C1805 1.350 . S
N1803 S1801 1.610 . S
N1803 C1804 1.351 . S
C1804 C1798 1.428 . S
C1804 N1803 1.351 . S
C1804 C1805 1.434 . S
C1805 C1796 1.429 . S
C1805 N1802 1.350 . S
C1805 C1804 1.434 . S
C1806 C1807 1.369 . S
C1806 C1808 1.419 1_564 S
C1806 H1810 0.930 . S
C1807 C1806 1.369 . S
C1807 C1816 1.429 . S
C1808 C1806 1.419 1_546 S
C1808 C1809 1.363 . S
C1808 H1811 0.929 . S
C1809 C1808 1.363 . S
C1809 C1815 1.420 1_556 S
H1810 C1806 0.930 . S
H1811 C1808 0.929 . S
S1812 N1813 1.613 1_545 S
S1812 N1814 1.610 . S
N1813 S1812 1.613 1_565 S
N1813 C1816 1.350 . S
N1814 S1812 1.610 . S
N1814 C1815 1.352 . S
C1815 C1809 1.420 1_554 S
C1815 N1814 1.352 . S
C1815 C1816 1.442 1_545 S
C1816 C1807 1.429 . S
C1816 N1813 1.350 . S
C1816 C1815 1.442 1_565 S
C1817 C1818 1.369 . S
C1817 C1819 1.419 . S
C1817 H1821 0.930 . S
C1818 C1817 1.369 . S
C1818 C1827 1.429 . S
C1819 C1817 1.419 . S
C1819 C1820 1.363 . S
C1819 H1822 0.929 . S
C1820 C1819 1.363 . S
C1820 C1826 1.428 . S
H1821 C1817 0.930 . S
H1822 C1819 0.929 . S
S1823 N1824 1.613 . S
S1823 N1825 1.610 . S
N1824 S1823 1.613 . S
N1824 C1827 1.350 . S
N1825 S1823 1.610 . S
N1825 C1826 1.351 . S
C1826 C1820 1.428 . S
C1826 N1825 1.351 . S
C1826 C1827 1.434 . S
C1827 C1818 1.429 . S
C1827 N1824 1.350 . S
C1827 C1826 1.434 . S
C1828 C1829 1.369 . S
C1828 C1830 1.419 . S
C1828 H1832 0.930 . S
C1829 C1828 1.369 . S
C1829 C1838 1.429 1_565 S
C1830 C1828 1.419 . S
C1830 C1831 1.363 1_565 S
C1830 H1833 0.929 . S
C1831 C1830 1.363 1_545 S
C1831 C1837 1.428 . S
H1832 C1828 0.930 . S
H1833 C1830 0.929 . S
S1834 N1835 1.613 . S
S1834 N1836 1.610 . S
N1835 S1834 1.613 . S
N1835 C1838 1.350 . S
N1836 S1834 1.610 . S
N1836 C1837 1.351 . S
C1837 C1831 1.428 . S
C1837 N1836 1.351 . S
C1837 C1838 1.434 . S
C1838 C1829 1.429 1_545 S
C1838 N1835 1.350 . S
C1838 C1837 1.434 . S
C1839 C1840 1.369 . S
C1839 C1841 1.419 . S
C1839 H1843 0.930 . S
C1840 C1839 1.369 . S
C1840 C1849 1.429 . S
C1841 C1839 1.419 . S
C1841 C1842 1.363 . S
C1841 H1844 0.929 . S
C1842 C1841 1.363 . S
C1842 C1848 1.428 . S
H1843 C1839 0.930 . S
H1844 C1841 0.929 . S
S1845 N1846 1.613 . S
S1845 N1847 1.610 . S
N1846 S1845 1.613 . S
N1846 C1849 1.350 . S
N1847 S1845 1.610 . S
N1847 C1848 1.351 . S
C1848 C1842 1.428 . S
C1848 N1847 1.351 . S
C1848 C1849 1.434 . S
C1849 C1840 1.429 . S
C1849 N1846 1.350 . S
C1849 C1848 1.434 . S
C1850 C1851 1.369 1_565 S
C1850 C1852 1.419 . S
C1850 H1854 0.930 . S
C1851 C1850 1.369 1_545 S
C1851 C1860 1.429 1_556 S
C1852 C1850 1.419 . S
C1852 C1853 1.363 1_556 S
C1852 H1855 0.929 . S
C1853 C1852 1.363 1_554 S
C1853 C1859 1.428 1_565 S
H1854 C1850 0.930 . S
H1855 C1852 0.929 . S
S1856 N1857 1.613 . S
S1856 N1858 1.610 . S
N1857 S1856 1.613 . S
N1857 C1860 1.350 . S
N1858 S1856 1.610 . S
N1858 C1859 1.351 . S
C1859 C1853 1.428 1_545 S
C1859 N1858 1.351 . S
C1859 C1860 1.434 . S
C1860 C1851 1.429 1_554 S
C1860 N1857 1.350 . S
C1860 C1859 1.434 . S
C1861 C1862 1.369 . S
C1861 C1863 1.419 . S
C1861 H1865 0.930 . S
C1862 C1861 1.369 . S
C1862 C1871 1.429 . S
C1863 C1861 1.419 . S
C1863 C1864 1.363 . S
C1863 H1866 0.929 . S
C1864 C1863 1.363 . S
C1864 C1870 1.428 . S
H1865 C1861 0.930 . S
H1866 C1863 0.929 . S
S1867 N1868 1.613 . S
S1867 N1869 1.610 . S
N1868 S1867 1.613 . S
N1868 C1871 1.350 . S
N1869 S1867 1.610 . S
N1869 C1870 1.351 . S
C1870 C1864 1.428 . S
C1870 N1869 1.351 . S
C1870 C1871 1.434 . S
C1871 C1862 1.429 . S
C1871 N1868 1.350 . S
C1871 C1870 1.434 . S
C1345 C69 1.497 . S
C1347 C58 1.507 . S
C1356 C142 1.470 . S
C1358 C153 1.483 . S
C1367 C226 1.477 . S
C1369 C237 1.478 . S
C1378 C321 1.479 . S
C1380 C310 1.487 . S
C1389 C405 1.490 . S
C1391 C394 1.474 . S
C1400 C489 1.465 . S
C1402 C478 1.464 . S
C1411 C562 1.479 . S
C1413 C573 1.472 . S
C1422 C657 1.492 . S
C1424 C646 1.488 . S
C1433 C741 1.496 . S
C1435 C730 1.506 . S
C1444 C814 1.473 . S
C1446 C825 1.487 . S
C1455 C898 1.459 . S
C1457 C909 1.471 . S
C1466 C982 1.474 . S
C1468 C993 1.484 . S
C1477 C1066 1.483 . S
C1479 C1077 1.471 . S
C1488 C1161 1.471 . S
C1490 C1150 1.479 . S
C1499 C1245 1.480 . S
C1501 C1234 1.478 . S
C1510 C1329 1.488 . S
C1512 C1318 1.494 . S
C1521 C63 1.709 . S
C1523 C991 1.777 . S
C1532 C140 1.758 . S
C1534 C1327 1.757 . S
C1543 C224 1.776 . S
C1545 C830 1.717 . S
C1554 C315 1.713 . S
C1556 C1159 1.774 . S
C1565 C399 1.724 . S
C1567 C1166 1.729 . S
C1576 C998 1.707 . S
C1578 C476 1.774 . S
C1587 C560 1.771 . S
C1589 C1334 1.711 . S
C1598 C651 1.717 . S
C1600 C823 1.770 . S
C1609 C308 1.774 . S
C1611 C739 1.772 . S
C1620 C147 1.699 . S
C1622 C907 1.761 . S
C1631 C1082 1.707 . S
C1633 C483 1.716 . S
C1642 C644 1.772 . S
C1644 C1243 1.769 . S
C1653 C746 1.733 . S
C1655 C392 1.789 . S
C1664 C567 1.713 . S
C1666 C914 1.716 . S
C1675 C231 1.719 . S
C1677 C1250 1.721 . S
C1686 C56 1.774 . S
C1688 C1075 1.776 . S
C1697 C74 1.729 . S
C1699 C410 1.729 . S
C1708 C151 1.657 . S
C1710 C487 1.663 . S
C1719 C235 1.677 . S
C1721 C571 1.684 . S
C1730 C326 1.710 . S
C1732 C662 1.710 . S
C1741 C1071 1.691 . S
C1743 C728 1.657 . S
C1752 C1148 1.665 . S
C1754 C812 1.669 . S
C1763 C896 1.677 . S
C1765 C1232 1.683 . S
C1774 C1316 1.665 . S
C1776 C987 1.708 . S
C1785 C158 1.687 . S
C1787 C655 1.647 . S
C1796 C403 1.701 . S
C1798 C242 1.744 . S
C1807 C494 1.724 . S
C1809 C319 1.681 . S
C1818 C67 1.663 . S
C1820 C578 1.707 . S
C1829 C1323 1.724 . S
C1831 C819 1.723 . S
C1840 C1064 1.696 . S
C1842 C903 1.739 . S
C1851 C1155 1.722 . S
C1853 C980 1.687 . S
C1862 C1239 1.709 . S
C1864 C735 1.709 . S
