# Generated by pormake.
# Topology unn, (4)-cn, num edge types: 1
# Building blocks:
#     Node 0, Type 0, BuildingBlock: ESEHIV_clean_sbu_0, # of connection points: 4
#     Node 1, Type 0, BuildingBlock: ESEHIV_clean_sbu_0, # of connection points: 4
#     Node 2, Type 0, BuildingBlock: ESEHIV_clean_sbu_0, # of connection points: 4
#     Node 3, Type 0, BuildingBlock: ESEHIV_clean_sbu_0, # of connection points: 4
#     Node 4, Type 0, BuildingBlock: ESEHIV_clean_sbu_0, # of connection points: 4
#     Node 5, Type 0, BuildingBlock: ESEHIV_clean_sbu_0, # of connection points: 4
#     Node 6, Type 0, BuildingBlock: ESEHIV_clean_sbu_0, # of connection points: 4
#     Node 7, Type 0, BuildingBlock: ESEHIV_clean_sbu_0, # of connection points: 4
#     Node 8, Type 0, BuildingBlock: ESEHIV_clean_sbu_0, # of connection points: 4
#     Node 9, Type 0, BuildingBlock: ESEHIV_clean_sbu_0, # of connection points: 4
#     Node 10, Type 0, BuildingBlock: ESEHIV_clean_sbu_0, # of connection points: 4
#     Node 11, Type 0, BuildingBlock: ESEHIV_clean_sbu_0, # of connection points: 4
#     Node 12, Type 0, BuildingBlock: ESEHIV_clean_sbu_0, # of connection points: 4
#     Node 13, Type 0, BuildingBlock: ESEHIV_clean_sbu_0, # of connection points: 4
#     Node 14, Type 0, BuildingBlock: ESEHIV_clean_sbu_0, # of connection points: 4
#     Node 15, Type 0, BuildingBlock: ESEHIV_clean_sbu_0, # of connection points: 4
#     Node 16, Type 0, BuildingBlock: ESEHIV_clean_sbu_0, # of connection points: 4
#     Node 17, Type 0, BuildingBlock: ESEHIV_clean_sbu_0, # of connection points: 4
#     Edge 18, Type (0, 0), BuildingBlock: CIFDUS_clean_linker_0, # of connection points: 2
#     Edge 19, Type (0, 0), BuildingBlock: CIFDUS_clean_linker_0, # of connection points: 2
#     Edge 20, Type (0, 0), BuildingBlock: CIFDUS_clean_linker_0, # of connection points: 2
#     Edge 21, Type (0, 0), BuildingBlock: CIFDUS_clean_linker_0, # of connection points: 2
#     Edge 22, Type (0, 0), BuildingBlock: CIFDUS_clean_linker_0, # of connection points: 2
#     Edge 23, Type (0, 0), BuildingBlock: CIFDUS_clean_linker_0, # of connection points: 2
#     Edge 24, Type (0, 0), BuildingBlock: CIFDUS_clean_linker_0, # of connection points: 2
#     Edge 25, Type (0, 0), BuildingBlock: CIFDUS_clean_linker_0, # of connection points: 2
#     Edge 26, Type (0, 0), BuildingBlock: CIFDUS_clean_linker_0, # of connection points: 2
#     Edge 27, Type (0, 0), BuildingBlock: CIFDUS_clean_linker_0, # of connection points: 2
#     Edge 28, Type (0, 0), BuildingBlock: CIFDUS_clean_linker_0, # of connection points: 2
#     Edge 29, Type (0, 0), BuildingBlock: CIFDUS_clean_linker_0, # of connection points: 2
#     Edge 30, Type (0, 0), BuildingBlock: CIFDUS_clean_linker_0, # of connection points: 2
#     Edge 31, Type (0, 0), BuildingBlock: CIFDUS_clean_linker_0, # of connection points: 2
#     Edge 32, Type (0, 0), BuildingBlock: CIFDUS_clean_linker_0, # of connection points: 2
#     Edge 33, Type (0, 0), BuildingBlock: CIFDUS_clean_linker_0, # of connection points: 2
#     Edge 34, Type (0, 0), BuildingBlock: CIFDUS_clean_linker_0, # of connection points: 2
#     Edge 35, Type (0, 0), BuildingBlock: CIFDUS_clean_linker_0, # of connection points: 2
#     Edge 36, Type (0, 0), BuildingBlock: CIFDUS_clean_linker_0, # of connection points: 2
#     Edge 37, Type (0, 0), BuildingBlock: CIFDUS_clean_linker_0, # of connection points: 2
#     Edge 38, Type (0, 0), BuildingBlock: CIFDUS_clean_linker_0, # of connection points: 2
#     Edge 39, Type (0, 0), BuildingBlock: CIFDUS_clean_linker_0, # of connection points: 2
#     Edge 40, Type (0, 0), BuildingBlock: CIFDUS_clean_linker_0, # of connection points: 2
#     Edge 41, Type (0, 0), BuildingBlock: CIFDUS_clean_linker_0, # of connection points: 2
#     Edge 42, Type (0, 0), BuildingBlock: CIFDUS_clean_linker_0, # of connection points: 2
#     Edge 43, Type (0, 0), BuildingBlock: CIFDUS_clean_linker_0, # of connection points: 2
#     Edge 44, Type (0, 0), BuildingBlock: CIFDUS_clean_linker_0, # of connection points: 2
#     Edge 45, Type (0, 0), BuildingBlock: CIFDUS_clean_linker_0, # of connection points: 2
#     Edge 46, Type (0, 0), BuildingBlock: CIFDUS_clean_linker_0, # of connection points: 2
#     Edge 47, Type (0, 0), BuildingBlock: CIFDUS_clean_linker_0, # of connection points: 2
#     Edge 48, Type (0, 0), BuildingBlock: CIFDUS_clean_linker_0, # of connection points: 2
#     Edge 49, Type (0, 0), BuildingBlock: CIFDUS_clean_linker_0, # of connection points: 2
#     Edge 50, Type (0, 0), BuildingBlock: CIFDUS_clean_linker_0, # of connection points: 2
#     Edge 51, Type (0, 0), BuildingBlock: CIFDUS_clean_linker_0, # of connection points: 2
#     Edge 52, Type (0, 0), BuildingBlock: CIFDUS_clean_linker_0, # of connection points: 2
#     Edge 53, Type (0, 0), BuildingBlock: CIFDUS_clean_linker_0, # of connection points: 2
# Relax obj value: 0.008
# Max RMSD: 0.153
# Mean RMSD: 0.151
data_MOF--net-unn--node1-ESEHIV_clean_sbu_0--edge1-CIFDUS_clean_linker_0
_symmetry_space_group_name_H-M    P1
_symmetry_Int_Tables_number       1
_symmetry_cell_setting            triclinic
loop_
_symmetry_equiv_pos_as_xyz
'x, y, z'
_cell_length_a     48.878968
_cell_length_b     48.690872
_cell_length_c     37.282206
_cell_angle_alpha  90.119976
_cell_angle_beta   90.482964
_cell_angle_gamma 120.44369
loop_
_atom_site_label
_atom_site_type_symbol
_atom_site_fract_x
_atom_site_fract_y
_atom_site_fract_z
_atom_type_partial_charge
Cu0 Cu 0.03285 0.74601 0.2753 0.0
N1 N 0.06852 0.78548 0.28675 0.0
N2 N 0.11593 0.8195 0.31152 0.0
C3 C 0.09213 0.78888 0.30865 0.0
C4 C 0.10682 0.83604 0.29036 0.0
C5 C 0.07755 0.81498 0.27513 0.0
O6 O 0.02429 0.72089 0.31862 0.0
C7 C 0.04361 0.74059 0.20346 0.0
O8 O 0.03814 0.76434 0.20183 0.0
H9 H 0.09209 0.76896 0.32151 0.0
H10 H 0.06401 0.82072 0.25668 0.0
N11 N 0.9965 0.74794 0.26293 0.0
N12 N 0.94934 0.73326 0.23712 0.0
C13 C 0.97299 0.72676 0.24124 0.0
C14 C 0.98751 0.76868 0.27312 0.0
C15 C 0.95841 0.75968 0.25727 0.0
C16 C 0.99864 0.69497 0.32439 0.0
O17 O 0.97724 0.6822 0.29861 0.0
H18 H 0.97314 0.70661 0.22916 0.0
H19 H 1.0011 0.78886 0.2908 0.0
O20 O 0.04309 0.72847 0.23394 0.0
H21 H 0.1202 0.86153 0.28626 0.0
H22 H 0.94522 0.77191 0.26008 0.0
Cu23 Cu 0.31064 0.30373 0.2651 0.0
N24 N 0.30841 0.26558 0.25176 0.0
N25 N 0.32559 0.23429 0.22943 0.0
C26 C 0.33208 0.26445 0.23492 0.0
C27 C 0.29647 0.21565 0.24342 0.0
C28 C 0.28599 0.23504 0.25733 0.0
O29 O 0.32771 0.33264 0.2252 0.0
C30 C 0.3277 0.30866 0.33691 0.0
O31 O 0.29802 0.28554 0.3393 0.0
H32 H 0.35372 0.28558 0.2269 0.0
H33 H 0.26394 0.2274 0.27114 0.0
N34 N 0.27199 0.30039 0.27713 0.0
N35 N 0.23948 0.3158 0.29961 0.0
C36 C 0.26986 0.32322 0.29513 0.0
C37 C 0.2419 0.27761 0.26967 0.0
C38 C 0.22175 0.287 0.28368 0.0
C39 C 0.31606 0.32212 0.19415 0.0
O40 O 0.29308 0.29236 0.19052 0.0
H41 H 0.29041 0.34484 0.30493 0.0
H42 H 0.23508 0.25602 0.25466 0.0
O43 O 0.33864 0.32053 0.30636 0.0
H44 H 0.284 0.1899 0.24454 0.0
H45 H 0.19613 0.27395 0.2815 0.0
Cu46 Cu 0.75605 0.02824 0.27294 0.0
N47 N 0.75671 0.99112 0.28432 0.0
N48 N 0.74113 0.94327 0.30823 0.0
C49 C 0.73491 0.96719 0.30447 0.0
C50 C 0.76787 0.95252 0.28935 0.0
C51 C 0.77741 0.98203 0.27464 0.0
O52 O 0.73868 0.03895 0.31381 0.0
C53 C 0.74229 0.0196 0.19963 0.0
O54 O 0.77148 0.02503 0.19874 0.0
H55 H 0.71469 0.96732 0.31584 0.0
H56 H 0.79797 0.99588 0.25811 0.0
N57 N 0.79635 0.0632 0.2639 0.0
N58 N 0.83356 0.1102 0.24202 0.0
C59 C 0.8022 0.08864 0.24395 0.0
C60 C 0.82491 0.06883 0.27532 0.0
C61 C 0.84791 0.09773 0.2618 0.0
C62 C 0.74926 0.03847 0.34504 0.0
O63 O 0.77162 0.03118 0.34835 0.0
H64 H 0.78371 0.09088 0.23057 0.0
H65 H 0.82872 0.05308 0.29233 0.0
O66 O 0.73027 0.01971 0.22981 0.0
H67 H 0.78 0.93921 0.28676 0.0
H68 H 0.8732 0.10881 0.26659 0.0
Cu69 Cu 0.0329 0.29154 0.7717 0.0
N70 N 0.99632 0.25227 0.76157 0.0
N71 N 0.94697 0.21725 0.74249 0.0
C72 C 0.97042 0.24814 0.74356 0.0
C73 C 0.95872 0.20142 0.76066 0.0
C74 C 0.98906 0.22305 0.77244 0.0
O75 O 0.0425 0.31866 0.73035 0.0
C76 C 1.02361 0.29943 0.84369 0.0
O77 O 0.03047 0.27675 0.84751 0.0
H78 H 0.96857 0.26764 0.7324 0.0
H79 H 1.0045 0.21791 0.78838 0.0
N80 N 0.06878 0.28835 0.78224 0.0
N81 N 0.11788 0.30233 0.80116 0.0
C82 C 0.09522 0.31048 0.79959 0.0
C83 C 0.07484 0.26541 0.77234 0.0
C84 C 0.10501 0.27389 0.78402 0.0
C85 C 0.04132 0.30725 0.69928 0.0
O86 O 0.0334 0.27723 0.69602 0.0
H87 H 0.09803 0.33257 0.80991 0.0
H88 H 0.05871 0.24429 0.75713 0.0
O89 O 1.02374 0.30998 0.81248 0.0
H90 H 0.94631 0.176 0.76525 0.0
H91 H 0.11651 0.26012 0.78007 0.0
Cu92 Cu 0.74988 0.73961 0.77341 0.0
N93 N 0.75334 0.77877 0.78367 0.0
N94 N 0.7385 0.81223 0.805 0.0
C95 C 0.73245 0.78192 0.804 0.0
C96 C 0.76446 0.82884 0.78449 0.0
C97 C 0.77347 0.80809 0.77122 0.0
O98 O 0.735 0.71497 0.81737 0.0
C99 C 0.73105 0.73319 0.7026 0.0
O100 O 0.76022 0.75735 0.70047 0.0
H101 H 0.71293 0.76208 0.81745 0.0
H102 H 0.79269 0.8138 0.75298 0.0
N103 N 0.78809 0.74276 0.75916 0.0
N104 N 0.82034 0.72885 0.73284 0.0
C105 C 0.79005 0.72011 0.74051 0.0
C106 C 0.81819 0.76677 0.76355 0.0
C107 C 0.83817 0.7582 0.74746 0.0
C108 C 0.75545 0.71907 0.84139 0.0
O109 O 0.78572 0.73777 0.83469 0.0
H110 H 0.76951 0.6976 0.73275 0.0
H111 H 0.82511 0.78896 0.77732 0.0
O112 O 0.72043 0.72092 0.73319 0.0
H113 H 0.77551 0.85393 0.77839 0.0
H114 H 0.86374 0.77274 0.74599 0.0
Cu115 Cu 0.31339 0.02465 0.76968 0.0
N116 N 0.31006 0.06051 0.75857 0.0
N117 N 0.32314 0.10749 0.73347 0.0
C118 C 0.32136 0.07898 0.72923 0.0
C119 C 0.31143 0.10628 0.76652 0.0
C120 C 0.30349 0.07746 0.78183 0.0
O121 O 0.32752 1.01124 0.72796 0.0
C122 C 0.32974 0.03352 0.84243 0.0
O123 O 0.29959 0.02464 0.84487 0.0
H124 H 0.32942 0.07216 0.70586 0.0
H125 H 0.29572 0.07043 0.80906 0.0
N126 N 0.27452 0.98923 0.78213 0.0
N127 N 0.24108 0.94096 0.80434 0.0
C128 C 0.2715 0.96246 0.7964 0.0
C129 C 0.245 0.98468 0.78073 0.0
C130 C 0.2243 0.9549 0.79447 0.0
C131 C 0.35137 0.02816 0.70826 0.0
O132 O 0.37146 0.05795 0.71708 0.0
H133 H 0.29155 0.95937 0.80181 0.0
H134 H 0.23904 1.00188 0.77081 0.0
O135 O 0.34147 0.03533 0.81145 0.0
H136 H 0.31081 0.12565 0.77998 0.0
H137 H 0.19888 0.94438 0.79681 0.0
Cu138 Cu 0.70029 0.09077 0.60813 0.0
N139 N 0.6654 0.09514 0.59568 0.0
N140 N 0.61733 0.083 0.57483 0.0
C141 C 0.63886 0.07345 0.57806 0.0
C142 C 0.63102 0.11184 0.59113 0.0
C143 C 0.66052 0.11919 0.604 0.0
O144 O 0.70832 0.07007 0.56824 0.0
C145 C 0.70507 0.05614 0.66824 0.0
O146 O 0.72985 0.05801 0.6524 0.0
H147 H 0.63519 0.05077 0.56865 0.0
H148 H 0.67704 0.14037 0.61887 0.0
N149 N 0.73731 0.13036 0.61651 0.0
N150 N 0.78665 0.16637 0.63502 0.0
C151 C 0.76301 0.13557 0.63583 0.0
C152 C 0.74494 0.15889 0.60286 0.0
C153 C 0.77522 0.18111 0.61426 0.0
C154 C 0.70874 0.08088 0.537 0.0
O155 O 0.70376 0.10486 0.53364 0.0
H156 H 0.76479 0.11694 0.64927 0.0
H157 H 0.72979 0.16315 0.58527 0.0
O158 O 0.6892 0.06684 0.65256 0.0
H159 H 0.62055 0.12671 0.59362 0.0
H160 H 0.78778 0.20614 0.60758 0.0
Cu161 Cu 0.97603 0.63453 0.60292 0.0
N162 N 0.97351 0.59578 0.59176 0.0
N163 N 0.98814 0.5632 0.56726 0.0
C164 C 0.99522 0.59363 0.57186 0.0
C165 C 0.96082 0.54545 0.58523 0.0
C166 C 0.9518 0.56563 0.60024 0.0
O167 O 0.99259 0.66037 0.55992 0.0
C168 C 0.98813 0.63429 0.67429 0.0
O169 O 0.96106 0.60751 0.66973 0.0
H170 H 1.01602 0.61421 0.56123 0.0
H171 H 0.93089 0.55877 0.61606 0.0
N172 N 0.93698 0.63099 0.61338 0.0
N173 N 0.90393 0.64458 0.63835 0.0
C174 C 0.93444 0.65295 0.63271 0.0
C175 C 0.907 0.60778 0.6062 0.0
C176 C 0.88653 0.61616 0.6215 0.0
C177 C 0.97558 0.64734 0.53195 0.0
O178 O 0.94908 0.61995 0.53549 0.0
H179 H 0.95483 0.67469 0.64252 0.0
H180 H 0.90048 0.58616 0.59139 0.0
O181 O 1.00133 0.65139 0.64681 0.0
H182 H 0.94797 0.51973 0.58692 0.0
H183 H 0.86088 0.60199 0.62101 0.0
Cu184 Cu 0.42758 0.36178 0.60189 0.0
N185 N 0.46775 0.39631 0.5914 0.0
N186 N 0.50455 0.44321 0.56891 0.0
C187 C 0.47326 0.42147 0.57111 0.0
C188 C 0.51921 0.43115 0.58883 0.0
C189 C 0.49645 0.40232 0.60276 0.0
O190 O 0.40068 0.35193 0.55992 0.0
C191 C 0.42099 0.3743 0.67301 0.0
O192 O 0.44289 0.36651 0.67753 0.0
H193 H 0.45456 0.4235 0.55795 0.0
H194 H 0.50052 0.38704 0.62026 0.0
N195 N 0.4278 0.32474 0.61474 0.0
N196 N 0.41057 0.27644 0.63834 0.0
C197 C 0.40472 0.30051 0.63337 0.0
C198 C 0.44901 0.31575 0.60728 0.0
C199 C 0.4385 0.28601 0.62186 0.0
C200 C 0.41148 0.35048 0.52951 0.0
O201 O 0.44061 0.35585 0.52743 0.0
H202 H 0.38382 0.30052 0.64265 0.0
H203 H 0.47052 0.32975 0.59225 0.0
O204 O 0.41066 0.37404 0.64151 0.0
H205 H 0.54452 0.44258 0.59364 0.0
H206 H 0.45075 0.27274 0.62074 0.0
Cu207 Cu 0.6964 0.62882 0.0997 0.0
N208 N 0.66112 0.58845 0.08967 0.0
N209 N 0.61264 0.55174 0.06961 0.0
C210 C 0.6348 0.58305 0.07159 0.0
C211 C 0.62561 0.53685 0.08737 0.0
C212 C 0.65545 0.55952 0.09969 0.0
O213 O 0.70746 0.65284 0.05546 0.0
C214 C 0.68305 0.63555 0.16949 0.0
O215 O 0.6878 0.61139 0.17246 0.0
H216 H 0.6316 0.60185 0.06097 0.0
H217 H 0.67165 0.55522 0.11527 0.0
N218 N 0.73253 0.62755 0.1147 0.0
N219 N 0.77977 0.64339 0.14095 0.0
C220 C 0.75591 0.64949 0.13597 0.0
C221 C 0.74191 0.60685 0.10564 0.0
C222 C 0.77098 0.61651 0.12182 0.0
C223 C 0.69165 0.66376 0.04009 0.0
O224 O 0.6671 0.66206 0.05633 0.0
H225 H 0.75566 0.66997 0.14691 0.0
H226 H 0.72873 0.58641 0.08819 0.0
O227 O 0.68518 0.64769 0.13866 0.0
H228 H 0.61444 0.51139 0.09118 0.0
H229 H 0.78445 0.60452 0.11974 0.0
Cu230 Cu 0.42737 0.08192 0.10923 0.0
N231 N 0.46515 0.08451 0.0944 0.0
N232 N 0.49659 0.06985 0.06739 0.0
C233 C 0.46665 0.06104 0.07696 0.0
C234 C 0.51465 0.1001 0.07945 0.0
C235 C 0.4952 0.10913 0.09593 0.0
O236 O 0.39797 0.0649 0.06866 0.0
C237 C 0.39272 0.05519 0.17293 0.0
O238 O 0.37734 0.06961 0.16317 0.0
H239 H 0.446 0.03803 0.07112 0.0
H240 H 0.50243 0.13229 0.10723 0.0
N241 N 0.43267 0.12144 0.12276 0.0
N242 N 0.41673 0.15449 0.14287 0.0
C243 C 0.40966 0.12899 0.12183 0.0
C244 C 0.45532 0.14317 0.14468 0.0
C245 C 0.44574 0.16369 0.15683 0.0
C246 C 0.40883 0.07717 0.03811 0.0
O247 O 0.43818 0.10103 0.03615 0.0
H248 H 0.38707 0.11431 0.1084 0.0
H249 H 0.47584 0.14229 0.1541 0.0
O250 O 0.41315 0.0553 0.15182 0.0
H251 H 0.53995 0.11506 0.07558 0.0
H252 H 0.45792 0.18202 0.17706 0.0
Cu253 Cu 0.96725 0.35242 0.10215 0.0
N254 N 0.96687 0.38946 0.08971 0.0
N255 N 0.98396 0.43812 0.06727 0.0
C256 C 0.9897 0.41386 0.07102 0.0
C257 C 0.95634 0.42844 0.08448 0.0
C258 C 0.94593 0.3985 0.09839 0.0
O259 O 0.98424 0.34037 0.06242 0.0
C260 C 0.98373 0.36375 0.17453 0.0
O261 O 0.95466 0.35851 0.17689 0.0
H262 H 1.01007 0.41362 0.06029 0.0
H263 H 0.92491 0.38458 0.11422 0.0
N264 N 0.92709 0.31791 0.11271 0.0
N265 N 0.8901 0.27132 0.13565 0.0
C266 C 0.92143 0.2929 0.13336 0.0
C267 C 0.89845 0.31197 0.10122 0.0
C268 C 0.87558 0.28333 0.11541 0.0
C269 C 0.97434 0.34054 0.0308 0.0
O270 O 0.95263 0.34856 0.02606 0.0
H271 H 0.94005 0.29089 0.14678 0.0
H272 H 0.89449 0.32722 0.08352 0.0
O273 O 0.99428 0.36218 0.14399 0.0
H274 H 0.94479 0.44226 0.08765 0.0
H275 H 0.85028 0.27203 0.1106 0.0
Cu276 Cu 0.36606 0.42589 0.93292 0.0
N277 N 0.40255 0.46513 0.94349 0.0
N278 N 0.45172 0.50024 0.96309 0.0
C279 C 0.42861 0.46923 0.96112 0.0
C280 C 0.43954 0.51615 0.9459 0.0
C281 C 0.40934 0.49448 0.93379 0.0
O282 O 0.35649 0.3984 0.97388 0.0
C283 C 0.37488 0.41796 0.86063 0.0
O284 O 0.36766 0.44038 0.8568 0.0
H285 H 0.43078 0.44965 0.97145 0.0
H286 H 0.39365 0.49972 0.91852 0.0
N287 N 0.33008 0.42899 0.92268 0.0
N288 N 0.2809 0.41493 0.90396 0.0
C289 C 0.30367 0.40693 0.9052 0.0
C290 C 0.32384 0.4517 0.93304 0.0
C291 C 0.29365 0.44319 0.92147 0.0
C292 C 0.35739 0.40943 1.00509 0.0
O293 O 0.36505 0.43935 1.00875 0.0
H294 H 0.30099 0.38499 0.89456 0.0
H295 H 0.33987 0.47268 0.94853 0.0
O296 O 0.37525 0.40772 0.89188 0.0
H297 H 0.4515 0.54168 0.94228 0.0
H298 H 0.28204 0.45681 0.92577 0.0
Cu299 Cu 0.65009 0.97534 0.93067 0.0
N300 N 0.64627 0.93582 0.92093 0.0
N301 N 0.66064 0.90163 0.90072 0.0
C302 C 0.66684 0.93198 0.90079 0.0
C303 C 0.6348 0.88558 0.92151 0.0
C304 C 0.62608 0.90678 0.9341 0.0
O305 O 0.66548 1.00021 0.88715 0.0
C306 C 0.66702 0.98188 1.00232 0.0
O307 O 0.63764 0.95802 1.00387 0.0
H308 H 0.6863 0.95127 0.88676 0.0
H309 H 0.60705 0.9016 0.95243 0.0
N310 N 0.61167 0.97257 0.94274 0.0
N311 N 0.57921 0.98643 0.96876 0.0
C312 C 0.60957 0.99504 0.96155 0.0
C313 C 0.58159 0.94886 0.9374 0.0
C314 C 0.56149 0.95735 0.95339 0.0
C315 C 0.69402 1.0131 0.87659 0.0
O316 O 0.71557 1.013 0.89782 0.0
H317 H 0.63016 0.01721 0.97002 0.0
H318 H 0.57479 0.92673 0.92354 0.0
O319 O 0.67846 0.99386 0.97185 0.0
H320 H 0.62371 0.86061 0.9283 0.0
H321 H 0.5359 0.94277 0.95447 0.0
Cu322 Cu 0.08268 0.69029 0.93459 0.0
N323 N 0.08406 0.65337 0.9452 0.0
N324 N 0.06768 0.60463 0.96698 0.0
C325 C 0.06224 0.62916 0.96501 0.0
C326 C 0.09422 0.61393 0.94771 0.0
C327 C 0.10418 0.64395 0.93416 0.0
O328 O 0.06525 0.70019 0.97614 0.0
C329 C 0.03222 0.65743 0.88369 0.0
O330 O 1.01891 0.63589 0.90885 0.0
H331 H 0.0426 0.62961 0.9776 0.0
H332 H 0.12423 0.65759 0.91687 0.0
N333 N 0.12221 0.726 0.92531 0.0
N334 N 0.1563 0.77489 0.90522 0.0
C335 C 0.12557 0.75263 0.91027 0.0
C336 C 0.15187 0.73146 0.93017 0.0
C337 C 0.173 0.76163 0.91765 0.0
C338 C 0.07746 0.70051 1.00662 0.0
O339 O 0.10081 0.69453 1.00811 0.0
H340 H 0.10564 0.75525 0.90248 0.0
H341 H 0.15774 0.71475 0.94184 0.0
O342 O 0.05825 0.68286 0.89053 0.0
H343 H 0.10511 0.59972 0.94278 0.0
H344 H 0.19861 0.77299 0.918 0.0
Cu345 Cu 0.37467 0.97419 0.43515 0.0
N346 N 0.33623 0.93623 0.42567 0.0
N347 N 0.28763 0.90358 0.40261 0.0
C348 C 0.31234 0.93381 0.40492 0.0
C349 C 0.2964 0.88629 0.42288 0.0
C350 C 0.32635 0.90644 0.43697 0.0
O351 O 0.38467 0.99915 0.39164 0.0
C352 C 0.36403 0.97976 0.50661 0.0
O353 O 0.35927 0.95068 0.50578 0.0
H354 H 0.31297 0.95396 0.39203 0.0
H355 H 0.33999 0.8998 0.45411 0.0
N356 N 0.40848 0.96756 0.44523 0.0
N357 N 0.45588 0.97767 0.46619 0.0
C358 C 0.43499 0.98806 0.46364 0.0
C359 C 0.41258 0.94325 0.43567 0.0
C360 C 0.44177 0.9494 0.44855 0.0
C361 C 0.37085 1.01422 0.38227 0.0
O362 O 0.35146 1.01639 0.40477 0.0
H363 H 0.43905 1.01054 0.47426 0.0
H364 H 0.39567 0.92265 0.42024 0.0
O365 O 0.37033 0.99525 0.47739 0.0
H366 H 0.28246 0.8608 0.42679 0.0
H367 H 0.45166 0.93409 0.44529 0.0
Cu368 Cu 0.08667 0.41039 0.43794 0.0
N369 N 0.09024 0.44912 0.45134 0.0
N370 N 0.07641 0.48202 0.4767 0.0
C371 C 0.06923 0.45153 0.47229 0.0
C372 C 0.10302 0.4995 0.45746 0.0
C373 C 0.11148 0.47912 0.44181 0.0
O374 O 0.06965 0.3818 0.47816 0.0
C375 C 0.06908 0.40549 0.36629 0.0
O376 O 0.09892 0.42813 0.36357 0.0
H377 H 0.04861 0.43106 0.48338 0.0
H378 H 0.13143 0.48566 0.42442 0.0
N379 N 0.12495 0.41309 0.4255 0.0
N380 N 0.1572 0.39748 0.40272 0.0
C381 C 0.12686 0.39004 0.40771 0.0
C382 C 0.15511 0.43603 0.43227 0.0
C383 C 0.17509 0.42651 0.41812 0.0
C384 C 0.08228 0.39223 0.50887 0.0
O385 O 0.10624 0.42157 0.51189 0.0
H386 H 0.10621 0.36831 0.39833 0.0
H387 H 0.16207 0.45789 0.44679 0.0
O388 O 0.05825 0.39391 0.39698 0.0
H389 H 0.1156 0.52516 0.45495 0.0
H390 H 0.20074 0.43969 0.41975 0.0
Cu391 Cu 0.63702 0.68754 0.43426 0.0
N392 N 0.63649 0.72478 0.4232 0.0
N393 N 0.65222 0.77271 0.39944 0.0
C394 C 0.6583 0.74869 0.40305 0.0
C395 C 0.62555 0.76354 0.41844 0.0
C396 C 0.61593 0.73398 0.43306 0.0
O397 O 0.65377 0.67666 0.39303 0.0
C398 C 0.65188 0.69585 0.50735 0.0
O399 O 0.62267 0.69028 0.50913 0.0
H400 H 0.67844 0.74846 0.39153 0.0
H401 H 0.59539 0.72017 0.44964 0.0
N402 N 0.5968 0.65265 0.44375 0.0
N403 N 0.55985 0.60544 0.46542 0.0
C404 C 0.59118 0.62706 0.46325 0.0
C405 C 0.56813 0.64706 0.43285 0.0
C406 C 0.54529 0.61802 0.44625 0.0
C407 C 0.64289 0.67716 0.362 0.0
O408 O 0.62065 0.68465 0.3591 0.0
H409 H 0.60983 0.62473 0.47608 0.0
H410 H 0.56413 0.66289 0.4162 0.0
O411 O 0.66341 0.69594 0.47678 0.0
H412 H 0.61352 0.77693 0.42117 0.0
H413 H 0.51997 0.60692 0.44174 0.0
H414 H 0.02936 0.7489 0.1354 0.0
H415 H 0.07236 0.70509 0.19638 0.0
H416 H 0.08589 0.68819 0.14067 0.0
H417 H 0.08732 0.68778 0.07475 0.0
H418 H 0.04273 0.73003 1.01381 0.0
H419 H 0.0278 0.74551 0.06953 0.0
C420 C 0.04167 0.73561 0.13653 0.0
C421 C 0.05017 0.72855 0.17001 0.0
C422 C 0.04908 0.72575 0.10444 0.0
C423 C 0.06562 0.71087 0.171 0.0
C424 C 0.07342 0.70128 0.13914 0.0
C425 C 0.07426 0.70032 0.07362 0.0
C426 C 0.06641 0.70803 0.04014 0.0
C427 C 0.06556 0.7089 0.10574 0.0
C428 C 0.04908 0.72385 0.03919 0.0
C429 C 0.04064 0.73278 0.07105 0.0
H430 H 0.36936 0.42786 0.07491 0.0
H431 H 0.32664 0.34448 1.00644 0.0
H432 H 0.31049 0.31017 0.05906 0.0
H433 H 0.30714 0.30389 0.12437 0.0
H434 H 0.35122 0.38714 0.19297 0.0
H435 H 0.36833 0.42154 0.14033 0.0
C436 C 0.35654 0.40218 0.0715 0.0
C437 C 0.34899 0.38873 0.03685 0.0
C438 C 0.34756 0.38261 0.10184 0.0
C439 C 0.33273 0.35543 0.03284 0.0
C440 C 0.32342 0.33579 0.0629 0.0
C441 C 0.32051 0.32957 0.12781 0.0
C442 C 0.32768 0.34297 0.16248 0.0
C443 C 0.33047 0.34914 0.0975 0.0
C444 C 0.34539 0.37625 0.16653 0.0
C445 C 0.35511 0.39593 0.13647 0.0
H446 H 0.76491 0.03256 0.13174 0.0
H447 H 0.67794 0.99125 0.19172 0.0
H448 H 0.64717 0.97683 0.13576 0.0
H449 H 0.64493 0.97395 0.07002 0.0
H450 H 0.73174 1.0167 1.00974 0.0
H451 H 0.76272 0.03281 0.06573 0.0
C452 C 0.73921 0.02046 0.13258 0.0
C453 C 0.72371 1.01269 0.16587 0.0
C454 C 0.72171 1.0125 0.1003 0.0
C455 C 0.69044 0.99745 0.16649 0.0
C456 C 0.67284 0.98913 0.1345 0.0
C457 C 0.67065 0.98687 0.0691 0.0
C458 C 0.68605 0.99383 0.03579 0.0
C459 C 0.68822 0.99621 0.1013 0.0
C460 C 0.71935 1.01103 0.03504 0.0
C461 C 0.73705 0.02013 0.06703 0.0
H462 H 0.6974 0.08889 0.46768 0.0
H463 H 0.73594 0.04367 0.53379 0.0
H464 H 0.75117 0.0259 0.48001 0.0
H465 H 0.75564 0.02538 0.41433 0.0
H466 H 0.71576 0.06944 0.34838 0.0
H467 H 0.69881 0.08544 0.4021 0.0
C468 C 0.70905 0.07505 0.47037 0.0
C469 C 0.71582 0.06788 0.50472 0.0
C470 C 0.71757 0.06482 0.43939 0.0
C471 C 0.7305 0.04954 0.50769 0.0
C472 C 0.7393 0.03947 0.47695 0.0
C473 C 0.74318 0.03843 0.41169 0.0
C474 C 0.73726 0.0465 0.37738 0.0
C475 C 0.73331 0.04734 0.44268 0.0
C476 C 0.72067 0.06299 0.37443 0.0
C477 C 0.71104 0.07221 0.40515 0.0
H478 H 0.94476 0.62153 0.46935 0.0
H479 H 0.02851 0.70377 0.51247 0.0
H480 H 0.04386 0.72517 0.45174 0.0
H481 H 0.0327 0.7207 0.38644 0.0
H482 H 0.94833 0.63811 0.34468 0.0
H483 H 0.93422 0.61655 0.405 0.0
C484 C 0.96641 0.64419 0.46566 0.0
C485 C 0.98538 0.66109 0.49557 0.0
C486 C 0.97504 0.6562 0.43085 0.0
C487 C 1.0134 0.69032 0.49001 0.0
C488 C 1.02219 0.70251 0.45526 0.0
C489 C 1.01135 0.69786 0.39048 0.0
C490 C 0.9916 0.68106 0.36091 0.0
C491 C 1.00313 0.68567 0.42547 0.0
C492 C 0.96397 0.65159 0.36679 0.0
C493 C 0.95582 0.63925 0.40134 0.0
H494 H 0.43101 0.36079 0.4605 0.0
H495 H 0.34696 0.32158 0.52547 0.0
H496 H 0.31365 0.30546 0.47141 0.0
H497 H 0.30841 0.30119 0.40584 0.0
H498 H 0.39244 0.3422 0.34076 0.0
H499 H 0.42584 0.35908 0.39482 0.0
C500 C 0.4054 0.34874 0.46281 0.0
C501 C 0.39143 0.34214 0.49689 0.0
C502 C 0.38644 0.33986 0.43166 0.0
C503 C 0.35826 0.32692 0.49952 0.0
C504 C 0.3392 0.31763 0.46864 0.0
C505 C 0.33404 0.31384 0.40349 0.0
C506 C 0.34796 0.3202 0.36941 0.0
C507 C 0.35304 0.32375 0.43461 0.0
C508 C 0.38118 0.33702 0.36673 0.0
C509 C 0.40027 0.3466 0.39761 0.0
H510 H 0.03134 0.2903 0.91398 0.0
H511 H 0.99494 0.33513 0.84391 0.0
H512 H 0.97674 0.352 0.89576 0.0
H513 H 0.96973 0.3526 0.96077 0.0
H514 H 1.00746 0.30916 0.03102 0.0
H515 H 0.02665 0.29319 0.97923 0.0
C516 C 1.01949 0.30382 0.91005 0.0
C517 C 1.0143 0.31125 0.87514 0.0
C518 C 1.00926 0.3136 0.93997 0.0
C519 C 0.99923 0.3291 0.87051 0.0
C520 C 0.98873 0.33868 0.90013 0.0
C521 C 0.98215 0.33962 0.96476 0.0
C522 C 0.98693 0.33183 0.99965 0.0
C523 C 0.99336 0.3308 0.93494 0.0
C524 C 1.00344 0.31541 1.00442 0.0
C525 C 1.01437 0.30623 0.97483 0.0
H526 H 0.74234 0.67315 1.00119 0.0
H527 H 0.65742 0.67932 0.99431 0.0
H528 H 0.66827 0.69471 0.9313 0.0
H529 H 0.70237 0.70688 0.87802 0.0
H530 H 0.78814 0.70251 0.88661 0.0
H531 H 0.77617 0.68543 0.94883 0.0
C532 C 0.72619 0.67794 0.98602 0.0
C533 C 0.69913 0.67512 1.00257 0.0
C534 C 0.73256 0.68676 0.94989 0.0
C535 C 0.67855 0.68149 0.98238 0.0
C536 C 0.68463 0.69011 0.94625 0.0
C537 C 0.71812 0.70171 0.89344 0.0
C538 C 0.74594 0.70564 0.87771 0.0
C539 C 0.71153 0.69272 0.92966 0.0
C540 C 0.76654 0.69954 0.89814 0.0
C541 C 0.75978 0.6899 0.93375 0.0
H542 H 0.42989 0.087 0.96966 0.0
H543 H 0.34427 0.03935 0.0319 0.0
H544 H 0.31246 0.02097 0.97663 0.0
H545 H 0.30899 0.01998 0.91086 0.0
H546 H 0.39464 0.06643 0.84855 0.0
H547 H 0.42655 0.08359 0.90382 0.0
C548 C 0.40425 0.07259 0.97118 0.0
C549 C 0.38943 0.06482 1.00488 0.0
C550 C 0.38619 0.0619 0.93934 0.0
C551 C 0.35624 0.04572 1.00634 0.0
C552 C 0.33806 0.03526 0.97475 0.0
C553 C 0.33466 0.0338 0.9093 0.0
C554 C 0.34942 0.04215 0.87557 0.0
C555 C 0.35278 0.04344 0.94113 0.0
C556 C 0.38269 0.0597 0.87411 0.0
C557 C 0.40092 0.0696 0.90571 0.0
H558 H 0.37689 0.0603 0.64618 0.0
H559 H 0.33022 0.9662 0.69195 0.0
H560 H 0.33002 0.94316 0.63366 0.0
H561 H 0.34188 0.94941 0.56967 0.0
H562 H 0.38619 0.04283 0.5223 0.0
H563 H 0.38822 0.06645 0.5811 0.0
C564 C 0.36708 0.03481 0.64341 0.0
C565 C 0.35389 1.01499 0.67343 0.0
C566 C 0.36624 0.02158 0.60947 0.0
C567 C 0.34063 0.98195 0.66931 0.0
C568 C 0.34041 0.96875 0.63596 0.0
C569 C 0.35199 0.97497 0.5721 0.0
C570 C 0.36389 0.99431 0.54158 0.0
C571 C 0.35289 0.98829 0.60583 0.0
C572 C 0.37669 0.02735 0.5453 0.0
C573 C 0.37801 0.04089 0.57896 0.0
H574 H 0.02823 0.28803 0.62978 0.0
H575 H 0.07312 0.37221 0.69694 0.0
H576 H 0.08935 0.40588 0.64378 0.0
H577 H 0.09222 0.41134 0.57834 0.0
H578 H 0.04585 0.32734 0.51107 0.0
H579 H 0.02864 0.29359 0.56427 0.0
C580 C 0.04154 0.31375 0.63278 0.0
C581 C 0.0497 0.32761 0.66722 0.0
C582 C 0.05055 0.33295 0.60214 0.0
C583 C 0.06656 0.36096 0.67071 0.0
C584 C 0.07592 0.38023 0.64034 0.0
C585 C 0.07834 0.38564 0.57532 0.0
C586 C 0.07056 0.37182 0.54086 0.0
C587 C 0.06829 0.36647 0.60595 0.0
C588 C 0.05216 0.33853 0.53734 0.0
C589 C 0.04238 0.31924 0.56772 0.0
H590 H 0.63059 0.68253 0.57575 0.0
H591 H 0.71634 0.72445 0.51353 0.0
H592 H 0.74821 0.73877 0.56865 0.0
H593 H 0.75175 0.7414 0.63433 0.0
H594 H 0.66622 0.69806 0.69687 0.0
H595 H 0.6341 0.68202 0.64168 0.0
C596 C 0.65626 0.69474 0.57425 0.0
C597 C 0.6711 0.70271 0.54059 0.0
C598 C 0.6744 0.70264 0.60605 0.0
C599 C 0.70434 0.71809 0.53907 0.0
C600 C 0.72257 0.72635 0.57058 0.0
C601 C 0.72606 0.72837 0.63591 0.0
C602 C 0.71134 0.72122 0.66962 0.0
C603 C 0.70786 0.71907 0.60417 0.0
C604 C 0.67807 0.70387 0.67124 0.0
C605 C 0.65974 0.6948 0.63971 0.0
H606 H 0.36587 0.42608 0.79037 0.0
H607 H 0.40391 0.38262 0.86018 0.0
H608 H 0.42119 0.36503 0.80816 0.0
H609 H 0.42689 0.36335 0.74305 0.0
H610 H 0.38757 0.4054 0.67303 0.0
H611 H 0.3693 0.42213 0.72502 0.0
C612 C 0.37789 0.41271 0.79421 0.0
C613 C 0.3838 0.40587 0.8291 0.0
C614 C 0.38758 0.40249 0.76419 0.0
C615 C 0.39907 0.38821 0.83361 0.0
C616 C 0.40904 0.37821 0.80389 0.0
C617 C 0.41432 0.37618 0.73915 0.0
C618 C 0.40883 0.38337 0.70427 0.0
C619 C 0.40367 0.38546 0.76909 0.0
C620 C 0.39212 0.39961 0.69963 0.0
C621 C 0.38173 0.40923 0.72933 0.0
H622 H 0.74484 0.05466 0.71882 0.0
H623 H 0.64883 0.03434 0.70241 0.0
H624 H 0.63726 0.0202 0.76552 0.0
H625 H 0.65443 1.0141 0.82544 0.0
H626 H 0.75081 0.03566 0.84256 0.0
H627 H 0.76228 0.04923 0.77929 0.0
C628 C 0.72129 0.04678 0.72899 0.0
C629 C 0.69765 0.04529 0.70586 0.0
C630 C 0.71497 0.03931 0.76555 0.0
C631 C 0.66742 0.0356 0.71961 0.0
C632 C 0.66081 0.02761 0.75573 0.0
C633 C 0.67803 0.02194 0.81545 0.0
C634 C 0.70171 0.02386 0.83887 0.0
C635 C 0.68445 0.02959 0.779 0.0
C636 C 0.73213 0.03406 0.82529 0.0
C637 C 0.73868 0.04167 0.78901 0.0
H638 H 0.05892 0.6917 0.82275 0.0
H639 H 0.97569 0.60731 0.86111 0.0
H640 H 0.95518 0.59321 0.79994 0.0
H641 H 0.96129 0.60365 0.73585 0.0
H642 H 0.0441 0.68743 0.69601 0.0
H643 H 0.06443 0.7029 0.75761 0.0
C644 C 0.03616 0.67037 0.81777 0.0
C645 C 1.01889 0.65059 0.84664 0.0
C646 C 0.02456 0.66215 0.78229 0.0
C647 C 0.98952 0.62297 0.83957 0.0
C648 C 0.97778 0.61483 0.80453 0.0
C649 C 0.98385 0.62534 0.74044 0.0
C650 C 1.00123 0.64426 0.71121 0.0
C651 C 0.99523 0.63403 0.77572 0.0
C652 C 0.03029 0.67235 0.71793 0.0
C653 C 0.04187 0.68121 0.75317 0.0
H654 H 0.63607 0.69031 0.29287 0.0
H655 H 0.67587 0.64573 0.3581 0.0
H656 H 0.69236 0.62964 0.30412 0.0
H657 H 0.69371 0.62655 0.23857 0.0
H658 H 0.65556 0.67248 0.17306 0.0
H659 H 0.64029 0.68994 0.22711 0.0
C660 C 0.64839 0.67711 0.29528 0.0
C661 C 0.65446 0.66895 0.32946 0.0
C662 C 0.65804 0.66818 0.26414 0.0
C663 C 0.67087 0.65226 0.33214 0.0
C664 C 0.68023 0.64299 0.30128 0.0
C665 C 0.68208 0.64042 0.23608 0.0
C666 C 0.67545 0.64793 0.20185 0.0
C667 C 0.67364 0.65054 0.26718 0.0
C668 C 0.66085 0.66635 0.19909 0.0
C669 C 0.65205 0.67625 0.22998 0.0
H670 H 0.36214 0.06384 0.22853 0.0
H671 H 0.41766 0.02064 0.20137 0.0
H672 H 0.41664 1.00509 0.26387 0.0
H673 H 0.40067 1.00446 0.32637 0.0
H674 H 0.34552 0.04811 0.3534 0.0
H675 H 0.3461 0.06311 0.29085 0.0
C676 C 0.37379 0.05075 0.23613 0.0
C677 C 0.38984 0.0433 0.21015 0.0
C678 C 0.37352 0.04231 0.27222 0.0
C679 C 0.40504 0.02661 0.22071 0.0
C680 C 0.40459 0.01782 0.25651 0.0
C681 C 0.38896 0.01746 0.31868 0.0
C682 C 0.37319 0.02526 0.34471 0.0
C683 C 0.38913 0.02578 0.28254 0.0
C684 C 0.35794 0.04189 0.33407 0.0
C685 C 0.35814 0.05037 0.29823 0.0
H686 H 0.08775 0.41259 0.29714 0.0
H687 H 1.0043 0.37263 0.36312 0.0
H688 H 0.97046 0.35589 0.30941 0.0
H689 H 0.96476 0.35395 0.24376 0.0
H690 H 0.04823 0.39214 0.17792 0.0
H691 H 0.08196 0.40817 0.23163 0.0
C692 C 0.06215 0.40021 0.29976 0.0
C693 C 0.04853 0.39409 0.334 0.0
C694 C 0.0429 0.39038 0.26884 0.0
C695 C 1.01533 0.37762 0.33703 0.0
C696 C 0.99599 0.36812 0.30635 0.0
C697 C 0.99034 0.36577 0.24118 0.0
C698 C 1.00401 0.37209 0.20695 0.0
C699 C 1.00954 0.3746 0.27214 0.0
C700 C 0.03714 0.38701 0.20399 0.0
C701 C 0.05644 0.39625 0.23467 0.0
H702 H 0.23067 0.85092 0.41529 0.0
H703 H 0.27825 0.93081 0.34382 0.0
H704 H 0.22908 0.91239 0.30988 0.0
H705 H 0.17256 0.87295 0.29949 0.0
H706 H 0.12513 0.79309 0.37102 0.0
H707 H 0.17417 0.81179 0.40523 0.0
C708 C 0.23042 0.86421 0.39215 0.0
C709 C 0.25835 0.89233 0.38238 0.0
C710 C 0.20198 0.85337 0.37249 0.0
C711 C 0.25721 0.90937 0.35247 0.0
C712 C 0.22904 0.89873 0.33281 0.0
C713 C 0.17282 0.85977 0.32274 0.0
C714 C 0.14499 0.83147 0.33236 0.0
C715 C 0.20124 0.87075 0.34254 0.0
C716 C 0.14611 0.81461 0.36246 0.0
C717 C 0.1742 0.82541 0.38225 0.0
H718 H 0.1829 0.29542 0.3315 0.0
H719 H 0.27169 0.38013 0.30716 0.0
H720 H 0.25431 0.41289 0.33754 0.0
H721 H 0.21366 0.41781 0.37055 0.0
H722 H 0.12488 0.33312 0.39506 0.0
H723 H 0.14221 0.30035 0.36455 0.0
C724 C 0.19835 0.32105 0.33255 0.0
C725 C 0.22866 0.33511 0.31709 0.0
C726 C 0.18814 0.33991 0.35002 0.0
C727 C 0.24847 0.36844 0.31922 0.0
C728 C 0.23846 0.38731 0.33646 0.0
C729 C 0.19818 0.39218 0.36953 0.0
C730 C 0.16791 0.37813 0.38509 0.0
C731 C 0.20837 0.37332 0.35205 0.0
C732 C 0.14809 0.3448 0.38295 0.0
C733 C 0.15806 0.32593 0.36564 0.0
H734 H 0.73797 0.88673 0.29738 0.0
H735 H 0.7035 0.93427 0.36534 0.0
H736 H 0.67245 0.88547 0.39926 0.0
H737 H 0.65545 0.82929 0.41034 0.0
H738 H 0.68988 0.78173 0.34234 0.0
H739 H 0.72096 0.83054 0.30845 0.0
C740 C 0.72391 0.88654 0.31978 0.0
C741 C 0.72311 0.91429 0.32854 0.0
C742 C 0.70613 0.85832 0.33942 0.0
C743 C 0.7043 0.91329 0.35748 0.0
C744 C 0.68662 0.88536 0.37712 0.0
C745 C 0.66951 0.82947 0.38794 0.0
C746 C 0.67028 0.80171 0.37916 0.0
C747 C 0.68729 0.85769 0.36831 0.0
C748 C 0.6891 0.80271 0.35023 0.0
C749 C 0.70679 0.83065 0.3306 0.0
H750 H 0.80734 0.14551 0.22267 0.0
H751 H 0.89378 0.14223 0.2169 0.0
H752 H 0.91908 0.19209 0.18376 0.0
H753 H 0.9165 0.23625 0.15539 0.0
H754 H 0.83002 0.23947 0.1611 0.0
H755 H 0.80478 0.18969 0.19439 0.0
C756 C 0.83161 0.15546 0.21395 0.0
C757 C 0.84851 0.13989 0.22246 0.0
C758 C 0.84603 0.18414 0.1946 0.0
C759 C 0.8802 0.15369 0.21128 0.0
C760 C 0.89468 0.1822 0.19207 0.0
C761 C 0.89224 0.22631 0.16416 0.0
C762 C 0.8753 0.24181 0.15555 0.0
C763 C 0.87784 0.19765 0.18356 0.0
C764 C 0.84363 0.22804 0.16679 0.0
C765 C 0.82918 0.19958 0.18608 0.0
H766 H 0.83638 0.64698 0.13158 0.0
H767 H 0.78849 0.68193 0.19791 0.0
H768 H 0.837 0.71353 0.23314 0.0
H769 H 0.89298 0.7306 0.24602 0.0
H770 H 0.94071 0.6957 0.17925 0.0
H771 H 0.89233 0.66443 0.14399 0.0
C772 C 0.8364 0.66126 0.1539 0.0
C773 C 0.80861 0.66194 0.1619 0.0
C774 C 0.86445 0.67938 0.17423 0.0
C775 C 0.80947 0.68113 0.1907 0.0
C776 C 0.83724 0.69914 0.21106 0.0
C777 C 0.89294 0.71641 0.22359 0.0
C778 C 0.92065 0.7155 0.21567 0.0
C779 C 0.86491 0.69847 0.2031 0.0
C780 C 0.9198 0.69657 0.18658 0.0
C781 C 0.89209 0.67875 0.16615 0.0
H782 H 0.3084 0.17812 0.19636 0.0
H783 H 0.38986 0.26839 0.22679 0.0
H784 H 0.42506 0.25236 0.20049 0.0
H785 H 0.43315 0.2123 0.17025 0.0
H786 H 0.35202 0.12106 0.14202 0.0
H787 H 0.31656 0.13803 0.16551 0.0
C788 C 0.33384 0.19422 0.19743 0.0
C789 C 0.34627 0.2245 0.21357 0.0
C790 C 0.35416 0.18475 0.18241 0.0
C791 C 0.3794 0.24516 0.21417 0.0
C792 C 0.39967 0.23593 0.19927 0.0
C793 C 0.40774 0.19605 0.16928 0.0
C794 C 0.39553 0.1654 0.15429 0.0
C795 C 0.38736 0.20574 0.18348 0.0
C796 C 0.36236 0.14494 0.15282 0.0
C797 C 0.34194 0.15453 0.16663 0.0
H798 H 0.80411 0.14345 0.69156 0.0
H799 H 0.84039 0.22063 0.61572 0.0
H800 H 0.89311 0.24351 0.6427 0.0
H801 H 0.92951 0.24114 0.68703 0.0
H802 H 0.89324 0.16353 0.7622 0.0
H803 H 0.84035 0.141 0.73566 0.0
C804 C 0.8235 0.1651 0.6806 0.0
C805 C 0.81792 0.18013 0.65146 0.0
C806 C 0.85402 0.17804 0.69602 0.0
C807 C 0.84356 0.20859 0.63831 0.0
C808 C 0.87392 0.22166 0.65362 0.0
C809 C 0.91003 0.21945 0.69784 0.0
C810 C 0.9156 0.20411 0.72663 0.0
C811 C 0.87947 0.20658 0.68245 0.0
C812 C 0.88996 0.17571 0.73981 0.0
C813 C 0.85955 0.16287 0.72476 0.0
H814 H 0.8471 0.64137 0.63215 0.0
H815 H 0.93545 0.68736 0.69183 0.0
H816 H 0.91761 0.718 0.72581 0.0
H817 H 0.87678 0.73167 0.73924 0.0
H818 H 0.78813 0.68532 0.68037 0.0
H819 H 0.80593 0.65457 0.64615 0.0
C820 C 0.86237 0.65786 0.65277 0.0
C821 C 0.89274 0.66208 0.65902 0.0
C822 C 0.85183 0.67535 0.67261 0.0
C823 C 0.91223 0.68392 0.68575 0.0
C824 C 0.90196 0.70138 0.70548 0.0
C825 C 0.86145 0.71503 0.71875 0.0
C826 C 0.83112 0.71085 0.71253 0.0
C827 C 0.87186 0.69739 0.69907 0.0
C828 C 0.8114 0.68877 0.68615 0.0
C829 C 0.82164 0.67127 0.66638 0.0
H830 H 0.31939 0.16125 0.73586 0.0
H831 H 0.36431 0.11734 0.67915 0.0
H832 H 0.39436 0.16527 0.64408 0.0
H833 H 0.40985 0.22067 0.63075 0.0
H834 H 0.36727 0.26558 0.68984 0.0
H835 H 0.3348 0.21649 0.72258 0.0
C836 C 0.33581 0.16203 0.71603 0.0
C837 C 0.33934 0.13529 0.71067 0.0
C838 C 0.35376 0.19012 0.69625 0.0
C839 C 0.36048 0.13701 0.68405 0.0
C840 C 0.37806 0.1647 0.66399 0.0
C841 C 0.39368 0.21989 0.65094 0.0
C842 C 0.3912 0.24707 0.65758 0.0
C843 C 0.37521 0.19155 0.67015 0.0
C844 C 0.36957 0.24515 0.68358 0.0
C845 C 0.35102 0.21702 0.70258 0.0
H846 H 0.18734 0.90737 0.84272 0.0
H847 H 0.26865 0.9046 0.8032 0.0
H848 H 0.25022 0.85343 0.8321 0.0
H849 H 0.2105 0.80873 0.86796 0.0
H850 H 0.12885 0.81117 0.90661 0.0
H851 H 0.1476 0.8627 0.87826 0.0
C852 C 0.20092 0.8955 0.84008 0.0
C853 C 0.22948 0.91014 0.82079 0.0
C854 C 0.19004 0.86581 0.8566 0.0
C855 C 0.24687 0.89436 0.81823 0.0
C856 C 0.23624 0.8649 0.83464 0.0
C857 C 0.19698 0.82067 0.87046 0.0
C858 C 0.16823 0.80593 0.88935 0.0
C859 C 0.20789 0.85039 0.85396 0.0
C860 C 0.15081 0.82165 0.89187 0.0
C861 C 0.1616 0.85125 0.87577 0.0
H862 H 0.13758 0.34662 0.85428 0.0
H863 H 0.17006 0.29955 0.78274 0.0
H864 H 0.22334 0.33002 0.80848 0.0
H865 H 0.26119 0.37068 0.85076 0.0
H866 H 0.22867 0.41766 0.92239 0.0
H867 H 0.17542 0.38724 0.89661 0.0
C868 C 0.15632 0.34317 0.84406 0.0
C869 C 0.14952 0.32061 0.81654 0.0
C870 C 0.18713 0.36097 0.8589 0.0
C871 C 0.17424 0.31629 0.80416 0.0
C872 C 0.20489 0.33391 0.81875 0.0
C873 C 0.24246 0.37412 0.861 0.0
C874 C 0.24925 0.39665 0.88855 0.0
C875 C 0.21164 0.35631 0.84616 0.0
C876 C 0.22452 0.40096 0.90094 0.0
C877 C 0.19388 0.38336 0.88633 0.0
H878 H 0.75873 0.87241 0.82753 0.0
H879 H 0.67609 0.77813 0.8223 0.0
H880 H 0.64478 0.7973 0.85223 0.0
H881 H 0.64038 0.84114 0.87908 0.0
H882 H 0.72315 0.93536 0.88415 0.0
H883 H 0.75442 0.91608 0.85453 0.0
C884 C 0.73383 0.85608 0.83265 0.0
C885 C 0.71999 0.82381 0.82266 0.0
C886 C 0.71577 0.86731 0.84973 0.0
C887 C 0.68768 0.80297 0.83008 0.0
C888 C 0.66961 0.81397 0.84705 0.0
C889 C 0.6653 0.85741 0.87397 0.0
C890 C 0.67915 0.88975 0.8837 0.0
C891 C 0.68338 0.8461 0.85701 0.0
C892 C 0.71151 0.9105 0.87646 0.0
C893 C 0.72958 0.89944 0.85968 0.0
H894 H 0.47779 0.47823 0.55045 0.0
H895 H 0.56455 0.47567 0.54331 0.0
H896 H 0.58945 0.52586 0.51077 0.0
H897 H 0.58648 0.57019 0.48352 0.0
H898 H 0.49976 0.57282 0.49083 0.0
H899 H 0.47483 0.52256 0.52318 0.0
C900 C 0.50203 0.4884 0.54152 0.0
C901 C 0.51916 0.47296 0.54949 0.0
C902 C 0.51623 0.5173 0.52257 0.0
C903 C 0.55081 0.48704 0.53809 0.0
C904 C 0.56506 0.51573 0.51923 0.0
C905 C 0.56223 0.56001 0.49242 0.0
C906 C 0.54514 0.57552 0.48455 0.0
C907 C 0.54802 0.5311 0.51134 0.0
C908 C 0.51348 0.56142 0.49594 0.0
C909 C 0.49921 0.53268 0.51471 0.0
H910 H 0.59681 0.03767 0.52267 0.0
H911 H 0.56657 0.08915 0.59035 0.0
H912 H 0.51396 0.06106 0.56271 0.0
H913 H 0.47619 0.0217 0.51958 0.0
H914 H 0.50614 0.97021 0.45154 0.0
H915 H 0.55869 0.9978 0.47967 0.0
C916 C 0.57868 0.04258 0.53163 0.0
C917 C 0.58596 0.06575 0.55857 0.0
C918 C 0.5482 0.02615 0.51565 0.0
C919 C 0.56205 0.07193 0.56937 0.0
C920 C 0.53177 0.05568 0.55369 0.0
C921 C 0.49421 1.01664 0.5106 0.0
C922 C 0.48695 0.99381 0.48328 0.0
C923 C 0.52458 0.03283 0.52672 0.0
C924 C 0.5107 0.9873 0.47268 0.0
C925 C 0.54093 1.00326 0.48865 0.0
H926 H 0.07423 0.53587 0.4662 0.0
H927 H 0.03862 0.45308 0.53368 0.0
H928 H 1.00748 0.47051 0.56725 0.0
H929 H 0.99052 0.50953 0.57798 0.0
H930 H 0.02629 0.59241 0.51065 0.0
H931 H 0.0575 0.57502 0.47712 0.0
C932 C 0.05992 0.52178 0.48845 0.0
C933 C 0.05878 0.49308 0.49715 0.0
C934 C 0.04208 0.53203 0.50785 0.0
C935 C 0.03968 0.47499 0.52589 0.0
C936 C 1.02193 0.48503 0.5453 0.0
C937 C 1.00492 0.52366 0.5558 0.0
C938 C 1.00604 0.55233 0.54706 0.0
C939 C 1.02284 0.51346 0.53646 0.0
C940 C 0.02525 0.5705 0.51843 0.0
C941 C 0.04303 0.56048 0.49905 0.0
H942 H 0.47034 0.47473 1.01589 0.0
H943 H 0.50453 0.55599 0.94612 0.0
H944 H 0.55728 0.57901 0.97294 0.0
H945 H 0.59408 0.57616 1.01581 0.0
H946 H 0.56031 0.49513 0.0858 0.0
H947 H 0.50749 0.47168 0.05863 0.0
C948 C 0.48934 0.49732 1.00628 0.0
C949 C 0.48313 0.51354 0.97898 0.0
C950 C 0.51991 0.51047 0.02174 0.0
C951 C 0.5082 0.54308 0.96737 0.0
C952 C 0.53857 0.55623 0.98257 0.0
C953 C 0.57518 0.55351 0.02543 0.0
C954 C 0.58142 0.53759 0.05302 0.0
C955 C 0.5447 0.54021 1.00984 0.0
C956 C 0.55652 0.50788 0.06444 0.0
C957 C 0.52615 0.49449 0.04902 0.0
H958 H 0.52101 0.98061 0.96691 0.0
H959 H 0.61294 0.03222 1.01885 0.0
H960 H 0.59555 0.06285 0.05351 0.0
H961 H 0.55421 0.075 0.06974 0.0
H962 H 0.46201 0.02302 1.01881 0.0
H963 H 0.47928 0.99214 0.98396 0.0
C964 C 0.5372 0.99833 0.98599 0.0
C965 C 0.56841 1.0041 0.98979 0.0
C966 C 0.52693 1.01578 1.00633 0.0
C967 C 0.58903 0.02752 1.01458 0.0
C968 C 0.57902 0.04498 0.03474 0.0
C969 C 0.53796 0.05708 0.05086 0.0
C970 C 0.50684 0.05142 0.04703 0.0
C971 C 0.54808 0.03941 0.03077 0.0
C972 C 0.48596 0.02768 0.02275 0.0
C973 C 0.49589 1.0101 1.00259 0.0
H974 H 0.08641 0.565 0.99364 0.0
H975 H 1.0046 0.57574 0.97985 0.0
H976 H 0.97153 0.5253 1.01004 0.0
H977 H 0.96544 0.47766 0.03982 0.0
H978 H 0.04721 0.46689 0.05421 0.0
H979 H 0.08028 0.51719 0.02372 0.0
C980 C 0.06132 0.55621 0.99699 0.0
C981 C 0.04819 0.57442 0.98456 0.0
C982 C 0.04225 0.52695 1.01437 0.0
C983 C 1.0156 0.56268 0.98959 0.0
C984 C 0.99654 0.53363 1.00669 0.0
C985 C 0.99052 0.48636 0.03664 0.0
C986 C 1.00359 0.46818 0.04937 0.0
C987 C 1.0096 0.51558 1.01928 0.0
C988 C 0.03619 0.47989 0.04435 0.0
C989 C 0.05527 0.50888 0.02705 0.0
loop_
_geom_bond_atom_site_label_1
_geom_bond_atom_site_label_2
_geom_bond_distance
_geom_bond_site_symmetry_2
_ccdc_geom_bond_type
Cu0 N1 1.999 . S
Cu0 O6 1.971 1_455 S
Cu0 N11 1.985 1_455 S
Cu0 O20 1.959 . S
N1 Cu0 1.999 . S
N1 C3 1.263 . S
N1 C5 1.389 . S
N2 C3 1.358 . S
N2 C4 1.400 . S
C3 N1 1.263 . S
C3 N2 1.358 . S
C3 H9 0.930 . S
C4 N2 1.400 . S
C4 C5 1.351 . S
C4 H21 0.930 . S
C5 N1 1.389 . S
C5 C4 1.351 . S
C5 H10 0.930 . S
O6 Cu0 1.971 1_655 S
O6 C16 1.275 . S
C7 O8 1.261 . S
C7 O20 1.251 . S
O8 C7 1.261 . S
H9 C3 0.930 . S
H10 C5 0.930 . S
N11 Cu0 1.985 1_655 S
N11 C13 1.335 . S
N11 C14 1.390 . S
N12 C13 1.345 . S
N12 C15 1.336 . S
C13 N11 1.335 . S
C13 N12 1.345 . S
C13 H18 0.930 . S
C14 N11 1.390 . S
C14 C15 1.346 . S
C14 H19 0.930 . S
C15 N12 1.336 . S
C15 C14 1.346 . S
C15 H22 0.929 . S
C16 O6 1.275 . S
C16 O17 1.216 . S
O17 C16 1.216 . S
H18 C13 0.930 . S
H19 C14 0.930 . S
O20 Cu0 1.959 . S
O20 C7 1.251 . S
H21 C4 0.930 . S
H22 C15 0.929 . S
Cu23 N24 1.999 . S
Cu23 O29 1.974 . S
Cu23 N34 1.985 . S
Cu23 O43 1.959 . S
N24 Cu23 1.999 . S
N24 C26 1.263 . S
N24 C28 1.389 . S
N25 C26 1.358 . S
N25 C27 1.400 . S
C26 N24 1.263 . S
C26 N25 1.358 . S
C26 H32 0.930 . S
C27 N25 1.400 . S
C27 C28 1.351 . S
C27 H44 0.930 . S
C28 N24 1.389 . S
C28 C27 1.351 . S
C28 H33 0.930 . S
O29 Cu23 1.974 . S
O29 C39 1.282 . S
C30 O31 1.261 . S
C30 O43 1.251 . S
O31 C30 1.261 . S
H32 C26 0.930 . S
H33 C28 0.930 . S
N34 Cu23 1.985 . S
N34 C36 1.335 . S
N34 C37 1.390 . S
N35 C36 1.345 . S
N35 C38 1.336 . S
C36 N34 1.335 . S
C36 N35 1.345 . S
C36 H41 0.930 . S
C37 N34 1.390 . S
C37 C38 1.346 . S
C37 H42 0.930 . S
C38 N35 1.336 . S
C38 C37 1.346 . S
C38 H45 0.929 . S
C39 O29 1.282 . S
C39 O40 1.216 . S
O40 C39 1.216 . S
H41 C36 0.930 . S
H42 C37 0.930 . S
O43 Cu23 1.959 . S
O43 C30 1.251 . S
H44 C27 0.930 . S
H45 C38 0.929 . S
Cu46 N47 1.999 1_545 S
Cu46 O52 1.974 . S
Cu46 N57 1.985 . S
Cu46 O66 1.959 1_545 S
N47 Cu46 1.999 1_565 S
N47 C49 1.263 . S
N47 C51 1.389 . S
N48 C49 1.358 . S
N48 C50 1.400 . S
C49 N47 1.263 . S
C49 N48 1.358 . S
C49 H55 0.930 . S
C50 N48 1.400 . S
C50 C51 1.351 . S
C50 H67 0.930 . S
C51 N47 1.389 . S
C51 C50 1.351 . S
C51 H56 0.930 . S
O52 Cu46 1.974 . S
O52 C62 1.282 . S
C53 O54 1.261 . S
C53 O66 1.251 . S
O54 C53 1.261 . S
H55 C49 0.930 . S
H56 C51 0.930 . S
N57 Cu46 1.985 . S
N57 C59 1.335 . S
N57 C60 1.390 . S
N58 C59 1.345 . S
N58 C61 1.336 . S
C59 N57 1.335 . S
C59 N58 1.345 . S
C59 H64 0.930 . S
C60 N57 1.390 . S
C60 C61 1.346 . S
C60 H65 0.930 . S
C61 N58 1.336 . S
C61 C60 1.346 . S
C61 H68 0.929 . S
C62 O52 1.282 . S
C62 O63 1.216 . S
O63 C62 1.216 . S
H64 C59 0.930 . S
H65 C60 0.930 . S
O66 Cu46 1.959 1_565 S
O66 C53 1.251 . S
H67 C50 0.930 . S
H68 C61 0.929 . S
Cu69 N70 1.999 1_455 S
Cu69 O75 1.974 . S
Cu69 N80 1.985 . S
Cu69 O89 1.961 . S
N70 Cu69 1.999 1_655 S
N70 C72 1.263 . S
N70 C74 1.389 . S
N71 C72 1.358 . S
N71 C73 1.400 . S
C72 N70 1.263 . S
C72 N71 1.358 . S
C72 H78 0.930 . S
C73 N71 1.400 . S
C73 C74 1.351 . S
C73 H90 0.930 . S
C74 N70 1.389 . S
C74 C73 1.351 . S
C74 H79 0.930 . S
O75 Cu69 1.974 . S
O75 C85 1.282 . S
C76 O77 1.261 . S
C76 O89 1.246 1_655 S
O77 C76 1.261 . S
H78 C72 0.930 . S
H79 C74 0.930 . S
N80 Cu69 1.985 . S
N80 C82 1.335 . S
N80 C83 1.390 . S
N81 C82 1.345 . S
N81 C84 1.336 . S
C82 N80 1.335 . S
C82 N81 1.345 . S
C82 H87 0.930 . S
C83 N80 1.390 . S
C83 C84 1.346 . S
C83 H88 0.930 . S
C84 N81 1.336 . S
C84 C83 1.346 . S
C84 H91 0.929 . S
C85 O75 1.282 . S
C85 O86 1.216 . S
O86 C85 1.216 . S
H87 C82 0.930 . S
H88 C83 0.930 . S
O89 Cu69 1.961 . S
O89 C76 1.246 1_455 S
H90 C73 0.930 . S
H91 C84 0.929 . S
Cu92 N93 1.999 . S
Cu92 O98 1.974 . S
Cu92 N103 1.985 . S
Cu92 O112 1.959 . S
N93 Cu92 1.999 . S
N93 C95 1.263 . S
N93 C97 1.389 . S
N94 C95 1.358 . S
N94 C96 1.400 . S
C95 N93 1.263 . S
C95 N94 1.358 . S
C95 H101 0.930 . S
C96 N94 1.400 . S
C96 C97 1.351 . S
C96 H113 0.930 . S
C97 N93 1.389 . S
C97 C96 1.351 . S
C97 H102 0.930 . S
O98 Cu92 1.974 . S
O98 C108 1.282 . S
C99 O100 1.261 . S
C99 O112 1.251 . S
O100 C99 1.261 . S
H101 C95 0.930 . S
H102 C97 0.930 . S
N103 Cu92 1.985 . S
N103 C105 1.335 . S
N103 C106 1.390 . S
N104 C105 1.345 . S
N104 C107 1.336 . S
C105 N103 1.335 . S
C105 N104 1.345 . S
C105 H110 0.930 . S
C106 N103 1.390 . S
C106 C107 1.346 . S
C106 H111 0.930 . S
C107 N104 1.336 . S
C107 C106 1.346 . S
C107 H114 0.929 . S
C108 O98 1.282 . S
C108 O109 1.216 . S
O109 C108 1.216 . S
H110 C105 0.930 . S
H111 C106 0.930 . S
O112 Cu92 1.959 . S
O112 C99 1.251 . S
H113 C96 0.930 . S
H114 C107 0.929 . S
Cu115 N116 1.999 . S
Cu115 O121 1.974 1_545 S
Cu115 N126 1.985 1_545 S
Cu115 O135 1.959 . S
N116 Cu115 1.999 . S
N116 C118 1.263 . S
N116 C120 1.389 . S
N117 C118 1.358 . S
N117 C119 1.400 . S
C118 N116 1.263 . S
C118 N117 1.358 . S
C118 H124 0.930 . S
C119 N117 1.400 . S
C119 C120 1.351 . S
C119 H136 0.930 . S
C120 N116 1.389 . S
C120 C119 1.351 . S
C120 H125 0.930 . S
O121 Cu115 1.974 1_565 S
O121 C131 1.282 . S
C122 O123 1.261 . S
C122 O135 1.251 . S
O123 C122 1.261 . S
H124 C118 0.930 . S
H125 C120 0.930 . S
N126 Cu115 1.985 1_565 S
N126 C128 1.335 . S
N126 C129 1.390 . S
N127 C128 1.345 . S
N127 C130 1.336 . S
C128 N126 1.335 . S
C128 N127 1.345 . S
C128 H133 0.930 . S
C129 N126 1.390 . S
C129 C130 1.346 . S
C129 H134 0.930 . S
C130 N127 1.336 . S
C130 C129 1.346 . S
C130 H137 0.929 . S
C131 O121 1.282 . S
C131 O132 1.216 . S
O132 C131 1.216 . S
H133 C128 0.930 . S
H134 C129 0.930 . S
O135 Cu115 1.959 . S
O135 C122 1.251 . S
H136 C119 0.930 . S
H137 C130 0.929 . S
Cu138 N139 1.999 . S
Cu138 O144 1.974 . S
Cu138 N149 1.985 . S
Cu138 O158 1.959 . S
N139 Cu138 1.999 . S
N139 C141 1.263 . S
N139 C143 1.389 . S
N140 C141 1.358 . S
N140 C142 1.400 . S
C141 N139 1.263 . S
C141 N140 1.358 . S
C141 H147 0.930 . S
C142 N140 1.400 . S
C142 C143 1.351 . S
C142 H159 0.930 . S
C143 N139 1.389 . S
C143 C142 1.351 . S
C143 H148 0.930 . S
O144 Cu138 1.974 . S
O144 C154 1.282 . S
C145 O146 1.261 . S
C145 O158 1.251 . S
O146 C145 1.261 . S
H147 C141 0.930 . S
H148 C143 0.930 . S
N149 Cu138 1.985 . S
N149 C151 1.335 . S
N149 C152 1.390 . S
N150 C151 1.345 . S
N150 C153 1.336 . S
C151 N149 1.335 . S
C151 N150 1.345 . S
C151 H156 0.930 . S
C152 N149 1.390 . S
C152 C153 1.346 . S
C152 H157 0.930 . S
C153 N150 1.336 . S
C153 C152 1.346 . S
C153 H160 0.929 . S
C154 O144 1.282 . S
C154 O155 1.216 . S
O155 C154 1.216 . S
H156 C151 0.930 . S
H157 C152 0.930 . S
O158 Cu138 1.959 . S
O158 C145 1.251 . S
H159 C142 0.930 . S
H160 C153 0.929 . S
Cu161 N162 1.999 . S
Cu161 O167 1.974 . S
Cu161 N172 1.985 . S
Cu161 O181 1.959 . S
N162 Cu161 1.999 . S
N162 C164 1.263 . S
N162 C166 1.389 . S
N163 C164 1.358 . S
N163 C165 1.400 . S
C164 N162 1.263 . S
C164 N163 1.358 . S
C164 H170 0.930 . S
C165 N163 1.400 . S
C165 C166 1.351 . S
C165 H182 0.930 . S
C166 N162 1.389 . S
C166 C165 1.351 . S
C166 H171 0.930 . S
O167 Cu161 1.974 . S
O167 C177 1.282 . S
C168 O169 1.261 . S
C168 O181 1.251 . S
O169 C168 1.261 . S
H170 C164 0.930 . S
H171 C166 0.930 . S
N172 Cu161 1.985 . S
N172 C174 1.335 . S
N172 C175 1.390 . S
N173 C174 1.345 . S
N173 C176 1.336 . S
C174 N172 1.335 . S
C174 N173 1.345 . S
C174 H179 0.930 . S
C175 N172 1.390 . S
C175 C176 1.346 . S
C175 H180 0.930 . S
C176 N173 1.336 . S
C176 C175 1.346 . S
C176 H183 0.929 . S
C177 O167 1.282 . S
C177 O178 1.216 . S
O178 C177 1.216 . S
H179 C174 0.930 . S
H180 C175 0.930 . S
O181 Cu161 1.959 . S
O181 C168 1.251 . S
H182 C165 0.930 . S
H183 C176 0.929 . S
Cu184 N185 1.999 . S
Cu184 O190 1.974 . S
Cu184 N195 1.985 . S
Cu184 O204 1.959 . S
N185 Cu184 1.999 . S
N185 C187 1.263 . S
N185 C189 1.389 . S
N186 C187 1.358 . S
N186 C188 1.400 . S
C187 N185 1.263 . S
C187 N186 1.358 . S
C187 H193 0.930 . S
C188 N186 1.400 . S
C188 C189 1.351 . S
C188 H205 0.930 . S
C189 N185 1.389 . S
C189 C188 1.351 . S
C189 H194 0.930 . S
O190 Cu184 1.974 . S
O190 C200 1.282 . S
C191 O192 1.261 . S
C191 O204 1.251 . S
O192 C191 1.261 . S
H193 C187 0.930 . S
H194 C189 0.930 . S
N195 Cu184 1.985 . S
N195 C197 1.335 . S
N195 C198 1.390 . S
N196 C197 1.345 . S
N196 C199 1.336 . S
C197 N195 1.335 . S
C197 N196 1.345 . S
C197 H202 0.930 . S
C198 N195 1.390 . S
C198 C199 1.346 . S
C198 H203 0.930 . S
C199 N196 1.336 . S
C199 C198 1.346 . S
C199 H206 0.929 . S
C200 O190 1.282 . S
C200 O201 1.216 . S
O201 C200 1.216 . S
H202 C197 0.930 . S
H203 C198 0.930 . S
O204 Cu184 1.959 . S
O204 C191 1.251 . S
H205 C188 0.930 . S
H206 C199 0.929 . S
Cu207 N208 1.999 . S
Cu207 O213 1.974 . S
Cu207 N218 1.985 . S
Cu207 O227 1.959 . S
N208 Cu207 1.999 . S
N208 C210 1.263 . S
N208 C212 1.389 . S
N209 C210 1.358 . S
N209 C211 1.400 . S
C210 N208 1.263 . S
C210 N209 1.358 . S
C210 H216 0.930 . S
C211 N209 1.400 . S
C211 C212 1.351 . S
C211 H228 0.930 . S
C212 N208 1.389 . S
C212 C211 1.351 . S
C212 H217 0.930 . S
O213 Cu207 1.974 . S
O213 C223 1.282 . S
C214 O215 1.261 . S
C214 O227 1.251 . S
O215 C214 1.261 . S
H216 C210 0.930 . S
H217 C212 0.930 . S
N218 Cu207 1.985 . S
N218 C220 1.335 . S
N218 C221 1.390 . S
N219 C220 1.345 . S
N219 C222 1.336 . S
C220 N218 1.335 . S
C220 N219 1.345 . S
C220 H225 0.930 . S
C221 N218 1.390 . S
C221 C222 1.346 . S
C221 H226 0.930 . S
C222 N219 1.336 . S
C222 C221 1.346 . S
C222 H229 0.929 . S
C223 O213 1.282 . S
C223 O224 1.216 . S
O224 C223 1.216 . S
H225 C220 0.930 . S
H226 C221 0.930 . S
O227 Cu207 1.959 . S
O227 C214 1.251 . S
H228 C211 0.930 . S
H229 C222 0.929 . S
Cu230 N231 1.999 . S
Cu230 O236 1.974 . S
Cu230 N241 1.985 . S
Cu230 O250 1.959 . S
N231 Cu230 1.999 . S
N231 C233 1.263 . S
N231 C235 1.389 . S
N232 C233 1.358 . S
N232 C234 1.400 . S
C233 N231 1.263 . S
C233 N232 1.358 . S
C233 H239 0.930 . S
C234 N232 1.400 . S
C234 C235 1.351 . S
C234 H251 0.930 . S
C235 N231 1.389 . S
C235 C234 1.351 . S
C235 H240 0.930 . S
O236 Cu230 1.974 . S
O236 C246 1.282 . S
C237 O238 1.261 . S
C237 O250 1.251 . S
O238 C237 1.261 . S
H239 C233 0.930 . S
H240 C235 0.930 . S
N241 Cu230 1.985 . S
N241 C243 1.335 . S
N241 C244 1.390 . S
N242 C243 1.345 . S
N242 C245 1.336 . S
C243 N241 1.335 . S
C243 N242 1.345 . S
C243 H248 0.930 . S
C244 N241 1.390 . S
C244 C245 1.346 . S
C244 H249 0.930 . S
C245 N242 1.336 . S
C245 C244 1.346 . S
C245 H252 0.929 . S
C246 O236 1.282 . S
C246 O247 1.216 . S
O247 C246 1.216 . S
H248 C243 0.930 . S
H249 C244 0.930 . S
O250 Cu230 1.959 . S
O250 C237 1.251 . S
H251 C234 0.930 . S
H252 C245 0.929 . S
Cu253 N254 1.999 . S
Cu253 O259 1.974 . S
Cu253 N264 1.985 . S
Cu253 O273 1.959 . S
N254 Cu253 1.999 . S
N254 C256 1.263 . S
N254 C258 1.389 . S
N255 C256 1.358 . S
N255 C257 1.400 . S
C256 N254 1.263 . S
C256 N255 1.358 . S
C256 H262 0.930 . S
C257 N255 1.400 . S
C257 C258 1.351 . S
C257 H274 0.930 . S
C258 N254 1.389 . S
C258 C257 1.351 . S
C258 H263 0.930 . S
O259 Cu253 1.974 . S
O259 C269 1.282 . S
C260 O261 1.261 . S
C260 O273 1.251 . S
O261 C260 1.261 . S
H262 C256 0.930 . S
H263 C258 0.930 . S
N264 Cu253 1.985 . S
N264 C266 1.335 . S
N264 C267 1.390 . S
N265 C266 1.345 . S
N265 C268 1.336 . S
C266 N264 1.335 . S
C266 N265 1.345 . S
C266 H271 0.930 . S
C267 N264 1.390 . S
C267 C268 1.346 . S
C267 H272 0.930 . S
C268 N265 1.336 . S
C268 C267 1.346 . S
C268 H275 0.929 . S
C269 O259 1.282 . S
C269 O270 1.216 . S
O270 C269 1.216 . S
H271 C266 0.930 . S
H272 C267 0.930 . S
O273 Cu253 1.959 . S
O273 C260 1.251 . S
H274 C257 0.930 . S
H275 C268 0.929 . S
Cu276 N277 1.999 . S
Cu276 O282 1.974 . S
Cu276 N287 1.985 . S
Cu276 O296 1.959 . S
N277 Cu276 1.999 . S
N277 C279 1.263 . S
N277 C281 1.389 . S
N278 C279 1.358 . S
N278 C280 1.400 . S
C279 N277 1.263 . S
C279 N278 1.358 . S
C279 H285 0.930 . S
C280 N278 1.400 . S
C280 C281 1.351 . S
C280 H297 0.930 . S
C281 N277 1.389 . S
C281 C280 1.351 . S
C281 H286 0.930 . S
O282 Cu276 1.974 . S
O282 C292 1.282 . S
C283 O284 1.261 . S
C283 O296 1.251 . S
O284 C283 1.261 . S
H285 C279 0.930 . S
H286 C281 0.930 . S
N287 Cu276 1.985 . S
N287 C289 1.335 . S
N287 C290 1.390 . S
N288 C289 1.345 . S
N288 C291 1.336 . S
C289 N287 1.335 . S
C289 N288 1.345 . S
C289 H294 0.930 . S
C290 N287 1.390 . S
C290 C291 1.346 . S
C290 H295 0.930 . S
C291 N288 1.336 . S
C291 C290 1.346 . S
C291 H298 0.929 . S
C292 O282 1.282 . S
C292 O293 1.216 . S
O293 C292 1.216 . S
H294 C289 0.930 . S
H295 C290 0.930 . S
O296 Cu276 1.959 . S
O296 C283 1.251 . S
H297 C280 0.930 . S
H298 C291 0.929 . S
Cu299 N300 1.999 . S
Cu299 O305 1.974 . S
Cu299 N310 1.985 . S
Cu299 O319 1.959 . S
N300 Cu299 1.999 . S
N300 C302 1.263 . S
N300 C304 1.389 . S
N301 C302 1.358 . S
N301 C303 1.400 . S
C302 N300 1.263 . S
C302 N301 1.358 . S
C302 H308 0.930 . S
C303 N301 1.400 . S
C303 C304 1.351 . S
C303 H320 0.930 . S
C304 N300 1.389 . S
C304 C303 1.351 . S
C304 H309 0.930 . S
O305 Cu299 1.974 . S
O305 C315 1.282 . S
C306 O307 1.261 . S
C306 O319 1.251 . S
O307 C306 1.261 . S
H308 C302 0.930 . S
H309 C304 0.930 . S
N310 Cu299 1.985 . S
N310 C312 1.335 . S
N310 C313 1.390 . S
N311 C312 1.345 . S
N311 C314 1.336 1_565 S
C312 N310 1.335 . S
C312 N311 1.345 . S
C312 H317 0.930 . S
C313 N310 1.390 . S
C313 C314 1.346 1_565 S
C313 H318 0.930 . S
C314 N311 1.336 1_545 S
C314 C313 1.346 1_545 S
C314 H321 0.929 . S
C315 O305 1.282 . S
C315 O316 1.216 . S
O316 C315 1.216 . S
H317 C312 0.930 . S
H318 C313 0.930 . S
O319 Cu299 1.959 . S
O319 C306 1.251 . S
H320 C303 0.930 . S
H321 C314 0.929 . S
Cu322 N323 1.999 . S
Cu322 O328 1.974 . S
Cu322 N333 1.985 . S
Cu322 O342 1.959 . S
N323 Cu322 1.999 . S
N323 C325 1.263 . S
N323 C327 1.389 . S
N324 C325 1.358 . S
N324 C326 1.400 . S
C325 N323 1.263 . S
C325 N324 1.358 . S
C325 H331 0.930 . S
C326 N324 1.400 . S
C326 C327 1.351 . S
C326 H343 0.930 . S
C327 N323 1.389 . S
C327 C326 1.351 . S
C327 H332 0.930 . S
O328 Cu322 1.974 . S
O328 C338 1.282 . S
C329 O330 1.261 . S
C329 O342 1.251 . S
O330 C329 1.261 . S
H331 C325 0.930 . S
H332 C327 0.930 . S
N333 Cu322 1.985 . S
N333 C335 1.335 . S
N333 C336 1.390 . S
N334 C335 1.345 . S
N334 C337 1.336 . S
C335 N333 1.335 . S
C335 N334 1.345 . S
C335 H340 0.930 . S
C336 N333 1.390 . S
C336 C337 1.346 . S
C336 H341 0.930 . S
C337 N334 1.336 . S
C337 C336 1.346 . S
C337 H344 0.929 . S
C338 O328 1.282 . S
C338 O339 1.216 . S
O339 C338 1.216 . S
H340 C335 0.930 . S
H341 C336 0.930 . S
O342 Cu322 1.959 . S
O342 C329 1.251 . S
H343 C326 0.930 . S
H344 C337 0.929 . S
Cu345 N346 1.999 . S
Cu345 O351 1.974 . S
Cu345 N356 1.985 . S
Cu345 O365 1.959 . S
N346 Cu345 1.999 . S
N346 C348 1.263 . S
N346 C350 1.389 . S
N347 C348 1.358 . S
N347 C349 1.400 . S
C348 N346 1.263 . S
C348 N347 1.358 . S
C348 H354 0.930 . S
C349 N347 1.400 . S
C349 C350 1.351 . S
C349 H366 0.930 . S
C350 N346 1.389 . S
C350 C349 1.351 . S
C350 H355 0.930 . S
O351 Cu345 1.974 . S
O351 C361 1.282 . S
C352 O353 1.261 . S
C352 O365 1.251 . S
O353 C352 1.261 . S
H354 C348 0.930 . S
H355 C350 0.930 . S
N356 Cu345 1.985 . S
N356 C358 1.335 . S
N356 C359 1.390 . S
N357 C358 1.345 . S
N357 C360 1.336 1_565 S
C358 N356 1.335 . S
C358 N357 1.345 . S
C358 H363 0.930 . S
C359 N356 1.390 . S
C359 C360 1.346 1_565 S
C359 H364 0.930 . S
C360 N357 1.336 1_545 S
C360 C359 1.346 1_545 S
C360 H367 0.929 . S
C361 O351 1.282 . S
C361 O362 1.216 . S
O362 C361 1.216 . S
H363 C358 0.930 . S
H364 C359 0.930 . S
O365 Cu345 1.959 . S
O365 C352 1.251 . S
H366 C349 0.930 . S
H367 C360 0.929 . S
Cu368 N369 1.999 . S
Cu368 O374 1.974 . S
Cu368 N379 1.985 . S
Cu368 O388 1.959 . S
N369 Cu368 1.999 . S
N369 C371 1.263 . S
N369 C373 1.389 . S
N370 C371 1.358 . S
N370 C372 1.400 . S
C371 N369 1.263 . S
C371 N370 1.358 . S
C371 H377 0.930 . S
C372 N370 1.400 . S
C372 C373 1.351 . S
C372 H389 0.930 . S
C373 N369 1.389 . S
C373 C372 1.351 . S
C373 H378 0.930 . S
O374 Cu368 1.974 . S
O374 C384 1.282 . S
C375 O376 1.261 . S
C375 O388 1.251 . S
O376 C375 1.261 . S
H377 C371 0.930 . S
H378 C373 0.930 . S
N379 Cu368 1.985 . S
N379 C381 1.335 . S
N379 C382 1.390 . S
N380 C381 1.345 . S
N380 C383 1.336 . S
C381 N379 1.335 . S
C381 N380 1.345 . S
C381 H386 0.930 . S
C382 N379 1.390 . S
C382 C383 1.346 . S
C382 H387 0.930 . S
C383 N380 1.336 . S
C383 C382 1.346 . S
C383 H390 0.929 . S
C384 O374 1.282 . S
C384 O385 1.216 . S
O385 C384 1.216 . S
H386 C381 0.930 . S
H387 C382 0.930 . S
O388 Cu368 1.959 . S
O388 C375 1.251 . S
H389 C372 0.930 . S
H390 C383 0.929 . S
Cu391 N392 1.999 . S
Cu391 O397 1.974 . S
Cu391 N402 1.985 . S
Cu391 O411 1.959 . S
N392 Cu391 1.999 . S
N392 C394 1.263 . S
N392 C396 1.389 . S
N393 C394 1.358 . S
N393 C395 1.400 . S
C394 N392 1.263 . S
C394 N393 1.358 . S
C394 H400 0.930 . S
C395 N393 1.400 . S
C395 C396 1.351 . S
C395 H412 0.930 . S
C396 N392 1.389 . S
C396 C395 1.351 . S
C396 H401 0.930 . S
O397 Cu391 1.974 . S
O397 C407 1.282 . S
C398 O399 1.261 . S
C398 O411 1.251 . S
O399 C398 1.261 . S
H400 C394 0.930 . S
H401 C396 0.930 . S
N402 Cu391 1.985 . S
N402 C404 1.335 . S
N402 C405 1.390 . S
N403 C404 1.345 . S
N403 C406 1.336 . S
C404 N402 1.335 . S
C404 N403 1.345 . S
C404 H409 0.930 . S
C405 N402 1.390 . S
C405 C406 1.346 . S
C405 H410 0.930 . S
C406 N403 1.336 . S
C406 C405 1.346 . S
C406 H413 0.929 . S
C407 O397 1.282 . S
C407 O408 1.216 . S
O408 C407 1.216 . S
H409 C404 0.930 . S
H410 C405 0.930 . S
O411 Cu391 1.959 . S
O411 C398 1.251 . S
H412 C395 0.930 . S
H413 C406 0.929 . S
H414 C420 0.930 . S
H415 C423 0.930 . S
H416 C424 0.930 . S
H417 C425 0.930 . S
H418 C428 0.930 . S
H419 C429 0.930 . S
C420 H414 0.930 . S
C420 C421 1.355 . S
C420 C422 1.415 . S
C421 C420 1.355 . S
C421 C423 1.419 1_455 S
C422 C420 1.415 . S
C422 C427 1.425 . S
C422 C429 1.409 . S
C423 H415 0.930 . S
C423 C421 1.419 1_655 S
C423 C424 1.362 . S
C424 H416 0.930 . S
C424 C423 1.362 . S
C424 C427 1.409 1_655 S
C425 H417 0.930 . S
C425 C426 1.355 . S
C425 C427 1.415 . S
C426 C425 1.355 . S
C426 C428 1.419 . S
C427 C422 1.425 . S
C427 C424 1.409 1_455 S
C427 C425 1.415 . S
C428 H418 0.930 . S
C428 C426 1.419 . S
C428 C429 1.362 . S
C429 H419 0.930 . S
C429 C422 1.409 . S
C429 C428 1.362 . S
H430 C436 0.930 . S
H431 C439 0.930 . S
H432 C440 0.930 . S
H433 C441 0.930 . S
H434 C444 0.930 . S
H435 C445 0.930 . S
C436 H430 0.930 . S
C436 C437 1.355 . S
C436 C438 1.415 . S
C437 C436 1.355 . S
C437 C439 1.419 . S
C438 C436 1.415 . S
C438 C443 1.425 . S
C438 C445 1.409 . S
C439 H431 0.930 . S
C439 C437 1.419 . S
C439 C440 1.362 . S
C440 H432 0.930 . S
C440 C439 1.362 . S
C440 C443 1.409 . S
C441 H433 0.930 . S
C441 C442 1.355 . S
C441 C443 1.415 . S
C442 C441 1.355 . S
C442 C444 1.419 . S
C443 C438 1.425 . S
C443 C440 1.409 . S
C443 C441 1.415 . S
C444 H434 0.930 . S
C444 C442 1.419 . S
C444 C445 1.362 . S
C445 H435 0.930 . S
C445 C438 1.409 . S
C445 C444 1.362 . S
H446 C452 0.930 . S
H447 C455 0.930 . S
H448 C456 0.930 . S
H449 C457 0.918 1_545 S
H450 C460 0.930 . S
H451 C461 0.930 . S
C452 H446 0.930 . S
C452 C453 1.355 . S
C452 C454 1.415 . S
C453 C452 1.355 . S
C453 C455 1.419 1_565 S
C454 C452 1.415 . S
C454 C459 1.425 . S
C454 C461 1.409 . S
C455 H447 0.930 . S
C455 C453 1.419 1_545 S
C455 C456 1.362 . S
C456 H448 0.930 . S
C456 C455 1.362 . S
C456 C459 1.409 1_545 S
C457 H449 0.918 1_565 S
C457 C458 1.355 . S
C457 C459 1.415 . S
C458 C457 1.355 . S
C458 C460 1.419 . S
C459 C454 1.425 . S
C459 C456 1.409 1_565 S
C459 C457 1.415 . S
C460 H450 0.930 . S
C460 C458 1.419 . S
C460 C461 1.362 . S
C461 H451 0.930 . S
C461 C454 1.409 . S
C461 C460 1.362 . S
H462 C468 0.930 . S
H463 C471 0.930 . S
H464 C472 0.930 . S
H465 C473 0.930 . S
H466 C476 0.930 . S
H467 C477 0.930 . S
C468 H462 0.930 . S
C468 C469 1.355 . S
C468 C470 1.415 . S
C469 C468 1.355 . S
C469 C471 1.419 . S
C470 C468 1.415 . S
C470 C475 1.425 . S
C470 C477 1.409 . S
C471 H463 0.930 . S
C471 C469 1.419 . S
C471 C472 1.362 . S
C472 H464 0.930 . S
C472 C471 1.362 . S
C472 C475 1.409 . S
C473 H465 0.930 . S
C473 C474 1.355 . S
C473 C475 1.415 . S
C474 C473 1.355 . S
C474 C476 1.419 . S
C475 C470 1.425 . S
C475 C472 1.409 . S
C475 C473 1.415 . S
C476 H466 0.930 . S
C476 C474 1.419 . S
C476 C477 1.362 . S
C477 H467 0.930 . S
C477 C470 1.409 . S
C477 C476 1.362 . S
H478 C484 0.930 . S
H479 C487 0.930 . S
H480 C488 0.930 . S
H481 C489 0.930 . S
H482 C492 0.930 1_455 S
H483 C493 0.930 . S
C484 H478 0.930 . S
C484 C485 1.355 . S
C484 C486 1.415 . S
C485 C484 1.355 . S
C485 C487 1.419 . S
C486 C484 1.415 . S
C486 C491 1.425 . S
C486 C493 1.409 . S
C487 H479 0.930 . S
C487 C485 1.419 . S
C487 C488 1.362 . S
C488 H480 0.930 . S
C488 C487 1.362 . S
C488 C491 1.409 . S
C489 H481 0.930 . S
C489 C490 1.355 . S
C489 C491 1.415 . S
C490 C489 1.355 . S
C490 C492 1.419 . S
C491 C486 1.425 . S
C491 C488 1.409 . S
C491 C489 1.415 . S
C492 H482 0.930 1_655 S
C492 C490 1.419 . S
C492 C493 1.362 . S
C493 H483 0.930 . S
C493 C486 1.409 . S
C493 C492 1.362 . S
H494 C500 0.930 . S
H495 C503 0.930 . S
H496 C504 0.930 . S
H497 C505 0.930 . S
H498 C508 0.930 . S
H499 C509 0.930 . S
C500 H494 0.930 . S
C500 C501 1.355 . S
C500 C502 1.415 . S
C501 C500 1.355 . S
C501 C503 1.419 . S
C502 C500 1.415 . S
C502 C507 1.425 . S
C502 C509 1.409 . S
C503 H495 0.930 . S
C503 C501 1.419 . S
C503 C504 1.362 . S
C504 H496 0.930 . S
C504 C503 1.362 . S
C504 C507 1.409 . S
C505 H497 0.930 . S
C505 C506 1.355 . S
C505 C507 1.415 . S
C506 C505 1.355 . S
C506 C508 1.419 . S
C507 C502 1.425 . S
C507 C504 1.409 . S
C507 C505 1.415 . S
C508 H498 0.930 . S
C508 C506 1.419 . S
C508 C509 1.362 . S
C509 H499 0.930 . S
C509 C502 1.409 . S
C509 C508 1.362 . S
H510 C516 0.930 . S
H511 C519 0.930 . S
H512 C520 0.930 . S
H513 C521 0.930 . S
H514 C524 0.930 . S
H515 C525 0.930 . S
C516 H510 0.930 . S
C516 C517 1.355 . S
C516 C518 1.415 . S
C517 C516 1.355 . S
C517 C519 1.419 1_655 S
C518 C516 1.415 . S
C518 C523 1.425 . S
C518 C525 1.409 . S
C519 H511 0.930 . S
C519 C517 1.419 1_455 S
C519 C520 1.362 . S
C520 H512 0.930 . S
C520 C519 1.362 . S
C520 C523 1.409 1_455 S
C521 H513 0.930 . S
C521 C522 1.355 . S
C521 C523 1.415 . S
C522 C521 1.355 . S
C522 C524 1.419 . S
C523 C518 1.425 . S
C523 C520 1.409 1_655 S
C523 C521 1.415 . S
C524 H514 0.930 . S
C524 C522 1.419 . S
C524 C525 1.362 . S
C525 H515 0.930 . S
C525 C518 1.409 . S
C525 C524 1.362 . S
H526 C532 0.930 . S
H527 C535 0.930 1_554 S
H528 C536 0.930 . S
H529 C537 0.930 . S
H530 C540 0.930 . S
H531 C541 0.930 . S
C532 H526 0.930 . S
C532 C533 1.355 . S
C532 C534 1.415 . S
C533 C532 1.355 . S
C533 C535 1.419 . S
C534 C532 1.415 . S
C534 C539 1.425 . S
C534 C541 1.409 . S
C535 H527 0.930 1_556 S
C535 C533 1.419 . S
C535 C536 1.362 . S
C536 H528 0.930 . S
C536 C535 1.362 . S
C536 C539 1.409 . S
C537 H529 0.930 . S
C537 C538 1.355 . S
C537 C539 1.415 . S
C538 C537 1.355 . S
C538 C540 1.419 . S
C539 C534 1.425 . S
C539 C536 1.409 . S
C539 C537 1.415 . S
C540 H530 0.930 . S
C540 C538 1.419 . S
C540 C541 1.362 . S
C541 H531 0.930 . S
C541 C534 1.409 . S
C541 C540 1.362 . S
H542 C548 0.930 . S
H543 C551 0.930 . S
H544 C552 0.930 1_565 S
H545 C553 0.930 1_565 S
H546 C556 0.930 . S
H547 C557 0.930 . S
C548 H542 0.930 . S
C548 C549 1.355 . S
C548 C550 1.415 . S
C549 C548 1.355 . S
C549 C551 1.419 . S
C550 C548 1.415 . S
C550 C555 1.425 . S
C550 C557 1.409 . S
C551 H543 0.930 . S
C551 C549 1.419 . S
C551 C552 1.362 . S
C552 H544 0.930 1_545 S
C552 C551 1.362 . S
C552 C555 1.409 . S
C553 H545 0.930 1_545 S
C553 C554 1.355 . S
C553 C555 1.415 . S
C554 C553 1.355 . S
C554 C556 1.419 . S
C555 C550 1.425 . S
C555 C552 1.409 . S
C555 C553 1.415 . S
C556 H546 0.930 . S
C556 C554 1.419 . S
C556 C557 1.362 . S
C557 H547 0.930 . S
C557 C550 1.409 . S
C557 C556 1.362 . S
H558 C564 0.930 1_545 S
H559 C567 0.930 . S
H560 C568 0.930 . S
H561 C569 0.930 . S
H562 C572 0.930 . S
H563 C573 0.930 1_545 S
C564 H558 0.930 1_565 S
C564 C565 1.355 . S
C564 C566 1.415 . S
C565 C564 1.355 . S
C565 C567 1.419 . S
C566 C564 1.415 . S
C566 C571 1.425 . S
C566 C573 1.409 . S
C567 H559 0.930 . S
C567 C565 1.419 . S
C567 C568 1.362 . S
C568 H560 0.930 . S
C568 C567 1.362 . S
C568 C571 1.409 . S
C569 H561 0.930 . S
C569 C570 1.355 . S
C569 C571 1.415 . S
C570 C569 1.355 . S
C570 C572 1.419 . S
C571 C566 1.425 . S
C571 C568 1.409 . S
C571 C569 1.415 . S
C572 H562 0.930 . S
C572 C570 1.419 . S
C572 C573 1.362 . S
C573 H563 0.930 1_565 S
C573 C566 1.409 . S
C573 C572 1.362 . S
H574 C580 0.930 . S
H575 C583 0.930 . S
H576 C584 0.952 . S
H577 C585 0.930 . S
H578 C588 0.930 . S
H579 C589 0.930 . S
C580 H574 0.930 . S
C580 C581 1.355 . S
C580 C582 1.415 . S
C581 C580 1.355 . S
C581 C583 1.419 1_455 S
C582 C580 1.415 . S
C582 C587 1.425 . S
C582 C589 1.409 . S
C583 H575 0.930 . S
C583 C581 1.419 1_655 S
C583 C584 1.358 . S
C584 H576 0.952 . S
C584 C583 1.358 . S
C584 C587 1.392 1_655 S
C585 H577 0.930 . S
C585 C586 1.355 . S
C585 C587 1.415 . S
C586 C585 1.355 . S
C586 C588 1.419 . S
C587 C582 1.425 . S
C587 C584 1.392 1_455 S
C587 C585 1.415 . S
C588 H578 0.930 . S
C588 C586 1.419 . S
C588 C589 1.362 . S
C589 H579 0.930 . S
C589 C582 1.409 . S
C589 C588 1.362 . S
H590 C596 0.930 . S
H591 C599 0.930 . S
H592 C600 0.930 . S
H593 C601 0.930 . S
H594 C604 0.930 . S
H595 C605 0.930 . S
C596 H590 0.930 . S
C596 C597 1.355 . S
C596 C598 1.415 . S
C597 C596 1.355 . S
C597 C599 1.419 . S
C598 C596 1.415 . S
C598 C603 1.425 . S
C598 C605 1.409 . S
C599 H591 0.930 . S
C599 C597 1.419 . S
C599 C600 1.362 . S
C600 H592 0.930 . S
C600 C599 1.362 . S
C600 C603 1.409 . S
C601 H593 0.930 . S
C601 C602 1.355 . S
C601 C603 1.415 . S
C602 C601 1.355 . S
C602 C604 1.419 . S
C603 C598 1.425 . S
C603 C600 1.409 . S
C603 C601 1.415 . S
C604 H594 0.930 . S
C604 C602 1.419 . S
C604 C605 1.362 . S
C605 H595 0.930 . S
C605 C598 1.409 . S
C605 C604 1.362 . S
H606 C612 0.930 . S
H607 C615 0.930 . S
H608 C616 0.930 . S
H609 C617 0.930 . S
H610 C620 0.930 . S
H611 C621 0.930 . S
C612 H606 0.930 . S
C612 C613 1.355 . S
C612 C614 1.415 . S
C613 C612 1.355 . S
C613 C615 1.419 . S
C614 C612 1.415 . S
C614 C619 1.425 . S
C614 C621 1.409 . S
C615 H607 0.930 . S
C615 C613 1.419 . S
C615 C616 1.362 . S
C616 H608 0.930 . S
C616 C615 1.362 . S
C616 C619 1.409 . S
C617 H609 0.930 . S
C617 C618 1.355 . S
C617 C619 1.415 . S
C618 C617 1.355 . S
C618 C620 1.419 . S
C619 C614 1.425 . S
C619 C616 1.409 . S
C619 C617 1.415 . S
C620 H610 0.930 . S
C620 C618 1.419 . S
C620 C621 1.362 . S
C621 H611 0.930 . S
C621 C614 1.409 . S
C621 C620 1.362 . S
H622 C628 0.930 . S
H623 C631 0.930 . S
H624 C632 0.930 . S
H625 C633 0.930 . S
H626 C636 0.930 . S
H627 C637 0.930 . S
C628 H622 0.930 . S
C628 C629 1.355 . S
C628 C630 1.415 . S
C629 C628 1.355 . S
C629 C631 1.419 1_545 S
C630 C628 1.415 . S
C630 C635 1.425 1_545 S
C630 C637 1.409 . S
C631 H623 0.930 . S
C631 C629 1.419 1_565 S
C631 C632 1.362 . S
C632 H624 0.930 . S
C632 C631 1.362 . S
C632 C635 1.409 . S
C633 H625 0.930 . S
C633 C634 1.355 . S
C633 C635 1.415 . S
C634 C633 1.355 . S
C634 C636 1.419 1_565 S
C635 C630 1.425 1_565 S
C635 C632 1.409 . S
C635 C633 1.415 . S
C636 H626 0.930 . S
C636 C634 1.419 1_545 S
C636 C637 1.362 . S
C637 H627 0.930 . S
C637 C630 1.409 . S
C637 C636 1.362 . S
H638 C644 0.930 . S
H639 C647 0.930 1_655 S
H640 C648 0.930 . S
H641 C649 0.930 . S
H642 C652 0.930 . S
H643 C653 0.930 . S
C644 H638 0.930 . S
C644 C645 1.355 . S
C644 C646 1.415 . S
C645 C644 1.355 . S
C645 C647 1.419 . S
C646 C644 1.415 . S
C646 C651 1.425 1_455 S
C646 C653 1.409 . S
C647 H639 0.930 1_455 S
C647 C645 1.419 . S
C647 C648 1.362 1_455 S
C648 H640 0.930 . S
C648 C647 1.362 1_655 S
C648 C651 1.409 . S
C649 H641 0.930 . S
C649 C650 1.355 . S
C649 C651 1.415 . S
C650 C649 1.355 . S
C650 C652 1.419 1_655 S
C651 C646 1.425 1_655 S
C651 C648 1.409 . S
C651 C649 1.415 . S
C652 H642 0.930 . S
C652 C650 1.419 1_455 S
C652 C653 1.362 . S
C653 H643 0.930 . S
C653 C646 1.409 . S
C653 C652 1.362 . S
H654 C660 0.930 . S
H655 C663 0.930 . S
H656 C664 0.930 . S
H657 C665 0.930 . S
H658 C668 0.930 . S
H659 C669 0.930 . S
C660 H654 0.930 . S
C660 C661 1.355 . S
C660 C662 1.415 . S
C661 C660 1.355 . S
C661 C663 1.419 . S
C662 C660 1.415 . S
C662 C667 1.425 . S
C662 C669 1.409 . S
C663 H655 0.930 . S
C663 C661 1.419 . S
C663 C664 1.362 . S
C664 H656 0.930 . S
C664 C663 1.362 . S
C664 C667 1.409 . S
C665 H657 0.930 . S
C665 C666 1.355 . S
C665 C667 1.415 . S
C666 C665 1.355 . S
C666 C668 1.419 . S
C667 C662 1.425 . S
C667 C664 1.409 . S
C667 C665 1.415 . S
C668 H658 0.930 . S
C668 C666 1.419 . S
C668 C669 1.362 . S
C669 H659 0.930 . S
C669 C662 1.409 . S
C669 C668 1.362 . S
H670 C676 0.930 . S
H671 C679 0.930 1_565 S
H672 C680 0.930 . S
H673 C681 0.930 . S
H674 C684 0.930 . S
H675 C685 0.930 . S
C676 H670 0.930 . S
C676 C677 1.355 . S
C676 C678 1.415 . S
C677 C676 1.355 . S
C677 C679 1.419 . S
C678 C676 1.415 . S
C678 C683 1.425 1_545 S
C678 C685 1.409 . S
C679 H671 0.930 1_545 S
C679 C677 1.419 . S
C679 C680 1.362 1_545 S
C680 H672 0.930 . S
C680 C679 1.362 1_565 S
C680 C683 1.409 . S
C681 H673 0.930 . S
C681 C682 1.355 . S
C681 C683 1.415 . S
C682 C681 1.355 . S
C682 C684 1.419 1_565 S
C683 C678 1.425 1_565 S
C683 C680 1.409 . S
C683 C681 1.415 . S
C684 H674 0.930 . S
C684 C682 1.419 1_545 S
C684 C685 1.362 . S
C685 H675 0.930 . S
C685 C678 1.409 . S
C685 C684 1.362 . S
H686 C692 0.930 . S
H687 C695 0.930 . S
H688 C696 0.930 . S
H689 C697 0.930 1_455 S
H690 C700 0.930 . S
H691 C701 0.930 . S
C692 H686 0.930 . S
C692 C693 1.355 . S
C692 C694 1.415 . S
C693 C692 1.355 . S
C693 C695 1.419 . S
C694 C692 1.415 . S
C694 C699 1.425 . S
C694 C701 1.409 1_455 S
C695 H687 0.930 . S
C695 C693 1.419 . S
C695 C696 1.362 . S
C696 H688 0.930 . S
C696 C695 1.362 . S
C696 C699 1.409 . S
C697 H689 0.930 1_655 S
C697 C698 1.355 . S
C697 C699 1.415 1_655 S
C698 C697 1.355 . S
C698 C700 1.419 . S
C699 C694 1.425 . S
C699 C696 1.409 . S
C699 C697 1.415 1_455 S
C700 H690 0.930 . S
C700 C698 1.419 . S
C700 C701 1.362 . S
C701 H691 0.930 . S
C701 C694 1.409 1_655 S
C701 C700 1.362 . S
H702 C708 0.930 . S
H703 C711 0.930 . S
H704 C712 0.930 . S
H705 C713 0.930 . S
H706 C716 0.930 . S
H707 C717 0.930 . S
C708 H702 0.930 . S
C708 C709 1.355 . S
C708 C710 1.415 . S
C709 C708 1.355 . S
C709 C711 1.419 . S
C710 C708 1.415 . S
C710 C715 1.425 . S
C710 C717 1.409 . S
C711 H703 0.930 . S
C711 C709 1.419 . S
C711 C712 1.362 . S
C712 H704 0.930 . S
C712 C711 1.362 . S
C712 C715 1.409 . S
C713 H705 0.930 . S
C713 C714 1.355 . S
C713 C715 1.415 . S
C714 C713 1.355 . S
C714 C716 1.419 . S
C715 C710 1.425 . S
C715 C712 1.409 . S
C715 C713 1.415 . S
C716 H706 0.930 . S
C716 C714 1.419 . S
C716 C717 1.362 . S
C717 H707 0.930 . S
C717 C710 1.409 . S
C717 C716 1.362 . S
H718 C724 0.930 . S
H719 C727 0.930 . S
H720 C728 0.930 . S
H721 C729 0.930 . S
H722 C732 0.930 . S
H723 C733 0.930 . S
C724 H718 0.930 . S
C724 C725 1.355 . S
C724 C726 1.415 . S
C725 C724 1.355 . S
C725 C727 1.419 . S
C726 C724 1.415 . S
C726 C731 1.425 . S
C726 C733 1.409 . S
C727 H719 0.930 . S
C727 C725 1.419 . S
C727 C728 1.362 . S
C728 H720 0.930 . S
C728 C727 1.362 . S
C728 C731 1.409 . S
C729 H721 0.930 . S
C729 C730 1.355 . S
C729 C731 1.415 . S
C730 C729 1.355 . S
C730 C732 1.419 . S
C731 C726 1.425 . S
C731 C728 1.409 . S
C731 C729 1.415 . S
C732 H722 0.930 . S
C732 C730 1.419 . S
C732 C733 1.362 . S
C733 H723 0.930 . S
C733 C726 1.409 . S
C733 C732 1.362 . S
H734 C740 0.930 . S
H735 C743 0.930 . S
H736 C744 0.930 . S
H737 C745 0.930 . S
H738 C748 0.930 . S
H739 C749 0.930 . S
C740 H734 0.930 . S
C740 C741 1.355 . S
C740 C742 1.415 . S
C741 C740 1.355 . S
C741 C743 1.419 . S
C742 C740 1.415 . S
C742 C747 1.425 . S
C742 C749 1.409 . S
C743 H735 0.930 . S
C743 C741 1.419 . S
C743 C744 1.362 . S
C744 H736 0.930 . S
C744 C743 1.362 . S
C744 C747 1.409 . S
C745 H737 0.930 . S
C745 C746 1.355 . S
C745 C747 1.415 . S
C746 C745 1.355 . S
C746 C748 1.419 . S
C747 C742 1.425 . S
C747 C744 1.409 . S
C747 C745 1.415 . S
C748 H738 0.930 . S
C748 C746 1.419 . S
C748 C749 1.362 . S
C749 H739 0.930 . S
C749 C742 1.409 . S
C749 C748 1.362 . S
H750 C756 0.930 . S
H751 C759 0.930 . S
H752 C760 0.930 . S
H753 C761 0.930 . S
H754 C764 0.930 . S
H755 C765 0.930 . S
C756 H750 0.930 . S
C756 C757 1.355 . S
C756 C758 1.415 . S
C757 C756 1.355 . S
C757 C759 1.419 . S
C758 C756 1.415 . S
C758 C763 1.425 . S
C758 C765 1.409 . S
C759 H751 0.930 . S
C759 C757 1.419 . S
C759 C760 1.362 . S
C760 H752 0.930 . S
C760 C759 1.362 . S
C760 C763 1.409 . S
C761 H753 0.930 . S
C761 C762 1.355 . S
C761 C763 1.415 . S
C762 C761 1.355 . S
C762 C764 1.419 . S
C763 C758 1.425 . S
C763 C760 1.409 . S
C763 C761 1.415 . S
C764 H754 0.930 . S
C764 C762 1.419 . S
C764 C765 1.362 . S
C765 H755 0.930 . S
C765 C758 1.409 . S
C765 C764 1.362 . S
H766 C772 0.930 . S
H767 C775 0.930 . S
H768 C776 0.930 . S
H769 C777 0.930 . S
H770 C780 0.930 . S
H771 C781 0.930 . S
C772 H766 0.930 . S
C772 C773 1.355 . S
C772 C774 1.415 . S
C773 C772 1.355 . S
C773 C775 1.419 . S
C774 C772 1.415 . S
C774 C779 1.425 . S
C774 C781 1.409 . S
C775 H767 0.930 . S
C775 C773 1.419 . S
C775 C776 1.362 . S
C776 H768 0.930 . S
C776 C775 1.362 . S
C776 C779 1.409 . S
C777 H769 0.930 . S
C777 C778 1.355 . S
C777 C779 1.415 . S
C778 C777 1.355 . S
C778 C780 1.419 . S
C779 C774 1.425 . S
C779 C776 1.409 . S
C779 C777 1.415 . S
C780 H770 0.930 . S
C780 C778 1.419 . S
C780 C781 1.362 . S
C781 H771 0.930 . S
C781 C774 1.409 . S
C781 C780 1.362 . S
H782 C788 0.930 . S
H783 C791 0.930 . S
H784 C792 0.930 . S
H785 C793 0.930 . S
H786 C796 0.930 . S
H787 C797 0.930 . S
C788 H782 0.930 . S
C788 C789 1.355 . S
C788 C790 1.415 . S
C789 C788 1.355 . S
C789 C791 1.419 . S
C790 C788 1.415 . S
C790 C795 1.425 . S
C790 C797 1.409 . S
C791 H783 0.930 . S
C791 C789 1.419 . S
C791 C792 1.362 . S
C792 H784 0.930 . S
C792 C791 1.362 . S
C792 C795 1.409 . S
C793 H785 0.930 . S
C793 C794 1.355 . S
C793 C795 1.415 . S
C794 C793 1.355 . S
C794 C796 1.419 . S
C795 C790 1.425 . S
C795 C792 1.409 . S
C795 C793 1.415 . S
C796 H786 0.930 . S
C796 C794 1.419 . S
C796 C797 1.362 . S
C797 H787 0.930 . S
C797 C790 1.409 . S
C797 C796 1.362 . S
H798 C804 0.930 . S
H799 C807 0.930 . S
H800 C808 0.930 . S
H801 C809 0.930 . S
H802 C812 0.930 . S
H803 C813 0.930 . S
C804 H798 0.930 . S
C804 C805 1.355 . S
C804 C806 1.415 . S
C805 C804 1.355 . S
C805 C807 1.419 . S
C806 C804 1.415 . S
C806 C811 1.425 . S
C806 C813 1.409 . S
C807 H799 0.930 . S
C807 C805 1.419 . S
C807 C808 1.362 . S
C808 H800 0.930 . S
C808 C807 1.362 . S
C808 C811 1.409 . S
C809 H801 0.930 . S
C809 C810 1.355 . S
C809 C811 1.415 . S
C810 C809 1.355 . S
C810 C812 1.419 . S
C811 C806 1.425 . S
C811 C808 1.409 . S
C811 C809 1.415 . S
C812 H802 0.930 . S
C812 C810 1.419 . S
C812 C813 1.362 . S
C813 H803 0.930 . S
C813 C806 1.409 . S
C813 C812 1.362 . S
H814 C820 0.930 . S
H815 C823 0.930 . S
H816 C824 0.930 . S
H817 C825 0.930 . S
H818 C828 0.930 . S
H819 C829 0.930 . S
C820 H814 0.930 . S
C820 C821 1.355 . S
C820 C822 1.415 . S
C821 C820 1.355 . S
C821 C823 1.419 . S
C822 C820 1.415 . S
C822 C827 1.425 . S
C822 C829 1.409 . S
C823 H815 0.930 . S
C823 C821 1.419 . S
C823 C824 1.362 . S
C824 H816 0.930 . S
C824 C823 1.362 . S
C824 C827 1.409 . S
C825 H817 0.930 . S
C825 C826 1.355 . S
C825 C827 1.415 . S
C826 C825 1.355 . S
C826 C828 1.419 . S
C827 C822 1.425 . S
C827 C824 1.409 . S
C827 C825 1.415 . S
C828 H818 0.930 . S
C828 C826 1.419 . S
C828 C829 1.362 . S
C829 H819 0.930 . S
C829 C822 1.409 . S
C829 C828 1.362 . S
H830 C836 0.930 . S
H831 C839 0.930 . S
H832 C840 0.930 . S
H833 C841 0.930 . S
H834 C844 0.930 . S
H835 C845 0.930 . S
C836 H830 0.930 . S
C836 C837 1.355 . S
C836 C838 1.415 . S
C837 C836 1.355 . S
C837 C839 1.419 . S
C838 C836 1.415 . S
C838 C843 1.425 . S
C838 C845 1.409 . S
C839 H831 0.930 . S
C839 C837 1.419 . S
C839 C840 1.362 . S
C840 H832 0.930 . S
C840 C839 1.362 . S
C840 C843 1.409 . S
C841 H833 0.930 . S
C841 C842 1.355 . S
C841 C843 1.415 . S
C842 C841 1.355 . S
C842 C844 1.419 . S
C843 C838 1.425 . S
C843 C840 1.409 . S
C843 C841 1.415 . S
C844 H834 0.930 . S
C844 C842 1.419 . S
C844 C845 1.362 . S
C845 H835 0.930 . S
C845 C838 1.409 . S
C845 C844 1.362 . S
H846 C852 0.930 . S
H847 C855 0.930 . S
H848 C856 0.930 . S
H849 C857 0.930 . S
H850 C860 0.930 . S
H851 C861 0.930 . S
C852 H846 0.930 . S
C852 C853 1.355 . S
C852 C854 1.415 . S
C853 C852 1.355 . S
C853 C855 1.419 . S
C854 C852 1.415 . S
C854 C859 1.425 . S
C854 C861 1.409 . S
C855 H847 0.930 . S
C855 C853 1.419 . S
C855 C856 1.362 . S
C856 H848 0.930 . S
C856 C855 1.362 . S
C856 C859 1.409 . S
C857 H849 0.930 . S
C857 C858 1.355 . S
C857 C859 1.415 . S
C858 C857 1.355 . S
C858 C860 1.419 . S
C859 C854 1.425 . S
C859 C856 1.409 . S
C859 C857 1.415 . S
C860 H850 0.930 . S
C860 C858 1.419 . S
C860 C861 1.362 . S
C861 H851 0.930 . S
C861 C854 1.409 . S
C861 C860 1.362 . S
H862 C868 0.930 . S
H863 C871 0.930 . S
H864 C872 0.930 . S
H865 C873 0.930 . S
H866 C876 0.930 . S
H867 C877 0.930 . S
C868 H862 0.930 . S
C868 C869 1.355 . S
C868 C870 1.415 . S
C869 C868 1.355 . S
C869 C871 1.419 . S
C870 C868 1.415 . S
C870 C875 1.425 . S
C870 C877 1.409 . S
C871 H863 0.930 . S
C871 C869 1.419 . S
C871 C872 1.362 . S
C872 H864 0.930 . S
C872 C871 1.362 . S
C872 C875 1.409 . S
C873 H865 0.930 . S
C873 C874 1.355 . S
C873 C875 1.415 . S
C874 C873 1.355 . S
C874 C876 1.419 . S
C875 C870 1.425 . S
C875 C872 1.409 . S
C875 C873 1.415 . S
C876 H866 0.930 . S
C876 C874 1.419 . S
C876 C877 1.362 . S
C877 H867 0.930 . S
C877 C870 1.409 . S
C877 C876 1.362 . S
H878 C884 0.930 . S
H879 C887 0.930 . S
H880 C888 0.930 . S
H881 C889 0.930 . S
H882 C892 0.930 . S
H883 C893 0.930 . S
C884 H878 0.930 . S
C884 C885 1.355 . S
C884 C886 1.415 . S
C885 C884 1.355 . S
C885 C887 1.419 . S
C886 C884 1.415 . S
C886 C891 1.425 . S
C886 C893 1.409 . S
C887 H879 0.930 . S
C887 C885 1.419 . S
C887 C888 1.362 . S
C888 H880 0.930 . S
C888 C887 1.362 . S
C888 C891 1.409 . S
C889 H881 0.930 . S
C889 C890 1.355 . S
C889 C891 1.415 . S
C890 C889 1.355 . S
C890 C892 1.419 . S
C891 C886 1.425 . S
C891 C888 1.409 . S
C891 C889 1.415 . S
C892 H882 0.930 . S
C892 C890 1.419 . S
C892 C893 1.362 . S
C893 H883 0.930 . S
C893 C886 1.409 . S
C893 C892 1.362 . S
H894 C900 0.930 . S
H895 C903 0.930 . S
H896 C904 0.930 . S
H897 C905 0.930 . S
H898 C908 0.930 . S
H899 C909 0.930 . S
C900 H894 0.930 . S
C900 C901 1.355 . S
C900 C902 1.415 . S
C901 C900 1.355 . S
C901 C903 1.419 . S
C902 C900 1.415 . S
C902 C907 1.425 . S
C902 C909 1.409 . S
C903 H895 0.930 . S
C903 C901 1.419 . S
C903 C904 1.362 . S
C904 H896 0.930 . S
C904 C903 1.362 . S
C904 C907 1.409 . S
C905 H897 0.930 . S
C905 C906 1.355 . S
C905 C907 1.415 . S
C906 C905 1.355 . S
C906 C908 1.419 . S
C907 C902 1.425 . S
C907 C904 1.409 . S
C907 C905 1.415 . S
C908 H898 0.930 . S
C908 C906 1.419 . S
C908 C909 1.362 . S
C909 H899 0.930 . S
C909 C902 1.409 . S
C909 C908 1.362 . S
H910 C916 0.930 . S
H911 C919 0.930 1_565 S
H912 C920 0.930 . S
H913 C921 0.930 . S
H914 C924 0.930 . S
H915 C925 0.930 . S
C916 H910 0.930 . S
C916 C917 1.355 . S
C916 C918 1.415 . S
C917 C916 1.355 . S
C917 C919 1.419 . S
C918 C916 1.415 . S
C918 C923 1.425 . S
C918 C925 1.409 . S
C919 H911 0.930 1_545 S
C919 C917 1.419 . S
C919 C920 1.362 1_545 S
C920 H912 0.930 . S
C920 C919 1.362 1_565 S
C920 C923 1.409 1_565 S
C921 H913 0.930 . S
C921 C922 1.355 1_565 S
C921 C923 1.415 1_565 S
C922 C921 1.355 1_545 S
C922 C924 1.419 . S
C923 C918 1.425 . S
C923 C920 1.409 1_545 S
C923 C921 1.415 1_545 S
C924 H914 0.930 . S
C924 C922 1.419 . S
C924 C925 1.362 . S
C925 H915 0.930 . S
C925 C918 1.409 . S
C925 C924 1.362 . S
H926 C932 0.930 . S
H927 C935 0.930 . S
H928 C936 0.930 . S
H929 C937 0.930 . S
H930 C940 0.930 . S
H931 C941 0.930 . S
C932 H926 0.930 . S
C932 C933 1.355 . S
C932 C934 1.415 . S
C933 C932 1.355 . S
C933 C935 1.419 1_455 S
C934 C932 1.415 . S
C934 C939 1.440 . S
C934 C941 1.409 . S
C935 H927 0.930 . S
C935 C933 1.419 1_655 S
C935 C936 1.362 . S
C936 H928 0.930 . S
C936 C935 1.362 . S
C936 C939 1.422 1_655 S
C937 H929 0.930 . S
C937 C938 1.355 1_655 S
C937 C939 1.390 1_655 S
C938 C937 1.355 1_455 S
C938 C940 1.419 . S
C939 C934 1.440 . S
C939 C936 1.422 1_455 S
C939 C937 1.390 1_455 S
C940 H930 0.930 . S
C940 C938 1.419 . S
C940 C941 1.362 . S
C941 H931 0.930 . S
C941 C934 1.409 . S
C941 C940 1.362 . S
H942 C948 0.930 . S
H943 C951 0.930 . S
H944 C952 0.930 . S
H945 C953 0.930 . S
H946 C956 0.930 . S
H947 C957 0.930 . S
C948 H942 0.930 . S
C948 C949 1.355 1_554 S
C948 C950 1.415 . S
C949 C948 1.355 1_556 S
C949 C951 1.419 . S
C950 C948 1.415 . S
C950 C955 1.425 1_554 S
C950 C957 1.409 . S
C951 H943 0.930 . S
C951 C949 1.419 . S
C951 C952 1.362 . S
C952 H944 0.930 . S
C952 C951 1.362 . S
C952 C955 1.409 . S
C953 H945 0.930 . S
C953 C954 1.355 1_556 S
C953 C955 1.415 . S
C954 C953 1.355 1_554 S
C954 C956 1.419 . S
C955 C950 1.425 1_556 S
C955 C952 1.409 . S
C955 C953 1.415 . S
C956 H946 0.930 . S
C956 C954 1.419 . S
C956 C957 1.362 . S
C957 H947 0.930 . S
C957 C950 1.409 . S
C957 C956 1.362 . S
H958 C964 0.930 . S
H959 C967 0.930 . S
H960 C968 0.930 . S
H961 C969 0.930 1_565 S
H962 C972 0.930 . S
H963 C973 0.930 . S
C964 H958 0.930 . S
C964 C965 1.355 . S
C964 C966 1.415 . S
C965 C964 1.355 . S
C965 C967 1.419 1_546 S
C966 C964 1.415 . S
C966 C971 1.425 1_556 S
C966 C973 1.409 . S
C967 H959 0.930 . S
C967 C965 1.419 1_564 S
C967 C968 1.362 . S
C968 H960 0.930 . S
C968 C967 1.362 . S
C968 C971 1.409 1_565 S
C969 H961 0.930 1_545 S
C969 C970 1.355 . S
C969 C971 1.415 . S
C970 C969 1.355 . S
C970 C972 1.419 1_554 S
C971 C966 1.425 1_554 S
C971 C968 1.409 1_545 S
C971 C969 1.415 . S
C972 H962 0.930 . S
C972 C970 1.419 1_556 S
C972 C973 1.362 . S
C973 H963 0.930 . S
C973 C966 1.409 . S
C973 C972 1.362 . S
H974 C980 0.930 . S
H975 C983 0.930 . S
H976 C984 0.930 . S
H977 C985 0.932 . S
H978 C988 0.930 . S
H979 C989 0.930 . S
C980 H974 0.930 . S
C980 C981 1.355 1_554 S
C980 C982 1.415 . S
C981 C980 1.355 1_556 S
C981 C983 1.419 1_455 S
C982 C980 1.415 . S
C982 C987 1.425 1_454 S
C982 C989 1.409 . S
C983 H975 0.930 . S
C983 C981 1.419 1_655 S
C983 C984 1.362 . S
C984 H976 0.930 . S
C984 C983 1.362 . S
C984 C987 1.409 . S
C985 H977 0.932 . S
C985 C986 1.351 1_656 S
C985 C987 1.416 . S
C986 C985 1.351 1_454 S
C986 C988 1.419 . S
C987 C982 1.425 1_656 S
C987 C984 1.409 . S
C987 C985 1.416 . S
C988 H978 0.930 . S
C988 C986 1.419 . S
C988 C989 1.362 . S
C989 H979 0.930 . S
C989 C982 1.409 . S
C989 C988 1.362 . S
C421 C7 1.723 . S
C426 C338 1.699 1_554 S
C437 C292 1.665 1_554 S
C442 C39 1.671 . S
C453 C53 1.763 . S
C458 C306 1.765 1_554 S
C469 C154 1.603 . S
C474 C62 1.610 . S
C485 C177 1.608 . S
C490 C16 1.600 . S
C501 C200 1.643 . S
C506 C30 1.680 . S
C517 C76 1.716 . S
C522 C269 1.691 1_556 S
C533 C223 1.605 1_556 S
C538 C108 1.598 . S
C549 C246 1.642 1_556 S
C554 C122 1.696 . S
C565 C131 1.700 . S
C570 C352 1.723 . S
C581 C85 1.618 . S
C586 C384 1.634 . S
C597 C398 1.722 . S
C602 C99 1.729 . S
C613 C283 1.727 . S
C618 C191 1.721 . S
C629 C145 1.692 . S
C634 C315 1.642 . S
C645 C329 1.722 . S
C650 C168 1.728 . S
C661 C407 1.704 . S
C666 C214 1.727 . S
C677 C237 1.707 . S
C682 C361 1.651 . S
C693 C375 1.763 . S
C698 C260 1.758 . S
C709 N347 1.603 . S
C714 N2 1.603 . S
C725 N35 1.612 . S
C730 N380 1.612 . S
C741 N48 1.600 . S
C746 N393 1.601 . S
C757 N58 1.589 . S
C762 N265 1.590 . S
C773 N219 1.640 . S
C778 N12 1.640 . S
C789 N25 1.542 . S
C794 N242 1.642 . S
C805 N150 1.600 . S
C810 N71 1.529 . S
C821 N173 1.627 . S
C826 N104 1.627 . S
C837 N117 1.533 . S
C842 N196 1.634 . S
C853 N127 1.579 . S
C858 N334 1.579 . S
C869 N81 1.580 . S
C874 N288 1.580 . S
C885 N94 1.589 . S
C890 N301 1.590 . S
C901 N186 1.496 . S
C906 N403 1.601 . S
C917 N140 1.512 . S
C922 N357 1.594 1_545 S
C933 N370 1.581 . S
C938 N163 1.582 1_455 S
C949 N278 1.506 . S
C954 N209 1.505 . S
C965 N311 1.645 1_545 S
C970 N232 1.570 . S
C981 N324 1.533 . S
C986 N255 1.534 1_455 S
