# Generated by pormake.
# Topology unr, (4)-cn, num edge types: 1
# Building blocks:
#     Node 0, Type 0, BuildingBlock: NAHDIM_clean_sbu_0, # of connection points: 4
#     Node 1, Type 0, BuildingBlock: NAHDIM_clean_sbu_0, # of connection points: 4
#     Node 2, Type 0, BuildingBlock: NAHDIM_clean_sbu_0, # of connection points: 4
#     Node 3, Type 0, BuildingBlock: NAHDIM_clean_sbu_0, # of connection points: 4
#     Node 4, Type 0, BuildingBlock: NAHDIM_clean_sbu_0, # of connection points: 4
#     Node 5, Type 0, BuildingBlock: NAHDIM_clean_sbu_0, # of connection points: 4
#     Node 6, Type 0, BuildingBlock: NAHDIM_clean_sbu_0, # of connection points: 4
#     Node 7, Type 0, BuildingBlock: NAHDIM_clean_sbu_0, # of connection points: 4
#     Node 8, Type 0, BuildingBlock: NAHDIM_clean_sbu_0, # of connection points: 4
#     Node 9, Type 0, BuildingBlock: NAHDIM_clean_sbu_0, # of connection points: 4
#     Node 10, Type 0, BuildingBlock: NAHDIM_clean_sbu_0, # of connection points: 4
#     Node 11, Type 0, BuildingBlock: NAHDIM_clean_sbu_0, # of connection points: 4
#     Node 12, Type 0, BuildingBlock: NAHDIM_clean_sbu_0, # of connection points: 4
#     Node 13, Type 0, BuildingBlock: NAHDIM_clean_sbu_0, # of connection points: 4
#     Node 14, Type 0, BuildingBlock: NAHDIM_clean_sbu_0, # of connection points: 4
#     Node 15, Type 0, BuildingBlock: NAHDIM_clean_sbu_0, # of connection points: 4
#     Node 16, Type 0, BuildingBlock: NAHDIM_clean_sbu_0, # of connection points: 4
#     Node 17, Type 0, BuildingBlock: NAHDIM_clean_sbu_0, # of connection points: 4
#     Node 18, Type 0, BuildingBlock: NAHDIM_clean_sbu_0, # of connection points: 4
#     Node 19, Type 0, BuildingBlock: NAHDIM_clean_sbu_0, # of connection points: 4
#     Node 20, Type 0, BuildingBlock: NAHDIM_clean_sbu_0, # of connection points: 4
#     Node 21, Type 0, BuildingBlock: NAHDIM_clean_sbu_0, # of connection points: 4
#     Node 22, Type 0, BuildingBlock: NAHDIM_clean_sbu_0, # of connection points: 4
#     Node 23, Type 0, BuildingBlock: NAHDIM_clean_sbu_0, # of connection points: 4
#     Node 24, Type 0, BuildingBlock: NAHDIM_clean_sbu_0, # of connection points: 4
#     Node 25, Type 0, BuildingBlock: NAHDIM_clean_sbu_0, # of connection points: 4
#     Node 26, Type 0, BuildingBlock: NAHDIM_clean_sbu_0, # of connection points: 4
#     Node 27, Type 0, BuildingBlock: NAHDIM_clean_sbu_0, # of connection points: 4
#     Node 28, Type 0, BuildingBlock: NAHDIM_clean_sbu_0, # of connection points: 4
#     Node 29, Type 0, BuildingBlock: NAHDIM_clean_sbu_0, # of connection points: 4
#     Node 30, Type 0, BuildingBlock: NAHDIM_clean_sbu_0, # of connection points: 4
#     Node 31, Type 0, BuildingBlock: NAHDIM_clean_sbu_0, # of connection points: 4
#     Node 32, Type 0, BuildingBlock: NAHDIM_clean_sbu_0, # of connection points: 4
#     Node 33, Type 0, BuildingBlock: NAHDIM_clean_sbu_0, # of connection points: 4
#     Node 34, Type 0, BuildingBlock: NAHDIM_clean_sbu_0, # of connection points: 4
#     Node 35, Type 0, BuildingBlock: NAHDIM_clean_sbu_0, # of connection points: 4
#     Edge 36, Type (0, 0), BuildingBlock: UVAHIK_clean_linker_0, # of connection points: 2
#     Edge 37, Type (0, 0), BuildingBlock: UVAHIK_clean_linker_0, # of connection points: 2
#     Edge 38, Type (0, 0), BuildingBlock: UVAHIK_clean_linker_0, # of connection points: 2
#     Edge 39, Type (0, 0), BuildingBlock: UVAHIK_clean_linker_0, # of connection points: 2
#     Edge 40, Type (0, 0), BuildingBlock: UVAHIK_clean_linker_0, # of connection points: 2
#     Edge 41, Type (0, 0), BuildingBlock: UVAHIK_clean_linker_0, # of connection points: 2
#     Edge 42, Type (0, 0), BuildingBlock: UVAHIK_clean_linker_0, # of connection points: 2
#     Edge 43, Type (0, 0), BuildingBlock: UVAHIK_clean_linker_0, # of connection points: 2
#     Edge 44, Type (0, 0), BuildingBlock: UVAHIK_clean_linker_0, # of connection points: 2
#     Edge 45, Type (0, 0), BuildingBlock: UVAHIK_clean_linker_0, # of connection points: 2
#     Edge 46, Type (0, 0), BuildingBlock: UVAHIK_clean_linker_0, # of connection points: 2
#     Edge 47, Type (0, 0), BuildingBlock: UVAHIK_clean_linker_0, # of connection points: 2
#     Edge 48, Type (0, 0), BuildingBlock: UVAHIK_clean_linker_0, # of connection points: 2
#     Edge 49, Type (0, 0), BuildingBlock: UVAHIK_clean_linker_0, # of connection points: 2
#     Edge 50, Type (0, 0), BuildingBlock: UVAHIK_clean_linker_0, # of connection points: 2
#     Edge 51, Type (0, 0), BuildingBlock: UVAHIK_clean_linker_0, # of connection points: 2
#     Edge 52, Type (0, 0), BuildingBlock: UVAHIK_clean_linker_0, # of connection points: 2
#     Edge 53, Type (0, 0), BuildingBlock: UVAHIK_clean_linker_0, # of connection points: 2
#     Edge 54, Type (0, 0), BuildingBlock: UVAHIK_clean_linker_0, # of connection points: 2
#     Edge 55, Type (0, 0), BuildingBlock: UVAHIK_clean_linker_0, # of connection points: 2
#     Edge 56, Type (0, 0), BuildingBlock: UVAHIK_clean_linker_0, # of connection points: 2
#     Edge 57, Type (0, 0), BuildingBlock: UVAHIK_clean_linker_0, # of connection points: 2
#     Edge 58, Type (0, 0), BuildingBlock: UVAHIK_clean_linker_0, # of connection points: 2
#     Edge 59, Type (0, 0), BuildingBlock: UVAHIK_clean_linker_0, # of connection points: 2
#     Edge 60, Type (0, 0), BuildingBlock: UVAHIK_clean_linker_0, # of connection points: 2
#     Edge 61, Type (0, 0), BuildingBlock: UVAHIK_clean_linker_0, # of connection points: 2
#     Edge 62, Type (0, 0), BuildingBlock: UVAHIK_clean_linker_0, # of connection points: 2
#     Edge 63, Type (0, 0), BuildingBlock: UVAHIK_clean_linker_0, # of connection points: 2
#     Edge 64, Type (0, 0), BuildingBlock: UVAHIK_clean_linker_0, # of connection points: 2
#     Edge 65, Type (0, 0), BuildingBlock: UVAHIK_clean_linker_0, # of connection points: 2
#     Edge 66, Type (0, 0), BuildingBlock: UVAHIK_clean_linker_0, # of connection points: 2
#     Edge 67, Type (0, 0), BuildingBlock: UVAHIK_clean_linker_0, # of connection points: 2
#     Edge 68, Type (0, 0), BuildingBlock: UVAHIK_clean_linker_0, # of connection points: 2
#     Edge 69, Type (0, 0), BuildingBlock: UVAHIK_clean_linker_0, # of connection points: 2
#     Edge 70, Type (0, 0), BuildingBlock: UVAHIK_clean_linker_0, # of connection points: 2
#     Edge 71, Type (0, 0), BuildingBlock: UVAHIK_clean_linker_0, # of connection points: 2
#     Edge 72, Type (0, 0), BuildingBlock: UVAHIK_clean_linker_0, # of connection points: 2
#     Edge 73, Type (0, 0), BuildingBlock: UVAHIK_clean_linker_0, # of connection points: 2
#     Edge 74, Type (0, 0), BuildingBlock: UVAHIK_clean_linker_0, # of connection points: 2
#     Edge 75, Type (0, 0), BuildingBlock: UVAHIK_clean_linker_0, # of connection points: 2
#     Edge 76, Type (0, 0), BuildingBlock: UVAHIK_clean_linker_0, # of connection points: 2
#     Edge 77, Type (0, 0), BuildingBlock: UVAHIK_clean_linker_0, # of connection points: 2
#     Edge 78, Type (0, 0), BuildingBlock: UVAHIK_clean_linker_0, # of connection points: 2
#     Edge 79, Type (0, 0), BuildingBlock: UVAHIK_clean_linker_0, # of connection points: 2
#     Edge 80, Type (0, 0), BuildingBlock: UVAHIK_clean_linker_0, # of connection points: 2
#     Edge 81, Type (0, 0), BuildingBlock: UVAHIK_clean_linker_0, # of connection points: 2
#     Edge 82, Type (0, 0), BuildingBlock: UVAHIK_clean_linker_0, # of connection points: 2
#     Edge 83, Type (0, 0), BuildingBlock: UVAHIK_clean_linker_0, # of connection points: 2
#     Edge 84, Type (0, 0), BuildingBlock: UVAHIK_clean_linker_0, # of connection points: 2
#     Edge 85, Type (0, 0), BuildingBlock: UVAHIK_clean_linker_0, # of connection points: 2
#     Edge 86, Type (0, 0), BuildingBlock: UVAHIK_clean_linker_0, # of connection points: 2
#     Edge 87, Type (0, 0), BuildingBlock: UVAHIK_clean_linker_0, # of connection points: 2
#     Edge 88, Type (0, 0), BuildingBlock: UVAHIK_clean_linker_0, # of connection points: 2
#     Edge 89, Type (0, 0), BuildingBlock: UVAHIK_clean_linker_0, # of connection points: 2
#     Edge 90, Type (0, 0), BuildingBlock: UVAHIK_clean_linker_0, # of connection points: 2
#     Edge 91, Type (0, 0), BuildingBlock: UVAHIK_clean_linker_0, # of connection points: 2
#     Edge 92, Type (0, 0), BuildingBlock: UVAHIK_clean_linker_0, # of connection points: 2
#     Edge 93, Type (0, 0), BuildingBlock: UVAHIK_clean_linker_0, # of connection points: 2
#     Edge 94, Type (0, 0), BuildingBlock: UVAHIK_clean_linker_0, # of connection points: 2
#     Edge 95, Type (0, 0), BuildingBlock: UVAHIK_clean_linker_0, # of connection points: 2
#     Edge 96, Type (0, 0), BuildingBlock: UVAHIK_clean_linker_0, # of connection points: 2
#     Edge 97, Type (0, 0), BuildingBlock: UVAHIK_clean_linker_0, # of connection points: 2
#     Edge 98, Type (0, 0), BuildingBlock: UVAHIK_clean_linker_0, # of connection points: 2
#     Edge 99, Type (0, 0), BuildingBlock: UVAHIK_clean_linker_0, # of connection points: 2
#     Edge 100, Type (0, 0), BuildingBlock: UVAHIK_clean_linker_0, # of connection points: 2
#     Edge 101, Type (0, 0), BuildingBlock: UVAHIK_clean_linker_0, # of connection points: 2
#     Edge 102, Type (0, 0), BuildingBlock: UVAHIK_clean_linker_0, # of connection points: 2
#     Edge 103, Type (0, 0), BuildingBlock: UVAHIK_clean_linker_0, # of connection points: 2
#     Edge 104, Type (0, 0), BuildingBlock: UVAHIK_clean_linker_0, # of connection points: 2
#     Edge 105, Type (0, 0), BuildingBlock: UVAHIK_clean_linker_0, # of connection points: 2
#     Edge 106, Type (0, 0), BuildingBlock: UVAHIK_clean_linker_0, # of connection points: 2
#     Edge 107, Type (0, 0), BuildingBlock: UVAHIK_clean_linker_0, # of connection points: 2
# Relax obj value: 0.421
# Max RMSD: 0.252
# Mean RMSD: 0.246
data_MOF--net-unr--node1-NAHDIM_clean_sbu_0--edge1-UVAHIK_clean_linker_0
_symmetry_space_group_name_H-M    P1
_symmetry_Int_Tables_number       1
_symmetry_cell_setting            triclinic
loop_
_symmetry_equiv_pos_as_xyz
'x, y, z'
_cell_length_a     60.10407
_cell_length_b     60.088311
_cell_length_c     149.52984
_cell_angle_alpha  89.9986
_cell_angle_beta   89.991714
_cell_angle_gamma 120.00674
loop_
_atom_site_label
_atom_site_type_symbol
_atom_site_fract_x
_atom_site_fract_y
_atom_site_fract_z
_atom_type_partial_charge
C0 C 0.23421 0.1944 0.1837 0.0
O1 O 0.23125 0.19369 0.19242 0.0
O2 O 0.16546 0.1324 0.18119 0.0
Zn3 Zn 0.17938 0.16975 0.18402 0.0
O4 O 0.18001 0.17359 0.19738 0.0
C5 C 0.14264 0.16933 0.17182 0.0
O6 O 0.14857 0.15414 0.16738 0.0
O7 O 0.21477 0.1878 0.17872 0.0
C8 C 0.16011 0.15795 0.20173 0.0
O9 O 0.14003 0.14039 0.19734 0.0
C10 C 0.17667 0.12058 0.18401 0.0
O11 O 0.19704 0.13277 0.18913 0.0
O12 O 0.1551 0.18022 0.17888 0.0
C13 C 0.8172 0.03267 0.1721 0.0
O14 O 0.83021 0.0243 0.16752 0.0
O15 O 0.86941 0.03579 0.18242 0.0
Zn16 Zn 0.83275 0.0121 0.18596 0.0
O17 O 0.83095 0.01297 0.19935 0.0
C18 C 0.81372 0.95715 0.18643 0.0
O19 O 0.80613 0.95866 0.19453 0.0
O20 O 0.81291 0.02693 0.18034 0.0
C21 C 0.81122 0.00944 0.20365 0.0
O22 O 0.79032 0.0045 0.19925 0.0
C23 C 0.87997 0.05975 0.18396 0.0
O24 O 0.86688 0.06868 0.18818 0.0
O25 O 0.82358 0.977 0.18148 0.0
C26 C 0.96034 0.78077 0.16632 0.0
O27 O 0.96583 0.80256 0.16245 0.0
O28 O 0.96696 0.82996 0.1792 0.0
Zn29 Zn 0.99047 0.81531 0.17991 0.0
O30 O 0.99439 0.80966 0.1929 0.0
C31 C 0.02609 0.85733 0.16905 0.0
O32 O 0.00461 0.85395 0.16552 0.0
O33 O 0.97173 0.78144 0.17356 0.0
C34 C 0.00666 0.82936 0.19782 0.0
O35 O 0.01701 0.85227 0.19415 0.0
C36 C 0.94587 0.81957 0.18348 0.0
O37 O 0.94013 0.79983 0.1887 0.0
O38 O 0.02498 0.84141 0.17489 0.0
C39 C 0.19482 0.23314 0.31568 0.0
O40 O 0.19349 0.22943 0.30699 0.0
O41 O 0.13214 0.16469 0.31905 0.0
Zn42 Zn 0.1692 0.17833 0.31581 0.0
O43 O 0.17208 0.17839 0.30242 0.0
C44 C 0.17107 0.14406 0.32856 0.0
O45 O 0.15907 0.15293 0.33347 0.0
O46 O 0.18809 0.21403 0.32085 0.0
C47 C 0.15491 0.15968 0.29796 0.0
O48 O 0.13591 0.14047 0.30224 0.0
C49 C 0.12046 0.17655 0.31679 0.0
O50 O 0.13264 0.19765 0.31201 0.0
O51 O 0.17952 0.15401 0.32093 0.0
C52 C 0.76265 0.95904 0.31943 0.0
O53 O 0.76329 0.96225 0.31072 0.0
O54 O 0.83159 0.96803 0.31798 0.0
Zn55 Zn 0.81659 0.99128 0.3173 0.0
O56 O 0.81157 0.99674 0.30438 0.0
C57 C 0.8557 0.02519 0.32931 0.0
O58 O 0.84976 0.00326 0.33317 0.0
O59 O 0.78312 0.97223 0.32391 0.0
C60 C 0.83079 0.00518 0.29917 0.0
O61 O 0.85318 0.01045 0.30246 0.0
C62 C 0.82072 0.94607 0.31426 0.0
O63 O 0.79999 0.93899 0.30942 0.0
O64 O 0.84229 0.02508 0.32273 0.0
C65 C 0.04146 0.80958 0.31274 0.0
O66 O 0.04382 0.81525 0.30419 0.0
O67 O 0.03016 0.86731 0.31609 0.0
Zn68 Zn 0.00863 0.83093 0.31183 0.0
O69 O 0.00995 0.83094 0.2984 0.0
C70 C 0.96842 0.82689 0.32303 0.0
O71 O 0.98786 0.83964 0.3285 0.0
O72 O 0.02497 0.81202 0.31731 0.0
C73 C 0.99632 0.81086 0.2938 0.0
O74 O 0.98083 0.78919 0.2979 0.0
C75 C 0.05326 0.88132 0.31353 0.0
O76 O 0.06291 0.87225 0.30763 0.0
O77 O 0.97232 0.81878 0.31568 0.0
C78 C 0.76064 0.81197 0.81867 0.0
O79 O 0.76021 0.80587 0.81022 0.0
O80 O 0.81163 0.83394 0.80278 0.0
Zn81 Zn 0.81565 0.84285 0.81593 0.0
O82 O 0.82912 0.88081 0.81751 0.0
C83 C 0.84837 0.82032 0.81782 0.0
O84 O 0.83474 0.80558 0.81115 0.0
O85 O 0.78215 0.82503 0.82257 0.0
C86 C 0.81439 0.89021 0.81841 0.0
O87 O 0.78939 0.875 0.8179 0.0
C88 C 0.80215 0.84288 0.7972 0.0
O89 O 0.79401 0.85826 0.80003 0.0
O90 O 0.84242 0.83609 0.82117 0.0
C91 C 0.2008 0.95895 0.82125 0.0
O92 O 0.21334 0.9726 0.81423 0.0
O93 O 0.173 0.98113 0.8045 0.0
Zn94 Zn 0.16465 0.97692 0.81769 0.0
O95 O 0.12651 0.95327 0.81905 0.0
C96 C 0.18694 0.03191 0.81894 0.0
O97 O 0.19954 0.03179 0.81178 0.0
O98 O 0.18153 0.96012 0.82412 0.0
C99 C 0.11624 0.92896 0.81866 0.0
O100 O 0.13076 0.91869 0.81726 0.0
C101 C 0.17202 0.96343 0.79956 0.0
O102 O 0.166 0.94115 0.80313 0.0
O103 O 0.17256 0.01083 0.82295 0.0
C104 C 0.06032 0.2308 0.8114 0.0
O105 O 0.05967 0.21749 0.80433 0.0
O106 O 0.00685 0.18115 0.80105 0.0
Zn107 Zn 0.0193 0.18337 0.81365 0.0
O108 O 0.04275 0.16861 0.81389 0.0
C109 C 0.96672 0.15617 0.81985 0.0
O110 O 0.96295 0.16823 0.81321 0.0
O111 O 0.04213 0.22032 0.81706 0.0
C112 C 0.04878 0.16271 0.8213 0.0
O113 O 0.03836 0.16499 0.82872 0.0
C114 C -0.00121 0.16028 0.79676 0.0
O115 O -0.00215 0.14042 0.80082 0.0
O116 O 0.98954 0.16178 0.82176 0.0
C117 C 0.80324 0.76532 0.68315 0.0
O118 O 0.79273 0.76636 0.69073 0.0
O119 O 0.82173 0.81828 0.69776 0.0
Zn120 Zn 0.83406 0.82071 0.68508 0.0
O121 O 0.87197 0.83352 0.68549 0.0
C122 C 0.81705 0.85697 0.68123 0.0
O123 O 0.80551 0.84915 0.689 0.0
O124 O 0.81902 0.78612 0.67926 0.0
C125 C 0.88511 0.84128 0.67835 0.0
O126 O 0.8738 0.84184 0.6709 0.0
C127 C 0.82954 0.80901 0.70383 0.0
O128 O 0.845 0.80033 0.70164 0.0
O129 O 0.82897 0.84631 0.678 0.0
C130 C 0.24202 0.04582 0.68593 0.0
O131 O 0.24001 0.03985 0.69445 0.0
O132 O 0.18984 0.0103 0.69997 0.0
Zn133 Zn 0.18713 0.01747 0.68696 0.0
O134 O 0.17386 0.04225 0.68619 0.0
C135 C 0.1543 0.9628 0.68377 0.0
O136 O 0.16652 0.96036 0.69065 0.0
O137 O 0.22185 0.03603 0.68114 0.0
C138 C 0.15019 0.03493 0.6852 0.0
O139 O 0.13336 0.01023 0.68495 0.0
C140 C 0.1701 0.00018 0.70497 0.0
O141 O 0.14763 0.99403 0.70153 0.0
O142 O 0.16166 0.98507 0.68064 0.0
C143 C 0.94902 0.1945 0.68204 0.0
O144 O 0.94825 0.1909 0.69073 0.0
O145 O 0.98012 0.17318 0.69651 0.0
Zn146 Zn 0.97768 0.16898 0.68313 0.0
O147 O 0.95156 0.13214 0.68069 0.0
C148 C 0.03183 0.18623 0.68275 0.0
O149 O 0.03169 0.19728 0.69032 0.0
O150 O 0.96336 0.18923 0.67732 0.0
C151 C 0.94905 0.12247 0.67294 0.0
O152 O 0.96408 0.13682 0.66644 0.0
C153 C 0.98065 0.1556 0.70107 0.0
O154 O 0.98035 0.13624 0.69687 0.0
O155 O 0.01136 0.17509 0.67813 0.0
C156 C 0.90019 0.5239 0.5211 0.0
O157 O 0.89382 0.51516 0.5293 0.0
O158 O 0.83431 0.46957 0.51759 0.0
Zn159 Zn 0.84717 0.5065 0.52072 0.0
O160 O 0.84507 0.50926 0.53408 0.0
C161 C 0.80939 0.52264 0.51845 0.0
O162 O 0.81477 0.52982 0.52683 0.0
O163 O 0.88347 0.52489 0.51616 0.0
C164 C 0.85725 0.53004 0.53849 0.0
O165 O 0.8723 0.55157 0.53423 0.0
C166 C 0.83813 0.45396 0.52215 0.0
O167 O 0.85059 0.4615 0.52977 0.0
O168 O 0.82288 0.51503 0.51433 0.0
C169 C 0.48684 0.36796 0.5024 0.0
O170 O 0.5039 0.36294 0.49891 0.0
O171 O 0.52883 0.36092 0.5161 0.0
Zn172 Zn 0.4902 0.33825 0.51657 0.0
O173 O 0.48029 0.33585 0.52952 0.0
C174 C 0.47814 0.29428 0.50431 0.0
O175 O 0.48179 0.30959 0.49753 0.0
O176 O 0.47599 0.35715 0.5097 0.0
C177 C 0.48693 0.32318 0.53457 0.0
O178 O 0.499 0.31212 0.53105 0.0
C179 C 0.54358 0.35797 0.51074 0.0
O180 O 0.53387 0.33818 0.5053 0.0
O181 O 0.47972 0.30249 0.51225 0.0
C182 C 0.62304 0.1149 0.50076 0.0
O183 O 0.62878 0.13598 0.49633 0.0
O184 O 0.62593 0.16552 0.51169 0.0
Zn185 Zn 0.64933 0.15146 0.51432 0.0
O186 O 0.6494 0.14716 0.52762 0.0
C187 C 0.68886 0.19153 0.50364 0.0
O188 O 0.66925 0.1869 0.49852 0.0
O189 O 0.63298 0.11688 0.50842 0.0
C190 C 0.65988 0.16731 0.53241 0.0
O191 O 0.67067 0.18988 0.52848 0.0
C192 C 0.60289 0.15292 0.51447 0.0
O193 O 0.59566 0.13197 0.5192 0.0
O194 O 0.68517 0.17717 0.51037 0.0
C195 C 0.84446 0.55525 0.66676 0.0
O196 O 0.82745 0.53364 0.67055 0.0
O197 O 0.79845 0.50738 0.65419 0.0
Zn198 Zn 0.83622 0.52093 0.65254 0.0
O199 O 0.84387 0.52754 0.63945 0.0
C200 C 0.83043 0.47805 0.66272 0.0
O201 O 0.81516 0.48334 0.66739 0.0
O202 O 0.85389 0.5543 0.65926 0.0
C203 C 0.83125 0.50882 0.63416 0.0
O204 O 0.81453 0.48634 0.63751 0.0
C205 C 0.78757 0.51923 0.65109 0.0
O206 O 0.80112 0.54033 0.64642 0.0
O207 O 0.84362 0.49314 0.65643 0.0
C208 C 0.44788 0.29328 0.66198 0.0
O209 O 0.46894 0.30099 0.66668 0.0
O210 O 0.49851 0.2926 0.65167 0.0
Zn211 Zn 0.48478 0.31584 0.64826 0.0
O212 O 0.48154 0.31467 0.6349 0.0
C213 C 0.5249 0.35568 0.65868 0.0
O214 O 0.52168 0.33579 0.66336 0.0
O215 O 0.44987 0.30029 0.65386 0.0
C216 C 0.47267 0.32667 0.63054 0.0
O217 O 0.46496 0.3406 0.63489 0.0
C218 C 0.48493 0.26866 0.65011 0.0
O219 O 0.46272 0.2599 0.64605 0.0
O220 O 0.51001 0.35204 0.65212 0.0
C221 C 0.70804 0.14214 0.64638 0.0
O222 O 0.70635 0.14423 0.63769 0.0
O223 O 0.69188 0.19697 0.64866 0.0
Zn224 Zn 0.6716 0.15909 0.64621 0.0
O225 O 0.66762 0.15387 0.63292 0.0
C226 C 0.63586 0.15609 0.65923 0.0
O227 O 0.65735 0.17117 0.6635 0.0
O228 O 0.6927 0.14496 0.65147 0.0
C229 C 0.65339 0.16019 0.62862 0.0
O230 O 0.64083 0.16939 0.63303 0.0
C231 C 0.71336 0.21172 0.64496 0.0
O232 O 0.72228 0.20233 0.63891 0.0
O233 O 0.63697 0.1461 0.65188 0.0
C234 C 0.42305 0.13966 0.14959 0.0
O235 O 0.42152 0.13404 0.14105 0.0
O236 O 0.4712 0.15341 0.1333 0.0
Zn237 Zn 0.47734 0.16589 0.14606 0.0
O238 O 0.49006 0.2038 0.14615 0.0
C239 C 0.51258 0.14667 0.14767 0.0
O240 O 0.49955 0.13251 0.1408 0.0
O241 O 0.44494 0.15057 0.15335 0.0
C242 C 0.49735 0.21547 0.15359 0.0
O243 O 0.49713 0.20256 0.16071 0.0
C244 C 0.46436 0.16364 0.12726 0.0
O245 O 0.46015 0.18242 0.12942 0.0
O246 O 0.5053 0.16095 0.15141 0.0
C247 C 0.85214 0.27546 0.14463 0.0
O248 O 0.84952 0.27804 0.13603 0.0
O249 O 0.84665 0.32239 0.13255 0.0
Zn250 Zn 0.83361 0.31003 0.145 0.0
O251 O 0.7957 0.28511 0.14432 0.0
C252 C 0.85362 0.36278 0.15144 0.0
O253 O 0.87107 0.36933 0.14515 0.0
O254 O 0.84852 0.2895 0.15011 0.0
C255 C 0.78303 0.27922 0.15158 0.0
O256 O 0.79502 0.29003 0.15907 0.0
C257 C 0.8406 0.33703 0.12838 0.0
O258 O 0.82611 0.3447 0.13236 0.0
O259 O 0.8379 0.33913 0.15285 0.0
C260 C 0.70573 0.57193 0.15497 0.0
O261 O 0.69385 0.56875 0.1473 0.0
O262 O 0.67997 0.51817 0.14078 0.0
Zn263 Zn 0.68456 0.51694 0.15406 0.0
O264 O 0.7087 0.50348 0.15603 0.0
C265 C 0.62986 0.485 0.15543 0.0
O266 O 0.6304 0.49816 0.14834 0.0
O267 O 0.70193 0.55226 0.15938 0.0
C268 C 0.70389 0.48211 0.15269 0.0
O269 O 0.68284 0.4689 0.14796 0.0
C270 C 0.69893 0.52809 0.13543 0.0
O271 O 0.72236 0.5385 0.13866 0.0
O272 O 0.65072 0.49151 0.15956 0.0
C273 C 0.46209 0.08744 0.01181 0.0
O274 O 0.45291 0.08599 0.01989 0.0
O275 O 0.48029 0.13588 0.02851 0.0
Zn276 Zn 0.49312 0.14167 0.0158 0.0
O277 O 0.53052 0.15241 0.01615 0.0
C278 C 0.47682 0.17909 0.01396 0.0
O279 O 0.46152 0.16605 0.0206 0.0
O280 O 0.4769 0.10942 0.00844 0.0
C281 C 0.54648 0.17083 0.021 0.0
O282 O 0.53838 0.18345 0.02595 0.0
C283 C 0.48734 0.12485 0.03416 0.0
O284 O 0.50222 0.11587 0.03153 0.0
O285 O 0.49067 0.17101 0.0104 0.0
C286 C 0.9049 0.37077 0.01223 0.0
O287 O 0.90643 0.36253 0.02021 0.0
O288 O 0.86103 0.35176 0.02993 0.0
Zn289 Zn 0.85163 0.35076 0.01693 0.0
O290 O 0.83742 0.37454 0.01518 0.0
C291 C 0.81591 0.29629 0.01863 0.0
O292 O 0.82911 0.29861 0.02591 0.0
O293 O 0.88298 0.36513 0.00917 0.0
C294 C 0.82546 0.37911 0.02125 0.0
O295 O 0.82143 0.36756 0.02903 0.0
C296 C 0.87338 0.37304 0.03406 0.0
O297 O 0.88088 0.39459 0.02967 0.0
O298 O 0.82345 0.31553 0.01346 0.0
C299 C 0.60865 0.51734 0.02169 0.0
O300 O 0.60715 0.51143 0.03021 0.0
O301 O 0.65048 0.5086 0.03581 0.0
Zn302 Zn 0.64359 0.49965 0.02274 0.0
O303 O 0.61843 0.46182 0.02183 0.0
C304 C 0.69793 0.51992 0.02031 0.0
O305 O 0.69945 0.53298 0.02756 0.0
O306 O 0.62564 0.51636 0.01691 0.0
C307 C 0.61591 0.45022 0.01447 0.0
O308 O 0.63037 0.4631 0.00763 0.0
C309 C 0.65495 0.49392 0.04066 0.0
O310 O 0.65501 0.47413 0.03694 0.0
O311 O 0.67618 0.5062 0.01663 0.0
C312 C 0.57084 0.86727 0.85117 0.0
O313 O 0.56776 0.8666 0.85989 0.0
O314 O 0.50245 0.80667 0.84938 0.0
Zn315 Zn 0.51633 0.84437 0.85147 0.0
O316 O 0.51668 0.84995 0.86473 0.0
C317 C 0.4804 0.84214 0.83858 0.0
O318 O 0.48736 0.82711 0.83458 0.0
O319 O 0.55165 0.8615 0.84615 0.0
C320 C 0.4962 0.83513 0.86897 0.0
O321 O 0.47616 0.81783 0.8645 0.0
C322 C 0.5128 0.79486 0.85293 0.0
O323 O 0.53237 0.80733 0.85837 0.0
O324 O 0.49202 0.85377 0.84568 0.0
C325 C 0.15619 0.70693 0.8373 0.0
O326 O 0.16962 0.69931 0.8326 0.0
O327 O 0.20521 0.70406 0.84728 0.0
Zn328 Zn 0.16815 0.68191 0.85078 0.0
O329 O 0.16662 0.6835 0.86414 0.0
C330 C 0.16633 0.64113 0.84034 0.0
O331 O 0.18263 0.66061 0.83541 0.0
O332 O 0.14977 0.69855 0.84523 0.0
C333 C 0.14615 0.67047 0.86862 0.0
O334 O 0.1246 0.65527 0.8644 0.0
C335 C 0.21612 0.72807 0.84878 0.0
O336 O 0.20316 0.73739 0.85285 0.0
O337 O 0.15595 0.64541 0.84702 0.0
C338 C 0.29683 0.45441 0.83605 0.0
O339 O 0.3019 0.47673 0.83277 0.0
O340 O 0.29707 0.50011 0.84906 0.0
Zn341 Zn 0.32146 0.48675 0.85064 0.0
O342 O 0.32251 0.48023 0.86375 0.0
C343 C 0.35873 0.53057 0.84079 0.0
O344 O 0.33788 0.52749 0.83683 0.0
O345 O 0.30595 0.45379 0.84365 0.0
C346 C 0.33297 0.49994 0.86876 0.0
O347 O 0.34299 0.52282 0.86508 0.0
C348 C 0.27422 0.48759 0.85202 0.0
O349 O 0.26702 0.46638 0.85659 0.0
O350 O 0.35671 0.51419 0.84659 0.0
C351 C 0.52371 0.89786 0.98438 0.0
O352 O 0.52641 0.89608 0.97574 0.0
O353 O 0.45957 0.82877 0.9861 0.0
Zn354 Zn 0.49696 0.84297 0.98328 0.0
O355 O 0.50117 0.84571 0.96992 0.0
C356 C 0.49626 0.80471 0.99475 0.0
O357 O 0.48147 0.81052 -0.0005 0.0
O358 O 0.51468 0.87766 0.98914 0.0
C359 C 0.48443 0.82785 0.96506 0.0
O360 O 0.46511 0.80786 0.96891 0.0
C361 C 0.4484 0.84116 0.9839 0.0
O362 O 0.46129 0.8628 0.97945 0.0
O363 O 0.50716 0.81789 0.98781 0.0
C364 C 0.09311 0.62145 0.98407 0.0
O365 O 0.09394 0.62621 0.97547 0.0
O366 O 0.16407 0.63156 0.98411 0.0
Zn367 Zn 0.14762 0.65329 0.98249 0.0
O368 O 0.14359 0.65696 0.96933 0.0
C369 C 0.18408 0.68906 0.99477 0.0
O370 O 0.17818 0.66764 0.999 0.0
O371 O 0.11354 0.63354 0.98866 0.0
C372 C 0.16331 0.67076 0.96459 0.0
O373 O 0.18597 0.6828 0.96844 0.0
C374 C 0.15262 0.60829 0.98154 0.0
O375 O 0.1306 0.59902 0.97731 0.0
O376 O 0.1715 0.68792 0.98779 0.0
C377 C 0.37015 0.46758 0.98395 0.0
O378 O 0.36893 0.46837 0.9752 0.0
O379 O 0.36103 0.52775 0.98479 0.0
Zn380 Zn 0.33822 0.48992 0.98262 0.0
O381 O 0.33538 0.48405 0.96934 0.0
C382 C 0.30202 0.49177 0.99444 0.0
O383 O 0.32316 0.50682 0.99889 0.0
O384 O 0.35606 0.47328 0.98864 0.0
C385 C 0.32099 0.48963 0.96479 0.0
O386 O 0.30773 0.4985 0.96893 0.0
C387 C 0.38398 0.53978 0.9819 0.0
O388 O 0.39256 0.52748 0.97701 0.0
O389 O 0.30341 0.48001 0.98759 0.0
C390 C 0.08924 0.4781 0.48153 0.0
O391 O 0.09524 0.4862 0.47325 0.0
O392 O 0.14083 0.48835 0.46789 0.0
Zn393 Zn 0.14154 0.49484 0.48118 0.0
O394 O 0.15394 0.53251 0.48295 0.0
C395 C 0.17633 0.47522 0.4834 0.0
O396 O 0.16667 0.46409 0.47569 0.0
O397 O 0.10611 0.47723 0.48641 0.0
C398 C 0.1771 0.54905 0.48475 0.0
O399 O 0.19433 0.54179 0.48542 0.0
C400 C 0.16049 0.50334 0.4633 0.0
O401 O 0.18065 0.52173 0.46739 0.0
O402 O 0.16661 0.48705 0.48738 0.0
C403 C 0.52615 0.61696 0.48225 0.0
O404 O 0.52951 0.62408 0.47382 0.0
O405 O 0.50656 0.65298 0.46965 0.0
Zn406 Zn 0.49905 0.64502 0.48278 0.0
O407 O 0.46118 0.62033 0.48414 0.0
C408 C 0.52179 0.69945 0.48702 0.0
O409 O 0.53524 0.70299 0.4797 0.0
O410 O 0.51587 0.62582 0.48752 0.0
C411 C 0.44489 0.62767 0.4853 0.0
O412 O 0.45273 0.65237 0.48542 0.0
C413 C 0.49835 0.66559 0.4653 0.0
O414 O 0.48505 0.67434 0.46948 0.0
O415 O 0.50726 0.67673 0.48986 0.0
C416 C 0.3719 0.90262 0.48726 0.0
O417 O 0.36212 0.89825 0.47917 0.0
O418 O 0.34798 0.84829 0.47396 0.0
Zn419 Zn 0.35096 0.84788 0.48738 0.0
O420 O 0.37584 0.83567 0.49028 0.0
C421 C 0.29602 0.81676 0.48827 0.0
O422 O 0.29726 0.83036 0.48121 0.0
O423 O 0.36694 0.88364 0.49229 0.0
C424 C 0.36876 0.81244 0.49217 0.0
O425 O 0.34414 0.7953 0.49226 0.0
C426 C 0.34192 0.82811 0.46945 0.0
O427 O 0.33769 0.80716 0.47366 0.0
O428 O 0.31651 0.82283 0.49257 0.0
C429 C 0.14744 0.4276 0.34903 0.0
O430 O 0.15178 0.43196 0.35764 0.0
O431 O 0.15651 0.47878 0.36271 0.0
Zn432 Zn 0.16656 0.48047 0.34979 0.0
O433 O 0.20419 0.49204 0.34968 0.0
C434 C 0.14476 0.51252 0.3461 0.0
O435 O 0.12868 0.4985 0.35244 0.0
O436 O 0.14983 0.44575 0.34402 0.0
C437 C 0.21738 0.49944 0.34254 0.0
O438 O 0.20638 0.50045 0.33508 0.0
C439 C 0.17066 0.49859 0.36737 0.0
O440 O 0.18961 0.51871 0.36344 0.0
O441 O 0.16141 0.50693 0.34339 0.0
C442 C 0.57426 0.71132 0.35049 0.0
O443 O 0.5726 0.70636 0.3591 0.0
O444 O 0.52114 0.6808 0.36491 0.0
Zn445 Zn 0.51899 0.68351 0.3515 0.0
O446 O 0.50423 0.70634 0.34896 0.0
C447 C 0.48544 0.62851 0.35074 0.0
O448 O 0.49548 0.62927 0.35862 0.0
O449 O 0.55388 0.70119 0.34581 0.0
C450 C 0.48095 0.69914 0.35075 0.0
O451 O 0.46637 0.67633 0.3543 0.0
C452 C 0.52346 0.69886 0.36996 0.0
O453 O 0.52512 0.71957 0.36635 0.0
O454 O 0.49429 0.64908 0.3462 0.0
C455 C 0.26961 0.84682 0.35549 0.0
O456 O 0.26626 0.83782 0.36369 0.0
O457 O 0.3108 0.83539 0.36934 0.0
Zn458 Zn 0.30396 0.82868 0.35615 0.0
O459 O 0.27725 0.79148 0.35463 0.0
C460 C 0.35776 0.84522 0.35337 0.0
O461 O 0.36082 0.85716 0.36103 0.0
O462 O 0.28773 0.84768 0.35084 0.0
C463 C 0.27467 0.78072 0.34709 0.0
O464 O 0.2899 0.79403 0.34046 0.0
C465 C 0.31371 0.8189 0.37373 0.0
O466 O 0.31269 0.79933 0.36944 0.0
O467 O 0.33567 0.83389 0.34976 0.0
C468 C 0.09992 0.14988 0.16425 0.0
C469 C 0.11816 0.16872 0.16997 0.0
C470 C 0.07469 0.14515 0.16407 0.0
C471 C 0.02993 0.15069 0.17937 0.0
H472 H 0.98234 0.11808 0.15975 0.0
C473 C 0.92019 0.1028 0.18412 0.0
C474 C 0.90667 0.0773 0.18104 0.0
C475 C 0.94581 0.11898 0.18164 0.0
C476 C 0.99545 0.12728 0.16527 0.0
H477 H 0.12503 0.1993 0.17922 0.0
H478 H 0.0812 0.1916 0.17869 0.0
H479 H 0.02854 0.13957 0.15695 0.0
H480 H 0.90905 0.04906 0.17267 0.0
H481 H 0.95366 0.0773 0.16834 0.0
H482 H 0.99682 0.13792 0.18771 0.0
C483 C 0.08612 0.17983 0.17459 0.0
C484 C 0.0219 0.13953 0.16369 0.0
C485 C 0.1113 0.18438 0.17485 0.0
C486 C 0.91899 0.06856 0.1752 0.0
C487 C 0.94447 0.08481 0.17265 0.0
C488 C 0.00353 0.13869 0.18093 0.0
C489 C 0.06721 0.15936 0.16952 0.0
C490 C 0.03946 0.15065 0.17078 0.0
C491 C 0.95825 0.11006 0.17594 0.0
C492 C 0.98603 0.12617 0.17396 0.0
H493 H 0.10458 0.13752 0.16038 0.0
H494 H 0.06072 0.12912 0.16012 0.0
H495 H 0.04275 0.15863 0.18504 0.0
H496 H 0.91119 0.11012 0.1886 0.0
H497 H 0.95597 0.1384 0.18424 0.0
C498 C 0.81209 0.91573 0.19018 0.0
C499 C 0.81672 0.93498 0.18389 0.0
C500 C 0.82065 0.89832 0.18857 0.0
C501 C 0.87403 0.89897 0.17711 0.0
H502 H 0.84268 0.82772 0.18448 0.0
C503 C 0.93052 0.84546 0.17522 0.0
C504 C 0.92783 0.82931 0.18242 0.0
C505 C 0.91377 0.85505 0.17426 0.0
C506 C 0.85176 0.84767 0.18245 0.0
H507 H 0.83135 0.94924 0.17059 0.0
H508 H 0.84616 0.91883 0.1678 0.0
H509 H 0.81723 0.84922 0.18455 0.0
H510 H 0.90526 0.81018 0.19419 0.0
H511 H 0.87661 0.82773 0.19273 0.0
H512 H 0.9088 0.89811 0.17542 0.0
C513 C 0.83641 0.91755 0.17404 0.0
C514 C 0.83713 0.85989 0.18245 0.0
C515 C 0.82783 0.9349 0.17563 0.0
C516 C 0.90779 0.8226 0.18857 0.0
C517 C 0.89123 0.83249 0.18768 0.0
C518 C 0.88868 0.8869 0.1772 0.0
C519 C 0.83396 0.89988 0.18066 0.0
C520 C 0.84821 0.88574 0.17984 0.0
C521 C 0.89417 0.84906 0.18055 0.0
C522 C 0.87784 0.86116 0.17995 0.0
H523 H 0.80341 0.91514 0.19659 0.0
H524 H 0.8185 0.88491 0.1938 0.0
H525 H 0.8833 0.91908 0.17526 0.0
H526 H 0.94554 0.85065 0.17029 0.0
H527 H 0.91629 0.86728 0.16858 0.0
C528 C 0.17753 0.07939 0.18522 0.0
C529 C 0.16716 0.09358 0.18137 0.0
C530 C 0.1682 0.05375 0.18279 0.0
C531 C 0.13118 0.00562 0.16536 0.0
H532 H 0.11076 0.95643 0.18475 0.0
C533 C 0.05011 0.90122 0.16237 0.0
C534 C 0.05002 0.88228 0.1679 0.0
C535 C 0.07033 0.92655 0.16275 0.0
C536 C 0.11691 0.96983 0.17922 0.0
H537 H 0.13929 0.09216 0.17183 0.0
H538 H 0.12302 0.04749 0.16763 0.0
H539 H 0.13492 0.00216 0.18803 0.0
H540 H 0.07233 0.87454 0.17752 0.0
H541 H 0.10791 0.91873 0.17807 0.0
H542 H 0.11258 0.97329 0.15657 0.0
C543 C 0.13847 0.05622 0.17247 0.0
C544 C 0.13069 0.9961 0.18111 0.0
C545 C 0.14763 0.08175 0.17494 0.0
C546 C 0.07168 0.88874 0.17324 0.0
C547 C 0.09199 0.91411 0.1736 0.0
C548 C 0.11754 0.97933 0.16345 0.0
C549 C 0.14851 0.04189 0.17641 0.0
C550 C 0.13728 0.01425 0.17424 0.0
C551 C 0.09102 0.93351 0.16865 0.0
C552 C 0.10953 0.96112 0.17039 0.0
H553 H 0.19266 0.08799 0.19017 0.0
H554 H 0.17636 0.04318 0.18591 0.0
H555 H 0.13642 0.01921 0.15991 0.0
H556 H 0.03382 0.89688 0.15813 0.0
H557 H 0.0688 0.94095 0.15887 0.0
C558 C 0.17844 0.10768 0.3248 0.0
C559 C 0.16863 0.11889 0.3307 0.0
C560 C 0.17064 0.08161 0.32547 0.0
C561 C 0.11281 0.02346 0.33194 0.0
H562 H 0.1511 0.98986 0.32524 0.0
C563 C 0.06075 0.91511 0.3248 0.0
C564 C 0.06915 0.9074 0.31726 0.0
C565 C 0.07545 0.9399 0.32824 0.0
C566 C 0.14012 -0.00102 0.32708 0.0
H567 H 0.14533 0.11224 0.34258 0.0
H568 H 0.13184 0.06674 0.34375 0.0
H569 H 0.17407 0.03584 0.32862 0.0
H570 H 0.09978 0.91945 0.30753 0.0
H571 H 0.12501 0.96302 0.31332 0.0
H572 H 0.07886 0.98725 0.32997 0.0
C573 C 0.14515 0.07804 0.3385 0.0
C574 C 0.1533 0.02525 0.32907 0.0
C575 C 0.15299 0.10413 0.33785 0.0
C576 C 0.09279 0.92484 0.31334 0.0
C577 C 0.10738 0.94975 0.31672 0.0
C578 C 0.09966 0.99733 0.3299 0.0
C579 C 0.15291 0.06626 0.33206 0.0
C580 C 0.13972 0.03785 0.33135 0.0
C581 C 0.09875 0.95769 0.32416 0.0
C582 C 0.11309 0.98484 0.32726 0.0
H583 H 0.19072 0.11858 0.31927 0.0
H584 H 0.17695 0.07312 0.3204 0.0
H585 H 0.10173 0.03268 0.3335 0.0
H586 H 0.04277 0.90199 0.32806 0.0
H587 H 0.06844 0.94517 0.33408 0.0
C588 C 0.89907 0.04651 0.33647 0.0
C589 C 0.88091 0.04831 0.33108 0.0
C590 C 0.92467 0.06628 0.33655 0.0
C591 C 0.96983 0.11635 0.32132 0.0
H592 H 0.0178 0.13032 0.34074 0.0
C593 C 0.0795 0.17798 0.31629 0.0
C594 C 0.0935 0.16669 0.31955 0.0
C595 C 0.05379 0.16812 0.31872 0.0
C596 C 0.0046 0.12663 0.33526 0.0
H597 H 0.87475 0.07342 0.32227 0.0
H598 H 0.91929 0.10821 0.32258 0.0
H599 H 0.97165 0.106 0.34367 0.0
H600 H 0.0917 0.13665 0.32811 0.0
H601 H 0.04688 0.11945 0.3323 0.0
H602 H 0.00273 0.13642 0.31288 0.0
C603 C 0.91394 0.09116 0.32653 0.0
C604 C 0.97818 0.1127 0.33693 0.0
C605 C 0.88837 0.07129 0.3264 0.0
C606 C 0.08143 0.14574 0.32545 0.0
C607 C 0.05582 0.13602 0.32792 0.0
C608 C 0.9962 0.13041 0.31967 0.0
C609 C 0.93261 0.08841 0.33129 0.0
C610 C 0.96047 0.10678 0.32993 0.0
C611 C 0.04164 0.14693 0.32452 0.0
C612 C 0.01386 0.13509 0.32657 0.0
H613 H 0.89397 0.02912 0.34019 0.0
H614 H 0.93848 0.06337 0.34026 0.0
H615 H 0.95683 0.11183 0.31572 0.0
H616 H 0.08827 0.19421 0.31176 0.0
H617 H 0.04337 0.17701 0.31603 0.0
C618 C 0.8209 0.9053 0.31085 0.0
C619 C 0.83059 0.92824 0.31576 0.0
C620 C 0.83021 0.88844 0.31236 0.0
C621 C 0.86441 0.87091 0.32888 0.0
H622 H 0.88834 0.84983 0.30824 0.0
C623 C 0.94324 0.84393 0.3308 0.0
C624 C 0.94447 0.82784 0.32425 0.0
C625 C 0.9235 0.84979 0.33066 0.0
C626 C 0.8812 0.85489 0.31409 0.0
H627 H 0.85732 0.95128 0.3262 0.0
H628 H 0.87347 0.92187 0.32882 0.0
H629 H 0.86505 0.87283 0.30609 0.0
H630 H 0.92444 0.80304 0.313 0.0
H631 H 0.88956 0.81267 0.31292 0.0
H632 H 0.88093 0.85338 0.3369 0.0
C633 C 0.8586 0.91685 0.32384 0.0
C634 C 0.86793 0.86822 0.31284 0.0
C635 C 0.84952 0.93382 0.32228 0.0
C636 C 0.92423 0.81581 0.31807 0.0
C637 C 0.90434 0.82149 0.31798 0.0
C638 C 0.87747 0.85736 0.33013 0.0
C639 C 0.84914 0.89406 0.31887 0.0
C640 C 0.86006 0.87699 0.32022 0.0
C641 C 0.90438 0.83947 0.32402 0.0
C642 C 0.8867 0.84984 0.32276 0.0
H643 H 0.80625 0.90043 0.3058 0.0
H644 H 0.82254 0.87096 0.30845 0.0
H645 H 0.85817 0.8771 0.33469 0.0
H646 H 0.95845 0.85346 0.33568 0.0
H647 H 0.92432 0.86381 0.3354 0.0
C648 C 0.8897 0.84136 0.82631 0.0
C649 C 0.87318 0.82233 0.82027 0.0
C650 C 0.91491 0.84665 0.82744 0.0
C651 C 0.9649 0.84192 0.8148 0.0
H652 H 0.00439 0.87276 0.83633 0.0
C653 C 0.07562 0.8868 0.81678 0.0
C654 C 0.08821 0.9124 0.81978 0.0
C655 C 0.04897 0.8714 0.81763 0.0
C656 C 0.99355 0.86405 0.83029 0.0
H657 H 0.86954 0.79245 0.81123 0.0
H658 H 0.91345 0.80123 0.81339 0.0
H659 H 0.95758 0.8515 0.83685 0.0
H660 H 0.08292 0.94175 0.82624 0.0
H661 H 0.03647 0.9147 0.82788 0.0
H662 H 0.00105 0.85473 0.80827 0.0
C663 C 0.90711 0.81259 0.81706 0.0
C664 C 0.96677 0.85197 0.83056 0.0
C665 C 0.88186 0.80741 0.81587 0.0
C666 C 0.07374 0.92214 0.82383 0.0
C667 C 0.04721 0.90661 0.82483 0.0
C668 C 0.99168 0.85368 0.81457 0.0
C669 C 0.92421 0.83287 0.82262 0.0
C670 C 0.95214 0.84151 0.82275 0.0
C671 C 0.03456 0.88119 0.82168 0.0
C672 C 0.00624 0.86554 0.82225 0.0
H673 H 0.88364 0.85317 0.82983 0.0
H674 H 0.92749 0.8626 0.8317 0.0
H675 H 0.9544 0.83442 0.80861 0.0
H676 H 0.08629 0.87881 0.81361 0.0
H677 H 0.03961 0.85185 0.81515 0.0
C678 C 0.08449 0.159 0.81427 0.0
C679 C 0.06816 0.15448 0.8216 0.0
C680 C 0.10297 0.15141 0.81454 0.0
C681 C 0.13636 0.12883 0.83001 0.0
H682 H 0.14497 0.09854 0.80833 0.0
C683 C 0.16986 0.05426 0.82845 0.0
C684 C 0.18426 0.05454 0.82099 0.0
C685 C 0.16204 0.07248 0.82926 0.0
C686 C 0.14323 0.10742 0.8144 0.0
H687 H 0.05844 0.13865 0.83498 0.0
H688 H 0.08993 0.12442 0.83534 0.0
H689 H 0.11781 0.11774 0.80813 0.0
H690 H 0.20395 0.0757 0.80903 0.0
H691 H 0.19016 0.10743 0.81046 0.0
H692 H 0.16083 0.11704 0.83635 0.0
C693 C 0.08904 0.13448 0.82946 0.0
C694 C 0.12762 0.11846 0.81429 0.0
C695 C 0.07079 0.14241 0.82924 0.0
C696 C 0.19267 0.0748 0.81481 0.0
C697 C 0.18468 0.09291 0.8156 0.0
C698 C 0.1518 0.11749 0.83014 0.0
C699 C 0.10529 0.13877 0.8221 0.0
C700 C 0.12364 0.12897 0.82212 0.0
C701 C 0.16838 0.09123 0.82262 0.0
C702 C 0.15508 0.10637 0.82235 0.0
H703 H 0.08317 0.16861 0.80833 0.0
H704 H 0.11545 0.1555 0.80881 0.0
H705 H 0.13414 0.13718 0.83612 0.0
H706 H 0.16327 0.03902 0.83337 0.0
H707 H 0.14944 0.07068 0.83474 0.0
C708 C 0.81047 0.92977 0.81904 0.0
C709 C 0.82531 0.91789 0.82026 0.0
C710 C 0.82098 0.95604 0.82073 0.0
C711 C 0.87213 0.01041 0.83301 0.0
H712 H 0.87196 0.05237 0.81335 0.0
C713 C 0.94984 0.11547 0.82859 0.0
C714 C 0.94499 0.13207 0.82339 0.0
C715 C 0.93048 0.0902 0.83014 0.0
C716 C 0.87167 0.04106 0.81904 0.0
H717 H 0.86253 0.92399 0.82444 0.0
H718 H 0.8807 0.96973 0.8275 0.0
H719 H 0.84683 0.0058 0.81224 0.0
H720 H 0.91529 0.13602 0.8166 0.0
H721 H 0.88121 0.09211 0.81956 0.0
H722 H 0.89713 0.04553 0.8398 0.0
C723 C 0.86099 0.95875 0.82522 0.0
C724 C 0.85734 0.01431 0.81835 0.0
C725 C 0.85066 0.93264 0.82338 0.0
C726 C 0.91974 0.1236 0.82052 0.0
C727 C 0.90025 0.09834 0.82216 0.0
C728 C 0.88616 0.03717 0.83376 0.0
C729 C 0.84632 0.97073 0.82385 0.0
C730 C 0.85814 -0.00122 0.8252 0.0
C731 C 0.90568 0.08097 0.82662 0.0
C732 C 0.88687 0.05286 0.82664 0.0
H733 H 0.79087 0.91888 0.81665 0.0
H734 H 0.80931 0.96487 0.81962 0.0
H735 H 0.87273 -0.00121 0.83844 0.0
H736 H 0.96905 0.12137 0.83096 0.0
H737 H 0.93558 0.07748 0.83355 0.0
C738 C 0.91165 0.08086 0.67799 0.0
C739 C 0.92994 0.09513 0.67139 0.0
C740 C 0.89447 0.0547 0.67677 0.0
C741 C 0.8902 -0.00088 0.66562 0.0
H742 H 0.81935 0.96536 0.67363 0.0
C743 C 0.83351 0.88984 0.669 0.0
C744 C 0.82084 0.88114 0.67725 0.0
C745 C 0.84164 0.91485 0.66608 0.0
C746 C 0.8391 0.97448 0.67137 0.0
H747 H 0.94401 0.09332 0.6582 0.0
H748 H 0.91412 0.0474 0.65613 0.0
H749 H 0.8441 0.01222 0.67277 0.0
H750 H 0.80491 0.89115 0.68854 0.0
H751 H 0.81962 0.93479 0.68361 0.0
H752 H 0.88592 0.96176 0.66471 0.0
C753 C 0.91315 0.05656 0.66224 0.0
C754 C 0.85322 0.00129 0.67086 0.0
C755 C 0.93021 0.08283 0.66343 0.0
C756 C 0.81472 0.89727 0.68217 0.0
C757 C 0.82306 0.92234 0.6793 0.0
C758 C 0.87618 0.97237 0.66621 0.0
C759 C 0.89531 0.04218 0.66895 0.0
C760 C 0.87912 0.01388 0.66821 0.0
C761 C 0.83748 0.93176 0.67139 0.0
C762 C 0.85066 0.95972 0.66933 0.0
H763 H 0.91086 0.0898 0.68418 0.0
H764 H 0.88116 0.04406 0.68211 0.0
H765 H 0.9102 0.00829 0.66365 0.0
H766 H 0.83822 0.87775 0.66499 0.0
H767 H 0.85214 0.92127 0.65985 0.0
C768 C 0.11536 0.92032 0.68701 0.0
C769 C 0.12856 0.94153 0.68128 0.0
C770 C 0.08902 0.90352 0.68591 0.0
C771 C 0.0333 0.88403 0.6709 0.0
H772 H 0.99742 0.88083 0.69284 0.0
C773 C 0.9284 0.86224 0.67107 0.0
C774 C 0.9126 0.84887 0.67836 0.0
C775 C 0.95442 0.86956 0.6711 0.0
C776 C 0.00695 0.88096 0.68668 0.0
H777 H 0.1251 0.96027 0.66939 0.0
H778 H 0.07924 0.93081 0.66744 0.0
H779 H 0.04364 0.89861 0.6931 0.0
H780 H 0.91146 0.83197 0.69128 0.0
H781 H 0.95664 0.84408 0.69125 0.0
H782 H 0.99661 0.86658 0.66446 0.0
C783 C 0.08917 0.92726 0.67281 0.0
C784 C 0.03352 0.89119 0.68684 0.0
C785 C 0.11543 0.9442 0.67395 0.0
C786 C 0.92323 0.84254 0.68561 0.0
C787 C 0.94917 0.84957 0.6856 0.0
C788 C 0.00663 0.87351 0.67076 0.0
C789 C 0.07551 0.90744 0.67901 0.0
C790 C 0.04703 0.89328 0.67893 0.0
C791 C 0.96518 0.86339 0.67839 0.0
C792 C 0.99318 0.87234 0.67862 0.0
H793 H 0.12491 0.91765 0.69271 0.0
H794 H 0.07899 0.88817 0.69072 0.0
H795 H 0.04325 0.88528 0.66472 0.0
H796 H 0.92077 0.86745 0.66539 0.0
H797 H 0.96621 0.88058 0.6655 0.0
C798 C 0.06991 0.18314 0.68764 0.0
C799 C 0.05281 0.18085 0.68082 0.0
C800 C 0.08559 0.1723 0.68662 0.0
C801 C 0.12055 0.15072 0.68278 0.0
H802 H 0.08353 0.0834 0.67176 0.0
C803 C 0.15984 0.0801 0.68254 0.0
C804 C 0.14178 0.05403 0.68398 0.0
C805 C 0.15178 0.09798 0.68112 0.0
C806 C 0.0941 0.10209 0.67491 0.0
H807 H 0.04079 0.16799 0.66722 0.0
H808 H 0.06889 0.14997 0.66529 0.0
H809 H 0.06621 0.11209 0.67088 0.0
H810 H 0.10115 0.02636 0.68521 0.0
H811 H 0.08713 0.05755 0.68301 0.0
H812 H 0.14759 0.13989 0.6873 0.0
C813 C 0.06947 0.1592 0.67157 0.0
C814 C 0.0844 0.11881 0.67426 0.0
C815 C 0.05351 0.16973 0.67264 0.0
C816 C 0.11554 0.04627 0.68406 0.0
C817 C 0.1075 0.06415 0.68272 0.0
C818 C 0.13015 0.13385 0.6835 0.0
C819 C 0.08476 0.15924 0.6787 0.0
C820 C 0.09721 0.14316 0.67834 0.0
C821 C 0.12549 0.09021 0.68117 0.0
C822 C 0.1167 0.1091 0.67974 0.0
H823 H 0.06987 0.19162 0.69403 0.0
H824 H 0.09697 0.17264 0.69228 0.0
H825 H 0.13113 0.16945 0.6859 0.0
H826 H 0.18023 0.08667 0.68239 0.0
H827 H 0.16615 0.11782 0.67986 0.0
C828 C 0.58648 0.37711 0.50321 0.0
C829 C 0.57104 0.37784 0.51013 0.0
C830 C 0.6122 0.39636 0.50247 0.0
C831 C 0.65924 0.4624 0.51019 0.0
H832 H 0.70895 0.44116 0.50481 0.0
C833 C 0.7661 0.51857 0.52013 0.0
C834 C 0.78399 0.51617 0.51476 0.0
C835 C 0.74016 0.50619 0.51774 0.0
C836 C 0.69533 0.44757 0.50613 0.0
H837 H 0.57052 0.39932 0.52172 0.0
H838 H 0.61554 0.43246 0.52057 0.0
H839 H 0.66345 0.40966 0.50447 0.0
H840 H 0.7892 0.50155 0.50213 0.0
H841 H 0.74399 0.48018 0.49794 0.0
H842 H 0.69143 0.5002 0.51221 0.0
C843 C 0.60765 0.41737 0.51559 0.0
C844 C 0.66918 0.42945 0.50595 0.0
C845 C 0.58189 0.39821 0.5163 0.0
C846 C 0.77586 0.50347 0.50649 0.0
C847 C 0.74993 0.49108 0.50411 0.0
C848 C 0.68548 0.48054 0.51041 0.0
C849 C 0.62313 0.41668 0.50866 0.0
C850 C 0.65081 0.43652 0.50813 0.0
C851 C 0.73164 0.49125 0.50992 0.0
C852 C 0.70381 0.47322 0.50852 0.0
H853 H 0.57865 0.36182 0.4983 0.0
H854 H 0.62348 0.39539 0.49699 0.0
H855 H 0.64557 0.46859 0.51175 0.0
H856 H 0.77174 0.5284 0.52651 0.0
H857 H 0.72656 0.50671 0.52237 0.0
C858 C 0.46896 0.25117 0.50957 0.0
C859 C 0.4792 0.27051 0.50304 0.0
C860 C 0.47527 0.23174 0.50962 0.0
C861 C 0.51176 0.20579 0.49718 0.0
H862 H 0.52855 0.19496 0.52124 0.0
C863 C 0.59013 0.18036 0.50577 0.0
C864 C 0.58438 0.16152 0.51234 0.0
C865 C 0.57277 0.18876 0.50386 0.0
C866 C 0.52361 0.19744 0.51449 0.0
H867 H 0.50252 0.28373 0.49105 0.0
H868 H 0.51442 0.2506 0.49131 0.0
H869 H 0.50483 0.21739 0.51906 0.0
H870 H 0.55575 0.13638 0.52195 0.0
H871 H 0.52568 0.15153 0.51874 0.0
H872 H 0.5322 0.18709 0.49268 0.0
C873 C 0.501 0.24985 0.4963 0.0
C874 C 0.50982 0.21018 0.51322 0.0
C875 C 0.49422 0.26896 0.49614 0.0
C876 C 0.56076 0.15099 0.51687 0.0
C877 C 0.54356 0.15964 0.51504 0.0
C878 C 0.52593 0.19335 0.49847 0.0
C879 C 0.4925 0.23164 0.50327 0.0
C880 C 0.50407 0.21496 0.50454 0.0
C881 C 0.54948 0.17871 0.50856 0.0
C882 C 0.53232 0.18945 0.50713 0.0
H883 H 0.45711 0.25181 0.51492 0.0
H884 H 0.46765 0.21757 0.51492 0.0
H885 H 0.50733 0.20869 0.49041 0.0
H886 H 0.60811 0.18872 0.50212 0.0
H887 H 0.57792 0.20369 0.4989 0.0
C888 C 0.71669 0.23305 0.49574 0.0
C889 C 0.71294 0.21652 0.50294 0.0
C890 C 0.73604 0.25881 0.49608 0.0
C891 C 0.79217 0.30746 0.50925 0.0
H892 H 0.76284 0.35043 0.50364 0.0
C893 C 0.82947 0.40885 0.5242 0.0
C894 C 0.82857 0.42754 0.51881 0.0
C895 C 0.81938 0.38365 0.5211 0.0
C896 C 0.77162 0.33888 0.50509 0.0
H897 H 0.72816 0.2134 0.51575 0.0
H898 H 0.76152 0.25834 0.51642 0.0
H899 H 0.73944 0.30524 0.49979 0.0
H900 H 0.81748 0.43475 0.50579 0.0
H901 H 0.80026 0.39103 0.50037 0.0
H902 H 0.82405 0.34124 0.51482 0.0
C903 C 0.74968 0.25147 0.51048 0.0
C904 C 0.7582 0.3129 0.50285 0.0
C905 C 0.73044 0.22566 0.51011 0.0
C906 C 0.81816 0.42073 0.51016 0.0
C907 C 0.80823 0.39564 0.50705 0.0
C908 C 0.80566 0.33357 0.51149 0.0
C909 C 0.75191 0.26858 0.50366 0.0
C910 C 0.76809 0.29676 0.50502 0.0
C911 C 0.8083 0.37669 0.51254 0.0
C912 C 0.79532 0.34947 0.50955 0.0
H913 H 0.70377 0.2265 0.49006 0.0
H914 H 0.7377 0.27138 0.49062 0.0
H915 H 0.8004 0.29557 0.51094 0.0
H916 H 0.83743 0.41352 0.53088 0.0
H917 H 0.81948 0.36945 0.52553 0.0
C918 C 0.83665 0.44283 0.65647 0.0
C919 C 0.82724 0.45203 0.66329 0.0
C920 C 0.82841 0.41661 0.65584 0.0
C921 C 0.77083 0.35625 0.6612 0.0
H922 H 0.80947 0.32447 0.65287 0.0
C923 C 0.72136 0.24746 0.65539 0.0
C924 C 0.72855 0.2389 0.64776 0.0
C925 C 0.73564 0.27304 0.65811 0.0
C926 C 0.79839 0.33312 0.65512 0.0
H927 H 0.80408 0.44142 0.67535 0.0
H928 H 0.78998 0.3958 0.67431 0.0
H929 H 0.83206 0.37025 0.65662 0.0
H930 H 0.75651 0.25041 0.63706 0.0
H931 H 0.78104 0.29535 0.64166 0.0
H932 H 0.73714 0.3197 0.65942 0.0
C933 C 0.8032 0.40874 0.66932 0.0
C934 C 0.81136 0.35928 0.65731 0.0
C935 C 0.81139 0.4349 0.66993 0.0
C936 C 0.75048 0.25644 0.64296 0.0
C937 C 0.76466 0.28215 0.64564 0.0
C938 C 0.75791 0.33026 0.65896 0.0
C939 C 0.81069 0.39918 0.66205 0.0
C940 C 0.79766 0.37111 0.66035 0.0
C941 C 0.7573 0.29079 0.65323 0.0
C942 C 0.77147 0.31835 0.65586 0.0
H943 H 0.84896 0.45554 0.65125 0.0
H944 H 0.83451 0.40981 0.65016 0.0
H945 H 0.75964 0.36493 0.6633 0.0
H946 H 0.70475 0.23436 0.65931 0.0
H947 H 0.72969 0.27887 0.66408 0.0
C948 C 0.55452 0.4013 0.65398 0.0
C949 C 0.54847 0.38089 0.65991 0.0
C950 C 0.57896 0.42321 0.65408 0.0
C951 C 0.64118 0.45568 0.66661 0.0
H952 H 0.67074 0.47222 0.64282 0.0
C953 C 0.74706 0.4902 0.65931 0.0
C954 C 0.76001 0.50938 0.65284 0.0
C955 C 0.7209 0.48033 0.66086 0.0
C956 C 0.66271 0.46825 0.6495 0.0
H957 H 0.56257 0.36843 0.67109 0.0
H958 H 0.60508 0.40613 0.67114 0.0
H959 H 0.62453 0.44504 0.64456 0.0
H960 H 0.75582 0.53363 0.64303 0.0
H961 H 0.70978 0.51592 0.64564 0.0
H962 H 0.67973 0.47772 0.67151 0.0
C963 C 0.59104 0.4055 0.66646 0.0
C964 C 0.63617 0.45272 0.65052 0.0
C965 C 0.56664 0.38371 0.66638 0.0
C966 C 0.74633 0.51881 0.64805 0.0
C967 C 0.72002 0.50868 0.64953 0.0
C968 C 0.66775 0.47102 0.66559 0.0
C969 C 0.59782 0.4251 0.66009 0.0
C970 C 0.62516 0.44554 0.65909 0.0
C971 C 0.70704 0.48924 0.65592 0.0
C972 C 0.67882 0.47678 0.65703 0.0
H973 H 0.54085 0.39985 0.64897 0.0
H974 H 0.58339 0.43819 0.6492 0.0
H975 H 0.63328 0.45096 0.67331 0.0
H976 H 0.75709 0.48264 0.66316 0.0
H977 H 0.71133 0.4651 0.66574 0.0
C978 C 0.61325 0.17501 0.66756 0.0
C979 C 0.61213 0.15649 0.66156 0.0
C980 C 0.59298 0.18002 0.6681 0.0
C981 C 0.54232 0.17608 0.65332 0.0
H982 H 0.5295 0.20897 0.67339 0.0
C983 C 0.48155 0.22541 0.64973 0.0
C984 C 0.49405 0.25092 0.65282 0.0
C985 C 0.49085 0.20897 0.65199 0.0
C986 C 0.53281 0.19971 0.66775 0.0
H987 H 0.58767 0.12658 0.65221 0.0
H988 H 0.55187 0.13466 0.6534 0.0
H989 H 0.55353 0.18655 0.67571 0.0
H990 H 0.52547 0.27891 0.66098 0.0
H991 H 0.54164 0.25018 0.66493 0.0
H992 H 0.52201 0.18965 0.64534 0.0
C993 C 0.56883 0.14605 0.65743 0.0
C994 C 0.54662 0.18691 0.66906 0.0
C995 C 0.58926 0.14126 0.6568 0.0
C996 C 0.51552 0.25941 0.65845 0.0
C997 C 0.52463 0.24289 0.66078 0.0
C998 C 0.52829 0.18859 0.65204 0.0
C999 C 0.57097 0.16638 0.66274 0.0
C1000 C 0.55228 0.17566 0.6618 0.0
C1001 C 0.51262 0.21764 0.65747 0.0
C1002 C 0.52408 0.20119 0.65918 0.0
H1003 H 0.63055 0.18703 0.67135 0.0
H1004 H 0.5955 0.1959 0.67224 0.0
H1005 H 0.54661 0.16809 0.64752 0.0
H1006 H 0.46489 0.21826 0.64542 0.0
H1007 H 0.48117 0.18955 0.64938 0.0
C1008 C 0.74018 0.2586 0.15911 0.0
C1009 C 0.75521 0.26044 0.15166 0.0
C1010 C 0.71378 0.24127 0.15915 0.0
C1011 C 0.65961 0.20417 0.14363 0.0
H1012 H 0.62287 0.17307 0.16562 0.0
C1013 C 0.55012 0.1413 0.14381 0.0
C1014 C 0.53828 0.15037 0.14974 0.0
C1015 C 0.57619 0.1493 0.14468 0.0
C1016 C 0.63293 0.18155 0.15943 0.0
H1017 H 0.75458 0.24498 0.1385 0.0
H1018 H 0.70864 0.21417 0.13864 0.0
H1019 H 0.6698 0.19772 0.16569 0.0
H1020 H 0.5439 0.17303 0.1617 0.0
H1021 H 0.58937 0.18676 0.16326 0.0
H1022 H 0.62274 0.18811 0.1374 0.0
C1023 C 0.71706 0.22661 0.14438 0.0
C1024 C 0.65978 0.19581 0.15946 0.0
C1025 C 0.74342 0.2442 0.1443 0.0
C1026 C 0.55251 0.16584 0.15699 0.0
C1027 C 0.57853 0.17362 0.15791 0.0
C1028 C 0.63284 0.18966 0.14358 0.0
C1029 C 0.70182 0.22512 0.15176 0.0
C1030 C 0.67345 0.20778 0.1516 0.0
C1031 C 0.59083 0.16624 0.15156 0.0
C1032 C 0.61921 0.17863 0.15151 0.0
H1033 H 0.74871 0.27093 0.16487 0.0
H1034 H 0.70267 0.24108 0.16488 0.0
H1035 H 0.66933 0.21342 0.13748 0.0
H1036 H 0.53968 0.12925 0.13818 0.0
H1037 H 0.58517 0.14308 0.13976 0.0
C1038 C 0.85438 0.40464 0.15029 0.0
C1039 C 0.84723 0.38182 0.15502 0.0
C1040 C 0.8426 0.41914 0.15217 0.0
C1041 C 0.81686 0.44932 0.15808 0.0
H1042 H 0.74336 0.40408 0.16071 0.0
C1043 C 0.74437 0.48644 0.15916 0.0
C1044 C 0.72178 0.47227 0.15413 0.0
C1045 C 0.76123 0.47708 0.16052 0.0
C1046 C 0.76383 0.41698 0.15996 0.0
H1047 H 0.82453 0.35795 0.16608 0.0
H1048 H 0.80463 0.38367 0.16954 0.0
H1049 H 0.77181 0.38637 0.16143 0.0
H1050 H 0.6993 0.43726 0.14651 0.0
H1051 H 0.72879 0.4211 0.14879 0.0
H1052 H 0.80852 0.47974 0.15616 0.0
C1053 C 0.8186 0.38989 0.16418 0.0
C1054 C 0.78024 0.40691 0.16052 0.0
C1055 C 0.83015 0.37527 0.16225 0.0
C1056 C 0.71645 0.4486 0.15046 0.0
C1057 C 0.73329 0.43925 0.15182 0.0
C1058 C 0.80037 0.45942 0.15751 0.0
C1059 C 0.82365 0.4112 0.15885 0.0
C1060 C 0.80692 0.42284 0.15944 0.0
C1061 C 0.75583 0.45334 0.15688 0.0
C1062 C 0.77363 0.44324 0.15825 0.0
H1063 H 0.86746 0.4102 0.14468 0.0
H1064 H 0.84694 0.4354 0.14791 0.0
H1065 H 0.83732 0.46215 0.15729 0.0
H1066 H 0.74903 0.50476 0.16209 0.0
H1067 H 0.77834 0.48829 0.1645 0.0
C1068 C 0.50079 0.25569 0.14728 0.0
C1069 C 0.50557 0.24306 0.15428 0.0
C1070 C 0.50862 0.28179 0.14796 0.0
C1071 C 0.53224 0.33607 0.16425 0.0
H1072 H 0.56241 0.37753 0.14305 0.0
C1073 C 0.60746 0.44415 0.16424 0.0
C1074 C 0.60723 0.45938 0.15714 0.0
C1075 C 0.58923 0.41799 0.16463 0.0
C1076 C 0.55358 0.3662 0.14899 0.0
H1077 H 0.52216 0.24782 0.16751 0.0
H1078 H 0.53664 0.29346 0.16856 0.0
H1079 H 0.54251 0.33113 0.14207 0.0
H1080 H 0.58617 0.45964 0.14539 0.0
H1081 H 0.55443 0.41397 0.14609 0.0
H1082 H 0.54468 0.37157 0.17123 0.0
C1083 C 0.52623 0.28315 0.16264 0.0
C1084 C 0.54214 0.33953 0.14844 0.0
C1085 C 0.51814 0.257 0.162 0.0
C1086 C 0.58705 0.44842 0.1509 0.0
C1087 C 0.56893 0.42223 0.15127 0.0
C1088 C 0.54395 0.36284 0.16482 0.0
C1089 C 0.52169 0.29593 0.15561 0.0
C1090 C 0.5317 0.32412 0.15608 0.0
C1091 C 0.5705 0.40656 0.15792 0.0
C1092 C 0.55507 0.37818 0.15721 0.0
H1093 H 0.49087 0.24539 0.14128 0.0
H1094 H 0.5044 0.29086 0.14247 0.0
H1095 H 0.52394 0.32479 0.17024 0.0
H1096 H 0.62265 0.45204 0.16919 0.0
H1097 H 0.59097 0.40639 0.16983 0.0
C1098 C 0.59765 0.40843 0.00626 0.0
C1099 C 0.59687 0.42258 0.01361 0.0
C1100 C 0.58009 0.38214 0.00557 0.0
C1101 C 0.53695 0.32631 0.01959 0.0
H1102 H 0.51288 0.29257 0.99664 0.0
C1103 C 0.4722 0.21724 0.01755 0.0
C1104 C 0.4821 0.20542 0.01197 0.0
C1105 C 0.48128 0.2436 0.01687 0.0
C1106 C 0.5194 0.30178 0.00309 0.0
H1107 H 0.5765 0.42052 0.02583 0.0
H1108 H 0.54546 0.37487 0.02452 0.0
H1109 H 0.53852 0.33943 0.99733 0.0
H1110 H 0.50756 0.21151 0.00079 0.0
H1111 H 0.52328 0.25747 -0.0004 0.0
H1112 H 0.51807 0.28872 0.02534 0.0
C1113 C 0.56004 0.38385 0.0194 0.0
C1114 C 0.5342 0.32859 0.00349 0.0
C1115 C 0.57779 0.41006 0.02014 0.0
C1116 C 0.49967 0.22007 0.00523 0.0
C1117 C 0.50861 0.2464 0.00451 0.0
C1118 C 0.52197 0.2996 0.0192 0.0
C1119 C 0.56117 0.36946 0.01217 0.0
C1120 C 0.54356 0.34116 0.01174 0.0
C1121 C 0.50024 0.25858 0.01056 0.0
C1122 C 0.5134 0.28702 0.01094 0.0
H1123 H 0.61217 0.41753 0.00112 0.0
H1124 H 0.58184 0.37165 -1e-05 0.0
H1125 H 0.54416 0.3352 0.02604 0.0
H1126 H 0.45852 0.20649 0.02277 0.0
H1127 H 0.47423 0.25246 0.02153 0.0
C1128 C 0.77887 0.25503 0.0242 0.0
C1129 C 0.7897 0.27402 0.01753 0.0
C1130 C 0.75254 0.23728 0.02418 0.0
C1131 C 0.6966 0.22132 0.02677 0.0
H1132 H 0.65415 0.19538 0.00555 0.0
C1133 C 0.59196 0.19922 0.02597 0.0
C1134 C 0.57391 0.17812 0.02096 0.0
C1135 C 0.61796 0.20651 0.02572 0.0
C1136 C 0.66568 0.20214 0.01157 0.0
H1137 H 0.78181 0.28771 0.00517 0.0
H1138 H 0.73604 0.25711 0.00521 0.0
H1139 H 0.70053 0.21367 0.00433 0.0
H1140 H 0.56893 0.14773 0.01189 0.0
H1141 H 0.6143 0.16038 0.01152 0.0
H1142 H 0.66184 0.21003 0.03399 0.0
C1143 C 0.74777 0.25577 0.01044 0.0
C1144 C 0.69229 0.21282 0.01085 0.0
C1145 C 0.77407 0.27347 0.01044 0.0
C1146 C 0.58237 0.1642 0.0158 0.0
C1147 C 0.60838 0.17148 0.01555 0.0
C1148 C 0.67003 0.21062 0.02749 0.0
C1149 C 0.73653 0.23816 0.0175 0.0
C1150 C 0.70812 0.22312 0.01841 0.0
C1151 C 0.6265 0.19282 0.02046 0.0
C1152 C 0.65433 0.20151 0.01986 0.0
H1153 H 0.79042 0.25474 0.02971 0.0
H1154 H 0.74453 0.22358 0.02962 0.0
H1155 H 0.7082 0.2293 0.03272 0.0
H1156 H 0.58609 0.21037 0.03001 0.0
H1157 H 0.63147 0.2233 0.02948 0.0
C1158 C 0.81324 0.40395 0.0109 0.0
C1159 C 0.81698 0.39795 0.01966 0.0
C1160 C 0.80487 0.42156 0.00942 0.0
C1161 C 0.80276 0.47607 0.01906 0.0
H1162 H 0.7376 0.45038 0.00684 0.0
C1163 C 0.73813 0.51975 0.02427 0.0
C1164 C 0.71937 0.51572 0.01788 0.0
C1165 C 0.75482 0.51026 0.02286 0.0
C1166 C 0.75617 0.45832 0.01004 0.0
H1167 H 0.81565 0.40615 0.03371 0.0
H1168 H 0.80155 0.43738 0.03109 0.0
H1169 H 0.75781 0.42407 0.00749 0.0
H1170 H 0.70512 0.50106 0.0046 0.0
H1171 H 0.73516 0.48569 0.00192 0.0
H1172 H 0.8014 0.51037 0.02159 0.0
C1173 C 0.80492 0.42828 0.0254 0.0
C1174 C 0.76762 0.44306 0.01047 0.0
C1175 C 0.81275 0.41028 0.02689 0.0
C1176 C 0.7192 0.50415 0.0097 0.0
C1177 C 0.73626 0.4951 0.00821 0.0
C1178 C 0.7916 0.4916 0.01848 0.0
C1179 C 0.8007 0.43389 0.01666 0.0
C1180 C 0.7906 0.45151 0.0152 0.0
C1181 C 0.75348 0.49694 0.01494 0.0
C1182 C 0.7677 0.48259 0.01422 0.0
H1183 H 0.81635 0.39471 0.0052 0.0
H1184 H 0.80167 0.42559 0.00263 0.0
H1185 H 0.82069 0.48306 0.02266 0.0
H1186 H 0.73873 0.52853 0.03066 0.0
H1187 H 0.76754 0.51192 0.02826 0.0
C1188 C 0.25567 0.73607 0.84052 0.0
C1189 C 0.24296 0.74531 0.84594 0.0
C1190 C 0.28125 0.75219 0.83803 0.0
C1191 C 0.33962 0.80774 0.84604 0.0
H1192 H 0.36598 0.80642 0.82249 0.0
C1193 C 0.4478 0.85604 0.84064 0.0
C1194 C 0.45565 0.8404 0.83628 0.0
C1195 C 0.42233 0.85052 0.84005 0.0
C1196 C 0.35895 0.807 0.8291 0.0
H1197 H 0.2469 0.77889 0.85283 0.0
H1198 H 0.29175 0.80693 0.84858 0.0
H1199 H 0.31961 0.7841 0.82504 0.0
H1200 H 0.44354 0.80817 0.82722 0.0
H1201 H 0.39919 0.79809 0.82641 0.0
H1202 H 0.37863 0.82923 0.8503 0.0
C1203 C 0.28186 0.78721 0.84626 0.0
C1204 C 0.33241 0.79425 0.83055 0.0
C1205 C 0.2562 0.77115 0.84868 0.0
C1206 C 0.43811 0.82054 0.8307 0.0
C1207 C 0.41259 0.81483 0.8302 0.0
C1208 C 0.3661 0.82024 0.84462 0.0
C1209 C 0.2947 0.77782 0.84098 0.0
C1210 C 0.32253 0.794 0.83908 0.0
C1211 C 0.40413 0.82907 0.83518 0.0
C1212 C 0.37614 0.8195 0.83619 0.0
H1213 H 0.24595 0.71629 0.83825 0.0
H1214 H 0.29075 0.74434 0.83404 0.0
H1215 H 0.33256 0.80765 0.85271 0.0
H1216 H 0.46098 0.87173 0.84489 0.0
H1217 H 0.41665 0.86233 0.84377 0.0
C1218 C 0.18023 0.61275 0.83302 0.0
C1219 C 0.16477 0.61588 0.83936 0.0
C1220 C 0.18344 0.59133 0.83333 0.0
C1221 C 0.18311 0.54719 0.85026 0.0
H1222 H 0.20439 0.52169 0.83009 0.0
C1223 C 0.23228 0.48608 0.85461 0.0
C1224 C 0.25575 0.4963 0.85 0.0
C1225 C 0.2151 0.49477 0.85274 0.0
C1226 C 0.19832 0.52851 0.83578 0.0
H1227 H 0.13833 0.59764 0.8504 0.0
H1228 H 0.14351 0.5599 0.85082 0.0
H1229 H 0.18254 0.54611 0.82744 0.0
H1230 H 0.27927 0.52301 0.83963 0.0
H1231 H 0.24928 0.53802 0.83635 0.0
H1232 H 0.19952 0.53014 0.85857 0.0
C1233 C 0.15377 0.57441 0.84577 0.0
C1234 C 0.18587 0.54253 0.83427 0.0
C1235 C 0.15067 0.59596 0.84549 0.0
C1236 C 0.26142 0.51489 0.84334 0.0
C1237 C 0.24413 0.52329 0.84139 0.0
C1238 C 0.19531 0.53295 0.85176 0.0
C1239 C 0.17109 0.57241 0.83995 0.0
C1240 C 0.17903 0.55292 0.84149 0.0
C1241 C 0.22091 0.51349 0.84612 0.0
C1242 C 0.20389 0.52432 0.84453 0.0
H1243 H 0.19122 0.62763 0.82816 0.0
H1244 H 0.19707 0.59062 0.82878 0.0
H1245 H 0.17845 0.55511 0.85598 0.0
H1246 H 0.22737 0.47168 0.85976 0.0
H1247 H 0.19731 0.48692 0.85648 0.0
C1248 C 0.38437 0.57405 0.83393 0.0
C1249 C 0.383 0.55531 0.83988 0.0
C1250 C 0.405 0.59916 0.83427 0.0
C1251 C 0.45022 0.64337 0.85082 0.0
H1252 H 0.47381 0.69046 0.83072 0.0
C1253 C 0.5124 0.7534 0.85543 0.0
C1254 C 0.50314 0.7675 0.85081 0.0
C1255 C 0.50286 0.7274 0.85349 0.0
C1256 C 0.46744 0.67751 0.83639 0.0
H1257 H 0.40337 0.54767 0.85032 0.0
H1258 H 0.43965 0.59153 0.85082 0.0
H1259 H 0.44915 0.64421 0.82801 0.0
H1260 H 0.47703 0.76556 0.84041 0.0
H1261 H 0.46039 0.7203 0.83708 0.0
H1262 H 0.46787 0.67669 0.85919 0.0
C1263 C 0.42445 0.58689 0.84602 0.0
C1264 C 0.45333 0.65105 0.83485 0.0
C1265 C 0.40374 0.56172 0.84569 0.0
C1266 C 0.48452 0.75522 0.84411 0.0
C1267 C 0.47515 0.72935 0.84214 0.0
C1268 C 0.46445 0.66981 0.85235 0.0
C1269 C 0.42481 0.60611 0.84054 0.0
C1270 C 0.44383 0.6337 0.84205 0.0
C1271 C 0.48406 0.7151 0.84685 0.0
C1272 C 0.47249 0.68716 0.84516 0.0
H1273 H 0.3688 0.56972 0.82933 0.0
H1274 H 0.40449 0.61345 0.82999 0.0
H1275 H 0.44294 0.63063 0.85653 0.0
H1276 H 0.52681 0.76233 0.86061 0.0
H1277 H 0.51014 0.7169 0.8572 0.0
C1278 C 0.42542 0.5814 0.98032 0.0
C1279 C 0.40101 0.5671 0.98425 0.0
C1280 C 0.44137 0.60728 0.98253 0.0
C1281 C 0.45217 0.65629 -0.00046 0.0
H1282 H 0.47987 0.70419 0.97975 0.0
C1283 C 0.47671 0.7614 0.00192 0.0
C1284 C 0.49505 0.77972 0.99609 0.0
C1285 C 0.47125 0.73592 0.0017 0.0
C1286 C 0.47291 0.69117 0.98539 0.0
H1287 H 0.37441 0.56857 0.99373 0.0
H1288 H 0.4022 0.61368 0.99754 0.0
H1289 H 0.45842 0.65829 0.97684 0.0
H1290 H 0.52399 0.78633 0.98614 0.0
H1291 H 0.51494 0.742 0.98593 0.0
H1292 H 0.46619 0.68917 0.00808 0.0
C1293 C 0.40908 0.60485 0.9928 0.0
C1294 C 0.46049 0.66481 0.98371 0.0
C1295 C 0.39306 0.57908 0.99055 0.0
C1296 C 0.50948 0.77258 0.99063 0.0
C1297 C 0.50416 0.74712 0.99046 0.0
C1298 C 0.46478 0.6827 0.00124 0.0
C1299 C 0.43332 0.61928 0.98877 0.0
C1300 C 0.44938 0.6471 0.99073 0.0
C1301 C 0.48418 0.72826 0.9957 0.0
C1302 C 0.47468 0.70046 0.99416 0.0
H1303 H 0.43214 0.5727 0.97547 0.0
H1304 H 0.46001 0.61793 0.97935 0.0
H1305 H 0.44412 0.64304 0.00509 0.0
H1306 H 0.4653 0.76627 0.00624 0.0
H1307 H 0.45564 0.72197 0.0058 0.0
C1308 C 0.22665 0.71184 0.00245 0.0
C1309 C 0.20872 0.71273 0.99665 0.0
C1310 C 0.25205 0.73201 0.00265 0.0
C1311 C 0.29769 0.78137 0.98729 0.0
H1312 H 0.34466 0.79665 0.00714 0.0
C1313 C 0.40768 0.84292 0.98297 0.0
C1314 C 0.42129 0.83145 0.98642 0.0
C1315 C 0.38187 0.83328 0.98521 0.0
C1316 C 0.33173 0.79262 0.00155 0.0
H1317 H 0.20262 0.73669 0.98727 0.0
H1318 H 0.24677 0.77224 0.98781 0.0
H1319 H 0.29837 0.77243 0.0098 0.0
H1320 H 0.41875 0.80133 0.99512 0.0
H1321 H 0.37376 0.78455 0.999 0.0
H1322 H 0.33105 0.80108 0.97902 0.0
C1323 C 0.24145 0.75556 0.99198 0.0
C1324 C 0.30524 0.77873 0.00306 0.0
C1325 C 0.21608 0.73526 0.99171 0.0
C1326 C 0.40876 0.81054 0.99231 0.0
C1327 C 0.38306 0.80107 0.99461 0.0
C1328 C 0.32414 0.79544 0.9858 0.0
C1329 C 0.26001 0.75365 0.99712 0.0
C1330 C 0.28788 0.77225 0.9959 0.0
C1331 C 0.36927 0.81217 0.99101 0.0
C1332 C 0.34142 0.80055 0.99286 0.0
H1333 H 0.22161 0.69481 0.00638 0.0
H1334 H 0.26576 0.72972 0.00667 0.0
H1335 H 0.28501 0.77643 0.98158 0.0
H1336 H 0.41682 0.85913 0.97845 0.0
H1337 H 0.37171 0.84226 0.98237 0.0
C1338 C 0.15242 0.56661 0.98013 0.0
C1339 C 0.16329 0.59148 0.98375 0.0
C1340 C 0.16237 0.55068 0.98232 0.0
C1341 C 0.20155 0.54079 0.99911 0.0
H1342 H 0.21888 0.50994 0.97954 0.0
C1343 C 0.27978 0.513 0.00152 0.0
C1344 C 0.27876 0.49386 0.99586 0.0
C1345 C 0.26035 0.5193 0.00129 0.0
C1346 C 0.21361 0.51779 0.98513 0.0
H1347 H 0.19287 0.61898 0.99261 0.0
H1348 H 0.21017 0.59117 0.99643 0.0
H1349 H 0.19526 0.53219 0.97652 0.0
H1350 H 0.25522 0.46442 0.98622 0.0
H1351 H 0.22093 0.4749 0.98602 0.0
H1352 H 0.22025 0.52676 0.00772 0.0
C1353 C 0.19388 0.58396 0.99194 0.0
C1354 C 0.20016 0.53069 0.98338 0.0
C1355 C 0.18412 0.59997 0.98968 0.0
C1356 C 0.25674 0.47951 0.99058 0.0
C1357 C 0.23718 0.48566 0.99041 0.0
C1358 C 0.2148 0.52768 0.00088 0.0
C1359 C 0.18318 0.55919 0.98826 0.0
C1360 C 0.1946 0.5429 0.99031 0.0
C1361 C 0.23933 0.50641 0.99546 0.0
C1362 C 0.22163 0.51662 0.99388 0.0
H1363 H 0.1363 0.55948 0.97556 0.0
H1364 H 0.15371 0.53164 0.97941 0.0
H1365 H 0.19712 0.54969 0.0046 0.0
H1366 H 0.29642 0.52437 0.0057 0.0
H1367 H 0.2628 0.53547 0.00525 0.0
C1368 C 0.21824 0.47802 0.47987 0.0
C1369 C 0.20211 0.48034 0.48613 0.0
C1370 C 0.2445 0.48893 0.48156 0.0
C1371 C 0.29417 0.5426 0.4947 0.0
H1372 H 0.3388 0.52224 0.48303 0.0
C1373 C 0.40961 0.58259 0.48823 0.0
C1374 C 0.41744 0.60854 0.48661 0.0
C1375 C 0.38366 0.56456 0.48951 0.0
C1376 C 0.32669 0.52809 0.48647 0.0
H1377 H 0.20023 0.49327 0.4995 0.0
H1378 H 0.24585 0.51134 0.50263 0.0
H1379 H 0.29277 0.49229 0.48364 0.0
H1380 H 0.4042 0.63589 0.48502 0.0
H1381 H 0.35897 0.60443 0.48696 0.0
H1382 H 0.32804 0.57819 0.49766 0.0
C1383 C 0.23847 0.50207 0.49624 0.0
C1384 C 0.30021 0.51099 0.48672 0.0
C1385 C 0.21227 0.49149 0.49449 0.0
C1386 C 0.39881 0.61608 0.4863 0.0
C1387 C 0.37285 0.59802 0.4875 0.0
C1388 C 0.32062 0.55954 0.49454 0.0
C1389 C 0.25513 0.50207 0.48963 0.0
C1390 C 0.28352 0.51829 0.49062 0.0
C1391 C 0.36493 0.57203 0.48914 0.0
C1392 C 0.33716 0.55283 0.49019 0.0
H1393 H 0.21103 0.46954 0.47336 0.0
H1394 H 0.25662 0.48861 0.47627 0.0
H1395 H 0.28203 0.54914 0.49768 0.0
H1396 H 0.42355 0.57621 0.48857 0.0
H1397 H 0.37832 0.5448 0.49087 0.0
C1398 C 0.50677 0.718 0.49892 0.0
C1399 C 0.51747 0.72005 0.49041 0.0
C1400 C 0.49659 0.7336 0.50129 0.0
C1401 C 0.45625 0.7491 0.50102 0.0
H1402 H 0.47493 0.81446 0.48996 0.0
C1403 C 0.38104 0.77858 0.49374 0.0
C1404 C 0.38813 0.80465 0.49386 0.0
C1405 C 0.39948 0.7712 0.49492 0.0
C1406 C 0.46957 0.79642 0.49325 0.0
H1407 H 0.52776 0.74137 0.47795 0.0
H1408 H 0.50922 0.76777 0.48189 0.0
H1409 H 0.50532 0.79895 0.48983 0.0
H1410 H 0.41998 0.84344 0.49562 0.0
H1411 H 0.45209 0.83053 0.49796 0.0
H1412 H 0.42076 0.74676 0.50459 0.0
C1413 C 0.50909 0.75465 0.48688 0.0
C1414 C 0.48692 0.78733 0.49307 0.0
C1415 C 0.51973 0.73941 0.48459 0.0
C1416 C 0.41396 0.82318 0.49541 0.0
C1417 C 0.43239 0.81578 0.49671 0.0
C1418 C 0.43911 0.75835 0.50131 0.0
C1419 C 0.49636 0.75116 0.49511 0.0
C1420 C 0.48016 0.76314 0.49669 0.0
C1421 C 0.42544 0.78969 0.49639 0.0
C1422 C 0.44515 0.78169 0.49716 0.0
H1423 H 0.50504 0.7034 0.50358 0.0
H1424 H 0.48772 0.73093 0.5078 0.0
H1425 H 0.45008 0.73027 0.5038 0.0
H1426 H 0.36132 0.76384 0.4925 0.0
H1427 H 0.39341 0.75097 0.49443 0.0
C1428 C 0.25525 0.77933 0.48273 0.0
C1429 C 0.27348 0.79088 0.4896 0.0
C1430 C 0.23815 0.75287 0.4828 0.0
C1431 C 0.2116 0.69296 0.49596 0.0
H1432 H 0.22391 0.66469 0.47441 0.0
C1433 C 0.16623 0.58354 0.48771 0.0
C1434 C 0.18469 0.57638 0.48576 0.0
C1435 C 0.17345 0.60948 0.48851 0.0
C1436 C 0.22015 0.67233 0.48043 0.0
H1437 H 0.28607 0.78431 0.50243 0.0
H1438 H 0.25594 0.73815 0.50259 0.0
H1439 H 0.24027 0.71085 0.47548 0.0
H1440 H 0.22508 0.59064 0.48312 0.0
H1441 H 0.23751 0.63598 0.48427 0.0
H1442 H 0.19181 0.65422 0.50093 0.0
C1443 C 0.25507 0.74951 0.49712 0.0
C1444 C 0.22926 0.69866 0.48101 0.0
C1445 C 0.27239 0.77593 0.497 0.0
C1446 C 0.21046 0.59558 0.48464 0.0
C1447 C 0.21755 0.62148 0.48526 0.0
C1448 C 0.20203 0.66646 0.4953 0.0
C1449 C 0.23872 0.73758 0.48981 0.0
C1450 C 0.22554 0.7093 0.48884 0.0
C1451 C 0.19911 0.62862 0.48718 0.0
C1452 C 0.2068 0.65609 0.48761 0.0
H1453 H 0.25547 0.7903 0.47695 0.0
H1454 H 0.2255 0.74411 0.47713 0.0
H1455 H 0.20856 0.70075 0.50207 0.0
H1456 H 0.14624 0.56911 0.48865 0.0
H1457 H 0.15893 0.61461 0.48998 0.0
C1458 C 0.23506 0.7408 0.35204 0.0
C1459 C 0.25509 0.75342 0.34583 0.0
C1460 C 0.2171 0.71473 0.35102 0.0
C1461 C 0.1936 0.65979 0.33496 0.0
H1462 H 0.17562 0.61955 0.35676 0.0
C1463 C 0.16549 0.55315 0.33716 0.0
C1464 C 0.14759 0.53768 0.3437 0.0
C1465 C 0.17238 0.57895 0.33624 0.0
C1466 C 0.17998 0.63052 0.35062 0.0
H1467 H 0.27176 0.7488 0.33361 0.0
H1468 H 0.24113 0.70316 0.33202 0.0
H1469 H 0.20028 0.66605 0.35764 0.0
H1470 H 0.12117 0.53652 0.35383 0.0
H1471 H 0.13337 0.58162 0.35224 0.0
H1472 H 0.17441 0.62382 0.32796 0.0
C1473 C 0.23876 0.71344 0.33754 0.0
C1474 C 0.19415 0.65726 0.35111 0.0
C1475 C 0.2565 0.7396 0.33849 0.0
C1476 C 0.13517 0.54795 0.34878 0.0
C1477 C 0.14222 0.57381 0.3479 0.0
C1478 C 0.17965 0.63295 0.33447 0.0
C1479 C 0.21899 0.70058 0.34386 0.0
C1480 C 0.20158 0.67226 0.34329 0.0
C1481 C 0.16162 0.58978 0.34187 0.0
C1482 C 0.17308 0.61806 0.34229 0.0
H1483 H 0.23329 0.75104 0.3577 0.0
H1484 H 0.20186 0.70563 0.35592 0.0
H1485 H 0.19854 0.67073 0.32881 0.0
H1486 H 0.17528 0.54576 0.3331 0.0
H1487 H 0.18746 0.59082 0.33155 0.0
C1488 C 0.26094 0.51979 0.33542 0.0
C1489 C 0.24478 0.50669 0.34267 0.0
C1490 C 0.28705 0.52742 0.33573 0.0
C1491 C 0.33843 0.54145 0.35209 0.0
H1492 H 0.37759 0.54554 0.33091 0.0
C1493 C 0.44712 0.5858 0.35429 0.0
C1494 C 0.46039 0.60613 0.34823 0.0
C1495 C 0.42119 0.56786 0.35293 0.0
C1496 C 0.36685 0.54439 0.33688 0.0
H1497 H 0.24304 0.49031 0.35576 0.0
H1498 H 0.28832 0.50302 0.3562 0.0
H1499 H 0.33082 0.52533 0.32998 0.0
H1500 H 0.45759 0.62201 0.33552 0.0
H1501 H 0.4124 0.59079 0.33318 0.0
H1502 H 0.37435 0.56088 0.35896 0.0
C1503 C 0.28107 0.50806 0.35038 0.0
C1504 C 0.34011 0.53297 0.33635 0.0
C1505 C 0.25507 0.50069 0.35011 0.0
C1506 C 0.44787 0.60671 0.34036 0.0
C1507 C 0.42196 0.58872 0.33899 0.0
C1508 C 0.36506 0.55266 0.35263 0.0
C1509 C 0.2975 0.52189 0.34326 0.0
C1510 C 0.32562 0.5318 0.34391 0.0
C1511 C 0.40808 0.56983 0.34546 0.0
C1512 C 0.37963 0.55468 0.34501 0.0
H1513 H 0.25356 0.52469 0.32959 0.0
H1514 H 0.29916 0.53835 0.33017 0.0
H1515 H 0.32804 0.54137 0.35802 0.0
H1516 H 0.45625 0.58462 0.36038 0.0
H1517 H 0.41106 0.5532 0.35795 0.0
C1518 C 0.39824 0.84385 0.35574 0.0
C1519 C 0.37756 0.83937 0.35017 0.0
C1520 C 0.4134 0.8329 0.35374 0.0
C1521 C 0.44642 0.81085 0.34746 0.0
H1522 H 0.40401 0.73947 0.34051 0.0
C1523 C 0.48635 0.74104 0.34533 0.0
C1524 C 0.47069 0.71658 0.3491 0.0
C1525 C 0.47683 0.75777 0.34399 0.0
C1526 C 0.41613 0.75935 0.34246 0.0
H1527 H 0.35833 0.82227 0.33766 0.0
H1528 H 0.3852 0.80373 0.33407 0.0
H1529 H 0.38581 0.76757 0.34051 0.0
H1530 H 0.43271 0.69047 0.35435 0.0
H1531 H 0.41625 0.71973 0.35213 0.0
H1532 H 0.47633 0.80211 0.34988 0.0
C1533 C 0.38918 0.81499 0.34012 0.0
C1534 C 0.40582 0.77562 0.34233 0.0
C1535 C 0.3739 0.82578 0.34215 0.0
C1536 C 0.44526 0.70913 0.35141 0.0
C1537 C 0.43576 0.72585 0.35008 0.0
C1538 C 0.45674 0.79452 0.34762 0.0
C1539 C 0.40832 0.81742 0.3461 0.0
C1540 C 0.42065 0.80143 0.34501 0.0
C1541 C 0.45146 0.75041 0.34638 0.0
C1542 C 0.44149 0.76843 0.34532 0.0
H1543 H 0.40164 0.85429 0.36196 0.0
H1544 H 0.42789 0.83511 0.35853 0.0
H1545 H 0.45845 0.83069 0.34947 0.0
H1546 H 0.50603 0.74735 0.34346 0.0
H1547 H 0.48933 0.77645 0.34106 0.0
C1548 C 0.1768 0.17978 0.28349 0.0
C1549 C 0.15593 0.15982 0.28808 0.0
C1550 C 0.17753 0.18008 0.27415 0.0
C1551 C 0.13576 0.15517 0.25439 0.0
H1552 H 0.19866 0.17116 0.24195 0.0
C1553 C 0.13834 0.14055 0.21641 0.0
C1554 C 0.15968 0.15907 0.2116 0.0
C1555 C 0.13805 0.14125 0.22574 0.0
C1556 C 0.18104 0.167 0.24532 0.0
H1557 H 0.11953 0.12448 0.28646 0.0
H1558 H 0.12087 0.12501 0.27016 0.0
H1559 H 0.19795 0.17121 0.25826 0.0
H1560 H 0.19739 0.19304 0.2128 0.0
H1561 H 0.1967 0.19451 0.22909 0.0
H1562 H 0.11885 0.15107 0.24148 0.0
C1563 C 0.13655 0.14052 0.27379 0.0
C1564 C 0.18063 0.16699 0.25466 0.0
C1565 C 0.13587 0.14015 0.28313 0.0
C1566 C 0.18068 0.17843 0.21632 0.0
C1567 C 0.18035 0.17918 0.22566 0.0
C1568 C 0.13619 0.15528 0.24505 0.0
C1569 C 0.15736 0.16051 0.26921 0.0
C1570 C 0.15795 0.16094 0.25929 0.0
C1571 C 0.15906 0.16055 0.23048 0.0
C1572 C 0.1588 0.16106 0.24041 0.0
H1573 H 0.19255 0.19526 0.28711 0.0
H1574 H 0.19371 0.19586 0.2708 0.0
H1575 H 0.11811 0.15084 0.25778 0.0
H1576 H 0.1219 0.12531 0.21298 0.0
H1577 H 0.12151 0.12638 0.22925 0.0
C1578 C 0.78981 0.00493 0.21849 0.0
C1579 C 0.81195 0.01079 0.21353 0.0
C1580 C 0.79069 0.006 0.22784 0.0
C1581 C 0.83588 0.03391 0.24676 0.0
H1582 H 0.78266 0.97744 0.26038 0.0
C1583 C 0.849 0.01672 0.28372 0.0
C1584 C 0.82784 0.00812 0.2895 0.0
C1585 C 0.84612 0.01868 0.27454 0.0
C1586 C 0.79747 0.99356 0.25668 0.0
H1587 H 0.8524 0.02251 0.21449 0.0
H1588 H 0.85385 0.02424 0.23074 0.0
H1589 H 0.77912 0.97793 0.24413 0.0
H1590 H 0.78709 0.99523 0.29018 0.0
H1591 H 0.78214 -0.0011 0.27414 0.0
H1592 H 0.85439 0.04943 0.25928 0.0
C1593 C 0.83588 0.01908 0.22742 0.0
C1594 C 0.79543 0.99383 0.24738 0.0
C1595 C 0.83499 0.0179 0.2181 0.0
C1596 C 0.80378 0.00185 0.28591 0.0
C1597 C 0.8009 0.00382 0.27671 0.0
C1598 C 0.83788 0.03368 0.25605 0.0
C1599 C 0.81376 0.01311 0.2324 0.0
C1600 C 0.81483 0.0138 0.24231 0.0
C1601 C 0.82202 0.01213 0.27092 0.0
C1602 C 0.81891 0.01331 0.26111 0.0
H1603 H 0.77178 -0.00059 0.21517 0.0
H1604 H 0.77338 0.00146 0.2315 0.0
H1605 H 0.8509 0.0498 0.24304 0.0
H1606 H 0.86779 0.02164 0.28627 0.0
H1607 H 0.8627 0.02478 0.27026 0.0
C1608 C 0.01419 0.83549 0.27961 0.0
C1609 C -0.00187 0.81202 0.28393 0.0
C1610 C 0.01576 0.83682 0.2703 0.0
C1611 C 0.00439 0.79766 0.25006 0.0
H1612 H 0.00315 0.85454 0.2383 0.0
C1613 C 0.99364 0.8025 0.21174 0.0
C1614 C 0.00774 0.82667 0.20762 0.0
C1615 C 0.99334 0.80029 0.22105 0.0
C1616 C 0.00388 0.83873 0.24148 0.0
H1617 H 0.97131 0.77146 0.28184 0.0
H1618 H 0.974 0.77383 0.26554 0.0
H1619 H 0.00068 0.85137 0.25453 0.0
H1620 H 0.0333 0.86735 0.21002 0.0
H1621 H 0.03311 0.86343 0.22623 0.0
H1622 H 0.00764 0.78505 0.23698 0.0
C1623 C 0.9855 0.79115 0.26939 0.0
C1624 C 0.00242 0.83689 0.25078 0.0
C1625 C 0.98385 0.78983 0.27872 0.0
C1626 C 0.02208 0.84847 0.21298 0.0
C1627 C 0.02184 0.84624 0.22228 0.0
C1628 C 0.00593 0.79953 0.24074 0.0
C1629 C 0.00136 0.8147 0.26508 0.0
C1630 C 0.0027 0.81638 0.25518 0.0
C1631 C 0.00719 0.82219 0.22643 0.0
C1632 C 0.00575 0.82013 0.23634 0.0
H1633 H 0.02554 0.85294 0.28342 0.0
H1634 H 0.02842 0.85517 0.26718 0.0
H1635 H 0.00494 0.78178 0.25327 0.0
H1636 H 0.98234 0.78533 0.20779 0.0
H1637 H 0.98166 0.78151 0.22404 0.0
C1638 C 0.83061 0.79849 0.71996 0.0
C1639 C 0.82217 0.80896 0.71327 0.0
C1640 C 0.82489 0.79973 0.72894 0.0
C1641 C 0.80955 0.83795 0.74419 0.0
H1642 H 0.79219 0.78186 0.76073 0.0
C1643 C 0.78945 0.84542 0.78144 0.0
C1644 C 0.80076 0.83638 0.7876 0.0
C1645 C 0.78907 0.84013 0.77233 0.0
C1646 C 0.7972 0.79776 0.7562 0.0
H1647 H 0.80048 0.82829 0.71072 0.0
H1648 H 0.79046 0.83038 0.7264 0.0
H1649 H 0.79676 0.77591 0.74482 0.0
H1650 H 0.82011 0.81427 0.78903 0.0
H1651 H 0.81983 0.80543 0.77314 0.0
H1652 H 0.81057 0.86001 0.75556 0.0
C1653 C 0.80173 0.82146 0.72471 0.0
C1654 C 0.79979 0.79433 0.74709 0.0
C1655 C 0.80737 0.82015 0.71572 0.0
C1656 C 0.81123 0.82151 0.78447 0.0
C1657 C 0.81091 0.81629 0.77535 0.0
C1658 C 0.80704 0.8414 0.7533 0.0
C1659 C 0.81068 0.81153 0.73142 0.0
C1660 C 0.80625 0.81449 0.74101 0.0
C1661 C 0.80004 0.82573 0.76916 0.0
C1662 C 0.8011 0.82144 0.75942 0.0
H1663 H 0.84201 0.7897 0.7183 0.0
H1664 H 0.83229 0.79213 0.73397 0.0
H1665 H 0.81492 0.85397 0.73969 0.0
H1666 H 0.78105 0.85677 0.78365 0.0
H1667 H 0.78021 0.84737 0.76775 0.0
C1668 C 0.17389 0.94756 0.78425 0.0
C1669 C 0.17623 0.96747 0.78981 0.0
C1670 C 0.17608 0.95078 0.77497 0.0
C1671 C 0.19881 -0.00019 0.75702 0.0
H1672 H 0.14667 0.94406 0.74284 0.0
C1673 C 0.19658 0.00345 0.71838 0.0
C1674 C 0.17238 0.99538 0.71453 0.0
C1675 C 0.1987 -0.00067 0.72747 0.0
C1676 C 0.16132 0.95981 0.74671 0.0
H1677 H 0.18358 0.0067 0.79002 0.0
H1678 H 0.18713 0.0122 0.77385 0.0
H1679 H 0.14815 0.93876 0.75894 0.0
H1680 H 0.13143 0.97644 0.71717 0.0
H1681 H 0.13516 0.96939 0.733 0.0
H1682 H 0.21146 0.02114 0.7448 0.0
C1683 C 0.18383 0.99417 0.77666 0.0
C1684 C 0.16237 0.95668 0.75592 0.0
C1685 C 0.18162 0.99095 0.78593 0.0
C1686 C 0.15036 0.98288 0.71993 0.0
C1687 C 0.15247 0.97868 0.72899 0.0
C1688 C 0.19781 0.00293 0.7478 0.0
C1689 C 0.1807 0.97399 0.77107 0.0
C1690 C 0.18091 0.97675 0.7612 0.0
C1691 C 0.17667 0.98694 0.73287 0.0
C1692 C 0.17882 0.98308 0.74256 0.0
H1693 H 0.16992 0.92929 0.78703 0.0
H1694 H 0.17394 0.93501 0.77085 0.0
H1695 H 0.21348 0.01554 0.7609 0.0
H1696 H 0.21394 0.0131 0.7144 0.0
H1697 H 0.21759 0.00569 0.73025 0.0
C1698 C 0.9825 0.17768 0.7155 0.0
C1699 C 0.981 0.15652 0.71095 0.0
C1700 C 0.98249 0.17826 0.72485 0.0
C1701 C 0.96414 0.13616 0.74463 0.0
H1702 H 0.01372 0.19795 0.75702 0.0
C1703 C 0.98718 0.13718 0.78209 0.0
C1704 C 0.99268 0.15906 0.78714 0.0
C1705 C 0.98347 0.13681 0.77286 0.0
C1706 C -0.00055 0.18068 0.75367 0.0
H1707 H 0.97835 0.11938 0.71262 0.0
H1708 H 0.97843 0.12047 0.7289 0.0
H1709 H 0.01189 0.1977 0.74074 0.0
H1710 H -0.00241 0.19734 0.78652 0.0
H1711 H 0.99067 0.19651 0.77044 0.0
H1712 H 0.95177 0.11908 0.75755 0.0
C1713 C 0.97936 0.13649 0.72525 0.0
C1714 C -0.00154 0.18053 0.74434 0.0
C1715 C 0.9795 0.13597 0.71592 0.0
C1716 C 0.99356 0.18025 0.78281 0.0
C1717 C 0.98975 0.17984 0.77358 0.0
C1718 C 0.96506 0.13633 0.75396 0.0
C1719 C 0.98083 0.15762 0.72981 0.0
C1720 C 0.98099 0.15819 0.73972 0.0
C1721 C 0.98506 0.15826 0.76848 0.0
C1722 C 0.98292 0.15851 0.75859 0.0
H1723 H 0.98364 0.1938 0.71186 0.0
H1724 H 0.98346 0.19472 0.72819 0.0
H1725 H 0.95019 0.11879 0.74125 0.0
H1726 H 0.98642 0.12055 0.78522 0.0
H1727 H 0.98018 0.11999 0.76912 0.0
C1728 C 0.86893 0.55209 0.55342 0.0
C1729 C 0.85461 0.52966 0.54833 0.0
C1730 C 0.86655 0.5514 0.56273 0.0
C1731 C 0.82298 0.51299 0.58104 0.0
H1732 H 0.88407 0.54666 0.59583 0.0
C1733 C 0.82045 0.49159 0.61858 0.0
C1734 C 0.83468 0.51237 0.62437 0.0
C1735 C 0.82313 0.49495 0.60933 0.0
C1736 C 0.86681 0.53744 0.59179 0.0
H1737 H 0.82652 0.48895 0.54903 0.0
H1738 H 0.82253 0.48777 0.56522 0.0
H1739 H 0.88811 0.55063 0.57958 0.0
H1740 H 0.86302 0.55299 0.62499 0.0
H1741 H 0.86755 0.55888 0.60881 0.0
H1742 H 0.80167 0.49963 0.59321 0.0
C1743 C 0.83537 0.50594 0.56202 0.0
C1744 C 0.86912 0.53973 0.58249 0.0
C1745 C 0.83779 0.5066 0.55274 0.0
C1746 C 0.85182 0.53657 0.62071 0.0
C1747 C 0.8545 0.53993 0.61144 0.0
C1748 C 0.82066 0.51072 0.59032 0.0
C1749 C 0.84972 0.52831 0.56713 0.0
C1750 C 0.84725 0.52726 0.57701 0.0
C1751 C 0.84007 0.51918 0.60565 0.0
C1752 C 0.84256 0.52265 0.5958 0.0
H1753 H 0.88205 0.57016 0.55021 0.0
H1754 H 0.87771 0.56899 0.56649 0.0
H1755 H 0.80572 0.50355 0.577 0.0
H1756 H 0.80716 0.47267 0.62117 0.0
H1757 H 0.81205 0.47848 0.60505 0.0
C1758 C 0.48962 0.30756 0.5498 0.0
C1759 C 0.48257 0.32205 0.54434 0.0
C1760 C 0.48699 0.30756 0.55907 0.0
C1761 C 0.45466 0.3222 0.57726 0.0
H1762 H 0.51112 0.32744 0.59144 0.0
C1763 C 0.46333 0.33955 0.61565 0.0
C1764 C 0.47187 0.32545 0.62066 0.0
C1765 C 0.4635 0.33894 0.60629 0.0
C1766 C 0.49506 0.32569 0.58759 0.0
H1767 H 0.46661 0.34743 0.54432 0.0
H1768 H 0.46225 0.34761 0.56056 0.0
H1769 H 0.51321 0.32649 0.57521 0.0
H1770 H 0.4867 0.29917 0.61976 0.0
H1771 H 0.4868 0.29798 0.60352 0.0
H1772 H 0.43659 0.32149 0.58971 0.0
C1773 C 0.46961 0.33608 0.55764 0.0
C1774 C 0.49625 0.32512 0.57828 0.0
C1775 C 0.47222 0.33606 0.54834 0.0
C1776 C 0.48016 0.31042 0.61612 0.0
C1777 C 0.48036 0.30983 0.6068 0.0
C1778 C 0.45348 0.32278 0.5866 0.0
C1779 C 0.4773 0.3221 0.56311 0.0
C1780 C 0.47599 0.32316 0.57301 0.0
C1781 C 0.47228 0.32427 0.60177 0.0
C1782 C 0.4736 0.32433 0.59186 0.0
H1783 H 0.49746 0.29639 0.54693 0.0
H1784 H 0.49262 0.29619 0.56308 0.0
H1785 H 0.43865 0.32047 0.57339 0.0
H1786 H 0.45681 0.35131 0.61894 0.0
H1787 H 0.45733 0.35041 0.6026 0.0
C1788 C 0.67221 0.18772 0.54753 0.0
C1789 C 0.65914 0.16545 0.54228 0.0
C1790 C 0.67095 0.18613 0.55685 0.0
C1791 C 0.65553 0.14074 0.57567 0.0
H1792 H 0.64976 0.19313 0.5889 0.0
C1793 C 0.66784 0.1515 0.61399 0.0
C1794 C 0.65209 0.15848 0.61876 0.0
C1795 C 0.66757 0.15112 0.60465 0.0
C1796 C 0.65108 0.17818 0.58531 0.0
H1797 H 0.63459 0.12401 0.54269 0.0
H1798 H 0.63208 0.12128 0.55896 0.0
H1799 H 0.65131 0.19477 0.57264 0.0
H1800 H 0.62321 0.16986 0.61746 0.0
H1801 H 0.62244 0.16877 0.60117 0.0
H1802 H 0.65475 0.12385 0.58835 0.0
C1803 C 0.64362 0.13994 0.55588 0.0
C1804 C 0.65234 0.17933 0.57598 0.0
C1805 C 0.64496 0.14152 0.54655 0.0
C1806 C 0.63569 0.16455 0.61399 0.0
C1807 C 0.63536 0.16407 0.60464 0.0
C1808 C 0.6542 0.13955 0.585 0.0
C1809 C 0.6565 0.16225 0.56114 0.0
C1810 C 0.65473 0.16071 0.57105 0.0
C1811 C 0.65149 0.15761 0.59987 0.0
C1812 C 0.65208 0.15833 0.58993 0.0
H1813 H 0.68343 0.20644 0.54445 0.0
H1814 H 0.68147 0.20364 0.5607 0.0
H1815 H 0.65758 0.12621 0.57208 0.0
H1816 H 0.68076 0.14679 0.61746 0.0
H1817 H 0.68048 0.14637 0.60119 0.0
C1818 C 0.46787 0.13681 0.04673 0.0
C1819 C 0.48031 0.12371 0.04369 0.0
C1820 C 0.46305 0.13749 0.05584 0.0
C1821 C 0.48672 0.13114 0.07787 0.0
H1822 H 0.4261 0.13147 0.08658 0.0
C1823 C 0.46942 0.13702 0.11544 0.0
C1824 C 0.46231 0.15521 0.11786 0.0
C1825 C 0.46906 0.13023 0.10649 0.0
C1826 C 0.44317 0.1315 0.08423 0.0
H1827 H 0.49648 0.10011 0.04777 0.0
H1828 H 0.48763 0.10088 0.06364 0.0
H1829 H 0.42973 0.12426 0.0707 0.0
H1830 H 0.44846 0.17994 0.11281 0.0
H1831 H 0.44791 0.16811 0.09717 0.0
H1832 H 0.50024 0.13858 0.09137 0.0
C1833 C 0.4821 0.11111 0.05901 0.0
C1834 C 0.44528 0.12741 0.07514 0.0
C1835 C 0.48704 0.11056 0.04991 0.0
C1836 C 0.45411 0.16591 0.11116 0.0
C1837 C 0.45364 0.15901 0.10221 0.0
C1838 C 0.48455 0.13509 0.08695 0.0
C1839 C 0.47044 0.12495 0.0621 0.0
C1840 C 0.46722 0.12747 0.07184 0.0
C1841 C 0.46146 0.14138 0.09977 0.0
C1842 C 0.46288 0.1356 0.09021 0.0
H1843 H 0.46247 0.14719 0.04211 0.0
H1844 H 0.45433 0.14859 0.05798 0.0
H1845 H 0.5041 0.13178 0.07554 0.0
H1846 H 0.47573 0.12833 0.12044 0.0
H1847 H 0.4749 0.11635 0.10482 0.0
C1848 C 0.8738 0.35143 0.04829 0.0
C1849 C 0.87658 0.37328 0.04384 0.0
C1850 C 0.87449 0.35081 0.05762 0.0
C1851 C 0.85785 0.37534 0.0769 0.0
H1852 H 0.89734 0.35203 0.09046 0.0
C1853 C 0.8487 0.36571 0.1152 0.0
C1854 C 0.84897 0.34454 0.11905 0.0
C1855 C 0.8556 0.37214 0.10625 0.0
C1856 C 0.88594 0.35829 0.08678 0.0
H1857 H 0.88288 0.41184 0.04565 0.0
H1858 H 0.88347 0.41047 0.06199 0.0
H1859 H 0.90317 0.3576 0.07429 0.0
H1860 H 0.85687 0.3136 0.11659 0.0
H1861 H 0.86778 0.32403 0.10091 0.0
H1862 H 0.83952 0.37477 0.08918 0.0
C1863 C 0.88099 0.39396 0.05823 0.0
C1864 C 0.88945 0.36164 0.07753 0.0
C1865 C 0.88076 0.39476 0.04889 0.0
C1866 C 0.85662 0.33013 0.11381 0.0
C1867 C 0.86307 0.33627 0.10482 0.0
C1868 C 0.854 0.37158 0.08611 0.0
C1869 C 0.87754 0.37187 0.06267 0.0
C1870 C 0.8753 0.37002 0.07252 0.0
C1871 C 0.86246 0.35724 0.10089 0.0
C1872 C 0.86782 0.36279 0.09117 0.0
H1873 H 0.87062 0.33462 0.04457 0.0
H1874 H 0.87161 0.33349 0.0609 0.0
H1875 H 0.84646 0.3815 0.07315 0.0
H1876 H 0.84316 0.37734 0.11911 0.0
H1877 H 0.85544 0.38877 0.10354 0.0
C1878 C 0.71524 0.53832 0.11968 0.0
C1879 C 0.69448 0.52702 0.12568 0.0
C1880 C 0.71093 0.53625 0.11045 0.0
C1881 C 0.66315 0.49502 0.09383 0.0
H1882 H 0.70174 0.55212 0.07764 0.0
C1883 C 0.66273 0.48129 0.05576 0.0
C1884 C 0.65995 0.49885 0.05034 0.0
C1885 C 0.66703 0.48559 0.06493 0.0
C1886 C 0.69072 0.53606 0.08209 0.0
H1887 H 0.65288 0.50522 0.1267 0.0
H1888 H 0.64543 0.50168 0.11062 0.0
H1889 H 0.70879 0.55859 0.09378 0.0
H1890 H 0.65981 0.5349 0.05029 0.0
H1891 H 0.66737 0.54241 0.06635 0.0
H1892 H 0.64502 0.4725 0.08219 0.0
C1893 C 0.66503 0.5119 0.11305 0.0
C1894 C 0.69491 0.5397 0.09131 0.0
C1895 C 0.66932 0.51405 0.12226 0.0
C1896 C 0.66184 0.52098 0.05428 0.0
C1897 C 0.66631 0.52536 0.06347 0.0
C1898 C 0.65909 0.49135 0.08463 0.0
C1899 C 0.68578 0.52275 0.10704 0.0
C1900 C 0.68117 0.5192 0.09727 0.0
C1901 C 0.66877 0.50761 0.06889 0.0
C1902 C 0.67287 0.5118 0.07866 0.0
H1903 H 0.73485 0.54847 0.1221 0.0
H1904 H 0.72731 0.54464 0.10598 0.0
H1905 H 0.65246 0.47879 0.09824 0.0
H1906 H 0.66145 0.46409 0.05293 0.0
H1907 H 0.66919 0.47174 0.06892 0.0
C1908 C 0.50771 0.85029 0.95104 0.0
C1909 C 0.48628 0.82979 0.9552 0.0
C1910 C 0.50923 0.85221 0.94172 0.0
C1911 C 0.46911 0.83134 0.92148 0.0
H1912 H 0.53224 0.84663 0.90936 0.0
C1913 C 0.47322 0.81849 0.8835 0.0
C1914 C 0.49517 0.8365 0.87882 0.0
C1915 C 0.47244 0.8191 0.89282 0.0
C1916 C 0.51459 0.84274 0.91264 0.0
H1917 H 0.44967 0.79522 0.95284 0.0
H1918 H 0.45237 0.7986 0.93659 0.0
H1919 H 0.53044 0.84501 0.92567 0.0
H1920 H 0.5334 0.86957 0.88025 0.0
H1921 H 0.53187 0.8709 0.89654 0.0
H1922 H 0.45321 0.8291 0.9085 0.0
C1923 C 0.46789 0.81327 0.94054 0.0
C1924 C 0.51356 0.84176 0.92198 0.0
C1925 C 0.46643 0.81126 0.94985 0.0
C1926 C 0.51623 0.85536 0.88366 0.0
C1927 C 0.51541 0.85602 0.893 0.0
C1928 C 0.47017 0.83245 0.91216 0.0
C1929 C 0.48928 0.83377 0.93638 0.0
C1930 C 0.49073 0.8358 0.92649 0.0
C1931 C 0.49355 0.83781 0.89769 0.0
C1932 C 0.49284 0.8379 0.90762 0.0
H1933 H 0.52332 0.8649 0.95497 0.0
H1934 H 0.52586 0.86833 0.93869 0.0
H1935 H 0.45137 0.82713 0.92478 0.0
H1936 H 0.45671 0.80363 0.87998 0.0
H1937 H 0.45545 0.80453 0.89622 0.0
C1938 C 0.1826 0.68802 0.94956 0.0
C1939 C 0.16087 0.6724 0.9548 0.0
C1940 C 0.1805 0.68881 0.94028 0.0
C1941 C 0.13374 0.67392 0.92194 0.0
H1942 H 0.18679 0.67277 0.90753 0.0
C1943 C 0.1248 0.65684 0.88363 0.0
C1944 C 0.14698 0.67188 0.8785 0.0
C1945 C 0.126 0.6576 0.89297 0.0
C1946 C 0.17197 0.6734 0.91146 0.0
H1947 H 0.11981 0.64563 0.95441 0.0
H1948 H 0.11625 0.64676 0.9382 0.0
H1949 H 0.18988 0.67305 0.92376 0.0
H1950 H 0.18768 0.69997 0.87918 0.0
H1951 H 0.18968 0.7014 0.89542 0.0
H1952 H 0.11575 0.67406 0.90959 0.0
C1953 C 0.13485 0.65865 0.94128 0.0
C1954 C 0.17375 0.67359 0.92076 0.0
C1955 C 0.13693 0.6579 0.95057 0.0
C1956 C 0.17025 0.688 0.88291 0.0
C1957 C 0.17145 0.68874 0.89223 0.0
C1958 C 0.13193 0.67369 0.91262 0.0
C1959 C 0.15666 0.67394 0.93602 0.0
C1960 C 0.1547 0.67391 0.92612 0.0
C1961 C 0.14941 0.67338 0.89737 0.0
C1962 C 0.15108 0.6735 0.90728 0.0
H1963 H 0.2013 0.69956 0.95261 0.0
H1964 H 0.1976 0.70111 0.93643 0.0
H1965 H 0.11889 0.67447 0.92588 0.0
H1966 H 0.10657 0.64421 0.88043 0.0
H1967 H 0.10872 0.6454 0.89675 0.0
C1968 C 0.34535 0.51926 0.88401 0.0
C1969 C 0.33257 0.49731 0.87859 0.0
C1970 C 0.34388 0.51709 0.89331 0.0
C1971 C 0.32789 0.47102 0.91193 0.0
H1972 H 0.31937 0.52195 0.92505 0.0
C1973 C 0.33685 0.48117 0.95041 0.0
C1974 C 0.3203 0.48756 0.95493 0.0
C1975 C 0.33726 0.48072 0.94107 0.0
C1976 C 0.32146 0.5074 0.92149 0.0
H1977 H 0.3086 0.45578 0.87868 0.0
H1978 H 0.30575 0.45202 0.89495 0.0
H1979 H 0.32236 0.5243 0.90883 0.0
H1980 H 0.29056 0.49762 0.95321 0.0
H1981 H 0.29099 0.49644 0.93693 0.0
H1982 H 0.32647 0.45385 0.92463 0.0
C1983 C 0.31716 0.47089 0.892 0.0
C1984 C 0.32355 0.50896 0.91219 0.0
C1985 C 0.31871 0.47306 0.88268 0.0
C1986 C 0.30369 0.49282 0.94993 0.0
C1987 C 0.30403 0.49228 0.94059 0.0
C1988 C 0.32576 0.46943 0.92125 0.0
C1989 C 0.32949 0.49293 0.89741 0.0
C1990 C 0.32694 0.4909 0.9073 0.0
C1991 C 0.32106 0.48657 0.93606 0.0
C1992 C 0.3226 0.48766 0.92614 0.0
H1993 H 0.35636 0.53821 0.88108 0.0
H1994 H 0.35402 0.53439 0.89729 0.0
H1995 H 0.33067 0.4569 0.90837 0.0
H1996 H 0.34992 0.47705 0.95408 0.0
H1997 H 0.3508 0.47652 0.93779 0.0
C1998 C 0.18145 0.5191 0.44844 0.0
C1999 C 0.16058 0.50076 0.45347 0.0
C2000 C 0.18147 0.51729 0.43915 0.0
C2001 C 0.13836 0.4883 0.41976 0.0
H2002 H 0.20231 0.5074 0.40749 0.0
C2003 C 0.1467 0.47728 0.38145 0.0
C2004 C 0.16728 0.49838 0.37717 0.0
C2005 C 0.14463 0.47655 0.39077 0.0
C2006 C 0.18435 0.50218 0.41083 0.0
H2007 H 0.12344 0.46591 0.45271 0.0
H2008 H 0.12369 0.46246 0.43644 0.0
H2009 H 0.20123 0.50708 0.42377 0.0
H2010 H 0.20141 0.53552 0.37929 0.0
H2011 H 0.19781 0.53415 0.39552 0.0
H2012 H 0.12154 0.48323 0.40674 0.0
C2013 C 0.13986 0.4785 0.43969 0.0
C2014 C 0.18372 0.50203 0.42015 0.0
C2015 C 0.13979 0.48039 0.44901 0.0
C2016 C 0.18539 0.51894 0.38238 0.0
C2017 C 0.18343 0.51811 0.39168 0.0
C2018 C 0.13896 0.48827 0.41041 0.0
C2019 C 0.1607 0.49699 0.43465 0.0
C2020 C 0.16082 0.49547 0.42474 0.0
C2021 C 0.16322 0.49679 0.39597 0.0
C2022 C 0.16206 0.49557 0.40587 0.0
H2023 H 0.19771 0.53513 0.45166 0.0
H2024 H 0.19762 0.53213 0.43547 0.0
H2025 H 0.12047 0.48342 0.42308 0.0
H2026 H 0.13242 0.46116 0.37761 0.0
H2027 H 0.12891 0.45985 0.39392 0.0
C2028 C 0.52072 0.71363 0.38533 0.0
C2029 C 0.52355 0.69634 0.37979 0.0
C2030 C 0.51989 0.71083 0.39462 0.0
C2031 C 0.50767 0.66274 0.41228 0.0
H2032 H 0.5368 0.72268 0.42769 0.0
C2033 C 0.51263 0.65632 0.45073 0.0
C2034 C 0.50347 0.6701 0.45561 0.0
C2035 C 0.51664 0.65997 0.44152 0.0
C2036 C 0.5285 0.70579 0.42346 0.0
H2037 H 0.52835 0.6629 0.37963 0.0
H2038 H 0.52766 0.65842 0.39584 0.0
H2039 H 0.54159 0.72827 0.41152 0.0
H2040 H 0.49186 0.69889 0.45469 0.0
H2041 H 0.49917 0.70545 0.4386 0.0
H2042 H 0.49489 0.64032 0.42428 0.0
C2043 C 0.52542 0.67378 0.39302 0.0
C2044 C 0.53114 0.70895 0.41419 0.0
C2045 C 0.52597 0.67643 0.38372 0.0
C2046 C 0.49885 0.68793 0.45111 0.0
C2047 C 0.50317 0.6918 0.44192 0.0
C2048 C 0.5053 0.65959 0.42155 0.0
C2049 C 0.52216 0.69083 0.39859 0.0
C2050 C 0.52051 0.68747 0.40847 0.0
C2051 C 0.5119 0.6777 0.43702 0.0
C2052 C 0.51546 0.68108 0.42722 0.0
H2053 H 0.51864 0.72909 0.38251 0.0
H2054 H 0.5169 0.72405 0.39866 0.0
H2055 H 0.49885 0.64576 0.4081 0.0
H2056 H 0.51636 0.64244 0.45401 0.0
H2057 H 0.52356 0.64899 0.43791 0.0
C2058 C 0.34131 0.84959 0.45516 0.0
C2059 C 0.33928 0.82807 0.45962 0.0
C2060 C 0.33852 0.84934 0.44587 0.0
C2061 C 0.31202 0.80465 0.42667 0.0
H2062 H 0.3563 0.86519 0.41262 0.0
C2063 C 0.31795 0.80139 0.38838 0.0
C2064 C 0.31745 0.82116 0.38353 0.0
C2065 C 0.32066 0.80295 0.39766 0.0
C2066 C 0.34364 0.84823 0.41647 0.0
H2067 H 0.33301 0.78952 0.45784 0.0
H2068 H 0.32863 0.78925 0.44167 0.0
H2069 H 0.36096 0.8665 0.42887 0.0
H2070 H 0.31984 0.85831 0.3846 0.0
H2071 H 0.32467 0.86104 0.40086 0.0
H2072 H 0.29496 0.78629 0.41427 0.0
C2073 C 0.33187 0.80615 0.44534 0.0
C2074 C 0.34627 0.84898 0.42578 0.0
C2075 C 0.33455 0.80636 0.45461 0.0
C2076 C 0.32012 0.84274 0.38815 0.0
C2077 C 0.32301 0.84437 0.39745 0.0
C2078 C 0.30951 0.80387 0.41739 0.0
C2079 C 0.33372 0.82758 0.44085 0.0
C2080 C 0.33058 0.82713 0.43098 0.0
C2081 C 0.32308 0.82437 0.4023 0.0
C2082 C 0.32539 0.82559 0.41218 0.0
H2083 H 0.34485 0.86659 0.45883 0.0
H2084 H 0.33974 0.86605 0.44264 0.0
H2085 H 0.29927 0.78765 0.43049 0.0
H2086 H 0.31602 0.78454 0.38503 0.0
H2087 H 0.32101 0.78741 0.40121 0.0
C2088 C 0.27805 0.19989 0.1855 0.0
C2089 C 0.25759 0.19584 0.17989 0.0
C2090 C 0.29754 0.19571 0.18234 0.0
C2091 C 0.32506 0.18422 0.16175 0.0
H2092 H 0.34288 0.14479 0.17781 0.0
C2093 C 0.37915 0.13445 0.14918 0.0
C2094 C 0.40125 0.13988 0.15409 0.0
C2095 C 0.36109 0.14015 0.15272 0.0
C2096 C 0.33819 0.15591 0.17328 0.0
H2097 H 0.24259 0.18611 0.16638 0.0
H2098 H 0.27628 0.17855 0.16092 0.0
H2099 H 0.31464 0.16038 0.183 0.0
H2100 H 0.4206 0.15352 0.16685 0.0
H2101 H 0.38886 0.16321 0.17304 0.0
H2102 H 0.34827 0.17931 0.15198 0.0
C2103 C 0.27744 0.18508 0.16774 0.0
C2104 C 0.32218 0.16503 0.17626 0.0
C2105 C 0.25804 0.18937 0.17089 0.0
C2106 C 0.40384 0.1492 0.16288 0.0
C2107 C 0.38567 0.15476 0.16643 0.0
C2108 C 0.3409 0.17495 0.15875 0.0
C2109 C 0.29693 0.18735 0.17352 0.0
C2110 C 0.31533 0.1792 0.17052 0.0
C2111 C 0.36464 0.15118 0.16125 0.0
C2112 C 0.34749 0.16057 0.16447 0.0
H2113 H 0.27839 0.20509 0.19246 0.0
H2114 H 0.31264 0.19825 0.1869 0.0
H2115 H 0.32049 0.19538 0.1572 0.0
H2116 H 0.37645 0.12711 0.14241 0.0
H2117 H 0.34474 0.13671 0.14865 0.0
C2118 C 0.82203 0.06277 0.15974 0.0
C2119 C 0.81407 0.05385 0.1685 0.0
C2120 C 0.82448 0.08608 0.15695 0.0
C2121 C 0.83874 0.14764 0.16648 0.0
H2122 H 0.82079 0.16112 0.143 0.0
C2123 C 0.85778 0.23766 0.14177 0.0
C2124 C 0.85346 0.25291 0.14785 0.0
C2125 C 0.85435 0.21384 0.14438 0.0
C2126 C 0.8263 0.15775 0.14954 0.0
H2127 H 0.80046 0.06136 0.18097 0.0
H2128 H 0.80464 0.10194 0.17605 0.0
H2129 H 0.80901 0.1173 0.14713 0.0
H2130 H 0.84359 0.25585 0.16159 0.0
H2131 H 0.83728 0.21419 0.16612 0.0
H2132 H 0.85636 0.18806 0.16887 0.0
C2133 C 0.8094 0.09111 0.17141 0.0
C2134 C 0.81938 0.13263 0.15191 0.0
C2135 C 0.8068 0.06775 0.17419 0.0
C2136 C 0.84714 0.24458 0.15674 0.0
C2137 C 0.84354 0.22067 0.15935 0.0
C2138 C 0.8458 0.17278 0.16409 0.0
C2139 C 0.8191 0.10091 0.16288 0.0
C2140 C 0.82547 0.12732 0.16042 0.0
C2141 C 0.84637 0.20471 0.15312 0.0
C2142 C 0.83966 0.17814 0.15559 0.0
H2143 H 0.82769 0.05247 0.15518 0.0
H2144 H 0.832 0.09317 0.15033 0.0
H2145 H 0.84415 0.14418 0.17302 0.0
H2146 H 0.86289 0.24367 0.13488 0.0
H2147 H 0.85733 0.2023 0.13949 0.0
C2148 C 0.92201 0.75708 0.15642 0.0
C2149 C 0.93649 0.75703 0.1638 0.0
C2150 C 0.89686 0.73702 0.15518 0.0
C2151 C 0.8427 0.68997 0.16851 0.0
H2152 H 0.81197 0.66029 0.14561 0.0
C2153 C 0.73753 0.61755 0.15107 0.0
C2154 C 0.72829 0.59711 0.15721 0.0
C2155 C 0.76195 0.63906 0.15216 0.0
C2156 C 0.82015 0.66875 0.15204 0.0
H2157 H 0.93665 0.73486 0.17524 0.0
H2158 H 0.89283 0.69977 0.173 0.0
H2159 H 0.85768 0.69189 0.14642 0.0
H2160 H 0.73649 0.58426 0.16971 0.0
H2161 H 0.77897 0.62153 0.17154 0.0
H2162 H 0.80525 0.66694 0.17414 0.0
C2163 C 0.90079 0.7156 0.16829 0.0
C2164 C 0.84637 0.68669 0.1525 0.0
C2165 C 0.92598 0.73558 0.16951 0.0
C2166 C 0.74308 0.59959 0.16482 0.0
C2167 C 0.76746 0.62105 0.16589 0.0
C2168 C 0.81648 0.67213 0.16805 0.0
C2169 C 0.8857 0.71657 0.1613 0.0
C2170 C 0.85796 0.6973 0.16075 0.0
C2171 C 0.77756 0.64056 0.1594 0.0
C2172 C 0.80493 0.66114 0.15982 0.0
H2173 H 0.92958 0.77327 0.15187 0.0
H2174 H 0.8857 0.73828 0.14972 0.0
H2175 H 0.851 0.69827 0.17494 0.0
H2176 H 0.72656 0.61634 0.14516 0.0
H2177 H 0.76897 0.65408 0.14714 0.0
C2178 C 0.14524 0.38527 0.35071 0.0
C2179 C 0.14649 0.4046 0.34509 0.0
C2180 C 0.14999 0.36641 0.34733 0.0
C2181 C 0.1566 0.33666 0.32661 0.0
H2182 H 0.20372 0.32536 0.34103 0.0
C2183 C 0.19927 0.27638 0.31342 0.0
C2184 C 0.19709 0.25709 0.31928 0.0
C2185 C 0.19561 0.29622 0.31655 0.0
C2186 C 0.19046 0.32821 0.33696 0.0
H2187 H 0.15176 0.41818 0.33138 0.0
H2188 H 0.16011 0.38526 0.32548 0.0
H2189 H 0.18901 0.35409 0.34643 0.0
H2190 H 0.19149 0.24469 0.33314 0.0
H2191 H 0.1851 0.27924 0.33857 0.0
H2192 H 0.15797 0.31067 0.31715 0.0
C2193 C 0.15547 0.38469 0.3325 0.0
C2194 C 0.18191 0.34454 0.34006 0.0
C2195 C 0.15066 0.40355 0.33589 0.0
C2196 C 0.19321 0.25919 0.32844 0.0
C2197 C 0.18957 0.27904 0.33156 0.0
C2198 C 0.16515 0.32031 0.3235 0.0
C2199 C 0.1561 0.3665 0.33825 0.0
C2200 C 0.16476 0.34882 0.33495 0.0
C2201 C 0.18981 0.29721 0.32559 0.0
C2202 C 0.18209 0.31583 0.32866 0.0
H2203 H 0.14181 0.38538 0.35782 0.0
H2204 H 0.1497 0.35223 0.35187 0.0
H2205 H 0.14325 0.33943 0.32255 0.0
H2206 H 0.20245 0.27546 0.30634 0.0
H2207 H 0.19646 0.3103 0.31182 0.0
C2208 C 0.59831 0.74127 0.33794 0.0
C2209 C 0.59786 0.73331 0.34681 0.0
C2210 C 0.61799 0.76511 0.33501 0.0
C2211 C 0.66246 0.82863 0.34423 0.0
H2212 H 0.6898 0.84316 0.32012 0.0
C2213 C 0.74269 0.9287 0.33228 0.0
C2214 C 0.74092 0.93596 0.32349 0.0
C2215 C 0.72486 0.90429 0.33546 0.0
C2216 C 0.68207 0.83942 0.32685 0.0
H2217 H 0.61898 0.7431 0.35932 0.0
H2218 H 0.65356 0.78456 0.35415 0.0
H2219 H 0.66204 0.79873 0.32479 0.0
H2220 H 0.71786 0.92411 0.3114 0.0
H2221 H 0.6866 0.88173 0.317 0.0
H2222 H 0.68244 0.86937 0.34627 0.0
C2223 C 0.63831 0.77262 0.34954 0.0
C2224 C 0.66629 0.81397 0.32953 0.0
C2225 C 0.61861 0.74876 0.35247 0.0
C2226 C 0.71992 0.91904 0.31818 0.0
C2227 C 0.70214 0.89466 0.32135 0.0
C2228 C 0.67829 0.8541 0.34155 0.0
C2229 C 0.63769 0.78144 0.34089 0.0
C2230 C 0.65614 0.80829 0.33823 0.0
C2231 C 0.70493 0.88673 0.32991 0.0
C2232 C 0.68806 0.85976 0.33281 0.0
H2233 H 0.58268 0.72978 0.33339 0.0
H2234 H 0.6169 0.77134 0.32831 0.0
H2235 H 0.65456 0.82493 0.35093 0.0
H2236 H 0.75862 0.94128 0.33656 0.0
H2237 H 0.72751 0.89873 0.34209 0.0
C2238 C 0.08233 0.80832 0.31235 0.0
C2239 C 0.06192 0.80712 0.31732 0.0
C2240 C 0.10438 0.81159 0.31664 0.0
C2241 C 0.14051 0.83881 0.3374 0.0
H2242 H 0.18106 0.80909 0.32908 0.0
C2243 C 0.22829 0.84714 0.35626 0.0
C2244 C 0.24896 0.84944 0.35114 0.0
C2245 C 0.20615 0.84404 0.35209 0.0
C2246 C 0.17011 0.81782 0.33139 0.0
H2247 H 0.04778 0.80628 0.33075 0.0
H2248 H 0.08611 0.81145 0.33824 0.0
H2249 H 0.13951 0.79594 0.32221 0.0
H2250 H 0.26341 0.85229 0.33764 0.0
H2251 H 0.22476 0.84711 0.33036 0.0
H2252 H 0.17109 0.86056 0.34662 0.0
C2253 C 0.08531 0.81056 0.331 0.0
C2254 C 0.14626 0.81019 0.32749 0.0
C2255 C 0.06323 0.80732 0.32671 0.0
C2256 C 0.24777 0.85045 0.34177 0.0
C2257 C 0.22556 0.84723 0.3376 0.0
C2258 C 0.16433 0.84638 0.34132 0.0
C2259 C 0.10646 0.81361 0.326 0.0
C2260 C 0.1312 0.82063 0.33044 0.0
C2261 C 0.20421 0.84313 0.34272 0.0
C2262 C 0.17941 0.83601 0.33834 0.0
H2263 H 0.08191 0.80815 0.30511 0.0
H2264 H 0.12034 0.81394 0.31257 0.0
H2265 H 0.12962 0.84762 0.3397 0.0
H2266 H 0.22866 0.8464 0.36349 0.0
H2267 H 0.19001 0.8409 0.35621 0.0
C2268 C 0.71605 0.80483 0.81755 0.0
C2269 C 0.7376 0.81045 0.82282 0.0
C2270 C 0.69698 0.80947 0.82082 0.0
C2271 C 0.67108 0.82339 0.84111 0.0
H2272 H 0.65554 0.86427 0.82493 0.0
C2273 C 0.61371 0.87057 0.85307 0.0
C2274 C 0.59371 0.86751 0.84741 0.0
C2275 C 0.63248 0.86525 0.84997 0.0
C2276 C 0.65948 0.85268 0.8295 0.0
H2277 H 0.75485 0.82305 0.83594 0.0
H2278 H 0.72146 0.83091 0.84166 0.0
H2279 H 0.68316 0.84778 0.81994 0.0
H2280 H 0.57881 0.85832 0.83387 0.0
H2281 H 0.61131 0.84882 0.8285 0.0
H2282 H 0.64724 0.82808 0.85065 0.0
C2283 C 0.71941 0.82314 0.83498 0.0
C2284 C 0.67521 0.84314 0.82663 0.0
C2285 C 0.73855 0.81866 0.83169 0.0
C2286 C 0.59393 0.86085 0.83842 0.0
C2287 C 0.61262 0.85542 0.83533 0.0
C2288 C 0.65522 0.8328 0.84397 0.0
C2289 C 0.69898 0.81956 0.82945 0.0
C2290 C 0.68117 0.82841 0.83241 0.0
C2291 C 0.6316 0.85673 0.84115 0.0
C2292 C 0.64928 0.84761 0.8382 0.0
H2293 H 0.71465 0.79837 0.8107 0.0
H2294 H 0.68115 0.80607 0.81649 0.0
H2295 H 0.67525 0.81197 0.84568 0.0
H2296 H 0.61422 0.87589 0.86002 0.0
H2297 H 0.64724 0.86708 0.85456 0.0
C2298 C 0.14617 0.74191 0.84039 0.0
C2299 C 0.15579 0.73037 0.83456 0.0
C2300 C 0.15122 0.76692 0.83882 0.0
C2301 C 0.17509 0.81909 0.82196 0.0
H2302 H 0.19765 0.86311 0.84291 0.0
C2303 C 0.19096 0.92333 0.83193 0.0
C2304 C 0.20396 0.93728 0.82425 0.0
C2305 C 0.18833 0.89932 0.83362 0.0
C2306 C 0.19136 0.85104 0.83701 0.0
H2307 H 0.17642 0.73525 0.82213 0.0
H2308 H 0.1853 0.77882 0.81944 0.0
H2309 H 0.18319 0.81747 0.84449 0.0
H2310 H 0.22635 0.93804 0.81275 0.0
H2311 H 0.22192 0.89607 0.81577 0.0
H2312 H 0.18323 0.85268 0.81449 0.0
C2313 C 0.17388 0.76861 0.82522 0.0
C2314 C 0.18287 0.82487 0.83792 0.0
C2315 C 0.16879 0.74359 0.82678 0.0
C2316 C 0.21616 0.92773 0.81871 0.0
C2317 C 0.2134 0.90359 0.82038 0.0
C2318 C 0.18365 0.84527 0.82105 0.0
C2319 C 0.16595 0.78087 0.8314 0.0
C2320 C 0.17446 0.80856 0.83041 0.0
C2321 C 0.19861 0.88875 0.82766 0.0
C2322 C 0.19173 0.86149 0.82857 0.0
H2323 H 0.13592 0.73218 0.84642 0.0
H2324 H 0.14429 0.77564 0.84359 0.0
H2325 H 0.16854 0.80701 0.81607 0.0
H2326 H 0.18146 0.93027 0.83635 0.0
H2327 H 0.1768 0.88834 0.83928 0.0
C2328 C 0.26175 0.43207 0.82487 0.0
C2329 C 0.27611 0.43056 0.83202 0.0
C2330 C 0.23921 0.41036 0.82208 0.0
C2331 C 0.18914 0.34737 0.83064 0.0
H2332 H 0.16572 0.33744 0.80605 0.0
C2333 C 0.08604 0.26978 0.82101 0.0
C2334 C 0.0836 0.25578 0.81319 0.0
C2335 C 0.10931 0.29197 0.82301 0.0
C2336 C 0.17201 0.33977 0.81294 0.0
H2337 H 0.2791 0.4047 0.84142 0.0
H2338 H 0.24017 0.36651 0.83632 0.0
H2339 H 0.20833 0.37242 0.80972 0.0
H2340 H 0.10343 0.25447 0.80123 0.0
H2341 H 0.14382 0.29243 0.80481 0.0
H2342 H 0.15319 0.31406 0.83379 0.0
C2343 C 0.24589 0.38469 0.83307 0.0
C2344 C 0.19639 0.36004 0.81507 0.0
C2345 C 0.26836 0.40652 0.83593 0.0
C2346 C 0.10458 0.26482 0.80731 0.0
C2347 C 0.1278 0.28676 0.80934 0.0
C2348 C 0.16485 0.32691 0.82849 0.0
C2349 C 0.23065 0.38653 0.82629 0.0
C2350 C 0.20524 0.36415 0.82395 0.0
C2351 C 0.13061 0.30046 0.81726 0.0
C2352 C 0.15598 0.32286 0.81962 0.0
H2353 H 0.26713 0.4503 0.82171 0.0
H2354 H 0.22791 0.41261 0.8169 0.0
H2355 H 0.19511 0.35021 0.83757 0.0
H2356 H 0.07018 0.26332 0.82566 0.0
H2357 H 0.11069 0.30233 0.8291 0.0
C2358 C 0.85854 0.60165 0.66434 0.0
C2359 C 0.8466 0.57966 0.66979 0.0
C2360 C 0.8552 0.62264 0.66607 0.0
C2361 C 0.83207 0.65189 0.6828 0.0
H2362 H 0.81229 0.67589 0.66181 0.0
C2363 C 0.81586 0.74085 0.67281 0.0
C2364 C 0.80222 0.7412 0.6804 0.0
C2365 C 0.8197 0.72013 0.67123 0.0
C2366 C 0.81794 0.66952 0.66772 0.0
H2367 H 0.82378 0.56341 0.68178 0.0
H2368 H 0.81799 0.59997 0.68478 0.0
H2369 H 0.82571 0.64396 0.66017 0.0
H2370 H 0.78013 0.7191 0.69188 0.0
H2371 H 0.78649 0.68271 0.68903 0.0
H2372 H 0.82429 0.67747 0.69035 0.0
C2373 C 0.82982 0.60099 0.67915 0.0
C2374 C 0.82578 0.65136 0.66678 0.0
C2375 C 0.83312 0.57999 0.67742 0.0
C2376 C 0.79087 0.71952 0.68601 0.0
C2377 C 0.79474 0.69879 0.68443 0.0
C2378 C 0.82424 0.67008 0.68373 0.0
C2379 C 0.83998 0.62209 0.6733 0.0
C2380 C 0.83295 0.64236 0.67431 0.0
C2381 C 0.80992 0.69928 0.6772 0.0
C2382 C 0.81707 0.67908 0.67621 0.0
H2383 H 0.8692 0.6021 0.65844 0.0
H2384 H 0.86374 0.63891 0.66155 0.0
H2385 H 0.83767 0.64547 0.68871 0.0
H2386 H 0.82479 0.7572 0.66834 0.0
H2387 H 0.83153 0.72114 0.66561 0.0
C2388 C 0.40249 0.25848 0.65937 0.0
C2389 C 0.42349 0.27136 0.6652 0.0
C2390 C 0.38177 0.23452 0.66168 0.0
C2391 C 0.35111 0.18881 0.68042 0.0
H2392 H 0.33109 0.13731 0.6618 0.0
C2393 C 0.26619 0.0786 0.67408 0.0
C2394 C 0.26577 0.06831 0.68257 0.0
C2395 C 0.28635 0.10279 0.67167 0.0
C2396 C 0.33634 0.1515 0.66704 0.0
H2397 H 0.4382 0.27021 0.67834 0.0
H2398 H 0.40213 0.22848 0.68237 0.0
H2399 H 0.36225 0.18207 0.65849 0.0
H2400 H 0.28729 0.07434 0.69485 0.0
H2401 H 0.32264 0.11636 0.69056 0.0
H2402 H 0.32528 0.15824 0.68898 0.0
C2403 C 0.40166 0.23682 0.67599 0.0
C2404 C 0.35406 0.17716 0.66514 0.0
C2405 C 0.42238 0.26075 0.67368 0.0
C2406 C 0.28688 0.08183 0.6883 0.0
C2407 C 0.30703 0.10601 0.68588 0.0
C2408 C 0.33341 0.16316 0.68232 0.0
C2409 C 0.3816 0.22304 0.66989 0.0
C2410 C 0.36168 0.19609 0.67182 0.0
C2411 C 0.30651 0.11713 0.67768 0.0
C2412 C 0.32591 0.14421 0.67566 0.0
H2413 H 0.40266 0.2662 0.6528 0.0
H2414 H 0.36629 0.22459 0.65693 0.0
H2415 H 0.3564 0.20299 0.68568 0.0
H2416 H 0.25026 0.06865 0.66949 0.0
H2417 H 0.28539 0.11084 0.66529 0.0
C2418 C 0.73655 0.14738 0.65936 0.0
C2419 C 0.73117 0.143 0.65017 0.0
C2420 C 0.76063 0.15334 0.66266 0.0
C2421 C 0.82015 0.15237 0.65734 0.0
H2422 H 0.85158 0.2107 0.67348 0.0
C2423 C 0.92474 0.19432 0.66842 0.0
C2424 C 0.92853 0.19745 0.67772 0.0
C2425 C 0.902 0.19084 0.6646 0.0
C2426 C 0.84302 0.19433 0.66901 0.0
H2427 H 0.74621 0.13964 0.63736 0.0
H2428 H 0.78815 0.14996 0.64314 0.0
H2429 H 0.8079 0.19512 0.66813 0.0
H2430 H 0.91256 0.20185 0.69016 0.0
H2431 H 0.87297 0.19567 0.68352 0.0
H2432 H 0.85512 0.15138 0.65828 0.0
C2433 C 0.77381 0.14888 0.64778 0.0
C2434 C 0.81797 0.18531 0.66599 0.0
C2435 C 0.74975 0.14299 0.64447 0.0
C2436 C 0.91017 0.1993 0.68299 0.0
C2437 C 0.88746 0.19582 0.67917 0.0
C2438 C 0.84518 0.16136 0.66037 0.0
C2439 C 0.77976 0.1549 0.65686 0.0
C2440 C 0.80621 0.16414 0.66016 0.0
C2441 C 0.88269 0.19052 0.67 0.0
C2442 C 0.85686 0.18237 0.66627 0.0
H2443 H 0.72262 0.14743 0.66394 0.0
H2444 H 0.76451 0.15736 0.66973 0.0
H2445 H 0.81153 0.1359 0.65291 0.0
H2446 H 0.9386 0.19301 0.66415 0.0
H2447 H 0.89911 0.18739 0.65747 0.0
C2448 C 0.04844 0.47919 0.48022 0.0
C2449 C 0.06611 0.47651 0.48561 0.0
C2450 C 0.02973 0.48338 0.48409 0.0
C2451 C 0.99713 0.4814 0.50529 0.0
H2452 H 0.99212 0.5375 0.49451 0.0
C2453 C 0.94121 0.5233 0.52253 0.0
C2454 C 0.9236 0.52594 0.51709 0.0
C2455 C 0.96014 0.51936 0.51871 0.0
C2456 C 0.99318 0.5217 0.49756 0.0
H2457 H 0.07674 0.47413 0.4993 0.0
H2458 H 0.04407 0.48151 0.50604 0.0
H2459 H 0.01968 0.52316 0.48771 0.0
H2460 H 0.91332 0.52856 0.50338 0.0
H2461 H 0.94633 0.52161 0.49672 0.0
H2462 H 0.9706 0.4799 0.51512 0.0
C2463 C 0.0447 0.48039 0.49883 0.0
C2464 C 0.00885 0.51339 0.49365 0.0
C2465 C 0.06343 0.47615 0.49496 0.0
C2466 C 0.92658 0.52657 0.50776 0.0
C2467 C 0.94551 0.52258 0.50394 0.0
C2468 C 0.98145 0.4897 0.50919 0.0
C2469 C 0.02827 0.48496 0.49342 0.0
C2470 C 0.01096 0.49311 0.49746 0.0
C2471 C 0.96187 0.51799 0.50938 0.0
C2472 C 0.97932 0.50996 0.50538 0.0
H2473 H 0.04981 0.47928 0.473 0.0
H2474 H 0.0169 0.48621 0.47975 0.0
H2475 H -0.00182 0.46559 0.50833 0.0
H2476 H 0.9396 0.523 0.52975 0.0
H2477 H 0.9729 0.51653 0.52308 0.0
C2478 C 0.47484 0.4019 0.50456 0.0
C2479 C 0.48542 0.39043 0.49914 0.0
C2480 C 0.4786 0.42618 0.50244 0.0
C2481 C 0.49824 0.47491 0.48467 0.0
H2482 H 0.52483 0.52326 0.5044 0.0
C2483 C 0.51815 0.58248 0.49328 0.0
C2484 C 0.52815 0.59439 0.485 0.0
C2485 C 0.51496 0.5583 0.49514 0.0
C2486 C 0.51723 0.50998 0.49884 0.0
H2487 H 0.50633 0.3944 0.48686 0.0
H2488 H 0.51261 0.43664 0.48312 0.0
H2489 H 0.5116 0.47825 0.50695 0.0
H2490 H 0.54472 0.59127 0.4725 0.0
H2491 H 0.53981 0.54935 0.47586 0.0
H2492 H 0.50347 0.50647 0.47657 0.0
C2493 C 0.50163 0.42698 0.48904 0.0
C2494 C 0.50957 0.48419 0.50031 0.0
C2495 C 0.49805 0.4028 0.49119 0.0
C2496 C 0.53671 0.58249 0.4789 0.0
C2497 C 0.53366 0.55835 0.48079 0.0
C2498 C 0.50572 0.50068 0.48321 0.0
C2499 C 0.49276 0.43929 0.49481 0.0
C2500 C 0.49994 0.4664 0.49325 0.0
C2501 C 0.52191 0.54559 0.48879 0.0
C2502 C 0.51528 0.51852 0.49028 0.0
H2503 H 0.46493 0.39285 0.51072 0.0
H2504 H 0.47116 0.43508 0.50692 0.0
H2505 H 0.49077 0.46156 0.47912 0.0
H2506 H 0.51138 0.59112 0.49813 0.0
H2507 H 0.50574 0.54901 0.50135 0.0
C2508 C 0.58884 0.06988 0.50424 0.0
C2509 C 0.59997 0.09053 0.49818 0.0
C2510 C 0.56401 0.04943 0.5028 0.0
C2511 C 0.51211 0.01775 0.48615 0.0
H2512 H 0.4677 0.00054 0.5069 0.0
C2513 C 0.40729 0.93169 0.49758 0.0
C2514 C 0.3938 0.92818 0.48954 0.0
C2515 C 0.43137 0.95344 0.49885 0.0
C2516 C 0.47987 0.00502 0.50106 0.0
H2517 H 0.59468 0.10479 0.48549 0.0
H2518 H 0.55144 0.069 0.48298 0.0
H2519 H 0.51322 0.0323 0.50825 0.0
H2520 H 0.39387 0.94598 0.47691 0.0
H2521 H 0.43571 0.98421 0.47921 0.0
H2522 H 0.47888 0.99027 0.47898 0.0
C2523 C 0.56182 0.06872 0.48886 0.0
C2524 C 0.50595 0.0231 0.50184 0.0
C2525 C 0.58661 0.08924 0.4903 0.0
C2526 C 0.40387 0.94796 0.48314 0.0
C2527 C 0.42796 0.96975 0.48442 0.0
C2528 C 0.48603 -0.00041 0.48537 0.0
C2529 C 0.54992 0.04914 0.49526 0.0
C2530 C 0.52237 0.02953 0.49441 0.0
C2531 C 0.44241 0.97221 0.49212 0.0
C2532 C 0.46964 0.99293 0.49283 0.0
H2533 H 0.59865 0.07018 0.51035 0.0
H2534 H 0.55549 0.03427 0.50776 0.0
H2535 H 0.52434 0.02224 0.48032 0.0
H2536 H 0.40002 0.9169 0.50268 0.0
H2537 H 0.44197 0.9547 0.50486 0.0
C2538 C 0.45357 0.04234 0.01292 0.0
C2539 C 0.46168 0.06473 0.00781 0.0
C2540 C 0.45906 0.02343 0.01011 0.0
C2541 C 0.48067 -8e-05 0.99105 0.0
H2542 H 0.51326 0.98065 0.0095 0.0
C2543 C 0.5299 0.94192 0.9824 0.0
C2544 C 0.52366 0.92077 0.98798 0.0
C2545 C 0.52419 0.96083 0.98502 0.0
C2546 C 0.50402 0.98565 0.00429 0.0
H2547 H 0.47968 0.08368 0.99534 0.0
H2548 H 0.48903 0.05059 0.99042 0.0
H2549 H 0.49573 0.00832 0.01324 0.0
H2550 H 0.50843 0.90396 0.00098 0.0
H2551 H 0.49831 0.93671 0.0055 0.0
H2552 H 0.48874 0.9771 0.9821 0.0
C2553 C 0.47866 0.04775 0.99663 0.0
C2554 C 0.49386 0.0014 0.00644 0.0
C2555 C 0.47331 0.06673 -0.00054 0.0
C2556 C 0.51346 0.91997 0.99651 0.0
C2557 C 0.50766 0.93881 0.99911 0.0
C2558 C 0.4907 0.98405 0.9889 0.0
C2559 C 0.47252 0.02644 0.00211 0.0
C2560 C 0.48207 0.00868 -0.00016 0.0
C2561 C 0.51211 0.95895 0.99326 0.0
C2562 C 0.50252 0.97676 0.9955 0.0
H2563 H 0.44444 0.04011 0.01936 0.0
H2564 H 0.45363 0.00691 0.01437 0.0
H2565 H 0.47156 0.0051 0.98584 0.0
H2566 H 0.53797 0.94324 0.97581 0.0
H2567 H 0.52847 0.97647 0.98046 0.0
C2568 C 0.92604 0.40204 -0.00026 0.0
C2569 C 0.92798 0.39221 0.00806 0.0
C2570 C 0.94557 0.42596 0.99681 0.0
C2571 C 0.99362 0.48679 0.00651 0.0
H2572 H 0.01598 0.50592 0.98199 0.0
C2573 C 0.07328 0.5884 0.99614 0.0
C2574 C 0.07121 0.59778 0.98775 0.0
C2575 C 0.05526 0.5635 0.9988 0.0
C2576 C 0.00962 0.50094 0.98885 0.0
H2577 H 0.95299 0.39865 0.01941 0.0
H2578 H 0.98715 0.44035 0.01424 0.0
H2579 H 0.98804 0.46075 0.98579 0.0
H2580 H 0.04745 0.58914 0.9759 0.0
H2581 H 0.01565 0.54592 0.98065 0.0
H2582 H 0.01479 0.52692 0.00956 0.0
C2583 C 0.97029 0.42974 0.01009 0.0
C2584 C 0.99379 0.47505 0.99103 0.0
C2585 C 0.95082 0.40573 0.013 0.0
C2586 C 0.04972 0.58242 0.98237 0.0
C2587 C 0.03165 0.55755 0.98505 0.0
C2588 C 0.00934 0.51267 0.00433 0.0
C2589 C 0.96737 0.44052 0.00215 0.0
C2590 C 0.9856 0.46772 -0.00012 0.0
C2591 C 0.03471 0.5475 0.99315 0.0
C2592 C 0.01745 0.52006 0.99547 0.0
H2593 H 0.90875 0.39201 0.99575 0.0
H2594 H 0.94278 0.43376 0.99066 0.0
H2595 H 0.98717 0.48176 0.01336 0.0
H2596 H 0.0896 0.59971 0.00045 0.0
H2597 H 0.05825 0.55636 0.00507 0.0
C2598 C 0.39644 0.47104 0.99742 0.0
C2599 C 0.39205 0.46691 0.98817 0.0
C2600 C 0.41977 0.47581 0.00111 0.0
C2601 C 0.47902 0.47305 0.99661 0.0
H2602 H 0.50971 0.53048 0.01314 0.0
C2603 C 0.58369 0.5161 0.00811 0.0
C2604 C 0.58721 0.51873 0.01743 0.0
C2605 C 0.56068 0.51189 0.00429 0.0
C2606 C 0.50133 0.51435 0.00857 0.0
H2607 H 0.40793 0.46264 0.97568 0.0
H2608 H 0.44857 0.47109 0.98211 0.0
H2609 H 0.46662 0.51576 0.00737 0.0
H2610 H 0.57026 0.52108 0.02995 0.0
H2611 H 0.53024 0.51385 0.02328 0.0
H2612 H 0.5138 0.47171 0.99781 0.0
C2613 C 0.43404 0.47063 0.98651 0.0
C2614 C 0.47659 0.50578 0.0053 0.0
C2615 C 0.41071 0.46582 0.98282 0.0
C2616 C 0.56808 0.519 0.02276 0.0
C2617 C 0.54516 0.51492 0.01893 0.0
C2618 C 0.50379 0.48166 -0.00014 0.0
C2619 C 0.43914 0.47652 0.99564 0.0
C2620 C 0.46512 0.48498 -0.00069 0.0
C2621 C 0.54088 0.51043 0.00971 0.0
C2622 C 0.51518 0.50237 0.00589 0.0
H2623 H 0.38239 0.47182 0.00174 0.0
H2624 H 0.42291 0.47968 0.00821 0.0
H2625 H 0.47063 0.45683 0.99208 0.0
H2626 H 0.59809 0.51588 0.00382 0.0
H2627 H 0.55807 0.50897 0.99714 0.0
loop_
_geom_bond_atom_site_label_1
_geom_bond_atom_site_label_2
_geom_bond_distance
_geom_bond_site_symmetry_2
_ccdc_geom_bond_type
C0 O1 1.160 . S
C0 O7 1.185 . S
O1 C0 1.160 . S
O2 Zn3 1.899 . S
O2 C10 1.284 . S
Zn3 O2 1.899 . S
Zn3 O4 2.032 . S
Zn3 O7 2.086 . S
Zn3 O12 1.977 . S
O4 Zn3 2.032 . S
O4 C8 1.278 . S
C5 O6 1.203 . S
C5 O12 1.267 . S
O6 C5 1.203 . S
O7 C0 1.185 . S
O7 Zn3 2.086 . S
C8 O4 1.278 . S
C8 O9 1.211 . S
O9 C8 1.211 . S
C10 O2 1.284 . S
C10 O11 1.273 . S
O11 C10 1.273 . S
O12 Zn3 1.977 . S
O12 C5 1.267 . S
C13 O14 1.160 . S
C13 O20 1.185 . S
O14 C13 1.160 . S
O15 Zn16 1.899 . S
O15 C23 1.284 . S
Zn16 O15 1.899 . S
Zn16 O17 2.032 . S
Zn16 O20 2.086 . S
Zn16 O25 1.977 1_545 S
O17 Zn16 2.032 . S
O17 C21 1.278 . S
C18 O19 1.203 . S
C18 O25 1.267 . S
O19 C18 1.203 . S
O20 C13 1.185 . S
O20 Zn16 2.086 . S
C21 O17 1.278 . S
C21 O22 1.211 1_545 S
O22 C21 1.211 1_565 S
C23 O15 1.284 . S
C23 O24 1.273 . S
O24 C23 1.273 . S
O25 Zn16 1.977 1_565 S
O25 C18 1.267 . S
C26 O27 1.160 . S
C26 O33 1.185 . S
O27 C26 1.160 . S
O28 Zn29 1.899 . S
O28 C36 1.284 . S
Zn29 O28 1.899 . S
Zn29 O30 2.032 . S
Zn29 O33 2.086 . S
Zn29 O38 1.977 1_655 S
O30 Zn29 2.032 . S
O30 C34 1.278 . S
C31 O32 1.203 . S
C31 O38 1.267 . S
O32 C31 1.203 . S
O33 C26 1.185 . S
O33 Zn29 2.086 . S
C34 O30 1.278 . S
C34 O35 1.211 1_655 S
O35 C34 1.211 1_455 S
C36 O28 1.284 . S
C36 O37 1.273 . S
O37 C36 1.273 . S
O38 Zn29 1.977 1_455 S
O38 C31 1.267 . S
C39 O40 1.160 . S
C39 O46 1.185 . S
O40 C39 1.160 . S
O41 Zn42 1.899 . S
O41 C49 1.284 . S
Zn42 O41 1.899 . S
Zn42 O43 2.032 . S
Zn42 O46 2.086 . S
Zn42 O51 1.977 . S
O43 Zn42 2.032 . S
O43 C47 1.278 . S
C44 O45 1.203 . S
C44 O51 1.267 . S
O45 C44 1.203 . S
O46 C39 1.185 . S
O46 Zn42 2.086 . S
C47 O43 1.278 . S
C47 O48 1.211 . S
O48 C47 1.211 . S
C49 O41 1.284 . S
C49 O50 1.273 . S
O50 C49 1.273 . S
O51 Zn42 1.977 . S
O51 C44 1.267 . S
C52 O53 1.160 . S
C52 O59 1.185 . S
O53 C52 1.160 . S
O54 Zn55 1.899 . S
O54 C62 1.284 . S
Zn55 O54 1.899 . S
Zn55 O56 2.032 . S
Zn55 O59 2.086 . S
Zn55 O64 1.977 1_565 S
O56 Zn55 2.032 . S
O56 C60 1.278 . S
C57 O58 1.203 . S
C57 O64 1.267 . S
O58 C57 1.203 . S
O59 C52 1.185 . S
O59 Zn55 2.086 . S
C60 O56 1.278 . S
C60 O61 1.211 1_565 S
O61 C60 1.211 1_545 S
C62 O54 1.284 . S
C62 O63 1.273 . S
O63 C62 1.273 . S
O64 Zn55 1.977 1_545 S
O64 C57 1.267 . S
C65 O66 1.160 . S
C65 O72 1.185 . S
O66 C65 1.160 . S
O67 Zn68 1.899 . S
O67 C75 1.284 . S
Zn68 O67 1.899 . S
Zn68 O69 2.032 . S
Zn68 O72 2.086 . S
Zn68 O77 1.977 1_455 S
O69 Zn68 2.032 . S
O69 C73 1.278 . S
C70 O71 1.203 . S
C70 O77 1.267 . S
O71 C70 1.203 . S
O72 C65 1.185 . S
O72 Zn68 2.086 . S
C73 O69 1.278 . S
C73 O74 1.211 1_455 S
O74 C73 1.211 1_655 S
C75 O67 1.284 . S
C75 O76 1.273 . S
O76 C75 1.273 . S
O77 Zn68 1.977 1_655 S
O77 C70 1.267 . S
C78 O79 1.160 . S
C78 O85 1.185 . S
O79 C78 1.160 . S
O80 Zn81 1.899 . S
O80 C88 1.284 . S
Zn81 O80 1.899 . S
Zn81 O82 2.032 . S
Zn81 O85 2.086 . S
Zn81 O90 1.977 . S
O82 Zn81 2.032 . S
O82 C86 1.278 . S
C83 O84 1.203 . S
C83 O90 1.267 . S
O84 C83 1.203 . S
O85 C78 1.185 . S
O85 Zn81 2.086 . S
C86 O82 1.278 . S
C86 O87 1.211 . S
O87 C86 1.211 . S
C88 O80 1.284 . S
C88 O89 1.273 . S
O89 C88 1.273 . S
O90 Zn81 1.977 . S
O90 C83 1.267 . S
C91 O92 1.160 . S
C91 O98 1.185 . S
O92 C91 1.160 . S
O93 Zn94 1.899 . S
O93 C101 1.284 . S
Zn94 O93 1.899 . S
Zn94 O95 2.032 . S
Zn94 O98 2.086 . S
Zn94 O103 1.977 1_565 S
O95 Zn94 2.032 . S
O95 C99 1.278 . S
C96 O97 1.203 . S
C96 O103 1.267 . S
O97 C96 1.203 . S
O98 C91 1.185 . S
O98 Zn94 2.086 . S
C99 O95 1.278 . S
C99 O100 1.211 . S
O100 C99 1.211 . S
C101 O93 1.284 . S
C101 O102 1.273 . S
O102 C101 1.273 . S
O103 Zn94 1.977 1_545 S
O103 C96 1.267 . S
C104 O105 1.160 . S
C104 O111 1.185 . S
O105 C104 1.160 . S
O106 Zn107 1.899 . S
O106 C114 1.284 . S
Zn107 O106 1.899 . S
Zn107 O108 2.032 . S
Zn107 O111 2.086 . S
Zn107 O116 1.977 1_455 S
O108 Zn107 2.032 . S
O108 C112 1.278 . S
C109 O110 1.203 . S
C109 O116 1.267 . S
O110 C109 1.203 . S
O111 C104 1.185 . S
O111 Zn107 2.086 . S
C112 O108 1.278 . S
C112 O113 1.211 . S
O113 C112 1.211 . S
C114 O106 1.284 . S
C114 O115 1.273 . S
O115 C114 1.273 . S
O116 Zn107 1.977 1_655 S
O116 C109 1.267 . S
C117 O118 1.160 . S
C117 O124 1.185 . S
O118 C117 1.160 . S
O119 Zn120 1.899 . S
O119 C127 1.284 . S
Zn120 O119 1.899 . S
Zn120 O121 2.032 . S
Zn120 O124 2.086 . S
Zn120 O129 1.977 . S
O121 Zn120 2.032 . S
O121 C125 1.278 . S
C122 O123 1.203 . S
C122 O129 1.267 . S
O123 C122 1.203 . S
O124 C117 1.185 . S
O124 Zn120 2.086 . S
C125 O121 1.278 . S
C125 O126 1.211 . S
O126 C125 1.211 . S
C127 O119 1.284 . S
C127 O128 1.273 . S
O128 C127 1.273 . S
O129 Zn120 1.977 . S
O129 C122 1.267 . S
C130 O131 1.160 . S
C130 O137 1.185 . S
O131 C130 1.160 . S
O132 Zn133 1.899 . S
O132 C140 1.284 . S
Zn133 O132 1.899 . S
Zn133 O134 2.032 . S
Zn133 O137 2.086 . S
Zn133 O142 1.977 1_545 S
O134 Zn133 2.032 . S
O134 C138 1.278 . S
C135 O136 1.203 . S
C135 O142 1.267 . S
O136 C135 1.203 . S
O137 C130 1.185 . S
O137 Zn133 2.086 . S
C138 O134 1.278 . S
C138 O139 1.211 . S
O139 C138 1.211 . S
C140 O132 1.284 . S
C140 O141 1.273 . S
O141 C140 1.273 . S
O142 Zn133 1.977 1_565 S
O142 C135 1.267 . S
C143 O144 1.160 . S
C143 O150 1.185 . S
O144 C143 1.160 . S
O145 Zn146 1.899 . S
O145 C153 1.284 . S
Zn146 O145 1.899 . S
Zn146 O147 2.032 . S
Zn146 O150 2.086 . S
Zn146 O155 1.977 1_655 S
O147 Zn146 2.032 . S
O147 C151 1.278 . S
C148 O149 1.203 . S
C148 O155 1.267 . S
O149 C148 1.203 . S
O150 C143 1.185 . S
O150 Zn146 2.086 . S
C151 O147 1.278 . S
C151 O152 1.211 . S
O152 C151 1.211 . S
C153 O145 1.284 . S
C153 O154 1.273 . S
O154 C153 1.273 . S
O155 Zn146 1.977 1_455 S
O155 C148 1.267 . S
C156 O157 1.160 . S
C156 O163 1.185 . S
O157 C156 1.160 . S
O158 Zn159 1.899 . S
O158 C166 1.284 . S
Zn159 O158 1.899 . S
Zn159 O160 2.032 . S
Zn159 O163 2.086 . S
Zn159 O168 1.977 . S
O160 Zn159 2.032 . S
O160 C164 1.278 . S
C161 O162 1.203 . S
C161 O168 1.267 . S
O162 C161 1.203 . S
O163 C156 1.185 . S
O163 Zn159 2.086 . S
C164 O160 1.278 . S
C164 O165 1.211 . S
O165 C164 1.211 . S
C166 O158 1.284 . S
C166 O167 1.273 . S
O167 C166 1.273 . S
O168 Zn159 1.977 . S
O168 C161 1.267 . S
C169 O170 1.160 . S
C169 O176 1.185 . S
O170 C169 1.160 . S
O171 Zn172 1.899 . S
O171 C179 1.284 . S
Zn172 O171 1.899 . S
Zn172 O173 2.032 . S
Zn172 O176 2.086 . S
Zn172 O181 1.977 . S
O173 Zn172 2.032 . S
O173 C177 1.278 . S
C174 O175 1.203 . S
C174 O181 1.267 . S
O175 C174 1.203 . S
O176 C169 1.185 . S
O176 Zn172 2.086 . S
C177 O173 1.278 . S
C177 O178 1.211 . S
O178 C177 1.211 . S
C179 O171 1.284 . S
C179 O180 1.273 . S
O180 C179 1.273 . S
O181 Zn172 1.977 . S
O181 C174 1.267 . S
C182 O183 1.160 . S
C182 O189 1.185 . S
O183 C182 1.160 . S
O184 Zn185 1.899 . S
O184 C192 1.284 . S
Zn185 O184 1.899 . S
Zn185 O186 2.032 . S
Zn185 O189 2.086 . S
Zn185 O194 1.977 . S
O186 Zn185 2.032 . S
O186 C190 1.278 . S
C187 O188 1.203 . S
C187 O194 1.267 . S
O188 C187 1.203 . S
O189 C182 1.185 . S
O189 Zn185 2.086 . S
C190 O186 1.278 . S
C190 O191 1.211 . S
O191 C190 1.211 . S
C192 O184 1.284 . S
C192 O193 1.273 . S
O193 C192 1.273 . S
O194 Zn185 1.977 . S
O194 C187 1.267 . S
C195 O196 1.160 . S
C195 O202 1.185 . S
O196 C195 1.160 . S
O197 Zn198 1.899 . S
O197 C205 1.284 . S
Zn198 O197 1.899 . S
Zn198 O199 2.032 . S
Zn198 O202 2.086 . S
Zn198 O207 1.977 . S
O199 Zn198 2.032 . S
O199 C203 1.278 . S
C200 O201 1.203 . S
C200 O207 1.267 . S
O201 C200 1.203 . S
O202 C195 1.185 . S
O202 Zn198 2.086 . S
C203 O199 1.278 . S
C203 O204 1.211 . S
O204 C203 1.211 . S
C205 O197 1.284 . S
C205 O206 1.273 . S
O206 C205 1.273 . S
O207 Zn198 1.977 . S
O207 C200 1.267 . S
C208 O209 1.160 . S
C208 O215 1.185 . S
O209 C208 1.160 . S
O210 Zn211 1.899 . S
O210 C218 1.284 . S
Zn211 O210 1.899 . S
Zn211 O212 2.032 . S
Zn211 O215 2.086 . S
Zn211 O220 1.977 . S
O212 Zn211 2.032 . S
O212 C216 1.278 . S
C213 O214 1.203 . S
C213 O220 1.267 . S
O214 C213 1.203 . S
O215 C208 1.185 . S
O215 Zn211 2.086 . S
C216 O212 1.278 . S
C216 O217 1.211 . S
O217 C216 1.211 . S
C218 O210 1.284 . S
C218 O219 1.273 . S
O219 C218 1.273 . S
O220 Zn211 1.977 . S
O220 C213 1.267 . S
C221 O222 1.160 . S
C221 O228 1.185 . S
O222 C221 1.160 . S
O223 Zn224 1.899 . S
O223 C231 1.284 . S
Zn224 O223 1.899 . S
Zn224 O225 2.032 . S
Zn224 O228 2.086 . S
Zn224 O233 1.977 . S
O225 Zn224 2.032 . S
O225 C229 1.278 . S
C226 O227 1.203 . S
C226 O233 1.267 . S
O227 C226 1.203 . S
O228 C221 1.185 . S
O228 Zn224 2.086 . S
C229 O225 1.278 . S
C229 O230 1.211 . S
O230 C229 1.211 . S
C231 O223 1.284 . S
C231 O232 1.273 . S
O232 C231 1.273 . S
O233 Zn224 1.977 . S
O233 C226 1.267 . S
C234 O235 1.160 . S
C234 O241 1.185 . S
O235 C234 1.160 . S
O236 Zn237 1.899 . S
O236 C244 1.284 . S
Zn237 O236 1.899 . S
Zn237 O238 2.032 . S
Zn237 O241 2.086 . S
Zn237 O246 1.977 . S
O238 Zn237 2.032 . S
O238 C242 1.278 . S
C239 O240 1.203 . S
C239 O246 1.267 . S
O240 C239 1.203 . S
O241 C234 1.185 . S
O241 Zn237 2.086 . S
C242 O238 1.278 . S
C242 O243 1.211 . S
O243 C242 1.211 . S
C244 O236 1.284 . S
C244 O245 1.273 . S
O245 C244 1.273 . S
O246 Zn237 1.977 . S
O246 C239 1.267 . S
C247 O248 1.160 . S
C247 O254 1.185 . S
O248 C247 1.160 . S
O249 Zn250 1.899 . S
O249 C257 1.284 . S
Zn250 O249 1.899 . S
Zn250 O251 2.032 . S
Zn250 O254 2.086 . S
Zn250 O259 1.977 . S
O251 Zn250 2.032 . S
O251 C255 1.278 . S
C252 O253 1.203 . S
C252 O259 1.267 . S
O253 C252 1.203 . S
O254 C247 1.185 . S
O254 Zn250 2.086 . S
C255 O251 1.278 . S
C255 O256 1.211 . S
O256 C255 1.211 . S
C257 O249 1.284 . S
C257 O258 1.273 . S
O258 C257 1.273 . S
O259 Zn250 1.977 . S
O259 C252 1.267 . S
C260 O261 1.160 . S
C260 O267 1.185 . S
O261 C260 1.160 . S
O262 Zn263 1.899 . S
O262 C270 1.284 . S
Zn263 O262 1.899 . S
Zn263 O264 2.032 . S
Zn263 O267 2.086 . S
Zn263 O272 1.977 . S
O264 Zn263 2.032 . S
O264 C268 1.278 . S
C265 O266 1.203 . S
C265 O272 1.267 . S
O266 C265 1.203 . S
O267 C260 1.185 . S
O267 Zn263 2.086 . S
C268 O264 1.278 . S
C268 O269 1.211 . S
O269 C268 1.211 . S
C270 O262 1.284 . S
C270 O271 1.273 . S
O271 C270 1.273 . S
O272 Zn263 1.977 . S
O272 C265 1.267 . S
C273 O274 1.160 . S
C273 O280 1.185 . S
O274 C273 1.160 . S
O275 Zn276 1.899 . S
O275 C283 1.284 . S
Zn276 O275 1.899 . S
Zn276 O277 2.032 . S
Zn276 O280 2.086 . S
Zn276 O285 1.977 . S
O277 Zn276 2.032 . S
O277 C281 1.278 . S
C278 O279 1.203 . S
C278 O285 1.267 . S
O279 C278 1.203 . S
O280 C273 1.185 . S
O280 Zn276 2.086 . S
C281 O277 1.278 . S
C281 O282 1.211 . S
O282 C281 1.211 . S
C283 O275 1.284 . S
C283 O284 1.273 . S
O284 C283 1.273 . S
O285 Zn276 1.977 . S
O285 C278 1.267 . S
C286 O287 1.160 . S
C286 O293 1.185 . S
O287 C286 1.160 . S
O288 Zn289 1.899 . S
O288 C296 1.284 . S
Zn289 O288 1.899 . S
Zn289 O290 2.032 . S
Zn289 O293 2.086 . S
Zn289 O298 1.977 . S
O290 Zn289 2.032 . S
O290 C294 1.278 . S
C291 O292 1.203 . S
C291 O298 1.267 . S
O292 C291 1.203 . S
O293 C286 1.185 . S
O293 Zn289 2.086 . S
C294 O290 1.278 . S
C294 O295 1.211 . S
O295 C294 1.211 . S
C296 O288 1.284 . S
C296 O297 1.273 . S
O297 C296 1.273 . S
O298 Zn289 1.977 . S
O298 C291 1.267 . S
C299 O300 1.160 . S
C299 O306 1.185 . S
O300 C299 1.160 . S
O301 Zn302 1.899 . S
O301 C309 1.284 . S
Zn302 O301 1.899 . S
Zn302 O303 2.032 . S
Zn302 O306 2.086 . S
Zn302 O311 1.977 . S
O303 Zn302 2.032 . S
O303 C307 1.278 . S
C304 O305 1.203 . S
C304 O311 1.267 . S
O305 C304 1.203 . S
O306 C299 1.185 . S
O306 Zn302 2.086 . S
C307 O303 1.278 . S
C307 O308 1.211 . S
O308 C307 1.211 . S
C309 O301 1.284 . S
C309 O310 1.273 . S
O310 C309 1.273 . S
O311 Zn302 1.977 . S
O311 C304 1.267 . S
C312 O313 1.160 . S
C312 O319 1.185 . S
O313 C312 1.160 . S
O314 Zn315 1.899 . S
O314 C322 1.284 . S
Zn315 O314 1.899 . S
Zn315 O316 2.032 . S
Zn315 O319 2.086 . S
Zn315 O324 1.977 . S
O316 Zn315 2.032 . S
O316 C320 1.278 . S
C317 O318 1.203 . S
C317 O324 1.267 . S
O318 C317 1.203 . S
O319 C312 1.185 . S
O319 Zn315 2.086 . S
C320 O316 1.278 . S
C320 O321 1.211 . S
O321 C320 1.211 . S
C322 O314 1.284 . S
C322 O323 1.273 . S
O323 C322 1.273 . S
O324 Zn315 1.977 . S
O324 C317 1.267 . S
C325 O326 1.160 . S
C325 O332 1.185 . S
O326 C325 1.160 . S
O327 Zn328 1.899 . S
O327 C335 1.284 . S
Zn328 O327 1.899 . S
Zn328 O329 2.032 . S
Zn328 O332 2.086 . S
Zn328 O337 1.977 . S
O329 Zn328 2.032 . S
O329 C333 1.278 . S
C330 O331 1.203 . S
C330 O337 1.267 . S
O331 C330 1.203 . S
O332 C325 1.185 . S
O332 Zn328 2.086 . S
C333 O329 1.278 . S
C333 O334 1.211 . S
O334 C333 1.211 . S
C335 O327 1.284 . S
C335 O336 1.273 . S
O336 C335 1.273 . S
O337 Zn328 1.977 . S
O337 C330 1.267 . S
C338 O339 1.160 . S
C338 O345 1.185 . S
O339 C338 1.160 . S
O340 Zn341 1.899 . S
O340 C348 1.284 . S
Zn341 O340 1.899 . S
Zn341 O342 2.032 . S
Zn341 O345 2.086 . S
Zn341 O350 1.977 . S
O342 Zn341 2.032 . S
O342 C346 1.278 . S
C343 O344 1.203 . S
C343 O350 1.267 . S
O344 C343 1.203 . S
O345 C338 1.185 . S
O345 Zn341 2.086 . S
C346 O342 1.278 . S
C346 O347 1.211 . S
O347 C346 1.211 . S
C348 O340 1.284 . S
C348 O349 1.273 . S
O349 C348 1.273 . S
O350 Zn341 1.977 . S
O350 C343 1.267 . S
C351 O352 1.160 . S
C351 O358 1.185 . S
O352 C351 1.160 . S
O353 Zn354 1.899 . S
O353 C361 1.284 . S
Zn354 O353 1.899 . S
Zn354 O355 2.032 . S
Zn354 O358 2.086 . S
Zn354 O363 1.977 . S
O355 Zn354 2.032 . S
O355 C359 1.278 . S
C356 O357 1.203 . S
C356 O363 1.267 . S
O357 C356 1.203 . S
O358 C351 1.185 . S
O358 Zn354 2.086 . S
C359 O355 1.278 . S
C359 O360 1.211 . S
O360 C359 1.211 . S
C361 O353 1.284 . S
C361 O362 1.273 . S
O362 C361 1.273 . S
O363 Zn354 1.977 . S
O363 C356 1.267 . S
C364 O365 1.160 . S
C364 O371 1.185 . S
O365 C364 1.160 . S
O366 Zn367 1.899 . S
O366 C374 1.284 . S
Zn367 O366 1.899 . S
Zn367 O368 2.032 . S
Zn367 O371 2.086 . S
Zn367 O376 1.977 . S
O368 Zn367 2.032 . S
O368 C372 1.278 . S
C369 O370 1.203 . S
C369 O376 1.267 . S
O370 C369 1.203 . S
O371 C364 1.185 . S
O371 Zn367 2.086 . S
C372 O368 1.278 . S
C372 O373 1.211 . S
O373 C372 1.211 . S
C374 O366 1.284 . S
C374 O375 1.273 . S
O375 C374 1.273 . S
O376 Zn367 1.977 . S
O376 C369 1.267 . S
C377 O378 1.160 . S
C377 O384 1.185 . S
O378 C377 1.160 . S
O379 Zn380 1.899 . S
O379 C387 1.284 . S
Zn380 O379 1.899 . S
Zn380 O381 2.032 . S
Zn380 O384 2.086 . S
Zn380 O389 1.977 . S
O381 Zn380 2.032 . S
O381 C385 1.278 . S
C382 O383 1.203 . S
C382 O389 1.267 . S
O383 C382 1.203 . S
O384 C377 1.185 . S
O384 Zn380 2.086 . S
C385 O381 1.278 . S
C385 O386 1.211 . S
O386 C385 1.211 . S
C387 O379 1.284 . S
C387 O388 1.273 . S
O388 C387 1.273 . S
O389 Zn380 1.977 . S
O389 C382 1.267 . S
C390 O391 1.160 . S
C390 O397 1.185 . S
O391 C390 1.160 . S
O392 Zn393 1.899 . S
O392 C400 1.284 . S
Zn393 O392 1.899 . S
Zn393 O394 2.032 . S
Zn393 O397 2.086 . S
Zn393 O402 1.977 . S
O394 Zn393 2.032 . S
O394 C398 1.278 . S
C395 O396 1.203 . S
C395 O402 1.267 . S
O396 C395 1.203 . S
O397 C390 1.185 . S
O397 Zn393 2.086 . S
C398 O394 1.278 . S
C398 O399 1.211 . S
O399 C398 1.211 . S
C400 O392 1.284 . S
C400 O401 1.273 . S
O401 C400 1.273 . S
O402 Zn393 1.977 . S
O402 C395 1.267 . S
C403 O404 1.160 . S
C403 O410 1.185 . S
O404 C403 1.160 . S
O405 Zn406 1.899 . S
O405 C413 1.284 . S
Zn406 O405 1.899 . S
Zn406 O407 2.032 . S
Zn406 O410 2.086 . S
Zn406 O415 1.977 . S
O407 Zn406 2.032 . S
O407 C411 1.278 . S
C408 O409 1.203 . S
C408 O415 1.267 . S
O409 C408 1.203 . S
O410 C403 1.185 . S
O410 Zn406 2.086 . S
C411 O407 1.278 . S
C411 O412 1.211 . S
O412 C411 1.211 . S
C413 O405 1.284 . S
C413 O414 1.273 . S
O414 C413 1.273 . S
O415 Zn406 1.977 . S
O415 C408 1.267 . S
C416 O417 1.160 . S
C416 O423 1.185 . S
O417 C416 1.160 . S
O418 Zn419 1.899 . S
O418 C426 1.284 . S
Zn419 O418 1.899 . S
Zn419 O420 2.032 . S
Zn419 O423 2.086 . S
Zn419 O428 1.977 . S
O420 Zn419 2.032 . S
O420 C424 1.278 . S
C421 O422 1.203 . S
C421 O428 1.267 . S
O422 C421 1.203 . S
O423 C416 1.185 . S
O423 Zn419 2.086 . S
C424 O420 1.278 . S
C424 O425 1.211 . S
O425 C424 1.211 . S
C426 O418 1.284 . S
C426 O427 1.273 . S
O427 C426 1.273 . S
O428 Zn419 1.977 . S
O428 C421 1.267 . S
C429 O430 1.160 . S
C429 O436 1.185 . S
O430 C429 1.160 . S
O431 Zn432 1.899 . S
O431 C439 1.284 . S
Zn432 O431 1.899 . S
Zn432 O433 2.032 . S
Zn432 O436 2.086 . S
Zn432 O441 1.977 . S
O433 Zn432 2.032 . S
O433 C437 1.278 . S
C434 O435 1.203 . S
C434 O441 1.267 . S
O435 C434 1.203 . S
O436 C429 1.185 . S
O436 Zn432 2.086 . S
C437 O433 1.278 . S
C437 O438 1.211 . S
O438 C437 1.211 . S
C439 O431 1.284 . S
C439 O440 1.273 . S
O440 C439 1.273 . S
O441 Zn432 1.977 . S
O441 C434 1.267 . S
C442 O443 1.160 . S
C442 O449 1.185 . S
O443 C442 1.160 . S
O444 Zn445 1.899 . S
O444 C452 1.284 . S
Zn445 O444 1.899 . S
Zn445 O446 2.032 . S
Zn445 O449 2.086 . S
Zn445 O454 1.977 . S
O446 Zn445 2.032 . S
O446 C450 1.278 . S
C447 O448 1.203 . S
C447 O454 1.267 . S
O448 C447 1.203 . S
O449 C442 1.185 . S
O449 Zn445 2.086 . S
C450 O446 1.278 . S
C450 O451 1.211 . S
O451 C450 1.211 . S
C452 O444 1.284 . S
C452 O453 1.273 . S
O453 C452 1.273 . S
O454 Zn445 1.977 . S
O454 C447 1.267 . S
C455 O456 1.160 . S
C455 O462 1.185 . S
O456 C455 1.160 . S
O457 Zn458 1.899 . S
O457 C465 1.284 . S
Zn458 O457 1.899 . S
Zn458 O459 2.032 . S
Zn458 O462 2.086 . S
Zn458 O467 1.977 . S
O459 Zn458 2.032 . S
O459 C463 1.278 . S
C460 O461 1.203 . S
C460 O467 1.267 . S
O461 C460 1.203 . S
O462 C455 1.185 . S
O462 Zn458 2.086 . S
C463 O459 1.278 . S
C463 O464 1.211 . S
O464 C463 1.211 . S
C465 O457 1.284 . S
C465 O466 1.273 . S
O466 C465 1.273 . S
O467 Zn458 1.977 . S
O467 C460 1.267 . S
C468 C469 1.349 . S
C468 C470 1.327 . S
C468 H493 0.950 . S
C469 C468 1.349 . S
C469 C485 1.349 . S
C470 C468 1.327 . S
C470 C489 1.429 . S
C470 H494 0.950 . S
C471 C488 1.574 . S
C471 C490 1.368 . S
C471 H495 0.949 . S
H472 C476 0.952 . S
C473 C474 1.349 . S
C473 C475 1.327 . S
C473 H496 0.950 . S
C474 C473 1.349 . S
C474 C486 1.349 . S
C475 C473 1.327 . S
C475 C491 1.429 . S
C475 H497 0.950 . S
C476 H472 0.952 . S
C476 C484 1.566 1_655 S
C476 C492 1.373 . S
H477 C485 0.950 . S
H478 C483 0.950 . S
H479 C484 0.949 . S
H480 C486 0.950 . S
H481 C487 0.950 . S
H482 C488 0.949 1_655 S
C483 H478 0.950 . S
C483 C485 1.327 . S
C483 C489 1.429 . S
C484 C476 1.566 1_455 S
C484 H479 0.949 . S
C484 C490 1.368 . S
C485 C469 1.349 . S
C485 H477 0.950 . S
C485 C483 1.327 . S
C486 C474 1.349 . S
C486 H480 0.950 . S
C486 C487 1.327 . S
C487 H481 0.950 . S
C487 C486 1.327 . S
C487 C491 1.429 . S
C488 C471 1.574 . S
C488 H482 0.949 1_455 S
C488 C492 1.368 1_455 S
C489 C470 1.429 . S
C489 C483 1.429 . S
C489 C490 1.523 . S
C490 C471 1.368 . S
C490 C484 1.368 . S
C490 C489 1.523 . S
C491 C475 1.429 . S
C491 C487 1.429 . S
C491 C492 1.523 . S
C492 C476 1.373 . S
C492 C488 1.368 1_655 S
C492 C491 1.523 . S
H493 C468 0.950 . S
H494 C470 0.950 . S
H495 C471 0.949 . S
H496 C473 0.950 . S
H497 C475 0.950 . S
C498 C499 1.349 . S
C498 C500 1.327 . S
C498 H523 0.950 . S
C499 C498 1.349 . S
C499 C515 1.349 . S
C500 C498 1.327 . S
C500 C519 1.429 . S
C500 H524 0.950 . S
C501 C518 1.574 . S
C501 C520 1.368 . S
C501 H525 0.949 . S
H502 C506 0.949 . S
C503 C504 1.349 . S
C503 C505 1.327 . S
C503 H526 0.950 . S
C504 C503 1.349 . S
C504 C516 1.349 . S
C505 C503 1.327 . S
C505 C521 1.429 . S
C505 H527 0.950 . S
C506 H502 0.949 . S
C506 C514 1.574 . S
C506 C522 1.368 . S
H507 C515 0.950 . S
H508 C513 0.950 . S
H509 C514 0.949 . S
H510 C516 0.950 . S
H511 C517 0.950 . S
H512 C518 0.949 . S
C513 H508 0.950 . S
C513 C515 1.327 . S
C513 C519 1.429 . S
C514 C506 1.574 . S
C514 H509 0.949 . S
C514 C520 1.368 . S
C515 C499 1.349 . S
C515 H507 0.950 . S
C515 C513 1.327 . S
C516 C504 1.349 . S
C516 H510 0.950 . S
C516 C517 1.327 . S
C517 H511 0.950 . S
C517 C516 1.327 . S
C517 C521 1.429 . S
C518 C501 1.574 . S
C518 H512 0.949 . S
C518 C522 1.368 . S
C519 C500 1.429 . S
C519 C513 1.429 . S
C519 C520 1.523 . S
C520 C501 1.368 . S
C520 C514 1.368 . S
C520 C519 1.523 . S
C521 C505 1.429 . S
C521 C517 1.429 . S
C521 C522 1.523 . S
C522 C506 1.368 . S
C522 C518 1.368 . S
C522 C521 1.523 . S
H523 C498 0.950 . S
H524 C500 0.950 . S
H525 C501 0.949 . S
H526 C503 0.950 . S
H527 C505 0.950 . S
C528 C529 1.349 . S
C528 C530 1.327 . S
C528 H553 0.950 . S
C529 C528 1.349 . S
C529 C545 1.349 . S
C530 C528 1.327 . S
C530 C549 1.429 . S
C530 H554 0.950 . S
C531 C548 1.549 1_545 S
C531 C550 1.383 . S
C531 H555 0.959 . S
H532 C536 0.949 . S
C533 C534 1.349 . S
C533 C535 1.327 . S
C533 H556 0.950 . S
C534 C533 1.349 . S
C534 C546 1.349 . S
C535 C533 1.327 . S
C535 C551 1.429 . S
C535 H557 0.950 . S
C536 H532 0.949 . S
C536 C544 1.574 . S
C536 C552 1.368 . S
H537 C545 0.950 . S
H538 C543 0.950 . S
H539 C544 0.949 1_545 S
H540 C546 0.950 . S
H541 C547 0.950 . S
H542 C548 0.949 . S
C543 H538 0.950 . S
C543 C545 1.327 . S
C543 C549 1.429 . S
C544 C536 1.574 . S
C544 H539 0.949 1_565 S
C544 C550 1.368 1_565 S
C545 C529 1.349 . S
C545 H537 0.950 . S
C545 C543 1.327 . S
C546 C534 1.349 . S
C546 H540 0.950 . S
C546 C547 1.327 . S
C547 H541 0.950 . S
C547 C546 1.327 . S
C547 C551 1.429 . S
C548 C531 1.549 1_565 S
C548 H542 0.949 . S
C548 C552 1.368 . S
C549 C530 1.429 . S
C549 C543 1.429 . S
C549 C550 1.523 . S
C550 C531 1.383 . S
C550 C544 1.368 1_545 S
C550 C549 1.523 . S
C551 C535 1.429 . S
C551 C547 1.429 . S
C551 C552 1.523 . S
C552 C536 1.368 . S
C552 C548 1.368 . S
C552 C551 1.523 . S
H553 C528 0.950 . S
H554 C530 0.950 . S
H555 C531 0.959 . S
H556 C533 0.950 . S
H557 C535 0.950 . S
C558 C559 1.349 . S
C558 C560 1.327 . S
C558 H583 0.950 . S
C559 C558 1.349 . S
C559 C575 1.349 . S
C560 C558 1.327 . S
C560 C579 1.429 . S
C560 H584 0.950 . S
C561 C578 1.593 . S
C561 C580 1.368 . S
C561 H585 0.949 . S
H562 C566 0.949 1_565 S
C563 C564 1.349 . S
C563 C565 1.327 . S
C563 H586 0.950 . S
C564 C563 1.349 . S
C564 C576 1.349 . S
C565 C563 1.327 . S
C565 C581 1.429 . S
C565 H587 0.950 . S
C566 H562 0.949 1_545 S
C566 C574 1.574 . S
C566 C582 1.368 1_545 S
H567 C575 0.950 . S
H568 C573 0.950 . S
H569 C574 0.949 . S
H570 C576 0.950 . S
H571 C577 0.950 . S
H572 C578 0.944 1_565 S
C573 H568 0.950 . S
C573 C575 1.327 . S
C573 C579 1.429 . S
C574 C566 1.574 . S
C574 H569 0.949 . S
C574 C580 1.368 . S
C575 C559 1.349 . S
C575 H567 0.950 . S
C575 C573 1.327 . S
C576 C564 1.349 . S
C576 H570 0.950 . S
C576 C577 1.327 . S
C577 H571 0.950 . S
C577 C576 1.327 . S
C577 C581 1.429 . S
C578 C561 1.593 . S
C578 H572 0.944 1_545 S
C578 C582 1.354 1_545 S
C579 C560 1.429 . S
C579 C573 1.429 . S
C579 C580 1.523 . S
C580 C561 1.368 . S
C580 C574 1.368 . S
C580 C579 1.523 . S
C581 C565 1.429 . S
C581 C577 1.429 . S
C581 C582 1.523 . S
C582 C566 1.368 1_565 S
C582 C578 1.354 1_565 S
C582 C581 1.523 . S
H583 C558 0.950 . S
H584 C560 0.950 . S
H585 C561 0.949 . S
H586 C563 0.950 . S
H587 C565 0.950 . S
C588 C589 1.349 . S
C588 C590 1.327 . S
C588 H613 0.950 . S
C589 C588 1.349 . S
C589 C605 1.349 . S
C590 C588 1.327 . S
C590 C609 1.429 . S
C590 H614 0.950 . S
C591 C608 1.574 . S
C591 C610 1.368 . S
C591 H615 0.949 . S
H592 C596 0.938 1_455 S
C593 C594 1.349 . S
C593 C595 1.327 . S
C593 H616 0.950 . S
C594 C593 1.349 . S
C594 C606 1.349 . S
C595 C593 1.327 . S
C595 C611 1.429 . S
C595 H617 0.950 . S
C596 H592 0.938 1_655 S
C596 C604 1.590 . S
C596 C612 1.365 1_655 S
H597 C605 0.950 . S
H598 C603 0.950 . S
H599 C604 0.949 . S
H600 C606 0.950 . S
H601 C607 0.950 . S
H602 C608 0.949 1_455 S
C603 H598 0.950 . S
C603 C605 1.327 . S
C603 C609 1.429 . S
C604 C596 1.590 . S
C604 H599 0.949 . S
C604 C610 1.368 . S
C605 C589 1.349 . S
C605 H597 0.950 . S
C605 C603 1.327 . S
C606 C594 1.349 . S
C606 H600 0.950 . S
C606 C607 1.327 . S
C607 H601 0.950 . S
C607 C606 1.327 . S
C607 C611 1.429 . S
C608 C591 1.574 . S
C608 H602 0.949 1_655 S
C608 C612 1.368 1_655 S
C609 C590 1.429 . S
C609 C603 1.429 . S
C609 C610 1.523 . S
C610 C591 1.368 . S
C610 C604 1.368 . S
C610 C609 1.523 . S
C611 C595 1.429 . S
C611 C607 1.429 . S
C611 C612 1.523 . S
C612 C596 1.365 1_455 S
C612 C608 1.368 1_455 S
C612 C611 1.523 . S
H613 C588 0.950 . S
H614 C590 0.950 . S
H615 C591 0.949 . S
H616 C593 0.950 . S
H617 C595 0.950 . S
C618 C619 1.349 . S
C618 C620 1.327 . S
C618 H643 0.950 . S
C619 C618 1.349 . S
C619 C635 1.349 . S
C620 C618 1.327 . S
C620 C639 1.429 . S
C620 H644 0.950 . S
C621 C638 1.574 . S
C621 C640 1.368 . S
C621 H645 0.949 . S
H622 C626 0.949 . S
C623 C624 1.349 . S
C623 C625 1.327 . S
C623 H646 0.950 . S
C624 C623 1.349 . S
C624 C636 1.349 . S
C625 C623 1.327 . S
C625 C641 1.429 . S
C625 H647 0.950 . S
C626 H622 0.949 . S
C626 C634 1.574 . S
C626 C642 1.368 . S
H627 C635 0.950 . S
H628 C633 0.950 . S
H629 C634 0.949 . S
H630 C636 0.950 . S
H631 C637 0.950 . S
H632 C638 0.949 . S
C633 H628 0.950 . S
C633 C635 1.327 . S
C633 C639 1.429 . S
C634 C626 1.574 . S
C634 H629 0.949 . S
C634 C640 1.368 . S
C635 C619 1.349 . S
C635 H627 0.950 . S
C635 C633 1.327 . S
C636 C624 1.349 . S
C636 H630 0.950 . S
C636 C637 1.327 . S
C637 H631 0.950 . S
C637 C636 1.327 . S
C637 C641 1.429 . S
C638 C621 1.574 . S
C638 H632 0.949 . S
C638 C642 1.368 . S
C639 C620 1.429 . S
C639 C633 1.429 . S
C639 C640 1.523 . S
C640 C621 1.368 . S
C640 C634 1.368 . S
C640 C639 1.523 . S
C641 C625 1.429 . S
C641 C637 1.429 . S
C641 C642 1.523 . S
C642 C626 1.368 . S
C642 C638 1.368 . S
C642 C641 1.523 . S
H643 C618 0.950 . S
H644 C620 0.950 . S
H645 C621 0.949 . S
H646 C623 0.950 . S
H647 C625 0.950 . S
C648 C649 1.349 . S
C648 C650 1.327 . S
C648 H673 0.950 . S
C649 C648 1.349 . S
C649 C665 1.349 . S
C650 C648 1.327 . S
C650 C669 1.429 . S
C650 H674 0.950 . S
C651 C668 1.574 . S
C651 C670 1.368 . S
C651 H675 0.949 . S
H652 C656 0.949 1_455 S
C653 C654 1.349 . S
C653 C655 1.327 . S
C653 H676 0.950 . S
C654 C653 1.349 . S
C654 C666 1.349 . S
C655 C653 1.327 . S
C655 C671 1.429 . S
C655 H677 0.950 . S
C656 H652 0.949 1_655 S
C656 C664 1.574 . S
C656 C672 1.368 1_655 S
H657 C665 0.950 . S
H658 C663 0.950 . S
H659 C664 0.949 . S
H660 C666 0.950 . S
H661 C667 0.950 . S
H662 C668 0.949 1_455 S
C663 H658 0.950 . S
C663 C665 1.327 . S
C663 C669 1.429 . S
C664 C656 1.574 . S
C664 H659 0.949 . S
C664 C670 1.368 . S
C665 C649 1.349 . S
C665 H657 0.950 . S
C665 C663 1.327 . S
C666 C654 1.349 . S
C666 H660 0.950 . S
C666 C667 1.327 . S
C667 H661 0.950 . S
C667 C666 1.327 . S
C667 C671 1.429 . S
C668 C651 1.574 . S
C668 H662 0.949 1_655 S
C668 C672 1.368 1_655 S
C669 C650 1.429 . S
C669 C663 1.429 . S
C669 C670 1.523 . S
C670 C651 1.368 . S
C670 C664 1.368 . S
C670 C669 1.523 . S
C671 C655 1.429 . S
C671 C667 1.429 . S
C671 C672 1.523 . S
C672 C656 1.368 1_455 S
C672 C668 1.368 1_455 S
C672 C671 1.523 . S
H673 C648 0.950 . S
H674 C650 0.950 . S
H675 C651 0.949 . S
H676 C653 0.950 . S
H677 C655 0.950 . S
C678 C679 1.349 . S
C678 C680 1.327 . S
C678 H703 0.950 . S
C679 C678 1.349 . S
C679 C695 1.349 . S
C680 C678 1.327 . S
C680 C699 1.429 . S
C680 H704 0.950 . S
C681 C698 1.574 . S
C681 C700 1.368 . S
C681 H705 0.949 . S
H682 C686 0.949 . S
C683 C684 1.349 . S
C683 C685 1.327 . S
C683 H706 0.950 . S
C684 C683 1.349 . S
C684 C696 1.349 . S
C685 C683 1.327 . S
C685 C701 1.429 . S
C685 H707 0.950 . S
C686 H682 0.949 . S
C686 C694 1.574 . S
C686 C702 1.368 . S
H687 C695 0.950 . S
H688 C693 0.950 . S
H689 C694 0.949 . S
H690 C696 0.950 . S
H691 C697 0.950 . S
H692 C698 0.949 . S
C693 H688 0.950 . S
C693 C695 1.327 . S
C693 C699 1.429 . S
C694 C686 1.574 . S
C694 H689 0.949 . S
C694 C700 1.368 . S
C695 C679 1.349 . S
C695 H687 0.950 . S
C695 C693 1.327 . S
C696 C684 1.349 . S
C696 H690 0.950 . S
C696 C697 1.327 . S
C697 H691 0.950 . S
C697 C696 1.327 . S
C697 C701 1.429 . S
C698 C681 1.574 . S
C698 H692 0.949 . S
C698 C702 1.368 . S
C699 C680 1.429 . S
C699 C693 1.429 . S
C699 C700 1.523 . S
C700 C681 1.368 . S
C700 C694 1.368 . S
C700 C699 1.523 . S
C701 C685 1.429 . S
C701 C697 1.429 . S
C701 C702 1.523 . S
C702 C686 1.368 . S
C702 C698 1.368 . S
C702 C701 1.523 . S
H703 C678 0.950 . S
H704 C680 0.950 . S
H705 C681 0.949 . S
H706 C683 0.950 . S
H707 C685 0.950 . S
C708 C709 1.349 . S
C708 C710 1.327 . S
C708 H733 0.950 . S
C709 C708 1.349 . S
C709 C725 1.349 . S
C710 C708 1.327 . S
C710 C729 1.429 . S
C710 H734 0.950 . S
C711 C728 1.574 . S
C711 C730 1.368 1_545 S
C711 H735 0.949 1_545 S
H712 C716 0.949 . S
C713 C714 1.349 . S
C713 C715 1.327 . S
C713 H736 0.950 . S
C714 C713 1.349 . S
C714 C726 1.349 . S
C715 C713 1.327 . S
C715 C731 1.429 . S
C715 H737 0.950 . S
C716 H712 0.949 . S
C716 C724 1.574 . S
C716 C732 1.368 . S
H717 C725 0.950 . S
H718 C723 0.950 . S
H719 C724 0.949 1_565 S
H720 C726 0.950 . S
H721 C727 0.950 . S
H722 C728 0.949 . S
C723 H718 0.950 . S
C723 C725 1.327 . S
C723 C729 1.429 . S
C724 C716 1.574 . S
C724 H719 0.949 1_545 S
C724 C730 1.368 1_545 S
C725 C709 1.349 . S
C725 H717 0.950 . S
C725 C723 1.327 . S
C726 C714 1.349 . S
C726 H720 0.950 . S
C726 C727 1.327 . S
C727 H721 0.950 . S
C727 C726 1.327 . S
C727 C731 1.429 . S
C728 C711 1.574 . S
C728 H722 0.949 . S
C728 C732 1.368 . S
C729 C710 1.429 . S
C729 C723 1.429 . S
C729 C730 1.523 . S
C730 C711 1.368 1_565 S
C730 C724 1.368 1_565 S
C730 C729 1.523 . S
C731 C715 1.429 . S
C731 C727 1.429 . S
C731 C732 1.523 . S
C732 C716 1.368 . S
C732 C728 1.368 . S
C732 C731 1.523 . S
H733 C708 0.950 . S
H734 C710 0.950 . S
H735 C711 0.949 1_565 S
H736 C713 0.950 . S
H737 C715 0.950 . S
C738 C739 1.349 . S
C738 C740 1.327 . S
C738 H763 0.950 . S
C739 C738 1.349 . S
C739 C755 1.349 . S
C740 C738 1.327 . S
C740 C759 1.429 . S
C740 H764 0.950 . S
C741 C758 1.574 . S
C741 C760 1.368 1_565 S
C741 H765 0.949 1_565 S
H742 C746 0.949 . S
C743 C744 1.349 . S
C743 C745 1.327 . S
C743 H766 0.950 . S
C744 C743 1.349 . S
C744 C756 1.349 . S
C745 C743 1.327 . S
C745 C761 1.429 . S
C745 H767 0.950 . S
C746 H742 0.949 . S
C746 C754 1.574 . S
C746 C762 1.368 . S
H747 C755 0.950 . S
H748 C753 0.950 . S
H749 C754 0.949 1_545 S
H750 C756 0.950 . S
H751 C757 0.950 . S
H752 C758 0.949 . S
C753 H748 0.950 . S
C753 C755 1.327 . S
C753 C759 1.429 . S
C754 C746 1.574 . S
C754 H749 0.949 1_565 S
C754 C760 1.368 1_565 S
C755 C739 1.349 . S
C755 H747 0.950 . S
C755 C753 1.327 . S
C756 C744 1.349 . S
C756 H750 0.950 . S
C756 C757 1.327 . S
C757 H751 0.950 . S
C757 C756 1.327 . S
C757 C761 1.429 . S
C758 C741 1.574 . S
C758 H752 0.949 . S
C758 C762 1.368 . S
C759 C740 1.429 . S
C759 C753 1.429 . S
C759 C760 1.523 . S
C760 C741 1.368 1_545 S
C760 C754 1.368 1_545 S
C760 C759 1.523 . S
C761 C745 1.429 . S
C761 C757 1.429 . S
C761 C762 1.523 . S
C762 C746 1.368 . S
C762 C758 1.368 . S
C762 C761 1.523 . S
H763 C738 0.950 . S
H764 C740 0.950 . S
H765 C741 0.949 1_545 S
H766 C743 0.950 . S
H767 C745 0.950 . S
C768 C769 1.349 . S
C768 C770 1.327 . S
C768 H793 0.950 . S
C769 C768 1.349 . S
C769 C785 1.349 . S
C770 C768 1.327 . S
C770 C789 1.429 . S
C770 H794 0.950 . S
C771 C788 1.610 . S
C771 C790 1.368 . S
C771 H795 0.949 . S
H772 C776 0.949 1_655 S
C773 C774 1.349 . S
C773 C775 1.327 . S
C773 H796 0.950 . S
C774 C773 1.349 . S
C774 C786 1.349 . S
C775 C773 1.327 . S
C775 C791 1.429 . S
C775 H797 0.950 . S
C776 H772 0.949 1_455 S
C776 C784 1.574 . S
C776 C792 1.368 1_455 S
H777 C785 0.950 . S
H778 C783 0.950 . S
H779 C784 0.949 . S
H780 C786 0.950 . S
H781 C787 0.950 . S
H782 C788 0.926 1_655 S
C783 H778 0.950 . S
C783 C785 1.327 . S
C783 C789 1.429 . S
C784 C776 1.574 . S
C784 H779 0.949 . S
C784 C790 1.368 . S
C785 C769 1.349 . S
C785 H777 0.950 . S
C785 C783 1.327 . S
C786 C774 1.349 . S
C786 H780 0.950 . S
C786 C787 1.327 . S
C787 H781 0.950 . S
C787 C786 1.327 . S
C787 C791 1.429 . S
C788 C771 1.610 . S
C788 H782 0.926 1_455 S
C788 C792 1.359 1_455 S
C789 C770 1.429 . S
C789 C783 1.429 . S
C789 C790 1.523 . S
C790 C771 1.368 . S
C790 C784 1.368 . S
C790 C789 1.523 . S
C791 C775 1.429 . S
C791 C787 1.429 . S
C791 C792 1.523 . S
C792 C776 1.368 1_655 S
C792 C788 1.359 1_655 S
C792 C791 1.523 . S
H793 C768 0.950 . S
H794 C770 0.950 . S
H795 C771 0.949 . S
H796 C773 0.950 . S
H797 C775 0.950 . S
C798 C799 1.349 . S
C798 C800 1.327 . S
C798 H823 0.950 . S
C799 C798 1.349 . S
C799 C815 1.349 . S
C800 C798 1.327 . S
C800 C819 1.429 . S
C800 H824 0.950 . S
C801 C818 1.574 . S
C801 C820 1.368 . S
C801 H825 0.949 . S
H802 C806 0.949 . S
C803 C804 1.349 . S
C803 C805 1.327 . S
C803 H826 0.950 . S
C804 C803 1.349 . S
C804 C816 1.349 . S
C805 C803 1.327 . S
C805 C821 1.429 . S
C805 H827 0.950 . S
C806 H802 0.949 . S
C806 C814 1.574 . S
C806 C822 1.368 . S
H807 C815 0.950 . S
H808 C813 0.950 . S
H809 C814 0.949 . S
H810 C816 0.950 . S
H811 C817 0.950 . S
H812 C818 0.949 . S
C813 H808 0.950 . S
C813 C815 1.327 . S
C813 C819 1.429 . S
C814 C806 1.574 . S
C814 H809 0.949 . S
C814 C820 1.368 . S
C815 C799 1.349 . S
C815 H807 0.950 . S
C815 C813 1.327 . S
C816 C804 1.349 . S
C816 H810 0.950 . S
C816 C817 1.327 . S
C817 H811 0.950 . S
C817 C816 1.327 . S
C817 C821 1.429 . S
C818 C801 1.574 . S
C818 H812 0.949 . S
C818 C822 1.368 . S
C819 C800 1.429 . S
C819 C813 1.429 . S
C819 C820 1.523 . S
C820 C801 1.368 . S
C820 C814 1.368 . S
C820 C819 1.523 . S
C821 C805 1.429 . S
C821 C817 1.429 . S
C821 C822 1.523 . S
C822 C806 1.368 . S
C822 C818 1.368 . S
C822 C821 1.523 . S
H823 C798 0.950 . S
H824 C800 0.950 . S
H825 C801 0.949 . S
H826 C803 0.950 . S
H827 C805 0.950 . S
C828 C829 1.349 . S
C828 C830 1.327 . S
C828 H853 0.950 . S
C829 C828 1.349 . S
C829 C845 1.349 . S
C830 C828 1.327 . S
C830 C849 1.429 . S
C830 H854 0.950 . S
C831 C848 1.574 . S
C831 C850 1.368 . S
C831 H855 0.949 . S
H832 C836 0.949 . S
C833 C834 1.349 . S
C833 C835 1.327 . S
C833 H856 0.950 . S
C834 C833 1.349 . S
C834 C846 1.349 . S
C835 C833 1.327 . S
C835 C851 1.429 . S
C835 H857 0.950 . S
C836 H832 0.949 . S
C836 C844 1.574 . S
C836 C852 1.368 . S
H837 C845 0.950 . S
H838 C843 0.950 . S
H839 C844 0.949 . S
H840 C846 0.950 . S
H841 C847 0.950 . S
H842 C848 0.949 . S
C843 H838 0.950 . S
C843 C845 1.327 . S
C843 C849 1.429 . S
C844 C836 1.574 . S
C844 H839 0.949 . S
C844 C850 1.368 . S
C845 C829 1.349 . S
C845 H837 0.950 . S
C845 C843 1.327 . S
C846 C834 1.349 . S
C846 H840 0.950 . S
C846 C847 1.327 . S
C847 H841 0.950 . S
C847 C846 1.327 . S
C847 C851 1.429 . S
C848 C831 1.574 . S
C848 H842 0.949 . S
C848 C852 1.368 . S
C849 C830 1.429 . S
C849 C843 1.429 . S
C849 C850 1.523 . S
C850 C831 1.368 . S
C850 C844 1.368 . S
C850 C849 1.523 . S
C851 C835 1.429 . S
C851 C847 1.429 . S
C851 C852 1.523 . S
C852 C836 1.368 . S
C852 C848 1.368 . S
C852 C851 1.523 . S
H853 C828 0.950 . S
H854 C830 0.950 . S
H855 C831 0.949 . S
H856 C833 0.950 . S
H857 C835 0.950 . S
C858 C859 1.349 . S
C858 C860 1.327 . S
C858 H883 0.950 . S
C859 C858 1.349 . S
C859 C875 1.349 . S
C860 C858 1.327 . S
C860 C879 1.429 . S
C860 H884 0.950 . S
C861 C878 1.574 . S
C861 C880 1.368 . S
C861 H885 0.949 . S
H862 C866 0.949 . S
C863 C864 1.349 . S
C863 C865 1.327 . S
C863 H886 0.950 . S
C864 C863 1.349 . S
C864 C876 1.349 . S
C865 C863 1.327 . S
C865 C881 1.429 . S
C865 H887 0.950 . S
C866 H862 0.949 . S
C866 C874 1.574 . S
C866 C882 1.368 . S
H867 C875 0.950 . S
H868 C873 0.950 . S
H869 C874 0.949 . S
H870 C876 0.950 . S
H871 C877 0.950 . S
H872 C878 0.949 . S
C873 H868 0.950 . S
C873 C875 1.327 . S
C873 C879 1.429 . S
C874 C866 1.574 . S
C874 H869 0.949 . S
C874 C880 1.368 . S
C875 C859 1.349 . S
C875 H867 0.950 . S
C875 C873 1.327 . S
C876 C864 1.349 . S
C876 H870 0.950 . S
C876 C877 1.327 . S
C877 H871 0.950 . S
C877 C876 1.327 . S
C877 C881 1.429 . S
C878 C861 1.574 . S
C878 H872 0.949 . S
C878 C882 1.368 . S
C879 C860 1.429 . S
C879 C873 1.429 . S
C879 C880 1.523 . S
C880 C861 1.368 . S
C880 C874 1.368 . S
C880 C879 1.523 . S
C881 C865 1.429 . S
C881 C877 1.429 . S
C881 C882 1.523 . S
C882 C866 1.368 . S
C882 C878 1.368 . S
C882 C881 1.523 . S
H883 C858 0.950 . S
H884 C860 0.950 . S
H885 C861 0.949 . S
H886 C863 0.950 . S
H887 C865 0.950 . S
C888 C889 1.349 . S
C888 C890 1.327 . S
C888 H913 0.950 . S
C889 C888 1.349 . S
C889 C905 1.349 . S
C890 C888 1.327 . S
C890 C909 1.429 . S
C890 H914 0.950 . S
C891 C908 1.574 . S
C891 C910 1.368 . S
C891 H915 0.949 . S
H892 C896 0.949 . S
C893 C894 1.349 . S
C893 C895 1.327 . S
C893 H916 0.950 . S
C894 C893 1.349 . S
C894 C906 1.349 . S
C895 C893 1.327 . S
C895 C911 1.429 . S
C895 H917 0.950 . S
C896 H892 0.949 . S
C896 C904 1.574 . S
C896 C912 1.368 . S
H897 C905 0.950 . S
H898 C903 0.950 . S
H899 C904 0.949 . S
H900 C906 0.950 . S
H901 C907 0.950 . S
H902 C908 0.949 . S
C903 H898 0.950 . S
C903 C905 1.327 . S
C903 C909 1.429 . S
C904 C896 1.574 . S
C904 H899 0.949 . S
C904 C910 1.368 . S
C905 C889 1.349 . S
C905 H897 0.950 . S
C905 C903 1.327 . S
C906 C894 1.349 . S
C906 H900 0.950 . S
C906 C907 1.327 . S
C907 H901 0.950 . S
C907 C906 1.327 . S
C907 C911 1.429 . S
C908 C891 1.574 . S
C908 H902 0.949 . S
C908 C912 1.368 . S
C909 C890 1.429 . S
C909 C903 1.429 . S
C909 C910 1.523 . S
C910 C891 1.368 . S
C910 C904 1.368 . S
C910 C909 1.523 . S
C911 C895 1.429 . S
C911 C907 1.429 . S
C911 C912 1.523 . S
C912 C896 1.368 . S
C912 C908 1.368 . S
C912 C911 1.523 . S
H913 C888 0.950 . S
H914 C890 0.950 . S
H915 C891 0.949 . S
H916 C893 0.950 . S
H917 C895 0.950 . S
C918 C919 1.349 . S
C918 C920 1.327 . S
C918 H943 0.950 . S
C919 C918 1.349 . S
C919 C935 1.349 . S
C920 C918 1.327 . S
C920 C939 1.429 . S
C920 H944 0.950 . S
C921 C938 1.574 . S
C921 C940 1.368 . S
C921 H945 0.949 . S
H922 C926 0.949 . S
C923 C924 1.349 . S
C923 C925 1.327 . S
C923 H946 0.950 . S
C924 C923 1.349 . S
C924 C936 1.349 . S
C925 C923 1.327 . S
C925 C941 1.429 . S
C925 H947 0.950 . S
C926 H922 0.949 . S
C926 C934 1.574 . S
C926 C942 1.368 . S
H927 C935 0.950 . S
H928 C933 0.950 . S
H929 C934 0.949 . S
H930 C936 0.950 . S
H931 C937 0.950 . S
H932 C938 0.949 . S
C933 H928 0.950 . S
C933 C935 1.327 . S
C933 C939 1.429 . S
C934 C926 1.574 . S
C934 H929 0.949 . S
C934 C940 1.368 . S
C935 C919 1.349 . S
C935 H927 0.950 . S
C935 C933 1.327 . S
C936 C924 1.349 . S
C936 H930 0.950 . S
C936 C937 1.327 . S
C937 H931 0.950 . S
C937 C936 1.327 . S
C937 C941 1.429 . S
C938 C921 1.574 . S
C938 H932 0.949 . S
C938 C942 1.368 . S
C939 C920 1.429 . S
C939 C933 1.429 . S
C939 C940 1.523 . S
C940 C921 1.368 . S
C940 C934 1.368 . S
C940 C939 1.523 . S
C941 C925 1.429 . S
C941 C937 1.429 . S
C941 C942 1.523 . S
C942 C926 1.368 . S
C942 C938 1.368 . S
C942 C941 1.523 . S
H943 C918 0.950 . S
H944 C920 0.950 . S
H945 C921 0.949 . S
H946 C923 0.950 . S
H947 C925 0.950 . S
C948 C949 1.349 . S
C948 C950 1.327 . S
C948 H973 0.950 . S
C949 C948 1.349 . S
C949 C965 1.349 . S
C950 C948 1.327 . S
C950 C969 1.429 . S
C950 H974 0.950 . S
C951 C968 1.574 . S
C951 C970 1.368 . S
C951 H975 0.949 . S
H952 C956 0.949 . S
C953 C954 1.349 . S
C953 C955 1.327 . S
C953 H976 0.950 . S
C954 C953 1.349 . S
C954 C966 1.349 . S
C955 C953 1.327 . S
C955 C971 1.429 . S
C955 H977 0.950 . S
C956 H952 0.949 . S
C956 C964 1.574 . S
C956 C972 1.368 . S
H957 C965 0.950 . S
H958 C963 0.950 . S
H959 C964 0.949 . S
H960 C966 0.950 . S
H961 C967 0.950 . S
H962 C968 0.949 . S
C963 H958 0.950 . S
C963 C965 1.327 . S
C963 C969 1.429 . S
C964 C956 1.574 . S
C964 H959 0.949 . S
C964 C970 1.368 . S
C965 C949 1.349 . S
C965 H957 0.950 . S
C965 C963 1.327 . S
C966 C954 1.349 . S
C966 H960 0.950 . S
C966 C967 1.327 . S
C967 H961 0.950 . S
C967 C966 1.327 . S
C967 C971 1.429 . S
C968 C951 1.574 . S
C968 H962 0.949 . S
C968 C972 1.368 . S
C969 C950 1.429 . S
C969 C963 1.429 . S
C969 C970 1.523 . S
C970 C951 1.368 . S
C970 C964 1.368 . S
C970 C969 1.523 . S
C971 C955 1.429 . S
C971 C967 1.429 . S
C971 C972 1.523 . S
C972 C956 1.368 . S
C972 C968 1.368 . S
C972 C971 1.523 . S
H973 C948 0.950 . S
H974 C950 0.950 . S
H975 C951 0.949 . S
H976 C953 0.950 . S
H977 C955 0.950 . S
C978 C979 1.349 . S
C978 C980 1.327 . S
C978 H1003 0.950 . S
C979 C978 1.349 . S
C979 C995 1.349 . S
C980 C978 1.327 . S
C980 C999 1.429 . S
C980 H1004 0.950 . S
C981 C998 1.574 . S
C981 C1000 1.368 . S
C981 H1005 0.949 . S
H982 C986 0.949 . S
C983 C984 1.349 . S
C983 C985 1.327 . S
C983 H1006 0.950 . S
C984 C983 1.349 . S
C984 C996 1.349 . S
C985 C983 1.327 . S
C985 C1001 1.429 . S
C985 H1007 0.950 . S
C986 H982 0.949 . S
C986 C994 1.574 . S
C986 C1002 1.368 . S
H987 C995 0.950 . S
H988 C993 0.950 . S
H989 C994 0.949 . S
H990 C996 0.950 . S
H991 C997 0.950 . S
H992 C998 0.949 . S
C993 H988 0.950 . S
C993 C995 1.327 . S
C993 C999 1.429 . S
C994 C986 1.574 . S
C994 H989 0.949 . S
C994 C1000 1.368 . S
C995 C979 1.349 . S
C995 H987 0.950 . S
C995 C993 1.327 . S
C996 C984 1.349 . S
C996 H990 0.950 . S
C996 C997 1.327 . S
C997 H991 0.950 . S
C997 C996 1.327 . S
C997 C1001 1.429 . S
C998 C981 1.574 . S
C998 H992 0.949 . S
C998 C1002 1.368 . S
C999 C980 1.429 . S
C999 C993 1.429 . S
C999 C1000 1.523 . S
C1000 C981 1.368 . S
C1000 C994 1.368 . S
C1000 C999 1.523 . S
C1001 C985 1.429 . S
C1001 C997 1.429 . S
C1001 C1002 1.523 . S
C1002 C986 1.368 . S
C1002 C998 1.368 . S
C1002 C1001 1.523 . S
H1003 C978 0.950 . S
H1004 C980 0.950 . S
H1005 C981 0.949 . S
H1006 C983 0.950 . S
H1007 C985 0.950 . S
C1008 C1009 1.349 . S
C1008 C1010 1.327 . S
C1008 H1033 0.950 . S
C1009 C1008 1.349 . S
C1009 C1025 1.349 . S
C1010 C1008 1.327 . S
C1010 C1029 1.429 . S
C1010 H1034 0.950 . S
C1011 C1028 1.574 . S
C1011 C1030 1.368 . S
C1011 H1035 0.949 . S
H1012 C1016 0.949 . S
C1013 C1014 1.349 . S
C1013 C1015 1.327 . S
C1013 H1036 0.950 . S
C1014 C1013 1.349 . S
C1014 C1026 1.349 . S
C1015 C1013 1.327 . S
C1015 C1031 1.429 . S
C1015 H1037 0.950 . S
C1016 H1012 0.949 . S
C1016 C1024 1.574 . S
C1016 C1032 1.368 . S
H1017 C1025 0.950 . S
H1018 C1023 0.950 . S
H1019 C1024 0.949 . S
H1020 C1026 0.950 . S
H1021 C1027 0.950 . S
H1022 C1028 0.949 . S
C1023 H1018 0.950 . S
C1023 C1025 1.327 . S
C1023 C1029 1.429 . S
C1024 C1016 1.574 . S
C1024 H1019 0.949 . S
C1024 C1030 1.368 . S
C1025 C1009 1.349 . S
C1025 H1017 0.950 . S
C1025 C1023 1.327 . S
C1026 C1014 1.349 . S
C1026 H1020 0.950 . S
C1026 C1027 1.327 . S
C1027 H1021 0.950 . S
C1027 C1026 1.327 . S
C1027 C1031 1.429 . S
C1028 C1011 1.574 . S
C1028 H1022 0.949 . S
C1028 C1032 1.368 . S
C1029 C1010 1.429 . S
C1029 C1023 1.429 . S
C1029 C1030 1.523 . S
C1030 C1011 1.368 . S
C1030 C1024 1.368 . S
C1030 C1029 1.523 . S
C1031 C1015 1.429 . S
C1031 C1027 1.429 . S
C1031 C1032 1.523 . S
C1032 C1016 1.368 . S
C1032 C1028 1.368 . S
C1032 C1031 1.523 . S
H1033 C1008 0.950 . S
H1034 C1010 0.950 . S
H1035 C1011 0.949 . S
H1036 C1013 0.950 . S
H1037 C1015 0.950 . S
C1038 C1039 1.349 . S
C1038 C1040 1.327 . S
C1038 H1063 0.950 . S
C1039 C1038 1.349 . S
C1039 C1055 1.349 . S
C1040 C1038 1.327 . S
C1040 C1059 1.429 . S
C1040 H1064 0.950 . S
C1041 C1058 1.574 . S
C1041 C1060 1.368 . S
C1041 H1065 0.949 . S
H1042 C1046 0.949 . S
C1043 C1044 1.349 . S
C1043 C1045 1.327 . S
C1043 H1066 0.950 . S
C1044 C1043 1.349 . S
C1044 C1056 1.349 . S
C1045 C1043 1.327 . S
C1045 C1061 1.429 . S
C1045 H1067 0.950 . S
C1046 H1042 0.949 . S
C1046 C1054 1.574 . S
C1046 C1062 1.368 . S
H1047 C1055 0.950 . S
H1048 C1053 0.950 . S
H1049 C1054 0.949 . S
H1050 C1056 0.950 . S
H1051 C1057 0.950 . S
H1052 C1058 0.949 . S
C1053 H1048 0.950 . S
C1053 C1055 1.327 . S
C1053 C1059 1.429 . S
C1054 C1046 1.574 . S
C1054 H1049 0.949 . S
C1054 C1060 1.368 . S
C1055 C1039 1.349 . S
C1055 H1047 0.950 . S
C1055 C1053 1.327 . S
C1056 C1044 1.349 . S
C1056 H1050 0.950 . S
C1056 C1057 1.327 . S
C1057 H1051 0.950 . S
C1057 C1056 1.327 . S
C1057 C1061 1.429 . S
C1058 C1041 1.574 . S
C1058 H1052 0.949 . S
C1058 C1062 1.368 . S
C1059 C1040 1.429 . S
C1059 C1053 1.429 . S
C1059 C1060 1.523 . S
C1060 C1041 1.368 . S
C1060 C1054 1.368 . S
C1060 C1059 1.523 . S
C1061 C1045 1.429 . S
C1061 C1057 1.429 . S
C1061 C1062 1.523 . S
C1062 C1046 1.368 . S
C1062 C1058 1.368 . S
C1062 C1061 1.523 . S
H1063 C1038 0.950 . S
H1064 C1040 0.950 . S
H1065 C1041 0.949 . S
H1066 C1043 0.950 . S
H1067 C1045 0.950 . S
C1068 C1069 1.349 . S
C1068 C1070 1.327 . S
C1068 H1093 0.950 . S
C1069 C1068 1.349 . S
C1069 C1085 1.349 . S
C1070 C1068 1.327 . S
C1070 C1089 1.429 . S
C1070 H1094 0.950 . S
C1071 C1088 1.574 . S
C1071 C1090 1.368 . S
C1071 H1095 0.949 . S
H1072 C1076 0.949 . S
C1073 C1074 1.349 . S
C1073 C1075 1.327 . S
C1073 H1096 0.950 . S
C1074 C1073 1.349 . S
C1074 C1086 1.349 . S
C1075 C1073 1.327 . S
C1075 C1091 1.429 . S
C1075 H1097 0.950 . S
C1076 H1072 0.949 . S
C1076 C1084 1.574 . S
C1076 C1092 1.368 . S
H1077 C1085 0.950 . S
H1078 C1083 0.950 . S
H1079 C1084 0.949 . S
H1080 C1086 0.950 . S
H1081 C1087 0.950 . S
H1082 C1088 0.949 . S
C1083 H1078 0.950 . S
C1083 C1085 1.327 . S
C1083 C1089 1.429 . S
C1084 C1076 1.574 . S
C1084 H1079 0.949 . S
C1084 C1090 1.368 . S
C1085 C1069 1.349 . S
C1085 H1077 0.950 . S
C1085 C1083 1.327 . S
C1086 C1074 1.349 . S
C1086 H1080 0.950 . S
C1086 C1087 1.327 . S
C1087 H1081 0.950 . S
C1087 C1086 1.327 . S
C1087 C1091 1.429 . S
C1088 C1071 1.574 . S
C1088 H1082 0.949 . S
C1088 C1092 1.368 . S
C1089 C1070 1.429 . S
C1089 C1083 1.429 . S
C1089 C1090 1.523 . S
C1090 C1071 1.368 . S
C1090 C1084 1.368 . S
C1090 C1089 1.523 . S
C1091 C1075 1.429 . S
C1091 C1087 1.429 . S
C1091 C1092 1.523 . S
C1092 C1076 1.368 . S
C1092 C1088 1.368 . S
C1092 C1091 1.523 . S
H1093 C1068 0.950 . S
H1094 C1070 0.950 . S
H1095 C1071 0.949 . S
H1096 C1073 0.950 . S
H1097 C1075 0.950 . S
C1098 C1099 1.349 . S
C1098 C1100 1.327 . S
C1098 H1123 0.950 . S
C1099 C1098 1.349 . S
C1099 C1115 1.349 . S
C1100 C1098 1.327 . S
C1100 C1119 1.429 . S
C1100 H1124 0.950 . S
C1101 C1118 1.574 . S
C1101 C1120 1.368 . S
C1101 H1125 0.949 . S
H1102 C1106 0.949 . S
C1103 C1104 1.349 . S
C1103 C1105 1.327 . S
C1103 H1126 0.950 . S
C1104 C1103 1.349 . S
C1104 C1116 1.349 . S
C1105 C1103 1.327 . S
C1105 C1121 1.429 . S
C1105 H1127 0.950 . S
C1106 H1102 0.949 . S
C1106 C1114 1.574 . S
C1106 C1122 1.368 . S
H1107 C1115 0.950 . S
H1108 C1113 0.950 . S
H1109 C1114 0.949 . S
H1110 C1116 0.950 . S
H1111 C1117 0.950 . S
H1112 C1118 0.949 . S
C1113 H1108 0.950 . S
C1113 C1115 1.327 . S
C1113 C1119 1.429 . S
C1114 C1106 1.574 . S
C1114 H1109 0.949 . S
C1114 C1120 1.368 . S
C1115 C1099 1.349 . S
C1115 H1107 0.950 . S
C1115 C1113 1.327 . S
C1116 C1104 1.349 . S
C1116 H1110 0.950 . S
C1116 C1117 1.327 . S
C1117 H1111 0.950 . S
C1117 C1116 1.327 . S
C1117 C1121 1.429 . S
C1118 C1101 1.574 . S
C1118 H1112 0.949 . S
C1118 C1122 1.368 . S
C1119 C1100 1.429 . S
C1119 C1113 1.429 . S
C1119 C1120 1.523 . S
C1120 C1101 1.368 . S
C1120 C1114 1.368 . S
C1120 C1119 1.523 . S
C1121 C1105 1.429 . S
C1121 C1117 1.429 . S
C1121 C1122 1.523 . S
C1122 C1106 1.368 . S
C1122 C1118 1.368 . S
C1122 C1121 1.523 . S
H1123 C1098 0.950 . S
H1124 C1100 0.950 . S
H1125 C1101 0.949 . S
H1126 C1103 0.950 . S
H1127 C1105 0.950 . S
C1128 C1129 1.349 . S
C1128 C1130 1.327 . S
C1128 H1153 0.950 . S
C1129 C1128 1.349 . S
C1129 C1145 1.349 . S
C1130 C1128 1.327 . S
C1130 C1149 1.429 . S
C1130 H1154 0.950 . S
C1131 C1148 1.574 . S
C1131 C1150 1.368 . S
C1131 H1155 0.949 . S
H1132 C1136 0.949 . S
C1133 C1134 1.349 . S
C1133 C1135 1.327 . S
C1133 H1156 0.950 . S
C1134 C1133 1.349 . S
C1134 C1146 1.349 . S
C1135 C1133 1.327 . S
C1135 C1151 1.429 . S
C1135 H1157 0.950 . S
C1136 H1132 0.949 . S
C1136 C1144 1.574 . S
C1136 C1152 1.368 . S
H1137 C1145 0.950 . S
H1138 C1143 0.950 . S
H1139 C1144 0.949 . S
H1140 C1146 0.950 . S
H1141 C1147 0.950 . S
H1142 C1148 0.949 . S
C1143 H1138 0.950 . S
C1143 C1145 1.327 . S
C1143 C1149 1.429 . S
C1144 C1136 1.574 . S
C1144 H1139 0.949 . S
C1144 C1150 1.368 . S
C1145 C1129 1.349 . S
C1145 H1137 0.950 . S
C1145 C1143 1.327 . S
C1146 C1134 1.349 . S
C1146 H1140 0.950 . S
C1146 C1147 1.327 . S
C1147 H1141 0.950 . S
C1147 C1146 1.327 . S
C1147 C1151 1.429 . S
C1148 C1131 1.574 . S
C1148 H1142 0.949 . S
C1148 C1152 1.368 . S
C1149 C1130 1.429 . S
C1149 C1143 1.429 . S
C1149 C1150 1.523 . S
C1150 C1131 1.368 . S
C1150 C1144 1.368 . S
C1150 C1149 1.523 . S
C1151 C1135 1.429 . S
C1151 C1147 1.429 . S
C1151 C1152 1.523 . S
C1152 C1136 1.368 . S
C1152 C1148 1.368 . S
C1152 C1151 1.523 . S
H1153 C1128 0.950 . S
H1154 C1130 0.950 . S
H1155 C1131 0.949 . S
H1156 C1133 0.950 . S
H1157 C1135 0.950 . S
C1158 C1159 1.349 . S
C1158 C1160 1.327 . S
C1158 H1183 0.950 . S
C1159 C1158 1.349 . S
C1159 C1175 1.349 . S
C1160 C1158 1.327 . S
C1160 C1179 1.429 . S
C1160 H1184 0.950 . S
C1161 C1178 1.574 . S
C1161 C1180 1.368 . S
C1161 H1185 0.949 . S
H1162 C1166 0.949 . S
C1163 C1164 1.349 . S
C1163 C1165 1.327 . S
C1163 H1186 0.950 . S
C1164 C1163 1.349 . S
C1164 C1176 1.349 . S
C1165 C1163 1.327 . S
C1165 C1181 1.429 . S
C1165 H1187 0.950 . S
C1166 H1162 0.949 . S
C1166 C1174 1.574 . S
C1166 C1182 1.368 . S
H1167 C1175 0.950 . S
H1168 C1173 0.950 . S
H1169 C1174 0.949 . S
H1170 C1176 0.950 . S
H1171 C1177 0.950 . S
H1172 C1178 0.949 . S
C1173 H1168 0.950 . S
C1173 C1175 1.327 . S
C1173 C1179 1.429 . S
C1174 C1166 1.574 . S
C1174 H1169 0.949 . S
C1174 C1180 1.368 . S
C1175 C1159 1.349 . S
C1175 H1167 0.950 . S
C1175 C1173 1.327 . S
C1176 C1164 1.349 . S
C1176 H1170 0.950 . S
C1176 C1177 1.327 . S
C1177 H1171 0.950 . S
C1177 C1176 1.327 . S
C1177 C1181 1.429 . S
C1178 C1161 1.574 . S
C1178 H1172 0.949 . S
C1178 C1182 1.368 . S
C1179 C1160 1.429 . S
C1179 C1173 1.429 . S
C1179 C1180 1.523 . S
C1180 C1161 1.368 . S
C1180 C1174 1.368 . S
C1180 C1179 1.523 . S
C1181 C1165 1.429 . S
C1181 C1177 1.429 . S
C1181 C1182 1.523 . S
C1182 C1166 1.368 . S
C1182 C1178 1.368 . S
C1182 C1181 1.523 . S
H1183 C1158 0.950 . S
H1184 C1160 0.950 . S
H1185 C1161 0.949 . S
H1186 C1163 0.950 . S
H1187 C1165 0.950 . S
C1188 C1189 1.349 . S
C1188 C1190 1.327 . S
C1188 H1213 0.950 . S
C1189 C1188 1.349 . S
C1189 C1205 1.349 . S
C1190 C1188 1.327 . S
C1190 C1209 1.429 . S
C1190 H1214 0.950 . S
C1191 C1208 1.574 . S
C1191 C1210 1.368 . S
C1191 H1215 0.949 . S
H1192 C1196 0.949 . S
C1193 C1194 1.349 . S
C1193 C1195 1.327 . S
C1193 H1216 0.950 . S
C1194 C1193 1.349 . S
C1194 C1206 1.349 . S
C1195 C1193 1.327 . S
C1195 C1211 1.429 . S
C1195 H1217 0.950 . S
C1196 H1192 0.949 . S
C1196 C1204 1.574 . S
C1196 C1212 1.368 . S
H1197 C1205 0.950 . S
H1198 C1203 0.950 . S
H1199 C1204 0.949 . S
H1200 C1206 0.950 . S
H1201 C1207 0.950 . S
H1202 C1208 0.949 . S
C1203 H1198 0.950 . S
C1203 C1205 1.327 . S
C1203 C1209 1.429 . S
C1204 C1196 1.574 . S
C1204 H1199 0.949 . S
C1204 C1210 1.368 . S
C1205 C1189 1.349 . S
C1205 H1197 0.950 . S
C1205 C1203 1.327 . S
C1206 C1194 1.349 . S
C1206 H1200 0.950 . S
C1206 C1207 1.327 . S
C1207 H1201 0.950 . S
C1207 C1206 1.327 . S
C1207 C1211 1.429 . S
C1208 C1191 1.574 . S
C1208 H1202 0.949 . S
C1208 C1212 1.368 . S
C1209 C1190 1.429 . S
C1209 C1203 1.429 . S
C1209 C1210 1.523 . S
C1210 C1191 1.368 . S
C1210 C1204 1.368 . S
C1210 C1209 1.523 . S
C1211 C1195 1.429 . S
C1211 C1207 1.429 . S
C1211 C1212 1.523 . S
C1212 C1196 1.368 . S
C1212 C1208 1.368 . S
C1212 C1211 1.523 . S
H1213 C1188 0.950 . S
H1214 C1190 0.950 . S
H1215 C1191 0.949 . S
H1216 C1193 0.950 . S
H1217 C1195 0.950 . S
C1218 C1219 1.349 . S
C1218 C1220 1.327 . S
C1218 H1243 0.950 . S
C1219 C1218 1.349 . S
C1219 C1235 1.349 . S
C1220 C1218 1.327 . S
C1220 C1239 1.429 . S
C1220 H1244 0.950 . S
C1221 C1238 1.574 . S
C1221 C1240 1.368 . S
C1221 H1245 0.949 . S
H1222 C1226 0.949 . S
C1223 C1224 1.349 . S
C1223 C1225 1.327 . S
C1223 H1246 0.950 . S
C1224 C1223 1.349 . S
C1224 C1236 1.349 . S
C1225 C1223 1.327 . S
C1225 C1241 1.429 . S
C1225 H1247 0.950 . S
C1226 H1222 0.949 . S
C1226 C1234 1.574 . S
C1226 C1242 1.368 . S
H1227 C1235 0.950 . S
H1228 C1233 0.950 . S
H1229 C1234 0.949 . S
H1230 C1236 0.950 . S
H1231 C1237 0.950 . S
H1232 C1238 0.949 . S
C1233 H1228 0.950 . S
C1233 C1235 1.327 . S
C1233 C1239 1.429 . S
C1234 C1226 1.574 . S
C1234 H1229 0.949 . S
C1234 C1240 1.368 . S
C1235 C1219 1.349 . S
C1235 H1227 0.950 . S
C1235 C1233 1.327 . S
C1236 C1224 1.349 . S
C1236 H1230 0.950 . S
C1236 C1237 1.327 . S
C1237 H1231 0.950 . S
C1237 C1236 1.327 . S
C1237 C1241 1.429 . S
C1238 C1221 1.574 . S
C1238 H1232 0.949 . S
C1238 C1242 1.368 . S
C1239 C1220 1.429 . S
C1239 C1233 1.429 . S
C1239 C1240 1.523 . S
C1240 C1221 1.368 . S
C1240 C1234 1.368 . S
C1240 C1239 1.523 . S
C1241 C1225 1.429 . S
C1241 C1237 1.429 . S
C1241 C1242 1.523 . S
C1242 C1226 1.368 . S
C1242 C1238 1.368 . S
C1242 C1241 1.523 . S
H1243 C1218 0.950 . S
H1244 C1220 0.950 . S
H1245 C1221 0.949 . S
H1246 C1223 0.950 . S
H1247 C1225 0.950 . S
C1248 C1249 1.349 . S
C1248 C1250 1.327 . S
C1248 H1273 0.950 . S
C1249 C1248 1.349 . S
C1249 C1265 1.349 . S
C1250 C1248 1.327 . S
C1250 C1269 1.429 . S
C1250 H1274 0.950 . S
C1251 C1268 1.574 . S
C1251 C1270 1.368 . S
C1251 H1275 0.949 . S
H1252 C1256 0.949 . S
C1253 C1254 1.349 . S
C1253 C1255 1.327 . S
C1253 H1276 0.950 . S
C1254 C1253 1.349 . S
C1254 C1266 1.349 . S
C1255 C1253 1.327 . S
C1255 C1271 1.429 . S
C1255 H1277 0.950 . S
C1256 H1252 0.949 . S
C1256 C1264 1.574 . S
C1256 C1272 1.368 . S
H1257 C1265 0.950 . S
H1258 C1263 0.950 . S
H1259 C1264 0.949 . S
H1260 C1266 0.950 . S
H1261 C1267 0.950 . S
H1262 C1268 0.949 . S
C1263 H1258 0.950 . S
C1263 C1265 1.327 . S
C1263 C1269 1.429 . S
C1264 C1256 1.574 . S
C1264 H1259 0.949 . S
C1264 C1270 1.368 . S
C1265 C1249 1.349 . S
C1265 H1257 0.950 . S
C1265 C1263 1.327 . S
C1266 C1254 1.349 . S
C1266 H1260 0.950 . S
C1266 C1267 1.327 . S
C1267 H1261 0.950 . S
C1267 C1266 1.327 . S
C1267 C1271 1.429 . S
C1268 C1251 1.574 . S
C1268 H1262 0.949 . S
C1268 C1272 1.368 . S
C1269 C1250 1.429 . S
C1269 C1263 1.429 . S
C1269 C1270 1.523 . S
C1270 C1251 1.368 . S
C1270 C1264 1.368 . S
C1270 C1269 1.523 . S
C1271 C1255 1.429 . S
C1271 C1267 1.429 . S
C1271 C1272 1.523 . S
C1272 C1256 1.368 . S
C1272 C1268 1.368 . S
C1272 C1271 1.523 . S
H1273 C1248 0.950 . S
H1274 C1250 0.950 . S
H1275 C1251 0.949 . S
H1276 C1253 0.950 . S
H1277 C1255 0.950 . S
C1278 C1279 1.349 . S
C1278 C1280 1.327 . S
C1278 H1303 0.950 . S
C1279 C1278 1.349 . S
C1279 C1295 1.349 . S
C1280 C1278 1.327 . S
C1280 C1299 1.429 . S
C1280 H1304 0.950 . S
C1281 C1298 1.574 . S
C1281 C1300 1.368 . S
C1281 H1305 0.949 . S
H1282 C1286 0.949 . S
C1283 C1284 1.349 . S
C1283 C1285 1.327 . S
C1283 H1306 0.950 . S
C1284 C1283 1.349 . S
C1284 C1296 1.349 . S
C1285 C1283 1.327 . S
C1285 C1301 1.429 . S
C1285 H1307 0.950 . S
C1286 H1282 0.949 . S
C1286 C1294 1.574 . S
C1286 C1302 1.368 . S
H1287 C1295 0.950 . S
H1288 C1293 0.950 . S
H1289 C1294 0.949 . S
H1290 C1296 0.950 . S
H1291 C1297 0.950 . S
H1292 C1298 0.949 . S
C1293 H1288 0.950 . S
C1293 C1295 1.327 . S
C1293 C1299 1.429 . S
C1294 C1286 1.574 . S
C1294 H1289 0.949 . S
C1294 C1300 1.368 . S
C1295 C1279 1.349 . S
C1295 H1287 0.950 . S
C1295 C1293 1.327 . S
C1296 C1284 1.349 . S
C1296 H1290 0.950 . S
C1296 C1297 1.327 . S
C1297 H1291 0.950 . S
C1297 C1296 1.327 . S
C1297 C1301 1.429 . S
C1298 C1281 1.574 . S
C1298 H1292 0.949 . S
C1298 C1302 1.368 . S
C1299 C1280 1.429 . S
C1299 C1293 1.429 . S
C1299 C1300 1.523 . S
C1300 C1281 1.368 . S
C1300 C1294 1.368 . S
C1300 C1299 1.523 . S
C1301 C1285 1.429 . S
C1301 C1297 1.429 . S
C1301 C1302 1.523 . S
C1302 C1286 1.368 . S
C1302 C1298 1.368 . S
C1302 C1301 1.523 . S
H1303 C1278 0.950 . S
H1304 C1280 0.950 . S
H1305 C1281 0.949 . S
H1306 C1283 0.950 . S
H1307 C1285 0.950 . S
C1308 C1309 1.349 . S
C1308 C1310 1.327 . S
C1308 H1333 0.950 1_556 S
C1309 C1308 1.349 . S
C1309 C1325 1.349 . S
C1310 C1308 1.327 . S
C1310 C1329 1.429 . S
C1310 H1334 0.925 1_556 S
C1311 C1328 1.574 . S
C1311 C1330 1.368 . S
C1311 H1335 0.949 . S
H1312 C1316 0.949 . S
C1313 C1314 1.349 . S
C1313 C1315 1.327 . S
C1313 H1336 0.950 . S
C1314 C1313 1.349 . S
C1314 C1326 1.349 . S
C1315 C1313 1.327 . S
C1315 C1331 1.429 . S
C1315 H1337 0.950 . S
C1316 H1312 0.949 . S
C1316 C1324 1.574 . S
C1316 C1332 1.368 . S
H1317 C1325 0.950 . S
H1318 C1323 0.950 . S
H1319 C1324 1.022 . S
H1320 C1326 0.950 . S
H1321 C1327 0.950 . S
H1322 C1328 0.949 . S
C1323 H1318 0.950 . S
C1323 C1325 1.327 . S
C1323 C1329 1.429 . S
C1324 C1316 1.574 . S
C1324 H1319 1.022 . S
C1324 C1330 1.368 . S
C1325 C1309 1.349 . S
C1325 H1317 0.950 . S
C1325 C1323 1.327 . S
C1326 C1314 1.349 . S
C1326 H1320 0.950 . S
C1326 C1327 1.327 . S
C1327 H1321 0.950 . S
C1327 C1326 1.327 . S
C1327 C1331 1.429 . S
C1328 C1311 1.574 . S
C1328 H1322 0.949 . S
C1328 C1332 1.368 . S
C1329 C1310 1.429 . S
C1329 C1323 1.429 . S
C1329 C1330 1.523 . S
C1330 C1311 1.368 . S
C1330 C1324 1.368 . S
C1330 C1329 1.523 . S
C1331 C1315 1.429 . S
C1331 C1327 1.429 . S
C1331 C1332 1.523 . S
C1332 C1316 1.368 . S
C1332 C1328 1.368 . S
C1332 C1331 1.523 . S
H1333 C1308 0.950 1_554 S
H1334 C1310 0.925 1_554 S
H1335 C1311 0.949 . S
H1336 C1313 0.950 . S
H1337 C1315 0.950 . S
C1338 C1339 1.349 . S
C1338 C1340 1.327 . S
C1338 H1363 0.950 . S
C1339 C1338 1.349 . S
C1339 C1355 1.349 . S
C1340 C1338 1.327 . S
C1340 C1359 1.429 . S
C1340 H1364 0.950 . S
C1341 C1358 1.574 . S
C1341 C1360 1.368 . S
C1341 H1365 0.949 . S
H1342 C1346 0.949 . S
C1343 C1344 1.349 . S
C1343 C1345 1.327 . S
C1343 H1366 0.866 1_556 S
C1344 C1343 1.349 . S
C1344 C1356 1.349 . S
C1345 C1343 1.327 . S
C1345 C1361 1.429 . S
C1345 H1367 0.960 . S
C1346 H1342 0.949 . S
C1346 C1354 1.574 . S
C1346 C1362 1.368 . S
H1347 C1355 0.950 . S
H1348 C1353 0.950 . S
H1349 C1354 0.949 . S
H1350 C1356 0.950 . S
H1351 C1357 0.950 . S
H1352 C1358 0.949 . S
C1353 H1348 0.950 . S
C1353 C1355 1.327 . S
C1353 C1359 1.429 . S
C1354 C1346 1.574 . S
C1354 H1349 0.949 . S
C1354 C1360 1.368 . S
C1355 C1339 1.349 . S
C1355 H1347 0.950 . S
C1355 C1353 1.327 . S
C1356 C1344 1.349 . S
C1356 H1350 0.950 . S
C1356 C1357 1.327 . S
C1357 H1351 0.950 . S
C1357 C1356 1.327 . S
C1357 C1361 1.429 . S
C1358 C1341 1.574 . S
C1358 H1352 0.949 . S
C1358 C1362 1.368 . S
C1359 C1340 1.429 . S
C1359 C1353 1.429 . S
C1359 C1360 1.523 . S
C1360 C1341 1.368 . S
C1360 C1354 1.368 . S
C1360 C1359 1.523 . S
C1361 C1345 1.429 . S
C1361 C1357 1.429 . S
C1361 C1362 1.523 . S
C1362 C1346 1.368 . S
C1362 C1358 1.368 . S
C1362 C1361 1.523 . S
H1363 C1338 0.950 . S
H1364 C1340 0.950 . S
H1365 C1341 0.949 . S
H1366 C1343 0.866 1_554 S
H1367 C1345 0.960 . S
C1368 C1369 1.349 . S
C1368 C1370 1.327 . S
C1368 H1393 0.950 . S
C1369 C1368 1.349 . S
C1369 C1385 1.349 . S
C1370 C1368 1.327 . S
C1370 C1389 1.429 . S
C1370 H1394 0.950 . S
C1371 C1388 1.574 . S
C1371 C1390 1.368 . S
C1371 H1395 0.949 . S
H1372 C1376 0.949 . S
C1373 C1374 1.349 . S
C1373 C1375 1.327 . S
C1373 H1396 0.950 . S
C1374 C1373 1.349 . S
C1374 C1386 1.349 . S
C1375 C1373 1.327 . S
C1375 C1391 1.429 . S
C1375 H1397 0.950 . S
C1376 H1372 0.949 . S
C1376 C1384 1.574 . S
C1376 C1392 1.368 . S
H1377 C1385 0.950 . S
H1378 C1383 0.950 . S
H1379 C1384 0.949 . S
H1380 C1386 0.950 . S
H1381 C1387 0.950 . S
H1382 C1388 0.949 . S
C1383 H1378 0.950 . S
C1383 C1385 1.327 . S
C1383 C1389 1.429 . S
C1384 C1376 1.574 . S
C1384 H1379 0.949 . S
C1384 C1390 1.368 . S
C1385 C1369 1.349 . S
C1385 H1377 0.950 . S
C1385 C1383 1.327 . S
C1386 C1374 1.349 . S
C1386 H1380 0.950 . S
C1386 C1387 1.327 . S
C1387 H1381 0.950 . S
C1387 C1386 1.327 . S
C1387 C1391 1.429 . S
C1388 C1371 1.574 . S
C1388 H1382 0.949 . S
C1388 C1392 1.368 . S
C1389 C1370 1.429 . S
C1389 C1383 1.429 . S
C1389 C1390 1.523 . S
C1390 C1371 1.368 . S
C1390 C1384 1.368 . S
C1390 C1389 1.523 . S
C1391 C1375 1.429 . S
C1391 C1387 1.429 . S
C1391 C1392 1.523 . S
C1392 C1376 1.368 . S
C1392 C1388 1.368 . S
C1392 C1391 1.523 . S
H1393 C1368 0.950 . S
H1394 C1370 0.950 . S
H1395 C1371 0.949 . S
H1396 C1373 0.950 . S
H1397 C1375 0.950 . S
C1398 C1399 1.349 . S
C1398 C1400 1.327 . S
C1398 H1423 0.950 . S
C1399 C1398 1.349 . S
C1399 C1415 1.349 . S
C1400 C1398 1.327 . S
C1400 C1419 1.429 . S
C1400 H1424 0.950 . S
C1401 C1418 1.574 . S
C1401 C1420 1.368 . S
C1401 H1425 0.949 . S
H1402 C1406 0.949 . S
C1403 C1404 1.349 . S
C1403 C1405 1.327 . S
C1403 H1426 0.950 . S
C1404 C1403 1.349 . S
C1404 C1416 1.349 . S
C1405 C1403 1.327 . S
C1405 C1421 1.429 . S
C1405 H1427 0.950 . S
C1406 H1402 0.949 . S
C1406 C1414 1.574 . S
C1406 C1422 1.368 . S
H1407 C1415 0.950 . S
H1408 C1413 0.950 . S
H1409 C1414 0.949 . S
H1410 C1416 0.950 . S
H1411 C1417 0.950 . S
H1412 C1418 0.949 . S
C1413 H1408 0.950 . S
C1413 C1415 1.327 . S
C1413 C1419 1.429 . S
C1414 C1406 1.574 . S
C1414 H1409 0.949 . S
C1414 C1420 1.368 . S
C1415 C1399 1.349 . S
C1415 H1407 0.950 . S
C1415 C1413 1.327 . S
C1416 C1404 1.349 . S
C1416 H1410 0.950 . S
C1416 C1417 1.327 . S
C1417 H1411 0.950 . S
C1417 C1416 1.327 . S
C1417 C1421 1.429 . S
C1418 C1401 1.574 . S
C1418 H1412 0.949 . S
C1418 C1422 1.368 . S
C1419 C1400 1.429 . S
C1419 C1413 1.429 . S
C1419 C1420 1.523 . S
C1420 C1401 1.368 . S
C1420 C1414 1.368 . S
C1420 C1419 1.523 . S
C1421 C1405 1.429 . S
C1421 C1417 1.429 . S
C1421 C1422 1.523 . S
C1422 C1406 1.368 . S
C1422 C1418 1.368 . S
C1422 C1421 1.523 . S
H1423 C1398 0.950 . S
H1424 C1400 0.950 . S
H1425 C1401 0.949 . S
H1426 C1403 0.950 . S
H1427 C1405 0.950 . S
C1428 C1429 1.349 . S
C1428 C1430 1.327 . S
C1428 H1453 0.950 . S
C1429 C1428 1.349 . S
C1429 C1445 1.349 . S
C1430 C1428 1.327 . S
C1430 C1449 1.429 . S
C1430 H1454 0.950 . S
C1431 C1448 1.574 . S
C1431 C1450 1.368 . S
C1431 H1455 0.949 . S
H1432 C1436 0.949 . S
C1433 C1434 1.349 . S
C1433 C1435 1.327 . S
C1433 H1456 0.950 . S
C1434 C1433 1.349 . S
C1434 C1446 1.349 . S
C1435 C1433 1.327 . S
C1435 C1451 1.429 . S
C1435 H1457 0.950 . S
C1436 H1432 0.949 . S
C1436 C1444 1.574 . S
C1436 C1452 1.368 . S
H1437 C1445 0.950 . S
H1438 C1443 0.950 . S
H1439 C1444 0.949 . S
H1440 C1446 0.950 . S
H1441 C1447 0.950 . S
H1442 C1448 0.949 . S
C1443 H1438 0.950 . S
C1443 C1445 1.327 . S
C1443 C1449 1.429 . S
C1444 C1436 1.574 . S
C1444 H1439 0.949 . S
C1444 C1450 1.368 . S
C1445 C1429 1.349 . S
C1445 H1437 0.950 . S
C1445 C1443 1.327 . S
C1446 C1434 1.349 . S
C1446 H1440 0.950 . S
C1446 C1447 1.327 . S
C1447 H1441 0.950 . S
C1447 C1446 1.327 . S
C1447 C1451 1.429 . S
C1448 C1431 1.574 . S
C1448 H1442 0.949 . S
C1448 C1452 1.368 . S
C1449 C1430 1.429 . S
C1449 C1443 1.429 . S
C1449 C1450 1.523 . S
C1450 C1431 1.368 . S
C1450 C1444 1.368 . S
C1450 C1449 1.523 . S
C1451 C1435 1.429 . S
C1451 C1447 1.429 . S
C1451 C1452 1.523 . S
C1452 C1436 1.368 . S
C1452 C1448 1.368 . S
C1452 C1451 1.523 . S
H1453 C1428 0.950 . S
H1454 C1430 0.950 . S
H1455 C1431 0.949 . S
H1456 C1433 0.950 . S
H1457 C1435 0.950 . S
C1458 C1459 1.349 . S
C1458 C1460 1.327 . S
C1458 H1483 0.950 . S
C1459 C1458 1.349 . S
C1459 C1475 1.349 . S
C1460 C1458 1.327 . S
C1460 C1479 1.429 . S
C1460 H1484 0.950 . S
C1461 C1478 1.574 . S
C1461 C1480 1.368 . S
C1461 H1485 0.949 . S
H1462 C1466 0.949 . S
C1463 C1464 1.349 . S
C1463 C1465 1.327 . S
C1463 H1486 0.950 . S
C1464 C1463 1.349 . S
C1464 C1476 1.349 . S
C1465 C1463 1.327 . S
C1465 C1481 1.429 . S
C1465 H1487 0.950 . S
C1466 H1462 0.949 . S
C1466 C1474 1.574 . S
C1466 C1482 1.368 . S
H1467 C1475 0.950 . S
H1468 C1473 0.950 . S
H1469 C1474 0.949 . S
H1470 C1476 0.950 . S
H1471 C1477 0.950 . S
H1472 C1478 0.949 . S
C1473 H1468 0.950 . S
C1473 C1475 1.327 . S
C1473 C1479 1.429 . S
C1474 C1466 1.574 . S
C1474 H1469 0.949 . S
C1474 C1480 1.368 . S
C1475 C1459 1.349 . S
C1475 H1467 0.950 . S
C1475 C1473 1.327 . S
C1476 C1464 1.349 . S
C1476 H1470 0.950 . S
C1476 C1477 1.327 . S
C1477 H1471 0.950 . S
C1477 C1476 1.327 . S
C1477 C1481 1.429 . S
C1478 C1461 1.574 . S
C1478 H1472 0.949 . S
C1478 C1482 1.368 . S
C1479 C1460 1.429 . S
C1479 C1473 1.429 . S
C1479 C1480 1.523 . S
C1480 C1461 1.368 . S
C1480 C1474 1.368 . S
C1480 C1479 1.523 . S
C1481 C1465 1.429 . S
C1481 C1477 1.429 . S
C1481 C1482 1.523 . S
C1482 C1466 1.368 . S
C1482 C1478 1.368 . S
C1482 C1481 1.523 . S
H1483 C1458 0.950 . S
H1484 C1460 0.950 . S
H1485 C1461 0.949 . S
H1486 C1463 0.950 . S
H1487 C1465 0.950 . S
C1488 C1489 1.349 . S
C1488 C1490 1.327 . S
C1488 H1513 0.950 . S
C1489 C1488 1.349 . S
C1489 C1505 1.349 . S
C1490 C1488 1.327 . S
C1490 C1509 1.429 . S
C1490 H1514 0.950 . S
C1491 C1508 1.574 . S
C1491 C1510 1.368 . S
C1491 H1515 0.949 . S
H1492 C1496 0.949 . S
C1493 C1494 1.349 . S
C1493 C1495 1.327 . S
C1493 H1516 0.950 . S
C1494 C1493 1.349 . S
C1494 C1506 1.349 . S
C1495 C1493 1.327 . S
C1495 C1511 1.429 . S
C1495 H1517 0.950 . S
C1496 H1492 0.949 . S
C1496 C1504 1.574 . S
C1496 C1512 1.368 . S
H1497 C1505 0.950 . S
H1498 C1503 0.950 . S
H1499 C1504 0.949 . S
H1500 C1506 0.950 . S
H1501 C1507 0.950 . S
H1502 C1508 0.949 . S
C1503 H1498 0.950 . S
C1503 C1505 1.327 . S
C1503 C1509 1.429 . S
C1504 C1496 1.574 . S
C1504 H1499 0.949 . S
C1504 C1510 1.368 . S
C1505 C1489 1.349 . S
C1505 H1497 0.950 . S
C1505 C1503 1.327 . S
C1506 C1494 1.349 . S
C1506 H1500 0.950 . S
C1506 C1507 1.327 . S
C1507 H1501 0.950 . S
C1507 C1506 1.327 . S
C1507 C1511 1.429 . S
C1508 C1491 1.574 . S
C1508 H1502 0.949 . S
C1508 C1512 1.368 . S
C1509 C1490 1.429 . S
C1509 C1503 1.429 . S
C1509 C1510 1.523 . S
C1510 C1491 1.368 . S
C1510 C1504 1.368 . S
C1510 C1509 1.523 . S
C1511 C1495 1.429 . S
C1511 C1507 1.429 . S
C1511 C1512 1.523 . S
C1512 C1496 1.368 . S
C1512 C1508 1.368 . S
C1512 C1511 1.523 . S
H1513 C1488 0.950 . S
H1514 C1490 0.950 . S
H1515 C1491 0.949 . S
H1516 C1493 0.950 . S
H1517 C1495 0.950 . S
C1518 C1519 1.349 . S
C1518 C1520 1.327 . S
C1518 H1543 0.950 . S
C1519 C1518 1.349 . S
C1519 C1535 1.349 . S
C1520 C1518 1.327 . S
C1520 C1539 1.429 . S
C1520 H1544 0.950 . S
C1521 C1538 1.574 . S
C1521 C1540 1.368 . S
C1521 H1545 0.949 . S
H1522 C1526 0.949 . S
C1523 C1524 1.349 . S
C1523 C1525 1.327 . S
C1523 H1546 0.950 . S
C1524 C1523 1.349 . S
C1524 C1536 1.349 . S
C1525 C1523 1.327 . S
C1525 C1541 1.429 . S
C1525 H1547 0.950 . S
C1526 H1522 0.949 . S
C1526 C1534 1.574 . S
C1526 C1542 1.368 . S
H1527 C1535 0.950 . S
H1528 C1533 0.950 . S
H1529 C1534 0.949 . S
H1530 C1536 0.950 . S
H1531 C1537 0.950 . S
H1532 C1538 0.949 . S
C1533 H1528 0.950 . S
C1533 C1535 1.327 . S
C1533 C1539 1.429 . S
C1534 C1526 1.574 . S
C1534 H1529 0.949 . S
C1534 C1540 1.368 . S
C1535 C1519 1.349 . S
C1535 H1527 0.950 . S
C1535 C1533 1.327 . S
C1536 C1524 1.349 . S
C1536 H1530 0.950 . S
C1536 C1537 1.327 . S
C1537 H1531 0.950 . S
C1537 C1536 1.327 . S
C1537 C1541 1.429 . S
C1538 C1521 1.574 . S
C1538 H1532 0.949 . S
C1538 C1542 1.368 . S
C1539 C1520 1.429 . S
C1539 C1533 1.429 . S
C1539 C1540 1.523 . S
C1540 C1521 1.368 . S
C1540 C1534 1.368 . S
C1540 C1539 1.523 . S
C1541 C1525 1.429 . S
C1541 C1537 1.429 . S
C1541 C1542 1.523 . S
C1542 C1526 1.368 . S
C1542 C1538 1.368 . S
C1542 C1541 1.523 . S
H1543 C1518 0.950 . S
H1544 C1520 0.950 . S
H1545 C1521 0.949 . S
H1546 C1523 0.950 . S
H1547 C1525 0.950 . S
C1548 C1549 1.349 . S
C1548 C1550 1.327 . S
C1548 H1573 0.950 . S
C1549 C1548 1.349 . S
C1549 C1565 1.349 . S
C1550 C1548 1.327 . S
C1550 C1569 1.429 . S
C1550 H1574 0.950 . S
C1551 C1568 1.574 . S
C1551 C1570 1.368 . S
C1551 H1575 0.949 . S
H1552 C1556 0.949 . S
C1553 C1554 1.349 . S
C1553 C1555 1.327 . S
C1553 H1576 0.950 . S
C1554 C1553 1.349 . S
C1554 C1566 1.349 . S
C1555 C1553 1.327 . S
C1555 C1571 1.429 . S
C1555 H1577 0.950 . S
C1556 H1552 0.949 . S
C1556 C1564 1.574 . S
C1556 C1572 1.368 . S
H1557 C1565 0.950 . S
H1558 C1563 0.950 . S
H1559 C1564 0.949 . S
H1560 C1566 0.950 . S
H1561 C1567 0.950 . S
H1562 C1568 0.949 . S
C1563 H1558 0.950 . S
C1563 C1565 1.327 . S
C1563 C1569 1.429 . S
C1564 C1556 1.574 . S
C1564 H1559 0.949 . S
C1564 C1570 1.368 . S
C1565 C1549 1.349 . S
C1565 H1557 0.950 . S
C1565 C1563 1.327 . S
C1566 C1554 1.349 . S
C1566 H1560 0.950 . S
C1566 C1567 1.327 . S
C1567 H1561 0.950 . S
C1567 C1566 1.327 . S
C1567 C1571 1.429 . S
C1568 C1551 1.574 . S
C1568 H1562 0.949 . S
C1568 C1572 1.368 . S
C1569 C1550 1.429 . S
C1569 C1563 1.429 . S
C1569 C1570 1.523 . S
C1570 C1551 1.368 . S
C1570 C1564 1.368 . S
C1570 C1569 1.523 . S
C1571 C1555 1.429 . S
C1571 C1567 1.429 . S
C1571 C1572 1.523 . S
C1572 C1556 1.368 . S
C1572 C1568 1.368 . S
C1572 C1571 1.523 . S
H1573 C1548 0.950 . S
H1574 C1550 0.950 . S
H1575 C1551 0.949 . S
H1576 C1553 0.950 . S
H1577 C1555 0.950 . S
C1578 C1579 1.349 1_565 S
C1578 C1580 1.327 . S
C1578 H1603 0.950 . S
C1579 C1578 1.349 1_545 S
C1579 C1595 1.349 . S
C1580 C1578 1.327 . S
C1580 C1599 1.429 1_565 S
C1580 H1604 0.950 . S
C1581 C1598 1.574 . S
C1581 C1600 1.368 . S
C1581 H1605 0.949 . S
H1582 C1586 0.949 . S
C1583 C1584 1.349 1_545 S
C1583 C1585 1.327 . S
C1583 H1606 0.950 . S
C1584 C1583 1.349 1_565 S
C1584 C1596 1.349 . S
C1585 C1583 1.327 . S
C1585 C1601 1.429 1_545 S
C1585 H1607 0.950 . S
C1586 H1582 0.949 . S
C1586 C1594 1.574 . S
C1586 C1602 1.368 . S
H1587 C1595 0.950 . S
H1588 C1593 0.950 . S
H1589 C1594 0.949 . S
H1590 C1596 0.950 . S
H1591 C1597 0.950 . S
H1592 C1598 0.949 . S
C1593 H1588 0.950 . S
C1593 C1595 1.327 . S
C1593 C1599 1.429 . S
C1594 C1586 1.574 . S
C1594 H1589 0.949 . S
C1594 C1600 1.368 1_565 S
C1595 C1579 1.349 . S
C1595 H1587 0.950 . S
C1595 C1593 1.327 . S
C1596 C1584 1.349 . S
C1596 H1590 0.950 . S
C1596 C1597 1.327 . S
C1597 H1591 0.950 . S
C1597 C1596 1.327 . S
C1597 C1601 1.429 . S
C1598 C1581 1.574 . S
C1598 H1592 0.949 . S
C1598 C1602 1.368 1_545 S
C1599 C1580 1.429 1_545 S
C1599 C1593 1.429 . S
C1599 C1600 1.523 . S
C1600 C1581 1.368 . S
C1600 C1594 1.368 1_545 S
C1600 C1599 1.523 . S
C1601 C1585 1.429 1_565 S
C1601 C1597 1.429 . S
C1601 C1602 1.523 . S
C1602 C1586 1.368 . S
C1602 C1598 1.368 1_565 S
C1602 C1601 1.523 . S
H1603 C1578 0.950 . S
H1604 C1580 0.950 . S
H1605 C1581 0.949 . S
H1606 C1583 0.950 . S
H1607 C1585 0.950 . S
C1608 C1609 1.349 . S
C1608 C1610 1.327 . S
C1608 H1633 0.950 . S
C1609 C1608 1.349 . S
C1609 C1625 1.349 1_455 S
C1610 C1608 1.327 . S
C1610 C1629 1.429 . S
C1610 H1634 0.950 . S
C1611 C1628 1.574 . S
C1611 C1630 1.368 1_655 S
C1611 H1635 0.949 . S
H1612 C1616 0.949 . S
C1613 C1614 1.349 . S
C1613 C1615 1.327 . S
C1613 H1636 0.950 . S
C1614 C1613 1.349 . S
C1614 C1626 1.349 1_655 S
C1615 C1613 1.327 . S
C1615 C1631 1.429 . S
C1615 H1637 0.950 . S
C1616 H1612 0.949 . S
C1616 C1624 1.574 . S
C1616 C1632 1.368 1_455 S
H1617 C1625 0.950 . S
H1618 C1623 0.950 . S
H1619 C1624 0.949 . S
H1620 C1626 0.950 . S
H1621 C1627 0.950 . S
H1622 C1628 0.949 . S
C1623 H1618 0.950 . S
C1623 C1625 1.327 . S
C1623 C1629 1.429 1_655 S
C1624 C1616 1.574 . S
C1624 H1619 0.949 . S
C1624 C1630 1.368 . S
C1625 C1609 1.349 1_655 S
C1625 H1617 0.950 . S
C1625 C1623 1.327 . S
C1626 C1614 1.349 1_455 S
C1626 H1620 0.950 . S
C1626 C1627 1.327 . S
C1627 H1621 0.950 . S
C1627 C1626 1.327 . S
C1627 C1631 1.429 1_455 S
C1628 C1611 1.574 . S
C1628 H1622 0.949 . S
C1628 C1632 1.368 . S
C1629 C1610 1.429 . S
C1629 C1623 1.429 1_455 S
C1629 C1630 1.523 . S
C1630 C1611 1.368 1_455 S
C1630 C1624 1.368 . S
C1630 C1629 1.523 . S
C1631 C1615 1.429 . S
C1631 C1627 1.429 1_655 S
C1631 C1632 1.523 . S
C1632 C1616 1.368 1_655 S
C1632 C1628 1.368 . S
C1632 C1631 1.523 . S
H1633 C1608 0.950 . S
H1634 C1610 0.950 . S
H1635 C1611 0.949 . S
H1636 C1613 0.950 . S
H1637 C1615 0.950 . S
C1638 C1639 1.349 . S
C1638 C1640 1.327 . S
C1638 H1663 0.950 . S
C1639 C1638 1.349 . S
C1639 C1655 1.349 . S
C1640 C1638 1.327 . S
C1640 C1659 1.429 . S
C1640 H1664 0.950 . S
C1641 C1658 1.574 . S
C1641 C1660 1.368 . S
C1641 H1665 0.949 . S
H1642 C1646 0.949 . S
C1643 C1644 1.349 . S
C1643 C1645 1.327 . S
C1643 H1666 0.950 . S
C1644 C1643 1.349 . S
C1644 C1656 1.349 . S
C1645 C1643 1.327 . S
C1645 C1661 1.429 . S
C1645 H1667 0.950 . S
C1646 H1642 0.949 . S
C1646 C1654 1.574 . S
C1646 C1662 1.368 . S
H1647 C1655 0.950 . S
H1648 C1653 0.950 . S
H1649 C1654 0.949 . S
H1650 C1656 0.950 . S
H1651 C1657 0.950 . S
H1652 C1658 0.949 . S
C1653 H1648 0.950 . S
C1653 C1655 1.327 . S
C1653 C1659 1.429 . S
C1654 C1646 1.574 . S
C1654 H1649 0.949 . S
C1654 C1660 1.368 . S
C1655 C1639 1.349 . S
C1655 H1647 0.950 . S
C1655 C1653 1.327 . S
C1656 C1644 1.349 . S
C1656 H1650 0.950 . S
C1656 C1657 1.327 . S
C1657 H1651 0.950 . S
C1657 C1656 1.327 . S
C1657 C1661 1.429 . S
C1658 C1641 1.574 . S
C1658 H1652 0.949 . S
C1658 C1662 1.368 . S
C1659 C1640 1.429 . S
C1659 C1653 1.429 . S
C1659 C1660 1.523 . S
C1660 C1641 1.368 . S
C1660 C1654 1.368 . S
C1660 C1659 1.523 . S
C1661 C1645 1.429 . S
C1661 C1657 1.429 . S
C1661 C1662 1.523 . S
C1662 C1646 1.368 . S
C1662 C1658 1.368 . S
C1662 C1661 1.523 . S
H1663 C1638 0.950 . S
H1664 C1640 0.950 . S
H1665 C1641 0.949 . S
H1666 C1643 0.950 . S
H1667 C1645 0.950 . S
C1668 C1669 1.349 . S
C1668 C1670 1.327 . S
C1668 H1693 0.950 . S
C1669 C1668 1.349 . S
C1669 C1685 1.349 1_565 S
C1670 C1668 1.327 . S
C1670 C1689 1.429 . S
C1670 H1694 0.950 . S
C1671 C1688 1.574 . S
C1671 C1690 1.368 1_545 S
C1671 H1695 0.949 . S
H1672 C1676 0.949 . S
C1673 C1674 1.349 . S
C1673 C1675 1.327 . S
C1673 H1696 0.950 . S
C1674 C1673 1.349 . S
C1674 C1686 1.349 1_545 S
C1675 C1673 1.327 . S
C1675 C1691 1.429 . S
C1675 H1697 0.950 . S
C1676 H1672 0.949 . S
C1676 C1684 1.574 . S
C1676 C1692 1.368 1_565 S
H1677 C1685 0.950 . S
H1678 C1683 0.950 . S
H1679 C1684 0.949 . S
H1680 C1686 0.950 . S
H1681 C1687 0.950 . S
H1682 C1688 0.949 . S
C1683 H1678 0.950 . S
C1683 C1685 1.327 . S
C1683 C1689 1.429 1_545 S
C1684 C1676 1.574 . S
C1684 H1679 0.949 . S
C1684 C1690 1.368 . S
C1685 C1669 1.349 1_545 S
C1685 H1677 0.950 . S
C1685 C1683 1.327 . S
C1686 C1674 1.349 1_565 S
C1686 H1680 0.950 . S
C1686 C1687 1.327 . S
C1687 H1681 0.950 . S
C1687 C1686 1.327 . S
C1687 C1691 1.429 1_565 S
C1688 C1671 1.574 . S
C1688 H1682 0.949 . S
C1688 C1692 1.368 . S
C1689 C1670 1.429 . S
C1689 C1683 1.429 1_565 S
C1689 C1690 1.523 . S
C1690 C1671 1.368 1_565 S
C1690 C1684 1.368 . S
C1690 C1689 1.523 . S
C1691 C1675 1.429 . S
C1691 C1687 1.429 1_545 S
C1691 C1692 1.523 . S
C1692 C1676 1.368 1_545 S
C1692 C1688 1.368 . S
C1692 C1691 1.523 . S
H1693 C1668 0.950 . S
H1694 C1670 0.950 . S
H1695 C1671 0.949 . S
H1696 C1673 0.950 . S
H1697 C1675 0.950 . S
C1698 C1699 1.349 . S
C1698 C1700 1.327 . S
C1698 H1723 0.950 . S
C1699 C1698 1.349 . S
C1699 C1715 1.349 . S
C1700 C1698 1.327 . S
C1700 C1719 1.429 . S
C1700 H1724 0.950 . S
C1701 C1718 1.573 . S
C1701 C1720 1.371 1_455 S
C1701 H1725 0.940 . S
H1702 C1706 0.949 . S
C1703 C1704 1.349 . S
C1703 C1705 1.327 . S
C1703 H1726 0.950 . S
C1704 C1703 1.349 . S
C1704 C1716 1.349 . S
C1705 C1703 1.327 . S
C1705 C1721 1.429 . S
C1705 H1727 0.950 . S
C1706 H1702 0.949 . S
C1706 C1714 1.574 . S
C1706 C1722 1.368 1_655 S
H1707 C1715 0.950 . S
H1708 C1713 0.950 . S
H1709 C1714 0.949 . S
H1710 C1716 0.950 . S
H1711 C1717 0.950 . S
H1712 C1718 0.949 . S
C1713 H1708 0.950 . S
C1713 C1715 1.327 . S
C1713 C1719 1.429 . S
C1714 C1706 1.574 . S
C1714 H1709 0.949 . S
C1714 C1720 1.368 . S
C1715 C1699 1.349 . S
C1715 H1707 0.950 . S
C1715 C1713 1.327 . S
C1716 C1704 1.349 . S
C1716 H1710 0.950 . S
C1716 C1717 1.327 . S
C1717 H1711 0.950 . S
C1717 C1716 1.327 . S
C1717 C1721 1.429 . S
C1718 C1701 1.573 . S
C1718 H1712 0.949 . S
C1718 C1722 1.368 . S
C1719 C1700 1.429 . S
C1719 C1713 1.429 . S
C1719 C1720 1.523 . S
C1720 C1701 1.371 1_655 S
C1720 C1714 1.368 . S
C1720 C1719 1.523 . S
C1721 C1705 1.429 . S
C1721 C1717 1.429 . S
C1721 C1722 1.523 . S
C1722 C1706 1.368 1_455 S
C1722 C1718 1.368 . S
C1722 C1721 1.523 . S
H1723 C1698 0.950 . S
H1724 C1700 0.950 . S
H1725 C1701 0.940 . S
H1726 C1703 0.950 . S
H1727 C1705 0.950 . S
C1728 C1729 1.349 . S
C1728 C1730 1.327 . S
C1728 H1753 0.950 . S
C1729 C1728 1.349 . S
C1729 C1745 1.349 . S
C1730 C1728 1.327 . S
C1730 C1749 1.429 . S
C1730 H1754 0.950 . S
C1731 C1748 1.574 . S
C1731 C1750 1.368 . S
C1731 H1755 0.949 . S
H1732 C1736 0.949 . S
C1733 C1734 1.349 . S
C1733 C1735 1.327 . S
C1733 H1756 0.950 . S
C1734 C1733 1.349 . S
C1734 C1746 1.349 . S
C1735 C1733 1.327 . S
C1735 C1751 1.429 . S
C1735 H1757 0.950 . S
C1736 H1732 0.949 . S
C1736 C1744 1.574 . S
C1736 C1752 1.368 . S
H1737 C1745 0.950 . S
H1738 C1743 0.950 . S
H1739 C1744 0.949 . S
H1740 C1746 0.950 . S
H1741 C1747 0.950 . S
H1742 C1748 0.949 . S
C1743 H1738 0.950 . S
C1743 C1745 1.327 . S
C1743 C1749 1.429 . S
C1744 C1736 1.574 . S
C1744 H1739 0.949 . S
C1744 C1750 1.368 . S
C1745 C1729 1.349 . S
C1745 H1737 0.950 . S
C1745 C1743 1.327 . S
C1746 C1734 1.349 . S
C1746 H1740 0.950 . S
C1746 C1747 1.327 . S
C1747 H1741 0.950 . S
C1747 C1746 1.327 . S
C1747 C1751 1.429 . S
C1748 C1731 1.574 . S
C1748 H1742 0.949 . S
C1748 C1752 1.368 . S
C1749 C1730 1.429 . S
C1749 C1743 1.429 . S
C1749 C1750 1.523 . S
C1750 C1731 1.368 . S
C1750 C1744 1.368 . S
C1750 C1749 1.523 . S
C1751 C1735 1.429 . S
C1751 C1747 1.429 . S
C1751 C1752 1.523 . S
C1752 C1736 1.368 . S
C1752 C1748 1.368 . S
C1752 C1751 1.523 . S
H1753 C1728 0.950 . S
H1754 C1730 0.950 . S
H1755 C1731 0.949 . S
H1756 C1733 0.950 . S
H1757 C1735 0.950 . S
C1758 C1759 1.349 . S
C1758 C1760 1.327 . S
C1758 H1783 0.950 . S
C1759 C1758 1.349 . S
C1759 C1775 1.349 . S
C1760 C1758 1.327 . S
C1760 C1779 1.429 . S
C1760 H1784 0.950 . S
C1761 C1778 1.574 . S
C1761 C1780 1.368 . S
C1761 H1785 0.949 . S
H1762 C1766 0.949 . S
C1763 C1764 1.349 . S
C1763 C1765 1.327 . S
C1763 H1786 0.950 . S
C1764 C1763 1.349 . S
C1764 C1776 1.349 . S
C1765 C1763 1.327 . S
C1765 C1781 1.429 . S
C1765 H1787 0.950 . S
C1766 H1762 0.949 . S
C1766 C1774 1.574 . S
C1766 C1782 1.368 . S
H1767 C1775 0.950 . S
H1768 C1773 0.950 . S
H1769 C1774 0.949 . S
H1770 C1776 0.950 . S
H1771 C1777 0.950 . S
H1772 C1778 0.949 . S
C1773 H1768 0.950 . S
C1773 C1775 1.327 . S
C1773 C1779 1.429 . S
C1774 C1766 1.574 . S
C1774 H1769 0.949 . S
C1774 C1780 1.368 . S
C1775 C1759 1.349 . S
C1775 H1767 0.950 . S
C1775 C1773 1.327 . S
C1776 C1764 1.349 . S
C1776 H1770 0.950 . S
C1776 C1777 1.327 . S
C1777 H1771 0.950 . S
C1777 C1776 1.327 . S
C1777 C1781 1.429 . S
C1778 C1761 1.574 . S
C1778 H1772 0.949 . S
C1778 C1782 1.368 . S
C1779 C1760 1.429 . S
C1779 C1773 1.429 . S
C1779 C1780 1.523 . S
C1780 C1761 1.368 . S
C1780 C1774 1.368 . S
C1780 C1779 1.523 . S
C1781 C1765 1.429 . S
C1781 C1777 1.429 . S
C1781 C1782 1.523 . S
C1782 C1766 1.368 . S
C1782 C1778 1.368 . S
C1782 C1781 1.523 . S
H1783 C1758 0.950 . S
H1784 C1760 0.950 . S
H1785 C1761 0.949 . S
H1786 C1763 0.950 . S
H1787 C1765 0.950 . S
C1788 C1789 1.349 . S
C1788 C1790 1.327 . S
C1788 H1813 0.950 . S
C1789 C1788 1.349 . S
C1789 C1805 1.349 . S
C1790 C1788 1.327 . S
C1790 C1809 1.429 . S
C1790 H1814 0.950 . S
C1791 C1808 1.574 . S
C1791 C1810 1.368 . S
C1791 H1815 0.949 . S
H1792 C1796 0.949 . S
C1793 C1794 1.349 . S
C1793 C1795 1.327 . S
C1793 H1816 0.950 . S
C1794 C1793 1.349 . S
C1794 C1806 1.349 . S
C1795 C1793 1.327 . S
C1795 C1811 1.429 . S
C1795 H1817 0.950 . S
C1796 H1792 0.949 . S
C1796 C1804 1.574 . S
C1796 C1812 1.368 . S
H1797 C1805 0.950 . S
H1798 C1803 0.950 . S
H1799 C1804 0.949 . S
H1800 C1806 0.950 . S
H1801 C1807 0.950 . S
H1802 C1808 0.949 . S
C1803 H1798 0.950 . S
C1803 C1805 1.327 . S
C1803 C1809 1.429 . S
C1804 C1796 1.574 . S
C1804 H1799 0.949 . S
C1804 C1810 1.368 . S
C1805 C1789 1.349 . S
C1805 H1797 0.950 . S
C1805 C1803 1.327 . S
C1806 C1794 1.349 . S
C1806 H1800 0.950 . S
C1806 C1807 1.327 . S
C1807 H1801 0.950 . S
C1807 C1806 1.327 . S
C1807 C1811 1.429 . S
C1808 C1791 1.574 . S
C1808 H1802 0.949 . S
C1808 C1812 1.368 . S
C1809 C1790 1.429 . S
C1809 C1803 1.429 . S
C1809 C1810 1.523 . S
C1810 C1791 1.368 . S
C1810 C1804 1.368 . S
C1810 C1809 1.523 . S
C1811 C1795 1.429 . S
C1811 C1807 1.429 . S
C1811 C1812 1.523 . S
C1812 C1796 1.368 . S
C1812 C1808 1.368 . S
C1812 C1811 1.523 . S
H1813 C1788 0.950 . S
H1814 C1790 0.950 . S
H1815 C1791 0.949 . S
H1816 C1793 0.950 . S
H1817 C1795 0.950 . S
C1818 C1819 1.349 . S
C1818 C1820 1.327 . S
C1818 H1843 0.950 . S
C1819 C1818 1.349 . S
C1819 C1835 1.349 . S
C1820 C1818 1.327 . S
C1820 C1839 1.429 . S
C1820 H1844 0.950 . S
C1821 C1838 1.574 . S
C1821 C1840 1.368 . S
C1821 H1845 0.949 . S
H1822 C1826 0.949 . S
C1823 C1824 1.349 . S
C1823 C1825 1.327 . S
C1823 H1846 0.950 . S
C1824 C1823 1.349 . S
C1824 C1836 1.349 . S
C1825 C1823 1.327 . S
C1825 C1841 1.429 . S
C1825 H1847 0.950 . S
C1826 H1822 0.949 . S
C1826 C1834 1.574 . S
C1826 C1842 1.368 . S
H1827 C1835 0.950 . S
H1828 C1833 0.950 . S
H1829 C1834 0.949 . S
H1830 C1836 0.950 . S
H1831 C1837 0.950 . S
H1832 C1838 0.949 . S
C1833 H1828 0.950 . S
C1833 C1835 1.327 . S
C1833 C1839 1.429 . S
C1834 C1826 1.574 . S
C1834 H1829 0.949 . S
C1834 C1840 1.368 . S
C1835 C1819 1.349 . S
C1835 H1827 0.950 . S
C1835 C1833 1.327 . S
C1836 C1824 1.349 . S
C1836 H1830 0.950 . S
C1836 C1837 1.327 . S
C1837 H1831 0.950 . S
C1837 C1836 1.327 . S
C1837 C1841 1.429 . S
C1838 C1821 1.574 . S
C1838 H1832 0.949 . S
C1838 C1842 1.368 . S
C1839 C1820 1.429 . S
C1839 C1833 1.429 . S
C1839 C1840 1.523 . S
C1840 C1821 1.368 . S
C1840 C1834 1.368 . S
C1840 C1839 1.523 . S
C1841 C1825 1.429 . S
C1841 C1837 1.429 . S
C1841 C1842 1.523 . S
C1842 C1826 1.368 . S
C1842 C1838 1.368 . S
C1842 C1841 1.523 . S
H1843 C1818 0.950 . S
H1844 C1820 0.950 . S
H1845 C1821 0.949 . S
H1846 C1823 0.950 . S
H1847 C1825 0.950 . S
C1848 C1849 1.349 . S
C1848 C1850 1.327 . S
C1848 H1873 0.950 . S
C1849 C1848 1.349 . S
C1849 C1865 1.349 . S
C1850 C1848 1.327 . S
C1850 C1869 1.429 . S
C1850 H1874 0.950 . S
C1851 C1868 1.574 . S
C1851 C1870 1.368 . S
C1851 H1875 0.949 . S
H1852 C1856 0.949 . S
C1853 C1854 1.349 . S
C1853 C1855 1.327 . S
C1853 H1876 0.950 . S
C1854 C1853 1.349 . S
C1854 C1866 1.349 . S
C1855 C1853 1.327 . S
C1855 C1871 1.429 . S
C1855 H1877 0.950 . S
C1856 H1852 0.949 . S
C1856 C1864 1.574 . S
C1856 C1872 1.368 . S
H1857 C1865 0.950 . S
H1858 C1863 0.950 . S
H1859 C1864 0.949 . S
H1860 C1866 0.950 . S
H1861 C1867 0.950 . S
H1862 C1868 0.949 . S
C1863 H1858 0.950 . S
C1863 C1865 1.327 . S
C1863 C1869 1.429 . S
C1864 C1856 1.574 . S
C1864 H1859 0.949 . S
C1864 C1870 1.368 . S
C1865 C1849 1.349 . S
C1865 H1857 0.950 . S
C1865 C1863 1.327 . S
C1866 C1854 1.349 . S
C1866 H1860 0.950 . S
C1866 C1867 1.327 . S
C1867 H1861 0.950 . S
C1867 C1866 1.327 . S
C1867 C1871 1.429 . S
C1868 C1851 1.574 . S
C1868 H1862 0.949 . S
C1868 C1872 1.368 . S
C1869 C1850 1.429 . S
C1869 C1863 1.429 . S
C1869 C1870 1.523 . S
C1870 C1851 1.368 . S
C1870 C1864 1.368 . S
C1870 C1869 1.523 . S
C1871 C1855 1.429 . S
C1871 C1867 1.429 . S
C1871 C1872 1.523 . S
C1872 C1856 1.368 . S
C1872 C1868 1.368 . S
C1872 C1871 1.523 . S
H1873 C1848 0.950 . S
H1874 C1850 0.950 . S
H1875 C1851 0.949 . S
H1876 C1853 0.950 . S
H1877 C1855 0.950 . S
C1878 C1879 1.349 . S
C1878 C1880 1.327 . S
C1878 H1903 0.950 . S
C1879 C1878 1.349 . S
C1879 C1895 1.349 . S
C1880 C1878 1.327 . S
C1880 C1899 1.429 . S
C1880 H1904 0.950 . S
C1881 C1898 1.574 . S
C1881 C1900 1.368 . S
C1881 H1905 0.949 . S
H1882 C1886 0.949 . S
C1883 C1884 1.349 . S
C1883 C1885 1.327 . S
C1883 H1906 0.950 . S
C1884 C1883 1.349 . S
C1884 C1896 1.349 . S
C1885 C1883 1.327 . S
C1885 C1901 1.429 . S
C1885 H1907 0.950 . S
C1886 H1882 0.949 . S
C1886 C1894 1.574 . S
C1886 C1902 1.368 . S
H1887 C1895 0.950 . S
H1888 C1893 0.950 . S
H1889 C1894 0.949 . S
H1890 C1896 0.950 . S
H1891 C1897 0.950 . S
H1892 C1898 0.949 . S
C1893 H1888 0.950 . S
C1893 C1895 1.327 . S
C1893 C1899 1.429 . S
C1894 C1886 1.574 . S
C1894 H1889 0.949 . S
C1894 C1900 1.368 . S
C1895 C1879 1.349 . S
C1895 H1887 0.950 . S
C1895 C1893 1.327 . S
C1896 C1884 1.349 . S
C1896 H1890 0.950 . S
C1896 C1897 1.327 . S
C1897 H1891 0.950 . S
C1897 C1896 1.327 . S
C1897 C1901 1.429 . S
C1898 C1881 1.574 . S
C1898 H1892 0.949 . S
C1898 C1902 1.368 . S
C1899 C1880 1.429 . S
C1899 C1893 1.429 . S
C1899 C1900 1.523 . S
C1900 C1881 1.368 . S
C1900 C1894 1.368 . S
C1900 C1899 1.523 . S
C1901 C1885 1.429 . S
C1901 C1897 1.429 . S
C1901 C1902 1.523 . S
C1902 C1886 1.368 . S
C1902 C1898 1.368 . S
C1902 C1901 1.523 . S
H1903 C1878 0.950 . S
H1904 C1880 0.950 . S
H1905 C1881 0.949 . S
H1906 C1883 0.950 . S
H1907 C1885 0.950 . S
C1908 C1909 1.349 . S
C1908 C1910 1.327 . S
C1908 H1933 0.950 . S
C1909 C1908 1.349 . S
C1909 C1925 1.349 . S
C1910 C1908 1.327 . S
C1910 C1929 1.429 . S
C1910 H1934 0.950 . S
C1911 C1928 1.574 . S
C1911 C1930 1.368 . S
C1911 H1935 0.949 . S
H1912 C1916 0.949 . S
C1913 C1914 1.349 . S
C1913 C1915 1.327 . S
C1913 H1936 0.950 . S
C1914 C1913 1.349 . S
C1914 C1926 1.349 . S
C1915 C1913 1.327 . S
C1915 C1931 1.429 . S
C1915 H1937 0.950 . S
C1916 H1912 0.949 . S
C1916 C1924 1.574 . S
C1916 C1932 1.368 . S
H1917 C1925 0.950 . S
H1918 C1923 0.950 . S
H1919 C1924 0.949 . S
H1920 C1926 0.950 . S
H1921 C1927 0.950 . S
H1922 C1928 0.949 . S
C1923 H1918 0.950 . S
C1923 C1925 1.327 . S
C1923 C1929 1.429 . S
C1924 C1916 1.574 . S
C1924 H1919 0.949 . S
C1924 C1930 1.368 . S
C1925 C1909 1.349 . S
C1925 H1917 0.950 . S
C1925 C1923 1.327 . S
C1926 C1914 1.349 . S
C1926 H1920 0.950 . S
C1926 C1927 1.327 . S
C1927 H1921 0.950 . S
C1927 C1926 1.327 . S
C1927 C1931 1.429 . S
C1928 C1911 1.574 . S
C1928 H1922 0.949 . S
C1928 C1932 1.368 . S
C1929 C1910 1.429 . S
C1929 C1923 1.429 . S
C1929 C1930 1.523 . S
C1930 C1911 1.368 . S
C1930 C1924 1.368 . S
C1930 C1929 1.523 . S
C1931 C1915 1.429 . S
C1931 C1927 1.429 . S
C1931 C1932 1.523 . S
C1932 C1916 1.368 . S
C1932 C1928 1.368 . S
C1932 C1931 1.523 . S
H1933 C1908 0.950 . S
H1934 C1910 0.950 . S
H1935 C1911 0.949 . S
H1936 C1913 0.950 . S
H1937 C1915 0.950 . S
C1938 C1939 1.349 . S
C1938 C1940 1.327 . S
C1938 H1963 0.950 . S
C1939 C1938 1.349 . S
C1939 C1955 1.349 . S
C1940 C1938 1.327 . S
C1940 C1959 1.429 . S
C1940 H1964 0.950 . S
C1941 C1958 1.574 . S
C1941 C1960 1.368 . S
C1941 H1965 0.949 . S
H1942 C1946 0.949 . S
C1943 C1944 1.349 . S
C1943 C1945 1.327 . S
C1943 H1966 0.950 . S
C1944 C1943 1.349 . S
C1944 C1956 1.349 . S
C1945 C1943 1.327 . S
C1945 C1961 1.429 . S
C1945 H1967 0.950 . S
C1946 H1942 0.949 . S
C1946 C1954 1.574 . S
C1946 C1962 1.368 . S
H1947 C1955 0.950 . S
H1948 C1953 0.950 . S
H1949 C1954 0.949 . S
H1950 C1956 0.950 . S
H1951 C1957 0.950 . S
H1952 C1958 0.949 . S
C1953 H1948 0.950 . S
C1953 C1955 1.327 . S
C1953 C1959 1.429 . S
C1954 C1946 1.574 . S
C1954 H1949 0.949 . S
C1954 C1960 1.368 . S
C1955 C1939 1.349 . S
C1955 H1947 0.950 . S
C1955 C1953 1.327 . S
C1956 C1944 1.349 . S
C1956 H1950 0.950 . S
C1956 C1957 1.327 . S
C1957 H1951 0.950 . S
C1957 C1956 1.327 . S
C1957 C1961 1.429 . S
C1958 C1941 1.574 . S
C1958 H1952 0.949 . S
C1958 C1962 1.368 . S
C1959 C1940 1.429 . S
C1959 C1953 1.429 . S
C1959 C1960 1.523 . S
C1960 C1941 1.368 . S
C1960 C1954 1.368 . S
C1960 C1959 1.523 . S
C1961 C1945 1.429 . S
C1961 C1957 1.429 . S
C1961 C1962 1.523 . S
C1962 C1946 1.368 . S
C1962 C1958 1.368 . S
C1962 C1961 1.523 . S
H1963 C1938 0.950 . S
H1964 C1940 0.950 . S
H1965 C1941 0.949 . S
H1966 C1943 0.950 . S
H1967 C1945 0.950 . S
C1968 C1969 1.349 . S
C1968 C1970 1.327 . S
C1968 H1993 0.950 . S
C1969 C1968 1.349 . S
C1969 C1985 1.349 . S
C1970 C1968 1.327 . S
C1970 C1989 1.429 . S
C1970 H1994 0.950 . S
C1971 C1988 1.574 . S
C1971 C1990 1.368 . S
C1971 H1995 0.949 . S
H1972 C1976 0.949 . S
C1973 C1974 1.349 . S
C1973 C1975 1.327 . S
C1973 H1996 0.950 . S
C1974 C1973 1.349 . S
C1974 C1986 1.349 . S
C1975 C1973 1.327 . S
C1975 C1991 1.429 . S
C1975 H1997 0.950 . S
C1976 H1972 0.949 . S
C1976 C1984 1.574 . S
C1976 C1992 1.368 . S
H1977 C1985 0.950 . S
H1978 C1983 0.950 . S
H1979 C1984 0.949 . S
H1980 C1986 0.950 . S
H1981 C1987 0.950 . S
H1982 C1988 0.949 . S
C1983 H1978 0.950 . S
C1983 C1985 1.327 . S
C1983 C1989 1.429 . S
C1984 C1976 1.574 . S
C1984 H1979 0.949 . S
C1984 C1990 1.368 . S
C1985 C1969 1.349 . S
C1985 H1977 0.950 . S
C1985 C1983 1.327 . S
C1986 C1974 1.349 . S
C1986 H1980 0.950 . S
C1986 C1987 1.327 . S
C1987 H1981 0.950 . S
C1987 C1986 1.327 . S
C1987 C1991 1.429 . S
C1988 C1971 1.574 . S
C1988 H1982 0.949 . S
C1988 C1992 1.368 . S
C1989 C1970 1.429 . S
C1989 C1983 1.429 . S
C1989 C1990 1.523 . S
C1990 C1971 1.368 . S
C1990 C1984 1.368 . S
C1990 C1989 1.523 . S
C1991 C1975 1.429 . S
C1991 C1987 1.429 . S
C1991 C1992 1.523 . S
C1992 C1976 1.368 . S
C1992 C1988 1.368 . S
C1992 C1991 1.523 . S
H1993 C1968 0.950 . S
H1994 C1970 0.950 . S
H1995 C1971 0.949 . S
H1996 C1973 0.950 . S
H1997 C1975 0.950 . S
C1998 C1999 1.349 . S
C1998 C2000 1.327 . S
C1998 H2023 0.950 . S
C1999 C1998 1.349 . S
C1999 C2015 1.349 . S
C2000 C1998 1.327 . S
C2000 C2019 1.429 . S
C2000 H2024 0.950 . S
C2001 C2018 1.574 . S
C2001 C2020 1.368 . S
C2001 H2025 0.949 . S
H2002 C2006 0.949 . S
C2003 C2004 1.349 . S
C2003 C2005 1.327 . S
C2003 H2026 0.950 . S
C2004 C2003 1.349 . S
C2004 C2016 1.349 . S
C2005 C2003 1.327 . S
C2005 C2021 1.429 . S
C2005 H2027 0.950 . S
C2006 H2002 0.949 . S
C2006 C2014 1.574 . S
C2006 C2022 1.368 . S
H2007 C2015 0.950 . S
H2008 C2013 0.950 . S
H2009 C2014 0.949 . S
H2010 C2016 0.950 . S
H2011 C2017 0.950 . S
H2012 C2018 0.949 . S
C2013 H2008 0.950 . S
C2013 C2015 1.327 . S
C2013 C2019 1.429 . S
C2014 C2006 1.574 . S
C2014 H2009 0.949 . S
C2014 C2020 1.368 . S
C2015 C1999 1.349 . S
C2015 H2007 0.950 . S
C2015 C2013 1.327 . S
C2016 C2004 1.349 . S
C2016 H2010 0.950 . S
C2016 C2017 1.327 . S
C2017 H2011 0.950 . S
C2017 C2016 1.327 . S
C2017 C2021 1.429 . S
C2018 C2001 1.574 . S
C2018 H2012 0.949 . S
C2018 C2022 1.368 . S
C2019 C2000 1.429 . S
C2019 C2013 1.429 . S
C2019 C2020 1.523 . S
C2020 C2001 1.368 . S
C2020 C2014 1.368 . S
C2020 C2019 1.523 . S
C2021 C2005 1.429 . S
C2021 C2017 1.429 . S
C2021 C2022 1.523 . S
C2022 C2006 1.368 . S
C2022 C2018 1.368 . S
C2022 C2021 1.523 . S
H2023 C1998 0.950 . S
H2024 C2000 0.950 . S
H2025 C2001 0.949 . S
H2026 C2003 0.950 . S
H2027 C2005 0.950 . S
C2028 C2029 1.349 . S
C2028 C2030 1.327 . S
C2028 H2053 0.950 . S
C2029 C2028 1.349 . S
C2029 C2045 1.349 . S
C2030 C2028 1.327 . S
C2030 C2049 1.429 . S
C2030 H2054 0.950 . S
C2031 C2048 1.574 . S
C2031 C2050 1.368 . S
C2031 H2055 0.949 . S
H2032 C2036 0.949 . S
C2033 C2034 1.349 . S
C2033 C2035 1.327 . S
C2033 H2056 0.950 . S
C2034 C2033 1.349 . S
C2034 C2046 1.349 . S
C2035 C2033 1.327 . S
C2035 C2051 1.429 . S
C2035 H2057 0.950 . S
C2036 H2032 0.949 . S
C2036 C2044 1.574 . S
C2036 C2052 1.368 . S
H2037 C2045 0.950 . S
H2038 C2043 0.950 . S
H2039 C2044 0.949 . S
H2040 C2046 0.950 . S
H2041 C2047 0.950 . S
H2042 C2048 0.949 . S
C2043 H2038 0.950 . S
C2043 C2045 1.327 . S
C2043 C2049 1.429 . S
C2044 C2036 1.574 . S
C2044 H2039 0.949 . S
C2044 C2050 1.368 . S
C2045 C2029 1.349 . S
C2045 H2037 0.950 . S
C2045 C2043 1.327 . S
C2046 C2034 1.349 . S
C2046 H2040 0.950 . S
C2046 C2047 1.327 . S
C2047 H2041 0.950 . S
C2047 C2046 1.327 . S
C2047 C2051 1.429 . S
C2048 C2031 1.574 . S
C2048 H2042 0.949 . S
C2048 C2052 1.368 . S
C2049 C2030 1.429 . S
C2049 C2043 1.429 . S
C2049 C2050 1.523 . S
C2050 C2031 1.368 . S
C2050 C2044 1.368 . S
C2050 C2049 1.523 . S
C2051 C2035 1.429 . S
C2051 C2047 1.429 . S
C2051 C2052 1.523 . S
C2052 C2036 1.368 . S
C2052 C2048 1.368 . S
C2052 C2051 1.523 . S
H2053 C2028 0.950 . S
H2054 C2030 0.950 . S
H2055 C2031 0.949 . S
H2056 C2033 0.950 . S
H2057 C2035 0.950 . S
C2058 C2059 1.349 . S
C2058 C2060 1.327 . S
C2058 H2083 0.950 . S
C2059 C2058 1.349 . S
C2059 C2075 1.349 . S
C2060 C2058 1.327 . S
C2060 C2079 1.429 . S
C2060 H2084 0.950 . S
C2061 C2078 1.574 . S
C2061 C2080 1.368 . S
C2061 H2085 0.949 . S
H2062 C2066 0.949 . S
C2063 C2064 1.349 . S
C2063 C2065 1.327 . S
C2063 H2086 0.950 . S
C2064 C2063 1.349 . S
C2064 C2076 1.349 . S
C2065 C2063 1.327 . S
C2065 C2081 1.429 . S
C2065 H2087 0.950 . S
C2066 H2062 0.949 . S
C2066 C2074 1.574 . S
C2066 C2082 1.368 . S
H2067 C2075 0.950 . S
H2068 C2073 0.950 . S
H2069 C2074 0.949 . S
H2070 C2076 0.950 . S
H2071 C2077 0.950 . S
H2072 C2078 0.949 . S
C2073 H2068 0.950 . S
C2073 C2075 1.327 . S
C2073 C2079 1.429 . S
C2074 C2066 1.574 . S
C2074 H2069 0.949 . S
C2074 C2080 1.368 . S
C2075 C2059 1.349 . S
C2075 H2067 0.950 . S
C2075 C2073 1.327 . S
C2076 C2064 1.349 . S
C2076 H2070 0.950 . S
C2076 C2077 1.327 . S
C2077 H2071 0.950 . S
C2077 C2076 1.327 . S
C2077 C2081 1.429 . S
C2078 C2061 1.574 . S
C2078 H2072 0.949 . S
C2078 C2082 1.368 . S
C2079 C2060 1.429 . S
C2079 C2073 1.429 . S
C2079 C2080 1.523 . S
C2080 C2061 1.368 . S
C2080 C2074 1.368 . S
C2080 C2079 1.523 . S
C2081 C2065 1.429 . S
C2081 C2077 1.429 . S
C2081 C2082 1.523 . S
C2082 C2066 1.368 . S
C2082 C2078 1.368 . S
C2082 C2081 1.523 . S
H2083 C2058 0.950 . S
H2084 C2060 0.950 . S
H2085 C2061 0.949 . S
H2086 C2063 0.950 . S
H2087 C2065 0.950 . S
C2088 C2089 1.349 . S
C2088 C2090 1.327 . S
C2088 H2113 0.950 . S
C2089 C2088 1.349 . S
C2089 C2105 1.349 . S
C2090 C2088 1.327 . S
C2090 C2109 1.429 . S
C2090 H2114 0.950 . S
C2091 C2108 1.574 . S
C2091 C2110 1.368 . S
C2091 H2115 0.949 . S
H2092 C2096 0.949 . S
C2093 C2094 1.349 . S
C2093 C2095 1.327 . S
C2093 H2116 0.950 . S
C2094 C2093 1.349 . S
C2094 C2106 1.349 . S
C2095 C2093 1.327 . S
C2095 C2111 1.429 . S
C2095 H2117 0.950 . S
C2096 H2092 0.949 . S
C2096 C2104 1.574 . S
C2096 C2112 1.368 . S
H2097 C2105 0.950 . S
H2098 C2103 0.950 . S
H2099 C2104 0.949 . S
H2100 C2106 0.950 . S
H2101 C2107 0.950 . S
H2102 C2108 0.949 . S
C2103 H2098 0.950 . S
C2103 C2105 1.327 . S
C2103 C2109 1.429 . S
C2104 C2096 1.574 . S
C2104 H2099 0.949 . S
C2104 C2110 1.368 . S
C2105 C2089 1.349 . S
C2105 H2097 0.950 . S
C2105 C2103 1.327 . S
C2106 C2094 1.349 . S
C2106 H2100 0.950 . S
C2106 C2107 1.327 . S
C2107 H2101 0.950 . S
C2107 C2106 1.327 . S
C2107 C2111 1.429 . S
C2108 C2091 1.574 . S
C2108 H2102 0.949 . S
C2108 C2112 1.368 . S
C2109 C2090 1.429 . S
C2109 C2103 1.429 . S
C2109 C2110 1.523 . S
C2110 C2091 1.368 . S
C2110 C2104 1.368 . S
C2110 C2109 1.523 . S
C2111 C2095 1.429 . S
C2111 C2107 1.429 . S
C2111 C2112 1.523 . S
C2112 C2096 1.368 . S
C2112 C2108 1.368 . S
C2112 C2111 1.523 . S
H2113 C2088 0.950 . S
H2114 C2090 0.950 . S
H2115 C2091 0.949 . S
H2116 C2093 0.950 . S
H2117 C2095 0.950 . S
C2118 C2119 1.349 . S
C2118 C2120 1.327 . S
C2118 H2143 0.950 . S
C2119 C2118 1.349 . S
C2119 C2135 1.349 . S
C2120 C2118 1.327 . S
C2120 C2139 1.429 . S
C2120 H2144 0.950 . S
C2121 C2138 1.574 . S
C2121 C2140 1.368 . S
C2121 H2145 0.949 . S
H2122 C2126 0.949 . S
C2123 C2124 1.349 . S
C2123 C2125 1.327 . S
C2123 H2146 0.950 . S
C2124 C2123 1.349 . S
C2124 C2136 1.349 . S
C2125 C2123 1.327 . S
C2125 C2141 1.429 . S
C2125 H2147 0.950 . S
C2126 H2122 0.949 . S
C2126 C2134 1.574 . S
C2126 C2142 1.368 . S
H2127 C2135 0.950 . S
H2128 C2133 0.950 . S
H2129 C2134 0.949 . S
H2130 C2136 0.950 . S
H2131 C2137 0.950 . S
H2132 C2138 0.949 . S
C2133 H2128 0.950 . S
C2133 C2135 1.327 . S
C2133 C2139 1.429 . S
C2134 C2126 1.574 . S
C2134 H2129 0.949 . S
C2134 C2140 1.368 . S
C2135 C2119 1.349 . S
C2135 H2127 0.950 . S
C2135 C2133 1.327 . S
C2136 C2124 1.349 . S
C2136 H2130 0.950 . S
C2136 C2137 1.327 . S
C2137 H2131 0.950 . S
C2137 C2136 1.327 . S
C2137 C2141 1.429 . S
C2138 C2121 1.574 . S
C2138 H2132 0.949 . S
C2138 C2142 1.368 . S
C2139 C2120 1.429 . S
C2139 C2133 1.429 . S
C2139 C2140 1.523 . S
C2140 C2121 1.368 . S
C2140 C2134 1.368 . S
C2140 C2139 1.523 . S
C2141 C2125 1.429 . S
C2141 C2137 1.429 . S
C2141 C2142 1.523 . S
C2142 C2126 1.368 . S
C2142 C2138 1.368 . S
C2142 C2141 1.523 . S
H2143 C2118 0.950 . S
H2144 C2120 0.950 . S
H2145 C2121 0.949 . S
H2146 C2123 0.950 . S
H2147 C2125 0.950 . S
C2148 C2149 1.349 . S
C2148 C2150 1.327 . S
C2148 H2173 0.950 . S
C2149 C2148 1.349 . S
C2149 C2165 1.349 . S
C2150 C2148 1.327 . S
C2150 C2169 1.429 . S
C2150 H2174 0.950 . S
C2151 C2168 1.574 . S
C2151 C2170 1.368 . S
C2151 H2175 0.949 . S
H2152 C2156 0.949 . S
C2153 C2154 1.349 . S
C2153 C2155 1.327 . S
C2153 H2176 0.950 . S
C2154 C2153 1.349 . S
C2154 C2166 1.349 . S
C2155 C2153 1.327 . S
C2155 C2171 1.429 . S
C2155 H2177 0.950 . S
C2156 H2152 0.949 . S
C2156 C2164 1.574 . S
C2156 C2172 1.368 . S
H2157 C2165 0.950 . S
H2158 C2163 0.950 . S
H2159 C2164 0.949 . S
H2160 C2166 0.950 . S
H2161 C2167 0.950 . S
H2162 C2168 0.949 . S
C2163 H2158 0.950 . S
C2163 C2165 1.327 . S
C2163 C2169 1.429 . S
C2164 C2156 1.574 . S
C2164 H2159 0.949 . S
C2164 C2170 1.368 . S
C2165 C2149 1.349 . S
C2165 H2157 0.950 . S
C2165 C2163 1.327 . S
C2166 C2154 1.349 . S
C2166 H2160 0.950 . S
C2166 C2167 1.327 . S
C2167 H2161 0.950 . S
C2167 C2166 1.327 . S
C2167 C2171 1.429 . S
C2168 C2151 1.574 . S
C2168 H2162 0.949 . S
C2168 C2172 1.368 . S
C2169 C2150 1.429 . S
C2169 C2163 1.429 . S
C2169 C2170 1.523 . S
C2170 C2151 1.368 . S
C2170 C2164 1.368 . S
C2170 C2169 1.523 . S
C2171 C2155 1.429 . S
C2171 C2167 1.429 . S
C2171 C2172 1.523 . S
C2172 C2156 1.368 . S
C2172 C2168 1.368 . S
C2172 C2171 1.523 . S
H2173 C2148 0.950 . S
H2174 C2150 0.950 . S
H2175 C2151 0.949 . S
H2176 C2153 0.950 . S
H2177 C2155 0.950 . S
C2178 C2179 1.349 . S
C2178 C2180 1.327 . S
C2178 H2203 0.950 . S
C2179 C2178 1.349 . S
C2179 C2195 1.349 . S
C2180 C2178 1.327 . S
C2180 C2199 1.429 . S
C2180 H2204 0.950 . S
C2181 C2198 1.574 . S
C2181 C2200 1.368 . S
C2181 H2205 0.949 . S
H2182 C2186 0.949 . S
C2183 C2184 1.349 . S
C2183 C2185 1.327 . S
C2183 H2206 0.950 . S
C2184 C2183 1.349 . S
C2184 C2196 1.349 . S
C2185 C2183 1.327 . S
C2185 C2201 1.429 . S
C2185 H2207 0.950 . S
C2186 H2182 0.949 . S
C2186 C2194 1.574 . S
C2186 C2202 1.368 . S
H2187 C2195 0.950 . S
H2188 C2193 0.950 . S
H2189 C2194 0.949 . S
H2190 C2196 0.950 . S
H2191 C2197 0.950 . S
H2192 C2198 0.949 . S
C2193 H2188 0.950 . S
C2193 C2195 1.327 . S
C2193 C2199 1.429 . S
C2194 C2186 1.574 . S
C2194 H2189 0.949 . S
C2194 C2200 1.368 . S
C2195 C2179 1.349 . S
C2195 H2187 0.950 . S
C2195 C2193 1.327 . S
C2196 C2184 1.349 . S
C2196 H2190 0.950 . S
C2196 C2197 1.327 . S
C2197 H2191 0.950 . S
C2197 C2196 1.327 . S
C2197 C2201 1.429 . S
C2198 C2181 1.574 . S
C2198 H2192 0.949 . S
C2198 C2202 1.368 . S
C2199 C2180 1.429 . S
C2199 C2193 1.429 . S
C2199 C2200 1.523 . S
C2200 C2181 1.368 . S
C2200 C2194 1.368 . S
C2200 C2199 1.523 . S
C2201 C2185 1.429 . S
C2201 C2197 1.429 . S
C2201 C2202 1.523 . S
C2202 C2186 1.368 . S
C2202 C2198 1.368 . S
C2202 C2201 1.523 . S
H2203 C2178 0.950 . S
H2204 C2180 0.950 . S
H2205 C2181 0.949 . S
H2206 C2183 0.950 . S
H2207 C2185 0.950 . S
C2208 C2209 1.349 . S
C2208 C2210 1.327 . S
C2208 H2233 0.950 . S
C2209 C2208 1.349 . S
C2209 C2225 1.349 . S
C2210 C2208 1.327 . S
C2210 C2229 1.429 . S
C2210 H2234 0.950 . S
C2211 C2228 1.574 . S
C2211 C2230 1.368 . S
C2211 H2235 0.949 . S
H2212 C2216 0.949 . S
C2213 C2214 1.349 . S
C2213 C2215 1.327 . S
C2213 H2236 0.950 . S
C2214 C2213 1.349 . S
C2214 C2226 1.349 . S
C2215 C2213 1.327 . S
C2215 C2231 1.429 . S
C2215 H2237 0.950 . S
C2216 H2212 0.949 . S
C2216 C2224 1.574 . S
C2216 C2232 1.368 . S
H2217 C2225 0.950 . S
H2218 C2223 0.950 . S
H2219 C2224 0.949 . S
H2220 C2226 0.950 . S
H2221 C2227 0.950 . S
H2222 C2228 0.949 . S
C2223 H2218 0.950 . S
C2223 C2225 1.327 . S
C2223 C2229 1.429 . S
C2224 C2216 1.574 . S
C2224 H2219 0.949 . S
C2224 C2230 1.368 . S
C2225 C2209 1.349 . S
C2225 H2217 0.950 . S
C2225 C2223 1.327 . S
C2226 C2214 1.349 . S
C2226 H2220 0.950 . S
C2226 C2227 1.327 . S
C2227 H2221 0.950 . S
C2227 C2226 1.327 . S
C2227 C2231 1.429 . S
C2228 C2211 1.574 . S
C2228 H2222 0.949 . S
C2228 C2232 1.368 . S
C2229 C2210 1.429 . S
C2229 C2223 1.429 . S
C2229 C2230 1.523 . S
C2230 C2211 1.368 . S
C2230 C2224 1.368 . S
C2230 C2229 1.523 . S
C2231 C2215 1.429 . S
C2231 C2227 1.429 . S
C2231 C2232 1.523 . S
C2232 C2216 1.368 . S
C2232 C2228 1.368 . S
C2232 C2231 1.523 . S
H2233 C2208 0.950 . S
H2234 C2210 0.950 . S
H2235 C2211 0.949 . S
H2236 C2213 0.950 . S
H2237 C2215 0.950 . S
C2238 C2239 1.349 . S
C2238 C2240 1.327 . S
C2238 H2263 0.950 . S
C2239 C2238 1.349 . S
C2239 C2255 1.349 . S
C2240 C2238 1.327 . S
C2240 C2259 1.429 . S
C2240 H2264 0.950 . S
C2241 C2258 1.574 . S
C2241 C2260 1.368 . S
C2241 H2265 0.949 . S
H2242 C2246 0.949 . S
C2243 C2244 1.349 . S
C2243 C2245 1.327 . S
C2243 H2266 0.950 . S
C2244 C2243 1.349 . S
C2244 C2256 1.349 . S
C2245 C2243 1.327 . S
C2245 C2261 1.429 . S
C2245 H2267 0.950 . S
C2246 H2242 0.949 . S
C2246 C2254 1.574 . S
C2246 C2262 1.368 . S
H2247 C2255 0.950 . S
H2248 C2253 0.950 . S
H2249 C2254 0.949 . S
H2250 C2256 0.950 . S
H2251 C2257 0.950 . S
H2252 C2258 0.949 . S
C2253 H2248 0.950 . S
C2253 C2255 1.327 . S
C2253 C2259 1.429 . S
C2254 C2246 1.574 . S
C2254 H2249 0.949 . S
C2254 C2260 1.368 . S
C2255 C2239 1.349 . S
C2255 H2247 0.950 . S
C2255 C2253 1.327 . S
C2256 C2244 1.349 . S
C2256 H2250 0.950 . S
C2256 C2257 1.327 . S
C2257 H2251 0.950 . S
C2257 C2256 1.327 . S
C2257 C2261 1.429 . S
C2258 C2241 1.574 . S
C2258 H2252 0.949 . S
C2258 C2262 1.368 . S
C2259 C2240 1.429 . S
C2259 C2253 1.429 . S
C2259 C2260 1.523 . S
C2260 C2241 1.368 . S
C2260 C2254 1.368 . S
C2260 C2259 1.523 . S
C2261 C2245 1.429 . S
C2261 C2257 1.429 . S
C2261 C2262 1.523 . S
C2262 C2246 1.368 . S
C2262 C2258 1.368 . S
C2262 C2261 1.523 . S
H2263 C2238 0.950 . S
H2264 C2240 0.950 . S
H2265 C2241 0.949 . S
H2266 C2243 0.950 . S
H2267 C2245 0.950 . S
C2268 C2269 1.349 . S
C2268 C2270 1.327 . S
C2268 H2293 0.950 . S
C2269 C2268 1.349 . S
C2269 C2285 1.349 . S
C2270 C2268 1.327 . S
C2270 C2289 1.429 . S
C2270 H2294 0.950 . S
C2271 C2288 1.574 . S
C2271 C2290 1.368 . S
C2271 H2295 0.949 . S
H2272 C2276 0.949 . S
C2273 C2274 1.349 . S
C2273 C2275 1.327 . S
C2273 H2296 0.950 . S
C2274 C2273 1.349 . S
C2274 C2286 1.349 . S
C2275 C2273 1.327 . S
C2275 C2291 1.429 . S
C2275 H2297 0.950 . S
C2276 H2272 0.949 . S
C2276 C2284 1.574 . S
C2276 C2292 1.368 . S
H2277 C2285 0.950 . S
H2278 C2283 0.950 . S
H2279 C2284 0.949 . S
H2280 C2286 0.950 . S
H2281 C2287 0.950 . S
H2282 C2288 0.949 . S
C2283 H2278 0.950 . S
C2283 C2285 1.327 . S
C2283 C2289 1.429 . S
C2284 C2276 1.574 . S
C2284 H2279 0.949 . S
C2284 C2290 1.368 . S
C2285 C2269 1.349 . S
C2285 H2277 0.950 . S
C2285 C2283 1.327 . S
C2286 C2274 1.349 . S
C2286 H2280 0.950 . S
C2286 C2287 1.327 . S
C2287 H2281 0.950 . S
C2287 C2286 1.327 . S
C2287 C2291 1.429 . S
C2288 C2271 1.574 . S
C2288 H2282 0.949 . S
C2288 C2292 1.368 . S
C2289 C2270 1.429 . S
C2289 C2283 1.429 . S
C2289 C2290 1.523 . S
C2290 C2271 1.368 . S
C2290 C2284 1.368 . S
C2290 C2289 1.523 . S
C2291 C2275 1.429 . S
C2291 C2287 1.429 . S
C2291 C2292 1.523 . S
C2292 C2276 1.368 . S
C2292 C2288 1.368 . S
C2292 C2291 1.523 . S
H2293 C2268 0.950 . S
H2294 C2270 0.950 . S
H2295 C2271 0.949 . S
H2296 C2273 0.950 . S
H2297 C2275 0.950 . S
C2298 C2299 1.349 . S
C2298 C2300 1.327 . S
C2298 H2323 0.950 . S
C2299 C2298 1.349 . S
C2299 C2315 1.349 . S
C2300 C2298 1.327 . S
C2300 C2319 1.429 . S
C2300 H2324 0.950 . S
C2301 C2318 1.574 . S
C2301 C2320 1.368 . S
C2301 H2325 0.949 . S
H2302 C2306 0.949 . S
C2303 C2304 1.349 . S
C2303 C2305 1.327 . S
C2303 H2326 0.950 . S
C2304 C2303 1.349 . S
C2304 C2316 1.349 . S
C2305 C2303 1.327 . S
C2305 C2321 1.429 . S
C2305 H2327 0.950 . S
C2306 H2302 0.949 . S
C2306 C2314 1.574 . S
C2306 C2322 1.368 . S
H2307 C2315 0.950 . S
H2308 C2313 0.950 . S
H2309 C2314 0.949 . S
H2310 C2316 0.950 . S
H2311 C2317 0.950 . S
H2312 C2318 0.949 . S
C2313 H2308 0.950 . S
C2313 C2315 1.327 . S
C2313 C2319 1.429 . S
C2314 C2306 1.574 . S
C2314 H2309 0.949 . S
C2314 C2320 1.368 . S
C2315 C2299 1.349 . S
C2315 H2307 0.950 . S
C2315 C2313 1.327 . S
C2316 C2304 1.349 . S
C2316 H2310 0.950 . S
C2316 C2317 1.327 . S
C2317 H2311 0.950 . S
C2317 C2316 1.327 . S
C2317 C2321 1.429 . S
C2318 C2301 1.574 . S
C2318 H2312 0.949 . S
C2318 C2322 1.368 . S
C2319 C2300 1.429 . S
C2319 C2313 1.429 . S
C2319 C2320 1.523 . S
C2320 C2301 1.368 . S
C2320 C2314 1.368 . S
C2320 C2319 1.523 . S
C2321 C2305 1.429 . S
C2321 C2317 1.429 . S
C2321 C2322 1.523 . S
C2322 C2306 1.368 . S
C2322 C2318 1.368 . S
C2322 C2321 1.523 . S
H2323 C2298 0.950 . S
H2324 C2300 0.950 . S
H2325 C2301 0.949 . S
H2326 C2303 0.950 . S
H2327 C2305 0.950 . S
C2328 C2329 1.349 . S
C2328 C2330 1.327 . S
C2328 H2353 0.950 . S
C2329 C2328 1.349 . S
C2329 C2345 1.349 . S
C2330 C2328 1.327 . S
C2330 C2349 1.429 . S
C2330 H2354 0.950 . S
C2331 C2348 1.574 . S
C2331 C2350 1.368 . S
C2331 H2355 0.949 . S
H2332 C2336 0.949 . S
C2333 C2334 1.349 . S
C2333 C2335 1.327 . S
C2333 H2356 0.950 . S
C2334 C2333 1.349 . S
C2334 C2346 1.349 . S
C2335 C2333 1.327 . S
C2335 C2351 1.429 . S
C2335 H2357 0.950 . S
C2336 H2332 0.949 . S
C2336 C2344 1.574 . S
C2336 C2352 1.368 . S
H2337 C2345 0.950 . S
H2338 C2343 0.950 . S
H2339 C2344 0.949 . S
H2340 C2346 0.950 . S
H2341 C2347 0.950 . S
H2342 C2348 0.949 . S
C2343 H2338 0.950 . S
C2343 C2345 1.327 . S
C2343 C2349 1.429 . S
C2344 C2336 1.574 . S
C2344 H2339 0.949 . S
C2344 C2350 1.368 . S
C2345 C2329 1.349 . S
C2345 H2337 0.950 . S
C2345 C2343 1.327 . S
C2346 C2334 1.349 . S
C2346 H2340 0.950 . S
C2346 C2347 1.327 . S
C2347 H2341 0.950 . S
C2347 C2346 1.327 . S
C2347 C2351 1.429 . S
C2348 C2331 1.574 . S
C2348 H2342 0.949 . S
C2348 C2352 1.368 . S
C2349 C2330 1.429 . S
C2349 C2343 1.429 . S
C2349 C2350 1.523 . S
C2350 C2331 1.368 . S
C2350 C2344 1.368 . S
C2350 C2349 1.523 . S
C2351 C2335 1.429 . S
C2351 C2347 1.429 . S
C2351 C2352 1.523 . S
C2352 C2336 1.368 . S
C2352 C2348 1.368 . S
C2352 C2351 1.523 . S
H2353 C2328 0.950 . S
H2354 C2330 0.950 . S
H2355 C2331 0.949 . S
H2356 C2333 0.950 . S
H2357 C2335 0.950 . S
C2358 C2359 1.349 . S
C2358 C2360 1.327 . S
C2358 H2383 0.950 . S
C2359 C2358 1.349 . S
C2359 C2375 1.349 . S
C2360 C2358 1.327 . S
C2360 C2379 1.429 . S
C2360 H2384 0.950 . S
C2361 C2378 1.574 . S
C2361 C2380 1.368 . S
C2361 H2385 0.949 . S
H2362 C2366 0.949 . S
C2363 C2364 1.349 . S
C2363 C2365 1.327 . S
C2363 H2386 0.950 . S
C2364 C2363 1.349 . S
C2364 C2376 1.349 . S
C2365 C2363 1.327 . S
C2365 C2381 1.429 . S
C2365 H2387 0.950 . S
C2366 H2362 0.949 . S
C2366 C2374 1.574 . S
C2366 C2382 1.368 . S
H2367 C2375 0.950 . S
H2368 C2373 0.950 . S
H2369 C2374 0.949 . S
H2370 C2376 0.950 . S
H2371 C2377 0.950 . S
H2372 C2378 0.949 . S
C2373 H2368 0.950 . S
C2373 C2375 1.327 . S
C2373 C2379 1.429 . S
C2374 C2366 1.574 . S
C2374 H2369 0.949 . S
C2374 C2380 1.368 . S
C2375 C2359 1.349 . S
C2375 H2367 0.950 . S
C2375 C2373 1.327 . S
C2376 C2364 1.349 . S
C2376 H2370 0.950 . S
C2376 C2377 1.327 . S
C2377 H2371 0.950 . S
C2377 C2376 1.327 . S
C2377 C2381 1.429 . S
C2378 C2361 1.574 . S
C2378 H2372 0.949 . S
C2378 C2382 1.368 . S
C2379 C2360 1.429 . S
C2379 C2373 1.429 . S
C2379 C2380 1.523 . S
C2380 C2361 1.368 . S
C2380 C2374 1.368 . S
C2380 C2379 1.523 . S
C2381 C2365 1.429 . S
C2381 C2377 1.429 . S
C2381 C2382 1.523 . S
C2382 C2366 1.368 . S
C2382 C2378 1.368 . S
C2382 C2381 1.523 . S
H2383 C2358 0.950 . S
H2384 C2360 0.950 . S
H2385 C2361 0.949 . S
H2386 C2363 0.950 . S
H2387 C2365 0.950 . S
C2388 C2389 1.349 . S
C2388 C2390 1.327 . S
C2388 H2413 0.950 . S
C2389 C2388 1.349 . S
C2389 C2405 1.349 . S
C2390 C2388 1.327 . S
C2390 C2409 1.429 . S
C2390 H2414 0.950 . S
C2391 C2408 1.574 . S
C2391 C2410 1.368 . S
C2391 H2415 0.949 . S
H2392 C2396 0.949 . S
C2393 C2394 1.349 . S
C2393 C2395 1.327 . S
C2393 H2416 0.950 . S
C2394 C2393 1.349 . S
C2394 C2406 1.349 . S
C2395 C2393 1.327 . S
C2395 C2411 1.429 . S
C2395 H2417 0.950 . S
C2396 H2392 0.949 . S
C2396 C2404 1.574 . S
C2396 C2412 1.368 . S
H2397 C2405 0.950 . S
H2398 C2403 0.950 . S
H2399 C2404 0.949 . S
H2400 C2406 0.950 . S
H2401 C2407 0.950 . S
H2402 C2408 0.949 . S
C2403 H2398 0.950 . S
C2403 C2405 1.327 . S
C2403 C2409 1.429 . S
C2404 C2396 1.574 . S
C2404 H2399 0.949 . S
C2404 C2410 1.368 . S
C2405 C2389 1.349 . S
C2405 H2397 0.950 . S
C2405 C2403 1.327 . S
C2406 C2394 1.349 . S
C2406 H2400 0.950 . S
C2406 C2407 1.327 . S
C2407 H2401 0.950 . S
C2407 C2406 1.327 . S
C2407 C2411 1.429 . S
C2408 C2391 1.574 . S
C2408 H2402 0.949 . S
C2408 C2412 1.368 . S
C2409 C2390 1.429 . S
C2409 C2403 1.429 . S
C2409 C2410 1.523 . S
C2410 C2391 1.368 . S
C2410 C2404 1.368 . S
C2410 C2409 1.523 . S
C2411 C2395 1.429 . S
C2411 C2407 1.429 . S
C2411 C2412 1.523 . S
C2412 C2396 1.368 . S
C2412 C2408 1.368 . S
C2412 C2411 1.523 . S
H2413 C2388 0.950 . S
H2414 C2390 0.950 . S
H2415 C2391 0.949 . S
H2416 C2393 0.950 . S
H2417 C2395 0.950 . S
C2418 C2419 1.349 . S
C2418 C2420 1.327 . S
C2418 H2443 0.950 . S
C2419 C2418 1.349 . S
C2419 C2435 1.349 . S
C2420 C2418 1.327 . S
C2420 C2439 1.429 . S
C2420 H2444 0.950 . S
C2421 C2438 1.574 . S
C2421 C2440 1.368 . S
C2421 H2445 0.949 . S
H2422 C2426 0.949 . S
C2423 C2424 1.349 . S
C2423 C2425 1.327 . S
C2423 H2446 0.950 . S
C2424 C2423 1.349 . S
C2424 C2436 1.349 . S
C2425 C2423 1.327 . S
C2425 C2441 1.429 . S
C2425 H2447 0.950 . S
C2426 H2422 0.949 . S
C2426 C2434 1.574 . S
C2426 C2442 1.368 . S
H2427 C2435 0.950 . S
H2428 C2433 0.950 . S
H2429 C2434 0.949 . S
H2430 C2436 0.950 . S
H2431 C2437 0.950 . S
H2432 C2438 0.949 . S
C2433 H2428 0.950 . S
C2433 C2435 1.327 . S
C2433 C2439 1.429 . S
C2434 C2426 1.574 . S
C2434 H2429 0.949 . S
C2434 C2440 1.368 . S
C2435 C2419 1.349 . S
C2435 H2427 0.950 . S
C2435 C2433 1.327 . S
C2436 C2424 1.349 . S
C2436 H2430 0.950 . S
C2436 C2437 1.327 . S
C2437 H2431 0.950 . S
C2437 C2436 1.327 . S
C2437 C2441 1.429 . S
C2438 C2421 1.574 . S
C2438 H2432 0.949 . S
C2438 C2442 1.368 . S
C2439 C2420 1.429 . S
C2439 C2433 1.429 . S
C2439 C2440 1.523 . S
C2440 C2421 1.368 . S
C2440 C2434 1.368 . S
C2440 C2439 1.523 . S
C2441 C2425 1.429 . S
C2441 C2437 1.429 . S
C2441 C2442 1.523 . S
C2442 C2426 1.368 . S
C2442 C2438 1.368 . S
C2442 C2441 1.523 . S
H2443 C2418 0.950 . S
H2444 C2420 0.950 . S
H2445 C2421 0.949 . S
H2446 C2423 0.950 . S
H2447 C2425 0.950 . S
C2448 C2449 1.349 . S
C2448 C2450 1.327 . S
C2448 H2473 0.950 . S
C2449 C2448 1.349 . S
C2449 C2465 1.349 . S
C2450 C2448 1.327 . S
C2450 C2469 1.429 . S
C2450 H2474 0.950 . S
C2451 C2468 1.574 . S
C2451 C2470 1.368 . S
C2451 H2475 0.949 . S
H2452 C2456 0.949 . S
C2453 C2454 1.349 . S
C2453 C2455 1.327 . S
C2453 H2476 0.950 . S
C2454 C2453 1.349 . S
C2454 C2466 1.349 . S
C2455 C2453 1.327 . S
C2455 C2471 1.429 . S
C2455 H2477 0.950 . S
C2456 H2452 0.949 . S
C2456 C2464 1.610 . S
C2456 C2472 1.368 . S
H2457 C2465 0.950 . S
H2458 C2463 0.950 . S
H2459 C2464 0.937 . S
H2460 C2466 0.950 . S
H2461 C2467 0.950 . S
H2462 C2468 0.949 . S
C2463 H2458 0.950 . S
C2463 C2465 1.327 . S
C2463 C2469 1.429 . S
C2464 C2456 1.610 . S
C2464 H2459 0.937 . S
C2464 C2470 1.347 1_655 S
C2465 C2449 1.349 . S
C2465 H2457 0.950 . S
C2465 C2463 1.327 . S
C2466 C2454 1.349 . S
C2466 H2460 0.950 . S
C2466 C2467 1.327 . S
C2467 H2461 0.950 . S
C2467 C2466 1.327 . S
C2467 C2471 1.429 . S
C2468 C2451 1.574 . S
C2468 H2462 0.949 . S
C2468 C2472 1.368 1_455 S
C2469 C2450 1.429 . S
C2469 C2463 1.429 . S
C2469 C2470 1.523 . S
C2470 C2451 1.368 . S
C2470 C2464 1.347 1_455 S
C2470 C2469 1.523 . S
C2471 C2455 1.429 . S
C2471 C2467 1.429 . S
C2471 C2472 1.523 . S
C2472 C2456 1.368 . S
C2472 C2468 1.368 1_655 S
C2472 C2471 1.523 . S
H2473 C2448 0.950 . S
H2474 C2450 0.950 . S
H2475 C2451 0.949 . S
H2476 C2453 0.950 . S
H2477 C2455 0.950 . S
C2478 C2479 1.349 . S
C2478 C2480 1.327 . S
C2478 H2503 0.950 . S
C2479 C2478 1.349 . S
C2479 C2495 1.349 . S
C2480 C2478 1.327 . S
C2480 C2499 1.429 . S
C2480 H2504 0.950 . S
C2481 C2498 1.574 . S
C2481 C2500 1.368 . S
C2481 H2505 0.949 . S
H2482 C2486 0.949 . S
C2483 C2484 1.349 . S
C2483 C2485 1.327 . S
C2483 H2506 0.950 . S
C2484 C2483 1.349 . S
C2484 C2496 1.349 . S
C2485 C2483 1.327 . S
C2485 C2501 1.429 . S
C2485 H2507 0.950 . S
C2486 H2482 0.949 . S
C2486 C2494 1.574 . S
C2486 C2502 1.368 . S
H2487 C2495 0.950 . S
H2488 C2493 0.950 . S
H2489 C2494 0.949 . S
H2490 C2496 0.950 . S
H2491 C2497 0.950 . S
H2492 C2498 0.949 . S
C2493 H2488 0.950 . S
C2493 C2495 1.327 . S
C2493 C2499 1.429 . S
C2494 C2486 1.574 . S
C2494 H2489 0.949 . S
C2494 C2500 1.368 . S
C2495 C2479 1.349 . S
C2495 H2487 0.950 . S
C2495 C2493 1.327 . S
C2496 C2484 1.349 . S
C2496 H2490 0.950 . S
C2496 C2497 1.327 . S
C2497 H2491 0.950 . S
C2497 C2496 1.327 . S
C2497 C2501 1.429 . S
C2498 C2481 1.574 . S
C2498 H2492 0.949 . S
C2498 C2502 1.368 . S
C2499 C2480 1.429 . S
C2499 C2493 1.429 . S
C2499 C2500 1.523 . S
C2500 C2481 1.368 . S
C2500 C2494 1.368 . S
C2500 C2499 1.523 . S
C2501 C2485 1.429 . S
C2501 C2497 1.429 . S
C2501 C2502 1.523 . S
C2502 C2486 1.368 . S
C2502 C2498 1.368 . S
C2502 C2501 1.523 . S
H2503 C2478 0.950 . S
H2504 C2480 0.950 . S
H2505 C2481 0.949 . S
H2506 C2483 0.950 . S
H2507 C2485 0.950 . S
C2508 C2509 1.349 . S
C2508 C2510 1.327 . S
C2508 H2533 0.950 . S
C2509 C2508 1.349 . S
C2509 C2525 1.349 . S
C2510 C2508 1.327 . S
C2510 C2529 1.429 . S
C2510 H2534 0.950 . S
C2511 C2528 1.574 1_545 S
C2511 C2530 1.368 . S
C2511 H2535 0.949 . S
H2512 C2516 0.949 . S
C2513 C2514 1.349 . S
C2513 C2515 1.327 . S
C2513 H2536 0.950 . S
C2514 C2513 1.349 . S
C2514 C2526 1.349 . S
C2515 C2513 1.327 . S
C2515 C2531 1.429 . S
C2515 H2537 0.950 . S
C2516 H2512 0.949 . S
C2516 C2524 1.574 1_565 S
C2516 C2532 1.368 . S
H2517 C2525 0.950 . S
H2518 C2523 0.950 . S
H2519 C2524 0.949 . S
H2520 C2526 0.950 . S
H2521 C2527 0.950 . S
H2522 C2528 0.949 . S
C2523 H2518 0.950 . S
C2523 C2525 1.327 . S
C2523 C2529 1.429 . S
C2524 C2516 1.574 1_545 S
C2524 H2519 0.949 . S
C2524 C2530 1.368 . S
C2525 C2509 1.349 . S
C2525 H2517 0.950 . S
C2525 C2523 1.327 . S
C2526 C2514 1.349 . S
C2526 H2520 0.950 . S
C2526 C2527 1.327 . S
C2527 H2521 0.950 . S
C2527 C2526 1.327 . S
C2527 C2531 1.429 . S
C2528 C2511 1.574 1_565 S
C2528 H2522 0.949 . S
C2528 C2532 1.368 . S
C2529 C2510 1.429 . S
C2529 C2523 1.429 . S
C2529 C2530 1.523 . S
C2530 C2511 1.368 . S
C2530 C2524 1.368 . S
C2530 C2529 1.523 . S
C2531 C2515 1.429 . S
C2531 C2527 1.429 . S
C2531 C2532 1.523 . S
C2532 C2516 1.368 . S
C2532 C2528 1.368 . S
C2532 C2531 1.523 . S
H2533 C2508 0.950 . S
H2534 C2510 0.950 . S
H2535 C2511 0.949 . S
H2536 C2513 0.950 . S
H2537 C2515 0.950 . S
C2538 C2539 1.349 . S
C2538 C2540 1.327 . S
C2538 H2563 0.950 . S
C2539 C2538 1.349 . S
C2539 C2555 1.388 . S
C2540 C2538 1.327 . S
C2540 C2559 1.429 . S
C2540 H2564 0.950 . S
C2541 C2558 1.574 . S
C2541 C2560 1.368 1_556 S
C2541 H2565 0.949 . S
H2542 C2546 0.949 . S
C2543 C2544 1.349 . S
C2543 C2545 1.327 . S
C2543 H2566 0.950 . S
C2544 C2543 1.349 . S
C2544 C2556 1.373 . S
C2545 C2543 1.327 . S
C2545 C2561 1.429 . S
C2545 H2567 0.950 . S
C2546 H2542 0.949 . S
C2546 C2554 1.563 1_565 S
C2546 C2562 1.368 1_554 S
H2547 C2555 0.923 1_556 S
H2548 C2553 0.950 . S
H2549 C2554 0.952 . S
H2550 C2556 0.932 1_554 S
H2551 C2557 0.950 . S
H2552 C2558 0.949 . S
C2553 H2548 0.950 . S
C2553 C2555 1.318 1_556 S
C2553 C2559 1.429 1_556 S
C2554 C2546 1.563 1_545 S
C2554 H2549 0.952 . S
C2554 C2560 1.375 . S
C2555 C2539 1.388 . S
C2555 H2547 0.923 1_554 S
C2555 C2553 1.318 1_554 S
C2556 C2544 1.373 . S
C2556 H2550 0.932 1_556 S
C2556 C2557 1.321 1_556 S
C2557 H2551 0.950 . S
C2557 C2556 1.321 1_554 S
C2557 C2561 1.429 1_554 S
C2558 C2541 1.574 . S
C2558 H2552 0.949 . S
C2558 C2562 1.368 1_545 S
C2559 C2540 1.429 . S
C2559 C2553 1.429 1_554 S
C2559 C2560 1.523 . S
C2560 C2541 1.368 1_554 S
C2560 C2554 1.375 . S
C2560 C2559 1.523 . S
C2561 C2545 1.429 . S
C2561 C2557 1.429 1_556 S
C2561 C2562 1.523 . S
C2562 C2546 1.368 1_556 S
C2562 C2558 1.368 1_565 S
C2562 C2561 1.523 . S
H2563 C2538 0.950 . S
H2564 C2540 0.950 . S
H2565 C2541 0.949 . S
H2566 C2543 0.950 . S
H2567 C2545 0.950 . S
C2568 C2569 1.235 1_556 S
C2568 C2570 1.360 . S
C2568 H2593 1.045 . S
C2569 C2568 1.235 1_554 S
C2569 C2585 1.349 . S
C2570 C2568 1.360 . S
C2570 C2589 1.429 1_556 S
C2570 H2594 0.950 . S
C2571 C2588 1.574 1_655 S
C2571 C2590 1.368 . S
C2571 H2595 0.949 . S
H2572 C2576 0.945 . S
C2573 C2574 1.349 1_554 S
C2573 C2575 1.327 . S
C2573 H2596 0.950 . S
C2574 C2573 1.349 1_556 S
C2574 C2586 1.349 . S
C2575 C2573 1.327 . S
C2575 C2591 1.429 1_554 S
C2575 H2597 0.950 . S
C2576 H2572 0.945 . S
C2576 C2584 1.563 1_455 S
C2576 C2592 1.385 . S
H2577 C2585 0.950 . S
H2578 C2583 0.950 . S
H2579 C2584 0.949 . S
H2580 C2586 0.950 . S
H2581 C2587 0.950 . S
H2582 C2588 0.949 . S
C2583 H2578 0.950 . S
C2583 C2585 1.327 . S
C2583 C2589 1.429 . S
C2584 C2576 1.563 1_655 S
C2584 H2579 0.949 . S
C2584 C2590 1.368 1_556 S
C2585 C2569 1.349 . S
C2585 H2577 0.950 . S
C2585 C2583 1.327 . S
C2586 C2574 1.349 . S
C2586 H2580 0.950 . S
C2586 C2587 1.327 . S
C2587 H2581 0.950 . S
C2587 C2586 1.327 . S
C2587 C2591 1.429 . S
C2588 C2571 1.574 1_455 S
C2588 H2582 0.949 . S
C2588 C2592 1.368 1_554 S
C2589 C2570 1.429 1_554 S
C2589 C2583 1.429 . S
C2589 C2590 1.523 . S
C2590 C2571 1.368 . S
C2590 C2584 1.368 1_554 S
C2590 C2589 1.523 . S
C2591 C2575 1.429 1_556 S
C2591 C2587 1.429 . S
C2591 C2592 1.523 . S
C2592 C2576 1.385 . S
C2592 C2588 1.368 1_556 S
C2592 C2591 1.523 . S
H2593 C2568 1.045 . S
H2594 C2570 0.950 . S
H2595 C2571 0.949 . S
H2596 C2573 0.950 . S
H2597 C2575 0.950 . S
C2598 C2599 1.349 . S
C2598 C2600 1.359 . S
C2598 H2623 0.992 . S
C2599 C2598 1.349 . S
C2599 C2615 1.349 . S
C2600 C2598 1.359 . S
C2600 C2619 1.468 . S
C2600 H2624 0.897 1_556 S
C2601 C2618 1.574 . S
C2601 C2620 1.368 . S
C2601 H2625 0.949 . S
H2602 C2606 0.949 . S
C2603 C2604 1.349 . S
C2603 C2605 1.327 . S
C2603 H2626 0.950 . S
C2604 C2603 1.349 . S
C2604 C2616 1.349 . S
C2605 C2603 1.327 . S
C2605 C2621 1.429 . S
C2605 H2627 0.950 1_554 S
C2606 H2602 0.949 . S
C2606 C2614 1.574 . S
C2606 C2622 1.368 . S
H2607 C2615 0.950 . S
H2608 C2613 0.950 . S
H2609 C2614 0.949 . S
H2610 C2616 0.950 . S
H2611 C2617 0.950 . S
H2612 C2618 0.949 . S
C2613 H2608 0.950 . S
C2613 C2615 1.327 . S
C2613 C2619 1.429 . S
C2614 C2606 1.574 . S
C2614 H2609 0.949 . S
C2614 C2620 1.368 1_554 S
C2615 C2599 1.349 . S
C2615 H2607 0.950 . S
C2615 C2613 1.327 . S
C2616 C2604 1.349 . S
C2616 H2610 0.950 . S
C2616 C2617 1.327 . S
C2617 H2611 0.950 . S
C2617 C2616 1.327 . S
C2617 C2621 1.429 . S
C2618 C2601 1.574 . S
C2618 H2612 0.949 . S
C2618 C2622 1.368 1_556 S
C2619 C2600 1.468 . S
C2619 C2613 1.429 . S
C2619 C2620 1.523 . S
C2620 C2601 1.368 . S
C2620 C2614 1.368 1_556 S
C2620 C2619 1.523 . S
C2621 C2605 1.429 . S
C2621 C2617 1.429 . S
C2621 C2622 1.523 . S
C2622 C2606 1.368 . S
C2622 C2618 1.368 1_554 S
C2622 C2621 1.523 . S
H2623 C2598 0.992 . S
H2624 C2600 0.897 1_554 S
H2625 C2601 0.949 . S
H2626 C2603 0.950 . S
H2627 C2605 0.950 1_556 S
C469 C5 0.778 . S
C474 C23 0.824 . S
C499 C18 0.778 . S
C504 C36 0.823 . S
C529 C10 0.824 . S
C534 C31 0.778 . S
C559 C44 0.778 . S
C564 C75 0.823 . S
C589 C57 0.778 . S
C594 C49 0.823 . S
C619 C62 0.824 . S
C624 C70 0.778 . S
C649 C83 0.749 . S
C654 C99 0.747 . S
C679 C112 0.747 . S
C684 C96 0.748 . S
C709 C86 0.747 . S
C714 C109 0.749 . S
C739 C151 0.747 . S
C744 C122 0.748 . S
C769 C135 0.749 . S
C774 C125 0.747 . S
C799 C148 0.749 . S
C804 C138 0.747 . S
C829 C179 0.824 . S
C834 C161 0.778 . S
C859 C174 0.778 . S
C864 C192 0.823 . S
C889 C187 0.778 . S
C894 C166 0.824 . S
C919 C200 0.778 . S
C924 C231 0.824 . S
C949 C213 0.778 . S
C954 C205 0.824 . S
C979 C226 0.778 . S
C984 C218 0.824 . S
C1009 C255 0.747 . S
C1014 C239 0.748 . S
C1039 C252 0.749 . S
C1044 C268 0.747 . S
C1069 C242 0.747 . S
C1074 C265 0.749 . S
C1099 C307 0.747 . S
C1104 C278 0.748 . S
C1129 C291 0.748 . S
C1134 C281 0.747 . S
C1159 C294 0.747 . S
C1164 C304 0.749 . S
C1189 C335 0.824 . S
C1194 C317 0.778 . S
C1219 C330 0.778 . S
C1224 C348 0.823 . S
C1249 C343 0.778 . S
C1254 C322 0.824 . S
C1279 C387 0.823 . S
C1284 C356 0.778 . S
C1309 C369 0.778 . S
C1314 C361 0.823 . S
C1339 C374 0.824 . S
C1344 C382 0.778 . S
C1369 C395 0.749 . S
C1374 C411 0.747 . S
C1399 C408 0.748 . S
C1404 C424 0.747 . S
C1429 C421 0.749 . S
C1434 C398 0.747 . S
C1459 C463 0.747 . S
C1464 C434 0.748 . S
C1489 C437 0.747 . S
C1494 C447 0.748 . S
C1519 C460 0.749 . S
C1524 C450 0.747 . S
C1549 C47 1.500 . S
C1554 C8 1.500 . S
C1579 C21 1.499 . S
C1584 C60 1.499 . S
C1609 C73 1.500 . S
C1614 C34 1.500 . S
C1639 C127 1.540 . S
C1644 C88 1.540 . S
C1669 C101 1.540 . S
C1674 C140 1.540 . S
C1699 C153 1.540 . S
C1704 C114 1.540 . S
C1729 C164 1.500 . S
C1734 C203 1.500 . S
C1759 C177 1.500 . S
C1764 C216 1.500 . S
C1789 C190 1.500 . S
C1794 C229 1.500 . S
C1819 C283 1.540 . S
C1824 C244 1.540 . S
C1849 C296 1.540 . S
C1854 C257 1.540 . S
C1879 C270 1.540 . S
C1884 C309 1.540 . S
C1909 C359 1.500 . S
C1914 C320 1.500 . S
C1939 C372 1.500 . S
C1944 C333 1.500 . S
C1969 C346 1.500 . S
C1974 C385 1.500 . S
C1999 C400 1.540 . S
C2004 C439 1.540 . S
C2029 C452 1.540 . S
C2034 C413 1.540 . S
C2059 C426 1.540 . S
C2064 C465 1.540 . S
C2089 C0 1.377 . S
C2094 C234 1.464 . S
C2119 C13 1.377 . S
C2124 C247 1.463 . S
C2149 C26 1.377 . S
C2154 C260 1.464 . S
C2179 C429 1.463 . S
C2184 C39 1.377 . S
C2209 C442 1.463 . S
C2214 C52 1.377 . S
C2239 C65 1.378 . S
C2244 C455 1.464 . S
C2269 C78 1.464 . S
C2274 C312 1.377 . S
C2299 C325 1.377 . S
C2304 C91 1.463 . S
C2329 C338 1.377 . S
C2334 C104 1.464 . S
C2359 C195 1.377 . S
C2364 C117 1.463 . S
C2389 C208 1.377 . S
C2394 C130 1.464 . S
C2419 C221 1.378 . S
C2424 C143 1.464 . S
C2449 C390 1.464 . S
C2454 C156 1.377 . S
C2479 C169 1.377 . S
C2484 C403 1.463 . S
C2509 C182 1.378 . S
C2514 C416 1.464 . S
C2539 C273 1.463 . S
C2544 C351 1.377 . S
C2569 C286 1.463 . S
C2574 C364 1.377 . S
C2599 C377 1.378 . S
C2604 C299 1.464 . S
