# Generated by pormake.
# Topology atn, (4)-cn, num edge types: 1
# Building blocks:
#     Node 0, Type 0, BuildingBlock: GALJAG_clean_sbu_0, # of connection points: 4
#     Node 1, Type 0, BuildingBlock: GALJAG_clean_sbu_0, # of connection points: 4
#     Node 2, Type 0, BuildingBlock: GALJAG_clean_sbu_0, # of connection points: 4
#     Node 3, Type 0, BuildingBlock: GALJAG_clean_sbu_0, # of connection points: 4
#     Node 4, Type 0, BuildingBlock: GALJAG_clean_sbu_0, # of connection points: 4
#     Node 5, Type 0, BuildingBlock: GALJAG_clean_sbu_0, # of connection points: 4
#     Node 6, Type 0, BuildingBlock: GALJAG_clean_sbu_0, # of connection points: 4
#     Node 7, Type 0, BuildingBlock: GALJAG_clean_sbu_0, # of connection points: 4
#     Node 8, Type 0, BuildingBlock: GALJAG_clean_sbu_0, # of connection points: 4
#     Node 9, Type 0, BuildingBlock: GALJAG_clean_sbu_0, # of connection points: 4
#     Node 10, Type 0, BuildingBlock: GALJAG_clean_sbu_0, # of connection points: 4
#     Node 11, Type 0, BuildingBlock: GALJAG_clean_sbu_0, # of connection points: 4
#     Node 12, Type 0, BuildingBlock: GALJAG_clean_sbu_0, # of connection points: 4
#     Node 13, Type 0, BuildingBlock: GALJAG_clean_sbu_0, # of connection points: 4
#     Node 14, Type 0, BuildingBlock: GALJAG_clean_sbu_0, # of connection points: 4
#     Node 15, Type 0, BuildingBlock: GALJAG_clean_sbu_0, # of connection points: 4
#     Edge 16, Type (0, 0), BuildingBlock: EZIPEK_clean_linker_0, # of connection points: 2
#     Edge 17, Type (0, 0), BuildingBlock: EZIPEK_clean_linker_0, # of connection points: 2
#     Edge 18, Type (0, 0), BuildingBlock: EZIPEK_clean_linker_0, # of connection points: 2
#     Edge 19, Type (0, 0), BuildingBlock: EZIPEK_clean_linker_0, # of connection points: 2
#     Edge 20, Type (0, 0), BuildingBlock: EZIPEK_clean_linker_0, # of connection points: 2
#     Edge 21, Type (0, 0), BuildingBlock: EZIPEK_clean_linker_0, # of connection points: 2
#     Edge 22, Type (0, 0), BuildingBlock: EZIPEK_clean_linker_0, # of connection points: 2
#     Edge 23, Type (0, 0), BuildingBlock: EZIPEK_clean_linker_0, # of connection points: 2
#     Edge 24, Type (0, 0), BuildingBlock: EZIPEK_clean_linker_0, # of connection points: 2
#     Edge 25, Type (0, 0), BuildingBlock: EZIPEK_clean_linker_0, # of connection points: 2
#     Edge 26, Type (0, 0), BuildingBlock: EZIPEK_clean_linker_0, # of connection points: 2
#     Edge 27, Type (0, 0), BuildingBlock: EZIPEK_clean_linker_0, # of connection points: 2
#     Edge 28, Type (0, 0), BuildingBlock: EZIPEK_clean_linker_0, # of connection points: 2
#     Edge 29, Type (0, 0), BuildingBlock: EZIPEK_clean_linker_0, # of connection points: 2
#     Edge 30, Type (0, 0), BuildingBlock: EZIPEK_clean_linker_0, # of connection points: 2
#     Edge 31, Type (0, 0), BuildingBlock: EZIPEK_clean_linker_0, # of connection points: 2
#     Edge 32, Type (0, 0), BuildingBlock: EZIPEK_clean_linker_0, # of connection points: 2
#     Edge 33, Type (0, 0), BuildingBlock: EZIPEK_clean_linker_0, # of connection points: 2
#     Edge 34, Type (0, 0), BuildingBlock: EZIPEK_clean_linker_0, # of connection points: 2
#     Edge 35, Type (0, 0), BuildingBlock: EZIPEK_clean_linker_0, # of connection points: 2
#     Edge 36, Type (0, 0), BuildingBlock: EZIPEK_clean_linker_0, # of connection points: 2
#     Edge 37, Type (0, 0), BuildingBlock: EZIPEK_clean_linker_0, # of connection points: 2
#     Edge 38, Type (0, 0), BuildingBlock: EZIPEK_clean_linker_0, # of connection points: 2
#     Edge 39, Type (0, 0), BuildingBlock: EZIPEK_clean_linker_0, # of connection points: 2
#     Edge 40, Type (0, 0), BuildingBlock: EZIPEK_clean_linker_0, # of connection points: 2
#     Edge 41, Type (0, 0), BuildingBlock: EZIPEK_clean_linker_0, # of connection points: 2
#     Edge 42, Type (0, 0), BuildingBlock: EZIPEK_clean_linker_0, # of connection points: 2
#     Edge 43, Type (0, 0), BuildingBlock: EZIPEK_clean_linker_0, # of connection points: 2
#     Edge 44, Type (0, 0), BuildingBlock: EZIPEK_clean_linker_0, # of connection points: 2
#     Edge 45, Type (0, 0), BuildingBlock: EZIPEK_clean_linker_0, # of connection points: 2
#     Edge 46, Type (0, 0), BuildingBlock: EZIPEK_clean_linker_0, # of connection points: 2
#     Edge 47, Type (0, 0), BuildingBlock: EZIPEK_clean_linker_0, # of connection points: 2
# Relax obj value: 0.083
# Max RMSD: 0.111
# Mean RMSD: 0.111
data_MOF--net-atn--node1-GALJAG_clean_sbu_0--edge1-EZIPEK_clean_linker_0
_symmetry_space_group_name_H-M    P1
_symmetry_Int_Tables_number       1
_symmetry_cell_setting            triclinic
loop_
_symmetry_equiv_pos_as_xyz
'x, y, z'
_cell_length_a     43.28569
_cell_length_b     43.173816
_cell_length_c     20.824539
_cell_angle_alpha  89.997088
_cell_angle_beta   89.950663
_cell_angle_gamma 90.074373
loop_
_atom_site_label
_atom_site_type_symbol
_atom_site_fract_x
_atom_site_fract_y
_atom_site_fract_z
_atom_type_partial_charge
In0 In 0.18756 0.36467 0.99154 0.0
O1 O 0.14701 0.3504 0.05625 0.0
O2 O 0.19019 0.36189 0.09976 0.0
C3 C 0.16867 0.3579 0.86875 0.0
C4 C 0.18971 0.42607 0.9999 0.0
C5 C 0.23327 0.32304 0.99166 0.0
O6 O 0.15565 0.34391 0.91487 0.0
O7 O 0.19024 0.37583 0.88511 0.0
O8 O 0.23857 0.35179 0.99444 0.0
O9 O 0.20519 0.31545 0.98817 0.0
C10 C 0.16264 0.35321 0.10731 0.0
O11 O 0.21399 0.40982 0.99837 0.0
O12 O 0.16446 0.41139 0.99762 0.0
In13 In 0.62022 0.17884 0.00565 0.0
O14 O 0.63949 0.14058 0.07055 0.0
O15 O 0.61846 0.17994 0.11431 0.0
C16 C 0.63252 0.16114 0.88492 0.0
C17 C 0.55846 0.17806 0.00353 0.0
C18 C 0.6599 0.22627 0.01065 0.0
O19 O 0.63637 0.14299 0.93197 0.0
O20 O 0.62252 0.18772 0.89887 0.0
O21 O 0.63107 0.23045 0.00635 0.0
O22 O 0.66859 0.19841 0.01225 0.0
C23 C 0.6324 0.15461 0.12182 0.0
O24 O 0.57361 0.20236 0.01579 0.0
O25 O 0.57439 0.15422 0.99231 0.0
In26 In 0.8004 0.62184 0.00717 0.0
O27 O 0.77128 0.57801 0.00421 0.0
O28 O 0.82023 0.57338 0.01144 0.0
C29 C 0.75613 0.66458 0.0067 0.0
C30 C 0.82165 0.63435 0.12586 0.0
C31 C 0.82281 0.63098 0.88744 0.0
O32 O 0.75007 0.63595 0.00915 0.0
O33 O 0.78445 0.67163 0.00452 0.0
O34 O 0.84037 0.62943 0.93592 0.0
O35 O 0.79451 0.62766 0.89976 0.0
C36 C 0.79427 0.56019 0.00818 0.0
O37 O 0.83773 0.63982 0.07635 0.0
O38 O 0.79554 0.6225 0.11541 0.0
In39 In 0.36152 0.80068 0.01903 0.0
O40 O 0.35855 0.84173 0.08927 0.0
O41 O 0.35435 0.79608 0.12625 0.0
C42 C 0.34974 0.82303 0.90124 0.0
C43 C 0.42284 0.7936 0.01862 0.0
C44 C 0.31814 0.75669 0.01739 0.0
O45 O 0.3412 0.83723 0.95136 0.0
O46 O 0.36421 0.79816 0.91064 0.0
O47 O 0.34657 0.75033 0.01305 0.0
O48 O 0.3116 0.78509 0.02235 0.0
C49 C 0.35489 0.82467 0.1381 0.0
O50 O 0.4048 0.77105 0.02829 0.0
O51 O 0.40999 0.81942 0.00972 0.0
In52 In 0.1785 0.62029 0.01412 0.0
O53 O 0.14303 0.64195 0.94589 0.0
O54 O 0.18007 0.61579 0.90576 0.0
C55 C 0.15368 0.62645 0.13223 0.0
C56 C 0.18548 0.55889 0.01324 0.0
C57 C 0.22296 0.66334 0.01448 0.0
O58 O 0.1371 0.62529 0.08231 0.0
O59 O 0.18232 0.62445 0.12213 0.0
O60 O 0.22897 0.63476 0.01161 0.0
O61 O 0.19468 0.67024 0.01774 0.0
C62 C 0.15619 0.63169 0.89603 0.0
O63 O 0.20835 0.57705 0.01565 0.0
O64 O 0.1593 0.57163 0.01107 0.0
In65 In 0.3639 0.17892 0.00593 0.0
O66 O 0.40993 0.20399 0.00438 0.0
O67 O 0.40998 0.15448 0.00258 0.0
C68 C 0.32464 0.22648 0.00345 0.0
C69 C 0.35233 0.15517 0.88875 0.0
C70 C 0.35358 0.16016 0.12733 0.0
O71 O 0.35347 0.23026 0.99783 0.0
O72 O 0.31568 0.19885 0.01058 0.0
O73 O 0.34358 0.145 0.07961 0.0
O74 O 0.36895 0.18407 0.11358 0.0
C75 C 0.42545 0.17927 0.00261 0.0
O76 O 0.35036 0.13879 0.93903 0.0
O77 O 0.36008 0.18294 0.89809 0.0
In78 In 0.79643 0.36539 0.01622 0.0
O79 O 0.83695 0.35614 0.94738 0.0
O80 O 0.79182 0.35983 0.90848 0.0
C81 C 0.81924 0.35478 0.13468 0.0
C82 C 0.79056 0.42717 0.01487 0.0
C83 C 0.75209 0.32252 0.01799 0.0
O84 O 0.8362 0.35441 0.08516 0.0
O85 O 0.79107 0.35997 0.1238 0.0
O86 O 0.74623 0.35108 0.02404 0.0
O87 O 0.78031 0.31554 0.01174 0.0
C88 C 0.82015 0.35576 0.89775 0.0
O89 O 0.76805 0.40953 0.00287 0.0
O90 O 0.81552 0.41374 0.02809 0.0
In91 In 0.61673 0.80068 0.00503 0.0
O92 O 0.63708 0.83474 0.93162 0.0
O93 O 0.60942 0.79727 0.89776 0.0
C94 C 0.62502 0.82499 0.12291 0.0
C95 C 0.5556 0.79407 0.01293 0.0
C96 C 0.66087 0.75762 0.00318 0.0
O97 O 0.6223 0.84204 0.07368 0.0
O98 O 0.62369 0.79632 0.11196 0.0
O99 O 0.63262 0.75076 0.99658 0.0
O100 O 0.66672 0.78604 0.01067 0.0
C101 C 0.62583 0.82045 0.88389 0.0
O102 O 0.57368 0.77137 0.02029 0.0
O103 O 0.56835 0.81977 0.00122 0.0
In104 In 0.67816 0.86585 0.50408 0.0
O105 O 0.64154 0.84553 0.57142 0.0
O106 O 0.68118 0.86725 0.61262 0.0
C107 C 0.65515 0.85704 0.38488 0.0
C108 C 0.68275 0.92757 0.50669 0.0
C109 C 0.72386 0.82442 0.50565 0.0
O110 O 0.63788 0.85822 0.43384 0.0
O111 O 0.6835 0.86033 0.39641 0.0
O112 O 0.72903 0.85321 0.50339 0.0
O113 O 0.69578 0.81651 0.50714 0.0
C114 C 0.65608 0.85309 0.62176 0.0
O115 O 0.70609 0.91038 0.50007 0.0
O116 O 0.65722 0.91372 0.51199 0.0
In117 In 0.11787 0.68104 0.51104 0.0
O118 O 0.07586 0.7124 0.50522 0.0
O119 O 0.06892 0.66336 0.51163 0.0
C120 C 0.16353 0.7227 0.50883 0.0
C121 C 0.12657 0.66205 0.63288 0.0
C122 C 0.12397 0.65505 0.39432 0.0
O123 O 0.13544 0.73062 0.5114 0.0
O124 O 0.16847 0.69392 0.50678 0.0
O125 O 0.12231 0.6387 0.44474 0.0
O126 O 0.12237 0.68386 0.40343 0.0
C127 C 0.05704 0.69 0.5077 0.0
O128 O 0.1385 0.64787 0.58579 0.0
O129 O 0.10961 0.6846 0.61806 0.0
In130 In 0.29824 0.11736 0.506 0.0
O131 O 0.26845 0.07405 0.5134 0.0
O132 O 0.31721 0.06864 0.50282 0.0
C133 C 0.25224 0.15817 0.49801 0.0
C134 C 0.32047 0.12667 0.62599 0.0
C135 C 0.32275 0.12944 0.38979 0.0
O136 O 0.24726 0.12933 0.50052 0.0
O137 O 0.28027 0.16633 0.49944 0.0
O138 O 0.33536 0.13889 0.44098 0.0
O139 O 0.29863 0.11354 0.39746 0.0
C140 C 0.29115 0.0559 0.5088 0.0
O141 O 0.33794 0.12002 0.57936 0.0
O142 O 0.29237 0.12918 0.61151 0.0
In143 In 0.86626 0.30625 0.51609 0.0
O144 O 0.85483 0.34532 0.58707 0.0
O145 O 0.86157 0.29987 0.62352 0.0
C146 C 0.85429 0.32769 0.39704 0.0
C147 C 0.92792 0.30243 0.5136 0.0
C148 C 0.82417 0.26135 0.51502 0.0
O149 O 0.85342 0.34517 0.4458 0.0
O150 O 0.86123 0.29995 0.40894 0.0
O151 O 0.85283 0.25563 0.51345 0.0
O152 O 0.81678 0.28967 0.51702 0.0
C153 C 0.85537 0.32775 0.6357 0.0
O154 O 0.91109 0.27865 0.51824 0.0
O155 O 0.91374 0.32783 0.51083 0.0
In156 In 0.68762 0.12211 0.50518 0.0
O157 O 0.71305 0.07639 0.51203 0.0
O158 O 0.66356 0.0759 0.50688 0.0
C159 C 0.73137 0.1657 0.50422 0.0
C160 C 0.66907 0.12908 0.38307 0.0
C161 C 0.66536 0.13254 0.6231 0.0
O162 O 0.73794 0.13715 0.50327 0.0
O163 O 0.70295 0.17207 0.50579 0.0
O164 O 0.64864 0.1361 0.5737 0.0
O165 O 0.69262 0.12358 0.61273 0.0
C166 C 0.68838 0.06064 0.51035 0.0
O167 O 0.65367 0.13998 0.42966 0.0
O168 O 0.69306 0.11436 0.39854 0.0
In169 In 0.86284 0.68804 0.50682 0.0
O170 O 0.84573 0.65121 0.43578 0.0
O171 O 0.86348 0.69381 0.39879 0.0
C172 C 0.85357 0.66449 0.62559 0.0
C173 C 0.92442 0.6932 0.50703 0.0
C174 C 0.81974 0.73209 0.50663 0.0
O175 O 0.85487 0.64735 0.57635 0.0
O176 O 0.85689 0.69295 0.61441 0.0
O177 O 0.84826 0.73845 0.50766 0.0
O178 O 0.81299 0.70361 0.50563 0.0
C179 C 0.85184 0.66765 0.38703 0.0
O180 O 0.90708 0.7164 0.51456 0.0
O181 O 0.91078 0.66766 0.49938 0.0
In182 In 0.30019 0.86205 0.51668 0.0
O183 O 0.34223 0.85481 0.45123 0.0
O184 O 0.29781 0.86062 0.40857 0.0
C185 C 0.31882 0.85231 0.63835 0.0
C186 C 0.29195 0.92318 0.51371 0.0
C187 C 0.25869 0.81622 0.51128 0.0
O188 O 0.33528 0.84433 0.59087 0.0
O189 O 0.29383 0.86552 0.6242 0.0
O190 O 0.25106 0.84394 0.52251 0.0
O191 O 0.28715 0.81173 0.5021 0.0
C192 C 0.32628 0.85589 0.40026 0.0
O193 O 0.26965 0.90454 0.50728 0.0
O194 O 0.31817 0.91101 0.52168 0.0
In195 In 0.12232 0.30319 0.49132 0.0
O196 O 0.07686 0.27898 0.51132 0.0
O197 O 0.07583 0.3268 0.48462 0.0
C198 C 0.1614 0.25524 0.48862 0.0
C199 C 0.13148 0.32179 0.36921 0.0
C200 C 0.13461 0.32782 0.60735 0.0
O201 O 0.13259 0.25169 0.48211 0.0
O202 O 0.17038 0.28279 0.49606 0.0
O203 O 0.13675 0.34374 0.55641 0.0
O204 O 0.12609 0.30018 0.59948 0.0
C205 C 0.06084 0.30282 0.50015 0.0
O206 O 0.14453 0.33515 0.41612 0.0
O207 O 0.11347 0.30003 0.38439 0.0
C208 C 0.20033 0.50807 0.06186 0.0
C209 C 0.18892 0.52505 0.00862 0.0
C210 C 0.18026 0.47719 0.94809 0.0
C211 C 0.19068 0.46011 0.00212 0.0
N212 N 0.20781 0.45782 0.11212 0.0
N213 N 0.17339 0.5274 0.89759 0.0
C214 C 0.20039 0.47515 0.05926 0.0
C215 C 0.18018 0.51004 0.9508 0.0
N216 N 0.21127 0.52351 0.11457 0.0
N217 N 0.16999 0.46184 0.89466 0.0
H218 H 0.17373 0.55154 0.89743 0.0
H219 H 0.1696 0.5183 0.85205 0.0
H220 H 0.17176 0.43791 0.88897 0.0
H221 H 0.15849 0.47236 0.85668 0.0
H222 H 0.22289 0.51298 0.15238 0.0
H223 H 0.21031 0.54752 0.11933 0.0
H224 H 0.21191 0.46696 0.1575 0.0
H225 H 0.2081 0.43366 0.11196 0.0
C226 C 0.47533 0.16345 0.05221 0.0
C227 C 0.45944 0.17918 0.00253 0.0
C228 C 0.50858 0.19542 0.95487 0.0
C229 C 0.52441 0.17767 0.00185 0.0
N230 N 0.52302 0.14022 0.08808 0.0
N231 N 0.46015 0.20559 0.90043 0.0
C232 C 0.50783 0.16016 0.04815 0.0
C233 C 0.47581 0.19412 0.95227 0.0
N234 N 0.45955 0.15303 0.10497 0.0
N235 N 0.52485 0.21328 0.91237 0.0
H236 H 0.43616 0.20467 0.89628 0.0
H237 H 0.47093 0.21364 0.85895 0.0
H238 H 0.54888 0.21294 0.909 0.0
H239 H 0.51463 0.2297 0.8826 0.0
H240 H 0.47035 0.14447 0.14595 0.0
H241 H 0.43577 0.15569 0.11074 0.0
H242 H 0.51179 0.1243 0.11758 0.0
H243 H 0.5469 0.13764 0.08796 0.0
C244 C 0.77121 0.47823 0.05474 0.0
C245 C 0.78885 0.46112 0.00964 0.0
C246 C 0.80617 0.50911 0.9583 0.0
C247 C 0.79125 0.52621 0.00746 0.0
N248 N 0.76278 0.52767 0.1071 0.0
N249 N 0.82479 0.45947 0.92085 0.0
C250 C 0.77428 0.511 0.05658 0.0
C251 C 0.8068 0.47634 0.96206 0.0
N252 N 0.75189 0.46315 0.09634 0.0
N253 N 0.81871 0.52421 0.9067 0.0
H254 H 0.82432 0.43536 0.91864 0.0
H255 H 0.8415 0.46922 0.89106 0.0
H256 H 0.81886 0.54824 0.90231 0.0
H257 H 0.82669 0.51304 0.86563 0.0
H258 H 0.73579 0.47442 0.1252 0.0
H259 H 0.75037 0.43909 0.0991 0.0
H260 H 0.75325 0.51765 0.14804 0.0
H261 H 0.76499 0.55165 0.11086 0.0
C262 C 0.50532 0.77289 0.97284 0.0
C263 C 0.52174 0.79115 0.01824 0.0
C264 C 0.47321 0.80773 0.06817 0.0
C265 C 0.45676 0.79076 0.02093 0.0
N266 N 0.45584 0.75411 0.93357 0.0
N267 N 0.52226 0.8274 0.10655 0.0
C268 C 0.47244 0.77219 0.97511 0.0
C269 C 0.50594 0.80884 0.06544 0.0
N270 N 0.52112 0.7582 0.92466 0.0
N271 N 0.45745 0.82157 0.11745 0.0
H272 H 0.54629 0.82744 0.10919 0.0
H273 H 0.5123 0.84405 0.1361 0.0
H274 H 0.43345 0.82131 0.12112 0.0
H275 H 0.46791 0.83128 0.15765 0.0
H276 H 0.51076 0.74709 0.88599 0.0
H277 H 0.54512 0.75854 0.92067 0.0
H278 H 0.46545 0.73732 0.90392 0.0
H279 H 0.43182 0.75472 0.93047 0.0
C280 C 0.67602 0.01131 0.45422 0.0
C281 C 0.68838 0.02659 0.50872 0.0
C282 C 0.69987 0.97673 0.55923 0.0
C283 C 0.68499 0.96158 0.50722 0.0
N284 N 0.65553 0.96397 0.40885 0.0
N285 N 0.70828 0.02487 0.61675 0.0
C286 C 0.67197 0.97874 0.45587 0.0
C287 C 0.69955 0.00961 0.5621 0.0
N288 N 0.66946 0.0278 0.39978 0.0
N289 N 0.71402 0.95969 0.60612 0.0
H290 H 0.70816 0.04895 0.62079 0.0
H291 H 0.71335 0.01381 0.65987 0.0
H292 H 0.71289 0.93559 0.60832 0.0
H293 H 0.72839 0.96927 0.64092 0.0
H294 H 0.66362 0.01761 0.35615 0.0
H295 H 0.6726 0.05169 0.39621 0.0
H296 H 0.64231 0.97554 0.37472 0.0
H297 H 0.65328 0.93997 0.40624 0.0
C298 C 0.97425 0.6806 0.56099 0.0
C299 C 0.95836 0.69526 0.5098 0.0
C300 C 0.00753 0.70816 0.45782 0.0
C301 C 0.02332 0.69437 0.51019 0.0
N302 N 0.02246 0.67458 0.61845 0.0
N303 N 0.95911 0.72718 0.41461 0.0
C304 C 0.00688 0.68264 0.56381 0.0
C305 C 0.97479 0.71063 0.46008 0.0
N306 N 0.95823 0.66432 0.60652 0.0
N307 N 0.02362 0.71719 0.40443 0.0
H308 H 0.93507 0.728 0.41226 0.0
H309 H 0.96986 0.74178 0.38164 0.0
H310 H 0.04761 0.7159 0.40101 0.0
H311 H 0.01319 0.72392 0.36164 0.0
H312 H 0.96873 0.64993 0.64014 0.0
H313 H 0.93419 0.66349 0.60836 0.0
H314 H 0.01158 0.66894 0.66151 0.0
H315 H 0.04638 0.67652 0.62291 0.0
C316 C 0.27476 0.00555 0.46053 0.0
C317 C 0.28791 0.02205 0.51269 0.0
C318 C 0.29719 0.97359 0.57024 0.0
C319 C 0.28785 0.95701 0.51483 0.0
N320 N 0.27001 0.9564 0.40506 0.0
N321 N 0.31332 0.02259 0.61585 0.0
C322 C 0.2768 0.97271 0.45959 0.0
C323 C 0.29957 0.0063 0.56727 0.0
N324 N 0.26067 0.02128 0.41166 0.0
N325 N 0.3027 0.95806 0.62636 0.0
H326 H 0.314 0.04672 0.6173 0.0
H327 H 0.32568 0.01225 0.65294 0.0
H328 H 0.30049 0.93408 0.63065 0.0
H329 H 0.30657 0.969 0.67017 0.0
H330 H 0.24765 0.01055 0.37601 0.0
H331 H 0.26012 0.04539 0.40898 0.0
H332 H 0.26551 0.9667 0.36087 0.0
H333 H 0.27096 0.93231 0.40251 0.0
C334 C 0.00978 0.28294 0.4616 0.0
C335 C 0.0268 0.3025 0.50354 0.0
C336 C 0.97908 0.31834 0.55716 0.0
C337 C 0.9619 0.30103 0.51172 0.0
N338 N 0.96009 0.27109 0.4139 0.0
N339 N 0.02753 0.34293 0.58396 0.0
C340 C 0.97698 0.2842 0.46235 0.0
C341 C 0.01142 0.32152 0.54901 0.0
N342 N 0.02487 0.26355 0.42021 0.0
N343 N 0.96465 0.33068 0.60973 0.0
H344 H 0.05136 0.34571 0.58091 0.0
H345 H 0.01697 0.35979 0.61217 0.0
H346 H 0.941 0.32842 0.61804 0.0
H347 H 0.97644 0.34051 0.64825 0.0
H348 H 0.01388 0.24593 0.39481 0.0
H349 H 0.04874 0.26389 0.41345 0.0
H350 H 0.96988 0.26163 0.37266 0.0
H351 H 0.93605 0.27198 0.41186 0.0
C352 C 0.27736 0.29722 0.04786 0.0
C353 C 0.258 0.29959 0.99312 0.0
C354 C 0.28226 0.25377 0.94553 0.0
C355 C 0.30263 0.25235 0.99879 0.0
N356 N 0.32287 0.27446 0.09654 0.0
N357 N 0.24462 0.28359 0.8857 0.0
C358 C 0.30134 0.27478 0.04848 0.0
C359 C 0.2611 0.27875 0.94083 0.0
N360 N 0.27159 0.31507 0.10083 0.0
N361 N 0.28304 0.23111 0.89958 0.0
H362 H 0.22864 0.30143 0.88066 0.0
H363 H 0.24833 0.27152 0.84314 0.0
H364 H 0.29976 0.21376 0.89828 0.0
H365 H 0.26621 0.22845 0.86434 0.0
H366 H 0.28251 0.31198 0.14486 0.0
H367 H 0.25394 0.33146 0.1028 0.0
H368 H 0.32544 0.29227 0.12981 0.0
H369 H 0.33967 0.25731 0.10096 0.0
C370 C 0.72512 0.27765 0.06932 0.0
C371 C 0.72755 0.29881 0.0174 0.0
C372 C 0.68575 0.27212 0.96045 0.0
C373 C 0.68219 0.25206 0.01388 0.0
N374 N 0.6944 0.23841 0.12322 0.0
N375 N 0.70825 0.31914 0.91716 0.0
C376 C 0.70082 0.25549 0.06945 0.0
C377 C 0.70711 0.29707 0.96424 0.0
N378 N 0.74612 0.27869 0.11835 0.0
N379 N 0.67 0.26626 0.90479 0.0
H380 H 0.72486 0.33664 0.91577 0.0
H381 H 0.69158 0.32135 0.88146 0.0
H382 H 0.65419 0.24817 0.89995 0.0
H383 H 0.67428 0.2777 0.86168 0.0
H384 H 0.748 0.26163 0.15343 0.0
H385 H 0.76302 0.29583 0.12222 0.0
H386 H 0.70502 0.24191 0.16745 0.0
H387 H 0.67646 0.22228 0.12539 0.0
C388 C 0.72973 0.70896 0.95318 0.0
C389 C 0.73173 0.68831 0.00591 0.0
C390 C 0.68605 0.7119 0.05498 0.0
C391 C 0.68541 0.73398 0.00445 0.0
N392 N 0.70983 0.7573 0.91177 0.0
N393 N 0.71593 0.67346 0.11267 0.0
C394 C 0.7083 0.73375 0.95558 0.0
C395 C 0.71092 0.69053 0.0583 0.0
N396 N 0.74727 0.70403 0.89945 0.0
N397 N 0.66314 0.71155 0.10026 0.0
H398 H 0.73427 0.65799 0.11747 0.0
H399 H 0.70368 0.67655 0.15521 0.0
H400 H 0.64591 0.72835 0.10299 0.0
H401 H 0.6602 0.69365 0.13321 0.0
H402 H 0.7443 0.71619 0.85672 0.0
H403 H 0.76293 0.68581 0.89526 0.0
H404 H 0.72814 0.76013 0.87982 0.0
H405 H 0.69417 0.77557 0.91047 0.0
C406 C 0.26406 0.69355 0.958 0.0
C407 C 0.24735 0.68718 0.01516 0.0
C408 C 0.27722 0.72626 0.07392 0.0
C409 C 0.29403 0.73255 0.0168 0.0
N410 N 0.30139 0.72623 0.90284 0.0
N411 N 0.2392 0.69424 0.1287 0.0
C412 C 0.28709 0.7171 0.95841 0.0
C413 C 0.25405 0.70287 0.0734 0.0
N414 N 0.25805 0.67676 0.90364 0.0
N415 N 0.28323 0.74305 0.12829 0.0
H416 H 0.22204 0.67727 0.13004 0.0
H417 H 0.24476 0.70238 0.17421 0.0
H418 H 0.30122 0.75905 0.13157 0.0
H419 H 0.26982 0.74235 0.16969 0.0
H420 H 0.27142 0.6776 0.86219 0.0
H421 H 0.2402 0.66057 0.90059 0.0
H422 H 0.29539 0.71838 0.85733 0.0
H423 H 0.3183 0.74345 0.90135 0.0
C424 C 0.77619 0.75941 0.56137 0.0
C425 C 0.79575 0.75628 0.50697 0.0
C426 C 0.76731 0.79712 0.45073 0.0
C427 C 0.74895 0.80142 0.50644 0.0
N428 N 0.73808 0.79045 0.61767 0.0
N429 N 0.81247 0.77349 0.40225 0.0
C430 C 0.75387 0.7835 0.56254 0.0
C431 C 0.79218 0.77568 0.45246 0.0
N432 N 0.77895 0.73931 0.61184 0.0
N433 N 0.75996 0.81242 0.39525 0.0
H434 H 0.82968 0.75666 0.39955 0.0
H435 H 0.8135 0.78938 0.36473 0.0
H436 H 0.74193 0.82834 0.39214 0.0
H437 H 0.77008 0.80778 0.35095 0.0
H438 H 0.76303 0.73779 0.64918 0.0
H439 H 0.79641 0.72276 0.61504 0.0
H440 H 0.74277 0.78053 0.66213 0.0
H441 H 0.72165 0.80806 0.62037 0.0
C442 C 0.23756 0.76559 0.55082 0.0
C443 C 0.23572 0.79097 0.50758 0.0
C444 C 0.18927 0.76857 0.45869 0.0
C445 C 0.18893 0.74553 0.50722 0.0
N446 N 0.21071 0.72358 0.60381 0.0
N447 N 0.20985 0.81745 0.42074 0.0
C448 C 0.21268 0.74421 0.5541 0.0
C449 C 0.21148 0.79277 0.46181 0.0
N450 N 0.26306 0.76173 0.58873 0.0
N451 N 0.1695 0.7663 0.40765 0.0
H452 H 0.22728 0.83402 0.41653 0.0
H453 H 0.19058 0.82231 0.39262 0.0
H454 H 0.15358 0.74832 0.40253 0.0
H455 H 0.17073 0.78043 0.36723 0.0
H456 H 0.26735 0.74167 0.61502 0.0
H457 H 0.28133 0.77738 0.59053 0.0
H458 H 0.22494 0.72433 0.64407 0.0
H459 H 0.19331 0.70702 0.60777 0.0
C460 C 0.2261 0.2009 0.43922 0.0
C461 C 0.22715 0.18106 0.49331 0.0
C462 C 0.18209 0.20705 0.53967 0.0
C463 C 0.18324 0.22904 0.48897 0.0
N464 N 0.20853 0.24946 0.3944 0.0
N465 N 0.20908 0.16706 0.59901 0.0
C466 C 0.20593 0.22676 0.4399 0.0
C467 C 0.20572 0.18434 0.54438 0.0
N468 N 0.24353 0.19426 0.38615 0.0
N469 N 0.15876 0.20818 0.58397 0.0
H470 H 0.22617 0.15028 0.60456 0.0
H471 H 0.19654 0.1709 0.64093 0.0
H472 H 0.14237 0.22582 0.58554 0.0
H473 H 0.1545 0.19061 0.61708 0.0
H474 H 0.24156 0.20605 0.34273 0.0
H475 H 0.25785 0.17489 0.38334 0.0
H476 H 0.22689 0.25088 0.36219 0.0
H477 H 0.19357 0.26828 0.39153 0.0
C478 C 0.78101 0.23485 0.45806 0.0
C479 C 0.80071 0.23665 0.5123 0.0
C480 C 0.77506 0.19175 0.56114 0.0
C481 C 0.75525 0.19008 0.50688 0.0
N482 N 0.73532 0.21271 0.40922 0.0
N483 N 0.81879 0.2165 0.61347 0.0
C484 C 0.75703 0.21243 0.45695 0.0
C485 C 0.79845 0.21493 0.56327 0.0
N486 N 0.78643 0.25343 0.40592 0.0
N487 N 0.76997 0.17258 0.6125 0.0
H488 H 0.83464 0.2345 0.61919 0.0
H489 H 0.8211 0.19949 0.64846 0.0
H490 H 0.75252 0.15593 0.61358 0.0
H491 H 0.78139 0.17428 0.65625 0.0
H492 H 0.77545 0.25081 0.36184 0.0
H493 H 0.80392 0.27003 0.40447 0.0
H494 H 0.73293 0.23062 0.37615 0.0
H495 H 0.71798 0.19613 0.405 0.0
C496 C 0.13532 0.36123 0.28029 0.0
C497 C 0.13759 0.32996 0.30099 0.0
C498 C 0.1491 0.3138 0.19033 0.0
C499 C 0.15067 0.3453 0.17176 0.0
N500 N 0.14811 0.39948 0.19907 0.0
N501 N 0.15142 0.27683 0.27732 0.0
C502 C 0.14462 0.36918 0.2168 0.0
C503 C 0.14545 0.30625 0.25633 0.0
N504 N 0.12287 0.38308 0.32016 0.0
N505 N 0.1514 0.29102 0.14496 0.0
H506 H 0.14976 0.27006 0.32515 0.0
H507 H 0.16089 0.25965 0.2483 0.0
H508 H 0.1553 0.29556 0.09644 0.0
H509 H 0.14687 0.26776 0.15441 0.0
H510 H 0.11776 0.40556 0.30558 0.0
H511 H 0.11478 0.378 0.36615 0.0
H512 H 0.14782 0.4178 0.2316 0.0
H513 H 0.15311 0.40622 0.15206 0.0
C514 C 0.68212 0.14491 0.26987 0.0
C515 C 0.66013 0.13346 0.3149 0.0
C516 C 0.62002 0.13444 0.23193 0.0
C517 C 0.64233 0.14426 0.1863 0.0
N518 N 0.69563 0.15382 0.15846 0.0
N519 N 0.61038 0.11004 0.33478 0.0
C520 C 0.67375 0.14764 0.20414 0.0
C521 C 0.62965 0.12619 0.29486 0.0
N522 N 0.71042 0.15503 0.29025 0.0
N523 N 0.58952 0.13332 0.21535 0.0
H524 H 0.61698 0.10247 0.38029 0.0
H525 H 0.58901 0.10136 0.32046 0.0
H526 H 0.58188 0.13759 0.16882 0.0
H527 H 0.57175 0.13008 0.24843 0.0
H528 H 0.72573 0.16732 0.26125 0.0
H529 H 0.71784 0.15367 0.33764 0.0
H530 H 0.71929 0.15281 0.16728 0.0
H531 H 0.69042 0.1576 0.11027 0.0
C532 C 0.82046 0.6746 0.28755 0.0
C533 C 0.844 0.65828 0.32067 0.0
C534 C 0.85309 0.62584 0.22569 0.0
C535 C 0.83103 0.64359 0.1914 0.0
N536 N 0.79719 0.6878 0.18528 0.0
N537 N 0.88576 0.62142 0.32005 0.0
C538 C 0.81569 0.66882 0.22113 0.0
C539 C 0.86115 0.63465 0.28947 0.0
N540 N 0.80192 0.69484 0.32027 0.0
N541 N 0.86556 0.60001 0.19797 0.0
H542 H 0.892 0.62701 0.36703 0.0
H543 H 0.90131 0.60656 0.29762 0.0
H544 H 0.8607 0.59334 0.15089 0.0
H545 H 0.87908 0.58406 0.22273 0.0
H546 H 0.78226 0.70498 0.3007 0.0
H547 H 0.80455 0.69954 0.36908 0.0
H548 H 0.78796 0.70849 0.20227 0.0
H549 H 0.79317 0.68432 0.13643 0.0
C550 C 0.35748 0.82511 0.31987 0.0
C551 C 0.33908 0.85132 0.33476 0.0
C552 C 0.33223 0.86182 0.21994 0.0
C553 C 0.35191 0.8365 0.20499 0.0
N554 N 0.39118 0.80096 0.24215 0.0
N555 N 0.31777 0.9 0.2996 0.0
C556 C 0.36712 0.82039 0.25544 0.0
C557 C 0.32938 0.87146 0.28489 0.0
N558 N 0.36417 0.80351 0.36576 0.0
N559 N 0.31455 0.87542 0.17351 0.0
H560 H 0.31659 0.90822 0.34667 0.0
H561 H 0.31278 0.91668 0.26495 0.0
H562 H 0.31443 0.86834 0.12574 0.0
H563 H 0.29755 0.89175 0.18381 0.0
H564 H 0.37451 0.78233 0.3551 0.0
H565 H 0.3569 0.80517 0.41329 0.0
H566 H 0.40484 0.79099 0.27779 0.0
H567 H 0.39973 0.79761 0.19589 0.0
C568 C 0.12535 0.62471 0.72576 0.0
C569 C 0.13332 0.65434 0.7009 0.0
C570 C 0.15582 0.66908 0.80483 0.0
C571 C 0.14655 0.64012 0.83035 0.0
N572 N 0.11971 0.59159 0.8197 0.0
N573 N 0.15235 0.70646 0.71874 0.0
C574 C 0.13058 0.61821 0.79201 0.0
C575 C 0.14727 0.67708 0.74112 0.0
N576 N 0.11265 0.6029 0.68608 0.0
N577 N 0.17417 0.68835 0.84052 0.0
H578 H 0.1488 0.71314 0.67132 0.0
H579 H 0.15843 0.72498 0.74816 0.0
H580 H 0.18029 0.68377 0.888 0.0
H581 H 0.18529 0.70777 0.82193 0.0
H582 H 0.10959 0.57979 0.69874 0.0
H583 H 0.10622 0.60751 0.63881 0.0
H584 H 0.10537 0.57577 0.79665 0.0
H585 H 0.12332 0.58621 0.86797 0.0
C586 C 0.31365 0.11715 0.74407 0.0
C587 C 0.33131 0.13038 0.69335 0.0
C588 C 0.36735 0.15127 0.77299 0.0
C589 C 0.3464 0.14338 0.82291 0.0
N590 N 0.29664 0.12262 0.85397 0.0
N591 N 0.37291 0.16454 0.66093 0.0
C592 C 0.31883 0.12709 0.80817 0.0
C593 C 0.35783 0.14845 0.70799 0.0
N594 N 0.29247 0.09445 0.73146 0.0
N595 N 0.39661 0.16088 0.78761 0.0
H596 H 0.36606 0.16454 0.61302 0.0
H597 H 0.39037 0.18051 0.67067 0.0
H598 H 0.40483 0.16192 0.83464 0.0
H599 H 0.41365 0.1643 0.75294 0.0
H600 H 0.28113 0.08213 0.76751 0.0
H601 H 0.28887 0.08545 0.68562 0.0
H602 H 0.27477 0.11387 0.84341 0.0
H603 H 0.29875 0.13037 0.90112 0.0
C604 C 0.85495 0.32856 0.81779 0.0
C605 C 0.83214 0.35124 0.83138 0.0
C606 C 0.82405 0.35876 0.71587 0.0
C607 C 0.84886 0.33828 0.70243 0.0
N608 N 0.89399 0.31163 0.74273 0.0
N609 N 0.80252 0.39484 0.79222 0.0
C610 C 0.86627 0.3257 0.75406 0.0
C611 C 0.81907 0.36856 0.78008 0.0
N612 N 0.86459 0.30836 0.86411 0.0
N613 N 0.80388 0.36746 0.66877 0.0
H614 H 0.79954 0.40382 0.83825 0.0
H615 H 0.79496 0.40964 0.75593 0.0
H616 H 0.80508 0.35946 0.62169 0.0
H617 H 0.78377 0.37992 0.67832 0.0
H618 H 0.87894 0.28958 0.85418 0.0
H619 H 0.85572 0.30802 0.91058 0.0
H620 H 0.9087 0.30455 0.77952 0.0
H621 H 0.90393 0.31042 0.6972 0.0
C622 C 0.64405 0.80592 0.77331 0.0
C623 C 0.63258 0.8289 0.81615 0.0
C624 C 0.63634 0.86793 0.73075 0.0
C625 C 0.64579 0.84452 0.68714 0.0
N626 N 0.65438 0.79051 0.66349 0.0
N627 N 0.61194 0.88017 0.83251 0.0
C628 C 0.64809 0.81326 0.7073 0.0
C629 C 0.62721 0.85954 0.79412 0.0
N630 N 0.65288 0.77757 0.79621 0.0
N631 N 0.63622 0.89824 0.71168 0.0
H632 H 0.60412 0.87467 0.87849 0.0
H633 H 0.60445 0.90179 0.81684 0.0
H634 H 0.64085 0.90513 0.66461 0.0
H635 H 0.63333 0.91671 0.74327 0.0
H636 H 0.66502 0.7614 0.76907 0.0
H637 H 0.65071 0.77099 0.84408 0.0
H638 H 0.65258 0.76696 0.67369 0.0
H639 H 0.65921 0.79495 0.61532 0.0
C640 C 0.82463 0.63089 0.70509 0.0
C641 C 0.84831 0.65279 0.69198 0.0
C642 C 0.85548 0.66081 0.80774 0.0
C643 C 0.83383 0.63689 0.82078 0.0
N644 N 0.80443 0.5934 0.78036 0.0
N645 N 0.89211 0.68184 0.73176 0.0
C646 C 0.82052 0.62008 0.76896 0.0
C647 C 0.86561 0.66559 0.7436 0.0
N648 N 0.80464 0.62179 0.65793 0.0
N649 N 0.86498 0.68044 0.85532 0.0
H650 H 0.90093 0.68518 0.68572 0.0
H651 H 0.90707 0.68899 0.76806 0.0
H652 H 0.85704 0.67919 0.90245 0.0
H653 H 0.8782 0.70017 0.84636 0.0
H654 H 0.78507 0.6084 0.66712 0.0
H655 H 0.80546 0.63019 0.61109 0.0
H656 H 0.79692 0.57877 0.74374 0.0
H657 H 0.80159 0.58412 0.82614 0.0
C658 C 0.35503 0.85658 0.7325 0.0
C659 C 0.32696 0.84534 0.70599 0.0
C660 C 0.31196 0.82427 0.81107 0.0
C661 C 0.34121 0.83292 0.83575 0.0
N662 N 0.39215 0.85409 0.8197 0.0
N663 N 0.28065 0.81442 0.71704 0.0
C664 C 0.36324 0.84813 0.79634 0.0
C665 C 0.30583 0.82825 0.74457 0.0
N666 N 0.3731 0.87649 0.69782 0.0
N667 N 0.28997 0.81231 0.85131 0.0
H668 H 0.27519 0.81656 0.66857 0.0
H669 H 0.26655 0.79857 0.74079 0.0
H670 H 0.29393 0.80809 0.89991 0.0
H671 H 0.26707 0.80882 0.83793 0.0
H672 H 0.3921 0.88809 0.71688 0.0
H673 H 0.36761 0.88362 0.65136 0.0
H674 H 0.4104 0.86177 0.79123 0.0
H675 H 0.39848 0.84951 0.86711 0.0
C676 C 0.17442 0.34464 0.68735 0.0
C677 C 0.14293 0.33959 0.67195 0.0
C678 C 0.12831 0.35258 0.78256 0.0
C679 C 0.15995 0.35306 0.8003 0.0
N680 N 0.21339 0.34439 0.77027 0.0
N681 N 0.08996 0.33454 0.70683 0.0
C682 C 0.18316 0.34809 0.7528 0.0
C683 C 0.11988 0.3423 0.72015 0.0
N684 N 0.19617 0.34548 0.63973 0.0
N685 N 0.10634 0.36326 0.82422 0.0
H686 H 0.08269 0.32759 0.66142 0.0
H687 H 0.07291 0.33269 0.74197 0.0
H688 H 0.11168 0.37248 0.86915 0.0
H689 H 0.08326 0.36622 0.81148 0.0
H690 H 0.21884 0.35274 0.64731 0.0
H691 H 0.19111 0.34137 0.59156 0.0
H692 H 0.23051 0.33697 0.73868 0.0
H693 H 0.22118 0.34563 0.81741 0.0
C694 C 0.6241 0.12986 0.78469 0.0
C695 C 0.64091 0.153 0.81826 0.0
C696 C 0.66986 0.1656 0.72061 0.0
C697 C 0.65511 0.14064 0.68863 0.0
N698 N 0.62124 0.09631 0.69131 0.0
N699 N 0.68323 0.18938 0.82219 0.0
C700 C 0.63295 0.12205 0.72085 0.0
C701 C 0.66471 0.16997 0.78728 0.0
N702 N 0.59905 0.11618 0.81298 0.0
N703 N 0.6881 0.1857 0.68671 0.0
H704 H 0.68057 0.19282 0.87146 0.0
H705 H 0.70301 0.19989 0.80378 0.0
H706 H 0.69219 0.18345 0.63756 0.0
H707 H 0.69686 0.2062 0.70576 0.0
H708 H 0.58382 0.10167 0.78861 0.0
H709 H 0.59204 0.12118 0.85978 0.0
H710 H 0.60772 0.07985 0.71475 0.0
H711 H 0.62686 0.09017 0.64428 0.0
C712 C 0.86527 0.3254 0.27886 0.0
C713 C 0.84782 0.33815 0.33029 0.0
C714 C 0.8183 0.36823 0.25202 0.0
C715 C 0.83107 0.35039 0.20116 0.0
N716 N 0.86326 0.30706 0.16959 0.0
N717 N 0.80295 0.36776 0.36331 0.0
C718 C 0.85379 0.32769 0.21525 0.0
C719 C 0.82309 0.35868 0.31644 0.0
N720 N 0.89323 0.31183 0.29026 0.0
N721 N 0.80242 0.39486 0.23929 0.0
H722 H 0.80404 0.35996 0.41054 0.0
H723 H 0.78299 0.38037 0.35338 0.0
H724 H 0.80026 0.40398 0.19312 0.0
H725 H 0.79489 0.40982 0.27534 0.0
H726 H 0.90781 0.30444 0.25346 0.0
H727 H 0.90351 0.31157 0.33555 0.0
H728 H 0.87768 0.28841 0.18008 0.0
H729 H 0.85414 0.30625 0.12338 0.0
C730 C 0.6519 0.85994 0.203 0.0
C731 C 0.6294 0.8369 0.18932 0.0
C732 C 0.62288 0.82731 0.30474 0.0
C733 C 0.64371 0.85183 0.31846 0.0
N734 N 0.67096 0.89711 0.28029 0.0
N735 N 0.58715 0.80532 0.22818 0.0
C736 C 0.65593 0.86997 0.26743 0.0
C737 C 0.61284 0.82276 0.24055 0.0
N738 N 0.67094 0.87088 0.15574 0.0
N739 N 0.61417 0.80695 0.35169 0.0
H740 H 0.57853 0.80189 0.18204 0.0
H741 H 0.57256 0.79712 0.26422 0.0
H742 H 0.62191 0.80825 0.39894 0.0
H743 H 0.60174 0.78678 0.34217 0.0
H744 H 0.68985 0.88513 0.16506 0.0
H745 H 0.67 0.86338 0.10827 0.0
H746 H 0.67764 0.91266 0.24457 0.0
H747 H 0.67373 0.90571 0.32669 0.0
C748 C 0.15019 0.62014 0.31305 0.0
C749 C 0.12714 0.6423 0.32838 0.0
C750 C 0.11889 0.65243 0.21385 0.0
C751 C 0.1412 0.62952 0.19842 0.0
N752 N 0.16957 0.58443 0.23305 0.0
N753 N 0.0824 0.67089 0.29314 0.0
C754 C 0.15409 0.61104 0.24801 0.0
C755 C 0.10912 0.65559 0.27859 0.0
N756 N 0.16973 0.60917 0.35921 0.0
N757 N 0.10846 0.6726 0.16821 0.0
H758 H 0.07387 0.67235 0.33993 0.0
H759 H 0.06705 0.67878 0.25828 0.0
H760 H 0.11574 0.67223 0.12058 0.0
H761 H 0.09473 0.6917 0.17918 0.0
H762 H 0.189 0.59565 0.34857 0.0
H763 H 0.16855 0.61568 0.40726 0.0
H764 H 0.17715 0.56874 0.26764 0.0
H765 H 0.17151 0.57629 0.18605 0.0
C766 C 0.32851 0.16827 0.30152 0.0
C767 C 0.33379 0.13788 0.32481 0.0
C768 C 0.35482 0.12264 0.21991 0.0
C769 C 0.34634 0.15199 0.19485 0.0
N770 N 0.31963 0.20064 0.20846 0.0
N771 N 0.34917 0.08501 0.30573 0.0
C772 C 0.33188 0.17435 0.23484 0.0
C773 C 0.34607 0.11469 0.28377 0.0
N774 N 0.32009 0.19134 0.34293 0.0
N775 N 0.37242 0.10295 0.1838 0.0
H776 H 0.34484 0.07874 0.35329 0.0
H777 H 0.35437 0.06631 0.27607 0.0
H778 H 0.37967 0.10816 0.13726 0.0
H779 H 0.38209 0.08265 0.20172 0.0
H780 H 0.31922 0.21462 0.32989 0.0
H781 H 0.31639 0.18772 0.3918 0.0
H782 H 0.30592 0.21617 0.23396 0.0
H783 H 0.32035 0.20545 0.15941 0.0
loop_
_geom_bond_atom_site_label_1
_geom_bond_atom_site_label_2
_geom_bond_distance
_geom_bond_site_symmetry_2
_ccdc_geom_bond_type
In0 O1 2.294 . S
In0 O2 2.326 . S
In0 O6 2.266 1_554 S
In0 O7 2.326 1_554 S
In0 O8 2.266 1_554 S
In0 O9 2.325 1_554 S
In0 O11 2.294 . S
In0 O12 2.326 . S
O1 In0 2.294 . S
O1 C10 1.240 . S
O2 In0 2.326 . S
O2 C10 1.252 . S
C3 O6 1.252 . S
C3 O7 1.260 . S
C4 O11 1.240 . S
C4 O12 1.252 . S
C5 O8 1.252 . S
C5 O9 1.261 . S
O6 In0 2.266 1_556 S
O6 C3 1.252 . S
O7 In0 2.326 1_556 S
O7 C3 1.260 . S
O8 In0 2.266 1_556 S
O8 C5 1.252 . S
O9 In0 2.325 1_556 S
O9 C5 1.261 . S
C10 O1 1.240 . S
C10 O2 1.252 . S
O11 In0 2.294 . S
O11 C4 1.240 . S
O12 In0 2.326 . S
O12 C4 1.252 . S
In13 O14 2.294 . S
In13 O15 2.326 . S
In13 O19 2.266 1_554 S
In13 O20 2.326 1_554 S
In13 O21 2.266 1_554 S
In13 O22 2.325 1_554 S
In13 O24 2.294 . S
In13 O25 2.326 . S
O14 In13 2.294 . S
O14 C23 1.240 . S
O15 In13 2.326 . S
O15 C23 1.252 . S
C16 O19 1.252 . S
C16 O20 1.260 . S
C17 O24 1.240 . S
C17 O25 1.252 . S
C18 O21 1.252 . S
C18 O22 1.261 . S
O19 In13 2.266 1_556 S
O19 C16 1.252 . S
O20 In13 2.326 1_556 S
O20 C16 1.260 . S
O21 In13 2.266 1_556 S
O21 C18 1.252 . S
O22 In13 2.325 1_556 S
O22 C18 1.261 . S
C23 O14 1.240 . S
C23 O15 1.252 . S
O24 In13 2.294 . S
O24 C17 1.240 . S
O25 In13 2.326 . S
O25 C17 1.252 . S
In26 O27 2.294 . S
In26 O28 2.326 . S
In26 O32 2.266 1_554 S
In26 O33 2.325 1_554 S
In26 O34 2.266 1_554 S
In26 O35 2.326 1_554 S
In26 O37 2.294 . S
In26 O38 2.326 . S
O27 In26 2.294 . S
O27 C36 1.240 . S
O28 In26 2.326 . S
O28 C36 1.252 . S
C29 O32 1.252 . S
C29 O33 1.261 . S
C30 O37 1.240 . S
C30 O38 1.252 . S
C31 O34 1.252 . S
C31 O35 1.260 . S
O32 In26 2.266 1_556 S
O32 C29 1.252 . S
O33 In26 2.325 1_556 S
O33 C29 1.261 . S
O34 In26 2.266 1_556 S
O34 C31 1.252 . S
O35 In26 2.326 1_556 S
O35 C31 1.260 . S
C36 O27 1.240 . S
C36 O28 1.252 . S
O37 In26 2.294 . S
O37 C30 1.240 . S
O38 In26 2.326 . S
O38 C30 1.252 . S
In39 O40 2.294 . S
In39 O41 2.326 . S
In39 O45 2.266 1_554 S
In39 O46 2.326 1_554 S
In39 O47 2.266 1_554 S
In39 O48 2.325 1_554 S
In39 O50 2.294 . S
In39 O51 2.326 . S
O40 In39 2.294 . S
O40 C49 1.240 . S
O41 In39 2.326 . S
O41 C49 1.252 . S
C42 O45 1.252 . S
C42 O46 1.260 . S
C43 O50 1.240 . S
C43 O51 1.252 . S
C44 O47 1.252 . S
C44 O48 1.261 . S
O45 In39 2.266 1_556 S
O45 C42 1.252 . S
O46 In39 2.326 1_556 S
O46 C42 1.260 . S
O47 In39 2.266 1_556 S
O47 C44 1.252 . S
O48 In39 2.325 1_556 S
O48 C44 1.261 . S
C49 O40 1.240 . S
C49 O41 1.252 . S
O50 In39 2.294 . S
O50 C43 1.240 . S
O51 In39 2.326 . S
O51 C43 1.252 . S
In52 O53 2.294 1_554 S
In52 O54 2.326 1_554 S
In52 O58 2.266 . S
In52 O59 2.326 . S
In52 O60 2.266 . S
In52 O61 2.326 . S
In52 O63 2.294 1_554 S
In52 O64 2.326 1_554 S
O53 In52 2.294 1_556 S
O53 C62 1.240 . S
O54 In52 2.326 1_556 S
O54 C62 1.252 . S
C55 O58 1.252 . S
C55 O59 1.260 . S
C56 O63 1.240 . S
C56 O64 1.252 . S
C57 O60 1.252 . S
C57 O61 1.260 . S
O58 In52 2.266 . S
O58 C55 1.252 . S
O59 In52 2.326 . S
O59 C55 1.260 . S
O60 In52 2.266 . S
O60 C57 1.252 . S
O61 In52 2.326 . S
O61 C57 1.260 . S
C62 O53 1.240 . S
C62 O54 1.252 . S
O63 In52 2.294 1_556 S
O63 C56 1.240 . S
O64 In52 2.326 1_556 S
O64 C56 1.252 . S
In65 O66 2.294 1_554 S
In65 O67 2.326 1_554 S
In65 O71 2.266 . S
In65 O72 2.326 . S
In65 O73 2.266 . S
In65 O74 2.326 . S
In65 O76 2.294 1_554 S
In65 O77 2.326 1_554 S
O66 In65 2.294 1_556 S
O66 C75 1.240 . S
O67 In65 2.326 1_556 S
O67 C75 1.252 . S
C68 O71 1.252 . S
C68 O72 1.260 . S
C69 O76 1.240 . S
C69 O77 1.252 . S
C70 O73 1.252 . S
C70 O74 1.260 . S
O71 In65 2.266 . S
O71 C68 1.252 . S
O72 In65 2.326 . S
O72 C68 1.260 . S
O73 In65 2.266 . S
O73 C70 1.252 . S
O74 In65 2.326 . S
O74 C70 1.260 . S
C75 O66 1.240 . S
C75 O67 1.252 . S
O76 In65 2.294 1_556 S
O76 C69 1.240 . S
O77 In65 2.326 1_556 S
O77 C69 1.252 . S
In78 O79 2.294 1_554 S
In78 O80 2.326 1_554 S
In78 O84 2.266 . S
In78 O85 2.326 . S
In78 O86 2.266 . S
In78 O87 2.326 . S
In78 O89 2.294 1_554 S
In78 O90 2.326 1_554 S
O79 In78 2.294 1_556 S
O79 C88 1.240 . S
O80 In78 2.326 1_556 S
O80 C88 1.252 . S
C81 O84 1.252 . S
C81 O85 1.260 . S
C82 O89 1.240 . S
C82 O90 1.252 . S
C83 O86 1.252 . S
C83 O87 1.260 . S
O84 In78 2.266 . S
O84 C81 1.252 . S
O85 In78 2.326 . S
O85 C81 1.260 . S
O86 In78 2.266 . S
O86 C83 1.252 . S
O87 In78 2.326 . S
O87 C83 1.260 . S
C88 O79 1.240 . S
C88 O80 1.252 . S
O89 In78 2.294 1_556 S
O89 C82 1.240 . S
O90 In78 2.326 1_556 S
O90 C82 1.252 . S
In91 O92 2.294 1_554 S
In91 O93 2.326 1_554 S
In91 O97 2.266 . S
In91 O98 2.326 . S
In91 O99 2.266 . S
In91 O100 2.326 . S
In91 O102 2.294 1_554 S
In91 O103 2.326 1_554 S
O92 In91 2.294 1_556 S
O92 C101 1.240 . S
O93 In91 2.326 1_556 S
O93 C101 1.252 . S
C94 O97 1.252 . S
C94 O98 1.260 . S
C95 O102 1.240 . S
C95 O103 1.252 . S
C96 O99 1.252 . S
C96 O100 1.260 . S
O97 In91 2.266 . S
O97 C94 1.252 . S
O98 In91 2.326 . S
O98 C94 1.260 . S
O99 In91 2.266 . S
O99 C96 1.252 . S
O100 In91 2.326 . S
O100 C96 1.260 . S
C101 O92 1.240 . S
C101 O93 1.252 . S
O102 In91 2.294 1_556 S
O102 C95 1.240 . S
O103 In91 2.326 1_556 S
O103 C95 1.252 . S
In104 O105 2.294 . S
In104 O106 2.326 . S
In104 O110 2.266 . S
In104 O111 2.326 . S
In104 O112 2.266 . S
In104 O113 2.326 . S
In104 O115 2.294 . S
In104 O116 2.326 . S
O105 In104 2.294 . S
O105 C114 1.240 . S
O106 In104 2.326 . S
O106 C114 1.252 . S
C107 O110 1.252 . S
C107 O111 1.260 . S
C108 O115 1.240 . S
C108 O116 1.252 . S
C109 O112 1.252 . S
C109 O113 1.260 . S
O110 In104 2.266 . S
O110 C107 1.252 . S
O111 In104 2.326 . S
O111 C107 1.260 . S
O112 In104 2.266 . S
O112 C109 1.252 . S
O113 In104 2.326 . S
O113 C109 1.260 . S
C114 O105 1.240 . S
C114 O106 1.252 . S
O115 In104 2.294 . S
O115 C108 1.240 . S
O116 In104 2.326 . S
O116 C108 1.252 . S
In117 O118 2.294 . S
In117 O119 2.326 . S
In117 O123 2.266 . S
In117 O124 2.326 . S
In117 O125 2.266 . S
In117 O126 2.326 . S
In117 O128 2.294 . S
In117 O129 2.326 . S
O118 In117 2.294 . S
O118 C127 1.240 . S
O119 In117 2.326 . S
O119 C127 1.252 . S
C120 O123 1.252 . S
C120 O124 1.260 . S
C121 O128 1.240 . S
C121 O129 1.252 . S
C122 O125 1.252 . S
C122 O126 1.260 . S
O123 In117 2.266 . S
O123 C120 1.252 . S
O124 In117 2.326 . S
O124 C120 1.260 . S
O125 In117 2.266 . S
O125 C122 1.252 . S
O126 In117 2.326 . S
O126 C122 1.260 . S
C127 O118 1.240 . S
C127 O119 1.252 . S
O128 In117 2.294 . S
O128 C121 1.240 . S
O129 In117 2.326 . S
O129 C121 1.252 . S
In130 O131 2.294 . S
In130 O132 2.326 . S
In130 O136 2.266 . S
In130 O137 2.326 . S
In130 O138 2.266 . S
In130 O139 2.326 . S
In130 O141 2.294 . S
In130 O142 2.326 . S
O131 In130 2.294 . S
O131 C140 1.240 . S
O132 In130 2.326 . S
O132 C140 1.252 . S
C133 O136 1.252 . S
C133 O137 1.260 . S
C134 O141 1.240 . S
C134 O142 1.252 . S
C135 O138 1.252 . S
C135 O139 1.260 . S
O136 In130 2.266 . S
O136 C133 1.252 . S
O137 In130 2.326 . S
O137 C133 1.260 . S
O138 In130 2.266 . S
O138 C135 1.252 . S
O139 In130 2.326 . S
O139 C135 1.260 . S
C140 O131 1.240 . S
C140 O132 1.252 . S
O141 In130 2.294 . S
O141 C134 1.240 . S
O142 In130 2.326 . S
O142 C134 1.252 . S
In143 O144 2.294 . S
In143 O145 2.326 . S
In143 O149 2.266 . S
In143 O150 2.326 . S
In143 O151 2.266 . S
In143 O152 2.326 . S
In143 O154 2.294 . S
In143 O155 2.326 . S
O144 In143 2.294 . S
O144 C153 1.240 . S
O145 In143 2.326 . S
O145 C153 1.252 . S
C146 O149 1.252 . S
C146 O150 1.260 . S
C147 O154 1.240 . S
C147 O155 1.252 . S
C148 O151 1.252 . S
C148 O152 1.260 . S
O149 In143 2.266 . S
O149 C146 1.252 . S
O150 In143 2.326 . S
O150 C146 1.260 . S
O151 In143 2.266 . S
O151 C148 1.252 . S
O152 In143 2.326 . S
O152 C148 1.260 . S
C153 O144 1.240 . S
C153 O145 1.252 . S
O154 In143 2.294 . S
O154 C147 1.240 . S
O155 In143 2.326 . S
O155 C147 1.252 . S
In156 O157 2.294 . S
In156 O158 2.326 . S
In156 O162 2.266 . S
In156 O163 2.326 . S
In156 O164 2.266 . S
In156 O165 2.326 . S
In156 O167 2.294 . S
In156 O168 2.326 . S
O157 In156 2.294 . S
O157 C166 1.240 . S
O158 In156 2.326 . S
O158 C166 1.252 . S
C159 O162 1.252 . S
C159 O163 1.260 . S
C160 O167 1.240 . S
C160 O168 1.252 . S
C161 O164 1.252 . S
C161 O165 1.260 . S
O162 In156 2.266 . S
O162 C159 1.252 . S
O163 In156 2.326 . S
O163 C159 1.260 . S
O164 In156 2.266 . S
O164 C161 1.252 . S
O165 In156 2.326 . S
O165 C161 1.260 . S
C166 O157 1.240 . S
C166 O158 1.252 . S
O167 In156 2.294 . S
O167 C160 1.240 . S
O168 In156 2.326 . S
O168 C160 1.252 . S
In169 O170 2.294 . S
In169 O171 2.326 . S
In169 O175 2.266 . S
In169 O176 2.326 . S
In169 O177 2.266 . S
In169 O178 2.326 . S
In169 O180 2.294 . S
In169 O181 2.326 . S
O170 In169 2.294 . S
O170 C179 1.240 . S
O171 In169 2.326 . S
O171 C179 1.252 . S
C172 O175 1.252 . S
C172 O176 1.260 . S
C173 O180 1.240 . S
C173 O181 1.252 . S
C174 O177 1.252 . S
C174 O178 1.260 . S
O175 In169 2.266 . S
O175 C172 1.252 . S
O176 In169 2.326 . S
O176 C172 1.260 . S
O177 In169 2.266 . S
O177 C174 1.252 . S
O178 In169 2.326 . S
O178 C174 1.260 . S
C179 O170 1.240 . S
C179 O171 1.252 . S
O180 In169 2.294 . S
O180 C173 1.240 . S
O181 In169 2.326 . S
O181 C173 1.252 . S
In182 O183 2.294 . S
In182 O184 2.326 . S
In182 O188 2.266 . S
In182 O189 2.326 . S
In182 O190 2.266 . S
In182 O191 2.326 . S
In182 O193 2.294 . S
In182 O194 2.326 . S
O183 In182 2.294 . S
O183 C192 1.240 . S
O184 In182 2.326 . S
O184 C192 1.252 . S
C185 O188 1.252 . S
C185 O189 1.260 . S
C186 O193 1.240 . S
C186 O194 1.252 . S
C187 O190 1.252 . S
C187 O191 1.260 . S
O188 In182 2.266 . S
O188 C185 1.252 . S
O189 In182 2.326 . S
O189 C185 1.260 . S
O190 In182 2.266 . S
O190 C187 1.252 . S
O191 In182 2.326 . S
O191 C187 1.260 . S
C192 O183 1.240 . S
C192 O184 1.252 . S
O193 In182 2.294 . S
O193 C186 1.240 . S
O194 In182 2.326 . S
O194 C186 1.252 . S
In195 O196 2.294 . S
In195 O197 2.326 . S
In195 O201 2.266 . S
In195 O202 2.326 . S
In195 O203 2.266 . S
In195 O204 2.326 . S
In195 O206 2.294 . S
In195 O207 2.326 . S
O196 In195 2.294 . S
O196 C205 1.240 . S
O197 In195 2.326 . S
O197 C205 1.252 . S
C198 O201 1.252 . S
C198 O202 1.260 . S
C199 O206 1.240 . S
C199 O207 1.252 . S
C200 O203 1.252 . S
C200 O204 1.260 . S
O201 In195 2.266 . S
O201 C198 1.252 . S
O202 In195 2.326 . S
O202 C198 1.260 . S
O203 In195 2.266 . S
O203 C200 1.252 . S
O204 In195 2.326 . S
O204 C200 1.260 . S
C205 O196 1.240 . S
C205 O197 1.252 . S
O206 In195 2.294 . S
O206 C199 1.240 . S
O207 In195 2.326 . S
O207 C199 1.252 . S
C208 C209 1.363 1_554 S
C208 C214 1.379 . S
C208 N216 1.356 . S
C209 C208 1.363 1_556 S
C209 C215 1.363 . S
C210 C211 1.363 1_556 S
C210 C215 1.379 . S
C210 N217 1.356 . S
C211 C210 1.363 1_554 S
C211 C214 1.363 . S
N212 C214 1.356 . S
N212 H224 0.984 . S
N212 H225 0.985 . S
N213 C215 1.356 . S
N213 H218 0.984 . S
N213 H219 0.985 . S
C214 C208 1.379 . S
C214 C211 1.363 . S
C214 N212 1.356 . S
C215 C209 1.363 . S
C215 C210 1.379 . S
C215 N213 1.356 . S
N216 C208 1.356 . S
N216 H222 0.984 . S
N216 H223 0.984 . S
N217 C210 1.356 . S
N217 H220 0.984 . S
N217 H221 0.985 . S
H218 N213 0.984 . S
H219 N213 0.985 . S
H220 N217 0.984 . S
H221 N217 0.985 . S
H222 N216 0.984 . S
H223 N216 0.984 . S
H224 N212 0.984 . S
H225 N212 0.985 . S
C226 C227 1.363 1_554 S
C226 C232 1.379 . S
C226 N234 1.356 . S
C227 C226 1.363 1_556 S
C227 C233 1.363 . S
C228 C229 1.363 1_556 S
C228 C233 1.379 . S
C228 N235 1.356 . S
C229 C228 1.363 1_554 S
C229 C232 1.363 . S
N230 C232 1.356 . S
N230 H242 0.984 . S
N230 H243 0.985 . S
N231 C233 1.356 . S
N231 H236 0.984 . S
N231 H237 0.985 . S
C232 C226 1.379 . S
C232 C229 1.363 . S
C232 N230 1.356 . S
C233 C227 1.363 . S
C233 C228 1.379 . S
C233 N231 1.356 . S
N234 C226 1.356 . S
N234 H240 0.984 . S
N234 H241 0.984 . S
N235 C228 1.356 . S
N235 H238 0.984 . S
N235 H239 0.985 . S
H236 N231 0.984 . S
H237 N231 0.985 . S
H238 N235 0.984 . S
H239 N235 0.985 . S
H240 N234 0.984 . S
H241 N234 0.984 . S
H242 N230 0.984 . S
H243 N230 0.985 . S
C244 C245 1.363 1_554 S
C244 C250 1.379 . S
C244 N252 1.356 . S
C245 C244 1.363 1_556 S
C245 C251 1.363 . S
C246 C247 1.363 1_556 S
C246 C251 1.379 . S
C246 N253 1.356 . S
C247 C246 1.363 1_554 S
C247 C250 1.363 . S
N248 C250 1.356 . S
N248 H260 0.984 . S
N248 H261 0.985 . S
N249 C251 1.356 . S
N249 H254 0.984 . S
N249 H255 0.985 . S
C250 C244 1.379 . S
C250 C247 1.363 . S
C250 N248 1.356 . S
C251 C245 1.363 . S
C251 C246 1.379 . S
C251 N249 1.356 . S
N252 C244 1.356 . S
N252 H258 0.984 . S
N252 H259 0.984 . S
N253 C246 1.356 . S
N253 H256 0.984 . S
N253 H257 0.985 . S
H254 N249 0.984 . S
H255 N249 0.985 . S
H256 N253 0.984 . S
H257 N253 0.985 . S
H258 N252 0.984 . S
H259 N252 0.984 . S
H260 N248 0.984 . S
H261 N248 0.985 . S
C262 C263 1.363 . S
C262 C268 1.379 . S
C262 N270 1.356 . S
C263 C262 1.363 . S
C263 C269 1.363 1_556 S
C264 C265 1.363 . S
C264 C269 1.379 . S
C264 N271 1.356 . S
C265 C264 1.363 . S
C265 C268 1.363 1_554 S
N266 C268 1.356 . S
N266 H278 0.984 . S
N266 H279 0.985 . S
N267 C269 1.356 . S
N267 H272 0.984 . S
N267 H273 0.985 . S
C268 C262 1.379 . S
C268 C265 1.363 1_556 S
C268 N266 1.356 . S
C269 C263 1.363 1_554 S
C269 C264 1.379 . S
C269 N267 1.356 . S
N270 C262 1.356 . S
N270 H276 0.984 . S
N270 H277 0.984 . S
N271 C264 1.356 . S
N271 H274 0.984 . S
N271 H275 0.985 . S
H272 N267 0.984 . S
H273 N267 0.985 . S
H274 N271 0.984 . S
H275 N271 0.985 . S
H276 N270 0.984 . S
H277 N270 0.984 . S
H278 N266 0.984 . S
H279 N266 0.985 . S
C280 C281 1.363 . S
C280 C286 1.379 1_545 S
C280 N288 1.356 . S
C281 C280 1.363 . S
C281 C287 1.363 . S
C282 C283 1.363 . S
C282 C287 1.379 1_565 S
C282 N289 1.356 . S
C283 C282 1.363 . S
C283 C286 1.363 . S
N284 C286 1.356 . S
N284 H296 0.984 . S
N284 H297 0.985 . S
N285 C287 1.356 . S
N285 H290 0.984 . S
N285 H291 0.985 . S
C286 C280 1.379 1_565 S
C286 C283 1.363 . S
C286 N284 1.356 . S
C287 C281 1.363 . S
C287 C282 1.379 1_545 S
C287 N285 1.356 . S
N288 C280 1.356 . S
N288 H294 0.984 . S
N288 H295 0.984 . S
N289 C282 1.356 . S
N289 H292 0.984 . S
N289 H293 0.985 . S
H290 N285 0.984 . S
H291 N285 0.985 . S
H292 N289 0.984 . S
H293 N289 0.985 . S
H294 N288 0.984 . S
H295 N288 0.984 . S
H296 N284 0.984 . S
H297 N284 0.985 . S
C298 C299 1.363 . S
C298 C304 1.379 1_655 S
C298 N306 1.356 . S
C299 C298 1.363 . S
C299 C305 1.363 . S
C300 C301 1.363 . S
C300 C305 1.379 1_455 S
C300 N307 1.356 . S
C301 C300 1.363 . S
C301 C304 1.363 . S
N302 C304 1.356 . S
N302 H314 0.984 . S
N302 H315 0.985 . S
N303 C305 1.356 . S
N303 H308 0.984 . S
N303 H309 0.985 . S
C304 C298 1.379 1_455 S
C304 C301 1.363 . S
C304 N302 1.356 . S
C305 C299 1.363 . S
C305 C300 1.379 1_655 S
C305 N303 1.356 . S
N306 C298 1.356 . S
N306 H312 0.984 . S
N306 H313 0.984 . S
N307 C300 1.356 . S
N307 H310 0.984 . S
N307 H311 0.985 . S
H308 N303 0.984 . S
H309 N303 0.985 . S
H310 N307 0.984 . S
H311 N307 0.985 . S
H312 N306 0.984 . S
H313 N306 0.984 . S
H314 N302 0.984 . S
H315 N302 0.985 . S
C316 C317 1.363 . S
C316 C322 1.379 1_545 S
C316 N324 1.356 . S
C317 C316 1.363 . S
C317 C323 1.363 . S
C318 C319 1.363 . S
C318 C323 1.379 1_565 S
C318 N325 1.356 . S
C319 C318 1.363 . S
C319 C322 1.363 . S
N320 C322 1.356 . S
N320 H332 0.984 . S
N320 H333 0.985 . S
N321 C323 1.356 . S
N321 H326 0.984 . S
N321 H327 0.985 . S
C322 C316 1.379 1_565 S
C322 C319 1.363 . S
C322 N320 1.356 . S
C323 C317 1.363 . S
C323 C318 1.379 1_545 S
C323 N321 1.356 . S
N324 C316 1.356 . S
N324 H330 0.984 . S
N324 H331 0.984 . S
N325 C318 1.356 . S
N325 H328 0.984 . S
N325 H329 0.985 . S
H326 N321 0.984 . S
H327 N321 0.985 . S
H328 N325 0.984 . S
H329 N325 0.985 . S
H330 N324 0.984 . S
H331 N324 0.984 . S
H332 N320 0.984 . S
H333 N320 0.985 . S
C334 C335 1.363 . S
C334 C340 1.379 1_455 S
C334 N342 1.356 . S
C335 C334 1.363 . S
C335 C341 1.363 . S
C336 C337 1.363 . S
C336 C341 1.379 1_655 S
C336 N343 1.356 . S
C337 C336 1.363 . S
C337 C340 1.363 . S
N338 C340 1.356 . S
N338 H350 0.984 . S
N338 H351 0.985 . S
N339 C341 1.356 . S
N339 H344 0.984 . S
N339 H345 0.985 . S
C340 C334 1.379 1_655 S
C340 C337 1.363 . S
C340 N338 1.356 . S
C341 C335 1.363 . S
C341 C336 1.379 1_455 S
C341 N339 1.356 . S
N342 C334 1.356 . S
N342 H348 0.984 . S
N342 H349 0.984 . S
N343 C336 1.356 . S
N343 H346 0.984 . S
N343 H347 0.985 . S
H344 N339 0.984 . S
H345 N339 0.985 . S
H346 N343 0.984 . S
H347 N343 0.985 . S
H348 N342 0.984 . S
H349 N342 0.984 . S
H350 N338 0.984 . S
H351 N338 0.985 . S
C352 C353 1.363 1_554 S
C352 C358 1.379 . S
C352 N360 1.356 . S
C353 C352 1.363 1_556 S
C353 C359 1.363 . S
C354 C355 1.363 1_556 S
C354 C359 1.379 . S
C354 N361 1.356 . S
C355 C354 1.363 1_554 S
C355 C358 1.363 . S
N356 C358 1.356 . S
N356 H368 0.984 . S
N356 H369 0.985 . S
N357 C359 1.356 . S
N357 H362 0.984 . S
N357 H363 0.985 . S
C358 C352 1.379 . S
C358 C355 1.363 . S
C358 N356 1.356 . S
C359 C353 1.363 . S
C359 C354 1.379 . S
C359 N357 1.356 . S
N360 C352 1.356 . S
N360 H366 0.984 . S
N360 H367 0.984 . S
N361 C354 1.356 . S
N361 H364 0.984 . S
N361 H365 0.985 . S
H362 N357 0.984 . S
H363 N357 0.985 . S
H364 N361 0.984 . S
H365 N361 0.985 . S
H366 N360 0.984 . S
H367 N360 0.984 . S
H368 N356 0.984 . S
H369 N356 0.985 . S
C370 C371 1.363 . S
C370 C376 1.379 . S
C370 N378 1.356 . S
C371 C370 1.363 . S
C371 C377 1.363 1_554 S
C372 C373 1.363 . S
C372 C377 1.379 . S
C372 N379 1.356 . S
C373 C372 1.363 . S
C373 C376 1.363 1_556 S
N374 C376 1.356 . S
N374 H386 0.984 . S
N374 H387 0.985 . S
N375 C377 1.356 . S
N375 H380 0.984 . S
N375 H381 0.985 . S
C376 C370 1.379 . S
C376 C373 1.363 1_554 S
C376 N374 1.356 . S
C377 C371 1.363 1_556 S
C377 C372 1.379 . S
C377 N375 1.356 . S
N378 C370 1.356 . S
N378 H384 0.984 . S
N378 H385 0.984 . S
N379 C372 1.356 . S
N379 H382 0.984 . S
N379 H383 0.985 . S
H380 N375 0.984 . S
H381 N375 0.985 . S
H382 N379 0.984 . S
H383 N379 0.985 . S
H384 N378 0.984 . S
H385 N378 0.984 . S
H386 N374 0.984 . S
H387 N374 0.985 . S
C388 C389 1.363 . S
C388 C394 1.379 . S
C388 N396 1.356 . S
C389 C388 1.363 . S
C389 C395 1.363 1_556 S
C390 C391 1.363 . S
C390 C395 1.379 . S
C390 N397 1.356 . S
C391 C390 1.363 . S
C391 C394 1.363 1_554 S
N392 C394 1.356 . S
N392 H404 0.984 . S
N392 H405 0.985 . S
N393 C395 1.356 . S
N393 H398 0.984 . S
N393 H399 0.985 . S
C394 C388 1.379 . S
C394 C391 1.363 1_556 S
C394 N392 1.356 . S
C395 C389 1.363 1_554 S
C395 C390 1.379 . S
C395 N393 1.356 . S
N396 C388 1.356 . S
N396 H402 0.984 . S
N396 H403 0.984 . S
N397 C390 1.356 . S
N397 H400 0.984 . S
N397 H401 0.985 . S
H398 N393 0.984 . S
H399 N393 0.985 . S
H400 N397 0.984 . S
H401 N397 0.985 . S
H402 N396 0.984 . S
H403 N396 0.984 . S
H404 N392 0.984 . S
H405 N392 0.985 . S
C406 C407 1.363 1_556 S
C406 C412 1.379 . S
C406 N414 1.356 . S
C407 C406 1.363 1_554 S
C407 C413 1.363 . S
C408 C409 1.363 1_554 S
C408 C413 1.379 . S
C408 N415 1.356 . S
C409 C408 1.363 1_556 S
C409 C412 1.363 . S
N410 C412 1.356 . S
N410 H422 0.984 . S
N410 H423 0.985 . S
N411 C413 1.356 . S
N411 H416 0.984 . S
N411 H417 0.985 . S
C412 C406 1.379 . S
C412 C409 1.363 . S
C412 N410 1.356 . S
C413 C407 1.363 . S
C413 C408 1.379 . S
C413 N411 1.356 . S
N414 C406 1.356 . S
N414 H420 0.984 . S
N414 H421 0.984 . S
N415 C408 1.356 . S
N415 H418 0.984 . S
N415 H419 0.985 . S
H416 N411 0.984 . S
H417 N411 0.985 . S
H418 N415 0.984 . S
H419 N415 0.985 . S
H420 N414 0.984 . S
H421 N414 0.984 . S
H422 N410 0.984 . S
H423 N410 0.985 . S
C424 C425 1.363 . S
C424 C430 1.379 . S
C424 N432 1.356 . S
C425 C424 1.363 . S
C425 C431 1.363 . S
C426 C427 1.363 . S
C426 C431 1.379 . S
C426 N433 1.356 . S
C427 C426 1.363 . S
C427 C430 1.363 . S
N428 C430 1.356 . S
N428 H440 0.984 . S
N428 H441 0.985 . S
N429 C431 1.356 . S
N429 H434 0.984 . S
N429 H435 0.985 . S
C430 C424 1.379 . S
C430 C427 1.363 . S
C430 N428 1.356 . S
C431 C425 1.363 . S
C431 C426 1.379 . S
C431 N429 1.356 . S
N432 C424 1.356 . S
N432 H438 0.984 . S
N432 H439 0.984 . S
N433 C426 1.356 . S
N433 H436 0.984 . S
N433 H437 0.985 . S
H434 N429 0.984 . S
H435 N429 0.985 . S
H436 N433 0.984 . S
H437 N433 0.985 . S
H438 N432 0.984 . S
H439 N432 0.984 . S
H440 N428 0.984 . S
H441 N428 0.985 . S
C442 C443 1.363 . S
C442 C448 1.379 . S
C442 N450 1.356 . S
C443 C442 1.363 . S
C443 C449 1.363 . S
C444 C445 1.363 . S
C444 C449 1.379 . S
C444 N451 1.356 . S
C445 C444 1.363 . S
C445 C448 1.363 . S
N446 C448 1.356 . S
N446 H458 0.984 . S
N446 H459 0.985 . S
N447 C449 1.356 . S
N447 H452 0.984 . S
N447 H453 0.985 . S
C448 C442 1.379 . S
C448 C445 1.363 . S
C448 N446 1.356 . S
C449 C443 1.363 . S
C449 C444 1.379 . S
C449 N447 1.356 . S
N450 C442 1.356 . S
N450 H456 0.984 . S
N450 H457 0.984 . S
N451 C444 1.356 . S
N451 H454 0.984 . S
N451 H455 0.985 . S
H452 N447 0.984 . S
H453 N447 0.985 . S
H454 N451 0.984 . S
H455 N451 0.985 . S
H456 N450 0.984 . S
H457 N450 0.984 . S
H458 N446 0.984 . S
H459 N446 0.985 . S
C460 C461 1.363 . S
C460 C466 1.379 . S
C460 N468 1.356 . S
C461 C460 1.363 . S
C461 C467 1.363 . S
C462 C463 1.363 . S
C462 C467 1.379 . S
C462 N469 1.356 . S
C463 C462 1.363 . S
C463 C466 1.363 . S
N464 C466 1.356 . S
N464 H476 0.984 . S
N464 H477 0.985 . S
N465 C467 1.356 . S
N465 H470 0.984 . S
N465 H471 0.985 . S
C466 C460 1.379 . S
C466 C463 1.363 . S
C466 N464 1.356 . S
C467 C461 1.363 . S
C467 C462 1.379 . S
C467 N465 1.356 . S
N468 C460 1.356 . S
N468 H474 0.984 . S
N468 H475 0.984 . S
N469 C462 1.356 . S
N469 H472 0.984 . S
N469 H473 0.985 . S
H470 N465 0.984 . S
H471 N465 0.985 . S
H472 N469 0.984 . S
H473 N469 0.985 . S
H474 N468 0.984 . S
H475 N468 0.984 . S
H476 N464 0.984 . S
H477 N464 0.985 . S
C478 C479 1.363 . S
C478 C484 1.379 . S
C478 N486 1.356 . S
C479 C478 1.363 . S
C479 C485 1.363 . S
C480 C481 1.363 . S
C480 C485 1.379 . S
C480 N487 1.356 . S
C481 C480 1.363 . S
C481 C484 1.363 . S
N482 C484 1.356 . S
N482 H494 0.984 . S
N482 H495 0.985 . S
N483 C485 1.356 . S
N483 H488 0.984 . S
N483 H489 0.985 . S
C484 C478 1.379 . S
C484 C481 1.363 . S
C484 N482 1.356 . S
C485 C479 1.363 . S
C485 C480 1.379 . S
C485 N483 1.356 . S
N486 C478 1.356 . S
N486 H492 0.984 . S
N486 H493 0.984 . S
N487 C480 1.356 . S
N487 H490 0.984 . S
N487 H491 0.985 . S
H488 N483 0.984 . S
H489 N483 0.985 . S
H490 N487 0.984 . S
H491 N487 0.985 . S
H492 N486 0.984 . S
H493 N486 0.984 . S
H494 N482 0.984 . S
H495 N482 0.985 . S
C496 C497 1.363 . S
C496 C502 1.379 . S
C496 N504 1.356 . S
C497 C496 1.363 . S
C497 C503 1.363 . S
C498 C499 1.363 . S
C498 C503 1.379 . S
C498 N505 1.356 . S
C499 C498 1.363 . S
C499 C502 1.363 . S
N500 C502 1.356 . S
N500 H512 0.984 . S
N500 H513 0.985 . S
N501 C503 1.356 . S
N501 H506 0.984 . S
N501 H507 0.985 . S
C502 C496 1.379 . S
C502 C499 1.363 . S
C502 N500 1.356 . S
C503 C497 1.363 . S
C503 C498 1.379 . S
C503 N501 1.356 . S
N504 C496 1.356 . S
N504 H510 0.984 . S
N504 H511 0.984 . S
N505 C498 1.356 . S
N505 H508 0.984 . S
N505 H509 0.985 . S
H506 N501 0.984 . S
H507 N501 0.985 . S
H508 N505 0.984 . S
H509 N505 0.985 . S
H510 N504 0.984 . S
H511 N504 0.984 . S
H512 N500 0.984 . S
H513 N500 0.985 . S
C514 C515 1.363 . S
C514 C520 1.379 . S
C514 N522 1.356 . S
C515 C514 1.363 . S
C515 C521 1.363 . S
C516 C517 1.363 . S
C516 C521 1.379 . S
C516 N523 1.356 . S
C517 C516 1.363 . S
C517 C520 1.363 . S
N518 C520 1.356 . S
N518 H530 0.984 . S
N518 H531 0.985 . S
N519 C521 1.356 . S
N519 H524 0.984 . S
N519 H525 0.985 . S
C520 C514 1.379 . S
C520 C517 1.363 . S
C520 N518 1.356 . S
C521 C515 1.363 . S
C521 C516 1.379 . S
C521 N519 1.356 . S
N522 C514 1.356 . S
N522 H528 0.984 . S
N522 H529 0.984 . S
N523 C516 1.356 . S
N523 H526 0.984 . S
N523 H527 0.985 . S
H524 N519 0.984 . S
H525 N519 0.985 . S
H526 N523 0.984 . S
H527 N523 0.985 . S
H528 N522 0.984 . S
H529 N522 0.984 . S
H530 N518 0.984 . S
H531 N518 0.985 . S
C532 C533 1.363 . S
C532 C538 1.379 . S
C532 N540 1.356 . S
C533 C532 1.363 . S
C533 C539 1.363 . S
C534 C535 1.363 . S
C534 C539 1.379 . S
C534 N541 1.356 . S
C535 C534 1.363 . S
C535 C538 1.363 . S
N536 C538 1.356 . S
N536 H548 0.984 . S
N536 H549 0.985 . S
N537 C539 1.356 . S
N537 H542 0.984 . S
N537 H543 0.985 . S
C538 C532 1.379 . S
C538 C535 1.363 . S
C538 N536 1.356 . S
C539 C533 1.363 . S
C539 C534 1.379 . S
C539 N537 1.356 . S
N540 C532 1.356 . S
N540 H546 0.984 . S
N540 H547 0.984 . S
N541 C534 1.356 . S
N541 H544 0.984 . S
N541 H545 0.985 . S
H542 N537 0.984 . S
H543 N537 0.985 . S
H544 N541 0.984 . S
H545 N541 0.985 . S
H546 N540 0.984 . S
H547 N540 0.984 . S
H548 N536 0.984 . S
H549 N536 0.985 . S
C550 C551 1.363 . S
C550 C556 1.379 . S
C550 N558 1.356 . S
C551 C550 1.363 . S
C551 C557 1.363 . S
C552 C553 1.363 . S
C552 C557 1.379 . S
C552 N559 1.356 . S
C553 C552 1.363 . S
C553 C556 1.363 . S
N554 C556 1.356 . S
N554 H566 0.984 . S
N554 H567 0.985 . S
N555 C557 1.356 . S
N555 H560 0.984 . S
N555 H561 0.985 . S
C556 C550 1.379 . S
C556 C553 1.363 . S
C556 N554 1.356 . S
C557 C551 1.363 . S
C557 C552 1.379 . S
C557 N555 1.356 . S
N558 C550 1.356 . S
N558 H564 0.984 . S
N558 H565 0.984 . S
N559 C552 1.356 . S
N559 H562 0.984 . S
N559 H563 0.985 . S
H560 N555 0.984 . S
H561 N555 0.985 . S
H562 N559 0.984 . S
H563 N559 0.985 . S
H564 N558 0.984 . S
H565 N558 0.984 . S
H566 N554 0.984 . S
H567 N554 0.985 . S
C568 C569 1.363 . S
C568 C574 1.379 . S
C568 N576 1.356 . S
C569 C568 1.363 . S
C569 C575 1.363 . S
C570 C571 1.363 . S
C570 C575 1.379 . S
C570 N577 1.356 . S
C571 C570 1.363 . S
C571 C574 1.363 . S
N572 C574 1.356 . S
N572 H584 0.984 . S
N572 H585 0.985 . S
N573 C575 1.356 . S
N573 H578 0.984 . S
N573 H579 0.985 . S
C574 C568 1.379 . S
C574 C571 1.363 . S
C574 N572 1.356 . S
C575 C569 1.363 . S
C575 C570 1.379 . S
C575 N573 1.356 . S
N576 C568 1.356 . S
N576 H582 0.984 . S
N576 H583 0.984 . S
N577 C570 1.356 . S
N577 H580 0.984 . S
N577 H581 0.985 . S
H578 N573 0.984 . S
H579 N573 0.985 . S
H580 N577 0.984 . S
H581 N577 0.985 . S
H582 N576 0.984 . S
H583 N576 0.984 . S
H584 N572 0.984 . S
H585 N572 0.985 . S
C586 C587 1.363 . S
C586 C592 1.379 . S
C586 N594 1.356 . S
C587 C586 1.363 . S
C587 C593 1.363 . S
C588 C589 1.363 . S
C588 C593 1.379 . S
C588 N595 1.356 . S
C589 C588 1.363 . S
C589 C592 1.363 . S
N590 C592 1.356 . S
N590 H602 0.984 . S
N590 H603 0.985 . S
N591 C593 1.356 . S
N591 H596 0.984 . S
N591 H597 0.985 . S
C592 C586 1.379 . S
C592 C589 1.363 . S
C592 N590 1.356 . S
C593 C587 1.363 . S
C593 C588 1.379 . S
C593 N591 1.356 . S
N594 C586 1.356 . S
N594 H600 0.984 . S
N594 H601 0.984 . S
N595 C588 1.356 . S
N595 H598 0.984 . S
N595 H599 0.985 . S
H596 N591 0.984 . S
H597 N591 0.985 . S
H598 N595 0.984 . S
H599 N595 0.985 . S
H600 N594 0.984 . S
H601 N594 0.984 . S
H602 N590 0.984 . S
H603 N590 0.985 . S
C604 C605 1.363 . S
C604 C610 1.379 . S
C604 N612 1.356 . S
C605 C604 1.363 . S
C605 C611 1.363 . S
C606 C607 1.363 . S
C606 C611 1.379 . S
C606 N613 1.356 . S
C607 C606 1.363 . S
C607 C610 1.363 . S
N608 C610 1.356 . S
N608 H620 0.984 . S
N608 H621 0.985 . S
N609 C611 1.356 . S
N609 H614 0.984 . S
N609 H615 0.985 . S
C610 C604 1.379 . S
C610 C607 1.363 . S
C610 N608 1.356 . S
C611 C605 1.363 . S
C611 C606 1.379 . S
C611 N609 1.356 . S
N612 C604 1.356 . S
N612 H618 0.984 . S
N612 H619 0.984 . S
N613 C606 1.356 . S
N613 H616 0.984 . S
N613 H617 0.985 . S
H614 N609 0.984 . S
H615 N609 0.985 . S
H616 N613 0.984 . S
H617 N613 0.985 . S
H618 N612 0.984 . S
H619 N612 0.984 . S
H620 N608 0.984 . S
H621 N608 0.985 . S
C622 C623 1.363 . S
C622 C628 1.379 . S
C622 N630 1.356 . S
C623 C622 1.363 . S
C623 C629 1.363 . S
C624 C625 1.363 . S
C624 C629 1.379 . S
C624 N631 1.356 . S
C625 C624 1.363 . S
C625 C628 1.363 . S
N626 C628 1.356 . S
N626 H638 0.984 . S
N626 H639 0.985 . S
N627 C629 1.356 . S
N627 H632 0.984 . S
N627 H633 0.985 . S
C628 C622 1.379 . S
C628 C625 1.363 . S
C628 N626 1.356 . S
C629 C623 1.363 . S
C629 C624 1.379 . S
C629 N627 1.356 . S
N630 C622 1.356 . S
N630 H636 0.984 . S
N630 H637 0.984 . S
N631 C624 1.356 . S
N631 H634 0.984 . S
N631 H635 0.985 . S
H632 N627 0.984 . S
H633 N627 0.985 . S
H634 N631 0.984 . S
H635 N631 0.985 . S
H636 N630 0.984 . S
H637 N630 0.984 . S
H638 N626 0.984 . S
H639 N626 0.985 . S
C640 C641 1.363 . S
C640 C646 1.379 . S
C640 N648 1.356 . S
C641 C640 1.363 . S
C641 C647 1.363 . S
C642 C643 1.363 . S
C642 C647 1.379 . S
C642 N649 1.356 . S
C643 C642 1.363 . S
C643 C646 1.363 . S
N644 C646 1.356 . S
N644 H656 0.984 . S
N644 H657 0.985 . S
N645 C647 1.356 . S
N645 H650 0.984 . S
N645 H651 0.985 . S
C646 C640 1.379 . S
C646 C643 1.363 . S
C646 N644 1.356 . S
C647 C641 1.363 . S
C647 C642 1.379 . S
C647 N645 1.356 . S
N648 C640 1.356 . S
N648 H654 0.984 . S
N648 H655 0.984 . S
N649 C642 1.356 . S
N649 H652 0.984 . S
N649 H653 0.985 . S
H650 N645 0.984 . S
H651 N645 0.985 . S
H652 N649 0.984 . S
H653 N649 0.985 . S
H654 N648 0.984 . S
H655 N648 0.984 . S
H656 N644 0.984 . S
H657 N644 0.985 . S
C658 C659 1.363 . S
C658 C664 1.379 . S
C658 N666 1.356 . S
C659 C658 1.363 . S
C659 C665 1.363 . S
C660 C661 1.363 . S
C660 C665 1.379 . S
C660 N667 1.356 . S
C661 C660 1.363 . S
C661 C664 1.363 . S
N662 C664 1.356 . S
N662 H674 0.984 . S
N662 H675 0.985 . S
N663 C665 1.356 . S
N663 H668 0.984 . S
N663 H669 0.985 . S
C664 C658 1.379 . S
C664 C661 1.363 . S
C664 N662 1.356 . S
C665 C659 1.363 . S
C665 C660 1.379 . S
C665 N663 1.356 . S
N666 C658 1.356 . S
N666 H672 0.984 . S
N666 H673 0.984 . S
N667 C660 1.356 . S
N667 H670 0.984 . S
N667 H671 0.985 . S
H668 N663 0.984 . S
H669 N663 0.985 . S
H670 N667 0.984 . S
H671 N667 0.985 . S
H672 N666 0.984 . S
H673 N666 0.984 . S
H674 N662 0.984 . S
H675 N662 0.985 . S
C676 C677 1.363 . S
C676 C682 1.379 . S
C676 N684 1.356 . S
C677 C676 1.363 . S
C677 C683 1.363 . S
C678 C679 1.363 . S
C678 C683 1.379 . S
C678 N685 1.356 . S
C679 C678 1.363 . S
C679 C682 1.363 . S
N680 C682 1.356 . S
N680 H692 0.984 . S
N680 H693 0.985 . S
N681 C683 1.356 . S
N681 H686 0.984 . S
N681 H687 0.985 . S
C682 C676 1.379 . S
C682 C679 1.363 . S
C682 N680 1.356 . S
C683 C677 1.363 . S
C683 C678 1.379 . S
C683 N681 1.356 . S
N684 C676 1.356 . S
N684 H690 0.984 . S
N684 H691 0.984 . S
N685 C678 1.356 . S
N685 H688 0.984 . S
N685 H689 0.985 . S
H686 N681 0.984 . S
H687 N681 0.985 . S
H688 N685 0.984 . S
H689 N685 0.985 . S
H690 N684 0.984 . S
H691 N684 0.984 . S
H692 N680 0.984 . S
H693 N680 0.985 . S
C694 C695 1.363 . S
C694 C700 1.379 . S
C694 N702 1.356 . S
C695 C694 1.363 . S
C695 C701 1.363 . S
C696 C697 1.363 . S
C696 C701 1.379 . S
C696 N703 1.356 . S
C697 C696 1.363 . S
C697 C700 1.363 . S
N698 C700 1.356 . S
N698 H710 0.984 . S
N698 H711 0.985 . S
N699 C701 1.356 . S
N699 H704 0.984 . S
N699 H705 0.985 . S
C700 C694 1.379 . S
C700 C697 1.363 . S
C700 N698 1.356 . S
C701 C695 1.363 . S
C701 C696 1.379 . S
C701 N699 1.356 . S
N702 C694 1.356 . S
N702 H708 0.984 . S
N702 H709 0.984 . S
N703 C696 1.356 . S
N703 H706 0.984 . S
N703 H707 0.985 . S
H704 N699 0.984 . S
H705 N699 0.985 . S
H706 N703 0.984 . S
H707 N703 0.985 . S
H708 N702 0.984 . S
H709 N702 0.984 . S
H710 N698 0.984 . S
H711 N698 0.985 . S
C712 C713 1.363 . S
C712 C718 1.379 . S
C712 N720 1.356 . S
C713 C712 1.363 . S
C713 C719 1.363 . S
C714 C715 1.363 . S
C714 C719 1.379 . S
C714 N721 1.356 . S
C715 C714 1.363 . S
C715 C718 1.363 . S
N716 C718 1.356 . S
N716 H728 0.984 . S
N716 H729 0.985 . S
N717 C719 1.356 . S
N717 H722 0.984 . S
N717 H723 0.985 . S
C718 C712 1.379 . S
C718 C715 1.363 . S
C718 N716 1.356 . S
C719 C713 1.363 . S
C719 C714 1.379 . S
C719 N717 1.356 . S
N720 C712 1.356 . S
N720 H726 0.984 . S
N720 H727 0.984 . S
N721 C714 1.356 . S
N721 H724 0.984 . S
N721 H725 0.985 . S
H722 N717 0.984 . S
H723 N717 0.985 . S
H724 N721 0.984 . S
H725 N721 0.985 . S
H726 N720 0.984 . S
H727 N720 0.984 . S
H728 N716 0.984 . S
H729 N716 0.985 . S
C730 C731 1.363 . S
C730 C736 1.379 . S
C730 N738 1.356 . S
C731 C730 1.363 . S
C731 C737 1.363 . S
C732 C733 1.363 . S
C732 C737 1.379 . S
C732 N739 1.356 . S
C733 C732 1.363 . S
C733 C736 1.363 . S
N734 C736 1.356 . S
N734 H746 0.984 . S
N734 H747 0.985 . S
N735 C737 1.356 . S
N735 H740 0.984 . S
N735 H741 0.985 . S
C736 C730 1.379 . S
C736 C733 1.363 . S
C736 N734 1.356 . S
C737 C731 1.363 . S
C737 C732 1.379 . S
C737 N735 1.356 . S
N738 C730 1.356 . S
N738 H744 0.984 . S
N738 H745 0.984 . S
N739 C732 1.356 . S
N739 H742 0.984 . S
N739 H743 0.985 . S
H740 N735 0.984 . S
H741 N735 0.985 . S
H742 N739 0.984 . S
H743 N739 0.985 . S
H744 N738 0.984 . S
H745 N738 0.984 . S
H746 N734 0.984 . S
H747 N734 0.985 . S
C748 C749 1.363 . S
C748 C754 1.379 . S
C748 N756 1.356 . S
C749 C748 1.363 . S
C749 C755 1.363 . S
C750 C751 1.363 . S
C750 C755 1.379 . S
C750 N757 1.356 . S
C751 C750 1.363 . S
C751 C754 1.363 . S
N752 C754 1.356 . S
N752 H764 0.984 . S
N752 H765 0.985 . S
N753 C755 1.356 . S
N753 H758 0.984 . S
N753 H759 0.985 . S
C754 C748 1.379 . S
C754 C751 1.363 . S
C754 N752 1.356 . S
C755 C749 1.363 . S
C755 C750 1.379 . S
C755 N753 1.356 . S
N756 C748 1.356 . S
N756 H762 0.984 . S
N756 H763 0.984 . S
N757 C750 1.356 . S
N757 H760 0.984 . S
N757 H761 0.985 . S
H758 N753 0.984 . S
H759 N753 0.985 . S
H760 N757 0.984 . S
H761 N757 0.985 . S
H762 N756 0.984 . S
H763 N756 0.984 . S
H764 N752 0.984 . S
H765 N752 0.985 . S
C766 C767 1.363 . S
C766 C772 1.379 . S
C766 N774 1.356 . S
C767 C766 1.363 . S
C767 C773 1.363 . S
C768 C769 1.363 . S
C768 C773 1.379 . S
C768 N775 1.356 . S
C769 C768 1.363 . S
C769 C772 1.363 . S
N770 C772 1.356 . S
N770 H782 0.984 . S
N770 H783 0.985 . S
N771 C773 1.356 . S
N771 H776 0.984 . S
N771 H777 0.985 . S
C772 C766 1.379 . S
C772 C769 1.363 . S
C772 N770 1.356 . S
C773 C767 1.363 . S
C773 C768 1.379 . S
C773 N771 1.356 . S
N774 C766 1.356 . S
N774 H780 0.984 . S
N774 H781 0.984 . S
N775 C768 1.356 . S
N775 H778 0.984 . S
N775 H779 0.985 . S
H776 N771 0.984 . S
H777 N771 0.985 . S
H778 N775 0.984 . S
H779 N775 0.985 . S
H780 N774 0.984 . S
H781 N774 0.984 . S
H782 N770 0.984 . S
H783 N770 0.985 . S
C209 C56 1.513 . S
C211 C4 1.513 . S
C227 C75 1.513 . S
C229 C17 1.513 . S
C245 C82 1.513 . S
C247 C36 1.513 . S
C263 C95 1.513 . S
C265 C43 1.513 . S
C281 C166 1.513 . S
C283 C108 1.513 . S
C299 C173 1.513 . S
C301 C127 1.513 . S
C317 C140 1.513 . S
C319 C186 1.513 . S
C335 C205 1.513 . S
C337 C147 1.513 . S
C353 C5 1.546 . S
C355 C68 1.546 . S
C371 C83 1.546 . S
C373 C18 1.546 . S
C389 C29 1.546 . S
C391 C96 1.546 . S
C407 C57 1.546 . S
C409 C44 1.546 . S
C425 C174 1.546 . S
C427 C109 1.546 . S
C443 C187 1.546 . S
C445 C120 1.546 . S
C461 C133 1.546 . S
C463 C198 1.546 . S
C479 C148 1.546 . S
C481 C159 1.546 . S
C497 C199 1.464 . S
C499 C10 1.464 . S
C515 C160 1.464 . S
C517 C23 1.464 . S
C533 C179 1.464 . S
C535 C30 1.464 . S
C551 C192 1.464 . S
C553 C49 1.464 . S
C569 C121 1.464 . S
C571 C62 1.464 . S
C587 C134 1.464 . S
C589 C69 1.464 . S
C605 C88 1.464 . S
C607 C153 1.464 . S
C623 C101 1.464 . S
C625 C114 1.464 . S
C641 C172 1.432 . S
C643 C31 1.432 . S
C659 C185 1.432 . S
C661 C42 1.432 . S
C677 C200 1.432 . S
C679 C3 1.432 . S
C695 C16 1.432 . S
C697 C161 1.432 . S
C713 C146 1.432 . S
C715 C81 1.432 . S
C731 C94 1.432 . S
C733 C107 1.432 . S
C749 C122 1.432 . S
C751 C55 1.432 . S
C767 C135 1.432 . S
C769 C70 1.432 . S
