# Generated by pormake.
# Topology atn, (4)-cn, num edge types: 1
# Building blocks:
#     Node 0, Type 0, BuildingBlock: QUQFOY_clean_sbu_3, # of connection points: 4
#     Node 1, Type 0, BuildingBlock: QUQFOY_clean_sbu_3, # of connection points: 4
#     Node 2, Type 0, BuildingBlock: QUQFOY_clean_sbu_3, # of connection points: 4
#     Node 3, Type 0, BuildingBlock: QUQFOY_clean_sbu_3, # of connection points: 4
#     Node 4, Type 0, BuildingBlock: QUQFOY_clean_sbu_3, # of connection points: 4
#     Node 5, Type 0, BuildingBlock: QUQFOY_clean_sbu_3, # of connection points: 4
#     Node 6, Type 0, BuildingBlock: QUQFOY_clean_sbu_3, # of connection points: 4
#     Node 7, Type 0, BuildingBlock: QUQFOY_clean_sbu_3, # of connection points: 4
#     Node 8, Type 0, BuildingBlock: QUQFOY_clean_sbu_3, # of connection points: 4
#     Node 9, Type 0, BuildingBlock: QUQFOY_clean_sbu_3, # of connection points: 4
#     Node 10, Type 0, BuildingBlock: QUQFOY_clean_sbu_3, # of connection points: 4
#     Node 11, Type 0, BuildingBlock: QUQFOY_clean_sbu_3, # of connection points: 4
#     Node 12, Type 0, BuildingBlock: QUQFOY_clean_sbu_3, # of connection points: 4
#     Node 13, Type 0, BuildingBlock: QUQFOY_clean_sbu_3, # of connection points: 4
#     Node 14, Type 0, BuildingBlock: QUQFOY_clean_sbu_3, # of connection points: 4
#     Node 15, Type 0, BuildingBlock: QUQFOY_clean_sbu_3, # of connection points: 4
#     Edge 16, Type (0, 0), BuildingBlock: AJUNOK_clean_linker_0, # of connection points: 2
#     Edge 17, Type (0, 0), BuildingBlock: AJUNOK_clean_linker_0, # of connection points: 2
#     Edge 18, Type (0, 0), BuildingBlock: AJUNOK_clean_linker_0, # of connection points: 2
#     Edge 19, Type (0, 0), BuildingBlock: AJUNOK_clean_linker_0, # of connection points: 2
#     Edge 20, Type (0, 0), BuildingBlock: AJUNOK_clean_linker_0, # of connection points: 2
#     Edge 21, Type (0, 0), BuildingBlock: AJUNOK_clean_linker_0, # of connection points: 2
#     Edge 22, Type (0, 0), BuildingBlock: AJUNOK_clean_linker_0, # of connection points: 2
#     Edge 23, Type (0, 0), BuildingBlock: AJUNOK_clean_linker_0, # of connection points: 2
#     Edge 24, Type (0, 0), BuildingBlock: AJUNOK_clean_linker_0, # of connection points: 2
#     Edge 25, Type (0, 0), BuildingBlock: AJUNOK_clean_linker_0, # of connection points: 2
#     Edge 26, Type (0, 0), BuildingBlock: AJUNOK_clean_linker_0, # of connection points: 2
#     Edge 27, Type (0, 0), BuildingBlock: AJUNOK_clean_linker_0, # of connection points: 2
#     Edge 28, Type (0, 0), BuildingBlock: AJUNOK_clean_linker_0, # of connection points: 2
#     Edge 29, Type (0, 0), BuildingBlock: AJUNOK_clean_linker_0, # of connection points: 2
#     Edge 30, Type (0, 0), BuildingBlock: AJUNOK_clean_linker_0, # of connection points: 2
#     Edge 31, Type (0, 0), BuildingBlock: AJUNOK_clean_linker_0, # of connection points: 2
#     Edge 32, Type (0, 0), BuildingBlock: AJUNOK_clean_linker_0, # of connection points: 2
#     Edge 33, Type (0, 0), BuildingBlock: AJUNOK_clean_linker_0, # of connection points: 2
#     Edge 34, Type (0, 0), BuildingBlock: AJUNOK_clean_linker_0, # of connection points: 2
#     Edge 35, Type (0, 0), BuildingBlock: AJUNOK_clean_linker_0, # of connection points: 2
#     Edge 36, Type (0, 0), BuildingBlock: AJUNOK_clean_linker_0, # of connection points: 2
#     Edge 37, Type (0, 0), BuildingBlock: AJUNOK_clean_linker_0, # of connection points: 2
#     Edge 38, Type (0, 0), BuildingBlock: AJUNOK_clean_linker_0, # of connection points: 2
#     Edge 39, Type (0, 0), BuildingBlock: AJUNOK_clean_linker_0, # of connection points: 2
#     Edge 40, Type (0, 0), BuildingBlock: AJUNOK_clean_linker_0, # of connection points: 2
#     Edge 41, Type (0, 0), BuildingBlock: AJUNOK_clean_linker_0, # of connection points: 2
#     Edge 42, Type (0, 0), BuildingBlock: AJUNOK_clean_linker_0, # of connection points: 2
#     Edge 43, Type (0, 0), BuildingBlock: AJUNOK_clean_linker_0, # of connection points: 2
#     Edge 44, Type (0, 0), BuildingBlock: AJUNOK_clean_linker_0, # of connection points: 2
#     Edge 45, Type (0, 0), BuildingBlock: AJUNOK_clean_linker_0, # of connection points: 2
#     Edge 46, Type (0, 0), BuildingBlock: AJUNOK_clean_linker_0, # of connection points: 2
#     Edge 47, Type (0, 0), BuildingBlock: AJUNOK_clean_linker_0, # of connection points: 2
# Relax obj value: 0.028
# Max RMSD: 0.059
# Mean RMSD: 0.059
data_MOF--net-atn--node1-QUQFOY_clean_sbu_3--edge1-AJUNOK_clean_linker_0
_symmetry_space_group_name_H-M    P1
_symmetry_Int_Tables_number       1
_symmetry_cell_setting            triclinic
loop_
_symmetry_equiv_pos_as_xyz
'x, y, z'
_cell_length_a     46.631725
_cell_length_b     46.497559
_cell_length_c     21.031989
_cell_angle_alpha  89.742359
_cell_angle_beta   90.163968
_cell_angle_gamma 90.281651
loop_
_atom_site_label
_atom_site_type_symbol
_atom_site_fract_x
_atom_site_fract_y
_atom_site_fract_z
_atom_type_partial_charge
C0 C 0.14166 0.33712 0.88966 0.0
O1 O 0.12894 0.31845 0.92377 0.0
Cd2 Cd 0.13995 0.31015 0.03332 0.0
O3 O 0.15969 0.3545 0.91435 0.0
Cd4 Cd 0.1795 0.36813 0.01918 0.0
C5 C 0.21414 0.30504 0.01874 0.0
O6 O 0.13867 0.35539 0.08394 0.0
O7 O 0.17791 0.36422 0.13482 0.0
O8 O 0.16498 0.41609 -0.00325 0.0
C9 C 0.15153 0.35754 0.13682 0.0
O10 O 0.18945 0.29414 0.02915 0.0
C11 C 0.18902 0.42808 0.00713 0.0
O12 O 0.21725 0.33206 0.01056 0.0
O13 O 0.20999 0.41173 0.02078 0.0
C14 C 0.63293 0.15207 0.88163 0.0
O15 O 0.64947 0.13648 0.91517 0.0
Cd16 Cd 0.65623 0.14219 0.02785 0.0
O17 O 0.61764 0.17132 0.90767 0.0
Cd18 Cd 0.60646 0.19102 0.01351 0.0
C19 C 0.67462 0.2145 0.02714 0.0
O20 O 0.60951 0.14567 0.07242 0.0
O21 O 0.60348 0.18407 0.12763 0.0
O22 O 0.55865 0.1938 0.96962 0.0
C23 C 0.6063 0.15704 0.12661 0.0
O24 O 0.68116 0.18821 0.03597 0.0
C25 C 0.55216 0.21708 -0.00277 0.0
O26 O 0.64889 0.22169 0.0146 0.0
O27 O 0.57135 0.22901 0.0311 0.0
C28 C 0.83405 0.63423 0.88296 0.0
O29 O 0.84683 0.65295 0.91661 0.0
Cd30 Cd 0.83582 0.66299 0.02516 0.0
O31 O 0.81519 0.61767 0.90743 0.0
Cd32 Cd 0.79363 0.60713 0.01197 0.0
C33 C 0.76233 0.67216 0.00862 0.0
O34 O 0.83432 0.61837 0.07911 0.0
O35 O 0.79354 0.61291 0.12639 0.0
O36 O 0.80492 0.55737 0.00626 0.0
C37 C 0.82034 0.61725 0.13061 0.0
O38 O 0.78744 0.68197 0.01939 0.0
C39 C 0.77944 0.54805 0.0114 0.0
O40 O 0.75805 0.64529 0.00107 0.0
O41 O 0.75935 0.56643 0.01252 0.0
C42 C 0.34766 0.82666 0.87781 0.0
O43 O 0.33204 0.8425 0.91233 0.0
Cd44 Cd 0.32461 0.83413 0.02352 0.0
O45 O 0.36199 0.80615 0.90251 0.0
Cd46 Cd 0.37296 0.78456 0.00797 0.0
C47 C 0.30462 0.76202 0.01426 0.0
O48 O 0.37087 0.82911 0.06894 0.0
O49 O 0.37404 0.7897 0.12269 0.0
O50 O 0.42077 0.78288 0.96476 0.0
C51 C 0.37291 0.81687 0.12273 0.0
O52 O 0.29896 0.78835 0.02471 0.0
C53 C 0.42775 0.75967 -0.00745 0.0
O54 O 0.33028 0.75407 0.00382 0.0
O55 O 0.40876 0.7471 0.02585 0.0
C56 C 0.138 0.64185 0.10921 0.0
O57 O 0.12475 0.65963 0.07396 0.0
Cd58 Cd 0.13828 0.66863 0.96622 0.0
O59 O 0.15759 0.62598 0.08631 0.0
Cd60 Cd 0.18156 0.6124 -0.01311 0.0
C61 C 0.21192 0.67799 -0.00707 0.0
O62 O 0.14205 0.62315 0.918 0.0
O63 O 0.18213 0.61483 0.87095 0.0
O64 O 0.16678 0.56526 0.01555 0.0
C65 C 0.15581 0.62133 0.86642 0.0
O66 O 0.18686 0.68685 0.97895 0.0
C67 C 0.19054 0.55285 0.00616 0.0
O68 O 0.21683 0.65122 0.00098 0.0
O69 O 0.21164 0.56872 -0.01005 0.0
C70 C 0.35109 0.15465 0.12736 0.0
O71 O 0.33349 0.14031 0.09376 0.0
Cd72 Cd 0.32399 0.15058 -0.01549 0.0
O73 O 0.3659 0.17488 0.10257 0.0
Cd74 Cd 0.37523 0.19839 -0.00126 0.0
C75 C 0.30781 0.22326 -0.00124 0.0
O76 O 0.36989 0.15465 0.9371 0.0
O77 O 0.37419 0.19388 0.88334 0.0
O78 O 0.42386 0.19837 0.03811 0.0
C79 C 0.37129 0.1668 0.88325 0.0
O80 O 0.3006 0.19727 -0.01221 0.0
C81 C 0.43126 0.22151 0.01043 0.0
O82 O 0.33399 0.2301 0.00771 0.0
O83 O 0.41216 0.23494 0.97929 0.0
C84 C 0.83946 0.34055 0.11895 0.0
O85 O 0.85249 0.32223 0.08513 0.0
Cd86 Cd 0.83775 0.31195 0.97869 0.0
O87 O 0.81928 0.35558 0.09541 0.0
Cd88 Cd 0.79291 0.36722 -0.00284 0.0
C89 C 0.76492 0.3006 0.00885 0.0
O90 O 0.83289 0.3576 0.92933 0.0
O91 O 0.79318 0.36659 0.88092 0.0
O92 O 0.80249 0.41453 0.03464 0.0
C93 C 0.81943 0.35987 0.87724 0.0
O94 O 0.79 0.2918 -0.00474 0.0
C95 C 0.77828 0.42517 0.02071 0.0
O96 O 0.75951 0.32735 0.01378 0.0
O97 O 0.75981 0.40846 -0.00439 0.0
C98 C 0.63013 0.82646 0.12366 0.0
O99 O 0.64819 0.84017 0.08991 0.0
Cd100 Cd 0.65688 0.83047 0.98024 0.0
O101 O 0.61452 0.80683 0.09912 0.0
Cd102 Cd 0.60457 0.78377 -0.00457 0.0
C103 C 0.67171 0.75758 -0.00763 0.0
O104 O 0.6105 0.82772 0.93387 0.0
O105 O 0.6043 0.78899 0.88004 0.0
O106 O 0.55589 0.78322 0.03459 0.0
C107 C 0.60819 0.81594 0.87998 0.0
O108 O 0.6796 0.7834 0.98127 0.0
C109 C 0.54885 0.75989 0.0075 0.0
O110 O 0.64546 0.75153 0.00259 0.0
O111 O 0.56813 0.74679 0.97676 0.0
C112 C 0.63697 0.83902 0.39749 0.0
O113 O 0.6248 0.82048 0.43292 0.0
Cd114 Cd 0.63687 0.81274 0.54216 0.0
O115 O 0.65549 0.8564 0.42043 0.0
Cd116 Cd 0.6776 0.86927 0.52363 0.0
C117 C 0.71055 0.8051 0.5236 0.0
O118 O 0.63697 0.8585 0.59064 0.0
O119 O 0.67716 0.86561 0.63936 0.0
O120 O 0.66543 0.91863 0.51034 0.0
C121 C 0.6504 0.8609 0.64275 0.0
O122 O 0.68574 0.79494 0.5359 0.0
C123 C 0.69067 0.92855 0.51583 0.0
O124 O 0.71422 0.83197 0.51438 0.0
O125 O 0.71105 0.91062 0.52085 0.0
C126 C 0.13232 0.65142 0.38277 0.0
O127 O 0.15045 0.6375 0.41582 0.0
Cd128 Cd 0.1634 0.65142 0.52117 0.0
O129 O 0.11806 0.67183 0.40728 0.0
Cd130 Cd 0.10881 0.6963 0.5087 0.0
C131 C 0.17438 0.72462 0.48955 0.0
O132 O 0.11959 0.65599 0.57589 0.0
O133 O 0.11467 0.6967 0.62387 0.0
O134 O 0.06034 0.68254 0.49427 0.0
C135 C 0.11894 0.66982 0.62752 0.0
O136 O 0.18293 0.69916 0.5013 0.0
C137 C 0.04933 0.70711 0.50223 0.0
O138 O 0.14776 0.73081 0.48875 0.0
O139 O 0.06641 0.72829 0.50972 0.0
C140 C 0.34402 0.14272 0.40131 0.0
O141 O 0.35531 0.16184 0.43642 0.0
Cd142 Cd 0.3425 0.16921 0.54512 0.0
O143 O 0.32611 0.12469 0.42431 0.0
Cd144 Cd 0.304 0.11093 0.5268 0.0
C145 C 0.26851 0.17376 0.52493 0.0
O146 O 0.34393 0.12343 0.59437 0.0
O147 O 0.30412 0.11421 0.64258 0.0
O148 O 0.31811 0.06207 0.51477 0.0
C149 C 0.33059 0.12036 0.64631 0.0
O150 O 0.29292 0.18493 0.53719 0.0
C151 C 0.29316 0.05125 0.51801 0.0
O152 O 0.2659 0.14675 0.51648 0.0
O153 O 0.27213 0.06846 0.52161 0.0
C154 C 0.84625 0.33293 0.39208 0.0
O155 O 0.82772 0.34645 0.42426 0.0
Cd156 Cd 0.81374 0.33195 0.52867 0.0
O157 O 0.86031 0.3123 0.41698 0.0
Cd158 Cd 0.86758 0.28725 0.51949 0.0
C159 C 0.80184 0.25925 0.49769 0.0
O160 O 0.85689 0.32741 0.58709 0.0
O161 O 0.86006 0.28606 0.63405 0.0
O162 O 0.91733 0.29816 0.51415 0.0
C163 C 0.85669 0.31303 0.63831 0.0
O164 O 0.79312 0.28464 0.50888 0.0
C165 C 0.92638 0.27257 0.51858 0.0
O166 O 0.82849 0.25325 0.49806 0.0
O167 O 0.90773 0.25252 0.52027 0.0
C168 C 0.64115 0.14428 0.60581 0.0
O169 O 0.62775 0.16149 0.56942 0.0
Cd170 Cd 0.63746 0.16509 0.45763 0.0
O171 O 0.6592 0.12667 0.58287 0.0
Cd172 Cd 0.67937 0.10976 0.48094 0.0
C173 C 0.71163 0.17422 0.46614 0.0
O174 O 0.63661 0.11737 0.418 0.0
O175 O 0.67439 0.10642 0.36513 0.0
O176 O 0.66924 0.0639 0.52693 0.0
C177 C 0.64795 0.11261 0.36446 0.0
O178 O 0.68646 0.1835 0.45477 0.0
C179 C 0.69256 0.05191 0.5116 0.0
O180 O 0.71574 0.14789 0.48059 0.0
O181 O 0.7109 0.06729 0.48218 0.0
C182 C 0.83911 0.64665 0.60951 0.0
O183 O 0.82091 0.63342 0.57524 0.0
Cd184 Cd 0.81199 0.6469 0.46726 0.0
O185 O 0.85463 0.66661 0.58591 0.0
Cd186 Cd 0.86698 0.69191 0.4863 0.0
C187 C 0.80101 0.7205 0.49124 0.0
O188 O 0.85818 0.65052 0.42165 0.0
O189 O 0.86653 0.68967 0.36981 0.0
O190 O 0.91406 0.68149 0.52263 0.0
C191 C 0.86087 0.66298 0.36844 0.0
O192 O 0.79244 0.69507 0.4786 0.0
C193 C 0.92548 0.70543 0.50815 0.0
O194 O 0.82761 0.72605 0.49875 0.0
O195 O 0.90902 0.72457 0.48499 0.0
C196 C 0.33913 0.83456 0.6023 0.0
O197 O 0.35146 0.81588 0.56814 0.0
Cd198 Cd 0.34195 0.81171 0.45608 0.0
O199 O 0.32217 0.85274 0.57714 0.0
Cd200 Cd 0.30249 0.8695 0.47465 0.0
C201 C 0.26736 0.80651 0.46139 0.0
O202 O 0.34483 0.85901 0.41328 0.0
O203 O 0.30805 0.87249 0.35903 0.0
O204 O 0.31477 0.91502 0.51878 0.0
C205 C 0.33392 0.86422 0.35925 0.0
O206 O 0.29212 0.79595 0.45171 0.0
C207 C 0.29164 0.92775 0.5045 0.0
O208 O 0.2644 0.83305 0.47477 0.0
O209 O 0.27255 0.91305 0.47579 0.0
C210 C 0.13629 0.32616 0.61541 0.0
O211 O 0.15351 0.3405 0.58072 0.0
Cd212 Cd 0.16118 0.32827 0.47133 0.0
O213 O 0.12113 0.30604 0.59169 0.0
Cd214 Cd 0.10759 0.28125 0.49292 0.0
C215 C 0.17444 0.25469 0.4941 0.0
O216 O 0.11475 0.32295 0.42719 0.0
O217 O 0.10581 0.28365 0.37678 0.0
O218 O 0.06163 0.29139 0.53511 0.0
C219 C 0.11124 0.31037 0.37448 0.0
O220 O 0.18192 0.28049 0.48127 0.0
C221 C 0.04963 0.26779 0.52055 0.0
O222 O 0.14815 0.24815 0.50305 0.0
O223 O 0.06528 0.24888 0.49438 0.0
C224 C 0.16628 0.50555 0.01533 0.0
C225 C 0.19207 0.52111 0.00932 0.0
C226 C 0.16585 0.47563 0.0141 0.0
C227 C 0.19121 0.45976 0.00759 0.0
H228 H 0.14595 0.51649 0.01994 0.0
H229 H 0.14528 0.4649 0.01866 0.0
S230 S 0.2647 0.48983 -0.0078 0.0
N231 N 0.24391 0.51839 -0.00243 0.0
N232 N 0.24309 0.46161 -0.00349 0.0
C233 C 0.21736 0.47483 0.00285 0.0
C234 C 0.21778 0.50561 0.00333 0.0
C235 C 0.47857 0.23018 0.0611 0.0
C236 C 0.46169 0.22911 0.00579 0.0
C237 C 0.50854 0.22953 0.05738 0.0
C238 C 0.52228 0.22666 -0.00162 0.0
H239 H 0.46851 0.22983 0.10748 0.0
H240 H 0.52085 0.22863 0.10115 0.0
S241 S 0.4877 0.22526 0.8398 0.0
N242 N 0.46077 0.22781 0.89031 0.0
N243 N 0.51717 0.22496 0.88361 0.0
C244 C 0.50573 0.22727 0.9427 0.0
C245 C 0.47531 0.22892 0.94636 0.0
C246 C 0.75539 0.47121 -0.01448 0.0
C247 C 0.7735 0.45629 0.02792 0.0
C248 C 0.7558 0.50143 -0.01738 0.0
C249 C 0.77442 0.51725 0.02185 0.0
H250 H 0.74227 0.45952 0.95169 0.0
H251 H 0.74293 0.5123 0.94699 0.0
S252 S 0.82138 0.48871 0.14949 0.0
N253 N 0.80697 0.45988 0.11654 0.0
N254 N 0.80802 0.51641 0.11022 0.0
C255 C 0.7907 0.50269 0.06782 0.0
C256 C 0.79014 0.4722 0.07116 0.0
C257 C 0.50174 0.75091 0.05864 0.0
C258 C 0.51858 0.75146 0.00344 0.0
C259 C 0.47176 0.7502 0.05456 0.0
C260 C 0.45792 0.75113 -0.00485 0.0
H261 H 0.51176 0.75262 0.10504 0.0
H262 H 0.45941 0.75155 0.09801 0.0
S263 S 0.49245 0.7506 0.83696 0.0
N264 N 0.51947 0.75028 0.88797 0.0
N265 N 0.46298 0.75061 0.88039 0.0
C266 C 0.47451 0.75005 0.93979 0.0
C267 C 0.50498 0.74978 0.94394 0.0
C268 C 0.71531 0.00488 0.48362 0.0
C269 C 0.69636 0.02072 0.52191 0.0
C270 C 0.71475 0.97465 0.48403 0.0
C271 C 0.69508 0.95965 0.52234 0.0
H272 H 0.72948 0.01583 0.45061 0.0
H273 H 0.72854 0.96307 0.45174 0.0
S274 S 0.64511 -0.00929 0.63986 0.0
N275 N 0.66058 0.01883 0.60597 0.0
N276 N 0.65923 0.96227 0.60549 0.0
C277 C 0.67768 0.97513 0.56412 0.0
C278 C 0.67843 0.00566 0.56429 0.0
C279 C 0.9731 0.68565 0.53568 0.0
C280 C 0.95695 0.70901 0.51297 0.0
C281 C 0.0029 0.68583 0.53283 0.0
C282 C 0.01799 0.70953 0.50807 0.0
H283 H 0.96271 0.66645 0.55404 0.0
H284 H 0.01422 0.66694 0.54961 0.0
S285 S 0.98638 0.77735 0.44785 0.0
N286 N 0.9584 0.75744 0.46833 0.0
N287 N 0.01503 0.75789 0.46446 0.0
C288 C 0.00244 0.73379 0.4884 0.0
C289 C 0.97176 0.73349 0.49046 0.0
C290 C 0.26915 0.00554 0.48405 0.0
C291 C 0.28958 0.01991 0.52159 0.0
C292 C 0.26875 0.97536 0.48117 0.0
C293 C 0.28859 0.95887 0.51625 0.0
H294 H 0.25448 0.01767 0.45436 0.0
H295 H 0.25378 0.965 0.449 0.0
S296 S 0.34233 0.98677 0.6314 0.0
N297 N 0.32735 0.01579 0.60076 0.0
N298 N 0.32627 0.95928 0.5967 0.0
C299 C 0.30749 0.97317 0.55782 0.0
C300 C 0.30808 0.00369 0.56008 0.0
C301 C 0.00347 0.2864 0.56046 0.0
C302 C 0.01827 0.26458 0.5283 0.0
C303 C 0.97367 0.28791 0.55866 0.0
C304 C 0.95732 0.26743 0.5256 0.0
H305 H 0.01499 0.30335 0.58502 0.0
H306 H 0.96337 0.3058 0.58213 0.0
S307 S 0.98503 0.20392 0.44018 0.0
N308 N 0.01409 0.22048 0.46679 0.0
N309 N 0.95752 0.22312 0.4649 0.0
C310 C 0.97146 0.24423 0.49718 0.0
C311 C 0.00211 0.24284 0.49823 0.0
C312 C 0.23375 0.25553 0.01082 0.0
C313 C 0.23894 0.28534 0.01382 0.0
C314 C 0.25616 0.23596 0.00556 0.0
C315 C 0.28491 0.24517 0.00339 0.0
H316 H 0.2121 0.24702 0.01216 0.0
H317 H 0.2507 0.21331 0.00363 0.0
S318 S 0.31037 0.32092 0.00955 0.0
N319 N 0.27512 0.32326 0.01411 0.0
N320 N 0.31749 0.28625 0.00444 0.0
C321 C 0.29059 0.27492 0.0064 0.0
C322 C 0.26758 0.29502 0.01146 0.0
C323 C 0.71318 0.28612 0.00588 0.0
C324 C 0.74191 0.2791 0.01867 0.0
C325 C 0.69143 0.26528 0.01022 0.0
C326 C 0.69759 0.2367 0.02803 0.0
H327 H 0.70755 0.30763 -0.00953 0.0
H328 H 0.66975 0.27155 -0.00189 0.0
S329 S 0.76914 0.20844 0.07449 0.0
N330 N 0.77512 0.24237 0.05523 0.0
N331 N 0.73443 0.20329 0.06396 0.0
C332 C 0.72614 0.22982 0.04382 0.0
C333 C 0.74824 0.25098 0.03896 0.0
C334 C 0.74465 0.72244 -0.00027 0.0
C335 C 0.73834 0.69286 0.0036 0.0
C336 C 0.72296 0.74291 -0.00445 0.0
C337 C 0.69386 0.73484 -0.0046 0.0
H338 H 0.76665 0.73006 -0.00024 0.0
H339 H 0.72924 0.76534 -0.00697 0.0
S340 S 0.66556 0.66009 0.00377 0.0
N341 N 0.70074 0.65638 0.00633 0.0
N342 N 0.65974 0.69503 -0.00135 0.0
C343 C 0.68708 0.70531 -0.00109 0.0
C344 C 0.70933 0.68431 0.00287 0.0
C345 C 0.26417 0.69087 0.00228 0.0
C346 C 0.23529 0.69951 0.00053 0.0
C347 C 0.28647 0.71114 0.00734 0.0
C348 C 0.28075 0.7408 0.01138 0.0
H349 H 0.26967 0.66834 -0.00123 0.0
H350 H 0.30835 0.70344 0.00777 0.0
S351 S 0.20863 0.7746 0.01134 0.0
N352 N 0.20218 0.73984 0.00521 0.0
N353 N 0.24383 0.77767 0.01454 0.0
C354 C 0.2519 0.74965 0.0108 0.0
C355 C 0.22927 0.7291 0.00539 0.0
C356 C 0.75025 0.73478 0.50728 0.0
C357 C 0.77908 0.74313 0.5 0.0
C358 C 0.72864 0.755 0.51566 0.0
C359 C 0.7347 0.78466 0.51678 0.0
H360 H 0.74411 0.71227 0.50683 0.0
H361 H 0.70687 0.74709 0.52064 0.0
S362 S 0.80681 0.81812 0.5004 0.0
N363 N 0.81276 0.78323 0.49506 0.0
N364 N 0.77188 0.82152 0.5105 0.0
C365 C 0.76348 0.7935 0.50985 0.0
C366 C 0.7857 0.7727 0.50165 0.0
C367 C 0.21648 0.79467 0.49148 0.0
C368 C 0.24216 0.78693 0.46087 0.0
C369 C 0.19381 0.77486 0.49826 0.0
C370 C 0.19624 0.74669 0.47502 0.0
H371 H 0.21428 0.81575 0.51258 0.0
H372 H 0.17488 0.7812 0.52434 0.0
S373 S 0.25668 0.7172 0.3818 0.0
N374 N 0.2669 0.75017 0.40001 0.0
N375 N 0.22461 0.71312 0.41363 0.0
C376 C 0.22099 0.73929 0.44102 0.0
C377 C 0.24387 0.75937 0.4337 0.0
C378 C 0.24852 0.22298 0.51319 0.0
C379 C 0.24355 0.19318 0.51758 0.0
C380 C 0.22603 0.24231 0.50523 0.0
C381 C 0.19735 0.23289 0.50164 0.0
H382 H 0.27009 0.23168 0.51541 0.0
H383 H 0.23138 0.26497 0.50233 0.0
S384 S 0.17242 0.15703 0.51087 0.0
N385 N 0.20764 0.15499 0.51783 0.0
N386 N 0.16508 0.19158 0.50317 0.0
C387 C 0.19187 0.20313 0.50616 0.0
C388 C 0.21499 0.18325 0.51394 0.0
C389 C 0.78403 0.20834 0.50386 0.0
C390 C 0.78027 0.23686 0.48315 0.0
C391 C 0.76214 0.18777 0.4961 0.0
C392 C 0.73588 0.19503 0.46691 0.0
H393 H 0.8035 0.20217 0.52851 0.0
H394 H 0.76548 0.16637 0.51513 0.0
S395 S 0.71767 0.26582 0.39491 0.0
N396 N 0.74987 0.27053 0.42595 0.0
N397 N 0.709 0.23207 0.41046 0.0
C398 C 0.73274 0.2231 0.44246 0.0
C399 C 0.75485 0.24397 0.45086 0.0
C400 C 0.13981 0.34603 0.3127 0.0
C401 C 0.11848 0.32458 0.314 0.0
C402 C 0.14976 0.35723 0.25496 0.0
C403 C 0.13826 0.34785 0.19675 0.0
H404 H 0.14981 0.3533 0.35635 0.0
H405 H 0.16701 0.37292 0.2559 0.0
S406 S 0.07975 0.29431 0.17532 0.0
N407 N 0.08478 0.29572 0.25299 0.0
N408 N 0.1028 0.31745 0.14426 0.0
C409 C 0.11573 0.32761 0.19767 0.0
C410 C 0.10605 0.31576 0.25643 0.0
C411 C 0.64502 0.11064 0.2461 0.0
C412 C 0.63331 0.11989 0.30412 0.0
C413 C 0.63457 0.12103 0.18789 0.0
C414 C 0.61244 0.14138 0.18598 0.0
H415 H 0.66312 0.09616 0.2457 0.0
H416 H 0.64516 0.1145 0.14448 0.0
S417 S 0.57195 0.16967 0.32331 0.0
N418 N 0.59608 0.14809 0.35527 0.0
N419 N 0.57717 0.16823 0.24579 0.0
C420 C 0.59935 0.14941 0.24315 0.0
C421 C 0.60957 0.13846 0.30233 0.0
C422 C 0.86232 0.66041 0.25036 0.0
C423 C 0.85305 0.64862 0.30851 0.0
C424 C 0.85283 0.64906 0.19247 0.0
C425 C 0.83325 0.62604 0.19108 0.0
H426 H 0.87655 0.67889 0.24954 0.0
H427 H 0.85979 0.65926 0.1487 0.0
S428 S 0.80433 0.58587 0.32933 0.0
N429 N 0.82503 0.611 0.36074 0.0
N430 N 0.80638 0.59051 0.2516 0.0
C431 C 0.82463 0.61337 0.24853 0.0
C432 C 0.83479 0.62443 0.30745 0.0
C433 C 0.33751 0.86588 0.24103 0.0
C434 C 0.34802 0.85551 0.29955 0.0
C435 C 0.34725 0.85469 0.18331 0.0
C436 C 0.36739 0.83234 0.18232 0.0
H437 H 0.32086 0.88208 0.2398 0.0
H438 H 0.33766 0.86238 0.13953 0.0
S439 S 0.40419 0.80001 0.32153 0.0
N440 N 0.38205 0.82374 0.35236 0.0
N441 N 0.39957 0.80208 0.24378 0.0
C442 C 0.37929 0.82291 0.2401 0.0
C443 C 0.36983 0.83471 0.29882 0.0
C444 C 0.14801 0.63534 0.69036 0.0
C445 C 0.12615 0.65596 0.68807 0.0
C446 C 0.15695 0.62361 0.74839 0.0
C447 C 0.14378 0.63159 0.80568 0.0
H448 H 0.15903 0.62905 0.64735 0.0
H449 H 0.1746 0.60854 0.74847 0.0
S450 S 0.08319 0.68248 0.82327 0.0
N451 N 0.09028 0.68265 0.7464 0.0
N452 N 0.10611 0.6597 0.8556 0.0
C453 C 0.12076 0.65105 0.80338 0.0
C454 C 0.11223 0.66354 0.74444 0.0
C455 C 0.36344 0.15191 0.70799 0.0
C456 C 0.34358 0.1291 0.70694 0.0
C457 C 0.37321 0.16323 0.76562 0.0
C458 C 0.364 0.15166 0.82399 0.0
H459 H 0.3704 0.16202 0.66412 0.0
H460 H 0.38751 0.18167 0.76447 0.0
S461 S 0.3148 0.08946 0.84617 0.0
N462 N 0.31665 0.09387 0.76833 0.0
N463 N 0.33584 0.11446 0.87704 0.0
C464 C 0.34559 0.12761 0.82343 0.0
C465 C 0.33511 0.11653 0.7647 0.0
C466 C 0.81901 0.35888 0.75908 0.0
C467 C 0.8317 0.35008 0.81665 0.0
C468 C 0.82802 0.34755 0.70103 0.0
C469 C 0.84948 0.32651 0.69897 0.0
H470 H 0.80164 0.37427 0.75892 0.0
H471 H 0.81735 0.35447 0.65779 0.0
S472 S 0.89115 0.29782 0.83504 0.0
N473 N 0.86854 0.32075 0.86715 0.0
N474 N 0.88448 0.29854 0.75791 0.0
C475 C 0.86294 0.31811 0.75566 0.0
C476 C 0.85435 0.3302 0.81463 0.0
C477 C 0.60597 0.81995 0.76235 0.0
C478 C 0.61577 0.83104 0.82061 0.0
C479 C 0.61614 0.8309 0.7046 0.0
C480 C 0.63696 0.85282 0.70334 0.0
H481 H 0.59096 0.8021 0.76138 0.0
H482 H 0.60874 0.8211 0.66085 0.0
S483 S 0.66746 0.89119 0.84213 0.0
N484 N 0.64544 0.86706 0.87326 0.0
N485 N 0.66535 0.8869 0.76435 0.0
C486 C 0.64597 0.86502 0.76096 0.0
C487 C 0.63511 0.85435 0.81979 0.0
C488 C 0.81932 0.62364 0.70766 0.0
C489 C 0.84088 0.64029 0.67847 0.0
C490 C 0.81823 0.62047 0.77376 0.0
C491 C 0.83863 0.63387 0.81335 0.0
H492 H 0.80237 0.61392 0.67958 0.0
H493 H 0.80042 0.60852 0.79394 0.0
S494 S 0.90232 0.67563 0.76009 0.0
N495 N 0.88525 0.6673 0.6938 0.0
N496 N 0.8831 0.66142 0.81814 0.0
C497 C 0.86145 0.64891 0.7846 0.0
C498 C 0.8626 0.65211 0.71718 0.0
C499 C 0.35651 0.81075 0.70211 0.0
C500 C 0.34342 0.83445 0.67226 0.0
C501 C 0.35863 0.80892 0.76844 0.0
C502 C 0.34773 0.83071 0.80775 0.0
H503 H 0.36449 0.79299 0.67423 0.0
H504 H 0.36814 0.78979 0.78896 0.0
S505 S 0.3147 0.89908 0.75313 0.0
N506 N 0.32172 0.8815 0.68706 0.0
N507 N 0.32563 0.878 0.81161 0.0
C508 C 0.33576 0.85517 0.77847 0.0
C509 C 0.33363 0.85706 0.71084 0.0
C510 C 0.15648 0.34823 0.7142 0.0
C511 C 0.135 0.3316 0.68472 0.0
C512 C 0.15769 0.35093 0.78041 0.0
C513 C 0.1375 0.33707 0.81981 0.0
H514 H 0.17318 0.35841 0.68622 0.0
H515 H 0.17532 0.36306 0.80081 0.0
S516 S 0.07439 0.2946 0.76587 0.0
N517 N 0.09116 0.30369 0.69973 0.0
N518 N 0.09355 0.30869 0.82413 0.0
C519 C 0.11493 0.32176 0.79081 0.0
C520 C 0.11365 0.31905 0.72333 0.0
C521 C 0.65242 0.13037 0.78214 0.0
C522 C 0.63273 0.14893 0.81134 0.0
C523 C 0.65442 0.12858 0.7159 0.0
C524 C 0.63684 0.14527 0.67577 0.0
H525 H 0.66696 0.1175 0.81055 0.0
H526 H 0.67041 0.11435 0.69618 0.0
S527 S 0.57984 0.19541 0.728 0.0
N528 N 0.59388 0.18302 0.79475 0.0
N529 N 0.5977 0.17967 0.67027 0.0
C530 C 0.61631 0.16319 0.70421 0.0
C531 C 0.61424 0.16501 0.77187 0.0
C532 C 0.8626 0.31829 0.28423 0.0
C533 C 0.84899 0.33865 0.32305 0.0
C534 C 0.86093 0.32007 0.21795 0.0
C535 C 0.8456 0.3423 0.18789 0.0
H536 H 0.87334 0.29988 0.30495 0.0
H537 H 0.87043 0.30298 0.19038 0.0
S538 S 0.81132 0.40437 0.26757 0.0
N539 N 0.8234 0.38415 0.32644 0.0
N540 N 0.82035 0.38756 0.2017 0.0
C541 C 0.83405 0.3642 0.22596 0.0
C542 C 0.83572 0.36236 0.29357 0.0
C543 C 0.6491 0.85048 0.22126 0.0
C544 C 0.62876 0.83205 0.19297 0.0
C545 C 0.65063 0.85367 0.28726 0.0
C546 C 0.6319 0.83853 0.32787 0.0
H547 H 0.66474 0.86185 0.19248 0.0
H548 H 0.66744 0.86726 0.30651 0.0
S549 S 0.57192 0.79085 0.27755 0.0
N550 N 0.58739 0.80085 0.21048 0.0
N551 N 0.5903 0.80681 0.33465 0.0
C552 C 0.6103 0.82138 0.30014 0.0
C553 C 0.60872 0.81815 0.23274 0.0
C554 C 0.14973 0.62744 0.28442 0.0
C555 C 0.12991 0.64579 0.3137 0.0
C556 C 0.15111 0.6252 0.21829 0.0
C557 C 0.13275 0.64124 0.17862 0.0
H558 H 0.16524 0.6156 0.31249 0.0
H559 H 0.16762 0.61167 0.19831 0.0
S560 S 0.0737 0.68866 0.23176 0.0
N561 N 0.08903 0.67753 0.2982 0.0
N562 N 0.09171 0.67336 0.17368 0.0
C563 C 0.11142 0.65807 0.2073 0.0
C564 C 0.10998 0.66033 0.27485 0.0
C565 C 0.33137 0.12708 0.29133 0.0
C566 C 0.34933 0.14314 0.33185 0.0
C567 C 0.33298 0.13006 0.22527 0.0
C568 C 0.35265 0.1492 0.19682 0.0
H569 H 0.31504 0.1129 0.31064 0.0
H570 H 0.31787 0.11799 0.19652 0.0
S571 S 0.4076 0.1929 0.2813 0.0
N572 N 0.38966 0.17646 0.33852 0.0
N573 N 0.39274 0.18205 0.2142 0.0
C574 C 0.37203 0.16401 0.23657 0.0
C575 C 0.37035 0.16099 0.30405 0.0
loop_
_geom_bond_atom_site_label_1
_geom_bond_atom_site_label_2
_geom_bond_distance
_geom_bond_site_symmetry_2
_ccdc_geom_bond_type
C0 O1 1.306 . S
C0 O3 1.160 . S
O1 C0 1.306 . S
O1 Cd2 2.228 1_556 S
Cd2 O1 2.228 1_554 S
Cd2 O6 2.273 . S
Cd2 O10 2.277 . S
O3 C0 1.160 . S
O3 Cd4 2.203 1_556 S
Cd4 O3 2.203 1_554 S
Cd4 O6 2.411 . S
Cd4 O7 2.333 . S
Cd4 O8 2.352 . S
Cd4 O12 2.277 . S
Cd4 O13 2.356 . S
C5 O10 1.209 . S
C5 O12 1.226 . S
O6 Cd2 2.273 . S
O6 Cd4 2.411 . S
O6 C9 1.320 . S
O7 Cd4 2.333 . S
O7 C9 1.214 . S
O8 Cd4 2.352 . S
O8 C11 1.258 . S
C9 O6 1.320 . S
C9 O7 1.214 . S
O10 Cd2 2.277 . S
O10 C5 1.209 . S
C11 O8 1.258 . S
C11 O13 1.282 . S
O12 Cd4 2.277 . S
O12 C5 1.226 . S
O13 Cd4 2.356 . S
O13 C11 1.282 . S
C14 O15 1.306 . S
C14 O17 1.160 . S
O15 C14 1.306 . S
O15 Cd16 2.228 1_556 S
Cd16 O15 2.228 1_554 S
Cd16 O20 2.273 . S
Cd16 O24 2.277 . S
O17 C14 1.160 . S
O17 Cd18 2.203 1_556 S
Cd18 O17 2.203 1_554 S
Cd18 O20 2.411 . S
Cd18 O21 2.333 . S
Cd18 O22 2.352 . S
Cd18 O26 2.277 . S
Cd18 O27 2.356 . S
C19 O24 1.209 . S
C19 O26 1.226 . S
O20 Cd16 2.273 . S
O20 Cd18 2.411 . S
O20 C23 1.320 . S
O21 Cd18 2.333 . S
O21 C23 1.214 . S
O22 Cd18 2.352 . S
O22 C25 1.258 . S
C23 O20 1.320 . S
C23 O21 1.214 . S
O24 Cd16 2.277 . S
O24 C19 1.209 . S
C25 O22 1.258 . S
C25 O27 1.282 . S
O26 Cd18 2.277 . S
O26 C19 1.226 . S
O27 Cd18 2.356 . S
O27 C25 1.282 . S
C28 O29 1.306 . S
C28 O31 1.160 . S
O29 C28 1.306 . S
O29 Cd30 2.228 1_556 S
Cd30 O29 2.228 1_554 S
Cd30 O34 2.273 . S
Cd30 O38 2.277 . S
O31 C28 1.160 . S
O31 Cd32 2.203 1_556 S
Cd32 O31 2.203 1_554 S
Cd32 O34 2.411 . S
Cd32 O35 2.333 . S
Cd32 O36 2.352 . S
Cd32 O40 2.277 . S
Cd32 O41 2.356 . S
C33 O38 1.209 . S
C33 O40 1.226 . S
O34 Cd30 2.273 . S
O34 Cd32 2.411 . S
O34 C37 1.320 . S
O35 Cd32 2.333 . S
O35 C37 1.214 . S
O36 Cd32 2.352 . S
O36 C39 1.258 . S
C37 O34 1.320 . S
C37 O35 1.214 . S
O38 Cd30 2.277 . S
O38 C33 1.209 . S
C39 O36 1.258 . S
C39 O41 1.282 . S
O40 Cd32 2.277 . S
O40 C33 1.226 . S
O41 Cd32 2.356 . S
O41 C39 1.282 . S
C42 O43 1.306 . S
C42 O45 1.160 . S
O43 C42 1.306 . S
O43 Cd44 2.228 1_556 S
Cd44 O43 2.228 1_554 S
Cd44 O48 2.273 . S
Cd44 O52 2.277 . S
O45 C42 1.160 . S
O45 Cd46 2.203 1_556 S
Cd46 O45 2.203 1_554 S
Cd46 O48 2.411 . S
Cd46 O49 2.333 . S
Cd46 O50 2.352 . S
Cd46 O54 2.277 . S
Cd46 O55 2.356 . S
C47 O52 1.209 . S
C47 O54 1.226 . S
O48 Cd44 2.273 . S
O48 Cd46 2.411 . S
O48 C51 1.320 . S
O49 Cd46 2.333 . S
O49 C51 1.214 . S
O50 Cd46 2.352 . S
O50 C53 1.258 . S
C51 O48 1.320 . S
C51 O49 1.214 . S
O52 Cd44 2.277 . S
O52 C47 1.209 . S
C53 O50 1.258 . S
C53 O55 1.282 . S
O54 Cd46 2.277 . S
O54 C47 1.226 . S
O55 Cd46 2.356 . S
O55 C53 1.282 . S
C56 O57 1.306 . S
C56 O59 1.160 . S
O57 C56 1.306 . S
O57 Cd58 2.228 . S
Cd58 O57 2.228 . S
Cd58 O62 2.273 1_554 S
Cd58 O66 2.277 . S
O59 C56 1.160 . S
O59 Cd60 2.203 . S
Cd60 O59 2.203 . S
Cd60 O62 2.411 1_554 S
Cd60 O63 2.333 1_554 S
Cd60 O64 2.352 . S
Cd60 O68 2.277 . S
Cd60 O69 2.356 . S
C61 O66 1.209 . S
C61 O68 1.226 . S
O62 Cd58 2.273 1_556 S
O62 Cd60 2.411 1_556 S
O62 C65 1.320 . S
O63 Cd60 2.333 1_556 S
O63 C65 1.214 . S
O64 Cd60 2.352 . S
O64 C67 1.258 . S
C65 O62 1.320 . S
C65 O63 1.214 . S
O66 Cd58 2.277 . S
O66 C61 1.209 . S
C67 O64 1.258 . S
C67 O69 1.282 . S
O68 Cd60 2.277 . S
O68 C61 1.226 . S
O69 Cd60 2.356 . S
O69 C67 1.282 . S
C70 O71 1.306 . S
C70 O73 1.160 . S
O71 C70 1.306 . S
O71 Cd72 2.228 . S
Cd72 O71 2.228 . S
Cd72 O76 2.273 1_554 S
Cd72 O80 2.277 . S
O73 C70 1.160 . S
O73 Cd74 2.203 . S
Cd74 O73 2.203 . S
Cd74 O76 2.411 1_554 S
Cd74 O77 2.333 1_554 S
Cd74 O78 2.352 . S
Cd74 O82 2.277 . S
Cd74 O83 2.356 . S
C75 O80 1.209 . S
C75 O82 1.226 . S
O76 Cd72 2.273 1_556 S
O76 Cd74 2.411 1_556 S
O76 C79 1.320 . S
O77 Cd74 2.333 1_556 S
O77 C79 1.214 . S
O78 Cd74 2.352 . S
O78 C81 1.258 . S
C79 O76 1.320 . S
C79 O77 1.214 . S
O80 Cd72 2.277 . S
O80 C75 1.209 . S
C81 O78 1.258 . S
C81 O83 1.282 . S
O82 Cd74 2.277 . S
O82 C75 1.226 . S
O83 Cd74 2.356 . S
O83 C81 1.282 . S
C84 O85 1.306 . S
C84 O87 1.160 . S
O85 C84 1.306 . S
O85 Cd86 2.228 . S
Cd86 O85 2.228 . S
Cd86 O90 2.273 1_554 S
Cd86 O94 2.277 . S
O87 C84 1.160 . S
O87 Cd88 2.203 . S
Cd88 O87 2.203 . S
Cd88 O90 2.411 1_554 S
Cd88 O91 2.333 1_554 S
Cd88 O92 2.352 . S
Cd88 O96 2.277 . S
Cd88 O97 2.356 . S
C89 O94 1.209 . S
C89 O96 1.226 . S
O90 Cd86 2.273 1_556 S
O90 Cd88 2.411 1_556 S
O90 C93 1.320 . S
O91 Cd88 2.333 1_556 S
O91 C93 1.214 . S
O92 Cd88 2.352 . S
O92 C95 1.258 . S
C93 O90 1.320 . S
C93 O91 1.214 . S
O94 Cd86 2.277 . S
O94 C89 1.209 . S
C95 O92 1.258 . S
C95 O97 1.282 . S
O96 Cd88 2.277 . S
O96 C89 1.226 . S
O97 Cd88 2.356 . S
O97 C95 1.282 . S
C98 O99 1.306 . S
C98 O101 1.160 . S
O99 C98 1.306 . S
O99 Cd100 2.228 . S
Cd100 O99 2.228 . S
Cd100 O104 2.273 1_554 S
Cd100 O108 2.277 . S
O101 C98 1.160 . S
O101 Cd102 2.203 . S
Cd102 O101 2.203 . S
Cd102 O104 2.411 1_554 S
Cd102 O105 2.333 1_554 S
Cd102 O106 2.352 . S
Cd102 O110 2.277 . S
Cd102 O111 2.356 . S
C103 O108 1.209 . S
C103 O110 1.226 . S
O104 Cd100 2.273 1_556 S
O104 Cd102 2.411 1_556 S
O104 C107 1.320 . S
O105 Cd102 2.333 1_556 S
O105 C107 1.214 . S
O106 Cd102 2.352 . S
O106 C109 1.258 . S
C107 O104 1.320 . S
C107 O105 1.214 . S
O108 Cd100 2.277 . S
O108 C103 1.209 . S
C109 O106 1.258 . S
C109 O111 1.282 . S
O110 Cd102 2.277 . S
O110 C103 1.226 . S
O111 Cd102 2.356 . S
O111 C109 1.282 . S
C112 O113 1.306 . S
C112 O115 1.160 . S
O113 C112 1.306 . S
O113 Cd114 2.228 . S
Cd114 O113 2.228 . S
Cd114 O118 2.273 . S
Cd114 O122 2.277 . S
O115 C112 1.160 . S
O115 Cd116 2.203 . S
Cd116 O115 2.203 . S
Cd116 O118 2.411 . S
Cd116 O119 2.333 . S
Cd116 O120 2.352 . S
Cd116 O124 2.277 . S
Cd116 O125 2.356 . S
C117 O122 1.209 . S
C117 O124 1.226 . S
O118 Cd114 2.273 . S
O118 Cd116 2.411 . S
O118 C121 1.320 . S
O119 Cd116 2.333 . S
O119 C121 1.214 . S
O120 Cd116 2.352 . S
O120 C123 1.258 . S
C121 O118 1.320 . S
C121 O119 1.214 . S
O122 Cd114 2.277 . S
O122 C117 1.209 . S
C123 O120 1.258 . S
C123 O125 1.282 . S
O124 Cd116 2.277 . S
O124 C117 1.226 . S
O125 Cd116 2.356 . S
O125 C123 1.282 . S
C126 O127 1.306 . S
C126 O129 1.160 . S
O127 C126 1.306 . S
O127 Cd128 2.228 . S
Cd128 O127 2.228 . S
Cd128 O132 2.273 . S
Cd128 O136 2.277 . S
O129 C126 1.160 . S
O129 Cd130 2.203 . S
Cd130 O129 2.203 . S
Cd130 O132 2.411 . S
Cd130 O133 2.333 . S
Cd130 O134 2.352 . S
Cd130 O138 2.277 . S
Cd130 O139 2.356 . S
C131 O136 1.209 . S
C131 O138 1.226 . S
O132 Cd128 2.273 . S
O132 Cd130 2.411 . S
O132 C135 1.320 . S
O133 Cd130 2.333 . S
O133 C135 1.214 . S
O134 Cd130 2.352 . S
O134 C137 1.258 . S
C135 O132 1.320 . S
C135 O133 1.214 . S
O136 Cd128 2.277 . S
O136 C131 1.209 . S
C137 O134 1.258 . S
C137 O139 1.282 . S
O138 Cd130 2.277 . S
O138 C131 1.226 . S
O139 Cd130 2.356 . S
O139 C137 1.282 . S
C140 O141 1.306 . S
C140 O143 1.160 . S
O141 C140 1.306 . S
O141 Cd142 2.228 . S
Cd142 O141 2.228 . S
Cd142 O146 2.273 . S
Cd142 O150 2.277 . S
O143 C140 1.160 . S
O143 Cd144 2.203 . S
Cd144 O143 2.203 . S
Cd144 O146 2.411 . S
Cd144 O147 2.333 . S
Cd144 O148 2.352 . S
Cd144 O152 2.277 . S
Cd144 O153 2.356 . S
C145 O150 1.209 . S
C145 O152 1.226 . S
O146 Cd142 2.273 . S
O146 Cd144 2.411 . S
O146 C149 1.320 . S
O147 Cd144 2.333 . S
O147 C149 1.214 . S
O148 Cd144 2.352 . S
O148 C151 1.258 . S
C149 O146 1.320 . S
C149 O147 1.214 . S
O150 Cd142 2.277 . S
O150 C145 1.209 . S
C151 O148 1.258 . S
C151 O153 1.282 . S
O152 Cd144 2.277 . S
O152 C145 1.226 . S
O153 Cd144 2.356 . S
O153 C151 1.282 . S
C154 O155 1.306 . S
C154 O157 1.160 . S
O155 C154 1.306 . S
O155 Cd156 2.228 . S
Cd156 O155 2.228 . S
Cd156 O160 2.273 . S
Cd156 O164 2.277 . S
O157 C154 1.160 . S
O157 Cd158 2.203 . S
Cd158 O157 2.203 . S
Cd158 O160 2.411 . S
Cd158 O161 2.333 . S
Cd158 O162 2.352 . S
Cd158 O166 2.277 . S
Cd158 O167 2.356 . S
C159 O164 1.209 . S
C159 O166 1.226 . S
O160 Cd156 2.273 . S
O160 Cd158 2.411 . S
O160 C163 1.320 . S
O161 Cd158 2.333 . S
O161 C163 1.214 . S
O162 Cd158 2.352 . S
O162 C165 1.258 . S
C163 O160 1.320 . S
C163 O161 1.214 . S
O164 Cd156 2.277 . S
O164 C159 1.209 . S
C165 O162 1.258 . S
C165 O167 1.282 . S
O166 Cd158 2.277 . S
O166 C159 1.226 . S
O167 Cd158 2.356 . S
O167 C165 1.282 . S
C168 O169 1.306 . S
C168 O171 1.160 . S
O169 C168 1.306 . S
O169 Cd170 2.228 . S
Cd170 O169 2.228 . S
Cd170 O174 2.273 . S
Cd170 O178 2.277 . S
O171 C168 1.160 . S
O171 Cd172 2.203 . S
Cd172 O171 2.203 . S
Cd172 O174 2.411 . S
Cd172 O175 2.333 . S
Cd172 O176 2.352 . S
Cd172 O180 2.277 . S
Cd172 O181 2.356 . S
C173 O178 1.209 . S
C173 O180 1.226 . S
O174 Cd170 2.273 . S
O174 Cd172 2.411 . S
O174 C177 1.320 . S
O175 Cd172 2.333 . S
O175 C177 1.214 . S
O176 Cd172 2.352 . S
O176 C179 1.258 . S
C177 O174 1.320 . S
C177 O175 1.214 . S
O178 Cd170 2.277 . S
O178 C173 1.209 . S
C179 O176 1.258 . S
C179 O181 1.282 . S
O180 Cd172 2.277 . S
O180 C173 1.226 . S
O181 Cd172 2.356 . S
O181 C179 1.282 . S
C182 O183 1.306 . S
C182 O185 1.160 . S
O183 C182 1.306 . S
O183 Cd184 2.228 . S
Cd184 O183 2.228 . S
Cd184 O188 2.273 . S
Cd184 O192 2.277 . S
O185 C182 1.160 . S
O185 Cd186 2.203 . S
Cd186 O185 2.203 . S
Cd186 O188 2.411 . S
Cd186 O189 2.333 . S
Cd186 O190 2.352 . S
Cd186 O194 2.277 . S
Cd186 O195 2.356 . S
C187 O192 1.209 . S
C187 O194 1.226 . S
O188 Cd184 2.273 . S
O188 Cd186 2.411 . S
O188 C191 1.320 . S
O189 Cd186 2.333 . S
O189 C191 1.214 . S
O190 Cd186 2.352 . S
O190 C193 1.258 . S
C191 O188 1.320 . S
C191 O189 1.214 . S
O192 Cd184 2.277 . S
O192 C187 1.209 . S
C193 O190 1.258 . S
C193 O195 1.282 . S
O194 Cd186 2.277 . S
O194 C187 1.226 . S
O195 Cd186 2.356 . S
O195 C193 1.282 . S
C196 O197 1.306 . S
C196 O199 1.160 . S
O197 C196 1.306 . S
O197 Cd198 2.228 . S
Cd198 O197 2.228 . S
Cd198 O202 2.273 . S
Cd198 O206 2.277 . S
O199 C196 1.160 . S
O199 Cd200 2.203 . S
Cd200 O199 2.203 . S
Cd200 O202 2.411 . S
Cd200 O203 2.333 . S
Cd200 O204 2.352 . S
Cd200 O208 2.277 . S
Cd200 O209 2.356 . S
C201 O206 1.209 . S
C201 O208 1.226 . S
O202 Cd198 2.273 . S
O202 Cd200 2.411 . S
O202 C205 1.320 . S
O203 Cd200 2.333 . S
O203 C205 1.214 . S
O204 Cd200 2.352 . S
O204 C207 1.258 . S
C205 O202 1.320 . S
C205 O203 1.214 . S
O206 Cd198 2.277 . S
O206 C201 1.209 . S
C207 O204 1.258 . S
C207 O209 1.282 . S
O208 Cd200 2.277 . S
O208 C201 1.226 . S
O209 Cd200 2.356 . S
O209 C207 1.282 . S
C210 O211 1.306 . S
C210 O213 1.160 . S
O211 C210 1.306 . S
O211 Cd212 2.228 . S
Cd212 O211 2.228 . S
Cd212 O216 2.273 . S
Cd212 O220 2.277 . S
O213 C210 1.160 . S
O213 Cd214 2.203 . S
Cd214 O213 2.203 . S
Cd214 O216 2.411 . S
Cd214 O217 2.333 . S
Cd214 O218 2.352 . S
Cd214 O222 2.277 . S
Cd214 O223 2.356 . S
C215 O220 1.209 . S
C215 O222 1.226 . S
O216 Cd212 2.273 . S
O216 Cd214 2.411 . S
O216 C219 1.320 . S
O217 Cd214 2.333 . S
O217 C219 1.214 . S
O218 Cd214 2.352 . S
O218 C221 1.258 . S
C219 O216 1.320 . S
C219 O217 1.214 . S
O220 Cd212 2.277 . S
O220 C215 1.209 . S
C221 O218 1.258 . S
C221 O223 1.282 . S
O222 Cd214 2.277 . S
O222 C215 1.226 . S
O223 Cd214 2.356 . S
O223 C221 1.282 . S
C224 C225 1.369 . S
C224 C226 1.419 . S
C224 H228 0.930 . S
C225 C224 1.369 . S
C225 C234 1.429 . S
C226 C224 1.419 . S
C226 C227 1.363 . S
C226 H229 0.929 . S
C227 C226 1.363 . S
C227 C233 1.428 . S
H228 C224 0.930 . S
H229 C226 0.929 . S
S230 N231 1.613 . S
S230 N232 1.610 . S
N231 S230 1.613 . S
N231 C234 1.350 . S
N232 S230 1.610 . S
N232 C233 1.351 . S
C233 C227 1.428 . S
C233 N232 1.351 . S
C233 C234 1.434 . S
C234 C225 1.429 . S
C234 N231 1.350 . S
C234 C233 1.434 . S
C235 C236 1.369 . S
C235 C237 1.419 . S
C235 H239 0.930 . S
C236 C235 1.369 . S
C236 C245 1.429 1_554 S
C237 C235 1.419 . S
C237 C238 1.363 . S
C237 H240 0.929 . S
C238 C237 1.363 . S
C238 C244 1.428 1_554 S
H239 C235 0.930 . S
H240 C237 0.929 . S
S241 N242 1.613 . S
S241 N243 1.610 . S
N242 S241 1.613 . S
N242 C245 1.350 . S
N243 S241 1.610 . S
N243 C244 1.351 . S
C244 C238 1.428 1_556 S
C244 N243 1.351 . S
C244 C245 1.434 . S
C245 C236 1.429 1_556 S
C245 N242 1.350 . S
C245 C244 1.434 . S
C246 C247 1.369 1_556 S
C246 C248 1.419 . S
C246 H250 0.930 . S
C247 C246 1.369 1_554 S
C247 C256 1.429 . S
C248 C246 1.419 . S
C248 C249 1.363 1_556 S
C248 H251 0.929 . S
C249 C248 1.363 1_554 S
C249 C255 1.428 . S
H250 C246 0.930 . S
H251 C248 0.929 . S
S252 N253 1.613 . S
S252 N254 1.610 . S
N253 S252 1.613 . S
N253 C256 1.350 . S
N254 S252 1.610 . S
N254 C255 1.351 . S
C255 C249 1.428 . S
C255 N254 1.351 . S
C255 C256 1.434 . S
C256 C247 1.429 . S
C256 N253 1.350 . S
C256 C255 1.434 . S
C257 C258 1.369 . S
C257 C259 1.419 . S
C257 H261 0.930 . S
C258 C257 1.369 . S
C258 C267 1.429 1_554 S
C259 C257 1.419 . S
C259 C260 1.363 . S
C259 H262 0.929 . S
C260 C259 1.363 . S
C260 C266 1.428 1_554 S
H261 C257 0.930 . S
H262 C259 0.929 . S
S263 N264 1.613 . S
S263 N265 1.610 . S
N264 S263 1.613 . S
N264 C267 1.350 . S
N265 S263 1.610 . S
N265 C266 1.351 . S
C266 C260 1.428 1_556 S
C266 N265 1.351 . S
C266 C267 1.434 . S
C267 C258 1.429 1_556 S
C267 N264 1.350 . S
C267 C266 1.434 . S
C268 C269 1.369 . S
C268 C270 1.419 1_545 S
C268 H272 0.930 . S
C269 C268 1.369 . S
C269 C278 1.429 . S
C270 C268 1.419 1_565 S
C270 C271 1.363 . S
C270 H273 0.929 . S
C271 C270 1.363 . S
C271 C277 1.428 . S
H272 C268 0.930 . S
H273 C270 0.929 . S
S274 N275 1.613 . S
S274 N276 1.610 1_545 S
N275 S274 1.613 . S
N275 C278 1.350 . S
N276 S274 1.610 1_565 S
N276 C277 1.351 . S
C277 C271 1.428 . S
C277 N276 1.351 . S
C277 C278 1.434 1_565 S
C278 C269 1.429 . S
C278 N275 1.350 . S
C278 C277 1.434 1_545 S
C279 C280 1.369 . S
C279 C281 1.419 1_655 S
C279 H283 0.930 . S
C280 C279 1.369 . S
C280 C289 1.429 . S
C281 C279 1.419 1_455 S
C281 C282 1.363 . S
C281 H284 0.929 . S
C282 C281 1.363 . S
C282 C288 1.428 . S
H283 C279 0.930 . S
H284 C281 0.929 . S
S285 N286 1.613 1_455 S
S285 N287 1.610 . S
N286 S285 1.613 1_655 S
N286 C289 1.350 . S
N287 S285 1.610 . S
N287 C288 1.351 . S
C288 C282 1.428 . S
C288 N287 1.351 . S
C288 C289 1.434 1_455 S
C289 C280 1.429 . S
C289 N286 1.350 . S
C289 C288 1.434 1_655 S
C290 C291 1.369 . S
C290 C292 1.419 1_545 S
C290 H294 0.930 . S
C291 C290 1.369 . S
C291 C300 1.429 . S
C292 C290 1.419 1_565 S
C292 C293 1.363 . S
C292 H295 0.929 . S
C293 C292 1.363 . S
C293 C299 1.428 . S
H294 C290 0.930 . S
H295 C292 0.929 . S
S296 N297 1.613 1_565 S
S296 N298 1.610 . S
N297 S296 1.613 1_545 S
N297 C300 1.350 . S
N298 S296 1.610 . S
N298 C299 1.351 . S
C299 C293 1.428 . S
C299 N298 1.351 . S
C299 C300 1.434 1_565 S
C300 C291 1.429 . S
C300 N297 1.350 . S
C300 C299 1.434 1_545 S
C301 C302 1.369 . S
C301 C303 1.419 1_455 S
C301 H305 0.930 . S
C302 C301 1.369 . S
C302 C311 1.429 . S
C303 C301 1.419 1_655 S
C303 C304 1.363 . S
C303 H306 0.929 . S
C304 C303 1.363 . S
C304 C310 1.428 . S
H305 C301 0.930 . S
H306 C303 0.929 . S
S307 N308 1.613 1_655 S
S307 N309 1.610 . S
N308 S307 1.613 1_455 S
N308 C311 1.350 . S
N309 S307 1.610 . S
N309 C310 1.351 . S
C310 C304 1.428 . S
C310 N309 1.351 . S
C310 C311 1.434 1_655 S
C311 C302 1.429 . S
C311 N308 1.350 . S
C311 C310 1.434 1_455 S
C312 C313 1.369 . S
C312 C314 1.419 . S
C312 H316 0.930 . S
C313 C312 1.369 . S
C313 C322 1.429 . S
C314 C312 1.419 . S
C314 C315 1.363 . S
C314 H317 0.929 . S
C315 C314 1.363 . S
C315 C321 1.428 . S
H316 C312 0.930 . S
H317 C314 0.929 . S
S318 N319 1.613 . S
S318 N320 1.610 . S
N319 S318 1.613 . S
N319 C322 1.350 . S
N320 S318 1.610 . S
N320 C321 1.351 . S
C321 C315 1.428 . S
C321 N320 1.351 . S
C321 C322 1.434 . S
C322 C313 1.429 . S
C322 N319 1.350 . S
C322 C321 1.434 . S
C323 C324 1.369 1_556 S
C323 C325 1.419 . S
C323 H327 0.930 . S
C324 C323 1.369 1_554 S
C324 C333 1.429 . S
C325 C323 1.419 . S
C325 C326 1.363 1_556 S
C325 H328 0.929 . S
C326 C325 1.363 1_554 S
C326 C332 1.428 . S
H327 C323 0.930 . S
H328 C325 0.929 . S
S329 N330 1.613 . S
S329 N331 1.610 . S
N330 S329 1.613 . S
N330 C333 1.350 . S
N331 S329 1.610 . S
N331 C332 1.351 . S
C332 C326 1.428 . S
C332 N331 1.351 . S
C332 C333 1.434 . S
C333 C324 1.429 . S
C333 N330 1.350 . S
C333 C332 1.434 . S
C334 C335 1.369 . S
C334 C336 1.419 . S
C334 H338 0.930 . S
C335 C334 1.369 . S
C335 C344 1.429 1_554 S
C336 C334 1.419 . S
C336 C337 1.363 . S
C336 H339 0.929 . S
C337 C336 1.363 . S
C337 C343 1.428 1_554 S
H338 C334 0.930 . S
H339 C336 0.929 . S
S340 N341 1.613 . S
S340 N342 1.610 . S
N341 S340 1.613 . S
N341 C344 1.350 . S
N342 S340 1.610 . S
N342 C343 1.351 . S
C343 C337 1.428 1_556 S
C343 N342 1.351 . S
C343 C344 1.434 . S
C344 C335 1.429 1_556 S
C344 N341 1.350 . S
C344 C343 1.434 . S
C345 C346 1.369 . S
C345 C347 1.419 . S
C345 H349 0.930 . S
C346 C345 1.369 . S
C346 C355 1.429 1_554 S
C347 C345 1.419 . S
C347 C348 1.363 . S
C347 H350 0.929 . S
C348 C347 1.363 . S
C348 C354 1.428 1_554 S
H349 C345 0.930 . S
H350 C347 0.929 . S
S351 N352 1.613 . S
S351 N353 1.610 . S
N352 S351 1.613 . S
N352 C355 1.350 . S
N353 S351 1.610 . S
N353 C354 1.351 . S
C354 C348 1.428 1_556 S
C354 N353 1.351 . S
C354 C355 1.434 . S
C355 C346 1.429 1_556 S
C355 N352 1.350 . S
C355 C354 1.434 . S
C356 C357 1.369 . S
C356 C358 1.419 . S
C356 H360 0.930 . S
C357 C356 1.369 . S
C357 C366 1.429 . S
C358 C356 1.419 . S
C358 C359 1.363 . S
C358 H361 0.929 . S
C359 C358 1.363 . S
C359 C365 1.428 . S
H360 C356 0.930 . S
H361 C358 0.929 . S
S362 N363 1.613 . S
S362 N364 1.610 . S
N363 S362 1.613 . S
N363 C366 1.350 . S
N364 S362 1.610 . S
N364 C365 1.351 . S
C365 C359 1.428 . S
C365 N364 1.351 . S
C365 C366 1.434 . S
C366 C357 1.429 . S
C366 N363 1.350 . S
C366 C365 1.434 . S
C367 C368 1.369 . S
C367 C369 1.419 . S
C367 H371 0.930 . S
C368 C367 1.369 . S
C368 C377 1.429 . S
C369 C367 1.419 . S
C369 C370 1.363 . S
C369 H372 0.929 . S
C370 C369 1.363 . S
C370 C376 1.428 . S
H371 C367 0.930 . S
H372 C369 0.929 . S
S373 N374 1.613 . S
S373 N375 1.610 . S
N374 S373 1.613 . S
N374 C377 1.350 . S
N375 S373 1.610 . S
N375 C376 1.351 . S
C376 C370 1.428 . S
C376 N375 1.351 . S
C376 C377 1.434 . S
C377 C368 1.429 . S
C377 N374 1.350 . S
C377 C376 1.434 . S
C378 C379 1.369 . S
C378 C380 1.419 . S
C378 H382 0.930 . S
C379 C378 1.369 . S
C379 C388 1.429 . S
C380 C378 1.419 . S
C380 C381 1.363 . S
C380 H383 0.929 . S
C381 C380 1.363 . S
C381 C387 1.428 . S
H382 C378 0.930 . S
H383 C380 0.929 . S
S384 N385 1.613 . S
S384 N386 1.610 . S
N385 S384 1.613 . S
N385 C388 1.350 . S
N386 S384 1.610 . S
N386 C387 1.351 . S
C387 C381 1.428 . S
C387 N386 1.351 . S
C387 C388 1.434 . S
C388 C379 1.429 . S
C388 N385 1.350 . S
C388 C387 1.434 . S
C389 C390 1.369 . S
C389 C391 1.419 . S
C389 H393 0.930 . S
C390 C389 1.369 . S
C390 C399 1.429 . S
C391 C389 1.419 . S
C391 C392 1.363 . S
C391 H394 0.929 . S
C392 C391 1.363 . S
C392 C398 1.428 . S
H393 C389 0.930 . S
H394 C391 0.929 . S
S395 N396 1.613 . S
S395 N397 1.610 . S
N396 S395 1.613 . S
N396 C399 1.350 . S
N397 S395 1.610 . S
N397 C398 1.351 . S
C398 C392 1.428 . S
C398 N397 1.351 . S
C398 C399 1.434 . S
C399 C390 1.429 . S
C399 N396 1.350 . S
C399 C398 1.434 . S
C400 C401 1.369 . S
C400 C402 1.419 . S
C400 H404 0.930 . S
C401 C400 1.369 . S
C401 C410 1.429 . S
C402 C400 1.419 . S
C402 C403 1.363 . S
C402 H405 0.929 . S
C403 C402 1.363 . S
C403 C409 1.428 . S
H404 C400 0.930 . S
H405 C402 0.929 . S
S406 N407 1.613 . S
S406 N408 1.610 . S
N407 S406 1.613 . S
N407 C410 1.350 . S
N408 S406 1.610 . S
N408 C409 1.351 . S
C409 C403 1.428 . S
C409 N408 1.351 . S
C409 C410 1.434 . S
C410 C401 1.429 . S
C410 N407 1.350 . S
C410 C409 1.434 . S
C411 C412 1.369 . S
C411 C413 1.419 . S
C411 H415 0.930 . S
C412 C411 1.369 . S
C412 C421 1.429 . S
C413 C411 1.419 . S
C413 C414 1.363 . S
C413 H416 0.929 . S
C414 C413 1.363 . S
C414 C420 1.428 . S
H415 C411 0.930 . S
H416 C413 0.929 . S
S417 N418 1.613 . S
S417 N419 1.610 . S
N418 S417 1.613 . S
N418 C421 1.350 . S
N419 S417 1.610 . S
N419 C420 1.351 . S
C420 C414 1.428 . S
C420 N419 1.351 . S
C420 C421 1.434 . S
C421 C412 1.429 . S
C421 N418 1.350 . S
C421 C420 1.434 . S
C422 C423 1.369 . S
C422 C424 1.419 . S
C422 H426 0.930 . S
C423 C422 1.369 . S
C423 C432 1.429 . S
C424 C422 1.419 . S
C424 C425 1.363 . S
C424 H427 0.929 . S
C425 C424 1.363 . S
C425 C431 1.428 . S
H426 C422 0.930 . S
H427 C424 0.929 . S
S428 N429 1.613 . S
S428 N430 1.610 . S
N429 S428 1.613 . S
N429 C432 1.350 . S
N430 S428 1.610 . S
N430 C431 1.351 . S
C431 C425 1.428 . S
C431 N430 1.351 . S
C431 C432 1.434 . S
C432 C423 1.429 . S
C432 N429 1.350 . S
C432 C431 1.434 . S
C433 C434 1.369 . S
C433 C435 1.419 . S
C433 H437 0.930 . S
C434 C433 1.369 . S
C434 C443 1.429 . S
C435 C433 1.419 . S
C435 C436 1.363 . S
C435 H438 0.929 . S
C436 C435 1.363 . S
C436 C442 1.428 . S
H437 C433 0.930 . S
H438 C435 0.929 . S
S439 N440 1.613 . S
S439 N441 1.610 . S
N440 S439 1.613 . S
N440 C443 1.350 . S
N441 S439 1.610 . S
N441 C442 1.351 . S
C442 C436 1.428 . S
C442 N441 1.351 . S
C442 C443 1.434 . S
C443 C434 1.429 . S
C443 N440 1.350 . S
C443 C442 1.434 . S
C444 C445 1.369 . S
C444 C446 1.419 . S
C444 H448 0.930 . S
C445 C444 1.369 . S
C445 C454 1.429 . S
C446 C444 1.419 . S
C446 C447 1.363 . S
C446 H449 0.929 . S
C447 C446 1.363 . S
C447 C453 1.428 . S
H448 C444 0.930 . S
H449 C446 0.929 . S
S450 N451 1.613 . S
S450 N452 1.610 . S
N451 S450 1.613 . S
N451 C454 1.350 . S
N452 S450 1.610 . S
N452 C453 1.351 . S
C453 C447 1.428 . S
C453 N452 1.351 . S
C453 C454 1.434 . S
C454 C445 1.429 . S
C454 N451 1.350 . S
C454 C453 1.434 . S
C455 C456 1.369 . S
C455 C457 1.419 . S
C455 H459 0.930 . S
C456 C455 1.369 . S
C456 C465 1.429 . S
C457 C455 1.419 . S
C457 C458 1.363 . S
C457 H460 0.929 . S
C458 C457 1.363 . S
C458 C464 1.428 . S
H459 C455 0.930 . S
H460 C457 0.929 . S
S461 N462 1.613 . S
S461 N463 1.610 . S
N462 S461 1.613 . S
N462 C465 1.350 . S
N463 S461 1.610 . S
N463 C464 1.351 . S
C464 C458 1.428 . S
C464 N463 1.351 . S
C464 C465 1.434 . S
C465 C456 1.429 . S
C465 N462 1.350 . S
C465 C464 1.434 . S
C466 C467 1.369 . S
C466 C468 1.419 . S
C466 H470 0.930 . S
C467 C466 1.369 . S
C467 C476 1.429 . S
C468 C466 1.419 . S
C468 C469 1.363 . S
C468 H471 0.929 . S
C469 C468 1.363 . S
C469 C475 1.428 . S
H470 C466 0.930 . S
H471 C468 0.929 . S
S472 N473 1.613 . S
S472 N474 1.610 . S
N473 S472 1.613 . S
N473 C476 1.350 . S
N474 S472 1.610 . S
N474 C475 1.351 . S
C475 C469 1.428 . S
C475 N474 1.351 . S
C475 C476 1.434 . S
C476 C467 1.429 . S
C476 N473 1.350 . S
C476 C475 1.434 . S
C477 C478 1.369 . S
C477 C479 1.419 . S
C477 H481 0.930 . S
C478 C477 1.369 . S
C478 C487 1.429 . S
C479 C477 1.419 . S
C479 C480 1.363 . S
C479 H482 0.929 . S
C480 C479 1.363 . S
C480 C486 1.428 . S
H481 C477 0.930 . S
H482 C479 0.929 . S
S483 N484 1.613 . S
S483 N485 1.610 . S
N484 S483 1.613 . S
N484 C487 1.350 . S
N485 S483 1.610 . S
N485 C486 1.351 . S
C486 C480 1.428 . S
C486 N485 1.351 . S
C486 C487 1.434 . S
C487 C478 1.429 . S
C487 N484 1.350 . S
C487 C486 1.434 . S
C488 C489 1.369 . S
C488 C490 1.419 . S
C488 H492 0.930 . S
C489 C488 1.369 . S
C489 C498 1.429 . S
C490 C488 1.419 . S
C490 C491 1.363 . S
C490 H493 0.929 . S
C491 C490 1.363 . S
C491 C497 1.428 . S
H492 C488 0.930 . S
H493 C490 0.929 . S
S494 N495 1.613 . S
S494 N496 1.610 . S
N495 S494 1.613 . S
N495 C498 1.350 . S
N496 S494 1.610 . S
N496 C497 1.351 . S
C497 C491 1.428 . S
C497 N496 1.351 . S
C497 C498 1.434 . S
C498 C489 1.429 . S
C498 N495 1.350 . S
C498 C497 1.434 . S
C499 C500 1.369 . S
C499 C501 1.419 . S
C499 H503 0.930 . S
C500 C499 1.369 . S
C500 C509 1.429 . S
C501 C499 1.419 . S
C501 C502 1.363 . S
C501 H504 0.929 . S
C502 C501 1.363 . S
C502 C508 1.428 . S
H503 C499 0.930 . S
H504 C501 0.929 . S
S505 N506 1.613 . S
S505 N507 1.610 . S
N506 S505 1.613 . S
N506 C509 1.350 . S
N507 S505 1.610 . S
N507 C508 1.351 . S
C508 C502 1.428 . S
C508 N507 1.351 . S
C508 C509 1.434 . S
C509 C500 1.429 . S
C509 N506 1.350 . S
C509 C508 1.434 . S
C510 C511 1.369 . S
C510 C512 1.419 . S
C510 H514 0.930 . S
C511 C510 1.369 . S
C511 C520 1.429 . S
C512 C510 1.419 . S
C512 C513 1.363 . S
C512 H515 0.929 . S
C513 C512 1.363 . S
C513 C519 1.428 . S
H514 C510 0.930 . S
H515 C512 0.929 . S
S516 N517 1.613 . S
S516 N518 1.610 . S
N517 S516 1.613 . S
N517 C520 1.350 . S
N518 S516 1.610 . S
N518 C519 1.351 . S
C519 C513 1.428 . S
C519 N518 1.351 . S
C519 C520 1.434 . S
C520 C511 1.429 . S
C520 N517 1.350 . S
C520 C519 1.434 . S
C521 C522 1.369 . S
C521 C523 1.419 . S
C521 H525 0.930 . S
C522 C521 1.369 . S
C522 C531 1.429 . S
C523 C521 1.419 . S
C523 C524 1.363 . S
C523 H526 0.929 . S
C524 C523 1.363 . S
C524 C530 1.428 . S
H525 C521 0.930 . S
H526 C523 0.929 . S
S527 N528 1.613 . S
S527 N529 1.610 . S
N528 S527 1.613 . S
N528 C531 1.350 . S
N529 S527 1.610 . S
N529 C530 1.351 . S
C530 C524 1.428 . S
C530 N529 1.351 . S
C530 C531 1.434 . S
C531 C522 1.429 . S
C531 N528 1.350 . S
C531 C530 1.434 . S
C532 C533 1.369 . S
C532 C534 1.419 . S
C532 H536 0.930 . S
C533 C532 1.369 . S
C533 C542 1.429 . S
C534 C532 1.419 . S
C534 C535 1.363 . S
C534 H537 0.929 . S
C535 C534 1.363 . S
C535 C541 1.428 . S
H536 C532 0.930 . S
H537 C534 0.929 . S
S538 N539 1.613 . S
S538 N540 1.610 . S
N539 S538 1.613 . S
N539 C542 1.350 . S
N540 S538 1.610 . S
N540 C541 1.351 . S
C541 C535 1.428 . S
C541 N540 1.351 . S
C541 C542 1.434 . S
C542 C533 1.429 . S
C542 N539 1.350 . S
C542 C541 1.434 . S
C543 C544 1.369 . S
C543 C545 1.419 . S
C543 H547 0.930 . S
C544 C543 1.369 . S
C544 C553 1.429 . S
C545 C543 1.419 . S
C545 C546 1.363 . S
C545 H548 0.929 . S
C546 C545 1.363 . S
C546 C552 1.428 . S
H547 C543 0.930 . S
H548 C545 0.929 . S
S549 N550 1.613 . S
S549 N551 1.610 . S
N550 S549 1.613 . S
N550 C553 1.350 . S
N551 S549 1.610 . S
N551 C552 1.351 . S
C552 C546 1.428 . S
C552 N551 1.351 . S
C552 C553 1.434 . S
C553 C544 1.429 . S
C553 N550 1.350 . S
C553 C552 1.434 . S
C554 C555 1.369 . S
C554 C556 1.419 . S
C554 H558 0.930 . S
C555 C554 1.369 . S
C555 C564 1.429 . S
C556 C554 1.419 . S
C556 C557 1.363 . S
C556 H559 0.929 . S
C557 C556 1.363 . S
C557 C563 1.428 . S
H558 C554 0.930 . S
H559 C556 0.929 . S
S560 N561 1.613 . S
S560 N562 1.610 . S
N561 S560 1.613 . S
N561 C564 1.350 . S
N562 S560 1.610 . S
N562 C563 1.351 . S
C563 C557 1.428 . S
C563 N562 1.351 . S
C563 C564 1.434 . S
C564 C555 1.429 . S
C564 N561 1.350 . S
C564 C563 1.434 . S
C565 C566 1.369 . S
C565 C567 1.419 . S
C565 H569 0.930 . S
C566 C565 1.369 . S
C566 C575 1.429 . S
C567 C565 1.419 . S
C567 C568 1.363 . S
C567 H570 0.929 . S
C568 C567 1.363 . S
C568 C574 1.428 . S
H569 C565 0.930 . S
H570 C567 0.929 . S
S571 N572 1.613 . S
S571 N573 1.610 . S
N572 S571 1.613 . S
N572 C575 1.350 . S
N573 S571 1.610 . S
N573 C574 1.351 . S
C574 C568 1.428 . S
C574 N573 1.351 . S
C574 C575 1.434 . S
C575 C566 1.429 . S
C575 N572 1.350 . S
C575 C574 1.434 . S
C225 C67 1.432 . S
C227 C11 1.433 . S
C236 C81 1.433 . S
C238 C25 1.433 . S
C247 C95 1.433 . S
C249 C39 1.433 . S
C258 C109 1.434 . S
C260 C53 1.434 . S
C269 C179 1.434 . S
C271 C123 1.434 . S
C280 C193 1.433 . S
C282 C137 1.433 . S
C291 C151 1.434 . S
C293 C207 1.434 . S
C302 C221 1.433 . S
C304 C165 1.433 . S
C313 C5 1.478 . S
C315 C75 1.477 . S
C324 C89 1.476 . S
C326 C19 1.476 . S
C335 C33 1.477 . S
C337 C103 1.477 . S
C346 C61 1.477 . S
C348 C47 1.477 . S
C357 C187 1.477 . S
C359 C117 1.477 . S
C368 C201 1.476 . S
C370 C131 1.477 . S
C379 C145 1.478 . S
C381 C215 1.477 . S
C390 C159 1.476 . S
C392 C173 1.476 . S
C401 C219 1.465 . S
C403 C9 1.469 . S
C412 C177 1.470 . S
C414 C23 1.467 . S
C423 C191 1.470 . S
C425 C37 1.466 . S
C434 C205 1.470 . S
C436 C51 1.466 . S
C445 C135 1.466 . S
C447 C65 1.469 . S
C456 C149 1.466 . S
C458 C79 1.469 . S
C467 C93 1.469 . S
C469 C163 1.466 . S
C478 C107 1.470 . S
C480 C121 1.466 . S
C489 C182 1.404 . S
C491 C28 1.404 . S
C500 C196 1.405 . S
C502 C42 1.404 . S
C511 C210 1.402 . S
C513 C0 1.402 . S
C522 C14 1.402 . S
C524 C168 1.402 . S
C533 C154 1.401 . S
C535 C84 1.402 . S
C544 C98 1.404 . S
C546 C112 1.403 . S
C555 C126 1.402 . S
C557 C56 1.402 . S
C566 C140 1.402 . S
C568 C70 1.403 . S
