# Generated by pormake.
# Topology wlj, (5)-cn, num edge types: 1
# Building blocks:
#     Node 0, Type 0, BuildingBlock: XOMCOT_clean_sbu_0, # of connection points: 5
#     Node 1, Type 0, BuildingBlock: XOMCOT_clean_sbu_0, # of connection points: 5
#     Node 2, Type 0, BuildingBlock: XOMCOT_clean_sbu_0, # of connection points: 5
#     Node 3, Type 0, BuildingBlock: XOMCOT_clean_sbu_0, # of connection points: 5
#     Node 4, Type 0, BuildingBlock: XOMCOT_clean_sbu_0, # of connection points: 5
#     Node 5, Type 0, BuildingBlock: XOMCOT_clean_sbu_0, # of connection points: 5
#     Edge 6, Type (0, 0), BuildingBlock: EZIPEK_clean_linker_0, # of connection points: 2
#     Edge 7, Type (0, 0), BuildingBlock: EZIPEK_clean_linker_0, # of connection points: 2
#     Edge 8, Type (0, 0), BuildingBlock: EZIPEK_clean_linker_0, # of connection points: 2
#     Edge 9, Type (0, 0), BuildingBlock: EZIPEK_clean_linker_0, # of connection points: 2
#     Edge 10, Type (0, 0), BuildingBlock: EZIPEK_clean_linker_0, # of connection points: 2
#     Edge 11, Type (0, 0), BuildingBlock: EZIPEK_clean_linker_0, # of connection points: 2
#     Edge 12, Type (0, 0), BuildingBlock: EZIPEK_clean_linker_0, # of connection points: 2
#     Edge 13, Type (0, 0), BuildingBlock: EZIPEK_clean_linker_0, # of connection points: 2
#     Edge 14, Type (0, 0), BuildingBlock: EZIPEK_clean_linker_0, # of connection points: 2
#     Edge 15, Type (0, 0), BuildingBlock: EZIPEK_clean_linker_0, # of connection points: 2
#     Edge 16, Type (0, 0), BuildingBlock: EZIPEK_clean_linker_0, # of connection points: 2
#     Edge 17, Type (0, 0), BuildingBlock: EZIPEK_clean_linker_0, # of connection points: 2
#     Edge 18, Type (0, 0), BuildingBlock: EZIPEK_clean_linker_0, # of connection points: 2
#     Edge 19, Type (0, 0), BuildingBlock: EZIPEK_clean_linker_0, # of connection points: 2
#     Edge 20, Type (0, 0), BuildingBlock: EZIPEK_clean_linker_0, # of connection points: 2
# Relax obj value: 0.154
# Max RMSD: 0.204
# Mean RMSD: 0.204
data_MOF--net-wlj--node1-XOMCOT_clean_sbu_0--edge1-EZIPEK_clean_linker_0
_symmetry_space_group_name_H-M    P1
_symmetry_Int_Tables_number       1
_symmetry_cell_setting            triclinic
loop_
_symmetry_equiv_pos_as_xyz
'x, y, z'
_cell_length_a     19.110978
_cell_length_b     19.26086
_cell_length_c     41.765509
_cell_angle_alpha  90.370139
_cell_angle_beta   90.128486
_cell_angle_gamma 120.02371
loop_
_atom_site_label
_atom_site_type_symbol
_atom_site_fract_x
_atom_site_fract_y
_atom_site_fract_z
_atom_type_partial_charge
Co0 Co 0.578 0.28937 0.26888 0.0
C1 C 0.55907 0.408 0.22983 0.0
C2 C 0.44761 0.29794 0.23764 0.0
C3 C 0.43074 0.3479 0.22024 0.0
N4 N 0.52776 0.33517 0.2434 0.0
N5 N 0.50056 0.41648 0.2154 0.0
H6 H 0.62229 0.45373 0.23078 0.0
H7 H 0.40432 0.23863 0.24593 0.0
C8 C 0.53935 0.14248 0.23096 0.0
O9 O 0.61394 0.15912 0.2364 0.0
N10 N 0.62321 0.23757 0.29528 0.0
C11 C 0.69943 0.26311 0.30572 0.0
C12 C 0.70095 0.20202 0.32228 0.0
C13 C 0.57953 0.16187 0.30647 0.0
N14 N 0.62569 0.13838 0.32236 0.0
C15 C 0.74177 0.39266 0.25 0.0
C16 C 0.725 0.35049 0.18595 0.0
C17 C 0.80059 0.40879 0.19768 0.0
C18 C 0.80843 0.43045 0.22996 0.0
C19 C 0.6595 0.31417 0.20698 0.0
N20 N 0.6691 0.33209 0.23905 0.0
H21 H 0.74851 0.41459 0.27424 0.0
H22 H 0.60099 0.2739 0.19706 0.0
H23 H 0.75108 0.32168 0.3024 0.0
H24 H 0.51496 0.12443 0.30296 0.0
O25 O 0.61991 0.38068 0.2972 0.0
O26 O 0.50097 0.27375 0.3028 0.0
O27 O 0.51369 0.18621 0.24344 0.0
C28 C 0.55268 0.34607 0.31286 0.0
H29 H 0.37181 0.33556 0.21201 0.0
H30 H 0.75288 0.20452 0.33388 0.0
H31 H 0.71628 0.33494 0.16072 0.0
H32 H 0.86541 0.47776 0.23947 0.0
Co33 Co 0.77929 0.30769 0.92975 0.0
C34 C 0.66535 0.16394 0.88886 0.0
C35 C 0.78953 0.19829 0.88285 0.0
C36 C 0.74409 0.13364 0.86324 0.0
N37 N 0.74123 0.22078 0.89781 0.0
N38 N 0.66611 0.11194 0.86715 0.0
H39 H 0.61043 0.15696 0.89907 0.0
H40 H 0.85366 0.22498 0.88665 0.0
C41 C 0.90161 0.38014 0.87751 0.0
O42 O 0.83996 0.35276 0.85755 0.0
N43 N 0.82124 0.39297 0.96181 0.0
C44 C 0.78806 0.43684 0.97157 0.0
C45 C 0.84584 0.50339 0.98808 0.0
C46 C 0.89781 0.43201 0.97349 0.0
N47 N 0.91489 0.50031 0.9894 0.0
C48 C 0.65802 0.32875 0.89826 0.0
C49 C 0.75613 0.48636 0.88024 0.0
C50 C 0.67419 0.44658 0.87179 0.0
C51 C 0.62484 0.36733 0.88126 0.0
C52 C 0.7871 0.44501 0.89723 0.0
N53 N 0.73885 0.36583 0.90474 0.0
H54 H 0.61763 0.27004 0.90727 0.0
H55 H 0.84968 0.47704 0.90478 0.0
H56 H 0.72786 0.4243 0.9653 0.0
H57 H 0.94158 0.41314 0.96895 0.0
O58 O 0.68317 0.24438 0.95467 0.0
O59 O 0.79513 0.23836 0.95937 0.0
O60 O 0.88884 0.36677 0.90761 0.0
C61 C 0.71999 0.21075 0.96785 0.0
H62 H 0.7659 0.10178 0.84868 0.0
H63 H 0.83839 0.55159 0.99773 0.0
H64 H 0.7953 0.54869 0.8741 0.0
H65 H 0.56054 0.33602 0.87616 0.0
Co66 Co 0.75436 0.47172 0.60097 0.0
C67 C 0.88976 0.48019 0.56093 0.0
C68 C 0.89193 0.59219 0.56539 0.0
C69 C 0.9595 0.60527 0.54893 0.0
N70 N 0.84707 0.51358 0.57253 0.0
N71 N 0.95765 0.53489 0.54617 0.0
H72 H 0.8751 0.41906 0.56418 0.0
H73 H 0.87829 0.63775 0.57298 0.0
C74 C 0.70758 0.53306 0.54383 0.0
O75 O 0.74273 0.50294 0.52604 0.0
N76 N 0.6633 0.43272 0.62991 0.0
C77 C 0.63919 0.37207 0.65059 0.0
C78 C 0.56826 0.3584 0.66445 0.0
C79 C 0.60669 0.4551 0.63162 0.0
N80 N 0.54456 0.40777 0.6514 0.0
C81 C 0.72153 0.3184 0.57765 0.0
C82 C 0.57715 0.27574 0.54696 0.0
C83 C 0.60877 0.22414 0.54539 0.0
C84 C 0.6808 0.24527 0.56149 0.0
C85 C 0.62063 0.34915 0.5633 0.0
N86 N 0.69457 0.37195 0.57667 0.0
H87 H 0.7741 0.33083 0.59156 0.0
H88 H 0.59393 0.38679 0.56561 0.0
H89 H 0.67097 0.33996 0.65541 0.0
H90 H 0.61282 0.50677 0.61923 0.0
O91 O 0.8103 0.43852 0.62979 0.0
O92 O 0.82211 0.55772 0.63104 0.0
O93 O 0.70687 0.52658 0.57439 0.0
C94 C 0.84486 0.50941 0.64273 0.0
H95 H 1.00784 0.66236 0.54064 0.0
H96 H 0.53891 0.31657 0.68364 0.0
H97 H 0.51972 0.25942 0.53576 0.0
H98 H 0.70494 0.20496 0.56187 0.0
Co99 Co 0.31179 0.5688 0.75354 0.0
C100 C 0.4424 0.56146 0.79151 0.0
C101 C 0.32268 0.46708 0.80222 0.0
C102 C 0.37642 0.45412 0.81927 0.0
N103 N 0.36338 0.53541 0.78534 0.0
N104 N 0.45125 0.51332 0.81244 0.0
H105 H 0.49271 0.61082 0.77983 0.0
H106 H 0.25808 0.42686 0.801 0.0
C107 C 0.21298 0.54315 0.81298 0.0
O108 O 0.2805 0.59059 0.82847 0.0
N109 N 0.25692 0.59773 0.7219 0.0
C110 C 0.28926 0.65387 0.69896 0.0
C111 C 0.22709 0.65362 0.6818 0.0
C112 C 0.1762 0.56467 0.71858 0.0
N113 N 0.15621 0.59789 0.69445 0.0
C114 C 0.44554 0.72416 0.7689 0.0
C115 C 0.35828 0.78677 0.79719 0.0
C116 C 0.44267 0.8298 0.79904 0.0
C117 C 0.48649 0.79943 0.78354 0.0
C118 C 0.31985 0.7117 0.78193 0.0
N119 N 0.36347 0.67811 0.77069 0.0
H120 H 0.48029 0.70303 0.75622 0.0
H121 H 0.25515 0.67985 0.78008 0.0
H122 H 0.35334 0.69225 0.69503 0.0
H123 H 0.13245 0.51632 0.7332 0.0
O124 O 0.39388 0.5835 0.72291 0.0
O125 O 0.28005 0.4694 0.73032 0.0
O126 O 0.21451 0.52998 0.78292 0.0
C127 C 0.3496 0.50781 0.71592 0.0
H128 H 0.36213 0.40351 0.83451 0.0
H129 H 0.23329 0.6917 0.66179 0.0
H130 H 0.32267 0.80989 0.80815 0.0
H131 H 0.55197 0.83273 0.78356 0.0
Co132 Co 0.4827 0.74049 0.42763 0.0
C133 C 0.48702 0.86993 0.47098 0.0
C134 C 0.59378 0.86026 0.47246 0.0
C135 C 0.60757 0.92548 0.49056 0.0
N136 N 0.5178 0.824 0.46045 0.0
N137 N 0.54071 0.93166 0.48941 0.0
H138 H 0.4294 0.86259 0.46422 0.0
H139 H 0.63849 0.8435 0.46666 0.0
C140 C 0.53682 0.67722 0.48222 0.0
O141 O 0.48985 0.69132 0.50082 0.0
N142 N 0.45406 0.65859 0.39493 0.0
C143 C 0.38699 0.62209 0.3765 0.0
C144 C 0.38864 0.56168 0.35892 0.0
C145 C 0.4955 0.6205 0.38823 0.0
N146 N 0.45655 0.56033 0.36673 0.0
C147 C 0.32769 0.70054 0.45139 0.0
C148 C 0.28381 0.55206 0.47645 0.0
C149 C 0.23417 0.58531 0.48154 0.0
C150 C 0.25553 0.65912 0.46796 0.0
C151 C 0.3561 0.59603 0.45941 0.0
N152 N 0.38011 0.67207 0.44919 0.0
H153 H 0.34062 0.75555 0.44004 0.0
H154 H 0.39284 0.56931 0.45493 0.0
H155 H 0.33919 0.63666 0.37656 0.0
H156 H 0.55266 0.63539 0.39926 0.0
O157 O 0.44513 0.79616 0.40051 0.0
O158 O 0.57026 0.82057 0.40101 0.0
O159 O 0.54152 0.69348 0.45229 0.0
C160 C 0.51823 0.84072 0.39065 0.0
H161 H 0.66424 0.96873 0.50168 0.0
H162 H 0.34249 0.52034 0.34246 0.0
H163 H 0.26718 0.4934 0.48566 0.0
H164 H 0.21669 0.68488 0.4703 0.0
Co165 Co 0.31327 0.75537 0.09228 0.0
C166 C 0.15045 0.63516 0.11903 0.0
C167 C 0.23551 0.70867 0.15526 0.0
C168 C 0.16388 0.65713 0.16989 0.0
N169 N 0.22718 0.69639 0.12321 0.0
N170 N 0.11082 0.61151 0.14708 0.0
H171 H 0.12399 0.60695 0.09639 0.0
H172 H 0.2902 0.75165 0.16752 0.0
C173 C 0.42706 0.91045 0.12993 0.0
O174 O 0.48914 0.93123 0.1112 0.0
N175 N 0.40103 0.81595 0.06189 0.0
C176 C 0.45794 0.79764 0.05353 0.0
C177 C 0.51883 0.86124 0.03771 0.0
C178 C 0.42566 0.88881 0.04845 0.0
N179 N 0.49926 0.91913 0.03417 0.0
C180 C 0.32986 0.62428 0.11353 0.0
C181 C 0.48309 0.71039 0.13991 0.0
C182 C 0.43917 0.62748 0.14372 0.0
C183 C 0.36243 0.58381 0.1298 0.0
C184 C 0.44806 0.74844 0.1236 0.0
N185 N 0.37126 0.70602 0.11147 0.0
H186 H 0.26989 0.58995 0.10336 0.0
H187 H 0.48396 0.81156 0.12057 0.0
H188 H 0.45713 0.74268 0.05937 0.0
H189 H 0.3918 0.91993 0.05014 0.0
O190 O 0.25364 0.6751 0.05942 0.0
O191 O 0.24219 0.78197 0.06833 0.0
O192 O 0.35912 0.84719 0.12465 0.0
C193 C 0.21699 0.71479 0.05263 0.0
H194 H 0.15122 0.6537 0.19526 0.0
H195 H 0.57394 0.8646 0.02922 0.0
H196 H 0.54338 0.74548 0.14991 0.0
H197 H 0.32737 0.51921 0.13209 0.0
C198 C 0.45573 0.08782 0.17992 0.0
C199 C 0.48793 0.07488 0.20868 0.0
C200 C 0.46183 0.94439 0.18813 0.0
C201 C 0.43712 0.96087 0.15844 0.0
N202 N 0.38932 0.03505 0.12847 0.0
N203 N 0.49698 0.98165 0.24402 0.0
C204 C 0.42722 0.0285 0.15516 0.0
C205 C 0.48314 1.0 0.21394 0.0
N206 N 0.45543 0.15786 0.17555 0.0
N207 N 0.46686 0.87652 0.19134 0.0
H208 H 0.50972 0.02038 0.26351 0.0
H209 H 0.48848 0.92589 0.25049 0.0
H210 H 0.44473 0.83136 0.17404 0.0
H211 H 0.49463 0.86566 0.21058 0.0
H212 H 0.44598 0.17684 0.15353 0.0
H213 H 0.46563 0.19838 0.19392 0.0
H214 H 0.3725 0.07834 0.12564 0.0
H215 H 0.36843 0.99269 0.10993 0.0
C216 C 0.07051 0.51623 0.82125 0.0
C217 C 0.13481 0.50377 0.83076 0.0
C218 C 0.04756 0.41123 0.87266 0.0
C219 C 0.98519 0.42782 0.86425 0.0
N220 N 0.94851 0.51505 0.83669 0.0
N221 N 0.1885 0.44863 0.86925 0.0
C222 C 0.99993 0.48561 0.84028 0.0
C223 C 0.12477 0.45479 0.85778 0.0
N224 N 0.07591 0.55741 0.794 0.0
N225 N 1.03237 0.35052 0.89331 0.0
H226 H 0.24393 0.4723 0.8578 0.0
H227 H 0.18806 0.42395 0.89142 0.0
H228 H 0.97846 0.31778 0.90557 0.0
H229 H 0.0714 0.3281 0.8966 0.0
H230 H 1.02643 0.55757 0.78354 0.0
H231 H 0.1279 0.58689 0.78043 0.0
H232 H 0.961 0.56387 0.8223 0.0
H233 H 0.89782 0.49725 0.85081 0.0
C234 C 0.63682 0.68201 0.5232 0.0
C235 C 0.58454 0.64272 0.49661 0.0
C236 C 0.60837 0.52914 0.50283 0.0
C237 C 0.66476 0.57074 0.52794 0.0
N238 N 0.74396 0.69354 0.55792 0.0
N239 N 0.53109 0.53363 0.45797 0.0
C240 C 0.68169 0.64882 0.53716 0.0
C241 C 0.57413 0.56819 0.48534 0.0
N242 N 0.64436 0.7517 0.53518 0.0
N243 N 0.58318 0.45016 0.49677 0.0
H244 H 0.49857 0.55494 0.44576 0.0
H245 H 0.53214 0.48652 0.44601 0.0
H246 H 0.60554 0.41815 0.50873 0.0
H247 H 0.53435 0.41367 0.48193 0.0
H248 H 0.6712 0.77634 0.55722 0.0
H249 H 0.62048 0.7834 0.52397 0.0
H250 H 0.76605 0.7542 0.56253 0.0
H251 H 0.77893 0.67239 0.56851 0.0
C252 C 0.46366 0.58372 0.19694 0.0
C253 C 0.47195 0.58605 0.1631 0.0
C254 C 0.51876 0.48889 0.16521 0.0
C255 C 0.50723 0.48422 0.1987 0.0
N256 N 0.48724 0.53701 0.24767 0.0
N257 N 0.52454 0.55696 0.11569 0.0
C258 C 0.48636 0.53572 0.21496 0.0
C259 C 0.50551 0.54396 0.14744 0.0
N260 N 0.43019 0.62393 0.21153 0.0
N261 N 0.53819 0.43735 0.15045 0.0
H262 H 0.515 0.59681 0.10212 0.0
H263 H 0.55533 0.53337 0.10339 0.0
H264 H 0.55047 0.39829 0.16328 0.0
H265 H 0.5388 0.43063 0.12573 0.0
H266 H 0.41459 0.61808 0.23561 0.0
H267 H 0.41392 0.66064 0.19915 0.0
H268 H 0.47888 0.57737 0.26151 0.0
H269 H 0.50299 0.50118 0.26102 0.0
C270 C 0.51941 0.89487 0.8489 0.0
C271 C 0.48638 0.90228 0.81962 0.0
C272 C 0.55645 0.04847 0.82687 0.0
C273 C 0.59854 0.04122 0.85344 0.0
N274 N 0.62683 0.95881 0.88793 0.0
N275 N 0.47291 0.98467 0.77977 0.0
C276 C 0.58117 0.96464 0.86415 0.0
C277 C 0.50367 0.97872 0.80853 0.0
N278 N 0.4912 0.82092 0.8622 0.0
N279 N 0.56878 0.12239 0.8189 0.0
H280 H 0.43302 0.93458 0.76619 0.0
H281 H 0.48967 0.03879 0.76853 0.0
H282 H 0.60969 0.17446 0.8312 0.0
H283 H 0.53513 0.13176 0.80163 0.0
H284 H 0.50737 0.81244 0.88507 0.0
H285 H 0.44558 0.76834 0.85164 0.0
H286 H 0.62495 0.90549 0.89391 0.0
H287 H 0.67091 1.00881 0.90018 0.0
C288 C 0.09218 0.54849 0.55037 0.0
C289 C 1.02049 0.52399 0.53254 0.0
C290 C 0.08388 0.5066 0.48466 0.0
C291 C 0.15932 0.54545 0.50088 0.0
N292 N 0.23689 0.59897 0.54942 0.0
N293 N 0.94397 0.4758 0.48382 0.0
C294 C 0.16365 0.56339 0.5341 0.0
C295 C 1.01461 0.50007 0.50011 0.0
N296 N 0.09129 0.55855 0.58275 0.0
N297 N 0.07957 0.47765 0.45434 0.0
H298 H 0.89226 0.46933 0.49497 0.0
H299 H 0.93721 0.46533 0.45923 0.0
H300 H 0.13004 0.48211 0.44279 0.0
H301 H 1.02578 0.44379 0.44171 0.0
H302 H 0.13943 0.57086 0.59794 0.0
H303 H 0.03919 0.54838 0.59477 0.0
H304 H 0.24631 0.6219 0.57264 0.0
H305 H 0.28957 0.60784 0.53832 0.0
C306 C 0.622 0.47152 0.82088 0.0
C307 C 0.63707 0.48678 0.85416 0.0
C308 C 0.55024 0.54664 0.85563 0.0
C309 C 0.5245 0.51844 0.82408 0.0
N310 N 0.53542 0.45713 0.7756 0.0
N311 N 0.62007 0.54195 0.90352 0.0
C312 C 0.5616 0.48324 0.80612 0.0
C313 C 0.60381 0.52692 0.87153 0.0
N314 N 0.66502 0.44502 0.80372 0.0
N315 N 0.52184 0.59118 0.87026 0.0
H316 H 0.66113 0.53054 0.91554 0.0
H317 H 0.59109 0.5629 0.91848 0.0
H318 H 0.48202 0.60527 0.85875 0.0
H319 H 0.54199 0.61919 0.89245 0.0
H320 H 0.66163 0.43816 0.77893 0.0
H321 H 0.70949 0.43604 0.81418 0.0
H322 H 0.55285 0.42277 0.76211 0.0
H323 H 0.49307 0.4675 0.76412 0.0
C324 C 0.52145 0.07445 0.54459 0.0
C325 C 0.56781 0.14687 0.52756 0.0
C326 C 0.57789 0.07257 0.48182 0.0
C327 C 0.53686 1.00101 0.4997 0.0
N328 N 0.45519 0.92851 0.54435 0.0
N329 N 0.62161 0.21426 0.47768 0.0
C330 C 0.50301 1.0003 0.52981 0.0
C331 C 0.58928 0.14549 0.49522 0.0
N332 N 0.4987 0.07761 0.57532 0.0
N333 N 0.60997 0.07096 0.45282 0.0
H334 H 0.63141 0.26867 0.48717 0.0
H335 H 0.6325 0.21634 0.45321 0.0
H336 H 0.6001 1.01776 0.44209 0.0
H337 H 0.649 0.12196 0.44002 0.0
H338 H 0.47181 0.02857 0.59049 0.0
H339 H 0.50859 0.13092 0.58603 0.0
H340 H 0.42382 0.9219 0.56547 0.0
H341 H 0.44285 0.87413 0.53391 0.0
C342 C 0.97097 0.58199 0.1547 0.0
C343 C 1.02695 0.55449 0.15225 0.0
C344 C 0.92654 0.42307 0.17274 0.0
C345 C 0.87164 0.45189 0.17649 0.0
N346 N 0.8324 0.54945 0.16388 0.0
N347 N 0.05623 0.4473 0.15244 0.0
C348 C 0.89084 0.52835 0.16487 0.0
C349 C 1.0036 0.47394 0.15892 0.0
N350 N 0.99632 0.6608 0.149 0.0
N351 N 0.90612 0.34869 0.18381 0.0
H352 H 0.11344 0.48468 0.14292 0.0
H353 H 0.04185 0.38778 0.15435 0.0
H354 H 0.84903 0.30922 0.19293 0.0
H355 H 0.94596 0.32678 0.18503 0.0
H356 H 0.9617 0.68759 0.15365 0.0
H357 H 0.05452 0.70089 0.14109 0.0
H358 H 0.84021 0.60147 0.15316 0.0
H359 H 0.77332 0.51125 0.17144 0.0
C360 C 0.5921 0.9329 0.34389 0.0
C361 C 0.54172 0.91519 0.37132 0.0
C362 C 0.55324 0.04841 0.36698 0.0
C363 C 0.59864 0.06349 0.33882 0.0
N364 N 0.65213 1.01759 0.29724 0.0
N365 N 0.4559 0.95106 0.40255 0.0
C366 C 0.61584 1.00506 0.32642 0.0
C367 C 0.51645 0.97104 0.38091 0.0
N368 N 0.61573 0.88 0.33403 0.0
N369 N 0.54735 0.10948 0.38113 0.0
H370 H 0.42376 0.89611 0.41353 0.0
H371 H 0.43041 0.98688 0.40714 0.0
H372 H 0.57414 0.16705 0.3716 0.0
H373 H 0.52321 0.10555 0.40383 0.0
H374 H 0.66021 0.89349 0.31695 0.0
H375 H 0.59229 0.82275 0.34353 0.0
H376 H 0.65942 0.97459 0.28487 0.0
H377 H 0.66961 0.06972 0.28418 0.0
C378 C 0.99333 0.58928 0.03505 0.0
C379 C 0.99148 0.56018 1.00362 0.0
C380 C 0.14013 0.64327 1.00201 0.0
C381 C 0.14074 0.67577 0.03277 0.0
N382 N 0.06197 0.69935 0.07232 0.0
N383 N 0.06229 0.57906 0.95384 0.0
C384 C 0.06555 0.65594 0.04707 0.0
C385 C 0.06478 0.59277 0.98604 0.0
N386 N 0.92781 0.54992 0.05449 0.0
N387 N 0.21151 0.66111 0.98789 0.0
H388 H 1.00821 0.54766 0.94107 0.0
H389 H 0.11314 0.60639 0.93929 0.0
H390 H 0.26751 0.70283 0.99763 0.0
H391 H 0.21487 0.63197 0.96734 0.0
H392 H 0.92896 0.56437 0.07867 0.0
H393 H 0.87614 0.49688 0.04762 0.0
H394 H 1.0073 0.69074 0.08124 0.0
H395 H 0.11222 0.74931 0.08198 0.0
C396 C 0.38085 0.39667 0.70358 0.0
C397 C 0.38101 0.46775 0.69416 0.0
C398 C 0.45921 0.47352 0.64634 0.0
C399 C 0.47401 0.41499 0.66012 0.0
N400 N 0.39567 0.28616 0.68464 0.0
N401 N 0.41067 0.56726 0.65345 0.0
C402 C 0.41923 0.36561 0.68382 0.0
C403 C 0.41696 0.50398 0.66444 0.0
N404 N 0.34873 0.36062 0.73209 0.0
N405 N 0.47425 0.49044 0.6146 0.0
H406 H 0.37273 0.5852 0.66391 0.0
H407 H 0.44459 0.60296 0.63446 0.0
H408 H 0.48957 0.45643 0.5997 0.0
H409 H 0.45978 0.52835 0.6022 0.0
H410 H 0.35638 0.31444 0.74108 0.0
H411 H 0.32065 0.38034 0.74801 0.0
H412 H 0.35066 0.24574 0.69984 0.0
H413 H 0.41187 0.25927 0.66657 0.0
C414 C 1.01706 0.49651 0.67823 0.0
C415 C 0.07529 0.57742 0.68468 0.0
C416 C 0.97364 0.61649 0.6719 0.0
C417 C 0.91612 0.53466 0.66498 0.0
N418 N 0.87515 0.39852 0.67964 0.0
N419 N 0.10163 0.71041 0.6974 0.0
C420 C 0.93526 0.4751 0.67395 0.0
C421 C 0.05162 0.6366 0.68424 0.0
N422 N 0.04 0.44026 0.67471 0.0
N423 N 0.95403 0.67482 0.66756 0.0
H424 H 0.15665 0.72516 0.70819 0.0
H425 H 0.08534 0.75411 0.70057 0.0
H426 H 0.89461 0.66253 0.66562 0.0
H427 H 0.9969 0.73566 0.66684 0.0
H428 H 0.99985 0.38147 0.66744 0.0
H429 H 0.10033 0.45461 0.6754 0.0
H430 H 0.88649 0.3543 0.68818 0.0
H431 H 0.81443 0.38302 0.68024 0.0
C432 C 0.58809 0.47833 0.33863 0.0
C433 C 0.53204 0.3949 0.33549 0.0
C434 C 0.43078 0.42003 0.36154 0.0
C435 C 0.48107 0.5037 0.35626 0.0
N436 N 0.60522 0.6109 0.33519 0.0
N437 N 0.40197 0.28423 0.3505 0.0
C438 C 0.55919 0.53238 0.34359 0.0
C439 C 0.45362 0.36488 0.34884 0.0
N440 N 0.66923 0.5059 0.33874 0.0
N441 N 0.36408 0.39389 0.38038 0.0
H442 H 0.42133 0.24264 0.34805 0.0
H443 H 0.34044 0.25892 0.35504 0.0
H444 H 0.3488 0.43302 0.39152 0.0
H445 H 0.32857 0.33467 0.38761 0.0
H446 H 0.71204 0.56597 0.34289 0.0
H447 H 0.69254 0.46719 0.33974 0.0
H448 H 0.66023 0.63288 0.32336 0.0
H449 H 0.58431 0.6515 0.33682 0.0
C450 C 0.62747 0.14299 0.01477 0.0
C451 C 0.67291 0.13889 0.98862 0.0
C452 C 0.58904 0.99255 0.98905 0.0
C453 C 0.54973 0.99473 0.01751 0.0
N454 N 0.54214 0.0766 0.0602 0.0
N455 N 0.71118 0.05643 0.95803 0.0
C456 C 0.57148 0.07126 0.03114 0.0
C457 C 0.65859 0.06281 0.97815 0.0
N458 N 0.63808 0.21575 0.02418 0.0
N459 N 0.55717 0.92351 0.97132 0.0
H460 H 0.76246 0.10555 0.94884 0.0
H461 H 0.70787 1.00158 0.95337 0.0
H462 H 0.50176 0.87324 0.97681 0.0
H463 H 0.58052 0.91974 0.94931 0.0
H464 H 0.59949 0.22213 0.03996 0.0
H465 H 0.68372 0.26987 0.01507 0.0
H466 H 0.56431 0.13002 0.07311 0.0
H467 H 0.49909 0.02741 0.07251 0.0
loop_
_geom_bond_atom_site_label_1
_geom_bond_atom_site_label_2
_geom_bond_distance
_geom_bond_site_symmetry_2
_ccdc_geom_bond_type
Co0 N4 2.148 . S
Co0 N10 2.128 . S
Co0 N20 2.194 . S
Co0 O25 2.351 . S
Co0 O26 2.155 . S
Co0 O27 2.096 . S
C1 N4 1.301 . S
C1 N5 1.328 . S
C1 H6 0.930 . S
C2 C3 1.333 . S
C2 N4 1.317 . S
C2 H7 0.930 . S
C3 C2 1.333 . S
C3 N5 1.350 . S
C3 H29 0.931 . S
N4 Co0 2.148 . S
N4 C1 1.301 . S
N4 C2 1.317 . S
N5 C1 1.328 . S
N5 C3 1.350 . S
H6 C1 0.930 . S
H7 C2 0.930 . S
C8 O9 1.224 . S
C8 O27 1.247 . S
O9 C8 1.224 . S
N10 Co0 2.128 . S
N10 C11 1.355 . S
N10 C13 1.311 . S
C11 N10 1.355 . S
C11 C12 1.363 . S
C11 H23 0.929 . S
C12 C11 1.363 . S
C12 N14 1.375 . S
C12 H30 0.931 . S
C13 N10 1.311 . S
C13 N14 1.347 . S
C13 H24 0.929 . S
N14 C12 1.375 . S
N14 C13 1.347 . S
C15 C18 1.365 . S
C15 N20 1.328 . S
C15 H21 0.929 . S
C16 C17 1.362 . S
C16 C19 1.378 . S
C16 H31 0.929 . S
C17 C16 1.362 . S
C17 C18 1.366 . S
C18 C15 1.365 . S
C18 C17 1.366 . S
C18 H32 0.930 . S
C19 C16 1.378 . S
C19 N20 1.315 . S
C19 H22 0.930 . S
N20 Co0 2.194 . S
N20 C15 1.328 . S
N20 C19 1.315 . S
H21 C15 0.929 . S
H22 C19 0.930 . S
H23 C11 0.929 . S
H24 C13 0.929 . S
O25 Co0 2.351 . S
O25 C28 1.244 . S
O26 Co0 2.155 . S
O26 C28 1.240 . S
O27 Co0 2.096 . S
O27 C8 1.247 . S
C28 O25 1.244 . S
C28 O26 1.240 . S
H29 C3 0.931 . S
H30 C12 0.931 . S
H31 C16 0.929 . S
H32 C18 0.930 . S
Co33 N37 2.148 . S
Co33 N43 2.128 . S
Co33 N53 2.194 . S
Co33 O58 2.351 . S
Co33 O59 2.155 . S
Co33 O60 2.096 . S
C34 N37 1.301 . S
C34 N38 1.328 . S
C34 H39 0.930 . S
C35 C36 1.333 . S
C35 N37 1.317 . S
C35 H40 0.930 . S
C36 C35 1.333 . S
C36 N38 1.350 . S
C36 H62 0.931 . S
N37 Co33 2.148 . S
N37 C34 1.301 . S
N37 C35 1.317 . S
N38 C34 1.328 . S
N38 C36 1.350 . S
H39 C34 0.930 . S
H40 C35 0.930 . S
C41 O42 1.224 . S
C41 O60 1.247 . S
O42 C41 1.224 . S
N43 Co33 2.128 . S
N43 C44 1.355 . S
N43 C46 1.311 . S
C44 N43 1.355 . S
C44 C45 1.363 . S
C44 H56 0.929 . S
C45 C44 1.363 . S
C45 N47 1.375 . S
C45 H63 0.931 . S
C46 N43 1.311 . S
C46 N47 1.347 . S
C46 H57 0.929 . S
N47 C45 1.375 . S
N47 C46 1.347 . S
C48 C51 1.365 . S
C48 N53 1.328 . S
C48 H54 0.929 . S
C49 C50 1.362 . S
C49 C52 1.378 . S
C49 H64 0.929 . S
C50 C49 1.362 . S
C50 C51 1.366 . S
C51 C48 1.365 . S
C51 C50 1.366 . S
C51 H65 0.930 . S
C52 C49 1.378 . S
C52 N53 1.315 . S
C52 H55 0.930 . S
N53 Co33 2.194 . S
N53 C48 1.328 . S
N53 C52 1.315 . S
H54 C48 0.929 . S
H55 C52 0.930 . S
H56 C44 0.929 . S
H57 C46 0.929 . S
O58 Co33 2.351 . S
O58 C61 1.244 . S
O59 Co33 2.155 . S
O59 C61 1.240 . S
O60 Co33 2.096 . S
O60 C41 1.247 . S
C61 O58 1.244 . S
C61 O59 1.240 . S
H62 C36 0.931 . S
H63 C45 0.931 . S
H64 C49 0.929 . S
H65 C51 0.930 . S
Co66 N70 2.148 . S
Co66 N76 2.128 . S
Co66 N86 2.194 . S
Co66 O91 2.351 . S
Co66 O92 2.155 . S
Co66 O93 2.096 . S
C67 N70 1.301 . S
C67 N71 1.328 . S
C67 H72 0.930 . S
C68 C69 1.333 . S
C68 N70 1.317 . S
C68 H73 0.930 . S
C69 C68 1.333 . S
C69 N71 1.350 . S
C69 H95 0.931 . S
N70 Co66 2.148 . S
N70 C67 1.301 . S
N70 C68 1.317 . S
N71 C67 1.328 . S
N71 C69 1.350 . S
H72 C67 0.930 . S
H73 C68 0.930 . S
C74 O75 1.224 . S
C74 O93 1.247 . S
O75 C74 1.224 . S
N76 Co66 2.128 . S
N76 C77 1.355 . S
N76 C79 1.311 . S
C77 N76 1.355 . S
C77 C78 1.363 . S
C77 H89 0.929 . S
C78 C77 1.363 . S
C78 N80 1.375 . S
C78 H96 0.931 . S
C79 N76 1.311 . S
C79 N80 1.347 . S
C79 H90 0.929 . S
N80 C78 1.375 . S
N80 C79 1.347 . S
C81 C84 1.365 . S
C81 N86 1.328 . S
C81 H87 0.929 . S
C82 C83 1.362 . S
C82 C85 1.378 . S
C82 H97 0.929 . S
C83 C82 1.362 . S
C83 C84 1.366 . S
C84 C81 1.365 . S
C84 C83 1.366 . S
C84 H98 0.930 . S
C85 C82 1.378 . S
C85 N86 1.315 . S
C85 H88 0.930 . S
N86 Co66 2.194 . S
N86 C81 1.328 . S
N86 C85 1.315 . S
H87 C81 0.929 . S
H88 C85 0.930 . S
H89 C77 0.929 . S
H90 C79 0.929 . S
O91 Co66 2.351 . S
O91 C94 1.244 . S
O92 Co66 2.155 . S
O92 C94 1.240 . S
O93 Co66 2.096 . S
O93 C74 1.247 . S
C94 O91 1.244 . S
C94 O92 1.240 . S
H95 C69 0.931 . S
H96 C78 0.931 . S
H97 C82 0.929 . S
H98 C84 0.930 . S
Co99 N103 2.148 . S
Co99 N109 2.128 . S
Co99 N119 2.194 . S
Co99 O124 2.351 . S
Co99 O125 2.155 . S
Co99 O126 2.096 . S
C100 N103 1.301 . S
C100 N104 1.328 . S
C100 H105 0.930 . S
C101 C102 1.333 . S
C101 N103 1.317 . S
C101 H106 0.930 . S
C102 C101 1.333 . S
C102 N104 1.350 . S
C102 H128 0.931 . S
N103 Co99 2.148 . S
N103 C100 1.301 . S
N103 C101 1.317 . S
N104 C100 1.328 . S
N104 C102 1.350 . S
H105 C100 0.930 . S
H106 C101 0.930 . S
C107 O108 1.224 . S
C107 O126 1.247 . S
O108 C107 1.224 . S
N109 Co99 2.128 . S
N109 C110 1.355 . S
N109 C112 1.311 . S
C110 N109 1.355 . S
C110 C111 1.363 . S
C110 H122 0.929 . S
C111 C110 1.363 . S
C111 N113 1.375 . S
C111 H129 0.931 . S
C112 N109 1.311 . S
C112 N113 1.347 . S
C112 H123 0.929 . S
N113 C111 1.375 . S
N113 C112 1.347 . S
C114 C117 1.365 . S
C114 N119 1.328 . S
C114 H120 0.929 . S
C115 C116 1.362 . S
C115 C118 1.378 . S
C115 H130 0.929 . S
C116 C115 1.362 . S
C116 C117 1.366 . S
C117 C114 1.365 . S
C117 C116 1.366 . S
C117 H131 0.930 . S
C118 C115 1.378 . S
C118 N119 1.315 . S
C118 H121 0.930 . S
N119 Co99 2.194 . S
N119 C114 1.328 . S
N119 C118 1.315 . S
H120 C114 0.929 . S
H121 C118 0.930 . S
H122 C110 0.929 . S
H123 C112 0.929 . S
O124 Co99 2.351 . S
O124 C127 1.244 . S
O125 Co99 2.155 . S
O125 C127 1.240 . S
O126 Co99 2.096 . S
O126 C107 1.247 . S
C127 O124 1.244 . S
C127 O125 1.240 . S
H128 C102 0.931 . S
H129 C111 0.931 . S
H130 C115 0.929 . S
H131 C117 0.930 . S
Co132 N136 2.148 . S
Co132 N142 2.128 . S
Co132 N152 2.194 . S
Co132 O157 2.351 . S
Co132 O158 2.155 . S
Co132 O159 2.096 . S
C133 N136 1.301 . S
C133 N137 1.328 . S
C133 H138 0.930 . S
C134 C135 1.333 . S
C134 N136 1.317 . S
C134 H139 0.930 . S
C135 C134 1.333 . S
C135 N137 1.350 . S
C135 H161 0.931 . S
N136 Co132 2.148 . S
N136 C133 1.301 . S
N136 C134 1.317 . S
N137 C133 1.328 . S
N137 C135 1.350 . S
H138 C133 0.930 . S
H139 C134 0.930 . S
C140 O141 1.224 . S
C140 O159 1.247 . S
O141 C140 1.224 . S
N142 Co132 2.128 . S
N142 C143 1.355 . S
N142 C145 1.311 . S
C143 N142 1.355 . S
C143 C144 1.363 . S
C143 H155 0.929 . S
C144 C143 1.363 . S
C144 N146 1.375 . S
C144 H162 0.931 . S
C145 N142 1.311 . S
C145 N146 1.347 . S
C145 H156 0.929 . S
N146 C144 1.375 . S
N146 C145 1.347 . S
C147 C150 1.365 . S
C147 N152 1.328 . S
C147 H153 0.929 . S
C148 C149 1.362 . S
C148 C151 1.378 . S
C148 H163 0.929 . S
C149 C148 1.362 . S
C149 C150 1.366 . S
C150 C147 1.365 . S
C150 C149 1.366 . S
C150 H164 0.930 . S
C151 C148 1.378 . S
C151 N152 1.315 . S
C151 H154 0.930 . S
N152 Co132 2.194 . S
N152 C147 1.328 . S
N152 C151 1.315 . S
H153 C147 0.929 . S
H154 C151 0.930 . S
H155 C143 0.929 . S
H156 C145 0.929 . S
O157 Co132 2.351 . S
O157 C160 1.244 . S
O158 Co132 2.155 . S
O158 C160 1.240 . S
O159 Co132 2.096 . S
O159 C140 1.247 . S
C160 O157 1.244 . S
C160 O158 1.240 . S
H161 C135 0.931 . S
H162 C144 0.931 . S
H163 C148 0.929 . S
H164 C150 0.930 . S
Co165 N169 2.148 . S
Co165 N175 2.128 . S
Co165 N185 2.194 . S
Co165 O190 2.351 . S
Co165 O191 2.155 . S
Co165 O192 2.096 . S
C166 N169 1.301 . S
C166 N170 1.328 . S
C166 H171 0.930 . S
C167 C168 1.333 . S
C167 N169 1.317 . S
C167 H172 0.930 . S
C168 C167 1.333 . S
C168 N170 1.350 . S
C168 H194 0.931 . S
N169 Co165 2.148 . S
N169 C166 1.301 . S
N169 C167 1.317 . S
N170 C166 1.328 . S
N170 C168 1.350 . S
H171 C166 0.930 . S
H172 C167 0.930 . S
C173 O174 1.224 . S
C173 O192 1.247 . S
O174 C173 1.224 . S
N175 Co165 2.128 . S
N175 C176 1.355 . S
N175 C178 1.311 . S
C176 N175 1.355 . S
C176 C177 1.363 . S
C176 H188 0.929 . S
C177 C176 1.363 . S
C177 N179 1.375 . S
C177 H195 0.931 . S
C178 N175 1.311 . S
C178 N179 1.347 . S
C178 H189 0.929 . S
N179 C177 1.375 . S
N179 C178 1.347 . S
C180 C183 1.365 . S
C180 N185 1.328 . S
C180 H186 0.929 . S
C181 C182 1.362 . S
C181 C184 1.378 . S
C181 H196 0.929 . S
C182 C181 1.362 . S
C182 C183 1.366 . S
C183 C180 1.365 . S
C183 C182 1.366 . S
C183 H197 0.930 . S
C184 C181 1.378 . S
C184 N185 1.315 . S
C184 H187 0.930 . S
N185 Co165 2.194 . S
N185 C180 1.328 . S
N185 C184 1.315 . S
H186 C180 0.929 . S
H187 C184 0.930 . S
H188 C176 0.929 . S
H189 C178 0.929 . S
O190 Co165 2.351 . S
O190 C193 1.244 . S
O191 Co165 2.155 . S
O191 C193 1.240 . S
O192 Co165 2.096 . S
O192 C173 1.247 . S
C193 O190 1.244 . S
C193 O191 1.240 . S
H194 C168 0.931 . S
H195 C177 0.931 . S
H196 C181 0.929 . S
H197 C183 0.930 . S
C198 C199 1.363 . S
C198 C204 1.379 . S
C198 N206 1.356 . S
C199 C198 1.363 . S
C199 C205 1.363 1_545 S
C200 C201 1.363 . S
C200 C205 1.379 . S
C200 N207 1.356 . S
C201 C200 1.363 . S
C201 C204 1.363 1_565 S
N202 C204 1.356 . S
N202 H214 0.984 . S
N202 H215 0.985 1_545 S
N203 C205 1.356 . S
N203 H208 0.984 1_565 S
N203 H209 0.985 . S
C204 C198 1.379 . S
C204 C201 1.363 1_545 S
C204 N202 1.356 . S
C205 C199 1.363 1_565 S
C205 C200 1.379 . S
C205 N203 1.356 . S
N206 C198 1.356 . S
N206 H212 0.984 . S
N206 H213 0.984 . S
N207 C200 1.356 . S
N207 H210 0.984 . S
N207 H211 0.985 . S
H208 N203 0.984 1_545 S
H209 N203 0.985 . S
H210 N207 0.984 . S
H211 N207 0.985 . S
H212 N206 0.984 . S
H213 N206 0.984 . S
H214 N202 0.984 . S
H215 N202 0.985 1_565 S
C216 C217 1.363 . S
C216 C222 1.379 1_455 S
C216 N224 1.356 . S
C217 C216 1.363 . S
C217 C223 1.363 . S
C218 C219 1.363 . S
C218 C223 1.379 1_655 S
C218 N225 1.356 . S
C219 C218 1.363 . S
C219 C222 1.363 . S
N220 C222 1.356 . S
N220 H232 0.984 . S
N220 H233 0.985 . S
N221 C223 1.356 . S
N221 H226 0.984 . S
N221 H227 0.985 . S
C222 C216 1.379 1_655 S
C222 C219 1.363 . S
C222 N220 1.356 . S
C223 C217 1.363 . S
C223 C218 1.379 1_455 S
C223 N221 1.356 . S
N224 C216 1.356 . S
N224 H230 0.984 . S
N224 H231 0.984 . S
N225 C218 1.356 . S
N225 H228 0.984 . S
N225 H229 0.985 . S
H226 N221 0.984 . S
H227 N221 0.985 . S
H228 N225 0.984 . S
H229 N225 0.985 . S
H230 N224 0.984 . S
H231 N224 0.984 . S
H232 N220 0.984 . S
H233 N220 0.985 . S
C234 C235 1.363 . S
C234 C240 1.379 . S
C234 N242 1.356 . S
C235 C234 1.363 . S
C235 C241 1.363 . S
C236 C237 1.363 . S
C236 C241 1.379 . S
C236 N243 1.356 . S
C237 C236 1.363 . S
C237 C240 1.363 . S
N238 C240 1.356 . S
N238 H250 0.984 . S
N238 H251 0.985 . S
N239 C241 1.356 . S
N239 H244 0.984 . S
N239 H245 0.985 . S
C240 C234 1.379 . S
C240 C237 1.363 . S
C240 N238 1.356 . S
C241 C235 1.363 . S
C241 C236 1.379 . S
C241 N239 1.356 . S
N242 C234 1.356 . S
N242 H248 0.984 . S
N242 H249 0.984 . S
N243 C236 1.356 . S
N243 H246 0.984 . S
N243 H247 0.985 . S
H244 N239 0.984 . S
H245 N239 0.985 . S
H246 N243 0.984 . S
H247 N243 0.985 . S
H248 N242 0.984 . S
H249 N242 0.984 . S
H250 N238 0.984 . S
H251 N238 0.985 . S
C252 C253 1.363 . S
C252 C258 1.379 . S
C252 N260 1.356 . S
C253 C252 1.363 . S
C253 C259 1.363 . S
C254 C255 1.363 . S
C254 C259 1.379 . S
C254 N261 1.356 . S
C255 C254 1.363 . S
C255 C258 1.363 . S
N256 C258 1.356 . S
N256 H268 0.984 . S
N256 H269 0.985 . S
N257 C259 1.356 . S
N257 H262 0.984 . S
N257 H263 0.985 . S
C258 C252 1.379 . S
C258 C255 1.363 . S
C258 N256 1.356 . S
C259 C253 1.363 . S
C259 C254 1.379 . S
C259 N257 1.356 . S
N260 C252 1.356 . S
N260 H266 0.984 . S
N260 H267 0.984 . S
N261 C254 1.356 . S
N261 H264 0.984 . S
N261 H265 0.985 . S
H262 N257 0.984 . S
H263 N257 0.985 . S
H264 N261 0.984 . S
H265 N261 0.985 . S
H266 N260 0.984 . S
H267 N260 0.984 . S
H268 N256 0.984 . S
H269 N256 0.985 . S
C270 C271 1.363 . S
C270 C276 1.379 . S
C270 N278 1.356 . S
C271 C270 1.363 . S
C271 C277 1.363 . S
C272 C273 1.363 . S
C272 C277 1.379 . S
C272 N279 1.356 1_565 S
C273 C272 1.363 . S
C273 C276 1.363 . S
N274 C276 1.356 . S
N274 H286 0.984 . S
N274 H287 0.985 1_565 S
N275 C277 1.356 . S
N275 H280 0.984 . S
N275 H281 0.985 . S
C276 C270 1.379 . S
C276 C273 1.363 . S
C276 N274 1.356 . S
C277 C271 1.363 . S
C277 C272 1.379 . S
C277 N275 1.356 . S
N278 C270 1.356 . S
N278 H284 0.984 . S
N278 H285 0.984 . S
N279 C272 1.356 1_545 S
N279 H282 0.984 . S
N279 H283 0.985 . S
H280 N275 0.984 . S
H281 N275 0.985 . S
H282 N279 0.984 . S
H283 N279 0.985 . S
H284 N278 0.984 . S
H285 N278 0.984 . S
H286 N274 0.984 . S
H287 N274 0.985 1_545 S
C288 C289 1.363 . S
C288 C294 1.379 . S
C288 N296 1.356 . S
C289 C288 1.363 . S
C289 C295 1.363 . S
C290 C291 1.363 . S
C290 C295 1.379 . S
C290 N297 1.356 . S
C291 C290 1.363 . S
C291 C294 1.363 . S
N292 C294 1.356 . S
N292 H304 0.984 . S
N292 H305 0.985 . S
N293 C295 1.356 1_655 S
N293 H298 0.984 . S
N293 H299 0.985 . S
C294 C288 1.379 . S
C294 C291 1.363 . S
C294 N292 1.356 . S
C295 C289 1.363 . S
C295 C290 1.379 . S
C295 N293 1.356 1_455 S
N296 C288 1.356 . S
N296 H302 0.984 . S
N296 H303 0.984 1_455 S
N297 C290 1.356 . S
N297 H300 0.984 . S
N297 H301 0.985 . S
H298 N293 0.984 . S
H299 N293 0.985 . S
H300 N297 0.984 . S
H301 N297 0.985 . S
H302 N296 0.984 . S
H303 N296 0.984 1_655 S
H304 N292 0.984 . S
H305 N292 0.985 . S
C306 C307 1.363 . S
C306 C312 1.379 . S
C306 N314 1.356 . S
C307 C306 1.363 . S
C307 C313 1.363 . S
C308 C309 1.363 . S
C308 C313 1.379 . S
C308 N315 1.356 . S
C309 C308 1.363 . S
C309 C312 1.363 . S
N310 C312 1.356 . S
N310 H322 0.984 . S
N310 H323 0.985 . S
N311 C313 1.356 . S
N311 H316 0.984 . S
N311 H317 0.985 . S
C312 C306 1.379 . S
C312 C309 1.363 . S
C312 N310 1.356 . S
C313 C307 1.363 . S
C313 C308 1.379 . S
C313 N311 1.356 . S
N314 C306 1.356 . S
N314 H320 0.984 . S
N314 H321 0.984 . S
N315 C308 1.356 . S
N315 H318 0.984 . S
N315 H319 0.985 . S
H316 N311 0.984 . S
H317 N311 0.985 . S
H318 N315 0.984 . S
H319 N315 0.985 . S
H320 N314 0.984 . S
H321 N314 0.984 . S
H322 N310 0.984 . S
H323 N310 0.985 . S
C324 C325 1.363 . S
C324 C330 1.379 . S
C324 N332 1.356 . S
C325 C324 1.363 . S
C325 C331 1.363 . S
C326 C327 1.363 . S
C326 C331 1.379 . S
C326 N333 1.356 . S
C327 C326 1.363 . S
C327 C330 1.363 . S
N328 C330 1.356 1_565 S
N328 H340 0.984 . S
N328 H341 0.985 . S
N329 C331 1.356 . S
N329 H334 0.984 . S
N329 H335 0.985 . S
C330 C324 1.379 . S
C330 C327 1.363 . S
C330 N328 1.356 1_545 S
C331 C325 1.363 . S
C331 C326 1.379 . S
C331 N329 1.356 . S
N332 C324 1.356 . S
N332 H338 0.984 . S
N332 H339 0.984 . S
N333 C326 1.356 . S
N333 H336 0.984 1_545 S
N333 H337 0.985 . S
H334 N329 0.984 . S
H335 N329 0.985 . S
H336 N333 0.984 1_565 S
H337 N333 0.985 . S
H338 N332 0.984 . S
H339 N332 0.984 . S
H340 N328 0.984 . S
H341 N328 0.985 . S
C342 C343 1.363 . S
C342 C348 1.379 . S
C342 N350 1.356 . S
C343 C342 1.363 . S
C343 C349 1.363 . S
C344 C345 1.363 . S
C344 C349 1.379 . S
C344 N351 1.356 . S
C345 C344 1.363 . S
C345 C348 1.363 . S
N346 C348 1.356 . S
N346 H358 0.984 . S
N346 H359 0.985 . S
N347 C349 1.356 1_455 S
N347 H352 0.984 . S
N347 H353 0.985 . S
C348 C342 1.379 . S
C348 C345 1.363 . S
C348 N346 1.356 . S
C349 C343 1.363 . S
C349 C344 1.379 . S
C349 N347 1.356 1_655 S
N350 C342 1.356 . S
N350 H356 0.984 . S
N350 H357 0.984 1_655 S
N351 C344 1.356 . S
N351 H354 0.984 . S
N351 H355 0.985 . S
H352 N347 0.984 . S
H353 N347 0.985 . S
H354 N351 0.984 . S
H355 N351 0.985 . S
H356 N350 0.984 . S
H357 N350 0.984 1_455 S
H358 N346 0.984 . S
H359 N346 0.985 . S
C360 C361 1.363 . S
C360 C366 1.379 1_565 S
C360 N368 1.356 . S
C361 C360 1.363 . S
C361 C367 1.363 . S
C362 C363 1.363 . S
C362 C367 1.379 1_545 S
C362 N369 1.356 . S
C363 C362 1.363 . S
C363 C366 1.363 . S
N364 C366 1.356 . S
N364 H376 0.984 . S
N364 H377 0.985 . S
N365 C367 1.356 . S
N365 H370 0.984 . S
N365 H371 0.985 . S
C366 C360 1.379 1_545 S
C366 C363 1.363 . S
C366 N364 1.356 . S
C367 C361 1.363 . S
C367 C362 1.379 1_565 S
C367 N365 1.356 . S
N368 C360 1.356 . S
N368 H374 0.984 . S
N368 H375 0.984 . S
N369 C362 1.356 . S
N369 H372 0.984 . S
N369 H373 0.985 . S
H370 N365 0.984 . S
H371 N365 0.985 . S
H372 N369 0.984 . S
H373 N369 0.985 . S
H374 N368 0.984 . S
H375 N368 0.984 . S
H376 N364 0.984 . S
H377 N364 0.985 . S
C378 C379 1.363 1_554 S
C378 C384 1.379 1_655 S
C378 N386 1.356 . S
C379 C378 1.363 1_556 S
C379 C385 1.363 1_655 S
C380 C381 1.363 1_556 S
C380 C385 1.379 . S
C380 N387 1.356 . S
C381 C380 1.363 1_554 S
C381 C384 1.363 . S
N382 C384 1.356 . S
N382 H394 0.984 1_455 S
N382 H395 0.985 . S
N383 C385 1.356 1_655 S
N383 H388 0.984 . S
N383 H389 0.985 1_655 S
C384 C378 1.379 1_455 S
C384 C381 1.363 . S
C384 N382 1.356 . S
C385 C379 1.363 1_455 S
C385 C380 1.379 . S
C385 N383 1.356 1_455 S
N386 C378 1.356 . S
N386 H392 0.984 . S
N386 H393 0.984 1_554 S
N387 C380 1.356 . S
N387 H390 0.984 1_556 S
N387 H391 0.985 . S
H388 N383 0.984 . S
H389 N383 0.985 1_455 S
H390 N387 0.984 1_554 S
H391 N387 0.985 . S
H392 N386 0.984 . S
H393 N386 0.984 1_556 S
H394 N382 0.984 1_655 S
H395 N382 0.985 . S
C396 C397 1.363 . S
C396 C402 1.379 . S
C396 N404 1.356 . S
C397 C396 1.363 . S
C397 C403 1.363 . S
C398 C399 1.363 . S
C398 C403 1.379 . S
C398 N405 1.356 . S
C399 C398 1.363 . S
C399 C402 1.363 . S
N400 C402 1.356 . S
N400 H412 0.984 . S
N400 H413 0.985 . S
N401 C403 1.356 . S
N401 H406 0.984 . S
N401 H407 0.985 . S
C402 C396 1.379 . S
C402 C399 1.363 . S
C402 N400 1.356 . S
C403 C397 1.363 . S
C403 C398 1.379 . S
C403 N401 1.356 . S
N404 C396 1.356 . S
N404 H410 0.984 . S
N404 H411 0.984 . S
N405 C398 1.356 . S
N405 H408 0.984 . S
N405 H409 0.985 . S
H406 N401 0.984 . S
H407 N401 0.985 . S
H408 N405 0.984 . S
H409 N405 0.985 . S
H410 N404 0.984 . S
H411 N404 0.984 . S
H412 N400 0.984 . S
H413 N400 0.985 . S
C414 C415 1.363 . S
C414 C420 1.379 1_455 S
C414 N422 1.356 . S
C415 C414 1.363 . S
C415 C421 1.363 . S
C416 C417 1.363 . S
C416 C421 1.379 1_655 S
C416 N423 1.356 . S
C417 C416 1.363 . S
C417 C420 1.363 . S
N418 C420 1.356 . S
N418 H430 0.984 . S
N418 H431 0.985 . S
N419 C421 1.356 . S
N419 H424 0.984 . S
N419 H425 0.985 . S
C420 C414 1.379 1_655 S
C420 C417 1.363 . S
C420 N418 1.356 . S
C421 C415 1.363 . S
C421 C416 1.379 1_455 S
C421 N419 1.356 . S
N422 C414 1.356 . S
N422 H428 0.984 . S
N422 H429 0.984 . S
N423 C416 1.356 . S
N423 H426 0.984 . S
N423 H427 0.985 . S
H424 N419 0.984 . S
H425 N419 0.985 . S
H426 N423 0.984 . S
H427 N423 0.985 . S
H428 N422 0.984 . S
H429 N422 0.984 . S
H430 N418 0.984 . S
H431 N418 0.985 . S
C432 C433 1.363 . S
C432 C438 1.379 . S
C432 N440 1.356 . S
C433 C432 1.363 . S
C433 C439 1.363 . S
C434 C435 1.363 . S
C434 C439 1.379 . S
C434 N441 1.356 . S
C435 C434 1.363 . S
C435 C438 1.363 . S
N436 C438 1.356 . S
N436 H448 0.984 . S
N436 H449 0.985 . S
N437 C439 1.356 . S
N437 H442 0.984 . S
N437 H443 0.985 . S
C438 C432 1.379 . S
C438 C435 1.363 . S
C438 N436 1.356 . S
C439 C433 1.363 . S
C439 C434 1.379 . S
C439 N437 1.356 . S
N440 C432 1.356 . S
N440 H446 0.984 . S
N440 H447 0.984 . S
N441 C434 1.356 . S
N441 H444 0.984 . S
N441 H445 0.985 . S
H442 N437 0.984 . S
H443 N437 0.985 . S
H444 N441 0.984 . S
H445 N441 0.985 . S
H446 N440 0.984 . S
H447 N440 0.984 . S
H448 N436 0.984 . S
H449 N436 0.985 . S
C450 C451 1.363 1_554 S
C450 C456 1.379 . S
C450 N458 1.356 . S
C451 C450 1.363 1_556 S
C451 C457 1.363 1_545 S
C452 C453 1.363 1_556 S
C452 C457 1.379 . S
C452 N459 1.356 . S
C453 C452 1.363 1_554 S
C453 C456 1.363 1_565 S
N454 C456 1.356 1_565 S
N454 H466 0.984 1_565 S
N454 H467 0.985 . S
N455 C457 1.356 1_545 S
N455 H460 0.984 . S
N455 H461 0.985 1_545 S
C456 C450 1.379 . S
C456 C453 1.363 1_545 S
C456 N454 1.356 1_545 S
C457 C451 1.363 1_565 S
C457 C452 1.379 . S
C457 N455 1.356 1_565 S
N458 C450 1.356 . S
N458 H464 0.984 . S
N458 H465 0.984 1_554 S
N459 C452 1.356 . S
N459 H462 0.984 1_556 S
N459 H463 0.985 . S
H460 N455 0.984 . S
H461 N455 0.985 1_565 S
H462 N459 0.984 1_554 S
H463 N459 0.985 . S
H464 N458 0.984 . S
H465 N458 0.984 1_556 S
H466 N454 0.984 1_545 S
H467 N454 0.985 . S
C199 C8 1.562 . S
C201 C173 1.562 . S
C217 C107 1.562 . S
C219 C41 1.562 . S
C235 C140 1.562 . S
C237 C74 1.562 . S
C253 C182 1.212 . S
C255 N5 1.201 . S
C271 C116 1.212 . S
C273 N38 1.201 1_565 S
C289 N71 1.201 1_455 S
C291 C149 1.212 . S
C307 C50 1.212 . S
C309 N104 1.201 . S
C325 C83 1.212 . S
C327 N137 1.201 1_545 S
C343 N170 1.201 1_655 S
C345 C17 1.212 . S
C361 C160 1.681 . S
C363 N14 1.665 . S
C379 N47 1.665 . S
C381 C193 1.681 . S
C397 C127 1.681 . S
C399 N80 1.664 . S
C415 N113 1.665 . S
C417 C94 1.681 . S
C433 C28 1.681 . S
C435 N146 1.664 . S
C451 C61 1.681 . S
C453 N179 1.665 . S
