# Generated by pormake.
# Topology dia, (4)-cn, num edge types: 1
# Building blocks:
#     Node 0, Type 0, BuildingBlock: NAHDIM_clean_sbu_0, # of connection points: 4
#     Node 1, Type 0, BuildingBlock: NAHDIM_clean_sbu_0, # of connection points: 4
#     Node 2, Type 0, BuildingBlock: NAHDIM_clean_sbu_0, # of connection points: 4
#     Node 3, Type 0, BuildingBlock: NAHDIM_clean_sbu_0, # of connection points: 4
#     Node 4, Type 0, BuildingBlock: NAHDIM_clean_sbu_0, # of connection points: 4
#     Node 5, Type 0, BuildingBlock: NAHDIM_clean_sbu_0, # of connection points: 4
#     Node 6, Type 0, BuildingBlock: NAHDIM_clean_sbu_0, # of connection points: 4
#     Node 7, Type 0, BuildingBlock: NAHDIM_clean_sbu_0, # of connection points: 4
#     Edge 8, Type (0, 0), BuildingBlock: EZIPEK_clean_linker_0, # of connection points: 2
#     Edge 9, Type (0, 0), BuildingBlock: EZIPEK_clean_linker_0, # of connection points: 2
#     Edge 10, Type (0, 0), BuildingBlock: EZIPEK_clean_linker_0, # of connection points: 2
#     Edge 11, Type (0, 0), BuildingBlock: EZIPEK_clean_linker_0, # of connection points: 2
#     Edge 12, Type (0, 0), BuildingBlock: EZIPEK_clean_linker_0, # of connection points: 2
#     Edge 13, Type (0, 0), BuildingBlock: EZIPEK_clean_linker_0, # of connection points: 2
#     Edge 14, Type (0, 0), BuildingBlock: EZIPEK_clean_linker_0, # of connection points: 2
#     Edge 15, Type (0, 0), BuildingBlock: EZIPEK_clean_linker_0, # of connection points: 2
#     Edge 16, Type (0, 0), BuildingBlock: EZIPEK_clean_linker_0, # of connection points: 2
#     Edge 17, Type (0, 0), BuildingBlock: EZIPEK_clean_linker_0, # of connection points: 2
#     Edge 18, Type (0, 0), BuildingBlock: EZIPEK_clean_linker_0, # of connection points: 2
#     Edge 19, Type (0, 0), BuildingBlock: EZIPEK_clean_linker_0, # of connection points: 2
#     Edge 20, Type (0, 0), BuildingBlock: EZIPEK_clean_linker_0, # of connection points: 2
#     Edge 21, Type (0, 0), BuildingBlock: EZIPEK_clean_linker_0, # of connection points: 2
#     Edge 22, Type (0, 0), BuildingBlock: EZIPEK_clean_linker_0, # of connection points: 2
#     Edge 23, Type (0, 0), BuildingBlock: EZIPEK_clean_linker_0, # of connection points: 2
# Relax obj value: 0.005
# Max RMSD: 0.032
# Mean RMSD: 0.032
data_MOF--net-dia--node1-NAHDIM_clean_sbu_0--edge1-EZIPEK_clean_linker_0
_symmetry_space_group_name_H-M    P1
_symmetry_Int_Tables_number       1
_symmetry_cell_setting            triclinic
loop_
_symmetry_equiv_pos_as_xyz
'x, y, z'
_cell_length_a     27.57337
_cell_length_b     25.028215
_cell_length_c     25.053285
_cell_angle_alpha  88.598788
_cell_angle_beta   94.410854
_cell_angle_gamma 94.341578
loop_
_atom_site_label
_atom_site_type_symbol
_atom_site_fract_x
_atom_site_fract_y
_atom_site_fract_z
_atom_type_partial_charge
C0 C 0.06221 0.17043 0.70424 0.0
O1 O 0.05373 0.11817 0.70178 0.0
O2 O 0.17566 0.10317 0.67308 0.0
Zn3 Zn 0.13207 0.15176 0.6286 0.0
O4 O 0.08322 0.11065 0.57799 0.0
C5 C 0.21423 0.19039 0.57012 0.0
O6 O 0.22937 0.14291 0.58282 0.0
O7 O 0.09476 0.19393 0.67691 0.0
C8 C 0.09389 0.07113 0.55147 0.0
O9 O 0.13842 0.05547 0.55691 0.0
C10 C 0.16227 0.05582 0.68804 0.0
O11 O 0.11764 0.03578 0.67528 0.0
O12 O 0.1738 0.20322 0.58525 0.0
C13 C 0.94847 0.29397 0.83436 0.0
O14 O 0.95848 0.29545 0.88643 0.0
O15 O 0.82965 0.3157 0.89931 0.0
Zn16 Zn 0.87546 0.3645 0.85781 0.0
O17 O 0.92246 0.40718 0.90921 0.0
C18 C 0.7946 0.42642 0.82154 0.0
O19 O 0.77842 0.40996 0.86755 0.0
O20 O 0.91416 0.32021 0.81282 0.0
C21 C 0.91296 0.4513 0.92858 0.0
O22 O 0.87099 0.47121 0.91491 0.0
C23 C 0.84302 0.29516 0.94444 0.0
O24 O 0.88797 0.30532 0.96492 0.0
O25 O 0.83571 0.41294 0.8089 0.0
C26 C 0.55783 0.17183 0.20169 0.0
O27 O 0.54243 0.12094 0.19871 0.0
O28 O 0.67271 0.09643 0.18772 0.0
Zn29 Zn 0.63063 0.13902 0.13572 0.0
O30 O 0.58146 0.09007 0.09256 0.0
C31 C 0.70562 0.16143 0.0621 0.0
O32 O 0.7078 0.10917 0.06427 0.0
O33 O 0.59501 0.18911 0.17769 0.0
C34 C 0.56897 0.09988 0.04362 0.0
O35 O 0.58888 0.14229 0.01953 0.0
C36 C 0.67931 0.04746 0.18084 0.0
O37 O 0.65751 0.02247 0.13911 0.0
O38 O 0.67471 0.18294 0.08817 0.0
C39 C 0.91052 0.78859 0.29973 0.0
O40 O 0.86324 0.77745 0.29177 0.0
O41 O 0.83677 0.82195 0.40983 0.0
Zn42 Zn 0.88358 0.87045 0.36968 0.0
O43 O 0.92721 0.91604 0.42138 0.0
C44 C 0.8063 0.93496 0.33222 0.0
O45 O 0.79421 0.92642 0.38158 0.0
O46 O 0.9269 0.82635 0.33058 0.0
C47 C 0.94997 0.95877 0.40541 0.0
O48 O 0.94292 0.97464 0.35523 0.0
C49 C 0.85045 0.79588 0.45172 0.0
O50 O 0.89662 0.79968 0.46958 0.0
O51 O 0.84439 0.91582 0.31739 0.0
C52 C 0.04933 0.66775 0.20084 0.0
O53 O 0.05515 0.6179 0.21598 0.0
O54 O 0.15506 0.59856 0.17759 0.0
Zn55 Zn 0.11833 0.64597 0.12475 0.0
O56 O 0.07644 0.60288 0.06907 0.0
C57 C 0.18484 0.68482 0.04581 0.0
O58 O 0.17029 0.63941 0.02237 0.0
O59 O 0.07345 0.68894 0.16351 0.0
C60 C 0.05181 0.56022 0.08203 0.0
O61 O 0.05536 0.54247 0.13179 0.0
C62 C 0.18114 0.56322 0.16178 0.0
O63 O 0.18355 0.55627 0.11031 0.0
O64 O 0.1673 0.6964 0.08919 0.0
C65 C 0.4594 0.31629 0.3266 0.0
O66 O 0.47861 0.3313 0.37398 0.0
O67 O 0.33883 0.33155 0.39786 0.0
Zn68 Zn 0.38167 0.38023 0.35246 0.0
O69 O 0.43026 0.42758 0.39884 0.0
C70 C 0.30186 0.44444 0.31427 0.0
O71 O 0.28891 0.43765 0.36346 0.0
O72 O 0.41856 0.3326 0.30889 0.0
C73 C 0.42349 0.4753 0.41121 0.0
O74 O 0.38266 0.49621 0.3946 0.0
C75 C 0.3312 0.34148 0.44588 0.0
O76 O 0.35116 0.38562 0.46804 0.0
O77 O 0.34 0.4243 0.30086 0.0
C78 C 0.45042 0.80751 0.83187 0.0
O79 O 0.46194 0.80948 0.88368 0.0
O80 O 0.33597 0.82469 0.90225 0.0
Zn81 Zn 0.37861 0.87629 0.8598 0.0
O82 O 0.4276 0.92002 0.90849 0.0
C83 C 0.28968 0.91994 0.81386 0.0
O84 O 0.26849 0.88121 0.84203 0.0
O85 O 0.41548 0.83348 0.81141 0.0
C86 C 0.42104 0.96768 0.92116 0.0
O87 O 0.38057 0.98914 0.90395 0.0
C88 C 0.32823 0.83107 0.95093 0.0
O89 O 0.35006 0.87203 0.97715 0.0
O90 O 0.33599 0.92561 0.81494 0.0
C91 C 0.5598 0.67451 0.70621 0.0
O92 O 0.55412 0.62226 0.71296 0.0
O93 O 0.66622 0.59949 0.68502 0.0
Zn94 Zn 0.62725 0.64495 0.6325 0.0
O95 O 0.57937 0.59776 0.58598 0.0
C96 C 0.70557 0.66644 0.56299 0.0
O97 O 0.70542 0.61396 0.5636 0.0
O98 O 0.58952 0.69431 0.67336 0.0
C99 C 0.57003 0.60701 0.53629 0.0
O100 O 0.59224 0.64851 0.513 0.0
C101 C 0.6733 0.55125 0.67509 0.0
O102 O 0.65383 0.52961 0.63047 0.0
O103 O 0.67472 0.68884 0.58845 0.0
C104 C 0.25215 0.28751 0.45912 0.0
C105 C 0.30125 0.30243 0.47737 0.0
C106 C 0.2917 0.24733 0.55871 0.0
C107 C 0.24418 0.2288 0.53818 0.0
N108 N 0.18244 0.2231 0.46446 0.0
N109 N 0.37095 0.28808 0.53904 0.0
C110 C 0.22525 0.24663 0.48713 0.0
C111 C 0.32195 0.28005 0.52572 0.0
N112 N 0.23051 0.31382 0.41629 0.0
N113 N 0.30734 0.23533 0.61043 0.0
H114 H 0.39466 0.31072 0.51536 0.0
H115 H 0.38887 0.26807 0.57079 0.0
H116 H 0.28612 0.21191 0.63611 0.0
H117 H 0.33948 0.25259 0.62939 0.0
H118 H 0.19335 0.30882 0.40486 0.0
H119 H 0.24876 0.34434 0.395 0.0
H120 H 0.1696 0.23028 0.42494 0.0
H121 H 0.16188 0.1926 0.48342 0.0
C122 C 0.75384 0.53797 0.7258 0.0
C123 C 0.70435 0.51982 0.71301 0.0
C124 C 0.71611 0.43777 0.76628 0.0
C125 C 0.76395 0.45847 0.78366 0.0
N126 N 0.82562 0.53239 0.78715 0.0
N127 N 0.63567 0.45742 0.72888 0.0
C128 C 0.78215 0.50972 0.76536 0.0
C129 C 0.6847 0.47106 0.73541 0.0
N130 N 0.77446 0.58086 0.69863 0.0
N131 N 0.70133 0.38552 0.77719 0.0
H132 H 0.61126 0.48116 0.70727 0.0
H133 H 0.6186 0.42528 0.74912 0.0
H134 H 0.72365 0.35921 0.79835 0.0
H135 H 0.6688 0.36675 0.76069 0.0
H136 H 0.81168 0.59219 0.70209 0.0
H137 H 0.75528 0.60227 0.66883 0.0
H138 H 0.83802 0.57203 0.77975 0.0
H139 H 0.84741 0.51328 0.81641 0.0
C140 C 0.54433 0.03657 0.96873 0.0
C141 C 0.53162 0.06406 0.01387 0.0
C142 C 0.44828 0.02206 0.00246 0.0
C143 C 0.4595 0.99963 0.95377 0.0
N144 N 0.51613 0.99306 0.88563 0.0
N145 N 0.4698 0.0899 0.06928 0.0
C146 C 0.50705 0.00871 0.9356 0.0
C147 C 0.48315 0.05858 0.02971 0.0
N148 N 0.59224 0.03564 0.95847 0.0
N149 N 0.40499 0.00704 0.02369 0.0
H150 H 0.49407 0.11756 0.08989 0.0
H151 H 0.43379 0.09195 0.07845 0.0
H152 H 0.37877 0.97981 0.00537 0.0
H153 H 0.397 0.01758 0.06183 0.0
H154 H 0.60419 0.01164 0.92948 0.0
H155 H 0.62061 0.05482 0.98242 0.0
H156 H 0.5486 0.00379 0.86812 0.0
H157 H 0.48969 0.97365 0.85942 0.0
C158 C 0.98054 0.72984 0.30675 0.0
C159 C 0.94501 0.75641 0.27423 0.0
C160 C 0.97449 0.71958 0.19398 0.0
C161 C 0.01355 0.69843 0.22603 0.0
N162 N 0.0588 0.69146 0.31199 0.0
N163 N 0.91332 0.78438 0.18628 0.0
C164 C 0.01796 0.70568 0.28223 0.0
C165 C 0.94327 0.75336 0.21762 0.0
N166 N 0.97747 0.72581 0.36093 0.0
N167 N 0.96592 0.70569 0.14146 0.0
H168 H 0.89039 0.8103 0.20194 0.0
H169 H 0.91452 0.78814 0.14489 0.0
H170 H 0.98729 0.68021 0.12276 0.0
H171 H 0.93487 0.71522 0.11787 0.0
H172 H 0.99935 0.70214 0.38593 0.0
H173 H 0.94984 0.7417 0.38037 0.0
H174 H 0.0663 0.7011 0.35214 0.0
H175 H 0.08753 0.67458 0.29544 0.0
C176 C 0.26177 0.96145 0.72547 0.0
C177 C 0.25935 0.95733 0.78184 0.0
C178 C 0.19237 0.01696 0.77643 0.0
C179 C 0.19674 0.02346 0.72057 0.0
N180 N 0.24061 0.00981 0.64297 0.0
N181 N 0.22982 0.98938 0.86247 0.0
C182 C 0.2332 0.99834 0.69547 0.0
C183 C 0.22663 0.98732 0.80779 0.0
N184 N 0.28923 0.928 0.70019 0.0
N185 N 0.15525 0.03881 0.79946 0.0
H186 H 0.25536 0.96942 0.88675 0.0
H187 H 0.21046 0.01476 0.88373 0.0
H188 H 0.13099 0.06313 0.77839 0.0
H189 H 0.14653 0.03014 0.8386 0.0
H190 H 0.28813 0.92482 0.65875 0.0
H191 H 0.31011 0.89981 0.72049 0.0
H192 H 0.27021 0.9977 0.62414 0.0
H193 H 0.21925 0.03502 0.61913 0.0
C194 C 0.99724 0.49285 0.95411 0.0
C195 C 0.94863 0.47944 0.96757 0.0
C196 C 0.96659 0.52497 0.05304 0.0
C197 C 0.01645 0.53286 0.04227 0.0
N198 N 0.08107 0.51584 0.98663 0.0
N199 N 0.88993 0.47287 0.03468 0.0
C200 C 0.03235 0.51451 0.99387 0.0
C201 C 0.93404 0.49279 0.01838 0.0
N202 N 0.00948 0.48701 0.90283 0.0
N203 N 0.94974 0.55004 0.09507 0.0
H204 H 0.8654 0.44787 0.01122 0.0
H205 H 0.8798 0.47667 0.07355 0.0
H206 H 0.97197 0.57535 0.12062 0.0
H207 H 0.91281 0.55016 0.10125 0.0
H208 H 0.04299 0.50133 0.88951 0.0
H209 H 0.98459 0.47262 0.87212 0.0
H210 H 0.09494 0.49775 0.95464 0.0
H211 H 0.108 0.53058 0.01514 0.0
C212 C 0.49749 0.2293 0.31702 0.0
C213 C 0.48457 0.27936 0.29454 0.0
C214 C 0.51455 0.25586 0.20915 0.0
C215 C 0.53247 0.20874 0.23354 0.0
N216 N 0.54975 0.1562 0.31398 0.0
N217 N 0.48949 0.34491 0.22242 0.0
C218 C 0.52636 0.19693 0.28842 0.0
C219 C 0.49546 0.29397 0.24143 0.0
N220 N 0.48049 0.21147 0.36462 0.0
N221 N 0.51389 0.2633 0.15486 0.0
H222 H 0.47681 0.37451 0.2452 0.0
H223 H 0.50167 0.35929 0.18605 0.0
H224 H 0.52633 0.2357 0.12955 0.0
H225 H 0.49657 0.29416 0.13443 0.0
H226 H 0.48459 0.17287 0.37995 0.0
H227 H 0.45797 0.23311 0.38618 0.0
H228 H 0.55067 0.14956 0.35525 0.0
H229 H 0.57236 0.13237 0.29496 0.0
C230 C 0.80734 0.77242 0.53484 0.0
C231 C 0.81415 0.76202 0.48059 0.0
C232 C 0.74651 0.69244 0.479 0.0
C233 C 0.74285 0.69935 0.53457 0.0
N234 N 0.77682 0.73796 0.61794 0.0
N235 N 0.79693 0.70511 0.40404 0.0
C236 C 0.77522 0.73716 0.56328 0.0
C237 C 0.78559 0.72004 0.45344 0.0
N238 N 0.82992 0.81719 0.55866 0.0
N239 N 0.71162 0.66118 0.4501 0.0
H240 H 0.82601 0.7235 0.3845 0.0
H241 H 0.78063 0.67119 0.38476 0.0
H242 H 0.68198 0.64099 0.46713 0.0
H243 H 0.70953 0.65929 0.40849 0.0
H244 H 0.82208 0.82978 0.59618 0.0
H245 H 0.85304 0.84468 0.53901 0.0
H246 H 0.80331 0.76074 0.64117 0.0
H247 H 0.75479 0.71195 0.64052 0.0
C248 C 0.26262 0.54837 0.20884 0.0
C249 C 0.21197 0.53319 0.20109 0.0
C250 C 0.22159 0.45682 0.2631 0.0
C251 C 0.27141 0.47449 0.27436 0.0
N252 N 0.33809 0.5413 0.26404 0.0
N253 N 0.14142 0.47826 0.22616 0.0
C254 C 0.29175 0.52124 0.24861 0.0
C255 C 0.19088 0.48909 0.22999 0.0
N256 N 0.28289 0.58881 0.17815 0.0
N257 N 0.20422 0.40778 0.28172 0.0
H258 H 0.11791 0.49987 0.20095 0.0
H259 H 0.12337 0.45064 0.25091 0.0
H260 H 0.22598 0.38207 0.30447 0.0
H261 H 0.16968 0.39017 0.27032 0.0
H262 H 0.32034 0.59725 0.17679 0.0
H263 H 0.26228 0.61223 0.15146 0.0
H264 H 0.35302 0.57848 0.25139 0.0
H265 H 0.36068 0.52284 0.29297 0.0
C266 C 0.80004 0.27322 0.02789 0.0
C267 C 0.80777 0.26083 0.97436 0.0
C268 C 0.74451 0.18662 0.97657 0.0
C269 C 0.7408 0.19543 0.03181 0.0
N270 N 0.77329 0.2397 0.11291 0.0
N271 N 0.79445 0.19896 0.90124 0.0
C272 C 0.77087 0.23668 0.05834 0.0
C273 C 0.78194 0.21564 0.94956 0.0
N274 N 0.81877 0.32092 0.04908 0.0
N275 N 0.7112 0.15211 0.94932 0.0
H276 H 0.82263 0.21805 0.8808 0.0
H277 H 0.7802 0.1631 0.88403 0.0
H278 H 0.68258 0.131 0.96738 0.0
H279 H 0.70912 0.14843 0.90786 0.0
H280 H 0.80994 0.33425 0.08595 0.0
H281 H 0.83903 0.34972 0.02764 0.0
H282 H 0.79844 0.26559 0.13454 0.0
H283 H 0.75384 0.21263 0.13707 0.0
C284 C 0.72516 0.94295 0.28134 0.0
C285 C 0.77401 0.96382 0.2933 0.0
C286 C 0.76197 0.03676 0.2276 0.0
C287 C 0.71189 0.01881 0.2196 0.0
N288 N 0.64361 0.96081 0.24602 0.0
N289 N 0.83671 0.0355 0.28505 0.0
C290 C 0.69283 0.9735 0.24842 0.0
C291 C 0.79189 0.01208 0.26835 0.0
N292 N 0.71012 0.89294 0.29962 0.0
N293 N 0.7814 0.07605 0.19499 0.0
H294 H 0.85937 0.01905 0.31535 0.0
H295 H 0.84954 0.07358 0.27244 0.0
H296 H 0.76085 0.09492 0.16441 0.0
H297 H 0.81867 0.08664 0.19505 0.0
H298 H 0.67657 0.87335 0.28741 0.0
H299 H 0.73288 0.86875 0.32303 0.0
H300 H 0.62719 0.93187 0.27074 0.0
H301 H 0.61861 0.98257 0.22287 0.0
C302 C 0.97325 0.00376 0.49335 0.0
C303 C 0.98633 0.98868 0.44243 0.0
C304 C 0.06734 0.03474 0.46047 0.0
C305 C 0.0565 0.04343 0.5139 0.0
N306 N 0.0017 0.02634 0.5843 0.0
N307 N 0.04995 0.97941 0.3827 0.0
C308 C 0.0101 0.02532 0.53128 0.0
C309 C 0.03451 0.00132 0.4273 0.0
N310 N 0.92546 0.99937 0.50494 0.0
N311 N 0.10793 0.06007 0.44048 0.0
H312 H 0.028 0.95261 0.35847 0.0
H313 H 0.08618 0.98323 0.37313 0.0
H314 H 0.13193 0.08681 0.46258 0.0
H315 H 0.11478 0.05911 0.40019 0.0
H316 H 0.91346 0.01485 0.53943 0.0
H317 H 0.89712 0.98537 0.47769 0.0
H318 H 0.97019 0.00854 0.59965 0.0
H319 H 0.02809 0.03992 0.61386 0.0
C320 C 0.95377 0.22295 0.76629 0.0
C321 C 0.97752 0.26241 0.80094 0.0
C322 C 0.05697 0.23693 0.77672 0.0
C323 C 0.0331 0.20195 0.73764 0.0
N324 N 0.95854 0.17017 0.6875 0.0
N325 N 0.05145 0.31475 0.83073 0.0
C326 C 0.98138 0.19723 0.73025 0.0
C327 C 0.02909 0.27159 0.80389 0.0
N328 N 0.90524 0.20834 0.76921 0.0
N329 N 0.10597 0.23561 0.78954 0.0
H330 H 0.03232 0.3422 0.84977 0.0
H331 H 0.08843 0.32638 0.82943 0.0
H332 H 0.12756 0.20973 0.7717 0.0
H333 H 0.12421 0.25627 0.82163 0.0
H334 H 0.88735 0.17588 0.74881 0.0
H335 H 0.88387 0.22507 0.79607 0.0
H336 H 0.92122 0.17031 0.67719 0.0
H337 H 0.97735 0.15213 0.65909 0.0
C338 C 0.47996 0.70306 0.73339 0.0
C339 C 0.5317 0.70995 0.73684 0.0
C340 C 0.52915 0.78593 0.79637 0.0
C341 C 0.47801 0.77494 0.79782 0.0
N342 N 0.40563 0.71718 0.77493 0.0
N343 N 0.60619 0.75185 0.77912 0.0
C344 C 0.45356 0.732 0.76816 0.0
C345 C 0.55655 0.74988 0.77023 0.0
N346 N 0.45585 0.6703 0.69561 0.0
N347 N 0.55137 0.83177 0.81843 0.0
H348 H 0.62766 0.72547 0.76182 0.0
H349 H 0.6257 0.77629 0.8076 0.0
H350 H 0.53243 0.85966 0.83714 0.0
H351 H 0.5876 0.84471 0.81363 0.0
H352 H 0.41815 0.66825 0.68737 0.0
H353 H 0.47376 0.64897 0.66887 0.0
H354 H 0.38749 0.6825 0.75892 0.0
H355 H 0.38507 0.73672 0.8006 0.0
C356 C 0.20968 0.77489 0.00612 0.0
C357 C 0.22175 0.72236 0.02187 0.0
C358 C 0.30302 0.74037 0.98867 0.0
C359 C 0.29219 0.79408 0.97669 0.0
N360 N 0.23766 0.86492 0.97885 0.0
N361 N 0.28187 0.6572 0.03594 0.0
C362 C 0.24633 0.81216 0.98721 0.0
C363 C 0.2689 0.70553 0.01503 0.0
N364 N 0.16248 0.78821 0.00641 0.0
N365 N 0.34587 0.72255 0.97455 0.0
H366 H 0.25801 0.63045 0.05543 0.0
H367 H 0.31731 0.64522 0.03793 0.0
H368 H 0.37313 0.74758 0.95824 0.0
H369 H 0.3533 0.68236 0.97593 0.0
H370 H 0.15006 0.82369 0.98988 0.0
H371 H 0.13436 0.76176 0.01893 0.0
H372 H 0.20747 0.88198 0.99186 0.0
H373 H 0.2622 0.89286 0.96183 0.0
C374 C 0.50957 0.51598 0.42711 0.0
C375 C 0.46156 0.50751 0.44413 0.0
C376 C 0.48391 0.56779 0.51924 0.0
C377 C 0.53291 0.57213 0.5051 0.0
N378 N 0.59457 0.54199 0.45209 0.0
N379 N 0.40575 0.51653 0.51256 0.0
C380 C 0.54641 0.54382 0.46086 0.0
C381 C 0.44946 0.53093 0.49197 0.0
N382 N 0.51957 0.49977 0.37766 0.0
N383 N 0.46969 0.60052 0.55713 0.0
H384 H 0.37978 0.48894 0.49444 0.0
H385 H 0.39721 0.52792 0.55023 0.0
H386 H 0.49358 0.62891 0.5772 0.0
H387 H 0.4334 0.60315 0.56497 0.0
H388 H 0.55254 0.51001 0.36098 0.0
H389 H 0.49346 0.48051 0.35098 0.0
H390 H 0.60689 0.51738 0.42385 0.0
H391 H 0.62263 0.56108 0.47654 0.0
loop_
_geom_bond_atom_site_label_1
_geom_bond_atom_site_label_2
_geom_bond_distance
_geom_bond_site_symmetry_2
_ccdc_geom_bond_type
C0 O1 1.160 . S
C0 O7 1.185 . S
O1 C0 1.160 . S
O2 Zn3 1.899 . S
O2 C10 1.284 . S
Zn3 O2 1.899 . S
Zn3 O4 2.032 . S
Zn3 O7 2.086 . S
Zn3 O12 1.977 . S
O4 Zn3 2.032 . S
O4 C8 1.278 . S
C5 O6 1.203 . S
C5 O12 1.267 . S
O6 C5 1.203 . S
O7 C0 1.185 . S
O7 Zn3 2.086 . S
C8 O4 1.278 . S
C8 O9 1.211 . S
O9 C8 1.211 . S
C10 O2 1.284 . S
C10 O11 1.273 . S
O11 C10 1.273 . S
O12 Zn3 1.977 . S
O12 C5 1.267 . S
C13 O14 1.160 . S
C13 O20 1.185 . S
O14 C13 1.160 . S
O15 Zn16 1.899 . S
O15 C23 1.284 . S
Zn16 O15 1.899 . S
Zn16 O17 2.032 . S
Zn16 O20 2.086 . S
Zn16 O25 1.977 . S
O17 Zn16 2.032 . S
O17 C21 1.278 . S
C18 O19 1.203 . S
C18 O25 1.267 . S
O19 C18 1.203 . S
O20 C13 1.185 . S
O20 Zn16 2.086 . S
C21 O17 1.278 . S
C21 O22 1.211 . S
O22 C21 1.211 . S
C23 O15 1.284 . S
C23 O24 1.273 . S
O24 C23 1.273 . S
O25 Zn16 1.977 . S
O25 C18 1.267 . S
C26 O27 1.160 . S
C26 O33 1.185 . S
O27 C26 1.160 . S
O28 Zn29 1.899 . S
O28 C36 1.284 . S
Zn29 O28 1.899 . S
Zn29 O30 2.032 . S
Zn29 O33 2.086 . S
Zn29 O38 1.977 . S
O30 Zn29 2.032 . S
O30 C34 1.278 . S
C31 O32 1.203 . S
C31 O38 1.267 . S
O32 C31 1.203 . S
O33 C26 1.185 . S
O33 Zn29 2.086 . S
C34 O30 1.278 . S
C34 O35 1.211 . S
O35 C34 1.211 . S
C36 O28 1.284 . S
C36 O37 1.273 . S
O37 C36 1.273 . S
O38 Zn29 1.977 . S
O38 C31 1.267 . S
C39 O40 1.160 . S
C39 O46 1.185 . S
O40 C39 1.160 . S
O41 Zn42 1.899 . S
O41 C49 1.284 . S
Zn42 O41 1.899 . S
Zn42 O43 2.032 . S
Zn42 O46 2.086 . S
Zn42 O51 1.977 . S
O43 Zn42 2.032 . S
O43 C47 1.278 . S
C44 O45 1.203 . S
C44 O51 1.267 . S
O45 C44 1.203 . S
O46 C39 1.185 . S
O46 Zn42 2.086 . S
C47 O43 1.278 . S
C47 O48 1.211 . S
O48 C47 1.211 . S
C49 O41 1.284 . S
C49 O50 1.273 . S
O50 C49 1.273 . S
O51 Zn42 1.977 . S
O51 C44 1.267 . S
C52 O53 1.160 . S
C52 O59 1.185 . S
O53 C52 1.160 . S
O54 Zn55 1.899 . S
O54 C62 1.284 . S
Zn55 O54 1.899 . S
Zn55 O56 2.032 . S
Zn55 O59 2.086 . S
Zn55 O64 1.977 . S
O56 Zn55 2.032 . S
O56 C60 1.278 . S
C57 O58 1.203 . S
C57 O64 1.267 . S
O58 C57 1.203 . S
O59 C52 1.185 . S
O59 Zn55 2.086 . S
C60 O56 1.278 . S
C60 O61 1.211 . S
O61 C60 1.211 . S
C62 O54 1.284 . S
C62 O63 1.273 . S
O63 C62 1.273 . S
O64 Zn55 1.977 . S
O64 C57 1.267 . S
C65 O66 1.160 . S
C65 O72 1.185 . S
O66 C65 1.160 . S
O67 Zn68 1.899 . S
O67 C75 1.284 . S
Zn68 O67 1.899 . S
Zn68 O69 2.032 . S
Zn68 O72 2.086 . S
Zn68 O77 1.977 . S
O69 Zn68 2.032 . S
O69 C73 1.278 . S
C70 O71 1.203 . S
C70 O77 1.267 . S
O71 C70 1.203 . S
O72 C65 1.185 . S
O72 Zn68 2.086 . S
C73 O69 1.278 . S
C73 O74 1.211 . S
O74 C73 1.211 . S
C75 O67 1.284 . S
C75 O76 1.273 . S
O76 C75 1.273 . S
O77 Zn68 1.977 . S
O77 C70 1.267 . S
C78 O79 1.160 . S
C78 O85 1.185 . S
O79 C78 1.160 . S
O80 Zn81 1.899 . S
O80 C88 1.284 . S
Zn81 O80 1.899 . S
Zn81 O82 2.032 . S
Zn81 O85 2.086 . S
Zn81 O90 1.977 . S
O82 Zn81 2.032 . S
O82 C86 1.278 . S
C83 O84 1.203 . S
C83 O90 1.267 . S
O84 C83 1.203 . S
O85 C78 1.185 . S
O85 Zn81 2.086 . S
C86 O82 1.278 . S
C86 O87 1.211 . S
O87 C86 1.211 . S
C88 O80 1.284 . S
C88 O89 1.273 . S
O89 C88 1.273 . S
O90 Zn81 1.977 . S
O90 C83 1.267 . S
C91 O92 1.160 . S
C91 O98 1.185 . S
O92 C91 1.160 . S
O93 Zn94 1.899 . S
O93 C101 1.284 . S
Zn94 O93 1.899 . S
Zn94 O95 2.032 . S
Zn94 O98 2.086 . S
Zn94 O103 1.977 . S
O95 Zn94 2.032 . S
O95 C99 1.278 . S
C96 O97 1.203 . S
C96 O103 1.267 . S
O97 C96 1.203 . S
O98 C91 1.185 . S
O98 Zn94 2.086 . S
C99 O95 1.278 . S
C99 O100 1.211 . S
O100 C99 1.211 . S
C101 O93 1.284 . S
C101 O102 1.273 . S
O102 C101 1.273 . S
O103 Zn94 1.977 . S
O103 C96 1.267 . S
C104 C105 1.363 . S
C104 C110 1.379 . S
C104 N112 1.356 . S
C105 C104 1.363 . S
C105 C111 1.363 . S
C106 C107 1.363 . S
C106 C111 1.379 . S
C106 N113 1.356 . S
C107 C106 1.363 . S
C107 C110 1.363 . S
N108 C110 1.356 . S
N108 H120 0.984 . S
N108 H121 0.985 . S
N109 C111 1.356 . S
N109 H114 0.984 . S
N109 H115 0.985 . S
C110 C104 1.379 . S
C110 C107 1.363 . S
C110 N108 1.356 . S
C111 C105 1.363 . S
C111 C106 1.379 . S
C111 N109 1.356 . S
N112 C104 1.356 . S
N112 H118 0.984 . S
N112 H119 0.984 . S
N113 C106 1.356 . S
N113 H116 0.984 . S
N113 H117 0.985 . S
H114 N109 0.984 . S
H115 N109 0.985 . S
H116 N113 0.984 . S
H117 N113 0.985 . S
H118 N112 0.984 . S
H119 N112 0.984 . S
H120 N108 0.984 . S
H121 N108 0.985 . S
C122 C123 1.363 . S
C122 C128 1.379 . S
C122 N130 1.356 . S
C123 C122 1.363 . S
C123 C129 1.363 . S
C124 C125 1.363 . S
C124 C129 1.379 . S
C124 N131 1.356 . S
C125 C124 1.363 . S
C125 C128 1.363 . S
N126 C128 1.356 . S
N126 H138 0.984 . S
N126 H139 0.985 . S
N127 C129 1.356 . S
N127 H132 0.984 . S
N127 H133 0.985 . S
C128 C122 1.379 . S
C128 C125 1.363 . S
C128 N126 1.356 . S
C129 C123 1.363 . S
C129 C124 1.379 . S
C129 N127 1.356 . S
N130 C122 1.356 . S
N130 H136 0.984 . S
N130 H137 0.984 . S
N131 C124 1.356 . S
N131 H134 0.984 . S
N131 H135 0.985 . S
H132 N127 0.984 . S
H133 N127 0.985 . S
H134 N131 0.984 . S
H135 N131 0.985 . S
H136 N130 0.984 . S
H137 N130 0.984 . S
H138 N126 0.984 . S
H139 N126 0.985 . S
C140 C141 1.363 1_565 S
C140 C146 1.379 1_554 S
C140 N148 1.356 . S
C141 C140 1.363 1_545 S
C141 C147 1.363 . S
C142 C143 1.363 1_545 S
C142 C147 1.379 1_556 S
C142 N149 1.356 . S
C143 C142 1.363 1_565 S
C143 C146 1.363 . S
N144 C146 1.356 . S
N144 H156 0.984 . S
N144 H157 0.985 . S
N145 C147 1.356 . S
N145 H150 0.984 . S
N145 H151 0.985 . S
C146 C140 1.379 1_556 S
C146 C143 1.363 . S
C146 N144 1.356 . S
C147 C141 1.363 . S
C147 C142 1.379 1_554 S
C147 N145 1.356 . S
N148 C140 1.356 . S
N148 H154 0.984 . S
N148 H155 0.984 1_565 S
N149 C142 1.356 . S
N149 H152 0.984 1_545 S
N149 H153 0.985 . S
H150 N145 0.984 . S
H151 N145 0.985 . S
H152 N149 0.984 1_565 S
H153 N149 0.985 . S
H154 N148 0.984 . S
H155 N148 0.984 1_545 S
H156 N144 0.984 . S
H157 N144 0.985 . S
C158 C159 1.363 . S
C158 C164 1.379 1_655 S
C158 N166 1.356 . S
C159 C158 1.363 . S
C159 C165 1.363 . S
C160 C161 1.363 . S
C160 C165 1.379 1_455 S
C160 N167 1.356 . S
C161 C160 1.363 . S
C161 C164 1.363 . S
N162 C164 1.356 . S
N162 H174 0.984 . S
N162 H175 0.985 . S
N163 C165 1.356 . S
N163 H168 0.984 . S
N163 H169 0.985 . S
C164 C158 1.379 1_455 S
C164 C161 1.363 . S
C164 N162 1.356 . S
C165 C159 1.363 . S
C165 C160 1.379 1_655 S
C165 N163 1.356 . S
N166 C158 1.356 . S
N166 H172 0.984 . S
N166 H173 0.984 . S
N167 C160 1.356 . S
N167 H170 0.984 . S
N167 H171 0.985 . S
H168 N163 0.984 . S
H169 N163 0.985 . S
H170 N167 0.984 . S
H171 N167 0.985 . S
H172 N166 0.984 . S
H173 N166 0.984 . S
H174 N162 0.984 . S
H175 N162 0.985 . S
C176 C177 1.363 . S
C176 C182 1.379 1_565 S
C176 N184 1.356 . S
C177 C176 1.363 . S
C177 C183 1.363 1_565 S
C178 C179 1.363 . S
C178 C183 1.379 . S
C178 N185 1.356 . S
C179 C178 1.363 . S
C179 C182 1.363 . S
N180 C182 1.356 . S
N180 H192 0.984 1_545 S
N180 H193 0.985 . S
N181 C183 1.356 1_565 S
N181 H186 0.984 . S
N181 H187 0.985 1_565 S
C182 C176 1.379 1_545 S
C182 C179 1.363 . S
C182 N180 1.356 . S
C183 C177 1.363 1_545 S
C183 C178 1.379 . S
C183 N181 1.356 1_545 S
N184 C176 1.356 . S
N184 H190 0.984 . S
N184 H191 0.984 . S
N185 C178 1.356 . S
N185 H188 0.984 . S
N185 H189 0.985 . S
H186 N181 0.984 . S
H187 N181 0.985 1_545 S
H188 N185 0.984 . S
H189 N185 0.985 . S
H190 N184 0.984 . S
H191 N184 0.984 . S
H192 N180 0.984 1_565 S
H193 N180 0.985 . S
C194 C195 1.363 . S
C194 C200 1.379 1_655 S
C194 N202 1.356 . S
C195 C194 1.363 . S
C195 C201 1.363 1_556 S
C196 C197 1.363 . S
C196 C201 1.379 1_455 S
C196 N203 1.356 . S
C197 C196 1.363 . S
C197 C200 1.363 1_554 S
N198 C200 1.356 . S
N198 H210 0.984 . S
N198 H211 0.985 1_556 S
N199 C201 1.356 . S
N199 H204 0.984 1_554 S
N199 H205 0.985 . S
C200 C194 1.379 1_455 S
C200 C197 1.363 1_556 S
C200 N198 1.356 . S
C201 C195 1.363 1_554 S
C201 C196 1.379 1_655 S
C201 N199 1.356 . S
N202 C194 1.356 . S
N202 H208 0.984 . S
N202 H209 0.984 . S
N203 C196 1.356 . S
N203 H206 0.984 . S
N203 H207 0.985 . S
H204 N199 0.984 1_556 S
H205 N199 0.985 . S
H206 N203 0.984 . S
H207 N203 0.985 . S
H208 N202 0.984 . S
H209 N202 0.984 . S
H210 N198 0.984 . S
H211 N198 0.985 1_554 S
C212 C213 1.363 . S
C212 C218 1.379 . S
C212 N220 1.356 . S
C213 C212 1.363 . S
C213 C219 1.363 . S
C214 C215 1.363 . S
C214 C219 1.379 . S
C214 N221 1.356 . S
C215 C214 1.363 . S
C215 C218 1.363 . S
N216 C218 1.356 . S
N216 H228 0.984 . S
N216 H229 0.985 . S
N217 C219 1.356 . S
N217 H222 0.984 . S
N217 H223 0.985 . S
C218 C212 1.379 . S
C218 C215 1.363 . S
C218 N216 1.356 . S
C219 C213 1.363 . S
C219 C214 1.379 . S
C219 N217 1.356 . S
N220 C212 1.356 . S
N220 H226 0.984 . S
N220 H227 0.984 . S
N221 C214 1.356 . S
N221 H224 0.984 . S
N221 H225 0.985 . S
H222 N217 0.984 . S
H223 N217 0.985 . S
H224 N221 0.984 . S
H225 N221 0.985 . S
H226 N220 0.984 . S
H227 N220 0.984 . S
H228 N216 0.984 . S
H229 N216 0.985 . S
C230 C231 1.363 . S
C230 C236 1.379 . S
C230 N238 1.356 . S
C231 C230 1.363 . S
C231 C237 1.363 . S
C232 C233 1.363 . S
C232 C237 1.379 . S
C232 N239 1.356 . S
C233 C232 1.363 . S
C233 C236 1.363 . S
N234 C236 1.356 . S
N234 H246 0.984 . S
N234 H247 0.985 . S
N235 C237 1.356 . S
N235 H240 0.984 . S
N235 H241 0.985 . S
C236 C230 1.379 . S
C236 C233 1.363 . S
C236 N234 1.356 . S
C237 C231 1.363 . S
C237 C232 1.379 . S
C237 N235 1.356 . S
N238 C230 1.356 . S
N238 H244 0.984 . S
N238 H245 0.984 . S
N239 C232 1.356 . S
N239 H242 0.984 . S
N239 H243 0.985 . S
H240 N235 0.984 . S
H241 N235 0.985 . S
H242 N239 0.984 . S
H243 N239 0.985 . S
H244 N238 0.984 . S
H245 N238 0.984 . S
H246 N234 0.984 . S
H247 N234 0.985 . S
C248 C249 1.363 . S
C248 C254 1.379 . S
C248 N256 1.356 . S
C249 C248 1.363 . S
C249 C255 1.363 . S
C250 C251 1.363 . S
C250 C255 1.379 . S
C250 N257 1.356 . S
C251 C250 1.363 . S
C251 C254 1.363 . S
N252 C254 1.356 . S
N252 H264 0.984 . S
N252 H265 0.985 . S
N253 C255 1.356 . S
N253 H258 0.984 . S
N253 H259 0.985 . S
C254 C248 1.379 . S
C254 C251 1.363 . S
C254 N252 1.356 . S
C255 C249 1.363 . S
C255 C250 1.379 . S
C255 N253 1.356 . S
N256 C248 1.356 . S
N256 H262 0.984 . S
N256 H263 0.984 . S
N257 C250 1.356 . S
N257 H260 0.984 . S
N257 H261 0.985 . S
H258 N253 0.984 . S
H259 N253 0.985 . S
H260 N257 0.984 . S
H261 N257 0.985 . S
H262 N256 0.984 . S
H263 N256 0.984 . S
H264 N252 0.984 . S
H265 N252 0.985 . S
C266 C267 1.363 1_554 S
C266 C272 1.379 . S
C266 N274 1.356 . S
C267 C266 1.363 1_556 S
C267 C273 1.363 . S
C268 C269 1.363 1_556 S
C268 C273 1.379 . S
C268 N275 1.356 . S
C269 C268 1.363 1_554 S
C269 C272 1.363 . S
N270 C272 1.356 . S
N270 H282 0.984 . S
N270 H283 0.985 . S
N271 C273 1.356 . S
N271 H276 0.984 . S
N271 H277 0.985 . S
C272 C266 1.379 . S
C272 C269 1.363 . S
C272 N270 1.356 . S
C273 C267 1.363 . S
C273 C268 1.379 . S
C273 N271 1.356 . S
N274 C266 1.356 . S
N274 H280 0.984 . S
N274 H281 0.984 1_554 S
N275 C268 1.356 . S
N275 H278 0.984 1_556 S
N275 H279 0.985 . S
H276 N271 0.984 . S
H277 N271 0.985 . S
H278 N275 0.984 1_554 S
H279 N275 0.985 . S
H280 N274 0.984 . S
H281 N274 0.984 1_556 S
H282 N270 0.984 . S
H283 N270 0.985 . S
C284 C285 1.363 . S
C284 C290 1.379 1_565 S
C284 N292 1.356 . S
C285 C284 1.363 . S
C285 C291 1.363 . S
C286 C287 1.363 . S
C286 C291 1.379 1_545 S
C286 N293 1.356 . S
C287 C286 1.363 . S
C287 C290 1.363 . S
N288 C290 1.356 . S
N288 H300 0.984 . S
N288 H301 0.985 . S
N289 C291 1.356 . S
N289 H294 0.984 . S
N289 H295 0.985 . S
C290 C284 1.379 1_545 S
C290 C287 1.363 . S
C290 N288 1.356 . S
C291 C285 1.363 . S
C291 C286 1.379 1_565 S
C291 N289 1.356 . S
N292 C284 1.356 . S
N292 H298 0.984 . S
N292 H299 0.984 . S
N293 C286 1.356 . S
N293 H296 0.984 . S
N293 H297 0.985 . S
H294 N289 0.984 . S
H295 N289 0.985 . S
H296 N293 0.984 . S
H297 N293 0.985 . S
H298 N292 0.984 . S
H299 N292 0.984 . S
H300 N288 0.984 . S
H301 N288 0.985 . S
C302 C303 1.363 . S
C302 C308 1.382 . S
C302 N310 1.356 . S
C303 C302 1.363 . S
C303 C309 1.363 1_665 S
C304 C305 1.363 . S
C304 C309 1.379 . S
C304 N311 1.356 . S
C305 C304 1.363 . S
C305 C308 1.360 1_445 S
N306 C308 1.355 1_445 S
N306 H318 0.984 1_445 S
N306 H319 0.985 . S
N307 C309 1.356 1_665 S
N307 H312 0.984 . S
N307 H313 0.985 1_665 S
C308 C302 1.382 . S
C308 C305 1.360 1_665 S
C308 N306 1.355 1_665 S
C309 C303 1.363 1_445 S
C309 C304 1.379 . S
C309 N307 1.356 1_445 S
N310 C302 1.356 . S
N310 H316 0.984 . S
N310 H317 0.984 . S
N311 C304 1.356 . S
N311 H314 0.984 . S
N311 H315 0.985 . S
H312 N307 0.984 . S
H313 N307 0.985 1_445 S
H314 N311 0.984 . S
H315 N311 0.985 . S
H316 N310 0.984 . S
H317 N310 0.984 . S
H318 N306 0.984 1_665 S
H319 N306 0.985 . S
C320 C321 1.363 . S
C320 C326 1.379 . S
C320 N328 1.356 . S
C321 C320 1.363 . S
C321 C327 1.363 1_655 S
C322 C323 1.363 . S
C322 C327 1.379 . S
C322 N329 1.356 . S
C323 C322 1.363 . S
C323 C326 1.363 1_455 S
N324 C326 1.356 . S
N324 H336 0.984 . S
N324 H337 0.985 1_655 S
N325 C327 1.356 . S
N325 H330 0.984 1_455 S
N325 H331 0.985 . S
C326 C320 1.379 . S
C326 C323 1.363 1_655 S
C326 N324 1.356 . S
C327 C321 1.363 1_455 S
C327 C322 1.379 . S
C327 N325 1.356 . S
N328 C320 1.356 . S
N328 H334 0.984 . S
N328 H335 0.984 . S
N329 C322 1.356 . S
N329 H332 0.984 . S
N329 H333 0.985 . S
H330 N325 0.984 1_655 S
H331 N325 0.985 . S
H332 N329 0.984 . S
H333 N329 0.985 . S
H334 N328 0.984 . S
H335 N328 0.984 . S
H336 N324 0.984 . S
H337 N324 0.985 1_455 S
C338 C339 1.363 . S
C338 C344 1.379 . S
C338 N346 1.356 . S
C339 C338 1.363 . S
C339 C345 1.363 . S
C340 C341 1.363 . S
C340 C345 1.379 . S
C340 N347 1.356 . S
C341 C340 1.363 . S
C341 C344 1.363 . S
N342 C344 1.356 . S
N342 H354 0.984 . S
N342 H355 0.985 . S
N343 C345 1.356 . S
N343 H348 0.984 . S
N343 H349 0.985 . S
C344 C338 1.379 . S
C344 C341 1.363 . S
C344 N342 1.356 . S
C345 C339 1.363 . S
C345 C340 1.379 . S
C345 N343 1.356 . S
N346 C338 1.356 . S
N346 H352 0.984 . S
N346 H353 0.984 . S
N347 C340 1.356 . S
N347 H350 0.984 . S
N347 H351 0.985 . S
H348 N343 0.984 . S
H349 N343 0.985 . S
H350 N347 0.984 . S
H351 N347 0.985 . S
H352 N346 0.984 . S
H353 N346 0.984 . S
H354 N342 0.984 . S
H355 N342 0.985 . S
C356 C357 1.363 1_556 S
C356 C362 1.379 . S
C356 N364 1.356 1_556 S
C357 C356 1.363 1_554 S
C357 C363 1.363 . S
C358 C359 1.363 . S
C358 C363 1.379 1_556 S
C358 N365 1.356 . S
C359 C358 1.363 . S
C359 C362 1.363 . S
N360 C362 1.356 . S
N360 H372 0.984 . S
N360 H373 0.985 . S
N361 C363 1.356 . S
N361 H366 0.984 . S
N361 H367 0.985 . S
C362 C356 1.379 . S
C362 C359 1.363 . S
C362 N360 1.356 . S
C363 C357 1.363 . S
C363 C358 1.379 1_554 S
C363 N361 1.356 . S
N364 C356 1.356 1_554 S
N364 H370 0.984 1_554 S
N364 H371 0.984 . S
N365 C358 1.356 . S
N365 H368 0.984 . S
N365 H369 0.985 . S
H366 N361 0.984 . S
H367 N361 0.985 . S
H368 N365 0.984 . S
H369 N365 0.985 . S
H370 N364 0.984 1_556 S
H371 N364 0.984 . S
H372 N360 0.984 . S
H373 N360 0.985 . S
C374 C375 1.363 . S
C374 C380 1.379 . S
C374 N382 1.356 . S
C375 C374 1.363 . S
C375 C381 1.363 . S
C376 C377 1.363 . S
C376 C381 1.379 . S
C376 N383 1.356 . S
C377 C376 1.363 . S
C377 C380 1.363 . S
N378 C380 1.356 . S
N378 H390 0.984 . S
N378 H391 0.985 . S
N379 C381 1.356 . S
N379 H384 0.984 . S
N379 H385 0.985 . S
C380 C374 1.379 . S
C380 C377 1.363 . S
C380 N378 1.356 . S
C381 C375 1.363 . S
C381 C376 1.379 . S
C381 N379 1.356 . S
N382 C374 1.356 . S
N382 H388 0.984 . S
N382 H389 0.984 . S
N383 C376 1.356 . S
N383 H386 0.984 . S
N383 H387 0.985 . S
H384 N379 0.984 . S
H385 N379 0.985 . S
H386 N383 0.984 . S
H387 N383 0.985 . S
H388 N382 0.984 . S
H389 N382 0.984 . S
H390 N378 0.984 . S
H391 N378 0.985 . S
C105 C75 1.486 . S
C107 C5 1.479 . S
C123 C101 1.486 . S
C125 C18 1.479 . S
C141 C34 1.473 . S
C143 C86 1.473 . S
C159 C39 1.481 . S
C161 C52 1.481 . S
C177 C83 1.479 . S
C179 C10 1.486 . S
C195 C21 1.473 . S
C197 C60 1.473 . S
C213 C65 1.481 . S
C215 C26 1.481 . S
C231 C49 1.486 . S
C233 C96 1.479 . S
C249 C62 1.486 . S
C251 C70 1.479 . S
C267 C23 1.486 . S
C269 C31 1.479 . S
C285 C44 1.479 . S
C287 C36 1.486 . S
C303 C47 1.473 . S
C305 C8 1.473 . S
C321 C13 1.481 . S
C323 C0 1.481 . S
C339 C91 1.481 . S
C341 C78 1.481 . S
C357 C57 1.479 . S
C359 C88 1.486 . S
C375 C73 1.473 . S
C377 C99 1.473 . S
