# Generated by pormake.
# Topology irl, (4)-cn, num edge types: 1
# Building blocks:
#     Node 0, Type 0, BuildingBlock: GALJAG_clean_sbu_0, # of connection points: 4
#     Node 1, Type 0, BuildingBlock: GALJAG_clean_sbu_0, # of connection points: 4
#     Node 2, Type 0, BuildingBlock: GALJAG_clean_sbu_0, # of connection points: 4
#     Node 3, Type 0, BuildingBlock: GALJAG_clean_sbu_0, # of connection points: 4
#     Node 4, Type 0, BuildingBlock: GALJAG_clean_sbu_0, # of connection points: 4
#     Node 5, Type 0, BuildingBlock: GALJAG_clean_sbu_0, # of connection points: 4
#     Node 6, Type 0, BuildingBlock: GALJAG_clean_sbu_0, # of connection points: 4
#     Node 7, Type 0, BuildingBlock: GALJAG_clean_sbu_0, # of connection points: 4
#     Edge 8, Type (0, 0), BuildingBlock: FUNLAD_clean_linker_1, # of connection points: 2
#     Edge 9, Type (0, 0), BuildingBlock: FUNLAD_clean_linker_1, # of connection points: 2
#     Edge 10, Type (0, 0), BuildingBlock: FUNLAD_clean_linker_1, # of connection points: 2
#     Edge 11, Type (0, 0), BuildingBlock: FUNLAD_clean_linker_1, # of connection points: 2
#     Edge 12, Type (0, 0), BuildingBlock: FUNLAD_clean_linker_1, # of connection points: 2
#     Edge 13, Type (0, 0), BuildingBlock: FUNLAD_clean_linker_1, # of connection points: 2
#     Edge 14, Type (0, 0), BuildingBlock: FUNLAD_clean_linker_1, # of connection points: 2
#     Edge 15, Type (0, 0), BuildingBlock: FUNLAD_clean_linker_1, # of connection points: 2
#     Edge 16, Type (0, 0), BuildingBlock: FUNLAD_clean_linker_1, # of connection points: 2
#     Edge 17, Type (0, 0), BuildingBlock: FUNLAD_clean_linker_1, # of connection points: 2
#     Edge 18, Type (0, 0), BuildingBlock: FUNLAD_clean_linker_1, # of connection points: 2
#     Edge 19, Type (0, 0), BuildingBlock: FUNLAD_clean_linker_1, # of connection points: 2
#     Edge 20, Type (0, 0), BuildingBlock: FUNLAD_clean_linker_1, # of connection points: 2
#     Edge 21, Type (0, 0), BuildingBlock: FUNLAD_clean_linker_1, # of connection points: 2
#     Edge 22, Type (0, 0), BuildingBlock: FUNLAD_clean_linker_1, # of connection points: 2
#     Edge 23, Type (0, 0), BuildingBlock: FUNLAD_clean_linker_1, # of connection points: 2
# Relax obj value: 0.098
# Max RMSD: 0.151
# Mean RMSD: 0.151
data_MOF--net-irl--node1-GALJAG_clean_sbu_0--edge1-FUNLAD_clean_linker_1
_symmetry_space_group_name_H-M    P1
_symmetry_Int_Tables_number       1
_symmetry_cell_setting            triclinic
loop_
_symmetry_equiv_pos_as_xyz
'x, y, z'
_cell_length_a     31.339015
_cell_length_b     49.835948
_cell_length_c     30.152101
_cell_angle_alpha  89.907236
_cell_angle_beta   89.763427
_cell_angle_gamma 89.608984
loop_
_atom_site_label
_atom_site_type_symbol
_atom_site_fract_x
_atom_site_fract_y
_atom_site_fract_z
_atom_type_partial_charge
In0 In 0.04608 0.15339 0.03186 0.0
O1 O 0.00745 0.17642 0.08521 0.0
O2 O 0.04596 0.14268 0.10408 0.0
C3 C 0.03362 0.16813 0.94729 0.0
C4 C 0.1213 0.17755 0.04016 0.0
C5 C 0.01635 0.10358 0.02247 0.0
O6 O 0.00689 0.17468 0.9773 0.0
O7 O 0.06551 0.1548 0.96033 0.0
O8 O 0.0558 0.10812 0.02771 0.0
O9 O 0.99239 0.12407 0.0218 0.0
C10 C 0.02115 0.16132 0.11613 0.0
O11 O 0.11858 0.15225 0.03701 0.0
O12 O 0.08623 0.19026 0.03976 0.0
In13 In 0.93134 0.84826 0.02763 0.0
O14 O 0.85908 0.84642 0.02041 0.0
O15 O 0.8945 0.80973 0.02706 0.0
C16 C 0.95632 0.89952 0.02396 0.0
C17 C 0.94341 0.83968 0.11427 0.0
C18 C 0.96287 0.83293 0.94899 0.0
O19 O 0.9175 0.8931 0.01961 0.0
O20 O 0.98188 0.88026 0.03032 0.0
O21 O 0.98027 0.82548 0.98489 0.0
O22 O 0.93026 0.84772 0.95334 0.0
C23 C 0.85854 0.82104 0.02266 0.0
O24 O 0.96843 0.82958 0.08552 0.0
O25 O 0.91331 0.85384 0.09916 0.0
In26 In 0.04611 0.84541 0.5272 0.0
O27 O 0.00525 0.83057 0.46964 0.0
O28 O 0.06428 0.85054 0.45576 0.0
C29 C 0.01663 0.83373 0.60803 0.0
C30 C 0.10849 0.80889 0.52972 0.0
C31 C 0.02933 0.89814 0.53056 0.0
O32 O -0.00495 0.82846 0.57361 0.0
O33 O 0.05221 0.84484 0.60117 0.0
O34 O 0.06737 0.88926 0.53249 0.0
O35 O 0.00074 0.88056 0.52705 0.0
C36 C 0.03168 0.83896 0.4408 0.0
O37 O 0.11647 0.83382 0.53239 0.0
O38 O 0.06961 0.80282 0.52598 0.0
In39 In 0.94396 0.15365 0.53048 0.0
O40 O 0.98592 0.18084 0.48697 0.0
O41 O 0.94422 0.15289 0.45579 0.0
C42 C 0.95391 0.16164 0.61788 0.0
C43 C 0.86803 0.17825 0.52516 0.0
C44 C 0.97662 0.10373 0.52778 0.0
O45 O 0.97819 0.17297 0.58979 0.0
O46 O 0.92579 0.14659 0.60173 0.0
O47 O 0.93684 0.10816 0.52465 0.0
O48 O -0.00052 0.12435 0.53186 0.0
C49 C 0.97136 0.17132 0.45111 0.0
O50 O 0.87149 0.15299 0.52145 0.0
O51 O 0.90255 0.19061 0.53143 0.0
In52 In 0.54554 0.65137 0.02973 0.0
O53 O 0.6185 0.65097 0.02883 0.0
O54 O 0.58549 0.68865 0.02949 0.0
C55 C 0.52047 0.59989 0.02697 0.0
C56 C 0.52107 0.66534 0.11124 0.0
C57 C 0.52105 0.66737 0.9495 0.0
O58 O 0.5595 0.60611 0.02882 0.0
O59 O 0.49475 0.6194 0.02668 0.0
O60 O 0.50031 0.67405 0.98383 0.0
O61 O 0.55331 0.6526 0.95596 0.0
C62 C 0.6208 0.67632 0.02872 0.0
O63 O 0.50101 0.67337 0.07743 0.0
O64 O 0.55273 0.65022 0.10369 0.0
In65 In 0.43888 0.34414 0.02719 0.0
O66 O 0.47742 0.32463 0.08356 0.0
O67 O 0.42138 0.34757 0.0992 0.0
C68 C 0.46801 0.33021 0.94663 0.0
C69 C 0.36521 0.31773 0.02315 0.0
C70 C 0.46467 0.39535 0.02742 0.0
O71 O 0.48664 0.32232 0.9816 0.0
O72 O 0.43541 0.34477 0.95279 0.0
O73 O 0.4257 0.38932 0.023 0.0
O74 O 0.48997 0.37574 0.03152 0.0
C75 C 0.4523 0.3337 0.11318 0.0
O76 O 0.36649 0.34312 0.02134 0.0
O77 O 0.40094 0.30595 0.02643 0.0
In78 In 0.55304 0.35094 0.52585 0.0
O79 O 0.6255 0.34917 0.53369 0.0
O80 O 0.59119 0.31255 0.52487 0.0
C81 C 0.52379 0.40168 0.52897 0.0
C82 C 0.54115 0.34234 0.43918 0.0
C83 C 0.52366 0.33523 0.60526 0.0
O84 O 0.56334 0.39631 0.53157 0.0
O85 O 0.49972 0.38166 0.52487 0.0
O86 O 0.50583 0.32783 0.56967 0.0
O87 O 0.55563 0.35026 0.60029 0.0
C88 C 0.62681 0.32381 0.53023 0.0
O89 O 0.51745 0.33133 0.4681 0.0
O90 O 0.56977 0.35747 0.45413 0.0
In91 In 0.44941 0.65964 0.53077 0.0
O92 O 0.37722 0.66712 0.532 0.0
O93 O 0.41955 0.70068 0.53245 0.0
C94 C 0.46827 0.60695 0.52951 0.0
C95 C 0.47459 0.67193 0.44905 0.0
C96 C 0.47583 0.67087 0.61214 0.0
O97 O 0.42989 0.61517 0.53065 0.0
O98 O 0.49607 0.62508 0.52902 0.0
O99 O 0.49703 0.67803 0.57839 0.0
O100 O 0.44212 0.65795 0.60448 0.0
C101 C 0.38162 0.69242 0.53286 0.0
O102 O 0.49665 0.67821 0.48245 0.0
O103 O 0.4404 0.65953 0.4572 0.0
H104 H 0.00577 0.93049 0.0263 0.0
C105 C 0.97176 0.92727 0.0219 0.0
H106 H 0.91167 0.9458 0.01209 0.0
H107 H 0.98392 0.05328 0.09844 0.0
H108 H 0.93677 0.03779 0.15684 0.0
H109 H 0.90098 0.994 0.15123 0.0
H110 H 0.9124 0.96538 0.08722 0.0
C111 C 0.94593 0.94842 0.01514 0.0
C112 C 0.96357 0.97604 0.01565 0.0
C113 C 0.95551 0.99287 0.0526 0.0
C114 C 0.97548 0.01834 0.05539 0.0
C115 C 0.96854 0.03414 0.09381 0.0
C116 C 0.94179 0.02539 0.12781 0.0
C117 C 0.9217 1.00072 0.12469 0.0
C118 C 0.9285 0.98451 0.08772 0.0
H119 H 0.96418 0.07472 0.01459 0.0
C120 C -0.00152 0.07647 0.01889 0.0
H121 H 0.0569 0.05549 0.02575 0.0
H122 H 0.98273 0.94962 0.93842 0.0
H123 H 0.02957 0.96518 0.87963 0.0
H124 H 0.06452 0.00928 0.88458 0.0
H125 H 0.05281 0.03811 0.94834 0.0
C126 C 0.02245 0.0542 0.02251 0.0
C127 C 0.00257 0.02721 0.02054 0.0
C128 C 0.01025 0.01048 0.98335 0.0
C129 C 0.99047 0.98494 0.98073 0.0
C130 C -0.00227 0.96894 0.94261 0.0
C131 C 0.02432 0.9777 0.90848 0.0
C132 C 0.04396 0.00254 0.91124 0.0
C133 C 0.03702 0.01887 0.94807 0.0
H134 H 0.98373 0.9317 0.53234 0.0
C135 C 0.0176 0.92678 0.53231 0.0
H136 H 0.08007 0.94251 0.53138 0.0
H137 H 0.00466 0.05109 0.44752 0.0
H138 H 0.04387 0.03279 0.3849 0.0
H139 H 0.07782 0.98806 0.38933 0.0
H140 H 0.07265 0.96132 0.45646 0.0
C141 C 0.04605 0.94675 0.53317 0.0
C142 C 0.03085 0.97517 0.53293 0.0
C143 C 0.03518 0.99087 0.49395 0.0
C144 C 0.01604 0.01683 0.49162 0.0
C145 C 0.01936 0.03155 0.45155 0.0
C146 C 0.04158 0.02121 0.41522 0.0
C147 C 0.06065 0.99601 0.41769 0.0
C148 C 0.05746 0.98088 0.45643 0.0
H149 H 0.03046 0.07508 0.52848 0.0
C150 C -0.00413 0.07665 0.52728 0.0
H151 H 0.93787 0.05536 0.52707 0.0
H152 H 0.02135 0.95179 0.61453 0.0
H153 H 0.98313 0.9703 0.67772 0.0
H154 H 0.94909 0.01502 0.67342 0.0
H155 H 0.9532 0.04153 0.60598 0.0
C156 C 0.9725 0.0542 0.52639 0.0
C157 C 0.99323 0.02722 0.52862 0.0
C158 C 0.99002 0.01183 0.56807 0.0
C159 C 0.00917 0.9859 0.57038 0.0
C160 C 0.00647 0.9713 0.61061 0.0
C161 C 0.98488 0.98177 0.64724 0.0
C162 C 0.96576 0.00696 0.64483 0.0
C163 C 0.96828 0.02193 0.60587 0.0
H164 H 0.47069 0.56926 0.02191 0.0
C165 C 0.50493 0.57217 0.02487 0.0
H166 H 0.56499 0.55301 0.03109 0.0
H167 H 0.47128 0.44898 0.10793 0.0
H168 H 0.50139 0.46714 0.17539 0.0
H169 H 0.53716 0.5111 0.1751 0.0
H170 H 0.54292 0.53718 0.10731 0.0
C171 C 0.53083 0.55069 0.02659 0.0
C172 C 0.51259 0.52324 0.02562 0.0
C173 C 0.51044 0.50798 0.06524 0.0
C174 C 0.4904 0.48247 0.06524 0.0
C175 C 0.48719 0.46813 0.10572 0.0
C176 C 0.50407 0.47842 0.14479 0.0
C177 C 0.52415 0.50318 0.14464 0.0
C178 C 0.52727 0.51792 0.10548 0.0
H179 H 0.51461 0.42583 0.03319 0.0
C180 C 0.48054 0.42303 0.02848 0.0
H181 H 0.42112 0.4423 0.01821 0.0
H182 H 0.51382 0.54663 0.94335 0.0
H183 H 0.48385 0.52846 0.87579 0.0
H184 H 0.44877 0.48428 0.87583 0.0
H185 H 0.44343 0.45802 0.94346 0.0
C186 C 0.45504 0.44458 0.02437 0.0
C187 C 0.47342 0.47202 0.0253 0.0
C188 C 0.47557 0.48729 0.98568 0.0
C189 C 0.49545 0.51285 0.98575 0.0
C190 C 0.49828 0.52735 0.9454 0.0
C191 C 0.48144 0.51708 0.9063 0.0
C192 C 0.46172 0.4922 0.90632 0.0
C193 C 0.45884 0.47735 0.94539 0.0
H194 H 0.47129 0.43117 0.53003 0.0
C195 C 0.50585 0.42906 0.53057 0.0
H196 H 0.56457 0.44961 0.53081 0.0
H197 H 0.47447 0.55331 0.44745 0.0
H198 H 0.50994 0.53535 0.38218 0.0
H199 H 0.54587 0.49117 0.38448 0.0
H200 H 0.54637 0.46462 0.45203 0.0
C201 C 0.52999 0.45115 0.53196 0.0
C202 C 0.50973 0.47828 0.53143 0.0
C203 C 0.51047 0.49376 0.49198 0.0
C204 C 0.49037 0.51944 0.49087 0.0
C205 C 0.4903 0.53404 0.45052 0.0
C206 C 0.51026 0.52388 0.4127 0.0
C207 C 0.53044 0.49899 0.41398 0.0
C208 C 0.53053 0.48398 0.453 0.0
H209 H 0.51526 0.57424 0.52583 0.0
C210 C 0.48125 0.57851 0.52831 0.0
H211 H 0.41983 0.56161 0.53426 0.0
H212 H 0.50332 0.45407 0.61279 0.0
H213 H 0.4674 0.4719 0.67788 0.0
H214 H 0.43238 0.51638 0.67588 0.0
H215 H 0.43305 0.5433 0.60871 0.0
C216 C 0.45384 0.558 0.53014 0.0
C217 C 0.47042 0.52987 0.52959 0.0
C218 C 0.46892 0.51415 0.56878 0.0
C219 C 0.48883 0.4884 0.56981 0.0
C220 C 0.48805 0.47352 0.60987 0.0
C221 C 0.46772 0.48358 0.64757 0.0
C222 C 0.44804 0.50864 0.64646 0.0
C223 C 0.44865 0.52387 0.60768 0.0
H224 H 0.01965 0.14787 0.18511 0.0
C225 C 0.01077 0.1645 0.16354 0.0
H226 H 0.98543 0.20391 0.16135 0.0
H227 H 0.89436 0.18456 0.34944 0.0
H228 H 0.83377 0.19354 0.30166 0.0
H229 H 0.84371 0.20012 0.22117 0.0
H230 H 0.9144 0.19809 0.18801 0.0
C231 C -0.00522 0.18696 0.18191 0.0
C232 C 0.98941 0.18838 0.2312 0.0
C233 C 0.94805 0.18985 0.25007 0.0
C234 C 0.9423 0.18551 0.2964 0.0
C235 C 0.90051 0.18711 0.31435 0.0
C236 C 0.86547 0.19238 0.28733 0.0
C237 C 0.87107 0.19612 0.24202 0.0
C238 C 0.91179 0.19486 0.2234 0.0
H239 H 0.00357 0.19918 0.40437 0.0
C240 C 0.98372 0.18145 0.40675 0.0
H241 H 0.94905 0.15194 0.37269 0.0
H242 H 0.07342 0.19223 0.20781 0.0
H243 H 0.1345 0.18326 0.25504 0.0
H244 H 0.12451 0.17087 0.33363 0.0
H245 H 0.05385 0.16815 0.36574 0.0
C246 C 0.96989 0.16921 0.36972 0.0
C247 C 0.97785 0.17928 0.32375 0.0
C248 C 0.01963 0.1797 0.30531 0.0
C249 C 0.02536 0.1852 0.2593 0.0
C250 C 0.06735 0.1869 0.24206 0.0
C251 C 0.10263 0.18198 0.26884 0.0
C252 C 0.097 0.17513 0.31313 0.0
C253 C 0.0561 0.17384 0.33127 0.0
H254 H 0.05114 0.84403 0.37153 0.0
C255 C 0.02585 0.83631 0.39272 0.0
H256 H 0.9655 0.81764 0.39434 0.0
H257 H -0.00385 0.8759 0.19533 0.0
H258 H 0.99332 0.91793 0.23556 0.0
H259 H 0.98455 0.91844 0.31692 0.0
H260 H 0.9799 0.87689 0.35848 0.0
C261 C 0.99077 0.82613 0.37404 0.0
C262 C 0.98679 0.82587 0.32483 0.0
C263 C 0.98641 0.85041 0.30084 0.0
C264 C 0.98838 0.85015 0.25378 0.0
C265 C 0.99202 0.87492 0.23092 0.0
C266 C 0.99085 0.89922 0.25364 0.0
C267 C 0.98615 0.8995 0.29943 0.0
C268 C 0.98391 0.87546 0.32292 0.0
H269 H 0.92354 0.84501 0.18335 0.0
C270 C 0.94841 0.83641 0.16237 0.0
H271 H 0.0079 0.81616 0.16127 0.0
H272 H 0.98706 0.77538 0.3606 0.0
H273 H 0.98612 0.73334 0.32007 0.0
H274 H 0.9849 0.73295 0.23827 0.0
H275 H 0.98514 0.77461 0.19641 0.0
C276 C 0.98288 0.8253 0.18134 0.0
C277 C 0.98695 0.8254 0.23056 0.0
C278 C 0.98642 0.8009 0.25448 0.0
C279 C 0.98652 0.80113 0.30169 0.0
C280 C 0.98666 0.77636 0.32475 0.0
C281 C 0.9861 0.75209 0.3019 0.0
C282 C 0.98543 0.75187 0.25583 0.0
C283 C 0.98555 0.77593 0.23221 0.0
H284 H 0.96779 0.8229 0.65816 0.0
C285 C 0.00094 0.82848 0.65333 0.0
H286 H 0.05957 0.83803 0.68347 0.0
H287 H 0.9837 0.88279 0.86084 0.0
H288 H 0.00827 0.92354 0.82521 0.0
H289 H 0.03359 0.92298 0.74763 0.0
H290 H 0.03472 0.88168 0.70536 0.0
C291 C 0.02664 0.83195 0.68845 0.0
C292 C 0.01023 0.83191 0.73471 0.0
C293 C 0.00965 0.85632 0.75884 0.0
C294 C -0.00558 0.85674 0.80325 0.0
C295 C -0.00559 0.88137 0.82674 0.0
C296 C 0.00853 0.90492 0.80675 0.0
C297 C 0.02285 0.9046 0.76312 0.0
C298 C 0.02344 0.88068 0.73927 0.0
H299 H 0.01095 0.81602 0.90241 0.0
C300 C 0.98031 0.82627 0.90486 0.0
H301 H 0.92975 0.84524 0.87064 0.0
H302 H 0.01123 0.7813 0.69934 0.0
H303 H 0.98574 0.74067 0.73482 0.0
H304 H 0.9564 0.74183 0.81087 0.0
H305 H 0.95293 0.78359 0.85215 0.0
C306 C 0.95981 0.83432 0.86805 0.0
C307 C 0.97957 0.83282 0.82335 0.0
C308 C 0.98069 0.80834 0.79955 0.0
C309 C -0.0035 0.80782 0.75524 0.0
C310 C -0.00152 0.78297 0.73261 0.0
C311 C 0.98413 0.75948 0.75267 0.0
C312 C 0.96769 0.76012 0.79553 0.0
C313 C 0.96591 0.78421 0.81887 0.0
H314 H 0.0564 0.17001 0.87875 0.0
C315 C 0.02865 0.17382 0.89965 0.0
H316 H 0.96281 0.18341 0.89996 0.0
H317 H 0.97139 0.22893 0.70129 0.0
H318 H 0.95633 0.26975 0.74247 0.0
H319 H 0.95621 0.26973 0.8243 0.0
H320 H 0.9707 0.22879 0.86556 0.0
C321 C 0.99128 0.17963 0.8802 0.0
C322 C 0.98818 0.17936 0.83073 0.0
C323 C 0.97999 0.20343 0.80708 0.0
C324 C 0.98058 0.2035 0.7598 0.0
C325 C 0.97169 0.22778 0.73713 0.0
C326 C 0.963 0.25135 0.76036 0.0
C327 C 0.96292 0.25134 0.80645 0.0
C328 C 0.97132 0.22773 0.82972 0.0
H329 H 0.93472 0.15345 0.68649 0.0
C330 C 0.9574 0.16459 0.66635 0.0
H331 H 0.00968 0.19114 0.6675 0.0
H332 H -0.00259 0.1286 0.86506 0.0
H333 H 0.01559 0.08825 0.82426 0.0
H334 H 0.02479 0.08945 0.74299 0.0
H335 H 0.01466 0.13084 0.70203 0.0
C336 C 0.98739 0.17915 0.68668 0.0
C337 C 0.98964 0.17951 0.7362 0.0
C338 C -0.00158 0.15547 0.75994 0.0
C339 C -0.00401 0.15517 0.80705 0.0
C340 C 0.00129 0.13036 0.82952 0.0
C341 C 0.01134 0.10696 0.80646 0.0
C342 C 0.0163 0.1076 0.76071 0.0
C343 C 0.01 0.13149 0.73756 0.0
H344 H 0.47657 0.68158 0.16147 0.0
C345 C 0.50755 0.67209 0.1564 0.0
H346 H 0.56255 0.6554 0.18616 0.0
H347 H 0.46796 0.72161 0.35184 0.0
H348 H 0.48598 0.76226 0.31159 0.0
H349 H 0.51882 0.75988 0.23715 0.0
H350 H 0.53332 0.71687 0.20233 0.0
C351 C 0.53196 0.66539 0.19113 0.0
C352 C 0.51529 0.66727 0.23689 0.0
C353 C 0.5082 0.6926 0.257 0.0
C354 C 0.49059 0.69396 0.30038 0.0
C355 C 0.48232 0.71945 0.31935 0.0
C356 C 0.49236 0.74293 0.29655 0.0
C357 C 0.51075 0.74159 0.25459 0.0
C358 C 0.5187 0.71677 0.23489 0.0
H359 H 0.52115 0.68433 0.39806 0.0
C360 C 0.48893 0.67706 0.40357 0.0
H361 H 0.43215 0.66289 0.37456 0.0
H362 H 0.52523 0.61546 0.20737 0.0
H363 H 0.50954 0.57492 0.24863 0.0
H364 H 0.4812 0.57729 0.32501 0.0
H365 H 0.46806 0.62022 0.36031 0.0
C366 C 0.46394 0.6709 0.36917 0.0
C367 C 0.48136 0.66997 0.32366 0.0
C368 C 0.48906 0.64465 0.3038 0.0
C369 C 0.50601 0.64329 0.26022 0.0
C370 C 0.51291 0.61773 0.24073 0.0
C371 C 0.50396 0.59425 0.26401 0.0
C372 C 0.48796 0.59559 0.30696 0.0
C373 C 0.4805 0.62041 0.32679 0.0
H374 H 0.55957 0.34882 0.36987 0.0
C375 C 0.53646 0.33878 0.39106 0.0
H376 H 0.48163 0.31434 0.39267 0.0
H377 H 0.49751 0.3733 0.19229 0.0
H378 H 0.48559 0.41508 0.23158 0.0
H379 H 0.47741 0.41556 0.313 0.0
H380 H 0.48254 0.37439 0.35555 0.0
C381 C 0.50454 0.32512 0.37232 0.0
C382 C 0.50082 0.32413 0.32304 0.0
C383 C 0.49461 0.34817 0.29849 0.0
C384 C 0.4961 0.34764 0.2514 0.0
C385 C 0.49394 0.3723 0.22794 0.0
C386 C 0.48752 0.39649 0.25011 0.0
C387 C 0.48315 0.39677 0.29594 0.0
C388 C 0.48659 0.37298 0.32 0.0
H389 H 0.43207 0.33636 0.18252 0.0
C390 C 0.45819 0.32989 0.16109 0.0
H391 H 0.52159 0.31517 0.15907 0.0
H392 H 0.51359 0.2745 0.3598 0.0
H393 H 0.522 0.23242 0.32018 0.0
H394 H 0.51974 0.23116 0.23843 0.0
H395 H 0.50957 0.27203 0.1957 0.0
C396 C 0.49497 0.32184 0.17955 0.0
C397 C 0.49987 0.32277 0.22872 0.0
C398 C 0.50543 0.29871 0.25318 0.0
C399 C 0.50611 0.2994 0.3004 0.0
C400 C 0.51241 0.2751 0.32395 0.0
C401 C 0.51729 0.25081 0.30162 0.0
C402 C 0.51603 0.2501 0.25558 0.0
C403 C 0.51014 0.2737 0.23146 0.0
H404 H 0.51655 0.31674 0.89764 0.0
C405 C 0.48429 0.32452 0.9016 0.0
H406 H 0.42866 0.33888 0.87019 0.0
H407 H 0.5105 0.38473 0.69809 0.0
H408 H 0.48998 0.42536 0.73695 0.0
H409 H 0.46481 0.4236 0.81453 0.0
H410 H 0.45969 0.38122 0.85351 0.0
C411 C 0.46065 0.3307 0.8658 0.0
C412 C 0.47866 0.33131 0.82008 0.0
C413 C 0.48203 0.35637 0.79796 0.0
C414 C 0.49739 0.35746 0.7536 0.0
C415 C 0.49974 0.38273 0.73207 0.0
C416 C 0.48794 0.40625 0.75394 0.0
C417 C 0.47369 0.40525 0.79756 0.0
C418 C 0.47075 0.38071 0.81949 0.0
H419 H 0.47679 0.3181 0.6526 0.0
C420 C 0.50734 0.32815 0.64971 0.0
H421 H 0.55868 0.34616 0.68327 0.0
H422 H 0.47281 0.27981 0.85135 0.0
H423 H 0.49522 0.23929 0.81303 0.0
H424 H 0.52556 0.24149 0.73748 0.0
H425 H 0.53303 0.28419 0.6995 0.0
C426 C 0.52868 0.33548 0.68633 0.0
C427 C 0.50984 0.33355 0.73152 0.0
C428 C 0.50664 0.30849 0.75359 0.0
C429 C 0.49045 0.30732 0.79776 0.0
C430 C 0.48606 0.28195 0.81838 0.0
C431 C 0.49862 0.25852 0.79667 0.0
C432 C 0.51561 0.25975 0.75408 0.0
C433 C 0.51964 0.28438 0.73261 0.0
H434 H 0.47527 0.68269 0.90002 0.0
C435 C 0.50732 0.67475 0.90477 0.0
H436 H 0.56444 0.66124 0.87462 0.0
H437 H 0.47458 0.61945 0.70327 0.0
H438 H 0.49209 0.57768 0.7405 0.0
H439 H 0.52019 0.57765 0.81682 0.0
H440 H 0.53124 0.61937 0.85613 0.0
C441 C 0.5327 0.66969 0.86987 0.0
C442 C 0.51571 0.67023 0.82434 0.0
C443 C 0.50935 0.64555 0.80211 0.0
C444 C 0.49261 0.64554 0.75855 0.0
C445 C 0.48683 0.62065 0.73671 0.0
C446 C 0.49679 0.59649 0.75765 0.0
C447 C 0.51266 0.59648 0.80057 0.0
C448 C 0.51892 0.62063 0.82272 0.0
H449 H 0.52174 0.6844 0.66254 0.0
C450 C 0.49009 0.67622 0.6574 0.0
H451 H 0.43411 0.6609 0.68715 0.0
H452 H 0.52652 0.72095 0.8573 0.0
H453 H 0.50695 0.76272 0.82083 0.0
H454 H 0.47502 0.76257 0.74614 0.0
H455 H 0.46292 0.72066 0.70731 0.0
C456 C 0.46535 0.66973 0.69208 0.0
C457 C 0.4823 0.67018 0.7376 0.0
C458 C 0.48828 0.69484 0.75993 0.0
C459 C 0.50553 0.69488 0.80335 0.0
C460 C 0.5125 0.71976 0.82465 0.0
C461 C 0.50158 0.74387 0.80402 0.0
C462 C 0.4837 0.74379 0.76192 0.0
C463 C 0.47705 0.71961 0.73995 0.0
H464 H 0.29502 0.3142 0.02083 0.0
C465 C 0.32477 0.30293 0.02287 0.0
H466 H 0.35372 0.26476 0.02986 0.0
H467 H 0.19376 0.21113 0.1202 0.0
H468 H 0.24261 0.21365 0.18218 0.0
H469 H 0.31072 0.23786 0.17521 0.0
H470 H 0.33029 0.25978 0.10628 0.0
C471 C 0.32414 0.27605 0.02627 0.0
C472 C 0.28345 0.26108 0.02971 0.0
C473 C 0.27289 0.248 0.07006 0.0
C474 C 0.23383 0.23385 0.07399 0.0
C475 C 0.22341 0.22169 0.11509 0.0
C476 C 0.25107 0.2231 0.15104 0.0
C477 C 0.2894 0.23675 0.14712 0.0
C478 C 0.30029 0.24917 0.10728 0.0
H479 H 0.19175 0.1795 0.04163 0.0
C480 C 0.16256 0.19141 0.04179 0.0
H481 H 0.13544 0.23032 0.03953 0.0
H482 H 0.29606 0.2816 0.94621 0.0
H483 H 0.24712 0.2791 0.88435 0.0
H484 H 0.17857 0.25543 0.89174 0.0
H485 H 0.15875 0.23394 0.96095 0.0
C486 C 0.16449 0.21832 0.0412 0.0
C487 C 0.20573 0.23259 0.03737 0.0
C488 C 0.21638 0.24553 0.99695 0.0
C489 C 0.25553 0.25956 0.99292 0.0
C490 C 0.26618 0.27135 0.95158 0.0
C491 C 0.23849 0.26991 0.91565 0.0
C492 C 0.19993 0.25655 0.91979 0.0
C493 C 0.1889 0.24437 0.95979 0.0
H494 H 0.69122 0.67914 0.02773 0.0
C495 C 0.66164 0.69064 0.02729 0.0
H496 H 0.63306 0.72917 0.02576 0.0
H497 H 0.79207 0.78933 0.10356 0.0
H498 H 0.74482 0.78952 0.16739 0.0
H499 H 0.67788 0.76376 0.16693 0.0
H500 H 0.65797 0.73751 0.10268 0.0
C501 C 0.66254 0.71755 0.02508 0.0
C502 C 0.70315 0.73262 0.02507 0.0
C503 C 0.7139 0.74819 0.06264 0.0
C504 C 0.75217 0.76329 0.0627 0.0
C505 C 0.76288 0.77797 0.10125 0.0
C506 C 0.73615 0.77814 0.13827 0.0
C507 C 0.69849 0.76362 0.13803 0.0
C508 C 0.6874 0.74871 0.10084 0.0
H509 H 0.78854 0.81648 0.0193 0.0
C510 C 0.81869 0.80567 0.02159 0.0
H511 H 0.84917 0.76775 0.02575 0.0
H512 H 0.69028 0.70641 0.94633 0.0
H513 H 0.73767 0.70614 0.88259 0.0
H514 H 0.80477 0.73173 0.88325 0.0
H515 H 0.82468 0.75793 0.94761 0.0
C516 C 0.81916 0.77879 0.02462 0.0
C517 C 0.77917 0.76308 0.02486 0.0
C518 C 0.76856 0.7474 0.98739 0.0
C519 C 0.73024 0.73233 0.98729 0.0
C520 C 0.71952 0.7177 0.94871 0.0
C521 C 0.74633 0.71749 0.91174 0.0
C522 C 0.78409 0.73192 0.91209 0.0
C523 C 0.79517 0.74682 0.9493 0.0
H524 H 0.13071 0.76708 0.5282 0.0
C525 C 0.14137 0.78777 0.53024 0.0
H526 H 0.19466 0.81328 0.53559 0.0
H527 H 0.3073 0.71855 0.61716 0.0
H528 H 0.2969 0.74681 0.68183 0.0
H529 H 0.24869 0.78612 0.67902 0.0
H530 H 0.21054 0.79738 0.61156 0.0
C531 C 0.18322 0.79285 0.53223 0.0
C532 C 0.2145 0.77028 0.53271 0.0
C533 C 0.23699 0.76426 0.57219 0.0
C534 C 0.26516 0.74181 0.57365 0.0
C535 C 0.28633 0.73577 0.61391 0.0
C536 C 0.28041 0.75171 0.65137 0.0
C537 C 0.25322 0.77382 0.6498 0.0
C538 C 0.23156 0.78007 0.61083 0.0
H539 H 0.35406 0.73286 0.53576 0.0
C540 C 0.34602 0.71167 0.53462 0.0
H541 H 0.29583 0.68358 0.53228 0.0
H542 H 0.17878 0.7774 0.45057 0.0
H543 H 0.1887 0.74883 0.38631 0.0
H544 H 0.23624 0.70921 0.38956 0.0
H545 H 0.2743 0.69803 0.45713 0.0
C546 C 0.30493 0.70451 0.53488 0.0
C547 C 0.27134 0.72572 0.53536 0.0
C548 C 0.24837 0.73147 0.49609 0.0
C549 C 0.22034 0.754 0.49453 0.0
C550 C 0.19941 0.76005 0.45413 0.0
C551 C 0.20509 0.74393 0.41684 0.0
C552 C 0.23191 0.72166 0.41864 0.0
C553 C 0.25355 0.71547 0.45764 0.0
H554 H 0.69673 0.31899 0.5371 0.0
C555 C 0.667 0.30835 0.53205 0.0
H556 H 0.63775 0.27088 0.52087 0.0
H557 H 0.8036 0.21492 0.44444 0.0
H558 H 0.76232 0.22089 0.37733 0.0
H559 H 0.69535 0.24721 0.37806 0.0
H560 H 0.66948 0.26789 0.44588 0.0
C561 C 0.66724 0.28151 0.52735 0.0
C562 C 0.70746 0.26555 0.52746 0.0
C563 C 0.72165 0.25312 0.48772 0.0
C564 C 0.75995 0.23765 0.48742 0.0
C565 C 0.77424 0.22635 0.44687 0.0
C566 C 0.75095 0.22974 0.40799 0.0
C567 C 0.71327 0.24457 0.40839 0.0
C568 C 0.69872 0.25626 0.44762 0.0
H569 H 0.79781 0.18099 0.51797 0.0
C570 C 0.82674 0.19249 0.5228 0.0
H571 H 0.85344 0.23079 0.53309 0.0
H572 H 0.687 0.28451 0.61028 0.0
H573 H 0.72814 0.27837 0.67745 0.0
H574 H 0.79515 0.25211 0.67671 0.0
H575 H 0.82121 0.23164 0.6088 0.0
C576 C 0.82468 0.21934 0.52691 0.0
C577 C 0.78355 0.23431 0.52709 0.0
C578 C 0.76915 0.24653 0.56692 0.0
C579 C 0.73085 0.26199 0.56722 0.0
C580 C 0.71643 0.27315 0.60783 0.0
C581 C 0.73961 0.26964 0.64675 0.0
C582 C 0.77731 0.25484 0.64634 0.0
C583 C 0.79198 0.24328 0.60706 0.0
loop_
_geom_bond_atom_site_label_1
_geom_bond_atom_site_label_2
_geom_bond_distance
_geom_bond_site_symmetry_2
_ccdc_geom_bond_type
In0 O1 2.283 1_455 S
In0 O2 2.326 . S
In0 O6 2.266 1_454 S
In0 O7 2.326 1_554 S
In0 O8 2.266 . S
In0 O9 2.326 1_455 S
In0 O11 2.294 . S
In0 O12 2.326 . S
O1 In0 2.283 1_655 S
O1 C10 1.230 1_655 S
O2 In0 2.326 . S
O2 C10 1.252 . S
C3 O6 1.252 1_455 S
C3 O7 1.260 . S
C4 O11 1.240 . S
C4 O12 1.252 . S
C5 O8 1.252 . S
C5 O9 1.260 1_455 S
O6 In0 2.266 1_656 S
O6 C3 1.252 1_655 S
O7 In0 2.326 1_556 S
O7 C3 1.260 . S
O8 In0 2.266 . S
O8 C5 1.252 . S
O9 In0 2.326 1_655 S
O9 C5 1.260 1_655 S
C10 O1 1.230 1_455 S
C10 O2 1.252 . S
O11 In0 2.294 . S
O11 C4 1.240 . S
O12 In0 2.326 . S
O12 C4 1.252 . S
In13 O14 2.294 . S
In13 O15 2.326 . S
In13 O19 2.266 . S
In13 O20 2.326 1_655 S
In13 O21 2.266 1_654 S
In13 O22 2.326 1_554 S
In13 O24 2.283 1_655 S
In13 O25 2.326 . S
O14 In13 2.294 . S
O14 C23 1.240 . S
O15 In13 2.326 . S
O15 C23 1.252 . S
C16 O19 1.252 . S
C16 O20 1.260 1_655 S
C17 O24 1.230 1_655 S
C17 O25 1.252 . S
C18 O21 1.252 1_655 S
C18 O22 1.260 . S
O19 In13 2.266 . S
O19 C16 1.252 . S
O20 In13 2.326 1_455 S
O20 C16 1.260 1_455 S
O21 In13 2.266 1_456 S
O21 C18 1.252 1_455 S
O22 In13 2.326 1_556 S
O22 C18 1.260 . S
C23 O14 1.240 . S
C23 O15 1.252 . S
O24 In13 2.283 1_455 S
O24 C17 1.230 1_455 S
O25 In13 2.326 . S
O25 C17 1.252 . S
In26 O27 2.283 1_455 S
In26 O28 2.326 . S
In26 O32 2.266 1_455 S
In26 O33 2.326 . S
In26 O34 2.266 . S
In26 O35 2.326 1_455 S
In26 O37 2.294 . S
In26 O38 2.326 . S
O27 In26 2.283 1_655 S
O27 C36 1.230 1_655 S
O28 In26 2.326 . S
O28 C36 1.252 . S
C29 O32 1.252 1_455 S
C29 O33 1.260 . S
C30 O37 1.240 . S
C30 O38 1.252 . S
C31 O34 1.252 . S
C31 O35 1.260 1_455 S
O32 In26 2.266 1_655 S
O32 C29 1.252 1_655 S
O33 In26 2.326 . S
O33 C29 1.260 . S
O34 In26 2.266 . S
O34 C31 1.252 . S
O35 In26 2.326 1_655 S
O35 C31 1.260 1_655 S
C36 O27 1.230 1_455 S
C36 O28 1.252 . S
O37 In26 2.294 . S
O37 C30 1.240 . S
O38 In26 2.326 . S
O38 C30 1.252 . S
In39 O40 2.283 1_655 S
In39 O41 2.326 . S
In39 O45 2.266 1_655 S
In39 O46 2.326 . S
In39 O47 2.266 . S
In39 O48 2.326 1_655 S
In39 O50 2.294 . S
In39 O51 2.326 . S
O40 In39 2.283 1_455 S
O40 C49 1.230 1_455 S
O41 In39 2.326 . S
O41 C49 1.252 . S
C42 O45 1.252 1_655 S
C42 O46 1.260 . S
C43 O50 1.240 . S
C43 O51 1.252 . S
C44 O47 1.252 . S
C44 O48 1.260 1_655 S
O45 In39 2.266 1_455 S
O45 C42 1.252 1_455 S
O46 In39 2.326 . S
O46 C42 1.260 . S
O47 In39 2.266 . S
O47 C44 1.252 . S
O48 In39 2.326 1_455 S
O48 C44 1.260 1_455 S
C49 O40 1.230 1_655 S
C49 O41 1.252 . S
O50 In39 2.294 . S
O50 C43 1.240 . S
O51 In39 2.326 . S
O51 C43 1.252 . S
In52 O53 2.294 . S
In52 O54 2.326 . S
In52 O58 2.266 . S
In52 O59 2.326 . S
In52 O60 2.266 1_554 S
In52 O61 2.326 1_554 S
In52 O63 2.294 . S
In52 O64 2.326 . S
O53 In52 2.294 . S
O53 C62 1.240 . S
O54 In52 2.326 . S
O54 C62 1.252 . S
C55 O58 1.252 . S
C55 O59 1.260 . S
C56 O63 1.240 . S
C56 O64 1.252 . S
C57 O60 1.252 . S
C57 O61 1.260 . S
O58 In52 2.266 . S
O58 C55 1.252 . S
O59 In52 2.326 . S
O59 C55 1.260 . S
O60 In52 2.266 1_556 S
O60 C57 1.252 . S
O61 In52 2.326 1_556 S
O61 C57 1.260 . S
C62 O53 1.240 . S
C62 O54 1.252 . S
O63 In52 2.294 . S
O63 C56 1.240 . S
O64 In52 2.326 . S
O64 C56 1.252 . S
In65 O66 2.294 . S
In65 O67 2.326 . S
In65 O71 2.266 1_554 S
In65 O72 2.326 1_554 S
In65 O73 2.266 . S
In65 O74 2.326 . S
In65 O76 2.294 . S
In65 O77 2.326 . S
O66 In65 2.294 . S
O66 C75 1.240 . S
O67 In65 2.326 . S
O67 C75 1.252 . S
C68 O71 1.252 . S
C68 O72 1.260 . S
C69 O76 1.240 . S
C69 O77 1.252 . S
C70 O73 1.252 . S
C70 O74 1.260 . S
O71 In65 2.266 1_556 S
O71 C68 1.252 . S
O72 In65 2.326 1_556 S
O72 C68 1.260 . S
O73 In65 2.266 . S
O73 C70 1.252 . S
O74 In65 2.326 . S
O74 C70 1.260 . S
C75 O66 1.240 . S
C75 O67 1.252 . S
O76 In65 2.294 . S
O76 C69 1.240 . S
O77 In65 2.326 . S
O77 C69 1.252 . S
In78 O79 2.294 . S
In78 O80 2.326 . S
In78 O84 2.266 . S
In78 O85 2.326 . S
In78 O86 2.266 . S
In78 O87 2.326 . S
In78 O89 2.294 . S
In78 O90 2.326 . S
O79 In78 2.294 . S
O79 C88 1.240 . S
O80 In78 2.326 . S
O80 C88 1.252 . S
C81 O84 1.252 . S
C81 O85 1.260 . S
C82 O89 1.240 . S
C82 O90 1.252 . S
C83 O86 1.252 . S
C83 O87 1.260 . S
O84 In78 2.266 . S
O84 C81 1.252 . S
O85 In78 2.326 . S
O85 C81 1.260 . S
O86 In78 2.266 . S
O86 C83 1.252 . S
O87 In78 2.326 . S
O87 C83 1.260 . S
C88 O79 1.240 . S
C88 O80 1.252 . S
O89 In78 2.294 . S
O89 C82 1.240 . S
O90 In78 2.326 . S
O90 C82 1.252 . S
In91 O92 2.294 . S
In91 O93 2.326 . S
In91 O97 2.266 . S
In91 O98 2.326 . S
In91 O99 2.266 . S
In91 O100 2.326 . S
In91 O102 2.294 . S
In91 O103 2.326 . S
O92 In91 2.294 . S
O92 C101 1.240 . S
O93 In91 2.326 . S
O93 C101 1.252 . S
C94 O97 1.252 . S
C94 O98 1.260 . S
C95 O102 1.240 . S
C95 O103 1.252 . S
C96 O99 1.252 . S
C96 O100 1.260 . S
O97 In91 2.266 . S
O97 C94 1.252 . S
O98 In91 2.326 . S
O98 C94 1.260 . S
O99 In91 2.266 . S
O99 C96 1.252 . S
O100 In91 2.326 . S
O100 C96 1.260 . S
C101 O92 1.240 . S
C101 O93 1.252 . S
O102 In91 2.294 . S
O102 C95 1.240 . S
O103 In91 2.326 . S
O103 C95 1.252 . S
H104 C105 0.951 1_455 S
C105 H104 0.951 1_655 S
C105 C111 1.265 . S
H106 C111 0.950 . S
H107 C115 0.949 . S
H108 C116 0.950 . S
H109 C117 0.951 1_565 S
H110 C118 0.951 . S
C111 C105 1.265 . S
C111 H106 0.950 . S
C111 C112 1.478 . S
C112 C111 1.478 . S
C112 C113 1.397 . S
C112 C129 1.394 1_654 S
C113 C112 1.397 . S
C113 C114 1.438 1_565 S
C113 C118 1.429 . S
C114 C113 1.438 1_545 S
C114 C115 1.428 . S
C114 C127 1.394 1_655 S
C115 H107 0.949 . S
C115 C114 1.428 . S
C115 C116 1.345 . S
C116 H108 0.950 . S
C116 C115 1.345 . S
C116 C117 1.424 . S
C117 H109 0.951 1_545 S
C117 C116 1.424 . S
C117 C118 1.347 1_545 S
C118 H110 0.951 . S
C118 C113 1.429 . S
C118 C117 1.347 1_565 S
H119 C120 0.951 1_655 S
C120 H119 0.951 1_455 S
C120 C126 1.265 . S
H121 C126 0.950 . S
H122 C130 0.949 . S
H123 C131 0.950 . S
H124 C132 0.951 1_545 S
H125 C133 0.951 . S
C126 C120 1.265 . S
C126 H121 0.950 . S
C126 C127 1.478 . S
C127 C114 1.394 1_455 S
C127 C126 1.478 . S
C127 C128 1.397 1_554 S
C128 C127 1.397 1_556 S
C128 C129 1.438 1_545 S
C128 C133 1.429 . S
C129 C112 1.394 1_456 S
C129 C128 1.438 1_565 S
C129 C130 1.428 . S
C130 H122 0.949 . S
C130 C129 1.428 . S
C130 C131 1.345 . S
C131 H123 0.950 . S
C131 C130 1.345 . S
C131 C132 1.424 . S
C132 H124 0.951 1_565 S
C132 C131 1.424 . S
C132 C133 1.347 1_565 S
C133 H125 0.951 . S
C133 C128 1.429 . S
C133 C132 1.347 1_545 S
H134 C135 0.951 1_655 S
C135 H134 0.951 1_455 S
C135 C141 1.265 . S
H136 C141 0.950 . S
H137 C145 0.949 1_655 S
H138 C146 0.950 . S
H139 C147 0.951 . S
H140 C148 0.951 . S
C141 C135 1.265 . S
C141 H136 0.950 . S
C141 C142 1.478 . S
C142 C141 1.478 . S
C142 C143 1.397 . S
C142 C159 1.394 1_455 S
C143 C142 1.397 . S
C143 C144 1.438 1_565 S
C143 C148 1.429 . S
C144 C143 1.438 1_545 S
C144 C145 1.428 . S
C144 C157 1.394 1_455 S
C145 H137 0.949 1_455 S
C145 C144 1.428 . S
C145 C146 1.345 . S
C146 H138 0.950 . S
C146 C145 1.345 . S
C146 C147 1.424 1_545 S
C147 H139 0.951 . S
C147 C146 1.424 1_565 S
C147 C148 1.347 . S
C148 H140 0.951 . S
C148 C143 1.429 . S
C148 C147 1.347 . S
H149 C150 0.951 1_455 S
C150 H149 0.951 1_655 S
C150 C156 1.265 . S
H151 C156 0.950 . S
H152 C160 0.949 1_455 S
H153 C161 0.950 . S
H154 C162 0.951 . S
H155 C163 0.951 . S
C156 C150 1.265 . S
C156 H151 0.950 . S
C156 C157 1.478 . S
C157 C144 1.394 1_655 S
C157 C156 1.478 . S
C157 C158 1.397 . S
C158 C157 1.397 . S
C158 C159 1.438 1_545 S
C158 C163 1.429 . S
C159 C142 1.394 1_655 S
C159 C158 1.438 1_565 S
C159 C160 1.428 . S
C160 H152 0.949 1_655 S
C160 C159 1.428 . S
C160 C161 1.345 . S
C161 H153 0.950 . S
C161 C160 1.345 . S
C161 C162 1.424 1_565 S
C162 H154 0.951 . S
C162 C161 1.424 1_545 S
C162 C163 1.347 . S
C163 H155 0.951 . S
C163 C158 1.429 . S
C163 C162 1.347 . S
H164 C165 0.951 . S
C165 H164 0.951 . S
C165 C171 1.265 . S
H166 C171 0.950 . S
H167 C175 0.949 . S
H168 C176 0.950 . S
H169 C177 0.951 . S
H170 C178 0.951 . S
C171 C165 1.265 . S
C171 H166 0.950 . S
C171 C172 1.478 . S
C172 C171 1.478 . S
C172 C173 1.397 . S
C172 C189 1.394 1_554 S
C173 C172 1.397 . S
C173 C174 1.438 . S
C173 C178 1.429 . S
C174 C173 1.438 . S
C174 C175 1.428 . S
C174 C187 1.394 . S
C175 H167 0.949 . S
C175 C174 1.428 . S
C175 C176 1.345 . S
C176 H168 0.950 . S
C176 C175 1.345 . S
C176 C177 1.424 . S
C177 H169 0.951 . S
C177 C176 1.424 . S
C177 C178 1.347 . S
C178 H170 0.951 . S
C178 C173 1.429 . S
C178 C177 1.347 . S
H179 C180 0.951 . S
C180 H179 0.951 . S
C180 C186 1.265 . S
H181 C186 0.950 . S
H182 C190 0.949 . S
H183 C191 0.950 . S
H184 C192 0.951 . S
H185 C193 0.951 . S
C186 C180 1.265 . S
C186 H181 0.950 . S
C186 C187 1.478 . S
C187 C174 1.394 . S
C187 C186 1.478 . S
C187 C188 1.397 1_554 S
C188 C187 1.397 1_556 S
C188 C189 1.438 . S
C188 C193 1.429 . S
C189 C172 1.394 1_556 S
C189 C188 1.438 . S
C189 C190 1.428 . S
C190 H182 0.949 . S
C190 C189 1.428 . S
C190 C191 1.345 . S
C191 H183 0.950 . S
C191 C190 1.345 . S
C191 C192 1.424 . S
C192 H184 0.951 . S
C192 C191 1.424 . S
C192 C193 1.347 . S
C193 H185 0.951 . S
C193 C188 1.429 . S
C193 C192 1.347 . S
H194 C195 0.951 . S
C195 H194 0.951 . S
C195 C201 1.265 . S
H196 C201 0.950 . S
H197 C205 0.949 . S
H198 C206 0.950 . S
H199 C207 0.951 . S
H200 C208 0.951 . S
C201 C195 1.265 . S
C201 H196 0.950 . S
C201 C202 1.478 . S
C202 C201 1.478 . S
C202 C203 1.397 . S
C202 C219 1.394 . S
C203 C202 1.397 . S
C203 C204 1.438 . S
C203 C208 1.429 . S
C204 C203 1.438 . S
C204 C205 1.428 . S
C204 C217 1.394 . S
C205 H197 0.949 . S
C205 C204 1.428 . S
C205 C206 1.345 . S
C206 H198 0.950 . S
C206 C205 1.345 . S
C206 C207 1.424 . S
C207 H199 0.951 . S
C207 C206 1.424 . S
C207 C208 1.347 . S
C208 H200 0.951 . S
C208 C203 1.429 . S
C208 C207 1.347 . S
H209 C210 0.951 . S
C210 H209 0.951 . S
C210 C216 1.265 . S
H211 C216 0.950 . S
H212 C220 0.949 . S
H213 C221 0.950 . S
H214 C222 0.951 . S
H215 C223 0.951 . S
C216 C210 1.265 . S
C216 H211 0.950 . S
C216 C217 1.478 . S
C217 C204 1.394 . S
C217 C216 1.478 . S
C217 C218 1.397 . S
C218 C217 1.397 . S
C218 C219 1.438 . S
C218 C223 1.429 . S
C219 C202 1.394 . S
C219 C218 1.438 . S
C219 C220 1.428 . S
C220 H212 0.949 . S
C220 C219 1.428 . S
C220 C221 1.345 . S
C221 H213 0.950 . S
C221 C220 1.345 . S
C221 C222 1.424 . S
C222 H214 0.951 . S
C222 C221 1.424 . S
C222 C223 1.347 . S
C223 H215 0.951 . S
C223 C218 1.429 . S
C223 C222 1.347 . S
H224 C225 0.951 . S
C225 H224 0.951 . S
C225 C231 1.265 1_455 S
H226 C231 0.950 . S
H227 C235 0.949 . S
H228 C236 0.950 . S
H229 C237 0.951 . S
H230 C238 0.951 . S
C231 C225 1.265 1_655 S
C231 H226 0.950 . S
C231 C232 1.478 . S
C232 C231 1.478 . S
C232 C233 1.397 . S
C232 C249 1.394 1_655 S
C233 C232 1.397 . S
C233 C234 1.438 . S
C233 C238 1.429 . S
C234 C233 1.438 . S
C234 C235 1.428 . S
C234 C247 1.394 1_655 S
C235 H227 0.949 . S
C235 C234 1.428 . S
C235 C236 1.345 . S
C236 H228 0.950 . S
C236 C235 1.345 . S
C236 C237 1.424 . S
C237 H229 0.951 . S
C237 C236 1.424 . S
C237 C238 1.347 . S
C238 H230 0.951 . S
C238 C233 1.429 . S
C238 C237 1.347 . S
H239 C240 0.951 . S
C240 H239 0.951 . S
C240 C246 1.265 1_655 S
H241 C246 0.950 . S
H242 C250 0.949 . S
H243 C251 0.950 . S
H244 C252 0.951 . S
H245 C253 0.951 . S
C246 C240 1.265 1_455 S
C246 H241 0.950 . S
C246 C247 1.478 . S
C247 C234 1.394 1_455 S
C247 C246 1.478 . S
C247 C248 1.397 . S
C248 C247 1.397 . S
C248 C249 1.438 . S
C248 C253 1.429 . S
C249 C232 1.394 1_455 S
C249 C248 1.438 . S
C249 C250 1.428 . S
C250 H242 0.949 . S
C250 C249 1.428 . S
C250 C251 1.345 . S
C251 H243 0.950 . S
C251 C250 1.345 . S
C251 C252 1.424 . S
C252 H244 0.951 . S
C252 C251 1.424 . S
C252 C253 1.347 . S
C253 H245 0.951 . S
C253 C248 1.429 . S
C253 C252 1.347 . S
H254 C255 0.951 . S
C255 H254 0.951 . S
C255 C261 1.265 1_455 S
H256 C261 0.950 . S
H257 C265 0.946 1_455 S
H258 C266 0.950 . S
H259 C267 0.951 . S
H260 C268 0.951 . S
C261 C255 1.265 1_655 S
C261 H256 0.950 . S
C261 C262 1.478 . S
C262 C261 1.478 . S
C262 C263 1.397 . S
C262 C279 1.391 1_655 S
C263 C262 1.397 . S
C263 C264 1.440 . S
C263 C268 1.429 . S
C264 C263 1.440 . S
C264 C265 1.428 . S
C264 C277 1.391 1_655 S
C265 H257 0.946 1_655 S
C265 C264 1.428 . S
C265 C266 1.348 . S
C266 H258 0.950 . S
C266 C265 1.348 . S
C266 C267 1.424 . S
C267 H259 0.951 . S
C267 C266 1.424 . S
C267 C268 1.347 . S
C268 H260 0.951 . S
C268 C263 1.429 . S
C268 C267 1.347 . S
H269 C270 0.951 . S
C270 H269 0.951 . S
C270 C276 1.265 1_655 S
H271 C276 0.950 . S
H272 C280 0.946 1_655 S
H273 C281 0.950 . S
H274 C282 0.951 . S
H275 C283 0.951 . S
C276 C270 1.265 1_455 S
C276 H271 0.950 . S
C276 C277 1.478 . S
C277 C264 1.391 1_455 S
C277 C276 1.478 . S
C277 C278 1.397 . S
C278 C277 1.397 . S
C278 C279 1.440 . S
C278 C283 1.429 . S
C279 C262 1.391 1_455 S
C279 C278 1.440 . S
C279 C280 1.428 . S
C280 H272 0.946 1_455 S
C280 C279 1.428 . S
C280 C281 1.348 . S
C281 H273 0.950 . S
C281 C280 1.348 . S
C281 C282 1.424 . S
C282 H274 0.951 . S
C282 C281 1.424 . S
C282 C283 1.347 . S
C283 H275 0.951 . S
C283 C278 1.429 . S
C283 C282 1.347 . S
H284 C285 0.951 . S
C285 H284 0.951 . S
C285 C291 1.265 1_655 S
H286 C291 0.950 . S
H287 C295 0.949 . S
H288 C296 0.950 . S
H289 C297 0.951 . S
H290 C298 0.951 . S
C291 C285 1.265 1_455 S
C291 H286 0.950 . S
C291 C292 1.478 . S
C292 C291 1.478 . S
C292 C293 1.397 . S
C292 C309 1.394 1_455 S
C293 C292 1.397 . S
C293 C294 1.438 . S
C293 C298 1.429 . S
C294 C293 1.438 . S
C294 C295 1.428 . S
C294 C307 1.394 1_455 S
C295 H287 0.949 . S
C295 C294 1.428 . S
C295 C296 1.345 . S
C296 H288 0.950 . S
C296 C295 1.345 . S
C296 C297 1.424 . S
C297 H289 0.951 . S
C297 C296 1.424 . S
C297 C298 1.347 . S
C298 H290 0.951 . S
C298 C293 1.429 . S
C298 C297 1.347 . S
H299 C300 0.951 . S
C300 H299 0.951 . S
C300 C306 1.265 1_455 S
H301 C306 0.950 . S
H302 C310 0.949 . S
H303 C311 0.950 . S
H304 C312 0.951 . S
H305 C313 0.951 . S
C306 C300 1.265 1_655 S
C306 H301 0.950 . S
C306 C307 1.478 . S
C307 C294 1.394 1_655 S
C307 C306 1.478 . S
C307 C308 1.397 . S
C308 C307 1.397 . S
C308 C309 1.438 . S
C308 C313 1.429 . S
C309 C292 1.394 1_655 S
C309 C308 1.438 . S
C309 C310 1.428 . S
C310 H302 0.949 . S
C310 C309 1.428 . S
C310 C311 1.345 . S
C311 H303 0.950 . S
C311 C310 1.345 . S
C311 C312 1.424 . S
C312 H304 0.951 . S
C312 C311 1.424 . S
C312 C313 1.347 . S
C313 H305 0.951 . S
C313 C308 1.429 . S
C313 C312 1.347 . S
H314 C315 0.951 . S
C315 H314 0.951 . S
C315 C321 1.265 1_455 S
H316 C321 0.950 . S
H317 C325 0.949 . S
H318 C326 0.950 . S
H319 C327 0.951 . S
H320 C328 0.951 . S
C321 C315 1.265 1_655 S
C321 H316 0.950 . S
C321 C322 1.478 . S
C322 C321 1.478 . S
C322 C323 1.397 . S
C322 C339 1.394 1_655 S
C323 C322 1.397 . S
C323 C324 1.438 . S
C323 C328 1.429 . S
C324 C323 1.438 . S
C324 C325 1.428 . S
C324 C337 1.394 1_655 S
C325 H317 0.949 . S
C325 C324 1.428 . S
C325 C326 1.345 . S
C326 H318 0.950 . S
C326 C325 1.345 . S
C326 C327 1.424 . S
C327 H319 0.951 . S
C327 C326 1.424 . S
C327 C328 1.347 . S
C328 H320 0.951 . S
C328 C323 1.429 . S
C328 C327 1.347 . S
H329 C330 0.951 . S
C330 H329 0.951 . S
C330 C336 1.265 1_655 S
H331 C336 0.950 . S
H332 C340 0.949 . S
H333 C341 0.950 . S
H334 C342 0.951 . S
H335 C343 0.951 . S
C336 C330 1.265 1_455 S
C336 H331 0.950 . S
C336 C337 1.478 . S
C337 C324 1.394 1_455 S
C337 C336 1.478 . S
C337 C338 1.397 . S
C338 C337 1.397 . S
C338 C339 1.438 . S
C338 C343 1.429 . S
C339 C322 1.394 1_455 S
C339 C338 1.438 . S
C339 C340 1.428 . S
C340 H332 0.949 . S
C340 C339 1.428 . S
C340 C341 1.345 . S
C341 H333 0.950 . S
C341 C340 1.345 . S
C341 C342 1.424 . S
C342 H334 0.951 . S
C342 C341 1.424 . S
C342 C343 1.347 . S
C343 H335 0.951 . S
C343 C338 1.429 . S
C343 C342 1.347 . S
H344 C345 0.951 . S
C345 H344 0.951 . S
C345 C351 1.265 . S
H346 C351 0.950 . S
H347 C355 0.949 . S
H348 C356 0.950 . S
H349 C357 0.951 . S
H350 C358 0.951 . S
C351 C345 1.265 . S
C351 H346 0.950 . S
C351 C352 1.478 . S
C352 C351 1.478 . S
C352 C353 1.397 . S
C352 C369 1.394 . S
C353 C352 1.397 . S
C353 C354 1.438 . S
C353 C358 1.429 . S
C354 C353 1.438 . S
C354 C355 1.428 . S
C354 C367 1.394 . S
C355 H347 0.949 . S
C355 C354 1.428 . S
C355 C356 1.345 . S
C356 H348 0.950 . S
C356 C355 1.345 . S
C356 C357 1.424 . S
C357 H349 0.951 . S
C357 C356 1.424 . S
C357 C358 1.347 . S
C358 H350 0.951 . S
C358 C353 1.429 . S
C358 C357 1.347 . S
H359 C360 0.951 . S
C360 H359 0.951 . S
C360 C366 1.265 . S
H361 C366 0.950 . S
H362 C370 0.949 . S
H363 C371 0.950 . S
H364 C372 0.951 . S
H365 C373 0.951 . S
C366 C360 1.265 . S
C366 H361 0.950 . S
C366 C367 1.478 . S
C367 C354 1.394 . S
C367 C366 1.478 . S
C367 C368 1.397 . S
C368 C367 1.397 . S
C368 C369 1.438 . S
C368 C373 1.429 . S
C369 C352 1.394 . S
C369 C368 1.438 . S
C369 C370 1.428 . S
C370 H362 0.949 . S
C370 C369 1.428 . S
C370 C371 1.345 . S
C371 H363 0.950 . S
C371 C370 1.345 . S
C371 C372 1.424 . S
C372 H364 0.951 . S
C372 C371 1.424 . S
C372 C373 1.347 . S
C373 H365 0.951 . S
C373 C368 1.429 . S
C373 C372 1.347 . S
H374 C375 0.951 . S
C375 H374 0.951 . S
C375 C381 1.265 . S
H376 C381 0.950 . S
H377 C385 0.949 . S
H378 C386 0.950 . S
H379 C387 0.951 . S
H380 C388 0.951 . S
C381 C375 1.265 . S
C381 H376 0.950 . S
C381 C382 1.478 . S
C382 C381 1.478 . S
C382 C383 1.397 . S
C382 C399 1.394 . S
C383 C382 1.397 . S
C383 C384 1.438 . S
C383 C388 1.429 . S
C384 C383 1.438 . S
C384 C385 1.428 . S
C384 C397 1.394 . S
C385 H377 0.949 . S
C385 C384 1.428 . S
C385 C386 1.345 . S
C386 H378 0.950 . S
C386 C385 1.345 . S
C386 C387 1.424 . S
C387 H379 0.951 . S
C387 C386 1.424 . S
C387 C388 1.347 . S
C388 H380 0.951 . S
C388 C383 1.429 . S
C388 C387 1.347 . S
H389 C390 0.951 . S
C390 H389 0.951 . S
C390 C396 1.265 . S
H391 C396 0.950 . S
H392 C400 0.949 . S
H393 C401 0.950 . S
H394 C402 0.951 . S
H395 C403 0.951 . S
C396 C390 1.265 . S
C396 H391 0.950 . S
C396 C397 1.478 . S
C397 C384 1.394 . S
C397 C396 1.478 . S
C397 C398 1.397 . S
C398 C397 1.397 . S
C398 C399 1.438 . S
C398 C403 1.429 . S
C399 C382 1.394 . S
C399 C398 1.438 . S
C399 C400 1.428 . S
C400 H392 0.949 . S
C400 C399 1.428 . S
C400 C401 1.345 . S
C401 H393 0.950 . S
C401 C400 1.345 . S
C401 C402 1.424 . S
C402 H394 0.951 . S
C402 C401 1.424 . S
C402 C403 1.347 . S
C403 H395 0.951 . S
C403 C398 1.429 . S
C403 C402 1.347 . S
H404 C405 0.951 . S
C405 H404 0.951 . S
C405 C411 1.265 . S
H406 C411 0.950 . S
H407 C415 0.949 . S
H408 C416 0.950 . S
H409 C417 0.951 . S
H410 C418 0.951 . S
C411 C405 1.265 . S
C411 H406 0.950 . S
C411 C412 1.478 . S
C412 C411 1.478 . S
C412 C413 1.397 . S
C412 C429 1.394 . S
C413 C412 1.397 . S
C413 C414 1.438 . S
C413 C418 1.429 . S
C414 C413 1.438 . S
C414 C415 1.428 . S
C414 C427 1.394 . S
C415 H407 0.949 . S
C415 C414 1.428 . S
C415 C416 1.345 . S
C416 H408 0.950 . S
C416 C415 1.345 . S
C416 C417 1.424 . S
C417 H409 0.951 . S
C417 C416 1.424 . S
C417 C418 1.347 . S
C418 H410 0.951 . S
C418 C413 1.429 . S
C418 C417 1.347 . S
H419 C420 0.951 . S
C420 H419 0.951 . S
C420 C426 1.265 . S
H421 C426 0.950 . S
H422 C430 0.949 . S
H423 C431 0.950 . S
H424 C432 0.951 . S
H425 C433 0.951 . S
C426 C420 1.265 . S
C426 H421 0.950 . S
C426 C427 1.478 . S
C427 C414 1.394 . S
C427 C426 1.478 . S
C427 C428 1.397 . S
C428 C427 1.397 . S
C428 C429 1.438 . S
C428 C433 1.429 . S
C429 C412 1.394 . S
C429 C428 1.438 . S
C429 C430 1.428 . S
C430 H422 0.949 . S
C430 C429 1.428 . S
C430 C431 1.345 . S
C431 H423 0.950 . S
C431 C430 1.345 . S
C431 C432 1.424 . S
C432 H424 0.951 . S
C432 C431 1.424 . S
C432 C433 1.347 . S
C433 H425 0.951 . S
C433 C428 1.429 . S
C433 C432 1.347 . S
H434 C435 0.951 . S
C435 H434 0.951 . S
C435 C441 1.265 . S
H436 C441 0.950 . S
H437 C445 0.949 . S
H438 C446 0.950 . S
H439 C447 0.951 . S
H440 C448 0.951 . S
C441 C435 1.265 . S
C441 H436 0.950 . S
C441 C442 1.478 . S
C442 C441 1.478 . S
C442 C443 1.397 . S
C442 C459 1.394 . S
C443 C442 1.397 . S
C443 C444 1.438 . S
C443 C448 1.429 . S
C444 C443 1.438 . S
C444 C445 1.428 . S
C444 C457 1.394 . S
C445 H437 0.949 . S
C445 C444 1.428 . S
C445 C446 1.345 . S
C446 H438 0.950 . S
C446 C445 1.345 . S
C446 C447 1.424 . S
C447 H439 0.951 . S
C447 C446 1.424 . S
C447 C448 1.347 . S
C448 H440 0.951 . S
C448 C443 1.429 . S
C448 C447 1.347 . S
H449 C450 0.951 . S
C450 H449 0.951 . S
C450 C456 1.265 . S
H451 C456 0.950 . S
H452 C460 0.949 . S
H453 C461 0.950 . S
H454 C462 0.951 . S
H455 C463 0.951 . S
C456 C450 1.265 . S
C456 H451 0.950 . S
C456 C457 1.478 . S
C457 C444 1.394 . S
C457 C456 1.478 . S
C457 C458 1.397 . S
C458 C457 1.397 . S
C458 C459 1.438 . S
C458 C463 1.429 . S
C459 C442 1.394 . S
C459 C458 1.438 . S
C459 C460 1.428 . S
C460 H452 0.949 . S
C460 C459 1.428 . S
C460 C461 1.345 . S
C461 H453 0.950 . S
C461 C460 1.345 . S
C461 C462 1.424 . S
C462 H454 0.951 . S
C462 C461 1.424 . S
C462 C463 1.347 . S
C463 H455 0.951 . S
C463 C458 1.429 . S
C463 C462 1.347 . S
H464 C465 0.951 . S
C465 H464 0.951 . S
C465 C471 1.265 . S
H466 C471 0.950 . S
H467 C475 0.949 . S
H468 C476 0.950 . S
H469 C477 0.951 . S
H470 C478 0.951 . S
C471 C465 1.265 . S
C471 H466 0.950 . S
C471 C472 1.478 . S
C472 C471 1.478 . S
C472 C473 1.397 . S
C472 C489 1.394 . S
C473 C472 1.397 . S
C473 C474 1.438 . S
C473 C478 1.429 . S
C474 C473 1.438 . S
C474 C475 1.428 . S
C474 C487 1.394 . S
C475 H467 0.949 . S
C475 C474 1.428 . S
C475 C476 1.345 . S
C476 H468 0.950 . S
C476 C475 1.345 . S
C476 C477 1.424 . S
C477 H469 0.951 . S
C477 C476 1.424 . S
C477 C478 1.347 . S
C478 H470 0.951 . S
C478 C473 1.429 . S
C478 C477 1.347 . S
H479 C480 0.951 . S
C480 H479 0.951 . S
C480 C486 1.265 . S
H481 C486 0.950 . S
H482 C490 0.949 . S
H483 C491 0.950 . S
H484 C492 0.951 . S
H485 C493 0.951 . S
C486 C480 1.265 . S
C486 H481 0.950 . S
C486 C487 1.478 . S
C487 C474 1.394 . S
C487 C486 1.478 . S
C487 C488 1.397 . S
C488 C487 1.397 . S
C488 C489 1.438 . S
C488 C493 1.429 1_554 S
C489 C472 1.394 . S
C489 C488 1.438 . S
C489 C490 1.428 1_554 S
C490 H482 0.949 . S
C490 C489 1.428 1_556 S
C490 C491 1.345 . S
C491 H483 0.950 . S
C491 C490 1.345 . S
C491 C492 1.424 . S
C492 H484 0.951 . S
C492 C491 1.424 . S
C492 C493 1.347 . S
C493 H485 0.951 . S
C493 C488 1.429 1_556 S
C493 C492 1.347 . S
H494 C495 0.951 . S
C495 H494 0.951 . S
C495 C501 1.265 . S
H496 C501 0.950 . S
H497 C505 0.949 . S
H498 C506 0.950 . S
H499 C507 0.951 . S
H500 C508 0.951 . S
C501 C495 1.265 . S
C501 H496 0.950 . S
C501 C502 1.478 . S
C502 C501 1.478 . S
C502 C503 1.397 . S
C502 C519 1.394 . S
C503 C502 1.397 . S
C503 C504 1.438 . S
C503 C508 1.429 . S
C504 C503 1.438 . S
C504 C505 1.428 . S
C504 C517 1.394 . S
C505 H497 0.949 . S
C505 C504 1.428 . S
C505 C506 1.345 . S
C506 H498 0.950 . S
C506 C505 1.345 . S
C506 C507 1.424 . S
C507 H499 0.951 . S
C507 C506 1.424 . S
C507 C508 1.347 . S
C508 H500 0.951 . S
C508 C503 1.429 . S
C508 C507 1.347 . S
H509 C510 0.951 . S
C510 H509 0.951 . S
C510 C516 1.265 . S
H511 C516 0.950 . S
H512 C520 0.949 . S
H513 C521 0.950 . S
H514 C522 0.951 . S
H515 C523 0.951 . S
C516 C510 1.265 . S
C516 H511 0.950 . S
C516 C517 1.478 . S
C517 C504 1.394 . S
C517 C516 1.478 . S
C517 C518 1.397 . S
C518 C517 1.397 . S
C518 C519 1.438 . S
C518 C523 1.429 1_554 S
C519 C502 1.394 . S
C519 C518 1.438 . S
C519 C520 1.428 1_554 S
C520 H512 0.949 . S
C520 C519 1.428 1_556 S
C520 C521 1.345 . S
C521 H513 0.950 . S
C521 C520 1.345 . S
C521 C522 1.424 . S
C522 H514 0.951 . S
C522 C521 1.424 . S
C522 C523 1.347 . S
C523 H515 0.951 . S
C523 C518 1.429 1_556 S
C523 C522 1.347 . S
H524 C525 0.951 . S
C525 H524 0.951 . S
C525 C531 1.265 . S
H526 C531 0.950 . S
H527 C535 0.949 . S
H528 C536 0.950 . S
H529 C537 0.951 . S
H530 C538 0.951 . S
C531 C525 1.265 . S
C531 H526 0.950 . S
C531 C532 1.478 . S
C532 C531 1.478 . S
C532 C533 1.397 . S
C532 C549 1.394 . S
C533 C532 1.397 . S
C533 C534 1.438 . S
C533 C538 1.429 . S
C534 C533 1.438 . S
C534 C535 1.428 . S
C534 C547 1.394 . S
C535 H527 0.949 . S
C535 C534 1.428 . S
C535 C536 1.345 . S
C536 H528 0.950 . S
C536 C535 1.345 . S
C536 C537 1.424 . S
C537 H529 0.951 . S
C537 C536 1.424 . S
C537 C538 1.347 . S
C538 H530 0.951 . S
C538 C533 1.429 . S
C538 C537 1.347 . S
H539 C540 0.951 . S
C540 H539 0.951 . S
C540 C546 1.265 . S
H541 C546 0.950 . S
H542 C550 0.949 . S
H543 C551 0.950 . S
H544 C552 0.951 . S
H545 C553 0.951 . S
C546 C540 1.265 . S
C546 H541 0.950 . S
C546 C547 1.478 . S
C547 C534 1.394 . S
C547 C546 1.478 . S
C547 C548 1.397 . S
C548 C547 1.397 . S
C548 C549 1.438 . S
C548 C553 1.429 . S
C549 C532 1.394 . S
C549 C548 1.438 . S
C549 C550 1.428 . S
C550 H542 0.949 . S
C550 C549 1.428 . S
C550 C551 1.345 . S
C551 H543 0.950 . S
C551 C550 1.345 . S
C551 C552 1.424 . S
C552 H544 0.951 . S
C552 C551 1.424 . S
C552 C553 1.347 . S
C553 H545 0.951 . S
C553 C548 1.429 . S
C553 C552 1.347 . S
H554 C555 0.951 . S
C555 H554 0.951 . S
C555 C561 1.265 . S
H556 C561 0.950 . S
H557 C565 0.949 . S
H558 C566 0.950 . S
H559 C567 0.951 . S
H560 C568 0.951 . S
C561 C555 1.265 . S
C561 H556 0.950 . S
C561 C562 1.478 . S
C562 C561 1.478 . S
C562 C563 1.397 . S
C562 C579 1.394 . S
C563 C562 1.397 . S
C563 C564 1.438 . S
C563 C568 1.429 . S
C564 C563 1.438 . S
C564 C565 1.428 . S
C564 C577 1.394 . S
C565 H557 0.949 . S
C565 C564 1.428 . S
C565 C566 1.345 . S
C566 H558 0.950 . S
C566 C565 1.345 . S
C566 C567 1.424 . S
C567 H559 0.951 . S
C567 C566 1.424 . S
C567 C568 1.347 . S
C568 H560 0.951 . S
C568 C563 1.429 . S
C568 C567 1.347 . S
H569 C570 0.951 . S
C570 H569 0.951 . S
C570 C576 1.265 . S
H571 C576 0.950 . S
H572 C580 0.949 . S
H573 C581 0.950 . S
H574 C582 0.951 . S
H575 C583 0.951 . S
C576 C570 1.265 . S
C576 H571 0.950 . S
C576 C577 1.478 . S
C577 C564 1.394 . S
C577 C576 1.478 . S
C577 C578 1.397 . S
C578 C577 1.397 . S
C578 C579 1.438 . S
C578 C583 1.429 . S
C579 C562 1.394 . S
C579 C578 1.438 . S
C579 C580 1.428 . S
C580 H572 0.949 . S
C580 C579 1.428 . S
C580 C581 1.345 . S
C581 H573 0.950 . S
C581 C580 1.345 . S
C581 C582 1.424 . S
C582 H574 0.951 . S
C582 C581 1.424 . S
C582 C583 1.347 . S
C583 H575 0.951 . S
C583 C578 1.429 . S
C583 C582 1.347 . S
C105 C16 1.498 . S
C120 C5 1.503 . S
C135 C31 1.500 . S
C150 C44 1.500 . S
C165 C55 1.501 . S
C180 C70 1.499 . S
C195 C81 1.500 . S
C210 C94 1.500 . S
C225 C10 1.304 . S
C240 C49 1.338 . S
C255 C36 1.322 . S
C270 C17 1.307 . S
C285 C29 1.348 1_655 S
C300 C18 1.346 1_455 S
C315 C3 1.270 . S
C330 C42 1.271 . S
C345 C56 1.349 . S
C360 C95 1.367 . S
C375 C82 1.315 . S
C390 C75 1.311 . S
C405 C68 1.349 . S
C420 C83 1.346 . S
C435 C57 1.348 . S
C450 C96 1.346 . S
C465 C69 1.509 . S
C480 C4 1.509 . S
C495 C62 1.509 . S
C510 C23 1.509 . S
C525 C30 1.514 . S
C540 C101 1.514 . S
C555 C88 1.508 . S
C570 C43 1.510 . S
