# Generated by pormake.
# Topology unf, (4)-cn, num edge types: 1
# Building blocks:
#     Node 0, Type 0, BuildingBlock: NAHDIM_clean_sbu_0, # of connection points: 4
#     Node 1, Type 0, BuildingBlock: NAHDIM_clean_sbu_0, # of connection points: 4
#     Node 2, Type 0, BuildingBlock: NAHDIM_clean_sbu_0, # of connection points: 4
#     Node 3, Type 0, BuildingBlock: NAHDIM_clean_sbu_0, # of connection points: 4
#     Node 4, Type 0, BuildingBlock: NAHDIM_clean_sbu_0, # of connection points: 4
#     Node 5, Type 0, BuildingBlock: NAHDIM_clean_sbu_0, # of connection points: 4
#     Node 6, Type 0, BuildingBlock: NAHDIM_clean_sbu_0, # of connection points: 4
#     Node 7, Type 0, BuildingBlock: NAHDIM_clean_sbu_0, # of connection points: 4
#     Node 8, Type 0, BuildingBlock: NAHDIM_clean_sbu_0, # of connection points: 4
#     Node 9, Type 0, BuildingBlock: NAHDIM_clean_sbu_0, # of connection points: 4
#     Node 10, Type 0, BuildingBlock: NAHDIM_clean_sbu_0, # of connection points: 4
#     Node 11, Type 0, BuildingBlock: NAHDIM_clean_sbu_0, # of connection points: 4
#     Edge 12, Type (0, 0), BuildingBlock: AJUNOK_clean_linker_0, # of connection points: 2
#     Edge 13, Type (0, 0), BuildingBlock: AJUNOK_clean_linker_0, # of connection points: 2
#     Edge 14, Type (0, 0), BuildingBlock: AJUNOK_clean_linker_0, # of connection points: 2
#     Edge 15, Type (0, 0), BuildingBlock: AJUNOK_clean_linker_0, # of connection points: 2
#     Edge 16, Type (0, 0), BuildingBlock: AJUNOK_clean_linker_0, # of connection points: 2
#     Edge 17, Type (0, 0), BuildingBlock: AJUNOK_clean_linker_0, # of connection points: 2
#     Edge 18, Type (0, 0), BuildingBlock: AJUNOK_clean_linker_0, # of connection points: 2
#     Edge 19, Type (0, 0), BuildingBlock: AJUNOK_clean_linker_0, # of connection points: 2
#     Edge 20, Type (0, 0), BuildingBlock: AJUNOK_clean_linker_0, # of connection points: 2
#     Edge 21, Type (0, 0), BuildingBlock: AJUNOK_clean_linker_0, # of connection points: 2
#     Edge 22, Type (0, 0), BuildingBlock: AJUNOK_clean_linker_0, # of connection points: 2
#     Edge 23, Type (0, 0), BuildingBlock: AJUNOK_clean_linker_0, # of connection points: 2
#     Edge 24, Type (0, 0), BuildingBlock: AJUNOK_clean_linker_0, # of connection points: 2
#     Edge 25, Type (0, 0), BuildingBlock: AJUNOK_clean_linker_0, # of connection points: 2
#     Edge 26, Type (0, 0), BuildingBlock: AJUNOK_clean_linker_0, # of connection points: 2
#     Edge 27, Type (0, 0), BuildingBlock: AJUNOK_clean_linker_0, # of connection points: 2
#     Edge 28, Type (0, 0), BuildingBlock: AJUNOK_clean_linker_0, # of connection points: 2
#     Edge 29, Type (0, 0), BuildingBlock: AJUNOK_clean_linker_0, # of connection points: 2
#     Edge 30, Type (0, 0), BuildingBlock: AJUNOK_clean_linker_0, # of connection points: 2
#     Edge 31, Type (0, 0), BuildingBlock: AJUNOK_clean_linker_0, # of connection points: 2
#     Edge 32, Type (0, 0), BuildingBlock: AJUNOK_clean_linker_0, # of connection points: 2
#     Edge 33, Type (0, 0), BuildingBlock: AJUNOK_clean_linker_0, # of connection points: 2
#     Edge 34, Type (0, 0), BuildingBlock: AJUNOK_clean_linker_0, # of connection points: 2
#     Edge 35, Type (0, 0), BuildingBlock: AJUNOK_clean_linker_0, # of connection points: 2
# Relax obj value: 0.232
# Max RMSD: 0.176
# Mean RMSD: 0.176
data_MOF--net-unf--node1-NAHDIM_clean_sbu_0--edge1-AJUNOK_clean_linker_0
_symmetry_space_group_name_H-M    P1
_symmetry_Int_Tables_number       1
_symmetry_cell_setting            triclinic
loop_
_symmetry_equiv_pos_as_xyz
'x, y, z'
_cell_length_a     28.028139
_cell_length_b     27.860342
_cell_length_c     28.338085
_cell_angle_alpha  89.938108
_cell_angle_beta   89.765928
_cell_angle_gamma 120.07867
loop_
_atom_site_label
_atom_site_type_symbol
_atom_site_fract_x
_atom_site_fract_y
_atom_site_fract_z
_atom_type_partial_charge
C0 C 0.09231 0.3788 0.16809 0.0
O1 O 0.1204 0.41467 0.13454 0.0
O2 O -0.0059 0.38433 0.07375 0.0
Zn3 Zn 0.01932 0.33117 0.09172 0.0
O4 O 0.08359 0.34519 0.05109 0.0
C5 C 0.90793 0.2444 0.08162 0.0
O6 O 0.89819 0.28143 0.10105 0.0
O7 O 0.04423 0.3391 0.15886 0.0
C8 C 0.08091 0.31478 0.0167 0.0
O9 O 0.03315 0.27174 0.00553 0.0
C10 C -0.01763 0.38457 0.03049 0.0
O11 O -0.00947 0.35336 0.00062 0.0
O12 O 0.95744 0.25502 0.07802 0.0
C13 C 0.57029 0.70849 0.18602 0.0
O14 O 0.54666 0.71707 0.14958 0.0
O15 O 0.57501 0.60872 0.08467 0.0
Zn16 Zn 0.62389 0.68442 0.11203 0.0
O17 O 0.6192 0.74094 0.07202 0.0
C18 C 0.71072 0.65981 0.10741 0.0
O19 O 0.67076 0.61064 0.12052 0.0
O20 O 0.60451 0.69189 0.17895 0.0
C21 C 0.64227 0.75559 0.03179 0.0
O22 O 0.67173 0.73423 0.01599 0.0
C23 C 0.54213 0.60101 0.05102 0.0
O24 O 0.53495 0.64204 0.03759 0.0
O25 O 0.70125 0.69978 0.10574 0.0
C26 C 0.2759 0.866 0.18328 0.0
O27 O 0.28988 0.83965 0.15278 0.0
O28 O 0.37376 0.94749 0.08369 0.0
Zn29 Zn 0.29957 0.9359 0.10377 0.0
O30 O 0.23951 0.87427 0.0667 0.0
C31 C 0.32901 0.03443 0.05434 0.0
O32 O 0.35241 0.01279 0.02859 0.0
O33 O 0.28097 0.91238 0.17145 0.0
C34 C 0.21774 0.87823 0.02879 0.0
O35 O 0.2348 0.92731 0.00997 0.0
C36 C 0.37834 0.92234 0.04806 0.0
O37 O 0.33376 0.88044 0.03026 0.0
O38 O 0.30053 0.00772 0.09019 0.0
C39 C 0.56474 0.79829 0.36937 0.0
O40 O 0.57525 0.78034 0.4086 0.0
O41 O 0.52332 0.90713 0.44817 0.0
Zn42 Zn 0.58132 0.88858 0.42976 0.0
O43 O 0.59221 0.84753 0.48337 0.0
C44 C 0.65309 0.0053 0.40798 0.0
O45 O 0.60694 0.0041 0.39731 0.0
O46 O 0.5631 0.84313 0.37011 0.0
C47 C 0.63967 0.86264 0.50015 0.0
O48 O 0.68242 0.9081 0.48397 0.0
C49 C 0.53398 0.93676 0.48501 0.0
O50 O 0.57903 0.94943 0.50859 0.0
O51 O 0.65167 0.96073 0.42018 0.0
C52 C 0.1524 0.74159 0.34883 0.0
O53 O 0.17247 0.71868 0.37705 0.0
O54 O 0.05409 0.62697 0.43274 0.0
Zn55 Zn 0.06515 0.70262 0.41864 0.0
O56 O 0.10819 0.75483 0.47086 0.0
C57 C 0.94692 0.65006 0.40764 0.0
O58 O 0.9513 0.60811 0.39189 0.0
O59 O 0.10586 0.73684 0.35826 0.0
C60 C 0.09941 0.79435 0.48023 0.0
O61 O 0.06164 0.79846 0.45622 0.0
C62 C 0.02716 0.60515 0.47054 0.0
O63 O 0.0131 0.63458 0.49734 0.0
O64 O -0.0098 0.69521 0.41786 0.0
C65 C 0.19448 0.36609 0.34242 0.0
O66 O 0.16412 0.3258 0.37212 0.0
O67 O 0.34545 0.43885 0.43299 0.0
Zn68 Zn 0.27057 0.37985 0.41193 0.0
O69 O 0.21573 0.36909 0.46267 0.0
C70 C 0.31905 0.31212 0.39426 0.0
O71 O 0.36114 0.35949 0.38026 0.0
O72 O 0.24539 0.39731 0.35137 0.0
C73 C 0.18774 0.32341 0.48462 0.0
O74 O 0.19614 0.28204 0.47549 0.0
C75 C 0.36143 0.42568 0.47026 0.0
O76 O 0.32713 0.37896 0.49166 0.0
O77 O 0.27412 0.31004 0.40543 0.0
C78 C 0.83997 0.59611 0.84096 0.0
O79 O 0.80726 0.56613 0.87561 0.0
O80 O 0.92296 0.55467 0.92591 0.0
Zn81 Zn 0.91982 0.6243 0.91324 0.0
O82 O 0.87042 0.63055 0.96133 0.0
C83 C 0.02056 0.68602 0.95885 0.0
O84 O -0.00527 0.64254 0.98659 0.0
O85 O 0.89152 0.62451 0.84844 0.0
C86 C 0.88265 0.67405 0.98475 0.0
O87 O 0.92949 0.71976 0.97627 0.0
C88 C 0.89964 0.52548 0.96241 0.0
O89 O 0.86802 0.53734 0.98829 0.0
O90 O -0.00375 0.68877 0.92207 0.0
C91 C 0.40508 0.29083 0.81616 0.0
O92 O 0.44874 0.31419 0.84337 0.0
O93 O 0.41562 0.38246 0.91391 0.0
Zn94 Zn 0.35463 0.30571 0.89807 0.0
O95 O 0.35822 0.2491 0.93923 0.0
C96 C 0.28276 0.33563 0.94191 0.0
O97 O 0.32801 0.36571 0.96601 0.0
O98 O 0.35983 0.28507 0.83147 0.0
C99 C 0.32857 0.2259 0.97543 0.0
O100 O 0.29152 0.23891 0.98864 0.0
C101 C 0.44551 0.39149 0.95011 0.0
O102 O 0.44313 0.34919 0.97276 0.0
O103 O 0.28281 0.304 0.9096 0.0
C104 C 0.68307 0.09904 0.80476 0.0
O105 O 0.64824 0.11011 0.82652 0.0
O106 O 0.58644 0.01277 0.89921 0.0
Zn107 Zn 0.6643 0.03039 0.88648 0.0
O108 O 0.71413 0.08306 0.93576 0.0
C109 C 0.6406 0.93854 0.93773 0.0
O110 O 0.62542 0.9671 0.9644 0.0
O111 O 0.6938 0.06369 0.82268 0.0
C112 C 0.75447 0.07949 0.95177 0.0
O113 O 0.76548 0.04268 0.9337 0.0
C114 C 0.57668 0.03697 0.93269 0.0
O115 O 0.61762 0.08275 0.95002 0.0
O116 O 0.66251 0.95822 0.89774 0.0
C117 C 0.4041 0.17765 0.64363 0.0
O118 O 0.44351 0.2002 0.61176 0.0
O119 O 0.40802 0.06795 0.56335 0.0
Zn120 Zn 0.35344 0.09371 0.57302 0.0
O121 O 0.36276 0.1482 0.52239 0.0
C122 C 0.26685 0.98027 0.58382 0.0
O123 O 0.30462 0.97606 0.60781 0.0
O124 O 0.36201 0.13068 0.63537 0.0
C125 C 0.33101 0.13483 0.48696 0.0
O126 O 0.2916 0.08305 0.48206 0.0
C127 C 0.40014 0.03745 0.52756 0.0
O128 O 0.35919 0.02711 0.49912 0.0
O129 O 0.27784 0.02739 0.568 0.0
C130 C 0.7958 0.22459 0.63585 0.0
O131 O 0.76628 0.22897 0.60202 0.0
O132 O 0.90522 0.35058 0.5519 0.0
Zn133 Zn 0.88172 0.27075 0.56525 0.0
O134 O 0.82778 0.22156 0.5163 0.0
C135 C -0.00518 0.30155 0.57784 0.0
O136 O -0.00388 0.34307 0.60091 0.0
O137 O 0.84695 0.2432 0.62895 0.0
C138 C 0.84066 0.19875 0.48372 0.0
O139 O 0.89192 0.2099 0.47988 0.0
C140 C 0.93521 0.37084 0.51525 0.0
O141 O 0.9453 0.33813 0.48892 0.0
O142 O 0.94936 0.26401 0.56116 0.0
C143 C 0.75691 0.61827 0.65879 0.0
O144 O 0.79235 0.65345 0.62792 0.0
O145 O 0.60822 0.55115 0.56674 0.0
Zn146 Zn 0.68639 0.60583 0.58362 0.0
O147 O 0.73678 0.60104 0.53567 0.0
C148 C 0.65768 0.69027 0.59669 0.0
O149 O 0.61493 0.64979 0.61847 0.0
O150 O 0.7062 0.59144 0.6479 0.0
C151 C 0.75735 0.63521 0.50159 0.0
O152 O 0.74503 0.67468 0.4971 0.0
C153 C 0.58914 0.56208 0.53024 0.0
O154 O 0.62149 0.60711 0.50586 0.0
O155 O 0.69526 0.6817 0.58107 0.0
C156 C 0.1311 0.28346 0.96325 0.0
C157 C 0.13211 0.32438 0.99301 0.0
C158 C 0.17993 0.28846 0.94502 0.0
C159 C 0.23146 0.33449 0.95601 0.0
H160 H 0.09256 0.24621 0.95531 0.0
H161 H 0.17733 0.2549 0.92381 0.0
S162 S 0.25619 0.4571 0.02642 0.0
N163 N 0.18875 0.41542 0.02832 0.0
N164 N 0.28033 0.42465 0.99413 0.0
C165 C 0.23286 0.37723 0.98339 0.0
C166 C 0.18323 0.37224 0.00186 0.0
C167 C 0.67584 0.82769 0.96808 0.0
C168 C 0.63734 0.79776 0.004 0.0
C169 C 0.67514 0.87173 0.94469 0.0
C170 C 0.63598 0.88715 0.95661 0.0
H171 H 0.70805 0.81852 0.9592 0.0
H172 H 0.70697 0.8954 0.91878 0.0
S173 S 0.5206 0.81619 0.04218 0.0
N174 N 0.55486 0.78244 0.04605 0.0
N175 N 0.55383 0.86517 0.00228 0.0
C176 C 0.59524 0.8554 0.99028 0.0
C177 C 0.59585 0.81068 0.01396 0.0
C178 C 0.13968 0.83305 0.97168 0.0
C179 C 0.17091 0.828 0.00808 0.0
C180 C 0.09218 0.78656 0.95456 0.0
C181 C 0.07412 0.73338 0.97331 0.0
H182 H 0.15094 0.87337 0.95718 0.0
H183 H 0.06844 0.79275 0.92763 0.0
S184 S 0.14495 0.6966 0.06476 0.0
N185 N 0.18308 0.76456 0.05919 0.0
N186 N 0.09385 0.67751 0.02712 0.0
C187 C 0.10639 0.72733 0.00807 0.0
C188 C 0.15478 0.77455 0.02542 0.0
C189 C 0.60504 0.73775 0.57659 0.0
C190 C 0.65608 0.73994 0.58062 0.0
C191 C 0.60062 0.77926 0.55257 0.0
C192 C 0.64713 0.82483 0.53211 0.0
H193 H 0.5676 0.70215 0.58959 0.0
H194 H 0.55999 0.77434 0.54842 0.0
S195 S 0.79163 0.85415 0.5393 0.0
N196 N 0.75501 0.79427 0.56693 0.0
N197 N 0.74694 0.8727 0.52218 0.0
C198 C 0.69909 0.82969 0.53913 0.0
C199 C 0.70348 0.7871 0.56325 0.0
C200 C 0.17875 0.83545 0.53618 0.0
C201 C 0.13593 0.8387 0.51334 0.0
C202 C 0.21893 0.88022 0.56199 0.0
C203 C 0.218 0.93006 0.56569 0.0
H204 H 0.18279 0.79894 0.5325 0.0
H205 H 0.25266 0.87672 0.57673 0.0
S206 S 0.10982 0.95683 0.51943 0.0
N207 N 0.09123 0.89354 0.5014 0.0
N208 N 0.16713 0.97776 0.54958 0.0
C209 C 0.17325 0.93246 0.54608 0.0
C210 C 0.13211 0.88676 0.52 0.0
C211 C 0.09456 0.35663 0.55718 0.0
C212 C 0.04654 0.30458 0.56218 0.0
C213 C 0.14108 0.36198 0.53386 0.0
C214 C 0.14158 0.31541 0.51534 0.0
H215 H 0.09527 0.39399 0.56889 0.0
H216 H 0.17625 0.4032 0.52891 0.0
S217 S 0.02853 0.16899 0.52461 0.0
N218 N 0.00384 0.205 0.55068 0.0
N219 N 0.09164 0.21487 0.5074 0.0
C220 C 0.0952 0.26266 0.52305 0.0
C221 C 0.04754 0.25731 0.5463 0.0
C222 C 0.75993 0.61736 0.0676 0.0
C223 C 0.76019 0.66533 0.08334 0.0
C224 C 0.80061 0.62086 0.03676 0.0
C225 C 0.84357 0.67247 0.02081 0.0
H226 H 0.72658 0.57651 0.07716 0.0
H227 H 0.79746 0.58258 0.02445 0.0
S228 S 0.86714 0.81082 0.05653 0.0
N229 N 0.80992 0.76629 0.08433 0.0
N230 N 0.88681 0.77287 0.02655 0.0
C231 C 0.84643 0.72092 0.03868 0.0
C232 C 0.80465 0.71735 0.06991 0.0
C233 C 0.29084 0.14497 0.03109 0.0
C234 C 0.33276 0.18114 -0.0002 0.0
C235 C 0.29095 0.09865 0.05045 0.0
C236 C 0.33287 0.08691 0.03902 0.0
H237 H 0.25661 0.15123 0.03942 0.0
H238 H 0.2568 0.07071 0.07289 0.0
S239 S 0.45647 0.1731 0.96482 0.0
N240 N 0.42057 0.20525 0.96267 0.0
N241 N 0.4205 0.1183 0.99882 0.0
C242 C 0.3766 0.12442 0.01001 0.0
C243 C 0.37664 0.17153 0.99046 0.0
C244 C 0.87762 0.16096 0.03097 0.0
C245 C 0.86447 0.19716 0.05486 0.0
C246 C 0.84105 0.12193 0.99883 0.0
C247 C 0.78991 0.1176 0.98913 0.0
H248 H 0.91739 0.16403 0.03571 0.0
H249 H 0.85397 0.09634 0.98029 0.0
S250 S 0.73223 0.19721 0.04697 0.0
N251 N 0.79414 0.22221 0.07009 0.0
N252 N 0.7254 0.14879 0.00961 0.0
C253 C 0.77476 0.15121 0.01477 0.0
C254 C 0.81197 0.1909 0.04773 0.0
C255 C 0.2852 0.1684 0.43136 0.0
C256 C 0.33278 0.17857 0.45614 0.0
C257 C 0.28224 0.21151 0.40871 0.0
C258 C 0.32714 0.266 0.4091 0.0
H259 H 0.24874 0.12756 0.43174 0.0
H260 H 0.24373 0.20256 0.39244 0.0
S261 S 0.46326 0.31342 0.46454 0.0
N262 N 0.42738 0.2464 0.47646 0.0
N263 N 0.42202 0.32723 0.43323 0.0
C264 C 0.37629 0.27607 0.43087 0.0
C265 C 0.37904 0.23236 0.4546 0.0
C266 C 0.74476 0.15069 0.45244 0.0
C267 C 0.79646 0.15407 0.45553 0.0
C268 C 0.69923 0.10399 0.43326 0.0
C269 C 0.70361 0.05864 0.41719 0.0
H270 H 0.73879 0.18337 0.46674 0.0
H271 H 0.65962 0.102 0.434 0.0
S272 S 0.83107 0.04958 0.4117 0.0
N273 N 0.85062 0.1104 0.43614 0.0
N274 N 0.76462 0.02219 0.40088 0.0
C275 C 0.75577 0.06299 0.4171 0.0
C276 C 0.80237 0.11089 0.43602 0.0
C277 C 0.88517 0.68789 0.42555 0.0
C278 C 0.89325 0.64205 0.42355 0.0
C279 C 0.8392 0.68429 0.44854 0.0
C280 C 0.80027 0.63504 0.47124 0.0
H281 H 0.91569 0.72745 0.41071 0.0
H282 H 0.83584 0.72132 0.45063 0.0
S283 S 0.80028 0.50181 0.47291 0.0
N284 N 0.8566 0.54472 0.4432 0.0
N285 N 0.7705 0.53812 0.48707 0.0
C286 C 0.80641 0.58806 0.46744 0.0
C287 C 0.85282 0.5915 0.44336 0.0
C288 C 0.11312 0.33642 0.29001 0.0
C289 C 0.1693 0.37329 0.299 0.0
C290 C 0.0883 0.33981 0.24839 0.0
C291 C 0.11851 0.38027 0.21388 0.0
H292 H 0.088 0.30382 0.31494 0.0
H293 H 0.04523 0.30956 0.24292 0.0
S294 S 0.26613 0.48955 0.2216 0.0
N295 N 0.25389 0.45362 0.27095 0.0
N296 N 0.20727 0.46012 0.19266 0.0
C297 C 0.17434 0.41875 0.22307 0.0
C298 C 0.19971 0.41521 0.26557 0.0
C299 C 0.54622 0.76509 0.23861 0.0
C300 C 0.56311 0.72554 0.23375 0.0
C301 C 0.54526 0.78709 0.28277 0.0
C302 C 0.56049 0.76994 0.32396 0.0
H303 H 0.5357 0.78093 0.20784 0.0
H304 H 0.53366 0.81876 0.28438 0.0
S305 S 0.6016 0.66229 0.33087 0.0
N306 N 0.59115 0.66673 0.27415 0.0
N307 N 0.58866 0.70733 0.35734 0.0
C308 C 0.57464 0.72815 0.31988 0.0
C309 C 0.57619 0.7062 0.27475 0.0
C310 C 0.25289 0.79387 0.24564 0.0
C311 C 0.24747 0.83808 0.22778 0.0
C312 C 0.22266 0.76339 0.28527 0.0
C313 C 0.18496 0.77517 0.30784 0.0
H314 H 0.28038 0.78235 0.22865 0.0
H315 H 0.22793 0.72952 0.2976 0.0
S316 S 0.15699 0.88812 0.27644 0.0
N317 N 0.20298 0.89342 0.23708 0.0
N318 N 0.14557 0.83553 0.31086 0.0
C319 C 0.17976 0.8198 0.29087 0.0
C320 C 0.21123 0.85146 0.25108 0.0
C321 C 0.85306 0.63451 0.75914 0.0
C322 C 0.81727 0.5992 0.79453 0.0
C323 C 0.83305 0.64006 0.71553 0.0
C324 C 0.77635 0.61051 0.70528 0.0
H325 H 0.89707 0.65861 0.76514 0.0
H326 H 0.86253 0.66808 0.68974 0.0
S327 S 0.665 0.51131 0.78531 0.0
N328 N 0.7221 0.53326 0.81602 0.0
N329 N 0.68452 0.54369 0.734 0.0
C330 C 0.73998 0.5745 0.74011 0.0
C331 C 0.76041 0.56885 0.78468 0.0
C332 C 0.35706 0.22157 0.75251 0.0
C333 C 0.4064 0.26496 0.77096 0.0
C334 C 0.35702 0.19344 0.71166 0.0
C335 C 0.4062 0.20806 0.6871 0.0
H336 H 0.31809 0.20828 0.77028 0.0
H337 H 0.3179 0.16012 0.69913 0.0
S338 S 0.54639 0.32018 0.71965 0.0
N339 N 0.50576 0.32207 0.76108 0.0
N340 N 0.50559 0.26971 0.68364 0.0
C341 C 0.4558 0.25209 0.70459 0.0
C342 C 0.45593 0.28034 0.74668 0.0
C343 C 0.6895 0.15534 0.73362 0.0
C344 C 0.71233 0.13028 0.76168 0.0
C345 C 0.71689 0.186 0.69315 0.0
C346 C 0.76869 0.19375 0.67973 0.0
H347 H 0.64985 0.1508 0.7427 0.0
H348 H 0.69738 0.20399 0.67237 0.0
S349 S 0.84683 0.13753 0.74174 0.0
N350 N 0.79002 0.11555 0.77337 0.0
N351 N 0.84182 0.17376 0.69789 0.0
C352 C 0.79226 0.16935 0.70778 0.0
C353 C 0.76397 0.13742 0.74853 0.0
C354 C 0.96546 0.43537 0.9663 0.0
C355 C 0.95877 0.41841 0.01378 0.0
C356 C 0.94477 0.46865 0.94965 0.0
C357 C 0.9158 0.48549 0.97968 0.0
H358 H -0.01199 0.42395 0.94198 0.0
H359 H 0.95223 0.48189 0.91309 0.0
S360 S 0.88322 0.44801 0.10635 0.0
N361 N 0.91872 0.41813 0.09008 0.0
N362 N 0.87908 0.48007 0.05887 0.0
C363 C 0.90708 0.46702 0.02692 0.0
C364 C 0.92886 0.43375 0.04398 0.0
C365 C 0.53019 0.50716 0.03607 0.0
C366 C 0.51705 0.54827 0.02427 0.0
C367 C 0.50849 0.45754 0.01074 0.0
C368 C 0.47294 0.44701 0.97238 0.0
H369 H 0.55744 0.5131 0.06527 0.0
H370 H 0.5192 0.42691 0.02178 0.0
S371 S 0.42565 0.54125 0.92669 0.0
N372 N 0.46623 0.57517 0.9713 0.0
N373 N 0.42581 0.48221 0.92347 0.0
C374 C 0.46008 0.48813 0.95962 0.0
C375 C 0.48191 0.53856 0.98567 0.0
C376 C 0.4682 0.00585 0.0265 0.0
C377 C 0.42998 0.94917 0.0199 0.0
C378 C 0.51422 0.03418 0.99694 0.0
C379 C 0.52425 0.00705 0.95967 0.0
H380 H 0.46206 0.02909 0.05412 0.0
H381 H 0.54234 0.07775 0.00368 0.0
S382 S 0.43832 0.85781 0.92905 0.0
N383 N 0.40611 0.86633 0.97434 0.0
N384 N 0.4928 0.91931 0.91885 0.0
C385 C 0.48663 0.95012 0.95293 0.0
C386 C 0.43961 0.92127 0.98308 0.0
C387 C 0.45449 0.95151 0.46971 0.0
C388 C 0.49936 0.96112 0.49824 0.0
C389 C 0.42289 0.97638 0.47961 0.0
C390 C 0.43471 0.01193 0.5185 0.0
H391 H 0.44388 0.925 0.43902 0.0
H392 H 0.38899 0.96767 0.45628 0.0
S393 S 0.54689 0.04968 0.6053 0.0
N394 N 0.55336 0.00791 0.56789 0.0
N395 N 0.49389 0.05463 0.58643 0.0
C396 C 0.47902 0.02142 0.54779 0.0
C397 C 0.5113 -0.00397 0.5377 0.0
C398 C 0.9447 0.46393 0.52896 0.0
C399 C 0.96 0.43054 0.50329 0.0
C400 C 0.96738 0.52037 0.51851 0.0
C401 C 0.00638 0.54592 0.48195 0.0
H402 H 0.91458 0.44634 0.55723 0.0
H403 H 0.95349 0.54389 0.53902 0.0
S404 S 0.0624 0.47763 0.40526 0.0
N405 N 0.01812 0.42771 0.4404 0.0
N406 N 0.06056 0.53375 0.42082 0.0
C407 C 0.02265 0.51327 0.45631 0.0
C408 C -0.00048 0.45566 0.46695 0.0
C409 C 0.45373 0.51193 0.46636 0.0
C410 C 0.41883 0.45988 0.48709 0.0
C411 C 0.50863 0.54443 0.48054 0.0
C412 C 0.53095 0.52623 0.51604 0.0
H413 H 0.43865 0.52788 0.43886 0.0
H414 H 0.53364 0.58431 0.46352 0.0
S415 S 0.45752 0.39209 0.58058 0.0
N416 N 0.41097 0.39095 0.54442 0.0
N417 N 0.51411 0.45213 0.57102 0.0
C418 C 0.49662 0.47414 0.53702 0.0
C419 C 0.44062 0.44097 0.52258 0.0
loop_
_geom_bond_atom_site_label_1
_geom_bond_atom_site_label_2
_geom_bond_distance
_geom_bond_site_symmetry_2
_ccdc_geom_bond_type
C0 O1 1.160 . S
C0 O7 1.185 . S
O1 C0 1.160 . S
O2 Zn3 1.899 . S
O2 C10 1.284 . S
Zn3 O2 1.899 . S
Zn3 O4 2.032 . S
Zn3 O7 2.086 . S
Zn3 O12 1.977 1_455 S
O4 Zn3 2.032 . S
O4 C8 1.278 . S
C5 O6 1.203 . S
C5 O12 1.267 . S
O6 C5 1.203 . S
O7 C0 1.185 . S
O7 Zn3 2.086 . S
C8 O4 1.278 . S
C8 O9 1.211 1_554 S
O9 C8 1.211 1_556 S
C10 O2 1.284 . S
C10 O11 1.273 . S
O11 C10 1.273 . S
O12 Zn3 1.977 1_655 S
O12 C5 1.267 . S
C13 O14 1.160 . S
C13 O20 1.185 . S
O14 C13 1.160 . S
O15 Zn16 1.899 . S
O15 C23 1.284 . S
Zn16 O15 1.899 . S
Zn16 O17 2.032 . S
Zn16 O20 2.086 . S
Zn16 O25 1.977 . S
O17 Zn16 2.032 . S
O17 C21 1.278 . S
C18 O19 1.203 . S
C18 O25 1.267 . S
O19 C18 1.203 . S
O20 C13 1.185 . S
O20 Zn16 2.086 . S
C21 O17 1.278 . S
C21 O22 1.211 1_554 S
O22 C21 1.211 1_556 S
C23 O15 1.284 . S
C23 O24 1.273 . S
O24 C23 1.273 . S
O25 Zn16 1.977 . S
O25 C18 1.267 . S
C26 O27 1.160 . S
C26 O33 1.185 . S
O27 C26 1.160 . S
O28 Zn29 1.899 . S
O28 C36 1.284 . S
Zn29 O28 1.899 . S
Zn29 O30 2.032 . S
Zn29 O33 2.086 . S
Zn29 O38 1.977 1_565 S
O30 Zn29 2.032 . S
O30 C34 1.278 . S
C31 O32 1.203 . S
C31 O38 1.267 . S
O32 C31 1.203 . S
O33 C26 1.185 . S
O33 Zn29 2.086 . S
C34 O30 1.278 . S
C34 O35 1.211 1_554 S
O35 C34 1.211 1_556 S
C36 O28 1.284 . S
C36 O37 1.273 . S
O37 C36 1.273 . S
O38 Zn29 1.977 1_545 S
O38 C31 1.267 . S
C39 O40 1.160 . S
C39 O46 1.185 . S
O40 C39 1.160 . S
O41 Zn42 1.899 . S
O41 C49 1.284 . S
Zn42 O41 1.899 . S
Zn42 O43 2.032 . S
Zn42 O46 2.086 . S
Zn42 O51 1.977 1_565 S
O43 Zn42 2.032 . S
O43 C47 1.278 . S
C44 O45 1.203 . S
C44 O51 1.267 . S
O45 C44 1.203 . S
O46 C39 1.185 . S
O46 Zn42 2.086 . S
C47 O43 1.278 . S
C47 O48 1.211 . S
O48 C47 1.211 . S
C49 O41 1.284 . S
C49 O50 1.273 . S
O50 C49 1.273 . S
O51 Zn42 1.977 1_545 S
O51 C44 1.267 . S
C52 O53 1.160 . S
C52 O59 1.185 . S
O53 C52 1.160 . S
O54 Zn55 1.899 . S
O54 C62 1.284 . S
Zn55 O54 1.899 . S
Zn55 O56 2.032 . S
Zn55 O59 2.086 . S
Zn55 O64 1.977 1_455 S
O56 Zn55 2.032 . S
O56 C60 1.278 . S
C57 O58 1.203 . S
C57 O64 1.267 . S
O58 C57 1.203 . S
O59 C52 1.185 . S
O59 Zn55 2.086 . S
C60 O56 1.278 . S
C60 O61 1.211 . S
O61 C60 1.211 . S
C62 O54 1.284 . S
C62 O63 1.273 . S
O63 C62 1.273 . S
O64 Zn55 1.977 1_655 S
O64 C57 1.267 . S
C65 O66 1.160 . S
C65 O72 1.185 . S
O66 C65 1.160 . S
O67 Zn68 1.899 . S
O67 C75 1.284 . S
Zn68 O67 1.899 . S
Zn68 O69 2.032 . S
Zn68 O72 2.086 . S
Zn68 O77 1.977 . S
O69 Zn68 2.032 . S
O69 C73 1.278 . S
C70 O71 1.203 . S
C70 O77 1.267 . S
O71 C70 1.203 . S
O72 C65 1.185 . S
O72 Zn68 2.086 . S
C73 O69 1.278 . S
C73 O74 1.211 . S
O74 C73 1.211 . S
C75 O67 1.284 . S
C75 O76 1.273 . S
O76 C75 1.273 . S
O77 Zn68 1.977 . S
O77 C70 1.267 . S
C78 O79 1.160 . S
C78 O85 1.185 . S
O79 C78 1.160 . S
O80 Zn81 1.899 . S
O80 C88 1.284 . S
Zn81 O80 1.899 . S
Zn81 O82 2.032 . S
Zn81 O85 2.086 . S
Zn81 O90 1.977 1_655 S
O82 Zn81 2.032 . S
O82 C86 1.278 . S
C83 O84 1.203 . S
C83 O90 1.267 . S
O84 C83 1.203 . S
O85 C78 1.185 . S
O85 Zn81 2.086 . S
C86 O82 1.278 . S
C86 O87 1.211 1_556 S
O87 C86 1.211 1_554 S
C88 O80 1.284 . S
C88 O89 1.273 . S
O89 C88 1.273 . S
O90 Zn81 1.977 1_455 S
O90 C83 1.267 . S
C91 O92 1.160 . S
C91 O98 1.185 . S
O92 C91 1.160 . S
O93 Zn94 1.899 . S
O93 C101 1.284 . S
Zn94 O93 1.899 . S
Zn94 O95 2.032 . S
Zn94 O98 2.086 . S
Zn94 O103 1.977 . S
O95 Zn94 2.032 . S
O95 C99 1.278 . S
C96 O97 1.203 . S
C96 O103 1.267 . S
O97 C96 1.203 . S
O98 C91 1.185 . S
O98 Zn94 2.086 . S
C99 O95 1.278 . S
C99 O100 1.211 1_556 S
O100 C99 1.211 1_554 S
C101 O93 1.284 . S
C101 O102 1.273 . S
O102 C101 1.273 . S
O103 Zn94 1.977 . S
O103 C96 1.267 . S
C104 O105 1.160 . S
C104 O111 1.185 . S
O105 C104 1.160 . S
O106 Zn107 1.899 . S
O106 C114 1.284 . S
Zn107 O106 1.899 . S
Zn107 O108 2.032 . S
Zn107 O111 2.086 . S
Zn107 O116 1.977 1_545 S
O108 Zn107 2.032 . S
O108 C112 1.278 . S
C109 O110 1.203 . S
C109 O116 1.267 . S
O110 C109 1.203 . S
O111 C104 1.185 . S
O111 Zn107 2.086 . S
C112 O108 1.278 . S
C112 O113 1.211 1_556 S
O113 C112 1.211 1_554 S
C114 O106 1.284 . S
C114 O115 1.273 . S
O115 C114 1.273 . S
O116 Zn107 1.977 1_565 S
O116 C109 1.267 . S
C117 O118 1.160 . S
C117 O124 1.185 . S
O118 C117 1.160 . S
O119 Zn120 1.899 . S
O119 C127 1.284 . S
Zn120 O119 1.899 . S
Zn120 O121 2.032 . S
Zn120 O124 2.086 . S
Zn120 O129 1.977 1_545 S
O121 Zn120 2.032 . S
O121 C125 1.278 . S
C122 O123 1.203 . S
C122 O129 1.267 . S
O123 C122 1.203 . S
O124 C117 1.185 . S
O124 Zn120 2.086 . S
C125 O121 1.278 . S
C125 O126 1.211 . S
O126 C125 1.211 . S
C127 O119 1.284 . S
C127 O128 1.273 . S
O128 C127 1.273 . S
O129 Zn120 1.977 1_565 S
O129 C122 1.267 . S
C130 O131 1.160 . S
C130 O137 1.185 . S
O131 C130 1.160 . S
O132 Zn133 1.899 . S
O132 C140 1.284 . S
Zn133 O132 1.899 . S
Zn133 O134 2.032 . S
Zn133 O137 2.086 . S
Zn133 O142 1.977 1_655 S
O134 Zn133 2.032 . S
O134 C138 1.278 . S
C135 O136 1.203 . S
C135 O142 1.267 . S
O136 C135 1.203 . S
O137 C130 1.185 . S
O137 Zn133 2.086 . S
C138 O134 1.278 . S
C138 O139 1.211 . S
O139 C138 1.211 . S
C140 O132 1.284 . S
C140 O141 1.273 . S
O141 C140 1.273 . S
O142 Zn133 1.977 1_455 S
O142 C135 1.267 . S
C143 O144 1.160 . S
C143 O150 1.185 . S
O144 C143 1.160 . S
O145 Zn146 1.899 . S
O145 C153 1.284 . S
Zn146 O145 1.899 . S
Zn146 O147 2.032 . S
Zn146 O150 2.086 . S
Zn146 O155 1.977 . S
O147 Zn146 2.032 . S
O147 C151 1.278 . S
C148 O149 1.203 . S
C148 O155 1.267 . S
O149 C148 1.203 . S
O150 C143 1.185 . S
O150 Zn146 2.086 . S
C151 O147 1.278 . S
C151 O152 1.211 . S
O152 C151 1.211 . S
C153 O145 1.284 . S
C153 O154 1.273 . S
O154 C153 1.273 . S
O155 Zn146 1.977 . S
O155 C148 1.267 . S
C156 C157 1.369 1_556 S
C156 C158 1.419 . S
C156 H160 0.930 . S
C157 C156 1.369 1_554 S
C157 C166 1.429 . S
C158 C156 1.419 . S
C158 C159 1.363 . S
C158 H161 0.929 . S
C159 C158 1.363 . S
C159 C165 1.428 1_556 S
H160 C156 0.930 . S
H161 C158 0.929 . S
S162 N163 1.613 . S
S162 N164 1.610 . S
N163 S162 1.613 . S
N163 C166 1.350 . S
N164 S162 1.610 . S
N164 C165 1.351 . S
C165 C159 1.428 1_554 S
C165 N164 1.351 . S
C165 C166 1.434 . S
C166 C157 1.429 . S
C166 N163 1.350 . S
C166 C165 1.434 . S
C167 C168 1.369 . S
C167 C169 1.419 1_554 S
C167 H171 0.930 . S
C168 C167 1.369 . S
C168 C177 1.429 1_554 S
C169 C167 1.419 1_556 S
C169 C170 1.363 . S
C169 H172 0.929 . S
C170 C169 1.363 . S
C170 C176 1.428 . S
H171 C167 0.930 . S
H172 C169 0.929 . S
S173 N174 1.613 . S
S173 N175 1.610 . S
N174 S173 1.613 . S
N174 C177 1.350 . S
N175 S173 1.610 . S
N175 C176 1.351 . S
C176 C170 1.428 . S
C176 N175 1.351 . S
C176 C177 1.434 . S
C177 C168 1.429 1_556 S
C177 N174 1.350 . S
C177 C176 1.434 . S
C178 C179 1.369 1_556 S
C178 C180 1.419 . S
C178 H182 0.930 . S
C179 C178 1.369 1_554 S
C179 C188 1.429 . S
C180 C178 1.419 . S
C180 C181 1.363 . S
C180 H183 0.929 . S
C181 C180 1.363 . S
C181 C187 1.428 1_556 S
H182 C178 0.930 . S
H183 C180 0.929 . S
S184 N185 1.613 . S
S184 N186 1.610 . S
N185 S184 1.613 . S
N185 C188 1.350 . S
N186 S184 1.610 . S
N186 C187 1.351 . S
C187 C181 1.428 1_554 S
C187 N186 1.351 . S
C187 C188 1.434 . S
C188 C179 1.429 . S
C188 N185 1.350 . S
C188 C187 1.434 . S
C189 C190 1.369 . S
C189 C191 1.419 . S
C189 H193 0.930 . S
C190 C189 1.369 . S
C190 C199 1.429 . S
C191 C189 1.419 . S
C191 C192 1.363 . S
C191 H194 0.929 . S
C192 C191 1.363 . S
C192 C198 1.428 . S
H193 C189 0.930 . S
H194 C191 0.929 . S
S195 N196 1.613 . S
S195 N197 1.610 . S
N196 S195 1.613 . S
N196 C199 1.350 . S
N197 S195 1.610 . S
N197 C198 1.351 . S
C198 C192 1.428 . S
C198 N197 1.351 . S
C198 C199 1.434 . S
C199 C190 1.429 . S
C199 N196 1.350 . S
C199 C198 1.434 . S
C200 C201 1.369 . S
C200 C202 1.419 . S
C200 H204 0.930 . S
C201 C200 1.369 . S
C201 C210 1.429 . S
C202 C200 1.419 . S
C202 C203 1.363 . S
C202 H205 0.929 . S
C203 C202 1.363 . S
C203 C209 1.428 . S
H204 C200 0.930 . S
H205 C202 0.929 . S
S206 N207 1.613 . S
S206 N208 1.610 . S
N207 S206 1.613 . S
N207 C210 1.350 . S
N208 S206 1.610 . S
N208 C209 1.351 . S
C209 C203 1.428 . S
C209 N208 1.351 . S
C209 C210 1.434 . S
C210 C201 1.429 . S
C210 N207 1.350 . S
C210 C209 1.434 . S
C211 C212 1.369 . S
C211 C213 1.419 . S
C211 H215 0.930 . S
C212 C211 1.369 . S
C212 C221 1.429 . S
C213 C211 1.419 . S
C213 C214 1.363 . S
C213 H216 0.929 . S
C214 C213 1.363 . S
C214 C220 1.428 . S
H215 C211 0.930 . S
H216 C213 0.929 . S
S217 N218 1.613 . S
S217 N219 1.610 . S
N218 S217 1.613 . S
N218 C221 1.350 . S
N219 S217 1.610 . S
N219 C220 1.351 . S
C220 C214 1.428 . S
C220 N219 1.351 . S
C220 C221 1.434 . S
C221 C212 1.429 . S
C221 N218 1.350 . S
C221 C220 1.434 . S
C222 C223 1.369 . S
C222 C224 1.419 . S
C222 H226 0.930 . S
C223 C222 1.369 . S
C223 C232 1.429 . S
C224 C222 1.419 . S
C224 C225 1.363 1_554 S
C224 H227 0.929 . S
C225 C224 1.363 1_556 S
C225 C231 1.428 . S
H226 C222 0.930 . S
H227 C224 0.929 . S
S228 N229 1.613 1_556 S
S228 N230 1.610 . S
N229 S228 1.613 1_554 S
N229 C232 1.350 . S
N230 S228 1.610 . S
N230 C231 1.351 . S
C231 C225 1.428 . S
C231 N230 1.351 . S
C231 C232 1.434 1_556 S
C232 C223 1.429 . S
C232 N229 1.350 . S
C232 C231 1.434 1_554 S
C233 C234 1.369 1_554 S
C233 C235 1.419 . S
C233 H237 0.930 . S
C234 C233 1.369 1_556 S
C234 C243 1.429 . S
C235 C233 1.419 . S
C235 C236 1.363 . S
C235 H238 0.929 . S
C236 C235 1.363 . S
C236 C242 1.428 1_554 S
H237 C233 0.930 . S
H238 C235 0.929 . S
S239 N240 1.613 . S
S239 N241 1.610 . S
N240 S239 1.613 . S
N240 C243 1.350 . S
N241 S239 1.610 . S
N241 C242 1.351 . S
C242 C236 1.428 1_556 S
C242 N241 1.351 . S
C242 C243 1.434 . S
C243 C234 1.429 . S
C243 N240 1.350 . S
C243 C242 1.434 . S
C244 C245 1.369 . S
C244 C246 1.419 . S
C244 H248 0.930 . S
C245 C244 1.369 . S
C245 C254 1.429 . S
C246 C244 1.419 . S
C246 C247 1.363 1_554 S
C246 H249 0.929 . S
C247 C246 1.363 1_556 S
C247 C253 1.428 . S
H248 C244 0.930 . S
H249 C246 0.929 . S
S250 N251 1.613 1_556 S
S250 N252 1.610 . S
N251 S250 1.613 1_554 S
N251 C254 1.350 . S
N252 S250 1.610 . S
N252 C253 1.351 . S
C253 C247 1.428 . S
C253 N252 1.351 . S
C253 C254 1.434 1_556 S
C254 C245 1.429 . S
C254 N251 1.350 . S
C254 C253 1.434 1_554 S
C255 C256 1.369 . S
C255 C257 1.419 . S
C255 H259 0.930 . S
C256 C255 1.369 . S
C256 C265 1.429 . S
C257 C255 1.419 . S
C257 C258 1.363 . S
C257 H260 0.929 . S
C258 C257 1.363 . S
C258 C264 1.428 . S
H259 C255 0.930 . S
H260 C257 0.929 . S
S261 N262 1.613 . S
S261 N263 1.610 . S
N262 S261 1.613 . S
N262 C265 1.350 . S
N263 S261 1.610 . S
N263 C264 1.351 . S
C264 C258 1.428 . S
C264 N263 1.351 . S
C264 C265 1.434 . S
C265 C256 1.429 . S
C265 N262 1.350 . S
C265 C264 1.434 . S
C266 C267 1.369 . S
C266 C268 1.419 . S
C266 H270 0.930 . S
C267 C266 1.369 . S
C267 C276 1.429 . S
C268 C266 1.419 . S
C268 C269 1.363 . S
C268 H271 0.929 . S
C269 C268 1.363 . S
C269 C275 1.428 . S
H270 C266 0.930 . S
H271 C268 0.929 . S
S272 N273 1.613 . S
S272 N274 1.610 . S
N273 S272 1.613 . S
N273 C276 1.350 . S
N274 S272 1.610 . S
N274 C275 1.351 . S
C275 C269 1.428 . S
C275 N274 1.351 . S
C275 C276 1.434 . S
C276 C267 1.429 . S
C276 N273 1.350 . S
C276 C275 1.434 . S
C277 C278 1.369 . S
C277 C279 1.419 . S
C277 H281 0.930 . S
C278 C277 1.369 . S
C278 C287 1.429 . S
C279 C277 1.419 . S
C279 C280 1.363 . S
C279 H282 0.929 . S
C280 C279 1.363 . S
C280 C286 1.428 . S
H281 C277 0.930 . S
H282 C279 0.929 . S
S283 N284 1.613 . S
S283 N285 1.610 . S
N284 S283 1.613 . S
N284 C287 1.350 . S
N285 S283 1.610 . S
N285 C286 1.351 . S
C286 C280 1.428 . S
C286 N285 1.351 . S
C286 C287 1.434 . S
C287 C278 1.429 . S
C287 N284 1.350 . S
C287 C286 1.434 . S
C288 C289 1.369 . S
C288 C290 1.419 . S
C288 H292 0.930 . S
C289 C288 1.369 . S
C289 C298 1.429 . S
C290 C288 1.419 . S
C290 C291 1.363 . S
C290 H293 0.929 . S
C291 C290 1.363 . S
C291 C297 1.428 . S
H292 C288 0.930 . S
H293 C290 0.929 . S
S294 N295 1.613 . S
S294 N296 1.610 . S
N295 S294 1.613 . S
N295 C298 1.350 . S
N296 S294 1.610 . S
N296 C297 1.351 . S
C297 C291 1.428 . S
C297 N296 1.351 . S
C297 C298 1.434 . S
C298 C289 1.429 . S
C298 N295 1.350 . S
C298 C297 1.434 . S
C299 C300 1.369 . S
C299 C301 1.419 . S
C299 H303 0.930 . S
C300 C299 1.369 . S
C300 C309 1.429 . S
C301 C299 1.419 . S
C301 C302 1.363 . S
C301 H304 0.929 . S
C302 C301 1.363 . S
C302 C308 1.428 . S
H303 C299 0.930 . S
H304 C301 0.929 . S
S305 N306 1.613 . S
S305 N307 1.610 . S
N306 S305 1.613 . S
N306 C309 1.350 . S
N307 S305 1.610 . S
N307 C308 1.351 . S
C308 C302 1.428 . S
C308 N307 1.351 . S
C308 C309 1.434 . S
C309 C300 1.429 . S
C309 N306 1.350 . S
C309 C308 1.434 . S
C310 C311 1.369 . S
C310 C312 1.419 . S
C310 H314 0.930 . S
C311 C310 1.369 . S
C311 C320 1.429 . S
C312 C310 1.419 . S
C312 C313 1.363 . S
C312 H315 0.929 . S
C313 C312 1.363 . S
C313 C319 1.428 . S
H314 C310 0.930 . S
H315 C312 0.929 . S
S316 N317 1.613 . S
S316 N318 1.610 . S
N317 S316 1.613 . S
N317 C320 1.350 . S
N318 S316 1.610 . S
N318 C319 1.351 . S
C319 C313 1.428 . S
C319 N318 1.351 . S
C319 C320 1.434 . S
C320 C311 1.429 . S
C320 N317 1.350 . S
C320 C319 1.434 . S
C321 C322 1.369 . S
C321 C323 1.419 . S
C321 H325 0.930 . S
C322 C321 1.369 . S
C322 C331 1.429 . S
C323 C321 1.419 . S
C323 C324 1.363 . S
C323 H326 0.929 . S
C324 C323 1.363 . S
C324 C330 1.428 . S
H325 C321 0.930 . S
H326 C323 0.929 . S
S327 N328 1.613 . S
S327 N329 1.610 . S
N328 S327 1.613 . S
N328 C331 1.350 . S
N329 S327 1.610 . S
N329 C330 1.351 . S
C330 C324 1.428 . S
C330 N329 1.351 . S
C330 C331 1.434 . S
C331 C322 1.429 . S
C331 N328 1.350 . S
C331 C330 1.434 . S
C332 C333 1.369 . S
C332 C334 1.419 . S
C332 H336 0.930 . S
C333 C332 1.369 . S
C333 C342 1.429 . S
C334 C332 1.419 . S
C334 C335 1.363 . S
C334 H337 0.929 . S
C335 C334 1.363 . S
C335 C341 1.428 . S
H336 C332 0.930 . S
H337 C334 0.929 . S
S338 N339 1.613 . S
S338 N340 1.610 . S
N339 S338 1.613 . S
N339 C342 1.350 . S
N340 S338 1.610 . S
N340 C341 1.351 . S
C341 C335 1.428 . S
C341 N340 1.351 . S
C341 C342 1.434 . S
C342 C333 1.429 . S
C342 N339 1.350 . S
C342 C341 1.434 . S
C343 C344 1.369 . S
C343 C345 1.419 . S
C343 H347 0.930 . S
C344 C343 1.369 . S
C344 C353 1.429 . S
C345 C343 1.419 . S
C345 C346 1.363 . S
C345 H348 0.929 . S
C346 C345 1.363 . S
C346 C352 1.428 . S
H347 C343 0.930 . S
H348 C345 0.929 . S
S349 N350 1.613 . S
S349 N351 1.610 . S
N350 S349 1.613 . S
N350 C353 1.350 . S
N351 S349 1.610 . S
N351 C352 1.351 . S
C352 C346 1.428 . S
C352 N351 1.351 . S
C352 C353 1.434 . S
C353 C344 1.429 . S
C353 N350 1.350 . S
C353 C352 1.434 . S
C354 C355 1.369 1_556 S
C354 C356 1.419 . S
C354 H358 0.930 . S
C355 C354 1.369 1_554 S
C355 C364 1.429 1_455 S
C356 C354 1.419 . S
C356 C357 1.363 1_455 S
C356 H359 0.929 . S
C357 C356 1.363 1_655 S
C357 C363 1.428 1_556 S
H358 C354 0.930 . S
H359 C356 0.929 . S
S360 N361 1.613 . S
S360 N362 1.610 . S
N361 S360 1.613 . S
N361 C364 1.350 . S
N362 S360 1.610 . S
N362 C363 1.351 . S
C363 C357 1.428 1_554 S
C363 N362 1.351 . S
C363 C364 1.434 . S
C364 C355 1.429 1_655 S
C364 N361 1.350 . S
C364 C363 1.434 . S
C365 C366 1.369 . S
C365 C367 1.419 . S
C365 H369 0.930 . S
C366 C365 1.369 . S
C366 C375 1.429 1_554 S
C367 C365 1.419 . S
C367 C368 1.363 1_554 S
C367 H370 0.929 . S
C368 C367 1.363 1_556 S
C368 C374 1.428 . S
H369 C365 0.930 . S
H370 C367 0.929 . S
S371 N372 1.613 . S
S371 N373 1.610 . S
N372 S371 1.613 . S
N372 C375 1.350 . S
N373 S371 1.610 . S
N373 C374 1.351 . S
C374 C368 1.428 . S
C374 N373 1.351 . S
C374 C375 1.434 . S
C375 C366 1.429 1_556 S
C375 N372 1.350 . S
C375 C374 1.434 . S
C376 C377 1.369 1_545 S
C376 C378 1.419 . S
C376 H380 0.930 . S
C377 C376 1.369 1_565 S
C377 C386 1.429 1_554 S
C378 C376 1.419 . S
C378 C379 1.363 1_554 S
C378 H381 0.929 . S
C379 C378 1.363 1_556 S
C379 C385 1.428 1_545 S
H380 C376 0.930 . S
H381 C378 0.929 . S
S382 N383 1.613 . S
S382 N384 1.610 . S
N383 S382 1.613 . S
N383 C386 1.350 . S
N384 S382 1.610 . S
N384 C385 1.351 . S
C385 C379 1.428 1_565 S
C385 N384 1.351 . S
C385 C386 1.434 . S
C386 C377 1.429 1_556 S
C386 N383 1.350 . S
C386 C385 1.434 . S
C387 C388 1.369 1_545 S
C387 C389 1.419 . S
C387 H391 0.930 . S
C388 C387 1.369 1_565 S
C388 C397 1.429 . S
C389 C387 1.419 . S
C389 C390 1.363 . S
C389 H392 0.929 . S
C390 C389 1.363 . S
C390 C396 1.428 1_545 S
H391 C387 0.930 . S
H392 C389 0.929 . S
S393 N394 1.613 . S
S393 N395 1.610 . S
N394 S393 1.613 . S
N394 C397 1.350 . S
N395 S393 1.610 . S
N395 C396 1.351 . S
C396 C390 1.428 1_565 S
C396 N395 1.351 . S
C396 C397 1.434 . S
C397 C388 1.429 . S
C397 N394 1.350 . S
C397 C396 1.434 . S
C398 C399 1.369 . S
C398 C400 1.419 1_655 S
C398 H402 0.930 . S
C399 C398 1.369 . S
C399 C408 1.429 . S
C400 C398 1.419 1_455 S
C400 C401 1.363 . S
C400 H403 0.929 . S
C401 C400 1.363 . S
C401 C407 1.428 . S
H402 C398 0.930 . S
H403 C400 0.929 . S
S404 N405 1.613 . S
S404 N406 1.610 1_655 S
N405 S404 1.613 . S
N405 C408 1.350 . S
N406 S404 1.610 1_455 S
N406 C407 1.351 . S
C407 C401 1.428 . S
C407 N406 1.351 . S
C407 C408 1.434 1_455 S
C408 C399 1.429 . S
C408 N405 1.350 . S
C408 C407 1.434 1_655 S
C409 C410 1.369 . S
C409 C411 1.419 . S
C409 H413 0.930 . S
C410 C409 1.369 . S
C410 C419 1.429 . S
C411 C409 1.419 . S
C411 C412 1.363 . S
C411 H414 0.929 . S
C412 C411 1.363 . S
C412 C418 1.428 . S
H413 C409 0.930 . S
H414 C411 0.929 . S
S415 N416 1.613 . S
S415 N417 1.610 . S
N416 S415 1.613 . S
N416 C419 1.350 . S
N417 S415 1.610 . S
N417 C418 1.351 . S
C418 C412 1.428 . S
C418 N417 1.351 . S
C418 C419 1.434 . S
C419 C410 1.429 . S
C419 N416 1.350 . S
C419 C418 1.434 . S
C157 C8 0.904 . S
C159 C96 0.881 . S
C168 C21 0.903 . S
C170 C109 0.887 . S
C179 C34 0.905 . S
C181 C83 0.881 . S
C190 C148 0.897 . S
C192 C47 0.895 . S
C201 C60 0.900 . S
C203 C122 0.885 . S
C212 C135 0.896 . S
C214 C73 0.894 . S
C223 C18 0.887 . S
C225 C86 0.897 . S
C234 C99 0.896 . S
C236 C31 0.887 . S
C245 C5 0.883 . S
C247 C112 0.905 . S
C256 C125 0.907 . S
C258 C70 0.881 . S
C267 C138 0.897 . S
C269 C44 0.894 . S
C278 C57 0.878 . S
C280 C151 0.905 . S
C289 C65 1.796 . S
C291 C0 1.793 . S
C300 C13 1.798 . S
C302 C39 1.793 . S
C311 C26 1.800 . S
C313 C52 1.794 . S
C322 C78 1.792 . S
C324 C143 1.797 . S
C333 C91 1.792 . S
C335 C117 1.796 . S
C344 C104 1.798 . S
C346 C130 1.797 . S
C355 C10 1.552 . S
C357 C88 1.552 . S
C366 C23 1.549 . S
C368 C101 1.554 . S
C377 C36 1.552 . S
C379 C114 1.552 . S
C388 C49 1.550 . S
C390 C127 1.553 . S
C399 C140 1.547 . S
C401 C62 1.556 . S
C410 C75 1.547 . S
C412 C153 1.556 . S
