# Generated by pormake.
# Topology wjd, (6)-cn, num edge types: 1
# Building blocks:
#     Node 0, Type 0, BuildingBlock: BETFEN_clean_sbu_0, # of connection points: 6
#     Node 1, Type 0, BuildingBlock: BETFEN_clean_sbu_0, # of connection points: 6
#     Node 2, Type 0, BuildingBlock: BETFEN_clean_sbu_0, # of connection points: 6
#     Node 3, Type 0, BuildingBlock: BETFEN_clean_sbu_0, # of connection points: 6
#     Node 4, Type 0, BuildingBlock: BETFEN_clean_sbu_0, # of connection points: 6
#     Node 5, Type 0, BuildingBlock: BETFEN_clean_sbu_0, # of connection points: 6
#     Node 6, Type 0, BuildingBlock: BETFEN_clean_sbu_0, # of connection points: 6
#     Node 7, Type 0, BuildingBlock: BETFEN_clean_sbu_0, # of connection points: 6
#     Node 8, Type 0, BuildingBlock: BETFEN_clean_sbu_0, # of connection points: 6
#     Node 9, Type 0, BuildingBlock: BETFEN_clean_sbu_0, # of connection points: 6
#     Node 10, Type 0, BuildingBlock: BETFEN_clean_sbu_0, # of connection points: 6
#     Node 11, Type 0, BuildingBlock: BETFEN_clean_sbu_0, # of connection points: 6
#     Edge 12, Type (0, 0), BuildingBlock: XIVTED_clean_linker_0, # of connection points: 2
#     Edge 13, Type (0, 0), BuildingBlock: XIVTED_clean_linker_0, # of connection points: 2
#     Edge 14, Type (0, 0), BuildingBlock: XIVTED_clean_linker_0, # of connection points: 2
#     Edge 15, Type (0, 0), BuildingBlock: XIVTED_clean_linker_0, # of connection points: 2
#     Edge 16, Type (0, 0), BuildingBlock: XIVTED_clean_linker_0, # of connection points: 2
#     Edge 17, Type (0, 0), BuildingBlock: XIVTED_clean_linker_0, # of connection points: 2
#     Edge 18, Type (0, 0), BuildingBlock: XIVTED_clean_linker_0, # of connection points: 2
#     Edge 19, Type (0, 0), BuildingBlock: XIVTED_clean_linker_0, # of connection points: 2
#     Edge 20, Type (0, 0), BuildingBlock: XIVTED_clean_linker_0, # of connection points: 2
#     Edge 21, Type (0, 0), BuildingBlock: XIVTED_clean_linker_0, # of connection points: 2
#     Edge 22, Type (0, 0), BuildingBlock: XIVTED_clean_linker_0, # of connection points: 2
#     Edge 23, Type (0, 0), BuildingBlock: XIVTED_clean_linker_0, # of connection points: 2
#     Edge 24, Type (0, 0), BuildingBlock: XIVTED_clean_linker_0, # of connection points: 2
#     Edge 25, Type (0, 0), BuildingBlock: XIVTED_clean_linker_0, # of connection points: 2
#     Edge 26, Type (0, 0), BuildingBlock: XIVTED_clean_linker_0, # of connection points: 2
#     Edge 27, Type (0, 0), BuildingBlock: XIVTED_clean_linker_0, # of connection points: 2
#     Edge 28, Type (0, 0), BuildingBlock: XIVTED_clean_linker_0, # of connection points: 2
#     Edge 29, Type (0, 0), BuildingBlock: XIVTED_clean_linker_0, # of connection points: 2
#     Edge 30, Type (0, 0), BuildingBlock: XIVTED_clean_linker_0, # of connection points: 2
#     Edge 31, Type (0, 0), BuildingBlock: XIVTED_clean_linker_0, # of connection points: 2
#     Edge 32, Type (0, 0), BuildingBlock: XIVTED_clean_linker_0, # of connection points: 2
#     Edge 33, Type (0, 0), BuildingBlock: XIVTED_clean_linker_0, # of connection points: 2
#     Edge 34, Type (0, 0), BuildingBlock: XIVTED_clean_linker_0, # of connection points: 2
#     Edge 35, Type (0, 0), BuildingBlock: XIVTED_clean_linker_0, # of connection points: 2
#     Edge 36, Type (0, 0), BuildingBlock: XIVTED_clean_linker_0, # of connection points: 2
#     Edge 37, Type (0, 0), BuildingBlock: XIVTED_clean_linker_0, # of connection points: 2
#     Edge 38, Type (0, 0), BuildingBlock: XIVTED_clean_linker_0, # of connection points: 2
#     Edge 39, Type (0, 0), BuildingBlock: XIVTED_clean_linker_0, # of connection points: 2
#     Edge 40, Type (0, 0), BuildingBlock: XIVTED_clean_linker_0, # of connection points: 2
#     Edge 41, Type (0, 0), BuildingBlock: XIVTED_clean_linker_0, # of connection points: 2
#     Edge 42, Type (0, 0), BuildingBlock: XIVTED_clean_linker_0, # of connection points: 2
#     Edge 43, Type (0, 0), BuildingBlock: XIVTED_clean_linker_0, # of connection points: 2
#     Edge 44, Type (0, 0), BuildingBlock: XIVTED_clean_linker_0, # of connection points: 2
#     Edge 45, Type (0, 0), BuildingBlock: XIVTED_clean_linker_0, # of connection points: 2
#     Edge 46, Type (0, 0), BuildingBlock: XIVTED_clean_linker_0, # of connection points: 2
#     Edge 47, Type (0, 0), BuildingBlock: XIVTED_clean_linker_0, # of connection points: 2
# Relax obj value: 0.106
# Max RMSD: 0.220
# Mean RMSD: 0.220
data_MOF--net-wjd--node1-BETFEN_clean_sbu_0--edge1-XIVTED_clean_linker_0
_symmetry_space_group_name_H-M    P1
_symmetry_Int_Tables_number       1
_symmetry_cell_setting            triclinic
loop_
_symmetry_equiv_pos_as_xyz
'x, y, z'
_cell_length_a     41.124585
_cell_length_b     41.19823
_cell_length_c     53.150751
_cell_angle_alpha  90.0474
_cell_angle_beta   89.870836
_cell_angle_gamma 120.14833
loop_
_atom_site_label
_atom_site_type_symbol
_atom_site_fract_x
_atom_site_fract_y
_atom_site_fract_z
_atom_type_partial_charge
Pr0 Pr 0.37127 0.17698 0.11686 0.0
Pr1 Pr 0.32892 0.09996 0.13618 0.0
C2 C 0.42266 0.24835 0.1041 0.0
C3 C 0.46163 0.27975 0.10725 0.0
C4 C 0.47829 0.30491 0.08725 0.0
C5 C 0.51303 0.33767 0.09023 0.0
C6 C 0.53227 0.34614 0.11335 0.0
C7 C 0.5164 0.3197 0.13305 0.0
C8 C 0.48134 0.28682 0.13005 0.0
C9 C 0.33977 0.12003 0.07956 0.0
C10 C 0.41912 0.13793 0.13432 0.0
C11 C 0.27482 0.02736 0.13956 0.0
C12 C 0.23311 1.00584 0.14034 0.0
C13 C 0.21427 0.98519 0.16189 0.0
C14 C 0.17512 0.96178 0.16187 0.0
C15 C 0.15411 0.95834 0.14018 0.0
C16 C 0.17276 0.98045 0.11906 0.0
C17 C 0.21177 1.00398 0.11912 0.0
C18 C 0.35878 0.14967 0.17608 0.0
C19 C 0.28478 0.14977 0.12605 0.0
O20 O 0.3994 0.23975 0.12303 0.0
O21 O 0.41741 0.21918 0.09112 0.0
O22 O 0.35798 0.12068 0.09866 0.0
O23 O 0.33657 0.14984 0.07906 0.0
O24 O 0.38831 0.10522 0.13049 0.0
O25 O 0.41712 0.16862 0.13612 0.0
O26 O 0.29026 0.04406 0.11835 0.0
O27 O 0.29266 0.04731 0.15933 0.0
O28 O 0.34402 0.15542 0.15671 0.0
O29 O 0.35853 0.11799 0.1746 0.0
O30 O 0.31705 0.17954 0.12059 0.0
O31 O 0.28204 0.11707 0.13109 0.0
H32 H 0.46362 0.3 0.0695 0.0
H33 H 0.52373 0.35724 0.07466 0.0
H34 H 0.53062 0.32477 0.15097 0.0
H35 H 0.4692 0.26754 0.14571 0.0
H36 H 0.22996 0.98622 0.17851 0.0
H37 H 0.16155 0.94499 0.1784 0.0
H38 H 0.15724 0.97887 0.10221 0.0
H39 H 0.22519 0.01985 0.10224 0.0
Pr40 Pr 0.7933 0.706 0.39647 0.0
Pr41 Pr 0.83187 0.65672 0.41916 0.0
C42 C 0.77226 0.75783 0.39381 0.0
C43 C 0.79249 0.79942 0.39457 0.0
C44 C 0.80244 0.82001 0.37202 0.0
C45 C 0.82001 0.8591 0.37239 0.0
C46 C 0.82772 0.87863 0.39532 0.0
C47 C 0.81913 0.85815 0.41792 0.0
C48 C 0.80167 0.81898 0.41755 0.0
C49 C 0.81596 0.67775 0.3566 0.0
C50 C 0.88759 0.74621 0.40611 0.0
C51 C 0.85905 0.60978 0.42435 0.0
C52 C 0.84768 0.56956 0.42389 0.0
C53 C 0.8573 0.55456 0.4443 0.0
C54 C 0.85271 0.51865 0.4429 0.0
C55 C 0.83834 0.49683 0.42099 0.0
C56 C 0.82596 0.5108 0.40129 0.0
C57 C 0.83064 0.54686 0.40269 0.0
C58 C 0.80909 0.69079 0.45687 0.0
C59 C 0.73987 0.61351 0.40765 0.0
O60 O 0.77019 0.73995 0.41467 0.0
O61 O 0.7779 0.74261 0.37389 0.0
O62 O 0.81941 0.67263 0.37986 0.0
O63 O 0.79927 0.69714 0.3538 0.0
O64 O 0.88524 0.71367 0.41112 0.0
O65 O 0.85792 0.75039 0.40236 0.0
O66 O 0.85965 0.62596 0.40299 0.0
O67 O 0.84781 0.6217 0.44348 0.0
O68 O 0.8093 0.6929 0.43339 0.0
O69 O 0.82237 0.66892 0.46245 0.0
O70 O 0.73988 0.64538 0.40309 0.0
O71 O 0.77044 0.61145 0.41151 0.0
H72 H 0.79608 0.80589 0.35398 0.0
H73 H 0.82693 0.87398 0.35462 0.0
H74 H 0.82435 0.87219 0.43594 0.0
H75 H 0.79451 0.80406 0.43529 0.0
H76 H 0.87025 0.57142 0.4609 0.0
H77 H 0.8628 0.50914 0.45842 0.0
H78 H 0.81395 0.49443 0.38438 0.0
H79 H 0.82231 0.55746 0.3868 0.0
Pr80 Pr 0.85163 0.19837 0.11583 0.0
Pr81 Pr 0.9338 0.2368 0.13574 0.0
C82 C 0.77938 0.17608 0.10469 0.0
C83 C 0.74962 0.18619 0.10667 0.0
C84 C 0.72979 0.18493 0.08492 0.0
C85 C 0.69727 0.18755 0.08656 0.0
C86 C 0.6836 0.19119 0.11006 0.0
C87 C 0.70521 0.19553 0.13166 0.0
C88 C 0.73792 0.19301 0.12999 0.0
C89 C 0.90949 0.22218 0.07968 0.0
C90 C 0.89482 0.28903 0.13015 0.0
C91 C 1.00667 0.25671 0.13399 0.0
C92 C 0.02756 0.23623 0.13685 0.0
C93 C 0.05144 0.24318 0.15751 0.0
C94 C 0.07401 0.22664 0.15882 0.0
C95 C 0.07323 0.20308 0.13937 0.0
C96 C 0.04761 0.19432 0.11956 0.0
C97 C 0.02505 0.21065 0.11829 0.0
C98 C 0.88859 0.211 0.17828 0.0
C99 C 0.88249 0.14307 0.12897 0.0
O100 O 0.78965 0.16619 0.12523 0.0
O101 O 0.80711 0.19509 0.08901 0.0
O102 O 0.90865 0.24006 0.0986 0.0
O103 O 0.87919 0.18923 0.0788 0.0
O104 O 0.9277 0.29061 0.13251 0.0
O105 O 0.86293 0.25725 0.12739 0.0
O106 O 0.98542 0.24845 0.11404 0.0
O107 O 0.99145 0.262 0.15414 0.0
O108 O 0.87572 0.20665 0.15602 0.0
O109 O 0.92498 0.23006 0.17884 0.0
O110 O 0.85157 0.1448 0.1277 0.0
O111 O 0.91622 0.17337 0.12815 0.0
H112 H 0.73844 0.18007 0.0667 0.0
H113 H 0.68192 0.18511 0.06946 0.0
H114 H 0.69564 0.19844 0.15007 0.0
H115 H 0.75291 0.19454 0.14709 0.0
H116 H 0.05363 0.2624 0.1722 0.0
H117 H 0.09348 0.2339 0.17433 0.0
H118 H 0.04582 0.17567 0.10456 0.0
H119 H 1.0065 0.20398 0.10229 0.0
Pr120 Pr 0.3282 0.10025 0.39996 0.0
Pr121 Pr 0.37222 0.1763 0.41872 0.0
C122 C 0.27311 0.02812 0.39642 0.0
C123 C 0.23166 1.00703 0.39383 0.0
C124 C 0.21515 0.98638 0.3719 0.0
C125 C 0.17619 0.9628 0.37045 0.0
C126 C 0.15293 0.9591 0.39101 0.0
C127 C 0.16927 0.98141 0.41243 0.0
C128 C 0.2082 1.00515 0.41383 0.0
C129 C 0.35756 0.14903 0.35945 0.0
C130 C 0.28602 0.15146 0.4108 0.0
C131 C 0.42446 0.24731 0.43138 0.0
C132 C 0.46305 0.27889 0.42739 0.0
C133 C 0.48124 0.30309 0.44758 0.0
C134 C 0.51549 0.33619 0.44404 0.0
C135 C 0.53258 0.34593 0.42014 0.0
C136 C 0.51527 0.32043 0.40013 0.0
C137 C 0.48073 0.28719 0.40371 0.0
C138 C 0.34132 0.11976 0.45646 0.0
C139 C 0.41809 0.13609 0.4012 0.0
O140 O 0.28624 0.04561 0.4177 0.0
O141 O 0.29335 0.04706 0.37697 0.0
O142 O 0.34389 0.15569 0.37907 0.0
O143 O 0.35667 0.11708 0.36103 0.0
O144 O 0.31917 0.18079 0.41491 0.0
O145 O 0.28209 0.11804 0.40668 0.0
O146 O 0.39996 0.23916 0.41338 0.0
O147 O 0.4202 0.21786 0.44348 0.0
O148 O 0.35864 0.1199 0.43698 0.0
O149 O 0.33874 0.14992 0.45718 0.0
O150 O 0.38695 0.10416 0.40621 0.0
O151 O 0.41661 0.16687 0.39823 0.0
H152 H 0.23247 0.98752 0.35616 0.0
H153 H 0.16439 0.94655 0.35347 0.0
H154 H 0.15227 0.97911 0.42866 0.0
H155 H 0.2199 0.02089 0.43101 0.0
H156 H 0.46809 0.2972 0.46599 0.0
H157 H 0.52744 0.35507 0.45988 0.0
H158 H 0.52792 0.32657 0.38158 0.0
H159 H 0.46736 0.26866 0.38787 0.0
Pr160 Pr 0.83011 0.65665 0.11609 0.0
Pr161 Pr 0.79363 0.70559 0.13873 0.0
C162 C 0.85855 0.61091 0.1089 0.0
C163 C 0.84816 0.571 0.11154 0.0
C164 C 0.85318 0.55276 0.09088 0.0
C165 C 0.84905 0.51714 0.09353 0.0
C166 C 0.83985 0.49891 0.11701 0.0
C167 C 0.83191 0.51592 0.13726 0.0
C168 C 0.83601 0.55165 0.13457 0.0
C169 C 0.80595 0.69055 0.07995 0.0
C170 C 0.73913 0.61329 0.12951 0.0
C171 C 0.77282 0.75786 0.14118 0.0
C172 C 0.79312 0.79954 0.14079 0.0
C173 C 0.8025 0.81975 0.1635 0.0
C174 C 0.8203 0.85888 0.16342 0.0
C175 C 0.82882 0.87884 0.14062 0.0
C176 C 0.8207 0.85878 0.11789 0.0
C177 C 0.80295 0.81958 0.11797 0.0
C178 C 0.81479 0.67692 0.17909 0.0
C179 C 0.88784 0.74591 0.12956 0.0
O180 O 0.86441 0.63081 0.1294 0.0
O181 O 0.84179 0.61896 0.09114 0.0
O182 O 0.8193 0.70271 0.10149 0.0
O183 O 0.81001 0.66191 0.07482 0.0
O184 O 0.73959 0.6456 0.13236 0.0
O185 O 0.76955 0.61096 0.12604 0.0
O186 O 0.77178 0.74047 0.1203 0.0
O187 O 0.7774 0.74208 0.16115 0.0
O188 O 0.81847 0.67138 0.15592 0.0
O189 O 0.79896 0.69716 0.18159 0.0
O190 O 0.88461 0.71398 0.12163 0.0
O191 O 0.85874 0.74968 0.1363 0.0
H192 H 0.86212 0.56687 0.07287 0.0
H193 H 0.85552 0.50507 0.07753 0.0
H194 H 0.82389 0.50222 0.15544 0.0
H195 H 0.83109 0.56465 0.15073 0.0
H196 H 0.79556 0.80529 0.18143 0.0
H197 H 0.82675 0.87346 0.18128 0.0
H198 H 0.82652 0.8732 0.09998 0.0
H199 H 0.79613 0.805 0.10013 0.0
Pr200 Pr 0.93398 0.23635 0.40042 0.0
Pr201 Pr 0.85234 0.20013 0.41975 0.0
C202 C 1.0066 0.25536 0.40203 0.0
C203 C 0.02754 0.23499 0.39861 0.0
C204 C 0.04604 0.23719 0.37583 0.0
C205 C 0.06879 0.22094 0.37371 0.0
C206 C 0.07313 0.20214 0.39426 0.0
C207 C 0.0533 0.19828 0.41655 0.0
C208 C 0.03069 0.21447 0.41872 0.0
C209 C 0.8896 0.21095 0.35754 0.0
C210 C 0.88161 0.14313 0.40732 0.0
C211 C 0.77986 0.17834 0.4302 0.0
C212 C 0.75008 0.18849 0.42845 0.0
C213 C 0.72969 0.18631 0.45018 0.0
C214 C 0.69704 0.18874 0.44863 0.0
C215 C 0.68382 0.19317 0.42522 0.0
C216 C 0.70591 0.19831 0.40366 0.0
C217 C 0.73871 0.19594 0.40524 0.0
C218 C 0.90921 0.22163 0.45623 0.0
C219 C 0.89764 0.29085 0.40512 0.0
O220 O 0.98507 0.24635 0.42195 0.0
O221 O 0.99173 0.26161 0.38213 0.0
O222 O 0.87626 0.20706 0.37964 0.0
O223 O 0.92599 0.22918 0.35728 0.0
O224 O 0.85113 0.14572 0.40806 0.0
O225 O 0.91557 0.17295 0.4084 0.0
O226 O 0.79075 0.16947 0.40946 0.0
O227 O 0.80707 0.19627 0.44636 0.0
O228 O 0.90932 0.24071 0.43775 0.0
O229 O 0.87868 0.18886 0.45641 0.0
O230 O 0.92985 0.29114 0.40281 0.0
O231 O 0.86525 0.25994 0.40882 0.0
H232 H 0.04408 0.25262 0.35999 0.0
H233 H 0.08441 0.22462 0.35648 0.0
H234 H 0.05685 0.18436 0.43272 0.0
H235 H 1.01685 0.21205 0.43655 0.0
H236 H 0.73798 0.18084 0.4683 0.0
H237 H 0.68131 0.18562 0.4657 0.0
H238 H 0.69668 0.20179 0.38531 0.0
H239 H 0.75403 0.19809 0.38813 0.0
Pr240 Pr 0.10618 0.32321 0.63497 0.0
Pr241 Pr 0.18302 0.36507 0.61703 0.0
C242 C 0.03337 0.26953 0.63901 0.0
C243 C 1.01188 0.22798 0.64017 0.0
C244 C 0.98657 0.20994 0.66 0.0
C245 C 0.96329 0.17088 0.66008 0.0
C246 C 0.96473 0.14901 0.64022 0.0
C247 C 0.99152 0.16697 0.62103 0.0
C248 C 1.01489 0.206 0.62101 0.0
C249 C 0.15446 0.35278 0.67584 0.0
C250 C 0.15592 0.27897 0.62582 0.0
C251 C 0.25465 0.41618 0.60441 0.0
C252 C 0.28561 0.45533 0.60737 0.0
C253 C 0.31096 0.47189 0.58742 0.0
C254 C 0.34355 0.50674 0.59037 0.0
C255 C 0.3516 0.52616 0.61342 0.0
C256 C 0.32489 0.51043 0.63302 0.0
C257 C 0.2922 0.47527 0.63004 0.0
C258 C 0.12718 0.33319 0.57895 0.0
C259 C 0.14349 0.41315 0.6325 0.0
O260 O 0.04972 0.28452 0.61762 0.0
O261 O 0.05376 0.28753 0.65856 0.0
O262 O 0.1608 0.33801 0.65674 0.0
O263 O 0.12319 0.35319 0.67344 0.0
O264 O 0.18649 0.3116 0.62301 0.0
O265 O 0.12255 0.27604 0.62819 0.0
O266 O 0.24576 0.3937 0.62374 0.0
O267 O 0.22567 0.41015 0.59091 0.0
O268 O 0.12753 0.35212 0.59754 0.0
O269 O 0.1564 0.32892 0.57961 0.0
O270 O 0.11115 0.38219 0.6281 0.0
O271 O 0.17419 0.41134 0.63544 0.0
H272 H 0.98394 0.22621 0.67507 0.0
H273 H 0.94292 0.15805 0.67512 0.0
H274 H 0.99395 0.15093 0.60573 0.0
H275 H 0.03461 0.21895 0.60563 0.0
H276 H 0.30638 0.45704 0.56977 0.0
H277 H 0.36335 0.51737 0.5749 0.0
H278 H 0.32962 0.52483 0.65085 0.0
H279 H 0.27275 0.46321 0.64565 0.0
Pr280 Pr 0.20436 0.84536 0.92037 0.0
Pr281 Pr 0.24109 0.92715 0.90045 0.0
C282 C 0.18299 0.77318 0.93085 0.0
C283 C 0.19333 0.74364 0.92801 0.0
C284 C 0.19797 0.72688 0.94963 0.0
C285 C 0.20127 0.69477 0.94781 0.0
C286 C 0.19936 0.67813 0.92427 0.0
C287 C 0.19748 0.69663 0.90248 0.0
C288 C 0.19456 0.72903 0.90432 0.0
C289 C 0.22546 0.90231 0.95668 0.0
C290 C 0.29524 0.88984 0.90592 0.0
C291 C 0.26109 1.00004 0.90171 0.0
C292 C 0.24145 0.02174 0.89841 0.0
C293 C 0.24335 0.03963 0.87551 0.0
C294 C 0.22731 0.06251 0.87328 0.0
C295 C 0.20916 0.06811 0.89393 0.0
C296 C 0.20581 0.04882 0.91644 0.0
C297 C 0.22178 0.02601 0.91867 0.0
C298 C 0.21608 0.88201 0.85788 0.0
C299 C 0.14698 0.8745 0.90751 0.0
O300 O 0.172 0.78353 0.91085 0.0
O301 O 0.20252 0.80077 0.94646 0.0
O302 O 0.2446 0.90276 0.93804 0.0
O303 O 0.19323 0.87121 0.95731 0.0
O304 O 0.29583 0.92218 0.90337 0.0
O305 O 0.26393 0.8577 0.90926 0.0
O306 O 0.25192 0.97874 0.92169 0.0
O307 O 0.26666 0.9846 0.88181 0.0
O308 O 0.21203 0.86923 0.88016 0.0
O309 O 0.23452 0.91835 0.85734 0.0
O310 O 0.14973 0.84424 0.90966 0.0
O311 O 0.177 0.90852 0.90721 0.0
H312 H 0.19742 0.73769 0.96812 0.0
H313 H 0.20392 0.68225 0.965 0.0
H314 H 0.19588 0.68494 0.88398 0.0
H315 H 0.19142 0.74147 0.88723 0.0
H316 H 0.25801 0.03671 0.8595 0.0
H317 H 0.22988 0.07649 0.85552 0.0
H318 H 0.19247 0.05275 0.93282 0.0
H319 H 0.21964 0.01269 0.93662 0.0
Pr320 Pr 0.70886 0.78999 0.63521 0.0
Pr321 Pr 0.66482 0.82453 0.61473 0.0
C322 C 0.7626 0.77145 0.63259 0.0
C323 C 0.8039 0.79147 0.63607 0.0
C324 C 0.82005 0.78545 0.65755 0.0
C325 C 0.85915 0.80147 0.65931 0.0
C326 C 0.88252 0.82344 0.6395 0.0
C327 C 0.86651 0.83131 0.61881 0.0
C328 C 0.82772 0.81552 0.61707 0.0
C329 C 0.68805 0.8125 0.67818 0.0
C330 C 0.75121 0.88398 0.62734 0.0
C331 C 0.61408 0.84497 0.60207 0.0
C332 C 0.57522 0.837 0.60616 0.0
C333 C 0.55582 0.84099 0.58583 0.0
C334 C 0.5215 0.8396 0.58962 0.0
C335 C 0.50612 0.83432 0.61384 0.0
C336 C 0.52427 0.82806 0.63403 0.0
C337 C 0.55858 0.82918 0.6302 0.0
C338 C 0.69883 0.80067 0.57849 0.0
C339 C 0.6178 0.73514 0.63154 0.0
O340 O 0.75072 0.78205 0.61322 0.0
O341 O 0.74107 0.76388 0.65252 0.0
O342 O 0.67865 0.81778 0.65627 0.0
O343 O 0.70587 0.79401 0.67789 0.0
O344 O 0.71891 0.88108 0.62159 0.0
O345 O 0.75466 0.85433 0.63158 0.0
O346 O 0.63794 0.86015 0.6206 0.0
O347 O 0.61889 0.82076 0.58907 0.0
O348 O 0.6803 0.78299 0.59756 0.0
O349 O 0.70109 0.83327 0.5775 0.0
O350 O 0.64975 0.73477 0.63295 0.0
O351 O 0.61692 0.76629 0.62816 0.0
H352 H 0.80243 0.76731 0.67254 0.0
H353 H 0.87089 0.79496 0.67545 0.0
H354 H 0.88399 0.8486 0.60345 0.0
H355 H 0.81648 0.82126 0.60033 0.0
H356 H 0.56812 0.847 0.56716 0.0
H357 H 0.50798 0.84469 0.57386 0.0
H358 H 0.5127 0.82389 0.65286 0.0
H359 H 0.57283 0.82562 0.64616 0.0
Pr360 Pr 0.18247 0.36546 0.91827 0.0
Pr361 Pr 0.10608 0.32292 0.90103 0.0
C362 C 0.25409 0.41606 0.93098 0.0
C363 C 0.28535 0.45515 0.92873 0.0
C364 C 0.31028 0.47055 0.94897 0.0
C365 C 0.34398 0.50448 0.94627 0.0
C366 C 0.3532 0.5239 0.9233 0.0
C367 C 0.32692 0.51011 0.90357 0.0
C368 C 0.29319 0.47575 0.9062 0.0
C369 C 0.12764 0.33273 0.95683 0.0
C370 C 0.14202 0.41251 0.90305 0.0
C371 C 0.03351 0.26908 0.89611 0.0
C372 C 1.01214 0.22742 0.8956 0.0
C373 C 1.00039 0.20806 0.87264 0.0
C374 C 0.97782 0.16894 0.87223 0.0
C375 C 0.96609 0.14825 0.89479 0.0
C376 C 0.97923 0.16757 0.91771 0.0
C377 C 1.00198 0.20662 0.91811 0.0
C378 C 0.15428 0.35299 0.85991 0.0
C379 C 0.1563 0.27967 0.90961 0.0
O380 O 0.2451 0.39457 0.91112 0.0
O381 O 0.22521 0.40943 0.94489 0.0
O382 O 0.12709 0.35176 0.93861 0.0
O383 O 0.15633 0.32774 0.95506 0.0
O384 O 0.11002 0.38139 0.90778 0.0
O385 O 0.17307 0.41137 0.90013 0.0
O386 O 0.04858 0.28497 0.91756 0.0
O387 O 0.05505 0.28649 0.87682 0.0
O388 O 0.16059 0.33806 0.87883 0.0
O389 O 0.12299 0.35326 0.86255 0.0
O390 O 0.1865 0.31291 0.91048 0.0
O391 O 0.12248 0.27607 0.90945 0.0
H392 H 0.30466 0.45528 0.96653 0.0
H393 H 0.36369 0.51476 0.96178 0.0
H394 H 0.3335 0.52467 0.88568 0.0
H395 H 0.2742 0.4645 0.89035 0.0
H396 H 1.00797 0.2232 0.85496 0.0
H397 H 0.96897 0.155 0.85419 0.0
H398 H 0.97058 0.1528 0.93549 0.0
H399 H 1.01065 0.22053 0.93618 0.0
Pr400 Pr 0.24136 0.92496 0.63663 0.0
Pr401 Pr 0.20521 0.84728 0.61801 0.0
C402 C 0.25924 0.99737 0.64031 0.0
C403 C 0.23918 0.01882 0.642 0.0
C404 C 0.24943 0.04648 0.66054 0.0
C405 C 0.23416 0.07016 0.66057 0.0
C406 C 0.20826 0.06677 0.64198 0.0
C407 C 0.19652 0.03767 0.62419 0.0
C408 C 0.21175 0.01396 0.6242 0.0
C409 C 0.22572 0.87663 0.67654 0.0
C410 C 0.14673 0.87473 0.62784 0.0
C411 C 0.18368 0.77494 0.60749 0.0
C412 C 0.19349 0.74491 0.60924 0.0
C413 C 0.1923 0.72535 0.58733 0.0
C414 C 0.19495 0.69285 0.58863 0.0
C415 C 0.1985 0.67879 0.61196 0.0
C416 C 0.20243 0.69996 0.63377 0.0
C417 C 0.1999 0.73266 0.63244 0.0
C418 C 0.231 0.90351 0.5801 0.0
C419 C 0.29397 0.88715 0.63193 0.0
O420 O 0.2564 0.98037 0.61901 0.0
O421 O 0.25843 0.97772 0.65989 0.0
O422 O 0.20273 0.86974 0.65838 0.0
O423 O 0.25693 0.90844 0.67389 0.0
O424 O 0.14886 0.84494 0.62233 0.0
O425 O 0.177 0.90741 0.63265 0.0
O426 O 0.17414 0.78552 0.62806 0.0
O427 O 0.20238 0.8024 0.59164 0.0
O428 O 0.2485 0.90318 0.59929 0.0
O429 O 0.19794 0.87345 0.57959 0.0
O430 O 0.29595 0.92018 0.62979 0.0
O431 O 0.26123 0.85642 0.63399 0.0
H432 H 0.27034 0.05069 0.67451 0.0
H433 H 0.24408 0.09228 0.6745 0.0
H434 H 0.17601 0.03359 0.60995 0.0
H435 H 0.20276 0.99251 0.60982 0.0
H436 H 0.18763 0.73429 0.5692 0.0
H437 H 0.19285 0.67798 0.57135 0.0
H438 H 0.2052 0.69014 0.6521 0.0
H439 H 0.20126 0.74732 0.64968 0.0
Pr440 Pr 0.66584 0.82758 0.92134 0.0
Pr441 Pr 0.70903 0.79006 0.90268 0.0
C442 C 0.61493 0.84826 0.93341 0.0
C443 C 0.57591 0.83984 0.9293 0.0
C444 C 0.55737 0.84622 0.94912 0.0
C445 C 0.52248 0.84345 0.94537 0.0
C446 C 0.50508 0.83411 0.9216 0.0
C447 C 0.52272 0.82544 0.90204 0.0
C448 C 0.55788 0.82831 0.90585 0.0
C449 C 0.69722 0.80202 0.95841 0.0
C450 C 0.61733 0.73918 0.90347 0.0
C451 C 0.76183 0.77022 0.90602 0.0
C452 C 0.80302 0.7892 0.90155 0.0
C453 C 0.81767 0.78485 0.87871 0.0
C454 C 0.85654 0.8007 0.87549 0.0
C455 C 0.88157 0.82109 0.89508 0.0
C456 C 0.86697 0.82686 0.91746 0.0
C457 C 0.82824 0.81107 0.92067 0.0
C458 C 0.6916 0.81484 0.85902 0.0
C459 C 0.7522 0.8841 0.90908 0.0
O460 O 0.63886 0.86309 0.91482 0.0
O461 O 0.61989 0.82451 0.94676 0.0
O462 O 0.67875 0.78463 0.9393 0.0
O463 O 0.70145 0.83553 0.95881 0.0
O464 O 0.6481 0.73647 0.90516 0.0
O465 O 0.6192 0.77197 0.90424 0.0
O466 O 0.75127 0.78303 0.92496 0.0
O467 O 0.73931 0.76113 0.88655 0.0
O468 O 0.68188 0.81981 0.88084 0.0
O469 O 0.70903 0.79599 0.85965 0.0
O470 O 0.71946 0.88216 0.91032 0.0
O471 O 0.75535 0.85376 0.90971 0.0
H472 H 0.57069 0.85498 0.96737 0.0
H473 H 0.51023 0.85074 0.96087 0.0
H474 H 0.50984 0.8174 0.88364 0.0
H475 H 0.57143 0.82267 0.89031 0.0
H476 H 0.79909 0.7685 0.86353 0.0
H477 H 0.86694 0.79623 0.85785 0.0
H478 H 0.88529 0.842 0.93304 0.0
H479 H 0.81808 0.81518 0.93854 0.0
H480 H 0.09806 0.17497 0.17729 0.0
H481 H 0.26406 0.18589 0.09296 0.0
H482 H 0.11394 0.20472 0.09857 0.0
H483 H 0.23064 0.12407 0.16265 0.0
H484 H 0.21063 0.19611 0.09636 0.0
H485 H 0.14817 0.15903 0.17421 0.0
C486 C 0.11193 0.17796 0.15939 0.0
C487 C 0.10169 0.191 0.13812 0.0
C488 C 0.21474 0.18011 0.11089 0.0
C489 C 0.15889 0.17321 0.13454 0.0
C490 C 0.24521 0.17432 0.10892 0.0
C491 C 0.25126 0.15377 0.12738 0.0
C492 C 0.19063 0.16604 0.13183 0.0
C493 C 0.22631 0.13951 0.14782 0.0
C494 C 0.14033 0.16873 0.15762 0.0
C495 C 0.12045 0.19425 0.11536 0.0
N496 N 0.19716 0.14623 0.14967 0.0
N497 N 0.1482 0.18567 0.11424 0.0
H498 H 0.12225 0.88772 0.37305 0.0
H499 H 0.91009 0.82094 0.41253 0.0
H500 H 0.09183 0.96219 0.4099 0.0
H501 H 0.95198 0.7464 0.39431 0.0
H502 H 0.97435 0.87461 0.40802 0.0
H503 H 0.05728 0.8374 0.37592 0.0
C504 C 0.1018 0.89371 0.38143 0.0
C505 C 0.11261 0.92938 0.39114 0.0
C506 C 0.9693 0.84645 0.40503 0.0
C507 C 0.03789 0.87126 0.39506 0.0
C508 C 0.93273 0.8159 0.40751 0.0
C509 C 0.92573 0.77921 0.4038 0.0
C510 C 0.99873 0.84009 0.39834 0.0
C511 C 0.95606 0.77416 0.39753 0.0
C512 C 0.0647 0.86475 0.38334 0.0
C513 C 0.08481 0.93504 0.40233 0.0
N514 N 0.99108 0.80421 0.39487 0.0
N515 N 0.04865 0.90623 0.40402 0.0
H516 H 0.83685 0.08926 0.1616 0.0
H517 H 0.88109 0.93365 0.10911 0.0
H518 H 0.91963 0.11318 0.10383 0.0
H519 H 0.80748 0.9175 0.17182 0.0
H520 H 0.89799 0.9998 0.10733 0.0
H521 H 0.82824 0.02656 0.16636 0.0
C522 C 0.85316 0.08108 0.14989 0.0
C523 C 0.87885 0.10605 0.13228 0.0
C524 C 0.87846 0.98177 0.12163 0.0
C525 C 0.86886 0.03423 0.13725 0.0
C526 C 0.86867 0.944 0.12259 0.0
C527 C 0.8427 0.91984 0.1406 0.0
C528 C 0.862 0.99535 0.13871 0.0
C529 C 0.82794 0.93498 0.15781 0.0
C530 C 0.84837 0.04538 0.15263 0.0
C531 C 0.89969 0.09453 0.11772 0.0
N532 N 0.8376 0.97157 0.15631 0.0
N533 N 0.89393 0.05914 0.12031 0.0
H534 H 0.28326 0.21393 0.42378 0.0
H535 H 0.07052 0.13666 0.37979 0.0
H536 H 0.21445 0.10226 0.39376 0.0
H537 H 0.14379 0.24691 0.40998 0.0
H538 H 0.12192 0.12244 0.38375 0.0
H539 H 0.23129 0.22528 0.41858 0.0
C540 C 0.25709 0.19163 0.41618 0.0
C541 C 0.25325 0.15703 0.40923 0.0
C542 C 0.12672 0.14977 0.38939 0.0
C543 C 0.19323 0.17006 0.40299 0.0
C544 C 0.09757 0.15785 0.38702 0.0
C545 C 0.10342 0.19303 0.39445 0.0
C546 C 0.16153 0.1771 0.39937 0.0
C547 C 0.13853 0.21958 0.40393 0.0
C548 C 0.22733 0.19819 0.41315 0.0
C549 C 0.21855 0.12928 0.39949 0.0
N550 N 0.1662 0.21106 0.40616 0.0
N551 N 0.18981 0.13642 0.39657 0.0
H552 H 0.09817 0.94078 0.17531 0.0
H553 H 0.94743 0.75992 0.09994 0.0
H554 H 0.11801 0.90952 0.10182 0.0
H555 H 0.91521 0.8068 0.16116 0.0
H556 H 1.01136 0.81297 0.1024 0.0
H557 H 0.03214 0.89028 0.17262 0.0
C558 C 0.08861 0.92341 0.15861 0.0
C559 C 0.11357 0.92947 0.1387 0.0
C560 C 0.99036 0.81184 0.11527 0.0
C561 C 0.03848 0.87174 0.13559 0.0
C562 C 0.95386 0.78147 0.11393 0.0
C563 C 0.92604 0.779 0.1304 0.0
C564 C 0.99941 0.83981 0.13347 0.0
C565 C 0.93586 0.80785 0.14802 0.0
C566 C 0.05096 0.89477 0.15704 0.0
C567 C 0.09969 0.90625 0.11745 0.0
N568 N 0.97192 0.83699 0.14926 0.0
N569 N 0.06324 0.87834 0.11655 0.0
H570 H 0.8781 0.9328 0.42792 0.0
H571 H 0.83923 0.09084 0.37286 0.0
H572 H 0.80796 0.918 0.36358 0.0
H573 H 0.91449 0.11127 0.43484 0.0
H574 H 0.83056 0.02803 0.36812 0.0
H575 H 0.89468 0.99879 0.43001 0.0
C576 C 0.86633 0.94338 0.41416 0.0
C577 C 0.84142 0.91962 0.3956 0.0
C578 C 0.84898 0.04609 0.38281 0.0
C579 C 0.86048 0.99507 0.39782 0.0
C580 C 0.85379 0.08184 0.38552 0.0
C581 C 0.87743 0.10584 0.40428 0.0
C582 C 0.86735 0.03396 0.39935 0.0
C583 C 0.89615 0.09335 0.42007 0.0
C584 C 0.87597 0.9811 0.41531 0.0
C585 C 0.8276 0.93514 0.37804 0.0
N586 N 0.8904 0.05797 0.41743 0.0
N587 N 0.83713 0.9717 0.3797 0.0
H588 H 0.19198 0.10159 0.68037 0.0
H589 H 0.15603 0.23452 0.58798 0.0
H590 H 0.19636 0.09708 0.59934 0.0
H591 H 0.16521 0.24843 0.66842 0.0
H592 H 0.16552 0.18041 0.59195 0.0
H593 H 0.17694 0.15176 0.67664 0.0
C594 C 0.18975 0.11103 0.66179 0.0
C595 C 0.19571 0.09502 0.64015 0.0
C596 C 0.16527 0.19512 0.60877 0.0
C597 C 0.17809 0.15243 0.63575 0.0
C598 C 0.15975 0.22582 0.60647 0.0
C599 C 0.15948 0.24535 0.62793 0.0
C600 C 0.17074 0.1841 0.63273 0.0
C601 C 0.16485 0.23358 0.65149 0.0
C602 C 0.18101 0.13964 0.65968 0.0
C603 C 0.19162 0.10808 0.61659 0.0
N604 N 0.17031 0.20371 0.65329 0.0
N605 N 0.18326 0.13603 0.61504 0.0
H606 H 0.12472 0.92688 0.91444 0.0
H607 H 0.91238 0.78181 0.87473 0.0
H608 H 0.08262 0.8109 0.89448 0.0
H609 H 0.9432 0.88643 0.91215 0.0
H610 H 0.97765 0.79724 0.87622 0.0
H611 H 0.06081 0.91679 0.90945 0.0
C612 C 0.10214 0.89941 0.90895 0.0
C613 C 0.109 0.86967 0.9049 0.0
C614 C 0.97026 0.81698 0.88401 0.0
C615 C 0.03634 0.85816 0.89889 0.0
C616 C 0.93296 0.80838 0.88289 0.0
C617 C 0.92212 0.83277 0.89337 0.0
C618 C 0.99721 0.85026 0.89572 0.0
C619 C 0.95019 0.86653 0.90412 0.0
C620 C 0.06575 0.89367 0.90615 0.0
C621 C 0.0787 0.83461 0.89795 0.0
N622 N 0.98647 0.87424 0.90513 0.0
N623 N 0.04386 0.82992 0.89509 0.0
H624 H 0.77996 0.93647 0.59041 0.0
H625 H 0.93656 0.09632 0.67825 0.0
H626 H 0.79754 0.9168 0.66744 0.0
H627 H 0.92779 0.10877 0.59833 0.0
H628 H 0.88606 0.03076 0.67511 0.0
H629 H 0.83457 0.99994 0.59316 0.0
C630 C 0.79547 0.9457 0.6079 0.0
C631 C 0.78464 0.92165 0.62869 0.0
C632 C 0.89544 0.04779 0.65824 0.0
C633 C 0.84653 0.99423 0.63226 0.0
C634 C 0.92417 0.08527 0.66003 0.0
C635 C 0.93648 0.10823 0.63853 0.0
C636 C 0.87866 0.03318 0.63481 0.0
C637 C 0.91964 0.09216 0.61538 0.0
C638 C 0.82662 0.98182 0.6095 0.0
C639 C 0.80548 0.93461 0.65095 0.0
N640 N 0.89151 0.05581 0.61418 0.0
N641 N 0.8353 0.97022 0.65225 0.0
H642 H 0.10503 0.20532 0.91957 0.0
H643 H 0.24559 0.13706 0.8714 0.0
H644 H 0.21848 0.27874 0.89354 0.0
H645 H 0.14606 0.06508 0.91483 0.0
H646 H 0.23015 0.1867 0.87398 0.0
H647 H 0.11485 0.15147 0.91402 0.0
C648 C 0.13189 0.21007 0.91268 0.0
C649 C 0.16101 0.24653 0.9071 0.0
C650 C 0.21154 0.16 0.88288 0.0
C651 C 0.17215 0.18541 0.90031 0.0
C652 C 0.22011 0.13139 0.88114 0.0
C653 C 0.19722 0.09675 0.89299 0.0
C654 C 0.1798 0.15417 0.89656 0.0
C655 C 0.16486 0.09151 0.90572 0.0
C656 C 0.13747 0.17943 0.90953 0.0
C657 C 0.19531 0.2512 0.89829 0.0
N658 N 0.15718 0.11999 0.90728 0.0
N659 N 0.19981 0.22106 0.89507 0.0
H660 H 0.08793 0.83255 0.59731 0.0
H661 H 0.93667 0.85724 0.67629 0.0
H662 H 0.1203 0.90698 0.66116 0.0
H663 H 0.91918 0.81335 0.60073 0.0
H664 H 1.00281 0.87275 0.67356 0.0
H665 H 0.0243 0.82212 0.60047 0.0
C666 C 0.08153 0.84682 0.61195 0.0
C667 C 0.10923 0.87082 0.62888 0.0
C668 C 0.98443 0.85998 0.65758 0.0
C669 C 0.03631 0.85855 0.63299 0.0
C670 C 0.94681 0.85101 0.65917 0.0
C671 C 0.92266 0.8343 0.63863 0.0
C672 C 0.99744 0.85146 0.63546 0.0
C673 C 0.93701 0.82676 0.61685 0.0
C674 C 0.04525 0.84092 0.61376 0.0
C675 C 0.09963 0.88865 0.64755 0.0
N676 N 0.97332 0.83521 0.61591 0.0
N677 N 0.0637 0.88188 0.64929 0.0
H678 H 0.90614 0.11058 0.86299 0.0
H679 H 0.81818 0.91372 0.93543 0.0
H680 H 0.96063 0.09238 0.92639 0.0
H681 H 0.76242 0.93859 0.87635 0.0
H682 H 0.87302 0.97725 0.93089 0.0
H683 H 0.85668 0.04527 0.86514 0.0
C684 C 0.90813 0.09281 0.87717 0.0
C685 C 0.93775 0.10735 0.8946 0.0
C686 C 0.84892 0.96866 0.91877 0.0
C687 C 0.88009 0.0322 0.89763 0.0
C688 C 0.81779 0.9325 0.92133 0.0
C689 C 0.786 0.92125 0.90624 0.0
C690 C 0.84829 0.99322 0.90066 0.0
C691 C 0.78641 0.9465 0.88846 0.0
C692 C 0.8795 0.05546 0.87856 0.0
C693 C 0.93807 0.08274 0.91282 0.0
N694 N 0.8171 0.98122 0.88609 0.0
N695 N 0.90955 0.04644 0.91397 0.0
H696 H 0.2951 0.12267 0.33076 0.0
H697 H 0.4154 0.20358 0.20448 0.0
H698 H 0.41415 0.20113 0.32993 0.0
H699 H 0.29711 0.12224 0.20588 0.0
H700 H 0.41339 0.21216 0.25013 0.0
H701 H 0.29306 0.13072 0.28522 0.0
C702 C 0.32056 0.14272 0.32104 0.0
C703 C 0.35472 0.1619 0.33409 0.0
C704 C 0.38766 0.19303 0.24041 0.0
C705 C 0.35298 0.17048 0.28183 0.0
C706 C 0.38878 0.18848 0.21434 0.0
C707 C 0.35626 0.16277 0.20146 0.0
C708 C 0.35388 0.17108 0.25372 0.0
C709 C 0.32263 0.14296 0.21513 0.0
C710 C 0.31951 0.14702 0.295 0.0
C711 C 0.38718 0.18643 0.32056 0.0
N712 N 0.32239 0.14719 0.24053 0.0
N713 N 0.38559 0.18983 0.29514 0.0
H714 H 0.77915 0.61188 0.33094 0.0
H715 H 0.87949 0.72072 0.20472 0.0
H716 H 0.87918 0.72063 0.32944 0.0
H717 H 0.77876 0.6125 0.20635 0.0
H718 H 0.88818 0.71501 0.2498 0.0
H719 H 0.78667 0.60521 0.28577 0.0
C720 C 0.80389 0.63346 0.32138 0.0
C721 C 0.82925 0.66629 0.33422 0.0
C722 C 0.86484 0.69185 0.24022 0.0
C723 C 0.83703 0.65994 0.28197 0.0
C724 C 0.86025 0.69482 0.21431 0.0
C725 C 0.82889 0.66651 0.20153 0.0
C726 C 0.83749 0.66054 0.25368 0.0
C727 C 0.8039 0.63443 0.21525 0.0
C728 C 0.80782 0.63001 0.29541 0.0
C729 C 0.85966 0.69432 0.32048 0.0
N730 N 0.80839 0.63256 0.24055 0.0
N731 N 0.86241 0.69077 0.29514 0.0
H732 H 0.86188 0.24875 0.20512 0.0
H733 H 0.8709 0.14811 0.33061 0.0
H734 H 0.87146 0.14946 0.20626 0.0
H735 H 0.86483 0.24936 0.32961 0.0
H736 H 0.85639 0.13987 0.28553 0.0
H737 H 0.84835 0.24144 0.25039 0.0
C738 C 0.85929 0.22436 0.21472 0.0
C739 C 0.86676 0.19909 0.20187 0.0
C740 C 0.85711 0.16334 0.29523 0.0
C741 C 0.85306 0.19138 0.25391 0.0
C742 C 0.8649 0.16774 0.32104 0.0
C743 C 0.86817 0.19898 0.33387 0.0
C744 C 0.85338 0.19089 0.28203 0.0
C745 C 0.86162 0.22442 0.32047 0.0
C746 C 0.85215 0.22048 0.24066 0.0
C747 C 0.86488 0.16898 0.2154 0.0
N748 N 0.85503 0.22011 0.29523 0.0
N749 N 0.85867 0.1662 0.2407 0.0
H750 H 0.12244 0.29075 0.70502 0.0
H751 H 0.21077 0.40761 0.83143 0.0
H752 H 0.20909 0.40714 0.70546 0.0
H753 H 0.12173 0.29224 0.82954 0.0
H754 H 0.21883 0.40531 0.78567 0.0
H755 H 0.12958 0.28797 0.75054 0.0
C756 C 0.14391 0.3154 0.71469 0.0
C757 C 0.16568 0.34906 0.70153 0.0
C758 C 0.19803 0.38026 0.79532 0.0
C759 C 0.17341 0.34655 0.7538 0.0
C760 C 0.19371 0.38153 0.82143 0.0
C761 C 0.16592 0.34995 0.83416 0.0
C762 C 0.17392 0.34732 0.7819 0.0
C763 C 0.14386 0.31702 0.82036 0.0
C764 C 0.14777 0.31395 0.74071 0.0
C765 C 0.19223 0.38054 0.71496 0.0
N766 N 0.14804 0.31666 0.79499 0.0
N767 N 0.19518 0.37863 0.74041 0.0
H768 H 0.1517 0.853 0.83 0.0
H769 H 0.27177 0.86888 0.70831 0.0
H770 H 0.26293 0.86773 0.83086 0.0
H771 H 0.15875 0.84921 0.7032 0.0
H772 H 0.26357 0.85735 0.75333 0.0
H773 H 0.1478 0.83988 0.78453 0.0
C774 C 0.17457 0.85173 0.8208 0.0
C775 C 0.20731 0.86043 0.83427 0.0
C776 C 0.24009 0.85466 0.74248 0.0
C777 C 0.20391 0.84736 0.78219 0.0
C778 C 0.24472 0.861 0.71666 0.0
C779 C 0.21586 0.85973 0.70197 0.0
C780 C 0.20642 0.84751 0.7541 0.0
C781 C 0.18156 0.84998 0.71383 0.0
C782 C 0.17259 0.84482 0.7948 0.0
C783 C 0.2368 0.86007 0.82132 0.0
N784 N 0.17796 0.84483 0.73934 0.0
N785 N 0.23458 0.85417 0.79606 0.0
H786 H 0.63577 0.75845 0.70722 0.0
H787 H 0.71454 0.88028 0.83241 0.0
H788 H 0.71225 0.8777 0.70526 0.0
H789 H 0.64014 0.76066 0.82964 0.0
H790 H 0.70505 0.88359 0.7868 0.0
H791 H 0.62784 0.76211 0.75231 0.0
C792 C 0.64959 0.78577 0.71621 0.0
C793 C 0.67385 0.81793 0.70241 0.0
C794 C 0.69001 0.85679 0.79634 0.0
C795 C 0.66639 0.82237 0.75462 0.0
C796 C 0.69502 0.855 0.82239 0.0
C797 C 0.67747 0.82021 0.83479 0.0
C798 C 0.66762 0.82345 0.78276 0.0
C799 C 0.65357 0.7881 0.82085 0.0
C800 C 0.64551 0.78785 0.7421 0.0
C801 C 0.69247 0.85242 0.71517 0.0
N802 N 0.6497 0.79044 0.79567 0.0
N803 N 0.68875 0.85371 0.74068 0.0
H804 H 0.20483 0.9556 0.96346 0.0
H805 H 0.3457 0.05676 0.07937 0.0
H806 H 0.27862 0.91917 0.9929 0.0
H807 H 0.29448 0.10959 0.0383 0.0
H808 H 0.31686 1.00352 0.05032 0.0
H809 H 0.23287 1.00943 0.99261 0.0
C810 C 0.22662 0.95872 0.97631 0.0
C811 C 0.23939 0.93288 0.97581 0.0
C812 C 0.31197 0.02675 0.04753 0.0
C813 C 0.27122 0.99402 1.00962 0.0
C814 C 0.32845 0.05727 0.06417 0.0
C815 C 0.32263 0.08793 0.06135 0.0
C816 C 0.28918 0.02645 0.02774 0.0
C817 C 0.29982 0.08669 0.04126 0.0
C818 C 0.24273 0.98951 0.99288 0.0
C819 C 0.26791 0.9384 0.99271 0.0
N820 N 0.28392 0.05653 0.02531 0.0
N821 N 0.28261 0.96807 1.00898 0.0
H822 H 0.77489 0.66258 0.50231 0.0
H823 H 0.73977 0.83386 0.5353 0.0
H824 H 0.81 0.75791 0.45369 0.0
H825 H 0.69589 0.73268 0.57941 0.0
H826 H 0.76711 0.80796 0.50576 0.0
H827 H 0.74851 0.68945 0.53167 0.0
C828 C 0.77679 0.68908 0.4977 0.0
C829 C 0.79356 0.70739 0.47503 0.0
C830 C 0.75159 0.79145 0.52194 0.0
C831 C 0.76357 0.73877 0.50879 0.0
C832 C 0.73593 0.80627 0.53883 0.0
C833 C 0.71557 0.78559 0.56001 0.0
C834 C 0.74716 0.7557 0.52627 0.0
C835 C 0.71145 0.74982 0.56345 0.0
C836 C 0.76161 0.70443 0.51446 0.0
C837 C 0.79569 0.74197 0.4703 0.0
N838 N 0.72716 0.73621 0.54694 0.0
N839 N 0.78088 0.75649 0.48693 0.0
H840 H 0.0792 0.25768 0.9656 0.0
H841 H 0.96883 0.29376 0.07719 0.0
H842 H 0.10461 0.36764 0.98991 0.0
H843 H 0.92368 0.18631 0.04057 0.0
H844 H 0.02188 0.31981 0.0479 0.0
H845 H 0.02531 0.22966 0.99493 0.0
C846 C 0.07381 0.27586 0.97747 0.0
C847 C 0.09675 0.31502 0.97568 0.0
C848 C 1.0004 0.29055 0.04614 0.0
C849 C 0.03526 0.28326 1.00931 0.0
C850 C 0.97 0.27557 0.06293 0.0
C851 C 0.94154 0.23769 0.06139 0.0
C852 C 1.00287 0.26761 0.02753 0.0
C853 C 0.94485 0.21564 0.04246 0.0
C854 C 0.04289 0.2599 0.99405 0.0
C855 C 0.08786 0.33733 0.99091 0.0
N856 N 0.97495 0.23084 0.02636 0.0
N857 N 0.05817 0.32121 1.00719 0.0
H858 H 0.3326 0.04968 0.45103 0.0
H859 H 0.29451 0.97243 0.58451 0.0
H860 H 0.31287 0.11705 0.50418 0.0
H861 H 0.20442 0.90667 0.53277 0.0
H862 H 0.31863 0.02571 0.55534 0.0
H863 H 0.30227 0.99621 0.48007 0.0
C864 C 0.32159 0.05323 0.46869 0.0
C865 C 0.32437 0.08781 0.47478 0.0
C866 C 0.29349 0.99965 0.55049 0.0
C867 C 0.2916 0.02704 0.50873 0.0
C868 C 0.27947 0.96921 0.56715 0.0
C869 C 0.24652 0.93519 0.56155 0.0
C870 C 0.2757 0.99567 0.52733 0.0
C871 C 0.22943 0.93246 0.53813 0.0
C872 C 0.30444 0.02267 0.48525 0.0
C873 C 0.31084 0.09087 0.49847 0.0
N874 N 0.24451 0.9621 0.52172 0.0
N875 N 0.29557 0.06108 0.51474 0.0
H876 H 0.81516 0.76165 0.0814 0.0
H877 H 0.68959 0.73216 0.95807 0.0
H878 H 0.76604 0.66143 0.03623 0.0
H879 H 0.74314 0.8358 0.99981 0.0
H880 H 0.71725 0.70624 0.98667 0.0
H881 H 0.78916 0.78936 0.05241 0.0
C882 C 0.79837 0.74521 0.06563 0.0
C883 C 0.79177 0.70861 0.06184 0.0
C884 C 0.72303 0.73465 0.9897 0.0
C885 C 0.76275 0.74072 0.02786 0.0
C886 C 0.70713 0.74954 0.97333 0.0
C887 C 0.71394 0.78637 0.97643 0.0
C888 C 0.74587 0.75641 1.00974 0.0
C889 C 0.73702 0.80733 0.99663 0.0
C890 C 0.78387 0.76123 0.04888 0.0
C891 C 0.77141 0.68946 0.04025 0.0
N892 N 0.75202 0.79209 1.01249 0.0
N893 N 0.75756 0.70557 0.02426 0.0
H894 H 0.11408 0.28171 0.54122 0.0
H895 H 0.93119 0.28142 0.48748 0.0
H896 H 0.06767 0.34506 0.57454 0.0
H897 H 0.95753 0.19581 0.46787 0.0
H898 H 0.98372 0.30784 0.51741 0.0
H899 H 0.06053 0.2532 0.51186 0.0
C900 C 0.09276 0.28973 0.54232 0.0
C901 C 0.09557 0.31594 0.56039 0.0
C902 C 0.97809 0.28322 0.50665 0.0
C903 C 0.03404 0.28339 0.52677 0.0
C904 C 0.94801 0.26809 0.48961 0.0
C905 C 0.93965 0.23607 0.47547 0.0
C906 C 1.00095 0.26697 0.50914 0.0
C907 C 0.96261 0.22013 0.47877 0.0
C908 C 0.06207 0.27332 0.52562 0.0
C909 C 0.06687 0.32508 0.56094 0.0
N910 N 0.99238 0.23592 0.49504 0.0
N911 N 0.03759 0.30903 0.54442 0.0
H912 H 0.62039 0.14151 0.08434 0.0
H913 H 0.48196 0.19337 0.1565 0.0
H914 H 0.6583 0.22781 0.14121 0.0
H915 H 0.44346 0.09513 0.10983 0.0
H916 H 0.54675 0.20841 0.14976 0.0
H917 H 0.5562 0.12809 0.09078 0.0
C918 C 0.6154 0.1581 0.09795 0.0
C919 C 0.64504 0.18584 0.1123 0.0
C920 C 0.5242 0.18332 0.14121 0.0
C921 C 0.5709 0.1697 0.12023 0.0
C922 C 0.48713 0.17454 0.14517 0.0
C923 C 0.4572 0.14264 0.13394 0.0
C924 C 0.53161 0.1603 0.12564 0.0
C925 C 0.46561 0.11956 0.11922 0.0
C926 C 0.57852 0.15001 0.10183 0.0
C927 C 0.63639 0.20583 0.12996 0.0
N928 N 0.50209 0.12902 0.11533 0.0
N929 N 0.60012 0.19731 0.13346 0.0
H930 H 0.72043 0.56775 0.44749 0.0
H931 H 0.5497 0.39212 0.37876 0.0
H932 H 0.68264 0.57539 0.37338 0.0
H933 H 0.5922 0.3873 0.45205 0.0
H934 H 0.59925 0.45783 0.37519 0.0
H935 H 0.67261 0.50156 0.44922 0.0
C936 C 0.70113 0.55558 0.43184 0.0
C937 C 0.70479 0.57723 0.41051 0.0
C938 C 0.59773 0.44232 0.39202 0.0
C939 C 0.65053 0.50077 0.41193 0.0
C940 C 0.56967 0.40456 0.39398 0.0
C941 C 0.5661 0.384 0.41597 0.0
C942 C 0.62237 0.45987 0.41222 0.0
C943 C 0.59294 0.40207 0.43503 0.0
C944 C 0.67416 0.51762 0.43268 0.0
C945 C 0.67993 0.5599 0.39044 0.0
N946 N 0.61958 0.43891 0.43281 0.0
N947 N 0.65386 0.52252 0.39159 0.0
H948 H 0.85911 0.30184 0.09284 0.0
H949 H 0.87005 0.48219 0.15743 0.0
H950 H 0.92147 0.35143 0.16082 0.0
H951 H 0.8187 0.43867 0.08518 0.0
H952 H 0.88475 0.43188 0.16074 0.0
H953 H 0.84265 0.35085 0.09049 0.0
C954 C 0.86989 0.32363 0.10708 0.0
C955 C 0.89193 0.32293 0.12697 0.0
C956 C 0.87014 0.43326 0.14421 0.0
C957 C 0.87241 0.37874 0.12475 0.0
C958 C 0.86123 0.46171 0.14243 0.0
C959 C 0.84334 0.46498 0.12087 0.0
C960 C 0.86115 0.4078 0.12431 0.0
C961 C 0.83311 0.43774 0.10194 0.0
C962 C 0.86025 0.35143 0.10582 0.0
C963 C 0.90491 0.35144 0.14502 0.0
N964 N 0.84235 0.41048 0.10405 0.0
N965 N 0.89469 0.37817 0.14359 0.0
H966 H 0.44145 0.09597 0.42964 0.0
H967 H 0.65942 0.23105 0.39472 0.0
H968 H 0.48119 0.18792 0.37711 0.0
H969 H 0.61991 0.14277 0.45026 0.0
H970 H 0.59445 0.2164 0.38834 0.0
H971 H 0.50682 0.11208 0.43699 0.0
C972 C 0.46384 0.11887 0.41917 0.0
C973 C 0.4559 0.14025 0.40246 0.0
C974 C 0.60008 0.20038 0.40202 0.0
C975 C 0.53068 0.15946 0.41114 0.0
C976 C 0.6372 0.20873 0.40565 0.0
C977 C 0.64532 0.18801 0.42296 0.0
C978 C 0.57074 0.17087 0.41562 0.0
C979 C 0.61527 0.1598 0.43687 0.0
C980 C 0.50118 0.12844 0.42362 0.0
C981 C 0.48609 0.17047 0.38999 0.0
N982 N 0.57943 0.15192 0.43277 0.0
N983 N 0.52206 0.17917 0.39458 0.0
H984 H 0.58862 0.38907 0.07934 0.0
H985 H 0.69332 0.57065 0.16807 0.0
H986 H 0.55483 0.38997 0.15622 0.0
H987 H 0.70901 0.57206 0.0879 0.0
H988 H 0.64549 0.50351 0.16548 0.0
H989 H 0.6377 0.45456 0.0838 0.0
C990 C 0.59146 0.40287 0.09721 0.0
C991 C 0.56662 0.38385 0.11722 0.0
C992 C 0.65883 0.51872 0.14839 0.0
C993 C 0.62348 0.45931 0.12253 0.0
C994 C 0.68553 0.55712 0.14983 0.0
C995 C 0.70378 0.57712 0.128 0.0
C996 C 0.65092 0.50024 0.12499 0.0
C997 C 0.69447 0.55785 0.10501 0.0
C998 C 0.61965 0.44039 0.09975 0.0
C999 C 0.57298 0.40319 0.14018 0.0
N1000 N 0.66882 0.52057 0.1041 0.0
N1001 N 0.60051 0.43986 0.14213 0.0
H1002 H 0.82694 0.44301 0.45631 0.0
H1003 H 0.89992 0.33591 0.36674 0.0
H1004 H 0.85643 0.47189 0.3782 0.0
H1005 H 0.88741 0.32097 0.44704 0.0
H1006 H 0.88082 0.3836 0.3697 0.0
H1007 H 0.84307 0.39372 0.45216 0.0
C1008 C 0.83654 0.43889 0.43824 0.0
C1009 C 0.84093 0.46225 0.41771 0.0
C1010 C 0.88294 0.37041 0.38674 0.0
C1011 C 0.85946 0.4057 0.41283 0.0
C1012 C 0.89445 0.34376 0.38505 0.0
C1013 C 0.89642 0.32571 0.40678 0.0
C1014 C 0.87289 0.37846 0.41029 0.0
C1015 C 0.88724 0.33526 0.42998 0.0
C1016 C 0.84578 0.41072 0.43589 0.0
C1017 C 0.85248 0.4547 0.39458 0.0
N1018 N 0.87578 0.36091 0.43114 0.0
N1019 N 0.86165 0.42735 0.39284 0.0
H1020 H 0.2346 0.65355 0.64362 0.0
H1021 H 0.10626 0.4377 0.60223 0.0
H1022 H 0.15147 0.61597 0.5846 0.0
H1023 H 0.19292 0.47521 0.65862 0.0
H1024 H 0.12234 0.5031 0.59565 0.0
H1025 H 0.22084 0.5888 0.64895 0.0
C1026 C 0.21358 0.63183 0.63172 0.0
C1027 C 0.19401 0.64048 0.61376 0.0
C1028 C 0.13753 0.49699 0.60971 0.0
C1029 C 0.178 0.56605 0.61983 0.0
C1030 C 0.12795 0.45959 0.61369 0.0
C1031 C 0.14781 0.451 0.6313 0.0
C1032 C 0.16695 0.52593 0.62361 0.0
C1033 C 0.17664 0.48062 0.64502 0.0
C1034 C 0.20578 0.59482 0.63474 0.0
C1035 C 0.1676 0.61103 0.59856 0.0
N1036 N 0.18527 0.51667 0.64094 0.0
N1037 N 0.16023 0.57528 0.60207 0.0
H1038 H 0.31349 0.86299 0.94593 0.0
H1039 H 0.48691 0.86032 0.87932 0.0
H1040 H 0.35302 0.90863 0.87196 0.0
H1041 H 0.44522 0.81581 0.95344 0.0
H1042 H 0.43652 0.875 0.87494 0.0
H1043 H 0.36202 0.84574 0.9486 0.0
C1044 C 0.33317 0.8702 0.93045 0.0
C1045 C 0.32985 0.88793 0.90889 0.0
C1046 C 0.43838 0.86194 0.89212 0.0
C1047 C 0.38494 0.86711 0.91141 0.0
C1048 C 0.46692 0.85307 0.89456 0.0
C1049 C 0.47095 0.83734 0.917 0.0
C1050 C 0.41368 0.85521 0.91229 0.0
C1051 C 0.44407 0.82886 0.93605 0.0
C1052 C 0.3606 0.85994 0.93186 0.0
C1053 C 0.35534 0.89584 0.88913 0.0
N1054 N 0.41692 0.83821 0.93335 0.0
N1055 N 0.38181 0.88519 0.89081 0.0
H1056 H 0.57375 0.69035 0.66997 0.0
H1057 H 0.3949 0.58215 0.57938 0.0
H1058 H 0.5777 0.70447 0.58957 0.0
H1059 H 0.39476 0.54911 0.65651 0.0
H1060 H 0.46018 0.63177 0.58424 0.0
H1061 H 0.50696 0.64151 0.66666 0.0
C1062 C 0.56078 0.68218 0.65159 0.0
C1063 C 0.58129 0.70029 0.62992 0.0
C1064 C 0.44581 0.61375 0.60015 0.0
C1065 C 0.50498 0.64612 0.62601 0.0
C1066 C 0.40842 0.58527 0.59739 0.0
C1067 C 0.38918 0.56058 0.61738 0.0
C1068 C 0.4643 0.61804 0.62315 0.0
C1069 C 0.40815 0.56722 0.6405 0.0
C1070 C 0.52264 0.65481 0.6497 0.0
C1071 C 0.56294 0.69023 0.60662 0.0
N1072 N 0.44465 0.59507 0.64268 0.0
N1073 N 0.52585 0.66392 0.60527 0.0
H1074 H 0.16392 0.61938 0.95769 0.0
H1075 H 0.18207 0.47032 0.87108 0.0
H1076 H 0.22429 0.64848 0.88703 0.0
H1077 H 0.11362 0.4405 0.93795 0.0
H1078 H 0.19933 0.53597 0.87704 0.0
H1079 H 0.15014 0.55514 0.95246 0.0
C1080 C 0.17485 0.61265 0.9412 0.0
C1081 C 0.19504 0.63984 0.92263 0.0
C1082 C 0.18021 0.51511 0.89029 0.0
C1083 C 0.17784 0.56514 0.91615 0.0
C1084 C 0.17003 0.47761 0.88673 0.0
C1085 C 0.14569 0.44996 0.90372 0.0
C1086 C 0.16655 0.52523 0.91133 0.0
C1087 C 0.13156 0.46086 0.92402 0.0
C1088 C 0.1664 0.57557 0.93809 0.0
C1089 C 0.2078 0.62859 0.90158 0.0
N1090 N 0.14244 0.49772 0.92738 0.0
N1091 N 0.19874 0.59212 0.89884 0.0
H1092 H 0.37045 0.93957 0.63564 0.0
H1093 H 0.43111 0.78568 0.60598 0.0
H1094 H 0.2925 0.82165 0.62322 0.0
H1095 H 0.50962 0.89776 0.63095 0.0
H1096 H 0.37978 0.79939 0.61083 0.0
H1097 H 0.42262 0.92645 0.63218 0.0
C1098 C 0.36429 0.91112 0.63226 0.0
C1099 C 0.32701 0.88178 0.63005 0.0
C1100 C 0.4082 0.821 0.61538 0.0
C1101 C 0.38613 0.86658 0.62583 0.0
C1102 C 0.43733 0.81305 0.61268 0.0
C1103 C 0.47429 0.8406 0.61834 0.0
C1104 C 0.41634 0.85695 0.62342 0.0
C1105 C 0.48124 0.87579 0.62669 0.0
C1106 C 0.39396 0.90357 0.63033 0.0
C1107 C 0.32066 0.84532 0.62547 0.0
N1108 N 0.45257 0.88308 0.62887 0.0
N1109 N 0.34976 0.83887 0.62349 0.0
H1110 H 0.55183 0.73905 0.89602 0.0
H1111 H 0.41752 0.52144 0.92681 0.0
H1112 H 0.59405 0.66369 0.91046 0.0
H1113 H 0.37691 0.59725 0.91034 0.0
H1114 H 0.48206 0.57255 0.92014 0.0
H1115 H 0.48816 0.68722 0.90026 0.0
C1116 C 0.54786 0.71144 0.89978 0.0
C1117 C 0.57877 0.7059 0.90284 0.0
C1118 C 0.45915 0.57814 0.91801 0.0
C1119 C 0.5048 0.64582 0.9078 0.0
C1120 C 0.42236 0.54904 0.92188 0.0
C1121 C 0.39202 0.55528 0.91916 0.0
C1122 C 0.4658 0.61398 0.91156 0.0
C1123 C 0.3996 0.59133 0.9125 0.0
C1124 C 0.51118 0.68176 0.90227 0.0
C1125 C 0.57128 0.66933 0.90777 0.0
N1126 N 0.4358 0.61941 0.90906 0.0
N1127 N 0.53502 0.64068 0.9102 0.0
loop_
_geom_bond_atom_site_label_1
_geom_bond_atom_site_label_2
_geom_bond_distance
_geom_bond_site_symmetry_2
_ccdc_geom_bond_type
Pr0 C2 2.880 . S
Pr0 O20 2.562 . S
Pr0 O21 2.490 . S
Pr0 O22 2.695 . S
Pr0 O23 2.512 . S
Pr0 O25 2.437 . S
Pr0 O28 2.436 . S
Pr0 O30 2.438 . S
Pr1 C11 2.880 . S
Pr1 O22 2.436 . S
Pr1 O24 2.438 . S
Pr1 O26 2.562 . S
Pr1 O27 2.490 . S
Pr1 O28 2.695 . S
Pr1 O29 2.512 . S
Pr1 O31 2.437 . S
C2 Pr0 2.880 . S
C2 C3 1.491 . S
C2 O20 1.254 . S
C2 O21 1.225 . S
C3 C2 1.491 . S
C3 C4 1.392 . S
C3 C8 1.356 . S
C4 C3 1.392 . S
C4 C5 1.368 . S
C4 H32 0.929 . S
C5 C4 1.368 . S
C5 C6 1.386 . S
C5 H33 0.929 . S
C6 C5 1.386 . S
C6 C7 1.373 . S
C7 C6 1.373 . S
C7 C8 1.409 . S
C7 H34 0.931 . S
C8 C3 1.356 . S
C8 C7 1.409 . S
C8 H35 0.930 . S
C9 O22 1.270 . S
C9 O23 1.248 . S
C10 O24 1.267 . S
C10 O25 1.278 . S
C11 Pr1 2.880 . S
C11 C12 1.491 1_545 S
C11 O26 1.254 . S
C11 O27 1.225 . S
C12 C11 1.491 1_565 S
C12 C13 1.392 . S
C12 C17 1.356 . S
C13 C12 1.392 . S
C13 C14 1.368 . S
C13 H36 0.929 . S
C14 C13 1.368 . S
C14 C15 1.386 . S
C14 H37 0.929 . S
C15 C14 1.386 . S
C15 C16 1.373 . S
C16 C15 1.373 . S
C16 C17 1.409 . S
C16 H38 0.931 . S
C17 C12 1.356 . S
C17 C16 1.409 . S
C17 H39 0.930 . S
C18 O28 1.270 . S
C18 O29 1.248 . S
C19 O30 1.267 . S
C19 O31 1.278 . S
O20 Pr0 2.562 . S
O20 C2 1.254 . S
O21 Pr0 2.490 . S
O21 C2 1.225 . S
O22 Pr0 2.695 . S
O22 Pr1 2.436 . S
O22 C9 1.270 . S
O23 Pr0 2.512 . S
O23 C9 1.248 . S
O24 Pr1 2.438 . S
O24 C10 1.267 . S
O25 Pr0 2.437 . S
O25 C10 1.278 . S
O26 Pr1 2.562 . S
O26 C11 1.254 . S
O27 Pr1 2.490 . S
O27 C11 1.225 . S
O28 Pr0 2.436 . S
O28 Pr1 2.695 . S
O28 C18 1.270 . S
O29 Pr1 2.512 . S
O29 C18 1.248 . S
O30 Pr0 2.438 . S
O30 C19 1.267 . S
O31 Pr1 2.437 . S
O31 C19 1.278 . S
H32 C4 0.929 . S
H33 C5 0.929 . S
H34 C7 0.931 . S
H35 C8 0.930 . S
H36 C13 0.929 . S
H37 C14 0.929 . S
H38 C16 0.931 . S
H39 C17 0.930 . S
Pr40 C42 2.880 . S
Pr40 O60 2.562 . S
Pr40 O61 2.490 . S
Pr40 O62 2.695 . S
Pr40 O63 2.512 . S
Pr40 O65 2.437 . S
Pr40 O68 2.436 . S
Pr40 O70 2.438 . S
Pr41 C51 2.880 . S
Pr41 O62 2.436 . S
Pr41 O64 2.438 . S
Pr41 O66 2.562 . S
Pr41 O67 2.490 . S
Pr41 O68 2.695 . S
Pr41 O69 2.512 . S
Pr41 O71 2.437 . S
C42 Pr40 2.880 . S
C42 C43 1.491 . S
C42 O60 1.254 . S
C42 O61 1.225 . S
C43 C42 1.491 . S
C43 C44 1.392 . S
C43 C48 1.356 . S
C44 C43 1.392 . S
C44 C45 1.368 . S
C44 H72 0.929 . S
C45 C44 1.368 . S
C45 C46 1.386 . S
C45 H73 0.929 . S
C46 C45 1.386 . S
C46 C47 1.373 . S
C47 C46 1.373 . S
C47 C48 1.409 . S
C47 H74 0.931 . S
C48 C43 1.356 . S
C48 C47 1.409 . S
C48 H75 0.930 . S
C49 O62 1.270 . S
C49 O63 1.248 . S
C50 O64 1.267 . S
C50 O65 1.278 . S
C51 Pr41 2.880 . S
C51 C52 1.491 . S
C51 O66 1.254 . S
C51 O67 1.225 . S
C52 C51 1.491 . S
C52 C53 1.392 . S
C52 C57 1.356 . S
C53 C52 1.392 . S
C53 C54 1.368 . S
C53 H76 0.929 . S
C54 C53 1.368 . S
C54 C55 1.386 . S
C54 H77 0.929 . S
C55 C54 1.386 . S
C55 C56 1.373 . S
C56 C55 1.373 . S
C56 C57 1.409 . S
C56 H78 0.931 . S
C57 C52 1.356 . S
C57 C56 1.409 . S
C57 H79 0.930 . S
C58 O68 1.270 . S
C58 O69 1.248 . S
C59 O70 1.267 . S
C59 O71 1.278 . S
O60 Pr40 2.562 . S
O60 C42 1.254 . S
O61 Pr40 2.490 . S
O61 C42 1.225 . S
O62 Pr40 2.695 . S
O62 Pr41 2.436 . S
O62 C49 1.270 . S
O63 Pr40 2.512 . S
O63 C49 1.248 . S
O64 Pr41 2.438 . S
O64 C50 1.267 . S
O65 Pr40 2.437 . S
O65 C50 1.278 . S
O66 Pr41 2.562 . S
O66 C51 1.254 . S
O67 Pr41 2.490 . S
O67 C51 1.225 . S
O68 Pr40 2.436 . S
O68 Pr41 2.695 . S
O68 C58 1.270 . S
O69 Pr41 2.512 . S
O69 C58 1.248 . S
O70 Pr40 2.438 . S
O70 C59 1.267 . S
O71 Pr41 2.437 . S
O71 C59 1.278 . S
H72 C44 0.929 . S
H73 C45 0.929 . S
H74 C47 0.931 . S
H75 C48 0.930 . S
H76 C53 0.929 . S
H77 C54 0.929 . S
H78 C56 0.931 . S
H79 C57 0.930 . S
Pr80 C82 2.880 . S
Pr80 O100 2.562 . S
Pr80 O101 2.490 . S
Pr80 O102 2.695 . S
Pr80 O103 2.512 . S
Pr80 O105 2.437 . S
Pr80 O108 2.436 . S
Pr80 O110 2.438 . S
Pr81 C91 2.880 . S
Pr81 O102 2.436 . S
Pr81 O104 2.438 . S
Pr81 O106 2.562 . S
Pr81 O107 2.490 . S
Pr81 O108 2.695 . S
Pr81 O109 2.512 . S
Pr81 O111 2.437 . S
C82 Pr80 2.880 . S
C82 C83 1.491 . S
C82 O100 1.254 . S
C82 O101 1.225 . S
C83 C82 1.491 . S
C83 C84 1.392 . S
C83 C88 1.356 . S
C84 C83 1.392 . S
C84 C85 1.368 . S
C84 H112 0.929 . S
C85 C84 1.368 . S
C85 C86 1.386 . S
C85 H113 0.929 . S
C86 C85 1.386 . S
C86 C87 1.373 . S
C87 C86 1.373 . S
C87 C88 1.409 . S
C87 H114 0.931 . S
C88 C83 1.356 . S
C88 C87 1.409 . S
C88 H115 0.930 . S
C89 O102 1.270 . S
C89 O103 1.248 . S
C90 O104 1.267 . S
C90 O105 1.278 . S
C91 Pr81 2.880 . S
C91 C92 1.491 1_655 S
C91 O106 1.254 . S
C91 O107 1.225 . S
C92 C91 1.491 1_455 S
C92 C93 1.392 . S
C92 C97 1.356 . S
C93 C92 1.392 . S
C93 C94 1.368 . S
C93 H116 0.929 . S
C94 C93 1.368 . S
C94 C95 1.386 . S
C94 H117 0.929 . S
C95 C94 1.386 . S
C95 C96 1.373 . S
C96 C95 1.373 . S
C96 C97 1.409 . S
C96 H118 0.931 . S
C97 C92 1.356 . S
C97 C96 1.409 . S
C97 H119 0.930 . S
C98 O108 1.270 . S
C98 O109 1.248 . S
C99 O110 1.267 . S
C99 O111 1.278 . S
O100 Pr80 2.562 . S
O100 C82 1.254 . S
O101 Pr80 2.490 . S
O101 C82 1.225 . S
O102 Pr80 2.695 . S
O102 Pr81 2.436 . S
O102 C89 1.270 . S
O103 Pr80 2.512 . S
O103 C89 1.248 . S
O104 Pr81 2.438 . S
O104 C90 1.267 . S
O105 Pr80 2.437 . S
O105 C90 1.278 . S
O106 Pr81 2.562 . S
O106 C91 1.254 . S
O107 Pr81 2.490 . S
O107 C91 1.225 . S
O108 Pr80 2.436 . S
O108 Pr81 2.695 . S
O108 C98 1.270 . S
O109 Pr81 2.512 . S
O109 C98 1.248 . S
O110 Pr80 2.438 . S
O110 C99 1.267 . S
O111 Pr81 2.437 . S
O111 C99 1.278 . S
H112 C84 0.929 . S
H113 C85 0.929 . S
H114 C87 0.931 . S
H115 C88 0.930 . S
H116 C93 0.929 . S
H117 C94 0.929 . S
H118 C96 0.931 . S
H119 C97 0.930 . S
Pr120 C122 2.880 . S
Pr120 O140 2.562 . S
Pr120 O141 2.490 . S
Pr120 O142 2.695 . S
Pr120 O143 2.512 . S
Pr120 O145 2.437 . S
Pr120 O148 2.436 . S
Pr120 O150 2.438 . S
Pr121 C131 2.880 . S
Pr121 O142 2.436 . S
Pr121 O144 2.438 . S
Pr121 O146 2.562 . S
Pr121 O147 2.490 . S
Pr121 O148 2.695 . S
Pr121 O149 2.512 . S
Pr121 O151 2.437 . S
C122 Pr120 2.880 . S
C122 C123 1.491 1_545 S
C122 O140 1.254 . S
C122 O141 1.225 . S
C123 C122 1.491 1_565 S
C123 C124 1.392 . S
C123 C128 1.356 . S
C124 C123 1.392 . S
C124 C125 1.368 . S
C124 H152 0.929 . S
C125 C124 1.368 . S
C125 C126 1.386 . S
C125 H153 0.929 . S
C126 C125 1.386 . S
C126 C127 1.373 . S
C127 C126 1.373 . S
C127 C128 1.409 . S
C127 H154 0.931 . S
C128 C123 1.356 . S
C128 C127 1.409 . S
C128 H155 0.930 . S
C129 O142 1.270 . S
C129 O143 1.248 . S
C130 O144 1.267 . S
C130 O145 1.278 . S
C131 Pr121 2.880 . S
C131 C132 1.491 . S
C131 O146 1.254 . S
C131 O147 1.225 . S
C132 C131 1.491 . S
C132 C133 1.392 . S
C132 C137 1.356 . S
C133 C132 1.392 . S
C133 C134 1.368 . S
C133 H156 0.929 . S
C134 C133 1.368 . S
C134 C135 1.386 . S
C134 H157 0.929 . S
C135 C134 1.386 . S
C135 C136 1.373 . S
C136 C135 1.373 . S
C136 C137 1.409 . S
C136 H158 0.931 . S
C137 C132 1.356 . S
C137 C136 1.409 . S
C137 H159 0.930 . S
C138 O148 1.270 . S
C138 O149 1.248 . S
C139 O150 1.267 . S
C139 O151 1.278 . S
O140 Pr120 2.562 . S
O140 C122 1.254 . S
O141 Pr120 2.490 . S
O141 C122 1.225 . S
O142 Pr120 2.695 . S
O142 Pr121 2.436 . S
O142 C129 1.270 . S
O143 Pr120 2.512 . S
O143 C129 1.248 . S
O144 Pr121 2.438 . S
O144 C130 1.267 . S
O145 Pr120 2.437 . S
O145 C130 1.278 . S
O146 Pr121 2.562 . S
O146 C131 1.254 . S
O147 Pr121 2.490 . S
O147 C131 1.225 . S
O148 Pr120 2.436 . S
O148 Pr121 2.695 . S
O148 C138 1.270 . S
O149 Pr121 2.512 . S
O149 C138 1.248 . S
O150 Pr120 2.438 . S
O150 C139 1.267 . S
O151 Pr121 2.437 . S
O151 C139 1.278 . S
H152 C124 0.929 . S
H153 C125 0.929 . S
H154 C127 0.931 . S
H155 C128 0.930 . S
H156 C133 0.929 . S
H157 C134 0.929 . S
H158 C136 0.931 . S
H159 C137 0.930 . S
Pr160 C162 2.880 . S
Pr160 O180 2.562 . S
Pr160 O181 2.490 . S
Pr160 O182 2.695 . S
Pr160 O183 2.512 . S
Pr160 O185 2.437 . S
Pr160 O188 2.436 . S
Pr160 O190 2.438 . S
Pr161 C171 2.880 . S
Pr161 O182 2.436 . S
Pr161 O184 2.438 . S
Pr161 O186 2.562 . S
Pr161 O187 2.490 . S
Pr161 O188 2.695 . S
Pr161 O189 2.512 . S
Pr161 O191 2.437 . S
C162 Pr160 2.880 . S
C162 C163 1.491 . S
C162 O180 1.254 . S
C162 O181 1.225 . S
C163 C162 1.491 . S
C163 C164 1.392 . S
C163 C168 1.356 . S
C164 C163 1.392 . S
C164 C165 1.368 . S
C164 H192 0.929 . S
C165 C164 1.368 . S
C165 C166 1.386 . S
C165 H193 0.929 . S
C166 C165 1.386 . S
C166 C167 1.373 . S
C167 C166 1.373 . S
C167 C168 1.409 . S
C167 H194 0.931 . S
C168 C163 1.356 . S
C168 C167 1.409 . S
C168 H195 0.930 . S
C169 O182 1.270 . S
C169 O183 1.248 . S
C170 O184 1.267 . S
C170 O185 1.278 . S
C171 Pr161 2.880 . S
C171 C172 1.491 . S
C171 O186 1.254 . S
C171 O187 1.225 . S
C172 C171 1.491 . S
C172 C173 1.392 . S
C172 C177 1.356 . S
C173 C172 1.392 . S
C173 C174 1.368 . S
C173 H196 0.929 . S
C174 C173 1.368 . S
C174 C175 1.386 . S
C174 H197 0.929 . S
C175 C174 1.386 . S
C175 C176 1.373 . S
C176 C175 1.373 . S
C176 C177 1.409 . S
C176 H198 0.931 . S
C177 C172 1.356 . S
C177 C176 1.409 . S
C177 H199 0.930 . S
C178 O188 1.270 . S
C178 O189 1.248 . S
C179 O190 1.267 . S
C179 O191 1.278 . S
O180 Pr160 2.562 . S
O180 C162 1.254 . S
O181 Pr160 2.490 . S
O181 C162 1.225 . S
O182 Pr160 2.695 . S
O182 Pr161 2.436 . S
O182 C169 1.270 . S
O183 Pr160 2.512 . S
O183 C169 1.248 . S
O184 Pr161 2.438 . S
O184 C170 1.267 . S
O185 Pr160 2.437 . S
O185 C170 1.278 . S
O186 Pr161 2.562 . S
O186 C171 1.254 . S
O187 Pr161 2.490 . S
O187 C171 1.225 . S
O188 Pr160 2.436 . S
O188 Pr161 2.695 . S
O188 C178 1.270 . S
O189 Pr161 2.512 . S
O189 C178 1.248 . S
O190 Pr160 2.438 . S
O190 C179 1.267 . S
O191 Pr161 2.437 . S
O191 C179 1.278 . S
H192 C164 0.929 . S
H193 C165 0.929 . S
H194 C167 0.931 . S
H195 C168 0.930 . S
H196 C173 0.929 . S
H197 C174 0.929 . S
H198 C176 0.931 . S
H199 C177 0.930 . S
Pr200 C202 2.880 . S
Pr200 O220 2.562 . S
Pr200 O221 2.490 . S
Pr200 O222 2.695 . S
Pr200 O223 2.512 . S
Pr200 O225 2.437 . S
Pr200 O228 2.436 . S
Pr200 O230 2.438 . S
Pr201 C211 2.880 . S
Pr201 O222 2.436 . S
Pr201 O224 2.438 . S
Pr201 O226 2.562 . S
Pr201 O227 2.490 . S
Pr201 O228 2.695 . S
Pr201 O229 2.512 . S
Pr201 O231 2.437 . S
C202 Pr200 2.880 . S
C202 C203 1.491 1_655 S
C202 O220 1.254 . S
C202 O221 1.225 . S
C203 C202 1.491 1_455 S
C203 C204 1.392 . S
C203 C208 1.356 . S
C204 C203 1.392 . S
C204 C205 1.368 . S
C204 H232 0.929 . S
C205 C204 1.368 . S
C205 C206 1.386 . S
C205 H233 0.929 . S
C206 C205 1.386 . S
C206 C207 1.373 . S
C207 C206 1.373 . S
C207 C208 1.409 . S
C207 H234 0.931 . S
C208 C203 1.356 . S
C208 C207 1.409 . S
C208 H235 0.930 . S
C209 O222 1.270 . S
C209 O223 1.248 . S
C210 O224 1.267 . S
C210 O225 1.278 . S
C211 Pr201 2.880 . S
C211 C212 1.491 . S
C211 O226 1.254 . S
C211 O227 1.225 . S
C212 C211 1.491 . S
C212 C213 1.392 . S
C212 C217 1.356 . S
C213 C212 1.392 . S
C213 C214 1.368 . S
C213 H236 0.929 . S
C214 C213 1.368 . S
C214 C215 1.386 . S
C214 H237 0.929 . S
C215 C214 1.386 . S
C215 C216 1.373 . S
C216 C215 1.373 . S
C216 C217 1.409 . S
C216 H238 0.931 . S
C217 C212 1.356 . S
C217 C216 1.409 . S
C217 H239 0.930 . S
C218 O228 1.270 . S
C218 O229 1.248 . S
C219 O230 1.267 . S
C219 O231 1.278 . S
O220 Pr200 2.562 . S
O220 C202 1.254 . S
O221 Pr200 2.490 . S
O221 C202 1.225 . S
O222 Pr200 2.695 . S
O222 Pr201 2.436 . S
O222 C209 1.270 . S
O223 Pr200 2.512 . S
O223 C209 1.248 . S
O224 Pr201 2.438 . S
O224 C210 1.267 . S
O225 Pr200 2.437 . S
O225 C210 1.278 . S
O226 Pr201 2.562 . S
O226 C211 1.254 . S
O227 Pr201 2.490 . S
O227 C211 1.225 . S
O228 Pr200 2.436 . S
O228 Pr201 2.695 . S
O228 C218 1.270 . S
O229 Pr201 2.512 . S
O229 C218 1.248 . S
O230 Pr200 2.438 . S
O230 C219 1.267 . S
O231 Pr201 2.437 . S
O231 C219 1.278 . S
H232 C204 0.929 . S
H233 C205 0.929 . S
H234 C207 0.931 . S
H235 C208 0.930 . S
H236 C213 0.929 . S
H237 C214 0.929 . S
H238 C216 0.931 . S
H239 C217 0.930 . S
Pr240 C242 2.880 . S
Pr240 O260 2.562 . S
Pr240 O261 2.490 . S
Pr240 O262 2.695 . S
Pr240 O263 2.512 . S
Pr240 O265 2.437 . S
Pr240 O268 2.436 . S
Pr240 O270 2.438 . S
Pr241 C251 2.880 . S
Pr241 O262 2.436 . S
Pr241 O264 2.438 . S
Pr241 O266 2.562 . S
Pr241 O267 2.490 . S
Pr241 O268 2.695 . S
Pr241 O269 2.512 . S
Pr241 O271 2.437 . S
C242 Pr240 2.880 . S
C242 C243 1.491 1_455 S
C242 O260 1.254 . S
C242 O261 1.225 . S
C243 C242 1.491 1_655 S
C243 C244 1.392 . S
C243 C248 1.356 . S
C244 C243 1.392 . S
C244 C245 1.368 . S
C244 H272 0.929 . S
C245 C244 1.368 . S
C245 C246 1.386 . S
C245 H273 0.929 . S
C246 C245 1.386 . S
C246 C247 1.373 . S
C247 C246 1.373 . S
C247 C248 1.409 . S
C247 H274 0.931 . S
C248 C243 1.356 . S
C248 C247 1.409 . S
C248 H275 0.930 . S
C249 O262 1.270 . S
C249 O263 1.248 . S
C250 O264 1.267 . S
C250 O265 1.278 . S
C251 Pr241 2.880 . S
C251 C252 1.491 . S
C251 O266 1.254 . S
C251 O267 1.225 . S
C252 C251 1.491 . S
C252 C253 1.392 . S
C252 C257 1.356 . S
C253 C252 1.392 . S
C253 C254 1.368 . S
C253 H276 0.929 . S
C254 C253 1.368 . S
C254 C255 1.386 . S
C254 H277 0.929 . S
C255 C254 1.386 . S
C255 C256 1.373 . S
C256 C255 1.373 . S
C256 C257 1.409 . S
C256 H278 0.931 . S
C257 C252 1.356 . S
C257 C256 1.409 . S
C257 H279 0.930 . S
C258 O268 1.270 . S
C258 O269 1.248 . S
C259 O270 1.267 . S
C259 O271 1.278 . S
O260 Pr240 2.562 . S
O260 C242 1.254 . S
O261 Pr240 2.490 . S
O261 C242 1.225 . S
O262 Pr240 2.695 . S
O262 Pr241 2.436 . S
O262 C249 1.270 . S
O263 Pr240 2.512 . S
O263 C249 1.248 . S
O264 Pr241 2.438 . S
O264 C250 1.267 . S
O265 Pr240 2.437 . S
O265 C250 1.278 . S
O266 Pr241 2.562 . S
O266 C251 1.254 . S
O267 Pr241 2.490 . S
O267 C251 1.225 . S
O268 Pr240 2.436 . S
O268 Pr241 2.695 . S
O268 C258 1.270 . S
O269 Pr241 2.512 . S
O269 C258 1.248 . S
O270 Pr240 2.438 . S
O270 C259 1.267 . S
O271 Pr241 2.437 . S
O271 C259 1.278 . S
H272 C244 0.929 . S
H273 C245 0.929 . S
H274 C247 0.931 . S
H275 C248 0.930 . S
H276 C253 0.929 . S
H277 C254 0.929 . S
H278 C256 0.931 . S
H279 C257 0.930 . S
Pr280 C282 2.880 . S
Pr280 O300 2.562 . S
Pr280 O301 2.490 . S
Pr280 O302 2.695 . S
Pr280 O303 2.512 . S
Pr280 O305 2.437 . S
Pr280 O308 2.436 . S
Pr280 O310 2.438 . S
Pr281 C291 2.880 . S
Pr281 O302 2.436 . S
Pr281 O304 2.438 . S
Pr281 O306 2.562 . S
Pr281 O307 2.490 . S
Pr281 O308 2.695 . S
Pr281 O309 2.512 . S
Pr281 O311 2.437 . S
C282 Pr280 2.880 . S
C282 C283 1.491 . S
C282 O300 1.254 . S
C282 O301 1.225 . S
C283 C282 1.491 . S
C283 C284 1.392 . S
C283 C288 1.356 . S
C284 C283 1.392 . S
C284 C285 1.368 . S
C284 H312 0.929 . S
C285 C284 1.368 . S
C285 C286 1.386 . S
C285 H313 0.929 . S
C286 C285 1.386 . S
C286 C287 1.373 . S
C287 C286 1.373 . S
C287 C288 1.409 . S
C287 H314 0.931 . S
C288 C283 1.356 . S
C288 C287 1.409 . S
C288 H315 0.930 . S
C289 O302 1.270 . S
C289 O303 1.248 . S
C290 O304 1.267 . S
C290 O305 1.278 . S
C291 Pr281 2.880 . S
C291 C292 1.491 1_565 S
C291 O306 1.254 . S
C291 O307 1.225 . S
C292 C291 1.491 1_545 S
C292 C293 1.392 . S
C292 C297 1.356 . S
C293 C292 1.392 . S
C293 C294 1.368 . S
C293 H316 0.929 . S
C294 C293 1.368 . S
C294 C295 1.386 . S
C294 H317 0.929 . S
C295 C294 1.386 . S
C295 C296 1.373 . S
C296 C295 1.373 . S
C296 C297 1.409 . S
C296 H318 0.931 . S
C297 C292 1.356 . S
C297 C296 1.409 . S
C297 H319 0.930 . S
C298 O308 1.270 . S
C298 O309 1.248 . S
C299 O310 1.267 . S
C299 O311 1.278 . S
O300 Pr280 2.562 . S
O300 C282 1.254 . S
O301 Pr280 2.490 . S
O301 C282 1.225 . S
O302 Pr280 2.695 . S
O302 Pr281 2.436 . S
O302 C289 1.270 . S
O303 Pr280 2.512 . S
O303 C289 1.248 . S
O304 Pr281 2.438 . S
O304 C290 1.267 . S
O305 Pr280 2.437 . S
O305 C290 1.278 . S
O306 Pr281 2.562 . S
O306 C291 1.254 . S
O307 Pr281 2.490 . S
O307 C291 1.225 . S
O308 Pr280 2.436 . S
O308 Pr281 2.695 . S
O308 C298 1.270 . S
O309 Pr281 2.512 . S
O309 C298 1.248 . S
O310 Pr280 2.438 . S
O310 C299 1.267 . S
O311 Pr281 2.437 . S
O311 C299 1.278 . S
H312 C284 0.929 . S
H313 C285 0.929 . S
H314 C287 0.931 . S
H315 C288 0.930 . S
H316 C293 0.929 . S
H317 C294 0.929 . S
H318 C296 0.931 . S
H319 C297 0.930 . S
Pr320 C322 2.880 . S
Pr320 O340 2.562 . S
Pr320 O341 2.490 . S
Pr320 O342 2.695 . S
Pr320 O343 2.512 . S
Pr320 O345 2.437 . S
Pr320 O348 2.436 . S
Pr320 O350 2.438 . S
Pr321 C331 2.880 . S
Pr321 O342 2.436 . S
Pr321 O344 2.438 . S
Pr321 O346 2.562 . S
Pr321 O347 2.490 . S
Pr321 O348 2.695 . S
Pr321 O349 2.512 . S
Pr321 O351 2.437 . S
C322 Pr320 2.880 . S
C322 C323 1.491 . S
C322 O340 1.254 . S
C322 O341 1.225 . S
C323 C322 1.491 . S
C323 C324 1.392 . S
C323 C328 1.356 . S
C324 C323 1.392 . S
C324 C325 1.368 . S
C324 H352 0.929 . S
C325 C324 1.368 . S
C325 C326 1.386 . S
C325 H353 0.929 . S
C326 C325 1.386 . S
C326 C327 1.373 . S
C327 C326 1.373 . S
C327 C328 1.409 . S
C327 H354 0.931 . S
C328 C323 1.356 . S
C328 C327 1.409 . S
C328 H355 0.930 . S
C329 O342 1.270 . S
C329 O343 1.248 . S
C330 O344 1.267 . S
C330 O345 1.278 . S
C331 Pr321 2.880 . S
C331 C332 1.491 . S
C331 O346 1.254 . S
C331 O347 1.225 . S
C332 C331 1.491 . S
C332 C333 1.392 . S
C332 C337 1.356 . S
C333 C332 1.392 . S
C333 C334 1.368 . S
C333 H356 0.929 . S
C334 C333 1.368 . S
C334 C335 1.386 . S
C334 H357 0.929 . S
C335 C334 1.386 . S
C335 C336 1.373 . S
C336 C335 1.373 . S
C336 C337 1.409 . S
C336 H358 0.931 . S
C337 C332 1.356 . S
C337 C336 1.409 . S
C337 H359 0.930 . S
C338 O348 1.270 . S
C338 O349 1.248 . S
C339 O350 1.267 . S
C339 O351 1.278 . S
O340 Pr320 2.562 . S
O340 C322 1.254 . S
O341 Pr320 2.490 . S
O341 C322 1.225 . S
O342 Pr320 2.695 . S
O342 Pr321 2.436 . S
O342 C329 1.270 . S
O343 Pr320 2.512 . S
O343 C329 1.248 . S
O344 Pr321 2.438 . S
O344 C330 1.267 . S
O345 Pr320 2.437 . S
O345 C330 1.278 . S
O346 Pr321 2.562 . S
O346 C331 1.254 . S
O347 Pr321 2.490 . S
O347 C331 1.225 . S
O348 Pr320 2.436 . S
O348 Pr321 2.695 . S
O348 C338 1.270 . S
O349 Pr321 2.512 . S
O349 C338 1.248 . S
O350 Pr320 2.438 . S
O350 C339 1.267 . S
O351 Pr321 2.437 . S
O351 C339 1.278 . S
H352 C324 0.929 . S
H353 C325 0.929 . S
H354 C327 0.931 . S
H355 C328 0.930 . S
H356 C333 0.929 . S
H357 C334 0.929 . S
H358 C336 0.931 . S
H359 C337 0.930 . S
Pr360 C362 2.880 . S
Pr360 O380 2.562 . S
Pr360 O381 2.490 . S
Pr360 O382 2.695 . S
Pr360 O383 2.512 . S
Pr360 O385 2.437 . S
Pr360 O388 2.436 . S
Pr360 O390 2.438 . S
Pr361 C371 2.880 . S
Pr361 O382 2.436 . S
Pr361 O384 2.438 . S
Pr361 O386 2.562 . S
Pr361 O387 2.490 . S
Pr361 O388 2.695 . S
Pr361 O389 2.512 . S
Pr361 O391 2.437 . S
C362 Pr360 2.880 . S
C362 C363 1.491 . S
C362 O380 1.254 . S
C362 O381 1.225 . S
C363 C362 1.491 . S
C363 C364 1.392 . S
C363 C368 1.356 . S
C364 C363 1.392 . S
C364 C365 1.368 . S
C364 H392 0.929 . S
C365 C364 1.368 . S
C365 C366 1.386 . S
C365 H393 0.929 . S
C366 C365 1.386 . S
C366 C367 1.373 . S
C367 C366 1.373 . S
C367 C368 1.409 . S
C367 H394 0.931 . S
C368 C363 1.356 . S
C368 C367 1.409 . S
C368 H395 0.930 . S
C369 O382 1.270 . S
C369 O383 1.248 . S
C370 O384 1.267 . S
C370 O385 1.278 . S
C371 Pr361 2.880 . S
C371 C372 1.491 1_455 S
C371 O386 1.254 . S
C371 O387 1.225 . S
C372 C371 1.491 1_655 S
C372 C373 1.392 . S
C372 C377 1.356 . S
C373 C372 1.392 . S
C373 C374 1.368 . S
C373 H396 0.929 . S
C374 C373 1.368 . S
C374 C375 1.386 . S
C374 H397 0.929 . S
C375 C374 1.386 . S
C375 C376 1.373 . S
C376 C375 1.373 . S
C376 C377 1.409 . S
C376 H398 0.931 . S
C377 C372 1.356 . S
C377 C376 1.409 . S
C377 H399 0.930 . S
C378 O388 1.270 . S
C378 O389 1.248 . S
C379 O390 1.267 . S
C379 O391 1.278 . S
O380 Pr360 2.562 . S
O380 C362 1.254 . S
O381 Pr360 2.490 . S
O381 C362 1.225 . S
O382 Pr360 2.695 . S
O382 Pr361 2.436 . S
O382 C369 1.270 . S
O383 Pr360 2.512 . S
O383 C369 1.248 . S
O384 Pr361 2.438 . S
O384 C370 1.267 . S
O385 Pr360 2.437 . S
O385 C370 1.278 . S
O386 Pr361 2.562 . S
O386 C371 1.254 . S
O387 Pr361 2.490 . S
O387 C371 1.225 . S
O388 Pr360 2.436 . S
O388 Pr361 2.695 . S
O388 C378 1.270 . S
O389 Pr361 2.512 . S
O389 C378 1.248 . S
O390 Pr360 2.438 . S
O390 C379 1.267 . S
O391 Pr361 2.437 . S
O391 C379 1.278 . S
H392 C364 0.929 . S
H393 C365 0.929 . S
H394 C367 0.931 . S
H395 C368 0.930 . S
H396 C373 0.929 . S
H397 C374 0.929 . S
H398 C376 0.931 . S
H399 C377 0.930 . S
Pr400 C402 2.880 . S
Pr400 O420 2.562 . S
Pr400 O421 2.490 . S
Pr400 O422 2.695 . S
Pr400 O423 2.512 . S
Pr400 O425 2.437 . S
Pr400 O428 2.436 . S
Pr400 O430 2.438 . S
Pr401 C411 2.880 . S
Pr401 O422 2.436 . S
Pr401 O424 2.438 . S
Pr401 O426 2.562 . S
Pr401 O427 2.490 . S
Pr401 O428 2.695 . S
Pr401 O429 2.512 . S
Pr401 O431 2.437 . S
C402 Pr400 2.880 . S
C402 C403 1.491 1_565 S
C402 O420 1.254 . S
C402 O421 1.225 . S
C403 C402 1.491 1_545 S
C403 C404 1.392 . S
C403 C408 1.356 . S
C404 C403 1.392 . S
C404 C405 1.368 . S
C404 H432 0.929 . S
C405 C404 1.368 . S
C405 C406 1.386 . S
C405 H433 0.929 . S
C406 C405 1.386 . S
C406 C407 1.373 . S
C407 C406 1.373 . S
C407 C408 1.409 . S
C407 H434 0.931 . S
C408 C403 1.356 . S
C408 C407 1.409 . S
C408 H435 0.930 . S
C409 O422 1.270 . S
C409 O423 1.248 . S
C410 O424 1.267 . S
C410 O425 1.278 . S
C411 Pr401 2.880 . S
C411 C412 1.491 . S
C411 O426 1.254 . S
C411 O427 1.225 . S
C412 C411 1.491 . S
C412 C413 1.392 . S
C412 C417 1.356 . S
C413 C412 1.392 . S
C413 C414 1.368 . S
C413 H436 0.929 . S
C414 C413 1.368 . S
C414 C415 1.386 . S
C414 H437 0.929 . S
C415 C414 1.386 . S
C415 C416 1.373 . S
C416 C415 1.373 . S
C416 C417 1.409 . S
C416 H438 0.931 . S
C417 C412 1.356 . S
C417 C416 1.409 . S
C417 H439 0.930 . S
C418 O428 1.270 . S
C418 O429 1.248 . S
C419 O430 1.267 . S
C419 O431 1.278 . S
O420 Pr400 2.562 . S
O420 C402 1.254 . S
O421 Pr400 2.490 . S
O421 C402 1.225 . S
O422 Pr400 2.695 . S
O422 Pr401 2.436 . S
O422 C409 1.270 . S
O423 Pr400 2.512 . S
O423 C409 1.248 . S
O424 Pr401 2.438 . S
O424 C410 1.267 . S
O425 Pr400 2.437 . S
O425 C410 1.278 . S
O426 Pr401 2.562 . S
O426 C411 1.254 . S
O427 Pr401 2.490 . S
O427 C411 1.225 . S
O428 Pr400 2.436 . S
O428 Pr401 2.695 . S
O428 C418 1.270 . S
O429 Pr401 2.512 . S
O429 C418 1.248 . S
O430 Pr400 2.438 . S
O430 C419 1.267 . S
O431 Pr401 2.437 . S
O431 C419 1.278 . S
H432 C404 0.929 . S
H433 C405 0.929 . S
H434 C407 0.931 . S
H435 C408 0.930 . S
H436 C413 0.929 . S
H437 C414 0.929 . S
H438 C416 0.931 . S
H439 C417 0.930 . S
Pr440 C442 2.880 . S
Pr440 O460 2.562 . S
Pr440 O461 2.490 . S
Pr440 O462 2.695 . S
Pr440 O463 2.512 . S
Pr440 O465 2.437 . S
Pr440 O468 2.436 . S
Pr440 O470 2.438 . S
Pr441 C451 2.880 . S
Pr441 O462 2.436 . S
Pr441 O464 2.438 . S
Pr441 O466 2.562 . S
Pr441 O467 2.490 . S
Pr441 O468 2.695 . S
Pr441 O469 2.512 . S
Pr441 O471 2.437 . S
C442 Pr440 2.880 . S
C442 C443 1.491 . S
C442 O460 1.254 . S
C442 O461 1.225 . S
C443 C442 1.491 . S
C443 C444 1.392 . S
C443 C448 1.356 . S
C444 C443 1.392 . S
C444 C445 1.368 . S
C444 H472 0.929 . S
C445 C444 1.368 . S
C445 C446 1.386 . S
C445 H473 0.929 . S
C446 C445 1.386 . S
C446 C447 1.373 . S
C447 C446 1.373 . S
C447 C448 1.409 . S
C447 H474 0.931 . S
C448 C443 1.356 . S
C448 C447 1.409 . S
C448 H475 0.930 . S
C449 O462 1.270 . S
C449 O463 1.248 . S
C450 O464 1.267 . S
C450 O465 1.278 . S
C451 Pr441 2.880 . S
C451 C452 1.491 . S
C451 O466 1.254 . S
C451 O467 1.225 . S
C452 C451 1.491 . S
C452 C453 1.392 . S
C452 C457 1.356 . S
C453 C452 1.392 . S
C453 C454 1.368 . S
C453 H476 0.929 . S
C454 C453 1.368 . S
C454 C455 1.386 . S
C454 H477 0.929 . S
C455 C454 1.386 . S
C455 C456 1.373 . S
C456 C455 1.373 . S
C456 C457 1.409 . S
C456 H478 0.931 . S
C457 C452 1.356 . S
C457 C456 1.409 . S
C457 H479 0.930 . S
C458 O468 1.270 . S
C458 O469 1.248 . S
C459 O470 1.267 . S
C459 O471 1.278 . S
O460 Pr440 2.562 . S
O460 C442 1.254 . S
O461 Pr440 2.490 . S
O461 C442 1.225 . S
O462 Pr440 2.695 . S
O462 Pr441 2.436 . S
O462 C449 1.270 . S
O463 Pr440 2.512 . S
O463 C449 1.248 . S
O464 Pr441 2.438 . S
O464 C450 1.267 . S
O465 Pr440 2.437 . S
O465 C450 1.278 . S
O466 Pr441 2.562 . S
O466 C451 1.254 . S
O467 Pr441 2.490 . S
O467 C451 1.225 . S
O468 Pr440 2.436 . S
O468 Pr441 2.695 . S
O468 C458 1.270 . S
O469 Pr441 2.512 . S
O469 C458 1.248 . S
O470 Pr440 2.438 . S
O470 C459 1.267 . S
O471 Pr441 2.437 . S
O471 C459 1.278 . S
H472 C444 0.929 . S
H473 C445 0.929 . S
H474 C447 0.931 . S
H475 C448 0.930 . S
H476 C453 0.929 . S
H477 C454 0.929 . S
H478 C456 0.931 . S
H479 C457 0.930 . S
H480 C486 0.930 . S
H481 C490 0.930 . S
H482 C495 0.929 . S
H483 C493 0.929 . S
H484 C488 0.929 . S
H485 C494 0.929 . S
C486 H480 0.930 . S
C486 C487 1.367 . S
C486 C494 1.378 . S
C487 C486 1.367 . S
C487 C495 1.433 . S
C488 H484 0.929 . S
C488 C490 1.378 . S
C488 C492 1.350 . S
C489 C492 1.463 . S
C489 C494 1.350 . S
C489 N497 1.427 . S
C490 H481 0.930 . S
C490 C488 1.378 . S
C490 C491 1.367 . S
C491 C490 1.367 . S
C491 C493 1.433 . S
C492 C488 1.350 . S
C492 C489 1.463 . S
C492 N496 1.427 . S
C493 H483 0.929 . S
C493 C491 1.433 . S
C493 N496 1.384 . S
C494 H485 0.929 . S
C494 C486 1.378 . S
C494 C489 1.350 . S
C495 H482 0.929 . S
C495 C487 1.433 . S
C495 N497 1.384 . S
N496 C492 1.427 . S
N496 C493 1.384 . S
N497 C489 1.427 . S
N497 C495 1.384 . S
H498 C504 0.930 . S
H499 C508 0.930 . S
H500 C513 0.929 . S
H501 C511 0.929 . S
H502 C506 0.929 . S
H503 C512 0.929 . S
C504 H498 0.930 . S
C504 C505 1.367 . S
C504 C512 1.378 . S
C505 C504 1.367 . S
C505 C513 1.433 . S
C506 H502 0.929 . S
C506 C508 1.378 . S
C506 C510 1.350 . S
C507 C510 1.463 1_455 S
C507 C512 1.350 . S
C507 N515 1.427 . S
C508 H499 0.930 . S
C508 C506 1.378 . S
C508 C509 1.367 . S
C509 C508 1.367 . S
C509 C511 1.433 . S
C510 C506 1.350 . S
C510 C507 1.463 1_655 S
C510 N514 1.427 . S
C511 H501 0.929 . S
C511 C509 1.433 . S
C511 N514 1.384 . S
C512 H503 0.929 . S
C512 C504 1.378 . S
C512 C507 1.350 . S
C513 H500 0.929 . S
C513 C505 1.433 . S
C513 N515 1.384 . S
N514 C510 1.427 . S
N514 C511 1.384 . S
N515 C507 1.427 . S
N515 C513 1.384 . S
H516 C522 0.930 . S
H517 C526 0.930 . S
H518 C531 0.929 . S
H519 C529 0.929 . S
H520 C524 0.929 . S
H521 C530 0.929 . S
C522 H516 0.930 . S
C522 C523 1.367 . S
C522 C530 1.378 . S
C523 C522 1.367 . S
C523 C531 1.433 . S
C524 H520 0.929 . S
C524 C526 1.378 . S
C524 C528 1.350 . S
C525 C528 1.463 1_545 S
C525 C530 1.350 . S
C525 N533 1.427 . S
C526 H517 0.930 . S
C526 C524 1.378 . S
C526 C527 1.367 . S
C527 C526 1.367 . S
C527 C529 1.433 . S
C528 C524 1.350 . S
C528 C525 1.463 1_565 S
C528 N532 1.427 . S
C529 H519 0.929 . S
C529 C527 1.433 . S
C529 N532 1.384 . S
C530 H521 0.929 . S
C530 C522 1.378 . S
C530 C525 1.350 . S
C531 H518 0.929 . S
C531 C523 1.433 . S
C531 N533 1.384 . S
N532 C528 1.427 . S
N532 C529 1.384 . S
N533 C525 1.427 . S
N533 C531 1.384 . S
H534 C540 0.930 . S
H535 C544 0.930 . S
H536 C549 0.929 . S
H537 C547 0.929 . S
H538 C542 0.929 . S
H539 C548 0.929 . S
C540 H534 0.930 . S
C540 C541 1.367 . S
C540 C548 1.378 . S
C541 C540 1.367 . S
C541 C549 1.433 . S
C542 H538 0.929 . S
C542 C544 1.378 . S
C542 C546 1.350 . S
C543 C546 1.463 . S
C543 C548 1.350 . S
C543 N551 1.427 . S
C544 H535 0.930 . S
C544 C542 1.378 . S
C544 C545 1.367 . S
C545 C544 1.367 . S
C545 C547 1.433 . S
C546 C542 1.350 . S
C546 C543 1.463 . S
C546 N550 1.427 . S
C547 H537 0.929 . S
C547 C545 1.433 . S
C547 N550 1.384 . S
C548 H539 0.929 . S
C548 C540 1.378 . S
C548 C543 1.350 . S
C549 H536 0.929 . S
C549 C541 1.433 . S
C549 N551 1.384 . S
N550 C546 1.427 . S
N550 C547 1.384 . S
N551 C543 1.427 . S
N551 C549 1.384 . S
H552 C558 0.930 . S
H553 C562 0.930 . S
H554 C567 0.929 . S
H555 C565 0.929 . S
H556 C560 0.929 . S
H557 C566 0.929 . S
C558 H552 0.930 . S
C558 C559 1.367 . S
C558 C566 1.378 . S
C559 C558 1.367 . S
C559 C567 1.433 . S
C560 H556 0.929 . S
C560 C562 1.378 . S
C560 C564 1.350 . S
C561 C564 1.463 1_455 S
C561 C566 1.350 . S
C561 N569 1.427 . S
C562 H553 0.930 . S
C562 C560 1.378 . S
C562 C563 1.367 . S
C563 C562 1.367 . S
C563 C565 1.433 . S
C564 C560 1.350 . S
C564 C561 1.463 1_655 S
C564 N568 1.427 . S
C565 H555 0.929 . S
C565 C563 1.433 . S
C565 N568 1.384 . S
C566 H557 0.929 . S
C566 C558 1.378 . S
C566 C561 1.350 . S
C567 H554 0.929 . S
C567 C559 1.433 . S
C567 N569 1.384 . S
N568 C564 1.427 . S
N568 C565 1.384 . S
N569 C561 1.427 . S
N569 C567 1.384 . S
H570 C576 0.930 . S
H571 C580 0.930 . S
H572 C585 0.929 . S
H573 C583 0.929 . S
H574 C578 0.929 . S
H575 C584 0.929 . S
C576 H570 0.930 . S
C576 C577 1.367 . S
C576 C584 1.378 . S
C577 C576 1.367 . S
C577 C585 1.433 . S
C578 H574 0.929 . S
C578 C580 1.378 . S
C578 C582 1.350 . S
C579 C582 1.463 1_565 S
C579 C584 1.350 . S
C579 N587 1.427 . S
C580 H571 0.930 . S
C580 C578 1.378 . S
C580 C581 1.367 . S
C581 C580 1.367 . S
C581 C583 1.433 . S
C582 C578 1.350 . S
C582 C579 1.463 1_545 S
C582 N586 1.427 . S
C583 H573 0.929 . S
C583 C581 1.433 . S
C583 N586 1.384 . S
C584 H575 0.929 . S
C584 C576 1.378 . S
C584 C579 1.350 . S
C585 H572 0.929 . S
C585 C577 1.433 . S
C585 N587 1.384 . S
N586 C582 1.427 . S
N586 C583 1.384 . S
N587 C579 1.427 . S
N587 C585 1.384 . S
H588 C594 0.930 . S
H589 C598 0.930 . S
H590 C603 0.929 . S
H591 C601 0.929 . S
H592 C596 0.929 . S
H593 C602 0.929 . S
C594 H588 0.930 . S
C594 C595 1.367 . S
C594 C602 1.378 . S
C595 C594 1.367 . S
C595 C603 1.433 . S
C596 H592 0.929 . S
C596 C598 1.378 . S
C596 C600 1.350 . S
C597 C600 1.463 . S
C597 C602 1.350 . S
C597 N605 1.427 . S
C598 H589 0.930 . S
C598 C596 1.378 . S
C598 C599 1.367 . S
C599 C598 1.367 . S
C599 C601 1.433 . S
C600 C596 1.350 . S
C600 C597 1.463 . S
C600 N604 1.427 . S
C601 H591 0.929 . S
C601 C599 1.433 . S
C601 N604 1.384 . S
C602 H593 0.929 . S
C602 C594 1.378 . S
C602 C597 1.350 . S
C603 H590 0.929 . S
C603 C595 1.433 . S
C603 N605 1.384 . S
N604 C600 1.427 . S
N604 C601 1.384 . S
N605 C597 1.427 . S
N605 C603 1.384 . S
H606 C612 0.930 . S
H607 C616 0.930 . S
H608 C621 0.929 . S
H609 C619 0.929 . S
H610 C614 0.929 . S
H611 C620 0.929 . S
C612 H606 0.930 . S
C612 C613 1.367 . S
C612 C620 1.378 . S
C613 C612 1.367 . S
C613 C621 1.433 . S
C614 H610 0.929 . S
C614 C616 1.378 . S
C614 C618 1.350 . S
C615 C618 1.463 1_455 S
C615 C620 1.350 . S
C615 N623 1.427 . S
C616 H607 0.930 . S
C616 C614 1.378 . S
C616 C617 1.367 . S
C617 C616 1.367 . S
C617 C619 1.433 . S
C618 C614 1.350 . S
C618 C615 1.463 1_655 S
C618 N622 1.427 . S
C619 H609 0.929 . S
C619 C617 1.433 . S
C619 N622 1.384 . S
C620 H611 0.929 . S
C620 C612 1.378 . S
C620 C615 1.350 . S
C621 H608 0.929 . S
C621 C613 1.433 . S
C621 N623 1.384 . S
N622 C618 1.427 . S
N622 C619 1.384 . S
N623 C615 1.427 . S
N623 C621 1.384 . S
H624 C630 0.930 . S
H625 C634 0.930 . S
H626 C639 0.929 . S
H627 C637 0.929 . S
H628 C632 0.929 . S
H629 C638 0.929 . S
C630 H624 0.930 . S
C630 C631 1.367 . S
C630 C638 1.378 . S
C631 C630 1.367 . S
C631 C639 1.433 . S
C632 H628 0.929 . S
C632 C634 1.378 . S
C632 C636 1.350 . S
C633 C636 1.463 1_565 S
C633 C638 1.350 . S
C633 N641 1.427 . S
C634 H625 0.930 . S
C634 C632 1.378 . S
C634 C635 1.367 . S
C635 C634 1.367 . S
C635 C637 1.433 . S
C636 C632 1.350 . S
C636 C633 1.463 1_545 S
C636 N640 1.427 . S
C637 H627 0.929 . S
C637 C635 1.433 . S
C637 N640 1.384 . S
C638 H629 0.929 . S
C638 C630 1.378 . S
C638 C633 1.350 . S
C639 H626 0.929 . S
C639 C631 1.433 . S
C639 N641 1.384 . S
N640 C636 1.427 . S
N640 C637 1.384 . S
N641 C633 1.427 . S
N641 C639 1.384 . S
H642 C648 0.930 . S
H643 C652 0.930 . S
H644 C657 0.929 . S
H645 C655 0.929 . S
H646 C650 0.929 . S
H647 C656 0.929 . S
C648 H642 0.930 . S
C648 C649 1.367 . S
C648 C656 1.378 . S
C649 C648 1.367 . S
C649 C657 1.433 . S
C650 H646 0.929 . S
C650 C652 1.378 . S
C650 C654 1.350 . S
C651 C654 1.463 . S
C651 C656 1.350 . S
C651 N659 1.427 . S
C652 H643 0.930 . S
C652 C650 1.378 . S
C652 C653 1.367 . S
C653 C652 1.367 . S
C653 C655 1.433 . S
C654 C650 1.350 . S
C654 C651 1.463 . S
C654 N658 1.427 . S
C655 H645 0.929 . S
C655 C653 1.433 . S
C655 N658 1.384 . S
C656 H647 0.929 . S
C656 C648 1.378 . S
C656 C651 1.350 . S
C657 H644 0.929 . S
C657 C649 1.433 . S
C657 N659 1.384 . S
N658 C654 1.427 . S
N658 C655 1.384 . S
N659 C651 1.427 . S
N659 C657 1.384 . S
H660 C666 0.930 . S
H661 C670 0.930 . S
H662 C675 0.929 . S
H663 C673 0.929 . S
H664 C668 0.929 . S
H665 C674 0.929 . S
C666 H660 0.930 . S
C666 C667 1.367 . S
C666 C674 1.378 . S
C667 C666 1.367 . S
C667 C675 1.433 . S
C668 H664 0.929 . S
C668 C670 1.378 . S
C668 C672 1.350 . S
C669 C672 1.463 1_455 S
C669 C674 1.350 . S
C669 N677 1.427 . S
C670 H661 0.930 . S
C670 C668 1.378 . S
C670 C671 1.367 . S
C671 C670 1.367 . S
C671 C673 1.433 . S
C672 C668 1.350 . S
C672 C669 1.463 1_655 S
C672 N676 1.427 . S
C673 H663 0.929 . S
C673 C671 1.433 . S
C673 N676 1.384 . S
C674 H665 0.929 . S
C674 C666 1.378 . S
C674 C669 1.350 . S
C675 H662 0.929 . S
C675 C667 1.433 . S
C675 N677 1.384 . S
N676 C672 1.427 . S
N676 C673 1.384 . S
N677 C669 1.427 . S
N677 C675 1.384 . S
H678 C684 0.930 . S
H679 C688 0.930 . S
H680 C693 0.929 . S
H681 C691 0.929 . S
H682 C686 0.929 . S
H683 C692 0.929 . S
C684 H678 0.930 . S
C684 C685 1.367 . S
C684 C692 1.378 . S
C685 C684 1.367 . S
C685 C693 1.433 . S
C686 H682 0.929 . S
C686 C688 1.378 . S
C686 C690 1.350 . S
C687 C690 1.463 1_545 S
C687 C692 1.350 . S
C687 N695 1.427 . S
C688 H679 0.930 . S
C688 C686 1.378 . S
C688 C689 1.367 . S
C689 C688 1.367 . S
C689 C691 1.433 . S
C690 C686 1.350 . S
C690 C687 1.463 1_565 S
C690 N694 1.427 . S
C691 H681 0.929 . S
C691 C689 1.433 . S
C691 N694 1.384 . S
C692 H683 0.929 . S
C692 C684 1.378 . S
C692 C687 1.350 . S
C693 H680 0.929 . S
C693 C685 1.433 . S
C693 N695 1.384 . S
N694 C690 1.427 . S
N694 C691 1.384 . S
N695 C687 1.427 . S
N695 C693 1.384 . S
H696 C702 0.930 . S
H697 C706 0.930 . S
H698 C711 0.929 . S
H699 C709 0.929 . S
H700 C704 0.929 . S
H701 C710 0.929 . S
C702 H696 0.930 . S
C702 C703 1.367 . S
C702 C710 1.378 . S
C703 C702 1.367 . S
C703 C711 1.433 . S
C704 H700 0.929 . S
C704 C706 1.378 . S
C704 C708 1.350 . S
C705 C708 1.463 . S
C705 C710 1.350 . S
C705 N713 1.427 . S
C706 H697 0.930 . S
C706 C704 1.378 . S
C706 C707 1.367 . S
C707 C706 1.367 . S
C707 C709 1.433 . S
C708 C704 1.350 . S
C708 C705 1.463 . S
C708 N712 1.427 . S
C709 H699 0.929 . S
C709 C707 1.433 . S
C709 N712 1.384 . S
C710 H701 0.929 . S
C710 C702 1.378 . S
C710 C705 1.350 . S
C711 H698 0.929 . S
C711 C703 1.433 . S
C711 N713 1.384 . S
N712 C708 1.427 . S
N712 C709 1.384 . S
N713 C705 1.427 . S
N713 C711 1.384 . S
H714 C720 0.930 . S
H715 C724 0.930 . S
H716 C729 0.929 . S
H717 C727 0.929 . S
H718 C722 0.929 . S
H719 C728 0.929 . S
C720 H714 0.930 . S
C720 C721 1.367 . S
C720 C728 1.378 . S
C721 C720 1.367 . S
C721 C729 1.433 . S
C722 H718 0.929 . S
C722 C724 1.378 . S
C722 C726 1.350 . S
C723 C726 1.463 . S
C723 C728 1.350 . S
C723 N731 1.427 . S
C724 H715 0.930 . S
C724 C722 1.378 . S
C724 C725 1.367 . S
C725 C724 1.367 . S
C725 C727 1.433 . S
C726 C722 1.350 . S
C726 C723 1.463 . S
C726 N730 1.427 . S
C727 H717 0.929 . S
C727 C725 1.433 . S
C727 N730 1.384 . S
C728 H719 0.929 . S
C728 C720 1.378 . S
C728 C723 1.350 . S
C729 H716 0.929 . S
C729 C721 1.433 . S
C729 N731 1.384 . S
N730 C726 1.427 . S
N730 C727 1.384 . S
N731 C723 1.427 . S
N731 C729 1.384 . S
H732 C738 0.930 . S
H733 C742 0.930 . S
H734 C747 0.929 . S
H735 C745 0.929 . S
H736 C740 0.929 . S
H737 C746 0.929 . S
C738 H732 0.930 . S
C738 C739 1.367 . S
C738 C746 1.378 . S
C739 C738 1.367 . S
C739 C747 1.433 . S
C740 H736 0.929 . S
C740 C742 1.378 . S
C740 C744 1.350 . S
C741 C744 1.463 . S
C741 C746 1.350 . S
C741 N749 1.427 . S
C742 H733 0.930 . S
C742 C740 1.378 . S
C742 C743 1.367 . S
C743 C742 1.367 . S
C743 C745 1.433 . S
C744 C740 1.350 . S
C744 C741 1.463 . S
C744 N748 1.427 . S
C745 H735 0.929 . S
C745 C743 1.433 . S
C745 N748 1.384 . S
C746 H737 0.929 . S
C746 C738 1.378 . S
C746 C741 1.350 . S
C747 H734 0.929 . S
C747 C739 1.433 . S
C747 N749 1.384 . S
N748 C744 1.427 . S
N748 C745 1.384 . S
N749 C741 1.427 . S
N749 C747 1.384 . S
H750 C756 0.930 . S
H751 C760 0.930 . S
H752 C765 0.929 . S
H753 C763 0.929 . S
H754 C758 0.929 . S
H755 C764 0.929 . S
C756 H750 0.930 . S
C756 C757 1.367 . S
C756 C764 1.378 . S
C757 C756 1.367 . S
C757 C765 1.433 . S
C758 H754 0.929 . S
C758 C760 1.378 . S
C758 C762 1.350 . S
C759 C762 1.463 . S
C759 C764 1.350 . S
C759 N767 1.427 . S
C760 H751 0.930 . S
C760 C758 1.378 . S
C760 C761 1.367 . S
C761 C760 1.367 . S
C761 C763 1.433 . S
C762 C758 1.350 . S
C762 C759 1.463 . S
C762 N766 1.427 . S
C763 H753 0.929 . S
C763 C761 1.433 . S
C763 N766 1.384 . S
C764 H755 0.929 . S
C764 C756 1.378 . S
C764 C759 1.350 . S
C765 H752 0.929 . S
C765 C757 1.433 . S
C765 N767 1.384 . S
N766 C762 1.427 . S
N766 C763 1.384 . S
N767 C759 1.427 . S
N767 C765 1.384 . S
H768 C774 0.930 . S
H769 C778 0.930 . S
H770 C783 0.929 . S
H771 C781 0.929 . S
H772 C776 0.929 . S
H773 C782 0.929 . S
C774 H768 0.930 . S
C774 C775 1.367 . S
C774 C782 1.378 . S
C775 C774 1.367 . S
C775 C783 1.433 . S
C776 H772 0.929 . S
C776 C778 1.378 . S
C776 C780 1.350 . S
C777 C780 1.463 . S
C777 C782 1.350 . S
C777 N785 1.427 . S
C778 H769 0.930 . S
C778 C776 1.378 . S
C778 C779 1.367 . S
C779 C778 1.367 . S
C779 C781 1.433 . S
C780 C776 1.350 . S
C780 C777 1.463 . S
C780 N784 1.427 . S
C781 H771 0.929 . S
C781 C779 1.433 . S
C781 N784 1.384 . S
C782 H773 0.929 . S
C782 C774 1.378 . S
C782 C777 1.350 . S
C783 H770 0.929 . S
C783 C775 1.433 . S
C783 N785 1.384 . S
N784 C780 1.427 . S
N784 C781 1.384 . S
N785 C777 1.427 . S
N785 C783 1.384 . S
H786 C792 0.930 . S
H787 C796 0.930 . S
H788 C801 0.929 . S
H789 C799 0.929 . S
H790 C794 0.929 . S
H791 C800 0.929 . S
C792 H786 0.930 . S
C792 C793 1.367 . S
C792 C800 1.378 . S
C793 C792 1.367 . S
C793 C801 1.433 . S
C794 H790 0.929 . S
C794 C796 1.378 . S
C794 C798 1.350 . S
C795 C798 1.463 . S
C795 C800 1.350 . S
C795 N803 1.427 . S
C796 H787 0.930 . S
C796 C794 1.378 . S
C796 C797 1.367 . S
C797 C796 1.367 . S
C797 C799 1.433 . S
C798 C794 1.350 . S
C798 C795 1.463 . S
C798 N802 1.427 . S
C799 H789 0.929 . S
C799 C797 1.433 . S
C799 N802 1.384 . S
C800 H791 0.929 . S
C800 C792 1.378 . S
C800 C795 1.350 . S
C801 H788 0.929 . S
C801 C793 1.433 . S
C801 N803 1.384 . S
N802 C798 1.427 . S
N802 C799 1.384 . S
N803 C795 1.427 . S
N803 C801 1.384 . S
H804 C810 0.930 . S
H805 C814 0.930 . S
H806 C819 0.929 . S
H807 C817 0.929 . S
H808 C812 0.929 1_565 S
H809 C818 0.929 1_545 S
C810 H804 0.930 . S
C810 C811 1.367 . S
C810 C818 1.378 . S
C811 C810 1.367 . S
C811 C819 1.433 . S
C812 H808 0.929 1_545 S
C812 C814 1.378 . S
C812 C816 1.350 . S
C813 C816 1.463 1_566 S
C813 C818 1.350 . S
C813 N821 1.423 1_556 S
C814 H805 0.930 . S
C814 C812 1.378 . S
C814 C815 1.367 . S
C815 C814 1.367 . S
C815 C817 1.433 . S
C816 C812 1.350 . S
C816 C813 1.463 1_544 S
C816 N820 1.423 1_554 S
C817 H807 0.929 . S
C817 C815 1.433 . S
C817 N820 1.376 1_554 S
C818 H809 0.929 1_565 S
C818 C810 1.378 . S
C818 C813 1.350 . S
C819 H806 0.929 . S
C819 C811 1.433 . S
C819 N821 1.376 1_556 S
N820 C816 1.423 1_556 S
N820 C817 1.376 1_556 S
N821 C813 1.423 1_554 S
N821 C819 1.376 1_554 S
H822 C828 0.930 . S
H823 C832 0.930 . S
H824 C837 0.929 . S
H825 C835 0.929 . S
H826 C830 0.929 . S
H827 C836 0.929 . S
C828 H822 0.930 . S
C828 C829 1.367 . S
C828 C836 1.378 . S
C829 C828 1.367 . S
C829 C837 1.433 . S
C830 H826 0.929 . S
C830 C832 1.378 . S
C830 C834 1.350 . S
C831 C834 1.463 . S
C831 C836 1.350 . S
C831 N839 1.427 . S
C832 H823 0.930 . S
C832 C830 1.378 . S
C832 C833 1.367 . S
C833 C832 1.367 . S
C833 C835 1.433 . S
C834 C830 1.350 . S
C834 C831 1.463 . S
C834 N838 1.427 . S
C835 H825 0.929 . S
C835 C833 1.433 . S
C835 N838 1.384 . S
C836 H827 0.929 . S
C836 C828 1.378 . S
C836 C831 1.350 . S
C837 H824 0.929 . S
C837 C829 1.433 . S
C837 N839 1.384 . S
N838 C834 1.427 . S
N838 C835 1.384 . S
N839 C831 1.427 . S
N839 C837 1.384 . S
H840 C846 0.930 . S
H841 C850 0.930 . S
H842 C855 0.929 . S
H843 C853 0.929 . S
H844 C848 0.929 . S
H845 C854 0.929 . S
C846 H840 0.930 . S
C846 C847 1.367 . S
C846 C854 1.378 . S
C847 C846 1.367 . S
C847 C855 1.433 . S
C848 H844 0.929 . S
C848 C850 1.378 . S
C848 C852 1.350 . S
C849 C852 1.463 1_456 S
C849 C854 1.350 . S
C849 N857 1.427 . S
C850 H841 0.930 . S
C850 C848 1.378 . S
C850 C851 1.367 . S
C851 C850 1.367 . S
C851 C853 1.433 . S
C852 C848 1.350 . S
C852 C849 1.463 1_654 S
C852 N856 1.427 . S
C853 H843 0.929 . S
C853 C851 1.433 . S
C853 N856 1.384 . S
C854 H845 0.929 . S
C854 C846 1.378 . S
C854 C849 1.350 . S
C855 H842 0.929 . S
C855 C847 1.433 . S
C855 N857 1.384 . S
N856 C852 1.427 . S
N856 C853 1.384 . S
N857 C849 1.427 . S
N857 C855 1.384 . S
H858 C864 0.930 . S
H859 C868 0.930 . S
H860 C873 0.929 . S
H861 C871 0.929 . S
H862 C866 0.929 1_545 S
H863 C872 0.929 1_565 S
C864 H858 0.930 . S
C864 C865 1.367 . S
C864 C872 1.378 . S
C865 C864 1.367 . S
C865 C873 1.433 . S
C866 H862 0.929 1_565 S
C866 C868 1.378 . S
C866 C870 1.350 . S
C867 C870 1.463 1_545 S
C867 C872 1.350 . S
C867 N875 1.427 . S
C868 H859 0.930 . S
C868 C866 1.378 . S
C868 C869 1.367 . S
C869 C868 1.367 . S
C869 C871 1.433 . S
C870 C866 1.350 . S
C870 C867 1.463 1_565 S
C870 N874 1.427 . S
C871 H861 0.929 . S
C871 C869 1.433 . S
C871 N874 1.384 . S
C872 H863 0.929 1_545 S
C872 C864 1.378 . S
C872 C867 1.350 . S
C873 H860 0.929 . S
C873 C865 1.433 . S
C873 N875 1.384 . S
N874 C870 1.427 . S
N874 C871 1.384 . S
N875 C867 1.427 . S
N875 C873 1.384 . S
H876 C882 0.930 . S
H877 C886 0.930 . S
H878 C891 0.929 . S
H879 C889 0.929 . S
H880 C884 0.929 . S
H881 C890 0.929 . S
C882 H876 0.930 . S
C882 C883 1.367 . S
C882 C890 1.378 . S
C883 C882 1.367 . S
C883 C891 1.433 . S
C884 H880 0.929 . S
C884 C886 1.378 . S
C884 C888 1.350 . S
C885 C888 1.463 1_554 S
C885 C890 1.350 . S
C885 N893 1.427 . S
C886 H877 0.930 . S
C886 C884 1.378 . S
C886 C887 1.367 . S
C887 C886 1.367 . S
C887 C889 1.433 . S
C888 C884 1.350 . S
C888 C885 1.463 1_556 S
C888 N892 1.427 . S
C889 H879 0.929 . S
C889 C887 1.433 . S
C889 N892 1.384 . S
C890 H881 0.929 . S
C890 C882 1.378 . S
C890 C885 1.350 . S
C891 H878 0.929 . S
C891 C883 1.433 . S
C891 N893 1.384 . S
N892 C888 1.427 . S
N892 C889 1.384 . S
N893 C885 1.427 . S
N893 C891 1.384 . S
H894 C900 0.930 . S
H895 C904 0.930 . S
H896 C909 0.929 . S
H897 C907 0.929 . S
H898 C902 0.929 . S
H899 C908 0.929 . S
C900 H894 0.930 . S
C900 C901 1.367 . S
C900 C908 1.378 . S
C901 C900 1.367 . S
C901 C909 1.433 . S
C902 H898 0.929 . S
C902 C904 1.378 . S
C902 C906 1.350 . S
C903 C906 1.463 1_455 S
C903 C908 1.350 . S
C903 N911 1.427 . S
C904 H895 0.930 . S
C904 C902 1.378 . S
C904 C905 1.367 . S
C905 C904 1.367 . S
C905 C907 1.433 . S
C906 C902 1.350 . S
C906 C903 1.463 1_655 S
C906 N910 1.427 . S
C907 H897 0.929 . S
C907 C905 1.433 . S
C907 N910 1.384 . S
C908 H899 0.929 . S
C908 C900 1.378 . S
C908 C903 1.350 . S
C909 H896 0.929 . S
C909 C901 1.433 . S
C909 N911 1.384 . S
N910 C906 1.427 . S
N910 C907 1.384 . S
N911 C903 1.427 . S
N911 C909 1.384 . S
H912 C918 0.930 . S
H913 C922 0.930 . S
H914 C927 0.929 . S
H915 C925 0.929 . S
H916 C920 0.929 . S
H917 C926 0.929 . S
C918 H912 0.930 . S
C918 C919 1.367 . S
C918 C926 1.378 . S
C919 C918 1.367 . S
C919 C927 1.433 . S
C920 H916 0.929 . S
C920 C922 1.378 . S
C920 C924 1.350 . S
C921 C924 1.463 . S
C921 C926 1.350 . S
C921 N929 1.427 . S
C922 H913 0.930 . S
C922 C920 1.378 . S
C922 C923 1.367 . S
C923 C922 1.367 . S
C923 C925 1.433 . S
C924 C920 1.350 . S
C924 C921 1.463 . S
C924 N928 1.427 . S
C925 H915 0.929 . S
C925 C923 1.433 . S
C925 N928 1.384 . S
C926 H917 0.929 . S
C926 C918 1.378 . S
C926 C921 1.350 . S
C927 H914 0.929 . S
C927 C919 1.433 . S
C927 N929 1.384 . S
N928 C924 1.427 . S
N928 C925 1.384 . S
N929 C921 1.427 . S
N929 C927 1.384 . S
H930 C936 0.930 . S
H931 C940 0.930 . S
H932 C945 0.929 . S
H933 C943 0.929 . S
H934 C938 0.929 . S
H935 C944 0.929 . S
C936 H930 0.930 . S
C936 C937 1.367 . S
C936 C944 1.378 . S
C937 C936 1.367 . S
C937 C945 1.433 . S
C938 H934 0.929 . S
C938 C940 1.378 . S
C938 C942 1.350 . S
C939 C942 1.463 . S
C939 C944 1.350 . S
C939 N947 1.427 . S
C940 H931 0.930 . S
C940 C938 1.378 . S
C940 C941 1.367 . S
C941 C940 1.367 . S
C941 C943 1.433 . S
C942 C938 1.350 . S
C942 C939 1.463 . S
C942 N946 1.427 . S
C943 H933 0.929 . S
C943 C941 1.433 . S
C943 N946 1.384 . S
C944 H935 0.929 . S
C944 C936 1.378 . S
C944 C939 1.350 . S
C945 H932 0.929 . S
C945 C937 1.433 . S
C945 N947 1.384 . S
N946 C942 1.427 . S
N946 C943 1.384 . S
N947 C939 1.427 . S
N947 C945 1.384 . S
H948 C954 0.930 . S
H949 C958 0.930 . S
H950 C963 0.929 . S
H951 C961 0.929 . S
H952 C956 0.929 . S
H953 C962 0.929 . S
C954 H948 0.930 . S
C954 C955 1.367 . S
C954 C962 1.378 . S
C955 C954 1.367 . S
C955 C963 1.433 . S
C956 H952 0.929 . S
C956 C958 1.378 . S
C956 C960 1.350 . S
C957 C960 1.463 . S
C957 C962 1.350 . S
C957 N965 1.427 . S
C958 H949 0.930 . S
C958 C956 1.378 . S
C958 C959 1.367 . S
C959 C958 1.367 . S
C959 C961 1.433 . S
C960 C956 1.350 . S
C960 C957 1.463 . S
C960 N964 1.427 . S
C961 H951 0.929 . S
C961 C959 1.433 . S
C961 N964 1.384 . S
C962 H953 0.929 . S
C962 C954 1.378 . S
C962 C957 1.350 . S
C963 H950 0.929 . S
C963 C955 1.433 . S
C963 N965 1.384 . S
N964 C960 1.427 . S
N964 C961 1.384 . S
N965 C957 1.427 . S
N965 C963 1.384 . S
H966 C972 0.930 . S
H967 C976 0.930 . S
H968 C981 0.929 . S
H969 C979 0.929 . S
H970 C974 0.929 . S
H971 C980 0.929 . S
C972 H966 0.930 . S
C972 C973 1.367 . S
C972 C980 1.378 . S
C973 C972 1.367 . S
C973 C981 1.433 . S
C974 H970 0.929 . S
C974 C976 1.378 . S
C974 C978 1.350 . S
C975 C978 1.463 . S
C975 C980 1.350 . S
C975 N983 1.427 . S
C976 H967 0.930 . S
C976 C974 1.378 . S
C976 C977 1.367 . S
C977 C976 1.367 . S
C977 C979 1.433 . S
C978 C974 1.350 . S
C978 C975 1.463 . S
C978 N982 1.427 . S
C979 H969 0.929 . S
C979 C977 1.433 . S
C979 N982 1.384 . S
C980 H971 0.929 . S
C980 C972 1.378 . S
C980 C975 1.350 . S
C981 H968 0.929 . S
C981 C973 1.433 . S
C981 N983 1.384 . S
N982 C978 1.427 . S
N982 C979 1.384 . S
N983 C975 1.427 . S
N983 C981 1.384 . S
H984 C990 0.930 . S
H985 C994 0.930 . S
H986 C999 0.929 . S
H987 C997 0.929 . S
H988 C992 0.929 . S
H989 C998 0.929 . S
C990 H984 0.930 . S
C990 C991 1.367 . S
C990 C998 1.378 . S
C991 C990 1.367 . S
C991 C999 1.433 . S
C992 H988 0.929 . S
C992 C994 1.378 . S
C992 C996 1.350 . S
C993 C996 1.463 . S
C993 C998 1.350 . S
C993 N1001 1.427 . S
C994 H985 0.930 . S
C994 C992 1.378 . S
C994 C995 1.367 . S
C995 C994 1.367 . S
C995 C997 1.433 . S
C996 C992 1.350 . S
C996 C993 1.463 . S
C996 N1000 1.427 . S
C997 H987 0.929 . S
C997 C995 1.433 . S
C997 N1000 1.384 . S
C998 H989 0.929 . S
C998 C990 1.378 . S
C998 C993 1.350 . S
C999 H986 0.929 . S
C999 C991 1.433 . S
C999 N1001 1.384 . S
N1000 C996 1.427 . S
N1000 C997 1.384 . S
N1001 C993 1.427 . S
N1001 C999 1.384 . S
H1002 C1008 0.930 . S
H1003 C1012 0.930 . S
H1004 C1017 0.929 . S
H1005 C1015 0.929 . S
H1006 C1010 0.929 . S
H1007 C1016 0.929 . S
C1008 H1002 0.930 . S
C1008 C1009 1.367 . S
C1008 C1016 1.378 . S
C1009 C1008 1.367 . S
C1009 C1017 1.433 . S
C1010 H1006 0.929 . S
C1010 C1012 1.378 . S
C1010 C1014 1.350 . S
C1011 C1014 1.463 . S
C1011 C1016 1.350 . S
C1011 N1019 1.427 . S
C1012 H1003 0.930 . S
C1012 C1010 1.378 . S
C1012 C1013 1.367 . S
C1013 C1012 1.367 . S
C1013 C1015 1.433 . S
C1014 C1010 1.350 . S
C1014 C1011 1.463 . S
C1014 N1018 1.427 . S
C1015 H1005 0.929 . S
C1015 C1013 1.433 . S
C1015 N1018 1.384 . S
C1016 H1007 0.929 . S
C1016 C1008 1.378 . S
C1016 C1011 1.350 . S
C1017 H1004 0.929 . S
C1017 C1009 1.433 . S
C1017 N1019 1.384 . S
N1018 C1014 1.427 . S
N1018 C1015 1.384 . S
N1019 C1011 1.427 . S
N1019 C1017 1.384 . S
H1020 C1026 0.930 . S
H1021 C1030 0.930 . S
H1022 C1035 0.929 . S
H1023 C1033 0.929 . S
H1024 C1028 0.929 . S
H1025 C1034 0.929 . S
C1026 H1020 0.930 . S
C1026 C1027 1.367 . S
C1026 C1034 1.378 . S
C1027 C1026 1.367 . S
C1027 C1035 1.433 . S
C1028 H1024 0.929 . S
C1028 C1030 1.378 . S
C1028 C1032 1.350 . S
C1029 C1032 1.463 . S
C1029 C1034 1.350 . S
C1029 N1037 1.427 . S
C1030 H1021 0.930 . S
C1030 C1028 1.378 . S
C1030 C1031 1.367 . S
C1031 C1030 1.367 . S
C1031 C1033 1.433 . S
C1032 C1028 1.350 . S
C1032 C1029 1.463 . S
C1032 N1036 1.427 . S
C1033 H1023 0.929 . S
C1033 C1031 1.433 . S
C1033 N1036 1.384 . S
C1034 H1025 0.929 . S
C1034 C1026 1.378 . S
C1034 C1029 1.350 . S
C1035 H1022 0.929 . S
C1035 C1027 1.433 . S
C1035 N1037 1.384 . S
N1036 C1032 1.427 . S
N1036 C1033 1.384 . S
N1037 C1029 1.427 . S
N1037 C1035 1.384 . S
H1038 C1044 0.930 . S
H1039 C1048 0.930 . S
H1040 C1053 0.929 . S
H1041 C1051 0.929 . S
H1042 C1046 0.929 . S
H1043 C1052 0.929 . S
C1044 H1038 0.930 . S
C1044 C1045 1.367 . S
C1044 C1052 1.378 . S
C1045 C1044 1.367 . S
C1045 C1053 1.433 . S
C1046 H1042 0.929 . S
C1046 C1048 1.378 . S
C1046 C1050 1.350 . S
C1047 C1050 1.463 . S
C1047 C1052 1.350 . S
C1047 N1055 1.427 . S
C1048 H1039 0.930 . S
C1048 C1046 1.378 . S
C1048 C1049 1.367 . S
C1049 C1048 1.367 . S
C1049 C1051 1.433 . S
C1050 C1046 1.350 . S
C1050 C1047 1.463 . S
C1050 N1054 1.427 . S
C1051 H1041 0.929 . S
C1051 C1049 1.433 . S
C1051 N1054 1.384 . S
C1052 H1043 0.929 . S
C1052 C1044 1.378 . S
C1052 C1047 1.350 . S
C1053 H1040 0.929 . S
C1053 C1045 1.433 . S
C1053 N1055 1.384 . S
N1054 C1050 1.427 . S
N1054 C1051 1.384 . S
N1055 C1047 1.427 . S
N1055 C1053 1.384 . S
H1056 C1062 0.930 . S
H1057 C1066 0.930 . S
H1058 C1071 0.929 . S
H1059 C1069 0.929 . S
H1060 C1064 0.929 . S
H1061 C1070 0.929 . S
C1062 H1056 0.930 . S
C1062 C1063 1.367 . S
C1062 C1070 1.378 . S
C1063 C1062 1.367 . S
C1063 C1071 1.433 . S
C1064 H1060 0.929 . S
C1064 C1066 1.378 . S
C1064 C1068 1.350 . S
C1065 C1068 1.463 . S
C1065 C1070 1.350 . S
C1065 N1073 1.427 . S
C1066 H1057 0.930 . S
C1066 C1064 1.378 . S
C1066 C1067 1.367 . S
C1067 C1066 1.367 . S
C1067 C1069 1.433 . S
C1068 C1064 1.350 . S
C1068 C1065 1.463 . S
C1068 N1072 1.427 . S
C1069 H1059 0.929 . S
C1069 C1067 1.433 . S
C1069 N1072 1.384 . S
C1070 H1061 0.929 . S
C1070 C1062 1.378 . S
C1070 C1065 1.350 . S
C1071 H1058 0.929 . S
C1071 C1063 1.433 . S
C1071 N1073 1.384 . S
N1072 C1068 1.427 . S
N1072 C1069 1.384 . S
N1073 C1065 1.427 . S
N1073 C1071 1.384 . S
H1074 C1080 0.930 . S
H1075 C1084 0.930 . S
H1076 C1089 0.929 . S
H1077 C1087 0.929 . S
H1078 C1082 0.929 . S
H1079 C1088 0.929 . S
C1080 H1074 0.930 . S
C1080 C1081 1.367 . S
C1080 C1088 1.378 . S
C1081 C1080 1.367 . S
C1081 C1089 1.433 . S
C1082 H1078 0.929 . S
C1082 C1084 1.378 . S
C1082 C1086 1.350 . S
C1083 C1086 1.463 . S
C1083 C1088 1.350 . S
C1083 N1091 1.427 . S
C1084 H1075 0.930 . S
C1084 C1082 1.378 . S
C1084 C1085 1.367 . S
C1085 C1084 1.367 . S
C1085 C1087 1.433 . S
C1086 C1082 1.350 . S
C1086 C1083 1.463 . S
C1086 N1090 1.427 . S
C1087 H1077 0.929 . S
C1087 C1085 1.433 . S
C1087 N1090 1.384 . S
C1088 H1079 0.929 . S
C1088 C1080 1.378 . S
C1088 C1083 1.350 . S
C1089 H1076 0.929 . S
C1089 C1081 1.433 . S
C1089 N1091 1.384 . S
N1090 C1086 1.427 . S
N1090 C1087 1.384 . S
N1091 C1083 1.427 . S
N1091 C1089 1.384 . S
H1092 C1098 0.930 . S
H1093 C1102 0.930 . S
H1094 C1107 0.929 . S
H1095 C1105 0.929 . S
H1096 C1100 0.929 . S
H1097 C1106 0.929 . S
C1098 H1092 0.930 . S
C1098 C1099 1.367 . S
C1098 C1106 1.378 . S
C1099 C1098 1.367 . S
C1099 C1107 1.433 . S
C1100 H1096 0.929 . S
C1100 C1102 1.378 . S
C1100 C1104 1.350 . S
C1101 C1104 1.463 . S
C1101 C1106 1.350 . S
C1101 N1109 1.427 . S
C1102 H1093 0.930 . S
C1102 C1100 1.378 . S
C1102 C1103 1.367 . S
C1103 C1102 1.367 . S
C1103 C1105 1.433 . S
C1104 C1100 1.350 . S
C1104 C1101 1.463 . S
C1104 N1108 1.427 . S
C1105 H1095 0.929 . S
C1105 C1103 1.433 . S
C1105 N1108 1.384 . S
C1106 H1097 0.929 . S
C1106 C1098 1.378 . S
C1106 C1101 1.350 . S
C1107 H1094 0.929 . S
C1107 C1099 1.433 . S
C1107 N1109 1.384 . S
N1108 C1104 1.427 . S
N1108 C1105 1.384 . S
N1109 C1101 1.427 . S
N1109 C1107 1.384 . S
H1110 C1116 0.930 . S
H1111 C1120 0.930 . S
H1112 C1125 0.929 . S
H1113 C1123 0.929 . S
H1114 C1118 0.929 . S
H1115 C1124 0.929 . S
C1116 H1110 0.930 . S
C1116 C1117 1.367 . S
C1116 C1124 1.378 . S
C1117 C1116 1.367 . S
C1117 C1125 1.433 . S
C1118 H1114 0.929 . S
C1118 C1120 1.378 . S
C1118 C1122 1.350 . S
C1119 C1122 1.463 . S
C1119 C1124 1.350 . S
C1119 N1127 1.427 . S
C1120 H1111 0.930 . S
C1120 C1118 1.378 . S
C1120 C1121 1.367 . S
C1121 C1120 1.367 . S
C1121 C1123 1.433 . S
C1122 C1118 1.350 . S
C1122 C1119 1.463 . S
C1122 N1126 1.427 . S
C1123 H1113 0.929 . S
C1123 C1121 1.433 . S
C1123 N1126 1.384 . S
C1124 H1115 0.929 . S
C1124 C1116 1.378 . S
C1124 C1119 1.350 . S
C1125 H1112 0.929 . S
C1125 C1117 1.433 . S
C1125 N1127 1.384 . S
N1126 C1122 1.427 . S
N1126 C1123 1.384 . S
N1127 C1119 1.427 . S
N1127 C1125 1.384 . S
C487 C95 1.311 . S
C491 C19 1.273 . S
C505 C126 1.310 . S
C509 C50 1.276 . S
C523 C99 1.260 . S
C527 C175 1.304 . S
C541 C130 1.265 . S
C545 C206 1.308 . S
C559 C15 1.310 . S
C563 C179 1.270 . S
C577 C46 1.304 . S
C581 C210 1.260 . S
C595 C406 1.311 . S
C599 C250 1.275 . S
C613 C299 1.276 . S
C617 C455 1.310 . S
C631 C330 1.273 . S
C635 C246 1.311 . S
C649 C379 1.277 . S
C653 C295 1.311 . S
C667 C410 1.271 . S
C671 C326 1.310 . S
C685 C375 1.311 . S
C689 C459 1.276 . S
C703 C129 1.693 . S
C707 C18 1.708 . S
C721 C49 1.700 . S
C725 C178 1.700 . S
C739 C98 1.700 . S
C743 C209 1.701 . S
C757 C249 1.693 . S
C761 C378 1.709 . S
C775 C298 1.706 . S
C779 C409 1.695 . S
C793 C329 1.693 . S
C797 C458 1.708 . S
C811 C289 2.368 . S
C815 C9 2.368 . S
C829 C58 2.371 . S
C833 C338 2.371 . S
C847 C369 2.368 . S
C851 C89 2.368 . S
C865 C138 2.367 . S
C869 C418 2.367 . S
C883 C169 2.368 . S
C887 C449 2.369 . S
C901 C258 2.370 . S
C905 C218 2.370 . S
C919 C86 1.761 . S
C923 C10 1.779 . S
C937 C59 1.773 . S
C941 C135 1.759 . S
C955 C90 1.773 . S
C959 C166 1.759 . S
C973 C139 1.775 . S
C977 C215 1.765 . S
C991 C6 1.767 . S
C995 C170 1.782 . S
C1009 C55 1.766 . S
C1013 C219 1.781 . S
C1027 C415 1.764 . S
C1031 C259 1.775 . S
C1045 C290 1.773 . S
C1049 C446 1.759 . S
C1063 C339 1.782 . S
C1067 C255 1.767 . S
C1081 C286 1.764 . S
C1085 C370 1.781 . S
C1099 C419 1.779 . S
C1103 C335 1.768 . S
C1117 C450 1.776 . S
C1121 C366 1.759 . S
