# Generated by pormake.
# Topology rob, (6)-cn, num edge types: 1
# Building blocks:
#     Node 0, Type 0, BuildingBlock: MIFKUJ_clean_sbu_0, # of connection points: 6
#     Node 1, Type 0, BuildingBlock: MIFKUJ_clean_sbu_0, # of connection points: 6
#     Node 2, Type 0, BuildingBlock: MIFKUJ_clean_sbu_0, # of connection points: 6
#     Node 3, Type 0, BuildingBlock: MIFKUJ_clean_sbu_0, # of connection points: 6
#     Edge 4, Type (0, 0), BuildingBlock: FUNLAD_clean_linker_0, # of connection points: 2
#     Edge 5, Type (0, 0), BuildingBlock: FUNLAD_clean_linker_0, # of connection points: 2
#     Edge 6, Type (0, 0), BuildingBlock: FUNLAD_clean_linker_0, # of connection points: 2
#     Edge 7, Type (0, 0), BuildingBlock: FUNLAD_clean_linker_0, # of connection points: 2
#     Edge 8, Type (0, 0), BuildingBlock: FUNLAD_clean_linker_0, # of connection points: 2
#     Edge 9, Type (0, 0), BuildingBlock: FUNLAD_clean_linker_0, # of connection points: 2
#     Edge 10, Type (0, 0), BuildingBlock: FUNLAD_clean_linker_0, # of connection points: 2
#     Edge 11, Type (0, 0), BuildingBlock: FUNLAD_clean_linker_0, # of connection points: 2
#     Edge 12, Type (0, 0), BuildingBlock: FUNLAD_clean_linker_0, # of connection points: 2
#     Edge 13, Type (0, 0), BuildingBlock: FUNLAD_clean_linker_0, # of connection points: 2
#     Edge 14, Type (0, 0), BuildingBlock: FUNLAD_clean_linker_0, # of connection points: 2
#     Edge 15, Type (0, 0), BuildingBlock: FUNLAD_clean_linker_0, # of connection points: 2
# Relax obj value: 0.069
# Max RMSD: 0.159
# Mean RMSD: 0.159
data_MOF--net-rob--node1-MIFKUJ_clean_sbu_0--edge1-FUNLAD_clean_linker_0
_symmetry_space_group_name_H-M    P1
_symmetry_Int_Tables_number       1
_symmetry_cell_setting            triclinic
loop_
_symmetry_equiv_pos_as_xyz
'x, y, z'
_cell_length_a     18.447595
_cell_length_b     28.26892
_cell_length_c     34.515539
_cell_angle_alpha  90.317611
_cell_angle_beta   84.356401
_cell_angle_gamma 89.559461
loop_
_atom_site_label
_atom_site_type_symbol
_atom_site_fract_x
_atom_site_fract_y
_atom_site_fract_z
_atom_type_partial_charge
Zn0 Zn 0.17355 0.27165 0.97765 0.0
Zn1 Zn 0.2573 0.22558 0.05029 0.0
C2 C 0.27474 0.27681 0.91424 0.0
O3 O 0.25138 0.32049 0.92042 0.0
C4 C 0.13483 0.2148 0.10765 0.0
O5 O 0.14086 0.17042 0.09628 0.0
O6 O 0.09816 0.29464 0.94293 0.0
O7 O 0.12341 0.22048 0.00992 0.0
O8 O 0.22206 0.17779 0.01338 0.0
C9 C 0.07392 0.26023 0.9242 0.0
O10 O 0.09784 0.21733 0.93045 0.0
O11 O 0.25155 0.2451 0.93824 0.0
C12 C 0.39174 0.20476 0.08531 0.0
O13 O 0.41988 0.23765 0.0618 0.0
O14 O 0.32606 0.19251 0.08337 0.0
O15 O 0.30591 0.28442 0.02928 0.0
O16 O 0.21788 0.32559 1.00497 0.0
O17 O 0.17621 0.24559 0.09056 0.0
C18 C 0.15486 0.18041 0.00863 0.0
C19 C 0.27934 0.32335 0.01872 0.0
Zn20 Zn 0.71823 0.74992 0.9764 0.0
Zn21 Zn 0.80983 0.70734 0.0388 0.0
C22 C 0.8192 0.75849 0.9128 0.0
O23 O 0.79357 0.80155 0.91972 0.0
C24 C 0.70483 0.70124 0.10165 0.0
O25 O 0.7298 0.65772 0.09686 0.0
O26 O 0.64356 0.77549 0.94239 0.0
O27 O 0.6705 0.69741 1.00795 0.0
O28 O 0.76963 0.65391 1.00835 0.0
C29 C 0.60373 0.74482 0.92793 0.0
O30 O 0.6084 0.70055 0.93884 0.0
O31 O 0.79692 0.72565 0.93597 0.0
C32 C 0.8978 0.71446 0.09894 0.0
O33 O 0.87612 0.75812 0.09357 0.0
O34 O 0.88022 0.68245 0.07559 0.0
O35 O 0.85996 0.76114 0.0098 0.0
O36 O 0.75998 0.80299 1.00568 0.0
O37 O 0.72831 0.73244 0.07724 0.0
C38 C 0.70102 0.65703 1.00766 0.0
C39 C 0.82801 0.80102 0.0088 0.0
Zn40 Zn 0.29909 0.76494 0.54409 0.0
Zn41 Zn 0.22948 0.72204 0.46856 0.0
C42 C 0.17736 0.77394 0.59775 0.0
O43 O 0.19977 0.81772 0.59297 0.0
C44 C 0.35352 0.71155 0.41707 0.0
O45 O 0.33232 0.6678 0.42359 0.0
O46 O 0.36176 0.78977 0.58452 0.0
O47 O 0.35513 0.71109 0.51742 0.0
O48 O 0.26069 0.66995 0.5027 0.0
C49 C 0.37815 0.75725 0.60754 0.0
O50 O 0.35769 0.7138 0.60076 0.0
O51 O 0.21094 0.7412 0.57774 0.0
C52 C 0.10161 0.7047 0.42645 0.0
O53 O 0.06671 0.73022 0.45435 0.0
O54 O 0.16851 0.69482 0.4283 0.0
O55 O 0.17352 0.77586 0.49504 0.0
O56 O 0.26598 0.81803 0.51125 0.0
O57 O 0.31794 0.74507 0.43504 0.0
C58 C 0.32555 0.67151 0.51204 0.0
C59 C 0.20008 0.8154 0.50367 0.0
Zn60 Zn 0.73838 0.24407 0.54895 0.0
Zn61 Zn 0.69246 0.20197 0.46908 0.0
C62 C 0.6049 0.26462 0.59191 0.0
O63 O 0.6304 0.30716 0.58418 0.0
C64 C 0.83672 0.19925 0.43056 0.0
O65 O 0.82718 0.15354 0.43508 0.0
O66 O 0.79257 0.27279 0.59168 0.0
O67 O 0.79183 0.18389 0.53326 0.0
O68 O 0.70772 0.14704 0.50358 0.0
C69 C 0.78227 0.25122 0.62401 0.0
O70 O 0.74318 0.21252 0.62596 0.0
O71 O 0.63995 0.22902 0.57693 0.0
C72 C 0.65383 0.21102 0.39411 0.0
O73 O 0.67777 0.25321 0.40231 0.0
O74 O 0.64967 0.17964 0.42052 0.0
O75 O 0.62959 0.25529 0.49053 0.0
O76 O 0.7238 0.29365 0.50864 0.0
O77 O 0.78918 0.22771 0.44667 0.0
C78 C 0.76394 0.14584 0.52204 0.0
C79 C 0.66177 0.29402 0.49553 0.0
C80 C 0.58236 0.61765 0.02406 0.0
C81 C 0.65531 0.61462 1.00817 0.0
C82 C 0.53665 0.57886 0.02279 0.0
C83 C 0.56281 0.53637 1.00517 0.0
C84 C 0.63566 0.53324 0.98916 0.0
C85 C 0.68204 0.57194 0.99115 0.0
C86 C 0.51374 0.4958 1.00207 0.0
C87 C 0.4629 0.48465 0.03105 0.0
C88 C 0.41369 0.44438 0.02789 0.0
C89 C 0.40411 0.41209 0.05853 0.0
C90 C 0.35968 0.37283 0.05555 0.0
C91 C 0.32205 0.36638 0.02251 0.0
H92 H 0.38146 0.46337 0.97125 0.0
C93 C 0.32914 0.39978 0.99251 0.0
C94 C 0.37557 0.43828 0.99494 0.0
H95 H 0.30072 0.3953 0.96675 0.0
H96 H 0.56038 0.65021 0.03733 0.0
H97 H 0.48032 0.58259 0.03467 0.0
H98 H 0.65666 0.50083 0.97523 0.0
H99 H 0.73794 0.56896 0.97839 0.0
H100 H 0.52132 0.47359 0.97613 0.0
H101 H 0.4603 0.50353 0.05868 0.0
H102 H 0.43264 0.41654 0.08428 0.0
H103 H 0.35468 0.34746 0.07908 0.0
C104 C 0.34299 0.5848 0.49946 0.0
C105 C 0.36955 0.62785 0.51252 0.0
C106 C 0.38633 0.54408 0.49828 0.0
C107 C 0.45715 0.54577 0.51009 0.0
C108 C 0.48276 0.58844 0.52418 0.0
C109 C 0.43963 0.6292 0.52517 0.0
C110 C 0.50483 0.50346 0.5093 0.0
C111 C 0.50085 0.46775 0.48372 0.0
C112 C 0.54585 0.42434 0.4845 0.0
C113 C 0.51768 0.38175 0.47173 0.0
C114 C 0.55613 0.33948 0.47457 0.0
C115 C 0.62395 0.33917 0.48988 0.0
H116 H 0.63996 0.45689 0.50683 0.0
C117 C 0.65385 0.38214 0.5009 0.0
C118 C 0.61524 0.4244 0.49817 0.0
H119 H 0.70646 0.38309 0.51231 0.0
H120 H 0.28899 0.58259 0.48981 0.0
H121 H 0.36372 0.51136 0.48862 0.0
H122 H 0.53674 0.59043 0.53394 0.0
H123 H 0.46143 0.66179 0.53571 0.0
H124 H 0.54461 0.50215 0.53046 0.0
H125 H 0.461 0.4691 0.46258 0.0
H126 H 0.46478 0.38094 0.4606 0.0
H127 H 0.53206 0.30697 0.46535 0.0
C128 C 0.14527 0.0923 1.00636 0.0
C129 C 0.11218 0.13704 1.00479 0.0
C130 C 0.10433 0.05134 1.00367 0.0
C131 C 0.02928 0.0544 0.99958 0.0
C132 C -0.00327 0.09908 0.99693 0.0
C133 C 0.03759 0.14004 0.99975 0.0
C134 C 0.98355 0.01185 0.99741 0.0
C135 C -0.00153 0.9708 0.01461 0.0
C136 C 0.95301 0.92805 0.01287 0.0
C137 C -0.0146 0.88374 0.01774 0.0
C138 C 0.94481 0.84249 0.0163 0.0
C139 C 0.87059 0.84479 0.01035 0.0
H140 H 0.85075 0.96402 1.00504 0.0
C141 C 0.83769 0.88918 1.00617 0.0
C142 C 0.87839 0.93047 1.00752 0.0
H143 H 0.78041 0.89211 1.00193 0.0
H144 H 0.20284 0.08883 0.00977 0.0
H145 H 0.13197 0.01752 1.00434 0.0
H146 H 0.93921 0.10235 0.99332 0.0
H147 H 0.01057 0.17401 0.99813 0.0
H148 H 0.93537 0.01518 0.98192 0.0
H149 H 0.04658 0.96776 0.03022 0.0
H150 H 0.04257 0.88095 0.02231 0.0
H151 H 0.97167 0.80885 0.01995 0.0
C152 C 0.86056 0.09826 0.54977 0.0
C153 C 0.80264 0.10067 0.52629 0.0
C154 C 0.90249 0.05713 0.55069 0.0
C155 C 0.8878 0.01779 0.52768 0.0
C156 C 0.82744 0.01935 0.50593 0.0
C157 C 0.78523 0.06042 0.50516 0.0
C158 C 0.93479 0.97497 0.52498 0.0
C159 C 0.00572 0.97561 0.5313 0.0
C160 C 0.05467 0.93382 0.52513 0.0
C161 C 0.13032 0.94084 0.51981 0.0
C162 C 0.17809 0.90247 0.51277 0.0
C163 C 0.15083 0.85643 0.51072 0.0
H164 H 0.97037 0.87999 0.53006 0.0
C165 C 0.07533 0.8493 0.51686 0.0
C166 C 0.02781 0.88743 0.52441 0.0
H167 H 0.05275 0.81405 0.5165 0.0
H168 H 0.87436 0.12844 0.56699 0.0
H169 H 0.94649 0.05659 0.56921 0.0
H170 H 0.81433 -0.01076 0.48841 0.0
H171 H 0.74064 0.0611 0.48696 0.0
H172 H 0.91126 0.94307 0.51413 0.0
H173 H 0.03063 0.00873 0.53862 0.0
H174 H 0.15253 0.97616 0.52067 0.0
H175 H 0.23614 0.90888 0.50854 0.0
C176 C 0.59273 0.1624 0.34559 0.0
C177 C 0.63781 0.2002 0.35394 0.0
C178 C 0.57645 0.15414 0.3073 0.0
C179 C 0.60593 0.18325 0.27678 0.0
C180 C 0.65328 0.21964 0.28514 0.0
C181 C 0.66846 0.22836 0.32326 0.0
C182 C 0.58753 0.17816 0.23606 0.0
C183 C 0.52173 0.16401 0.22691 0.0
C184 C 0.496 0.16906 0.18747 0.0
C185 C 0.42985 0.14797 0.18037 0.0
C186 C 0.39782 0.15738 0.14613 0.0
C187 C 0.43117 0.18835 0.11818 0.0
H188 H 0.58149 0.21597 0.16241 0.0
C189 C 0.49922 0.20744 0.12418 0.0
C190 C 0.5312 0.19814 0.15843 0.0
H191 H 0.52639 0.23147 0.10326 0.0
H192 H 0.56905 0.13986 0.36867 0.0
H193 H 0.54117 0.12498 0.30172 0.0
H194 H 0.67716 0.24234 0.26218 0.0
H195 H 0.70447 0.25725 0.32866 0.0
H196 H 0.62749 0.19108 0.21358 0.0
H197 H 0.48235 0.15136 0.24992 0.0
H198 H 0.40134 0.12548 0.20205 0.0
H199 H 0.34539 0.14192 0.1424 0.0
C200 C 0.63834 0.67868 0.16499 0.0
C201 C 0.65793 0.71394 0.13751 0.0
C202 C 0.60055 0.69025 0.20072 0.0
C203 C 0.58135 0.73746 0.21002 0.0
C204 C 0.59757 0.77256 0.18194 0.0
C205 C 0.63622 0.76099 0.14603 0.0
C206 C 0.54232 0.74968 0.2485 0.0
C207 C 0.55754 0.72693 0.281 0.0
C208 C 0.51089 0.72839 0.31859 0.0
C209 C 0.51433 0.68948 0.34344 0.0
C210 C 0.46524 0.68537 0.37656 0.0
C211 C 0.4125 0.72061 0.38608 0.0
H212 H 0.45783 0.79631 0.31141 0.0
C213 C 0.4122 0.76138 0.36298 0.0
C214 C 0.46079 0.76517 0.32927 0.0
H215 H 0.37202 0.7891 0.3698 0.0
H216 H 0.65328 0.64199 0.15927 0.0
H217 H 0.58619 0.66199 0.22104 0.0
H218 H 0.58206 0.80905 0.18817 0.0
H219 H 0.65024 0.78892 0.12535 0.0
H220 H 0.49889 0.77587 0.2494 0.0
H221 H 0.60285 0.7019 0.27892 0.0
H222 H 0.5528 0.66086 0.3362 0.0
H223 H 0.46707 0.65377 0.39408 0.0
C224 C 0.57967 0.79495 0.87059 0.0
C225 C 0.56123 0.75638 0.89505 0.0
C226 C 0.54759 0.80046 0.83567 0.0
C227 C 0.49598 0.76758 0.82488 0.0
C228 C 0.47451 0.73099 0.85079 0.0
C229 C 0.50697 0.72526 0.88527 0.0
C230 C 0.46651 0.76713 0.78622 0.0
C231 C 0.4889 0.79476 0.75567 0.0
C232 C 0.46459 0.78556 0.71654 0.0
C233 C 0.45071 0.82321 0.69184 0.0
C234 C 0.42441 0.8144 0.6557 0.0
C235 C 0.41269 0.76772 0.64356 0.0
H236 H 0.46917 0.70903 0.72102 0.0
C237 C 0.43034 0.73018 0.66752 0.0
C238 C 0.45608 0.73895 0.70345 0.0
H239 H 0.42316 0.69375 0.65888 0.0
H240 H 0.62153 0.81946 0.8774 0.0
H241 H 0.56516 0.82959 0.81701 0.0
H242 H 0.43455 0.70531 0.84358 0.0
H243 H 0.49122 0.69539 0.90366 0.0
H244 H 0.4263 0.74014 0.78195 0.0
H245 H 0.52566 0.82396 0.75874 0.0
H246 H 0.45812 0.85942 0.701 0.0
H247 H 0.41166 0.84408 0.63777 0.0
C248 C 0.54097 0.21716 0.64587 0.0
C249 C 0.54602 0.25873 0.62362 0.0
C250 C 0.49476 0.21546 0.68053 0.0
C251 C 0.45249 0.25528 0.69329 0.0
C252 C 0.4537 0.29535 0.66938 0.0
C253 C 0.50035 0.29724 0.63511 0.0
C254 C 0.40966 0.25822 0.73199 0.0
C255 C 0.42315 0.23202 0.76306 0.0
C256 C 0.38821 0.24333 0.80265 0.0
C257 C 0.36997 0.207 0.82936 0.0
C258 C 0.33491 0.21757 0.86634 0.0
C259 C 0.31874 0.26478 0.8773 0.0
H260 H 0.39117 0.31956 0.7952 0.0
C261 C 0.34057 0.30109 0.85119 0.0
C262 C 0.37491 0.29054 0.8144 0.0
H263 H 0.32997 0.33788 0.85884 0.0
H264 H 0.5755 0.18686 0.63764 0.0
H265 H 0.49369 0.18338 0.69749 0.0
H266 H 0.4211 0.32634 0.67821 0.0
H267 H 0.50268 0.32961 0.61839 0.0
H268 H 0.36907 0.28637 0.73596 0.0
H269 H 0.46187 0.20284 0.76012 0.0
H270 H 0.38101 0.17039 0.82122 0.0
H271 H 0.31903 0.18882 0.8859 0.0
C272 C 0.94348 0.73892 0.16159 0.0
C273 C 0.93231 0.70277 0.13474 0.0
C274 C 0.96851 0.72843 0.19739 0.0
C275 C 0.98317 0.68143 0.20736 0.0
C276 C 0.97554 0.64539 0.17989 0.0
C277 C 0.94965 0.65587 0.14398 0.0
C278 C 0.00777 0.67004 0.246 0.0
C279 C 0.98227 0.69421 0.27838 0.0
C280 C 0.01007 0.68914 0.3172 0.0
C281 C 0.9685 0.70852 0.34983 0.0
C282 C -0.00337 0.71112 0.38591 0.0
C283 C 0.06743 0.69469 0.39017 0.0
H284 H 0.11394 0.65584 0.29746 0.0
C285 C 0.10779 0.67305 0.35803 0.0
C286 C 0.07954 0.67037 0.32189 0.0
H287 H 0.16261 0.66006 0.36028 0.0
H288 H 0.93147 0.77551 0.15537 0.0
H289 H 0.97642 0.75731 0.21724 0.0
H290 H -0.01237 0.60898 0.18666 0.0
H291 H 0.94186 0.62723 0.12388 0.0
H292 H 0.04599 0.64092 0.24769 0.0
H293 H 0.93883 0.72003 0.27633 0.0
H294 H 0.91486 0.7233 0.34711 0.0
H295 H 0.96391 0.72788 0.41001 0.0
C296 C 0.87199 0.25503 0.37636 0.0
C297 C 0.88959 0.21604 0.39887 0.0
C298 C 0.91325 0.26474 0.34122 0.0
C299 C 0.97387 0.23639 0.32858 0.0
C300 C -0.00503 0.19989 0.35256 0.0
C301 C 0.95242 0.18924 0.38715 0.0
C302 C 0.0125 0.24209 0.28932 0.0
C303 C 0.97569 0.24445 0.2576 0.0
C304 C 0.01316 0.2409 0.21782 0.0
C305 C -0.01335 0.2095 0.19104 0.0
C306 C 0.02517 0.20194 0.15458 0.0
C307 C 0.08935 0.22699 0.14386 0.0
H308 H 0.09709 0.29187 0.22681 0.0
C309 C 0.11352 0.26051 0.16982 0.0
C310 C 0.07622 0.26698 0.20675 0.0
H311 H 0.16317 0.28005 0.16231 0.0
H312 H 0.82372 0.27623 0.38456 0.0
H313 H 0.8966 0.29352 0.32339 0.0
H314 H 0.04183 0.17778 0.34336 0.0
H315 H 0.96709 0.15901 0.40398 0.0
H316 H 0.07142 0.23788 0.28593 0.0
H317 H 0.91651 0.24284 0.26092 0.0
H318 H 0.93787 0.18924 0.199 0.0
H319 H 0.00551 0.17595 0.13502 0.0
C320 C 0.77313 0.25952 0.69592 0.0
C321 C 0.81095 0.26929 0.65962 0.0
C322 C 0.80203 0.27218 0.73029 0.0
C323 C 0.87079 0.29368 0.7292 0.0
C324 C 0.90657 0.30605 0.69282 0.0
C325 C 0.87674 0.29413 0.65824 0.0
C326 C 0.90792 0.30115 0.76521 0.0
C327 C 0.8942 0.27367 0.79689 0.0
C328 C 0.93731 0.27378 0.83105 0.0
C329 C 0.93784 0.23232 0.85316 0.0
C330 C 0.98058 0.22885 0.8841 0.0
C331 C 0.02305 0.2671 0.89424 0.0
H332 H 0.97728 0.34586 0.82616 0.0
C333 C 0.02016 0.30962 0.87349 0.0
C334 C 0.97783 0.31291 0.84193 0.0
H335 H 0.05245 0.33965 0.88077 0.0
H336 H 0.72118 0.24159 0.6978 0.0
H337 H 0.77056 0.26428 0.75756 0.0
H338 H 0.95903 0.32327 0.69107 0.0
H339 H 0.9066 0.30244 0.63054 0.0
H340 H 0.95245 0.32616 0.76398 0.0
H341 H 0.85409 0.24585 0.79641 0.0
H342 H 0.90665 0.20179 0.84577 0.0
H343 H 0.98119 0.19575 0.89976 0.0
C344 C 0.11876 0.72108 0.64981 0.0
C345 C 0.11921 0.76362 0.62891 0.0
C346 C 0.0706 0.71533 0.68349 0.0
C347 C 0.02167 0.75195 0.69638 0.0
C348 C 0.0193 0.79299 0.6738 0.0
C349 C 0.06791 0.79897 0.6407 0.0
C350 C 0.97463 0.75079 0.73388 0.0
C351 C -0.01298 0.72369 0.76464 0.0
C352 C 0.94674 0.73222 0.80354 0.0
C353 C 0.92788 0.69436 0.82864 0.0
C354 C 0.88781 0.70252 0.86482 0.0
C355 C 0.86713 0.74882 0.87661 0.0
H356 H 0.9451 0.80876 0.7984 0.0
C357 C 0.88933 0.78668 0.85218 0.0
C358 C 0.92868 0.77854 0.81622 0.0
H359 H 0.87544 0.82288 0.86051 0.0
H360 H 0.1579 0.69327 0.64125 0.0
H361 H 0.07287 0.68268 0.69952 0.0
H362 H 0.98179 0.8216 0.68273 0.0
H363 H 0.06666 0.83195 0.6249 0.0
H364 H 0.93083 0.77689 0.7375 0.0
H365 H 0.02857 0.69619 0.76207 0.0
H366 H 0.94244 0.65842 0.81982 0.0
H367 H 0.87185 0.67262 0.88312 0.0
loop_
_geom_bond_atom_site_label_1
_geom_bond_atom_site_label_2
_geom_bond_distance
_geom_bond_site_symmetry_2
_ccdc_geom_bond_type
Zn0 O6 1.969 . S
Zn0 O7 1.965 . S
Zn0 O11 2.024 . S
Zn0 O16 1.969 . S
Zn1 O8 1.969 . S
Zn1 O14 1.969 . S
Zn1 O15 1.965 . S
Zn1 O17 2.024 . S
C2 O3 1.229 . S
C2 O11 1.058 . S
O3 C2 1.229 . S
C4 O5 1.229 . S
C4 O17 1.058 . S
O5 C4 1.229 . S
O6 Zn0 1.969 . S
O6 C9 1.267 . S
O7 Zn0 1.965 . S
O7 C18 1.260 1_556 S
O8 Zn1 1.969 . S
O8 C18 1.258 . S
C9 O6 1.267 . S
C9 O10 1.228 . S
O10 C9 1.228 . S
O11 Zn0 2.024 . S
O11 C2 1.058 . S
C12 O13 1.228 . S
C12 O14 1.267 . S
O13 C12 1.228 . S
O14 Zn1 1.969 . S
O14 C12 1.267 . S
O15 Zn1 1.965 . S
O15 C19 1.260 1_554 S
O16 Zn0 1.969 . S
O16 C19 1.258 . S
O17 Zn1 2.024 . S
O17 C4 1.058 . S
C18 O7 1.260 1_554 S
C18 O8 1.258 . S
C19 O15 1.260 1_556 S
C19 O16 1.258 . S
Zn20 O26 1.969 . S
Zn20 O27 1.965 . S
Zn20 O31 2.024 . S
Zn20 O36 1.969 . S
Zn21 O28 1.969 . S
Zn21 O34 1.969 . S
Zn21 O35 1.965 . S
Zn21 O37 2.024 . S
C22 O23 1.229 . S
C22 O31 1.058 . S
O23 C22 1.229 . S
C24 O25 1.229 . S
C24 O37 1.058 . S
O25 C24 1.229 . S
O26 Zn20 1.969 . S
O26 C29 1.267 . S
O27 Zn20 1.965 . S
O27 C38 1.260 1_556 S
O28 Zn21 1.969 . S
O28 C38 1.258 . S
C29 O26 1.267 . S
C29 O30 1.228 . S
O30 C29 1.228 . S
O31 Zn20 2.024 . S
O31 C22 1.058 . S
C32 O33 1.228 . S
C32 O34 1.267 . S
O33 C32 1.228 . S
O34 Zn21 1.969 . S
O34 C32 1.267 . S
O35 Zn21 1.965 . S
O35 C39 1.260 1_554 S
O36 Zn20 1.969 . S
O36 C39 1.258 . S
O37 Zn21 2.024 . S
O37 C24 1.058 . S
C38 O27 1.260 1_554 S
C38 O28 1.258 . S
C39 O35 1.260 1_556 S
C39 O36 1.258 . S
Zn40 O46 1.969 . S
Zn40 O47 1.965 . S
Zn40 O51 2.024 . S
Zn40 O56 1.969 . S
Zn41 O48 1.969 . S
Zn41 O54 1.969 . S
Zn41 O55 1.965 . S
Zn41 O57 2.024 . S
C42 O43 1.229 . S
C42 O51 1.058 . S
O43 C42 1.229 . S
C44 O45 1.229 . S
C44 O57 1.058 . S
O45 C44 1.229 . S
O46 Zn40 1.969 . S
O46 C49 1.267 . S
O47 Zn40 1.965 . S
O47 C58 1.260 . S
O48 Zn41 1.969 . S
O48 C58 1.258 . S
C49 O46 1.267 . S
C49 O50 1.228 . S
O50 C49 1.228 . S
O51 Zn40 2.024 . S
O51 C42 1.058 . S
C52 O53 1.228 . S
C52 O54 1.267 . S
O53 C52 1.228 . S
O54 Zn41 1.969 . S
O54 C52 1.267 . S
O55 Zn41 1.965 . S
O55 C59 1.260 . S
O56 Zn40 1.969 . S
O56 C59 1.258 . S
O57 Zn41 2.024 . S
O57 C44 1.058 . S
C58 O47 1.260 . S
C58 O48 1.258 . S
C59 O55 1.260 . S
C59 O56 1.258 . S
Zn60 O66 1.969 . S
Zn60 O67 1.965 . S
Zn60 O71 2.024 . S
Zn60 O76 1.969 . S
Zn61 O68 1.969 . S
Zn61 O74 1.969 . S
Zn61 O75 1.965 . S
Zn61 O77 2.024 . S
C62 O63 1.229 . S
C62 O71 1.058 . S
O63 C62 1.229 . S
C64 O65 1.229 . S
C64 O77 1.058 . S
O65 C64 1.229 . S
O66 Zn60 1.969 . S
O66 C69 1.267 . S
O67 Zn60 1.965 . S
O67 C78 1.260 . S
O68 Zn61 1.969 . S
O68 C78 1.258 . S
C69 O66 1.267 . S
C69 O70 1.228 . S
O70 C69 1.228 . S
O71 Zn60 2.024 . S
O71 C62 1.058 . S
C72 O73 1.228 . S
C72 O74 1.267 . S
O73 C72 1.228 . S
O74 Zn61 1.969 . S
O74 C72 1.267 . S
O75 Zn61 1.965 . S
O75 C79 1.260 . S
O76 Zn60 1.969 . S
O76 C79 1.258 . S
O77 Zn61 2.024 . S
O77 C64 1.058 . S
C78 O67 1.260 . S
C78 O68 1.258 . S
C79 O75 1.260 . S
C79 O76 1.258 . S
C80 C81 1.386 1_554 S
C80 C82 1.383 . S
C80 H96 0.951 . S
C81 C80 1.386 1_556 S
C81 C85 1.383 . S
C82 C80 1.383 . S
C82 C83 1.402 1_554 S
C82 H97 0.951 . S
C83 C82 1.402 1_556 S
C83 C84 1.375 . S
C83 C86 1.481 . S
C84 C83 1.375 . S
C84 C85 1.367 . S
C84 H98 0.951 . S
C85 C81 1.383 . S
C85 C84 1.367 . S
C85 H99 0.950 . S
C86 C83 1.481 . S
C86 C87 1.297 1_556 S
C86 H100 0.950 . S
C87 C86 1.297 1_554 S
C87 C88 1.479 . S
C87 H101 0.950 . S
C88 C87 1.479 . S
C88 C89 1.375 . S
C88 C94 1.404 1_554 S
C89 C88 1.375 . S
C89 C90 1.369 . S
C89 H102 0.950 . S
C90 C89 1.369 . S
C90 C91 1.392 . S
C90 H103 0.951 . S
C91 C90 1.392 . S
C91 C93 1.384 1_554 S
H92 C94 0.949 . S
C93 C91 1.384 1_556 S
C93 C94 1.385 . S
C93 H95 0.950 . S
C94 C88 1.404 1_556 S
C94 H92 0.949 . S
C94 C93 1.385 . S
H95 C93 0.950 . S
H96 C80 0.951 . S
H97 C82 0.951 . S
H98 C84 0.951 . S
H99 C85 0.950 . S
H100 C86 0.950 . S
H101 C87 0.950 . S
H102 C89 0.950 . S
H103 C90 0.951 . S
C104 C105 1.386 . S
C104 C106 1.383 . S
C104 H120 0.951 . S
C105 C104 1.386 . S
C105 C109 1.383 . S
C106 C104 1.383 . S
C106 C107 1.402 . S
C106 H121 0.951 . S
C107 C106 1.402 . S
C107 C108 1.375 . S
C107 C110 1.481 . S
C108 C107 1.375 . S
C108 C109 1.367 . S
C108 H122 0.951 . S
C109 C105 1.383 . S
C109 C108 1.367 . S
C109 H123 0.950 . S
C110 C107 1.481 . S
C110 C111 1.297 . S
C110 H124 0.950 . S
C111 C110 1.297 . S
C111 C112 1.479 . S
C111 H125 0.950 . S
C112 C111 1.479 . S
C112 C113 1.375 . S
C112 C118 1.404 . S
C113 C112 1.375 . S
C113 C114 1.369 . S
C113 H126 0.950 . S
C114 C113 1.369 . S
C114 C115 1.392 . S
C114 H127 0.951 . S
C115 C114 1.392 . S
C115 C117 1.384 . S
H116 C118 0.949 . S
C117 C115 1.384 . S
C117 C118 1.385 . S
C117 H119 0.950 . S
C118 C112 1.404 . S
C118 H116 0.949 . S
C118 C117 1.385 . S
H119 C117 0.950 . S
H120 C104 0.951 . S
H121 C106 0.951 . S
H122 C108 0.951 . S
H123 C109 0.950 . S
H124 C110 0.950 . S
H125 C111 0.950 . S
H126 C113 0.950 . S
H127 C114 0.951 . S
C128 C129 1.386 1_556 S
C128 C130 1.382 1_556 S
C128 H144 0.951 . S
C129 C128 1.386 1_554 S
C129 C133 1.383 . S
C130 C128 1.382 1_554 S
C130 C131 1.404 . S
C130 H145 0.949 1_554 S
C131 C130 1.404 . S
C131 C132 1.375 . S
C131 C134 1.481 1_455 S
C132 C131 1.375 . S
C132 C133 1.367 . S
C132 H146 0.951 1_455 S
C133 C129 1.383 . S
C133 C132 1.367 . S
C133 H147 0.950 . S
C134 C131 1.481 1_655 S
C134 C135 1.297 1_645 S
C134 H148 0.950 . S
C135 C134 1.297 1_465 S
C135 C136 1.479 1_455 S
C135 H149 0.950 . S
C136 C135 1.479 1_655 S
C136 C137 1.375 . S
C136 C142 1.404 . S
C137 C136 1.375 . S
C137 C138 1.373 . S
C137 H150 0.947 1_654 S
C138 C137 1.373 . S
C138 C139 1.396 . S
C138 H151 0.943 1_554 S
C139 C138 1.396 . S
C139 C141 1.384 . S
H140 C142 0.949 . S
C141 C139 1.384 . S
C141 C142 1.385 . S
C141 H143 0.950 . S
C142 C136 1.404 . S
C142 H140 0.949 . S
C142 C141 1.385 . S
H143 C141 0.950 . S
H144 C128 0.951 . S
H145 C130 0.949 1_556 S
H146 C132 0.951 1_655 S
H147 C133 0.950 . S
H148 C134 0.950 . S
H149 C135 0.950 . S
H150 C137 0.947 1_456 S
H151 C138 0.943 1_556 S
C152 C153 1.386 . S
C152 C154 1.383 . S
C152 H168 0.951 . S
C153 C152 1.386 . S
C153 C157 1.383 . S
C154 C152 1.383 . S
C154 C155 1.402 . S
C154 H169 0.951 . S
C155 C154 1.402 . S
C155 C156 1.375 . S
C155 C158 1.481 . S
C156 C155 1.375 . S
C156 C157 1.367 . S
C156 H170 0.951 . S
C157 C153 1.383 . S
C157 C156 1.367 . S
C157 H171 0.950 . S
C158 C155 1.481 . S
C158 C159 1.297 1_545 S
C158 H172 0.949 1_545 S
C159 C158 1.297 1_565 S
C159 C160 1.479 1_655 S
C159 H173 0.950 . S
C160 C159 1.479 1_455 S
C160 C161 1.375 . S
C160 C166 1.404 . S
C161 C160 1.375 . S
C161 C162 1.369 . S
C161 H174 0.950 . S
C162 C161 1.369 . S
C162 C163 1.392 . S
C162 H175 0.951 . S
C163 C162 1.392 . S
C163 C165 1.384 . S
H164 C166 0.949 . S
C165 C163 1.384 . S
C165 C166 1.385 . S
C165 H167 0.950 . S
C166 C160 1.404 . S
C166 H164 0.949 . S
C166 C165 1.385 . S
H167 C165 0.950 . S
H168 C152 0.951 . S
H169 C154 0.951 . S
H170 C156 0.951 . S
H171 C157 0.950 . S
H172 C158 0.949 1_565 S
H173 C159 0.950 . S
H174 C161 0.950 . S
H175 C162 0.951 . S
C176 C177 1.386 . S
C176 C178 1.383 . S
C176 H192 0.951 . S
C177 C176 1.386 . S
C177 C181 1.383 . S
C178 C176 1.383 . S
C178 C179 1.402 . S
C178 H193 0.951 . S
C179 C178 1.402 . S
C179 C180 1.375 . S
C179 C182 1.481 . S
C180 C179 1.375 . S
C180 C181 1.367 . S
C180 H194 0.951 . S
C181 C177 1.383 . S
C181 C180 1.367 . S
C181 H195 0.950 . S
C182 C179 1.481 . S
C182 C183 1.297 . S
C182 H196 0.950 . S
C183 C182 1.297 . S
C183 C184 1.479 . S
C183 H197 0.950 . S
C184 C183 1.479 . S
C184 C185 1.375 . S
C184 C190 1.404 . S
C185 C184 1.375 . S
C185 C186 1.369 . S
C185 H198 0.950 . S
C186 C185 1.369 . S
C186 C187 1.392 . S
C186 H199 0.951 . S
C187 C186 1.392 . S
C187 C189 1.384 . S
H188 C190 0.949 . S
C189 C187 1.384 . S
C189 C190 1.385 . S
C189 H191 0.950 . S
C190 C184 1.404 . S
C190 H188 0.949 . S
C190 C189 1.385 . S
H191 C189 0.950 . S
H192 C176 0.951 . S
H193 C178 0.951 . S
H194 C180 0.951 . S
H195 C181 0.950 . S
H196 C182 0.950 . S
H197 C183 0.950 . S
H198 C185 0.950 . S
H199 C186 0.951 . S
C200 C201 1.386 . S
C200 C202 1.383 . S
C200 H216 0.951 . S
C201 C200 1.386 . S
C201 C205 1.383 . S
C202 C200 1.383 . S
C202 C203 1.402 . S
C202 H217 0.951 . S
C203 C202 1.402 . S
C203 C204 1.375 . S
C203 C206 1.481 . S
C204 C203 1.375 . S
C204 C205 1.367 . S
C204 H218 0.951 . S
C205 C201 1.383 . S
C205 C204 1.367 . S
C205 H219 0.950 . S
C206 C203 1.481 . S
C206 C207 1.297 . S
C206 H220 0.950 . S
C207 C206 1.297 . S
C207 C208 1.479 . S
C207 H221 0.950 . S
C208 C207 1.479 . S
C208 C209 1.375 . S
C208 C214 1.404 . S
C209 C208 1.375 . S
C209 C210 1.369 . S
C209 H222 0.950 . S
C210 C209 1.369 . S
C210 C211 1.392 . S
C210 H223 0.951 . S
C211 C210 1.392 . S
C211 C213 1.384 . S
H212 C214 0.949 . S
C213 C211 1.384 . S
C213 C214 1.385 . S
C213 H215 0.950 . S
C214 C208 1.404 . S
C214 H212 0.949 . S
C214 C213 1.385 . S
H215 C213 0.950 . S
H216 C200 0.951 . S
H217 C202 0.951 . S
H218 C204 0.951 . S
H219 C205 0.950 . S
H220 C206 0.950 . S
H221 C207 0.950 . S
H222 C209 0.950 . S
H223 C210 0.951 . S
C224 C225 1.386 . S
C224 C226 1.383 . S
C224 H240 0.951 . S
C225 C224 1.386 . S
C225 C229 1.383 . S
C226 C224 1.383 . S
C226 C227 1.402 . S
C226 H241 0.951 . S
C227 C226 1.402 . S
C227 C228 1.375 . S
C227 C230 1.481 . S
C228 C227 1.375 . S
C228 C229 1.367 . S
C228 H242 0.951 . S
C229 C225 1.383 . S
C229 C228 1.367 . S
C229 H243 0.950 . S
C230 C227 1.481 . S
C230 C231 1.297 . S
C230 H244 0.950 . S
C231 C230 1.297 . S
C231 C232 1.479 . S
C231 H245 0.950 . S
C232 C231 1.479 . S
C232 C233 1.375 . S
C232 C238 1.404 . S
C233 C232 1.375 . S
C233 C234 1.369 . S
C233 H246 0.950 . S
C234 C233 1.369 . S
C234 C235 1.392 . S
C234 H247 0.951 . S
C235 C234 1.392 . S
C235 C237 1.384 . S
H236 C238 0.949 . S
C237 C235 1.384 . S
C237 C238 1.385 . S
C237 H239 0.950 . S
C238 C232 1.404 . S
C238 H236 0.949 . S
C238 C237 1.385 . S
H239 C237 0.950 . S
H240 C224 0.951 . S
H241 C226 0.951 . S
H242 C228 0.951 . S
H243 C229 0.950 . S
H244 C230 0.950 . S
H245 C231 0.950 . S
H246 C233 0.950 . S
H247 C234 0.951 . S
C248 C249 1.386 . S
C248 C250 1.383 . S
C248 H264 0.951 . S
C249 C248 1.386 . S
C249 C253 1.383 . S
C250 C248 1.383 . S
C250 C251 1.402 . S
C250 H265 0.951 . S
C251 C250 1.402 . S
C251 C252 1.375 . S
C251 C254 1.481 . S
C252 C251 1.375 . S
C252 C253 1.367 . S
C252 H266 0.951 . S
C253 C249 1.383 . S
C253 C252 1.367 . S
C253 H267 0.950 . S
C254 C251 1.481 . S
C254 C255 1.297 . S
C254 H268 0.950 . S
C255 C254 1.297 . S
C255 C256 1.479 . S
C255 H269 0.950 . S
C256 C255 1.479 . S
C256 C257 1.375 . S
C256 C262 1.404 . S
C257 C256 1.375 . S
C257 C258 1.369 . S
C257 H270 0.950 . S
C258 C257 1.369 . S
C258 C259 1.392 . S
C258 H271 0.951 . S
C259 C258 1.392 . S
C259 C261 1.384 . S
H260 C262 0.949 . S
C261 C259 1.384 . S
C261 C262 1.385 . S
C261 H263 0.950 . S
C262 C256 1.404 . S
C262 H260 0.949 . S
C262 C261 1.385 . S
H263 C261 0.950 . S
H264 C248 0.951 . S
H265 C250 0.951 . S
H266 C252 0.951 . S
H267 C253 0.950 . S
H268 C254 0.950 . S
H269 C255 0.950 . S
H270 C257 0.950 . S
H271 C258 0.951 . S
C272 C273 1.386 . S
C272 C274 1.383 . S
C272 H288 0.951 . S
C273 C272 1.386 . S
C273 C277 1.383 . S
C274 C272 1.383 . S
C274 C275 1.402 . S
C274 H289 0.951 . S
C275 C274 1.402 . S
C275 C276 1.375 . S
C275 C278 1.481 . S
C276 C275 1.375 . S
C276 C277 1.367 . S
C276 H290 0.951 . S
C277 C273 1.383 . S
C277 C276 1.367 . S
C277 H291 0.950 . S
C278 C275 1.481 . S
C278 C279 1.297 . S
C278 H292 0.950 . S
C279 C278 1.297 . S
C279 C280 1.479 1_655 S
C279 H293 0.950 . S
C280 C279 1.479 1_455 S
C280 C281 1.375 . S
C280 C286 1.404 . S
C281 C280 1.375 . S
C281 C282 1.369 . S
C281 H294 0.950 . S
C282 C281 1.369 . S
C282 C283 1.392 . S
C282 H295 0.951 . S
C283 C282 1.392 . S
C283 C285 1.384 . S
H284 C286 0.949 . S
C285 C283 1.384 . S
C285 C286 1.385 . S
C285 H287 0.950 . S
C286 C280 1.404 . S
C286 H284 0.949 . S
C286 C285 1.385 . S
H287 C285 0.950 . S
H288 C272 0.951 . S
H289 C274 0.951 . S
H290 C276 0.951 . S
H291 C277 0.950 . S
H292 C278 0.950 . S
H293 C279 0.950 . S
H294 C281 0.950 . S
H295 C282 0.951 . S
C296 C297 1.386 . S
C296 C298 1.383 . S
C296 H312 0.951 . S
C297 C296 1.386 . S
C297 C301 1.383 . S
C298 C296 1.383 . S
C298 C299 1.402 . S
C298 H313 0.951 . S
C299 C298 1.402 . S
C299 C300 1.375 1_655 S
C299 C302 1.481 1_655 S
C300 C299 1.375 1_455 S
C300 C301 1.367 1_455 S
C300 H314 0.951 . S
C301 C297 1.383 . S
C301 C300 1.367 1_655 S
C301 H315 0.950 . S
C302 C299 1.481 1_455 S
C302 C303 1.297 1_455 S
C302 H316 0.950 . S
C303 C302 1.297 1_655 S
C303 C304 1.479 1_655 S
C303 H317 0.950 . S
C304 C303 1.479 1_455 S
C304 C305 1.375 1_455 S
C304 C310 1.404 . S
C305 C304 1.375 1_655 S
C305 C306 1.369 1_655 S
C305 H318 0.950 . S
C306 C305 1.369 1_455 S
C306 C307 1.392 . S
C306 H319 0.951 . S
C307 C306 1.392 . S
C307 C309 1.384 . S
H308 C310 0.949 . S
C309 C307 1.384 . S
C309 C310 1.385 . S
C309 H311 0.950 . S
C310 C304 1.404 . S
C310 H308 0.949 . S
C310 C309 1.385 . S
H311 C309 0.950 . S
H312 C296 0.951 . S
H313 C298 0.951 . S
H314 C300 0.951 . S
H315 C301 0.950 . S
H316 C302 0.950 . S
H317 C303 0.950 . S
H318 C305 0.950 . S
H319 C306 0.951 . S
C320 C321 1.386 . S
C320 C322 1.383 . S
C320 H336 0.951 . S
C321 C320 1.386 . S
C321 C325 1.383 . S
C322 C320 1.383 . S
C322 C323 1.402 . S
C322 H337 0.951 . S
C323 C322 1.402 . S
C323 C324 1.375 1_655 S
C323 C326 1.481 1_655 S
C324 C323 1.375 1_455 S
C324 C325 1.367 1_455 S
C324 H338 0.951 . S
C325 C321 1.383 . S
C325 C324 1.367 1_655 S
C325 H339 0.950 1_655 S
C326 C323 1.481 1_455 S
C326 C327 1.297 . S
C326 H340 0.950 . S
C327 C326 1.297 . S
C327 C328 1.479 . S
C327 H341 0.950 1_455 S
C328 C327 1.479 . S
C328 C329 1.375 1_455 S
C328 C334 1.404 . S
C329 C328 1.375 1_655 S
C329 C330 1.369 1_655 S
C329 H342 0.950 . S
C330 C329 1.369 1_455 S
C330 C331 1.392 . S
C330 H343 0.951 1_455 S
C331 C330 1.392 . S
C331 C333 1.384 . S
H332 C334 0.949 . S
C333 C331 1.384 . S
C333 C334 1.385 . S
C333 H335 0.950 . S
C334 C328 1.404 . S
C334 H332 0.949 . S
C334 C333 1.385 . S
H335 C333 0.950 . S
H336 C320 0.951 . S
H337 C322 0.951 . S
H338 C324 0.951 . S
H339 C325 0.950 1_455 S
H340 C326 0.950 . S
H341 C327 0.950 1_655 S
H342 C329 0.950 . S
H343 C330 0.951 1_655 S
C344 C345 1.386 . S
C344 C346 1.383 . S
C344 H360 0.951 . S
C345 C344 1.386 . S
C345 C349 1.383 . S
C346 C344 1.383 . S
C346 C347 1.402 . S
C346 H361 0.951 . S
C347 C346 1.402 . S
C347 C348 1.375 . S
C347 C350 1.481 . S
C348 C347 1.375 . S
C348 C349 1.367 . S
C348 H362 0.951 . S
C349 C345 1.383 . S
C349 C348 1.367 . S
C349 H363 0.950 . S
C350 C347 1.481 . S
C350 C351 1.297 . S
C350 H364 0.950 . S
C351 C350 1.297 . S
C351 C352 1.479 1_455 S
C351 H365 0.950 . S
C352 C351 1.479 1_655 S
C352 C353 1.375 . S
C352 C358 1.404 . S
C353 C352 1.375 . S
C353 C354 1.369 . S
C353 H366 0.950 . S
C354 C353 1.369 . S
C354 C355 1.392 . S
C354 H367 0.951 . S
C355 C354 1.392 . S
C355 C357 1.384 . S
H356 C358 0.949 1_455 S
C357 C355 1.384 . S
C357 C358 1.385 . S
C357 H359 0.950 . S
C358 C352 1.404 . S
C358 H356 0.949 1_655 S
C358 C357 1.385 . S
H359 C357 0.950 . S
H360 C344 0.951 . S
H361 C346 0.951 . S
H362 C348 0.951 . S
H363 C349 0.950 . S
H364 C350 0.950 . S
H365 C351 0.950 . S
H366 C353 0.950 . S
H367 C354 0.951 . S
C81 C38 1.492 1_556 S
C91 C19 1.512 1_554 S
C105 C58 1.471 . S
C115 C79 1.525 . S
C129 C18 1.460 . S
C139 C39 1.498 1_554 S
C153 C78 1.482 . S
C163 C59 1.447 . S
C177 C72 1.183 . S
C187 C12 1.149 . S
C201 C24 1.005 . S
C211 C44 1.057 . S
C225 C29 1.185 . S
C235 C49 1.288 . S
C249 C62 0.908 . S
C259 C2 1.011 . S
C273 C32 1.229 . S
C283 C52 1.277 . S
C297 C64 1.017 . S
C307 C4 1.034 . S
C321 C69 1.247 . S
C331 C9 1.157 . S
C345 C42 0.887 . S
C355 C22 1.060 . S
