# Generated by pormake.
# Topology ume, (4)-cn, num edge types: 1
# Building blocks:
#     Node 0, Type 0, BuildingBlock: ESEHIV_clean_sbu_0, # of connection points: 4
#     Node 1, Type 0, BuildingBlock: ESEHIV_clean_sbu_0, # of connection points: 4
#     Node 2, Type 0, BuildingBlock: ESEHIV_clean_sbu_0, # of connection points: 4
#     Node 3, Type 0, BuildingBlock: ESEHIV_clean_sbu_0, # of connection points: 4
#     Node 4, Type 0, BuildingBlock: ESEHIV_clean_sbu_0, # of connection points: 4
#     Node 5, Type 0, BuildingBlock: ESEHIV_clean_sbu_0, # of connection points: 4
#     Node 6, Type 0, BuildingBlock: ESEHIV_clean_sbu_0, # of connection points: 4
#     Node 7, Type 0, BuildingBlock: ESEHIV_clean_sbu_0, # of connection points: 4
#     Node 8, Type 0, BuildingBlock: ESEHIV_clean_sbu_0, # of connection points: 4
#     Node 9, Type 0, BuildingBlock: ESEHIV_clean_sbu_0, # of connection points: 4
#     Node 10, Type 0, BuildingBlock: ESEHIV_clean_sbu_0, # of connection points: 4
#     Node 11, Type 0, BuildingBlock: ESEHIV_clean_sbu_0, # of connection points: 4
#     Node 12, Type 0, BuildingBlock: ESEHIV_clean_sbu_0, # of connection points: 4
#     Node 13, Type 0, BuildingBlock: ESEHIV_clean_sbu_0, # of connection points: 4
#     Node 14, Type 0, BuildingBlock: ESEHIV_clean_sbu_0, # of connection points: 4
#     Node 15, Type 0, BuildingBlock: ESEHIV_clean_sbu_0, # of connection points: 4
#     Edge 16, Type (0, 0), BuildingBlock: XIVTED_clean_linker_0, # of connection points: 2
#     Edge 17, Type (0, 0), BuildingBlock: XIVTED_clean_linker_0, # of connection points: 2
#     Edge 18, Type (0, 0), BuildingBlock: XIVTED_clean_linker_0, # of connection points: 2
#     Edge 19, Type (0, 0), BuildingBlock: XIVTED_clean_linker_0, # of connection points: 2
#     Edge 20, Type (0, 0), BuildingBlock: XIVTED_clean_linker_0, # of connection points: 2
#     Edge 21, Type (0, 0), BuildingBlock: XIVTED_clean_linker_0, # of connection points: 2
#     Edge 22, Type (0, 0), BuildingBlock: XIVTED_clean_linker_0, # of connection points: 2
#     Edge 23, Type (0, 0), BuildingBlock: XIVTED_clean_linker_0, # of connection points: 2
#     Edge 24, Type (0, 0), BuildingBlock: XIVTED_clean_linker_0, # of connection points: 2
#     Edge 25, Type (0, 0), BuildingBlock: XIVTED_clean_linker_0, # of connection points: 2
#     Edge 26, Type (0, 0), BuildingBlock: XIVTED_clean_linker_0, # of connection points: 2
#     Edge 27, Type (0, 0), BuildingBlock: XIVTED_clean_linker_0, # of connection points: 2
#     Edge 28, Type (0, 0), BuildingBlock: XIVTED_clean_linker_0, # of connection points: 2
#     Edge 29, Type (0, 0), BuildingBlock: XIVTED_clean_linker_0, # of connection points: 2
#     Edge 30, Type (0, 0), BuildingBlock: XIVTED_clean_linker_0, # of connection points: 2
#     Edge 31, Type (0, 0), BuildingBlock: XIVTED_clean_linker_0, # of connection points: 2
#     Edge 32, Type (0, 0), BuildingBlock: XIVTED_clean_linker_0, # of connection points: 2
#     Edge 33, Type (0, 0), BuildingBlock: XIVTED_clean_linker_0, # of connection points: 2
#     Edge 34, Type (0, 0), BuildingBlock: XIVTED_clean_linker_0, # of connection points: 2
#     Edge 35, Type (0, 0), BuildingBlock: XIVTED_clean_linker_0, # of connection points: 2
#     Edge 36, Type (0, 0), BuildingBlock: XIVTED_clean_linker_0, # of connection points: 2
#     Edge 37, Type (0, 0), BuildingBlock: XIVTED_clean_linker_0, # of connection points: 2
#     Edge 38, Type (0, 0), BuildingBlock: XIVTED_clean_linker_0, # of connection points: 2
#     Edge 39, Type (0, 0), BuildingBlock: XIVTED_clean_linker_0, # of connection points: 2
#     Edge 40, Type (0, 0), BuildingBlock: XIVTED_clean_linker_0, # of connection points: 2
#     Edge 41, Type (0, 0), BuildingBlock: XIVTED_clean_linker_0, # of connection points: 2
#     Edge 42, Type (0, 0), BuildingBlock: XIVTED_clean_linker_0, # of connection points: 2
#     Edge 43, Type (0, 0), BuildingBlock: XIVTED_clean_linker_0, # of connection points: 2
#     Edge 44, Type (0, 0), BuildingBlock: XIVTED_clean_linker_0, # of connection points: 2
#     Edge 45, Type (0, 0), BuildingBlock: XIVTED_clean_linker_0, # of connection points: 2
#     Edge 46, Type (0, 0), BuildingBlock: XIVTED_clean_linker_0, # of connection points: 2
#     Edge 47, Type (0, 0), BuildingBlock: XIVTED_clean_linker_0, # of connection points: 2
# Relax obj value: 0.042
# Max RMSD: 0.161
# Mean RMSD: 0.135
data_MOF--net-ume--node1-ESEHIV_clean_sbu_0--edge1-XIVTED_clean_linker_0
_symmetry_space_group_name_H-M    P1
_symmetry_Int_Tables_number       1
_symmetry_cell_setting            triclinic
loop_
_symmetry_equiv_pos_as_xyz
'x, y, z'
_cell_length_a     28.112151
_cell_length_b     34.141667
_cell_length_c     120.61138
_cell_angle_alpha  90.145265
_cell_angle_beta   90.103129
_cell_angle_gamma 90.176366
loop_
_atom_site_label
_atom_site_type_symbol
_atom_site_fract_x
_atom_site_fract_y
_atom_site_fract_z
_atom_type_partial_charge
Cu0 Cu 0.29507 0.1021 0.31021 0.0
N1 N 0.30747 0.12488 0.32404 0.0
N2 N 0.31262 0.13719 0.3422 0.0
C3 C 0.2883 0.11821 0.33411 0.0
C4 C 0.34781 0.15675 0.337 0.0
C5 C 0.34444 0.14919 0.32584 0.0
O6 O 0.23092 0.07984 0.30914 0.0
C7 C 0.36919 0.04816 0.31463 0.0
O8 O 0.35235 0.04906 0.32478 0.0
H9 H 0.25886 0.09843 0.33558 0.0
H10 H 0.36843 0.15946 0.31947 0.0
N11 N 0.3 0.14219 0.29983 0.0
N12 N 0.32857 0.18069 0.28644 0.0
C13 C 0.3324 0.14589 0.29167 0.0
C14 C 0.27476 0.17557 0.29974 0.0
C15 C 0.29227 0.19938 0.29149 0.0
C16 C 0.21364 0.05288 0.31522 0.0
O17 O 0.24061 0.03659 0.32281 0.0
H18 H 0.35928 0.12415 0.28988 0.0
H19 H 0.24638 0.18241 0.30546 0.0
O20 O 0.34668 0.06587 0.30697 0.0
H21 H 0.37462 0.17465 0.34103 0.0
H22 H 0.27934 0.22825 0.28938 0.0
Cu23 Cu 0.94907 0.76248 0.57913 0.0
N24 N 0.98858 0.8054 0.58166 0.0
N25 N 1.0133 0.86755 0.58253 0.0
C26 C 0.9789 0.84277 0.57901 0.0
C27 C 0.04601 0.84469 0.58754 0.0
C28 C 0.03053 0.80635 0.58703 0.0
O29 O 0.90758 0.77675 0.56689 0.0
C30 C 0.89592 0.7791 0.59834 0.0
O31 O 0.89158 0.81363 0.59367 0.0
H32 H 0.94697 0.8515 0.57466 0.0
H33 H 0.04808 0.78103 0.5905 0.0
N34 N 0.98654 0.71963 0.57514 0.0
N35 N 1.01324 0.65852 0.57284 0.0
C36 C 0.97762 0.68124 0.57674 0.0
C37 C 0.02901 0.72126 0.57005 0.0
C38 C 0.04562 0.68368 0.56864 0.0
C39 C 0.88671 0.75235 0.56054 0.0
O40 O 0.88888 0.71479 0.56281 0.0
H41 H 0.94588 0.67029 0.58076 0.0
H42 H 0.04659 0.74799 0.56751 0.0
O43 O 0.91645 0.75176 0.593 0.0
H44 H 0.07808 0.85498 0.59159 0.0
H45 H 0.07859 0.67552 0.56465 0.0
Cu46 Cu 0.26143 0.43079 0.81191 0.0
N47 N 0.2473 0.40825 0.82559 0.0
N48 N 0.24306 0.39769 0.84382 0.0
C49 C 0.26703 0.41573 0.83557 0.0
C50 C 0.20723 0.37803 0.83883 0.0
C51 C 0.20999 0.38457 0.82759 0.0
O52 O 0.3225 0.45822 0.81284 0.0
C53 C 0.18712 0.48482 0.81536 0.0
O54 O 0.20724 0.48854 0.82515 0.0
H55 H 0.29681 0.43545 0.8368 0.0
H56 H 0.18556 0.37395 0.82132 0.0
N57 N 0.26567 0.39077 0.80139 0.0
N58 N 0.25875 0.35709 0.78554 0.0
C59 C 0.25066 0.39149 0.79077 0.0
C60 C 0.28384 0.35482 0.80294 0.0
C61 C 0.27954 0.33393 0.79319 0.0
C62 C 0.34703 0.46498 0.80418 0.0
O63 O 0.3288 0.45638 0.79444 0.0
H64 H 0.23356 0.41657 0.78703 0.0
H65 H 0.29902 0.34454 0.81064 0.0
O66 O 0.20735 0.4637 0.80805 0.0
H67 H 0.18059 0.36057 0.84302 0.0
H68 H 0.2913 0.30416 0.79182 0.0
Cu69 Cu 0.60494 0.76708 0.07999 0.0
N70 N 0.5653 0.72332 0.0804 0.0
N71 N 0.54138 0.66126 0.07851 0.0
C72 C 0.57061 0.68966 0.07474 0.0
C73 C 0.51559 0.67825 0.08664 0.0
C74 C 0.53043 0.71654 0.08777 0.0
O75 O 0.65426 0.75963 0.06884 0.0
C76 C 0.63443 0.75041 0.10195 0.0
O77 O 0.63464 0.71401 0.09839 0.0
H78 H 0.59665 0.68561 0.06827 0.0
H79 H 0.51891 0.73724 0.09401 0.0
N80 N 0.56911 0.80943 0.07528 0.0
N81 N 0.54914 0.87085 0.07122 0.0
C82 C 0.57953 0.84753 0.07679 0.0
C83 C 0.53077 0.80852 0.0686 0.0
C84 C 0.51838 0.84648 0.06605 0.0
C85 C 0.68061 0.72962 0.06772 0.0
O86 O 0.68053 0.70248 0.07542 0.0
H87 H 0.61014 0.85782 0.08143 0.0
H88 H 0.51407 0.78207 0.0655 0.0
O89 O 0.62679 0.77786 0.09504 0.0
H90 H 0.49031 0.66341 0.09193 0.0
H91 H 0.48954 0.85543 0.06067 0.0
Cu92 Cu 0.29172 0.43133 0.9573 0.0
N93 N 0.29672 0.4066 0.94354 0.0
N94 N 0.29656 0.39483 0.92532 0.0
C95 C 0.28098 0.41852 0.93354 0.0
C96 C 0.32279 0.36703 0.93035 0.0
C97 C 0.32279 0.37436 0.94157 0.0
O98 O 0.23387 0.4634 0.95775 0.0
C99 C 0.36615 0.47935 0.96744 0.0
O100 O 0.33864 0.48274 0.97618 0.0
H101 H 0.26025 0.44481 0.93227 0.0
H102 H 0.34161 0.358 0.94786 0.0
N103 N 0.28769 0.39185 0.96807 0.0
N104 N 0.29966 0.35502 0.98316 0.0
C105 C 0.31059 0.38877 0.97787 0.0
C106 C 0.26179 0.35879 0.96713 0.0
C107 C 0.26891 0.33616 0.97639 0.0
C108 C 0.19414 0.44735 0.95528 0.0
O109 O 0.19384 0.41044 0.9522 0.0
H110 H 0.33588 0.41012 0.98091 0.0
H111 H 0.23988 0.35121 0.96006 0.0
O112 O 0.35112 0.46082 0.95895 0.0
H113 H 0.34101 0.34328 0.9262 0.0
H114 H 0.25263 0.30799 0.97799 0.0
Cu115 Cu 0.50843 0.78528 0.20138 0.0
N116 N 0.45997 0.82255 0.19976 0.0
N117 N 0.42183 0.88003 0.19868 0.0
C118 C 0.46442 0.86195 0.19966 0.0
C119 C 0.38946 0.85077 0.19816 0.0
C120 C 0.41305 0.81547 0.19882 0.0
O121 O 0.5526 0.80457 0.21264 0.0
C122 C 0.55804 0.80425 0.18155 0.0
O123 O 0.5577 0.83998 0.18562 0.0
H124 H 0.49814 0.87703 0.20052 0.0
H125 H 0.39711 0.78659 0.19868 0.0
N126 N 0.48281 0.73769 0.20644 0.0
N127 N 0.46207 0.67445 0.20787 0.0
C128 C 0.47682 0.70332 0.20099 0.0
C129 C 0.47107 0.73026 0.21703 0.0
C130 C 0.45844 0.69141 0.21795 0.0
C131 C 0.58484 0.78292 0.21677 0.0
O132 O 0.59057 0.74735 0.21281 0.0
H133 H 0.48498 0.69918 0.1923 0.0
H134 H 0.47298 0.75148 0.22369 0.0
O135 O 0.53966 0.77657 0.18717 0.0
H136 H 0.35144 0.85454 0.19726 0.0
H137 H 0.44783 0.67663 0.22549 0.0
Cu138 Cu 0.277 0.0915 0.45459 0.0
N139 N 0.27093 0.12203 0.44189 0.0
N140 N 0.2682 0.1388 0.42402 0.0
C141 C 0.28424 0.11257 0.43151 0.0
C142 C 0.2441 0.1658 0.42994 0.0
C143 C 0.24589 0.15537 0.44097 0.0
O144 O 0.33383 0.05924 0.45269 0.0
C145 C 0.19641 0.04654 0.46358 0.0
O146 O 0.21841 0.04453 0.47317 0.0
H147 H 0.30318 0.086 0.42942 0.0
H148 H 0.22866 0.1702 0.4478 0.0
N149 N 0.28634 0.12537 0.46663 0.0
N150 N 0.27793 0.16074 0.48214 0.0
C151 C 0.25791 0.13378 0.47532 0.0
C152 C 0.32532 0.1478 0.468 0.0
C153 C 0.32029 0.16961 0.47753 0.0
C154 C 0.35794 0.04595 0.4608 0.0
O155 O 0.34149 0.05027 0.47092 0.0
H156 H 0.22302 0.12108 0.47651 0.0
H157 H 0.35539 0.14816 0.46242 0.0
O158 O 0.21687 0.06283 0.45537 0.0
H159 H 0.2259 0.19094 0.42652 0.0
H160 H 0.34617 0.18998 0.48089 0.0
Cu161 Cu 0.97151 0.74991 0.69854 0.0
N162 N 1.01212 0.70726 0.69765 0.0
N163 N 0.0359 0.64521 0.69655 0.0
C164 C 1.00127 0.66973 0.69991 0.0
C165 C 0.06984 0.66814 0.69204 0.0
C166 C 0.05508 0.7065 0.69276 0.0
O167 O 0.9321 0.74309 0.71159 0.0
C168 C 0.90785 0.77474 0.6807 0.0
O169 O 0.89281 0.8034 0.68707 0.0
H170 H 0.96734 0.66036 0.70323 0.0
H171 H 0.07315 0.73186 0.68941 0.0
N172 N 1.0085 0.79473 0.7007 0.0
N173 N 0.03294 0.85689 0.70176 0.0
C174 C 1.00103 0.83177 0.69727 0.0
C175 C 0.04651 0.79658 0.70748 0.0
C176 C 0.06161 0.83487 0.70817 0.0
C177 C 0.89427 0.72274 0.71224 0.0
O178 O 0.87669 0.70628 0.70326 0.0
H179 H 0.97154 0.84051 0.69208 0.0
H180 H 0.06109 0.77191 0.71193 0.0
O181 O 0.93826 0.75055 0.6844 0.0
H182 H 0.1021 0.65776 0.68814 0.0
H183 H 0.09068 0.84584 0.7132 0.0
Cu184 Cu 0.76059 0.60508 0.8169 0.0
N185 N 0.75711 0.63632 0.82961 0.0
N186 N 0.75703 0.65483 0.84744 0.0
C187 C 0.76086 0.62453 0.84025 0.0
C188 C 0.75076 0.68681 0.84103 0.0
C189 C 0.7509 0.67531 0.83007 0.0
O190 O 0.7065 0.56899 0.81726 0.0
C191 C 0.84211 0.56037 0.80939 0.0
O192 O 0.8175 0.55234 0.80039 0.0
H193 H 0.76583 0.59428 0.84262 0.0
H194 H 0.74705 0.69411 0.82292 0.0
N195 N 0.75358 0.63682 0.80434 0.0
N196 N 0.76284 0.66303 0.78749 0.0
C197 C 0.78337 0.64203 0.7957 0.0
C198 C 0.7133 0.65557 0.80155 0.0
C199 C 0.71882 0.67167 0.79118 0.0
C200 C 0.68818 0.55526 0.80839 0.0
O201 O 0.71003 0.56128 0.79892 0.0
H202 H 0.81847 0.62927 0.79521 0.0
H203 H 0.68147 0.6562 0.80657 0.0
O204 O 0.82305 0.58033 0.81712 0.0
H205 H 0.74714 0.71657 0.844 0.0
H206 H 0.69223 0.68796 0.78663 0.0
Cu207 Cu 0.51791 0.26633 0.06973 0.0
N208 N 0.55735 0.30986 0.0697 0.0
N209 N 0.57676 0.37318 0.07016 0.0
C210 C 0.54112 0.3467 0.07021 0.0
C211 C 0.61718 0.35196 0.06954 0.0
C212 C 0.60502 0.31273 0.06928 0.0
O213 O 0.46674 0.27883 0.0595 0.0
C214 C 0.52695 0.25507 0.09248 0.0
O215 O 0.57224 0.25449 0.08982 0.0
H216 H 0.50364 0.35373 0.07048 0.0
H217 H 0.62911 0.28812 0.06888 0.0
N218 N 0.55049 0.22241 0.06477 0.0
N219 N 0.57 0.15974 0.06242 0.0
C220 C 0.54648 0.18583 0.06877 0.0
C221 C 0.57768 0.21952 0.05564 0.0
C222 C 0.58973 0.18076 0.05415 0.0
C223 C 0.44737 0.2544 0.0529 0.0
O224 O 0.45812 0.2171 0.05366 0.0
H225 H 0.52451 0.17825 0.07581 0.0
H226 H 0.58647 0.24368 0.05023 0.0
O227 O 0.49605 0.25882 0.08482 0.0
H228 H 0.65292 0.3638 0.06948 0.0
H229 H 0.61043 0.16885 0.04738 0.0
Cu230 Cu 0.78906 0.92194 0.31354 0.0
N231 N 0.78244 0.88953 0.32588 0.0
N232 N 0.7774 0.87215 0.3437 0.0
C233 C 0.79448 0.89861 0.3364 0.0
C234 C 0.75388 0.84534 0.33752 0.0
C235 C 0.75706 0.85614 0.32653 0.0
O236 O 0.84928 0.95026 0.31523 0.0
C237 C 0.71232 0.97179 0.3058 0.0
O238 O 0.73297 0.97224 0.29604 0.0
H239 H 0.81293 0.92531 0.3387 0.0
H240 H 0.74018 0.84173 0.31955 0.0
N241 N 0.79011 0.89141 0.30058 0.0
N242 N 0.76932 0.86209 0.28463 0.0
C243 C 0.75456 0.88412 0.29331 0.0
C244 C 0.82841 0.87304 0.29643 0.0
C245 C 0.81577 0.85497 0.28663 0.0
C246 C 0.87118 0.96725 0.30734 0.0
O247 O 0.85108 0.96886 0.29751 0.0
H248 H 0.71861 0.89468 0.29437 0.0
H249 H 0.86336 0.87341 0.30019 0.0
O250 O 0.73269 0.95485 0.3139 0.0
H251 H 0.73487 0.82022 0.34074 0.0
H252 H 0.8394 0.83881 0.28123 0.0
Cu253 Cu 0.09032 0.26107 0.57279 0.0
N254 N 0.04801 0.22013 0.57542 0.0
N255 N 1.02128 0.15893 0.57747 0.0
C256 C 0.0574 0.18189 0.57397 0.0
C257 C 0.98759 0.18389 0.58115 0.0
C258 C 1.00429 0.22168 0.5799 0.0
O259 O 0.13115 0.24403 0.56073 0.0
C260 C 0.14236 0.24343 0.59216 0.0
O261 O 0.14361 0.20816 0.5878 0.0
H262 H 0.09054 0.17121 0.57057 0.0
H263 H 0.98646 0.24833 0.58237 0.0
N264 N 0.05595 0.30544 0.5687 0.0
N265 N 0.03067 0.36731 0.56747 0.0
C266 C 0.06344 0.34285 0.57185 0.0
C267 C 1.01738 0.30619 0.56209 0.0
C268 C 1.00166 0.34426 0.56133 0.0
C269 C 0.14896 0.26676 0.55349 0.0
O270 O 0.14367 0.3048 0.55457 0.0
H271 H 0.09189 0.35178 0.57737 0.0
H272 H 1.00176 0.28073 0.55815 0.0
O273 O 0.12396 0.27123 0.5866 0.0
H274 H 0.95408 0.17548 0.58486 0.0
H275 H 0.97156 0.35423 0.55651 0.0
Cu276 Cu 0.77891 0.90848 0.45814 0.0
N277 N 0.79268 0.88583 0.44432 0.0
N278 N 0.80025 0.87376 0.42617 0.0
C279 C 0.77475 0.89239 0.43409 0.0
C280 C 0.83489 0.85453 0.43163 0.0
C281 C 0.83007 0.86196 0.44277 0.0
O282 O 0.71593 0.9328 0.45874 0.0
C283 C 0.85451 0.96218 0.45455 0.0
O284 O 0.83711 0.96317 0.44444 0.0
H285 H 0.74536 0.91184 0.4324 0.0
H286 H 0.85339 0.85192 0.4493 0.0
N287 N 0.7784 0.86816 0.46858 0.0
N288 N 0.78631 0.83482 0.48445 0.0
C289 C 0.79072 0.87001 0.47938 0.0
C290 C 0.76573 0.83074 0.46673 0.0
C291 C 0.77061 0.81013 0.47646 0.0
C292 C 0.69858 0.95872 0.45233 0.0
O293 O 0.72501 0.97343 0.44439 0.0
H294 H 0.80238 0.89674 0.48339 0.0
H295 H 0.75413 0.81922 0.45881 0.0
O296 O 0.83219 0.94299 0.46196 0.0
H297 H 0.86238 0.83697 0.4278 0.0
H298 H 0.76393 0.77912 0.47744 0.0
Cu299 Cu 0.08976 0.25401 0.6939 0.0
N300 N 0.04754 0.29519 0.69164 0.0
N301 N 1.01818 0.35569 0.69083 0.0
C302 C 0.04943 0.33168 0.69587 0.0
C303 C 0.99532 0.33338 0.68326 0.0
C304 C 1.01336 0.29599 0.68382 0.0
O305 O 0.12993 0.26463 0.70674 0.0
C306 C 0.13595 0.27474 0.67405 0.0
O307 O 0.12909 0.31036 0.67784 0.0
H308 H 0.07542 0.34122 0.70193 0.0
H309 H 1.00429 0.27162 0.67846 0.0
N310 N 0.05376 0.20984 0.69727 0.0
N311 N 0.03077 0.14792 0.69977 0.0
C312 C 0.06246 0.172 0.69483 0.0
C313 C 1.01527 0.20963 0.70388 0.0
C314 C 1.00107 0.17146 0.70546 0.0
C315 C 0.15801 0.29364 0.70796 0.0
O316 O 0.16437 0.31818 0.69973 0.0
H317 H 0.09259 0.16224 0.68998 0.0
H318 H 0.99962 0.23546 0.70757 0.0
O319 O 0.1242 0.24567 0.68007 0.0
H320 H 0.96903 0.3438 0.67741 0.0
H321 H 0.97172 0.16167 0.71057 0.0
Cu322 Cu 0.78756 0.61211 0.96088 0.0
N323 N 0.78473 0.64288 0.94804 0.0
N324 N 0.77817 0.6605 0.93021 0.0
C325 C 0.78506 0.6306 0.93739 0.0
C326 C 0.77357 0.6927 0.93664 0.0
C327 C 0.77736 0.68175 0.94758 0.0
O328 O 0.844 0.57846 0.96007 0.0
C329 C 0.71092 0.56152 0.96882 0.0
O330 O 0.73798 0.55297 0.97736 0.0
H331 H 0.78849 0.60016 0.935 0.0
H332 H 0.77364 0.70074 0.9547 0.0
N333 N 0.79391 0.64526 0.97333 0.0
N334 N 0.78706 0.67249 0.9902 0.0
C335 C 0.7725 0.64333 0.98335 0.0
C336 C 0.82296 0.67663 0.97396 0.0
C337 C 0.81874 0.69347 0.98428 0.0
C338 C 0.88365 0.59468 0.95766 0.0
O339 O 0.88415 0.6323 0.95543 0.0
H340 H 0.7463 0.6215 0.98555 0.0
H341 H 0.84571 0.68676 0.96735 0.0
O342 O 0.72689 0.58387 0.96124 0.0
H343 H 0.76746 0.72217 0.9337 0.0
H344 H 0.83812 0.71887 0.98725 0.0
Cu345 Cu 0.4227 0.27672 0.1947 0.0
N346 N 0.38141 0.23354 0.19495 0.0
N347 N 0.36433 0.16925 0.19544 0.0
C348 C 0.39748 0.1969 0.19323 0.0
C349 C 0.32556 0.18966 0.19868 0.0
C350 C 0.33629 0.22927 0.19844 0.0
O351 O 0.45878 0.26929 0.20841 0.0
C352 C 0.42958 0.2716 0.17246 0.0
O353 O 0.38372 0.27546 0.17423 0.0
H354 H 0.43402 0.19083 0.19104 0.0
H355 H 0.31359 0.25294 0.20113 0.0
N356 N 0.39351 0.32644 0.19433 0.0
N357 N 0.38749 0.392 0.19428 0.0
C358 C 0.41691 0.36094 0.19518 0.0
C359 C 0.34768 0.33607 0.1926 0.0
C360 C 0.34387 0.37646 0.19257 0.0
C361 C 0.44975 0.28958 0.21704 0.0
O362 O 0.42529 0.32201 0.21601 0.0
H363 H 0.45495 0.36313 0.19646 0.0
H364 H 0.31908 0.31529 0.19136 0.0
O365 O 0.45746 0.27155 0.18082 0.0
H366 H 0.29217 0.17705 0.20136 0.0
H367 H 0.3114 0.39305 0.19157 0.0
H368 H 0.92934 0.95835 0.32551 0.0
H369 H 0.15002 0.07461 0.29905 0.0
H370 H 0.92625 1.00956 0.29284 0.0
H371 H 0.16111 1.00406 0.32857 0.0
H372 H 0.0664 0.05534 0.29732 0.0
H373 H 1.01217 0.97958 0.32752 0.0
C374 C 0.9459 0.97429 0.31878 0.0
C375 C 0.9206 0.9821 0.30897 0.0
C376 C 0.08713 0.04403 0.30417 0.0
C377 C 1.01581 1.00648 0.31124 0.0
C378 C 0.13496 0.05504 0.30517 0.0
C379 C 0.1629 0.04089 0.31396 0.0
C380 C 0.06669 0.01889 0.31207 0.0
C381 C 0.14117 0.01562 0.32164 0.0
C382 C 0.99335 0.98626 0.31992 0.0
C383 C 0.94422 1.00278 0.30054 0.0
N384 N 0.09445 1.00555 0.32053 0.0
N385 N 0.99035 0.01423 0.30187 0.0
H386 H 0.09305 0.61402 0.57332 0.0
H387 H 0.95101 0.41197 0.56641 0.0
H388 H 0.93992 0.60638 0.57239 0.0
H389 H 0.10251 0.4186 0.57187 0.0
H390 H 0.94629 0.48311 0.56828 0.0
H391 H 0.09734 0.54261 0.57254 0.0
C392 C 0.0603 0.59733 0.57293 0.0
C393 C 1.01604 0.61631 0.57287 0.0
C394 C 0.98056 0.46902 0.56911 0.0
C395 C 1.02067 0.53432 0.57201 0.0
C396 C 0.98333 0.42837 0.56797 0.0
C397 C 0.02728 0.4092 0.56893 0.0
C398 C 1.02209 0.49086 0.57116 0.0
C399 C 0.06785 0.43203 0.57116 0.0
C400 C 0.06277 0.55651 0.57255 0.0
C401 C 0.97477 0.59305 0.57255 0.0
N402 N 0.06431 0.47163 0.57213 0.0
N403 N 0.97809 0.55333 0.57206 0.0
H404 H 0.62734 0.54465 0.82607 0.0
H405 H 0.40954 0.47811 0.78726 0.0
H406 H 0.6373 0.52741 0.79069 0.0
H407 H 0.39917 0.48331 0.82293 0.0
H408 H 0.49276 0.49763 0.78856 0.0
H409 H 0.54428 0.52247 0.82535 0.0
C410 C 0.61231 0.53584 0.81817 0.0
C411 C 0.63951 0.53801 0.80842 0.0
C412 C 0.4724 0.49456 0.79613 0.0
C413 C 0.54419 0.51306 0.80752 0.0
C414 C 0.42465 0.48354 0.79539 0.0
C415 C 0.39707 0.47905 0.805 0.0
C416 C 0.49316 0.50135 0.80657 0.0
C417 C 0.41895 0.48646 0.81529 0.0
C418 C 0.56479 0.52333 0.81776 0.0
C419 C 0.61791 0.52633 0.79842 0.0
N420 N 0.46567 0.49725 0.8158 0.0
N421 N 0.57165 0.51462 0.79824 0.0
H422 H 0.56977 0.10559 0.04597 0.0
H423 H 0.57767 0.92262 0.08692 0.0
H424 H 0.5683 0.11848 0.08154 0.0
H425 H 0.52745 0.91446 0.0532 0.0
H426 H 0.58443 0.99386 0.08485 0.0
H427 H 0.56504 0.03443 0.04817 0.0
C428 C 0.56894 0.09337 0.05424 0.0
C429 C 0.56944 0.11784 0.0636 0.0
C430 C 0.57178 0.97645 0.07793 0.0
C431 C 0.56384 0.03668 0.06617 0.0
C432 C 0.56813 0.93589 0.07909 0.0
C433 C 0.55186 0.91276 0.07023 0.0
C434 C 0.55981 0.99384 0.06777 0.0
C435 C 0.53959 0.93133 0.06027 0.0
C436 C 0.56582 0.05284 0.05549 0.0
C437 C 0.56759 0.10056 0.07413 0.0
N438 N 0.54411 0.97078 0.05928 0.0
N439 N 0.56506 0.06098 0.07515 0.0
H440 H 0.10418 0.4173 0.95367 0.0
H441 H 0.97353 0.62463 0.95621 0.0
H442 H 0.17915 0.52654 0.95846 0.0
H443 H 0.89835 0.51471 0.959 0.0
H444 H 0.0487 0.58926 0.95599 0.0
H445 H 0.02878 0.45239 0.95458 0.0
C446 C 0.10489 0.44873 0.95491 0.0
C447 C 0.14833 0.46898 0.95597 0.0
C448 C 1.01585 0.57281 0.95667 0.0
C449 C 0.0615 0.50947 0.95697 0.0
C450 C 0.97271 0.59298 0.95677 0.0
C451 C 0.92928 0.57265 0.9576 0.0
C452 C 1.01595 0.53179 0.95731 0.0
C453 C 0.93084 0.53163 0.95835 0.0
C454 C 0.06165 0.46872 0.95546 0.0
C455 C 0.14668 0.50968 0.9576 0.0
N456 N 0.97342 0.51256 0.95813 0.0
N457 N 0.10404 0.52858 0.958 0.0
H458 H 0.34697 0.45435 0.18394 0.0
H459 H 0.48389 0.61252 0.22083 0.0
H460 H 0.45585 0.42338 0.20751 0.0
H461 H 0.42247 0.64286 0.18926 0.0
H462 H 0.46732 0.54339 0.21701 0.0
H463 H 0.36728 0.52386 0.18663 0.0
C464 C 0.37511 0.46217 0.18967 0.0
C465 C 0.39978 0.43297 0.1955 0.0
C466 C 0.45761 0.56508 0.21088 0.0
C467 C 0.42291 0.51238 0.19868 0.0
C468 C 0.46684 0.60457 0.21309 0.0
C469 C 0.45439 0.6335 0.20536 0.0
C470 C 0.43488 0.55423 0.20096 0.0
C471 C 0.43285 0.62145 0.1954 0.0
C472 C 0.38687 0.50179 0.19115 0.0
C473 C 0.43623 0.4448 0.20277 0.0
N474 N 0.42328 0.58276 0.19353 0.0
N475 N 0.44635 0.48349 0.20423 0.0
H476 H 0.41177 0.04711 0.44177 0.0
H477 H 0.63733 0.94173 0.46937 0.0
H478 H 0.41562 1.00895 0.47584 0.0
H479 H 0.6442 1.00337 0.43822 0.0
H480 H 0.55396 0.96089 0.47118 0.0
H481 H 0.49424 0.02542 0.43956 0.0
C482 C 0.42972 0.03383 0.44876 0.0
C483 C 0.40655 0.02991 0.45902 0.0
C484 C 0.57369 0.97029 0.46395 0.0
C485 C 0.50127 1.0051 0.45654 0.0
C486 C 0.62139 0.95933 0.4629 0.0
C487 C 0.64808 0.97101 0.45363 0.0
C488 C 0.55206 0.99283 0.45563 0.0
C489 C 0.62523 0.99381 0.44553 0.0
C490 C 0.47696 0.02166 0.4475 0.0
C491 C 0.43192 1.01266 0.46778 0.0
N492 N 0.57859 1.00384 0.4467 0.0
N493 N 0.47776 1.00093 0.46634 0.0
H494 H 1.01231 0.10124 0.71725 0.0
H495 H 1.01416 0.90108 0.68363 0.0
H496 H 0.05007 0.09887 0.68265 0.0
H497 H 0.05138 0.90831 0.71825 0.0
H498 H 1.01417 0.97321 0.68274 0.0
H499 H 1.01292 0.02957 0.71748 0.0
C500 C 1.02044 0.08552 0.70969 0.0
C501 C 0.03112 0.10581 0.69991 0.0
C502 C 1.02251 0.95885 0.6905 0.0
C503 C 0.03159 0.02402 0.70009 0.0
C504 C 1.02224 0.91791 0.69102 0.0
C505 C 0.03302 0.89892 0.70101 0.0
C506 C 0.03245 0.9807 0.70012 0.0
C507 C 0.04346 0.92187 0.71037 0.0
C508 C 1.02109 0.04473 0.70984 0.0
C509 C 0.04197 0.08413 0.69035 0.0
N510 N 0.04251 0.96154 0.70972 0.0
N511 N 0.04156 0.04426 0.69064 0.0
H512 H 0.65885 0.973 0.32472 0.0
H513 H 0.42112 0.05003 0.29529 0.0
H514 H 0.65164 1.00092 0.28987 0.0
H515 H 0.42913 1.01305 0.32944 0.0
H516 H 0.50492 0.03233 0.29295 0.0
H517 H 0.57499 0.98944 0.32653 0.0
C518 C 0.63977 0.98291 0.31745 0.0
C519 C 0.66255 0.98555 0.30712 0.0
C520 C 0.4882 0.02786 0.30093 0.0
C521 C 0.56575 1.00415 0.30913 0.0
C522 C 0.44025 0.03774 0.30226 0.0
C523 C 0.41791 0.03308 0.31259 0.0
C524 C 0.51412 1.01334 0.31 0.0
C525 C 0.4447 0.01723 0.32133 0.0
C526 C 0.59167 0.99211 0.31848 0.0
C527 C 0.63569 0.99853 0.298 0.0
N528 N 0.4913 1.00817 0.31984 0.0
N529 N 0.58871 1.00725 0.29921 0.0
H530 H 0.9372 0.916 0.58046 0.0
H531 H 0.09723 0.11006 0.57875 0.0
H532 H 0.09049 0.91566 0.58248 0.0
H533 H 0.94381 0.11106 0.5774 0.0
H534 H 0.09538 0.03882 0.5797 0.0
H535 H 0.93887 0.9872 0.57892 0.0
C536 C 0.97127 0.9308 0.5805 0.0
C537 C 1.01382 0.90966 0.58157 0.0
C538 C 0.06209 0.05458 0.57918 0.0
C539 C 1.01592 0.99147 0.57994 0.0
C540 C 0.06311 0.09535 0.57855 0.0
C541 C 1.02057 0.11672 0.57794 0.0
C542 C 1.01822 0.03483 0.57919 0.0
C543 C 0.97743 0.09588 0.57796 0.0
C544 C 0.97217 0.97156 0.57969 0.0
C545 C 0.05682 0.93068 0.58178 0.0
N546 N 0.97737 0.05611 0.57856 0.0
N547 N 0.05676 0.97038 0.58096 0.0
H548 H 0.12876 0.47428 0.79721 0.0
H549 H 0.9037 0.57416 0.8266 0.0
H550 H 0.13303 0.52865 0.82955 0.0
H551 H 0.89722 0.52164 0.79404 0.0
H552 H 0.98814 0.55838 0.82757 0.0
H553 H 0.04502 0.49313 0.79549 0.0
C554 C 0.11233 0.49056 0.8039 0.0
C555 C 0.13811 0.49979 0.81355 0.0
C556 C 0.96833 0.55024 0.82021 0.0
C557 C 0.04197 0.52106 0.81169 0.0
C558 C 0.91993 0.55915 0.81966 0.0
C559 C 0.89307 0.54917 0.81023 0.0
C560 C 0.99042 0.53113 0.81127 0.0
C561 C 0.91637 0.52982 0.80149 0.0
C562 C 0.06439 0.50113 0.80293 0.0
C563 C 0.11472 0.52078 0.82195 0.0
N564 N 0.96364 0.52145 0.80222 0.0
N565 N 0.06808 0.53049 0.82085 0.0
H566 H 0.47229 0.60653 0.08145 0.0
H567 H 0.63954 0.42847 0.06305 0.0
H568 H 0.61653 0.62131 0.06989 0.0
H569 H 0.50269 0.41408 0.07874 0.0
H570 H 0.62961 0.49952 0.06409 0.0
H571 H 0.48007 0.5359 0.07882 0.0
C572 C 0.50549 0.59502 0.07833 0.0
C573 C 0.5438 0.62005 0.07596 0.0
C574 C 0.60173 0.48072 0.06727 0.0
C575 C 0.55299 0.53919 0.07289 0.0
C576 C 0.60753 0.44015 0.06674 0.0
C577 C 0.57189 0.41513 0.07078 0.0
C578 C 0.55999 0.49637 0.07188 0.0
C579 C 0.53081 0.43204 0.07535 0.0
C580 C 0.50991 0.55469 0.07681 0.0
C581 C 0.58578 0.60343 0.07174 0.0
N582 N 0.52604 0.47153 0.07577 0.0
N583 N 0.58931 0.56406 0.0704 0.0
H584 H 0.41943 0.50078 0.9856 0.0
H585 H 0.65062 0.56073 0.95092 0.0
H586 H 0.42738 0.48991 0.95 0.0
H587 H 0.65598 0.53228 0.98574 0.0
H588 H 0.56658 0.54175 0.95057 0.0
H589 H 0.50353 0.52005 0.98597 0.0
C590 C 0.43867 0.50279 0.97785 0.0
C591 C 0.41617 0.49371 0.96775 0.0
C592 C 0.58619 0.5395 0.95827 0.0
C593 C 0.51256 0.51577 0.96813 0.0
C594 C 0.63421 0.55036 0.95849 0.0
C595 C 0.66058 0.548 0.96837 0.0
C596 C 0.56393 0.52676 0.96804 0.0
C597 C 0.63724 0.53435 0.97792 0.0
C598 C 0.48679 0.51352 0.97808 0.0
C599 C 0.44318 0.49655 0.95798 0.0
N600 N 0.59023 0.52453 0.97753 0.0
N601 N 0.48978 0.50744 0.95841 0.0
H602 H 0.34189 0.91815 0.20531 0.0
H603 H 0.43415 0.128 0.18493 0.0
H604 H 0.48047 0.93746 0.19102 0.0
H605 H 0.31045 0.11304 0.2057 0.0
H606 H 0.44812 0.05775 0.18578 0.0
H607 H 0.32643 0.98855 0.20422 0.0
C608 C 0.36902 0.93713 0.2019 0.0
C609 C 0.4126 0.9217 0.19825 0.0
C610 C 0.41792 0.06984 0.19016 0.0
C611 C 0.39505 1.00262 0.19698 0.0
C612 C 0.40991 0.11019 0.18972 0.0
C613 C 0.37122 0.1271 0.19536 0.0
C614 C 0.38688 0.04571 0.19619 0.0
C615 C 0.34059 0.10175 0.20117 0.0
C616 C 0.36025 0.97741 0.20134 0.0
C617 C 0.44662 0.94797 0.19404 0.0
N618 N 0.34912 0.06247 0.20144 0.0
N619 N 0.43705 0.98701 0.19348 0.0
H620 H 0.908 0.95772 0.47373 0.0
H621 H 0.14014 0.04949 0.44507 0.0
H622 H 0.91234 1.00213 0.44027 0.0
H623 H 0.1374 1.01388 0.47938 0.0
H624 H 0.0567 0.03124 0.44333 0.0
H625 H 0.9911 0.97823 0.47624 0.0
C626 C 0.92615 0.97215 0.46695 0.0
C627 C 0.90297 0.97812 0.45675 0.0
C628 C 0.07421 0.02733 0.45125 0.0
C629 C 0.99837 1.0012 0.45954 0.0
C630 C 0.12211 0.03763 0.45225 0.0
C631 C 0.14614 0.03321 0.46239 0.0
C632 C 0.04965 1.01231 0.46045 0.0
C633 C 0.12049 0.01774 0.47139 0.0
C634 C 0.97371 0.98368 0.46838 0.0
C635 C 0.92854 0.9968 0.44827 0.0
N636 N 0.07368 1.00786 0.47021 0.0
N637 N 0.97472 1.00743 0.44984 0.0
H638 H 1.00905 0.40791 0.6742 0.0
H639 H 1.00188 0.59718 0.71248 0.0
H640 H 0.02511 0.3987 0.70964 0.0
H641 H 0.06325 0.59796 0.67977 0.0
H642 H 0.99532 0.52531 0.7114 0.0
H643 H 1.01263 0.47937 0.67583 0.0
C644 C 1.01261 0.42104 0.68234 0.0
C645 C 1.01666 0.39759 0.69181 0.0
C646 C 1.01038 0.54133 0.7045 0.0
C647 C 1.02085 0.47897 0.69373 0.0
C648 C 1.01399 0.5821 0.7051 0.0
C649 C 0.03343 0.60321 0.69623 0.0
C650 C 0.02517 0.5219 0.69485 0.0
C651 C 0.04868 0.58259 0.68683 0.0
C652 C 1.01511 0.46168 0.68325 0.0
C653 C 1.02205 0.41596 0.70216 0.0
N654 N 0.04381 0.54306 0.68634 0.0
N655 N 0.02375 0.45571 0.70287 0.0
H656 H 0.38095 0.13403 0.35792 0.0
H657 H 0.2038 0.16139 0.40856 0.0
H658 H 0.22891 0.13462 0.35334 0.0
H659 H 0.34375 0.11196 0.41241 0.0
H660 H 0.21342 0.15866 0.38836 0.0
H661 H 0.36935 0.13258 0.37801 0.0
C662 C 0.34509 0.13393 0.36117 0.0
C663 C 0.30578 0.13466 0.354 0.0
C664 C 0.2419 0.14827 0.39364 0.0
C665 C 0.29221 0.13321 0.37696 0.0
C666 C 0.23661 0.15012 0.40514 0.0
C667 C 0.27316 0.13701 0.41215 0.0
C668 C 0.2844 0.1339 0.38911 0.0
C669 C 0.31468 0.12214 0.4073 0.0
C670 C 0.33849 0.13285 0.37262 0.0
C671 C 0.26005 0.13393 0.35862 0.0
N672 N 0.31937 0.12132 0.39608 0.0
N673 N 0.25445 0.13367 0.36984 0.0
H674 H 0.90904 0.71411 0.61134 0.0
H675 H 0.86103 0.82973 0.66811 0.0
H676 H 0.85894 0.83341 0.61272 0.0
H677 H 0.924 0.71479 0.66614 0.0
H678 H 0.84814 0.82806 0.648 0.0
H679 H 0.90239 0.71027 0.6315 0.0
C680 C 0.89599 0.73934 0.61585 0.0
C681 C 0.88504 0.77428 0.61031 0.0
C682 C 0.86433 0.80305 0.652 0.0
C683 C 0.87779 0.77021 0.63347 0.0
C684 C 0.87154 0.80394 0.66349 0.0
C685 C 0.89411 0.77255 0.66883 0.0
C686 C 0.87963 0.77049 0.64581 0.0
C687 C 0.90696 0.73988 0.66239 0.0
C688 C 0.89237 0.73718 0.62739 0.0
C689 C 0.86815 0.80595 0.61663 0.0
N690 N 0.89986 0.73984 0.65125 0.0
N691 N 0.8655 0.80329 0.62787 0.0
H692 H 0.3285 0.40319 0.85414 0.0
H693 H 0.21708 0.42079 0.91495 0.0
H694 H 0.17755 0.39894 0.86025 0.0
H695 H 0.35899 0.37842 0.90892 0.0
H696 H 0.20407 0.4246 0.89483 0.0
H697 H 0.34253 0.40572 0.87424 0.0
C698 C 0.29838 0.40307 0.85972 0.0
C699 C 0.25186 0.40053 0.85556 0.0
C700 C 0.23808 0.41457 0.89793 0.0
C701 C 0.26747 0.4037 0.87847 0.0
C702 C 0.24555 0.41262 0.90938 0.0
C703 C 0.289 0.39899 0.91357 0.0
C704 C 0.27464 0.40348 0.89065 0.0
C705 C 0.32474 0.38853 0.90602 0.0
C706 C 0.30635 0.4043 0.87116 0.0
C707 C 0.21398 0.40027 0.86314 0.0
N708 N 0.31684 0.39109 0.89492 0.0
N709 N 0.22259 0.40195 0.87422 0.0
H710 H 0.63714 0.6976 0.119 0.0
H711 H 0.58876 0.85795 0.16626 0.0
H712 H 0.62924 0.82173 0.11256 0.0
H713 H 0.57001 0.73359 0.17099 0.0
H714 H 0.61487 0.84538 0.14725 0.0
H715 H 0.62474 0.71066 0.1387 0.0
C716 C 0.63347 0.72768 0.12173 0.0
C717 C 0.63393 0.75859 0.11406 0.0
C718 C 0.60529 0.82084 0.15246 0.0
C719 C 0.6193 0.77371 0.13668 0.0
C720 C 0.59044 0.82796 0.16334 0.0
C721 C 0.57684 0.79679 0.17024 0.0
C722 C 0.60688 0.78222 0.14844 0.0
C723 C 0.57986 0.75856 0.16597 0.0
C724 C 0.62612 0.73508 0.13299 0.0
C725 C 0.62896 0.79694 0.11814 0.0
N726 N 0.5944 0.75239 0.15535 0.0
N727 N 0.62157 0.80338 0.12915 0.0
H728 H 0.80012 0.60005 0.86047 0.0
H729 H 0.73131 0.71128 0.91677 0.0
H730 H 0.71892 0.707 0.86196 0.0
H731 H 0.8146 0.60533 0.91619 0.0
H732 H 0.72569 0.70889 0.89667 0.0
H733 H 0.80438 0.59985 0.88075 0.0
C734 C 0.78293 0.62336 0.86503 0.0
C735 C 0.75926 0.6537 0.85943 0.0
C736 C 0.74525 0.68611 0.90091 0.0
C737 C 0.76437 0.65377 0.8827 0.0
C738 C 0.74876 0.68759 0.91244 0.0
C739 C 0.77386 0.65864 0.91826 0.0
C740 C 0.76696 0.65544 0.89503 0.0
C741 C 0.79467 0.62817 0.9121 0.0
C742 C 0.78561 0.62332 0.87663 0.0
C743 C 0.73819 0.68334 0.86584 0.0
N744 N 0.7909 0.62743 0.90083 0.0
N745 N 0.74127 0.68261 0.87708 0.0
H746 H 0.52187 0.26441 0.16469 0.0
H747 H 0.43684 0.25645 0.1011 0.0
H748 H 0.37556 0.26851 0.1538 0.0
H749 H 0.58456 0.2519 0.11084 0.0
H750 H 0.4144 0.25853 0.12061 0.0
H751 H 0.5466 0.25788 0.1452 0.0
C752 C 0.49503 0.26389 0.15824 0.0
C753 C 0.44662 0.26715 0.1609 0.0
C754 C 0.45177 0.25695 0.11851 0.0
C755 C 0.47445 0.25965 0.13868 0.0
C756 C 0.46457 0.2557 0.10734 0.0
C757 C 0.51264 0.25412 0.1043 0.0
C758 C 0.48724 0.25673 0.12675 0.0
C759 C 0.54703 0.25318 0.11279 0.0
C760 C 0.5091 0.26015 0.14713 0.0
C761 C 0.41332 0.26624 0.1522 0.0
N762 N 0.53369 0.25466 0.12362 0.0
N763 N 0.42785 0.26264 0.14154 0.0
H764 H 0.85096 0.89949 0.35603 0.0
H765 H 0.71818 0.87589 0.41426 0.0
H766 H 0.71047 0.84945 0.35859 0.0
H767 H 0.8708 0.87762 0.41103 0.0
H768 H 0.71119 0.87693 0.39389 0.0
H769 H 0.85556 0.90233 0.37632 0.0
C770 C 0.82104 0.88927 0.36088 0.0
C771 C 0.78043 0.87399 0.35563 0.0
C772 C 0.74616 0.87713 0.39767 0.0
C773 C 0.78517 0.87747 0.37883 0.0
C774 C 0.7501 0.87678 0.40925 0.0
C775 C 0.7951 0.87634 0.4143 0.0
C776 C 0.78753 0.87788 0.39113 0.0
C777 C 0.83546 0.87736 0.40746 0.0
C778 C 0.82372 0.89073 0.37244 0.0
C779 C 0.74268 0.86093 0.36231 0.0
N780 N 0.83074 0.87824 0.39625 0.0
N781 N 0.74584 0.86314 0.37356 0.0
H782 H 0.14721 0.20562 0.66254 0.0
H783 H 0.14681 0.31234 0.60389 0.0
H784 H 0.15526 0.33113 0.65864 0.0
H785 H 0.16424 0.18748 0.60758 0.0
H786 H 0.15542 0.31992 0.62394 0.0
H787 H 0.15901 0.19812 0.64254 0.0
C788 C 0.1521 0.23158 0.65752 0.0
C789 C 0.14975 0.26908 0.66229 0.0
C790 C 0.15796 0.29089 0.62036 0.0
C791 C 0.16272 0.26073 0.63936 0.0
C792 C 0.15307 0.28656 0.60889 0.0
C793 C 0.15439 0.24919 0.60403 0.0
C794 C 0.16365 0.25758 0.62706 0.0
C795 C 0.16277 0.21686 0.61095 0.0
C796 C 0.15879 0.22728 0.64609 0.0
C797 C 0.15643 0.30163 0.65535 0.0
N798 N 0.16645 0.22174 0.62211 0.0
N799 N 0.16203 0.29671 0.64425 0.0
H800 H 0.35239 0.25626 0.28254 0.0
H801 H 0.45566 0.2115 0.22249 0.0
H802 H 0.37136 0.13898 0.27002 0.0
H803 H 0.44739 0.32695 0.23698 0.0
H804 H 0.43645 0.18321 0.2406 0.0
H805 H 0.39627 0.28164 0.26669 0.0
C806 C 0.36586 0.23583 0.27644 0.0
C807 C 0.35757 0.1955 0.27752 0.0
C808 C 0.43987 0.21469 0.23987 0.0
C809 C 0.40819 0.22435 0.25927 0.0
C810 C 0.45134 0.23087 0.22955 0.0
C811 C 0.45256 0.27172 0.22819 0.0
C812 C 0.42947 0.23958 0.24884 0.0
C813 C 0.44623 0.29533 0.23761 0.0
C814 C 0.39129 0.2503 0.26742 0.0
C815 C 0.37689 0.17029 0.26949 0.0
N816 N 0.43425 0.27898 0.24747 0.0
N817 N 0.40075 0.18515 0.26062 0.0
H818 H 0.84019 0.87672 0.49922 0.0
H819 H 0.83441 0.70981 0.54548 0.0
H820 H 0.75723 0.77054 0.49606 0.0
H821 H 0.89138 0.82561 0.55132 0.0
H822 H 0.80635 0.73126 0.52728 0.0
H823 H 0.85989 0.85842 0.51821 0.0
C824 C 0.82572 0.84974 0.50248 0.0
C825 C 0.79711 0.82513 0.49587 0.0
C826 C 0.82466 0.75207 0.53258 0.0
C827 C 0.82028 0.80369 0.5177 0.0
C828 C 0.84069 0.73983 0.54298 0.0
C829 C 0.86544 0.76587 0.54995 0.0
C830 C 0.83387 0.79054 0.52903 0.0
C831 C 0.87246 0.80447 0.54624 0.0
C832 C 0.83719 0.83923 0.51336 0.0
C833 C 0.78008 0.79024 0.50066 0.0
N834 N 0.85715 0.81551 0.53602 0.0
N835 N 0.79212 0.78053 0.51122 0.0
H836 H 0.20326 0.36057 0.71502 0.0
H837 H 0.23795 0.28492 0.77734 0.0
H838 H 0.15933 0.24608 0.72623 0.0
H839 H 0.25312 0.40603 0.76784 0.0
H840 H 0.21779 0.26837 0.75817 0.0
H841 H 0.23076 0.37574 0.73382 0.0
C842 C 0.19982 0.33846 0.72139 0.0
C843 C 0.17877 0.30202 0.71903 0.0
C844 C 0.22558 0.29857 0.76027 0.0
C845 C 0.21006 0.31929 0.74059 0.0
C846 C 0.23736 0.30801 0.77121 0.0
C847 C 0.24714 0.34696 0.77423 0.0
C848 C 0.2239 0.32821 0.75223 0.0
C849 C 0.24523 0.37573 0.76593 0.0
C850 C 0.21531 0.34724 0.73214 0.0
C851 C 0.17512 0.2746 0.72766 0.0
N852 N 0.23392 0.36578 0.75531 0.0
N853 N 0.19051 0.28382 0.73804 0.0
H854 H 0.75885 0.6193 1.00565 0.0
H855 H 0.70005 0.78236 0.05127 0.0
H856 H 0.78259 0.74282 1.00063 0.0
H857 H 0.71097 0.65948 0.05912 0.0
H858 H 0.72762 0.76822 0.03248 0.0
H859 H 0.73686 0.63298 0.02496 0.0
C860 C 0.75919 0.64928 1.00858 0.0
C861 C 0.77268 0.67994 1.0015 0.0
C862 C 0.72444 0.74437 0.03834 0.0
C863 C 0.7478 0.69582 1.02359 0.0
C864 C 0.70879 0.75245 0.04909 0.0
C865 C 0.70328 0.7221 0.05681 0.0
C866 C 0.73403 0.70553 0.03519 0.0
C867 C 0.71503 0.68386 0.05348 0.0
C868 C 0.74704 0.65705 1.01963 0.0
C869 C 0.773 0.71823 1.00581 0.0
N870 N 0.72938 0.67661 0.04289 0.0
N871 N 0.76057 0.72507 1.01652 0.0
H872 H 0.4032 0.21126 0.03664 0.0
H873 H 0.33445 0.39883 1.00026 0.0
H874 H 0.42678 0.33044 0.04743 0.0
H875 H 0.30676 0.27957 0.99014 0.0
H876 H 0.36599 0.37459 1.01785 0.0
H877 H 0.3639 0.23593 1.01999 0.0
C878 C 0.3997 0.24261 0.03558 0.0
C879 C 0.41859 0.26877 0.04344 0.0
C880 C 0.35282 0.35374 1.01179 0.0
C881 C 0.37401 0.29729 1.02429 0.0
C882 C 0.3351 0.36757 1.0017 0.0
C883 C 0.31793 0.34126 0.99365 0.0
C884 C 0.35364 0.31325 1.01386 0.0
C885 C 0.31903 0.30104 0.9961 0.0
C886 C 0.37736 0.2567 0.02604 0.0
C887 C 0.4129 0.30913 0.04159 0.0
N888 N 0.33671 0.28831 1.00594 0.0
N889 N 0.39146 0.32212 0.03218 0.0
H890 H 0.78459 0.79861 0.2715 0.0
H891 H 0.57543 0.85111 0.22877 0.0
H892 H 0.69224 0.89828 0.27556 0.0
H893 H 0.6585 0.74517 0.22709 0.0
H894 H 0.61995 0.87068 0.24537 0.0
H895 H 0.74074 0.78022 0.25479 0.0
C896 C 0.75517 0.81673 0.26887 0.0
C897 C 0.74227 0.85013 0.27498 0.0
C898 C 0.62848 0.84319 0.24135 0.0
C899 C 0.69151 0.82908 0.25577 0.0
C900 C 0.60319 0.83205 0.23184 0.0
C901 C 0.61315 0.79638 0.2265 0.0
C902 C 0.66421 0.8186 0.24556 0.0
C903 C 0.64946 0.77288 0.23091 0.0
C904 C 0.72995 0.80609 0.25933 0.0
C905 C 0.70323 0.87209 0.27121 0.0
N906 N 0.67358 0.78439 0.24015 0.0
N907 N 0.67939 0.86127 0.26184 0.0
H908 H 0.29375 0.23305 0.49076 0.0
H909 H 0.15081 0.19001 0.54674 0.0
H910 H 0.21912 0.12469 0.49682 0.0
H911 H 0.19653 0.3057 0.53698 0.0
H912 H 0.18212 0.16396 0.52933 0.0
H913 H 0.26425 0.25863 0.50838 0.0
C914 C 0.27123 0.21458 0.49581 0.0
C915 C 0.25898 0.17661 0.49231 0.0
C916 C 0.18538 0.19502 0.53101 0.0
C917 C 0.22504 0.20575 0.51255 0.0
C918 C 0.16777 0.20993 0.54099 0.0
C919 C 0.17097 0.25018 0.54335 0.0
C920 C 0.20677 0.22044 0.52335 0.0
C921 C 0.19317 0.27452 0.53553 0.0
C922 C 0.25421 0.22928 0.50586 0.0
C923 C 0.2291 0.15421 0.49915 0.0
N924 N 0.21023 0.25927 0.52589 0.0
N925 N 0.21337 0.16903 0.50897 0.0
H926 H 0.80692 0.69053 0.71702 0.0
H927 H 0.85517 0.67702 0.78226 0.0
H928 H 0.93341 0.73697 0.73264 0.0
H929 H 0.71463 0.66874 0.76806 0.0
H930 H 0.88698 0.69218 0.76383 0.0
H931 H 0.77442 0.67601 0.73543 0.0
C932 C 0.82779 0.69778 0.72431 0.0
C933 C 0.8729 0.71511 0.72327 0.0
C934 C 0.84915 0.68715 0.76476 0.0
C935 C 0.83624 0.69809 0.74433 0.0
C936 C 0.83108 0.67828 0.77526 0.0
C937 C 0.78219 0.67183 0.77671 0.0
C938 C 0.8182 0.68896 0.75561 0.0
C939 C 0.75245 0.67406 0.76735 0.0
C940 C 0.80921 0.68953 0.7348 0.0
C941 C 0.89838 0.72381 0.73302 0.0
N942 N 0.77093 0.68223 0.7572 0.0
N943 N 0.87985 0.71499 0.74312 0.0
loop_
_geom_bond_atom_site_label_1
_geom_bond_atom_site_label_2
_geom_bond_distance
_geom_bond_site_symmetry_2
_ccdc_geom_bond_type
Cu0 N1 1.999 . S
Cu0 O6 1.974 . S
Cu0 N11 1.985 . S
Cu0 O20 1.959 . S
N1 Cu0 1.999 . S
N1 C3 1.263 . S
N1 C5 1.389 . S
N2 C3 1.358 . S
N2 C4 1.400 . S
C3 N1 1.263 . S
C3 N2 1.358 . S
C3 H9 0.930 . S
C4 N2 1.400 . S
C4 C5 1.351 . S
C4 H21 0.930 . S
C5 N1 1.389 . S
C5 C4 1.351 . S
C5 H10 0.930 . S
O6 Cu0 1.974 . S
O6 C16 1.282 . S
C7 O8 1.261 . S
C7 O20 1.251 . S
O8 C7 1.261 . S
H9 C3 0.930 . S
H10 C5 0.930 . S
N11 Cu0 1.985 . S
N11 C13 1.335 . S
N11 C14 1.390 . S
N12 C13 1.345 . S
N12 C15 1.336 . S
C13 N11 1.335 . S
C13 N12 1.345 . S
C13 H18 0.930 . S
C14 N11 1.390 . S
C14 C15 1.346 . S
C14 H19 0.930 . S
C15 N12 1.336 . S
C15 C14 1.346 . S
C15 H22 0.929 . S
C16 O6 1.282 . S
C16 O17 1.216 . S
O17 C16 1.216 . S
H18 C13 0.930 . S
H19 C14 0.930 . S
O20 Cu0 1.959 . S
O20 C7 1.251 . S
H21 C4 0.930 . S
H22 C15 0.929 . S
Cu23 N24 1.999 . S
Cu23 O29 1.974 . S
Cu23 N34 1.985 . S
Cu23 O43 1.959 . S
N24 Cu23 1.999 . S
N24 C26 1.263 . S
N24 C28 1.389 1_655 S
N25 C26 1.358 . S
N25 C27 1.410 . S
C26 N24 1.263 . S
C26 N25 1.358 . S
C26 H32 0.930 . S
C27 N25 1.410 . S
C27 C28 1.350 1_655 S
C27 H44 0.923 1_655 S
C28 N24 1.389 1_455 S
C28 C27 1.350 1_455 S
C28 H33 0.930 . S
O29 Cu23 1.974 . S
O29 C39 1.282 . S
C30 O31 1.261 . S
C30 O43 1.251 . S
O31 C30 1.261 . S
H32 C26 0.930 . S
H33 C28 0.930 . S
N34 Cu23 1.985 . S
N34 C36 1.335 . S
N34 C37 1.390 . S
N35 C36 1.345 . S
N35 C38 1.336 . S
C36 N34 1.335 . S
C36 N35 1.345 . S
C36 H41 0.930 . S
C37 N34 1.390 . S
C37 C38 1.346 . S
C37 H42 0.930 . S
C38 N35 1.336 . S
C38 C37 1.346 . S
C38 H45 0.929 . S
C39 O29 1.282 . S
C39 O40 1.216 . S
O40 C39 1.216 . S
H41 C36 0.930 . S
H42 C37 0.930 . S
O43 Cu23 1.959 . S
O43 C30 1.251 . S
H44 C27 0.923 1_455 S
H45 C38 0.929 . S
Cu46 N47 1.999 . S
Cu46 O52 1.974 . S
Cu46 N57 1.985 . S
Cu46 O66 1.959 . S
N47 Cu46 1.999 . S
N47 C49 1.263 . S
N47 C51 1.389 . S
N48 C49 1.358 . S
N48 C50 1.400 . S
C49 N47 1.263 . S
C49 N48 1.358 . S
C49 H55 0.930 . S
C50 N48 1.400 . S
C50 C51 1.351 . S
C50 H67 0.930 . S
C51 N47 1.389 . S
C51 C50 1.351 . S
C51 H56 0.930 . S
O52 Cu46 1.974 . S
O52 C62 1.282 . S
C53 O54 1.261 . S
C53 O66 1.251 . S
O54 C53 1.261 . S
H55 C49 0.930 . S
H56 C51 0.930 . S
N57 Cu46 1.985 . S
N57 C59 1.335 . S
N57 C60 1.390 . S
N58 C59 1.345 . S
N58 C61 1.336 . S
C59 N57 1.335 . S
C59 N58 1.345 . S
C59 H64 0.930 . S
C60 N57 1.390 . S
C60 C61 1.346 . S
C60 H65 0.930 . S
C61 N58 1.336 . S
C61 C60 1.346 . S
C61 H68 0.929 . S
C62 O52 1.282 . S
C62 O63 1.216 . S
O63 C62 1.216 . S
H64 C59 0.930 . S
H65 C60 0.930 . S
O66 Cu46 1.959 . S
O66 C53 1.251 . S
H67 C50 0.930 . S
H68 C61 0.929 . S
Cu69 N70 1.999 . S
Cu69 O75 1.974 . S
Cu69 N80 1.985 . S
Cu69 O89 1.959 . S
N70 Cu69 1.999 . S
N70 C72 1.263 . S
N70 C74 1.389 . S
N71 C72 1.358 . S
N71 C73 1.400 . S
C72 N70 1.263 . S
C72 N71 1.358 . S
C72 H78 0.930 . S
C73 N71 1.400 . S
C73 C74 1.351 . S
C73 H90 0.930 . S
C74 N70 1.389 . S
C74 C73 1.351 . S
C74 H79 0.930 . S
O75 Cu69 1.974 . S
O75 C85 1.282 . S
C76 O77 1.261 . S
C76 O89 1.251 . S
O77 C76 1.261 . S
H78 C72 0.930 . S
H79 C74 0.930 . S
N80 Cu69 1.985 . S
N80 C82 1.335 . S
N80 C83 1.390 . S
N81 C82 1.345 . S
N81 C84 1.336 . S
C82 N80 1.335 . S
C82 N81 1.345 . S
C82 H87 0.930 . S
C83 N80 1.390 . S
C83 C84 1.346 . S
C83 H88 0.930 . S
C84 N81 1.336 . S
C84 C83 1.346 . S
C84 H91 0.929 . S
C85 O75 1.282 . S
C85 O86 1.216 . S
O86 C85 1.216 . S
H87 C82 0.930 . S
H88 C83 0.930 . S
O89 Cu69 1.959 . S
O89 C76 1.251 . S
H90 C73 0.930 . S
H91 C84 0.929 . S
Cu92 N93 1.999 . S
Cu92 O98 1.974 . S
Cu92 N103 1.985 . S
Cu92 O112 1.959 . S
N93 Cu92 1.999 . S
N93 C95 1.263 . S
N93 C97 1.389 . S
N94 C95 1.358 . S
N94 C96 1.400 . S
C95 N93 1.263 . S
C95 N94 1.358 . S
C95 H101 0.930 . S
C96 N94 1.400 . S
C96 C97 1.351 . S
C96 H113 0.930 . S
C97 N93 1.389 . S
C97 C96 1.351 . S
C97 H102 0.930 . S
O98 Cu92 1.974 . S
O98 C108 1.282 . S
C99 O100 1.261 . S
C99 O112 1.251 . S
O100 C99 1.261 . S
H101 C95 0.930 . S
H102 C97 0.930 . S
N103 Cu92 1.985 . S
N103 C105 1.335 . S
N103 C106 1.390 . S
N104 C105 1.345 . S
N104 C107 1.336 . S
C105 N103 1.335 . S
C105 N104 1.345 . S
C105 H110 0.930 . S
C106 N103 1.390 . S
C106 C107 1.346 . S
C106 H111 0.930 . S
C107 N104 1.336 . S
C107 C106 1.346 . S
C107 H114 0.929 . S
C108 O98 1.282 . S
C108 O109 1.216 . S
O109 C108 1.216 . S
H110 C105 0.930 . S
H111 C106 0.930 . S
O112 Cu92 1.959 . S
O112 C99 1.251 . S
H113 C96 0.930 . S
H114 C107 0.929 . S
Cu115 N116 1.999 . S
Cu115 O121 1.974 . S
Cu115 N126 1.985 . S
Cu115 O135 1.959 . S
N116 Cu115 1.999 . S
N116 C118 1.263 . S
N116 C120 1.389 . S
N117 C118 1.358 . S
N117 C119 1.400 . S
C118 N116 1.263 . S
C118 N117 1.358 . S
C118 H124 0.930 . S
C119 N117 1.400 . S
C119 C120 1.351 . S
C119 H136 0.930 . S
C120 N116 1.389 . S
C120 C119 1.351 . S
C120 H125 0.930 . S
O121 Cu115 1.974 . S
O121 C131 1.282 . S
C122 O123 1.261 . S
C122 O135 1.251 . S
O123 C122 1.261 . S
H124 C118 0.930 . S
H125 C120 0.930 . S
N126 Cu115 1.985 . S
N126 C128 1.335 . S
N126 C129 1.390 . S
N127 C128 1.345 . S
N127 C130 1.336 . S
C128 N126 1.335 . S
C128 N127 1.345 . S
C128 H133 0.930 . S
C129 N126 1.390 . S
C129 C130 1.346 . S
C129 H134 0.930 . S
C130 N127 1.336 . S
C130 C129 1.346 . S
C130 H137 0.929 . S
C131 O121 1.282 . S
C131 O132 1.216 . S
O132 C131 1.216 . S
H133 C128 0.930 . S
H134 C129 0.930 . S
O135 Cu115 1.959 . S
O135 C122 1.251 . S
H136 C119 0.930 . S
H137 C130 0.929 . S
Cu138 N139 1.999 . S
Cu138 O144 1.974 . S
Cu138 N149 1.985 . S
Cu138 O158 1.959 . S
N139 Cu138 1.999 . S
N139 C141 1.263 . S
N139 C143 1.389 . S
N140 C141 1.358 . S
N140 C142 1.400 . S
C141 N139 1.263 . S
C141 N140 1.358 . S
C141 H147 0.930 . S
C142 N140 1.400 . S
C142 C143 1.351 . S
C142 H159 0.930 . S
C143 N139 1.389 . S
C143 C142 1.351 . S
C143 H148 0.930 . S
O144 Cu138 1.974 . S
O144 C154 1.282 . S
C145 O146 1.261 . S
C145 O158 1.251 . S
O146 C145 1.261 . S
H147 C141 0.930 . S
H148 C143 0.930 . S
N149 Cu138 1.985 . S
N149 C151 1.335 . S
N149 C152 1.390 . S
N150 C151 1.345 . S
N150 C153 1.336 . S
C151 N149 1.335 . S
C151 N150 1.345 . S
C151 H156 0.930 . S
C152 N149 1.390 . S
C152 C153 1.346 . S
C152 H157 0.930 . S
C153 N150 1.336 . S
C153 C152 1.346 . S
C153 H160 0.929 . S
C154 O144 1.282 . S
C154 O155 1.216 . S
O155 C154 1.216 . S
H156 C151 0.930 . S
H157 C152 0.930 . S
O158 Cu138 1.959 . S
O158 C145 1.251 . S
H159 C142 0.930 . S
H160 C153 0.929 . S
Cu161 N162 1.999 . S
Cu161 O167 1.974 . S
Cu161 N172 1.985 . S
Cu161 O181 1.959 . S
N162 Cu161 1.999 . S
N162 C164 1.263 . S
N162 C166 1.389 1_655 S
N163 C164 1.358 . S
N163 C165 1.407 . S
C164 N162 1.263 . S
C164 N163 1.358 . S
C164 H170 0.930 . S
C165 N163 1.407 . S
C165 C166 1.350 1_655 S
C165 H182 0.925 1_655 S
C166 N162 1.389 1_455 S
C166 C165 1.350 1_455 S
C166 H171 0.930 . S
O167 Cu161 1.974 . S
O167 C177 1.282 . S
C168 O169 1.261 . S
C168 O181 1.251 . S
O169 C168 1.261 . S
H170 C164 0.930 . S
H171 C166 0.930 . S
N172 Cu161 1.985 . S
N172 C174 1.335 . S
N172 C175 1.390 . S
N173 C174 1.345 . S
N173 C176 1.336 . S
C174 N172 1.335 . S
C174 N173 1.345 . S
C174 H179 0.930 . S
C175 N172 1.390 . S
C175 C176 1.346 . S
C175 H180 0.930 . S
C176 N173 1.336 . S
C176 C175 1.346 . S
C176 H183 0.929 . S
C177 O167 1.282 . S
C177 O178 1.216 . S
O178 C177 1.216 . S
H179 C174 0.930 . S
H180 C175 0.930 . S
O181 Cu161 1.959 . S
O181 C168 1.251 . S
H182 C165 0.925 1_455 S
H183 C176 0.929 . S
Cu184 N185 1.999 . S
Cu184 O190 1.974 . S
Cu184 N195 1.985 . S
Cu184 O204 1.959 . S
N185 Cu184 1.999 . S
N185 C187 1.263 . S
N185 C189 1.389 . S
N186 C187 1.358 . S
N186 C188 1.400 . S
C187 N185 1.263 . S
C187 N186 1.358 . S
C187 H193 0.930 . S
C188 N186 1.400 . S
C188 C189 1.351 . S
C188 H205 0.930 . S
C189 N185 1.389 . S
C189 C188 1.351 . S
C189 H194 0.930 . S
O190 Cu184 1.974 . S
O190 C200 1.282 . S
C191 O192 1.261 . S
C191 O204 1.251 . S
O192 C191 1.261 . S
H193 C187 0.930 . S
H194 C189 0.930 . S
N195 Cu184 1.985 . S
N195 C197 1.335 . S
N195 C198 1.390 . S
N196 C197 1.345 . S
N196 C199 1.336 . S
C197 N195 1.335 . S
C197 N196 1.345 . S
C197 H202 0.930 . S
C198 N195 1.390 . S
C198 C199 1.346 . S
C198 H203 0.930 . S
C199 N196 1.336 . S
C199 C198 1.346 . S
C199 H206 0.929 . S
C200 O190 1.282 . S
C200 O201 1.216 . S
O201 C200 1.216 . S
H202 C197 0.930 . S
H203 C198 0.930 . S
O204 Cu184 1.959 . S
O204 C191 1.251 . S
H205 C188 0.930 . S
H206 C199 0.929 . S
Cu207 N208 1.999 . S
Cu207 O213 1.974 . S
Cu207 N218 1.985 . S
Cu207 O227 1.959 . S
N208 Cu207 1.999 . S
N208 C210 1.263 . S
N208 C212 1.389 . S
N209 C210 1.358 . S
N209 C211 1.400 . S
C210 N208 1.263 . S
C210 N209 1.358 . S
C210 H216 0.930 . S
C211 N209 1.400 . S
C211 C212 1.351 . S
C211 H228 0.930 . S
C212 N208 1.389 . S
C212 C211 1.351 . S
C212 H217 0.930 . S
O213 Cu207 1.974 . S
O213 C223 1.282 . S
C214 O215 1.261 . S
C214 O227 1.251 . S
O215 C214 1.261 . S
H216 C210 0.930 . S
H217 C212 0.930 . S
N218 Cu207 1.985 . S
N218 C220 1.335 . S
N218 C221 1.390 . S
N219 C220 1.345 . S
N219 C222 1.336 . S
C220 N218 1.335 . S
C220 N219 1.345 . S
C220 H225 0.930 . S
C221 N218 1.390 . S
C221 C222 1.346 . S
C221 H226 0.930 . S
C222 N219 1.336 . S
C222 C221 1.346 . S
C222 H229 0.929 . S
C223 O213 1.282 . S
C223 O224 1.216 . S
O224 C223 1.216 . S
H225 C220 0.930 . S
H226 C221 0.930 . S
O227 Cu207 1.959 . S
O227 C214 1.251 . S
H228 C211 0.930 . S
H229 C222 0.929 . S
Cu230 N231 1.999 . S
Cu230 O236 1.974 . S
Cu230 N241 1.985 . S
Cu230 O250 1.959 . S
N231 Cu230 1.999 . S
N231 C233 1.263 . S
N231 C235 1.389 . S
N232 C233 1.358 . S
N232 C234 1.400 . S
C233 N231 1.263 . S
C233 N232 1.358 . S
C233 H239 0.930 . S
C234 N232 1.400 . S
C234 C235 1.351 . S
C234 H251 0.930 . S
C235 N231 1.389 . S
C235 C234 1.351 . S
C235 H240 0.930 . S
O236 Cu230 1.974 . S
O236 C246 1.282 . S
C237 O238 1.261 . S
C237 O250 1.251 . S
O238 C237 1.261 . S
H239 C233 0.930 . S
H240 C235 0.930 . S
N241 Cu230 1.985 . S
N241 C243 1.335 . S
N241 C244 1.390 . S
N242 C243 1.345 . S
N242 C245 1.336 . S
C243 N241 1.335 . S
C243 N242 1.345 . S
C243 H248 0.930 . S
C244 N241 1.390 . S
C244 C245 1.346 . S
C244 H249 0.930 . S
C245 N242 1.336 . S
C245 C244 1.346 . S
C245 H252 0.929 . S
C246 O236 1.282 . S
C246 O247 1.216 . S
O247 C246 1.216 . S
H248 C243 0.930 . S
H249 C244 0.930 . S
O250 Cu230 1.959 . S
O250 C237 1.251 . S
H251 C234 0.930 . S
H252 C245 0.929 . S
Cu253 N254 1.999 . S
Cu253 O259 1.974 . S
Cu253 N264 1.985 . S
Cu253 O273 1.959 . S
N254 Cu253 1.999 . S
N254 C256 1.263 . S
N254 C258 1.389 1_455 S
N255 C256 1.358 . S
N255 C257 1.409 . S
C256 N254 1.263 . S
C256 N255 1.358 . S
C256 H262 0.930 . S
C257 N255 1.409 . S
C257 C258 1.350 1_455 S
C257 H274 0.924 1_455 S
C258 N254 1.389 1_655 S
C258 C257 1.350 1_655 S
C258 H263 0.930 . S
O259 Cu253 1.974 . S
O259 C269 1.282 . S
C260 O261 1.261 . S
C260 O273 1.251 . S
O261 C260 1.261 . S
H262 C256 0.930 . S
H263 C258 0.930 . S
N264 Cu253 1.985 . S
N264 C266 1.335 . S
N264 C267 1.390 . S
N265 C266 1.345 . S
N265 C268 1.336 . S
C266 N264 1.335 . S
C266 N265 1.345 . S
C266 H271 0.930 . S
C267 N264 1.390 . S
C267 C268 1.346 . S
C267 H272 0.930 . S
C268 N265 1.336 . S
C268 C267 1.346 . S
C268 H275 0.929 . S
C269 O259 1.282 . S
C269 O270 1.216 . S
O270 C269 1.216 . S
H271 C266 0.930 . S
H272 C267 0.930 . S
O273 Cu253 1.959 . S
O273 C260 1.251 . S
H274 C257 0.924 1_655 S
H275 C268 0.929 . S
Cu276 N277 1.999 . S
Cu276 O282 1.974 . S
Cu276 N287 1.985 . S
Cu276 O296 1.959 . S
N277 Cu276 1.999 . S
N277 C279 1.263 . S
N277 C281 1.389 . S
N278 C279 1.358 . S
N278 C280 1.400 . S
C279 N277 1.263 . S
C279 N278 1.358 . S
C279 H285 0.930 . S
C280 N278 1.400 . S
C280 C281 1.351 . S
C280 H297 0.930 . S
C281 N277 1.389 . S
C281 C280 1.351 . S
C281 H286 0.930 . S
O282 Cu276 1.974 . S
O282 C292 1.282 . S
C283 O284 1.261 . S
C283 O296 1.251 . S
O284 C283 1.261 . S
H285 C279 0.930 . S
H286 C281 0.930 . S
N287 Cu276 1.985 . S
N287 C289 1.335 . S
N287 C290 1.390 . S
N288 C289 1.345 . S
N288 C291 1.336 . S
C289 N287 1.335 . S
C289 N288 1.345 . S
C289 H294 0.930 . S
C290 N287 1.390 . S
C290 C291 1.346 . S
C290 H295 0.930 . S
C291 N288 1.336 . S
C291 C290 1.346 . S
C291 H298 0.929 . S
C292 O282 1.282 . S
C292 O293 1.216 . S
O293 C292 1.216 . S
H294 C289 0.930 . S
H295 C290 0.930 . S
O296 Cu276 1.959 . S
O296 C283 1.251 . S
H297 C280 0.930 . S
H298 C291 0.929 . S
Cu299 N300 1.999 . S
Cu299 O305 1.974 . S
Cu299 N310 1.985 . S
Cu299 O319 1.959 . S
N300 Cu299 1.999 . S
N300 C302 1.263 . S
N300 C304 1.389 1_455 S
N301 C302 1.358 . S
N301 C303 1.407 . S
C302 N300 1.263 . S
C302 N301 1.358 . S
C302 H308 0.930 . S
C303 N301 1.407 . S
C303 C304 1.350 1_455 S
C303 H320 0.925 1_455 S
C304 N300 1.389 1_655 S
C304 C303 1.350 1_655 S
C304 H309 0.930 . S
O305 Cu299 1.974 . S
O305 C315 1.282 . S
C306 O307 1.261 . S
C306 O319 1.251 . S
O307 C306 1.261 . S
H308 C302 0.930 . S
H309 C304 0.930 . S
N310 Cu299 1.985 . S
N310 C312 1.335 . S
N310 C313 1.390 . S
N311 C312 1.345 . S
N311 C314 1.336 . S
C312 N310 1.335 . S
C312 N311 1.345 . S
C312 H317 0.930 . S
C313 N310 1.390 . S
C313 C314 1.346 . S
C313 H318 0.930 . S
C314 N311 1.336 . S
C314 C313 1.346 . S
C314 H321 0.929 . S
C315 O305 1.282 . S
C315 O316 1.216 . S
O316 C315 1.216 . S
H317 C312 0.930 . S
H318 C313 0.930 . S
O319 Cu299 1.959 . S
O319 C306 1.251 . S
H320 C303 0.925 1_655 S
H321 C314 0.929 . S
Cu322 N323 1.999 . S
Cu322 O328 1.974 . S
Cu322 N333 1.985 . S
Cu322 O342 1.959 . S
N323 Cu322 1.999 . S
N323 C325 1.263 . S
N323 C327 1.389 . S
N324 C325 1.358 . S
N324 C326 1.400 . S
C325 N323 1.263 . S
C325 N324 1.358 . S
C325 H331 0.930 . S
C326 N324 1.400 . S
C326 C327 1.351 . S
C326 H343 0.930 . S
C327 N323 1.389 . S
C327 C326 1.351 . S
C327 H332 0.930 . S
O328 Cu322 1.974 . S
O328 C338 1.282 . S
C329 O330 1.261 . S
C329 O342 1.251 . S
O330 C329 1.261 . S
H331 C325 0.930 . S
H332 C327 0.930 . S
N333 Cu322 1.985 . S
N333 C335 1.335 . S
N333 C336 1.390 . S
N334 C335 1.345 . S
N334 C337 1.336 . S
C335 N333 1.335 . S
C335 N334 1.345 . S
C335 H340 0.930 . S
C336 N333 1.390 . S
C336 C337 1.346 . S
C336 H341 0.930 . S
C337 N334 1.336 . S
C337 C336 1.346 . S
C337 H344 0.929 . S
C338 O328 1.282 . S
C338 O339 1.216 . S
O339 C338 1.216 . S
H340 C335 0.930 . S
H341 C336 0.930 . S
O342 Cu322 1.959 . S
O342 C329 1.251 . S
H343 C326 0.930 . S
H344 C337 0.929 . S
Cu345 N346 1.999 . S
Cu345 O351 1.974 . S
Cu345 N356 1.985 . S
Cu345 O365 1.959 . S
N346 Cu345 1.999 . S
N346 C348 1.263 . S
N346 C350 1.389 . S
N347 C348 1.358 . S
N347 C349 1.400 . S
C348 N346 1.263 . S
C348 N347 1.358 . S
C348 H354 0.930 . S
C349 N347 1.400 . S
C349 C350 1.351 . S
C349 H366 0.930 . S
C350 N346 1.389 . S
C350 C349 1.351 . S
C350 H355 0.930 . S
O351 Cu345 1.974 . S
O351 C361 1.282 . S
C352 O353 1.261 . S
C352 O365 1.251 . S
O353 C352 1.261 . S
H354 C348 0.930 . S
H355 C350 0.930 . S
N356 Cu345 1.985 . S
N356 C358 1.335 . S
N356 C359 1.390 . S
N357 C358 1.345 . S
N357 C360 1.336 . S
C358 N356 1.335 . S
C358 N357 1.345 . S
C358 H363 0.930 . S
C359 N356 1.390 . S
C359 C360 1.346 . S
C359 H364 0.930 . S
C360 N357 1.336 . S
C360 C359 1.346 . S
C360 H367 0.929 . S
C361 O351 1.282 . S
C361 O362 1.216 . S
O362 C361 1.216 . S
H363 C358 0.930 . S
H364 C359 0.930 . S
O365 Cu345 1.959 . S
O365 C352 1.251 . S
H366 C349 0.930 . S
H367 C360 0.929 . S
H368 C374 0.930 . S
H369 C378 0.930 . S
H370 C383 0.918 1_545 S
H371 C381 0.919 1_565 S
H372 C376 0.929 . S
H373 C382 0.929 . S
C374 H368 0.930 . S
C374 C375 1.367 . S
C374 C382 1.378 . S
C375 C374 1.367 . S
C375 C383 1.453 . S
C376 H372 0.929 . S
C376 C378 1.378 . S
C376 C380 1.350 . S
C377 C380 1.463 1_665 S
C377 C382 1.350 . S
C377 N385 1.427 1_565 S
C378 H369 0.930 . S
C378 C376 1.378 . S
C378 C379 1.367 . S
C379 C378 1.367 . S
C379 C381 1.451 . S
C380 C376 1.350 . S
C380 C377 1.463 1_445 S
C380 N384 1.427 1_545 S
C381 H371 0.919 1_545 S
C381 C379 1.451 . S
C381 N384 1.376 1_545 S
C382 H373 0.929 . S
C382 C374 1.378 . S
C382 C377 1.350 . S
C383 H370 0.918 1_565 S
C383 C375 1.453 . S
C383 N385 1.376 1_565 S
N384 C380 1.427 1_565 S
N384 C381 1.376 1_565 S
N385 C377 1.427 1_545 S
N385 C383 1.376 1_545 S
H386 C392 0.930 . S
H387 C396 0.930 . S
H388 C401 0.929 . S
H389 C399 0.929 . S
H390 C394 0.929 . S
H391 C400 0.929 . S
C392 H386 0.930 . S
C392 C393 1.367 1_455 S
C392 C400 1.378 . S
C393 C392 1.367 1_655 S
C393 C401 1.433 . S
C394 H390 0.929 . S
C394 C396 1.378 . S
C394 C398 1.350 1_655 S
C395 C398 1.463 1_655 S
C395 C400 1.350 1_655 S
C395 N403 1.427 . S
C396 H387 0.930 . S
C396 C394 1.378 . S
C396 C397 1.367 1_655 S
C397 C396 1.367 1_455 S
C397 C399 1.433 . S
C398 C394 1.350 1_455 S
C398 C395 1.463 1_455 S
C398 N402 1.427 . S
C399 H389 0.929 . S
C399 C397 1.433 . S
C399 N402 1.384 . S
C400 H391 0.929 . S
C400 C392 1.378 . S
C400 C395 1.350 1_455 S
C401 H388 0.929 . S
C401 C393 1.433 . S
C401 N403 1.384 . S
N402 C398 1.427 . S
N402 C399 1.384 . S
N403 C395 1.427 . S
N403 C401 1.384 . S
H404 C410 0.930 . S
H405 C414 0.930 . S
H406 C419 0.929 . S
H407 C417 0.929 . S
H408 C412 0.929 . S
H409 C418 0.929 . S
C410 H404 0.930 . S
C410 C411 1.367 . S
C410 C418 1.378 . S
C411 C410 1.367 . S
C411 C419 1.433 . S
C412 H408 0.929 . S
C412 C414 1.378 . S
C412 C416 1.350 . S
C413 C416 1.463 . S
C413 C418 1.350 . S
C413 N421 1.427 . S
C414 H405 0.930 . S
C414 C412 1.378 . S
C414 C415 1.367 . S
C415 C414 1.367 . S
C415 C417 1.433 . S
C416 C412 1.350 . S
C416 C413 1.463 . S
C416 N420 1.427 . S
C417 H407 0.929 . S
C417 C415 1.433 . S
C417 N420 1.384 . S
C418 H409 0.929 . S
C418 C410 1.378 . S
C418 C413 1.350 . S
C419 H406 0.929 . S
C419 C411 1.433 . S
C419 N421 1.384 . S
N420 C416 1.427 . S
N420 C417 1.384 . S
N421 C413 1.427 . S
N421 C419 1.384 . S
H422 C428 0.930 . S
H423 C432 0.930 . S
H424 C437 0.929 . S
H425 C435 0.929 . S
H426 C430 0.929 . S
H427 C436 0.929 . S
C428 H422 0.930 . S
C428 C429 1.367 . S
C428 C436 1.378 . S
C429 C428 1.367 . S
C429 C437 1.433 . S
C430 H426 0.929 . S
C430 C432 1.378 . S
C430 C434 1.350 . S
C431 C434 1.463 1_545 S
C431 C436 1.350 . S
C431 N439 1.427 . S
C432 H423 0.930 . S
C432 C430 1.378 . S
C432 C433 1.367 . S
C433 C432 1.367 . S
C433 C435 1.433 . S
C434 C430 1.350 . S
C434 C431 1.463 1_565 S
C434 N438 1.427 . S
C435 H425 0.929 . S
C435 C433 1.433 . S
C435 N438 1.384 . S
C436 H427 0.929 . S
C436 C428 1.378 . S
C436 C431 1.350 . S
C437 H424 0.929 . S
C437 C429 1.433 . S
C437 N439 1.384 . S
N438 C434 1.427 . S
N438 C435 1.384 . S
N439 C431 1.427 . S
N439 C437 1.384 . S
H440 C446 0.930 . S
H441 C450 0.930 . S
H442 C455 0.929 . S
H443 C453 0.929 . S
H444 C448 0.929 . S
H445 C454 0.929 . S
C446 H440 0.930 . S
C446 C447 1.367 . S
C446 C454 1.378 . S
C447 C446 1.367 . S
C447 C455 1.433 . S
C448 H444 0.929 . S
C448 C450 1.378 . S
C448 C452 1.350 . S
C449 C452 1.463 1_455 S
C449 C454 1.350 . S
C449 N457 1.427 . S
C450 H441 0.930 . S
C450 C448 1.378 . S
C450 C451 1.367 . S
C451 C450 1.367 . S
C451 C453 1.433 . S
C452 C448 1.350 . S
C452 C449 1.463 1_655 S
C452 N456 1.427 . S
C453 H443 0.929 . S
C453 C451 1.433 . S
C453 N456 1.384 . S
C454 H445 0.929 . S
C454 C446 1.378 . S
C454 C449 1.350 . S
C455 H442 0.929 . S
C455 C447 1.433 . S
C455 N457 1.384 . S
N456 C452 1.427 . S
N456 C453 1.384 . S
N457 C449 1.427 . S
N457 C455 1.384 . S
H458 C464 0.930 . S
H459 C468 0.930 . S
H460 C473 0.929 . S
H461 C471 0.929 . S
H462 C466 0.929 . S
H463 C472 0.929 . S
C464 H458 0.930 . S
C464 C465 1.367 . S
C464 C472 1.378 . S
C465 C464 1.367 . S
C465 C473 1.433 . S
C466 H462 0.929 . S
C466 C468 1.378 . S
C466 C470 1.350 . S
C467 C470 1.463 . S
C467 C472 1.350 . S
C467 N475 1.427 . S
C468 H459 0.930 . S
C468 C466 1.378 . S
C468 C469 1.367 . S
C469 C468 1.367 . S
C469 C471 1.433 . S
C470 C466 1.350 . S
C470 C467 1.463 . S
C470 N474 1.427 . S
C471 H461 0.929 . S
C471 C469 1.433 . S
C471 N474 1.384 . S
C472 H463 0.929 . S
C472 C464 1.378 . S
C472 C467 1.350 . S
C473 H460 0.929 . S
C473 C465 1.433 . S
C473 N475 1.384 . S
N474 C470 1.427 . S
N474 C471 1.384 . S
N475 C467 1.427 . S
N475 C473 1.384 . S
H476 C482 0.930 . S
H477 C486 0.930 . S
H478 C491 0.921 1_565 S
H479 C489 0.920 1_545 S
H480 C484 0.929 . S
H481 C490 0.929 . S
C482 H476 0.930 . S
C482 C483 1.367 . S
C482 C490 1.378 . S
C483 C482 1.367 . S
C483 C491 1.448 . S
C484 H480 0.929 . S
C484 C486 1.378 . S
C484 C488 1.350 . S
C485 C488 1.463 1_545 S
C485 C490 1.350 . S
C485 N493 1.427 1_545 S
C486 H477 0.930 . S
C486 C484 1.378 . S
C486 C487 1.367 . S
C487 C486 1.367 . S
C487 C489 1.449 . S
C488 C484 1.350 . S
C488 C485 1.463 1_565 S
C488 N492 1.427 1_565 S
C489 H479 0.920 1_565 S
C489 C487 1.449 . S
C489 N492 1.377 1_565 S
C490 H481 0.929 . S
C490 C482 1.378 . S
C490 C485 1.350 . S
C491 H478 0.921 1_545 S
C491 C483 1.448 . S
C491 N493 1.378 1_545 S
N492 C488 1.427 1_545 S
N492 C489 1.377 1_545 S
N493 C485 1.427 1_565 S
N493 C491 1.378 1_565 S
H494 C500 0.926 1_655 S
H495 C504 0.926 1_455 S
H496 C509 0.929 . S
H497 C507 0.929 . S
H498 C502 0.929 . S
H499 C508 0.929 . S
C500 H494 0.926 1_455 S
C500 C501 1.367 . S
C500 C508 1.378 1_455 S
C501 C500 1.367 . S
C501 C509 1.433 . S
C502 H498 0.929 . S
C502 C504 1.378 1_455 S
C502 C506 1.350 1_455 S
C503 C506 1.463 1_445 S
C503 C508 1.350 1_455 S
C503 N511 1.427 . S
C504 H495 0.926 1_655 S
C504 C502 1.378 1_655 S
C504 C505 1.367 . S
C505 C504 1.367 . S
C505 C507 1.433 . S
C506 C502 1.350 1_655 S
C506 C503 1.463 1_665 S
C506 N510 1.427 . S
C507 H497 0.929 . S
C507 C505 1.433 . S
C507 N510 1.384 . S
C508 H499 0.929 . S
C508 C500 1.378 1_655 S
C508 C503 1.350 1_655 S
C509 H496 0.929 . S
C509 C501 1.433 . S
C509 N511 1.384 . S
N510 C506 1.427 . S
N510 C507 1.384 . S
N511 C503 1.427 . S
N511 C509 1.384 . S
H512 C518 0.930 . S
H513 C522 0.930 . S
H514 C527 0.929 . S
H515 C525 0.929 . S
H516 C520 0.929 . S
H517 C526 0.929 . S
C518 H512 0.930 . S
C518 C519 1.367 . S
C518 C526 1.378 . S
C519 C518 1.367 . S
C519 C527 1.433 . S
C520 H516 0.929 . S
C520 C522 1.378 . S
C520 C524 1.350 . S
C521 C524 1.463 1_565 S
C521 C526 1.350 . S
C521 N529 1.427 1_565 S
C522 H513 0.930 . S
C522 C520 1.378 . S
C522 C523 1.367 . S
C523 C522 1.367 . S
C523 C525 1.433 . S
C524 C520 1.350 . S
C524 C521 1.463 1_545 S
C524 N528 1.427 1_545 S
C525 H515 0.929 . S
C525 C523 1.433 . S
C525 N528 1.384 1_545 S
C526 H517 0.929 . S
C526 C518 1.378 . S
C526 C521 1.350 . S
C527 H514 0.929 . S
C527 C519 1.433 . S
C527 N529 1.384 1_565 S
N528 C524 1.427 1_565 S
N528 C525 1.384 1_565 S
N529 C521 1.427 1_545 S
N529 C527 1.384 1_545 S
H530 C536 0.930 . S
H531 C540 0.930 . S
H532 C545 0.929 . S
H533 C543 0.929 . S
H534 C538 0.929 . S
H535 C544 0.929 . S
C536 H530 0.930 . S
C536 C537 1.367 . S
C536 C544 1.378 . S
C537 C536 1.367 . S
C537 C545 1.433 1_655 S
C538 H534 0.929 . S
C538 C540 1.378 . S
C538 C542 1.350 . S
C539 C542 1.463 1_665 S
C539 C544 1.350 . S
C539 N547 1.427 1_655 S
C540 H531 0.930 . S
C540 C538 1.378 . S
C540 C541 1.367 . S
C541 C540 1.367 . S
C541 C543 1.433 1_455 S
C542 C538 1.350 . S
C542 C539 1.463 1_445 S
C542 N546 1.427 1_455 S
C543 H533 0.929 . S
C543 C541 1.433 1_655 S
C543 N546 1.384 . S
C544 H535 0.929 . S
C544 C536 1.378 . S
C544 C539 1.350 . S
C545 H532 0.929 . S
C545 C537 1.433 1_455 S
C545 N547 1.384 . S
N546 C542 1.427 1_655 S
N546 C543 1.384 . S
N547 C539 1.427 1_455 S
N547 C545 1.384 . S
H548 C554 0.930 . S
H549 C558 0.930 . S
H550 C563 0.929 . S
H551 C561 0.929 . S
H552 C556 0.929 . S
H553 C562 0.929 . S
C554 H548 0.930 . S
C554 C555 1.367 . S
C554 C562 1.378 . S
C555 C554 1.367 . S
C555 C563 1.433 . S
C556 H552 0.929 . S
C556 C558 1.378 . S
C556 C560 1.350 . S
C557 C560 1.463 1_455 S
C557 C562 1.350 . S
C557 N565 1.427 . S
C558 H549 0.930 . S
C558 C556 1.378 . S
C558 C559 1.367 . S
C559 C558 1.367 . S
C559 C561 1.433 . S
C560 C556 1.350 . S
C560 C557 1.463 1_655 S
C560 N564 1.427 . S
C561 H551 0.929 . S
C561 C559 1.433 . S
C561 N564 1.384 . S
C562 H553 0.929 . S
C562 C554 1.378 . S
C562 C557 1.350 . S
C563 H550 0.929 . S
C563 C555 1.433 . S
C563 N565 1.384 . S
N564 C560 1.427 . S
N564 C561 1.384 . S
N565 C557 1.427 . S
N565 C563 1.384 . S
H566 C572 0.930 . S
H567 C576 0.930 . S
H568 C581 0.929 . S
H569 C579 0.929 . S
H570 C574 0.929 . S
H571 C580 0.929 . S
C572 H566 0.930 . S
C572 C573 1.367 . S
C572 C580 1.378 . S
C573 C572 1.367 . S
C573 C581 1.433 . S
C574 H570 0.929 . S
C574 C576 1.378 . S
C574 C578 1.350 . S
C575 C578 1.463 . S
C575 C580 1.350 . S
C575 N583 1.427 . S
C576 H567 0.930 . S
C576 C574 1.378 . S
C576 C577 1.367 . S
C577 C576 1.367 . S
C577 C579 1.433 . S
C578 C574 1.350 . S
C578 C575 1.463 . S
C578 N582 1.427 . S
C579 H569 0.929 . S
C579 C577 1.433 . S
C579 N582 1.384 . S
C580 H571 0.929 . S
C580 C572 1.378 . S
C580 C575 1.350 . S
C581 H568 0.929 . S
C581 C573 1.433 . S
C581 N583 1.384 . S
N582 C578 1.427 . S
N582 C579 1.384 . S
N583 C575 1.427 . S
N583 C581 1.384 . S
H584 C590 0.930 . S
H585 C594 0.930 . S
H586 C599 0.929 . S
H587 C597 0.929 . S
H588 C592 0.929 . S
H589 C598 0.929 . S
C590 H584 0.930 . S
C590 C591 1.367 . S
C590 C598 1.378 . S
C591 C590 1.367 . S
C591 C599 1.433 . S
C592 H588 0.929 . S
C592 C594 1.378 . S
C592 C596 1.350 . S
C593 C596 1.463 . S
C593 C598 1.350 . S
C593 N601 1.427 . S
C594 H585 0.930 . S
C594 C592 1.378 . S
C594 C595 1.367 . S
C595 C594 1.367 . S
C595 C597 1.433 . S
C596 C592 1.350 . S
C596 C593 1.463 . S
C596 N600 1.427 . S
C597 H587 0.929 . S
C597 C595 1.433 . S
C597 N600 1.384 . S
C598 H589 0.929 . S
C598 C590 1.378 . S
C598 C593 1.350 . S
C599 H586 0.929 . S
C599 C591 1.433 . S
C599 N601 1.384 . S
N600 C596 1.427 . S
N600 C597 1.384 . S
N601 C593 1.427 . S
N601 C599 1.384 . S
H602 C608 0.930 . S
H603 C612 0.930 . S
H604 C617 0.929 . S
H605 C615 0.929 . S
H606 C610 0.929 . S
H607 C616 0.929 . S
C608 H602 0.930 . S
C608 C609 1.367 . S
C608 C616 1.378 . S
C609 C608 1.367 . S
C609 C617 1.433 . S
C610 H606 0.929 . S
C610 C612 1.378 . S
C610 C614 1.350 . S
C611 C614 1.463 1_565 S
C611 C616 1.350 . S
C611 N619 1.427 . S
C612 H603 0.930 . S
C612 C610 1.378 . S
C612 C613 1.367 . S
C613 C612 1.367 . S
C613 C615 1.433 . S
C614 C610 1.350 . S
C614 C611 1.463 1_545 S
C614 N618 1.427 . S
C615 H605 0.929 . S
C615 C613 1.433 . S
C615 N618 1.384 . S
C616 H607 0.929 . S
C616 C608 1.378 . S
C616 C611 1.350 . S
C617 H604 0.929 . S
C617 C609 1.433 . S
C617 N619 1.384 . S
N618 C614 1.427 . S
N618 C615 1.384 . S
N619 C611 1.427 . S
N619 C617 1.384 . S
H620 C626 0.930 . S
H621 C630 0.930 . S
H622 C635 0.929 . S
H623 C633 0.929 . S
H624 C628 0.929 . S
H625 C634 0.929 . S
C626 H620 0.930 . S
C626 C627 1.367 . S
C626 C634 1.378 . S
C627 C626 1.367 . S
C627 C635 1.433 . S
C628 H624 0.929 . S
C628 C630 1.378 . S
C628 C632 1.350 . S
C629 C632 1.463 1_665 S
C629 C634 1.350 . S
C629 N637 1.434 . S
C630 H621 0.930 . S
C630 C628 1.378 . S
C630 C631 1.367 . S
C631 C630 1.367 . S
C631 C633 1.433 . S
C632 C628 1.350 . S
C632 C629 1.463 1_445 S
C632 N636 1.433 . S
C633 H623 0.929 . S
C633 C631 1.433 . S
C633 N636 1.395 . S
C634 H625 0.929 . S
C634 C626 1.378 . S
C634 C629 1.350 . S
C635 H622 0.929 . S
C635 C627 1.433 . S
C635 N637 1.396 . S
N636 C632 1.433 . S
N636 C633 1.395 . S
N637 C629 1.434 . S
N637 C635 1.396 . S
H638 C644 0.930 1_655 S
H639 C648 0.930 1_455 S
H640 C653 0.929 . S
H641 C651 0.929 . S
H642 C646 0.929 . S
H643 C652 0.929 . S
C644 H638 0.930 1_455 S
C644 C645 1.367 . S
C644 C652 1.378 1_455 S
C645 C644 1.367 . S
C645 C653 1.433 . S
C646 H642 0.929 . S
C646 C648 1.378 1_455 S
C646 C650 1.350 1_455 S
C647 C650 1.463 1_455 S
C647 C652 1.350 1_455 S
C647 N655 1.427 . S
C648 H639 0.930 1_655 S
C648 C646 1.378 1_655 S
C648 C649 1.367 . S
C649 C648 1.367 . S
C649 C651 1.433 . S
C650 C646 1.350 1_655 S
C650 C647 1.463 1_655 S
C650 N654 1.427 . S
C651 H641 0.929 . S
C651 C649 1.433 . S
C651 N654 1.384 . S
C652 H643 0.929 . S
C652 C644 1.378 1_655 S
C652 C647 1.350 1_655 S
C653 H640 0.929 . S
C653 C645 1.433 . S
C653 N655 1.384 . S
N654 C650 1.427 . S
N654 C651 1.384 . S
N655 C647 1.427 . S
N655 C653 1.384 . S
H656 C662 0.930 . S
H657 C666 0.930 . S
H658 C671 0.929 . S
H659 C669 0.929 . S
H660 C664 0.929 . S
H661 C670 0.929 . S
C662 H656 0.930 . S
C662 C663 1.367 . S
C662 C670 1.378 . S
C663 C662 1.367 . S
C663 C671 1.433 . S
C664 H660 0.929 . S
C664 C666 1.378 . S
C664 C668 1.350 . S
C665 C668 1.463 . S
C665 C670 1.350 . S
C665 N673 1.427 . S
C666 H657 0.930 . S
C666 C664 1.378 . S
C666 C667 1.367 . S
C667 C666 1.367 . S
C667 C669 1.433 . S
C668 C664 1.350 . S
C668 C665 1.463 . S
C668 N672 1.427 . S
C669 H659 0.929 . S
C669 C667 1.433 . S
C669 N672 1.384 . S
C670 H661 0.929 . S
C670 C662 1.378 . S
C670 C665 1.350 . S
C671 H658 0.929 . S
C671 C663 1.433 . S
C671 N673 1.384 . S
N672 C668 1.427 . S
N672 C669 1.384 . S
N673 C665 1.427 . S
N673 C671 1.384 . S
H674 C680 0.930 1_455 S
H675 C684 0.930 . S
H676 C689 0.929 . S
H677 C687 0.929 1_455 S
H678 C682 0.929 . S
H679 C688 0.929 1_455 S
C680 H674 0.930 1_655 S
C680 C681 1.367 . S
C680 C688 1.378 . S
C681 C680 1.367 . S
C681 C689 1.433 . S
C682 H678 0.929 . S
C682 C684 1.378 . S
C682 C686 1.350 . S
C683 C686 1.463 . S
C683 C688 1.350 . S
C683 N691 1.427 . S
C684 H675 0.930 . S
C684 C682 1.378 . S
C684 C685 1.367 . S
C685 C684 1.367 . S
C685 C687 1.433 . S
C686 C682 1.350 . S
C686 C683 1.463 . S
C686 N690 1.427 . S
C687 H677 0.929 1_655 S
C687 C685 1.433 . S
C687 N690 1.384 . S
C688 H679 0.929 1_655 S
C688 C680 1.378 . S
C688 C683 1.350 . S
C689 H676 0.929 . S
C689 C681 1.433 . S
C689 N691 1.384 . S
N690 C686 1.427 . S
N690 C687 1.384 . S
N691 C683 1.427 . S
N691 C689 1.384 . S
H692 C698 0.930 . S
H693 C702 0.930 . S
H694 C707 0.929 . S
H695 C705 0.929 . S
H696 C700 0.929 . S
H697 C706 0.929 . S
C698 H692 0.930 . S
C698 C699 1.367 . S
C698 C706 1.378 . S
C699 C698 1.367 . S
C699 C707 1.433 . S
C700 H696 0.929 . S
C700 C702 1.378 . S
C700 C704 1.350 . S
C701 C704 1.463 . S
C701 C706 1.350 . S
C701 N709 1.427 . S
C702 H693 0.930 . S
C702 C700 1.378 . S
C702 C703 1.367 . S
C703 C702 1.367 . S
C703 C705 1.433 . S
C704 C700 1.350 . S
C704 C701 1.463 . S
C704 N708 1.427 . S
C705 H695 0.929 . S
C705 C703 1.433 . S
C705 N708 1.384 . S
C706 H697 0.929 . S
C706 C698 1.378 . S
C706 C701 1.350 . S
C707 H694 0.929 . S
C707 C699 1.433 . S
C707 N709 1.384 . S
N708 C704 1.427 . S
N708 C705 1.384 . S
N709 C701 1.427 . S
N709 C707 1.384 . S
H710 C716 0.930 . S
H711 C720 0.930 . S
H712 C725 0.929 . S
H713 C723 0.929 . S
H714 C718 0.929 . S
H715 C724 0.929 . S
C716 H710 0.930 . S
C716 C717 1.367 . S
C716 C724 1.378 . S
C717 C716 1.367 . S
C717 C725 1.433 . S
C718 H714 0.929 . S
C718 C720 1.378 . S
C718 C722 1.350 . S
C719 C722 1.463 . S
C719 C724 1.350 . S
C719 N727 1.427 . S
C720 H711 0.930 . S
C720 C718 1.378 . S
C720 C721 1.367 . S
C721 C720 1.367 . S
C721 C723 1.433 . S
C722 C718 1.350 . S
C722 C719 1.463 . S
C722 N726 1.427 . S
C723 H713 0.929 . S
C723 C721 1.433 . S
C723 N726 1.384 . S
C724 H715 0.929 . S
C724 C716 1.378 . S
C724 C719 1.350 . S
C725 H712 0.929 . S
C725 C717 1.433 . S
C725 N727 1.384 . S
N726 C722 1.427 . S
N726 C723 1.384 . S
N727 C719 1.427 . S
N727 C725 1.384 . S
H728 C734 0.930 . S
H729 C738 0.930 . S
H730 C743 0.929 . S
H731 C741 0.929 . S
H732 C736 0.929 . S
H733 C742 0.929 . S
C734 H728 0.930 . S
C734 C735 1.367 . S
C734 C742 1.378 . S
C735 C734 1.367 . S
C735 C743 1.433 . S
C736 H732 0.929 . S
C736 C738 1.378 . S
C736 C740 1.350 . S
C737 C740 1.463 . S
C737 C742 1.350 . S
C737 N745 1.427 . S
C738 H729 0.930 . S
C738 C736 1.378 . S
C738 C739 1.367 . S
C739 C738 1.367 . S
C739 C741 1.433 . S
C740 C736 1.350 . S
C740 C737 1.463 . S
C740 N744 1.427 . S
C741 H731 0.929 . S
C741 C739 1.433 . S
C741 N744 1.384 . S
C742 H733 0.929 . S
C742 C734 1.378 . S
C742 C737 1.350 . S
C743 H730 0.929 . S
C743 C735 1.433 . S
C743 N745 1.384 . S
N744 C740 1.427 . S
N744 C741 1.384 . S
N745 C737 1.427 . S
N745 C743 1.384 . S
H746 C752 0.930 . S
H747 C756 0.930 . S
H748 C761 0.929 . S
H749 C759 0.929 . S
H750 C754 0.929 . S
H751 C760 0.929 . S
C752 H746 0.930 . S
C752 C753 1.367 . S
C752 C760 1.378 . S
C753 C752 1.367 . S
C753 C761 1.433 . S
C754 H750 0.929 . S
C754 C756 1.378 . S
C754 C758 1.350 . S
C755 C758 1.463 . S
C755 C760 1.350 . S
C755 N763 1.427 . S
C756 H747 0.930 . S
C756 C754 1.378 . S
C756 C757 1.367 . S
C757 C756 1.367 . S
C757 C759 1.433 . S
C758 C754 1.350 . S
C758 C755 1.463 . S
C758 N762 1.427 . S
C759 H749 0.929 . S
C759 C757 1.433 . S
C759 N762 1.384 . S
C760 H751 0.929 . S
C760 C752 1.378 . S
C760 C755 1.350 . S
C761 H748 0.929 . S
C761 C753 1.433 . S
C761 N763 1.384 . S
N762 C758 1.427 . S
N762 C759 1.384 . S
N763 C755 1.427 . S
N763 C761 1.384 . S
H764 C770 0.930 . S
H765 C774 0.930 . S
H766 C779 0.929 . S
H767 C777 0.929 . S
H768 C772 0.929 . S
H769 C778 0.929 . S
C770 H764 0.930 . S
C770 C771 1.367 . S
C770 C778 1.378 . S
C771 C770 1.367 . S
C771 C779 1.433 . S
C772 H768 0.929 . S
C772 C774 1.378 . S
C772 C776 1.350 . S
C773 C776 1.463 . S
C773 C778 1.350 . S
C773 N781 1.427 . S
C774 H765 0.930 . S
C774 C772 1.378 . S
C774 C775 1.367 . S
C775 C774 1.367 . S
C775 C777 1.433 . S
C776 C772 1.350 . S
C776 C773 1.463 . S
C776 N780 1.427 . S
C777 H767 0.929 . S
C777 C775 1.433 . S
C777 N780 1.384 . S
C778 H769 0.929 . S
C778 C770 1.378 . S
C778 C773 1.350 . S
C779 H766 0.929 . S
C779 C771 1.433 . S
C779 N781 1.384 . S
N780 C776 1.427 . S
N780 C777 1.384 . S
N781 C773 1.427 . S
N781 C779 1.384 . S
H782 C788 0.930 . S
H783 C792 0.930 . S
H784 C797 0.929 . S
H785 C795 0.929 . S
H786 C790 0.929 . S
H787 C796 0.929 . S
C788 H782 0.930 . S
C788 C789 1.367 . S
C788 C796 1.378 . S
C789 C788 1.367 . S
C789 C797 1.433 . S
C790 H786 0.929 . S
C790 C792 1.378 . S
C790 C794 1.350 . S
C791 C794 1.463 . S
C791 C796 1.350 . S
C791 N799 1.427 . S
C792 H783 0.930 . S
C792 C790 1.378 . S
C792 C793 1.367 . S
C793 C792 1.367 . S
C793 C795 1.433 . S
C794 C790 1.350 . S
C794 C791 1.463 . S
C794 N798 1.427 . S
C795 H785 0.929 . S
C795 C793 1.433 . S
C795 N798 1.384 . S
C796 H787 0.929 . S
C796 C788 1.378 . S
C796 C791 1.350 . S
C797 H784 0.929 . S
C797 C789 1.433 . S
C797 N799 1.384 . S
N798 C794 1.427 . S
N798 C795 1.384 . S
N799 C791 1.427 . S
N799 C797 1.384 . S
H800 C806 0.930 . S
H801 C810 0.930 . S
H802 C815 0.929 . S
H803 C813 0.929 . S
H804 C808 0.929 . S
H805 C814 0.929 . S
C806 H800 0.930 . S
C806 C807 1.367 . S
C806 C814 1.378 . S
C807 C806 1.367 . S
C807 C815 1.433 . S
C808 H804 0.929 . S
C808 C810 1.378 . S
C808 C812 1.350 . S
C809 C812 1.463 . S
C809 C814 1.350 . S
C809 N817 1.427 . S
C810 H801 0.930 . S
C810 C808 1.378 . S
C810 C811 1.367 . S
C811 C810 1.367 . S
C811 C813 1.433 . S
C812 C808 1.350 . S
C812 C809 1.463 . S
C812 N816 1.427 . S
C813 H803 0.929 . S
C813 C811 1.433 . S
C813 N816 1.384 . S
C814 H805 0.929 . S
C814 C806 1.378 . S
C814 C809 1.350 . S
C815 H802 0.929 . S
C815 C807 1.433 . S
C815 N817 1.384 . S
N816 C812 1.427 . S
N816 C813 1.384 . S
N817 C809 1.427 . S
N817 C815 1.384 . S
H818 C824 0.930 . S
H819 C828 0.930 . S
H820 C833 0.929 . S
H821 C831 0.929 . S
H822 C826 0.929 . S
H823 C832 0.929 . S
C824 H818 0.930 . S
C824 C825 1.367 . S
C824 C832 1.378 . S
C825 C824 1.367 . S
C825 C833 1.433 . S
C826 H822 0.929 . S
C826 C828 1.378 . S
C826 C830 1.350 . S
C827 C830 1.463 . S
C827 C832 1.350 . S
C827 N835 1.427 . S
C828 H819 0.930 . S
C828 C826 1.378 . S
C828 C829 1.367 . S
C829 C828 1.367 . S
C829 C831 1.433 . S
C830 C826 1.350 . S
C830 C827 1.463 . S
C830 N834 1.427 . S
C831 H821 0.929 . S
C831 C829 1.433 . S
C831 N834 1.384 . S
C832 H823 0.929 . S
C832 C824 1.378 . S
C832 C827 1.350 . S
C833 H820 0.929 . S
C833 C825 1.433 . S
C833 N835 1.384 . S
N834 C830 1.427 . S
N834 C831 1.384 . S
N835 C827 1.427 . S
N835 C833 1.384 . S
H836 C842 0.930 . S
H837 C846 0.930 . S
H838 C851 0.929 . S
H839 C849 0.929 . S
H840 C844 0.929 . S
H841 C850 0.929 . S
C842 H836 0.930 . S
C842 C843 1.367 . S
C842 C850 1.378 . S
C843 C842 1.367 . S
C843 C851 1.433 . S
C844 H840 0.929 . S
C844 C846 1.378 . S
C844 C848 1.350 . S
C845 C848 1.463 . S
C845 C850 1.350 . S
C845 N853 1.427 . S
C846 H837 0.930 . S
C846 C844 1.378 . S
C846 C847 1.367 . S
C847 C846 1.367 . S
C847 C849 1.433 . S
C848 C844 1.350 . S
C848 C845 1.463 . S
C848 N852 1.427 . S
C849 H839 0.929 . S
C849 C847 1.433 . S
C849 N852 1.384 . S
C850 H841 0.929 . S
C850 C842 1.378 . S
C850 C845 1.350 . S
C851 H838 0.929 . S
C851 C843 1.433 . S
C851 N853 1.384 . S
N852 C848 1.427 . S
N852 C849 1.384 . S
N853 C845 1.427 . S
N853 C851 1.384 . S
H854 C860 0.930 . S
H855 C864 0.930 . S
H856 C869 0.929 . S
H857 C867 0.929 . S
H858 C862 0.853 1_556 S
H859 C868 0.899 1_554 S
C860 H854 0.930 . S
C860 C861 1.367 . S
C860 C868 1.378 . S
C861 C860 1.367 . S
C861 C869 1.433 . S
C862 H858 0.853 1_554 S
C862 C864 1.448 . S
C862 C866 1.361 . S
C863 C866 1.463 1_556 S
C863 C868 1.350 . S
C863 N871 1.427 . S
C864 H855 0.930 . S
C864 C862 1.448 . S
C864 C865 1.367 . S
C865 C864 1.367 . S
C865 C867 1.433 . S
C866 C862 1.361 . S
C866 C863 1.463 1_554 S
C866 N870 1.427 . S
C867 H857 0.929 . S
C867 C865 1.433 . S
C867 N870 1.384 . S
C868 H859 0.899 1_556 S
C868 C860 1.378 . S
C868 C863 1.350 . S
C869 H856 0.929 . S
C869 C861 1.433 . S
C869 N871 1.384 . S
N870 C866 1.427 . S
N870 C867 1.384 . S
N871 C863 1.427 . S
N871 C869 1.384 . S
H872 C878 0.930 . S
H873 C882 0.930 . S
H874 C887 0.929 . S
H875 C885 0.929 . S
H876 C880 0.929 . S
H877 C886 0.929 1_556 S
C878 H872 0.930 . S
C878 C879 1.367 . S
C878 C886 1.378 . S
C879 C878 1.367 . S
C879 C887 1.433 . S
C880 H876 0.929 . S
C880 C882 1.378 . S
C880 C884 1.350 . S
C881 C884 1.463 1_554 S
C881 C886 1.350 . S
C881 N889 1.427 . S
C882 H873 0.930 . S
C882 C880 1.378 . S
C882 C883 1.367 . S
C883 C882 1.367 . S
C883 C885 1.433 . S
C884 C880 1.350 . S
C884 C881 1.463 1_556 S
C884 N888 1.427 . S
C885 H875 0.929 . S
C885 C883 1.433 . S
C885 N888 1.384 . S
C886 H877 0.929 1_554 S
C886 C878 1.378 . S
C886 C881 1.350 . S
C887 H874 0.929 . S
C887 C879 1.433 . S
C887 N889 1.384 . S
N888 C884 1.427 . S
N888 C885 1.384 . S
N889 C881 1.427 . S
N889 C887 1.384 . S
H890 C896 0.930 . S
H891 C900 0.930 . S
H892 C905 0.929 . S
H893 C903 0.929 . S
H894 C898 0.929 . S
H895 C904 0.929 . S
C896 H890 0.930 . S
C896 C897 1.367 . S
C896 C904 1.378 . S
C897 C896 1.367 . S
C897 C905 1.433 . S
C898 H894 0.929 . S
C898 C900 1.378 . S
C898 C902 1.350 . S
C899 C902 1.463 . S
C899 C904 1.350 . S
C899 N907 1.427 . S
C900 H891 0.930 . S
C900 C898 1.378 . S
C900 C901 1.367 . S
C901 C900 1.367 . S
C901 C903 1.433 . S
C902 C898 1.350 . S
C902 C899 1.463 . S
C902 N906 1.427 . S
C903 H893 0.929 . S
C903 C901 1.433 . S
C903 N906 1.384 . S
C904 H895 0.929 . S
C904 C896 1.378 . S
C904 C899 1.350 . S
C905 H892 0.929 . S
C905 C897 1.433 . S
C905 N907 1.384 . S
N906 C902 1.427 . S
N906 C903 1.384 . S
N907 C899 1.427 . S
N907 C905 1.384 . S
H908 C914 0.930 . S
H909 C918 0.930 . S
H910 C923 0.929 . S
H911 C921 0.929 . S
H912 C916 0.929 . S
H913 C922 0.929 . S
C914 H908 0.930 . S
C914 C915 1.367 . S
C914 C922 1.378 . S
C915 C914 1.367 . S
C915 C923 1.433 . S
C916 H912 0.929 . S
C916 C918 1.378 . S
C916 C920 1.350 . S
C917 C920 1.463 . S
C917 C922 1.350 . S
C917 N925 1.427 . S
C918 H909 0.930 . S
C918 C916 1.378 . S
C918 C919 1.367 . S
C919 C918 1.367 . S
C919 C921 1.433 . S
C920 C916 1.350 . S
C920 C917 1.463 . S
C920 N924 1.427 . S
C921 H911 0.929 . S
C921 C919 1.433 . S
C921 N924 1.384 . S
C922 H913 0.929 . S
C922 C914 1.378 . S
C922 C917 1.350 . S
C923 H910 0.929 . S
C923 C915 1.433 . S
C923 N925 1.384 . S
N924 C920 1.427 . S
N924 C921 1.384 . S
N925 C917 1.427 . S
N925 C923 1.384 . S
H926 C932 0.930 . S
H927 C936 0.930 . S
H928 C941 0.929 . S
H929 C939 0.929 . S
H930 C934 0.929 . S
H931 C940 0.929 . S
C932 H926 0.930 . S
C932 C933 1.367 . S
C932 C940 1.378 . S
C933 C932 1.367 . S
C933 C941 1.433 . S
C934 H930 0.929 . S
C934 C936 1.378 . S
C934 C938 1.350 . S
C935 C938 1.463 . S
C935 C940 1.350 . S
C935 N943 1.427 . S
C936 H927 0.930 . S
C936 C934 1.378 . S
C936 C937 1.367 . S
C937 C936 1.367 . S
C937 C939 1.433 . S
C938 C934 1.350 . S
C938 C935 1.463 . S
C938 N942 1.427 . S
C939 H929 0.929 . S
C939 C937 1.433 . S
C939 N942 1.384 . S
C940 H931 0.929 . S
C940 C932 1.378 . S
C940 C935 1.350 . S
C941 H928 0.929 . S
C941 C933 1.433 . S
C941 N943 1.384 . S
N942 C938 1.427 . S
N942 C939 1.384 . S
N943 C935 1.427 . S
N943 C941 1.384 . S
C375 C246 2.054 . S
C379 C16 2.053 . S
C393 N35 1.927 . S
C397 N265 1.932 . S
C411 C200 2.049 . S
C415 C62 2.045 . S
C429 N219 1.927 . S
C433 N81 1.935 . S
C447 C108 2.045 . S
C451 C338 2.048 . S
C465 N357 1.934 . S
C469 N127 1.927 . S
C483 C154 2.055 . S
C487 C292 2.054 . S
C501 N311 1.925 . S
C505 N173 1.932 . S
C519 C237 1.265 . S
C523 C7 1.268 . S
C537 N25 1.007 . S
C541 N255 1.013 . S
C555 C53 1.269 . S
C559 C191 1.267 . S
C573 N71 0.986 . S
C577 N209 0.993 . S
C591 C99 1.264 . S
C595 C329 1.260 . S
C609 N117 0.989 . S
C613 N347 0.984 . S
C627 C283 1.268 . S
C631 C145 1.265 . S
C645 N301 0.985 . S
C649 N163 0.994 . S
C663 N2 1.605 . S
C667 N140 1.597 . S
C681 C30 1.645 . S
C685 C168 1.642 . S
C699 N48 1.607 . S
C703 N94 1.616 . S
C717 C76 1.636 . S
C721 C122 1.638 . S
C735 N186 1.611 . S
C739 N324 1.600 . S
C753 C352 1.636 . S
C757 C214 1.639 . S
C771 N232 1.612 . S
C775 N278 1.615 . S
C789 C306 1.646 . S
C793 C260 1.645 . S
C807 N12 1.684 . S
C811 C361 1.663 . S
C825 N288 1.687 . S
C829 C39 1.661 . S
C843 C315 1.664 . S
C847 N58 1.683 . S
C861 N334 1.684 . S
C865 C85 1.671 . S
C879 C223 1.667 . S
C883 N104 1.688 . S
C897 N242 1.684 . S
C901 C131 1.671 . S
C915 N150 1.682 . S
C919 C269 1.670 . S
C933 C177 1.661 . S
C937 N196 1.688 . S
