# Generated by pormake.
# Topology yfy, (5)-cn, num edge types: 1
# Building blocks:
#     Node 0, Type 0, BuildingBlock: XOMCOT_clean_sbu_1, # of connection points: 5
#     Node 1, Type 0, BuildingBlock: XOMCOT_clean_sbu_1, # of connection points: 5
#     Node 2, Type 0, BuildingBlock: XOMCOT_clean_sbu_1, # of connection points: 5
#     Node 3, Type 0, BuildingBlock: XOMCOT_clean_sbu_1, # of connection points: 5
#     Node 4, Type 0, BuildingBlock: XOMCOT_clean_sbu_1, # of connection points: 5
#     Node 5, Type 0, BuildingBlock: XOMCOT_clean_sbu_1, # of connection points: 5
#     Node 6, Type 0, BuildingBlock: XOMCOT_clean_sbu_1, # of connection points: 5
#     Node 7, Type 0, BuildingBlock: XOMCOT_clean_sbu_1, # of connection points: 5
#     Node 8, Type 0, BuildingBlock: XOMCOT_clean_sbu_1, # of connection points: 5
#     Node 9, Type 0, BuildingBlock: XOMCOT_clean_sbu_1, # of connection points: 5
#     Node 10, Type 0, BuildingBlock: XOMCOT_clean_sbu_1, # of connection points: 5
#     Node 11, Type 0, BuildingBlock: XOMCOT_clean_sbu_1, # of connection points: 5
#     Node 12, Type 0, BuildingBlock: XOMCOT_clean_sbu_1, # of connection points: 5
#     Node 13, Type 0, BuildingBlock: XOMCOT_clean_sbu_1, # of connection points: 5
#     Node 14, Type 0, BuildingBlock: XOMCOT_clean_sbu_1, # of connection points: 5
#     Node 15, Type 0, BuildingBlock: XOMCOT_clean_sbu_1, # of connection points: 5
#     Edge 16, Type (0, 0), BuildingBlock: XIVTED_clean_linker_0, # of connection points: 2
#     Edge 17, Type (0, 0), BuildingBlock: XIVTED_clean_linker_0, # of connection points: 2
#     Edge 18, Type (0, 0), BuildingBlock: XIVTED_clean_linker_0, # of connection points: 2
#     Edge 19, Type (0, 0), BuildingBlock: XIVTED_clean_linker_0, # of connection points: 2
#     Edge 20, Type (0, 0), BuildingBlock: XIVTED_clean_linker_0, # of connection points: 2
#     Edge 21, Type (0, 0), BuildingBlock: XIVTED_clean_linker_0, # of connection points: 2
#     Edge 22, Type (0, 0), BuildingBlock: XIVTED_clean_linker_0, # of connection points: 2
#     Edge 23, Type (0, 0), BuildingBlock: XIVTED_clean_linker_0, # of connection points: 2
#     Edge 24, Type (0, 0), BuildingBlock: XIVTED_clean_linker_0, # of connection points: 2
#     Edge 25, Type (0, 0), BuildingBlock: XIVTED_clean_linker_0, # of connection points: 2
#     Edge 26, Type (0, 0), BuildingBlock: XIVTED_clean_linker_0, # of connection points: 2
#     Edge 27, Type (0, 0), BuildingBlock: XIVTED_clean_linker_0, # of connection points: 2
#     Edge 28, Type (0, 0), BuildingBlock: XIVTED_clean_linker_0, # of connection points: 2
#     Edge 29, Type (0, 0), BuildingBlock: XIVTED_clean_linker_0, # of connection points: 2
#     Edge 30, Type (0, 0), BuildingBlock: XIVTED_clean_linker_0, # of connection points: 2
#     Edge 31, Type (0, 0), BuildingBlock: XIVTED_clean_linker_0, # of connection points: 2
#     Edge 32, Type (0, 0), BuildingBlock: XIVTED_clean_linker_0, # of connection points: 2
#     Edge 33, Type (0, 0), BuildingBlock: XIVTED_clean_linker_0, # of connection points: 2
#     Edge 34, Type (0, 0), BuildingBlock: XIVTED_clean_linker_0, # of connection points: 2
#     Edge 35, Type (0, 0), BuildingBlock: XIVTED_clean_linker_0, # of connection points: 2
#     Edge 36, Type (0, 0), BuildingBlock: XIVTED_clean_linker_0, # of connection points: 2
#     Edge 37, Type (0, 0), BuildingBlock: XIVTED_clean_linker_0, # of connection points: 2
#     Edge 38, Type (0, 0), BuildingBlock: XIVTED_clean_linker_0, # of connection points: 2
#     Edge 39, Type (0, 0), BuildingBlock: XIVTED_clean_linker_0, # of connection points: 2
#     Edge 40, Type (0, 0), BuildingBlock: XIVTED_clean_linker_0, # of connection points: 2
#     Edge 41, Type (0, 0), BuildingBlock: XIVTED_clean_linker_0, # of connection points: 2
#     Edge 42, Type (0, 0), BuildingBlock: XIVTED_clean_linker_0, # of connection points: 2
#     Edge 43, Type (0, 0), BuildingBlock: XIVTED_clean_linker_0, # of connection points: 2
#     Edge 44, Type (0, 0), BuildingBlock: XIVTED_clean_linker_0, # of connection points: 2
#     Edge 45, Type (0, 0), BuildingBlock: XIVTED_clean_linker_0, # of connection points: 2
#     Edge 46, Type (0, 0), BuildingBlock: XIVTED_clean_linker_0, # of connection points: 2
#     Edge 47, Type (0, 0), BuildingBlock: XIVTED_clean_linker_0, # of connection points: 2
#     Edge 48, Type (0, 0), BuildingBlock: XIVTED_clean_linker_0, # of connection points: 2
#     Edge 49, Type (0, 0), BuildingBlock: XIVTED_clean_linker_0, # of connection points: 2
#     Edge 50, Type (0, 0), BuildingBlock: XIVTED_clean_linker_0, # of connection points: 2
#     Edge 51, Type (0, 0), BuildingBlock: XIVTED_clean_linker_0, # of connection points: 2
#     Edge 52, Type (0, 0), BuildingBlock: XIVTED_clean_linker_0, # of connection points: 2
#     Edge 53, Type (0, 0), BuildingBlock: XIVTED_clean_linker_0, # of connection points: 2
#     Edge 54, Type (0, 0), BuildingBlock: XIVTED_clean_linker_0, # of connection points: 2
#     Edge 55, Type (0, 0), BuildingBlock: XIVTED_clean_linker_0, # of connection points: 2
# Relax obj value: 0.171
# Max RMSD: 0.197
# Mean RMSD: 0.197
data_MOF--net-yfy--node1-XOMCOT_clean_sbu_1--edge1-XIVTED_clean_linker_0
_symmetry_space_group_name_H-M    P1
_symmetry_Int_Tables_number       1
_symmetry_cell_setting            triclinic
loop_
_symmetry_equiv_pos_as_xyz
'x, y, z'
_cell_length_a     43.28973
_cell_length_b     43.055451
_cell_length_c     51.078526
_cell_angle_alpha  89.92779
_cell_angle_beta   90.109542
_cell_angle_gamma 89.894879
loop_
_atom_site_label
_atom_site_type_symbol
_atom_site_fract_x
_atom_site_fract_y
_atom_site_fract_z
_atom_type_partial_charge
C0 C 0.99674 0.31149 0.33052 0.0
C1 C 0.9728 0.29075 0.32781 0.0
N2 N 0.98013 0.27044 0.30873 0.0
N3 N 1.01911 0.30438 0.31322 0.0
C4 C 1.00833 0.27929 0.30018 0.0
H5 H 0.99797 0.33037 0.34443 0.0
Co6 Co 0.05633 0.32595 0.30943 0.0
C7 C 0.0922 0.28746 0.2727 0.0
O8 O 0.0955 0.31108 0.25665 0.0
N9 N 0.0943 0.34759 0.30532 0.0
C10 C 0.1448 0.3575 0.30513 0.0
C11 C 0.1221 0.33818 0.31447 0.0
C12 C 0.10093 0.37276 0.29036 0.0
N13 N 0.1315 0.37919 0.28979 0.0
O14 O 0.04073 0.34337 0.2776 0.0
H15 H 0.12594 0.31758 0.32618 0.0
H16 H 0.08387 0.38567 0.27936 0.0
O17 O 0.07523 0.29034 0.29292 0.0
C18 C 0.02567 0.36658 0.28666 0.0
O19 O 0.02817 0.37272 0.3118 0.0
N20 N 0.06847 0.31164 0.34225 0.0
C21 C 0.06764 0.29695 0.39519 0.0
C22 C 0.06831 0.27329 0.37636 0.0
C23 C 0.06843 0.28117 0.34977 0.0
C24 C 0.06993 0.33475 0.36034 0.0
C25 C 0.06978 0.32792 0.38694 0.0
H26 H 0.06569 0.263 0.33544 0.0
H27 H 0.06899 0.35874 0.35407 0.0
H28 H 0.02085 0.2678 0.28464 0.0
H29 H 0.95198 0.29021 0.33949 0.0
H30 H 0.16938 0.35471 0.30829 0.0
H31 H 0.06629 0.24913 0.38205 0.0
H32 H 0.06956 0.3468 0.40094 0.0
C33 C 0.82868 0.99884 0.339 0.0
C34 C 0.84808 0.9741 0.33488 0.0
N35 N 0.85698 0.97441 0.30964 0.0
N36 N 0.8258 1.01535 0.31664 0.0
C37 C 0.8423 0.99904 0.29884 0.0
H38 H 0.81773 1.00458 0.35736 0.0
Co39 Co 0.80127 0.0512 0.31235 0.0
C40 C 0.86249 0.07456 0.28797 0.0
O41 O 0.87925 0.04957 0.29178 0.0
N42 N 0.77615 0.08712 0.30787 0.0
C43 C 0.75926 0.13603 0.30997 0.0
C44 C 0.78114 0.11533 0.31872 0.0
C45 C 0.75129 0.09168 0.29209 0.0
N46 N 0.74057 0.12114 0.29313 0.0
O47 O 0.78507 0.03345 0.28074 0.0
H48 H 0.80015 0.12102 0.33159 0.0
H49 H 0.74139 0.07405 0.27962 0.0
O50 O 0.83404 0.07495 0.29475 0.0
C51 C 0.76314 1.01674 0.28993 0.0
O52 O 0.75733 1.01855 0.31514 0.0
N53 N 0.81434 0.06545 0.34514 0.0
C54 C 0.82798 0.06728 0.39825 0.0
C55 C 0.85144 0.07147 0.37973 0.0
C56 C 0.84415 0.07026 0.35304 0.0
C57 C 0.79107 0.06383 0.36298 0.0
C58 C 0.79735 0.06484 0.38964 0.0
H59 H 0.86277 0.07046 0.33914 0.0
H60 H 0.76771 0.05941 0.35646 0.0
H61 H 0.84395 1.00545 0.27839 0.0
H62 H 0.85599 0.95788 0.34966 0.0
H63 H 0.75806 0.16052 0.31467 0.0
H64 H 0.87538 0.0732 0.38575 0.0
H65 H 0.77859 0.0619 0.40343 0.0
C66 C 0.1326 0.84236 0.33089 0.0
C67 C 0.15296 0.86657 0.32824 0.0
N68 N 0.14898 0.87913 0.30435 0.0
N69 N 0.11528 0.83996 0.30899 0.0
C70 C 0.12624 0.86244 0.2929 0.0
H71 H 0.13026 0.82766 0.34795 0.0
Co72 Co 0.08303 0.81104 0.30499 0.0
C73 C 0.04929 0.85824 0.26768 0.0
O74 O 0.06642 0.86252 0.24681 0.0
N75 N 0.04991 0.78195 0.30059 0.0
C76 C 1.00386 0.75899 0.30383 0.0
C77 C 0.02286 0.78142 0.31389 0.0
C78 C 0.04607 0.75975 0.28193 0.0
N79 N 1.01836 0.74539 0.28365 0.0
O80 O 0.10297 0.79496 0.2747 0.0
H81 H 1.01628 0.79715 0.32935 0.0
H82 H 0.0629 0.75445 0.26697 0.0
O83 O 0.05825 0.83999 0.28578 0.0
C84 C 0.12235 0.77597 0.28482 0.0
O85 O 0.12281 0.77295 0.31044 0.0
N86 N 0.0665 0.82493 0.33653 0.0
C87 C 0.05365 0.84138 0.38793 0.0
C88 C 0.05106 0.86345 0.36782 0.0
C89 C 0.05751 0.85467 0.34199 0.0
C90 C 0.06951 0.80347 0.35598 0.0
C91 C 0.0626 0.81103 0.38172 0.0
H92 H 0.05683 0.87204 0.32672 0.0
H93 H 0.07797 0.78046 0.35141 0.0
H94 H 0.11744 0.86693 0.27346 0.0
H95 H 0.1695 0.87436 0.34272 0.0
H96 H 0.9805 0.75408 0.31011 0.0
H97 H 0.04471 0.88724 0.37211 0.0
H98 H 0.06555 0.7936 0.39685 0.0
C99 C 0.31173 0.1374 0.3328 0.0
C100 C 0.2882 0.15883 0.33102 0.0
N101 N 0.27275 0.15377 0.30853 0.0
N102 N 0.31075 0.11861 0.31173 0.0
C103 C 0.28702 0.12945 0.29706 0.0
H104 H 0.32781 0.13487 0.3489 0.0
Co105 Co 0.33515 0.08335 0.30675 0.0
C106 C 0.29914 0.04525 0.26863 0.0
O107 O 0.32353 0.03953 0.25413 0.0
N108 N 0.35973 0.04727 0.30163 0.0
C109 C 0.37534 0.9979 0.3026 0.0
C110 C 0.35262 1.01834 0.31004 0.0
C111 C 0.38675 0.0435 0.28858 0.0
N112 N 0.39672 1.01374 0.28904 0.0
O113 O 0.35227 0.10249 0.27616 0.0
H114 H 0.33179 1.01219 0.32046 0.0
H115 H 0.39888 0.06199 0.27865 0.0
O116 O 0.30144 0.06336 0.28827 0.0
C117 C 0.37406 0.11896 0.28587 0.0
O118 O 0.37971 0.11635 0.31108 0.0
N119 N 0.32063 0.06758 0.33843 0.0
C120 C 0.30396 0.05515 0.38992 0.0
C121 C 0.28133 0.05738 0.37031 0.0
C122 C 0.29019 0.06366 0.34454 0.0
C123 C 0.34287 0.0652 0.35719 0.0
C124 C 0.33509 0.05859 0.38299 0.0
H125 H 0.2725 0.06717 0.32993 0.0
H126 H 0.36674 0.06961 0.3522 0.0
H127 H 0.2794 0.11888 0.27896 0.0
H128 H 0.28249 0.17642 0.34536 0.0
H129 H 0.37552 0.97307 0.30597 0.0
H130 H 0.25704 0.05519 0.37499 0.0
H131 H 0.35322 0.05785 0.39763 0.0
C132 C 1.00164 0.8455 0.63984 0.0
C133 C 0.97682 0.86499 0.64289 0.0
N134 N 0.97676 0.87558 0.66768 0.0
N135 N 1.01789 0.84412 0.66239 0.0
C136 C 1.00144 0.86191 0.67928 0.0
H137 H 1.00743 0.83312 0.62212 0.0
Co138 Co 0.05329 0.81889 0.66763 0.0
C139 C 0.07726 0.88101 0.69002 0.0
O140 O 0.05317 0.89844 0.6847 0.0
N141 N 0.08851 0.79338 0.67304 0.0
C142 C 0.13765 0.77803 0.67391 0.0
C143 C 0.11738 0.80012 0.66483 0.0
C144 C 0.09203 0.76699 0.68731 0.0
N145 N 0.12177 0.75717 0.68817 0.0
O146 O 0.03579 0.80426 0.69971 0.0
H147 H 0.12361 0.82052 0.65367 0.0
H148 H 0.07331 0.75542 0.69731 0.0
O149 O 0.077 0.85209 0.68439 0.0
C150 C 1.01689 0.78369 0.69135 0.0
O151 O 1.01589 0.77828 0.66602 0.0
N152 N 0.0679 0.83027 0.63449 0.0
C153 C 0.0695 0.8409 0.58083 0.0
C154 C 0.07313 0.86563 0.59841 0.0
C155 C 0.07213 0.85982 0.62538 0.0
C156 C 0.067 0.80582 0.61763 0.0
C157 C 0.06798 0.81059 0.59073 0.0
H158 H 0.07186 0.87931 0.63853 0.0
H159 H 0.063 0.78265 0.62508 0.0
H160 H 1.0075 0.86482 0.6997 0.0
H161 H 0.96052 0.87145 0.62773 0.0
H162 H 0.16244 0.77818 0.67118 0.0
H163 H 0.07418 0.88938 0.59146 0.0
H164 H 0.06562 0.79083 0.57777 0.0
C165 C 0.32302 0.99683 0.65176 0.0
C166 C 0.30038 0.97481 0.65525 0.0
N167 N 0.27941 0.98609 0.67227 0.0
N168 N 0.31643 1.02186 0.66654 0.0
C169 C 0.28978 1.01462 0.67886 0.0
H170 H 0.34283 0.99494 0.63899 0.0
Co171 Co 0.34012 0.05794 0.66817 0.0
C172 C 0.30386 0.09938 0.70325 0.0
O173 O 0.32802 0.1053 0.718 0.0
N174 N 0.36418 0.09491 0.66995 0.0
C175 C 0.3798 0.14386 0.66451 0.0
C176 C 0.35838 0.12193 0.65727 0.0
C177 C 0.38907 0.10142 0.68515 0.0
N178 N 0.39899 0.13093 0.68216 0.0
O179 O 0.35714 0.04325 0.70051 0.0
H180 H 0.33914 0.12598 0.64418 0.0
H181 H 0.3995 0.08524 0.69871 0.0
O182 O 0.30621 0.08017 0.68438 0.0
C183 C 0.38022 0.02723 0.69253 0.0
O184 O 0.38727 0.0285 0.66753 0.0
N185 N 0.32576 0.06863 0.63505 0.0
C186 C 0.3092 0.06848 0.58249 0.0
C187 C 0.28672 0.07294 0.60186 0.0
C188 C 0.29548 0.07257 0.62823 0.0
C189 C 0.34798 0.06571 0.61641 0.0
C190 C 0.34024 0.06578 0.58999 0.0
H191 H 0.27775 0.07332 0.643 0.0
H192 H 0.37171 0.06174 0.6222 0.0
H193 H 0.27816 0.02989 0.69247 0.0
H194 H 0.29902 0.9526 0.64542 0.0
H195 H 0.38031 0.16788 0.65824 0.0
H196 H 0.26248 0.0747 0.59676 0.0
H197 H 0.35829 0.0626 0.57558 0.0
C198 C 0.13018 0.29995 0.64246 0.0
C199 C 0.1522 0.27704 0.64436 0.0
N200 N 0.14954 0.2635 0.66799 0.0
N201 N 0.1132 0.30049 0.66458 0.0
C202 C 0.12596 0.27829 0.68002 0.0
H203 H 0.12635 0.3149 0.62573 0.0
Co204 Co 0.07896 0.32664 0.66965 0.0
C205 C 0.0503 0.27602 0.70679 0.0
O206 O 0.06802 0.27331 0.72757 0.0
N207 N 0.04389 0.35302 0.67507 0.0
C208 C 0.99559 0.37112 0.67384 0.0
C209 C 1.01572 0.34961 0.66392 0.0
C210 C 0.03981 0.37687 0.69217 0.0
N211 N 1.01064 0.38834 0.69169 0.0
O212 O 0.09851 0.34328 0.69991 0.0
H213 H 1.00948 0.33207 0.64981 0.0
H214 H 0.05766 0.38548 0.70507 0.0
O215 O 0.05717 0.29524 0.68876 0.0
C216 C 0.11594 0.36425 0.6902 0.0
O217 O 0.1148 0.36903 0.66478 0.0
N218 N 0.06248 0.31218 0.63821 0.0
C219 C 0.04841 0.29531 0.58711 0.0
C220 C 0.0496 0.27276 0.60691 0.0
C221 C 0.05661 0.28174 0.63256 0.0
C222 C 0.06171 0.33422 0.6191 0.0
C223 C 0.05413 0.32639 0.59351 0.0
H224 H 0.05889 0.2641 0.64751 0.0
H225 H 0.06775 0.35796 0.62374 0.0
H226 H 0.11779 0.27254 0.69939 0.0
H227 H 0.16888 0.27071 0.62951 0.0
H228 H 0.97132 0.37303 0.66898 0.0
H229 H 0.04582 0.24847 0.60247 0.0
H230 H 0.05418 0.3443 0.57858 0.0
C231 C 0.81521 0.14332 0.64809 0.0
C232 C 0.83759 0.16574 0.64994 0.0
N233 N 0.85553 0.15936 0.67091 0.0
N234 N 0.81897 0.12268 0.66765 0.0
C235 C 0.84364 0.13308 0.68133 0.0
H236 H 0.79745 0.14187 0.63322 0.0
Co237 Co 0.79346 0.08835 0.67193 0.0
C238 C 0.84288 0.05802 0.7099 0.0
O239 O 0.84532 0.07484 0.73123 0.0
N240 N 0.76738 0.05303 0.67641 0.0
C241 C 0.74774 1.00528 0.67316 0.0
C242 C 0.76959 0.02541 0.66384 0.0
C243 C 0.74423 0.04845 0.69389 0.0
N244 N 0.73183 1.01974 0.69211 0.0
O245 O 0.77568 0.10819 0.70189 0.0
H246 H 0.78659 1.01946 0.64924 0.0
H247 H 0.7367 0.06552 0.70801 0.0
O248 O 0.82419 0.06612 0.69183 0.0
C249 C 0.75358 0.12431 0.69219 0.0
O250 O 0.74719 0.12078 0.66719 0.0
N251 N 0.80917 0.07239 0.64085 0.0
C252 C 0.82806 0.05867 0.59026 0.0
C253 C 0.84958 0.05908 0.61079 0.0
C254 C 0.8396 0.06601 0.63616 0.0
C255 C 0.78822 0.0728 0.62094 0.0
C256 C 0.79704 0.06535 0.59558 0.0
H257 H 0.85648 0.06762 0.65169 0.0
H258 H 0.76455 0.07938 0.62484 0.0
H259 H 0.85256 0.12185 0.69867 0.0
H260 H 0.84074 0.18486 0.63646 0.0
H261 H 0.74465 0.98135 0.66722 0.0
H262 H 0.87383 0.05462 0.60715 0.0
H263 H 0.77997 0.06604 0.58005 0.0
C264 C 0.47197 0.80269 0.83117 0.0
C265 C 0.45031 0.7808 0.82466 0.0
N266 N 0.46197 0.76306 0.80542 0.0
N267 N 0.4971 0.79904 0.8159 0.0
C268 C 0.49042 0.7744 0.80045 0.0
H269 H 0.46939 0.82057 0.84585 0.0
Co270 Co 0.53028 0.82659 0.81723 0.0
C271 C 0.56827 0.78198 0.78113 0.0
O272 O 0.55473 0.7828 0.75811 0.0
N273 N 0.56424 0.85471 0.81845 0.0
C274 C 0.61007 0.87616 0.82706 0.0
C275 C 0.58934 0.85359 0.83429 0.0
C276 C 0.57078 0.87807 0.80152 0.0
N277 N 0.59841 0.89144 0.8063 0.0
O278 O 0.51573 0.84545 0.78549 0.0
H279 H 0.59336 0.83655 0.84947 0.0
H280 H 0.55612 0.88478 0.78535 0.0
O281 O 0.55763 0.798 0.80002 0.0
C282 C 0.49651 0.86558 0.79417 0.0
O283 O 0.49356 0.86844 0.81966 0.0
N284 N 0.54083 0.81008 0.84958 0.0
C285 C 0.54356 0.78926 0.901 0.0
C286 C 0.55147 0.76933 0.88035 0.0
C287 C 0.54949 0.78011 0.85455 0.0
C288 C 0.53362 0.82979 0.86944 0.0
C289 C 0.5351 0.81996 0.8953 0.0
H290 H 0.55352 0.76404 0.8387 0.0
H291 H 0.52592 0.85312 0.86503 0.0
H292 H 0.50544 0.76552 0.78535 0.0
H293 H 0.42764 0.77811 0.8333 0.0
H294 H 0.63274 0.87979 0.83547 0.0
H295 H 0.55774 0.74535 0.88406 0.0
H296 H 0.52919 0.83617 0.91071 0.0
C297 C 0.32258 0.47978 0.82916 0.0
C298 C 0.34752 0.46123 0.82361 0.0
N299 N 0.36591 0.47644 0.80668 0.0
N300 N 0.325 0.50663 0.81577 0.0
C301 C 0.35182 0.50407 0.8023 0.0
H302 H 0.30371 0.47403 0.84212 0.0
Co303 Co 0.29435 0.53704 0.81714 0.0
C304 C 0.32128 0.59528 0.79813 0.0
O305 O 0.30527 0.60936 0.81644 0.0
N306 N 0.26186 0.56706 0.8182 0.0
C307 C 0.22345 0.5991 0.82903 0.0
C308 C 0.24503 0.5783 0.83836 0.0
C309 C 0.24943 0.58108 0.79681 0.0
N310 N 0.2263 0.60097 0.80283 0.0
O311 O 0.27521 0.51901 0.78712 0.0
H312 H 0.24793 0.57222 0.85868 0.0
H313 H 0.25751 0.57684 0.7771 0.0
O314 O 0.31997 0.56565 0.79587 0.0
C315 C 0.25486 0.50092 0.79684 0.0
O316 O 0.25182 0.50014 0.82243 0.0
N317 N 0.3118 0.551 0.84858 0.0
C318 C 0.33685 0.55476 0.8988 0.0
C319 C 0.35283 0.56704 0.87731 0.0
C320 C 0.34026 0.56414 0.85214 0.0
C321 C 0.29641 0.5386 0.8693 0.0
C322 C 0.3082 0.54063 0.89455 0.0
H323 H 0.35433 0.57078 0.8357 0.0
H324 H 0.27525 0.52588 0.86604 0.0
H325 H 0.36056 0.52174 0.7892 0.0
H326 H 0.35198 0.4384 0.8317 0.0
H327 H 0.20736 0.6123 0.8408 0.0
H328 H 0.37548 0.57728 0.87978 0.0
H329 H 0.2952 0.53065 0.91059 0.0
C330 C 0.65172 0.35772 0.83336 0.0
C331 C 0.67639 0.37721 0.82972 0.0
N332 N 0.67591 0.38731 0.80478 0.0
N333 N 0.63526 0.35579 0.81095 0.0
C334 C 0.6512 0.37341 0.79364 0.0
H335 H 0.64609 0.34573 0.85133 0.0
Co336 Co 0.60024 0.33029 0.8068 0.0
C337 C 0.5751 0.3905 0.78079 0.0
O338 O 0.59864 0.409 0.78492 0.0
N339 N 0.56503 0.30449 0.80246 0.0
C340 C 0.51613 0.28837 0.80366 0.0
C341 C 0.53641 0.31088 0.81166 0.0
C342 C 0.56115 0.27817 0.78824 0.0
N343 N 0.53166 0.2679 0.78884 0.0
O344 O 0.61835 0.31291 0.77579 0.0
H345 H 0.53022 0.3313 0.82278 0.0
H346 H 0.57927 0.26698 0.77716 0.0
O347 O 0.57641 0.36208 0.78805 0.0
C348 C 0.63713 0.29281 0.78532 0.0
O349 O 0.63848 0.28981 0.81092 0.0
N350 N 0.58503 0.34439 0.83899 0.0
C351 C 0.56847 0.3582 0.89024 0.0
C352 C 0.57118 0.38196 0.87163 0.0
C353 C 0.57946 0.37453 0.84592 0.0
C354 C 0.58332 0.32124 0.85713 0.0
C355 C 0.57454 0.32754 0.88274 0.0
H356 H 0.58257 0.39311 0.83208 0.0
H357 H 0.5891 0.29768 0.85164 0.0
H358 H 0.64491 0.37591 0.77322 0.0
H359 H 0.69293 0.38412 0.84453 0.0
H360 H 0.49151 0.28793 0.80732 0.0
H361 H 0.56717 0.40597 0.87696 0.0
H362 H 0.57344 0.30869 0.89677 0.0
C363 C 0.82079 0.67198 0.81691 0.0
C364 C 0.79586 0.69148 0.81461 0.0
N365 N 0.77068 0.67423 0.80944 0.0
N366 N 0.81163 0.64241 0.81316 0.0
C367 C 0.78079 0.64447 0.80875 0.0
H368 H 0.84412 0.67894 0.82159 0.0
Co369 Co 0.8391 0.60906 0.81666 0.0
C370 C 0.7967 0.57834 0.77565 0.0
O371 O 0.79111 0.60149 0.75956 0.0
N372 N 0.86695 0.57588 0.82 0.0
C373 C 0.90216 0.54208 0.83403 0.0
C374 C 0.88225 0.56559 0.84133 0.0
C375 C 0.87791 0.55842 0.80009 0.0
N376 N 0.89945 0.53763 0.80798 0.0
O377 O 0.86178 0.62412 0.78716 0.0
H378 H 0.87962 0.57496 0.86082 0.0
H379 H 0.87088 0.56181 0.77995 0.0
O380 O 0.81367 0.58228 0.79573 0.0
C381 C 0.88568 0.63796 0.79605 0.0
O382 O 0.8908 0.63713 0.82143 0.0
N383 N 0.81878 0.5969 0.84699 0.0
C384 C 0.7928 0.58757 0.89624 0.0
C385 C 0.78528 0.56789 0.87522 0.0
C386 C 0.79862 0.57293 0.8506 0.0
C387 C 0.82651 0.61594 0.86717 0.0
C388 C 0.81385 0.61174 0.89188 0.0
H389 H 0.79276 0.55754 0.8347 0.0
H390 H 0.84289 0.6345 0.86396 0.0
H391 H 0.76585 0.62461 0.80604 0.0
H392 H 0.79621 0.7165 0.81664 0.0
H393 H 0.91751 0.52944 0.84696 0.0
H394 H 0.76921 0.54888 0.87774 0.0
H395 H 0.82113 0.62696 0.90758 0.0
C396 C 0.48071 0.34059 0.14526 0.0
C397 C 0.46057 0.36504 0.14818 0.0
N398 N 0.46868 0.38086 0.16983 0.0
N399 N 0.50172 0.34127 0.16477 0.0
C400 C 0.49356 0.3659 0.17968 0.0
H401 H 0.48075 0.32399 0.12938 0.0
Co402 Co 0.53587 0.31485 0.16711 0.0
C403 C 0.57645 0.34642 0.20506 0.0
O404 O 0.57653 0.32165 0.22011 0.0
N405 N 0.5709 0.28826 0.16959 0.0
C406 C 0.61912 0.27045 0.1661 0.0
C407 C 0.59863 0.29291 0.15805 0.0
C408 C 0.5755 0.26292 0.18494 0.0
N409 N 0.6046 0.25173 0.18315 0.0
O410 O 0.51896 0.2974 0.1986 0.0
H411 H 0.60427 0.31226 0.14545 0.0
H412 H 0.55831 0.25336 0.19796 0.0
O413 O 0.55949 0.34694 0.18466 0.0
C414 C 0.50012 0.27735 0.18923 0.0
O415 O 0.49895 0.27397 0.16367 0.0
N416 N 0.54894 0.32937 0.13467 0.0
C417 C 0.5529 0.34646 0.08235 0.0
C418 C 0.55729 0.36863 0.1021 0.0
C419 C 0.55488 0.35962 0.12837 0.0
C420 C 0.54601 0.30741 0.11571 0.0
C421 C 0.54815 0.31539 0.08943 0.0
H422 H 0.55568 0.3772 0.14338 0.0
H423 H 0.54046 0.28376 0.12107 0.0
H424 H 0.50638 0.3736 0.19668 0.0
H425 H 0.44179 0.37115 0.13511 0.0
H426 H 0.64336 0.26911 0.16102 0.0
H427 H 0.56065 0.3929 0.0973 0.0
H428 H 0.54496 0.29756 0.07473 0.0
C429 C 0.81641 0.46866 0.16828 0.0
C430 C 0.79234 0.44955 0.1748 0.0
N431 N 0.76757 0.4673 0.18023 0.0
N432 N 0.80726 0.49855 0.16988 0.0
C433 C 0.77701 0.49699 0.17668 0.0
H434 H 0.83931 0.46108 0.16287 0.0
Co435 Co 0.83494 0.53147 0.16439 0.0
C436 C 0.79528 0.56517 0.20619 0.0
O437 O 0.78916 0.54327 0.22332 0.0
N438 N 0.863 0.56411 0.15937 0.0
C439 C 0.89947 0.59581 0.14451 0.0
C440 C 0.87817 0.57333 0.1377 0.0
C441 C 0.87532 0.58123 0.17891 0.0
N442 N 0.89782 0.60059 0.17059 0.0
O443 O 0.85954 0.51679 0.193 0.0
H444 H 0.87486 0.56349 0.11843 0.0
H445 H 0.86824 0.57879 0.1991 0.0
O446 O 0.81126 0.5592 0.18592 0.0
C447 C 0.88235 0.5024 0.18274 0.0
O448 O 0.88461 0.50214 0.15707 0.0
N449 N 0.8129 0.54334 0.13481 0.0
C450 C 0.78682 0.55439 0.08575 0.0
C451 C 0.78191 0.57523 0.10654 0.0
C452 C 0.7953 0.56931 0.13105 0.0
C453 C 0.81772 0.52289 0.11497 0.0
C454 C 0.80489 0.52787 0.09038 0.0
H455 H 0.79204 0.58589 0.14663 0.0
H456 H 0.83234 0.50284 0.11821 0.0
H457 H 0.76238 0.5171 0.17953 0.0
H458 H 0.79294 0.42442 0.17541 0.0
H459 H 0.91577 0.60671 0.13137 0.0
H460 H 0.76821 0.59605 0.10382 0.0
H461 H 0.81018 0.5116 0.07487 0.0
C462 C 0.65531 0.78765 0.14537 0.0
C463 C 0.67976 0.76784 0.14934 0.0
N464 N 0.68015 0.75951 0.17475 0.0
N465 N 0.6398 0.79147 0.16804 0.0
C466 C 0.65624 0.77487 0.1858 0.0
H467 H 0.649 0.79831 0.12694 0.0
Co468 Co 0.60482 0.81722 0.17179 0.0
C469 C 0.58076 0.75865 0.20074 0.0
O470 O 0.60463 0.74026 0.19759 0.0
N471 N 0.5697 0.84333 0.1757 0.0
C472 C 0.52075 0.85948 0.17464 0.0
C473 C 0.54079 0.83634 0.16747 0.0
C474 C 0.56623 0.87066 0.1886 0.0
N475 N 0.53672 0.88097 0.18801 0.0
O476 O 0.62371 0.83611 0.20179 0.0
H477 H 0.53427 0.81514 0.15759 0.0
H478 H 0.58468 0.88255 0.19875 0.0
O479 O 0.58156 0.78655 0.19216 0.0
C480 C 0.64252 0.85559 0.19162 0.0
O481 O 0.64357 0.85766 0.16595 0.0
N482 N 0.5886 0.8012 0.14056 0.0
C483 C 0.56875 0.78366 0.09103 0.0
C484 C 0.57332 0.76125 0.11052 0.0
C485 C 0.58324 0.77055 0.13534 0.0
C486 C 0.58536 0.82303 0.12142 0.0
C487 C 0.57482 0.81485 0.09664 0.0
H488 H 0.58769 0.75298 0.14986 0.0
H489 H 0.59101 0.84701 0.1255 0.0
H490 H 0.65069 0.77388 0.20644 0.0
H491 H 0.69534 0.7593 0.13443 0.0
H492 H 0.496 0.85972 0.17151 0.0
H493 H 0.56944 0.73686 0.10653 0.0
H494 H 0.57225 0.83264 0.08177 0.0
C495 C 0.32259 0.66593 0.16725 0.0
C496 C 0.3463 0.68612 0.17263 0.0
N497 N 0.37097 0.66954 0.18077 0.0
N498 N 0.33208 0.63661 0.17188 0.0
C499 C 0.36173 0.63953 0.17999 0.0
H500 H 0.2998 0.67226 0.16038 0.0
Co501 Co 0.3068 0.60159 0.1685 0.0
C502 C 0.343 0.56562 0.21036 0.0
O503 O 0.3254 0.57035 0.23088 0.0
N504 N 0.28113 0.5666 0.16561 0.0
C505 C 0.24756 0.53136 0.15144 0.0
C506 C 0.26663 0.55552 0.14419 0.0
C507 C 0.27046 0.54897 0.18554 0.0
N508 N 0.24998 0.52731 0.17755 0.0
O509 O 0.28412 0.61502 0.19838 0.0
H510 H 0.2691 0.56493 0.12466 0.0
H511 H 0.27635 0.55305 0.2058 0.0
O512 O 0.33583 0.57724 0.18824 0.0
C513 C 0.26003 0.62804 0.18887 0.0
O514 O 0.25577 0.62693 0.16339 0.0
N515 N 0.32705 0.59079 0.13765 0.0
C516 C 0.35158 0.57974 0.08816 0.0
C517 C 0.3557 0.55806 0.10845 0.0
C518 C 0.34308 0.56398 0.13317 0.0
C519 C 0.32252 0.61179 0.11809 0.0
C520 C 0.33482 0.60692 0.09332 0.0
H521 H 0.34533 0.5466 0.14832 0.0
H522 H 0.30856 0.6322 0.12159 0.0
H523 H 0.37611 0.62009 0.18563 0.0
H524 H 0.34541 0.71109 0.17036 0.0
H525 H 0.23282 0.5181 0.13849 0.0
H526 H 0.3681 0.53655 0.10515 0.0
H527 H 0.33007 0.62376 0.07806 0.0
H528 H 0.0953 0.2538 0.42757 0.0
H529 H 1.00681 0.3197 0.5529 0.0
H530 H 0.02418 0.32405 0.4257 0.0
H531 H 0.08071 0.25277 0.55835 0.0
H532 H 1.00689 0.3139 0.50541 0.0
H533 H 0.08525 0.24617 0.47456 0.0
C534 C 0.07745 0.26739 0.43703 0.0
C535 C 0.06103 0.29007 0.423 0.0
C536 C 0.02284 0.30008 0.51691 0.0
C537 C 0.04922 0.28138 0.47627 0.0
C538 C 0.02266 0.30333 0.54401 0.0
C539 C 0.04393 0.28687 0.55938 0.0
C540 C 0.04484 0.28063 0.50504 0.0
C541 C 0.06393 0.26582 0.54705 0.0
C542 C 0.07171 0.26306 0.46376 0.0
C543 C 0.03795 0.30691 0.436 0.0
N544 N 0.06429 0.26366 0.52048 0.0
N545 N 0.03291 0.30237 0.46188 0.0
H546 H 0.8715 0.09035 0.56216 0.0
H547 H 0.80839 1.01933 0.42814 0.0
H548 H 0.80507 1.01625 0.55623 0.0
H549 H 0.86452 0.10187 0.4314 0.0
H550 H 0.81613 1.01177 0.47491 0.0
H551 H 0.87852 0.08855 0.51444 0.0
C552 C 0.85906 0.07317 0.55083 0.0
C553 C 0.83753 0.05355 0.5629 0.0
C554 C 0.82694 0.03149 0.46549 0.0
C555 C 0.84507 0.05159 0.50872 0.0
C556 C 0.82238 0.03589 0.43882 0.0
C557 C 0.83521 0.06169 0.42614 0.0
C558 C 0.84428 0.05319 0.47976 0.0
C559 C 0.85395 0.08191 0.44064 0.0
C560 C 0.86287 0.07231 0.52366 0.0
C561 C 0.82169 0.03191 0.54751 0.0
N562 N 0.85758 0.0775 0.46688 0.0
N563 N 0.82557 0.0317 0.5212 0.0
H564 H 0.02378 0.81583 0.55135 0.0
H565 H 0.08322 0.88664 0.41586 0.0
H566 H 0.10048 0.87938 0.54653 0.0
H567 H 1.01554 0.81387 0.42307 0.0
H568 H 0.0837 0.89209 0.46378 0.0
H569 H 1.01478 0.82226 0.50468 0.0
C570 C 0.03887 0.83106 0.54036 0.0
C571 C 0.06342 0.84649 0.55266 0.0
C572 C 0.06835 0.87534 0.45482 0.0
C573 C 0.05302 0.85427 0.49905 0.0
C574 C 0.06787 0.87244 0.42754 0.0
C575 C 0.04939 0.84969 0.4157 0.0
C576 C 0.05011 0.8554 0.47014 0.0
C577 C 0.03021 0.83155 0.43157 0.0
C578 C 0.03357 0.83491 0.51372 0.0
C579 C 0.08153 0.8668 0.53767 0.0
N580 N 0.03126 0.83463 0.45796 0.0
N581 N 0.07621 0.86984 0.51149 0.0
H582 H 0.26992 0.10382 0.55232 0.0
H583 H 0.25879 0.0864 0.41675 0.0
H584 H 0.32855 1.02283 0.54976 0.0
H585 H 0.33035 1.01755 0.42675 0.0
H586 H 0.25153 0.08763 0.46404 0.0
H587 H 0.26019 0.09828 0.50547 0.0
C588 C 0.28035 0.08461 0.54187 0.0
C589 C 0.30053 0.06413 0.55472 0.0
C590 C 0.26885 0.07223 0.45609 0.0
C591 C 0.28928 0.05711 0.50113 0.0
C592 C 0.27265 0.07118 0.42894 0.0
C593 C 0.29556 0.0522 0.41788 0.0
C594 C 0.2883 0.05426 0.47222 0.0
C595 C 0.31288 0.033 0.43452 0.0
C596 C 0.27473 0.0813 0.51503 0.0
C597 C 0.31345 0.03959 0.54042 0.0
N598 N 0.30909 0.03477 0.46081 0.0
N599 N 0.30781 0.03696 0.51443 0.0
H600 H 0.58755 0.7553 0.92729 0.0
H601 H 0.51875 0.8045 0.06423 0.0
H602 H 0.49838 0.7986 0.93706 0.0
H603 H 0.5977 0.74397 0.05742 0.0
H604 H 0.508 0.79725 0.01772 0.0
H605 H 0.58927 0.74515 0.97456 0.0
C606 C 0.56813 0.76213 0.93933 0.0
C607 C 0.54313 0.77844 0.92847 0.0
C608 C 0.52739 0.78506 0.02638 0.0
C609 C 0.54498 0.76722 0.98226 0.0
C610 C 0.53347 0.78923 0.05289 0.0
C611 C 0.55918 0.77495 0.06438 0.0
C612 C 0.54764 0.76704 0.01115 0.0
C613 C 0.57762 0.75532 0.04907 0.0
C614 C 0.56912 0.75641 0.96627 0.0
C615 C 0.51849 0.78673 0.94483 0.0
N616 N 0.57183 0.75236 0.02302 0.0
N617 N 0.52023 0.78141 0.97093 0.0
H618 H 0.34073 0.50704 0.93374 0.0
H619 H 0.37797 0.61978 0.05294 0.0
H620 H 0.36267 0.60412 0.92466 0.0
H621 H 0.34756 0.52489 0.0613 0.0
H622 H 0.38394 0.61146 0.00589 0.0
H623 H 0.35456 0.51031 0.97998 0.0
C624 C 0.34875 0.52901 0.94151 0.0
C625 C 0.34993 0.55554 0.92557 0.0
C626 C 0.37647 0.59231 0.01808 0.0
C627 C 0.36574 0.5595 0.97848 0.0
C628 C 0.373 0.59704 0.04492 0.0
C629 C 0.36167 0.57316 0.06099 0.0
C630 C 0.36843 0.56351 0.00721 0.0
C631 C 0.35628 0.54399 0.04969 0.0
C632 C 0.35675 0.53084 0.96787 0.0
C633 C 0.36122 0.58321 0.93638 0.0
N634 N 0.35924 0.54014 0.02342 0.0
N635 N 0.36821 0.58461 0.96232 0.0
H636 H 0.59661 0.39941 0.92329 0.0
H637 H 0.50852 0.32993 0.04752 0.0
H638 H 0.52373 0.33144 0.91977 0.0
H639 H 0.59211 0.38376 0.05396 0.0
H640 H 0.50764 0.33973 0.00058 0.0
H641 H 0.58907 0.40327 0.97088 0.0
C642 C 0.57859 0.38585 0.93251 0.0
C643 C 0.5609 0.36488 0.91781 0.0
C644 C 0.52612 0.34961 0.01219 0.0
C645 C 0.55232 0.36897 0.97182 0.0
C646 C 0.52669 0.34391 0.03897 0.0
C647 C 0.55083 0.35547 0.05446 0.0
C648 C 0.54997 0.36689 0.00068 0.0
C649 C 0.57328 0.37422 0.04258 0.0
C650 C 0.57444 0.38789 0.9596 0.0
C651 C 0.53803 0.34762 0.93054 0.0
N652 N 0.57256 0.37902 0.01623 0.0
N653 N 0.53455 0.34989 0.95684 0.0
H654 H 0.78462 0.61061 0.06032 0.0
H655 H 0.78314 0.53208 0.92158 0.0
H656 H 0.76419 0.51337 0.04934 0.0
H657 H 0.77455 0.63119 0.93217 0.0
H658 H 0.77138 0.5247 0.9679 0.0
H659 H 0.776 0.61924 0.01368 0.0
C660 C 0.77763 0.59117 0.04827 0.0
C661 C 0.77576 0.56108 0.05875 0.0
C662 C 0.77158 0.54805 0.95999 0.0
C663 C 0.76664 0.57069 0.00511 0.0
C664 C 0.77816 0.55227 0.93347 0.0
C665 C 0.78049 0.58234 0.92303 0.0
C666 C 0.76766 0.57409 0.97624 0.0
C667 C 0.77394 0.60762 0.93953 0.0
C668 C 0.77289 0.59609 0.02154 0.0
C669 C 0.76682 0.5368 0.04199 0.0
N670 N 0.76837 0.60295 0.96538 0.0
N671 N 0.76317 0.54202 0.01595 0.0
H672 H 0.0919 0.23474 0.30266 0.0
H673 H 0.25828 0.17317 0.25947 0.0
H674 H 0.14352 0.28014 0.2414 0.0
H675 H 0.22385 0.169 0.33844 0.0
H676 H 0.21113 0.2016 0.24628 0.0
H677 H 0.13458 0.19841 0.30884 0.0
C678 C 0.11199 0.23687 0.29023 0.0
C679 C 0.11437 0.26112 0.27194 0.0
C680 C 0.21392 0.19421 0.26643 0.0
C681 C 0.16323 0.21919 0.27877 0.0
C682 C 0.24064 0.17802 0.2739 0.0
C683 C 0.24491 0.16911 0.30009 0.0
C684 C 0.19112 0.20066 0.2852 0.0
C685 C 0.22153 0.17589 0.31815 0.0
C686 C 0.13636 0.2161 0.29383 0.0
C687 C 0.14076 0.26204 0.25593 0.0
N688 N 0.1956 0.19114 0.31036 0.0
N689 N 0.16437 0.24157 0.2599 0.0
H690 H 0.92324 0.08369 0.275 0.0
H691 H 0.91776 0.26419 0.31013 0.0
H692 H 0.83885 0.13386 0.29056 0.0
H693 H 1.00128 0.21595 0.28848 0.0
H694 H 0.888 0.21772 0.29953 0.0
H695 H 0.95146 0.13274 0.27547 0.0
C696 C 0.91051 0.10504 0.27811 0.0
C697 C 0.8786 0.10448 0.28311 0.0
C698 C 0.91281 0.21733 0.29687 0.0
C699 C 0.911 0.16087 0.28403 0.0
C700 C 0.92986 0.24384 0.30309 0.0
C701 C 0.96215 0.24395 0.30047 0.0
C702 C 0.9281 0.19048 0.28814 0.0
C703 C 0.97646 0.21703 0.29073 0.0
C704 C 0.92671 0.13309 0.27847 0.0
C705 C 0.86343 0.13301 0.28685 0.0
N706 N 0.9594 0.19132 0.28519 0.0
N707 N 0.87981 0.15995 0.28758 0.0
H708 H 0.89686 0.98969 0.27042 0.0
H709 H 1.00385 0.84386 0.3023 0.0
H710 H 0.87216 0.91552 0.32316 0.0
H711 H 0.02495 0.90758 0.2396 0.0
H712 H 0.95471 0.86964 0.30863 0.0
H713 H 0.94217 0.95964 0.25664 0.0
C714 C 0.9006 0.96688 0.27876 0.0
C715 C 0.88085 0.95529 0.29828 0.0
C716 C 0.96987 0.878 0.29333 0.0
C717 C 0.93287 0.92105 0.28288 0.0
C718 C 0.99814 0.86327 0.28974 0.0
C719 C 1.01877 0.8736 0.27046 0.0
C720 C 0.96197 0.90368 0.27775 0.0
C721 C 1.00978 0.89886 0.25473 0.0
C722 C 0.9266 0.94983 0.27099 0.0
C723 C 0.88705 0.92567 0.30849 0.0
N724 N 0.98212 0.91327 0.25888 0.0
N725 N 0.91258 0.90977 0.30087 0.0
H726 H 0.2431 0.05357 0.29232 0.0
H727 H 0.17642 0.88528 0.25686 0.0
H728 H 0.2916 0.99083 0.24091 0.0
H729 H 0.15893 0.93315 0.32928 0.0
H730 H 0.20944 0.92897 0.24274 0.0
H731 H 0.20223 1.01505 0.29727 0.0
C732 C 0.24504 0.03184 0.28182 0.0
C733 C 0.27131 0.02517 0.26673 0.0
C734 C 0.198 0.93 0.26156 0.0
C735 C 0.22419 0.98101 0.27207 0.0
C736 C 0.17912 0.90526 0.2695 0.0
C737 C 0.1652 0.90573 0.29428 0.0
C738 C 0.20228 0.95553 0.27833 0.0
C739 C 0.16952 0.93192 0.31013 0.0
C740 C 0.22164 1.00986 0.28465 0.0
C741 C 0.27196 0.9969 0.25296 0.0
N742 N 0.18762 0.95573 0.30191 0.0
N743 N 0.24892 0.97567 0.25619 0.0
H744 H 0.22585 1.01426 0.68681 0.0
H745 H 0.134 0.85348 0.69714 0.0
H746 H 0.2679 0.92428 0.67606 0.0
H747 H 0.08952 0.94328 0.69498 0.0
H748 H 0.1842 0.87922 0.6974 0.0
H749 H 0.17696 0.98877 0.69733 0.0
C750 C 0.22494 0.98915 0.68698 0.0
C751 C 0.25101 0.9714 0.68031 0.0
C752 C 0.16344 0.8933 0.69713 0.0
C753 C 0.19499 0.94203 0.69221 0.0
C754 C 0.1347 0.8786 0.69705 0.0
C755 C 0.10738 0.89617 0.69549 0.0
C756 C 0.16497 0.92585 0.69577 0.0
C757 C 0.1099 0.92871 0.69587 0.0
C758 C 0.19695 0.9746 0.69286 0.0
C759 C 0.2483 0.9389 0.68062 0.0
N760 N 0.13816 0.94247 0.69568 0.0
N761 N 0.2208 0.92529 0.68634 0.0
H762 H 0.1766 0.25654 0.71565 0.0
H763 H 0.24832 0.09096 0.67857 0.0
H764 H 0.16323 0.21145 0.64131 0.0
H765 H 0.29559 0.15396 0.73059 0.0
H766 H 0.20711 0.1292 0.67319 0.0
H767 H 0.21111 0.21358 0.72914 0.0
C768 C 0.18061 0.23735 0.7024 0.0
C769 C 0.16735 0.23746 0.67731 0.0
C770 C 0.22637 0.13451 0.686 0.0
C771 C 0.20602 0.18844 0.69257 0.0
C772 C 0.24998 0.11271 0.68905 0.0
C773 C 0.27599 0.11955 0.70446 0.0
C774 C 0.22839 0.16328 0.69875 0.0
C775 C 0.27618 0.14779 0.71827 0.0
C776 C 0.20031 0.21303 0.71 0.0
C777 C 0.1733 0.21227 0.66071 0.0
N778 N 0.25289 0.1688 0.71489 0.0
N779 N 0.19211 0.18877 0.66863 0.0
H780 H 0.86798 0.21997 0.66115 0.0
H781 H 0.02994 0.22587 0.73615 0.0
H782 H 0.90418 0.13897 0.70067 0.0
H783 H 1.00434 0.28474 0.67123 0.0
H784 H 0.98124 0.19699 0.73012 0.0
H785 H 0.91481 0.24799 0.67221 0.0
C786 C 0.88578 0.20795 0.67208 0.0
C787 C 0.88221 0.17676 0.67949 0.0
C788 C 0.98646 0.21635 0.71732 0.0
C789 C 0.93611 0.20916 0.69266 0.0
C790 C 1.01414 0.23285 0.72076 0.0
C791 C 0.02128 0.25793 0.70421 0.0
C792 C 0.96574 0.22544 0.69751 0.0
C793 C 0.99998 0.26581 0.68454 0.0
C794 C 0.91254 0.22407 0.67851 0.0
C795 C 0.90587 0.16292 0.69448 0.0
N796 N 0.97328 0.2498 0.68185 0.0
N797 N 0.93195 0.17918 0.70047 0.0
H798 H 0.98852 0.91781 0.70626 0.0
H799 H 0.83419 1.01226 0.67385 0.0
H800 H 0.91767 0.88688 0.65291 0.0
H801 H 0.89414 0.03806 0.73773 0.0
H802 H 0.86521 0.96616 0.6666 0.0
H803 H 0.95488 0.96111 0.71942 0.0
C804 C 0.96577 0.91981 0.6976 0.0
C805 C 0.95608 0.89882 0.67818 0.0
C806 C 0.87164 0.98171 0.68233 0.0
C807 C 0.91772 0.94851 0.69286 0.0
C808 C 0.85389 1.00824 0.68645 0.0
C809 C 0.86153 0.02929 0.70637 0.0
C810 C 0.89765 0.97597 0.69808 0.0
C811 C 0.88736 1.0225 0.72213 0.0
C812 C 0.94666 0.94464 0.70501 0.0
C813 C 0.92643 0.90277 0.66751 0.0
N814 N 0.90466 0.99653 0.71753 0.0
N815 N 0.90851 0.92717 0.67481 0.0
H816 H 0.60746 0.7856 0.82278 0.0
H817 H 0.72616 0.65412 0.77571 0.0
H818 H 0.59507 0.73699 0.74966 0.0
H819 H 0.74465 0.7215 0.836 0.0
H820 H 0.67513 0.67845 0.76847 0.0
H821 H 0.6547 0.75669 0.83045 0.0
C822 C 0.61454 0.76869 0.80832 0.0
C823 C 0.59707 0.76378 0.78551 0.0
C824 C 0.69038 0.68776 0.78333 0.0
C825 C 0.6519 0.73038 0.79421 0.0
C826 C 0.71931 0.67376 0.78758 0.0
C827 C 0.73967 0.686 0.80635 0.0
C828 C 0.68175 0.71379 0.79827 0.0
C829 C 0.72985 0.71161 0.8211 0.0
C830 C 0.64174 0.7522 0.8127 0.0
C831 C 0.60783 0.74162 0.76747 0.0
N832 N 0.70172 0.72457 0.81676 0.0
N833 N 0.63459 0.72569 0.7722 0.0
H834 H 0.40627 0.76608 0.78267 0.0
H835 H 0.38349 0.5843 0.79338 0.0
H836 H 0.48102 0.70342 0.80016 0.0
H837 H 0.31188 0.64996 0.77376 0.0
H838 H 0.42236 0.62478 0.78539 0.0
H839 H 0.3746 0.72215 0.76893 0.0
C840 C 0.41609 0.74292 0.78309 0.0
C841 C 0.446 0.73812 0.79267 0.0
C842 C 0.39821 0.63004 0.78202 0.0
C843 C 0.40976 0.68744 0.77785 0.0
C844 C 0.37607 0.60684 0.78629 0.0
C845 C 0.34454 0.61404 0.78439 0.0
C846 C 0.38849 0.66041 0.77584 0.0
C847 C 0.33603 0.64364 0.77556 0.0
C848 C 0.39809 0.7178 0.77531 0.0
C849 C 0.45795 0.70784 0.79284 0.0
N850 N 0.35781 0.66584 0.77202 0.0
N851 N 0.43953 0.68345 0.78609 0.0
H852 H 0.55955 0.45229 0.77668 0.0
H853 H 0.38015 0.4169 0.79506 0.0
H854 H 0.5198 0.36048 0.77366 0.0
H855 H 0.41735 0.50967 0.79431 0.0
H856 H 0.43047 0.39664 0.78213 0.0
H857 H 0.50751 0.47443 0.77738 0.0
C858 C 0.53994 0.43675 0.77567 0.0
C859 C 0.5442 0.40436 0.77557 0.0
C860 C 0.4277 0.42147 0.78454 0.0
C861 C 0.48441 0.42968 0.77669 0.0
C862 C 0.39895 0.43304 0.79206 0.0
C863 C 0.39466 0.46498 0.79614 0.0
C864 C 0.45265 0.44191 0.78129 0.0
C865 C 0.41968 0.4849 0.7914 0.0
C866 C 0.51018 0.44946 0.7762 0.0
C867 C 0.51778 0.38552 0.77417 0.0
N868 N 0.44775 0.473 0.78456 0.0
N869 N 0.48912 0.39843 0.77513 0.0
H870 H 0.74195 0.56453 0.75034 0.0
H871 H 0.73658 0.39522 0.81482 0.0
H872 H 0.81618 0.52267 0.79453 0.0
H873 H 0.66068 0.43323 0.77043 0.0
H874 H 0.76828 0.43948 0.80211 0.0
H875 H 0.71399 0.51483 0.752 0.0
C876 C 0.75259 0.54479 0.75996 0.0
C877 C 0.78125 0.54785 0.77261 0.0
C878 C 0.7448 0.43814 0.79485 0.0
C879 C 0.74947 0.49118 0.77471 0.0
C880 C 0.72673 0.41282 0.80214 0.0
C881 C 0.69591 0.41073 0.79389 0.0
C882 C 0.73194 0.46195 0.77942 0.0
C883 C 0.68438 0.43397 0.77717 0.0
C884 C 0.73658 0.51648 0.76101 0.0
C885 C 0.79394 0.52154 0.78485 0.0
N886 N 0.70225 0.4589 0.77078 0.0
N887 N 0.7779 0.49452 0.78576 0.0
H888 H 0.62726 0.34483 0.23717 0.0
H889 H 0.7105 0.48882 0.16677 0.0
H890 H 0.58224 0.40218 0.17915 0.0
H891 H 0.75723 0.41949 0.21315 0.0
H892 H 0.66078 0.46409 0.17754 0.0
H893 H 0.6721 0.37907 0.2355 0.0
C894 C 0.62652 0.3649 0.22439 0.0
C895 C 0.60105 0.37024 0.20794 0.0
C896 C 0.68193 0.45453 0.18557 0.0
C897 C 0.65269 0.40949 0.20568 0.0
C898 C 0.7102 0.46874 0.17954 0.0
C899 C 0.73796 0.45589 0.1888 0.0
C900 C 0.68152 0.42758 0.20123 0.0
C901 C 0.73638 0.42976 0.20521 0.0
C902 C 0.65229 0.38438 0.22331 0.0
C903 C 0.60156 0.39677 0.19182 0.0
N904 N 0.70876 0.41643 0.21077 0.0
N905 N 0.62708 0.41519 0.19087 0.0
H906 H 0.81784 0.6187 0.18572 0.0
H907 H 0.66472 0.71765 0.21249 0.0
H908 H 0.74188 0.58349 0.23144 0.0
H909 H 0.73947 0.74651 0.16251 0.0
H910 H 0.69534 0.67221 0.22589 0.0
H911 H 0.79249 0.66903 0.18347 0.0
C912 C 0.79589 0.62166 0.19555 0.0
C913 C 0.78177 0.59669 0.2085 0.0
C914 C 0.70518 0.68873 0.21227 0.0
C915 C 0.75221 0.65457 0.20574 0.0
C916 C 0.68781 0.71477 0.20476 0.0
C917 C 0.69947 0.73571 0.18613 0.0
C918 C 0.73447 0.68376 0.20116 0.0
C919 C 0.72942 0.73071 0.17658 0.0
C920 C 0.78136 0.65049 0.19424 0.0
C921 C 0.75351 0.6021 0.22118 0.0
N922 N 0.74572 0.70521 0.18404 0.0
N923 N 0.7394 0.63038 0.21917 0.0
H924 H 0.5662 0.69684 0.20518 0.0
H925 H 0.38416 0.72798 0.19773 0.0
H926 H 0.52502 0.78821 0.20756 0.0
H927 H 0.42627 0.63897 0.18203 0.0
H928 H 0.43492 0.749 0.20811 0.0
H929 H 0.51459 0.67407 0.20454 0.0
C930 C 0.54637 0.71217 0.20607 0.0
C931 C 0.55008 0.7446 0.20604 0.0
C932 C 0.43305 0.72482 0.20251 0.0
C933 C 0.49077 0.71852 0.20502 0.0
C934 C 0.40401 0.71279 0.19637 0.0
C935 C 0.40076 0.68166 0.18855 0.0
C936 C 0.45924 0.70567 0.20095 0.0
C937 C 0.42746 0.66303 0.18796 0.0
C938 C 0.51685 0.69909 0.2055 0.0
C939 C 0.52337 0.76313 0.20723 0.0
N940 N 0.45555 0.67537 0.19389 0.0
N941 N 0.4949 0.74985 0.2064 0.0
H942 H 0.45456 0.43004 0.13973 0.0
H943 H 0.35102 0.51555 0.24356 0.0
H944 H 0.45269 0.39717 0.21935 0.0
H945 H 0.3921 0.56228 0.1775 0.0
H946 H 0.38668 0.47168 0.23665 0.0
H947 H 0.42917 0.47797 0.15355 0.0
C948 C 0.44881 0.4331 0.16019 0.0
C949 C 0.45551 0.40976 0.17844 0.0
C950 C 0.38819 0.49186 0.22404 0.0
C951 C 0.42617 0.46437 0.1945 0.0
C952 C 0.36798 0.51693 0.22805 0.0
C953 C 0.36823 0.54235 0.21078 0.0
C954 C 0.40838 0.49228 0.20251 0.0
C955 C 0.39062 0.54288 0.19094 0.0
C956 C 0.43452 0.46048 0.16814 0.0
C957 C 0.44789 0.41482 0.20479 0.0
N958 N 0.40936 0.51805 0.18708 0.0
N959 N 0.43312 0.44147 0.21205 0.0
H960 H 0.26705 0.50437 0.22504 0.0
H961 H 0.11209 0.405 0.2438 0.0
H962 H 0.19387 0.50112 0.16764 0.0
H963 H 0.18729 0.40571 0.29935 0.0
H964 H 0.1406 0.44166 0.21642 0.0
H965 H 0.23742 0.4694 0.25299 0.0
C966 C 0.2447 0.49644 0.21832 0.0
C967 C 0.23299 0.50588 0.19389 0.0
C968 C 0.15084 0.43385 0.23463 0.0
C969 C 0.19885 0.46545 0.22588 0.0
C970 C 0.13443 0.41306 0.25042 0.0
C971 C 0.14727 0.40211 0.27399 0.0
C972 C 0.18031 0.44392 0.24244 0.0
C973 C 0.1766 0.41313 0.28124 0.0
C974 C 0.22781 0.47631 0.23427 0.0
C975 C 0.20403 0.4943 0.18613 0.0
N976 N 0.19208 0.43334 0.26556 0.0
N977 N 0.18797 0.4748 0.20207 0.0
H978 H 0.72618 0.10869 0.24251 0.0
H979 H 0.59459 0.23946 0.23452 0.0
H980 H 0.70035 0.16577 0.3082 0.0
H981 H 0.64803 0.21049 0.16776 0.0
H982 H 0.62425 0.20329 0.26208 0.0
H983 H 0.68859 0.13679 0.21522 0.0
C984 C 0.71221 0.12677 0.25127 0.0
C985 C 0.71645 0.1351 0.27758 0.0
C986 C 0.62921 0.20462 0.24133 0.0
C987 C 0.67351 0.16718 0.24661 0.0
C988 C 0.61216 0.22503 0.2256 0.0
C989 C 0.61902 0.22799 0.19889 0.0
C990 C 0.65293 0.18672 0.23015 0.0
C991 C 0.64228 0.20904 0.18834 0.0
C992 C 0.69097 0.14291 0.23568 0.0
C993 C 0.69799 0.15893 0.28791 0.0
N994 N 0.65844 0.18923 0.20398 0.0
N995 N 0.67734 0.17416 0.27242 0.0
H996 H 0.90752 0.59654 0.2233 0.0
H997 H 0.02566 0.73937 0.23089 0.0
H998 H 0.93366 0.64956 0.15502 0.0
H999 H 0.98034 0.69869 0.29765 0.0
H1000 H 0.99803 0.70269 0.20224 0.0
H1001 H 0.93931 0.63015 0.25015 0.0
C1002 C 0.91966 0.61534 0.21382 0.0
C1003 C 0.91732 0.62025 0.18666 0.0
C1004 C 0.99431 0.70173 0.22319 0.0
C1005 C 0.95475 0.65886 0.21771 0.0
C1006 C 1.01026 0.72245 0.23952 0.0
C1007 C 1.00513 0.72215 0.26667 0.0
C1008 C 0.97344 0.68037 0.23417 0.0
C1009 C 0.98468 0.69996 0.27682 0.0
C1010 C 0.93811 0.63451 0.22928 0.0
C1011 C 0.93466 0.6447 0.17577 0.0
N1012 N 0.96963 0.68007 0.26063 0.0
N1013 N 0.95256 0.66311 0.19131 0.0
H1014 H 0.43545 0.96976 0.30763 0.0
H1015 H 0.49542 0.92198 0.16887 0.0
H1016 H 0.41692 0.0268 0.24007 0.0
H1017 H 0.54637 0.89776 0.23843 0.0
H1018 H 0.46592 0.96026 0.19417 0.0
H1019 H 0.47569 0.94239 0.28293 0.0
C1020 C 0.4402 0.97671 0.28766 0.0
C1021 C 0.42289 1.00044 0.27579 0.0
C1022 C 0.48395 0.94703 0.20382 0.0
C1023 C 0.46835 0.969 0.2473 0.0
C1024 C 0.5007 0.92523 0.18942 0.0
C1025 C 0.52328 0.90686 0.20166 0.0
C1026 C 0.48921 0.94982 0.23085 0.0
C1027 C 0.52928 0.91172 0.22832 0.0
C1028 C 0.4632 0.96124 0.27363 0.0
C1029 C 0.42992 1.00874 0.24991 0.0
N1030 N 0.51191 0.93233 0.24219 0.0
N1031 N 0.45174 0.99264 0.23634 0.0
H1032 H 0.16902 0.62578 0.81018 0.0
H1033 H 0.17432 0.72516 0.67749 0.0
H1034 H 0.24452 0.62277 0.7552 0.0
H1035 H 0.09939 0.73066 0.73286 0.0
H1036 H 0.19867 0.68528 0.70453 0.0
H1037 H 0.14182 0.66192 0.78124 0.0
C1038 C 0.17994 0.63268 0.79206 0.0
C1039 C 0.20927 0.62116 0.78527 0.0
C1040 C 0.17684 0.69507 0.71076 0.0
C1041 C 0.17797 0.66254 0.7518 0.0
C1042 C 0.16293 0.71799 0.69534 0.0
C1043 C 0.13484 0.73162 0.70296 0.0
C1044 C 0.16269 0.68557 0.73415 0.0
C1045 C 0.12092 0.7208 0.72608 0.0
C1046 C 0.16427 0.65324 0.77545 0.0
C1047 C 0.2219 0.63065 0.76123 0.0
N1048 N 0.13509 0.6986 0.74092 0.0
N1049 N 0.20627 0.65083 0.74548 0.0
H1050 H 0.43763 0.17571 0.66463 0.0
H1051 H 0.48925 0.2272 0.80631 0.0
H1052 H 0.41418 0.1224 0.7332 0.0
H1053 H 0.54196 0.25241 0.73815 0.0
H1054 H 0.46042 0.18953 0.77995 0.0
H1055 H 0.47484 0.20541 0.69083 0.0
C1056 C 0.44051 0.17016 0.68517 0.0
C1057 C 0.42278 0.14665 0.6968 0.0
C1058 C 0.47859 0.20294 0.7708 0.0
C1059 C 0.46496 0.18065 0.72691 0.0
C1060 C 0.49496 0.22441 0.78582 0.0
C1061 C 0.51793 0.24282 0.77433 0.0
C1062 C 0.48469 0.2004 0.7439 0.0
C1063 C 0.52456 0.23843 0.74771 0.0
C1064 C 0.46183 0.18695 0.70006 0.0
C1065 C 0.42754 0.14017 0.72345 0.0
N1066 N 0.50765 0.21801 0.73325 0.0
N1067 N 0.44784 0.15737 0.73769 0.0
H1068 H 0.96206 0.42527 0.67929 0.0
H1069 H 0.95496 0.50991 0.8187 0.0
H1070 H 0.02774 0.40642 0.74092 0.0
H1071 H 0.88368 0.51614 0.75966 0.0
H1072 H 0.98387 0.47465 0.79023 0.0
H1073 H 0.93575 0.46199 0.70774 0.0
C1074 C 0.97098 0.42881 0.69886 0.0
C1075 C 0.99698 0.41232 0.70777 0.0
C1076 C 0.96191 0.48381 0.78355 0.0
C1077 C 0.96686 0.45485 0.74067 0.0
C1078 C 0.94523 0.50385 0.79987 0.0
C1079 C 0.91671 0.51629 0.79166 0.0
C1080 C 0.95011 0.47615 0.75875 0.0
C1081 C 0.90568 0.50772 0.76681 0.0
C1082 C 0.95594 0.44991 0.71513 0.0
C1083 C 1.00786 0.41861 0.73317 0.0
N1084 N 0.92236 0.4883 0.75133 0.0
N1085 N 0.99264 0.43925 0.7488 0.0
H1086 H 0.64089 0.93366 0.82239 0.0
H1087 H 0.6883 0.97885 0.67682 0.0
H1088 H 0.59221 0.90116 0.75398 0.0
H1089 H 0.72219 0.02857 0.74412 0.0
H1090 H 0.6523 0.95081 0.705 0.0
H1091 H 0.67053 0.96912 0.79456 0.0
C1092 C 0.63633 0.9341 0.80155 0.0
C1093 C 0.61413 0.91428 0.79051 0.0
C1094 C 0.66734 0.96806 0.71364 0.0
C1095 C 0.64795 0.95473 0.75855 0.0
C1096 C 0.68794 0.98397 0.69756 0.0
C1097 C 0.70833 1.00587 0.70821 0.0
C1098 C 0.66739 0.9737 0.74072 0.0
C1099 C 0.70673 1.01195 0.73516 0.0
C1100 C 0.65311 0.95447 0.7857 0.0
C1101 C 0.60887 0.91613 0.76342 0.0
N1102 N 0.68689 0.99564 0.75058 0.0
N1103 N 0.62587 0.93572 0.74837 0.0
H1104 H 0.02292 0.77114 0.74426 0.0
H1105 H 0.87782 0.65466 0.74436 0.0
H1106 H 0.96505 0.75332 0.67707 0.0
H1107 H 0.93863 0.66719 0.8106 0.0
H1108 H 0.90919 0.69173 0.71955 0.0
H1109 H 0.99095 0.73499 0.7699 0.0
C1110 C 1.00334 0.75995 0.73504 0.0
C1111 C 0.99673 0.76505 0.70853 0.0
C1112 C 0.9157 0.68626 0.73951 0.0
C1113 C 0.96041 0.72368 0.73738 0.0
C1114 C 0.89788 0.66496 0.75358 0.0
C1115 C 0.90556 0.65784 0.77956 0.0
C1116 C 0.94131 0.70055 0.75155 0.0
C1117 C 0.93175 0.67205 0.79062 0.0
C1118 C 0.98524 0.73917 0.74955 0.0
C1119 C 0.97121 0.74981 0.69742 0.0
N1120 N 0.94858 0.69276 0.77661 0.0
N1121 N 0.9541 0.72981 0.71183 0.0
H1122 H 0.36608 1.00534 0.74197 0.0
H1123 H 0.50819 0.88444 0.74336 0.0
H1124 H 0.43471 0.99939 0.68098 0.0
H1125 H 0.44396 0.89569 0.80716 0.0
H1126 H 0.47999 0.9249 0.71898 0.0
H1127 H 0.39387 0.96452 0.76612 0.0
C1128 C 0.38714 0.99578 0.73385 0.0
C1129 C 0.39801 1.00573 0.70944 0.0
C1130 C 0.47204 0.91835 0.73829 0.0
C1131 C 0.42958 0.95879 0.73654 0.0
C1132 C 0.48799 0.89511 0.75205 0.0
C1133 C 0.47851 0.88687 0.77731 0.0
C1134 C 0.44644 0.93319 0.74992 0.0
C1135 C 0.45229 0.90157 0.7878 0.0
C1136 C 0.40288 0.97232 0.74748 0.0
C1137 C 0.42532 0.99232 0.69968 0.0
N1138 N 0.43727 0.92402 0.77414 0.0
N1139 N 0.44003 0.9695 0.71316 0.0
H1140 H 0.15827 0.4056 0.67242 0.0
H1141 H 0.21218 0.45984 0.81444 0.0
H1142 H 0.1219 0.36686 0.744 0.0
H1143 H 0.2519 0.49545 0.74297 0.0
H1144 H 0.17906 0.42599 0.78894 0.0
H1145 H 0.19252 0.43846 0.69786 0.0
C1146 C 0.15745 0.40396 0.69357 0.0
C1147 C 0.13704 0.38345 0.70613 0.0
C1148 C 0.19499 0.44113 0.77876 0.0
C1149 C 0.17647 0.42129 0.73544 0.0
C1150 C 0.21398 0.4606 0.7933 0.0
C1151 C 0.23491 0.48063 0.7808 0.0
C1152 C 0.19675 0.44158 0.7514 0.0
C1153 C 0.23611 0.48042 0.75339 0.0
C1154 C 0.17713 0.42279 0.70807 0.0
C1155 C 0.13724 0.38232 0.73354 0.0
N1156 N 0.21722 0.46118 0.73958 0.0
N1157 N 0.15663 0.40109 0.74731 0.0
H1158 H 0.62833 0.27397 0.73404 0.0
H1159 H 0.76515 0.14719 0.74181 0.0
H1160 H 0.68866 0.26221 0.80067 0.0
H1161 H 0.70299 0.15658 0.67607 0.0
H1162 H 0.73802 0.19019 0.76347 0.0
H1163 H 0.65711 0.23272 0.71128 0.0
C1164 C 0.64786 0.26308 0.74368 0.0
C1165 C 0.656 0.2714 0.76928 0.0
C1166 C 0.73031 0.18274 0.74431 0.0
C1167 C 0.68868 0.22407 0.74373 0.0
C1168 C 0.74569 0.15806 0.73206 0.0
C1169 C 0.73638 0.14823 0.70712 0.0
C1170 C 0.70548 0.19765 0.7315 0.0
C1171 C 0.7111 0.16337 0.69528 0.0
C1172 C 0.66413 0.23937 0.73083 0.0
C1173 C 0.68136 0.25632 0.78101 0.0
N1174 N 0.69664 0.18728 0.70751 0.0
N1175 N 0.69664 0.23339 0.76823 0.0
H1176 H 0.98422 0.40842 0.30472 0.0
H1177 H 0.93052 0.46829 0.16428 0.0
H1178 H 1.01936 0.36975 0.23269 0.0
H1179 H 0.88459 0.49343 0.2362 0.0
H1180 H 0.96546 0.43493 0.1889 0.0
H1181 H 0.95 0.44184 0.2798 0.0
C1182 C 0.98484 0.40696 0.28355 0.0
C1183 C 1.00488 0.38626 0.27074 0.0
C1184 C 0.94778 0.44771 0.19933 0.0
C1185 C 0.96534 0.42482 0.24199 0.0
C1186 C 0.92781 0.46693 0.18533 0.0
C1187 C 0.90447 0.48372 0.19822 0.0
C1188 C 0.94462 0.44529 0.22652 0.0
C1189 C 0.90223 0.48096 0.22548 0.0
C1190 C 0.9651 0.42609 0.26935 0.0
C1191 C 1.0043 0.38534 0.24333 0.0
N1192 N 0.92208 0.46207 0.23873 0.0
N1193 N 0.98487 0.40451 0.2298 0.0
H1194 H 0.69347 0.88621 0.17496 0.0
H1195 H 0.71013 0.98824 0.30442 0.0
H1196 H 0.6359 0.87426 0.24309 0.0
H1197 H 0.77412 0.99425 0.23991 0.0
H1198 H 0.68195 0.94793 0.28146 0.0
H1199 H 0.72287 0.92584 0.19801 0.0
C1200 C 0.6871 0.8918 0.19491 0.0
C1201 C 0.66204 0.87696 0.20711 0.0
C1202 C 0.70209 0.958 0.27222 0.0
C1203 C 0.69568 0.92275 0.23359 0.0
C1204 C 0.71825 0.9812 0.28528 0.0
C1205 C 0.74472 0.99466 0.27412 0.0
C1206 C 0.71227 0.94797 0.24764 0.0
C1207 C 0.75382 0.98462 0.2492 0.0
C1208 C 0.70396 0.91451 0.20803 0.0
C1209 C 0.65509 0.88501 0.233 0.0
N1210 N 0.73765 0.96176 0.23681 0.0
N1211 N 0.6717 0.90756 0.24532 0.0
H1212 H 0.11862 0.76024 0.23254 0.0
H1213 H 0.26662 0.64753 0.23998 0.0
H1214 H 0.17379 0.74664 0.30211 0.0
H1215 H 0.20562 0.65337 0.17317 0.0
H1216 H 0.23344 0.6848 0.26298 0.0
H1217 H 0.15197 0.72305 0.20943 0.0
C1218 C 0.13789 0.74971 0.24281 0.0
C1219 C 0.14336 0.75636 0.26924 0.0
C1220 C 0.22729 0.67776 0.24331 0.0
C1221 C 0.18128 0.71381 0.24326 0.0
C1222 C 0.24611 0.65635 0.2303 0.0
C1223 C 0.23895 0.64743 0.20464 0.0
C1224 C 0.20125 0.69031 0.23049 0.0
C1225 C 0.21217 0.65973 0.1929 0.0
C1226 C 0.15677 0.72834 0.22975 0.0
C1227 C 0.16854 0.74195 0.28176 0.0
N1228 N 0.19442 0.68063 0.20585 0.0
N1229 N 0.18648 0.72135 0.2687 0.0
H1230 H 0.36569 0.13883 0.23478 0.0
H1231 H 0.50607 0.26123 0.24155 0.0
H1232 H 0.42429 0.15112 0.30245 0.0
H1233 H 0.44912 0.24658 0.17325 0.0
H1234 H 0.47487 0.22254 0.26516 0.0
H1235 H 0.39545 0.17919 0.21203 0.0
C1236 C 0.38487 0.14981 0.24476 0.0
C1237 C 0.39244 0.14156 0.27053 0.0
C1238 C 0.46917 0.22797 0.24502 0.0
C1239 C 0.42637 0.1879 0.24488 0.0
C1240 C 0.48685 0.25019 0.23167 0.0
C1241 C 0.48033 0.25697 0.2054 0.0
C1242 C 0.44483 0.21264 0.23196 0.0
C1243 C 0.45524 0.24183 0.19343 0.0
C1244 C 0.40178 0.17296 0.23187 0.0
C1245 C 0.41747 0.15673 0.2826 0.0
N1246 N 0.43855 0.22038 0.20672 0.0
N1247 N 0.43344 0.17911 0.26974 0.0
loop_
_geom_bond_atom_site_label_1
_geom_bond_atom_site_label_2
_geom_bond_distance
_geom_bond_site_symmetry_2
_ccdc_geom_bond_type
C0 C1 1.351 . S
C0 N3 1.368 . S
C0 H5 0.931 . S
C1 C0 1.351 . S
C1 N2 1.373 . S
C1 H29 0.930 . S
N2 C1 1.373 . S
N2 C4 1.340 . S
N3 C0 1.368 . S
N3 C4 1.321 . S
N3 Co6 2.135 1_655 S
C4 N2 1.340 . S
C4 N3 1.321 . S
C4 H28 0.930 1_655 S
H5 C0 0.931 . S
Co6 N3 2.135 1_455 S
Co6 N9 2.121 . S
Co6 O14 2.055 . S
Co6 O17 2.039 . S
Co6 N20 2.140 . S
C7 O8 1.227 . S
C7 O17 1.265 . S
O8 C7 1.227 . S
N9 Co6 2.121 . S
N9 C11 1.375 . S
N9 C12 1.313 . S
C10 C11 1.338 . S
C10 N13 1.377 . S
C10 H30 0.930 . S
C11 N9 1.375 . S
C11 C10 1.338 . S
C11 H15 0.931 . S
C12 N9 1.313 . S
C12 N13 1.344 . S
C12 H16 0.930 . S
N13 C10 1.377 . S
N13 C12 1.344 . S
O14 Co6 2.055 . S
O14 C18 1.253 1_455 S
H15 C11 0.931 . S
H16 C12 0.930 . S
O17 Co6 2.039 . S
O17 C7 1.265 . S
C18 O14 1.253 1_655 S
C18 O19 1.227 . S
O19 C18 1.227 . S
N20 Co6 2.140 . S
N20 C23 1.346 . S
N20 C24 1.345 . S
C21 C22 1.387 . S
C21 C25 1.391 . S
C22 C21 1.387 . S
C22 C23 1.369 . S
C22 H31 0.929 . S
C23 N20 1.346 . S
C23 C22 1.369 . S
C23 H26 0.928 . S
C24 N20 1.345 . S
C24 C25 1.371 . S
C24 H27 0.931 . S
C25 C21 1.391 . S
C25 C24 1.371 . S
C25 H32 0.930 . S
H26 C23 0.928 . S
H27 C24 0.931 . S
H28 C4 0.930 1_455 S
H29 C1 0.930 . S
H30 C10 0.930 . S
H31 C22 0.929 . S
H32 C25 0.930 . S
C33 C34 1.351 . S
C33 N36 1.368 . S
C33 H38 0.931 . S
C34 C33 1.351 . S
C34 N35 1.373 . S
C34 H62 0.930 . S
N35 C34 1.373 . S
N35 C37 1.340 . S
N36 C33 1.368 . S
N36 C37 1.321 . S
N36 Co39 2.135 1_565 S
C37 N35 1.340 . S
C37 N36 1.321 . S
C37 H61 0.930 1_565 S
H38 C33 0.931 . S
Co39 N36 2.135 1_545 S
Co39 N42 2.121 . S
Co39 O47 2.055 . S
Co39 O50 2.039 . S
Co39 N53 2.140 . S
C40 O41 1.227 . S
C40 O50 1.265 . S
O41 C40 1.227 . S
N42 Co39 2.121 . S
N42 C44 1.375 . S
N42 C45 1.313 . S
C43 C44 1.338 . S
C43 N46 1.377 . S
C43 H63 0.930 . S
C44 N42 1.375 . S
C44 C43 1.338 . S
C44 H48 0.931 . S
C45 N42 1.313 . S
C45 N46 1.344 . S
C45 H49 0.930 . S
N46 C43 1.377 . S
N46 C45 1.344 . S
O47 Co39 2.055 . S
O47 C51 1.253 1_545 S
H48 C44 0.931 . S
H49 C45 0.930 . S
O50 Co39 2.039 . S
O50 C40 1.265 . S
C51 O47 1.253 1_565 S
C51 O52 1.227 . S
O52 C51 1.227 . S
N53 Co39 2.140 . S
N53 C56 1.346 . S
N53 C57 1.345 . S
C54 C55 1.387 . S
C54 C58 1.391 . S
C55 C54 1.387 . S
C55 C56 1.369 . S
C55 H64 0.929 . S
C56 N53 1.346 . S
C56 C55 1.369 . S
C56 H59 0.928 . S
C57 N53 1.345 . S
C57 C58 1.371 . S
C57 H60 0.931 . S
C58 C54 1.391 . S
C58 C57 1.371 . S
C58 H65 0.930 . S
H59 C56 0.928 . S
H60 C57 0.931 . S
H61 C37 0.930 1_545 S
H62 C34 0.930 . S
H63 C43 0.930 . S
H64 C55 0.929 . S
H65 C58 0.930 . S
C66 C67 1.351 . S
C66 N69 1.368 . S
C66 H71 0.931 . S
C67 C66 1.351 . S
C67 N68 1.373 . S
C67 H95 0.930 . S
N68 C67 1.373 . S
N68 C70 1.340 . S
N69 C66 1.368 . S
N69 C70 1.321 . S
N69 Co72 2.135 . S
C70 N68 1.340 . S
C70 N69 1.321 . S
C70 H94 0.930 . S
H71 C66 0.931 . S
Co72 N69 2.135 . S
Co72 N75 2.121 . S
Co72 O80 2.055 . S
Co72 O83 2.039 . S
Co72 N86 2.140 . S
C73 O74 1.227 . S
C73 O83 1.265 . S
O74 C73 1.227 . S
N75 Co72 2.121 . S
N75 C77 1.375 . S
N75 C78 1.313 . S
C76 C77 1.338 1_655 S
C76 N79 1.377 1_655 S
C76 H96 0.930 . S
C77 N75 1.375 . S
C77 C76 1.338 1_455 S
C77 H81 0.931 1_455 S
C78 N75 1.313 . S
C78 N79 1.344 . S
C78 H82 0.930 . S
N79 C76 1.377 1_455 S
N79 C78 1.344 . S
O80 Co72 2.055 . S
O80 C84 1.253 . S
H81 C77 0.931 1_655 S
H82 C78 0.930 . S
O83 Co72 2.039 . S
O83 C73 1.265 . S
C84 O80 1.253 . S
C84 O85 1.227 . S
O85 C84 1.227 . S
N86 Co72 2.140 . S
N86 C89 1.346 . S
N86 C90 1.345 . S
C87 C88 1.387 . S
C87 C91 1.391 . S
C88 C87 1.387 . S
C88 C89 1.369 . S
C88 H97 0.929 . S
C89 N86 1.346 . S
C89 C88 1.369 . S
C89 H92 0.928 . S
C90 N86 1.345 . S
C90 C91 1.371 . S
C90 H93 0.931 . S
C91 C87 1.391 . S
C91 C90 1.371 . S
C91 H98 0.930 . S
H92 C89 0.928 . S
H93 C90 0.931 . S
H94 C70 0.930 . S
H95 C67 0.930 . S
H96 C76 0.930 . S
H97 C88 0.929 . S
H98 C91 0.930 . S
C99 C100 1.351 . S
C99 N102 1.368 . S
C99 H104 0.931 . S
C100 C99 1.351 . S
C100 N101 1.373 . S
C100 H128 0.930 . S
N101 C100 1.373 . S
N101 C103 1.340 . S
N102 C99 1.368 . S
N102 C103 1.321 . S
N102 Co105 2.135 . S
C103 N101 1.340 . S
C103 N102 1.321 . S
C103 H127 0.930 . S
H104 C99 0.931 . S
Co105 N102 2.135 . S
Co105 N108 2.121 . S
Co105 O113 2.055 . S
Co105 O116 2.039 . S
Co105 N119 2.140 . S
C106 O107 1.227 . S
C106 O116 1.265 . S
O107 C106 1.227 . S
N108 Co105 2.121 . S
N108 C110 1.375 . S
N108 C111 1.313 . S
C109 C110 1.338 1_565 S
C109 N112 1.377 1_565 S
C109 H129 0.930 . S
C110 N108 1.375 . S
C110 C109 1.338 1_545 S
C110 H114 0.931 1_545 S
C111 N108 1.313 . S
C111 N112 1.344 . S
C111 H115 0.930 . S
N112 C109 1.377 1_545 S
N112 C111 1.344 . S
O113 Co105 2.055 . S
O113 C117 1.253 . S
H114 C110 0.931 1_565 S
H115 C111 0.930 . S
O116 Co105 2.039 . S
O116 C106 1.265 . S
C117 O113 1.253 . S
C117 O118 1.227 . S
O118 C117 1.227 . S
N119 Co105 2.140 . S
N119 C122 1.346 . S
N119 C123 1.345 . S
C120 C121 1.387 . S
C120 C124 1.391 . S
C121 C120 1.387 . S
C121 C122 1.369 . S
C121 H130 0.929 . S
C122 N119 1.346 . S
C122 C121 1.369 . S
C122 H125 0.928 . S
C123 N119 1.345 . S
C123 C124 1.371 . S
C123 H126 0.931 . S
C124 C120 1.391 . S
C124 C123 1.371 . S
C124 H131 0.930 . S
H125 C122 0.928 . S
H126 C123 0.931 . S
H127 C103 0.930 . S
H128 C100 0.930 . S
H129 C109 0.930 . S
H130 C121 0.929 . S
H131 C124 0.930 . S
C132 C133 1.351 . S
C132 N135 1.368 . S
C132 H137 0.931 . S
C133 C132 1.351 . S
C133 N134 1.373 . S
C133 H161 0.930 . S
N134 C133 1.373 . S
N134 C136 1.340 . S
N135 C132 1.368 . S
N135 C136 1.321 . S
N135 Co138 2.135 1_655 S
C136 N134 1.340 . S
C136 N135 1.321 . S
C136 H160 0.930 1_655 S
H137 C132 0.931 . S
Co138 N135 2.135 1_455 S
Co138 N141 2.121 . S
Co138 O146 2.055 . S
Co138 O149 2.039 . S
Co138 N152 2.140 . S
C139 O140 1.227 . S
C139 O149 1.265 . S
O140 C139 1.227 . S
N141 Co138 2.121 . S
N141 C143 1.375 . S
N141 C144 1.313 . S
C142 C143 1.338 . S
C142 N145 1.377 . S
C142 H162 0.930 . S
C143 N141 1.375 . S
C143 C142 1.338 . S
C143 H147 0.931 . S
C144 N141 1.313 . S
C144 N145 1.344 . S
C144 H148 0.930 . S
N145 C142 1.377 . S
N145 C144 1.344 . S
O146 Co138 2.055 . S
O146 C150 1.253 1_455 S
H147 C143 0.931 . S
H148 C144 0.930 . S
O149 Co138 2.039 . S
O149 C139 1.265 . S
C150 O146 1.253 1_655 S
C150 O151 1.227 . S
O151 C150 1.227 . S
N152 Co138 2.140 . S
N152 C155 1.346 . S
N152 C156 1.345 . S
C153 C154 1.387 . S
C153 C157 1.391 . S
C154 C153 1.387 . S
C154 C155 1.369 . S
C154 H163 0.929 . S
C155 N152 1.346 . S
C155 C154 1.369 . S
C155 H158 0.928 . S
C156 N152 1.345 . S
C156 C157 1.371 . S
C156 H159 0.931 . S
C157 C153 1.391 . S
C157 C156 1.371 . S
C157 H164 0.930 . S
H158 C155 0.928 . S
H159 C156 0.931 . S
H160 C136 0.930 1_455 S
H161 C133 0.930 . S
H162 C142 0.930 . S
H163 C154 0.929 . S
H164 C157 0.930 . S
C165 C166 1.351 . S
C165 N168 1.368 . S
C165 H170 0.931 . S
C166 C165 1.351 . S
C166 N167 1.373 . S
C166 H194 0.930 . S
N167 C166 1.373 . S
N167 C169 1.340 . S
N168 C165 1.368 . S
N168 C169 1.321 . S
N168 Co171 2.135 1_565 S
C169 N167 1.340 . S
C169 N168 1.321 . S
C169 H193 0.930 1_565 S
H170 C165 0.931 . S
Co171 N168 2.135 1_545 S
Co171 N174 2.121 . S
Co171 O179 2.055 . S
Co171 O182 2.039 . S
Co171 N185 2.140 . S
C172 O173 1.227 . S
C172 O182 1.265 . S
O173 C172 1.227 . S
N174 Co171 2.121 . S
N174 C176 1.375 . S
N174 C177 1.313 . S
C175 C176 1.338 . S
C175 N178 1.377 . S
C175 H195 0.930 . S
C176 N174 1.375 . S
C176 C175 1.338 . S
C176 H180 0.931 . S
C177 N174 1.313 . S
C177 N178 1.344 . S
C177 H181 0.930 . S
N178 C175 1.377 . S
N178 C177 1.344 . S
O179 Co171 2.055 . S
O179 C183 1.253 1_545 S
H180 C176 0.931 . S
H181 C177 0.930 . S
O182 Co171 2.039 . S
O182 C172 1.265 . S
C183 O179 1.253 1_565 S
C183 O184 1.227 . S
O184 C183 1.227 . S
N185 Co171 2.140 . S
N185 C188 1.346 . S
N185 C189 1.345 . S
C186 C187 1.387 . S
C186 C190 1.391 . S
C187 C186 1.387 . S
C187 C188 1.369 . S
C187 H196 0.929 . S
C188 N185 1.346 . S
C188 C187 1.369 . S
C188 H191 0.928 . S
C189 N185 1.345 . S
C189 C190 1.371 . S
C189 H192 0.931 . S
C190 C186 1.391 . S
C190 C189 1.371 . S
C190 H197 0.930 . S
H191 C188 0.928 . S
H192 C189 0.931 . S
H193 C169 0.930 1_545 S
H194 C166 0.930 . S
H195 C175 0.930 . S
H196 C187 0.929 . S
H197 C190 0.930 . S
C198 C199 1.351 . S
C198 N201 1.368 . S
C198 H203 0.931 . S
C199 C198 1.351 . S
C199 N200 1.373 . S
C199 H227 0.930 . S
N200 C199 1.373 . S
N200 C202 1.340 . S
N201 C198 1.368 . S
N201 C202 1.321 . S
N201 Co204 2.135 . S
C202 N200 1.340 . S
C202 N201 1.321 . S
C202 H226 0.930 . S
H203 C198 0.931 . S
Co204 N201 2.135 . S
Co204 N207 2.121 . S
Co204 O212 2.055 . S
Co204 O215 2.039 . S
Co204 N218 2.140 . S
C205 O206 1.227 . S
C205 O215 1.265 . S
O206 C205 1.227 . S
N207 Co204 2.121 . S
N207 C209 1.375 . S
N207 C210 1.313 . S
C208 C209 1.338 1_655 S
C208 N211 1.377 1_655 S
C208 H228 0.930 . S
C209 N207 1.375 . S
C209 C208 1.338 1_455 S
C209 H213 0.931 1_455 S
C210 N207 1.313 . S
C210 N211 1.344 . S
C210 H214 0.930 . S
N211 C208 1.377 1_455 S
N211 C210 1.344 . S
O212 Co204 2.055 . S
O212 C216 1.253 . S
H213 C209 0.931 1_655 S
H214 C210 0.930 . S
O215 Co204 2.039 . S
O215 C205 1.265 . S
C216 O212 1.253 . S
C216 O217 1.227 . S
O217 C216 1.227 . S
N218 Co204 2.140 . S
N218 C221 1.346 . S
N218 C222 1.345 . S
C219 C220 1.387 . S
C219 C223 1.391 . S
C220 C219 1.387 . S
C220 C221 1.369 . S
C220 H229 0.929 . S
C221 N218 1.346 . S
C221 C220 1.369 . S
C221 H224 0.928 . S
C222 N218 1.345 . S
C222 C223 1.371 . S
C222 H225 0.931 . S
C223 C219 1.391 . S
C223 C222 1.371 . S
C223 H230 0.930 . S
H224 C221 0.928 . S
H225 C222 0.931 . S
H226 C202 0.930 . S
H227 C199 0.930 . S
H228 C208 0.930 . S
H229 C220 0.929 . S
H230 C223 0.930 . S
C231 C232 1.351 . S
C231 N234 1.368 . S
C231 H236 0.931 . S
C232 C231 1.351 . S
C232 N233 1.373 . S
C232 H260 0.930 . S
N233 C232 1.373 . S
N233 C235 1.340 . S
N234 C231 1.368 . S
N234 C235 1.321 . S
N234 Co237 2.135 . S
C235 N233 1.340 . S
C235 N234 1.321 . S
C235 H259 0.930 . S
H236 C231 0.931 . S
Co237 N234 2.135 . S
Co237 N240 2.121 . S
Co237 O245 2.055 . S
Co237 O248 2.039 . S
Co237 N251 2.140 . S
C238 O239 1.227 . S
C238 O248 1.265 . S
O239 C238 1.227 . S
N240 Co237 2.121 . S
N240 C242 1.375 . S
N240 C243 1.313 . S
C241 C242 1.338 1_565 S
C241 N244 1.377 1_565 S
C241 H261 0.930 . S
C242 N240 1.375 . S
C242 C241 1.338 1_545 S
C242 H246 0.931 1_545 S
C243 N240 1.313 . S
C243 N244 1.344 . S
C243 H247 0.930 . S
N244 C241 1.377 1_545 S
N244 C243 1.344 . S
O245 Co237 2.055 . S
O245 C249 1.253 . S
H246 C242 0.931 1_565 S
H247 C243 0.930 . S
O248 Co237 2.039 . S
O248 C238 1.265 . S
C249 O245 1.253 . S
C249 O250 1.227 . S
O250 C249 1.227 . S
N251 Co237 2.140 . S
N251 C254 1.346 . S
N251 C255 1.345 . S
C252 C253 1.387 . S
C252 C256 1.391 . S
C253 C252 1.387 . S
C253 C254 1.369 . S
C253 H262 0.929 . S
C254 N251 1.346 . S
C254 C253 1.369 . S
C254 H257 0.928 . S
C255 N251 1.345 . S
C255 C256 1.371 . S
C255 H258 0.931 . S
C256 C252 1.391 . S
C256 C255 1.371 . S
C256 H263 0.930 . S
H257 C254 0.928 . S
H258 C255 0.931 . S
H259 C235 0.930 . S
H260 C232 0.930 . S
H261 C241 0.930 . S
H262 C253 0.929 . S
H263 C256 0.930 . S
C264 C265 1.351 . S
C264 N267 1.368 . S
C264 H269 0.931 . S
C265 C264 1.351 . S
C265 N266 1.373 . S
C265 H293 0.930 . S
N266 C265 1.373 . S
N266 C268 1.340 . S
N267 C264 1.368 . S
N267 C268 1.321 . S
N267 Co270 2.135 . S
C268 N266 1.340 . S
C268 N267 1.321 . S
C268 H292 0.930 . S
H269 C264 0.931 . S
Co270 N267 2.135 . S
Co270 N273 2.121 . S
Co270 O278 2.055 . S
Co270 O281 2.039 . S
Co270 N284 2.140 . S
C271 O272 1.227 . S
C271 O281 1.265 . S
O272 C271 1.227 . S
N273 Co270 2.121 . S
N273 C275 1.375 . S
N273 C276 1.313 . S
C274 C275 1.338 . S
C274 N277 1.377 . S
C274 H294 0.930 . S
C275 N273 1.375 . S
C275 C274 1.338 . S
C275 H279 0.931 . S
C276 N273 1.313 . S
C276 N277 1.344 . S
C276 H280 0.930 . S
N277 C274 1.377 . S
N277 C276 1.344 . S
O278 Co270 2.055 . S
O278 C282 1.253 . S
H279 C275 0.931 . S
H280 C276 0.930 . S
O281 Co270 2.039 . S
O281 C271 1.265 . S
C282 O278 1.253 . S
C282 O283 1.227 . S
O283 C282 1.227 . S
N284 Co270 2.140 . S
N284 C287 1.346 . S
N284 C288 1.345 . S
C285 C286 1.387 . S
C285 C289 1.391 . S
C286 C285 1.387 . S
C286 C287 1.369 . S
C286 H295 0.929 . S
C287 N284 1.346 . S
C287 C286 1.369 . S
C287 H290 0.928 . S
C288 N284 1.345 . S
C288 C289 1.371 . S
C288 H291 0.931 . S
C289 C285 1.391 . S
C289 C288 1.371 . S
C289 H296 0.930 . S
H290 C287 0.928 . S
H291 C288 0.931 . S
H292 C268 0.930 . S
H293 C265 0.930 . S
H294 C274 0.930 . S
H295 C286 0.929 . S
H296 C289 0.930 . S
C297 C298 1.351 . S
C297 N300 1.368 . S
C297 H302 0.931 . S
C298 C297 1.351 . S
C298 N299 1.373 . S
C298 H326 0.930 . S
N299 C298 1.373 . S
N299 C301 1.340 . S
N300 C297 1.368 . S
N300 C301 1.321 . S
N300 Co303 2.135 . S
C301 N299 1.340 . S
C301 N300 1.321 . S
C301 H325 0.930 . S
H302 C297 0.931 . S
Co303 N300 2.135 . S
Co303 N306 2.121 . S
Co303 O311 2.055 . S
Co303 O314 2.039 . S
Co303 N317 2.140 . S
C304 O305 1.227 . S
C304 O314 1.265 . S
O305 C304 1.227 . S
N306 Co303 2.121 . S
N306 C308 1.375 . S
N306 C309 1.313 . S
C307 C308 1.338 . S
C307 N310 1.377 . S
C307 H327 0.930 . S
C308 N306 1.375 . S
C308 C307 1.338 . S
C308 H312 0.931 . S
C309 N306 1.313 . S
C309 N310 1.344 . S
C309 H313 0.930 . S
N310 C307 1.377 . S
N310 C309 1.344 . S
O311 Co303 2.055 . S
O311 C315 1.253 . S
H312 C308 0.931 . S
H313 C309 0.930 . S
O314 Co303 2.039 . S
O314 C304 1.265 . S
C315 O311 1.253 . S
C315 O316 1.227 . S
O316 C315 1.227 . S
N317 Co303 2.140 . S
N317 C320 1.346 . S
N317 C321 1.345 . S
C318 C319 1.387 . S
C318 C322 1.391 . S
C319 C318 1.387 . S
C319 C320 1.369 . S
C319 H328 0.929 . S
C320 N317 1.346 . S
C320 C319 1.369 . S
C320 H323 0.928 . S
C321 N317 1.345 . S
C321 C322 1.371 . S
C321 H324 0.931 . S
C322 C318 1.391 . S
C322 C321 1.371 . S
C322 H329 0.930 . S
H323 C320 0.928 . S
H324 C321 0.931 . S
H325 C301 0.930 . S
H326 C298 0.930 . S
H327 C307 0.930 . S
H328 C319 0.929 . S
H329 C322 0.930 . S
C330 C331 1.351 . S
C330 N333 1.368 . S
C330 H335 0.931 . S
C331 C330 1.351 . S
C331 N332 1.373 . S
C331 H359 0.930 . S
N332 C331 1.373 . S
N332 C334 1.340 . S
N333 C330 1.368 . S
N333 C334 1.321 . S
N333 Co336 2.135 . S
C334 N332 1.340 . S
C334 N333 1.321 . S
C334 H358 0.930 . S
H335 C330 0.931 . S
Co336 N333 2.135 . S
Co336 N339 2.121 . S
Co336 O344 2.055 . S
Co336 O347 2.039 . S
Co336 N350 2.140 . S
C337 O338 1.227 . S
C337 O347 1.265 . S
O338 C337 1.227 . S
N339 Co336 2.121 . S
N339 C341 1.375 . S
N339 C342 1.313 . S
C340 C341 1.338 . S
C340 N343 1.377 . S
C340 H360 0.930 . S
C341 N339 1.375 . S
C341 C340 1.338 . S
C341 H345 0.931 . S
C342 N339 1.313 . S
C342 N343 1.344 . S
C342 H346 0.930 . S
N343 C340 1.377 . S
N343 C342 1.344 . S
O344 Co336 2.055 . S
O344 C348 1.253 . S
H345 C341 0.931 . S
H346 C342 0.930 . S
O347 Co336 2.039 . S
O347 C337 1.265 . S
C348 O344 1.253 . S
C348 O349 1.227 . S
O349 C348 1.227 . S
N350 Co336 2.140 . S
N350 C353 1.346 . S
N350 C354 1.345 . S
C351 C352 1.387 . S
C351 C355 1.391 . S
C352 C351 1.387 . S
C352 C353 1.369 . S
C352 H361 0.929 . S
C353 N350 1.346 . S
C353 C352 1.369 . S
C353 H356 0.928 . S
C354 N350 1.345 . S
C354 C355 1.371 . S
C354 H357 0.931 . S
C355 C351 1.391 . S
C355 C354 1.371 . S
C355 H362 0.930 . S
H356 C353 0.928 . S
H357 C354 0.931 . S
H358 C334 0.930 . S
H359 C331 0.930 . S
H360 C340 0.930 . S
H361 C352 0.929 . S
H362 C355 0.930 . S
C363 C364 1.351 . S
C363 N366 1.368 . S
C363 H368 0.931 . S
C364 C363 1.351 . S
C364 N365 1.373 . S
C364 H392 0.930 . S
N365 C364 1.373 . S
N365 C367 1.340 . S
N366 C363 1.368 . S
N366 C367 1.321 . S
N366 Co369 2.135 . S
C367 N365 1.340 . S
C367 N366 1.321 . S
C367 H391 0.930 . S
H368 C363 0.931 . S
Co369 N366 2.135 . S
Co369 N372 2.121 . S
Co369 O377 2.055 . S
Co369 O380 2.039 . S
Co369 N383 2.140 . S
C370 O371 1.227 . S
C370 O380 1.265 . S
O371 C370 1.227 . S
N372 Co369 2.121 . S
N372 C374 1.375 . S
N372 C375 1.313 . S
C373 C374 1.338 . S
C373 N376 1.377 . S
C373 H393 0.930 . S
C374 N372 1.375 . S
C374 C373 1.338 . S
C374 H378 0.931 . S
C375 N372 1.313 . S
C375 N376 1.344 . S
C375 H379 0.930 . S
N376 C373 1.377 . S
N376 C375 1.344 . S
O377 Co369 2.055 . S
O377 C381 1.253 . S
H378 C374 0.931 . S
H379 C375 0.930 . S
O380 Co369 2.039 . S
O380 C370 1.265 . S
C381 O377 1.253 . S
C381 O382 1.227 . S
O382 C381 1.227 . S
N383 Co369 2.140 . S
N383 C386 1.346 . S
N383 C387 1.345 . S
C384 C385 1.387 . S
C384 C388 1.391 . S
C385 C384 1.387 . S
C385 C386 1.369 . S
C385 H394 0.929 . S
C386 N383 1.346 . S
C386 C385 1.369 . S
C386 H389 0.928 . S
C387 N383 1.345 . S
C387 C388 1.371 . S
C387 H390 0.931 . S
C388 C384 1.391 . S
C388 C387 1.371 . S
C388 H395 0.930 . S
H389 C386 0.928 . S
H390 C387 0.931 . S
H391 C367 0.930 . S
H392 C364 0.930 . S
H393 C373 0.930 . S
H394 C385 0.929 . S
H395 C388 0.930 . S
C396 C397 1.351 . S
C396 N399 1.368 . S
C396 H401 0.931 . S
C397 C396 1.351 . S
C397 N398 1.373 . S
C397 H425 0.930 . S
N398 C397 1.373 . S
N398 C400 1.340 . S
N399 C396 1.368 . S
N399 C400 1.321 . S
N399 Co402 2.135 . S
C400 N398 1.340 . S
C400 N399 1.321 . S
C400 H424 0.930 . S
H401 C396 0.931 . S
Co402 N399 2.135 . S
Co402 N405 2.121 . S
Co402 O410 2.055 . S
Co402 O413 2.039 . S
Co402 N416 2.140 . S
C403 O404 1.227 . S
C403 O413 1.265 . S
O404 C403 1.227 . S
N405 Co402 2.121 . S
N405 C407 1.375 . S
N405 C408 1.313 . S
C406 C407 1.338 . S
C406 N409 1.377 . S
C406 H426 0.930 . S
C407 N405 1.375 . S
C407 C406 1.338 . S
C407 H411 0.931 . S
C408 N405 1.313 . S
C408 N409 1.344 . S
C408 H412 0.930 . S
N409 C406 1.377 . S
N409 C408 1.344 . S
O410 Co402 2.055 . S
O410 C414 1.253 . S
H411 C407 0.931 . S
H412 C408 0.930 . S
O413 Co402 2.039 . S
O413 C403 1.265 . S
C414 O410 1.253 . S
C414 O415 1.227 . S
O415 C414 1.227 . S
N416 Co402 2.140 . S
N416 C419 1.346 . S
N416 C420 1.345 . S
C417 C418 1.387 . S
C417 C421 1.391 . S
C418 C417 1.387 . S
C418 C419 1.369 . S
C418 H427 0.929 . S
C419 N416 1.346 . S
C419 C418 1.369 . S
C419 H422 0.928 . S
C420 N416 1.345 . S
C420 C421 1.371 . S
C420 H423 0.931 . S
C421 C417 1.391 . S
C421 C420 1.371 . S
C421 H428 0.930 . S
H422 C419 0.928 . S
H423 C420 0.931 . S
H424 C400 0.930 . S
H425 C397 0.930 . S
H426 C406 0.930 . S
H427 C418 0.929 . S
H428 C421 0.930 . S
C429 C430 1.351 . S
C429 N432 1.368 . S
C429 H434 0.931 . S
C430 C429 1.351 . S
C430 N431 1.373 . S
C430 H458 0.930 . S
N431 C430 1.373 . S
N431 C433 1.340 . S
N432 C429 1.368 . S
N432 C433 1.321 . S
N432 Co435 2.135 . S
C433 N431 1.340 . S
C433 N432 1.321 . S
C433 H457 0.930 . S
H434 C429 0.931 . S
Co435 N432 2.135 . S
Co435 N438 2.121 . S
Co435 O443 2.055 . S
Co435 O446 2.039 . S
Co435 N449 2.140 . S
C436 O437 1.227 . S
C436 O446 1.265 . S
O437 C436 1.227 . S
N438 Co435 2.121 . S
N438 C440 1.375 . S
N438 C441 1.313 . S
C439 C440 1.338 . S
C439 N442 1.377 . S
C439 H459 0.930 . S
C440 N438 1.375 . S
C440 C439 1.338 . S
C440 H444 0.931 . S
C441 N438 1.313 . S
C441 N442 1.344 . S
C441 H445 0.930 . S
N442 C439 1.377 . S
N442 C441 1.344 . S
O443 Co435 2.055 . S
O443 C447 1.253 . S
H444 C440 0.931 . S
H445 C441 0.930 . S
O446 Co435 2.039 . S
O446 C436 1.265 . S
C447 O443 1.253 . S
C447 O448 1.227 . S
O448 C447 1.227 . S
N449 Co435 2.140 . S
N449 C452 1.346 . S
N449 C453 1.345 . S
C450 C451 1.387 . S
C450 C454 1.391 . S
C451 C450 1.387 . S
C451 C452 1.369 . S
C451 H460 0.929 . S
C452 N449 1.346 . S
C452 C451 1.369 . S
C452 H455 0.928 . S
C453 N449 1.345 . S
C453 C454 1.371 . S
C453 H456 0.931 . S
C454 C450 1.391 . S
C454 C453 1.371 . S
C454 H461 0.930 . S
H455 C452 0.928 . S
H456 C453 0.931 . S
H457 C433 0.930 . S
H458 C430 0.930 . S
H459 C439 0.930 . S
H460 C451 0.929 . S
H461 C454 0.930 . S
C462 C463 1.351 . S
C462 N465 1.368 . S
C462 H467 0.931 . S
C463 C462 1.351 . S
C463 N464 1.373 . S
C463 H491 0.930 . S
N464 C463 1.373 . S
N464 C466 1.340 . S
N465 C462 1.368 . S
N465 C466 1.321 . S
N465 Co468 2.135 . S
C466 N464 1.340 . S
C466 N465 1.321 . S
C466 H490 0.930 . S
H467 C462 0.931 . S
Co468 N465 2.135 . S
Co468 N471 2.121 . S
Co468 O476 2.055 . S
Co468 O479 2.039 . S
Co468 N482 2.140 . S
C469 O470 1.227 . S
C469 O479 1.265 . S
O470 C469 1.227 . S
N471 Co468 2.121 . S
N471 C473 1.375 . S
N471 C474 1.313 . S
C472 C473 1.338 . S
C472 N475 1.377 . S
C472 H492 0.930 . S
C473 N471 1.375 . S
C473 C472 1.338 . S
C473 H477 0.931 . S
C474 N471 1.313 . S
C474 N475 1.344 . S
C474 H478 0.930 . S
N475 C472 1.377 . S
N475 C474 1.344 . S
O476 Co468 2.055 . S
O476 C480 1.253 . S
H477 C473 0.931 . S
H478 C474 0.930 . S
O479 Co468 2.039 . S
O479 C469 1.265 . S
C480 O476 1.253 . S
C480 O481 1.227 . S
O481 C480 1.227 . S
N482 Co468 2.140 . S
N482 C485 1.346 . S
N482 C486 1.345 . S
C483 C484 1.387 . S
C483 C487 1.391 . S
C484 C483 1.387 . S
C484 C485 1.369 . S
C484 H493 0.929 . S
C485 N482 1.346 . S
C485 C484 1.369 . S
C485 H488 0.928 . S
C486 N482 1.345 . S
C486 C487 1.371 . S
C486 H489 0.931 . S
C487 C483 1.391 . S
C487 C486 1.371 . S
C487 H494 0.930 . S
H488 C485 0.928 . S
H489 C486 0.931 . S
H490 C466 0.930 . S
H491 C463 0.930 . S
H492 C472 0.930 . S
H493 C484 0.929 . S
H494 C487 0.930 . S
C495 C496 1.351 . S
C495 N498 1.368 . S
C495 H500 0.931 . S
C496 C495 1.351 . S
C496 N497 1.373 . S
C496 H524 0.930 . S
N497 C496 1.373 . S
N497 C499 1.340 . S
N498 C495 1.368 . S
N498 C499 1.321 . S
N498 Co501 2.135 . S
C499 N497 1.340 . S
C499 N498 1.321 . S
C499 H523 0.930 . S
H500 C495 0.931 . S
Co501 N498 2.135 . S
Co501 N504 2.121 . S
Co501 O509 2.055 . S
Co501 O512 2.039 . S
Co501 N515 2.140 . S
C502 O503 1.227 . S
C502 O512 1.265 . S
O503 C502 1.227 . S
N504 Co501 2.121 . S
N504 C506 1.375 . S
N504 C507 1.313 . S
C505 C506 1.338 . S
C505 N508 1.377 . S
C505 H525 0.930 . S
C506 N504 1.375 . S
C506 C505 1.338 . S
C506 H510 0.931 . S
C507 N504 1.313 . S
C507 N508 1.344 . S
C507 H511 0.930 . S
N508 C505 1.377 . S
N508 C507 1.344 . S
O509 Co501 2.055 . S
O509 C513 1.253 . S
H510 C506 0.931 . S
H511 C507 0.930 . S
O512 Co501 2.039 . S
O512 C502 1.265 . S
C513 O509 1.253 . S
C513 O514 1.227 . S
O514 C513 1.227 . S
N515 Co501 2.140 . S
N515 C518 1.346 . S
N515 C519 1.345 . S
C516 C517 1.387 . S
C516 C520 1.391 . S
C517 C516 1.387 . S
C517 C518 1.369 . S
C517 H526 0.929 . S
C518 N515 1.346 . S
C518 C517 1.369 . S
C518 H521 0.928 . S
C519 N515 1.345 . S
C519 C520 1.371 . S
C519 H522 0.931 . S
C520 C516 1.391 . S
C520 C519 1.371 . S
C520 H527 0.930 . S
H521 C518 0.928 . S
H522 C519 0.931 . S
H523 C499 0.930 . S
H524 C496 0.930 . S
H525 C505 0.930 . S
H526 C517 0.929 . S
H527 C520 0.930 . S
H528 C534 0.930 . S
H529 C538 0.930 . S
H530 C543 0.929 1_655 S
H531 C541 0.929 . S
H532 C536 0.929 . S
H533 C542 0.929 . S
C534 H528 0.930 . S
C534 C535 1.367 . S
C534 C542 1.378 . S
C535 C534 1.367 . S
C535 C543 1.433 . S
C536 H532 0.929 . S
C536 C538 1.378 . S
C536 C540 1.350 . S
C537 C540 1.463 . S
C537 C542 1.350 . S
C537 N545 1.427 . S
C538 H529 0.930 . S
C538 C536 1.378 . S
C538 C539 1.367 . S
C539 C538 1.367 . S
C539 C541 1.433 . S
C540 C536 1.350 . S
C540 C537 1.463 . S
C540 N544 1.427 . S
C541 H531 0.929 . S
C541 C539 1.433 . S
C541 N544 1.384 . S
C542 H533 0.929 . S
C542 C534 1.378 . S
C542 C537 1.350 . S
C543 H530 0.929 1_455 S
C543 C535 1.433 . S
C543 N545 1.384 . S
N544 C540 1.427 . S
N544 C541 1.384 . S
N545 C537 1.427 . S
N545 C543 1.384 . S
H546 C552 0.930 . S
H547 C556 0.930 1_565 S
H548 C561 0.929 . S
H549 C559 0.929 . S
H550 C554 0.929 . S
H551 C560 0.929 . S
C552 H546 0.930 . S
C552 C553 1.367 . S
C552 C560 1.378 . S
C553 C552 1.367 . S
C553 C561 1.433 . S
C554 H550 0.929 . S
C554 C556 1.378 . S
C554 C558 1.350 . S
C555 C558 1.463 . S
C555 C560 1.350 . S
C555 N563 1.427 . S
C556 H547 0.930 1_545 S
C556 C554 1.378 . S
C556 C557 1.367 . S
C557 C556 1.367 . S
C557 C559 1.433 . S
C558 C554 1.350 . S
C558 C555 1.463 . S
C558 N562 1.427 . S
C559 H549 0.929 . S
C559 C557 1.433 . S
C559 N562 1.384 . S
C560 H551 0.929 . S
C560 C552 1.378 . S
C560 C555 1.350 . S
C561 H548 0.929 . S
C561 C553 1.433 . S
C561 N563 1.384 . S
N562 C558 1.427 . S
N562 C559 1.384 . S
N563 C555 1.427 . S
N563 C561 1.384 . S
H564 C570 0.930 . S
H565 C574 0.930 . S
H566 C579 0.929 . S
H567 C577 0.929 . S
H568 C572 0.929 . S
H569 C578 0.929 . S
C570 H564 0.930 . S
C570 C571 1.367 . S
C570 C578 1.378 . S
C571 C570 1.367 . S
C571 C579 1.433 . S
C572 H568 0.929 . S
C572 C574 1.378 . S
C572 C576 1.350 . S
C573 C576 1.463 . S
C573 C578 1.350 . S
C573 N581 1.427 . S
C574 H565 0.930 . S
C574 C572 1.378 . S
C574 C575 1.367 . S
C575 C574 1.367 . S
C575 C577 1.433 . S
C576 C572 1.350 . S
C576 C573 1.463 . S
C576 N580 1.427 . S
C577 H567 0.929 . S
C577 C575 1.433 . S
C577 N580 1.384 . S
C578 H569 0.929 . S
C578 C570 1.378 . S
C578 C573 1.350 . S
C579 H566 0.929 . S
C579 C571 1.433 . S
C579 N581 1.384 . S
N580 C576 1.427 . S
N580 C577 1.384 . S
N581 C573 1.427 . S
N581 C579 1.384 . S
H582 C588 0.930 . S
H583 C592 0.930 . S
H584 C597 0.929 . S
H585 C595 0.929 . S
H586 C590 0.929 . S
H587 C596 0.929 . S
C588 H582 0.930 . S
C588 C589 1.367 . S
C588 C596 1.378 . S
C589 C588 1.367 . S
C589 C597 1.433 . S
C590 H586 0.929 . S
C590 C592 1.378 . S
C590 C594 1.350 . S
C591 C594 1.463 . S
C591 C596 1.350 . S
C591 N599 1.427 . S
C592 H583 0.930 . S
C592 C590 1.378 . S
C592 C593 1.367 . S
C593 C592 1.367 . S
C593 C595 1.433 . S
C594 C590 1.350 . S
C594 C591 1.463 . S
C594 N598 1.427 . S
C595 H585 0.929 . S
C595 C593 1.433 . S
C595 N598 1.384 . S
C596 H587 0.929 . S
C596 C588 1.378 . S
C596 C591 1.350 . S
C597 H584 0.929 . S
C597 C589 1.433 . S
C597 N599 1.384 . S
N598 C594 1.427 . S
N598 C595 1.384 . S
N599 C591 1.427 . S
N599 C597 1.384 . S
H600 C606 0.930 . S
H601 C610 0.930 . S
H602 C615 0.929 . S
H603 C613 0.929 . S
H604 C608 0.929 . S
H605 C614 0.929 . S
C606 H600 0.930 . S
C606 C607 1.367 . S
C606 C614 1.378 . S
C607 C606 1.367 . S
C607 C615 1.433 . S
C608 H604 0.929 . S
C608 C610 1.378 . S
C608 C612 1.350 . S
C609 C612 1.463 1_556 S
C609 C614 1.350 . S
C609 N617 1.427 . S
C610 H601 0.930 . S
C610 C608 1.378 . S
C610 C611 1.367 . S
C611 C610 1.367 . S
C611 C613 1.433 . S
C612 C608 1.350 . S
C612 C609 1.463 1_554 S
C612 N616 1.427 . S
C613 H603 0.929 . S
C613 C611 1.433 . S
C613 N616 1.384 . S
C614 H605 0.929 . S
C614 C606 1.378 . S
C614 C609 1.350 . S
C615 H602 0.929 . S
C615 C607 1.433 . S
C615 N617 1.384 . S
N616 C612 1.427 . S
N616 C613 1.384 . S
N617 C609 1.427 . S
N617 C615 1.384 . S
H618 C624 0.930 . S
H619 C628 0.930 . S
H620 C633 0.929 . S
H621 C631 0.929 . S
H622 C626 0.929 . S
H623 C632 0.929 . S
C624 H618 0.930 . S
C624 C625 1.367 . S
C624 C632 1.378 . S
C625 C624 1.367 . S
C625 C633 1.433 . S
C626 H622 0.929 . S
C626 C628 1.378 . S
C626 C630 1.350 . S
C627 C630 1.463 1_556 S
C627 C632 1.350 . S
C627 N635 1.427 . S
C628 H619 0.930 . S
C628 C626 1.378 . S
C628 C629 1.367 . S
C629 C628 1.367 . S
C629 C631 1.433 . S
C630 C626 1.350 . S
C630 C627 1.463 1_554 S
C630 N634 1.427 . S
C631 H621 0.929 . S
C631 C629 1.433 . S
C631 N634 1.384 . S
C632 H623 0.929 . S
C632 C624 1.378 . S
C632 C627 1.350 . S
C633 H620 0.929 . S
C633 C625 1.433 . S
C633 N635 1.384 . S
N634 C630 1.427 . S
N634 C631 1.384 . S
N635 C627 1.427 . S
N635 C633 1.384 . S
H636 C642 0.930 . S
H637 C646 0.930 . S
H638 C651 0.929 . S
H639 C649 0.929 . S
H640 C644 0.929 . S
H641 C650 0.929 . S
C642 H636 0.930 . S
C642 C643 1.367 . S
C642 C650 1.378 . S
C643 C642 1.367 . S
C643 C651 1.433 . S
C644 H640 0.929 . S
C644 C646 1.378 . S
C644 C648 1.350 . S
C645 C648 1.463 1_556 S
C645 C650 1.350 . S
C645 N653 1.427 . S
C646 H637 0.930 . S
C646 C644 1.378 . S
C646 C647 1.367 . S
C647 C646 1.367 . S
C647 C649 1.433 . S
C648 C644 1.350 . S
C648 C645 1.463 1_554 S
C648 N652 1.427 . S
C649 H639 0.929 . S
C649 C647 1.433 . S
C649 N652 1.384 . S
C650 H641 0.929 . S
C650 C642 1.378 . S
C650 C645 1.350 . S
C651 H638 0.929 . S
C651 C643 1.433 . S
C651 N653 1.384 . S
N652 C648 1.427 . S
N652 C649 1.384 . S
N653 C645 1.427 . S
N653 C651 1.384 . S
H654 C660 0.930 . S
H655 C664 0.930 . S
H656 C669 0.929 . S
H657 C667 0.929 . S
H658 C662 0.929 . S
H659 C668 0.929 . S
C660 H654 0.930 . S
C660 C661 1.367 . S
C660 C668 1.378 . S
C661 C660 1.367 . S
C661 C669 1.433 . S
C662 H658 0.929 . S
C662 C664 1.378 . S
C662 C666 1.350 . S
C663 C666 1.463 1_554 S
C663 C668 1.350 . S
C663 N671 1.427 . S
C664 H655 0.930 . S
C664 C662 1.378 . S
C664 C665 1.367 . S
C665 C664 1.367 . S
C665 C667 1.433 . S
C666 C662 1.350 . S
C666 C663 1.463 1_556 S
C666 N670 1.427 . S
C667 H657 0.929 . S
C667 C665 1.433 . S
C667 N670 1.384 . S
C668 H659 0.929 . S
C668 C660 1.378 . S
C668 C663 1.350 . S
C669 H656 0.929 . S
C669 C661 1.433 . S
C669 N671 1.384 . S
N670 C666 1.427 . S
N670 C667 1.384 . S
N671 C663 1.427 . S
N671 C669 1.384 . S
H672 C678 0.930 . S
H673 C682 0.930 . S
H674 C687 0.929 . S
H675 C685 0.929 . S
H676 C680 0.929 . S
H677 C686 0.929 . S
C678 H672 0.930 . S
C678 C679 1.367 . S
C678 C686 1.378 . S
C679 C678 1.367 . S
C679 C687 1.433 . S
C680 H676 0.929 . S
C680 C682 1.378 . S
C680 C684 1.350 . S
C681 C684 1.463 . S
C681 C686 1.350 . S
C681 N689 1.427 . S
C682 H673 0.930 . S
C682 C680 1.378 . S
C682 C683 1.367 . S
C683 C682 1.367 . S
C683 C685 1.433 . S
C684 C680 1.350 . S
C684 C681 1.463 . S
C684 N688 1.427 . S
C685 H675 0.929 . S
C685 C683 1.433 . S
C685 N688 1.384 . S
C686 H677 0.929 . S
C686 C678 1.378 . S
C686 C681 1.350 . S
C687 H674 0.929 . S
C687 C679 1.433 . S
C687 N689 1.384 . S
N688 C684 1.427 . S
N688 C685 1.384 . S
N689 C681 1.427 . S
N689 C687 1.384 . S
H690 C696 0.930 . S
H691 C700 0.930 . S
H692 C705 0.929 . S
H693 C703 0.929 . S
H694 C698 0.929 . S
H695 C704 0.929 . S
C696 H690 0.930 . S
C696 C697 1.367 . S
C696 C704 1.378 . S
C697 C696 1.367 . S
C697 C705 1.433 . S
C698 H694 0.929 . S
C698 C700 1.378 . S
C698 C702 1.350 . S
C699 C702 1.463 . S
C699 C704 1.350 . S
C699 N707 1.427 . S
C700 H691 0.930 . S
C700 C698 1.378 . S
C700 C701 1.367 . S
C701 C700 1.367 . S
C701 C703 1.433 . S
C702 C698 1.350 . S
C702 C699 1.463 . S
C702 N706 1.427 . S
C703 H693 0.929 . S
C703 C701 1.433 . S
C703 N706 1.384 . S
C704 H695 0.929 . S
C704 C696 1.378 . S
C704 C699 1.350 . S
C705 H692 0.929 . S
C705 C697 1.433 . S
C705 N707 1.384 . S
N706 C702 1.427 . S
N706 C703 1.384 . S
N707 C699 1.427 . S
N707 C705 1.384 . S
H708 C714 0.930 . S
H709 C718 0.930 . S
H710 C723 0.929 . S
H711 C721 0.929 . S
H712 C716 0.929 . S
H713 C722 0.929 . S
C714 H708 0.930 . S
C714 C715 1.367 . S
C714 C722 1.378 . S
C715 C714 1.367 . S
C715 C723 1.433 . S
C716 H712 0.929 . S
C716 C718 1.378 . S
C716 C720 1.350 . S
C717 C720 1.463 . S
C717 C722 1.350 . S
C717 N725 1.427 . S
C718 H709 0.930 . S
C718 C716 1.378 . S
C718 C719 1.367 1_655 S
C719 C718 1.367 1_455 S
C719 C721 1.433 . S
C720 C716 1.350 . S
C720 C717 1.463 . S
C720 N724 1.427 . S
C721 H711 0.929 . S
C721 C719 1.433 . S
C721 N724 1.384 1_455 S
C722 H713 0.929 . S
C722 C714 1.378 . S
C722 C717 1.350 . S
C723 H710 0.929 . S
C723 C715 1.433 . S
C723 N725 1.384 . S
N724 C720 1.427 . S
N724 C721 1.384 1_655 S
N725 C717 1.427 . S
N725 C723 1.384 . S
H726 C732 0.930 1_545 S
H727 C736 0.930 . S
H728 C741 0.929 . S
H729 C739 0.929 . S
H730 C734 0.929 . S
H731 C740 0.929 . S
C732 H726 0.930 1_565 S
C732 C733 1.367 1_565 S
C732 C740 1.378 . S
C733 C732 1.367 1_545 S
C733 C741 1.433 1_545 S
C734 H730 0.929 . S
C734 C736 1.378 . S
C734 C738 1.350 . S
C735 C738 1.463 . S
C735 C740 1.350 . S
C735 N743 1.427 . S
C736 H727 0.930 . S
C736 C734 1.378 . S
C736 C737 1.367 . S
C737 C736 1.367 . S
C737 C739 1.433 . S
C738 C734 1.350 . S
C738 C735 1.463 . S
C738 N742 1.427 . S
C739 H729 0.929 . S
C739 C737 1.433 . S
C739 N742 1.384 . S
C740 H731 0.929 . S
C740 C732 1.378 . S
C740 C735 1.350 . S
C741 H728 0.929 . S
C741 C733 1.433 1_565 S
C741 N743 1.384 . S
N742 C738 1.427 . S
N742 C739 1.384 . S
N743 C735 1.427 . S
N743 C741 1.384 . S
H744 C750 0.930 . S
H745 C754 0.930 . S
H746 C759 0.929 . S
H747 C757 0.929 . S
H748 C752 0.929 . S
H749 C758 0.929 . S
C750 H744 0.930 . S
C750 C751 1.367 . S
C750 C758 1.378 . S
C751 C750 1.367 . S
C751 C759 1.433 . S
C752 H748 0.929 . S
C752 C754 1.378 . S
C752 C756 1.350 . S
C753 C756 1.463 . S
C753 C758 1.350 . S
C753 N761 1.427 . S
C754 H745 0.930 . S
C754 C752 1.378 . S
C754 C755 1.367 . S
C755 C754 1.367 . S
C755 C757 1.433 . S
C756 C752 1.350 . S
C756 C753 1.463 . S
C756 N760 1.427 . S
C757 H747 0.929 . S
C757 C755 1.433 . S
C757 N760 1.384 . S
C758 H749 0.929 . S
C758 C750 1.378 . S
C758 C753 1.350 . S
C759 H746 0.929 . S
C759 C751 1.433 . S
C759 N761 1.384 . S
N760 C756 1.427 . S
N760 C757 1.384 . S
N761 C753 1.427 . S
N761 C759 1.384 . S
H762 C768 0.930 . S
H763 C772 0.930 . S
H764 C777 0.929 . S
H765 C775 0.929 . S
H766 C770 0.929 . S
H767 C776 0.929 . S
C768 H762 0.930 . S
C768 C769 1.367 . S
C768 C776 1.378 . S
C769 C768 1.367 . S
C769 C777 1.433 . S
C770 H766 0.929 . S
C770 C772 1.378 . S
C770 C774 1.350 . S
C771 C774 1.463 . S
C771 C776 1.350 . S
C771 N779 1.427 . S
C772 H763 0.930 . S
C772 C770 1.378 . S
C772 C773 1.367 . S
C773 C772 1.367 . S
C773 C775 1.433 . S
C774 C770 1.350 . S
C774 C771 1.463 . S
C774 N778 1.427 . S
C775 H765 0.929 . S
C775 C773 1.433 . S
C775 N778 1.384 . S
C776 H767 0.929 . S
C776 C768 1.378 . S
C776 C771 1.350 . S
C777 H764 0.929 . S
C777 C769 1.433 . S
C777 N779 1.384 . S
N778 C774 1.427 . S
N778 C775 1.384 . S
N779 C771 1.427 . S
N779 C777 1.384 . S
H780 C786 0.930 . S
H781 C790 0.930 1_455 S
H782 C795 0.929 . S
H783 C793 0.929 . S
H784 C788 0.929 . S
H785 C794 0.929 . S
C786 H780 0.930 . S
C786 C787 1.367 . S
C786 C794 1.378 . S
C787 C786 1.367 . S
C787 C795 1.433 . S
C788 H784 0.929 . S
C788 C790 1.378 . S
C788 C792 1.350 . S
C789 C792 1.463 . S
C789 C794 1.350 . S
C789 N797 1.427 . S
C790 H781 0.930 1_655 S
C790 C788 1.378 . S
C790 C791 1.367 1_655 S
C791 C790 1.367 1_455 S
C791 C793 1.433 1_455 S
C792 C788 1.350 . S
C792 C789 1.463 . S
C792 N796 1.427 . S
C793 H783 0.929 . S
C793 C791 1.433 1_655 S
C793 N796 1.384 . S
C794 H785 0.929 . S
C794 C786 1.378 . S
C794 C789 1.350 . S
C795 H782 0.929 . S
C795 C787 1.433 . S
C795 N797 1.384 . S
N796 C792 1.427 . S
N796 C793 1.384 . S
N797 C789 1.427 . S
N797 C795 1.384 . S
H798 C804 0.930 . S
H799 C808 0.930 . S
H800 C813 0.929 . S
H801 C811 0.929 . S
H802 C806 0.929 . S
H803 C812 0.929 . S
C804 H798 0.930 . S
C804 C805 1.367 . S
C804 C812 1.378 . S
C805 C804 1.367 . S
C805 C813 1.433 . S
C806 H802 0.929 . S
C806 C808 1.378 . S
C806 C810 1.350 . S
C807 C810 1.463 . S
C807 C812 1.350 . S
C807 N815 1.427 . S
C808 H799 0.930 . S
C808 C806 1.378 . S
C808 C809 1.367 1_565 S
C809 C808 1.367 1_545 S
C809 C811 1.433 . S
C810 C806 1.350 . S
C810 C807 1.463 . S
C810 N814 1.427 . S
C811 H801 0.929 . S
C811 C809 1.433 . S
C811 N814 1.384 1_545 S
C812 H803 0.929 . S
C812 C804 1.378 . S
C812 C807 1.350 . S
C813 H800 0.929 . S
C813 C805 1.433 . S
C813 N815 1.384 . S
N814 C810 1.427 . S
N814 C811 1.384 1_565 S
N815 C807 1.427 . S
N815 C813 1.384 . S
H816 C822 0.930 . S
H817 C826 0.930 . S
H818 C831 0.929 . S
H819 C829 0.929 . S
H820 C824 0.929 . S
H821 C830 0.929 . S
C822 H816 0.930 . S
C822 C823 1.367 . S
C822 C830 1.378 . S
C823 C822 1.367 . S
C823 C831 1.433 . S
C824 H820 0.929 . S
C824 C826 1.378 . S
C824 C828 1.350 . S
C825 C828 1.463 . S
C825 C830 1.350 . S
C825 N833 1.427 . S
C826 H817 0.930 . S
C826 C824 1.378 . S
C826 C827 1.367 . S
C827 C826 1.367 . S
C827 C829 1.433 . S
C828 C824 1.350 . S
C828 C825 1.463 . S
C828 N832 1.427 . S
C829 H819 0.929 . S
C829 C827 1.433 . S
C829 N832 1.384 . S
C830 H821 0.929 . S
C830 C822 1.378 . S
C830 C825 1.350 . S
C831 H818 0.929 . S
C831 C823 1.433 . S
C831 N833 1.384 . S
N832 C828 1.427 . S
N832 C829 1.384 . S
N833 C825 1.427 . S
N833 C831 1.384 . S
H834 C840 0.930 . S
H835 C844 0.930 . S
H836 C849 0.929 . S
H837 C847 0.929 . S
H838 C842 0.929 . S
H839 C848 0.929 . S
C840 H834 0.930 . S
C840 C841 1.367 . S
C840 C848 1.378 . S
C841 C840 1.367 . S
C841 C849 1.433 . S
C842 H838 0.929 . S
C842 C844 1.378 . S
C842 C846 1.350 . S
C843 C846 1.463 . S
C843 C848 1.350 . S
C843 N851 1.427 . S
C844 H835 0.930 . S
C844 C842 1.378 . S
C844 C845 1.367 . S
C845 C844 1.367 . S
C845 C847 1.433 . S
C846 C842 1.350 . S
C846 C843 1.463 . S
C846 N850 1.427 . S
C847 H837 0.929 . S
C847 C845 1.433 . S
C847 N850 1.384 . S
C848 H839 0.929 . S
C848 C840 1.378 . S
C848 C843 1.350 . S
C849 H836 0.929 . S
C849 C841 1.433 . S
C849 N851 1.384 . S
N850 C846 1.427 . S
N850 C847 1.384 . S
N851 C843 1.427 . S
N851 C849 1.384 . S
H852 C858 0.930 . S
H853 C862 0.930 . S
H854 C867 0.929 . S
H855 C865 0.929 . S
H856 C860 0.929 . S
H857 C866 0.929 . S
C858 H852 0.930 . S
C858 C859 1.367 . S
C858 C866 1.378 . S
C859 C858 1.367 . S
C859 C867 1.433 . S
C860 H856 0.929 . S
C860 C862 1.378 . S
C860 C864 1.350 . S
C861 C864 1.463 . S
C861 C866 1.350 . S
C861 N869 1.427 . S
C862 H853 0.930 . S
C862 C860 1.378 . S
C862 C863 1.367 . S
C863 C862 1.367 . S
C863 C865 1.433 . S
C864 C860 1.350 . S
C864 C861 1.463 . S
C864 N868 1.427 . S
C865 H855 0.929 . S
C865 C863 1.433 . S
C865 N868 1.384 . S
C866 H857 0.929 . S
C866 C858 1.378 . S
C866 C861 1.350 . S
C867 H854 0.929 . S
C867 C859 1.433 . S
C867 N869 1.384 . S
N868 C864 1.427 . S
N868 C865 1.384 . S
N869 C861 1.427 . S
N869 C867 1.384 . S
H870 C876 0.930 . S
H871 C880 0.930 . S
H872 C885 0.929 . S
H873 C883 0.929 . S
H874 C878 0.929 . S
H875 C884 0.929 . S
C876 H870 0.930 . S
C876 C877 1.367 . S
C876 C884 1.378 . S
C877 C876 1.367 . S
C877 C885 1.433 . S
C878 H874 0.929 . S
C878 C880 1.378 . S
C878 C882 1.350 . S
C879 C882 1.463 . S
C879 C884 1.350 . S
C879 N887 1.427 . S
C880 H871 0.930 . S
C880 C878 1.378 . S
C880 C881 1.367 . S
C881 C880 1.367 . S
C881 C883 1.433 . S
C882 C878 1.350 . S
C882 C879 1.463 . S
C882 N886 1.427 . S
C883 H873 0.929 . S
C883 C881 1.433 . S
C883 N886 1.384 . S
C884 H875 0.929 . S
C884 C876 1.378 . S
C884 C879 1.350 . S
C885 H872 0.929 . S
C885 C877 1.433 . S
C885 N887 1.384 . S
N886 C882 1.427 . S
N886 C883 1.384 . S
N887 C879 1.427 . S
N887 C885 1.384 . S
H888 C894 0.930 . S
H889 C898 0.930 . S
H890 C903 0.929 . S
H891 C901 0.929 . S
H892 C896 0.929 . S
H893 C902 0.929 . S
C894 H888 0.930 . S
C894 C895 1.367 . S
C894 C902 1.378 . S
C895 C894 1.367 . S
C895 C903 1.433 . S
C896 H892 0.929 . S
C896 C898 1.378 . S
C896 C900 1.350 . S
C897 C900 1.463 . S
C897 C902 1.350 . S
C897 N905 1.427 . S
C898 H889 0.930 . S
C898 C896 1.378 . S
C898 C899 1.367 . S
C899 C898 1.367 . S
C899 C901 1.433 . S
C900 C896 1.350 . S
C900 C897 1.463 . S
C900 N904 1.427 . S
C901 H891 0.929 . S
C901 C899 1.433 . S
C901 N904 1.384 . S
C902 H893 0.929 . S
C902 C894 1.378 . S
C902 C897 1.350 . S
C903 H890 0.929 . S
C903 C895 1.433 . S
C903 N905 1.384 . S
N904 C900 1.427 . S
N904 C901 1.384 . S
N905 C897 1.427 . S
N905 C903 1.384 . S
H906 C912 0.930 . S
H907 C916 0.930 . S
H908 C921 0.929 . S
H909 C919 0.929 . S
H910 C914 0.929 . S
H911 C920 0.929 . S
C912 H906 0.930 . S
C912 C913 1.367 . S
C912 C920 1.378 . S
C913 C912 1.367 . S
C913 C921 1.433 . S
C914 H910 0.929 . S
C914 C916 1.378 . S
C914 C918 1.350 . S
C915 C918 1.463 . S
C915 C920 1.350 . S
C915 N923 1.427 . S
C916 H907 0.930 . S
C916 C914 1.378 . S
C916 C917 1.367 . S
C917 C916 1.367 . S
C917 C919 1.433 . S
C918 C914 1.350 . S
C918 C915 1.463 . S
C918 N922 1.427 . S
C919 H909 0.929 . S
C919 C917 1.433 . S
C919 N922 1.384 . S
C920 H911 0.929 . S
C920 C912 1.378 . S
C920 C915 1.350 . S
C921 H908 0.929 . S
C921 C913 1.433 . S
C921 N923 1.384 . S
N922 C918 1.427 . S
N922 C919 1.384 . S
N923 C915 1.427 . S
N923 C921 1.384 . S
H924 C930 0.930 . S
H925 C934 0.930 . S
H926 C939 0.929 . S
H927 C937 0.929 . S
H928 C932 0.929 . S
H929 C938 0.929 . S
C930 H924 0.930 . S
C930 C931 1.367 . S
C930 C938 1.378 . S
C931 C930 1.367 . S
C931 C939 1.433 . S
C932 H928 0.929 . S
C932 C934 1.378 . S
C932 C936 1.350 . S
C933 C936 1.463 . S
C933 C938 1.350 . S
C933 N941 1.427 . S
C934 H925 0.930 . S
C934 C932 1.378 . S
C934 C935 1.367 . S
C935 C934 1.367 . S
C935 C937 1.433 . S
C936 C932 1.350 . S
C936 C933 1.463 . S
C936 N940 1.427 . S
C937 H927 0.929 . S
C937 C935 1.433 . S
C937 N940 1.384 . S
C938 H929 0.929 . S
C938 C930 1.378 . S
C938 C933 1.350 . S
C939 H926 0.929 . S
C939 C931 1.433 . S
C939 N941 1.384 . S
N940 C936 1.427 . S
N940 C937 1.384 . S
N941 C933 1.427 . S
N941 C939 1.384 . S
H942 C948 0.930 . S
H943 C952 0.930 . S
H944 C957 0.929 . S
H945 C955 0.929 . S
H946 C950 0.929 . S
H947 C956 0.929 . S
C948 H942 0.930 . S
C948 C949 1.367 . S
C948 C956 1.378 . S
C949 C948 1.367 . S
C949 C957 1.433 . S
C950 H946 0.929 . S
C950 C952 1.378 . S
C950 C954 1.350 . S
C951 C954 1.463 . S
C951 C956 1.350 . S
C951 N959 1.427 . S
C952 H943 0.930 . S
C952 C950 1.378 . S
C952 C953 1.367 . S
C953 C952 1.367 . S
C953 C955 1.433 . S
C954 C950 1.350 . S
C954 C951 1.463 . S
C954 N958 1.427 . S
C955 H945 0.929 . S
C955 C953 1.433 . S
C955 N958 1.384 . S
C956 H947 0.929 . S
C956 C948 1.378 . S
C956 C951 1.350 . S
C957 H944 0.929 . S
C957 C949 1.433 . S
C957 N959 1.384 . S
N958 C954 1.427 . S
N958 C955 1.384 . S
N959 C951 1.427 . S
N959 C957 1.384 . S
H960 C966 0.930 . S
H961 C970 0.930 . S
H962 C975 0.929 . S
H963 C973 0.929 . S
H964 C968 0.929 . S
H965 C974 0.929 . S
C966 H960 0.930 . S
C966 C967 1.367 . S
C966 C974 1.378 . S
C967 C966 1.367 . S
C967 C975 1.433 . S
C968 H964 0.929 . S
C968 C970 1.378 . S
C968 C972 1.350 . S
C969 C972 1.463 . S
C969 C974 1.350 . S
C969 N977 1.427 . S
C970 H961 0.930 . S
C970 C968 1.378 . S
C970 C971 1.367 . S
C971 C970 1.367 . S
C971 C973 1.433 . S
C972 C968 1.350 . S
C972 C969 1.463 . S
C972 N976 1.427 . S
C973 H963 0.929 . S
C973 C971 1.433 . S
C973 N976 1.384 . S
C974 H965 0.929 . S
C974 C966 1.378 . S
C974 C969 1.350 . S
C975 H962 0.929 . S
C975 C967 1.433 . S
C975 N977 1.384 . S
N976 C972 1.427 . S
N976 C973 1.384 . S
N977 C969 1.427 . S
N977 C975 1.384 . S
H978 C984 0.930 . S
H979 C988 0.930 . S
H980 C993 0.929 . S
H981 C991 0.929 . S
H982 C986 0.929 . S
H983 C992 0.929 . S
C984 H978 0.930 . S
C984 C985 1.367 . S
C984 C992 1.378 . S
C985 C984 1.367 . S
C985 C993 1.433 . S
C986 H982 0.929 . S
C986 C988 1.378 . S
C986 C990 1.350 . S
C987 C990 1.463 . S
C987 C992 1.350 . S
C987 N995 1.427 . S
C988 H979 0.930 . S
C988 C986 1.378 . S
C988 C989 1.367 . S
C989 C988 1.367 . S
C989 C991 1.433 . S
C990 C986 1.350 . S
C990 C987 1.463 . S
C990 N994 1.427 . S
C991 H981 0.929 . S
C991 C989 1.433 . S
C991 N994 1.384 . S
C992 H983 0.929 . S
C992 C984 1.378 . S
C992 C987 1.350 . S
C993 H980 0.929 . S
C993 C985 1.433 . S
C993 N995 1.384 . S
N994 C990 1.427 . S
N994 C991 1.384 . S
N995 C987 1.427 . S
N995 C993 1.384 . S
H996 C1002 0.930 . S
H997 C1006 0.930 . S
H998 C1011 0.929 . S
H999 C1009 0.929 1_455 S
H1000 C1004 0.929 . S
H1001 C1010 0.929 . S
C1002 H996 0.930 . S
C1002 C1003 1.367 . S
C1002 C1010 1.378 . S
C1003 C1002 1.367 . S
C1003 C1011 1.433 . S
C1004 H1000 0.929 . S
C1004 C1006 1.378 . S
C1004 C1008 1.350 . S
C1005 C1008 1.463 . S
C1005 C1010 1.350 . S
C1005 N1013 1.427 . S
C1006 H997 0.930 . S
C1006 C1004 1.378 . S
C1006 C1007 1.367 . S
C1007 C1006 1.367 . S
C1007 C1009 1.433 . S
C1008 C1004 1.350 . S
C1008 C1005 1.463 . S
C1008 N1012 1.427 . S
C1009 H999 0.929 1_655 S
C1009 C1007 1.433 . S
C1009 N1012 1.384 . S
C1010 H1001 0.929 . S
C1010 C1002 1.378 . S
C1010 C1005 1.350 . S
C1011 H998 0.929 . S
C1011 C1003 1.433 . S
C1011 N1013 1.384 . S
N1012 C1008 1.427 . S
N1012 C1009 1.384 . S
N1013 C1005 1.427 . S
N1013 C1011 1.384 . S
H1014 C1020 0.930 . S
H1015 C1024 0.930 . S
H1016 C1029 0.929 1_545 S
H1017 C1027 0.929 . S
H1018 C1022 0.929 . S
H1019 C1028 0.929 . S
C1020 H1014 0.930 . S
C1020 C1021 1.367 . S
C1020 C1028 1.378 . S
C1021 C1020 1.367 . S
C1021 C1029 1.433 . S
C1022 H1018 0.929 . S
C1022 C1024 1.378 . S
C1022 C1026 1.350 . S
C1023 C1026 1.463 . S
C1023 C1028 1.350 . S
C1023 N1031 1.427 . S
C1024 H1015 0.930 . S
C1024 C1022 1.378 . S
C1024 C1025 1.367 . S
C1025 C1024 1.367 . S
C1025 C1027 1.433 . S
C1026 C1022 1.350 . S
C1026 C1023 1.463 . S
C1026 N1030 1.427 . S
C1027 H1017 0.929 . S
C1027 C1025 1.433 . S
C1027 N1030 1.384 . S
C1028 H1019 0.929 . S
C1028 C1020 1.378 . S
C1028 C1023 1.350 . S
C1029 H1016 0.929 1_565 S
C1029 C1021 1.433 . S
C1029 N1031 1.384 . S
N1030 C1026 1.427 . S
N1030 C1027 1.384 . S
N1031 C1023 1.427 . S
N1031 C1029 1.384 . S
H1032 C1038 0.930 . S
H1033 C1042 0.930 . S
H1034 C1047 0.929 . S
H1035 C1045 0.929 . S
H1036 C1040 0.929 . S
H1037 C1046 0.929 . S
C1038 H1032 0.930 . S
C1038 C1039 1.367 . S
C1038 C1046 1.378 . S
C1039 C1038 1.367 . S
C1039 C1047 1.433 . S
C1040 H1036 0.929 . S
C1040 C1042 1.378 . S
C1040 C1044 1.350 . S
C1041 C1044 1.463 . S
C1041 C1046 1.350 . S
C1041 N1049 1.427 . S
C1042 H1033 0.930 . S
C1042 C1040 1.378 . S
C1042 C1043 1.367 . S
C1043 C1042 1.367 . S
C1043 C1045 1.433 . S
C1044 C1040 1.350 . S
C1044 C1041 1.463 . S
C1044 N1048 1.427 . S
C1045 H1035 0.929 . S
C1045 C1043 1.433 . S
C1045 N1048 1.384 . S
C1046 H1037 0.929 . S
C1046 C1038 1.378 . S
C1046 C1041 1.350 . S
C1047 H1034 0.929 . S
C1047 C1039 1.433 . S
C1047 N1049 1.384 . S
N1048 C1044 1.427 . S
N1048 C1045 1.384 . S
N1049 C1041 1.427 . S
N1049 C1047 1.384 . S
H1050 C1056 0.930 . S
H1051 C1060 0.930 . S
H1052 C1065 0.929 . S
H1053 C1063 0.929 . S
H1054 C1058 0.929 . S
H1055 C1064 0.929 . S
C1056 H1050 0.930 . S
C1056 C1057 1.367 . S
C1056 C1064 1.378 . S
C1057 C1056 1.367 . S
C1057 C1065 1.433 . S
C1058 H1054 0.929 . S
C1058 C1060 1.378 . S
C1058 C1062 1.350 . S
C1059 C1062 1.463 . S
C1059 C1064 1.350 . S
C1059 N1067 1.427 . S
C1060 H1051 0.930 . S
C1060 C1058 1.378 . S
C1060 C1061 1.367 . S
C1061 C1060 1.367 . S
C1061 C1063 1.433 . S
C1062 C1058 1.350 . S
C1062 C1059 1.463 . S
C1062 N1066 1.427 . S
C1063 H1053 0.929 . S
C1063 C1061 1.433 . S
C1063 N1066 1.384 . S
C1064 H1055 0.929 . S
C1064 C1056 1.378 . S
C1064 C1059 1.350 . S
C1065 H1052 0.929 . S
C1065 C1057 1.433 . S
C1065 N1067 1.384 . S
N1066 C1062 1.427 . S
N1066 C1063 1.384 . S
N1067 C1059 1.427 . S
N1067 C1065 1.384 . S
H1068 C1074 0.930 . S
H1069 C1078 0.930 . S
H1070 C1083 0.929 . S
H1071 C1081 0.929 . S
H1072 C1076 0.929 . S
H1073 C1082 0.929 . S
C1074 H1068 0.930 . S
C1074 C1075 1.367 . S
C1074 C1082 1.378 . S
C1075 C1074 1.367 . S
C1075 C1083 1.433 1_655 S
C1076 H1072 0.929 . S
C1076 C1078 1.378 . S
C1076 C1080 1.350 . S
C1077 C1080 1.463 . S
C1077 C1082 1.350 . S
C1077 N1085 1.427 . S
C1078 H1069 0.930 . S
C1078 C1076 1.378 . S
C1078 C1079 1.367 . S
C1079 C1078 1.367 . S
C1079 C1081 1.433 . S
C1080 C1076 1.350 . S
C1080 C1077 1.463 . S
C1080 N1084 1.427 . S
C1081 H1071 0.929 . S
C1081 C1079 1.433 . S
C1081 N1084 1.384 . S
C1082 H1073 0.929 . S
C1082 C1074 1.378 . S
C1082 C1077 1.350 . S
C1083 H1070 0.929 . S
C1083 C1075 1.433 1_455 S
C1083 N1085 1.384 1_455 S
N1084 C1080 1.427 . S
N1084 C1081 1.384 . S
N1085 C1077 1.427 . S
N1085 C1083 1.384 1_655 S
H1086 C1092 0.930 . S
H1087 C1096 0.930 . S
H1088 C1101 0.929 . S
H1089 C1099 0.929 1_545 S
H1090 C1094 0.929 . S
H1091 C1100 0.929 . S
C1092 H1086 0.930 . S
C1092 C1093 1.367 . S
C1092 C1100 1.378 . S
C1093 C1092 1.367 . S
C1093 C1101 1.433 . S
C1094 H1090 0.929 . S
C1094 C1096 1.378 . S
C1094 C1098 1.350 . S
C1095 C1098 1.463 . S
C1095 C1100 1.350 . S
C1095 N1103 1.427 . S
C1096 H1087 0.930 . S
C1096 C1094 1.378 . S
C1096 C1097 1.367 . S
C1097 C1096 1.367 . S
C1097 C1099 1.433 . S
C1098 C1094 1.350 . S
C1098 C1095 1.463 . S
C1098 N1102 1.427 . S
C1099 H1089 0.929 1_565 S
C1099 C1097 1.433 . S
C1099 N1102 1.384 . S
C1100 H1091 0.929 . S
C1100 C1092 1.378 . S
C1100 C1095 1.350 . S
C1101 H1088 0.929 . S
C1101 C1093 1.433 . S
C1101 N1103 1.384 . S
N1102 C1098 1.427 . S
N1102 C1099 1.384 . S
N1103 C1095 1.427 . S
N1103 C1101 1.384 . S
H1104 C1110 0.930 . S
H1105 C1114 0.930 . S
H1106 C1119 0.929 . S
H1107 C1117 0.929 . S
H1108 C1112 0.929 . S
H1109 C1118 0.929 . S
C1110 H1104 0.930 . S
C1110 C1111 1.367 . S
C1110 C1118 1.378 . S
C1111 C1110 1.367 . S
C1111 C1119 1.433 . S
C1112 H1108 0.929 . S
C1112 C1114 1.378 . S
C1112 C1116 1.350 . S
C1113 C1116 1.463 . S
C1113 C1118 1.350 . S
C1113 N1121 1.427 . S
C1114 H1105 0.930 . S
C1114 C1112 1.378 . S
C1114 C1115 1.367 . S
C1115 C1114 1.367 . S
C1115 C1117 1.433 . S
C1116 C1112 1.350 . S
C1116 C1113 1.463 . S
C1116 N1120 1.427 . S
C1117 H1107 0.929 . S
C1117 C1115 1.433 . S
C1117 N1120 1.384 . S
C1118 H1109 0.929 . S
C1118 C1110 1.378 . S
C1118 C1113 1.350 . S
C1119 H1106 0.929 . S
C1119 C1111 1.433 . S
C1119 N1121 1.384 . S
N1120 C1116 1.427 . S
N1120 C1117 1.384 . S
N1121 C1113 1.427 . S
N1121 C1119 1.384 . S
H1122 C1128 0.930 . S
H1123 C1132 0.930 . S
H1124 C1137 0.929 . S
H1125 C1135 0.929 . S
H1126 C1130 0.929 . S
H1127 C1136 0.929 . S
C1128 H1122 0.930 . S
C1128 C1129 1.367 . S
C1128 C1136 1.378 . S
C1129 C1128 1.367 . S
C1129 C1137 1.433 . S
C1130 H1126 0.929 . S
C1130 C1132 1.378 . S
C1130 C1134 1.350 . S
C1131 C1134 1.463 . S
C1131 C1136 1.350 . S
C1131 N1139 1.427 . S
C1132 H1123 0.930 . S
C1132 C1130 1.378 . S
C1132 C1133 1.367 . S
C1133 C1132 1.367 . S
C1133 C1135 1.433 . S
C1134 C1130 1.350 . S
C1134 C1131 1.463 . S
C1134 N1138 1.427 . S
C1135 H1125 0.929 . S
C1135 C1133 1.433 . S
C1135 N1138 1.384 . S
C1136 H1127 0.929 . S
C1136 C1128 1.378 . S
C1136 C1131 1.350 . S
C1137 H1124 0.929 . S
C1137 C1129 1.433 . S
C1137 N1139 1.384 . S
N1138 C1134 1.427 . S
N1138 C1135 1.384 . S
N1139 C1131 1.427 . S
N1139 C1137 1.384 . S
H1140 C1146 0.930 . S
H1141 C1150 0.930 . S
H1142 C1155 0.929 . S
H1143 C1153 0.929 . S
H1144 C1148 0.929 . S
H1145 C1154 0.929 . S
C1146 H1140 0.930 . S
C1146 C1147 1.367 . S
C1146 C1154 1.378 . S
C1147 C1146 1.367 . S
C1147 C1155 1.433 . S
C1148 H1144 0.929 . S
C1148 C1150 1.378 . S
C1148 C1152 1.350 . S
C1149 C1152 1.463 . S
C1149 C1154 1.350 . S
C1149 N1157 1.427 . S
C1150 H1141 0.930 . S
C1150 C1148 1.378 . S
C1150 C1151 1.367 . S
C1151 C1150 1.367 . S
C1151 C1153 1.433 . S
C1152 C1148 1.350 . S
C1152 C1149 1.463 . S
C1152 N1156 1.427 . S
C1153 H1143 0.929 . S
C1153 C1151 1.433 . S
C1153 N1156 1.384 . S
C1154 H1145 0.929 . S
C1154 C1146 1.378 . S
C1154 C1149 1.350 . S
C1155 H1142 0.929 . S
C1155 C1147 1.433 . S
C1155 N1157 1.384 . S
N1156 C1152 1.427 . S
N1156 C1153 1.384 . S
N1157 C1149 1.427 . S
N1157 C1155 1.384 . S
H1158 C1164 0.930 . S
H1159 C1168 0.930 . S
H1160 C1173 0.929 . S
H1161 C1171 0.929 . S
H1162 C1166 0.929 . S
H1163 C1172 0.929 . S
C1164 H1158 0.930 . S
C1164 C1165 1.367 . S
C1164 C1172 1.378 . S
C1165 C1164 1.367 . S
C1165 C1173 1.433 . S
C1166 H1162 0.929 . S
C1166 C1168 1.378 . S
C1166 C1170 1.350 . S
C1167 C1170 1.463 . S
C1167 C1172 1.350 . S
C1167 N1175 1.427 . S
C1168 H1159 0.930 . S
C1168 C1166 1.378 . S
C1168 C1169 1.367 . S
C1169 C1168 1.367 . S
C1169 C1171 1.433 . S
C1170 C1166 1.350 . S
C1170 C1167 1.463 . S
C1170 N1174 1.427 . S
C1171 H1161 0.929 . S
C1171 C1169 1.433 . S
C1171 N1174 1.384 . S
C1172 H1163 0.929 . S
C1172 C1164 1.378 . S
C1172 C1167 1.350 . S
C1173 H1160 0.929 . S
C1173 C1165 1.433 . S
C1173 N1175 1.384 . S
N1174 C1170 1.427 . S
N1174 C1171 1.384 . S
N1175 C1167 1.427 . S
N1175 C1173 1.384 . S
H1176 C1182 0.930 . S
H1177 C1186 0.930 . S
H1178 C1191 0.929 . S
H1179 C1189 0.929 . S
H1180 C1184 0.929 . S
H1181 C1190 0.929 . S
C1182 H1176 0.930 . S
C1182 C1183 1.367 . S
C1182 C1190 1.378 . S
C1183 C1182 1.367 . S
C1183 C1191 1.433 . S
C1184 H1180 0.929 . S
C1184 C1186 1.378 . S
C1184 C1188 1.350 . S
C1185 C1188 1.463 . S
C1185 C1190 1.350 . S
C1185 N1193 1.427 . S
C1186 H1177 0.930 . S
C1186 C1184 1.378 . S
C1186 C1187 1.367 . S
C1187 C1186 1.367 . S
C1187 C1189 1.433 . S
C1188 C1184 1.350 . S
C1188 C1185 1.463 . S
C1188 N1192 1.427 . S
C1189 H1179 0.929 . S
C1189 C1187 1.433 . S
C1189 N1192 1.384 . S
C1190 H1181 0.929 . S
C1190 C1182 1.378 . S
C1190 C1185 1.350 . S
C1191 H1178 0.929 . S
C1191 C1183 1.433 . S
C1191 N1193 1.384 . S
N1192 C1188 1.427 . S
N1192 C1189 1.384 . S
N1193 C1185 1.427 . S
N1193 C1191 1.384 . S
H1194 C1200 0.930 . S
H1195 C1204 0.930 . S
H1196 C1209 0.929 . S
H1197 C1207 0.929 . S
H1198 C1202 0.929 . S
H1199 C1208 0.929 . S
C1200 H1194 0.930 . S
C1200 C1201 1.367 . S
C1200 C1208 1.378 . S
C1201 C1200 1.367 . S
C1201 C1209 1.433 . S
C1202 H1198 0.929 . S
C1202 C1204 1.378 . S
C1202 C1206 1.350 . S
C1203 C1206 1.463 . S
C1203 C1208 1.350 . S
C1203 N1211 1.427 . S
C1204 H1195 0.930 . S
C1204 C1202 1.378 . S
C1204 C1205 1.367 . S
C1205 C1204 1.367 . S
C1205 C1207 1.433 . S
C1206 C1202 1.350 . S
C1206 C1203 1.463 . S
C1206 N1210 1.427 . S
C1207 H1197 0.929 . S
C1207 C1205 1.433 . S
C1207 N1210 1.384 . S
C1208 H1199 0.929 . S
C1208 C1200 1.378 . S
C1208 C1203 1.350 . S
C1209 H1196 0.929 . S
C1209 C1201 1.433 . S
C1209 N1211 1.384 . S
N1210 C1206 1.427 . S
N1210 C1207 1.384 . S
N1211 C1203 1.427 . S
N1211 C1209 1.384 . S
H1212 C1218 0.930 . S
H1213 C1222 0.930 . S
H1214 C1227 0.929 . S
H1215 C1225 0.929 . S
H1216 C1220 0.929 . S
H1217 C1226 0.929 . S
C1218 H1212 0.930 . S
C1218 C1219 1.367 . S
C1218 C1226 1.378 . S
C1219 C1218 1.367 . S
C1219 C1227 1.433 . S
C1220 H1216 0.929 . S
C1220 C1222 1.378 . S
C1220 C1224 1.350 . S
C1221 C1224 1.463 . S
C1221 C1226 1.350 . S
C1221 N1229 1.427 . S
C1222 H1213 0.930 . S
C1222 C1220 1.378 . S
C1222 C1223 1.367 . S
C1223 C1222 1.367 . S
C1223 C1225 1.433 . S
C1224 C1220 1.350 . S
C1224 C1221 1.463 . S
C1224 N1228 1.427 . S
C1225 H1215 0.929 . S
C1225 C1223 1.433 . S
C1225 N1228 1.384 . S
C1226 H1217 0.929 . S
C1226 C1218 1.378 . S
C1226 C1221 1.350 . S
C1227 H1214 0.929 . S
C1227 C1219 1.433 . S
C1227 N1229 1.384 . S
N1228 C1224 1.427 . S
N1228 C1225 1.384 . S
N1229 C1221 1.427 . S
N1229 C1227 1.384 . S
H1230 C1236 0.930 . S
H1231 C1240 0.930 . S
H1232 C1245 0.929 . S
H1233 C1243 0.929 . S
H1234 C1238 0.929 . S
H1235 C1244 0.929 . S
C1236 H1230 0.930 . S
C1236 C1237 1.367 . S
C1236 C1244 1.378 . S
C1237 C1236 1.367 . S
C1237 C1245 1.433 . S
C1238 H1234 0.929 . S
C1238 C1240 1.378 . S
C1238 C1242 1.350 . S
C1239 C1242 1.463 . S
C1239 C1244 1.350 . S
C1239 N1247 1.427 . S
C1240 H1231 0.930 . S
C1240 C1238 1.378 . S
C1240 C1241 1.367 . S
C1241 C1240 1.367 . S
C1241 C1243 1.433 . S
C1242 C1238 1.350 . S
C1242 C1239 1.463 . S
C1242 N1246 1.427 . S
C1243 H1233 0.929 . S
C1243 C1241 1.433 . S
C1243 N1246 1.384 . S
C1244 H1235 0.929 . S
C1244 C1236 1.378 . S
C1244 C1239 1.350 . S
C1245 H1232 0.929 . S
C1245 C1237 1.433 . S
C1245 N1247 1.384 . S
N1246 C1242 1.427 . S
N1246 C1243 1.384 . S
N1247 C1239 1.427 . S
N1247 C1245 1.384 . S
C535 C21 1.476 . S
C539 C219 1.476 . S
C553 C252 1.479 . S
C557 C54 1.482 . S
C571 C153 1.482 . S
C575 C87 1.478 . S
C589 C186 1.476 . S
C593 C120 1.481 . S
C607 C285 1.475 . S
C611 C483 1.476 . S
C625 C318 1.479 . S
C629 C516 1.482 . S
C643 C351 1.477 . S
C647 C417 1.482 . S
C661 C450 1.478 . S
C665 C384 1.475 . S
C679 C7 1.417 . S
C683 N101 1.416 . S
C697 C40 1.431 . S
C701 N2 1.424 . S
C715 N35 1.426 . S
C719 C73 1.420 . S
C733 C106 1.416 . S
C737 N68 1.418 . S
C751 N167 1.430 . S
C755 C139 1.432 . S
C769 N200 1.421 . S
C773 C172 1.416 . S
C787 N233 1.426 . S
C791 C205 1.432 . S
C805 N134 1.424 . S
C809 C238 1.418 . S
C823 C271 1.416 . S
C827 N365 1.420 . S
C841 N266 1.420 . S
C845 C304 1.427 . S
C859 C337 1.430 . S
C863 N299 1.423 . S
C877 C370 1.416 . S
C881 N332 1.417 . S
C895 C403 1.432 . S
C899 N431 1.430 . S
C913 C436 1.418 . S
C917 N464 1.425 . S
C931 C469 1.431 . S
C935 N497 1.424 . S
C949 N398 1.431 . S
C953 C502 1.432 . S
C967 N508 1.259 . S
C971 N13 1.263 . S
C985 N46 1.271 . S
C989 N409 1.256 . S
C1003 N442 1.271 . S
C1007 N79 1.256 1_655 S
C1021 N112 1.266 1_565 S
C1025 N475 1.270 . S
C1039 N310 1.269 . S
C1043 N145 1.268 . S
C1057 N178 1.260 . S
C1061 N343 1.273 . S
C1075 N211 1.261 1_655 S
C1079 N376 1.273 . S
C1093 N277 1.269 . S
C1097 N244 1.267 1_565 S
C1111 C150 1.482 . S
C1115 C381 1.481 . S
C1129 C183 1.473 . S
C1133 C282 1.473 . S
C1147 C216 1.473 . S
C1151 C315 1.473 . S
C1165 C348 1.477 . S
C1169 C249 1.479 . S
C1183 C18 1.473 . S
C1187 C447 1.473 . S
C1201 C480 1.474 . S
C1205 C51 1.473 . S
C1219 C84 1.481 . S
C1223 C513 1.480 . S
C1237 C117 1.473 . S
C1241 C414 1.473 . S
