# Generated by pormake.
# Topology umy, (4)-cn, num edge types: 1
# Building blocks:
#     Node 0, Type 0, BuildingBlock: QUQFOY_clean_sbu_1, # of connection points: 4
#     Node 1, Type 0, BuildingBlock: QUQFOY_clean_sbu_1, # of connection points: 4
#     Node 2, Type 0, BuildingBlock: QUQFOY_clean_sbu_1, # of connection points: 4
#     Node 3, Type 0, BuildingBlock: QUQFOY_clean_sbu_1, # of connection points: 4
#     Node 4, Type 0, BuildingBlock: QUQFOY_clean_sbu_1, # of connection points: 4
#     Node 5, Type 0, BuildingBlock: QUQFOY_clean_sbu_1, # of connection points: 4
#     Node 6, Type 0, BuildingBlock: QUQFOY_clean_sbu_1, # of connection points: 4
#     Node 7, Type 0, BuildingBlock: QUQFOY_clean_sbu_1, # of connection points: 4
#     Node 8, Type 0, BuildingBlock: QUQFOY_clean_sbu_1, # of connection points: 4
#     Node 9, Type 0, BuildingBlock: QUQFOY_clean_sbu_1, # of connection points: 4
#     Node 10, Type 0, BuildingBlock: QUQFOY_clean_sbu_1, # of connection points: 4
#     Node 11, Type 0, BuildingBlock: QUQFOY_clean_sbu_1, # of connection points: 4
#     Edge 12, Type (0, 0), BuildingBlock: KIFKEQ_clean_linker_1, # of connection points: 2
#     Edge 13, Type (0, 0), BuildingBlock: KIFKEQ_clean_linker_1, # of connection points: 2
#     Edge 14, Type (0, 0), BuildingBlock: KIFKEQ_clean_linker_1, # of connection points: 2
#     Edge 15, Type (0, 0), BuildingBlock: KIFKEQ_clean_linker_1, # of connection points: 2
#     Edge 16, Type (0, 0), BuildingBlock: KIFKEQ_clean_linker_1, # of connection points: 2
#     Edge 17, Type (0, 0), BuildingBlock: KIFKEQ_clean_linker_1, # of connection points: 2
#     Edge 18, Type (0, 0), BuildingBlock: KIFKEQ_clean_linker_1, # of connection points: 2
#     Edge 19, Type (0, 0), BuildingBlock: KIFKEQ_clean_linker_1, # of connection points: 2
#     Edge 20, Type (0, 0), BuildingBlock: KIFKEQ_clean_linker_1, # of connection points: 2
#     Edge 21, Type (0, 0), BuildingBlock: KIFKEQ_clean_linker_1, # of connection points: 2
#     Edge 22, Type (0, 0), BuildingBlock: KIFKEQ_clean_linker_1, # of connection points: 2
#     Edge 23, Type (0, 0), BuildingBlock: KIFKEQ_clean_linker_1, # of connection points: 2
#     Edge 24, Type (0, 0), BuildingBlock: KIFKEQ_clean_linker_1, # of connection points: 2
#     Edge 25, Type (0, 0), BuildingBlock: KIFKEQ_clean_linker_1, # of connection points: 2
#     Edge 26, Type (0, 0), BuildingBlock: KIFKEQ_clean_linker_1, # of connection points: 2
#     Edge 27, Type (0, 0), BuildingBlock: KIFKEQ_clean_linker_1, # of connection points: 2
#     Edge 28, Type (0, 0), BuildingBlock: KIFKEQ_clean_linker_1, # of connection points: 2
#     Edge 29, Type (0, 0), BuildingBlock: KIFKEQ_clean_linker_1, # of connection points: 2
#     Edge 30, Type (0, 0), BuildingBlock: KIFKEQ_clean_linker_1, # of connection points: 2
#     Edge 31, Type (0, 0), BuildingBlock: KIFKEQ_clean_linker_1, # of connection points: 2
#     Edge 32, Type (0, 0), BuildingBlock: KIFKEQ_clean_linker_1, # of connection points: 2
#     Edge 33, Type (0, 0), BuildingBlock: KIFKEQ_clean_linker_1, # of connection points: 2
#     Edge 34, Type (0, 0), BuildingBlock: KIFKEQ_clean_linker_1, # of connection points: 2
#     Edge 35, Type (0, 0), BuildingBlock: KIFKEQ_clean_linker_1, # of connection points: 2
# Relax obj value: 0.088
# Max RMSD: 0.117
# Mean RMSD: 0.117
data_MOF--net-umy--node1-QUQFOY_clean_sbu_1--edge1-KIFKEQ_clean_linker_1
_symmetry_space_group_name_H-M    P1
_symmetry_Int_Tables_number       1
_symmetry_cell_setting            triclinic
loop_
_symmetry_equiv_pos_as_xyz
'x, y, z'
_cell_length_a     41.475533
_cell_length_b     41.478598
_cell_length_c     52.495231
_cell_angle_alpha  89.974852
_cell_angle_beta   90.059059
_cell_angle_gamma 119.97274
loop_
_atom_site_label
_atom_site_type_symbol
_atom_site_fract_x
_atom_site_fract_y
_atom_site_fract_z
_atom_type_partial_charge
O0 O 1.02029 0.33134 0.14777 0.0
Cd1 Cd 0.07236 0.37779 0.14244 0.0
Cd2 Cd 0.08722 0.32541 0.12281 0.0
O3 O 0.03086 0.2901 0.12873 0.0
O4 O 0.06519 0.42166 0.14635 0.0
O5 O 0.0853 0.40931 0.11073 0.0
C6 C 0.07641 0.43061 0.12318 0.0
C7 C 0.11655 0.3219 0.08551 0.0
C8 C 1.00903 0.29806 0.14065 0.0
C9 C 0.12722 0.36501 0.17108 0.0
O10 O 0.11983 0.33922 0.1551 0.0
O11 O 0.11264 0.38549 0.1688 0.0
O12 O 0.10376 0.29576 0.10229 0.0
O13 O 0.11145 0.3498 0.08935 0.0
O14 O 0.705 0.01485 0.31472 0.0
Cd15 Cd 0.71118 0.06716 0.30941 0.0
Cd16 Cd 0.77776 0.08108 0.28946 0.0
O17 O 0.7564 0.02468 0.29546 0.0
O18 O 0.66036 0.06049 0.31351 0.0
O19 O 0.69248 0.08012 0.27773 0.0
C20 C 0.66243 0.07148 0.29029 0.0
C21 C 0.80969 0.11021 0.25186 0.0
C22 C 0.72665 1.00317 0.30751 0.0
C23 C 0.77937 0.12145 0.33778 0.0
O24 O 0.79734 0.11369 0.32167 0.0
O25 O 0.74434 0.10733 0.33565 0.0
O26 O 0.82336 0.09731 0.26836 0.0
O27 O 0.77687 0.1053 0.25616 0.0
O28 O 0.69939 0.69843 0.48432 0.0
Cd29 Cd 0.65247 0.70256 0.47766 0.0
Cd30 Cd 0.70368 0.77178 0.4592 0.0
O31 O 0.74023 0.75282 0.46799 0.0
O32 O 0.60851 0.65158 0.4812 0.0
O33 O 0.62342 0.68315 0.445 0.0
C34 C 0.60123 0.65338 0.45754 0.0
C35 C 0.70946 0.80376 0.42104 0.0
C36 C 0.73287 0.72248 0.47895 0.0
C37 C 0.6589 0.76909 0.50517 0.0
O38 O 0.68445 0.78917 0.48948 0.0
O39 O 0.64206 0.73384 0.50339 0.0
O40 O 0.73377 0.81818 0.439 0.0
O41 O 0.68225 0.7702 0.42423 0.0
O42 O 1.01969 0.6954 0.64816 0.0
Cd43 Cd 0.96907 0.64722 0.64352 0.0
Cd44 Cd 0.9477 0.69712 0.62572 0.0
O45 O 1.00321 0.735 0.63353 0.0
O46 O 0.97966 0.60543 0.64648 0.0
O47 O 0.95603 0.61577 0.61174 0.0
C48 C 0.9672 0.5958 0.6236 0.0
C49 C 0.91917 0.70423 0.5891 0.0
C50 C 0.0276 0.72859 0.64326 0.0
C51 C 0.90954 0.65189 0.67287 0.0
O52 O 0.91258 0.67609 0.65672 0.0
O53 O 0.92946 0.63665 0.67099 0.0
O54 O 0.92927 0.72732 0.60782 0.0
O55 O 0.9265 0.67747 0.59063 0.0
O56 O 0.33765 0.01421 0.81466 0.0
Cd57 Cd 0.33307 0.96265 0.80879 0.0
Cd58 Cd 0.26486 0.94729 0.78922 0.0
O59 O 0.28568 1.0035 0.79571 0.0
O60 O 0.38442 0.9708 0.81329 0.0
O61 O 0.35325 0.95148 0.77711 0.0
C62 C 0.3832 0.96058 0.78996 0.0
C63 C 0.23051 0.91847 0.75221 0.0
C64 C 0.31541 0.02531 0.80772 0.0
C65 C 0.26558 0.90647 0.83691 0.0
O66 O 0.24696 0.91405 0.82121 0.0
O67 O 0.30067 0.92142 0.8346 0.0
O68 O 0.2178 0.93089 0.7697 0.0
O69 O 0.26372 0.92372 0.75516 0.0
O70 O 0.33754 0.33035 0.98209 0.0
Cd71 Cd 0.38413 0.32512 0.97624 0.0
Cd72 Cd 0.33168 0.25796 0.95639 0.0
O73 O 0.29627 0.27882 0.96278 0.0
O74 O 0.42775 0.37619 0.98048 0.0
O75 O 0.41528 0.34458 0.94446 0.0
C76 C 0.4365 0.37455 0.95716 0.0
C77 C 0.32808 0.22557 0.91883 0.0
C78 C 0.30423 0.30842 0.97495 0.0
C79 C 0.37214 0.25723 0.00414 0.0
O80 O 0.34601 0.23895 0.98833 0.0
O81 O 0.3925 0.2923 0.00199 0.0
O82 O 0.30203 0.21197 0.93567 0.0
O83 O 0.35588 0.25858 0.92275 0.0
O84 O 0.70957 0.01831 0.6888 0.0
Cd85 Cd 0.66033 0.96819 0.69187 0.0
Cd86 Cd 0.70737 0.94262 0.70865 0.0
O87 O 0.74702 0.99693 0.69944 0.0
O88 O 0.61953 0.98028 0.68923 0.0
O89 O 0.62793 0.95384 0.72321 0.0
C90 C 0.60887 0.96636 0.71167 0.0
C91 C 0.715 0.91456 0.74537 0.0
C92 C 0.74221 0.02336 0.69176 0.0
C93 C 0.66134 0.90708 0.66158 0.0
O94 O 0.68347 0.90696 0.67829 0.0
O95 O 0.64933 0.92983 0.66321 0.0
O96 O 0.73664 0.92259 0.72596 0.0
O97 O 0.68936 0.92355 0.7444 0.0
O98 O 0.70591 0.69642 0.85307 0.0
Cd99 Cd 0.70822 0.64821 0.85804 0.0
Cd100 Cd 0.77906 0.69771 0.87594 0.0
O101 O 0.76208 0.73595 0.86753 0.0
O102 O 0.65587 0.60655 0.85484 0.0
O103 O 0.68934 0.61689 0.88983 0.0
C104 C 0.65835 0.59697 0.8778 0.0
C105 C 0.81294 0.70377 0.91329 0.0
C106 C 0.73135 0.72962 0.85773 0.0
C107 C 0.77257 0.65238 0.8291 0.0
O108 O 0.79368 0.67658 0.84527 0.0
O109 O 0.73742 0.63736 0.83084 0.0
O110 O 0.82695 0.72719 0.89481 0.0
O111 O 0.77883 0.67728 0.91107 0.0
O112 O 0.02546 0.69906 0.01884 0.0
Cd113 Cd 0.07732 0.70428 0.02459 0.0
Cd114 Cd 0.09215 0.77159 0.0443 0.0
O115 O 0.03593 0.75089 0.0378 0.0
O116 O 0.0697 0.65311 0.02041 0.0
O117 O 0.08926 0.68487 0.05636 0.0
C118 C 0.08028 0.6548 0.04371 0.0
C119 C 0.121 0.80405 0.08186 0.0
C120 C 1.0142 0.72117 0.02578 0.0
C121 C 0.13295 0.77205 0.99647 0.0
O122 O 0.12534 0.7904 0.01235 0.0
O123 O 0.1182 0.73696 0.99864 0.0
O124 O 0.10858 0.81765 0.06497 0.0
O125 O 0.11575 0.771 0.07799 0.0
O126 O 0.34143 0.01615 0.18563 0.0
Cd127 Cd 0.38782 0.06822 0.19119 0.0
Cd128 Cd 0.33531 0.08258 0.21108 0.0
O129 O 0.30016 0.02618 0.20516 0.0
O130 O 0.43173 0.06113 0.18718 0.0
O131 O 0.4192 0.08072 0.22297 0.0
C132 C 0.44054 0.07196 0.21043 0.0
C133 C 0.33211 0.11209 0.24838 0.0
C134 C 0.30817 1.00461 0.19296 0.0
C135 C 0.37465 0.12304 0.16292 0.0
O136 O 0.34869 0.11515 0.17885 0.0
O137 O 0.39547 0.10882 0.16513 0.0
O138 O 0.30569 0.09895 0.23178 0.0
O139 O 0.36007 0.10714 0.2444 0.0
O140 O 0.33845 0.3336 0.35013 0.0
Cd141 Cd 0.33173 0.37908 0.35718 0.0
Cd142 Cd 0.26626 0.32593 0.37736 0.0
O143 O 0.28873 0.29192 0.37091 0.0
O144 O 0.38145 0.42472 0.35313 0.0
O145 O 0.35113 0.40804 0.38981 0.0
C146 C 0.38008 0.43132 0.37698 0.0
C147 C 0.23527 0.32323 0.41537 0.0
C148 C 0.31776 0.30035 0.35787 0.0
C149 C 0.26254 0.36514 0.33013 0.0
O150 O 0.24526 0.33831 0.34559 0.0
O151 O 0.2974 0.3868 0.33242 0.0
O152 O 0.22155 0.29629 0.39917 0.0
O153 O 0.26773 0.35141 0.41058 0.0
O154 O 0.02292 0.33144 0.51848 0.0
Cd155 Cd 0.97051 0.32465 0.52458 0.0
Cd156 Cd 0.95785 0.2587 0.54459 0.0
O157 O 1.01448 0.28136 0.53893 0.0
O158 O 0.97631 0.37508 0.52015 0.0
O159 O 0.9586 0.34389 0.55639 0.0
C160 C 0.96635 0.37351 0.54357 0.0
C161 C 0.92905 0.22823 0.58252 0.0
C162 C 0.03535 0.31066 0.52624 0.0
C163 C 0.91626 0.25564 0.49676 0.0
O164 O 0.92535 0.23807 0.51236 0.0
O165 O 0.92941 0.2905 0.49919 0.0
O166 O 0.94328 0.21462 0.56706 0.0
O167 O 0.93224 0.26004 0.577 0.0
H168 H 0.06168 0.58816 0.02167 0.0
H169 H 0.10209 0.6493 0.09211 0.0
H170 H 0.06231 0.53504 0.04079 0.0
H171 H 0.10351 0.59626 0.11115 0.0
H172 H 0.05819 0.47919 0.14481 0.0
H173 H 0.06076 0.53386 0.12568 0.0
H174 H 0.10344 0.51372 0.05609 0.0
H175 H 0.10009 0.45837 0.07512 0.0
C176 C 0.07095 0.59038 0.04121 0.0
C177 C 0.08171 0.62297 0.05539 0.0
C178 C 0.07157 0.55995 0.05213 0.0
C179 C 0.08298 0.5613 0.07752 0.0
C180 C 0.0941 0.59407 0.09164 0.0
C181 C 0.09346 0.62455 0.0807 0.0
C182 C 0.06818 0.4864 0.12543 0.0
C183 C 0.07881 0.46429 0.11147 0.0
C184 C 0.06991 0.51797 0.11451 0.0
C185 C 0.08235 0.5283 0.08934 0.0
C186 C 0.09328 0.50634 0.07542 0.0
C187 C 0.09152 0.47469 0.08636 0.0
H188 H 0.5958 0.05347 0.31208 0.0
H189 H 0.65789 0.09448 0.24208 0.0
H190 H 0.54333 0.0553 0.29287 0.0
H191 H 0.60553 0.09712 0.22297 0.0
H192 H 0.48902 0.0537 0.18869 0.0
H193 H 0.5432 0.05533 0.20794 0.0
H194 H 0.52284 0.09717 0.27785 0.0
H195 H 0.46796 0.09473 0.2587 0.0
C196 C 0.59837 0.06314 0.29262 0.0
C197 C 0.63103 0.0737 0.27859 0.0
C198 C 0.56832 0.06444 0.28165 0.0
C199 C 0.57013 0.07637 0.25636 0.0
C200 C 0.60297 0.08732 0.24239 0.0
C201 C 0.63308 0.08598 0.25338 0.0
C202 C 0.49609 0.06332 0.20817 0.0
C203 C 0.47403 0.07396 0.22219 0.0
C204 C 0.52738 0.06451 0.21915 0.0
C205 C 0.53749 0.07641 0.24445 0.0
C206 C 0.51561 0.0874 0.25842 0.0
C207 C 0.48424 0.08618 0.24741 0.0
H208 H 0.5918 0.63211 0.40759 0.0
H209 H 0.53623 0.60424 0.48037 0.0
H210 H 0.53849 0.57853 0.38839 0.0
H211 H 0.48168 0.55243 0.46109 0.0
H212 H 0.40285 0.44002 0.42655 0.0
H213 H 0.45628 0.4935 0.44567 0.0
H214 H 0.47893 0.55218 0.37381 0.0
H215 H 0.42727 0.49747 0.3545 0.0
C216 C 0.56784 0.61478 0.41936 0.0
C217 C 0.5682 0.62215 0.44546 0.0
C218 C 0.537 0.58412 0.40836 0.0
C219 C 0.50533 0.56066 0.42306 0.0
C220 C 0.50563 0.56892 0.44913 0.0
C221 C 0.53685 0.59892 0.46022 0.0
C222 C 0.41936 0.46444 0.41494 0.0
C223 C 0.41107 0.46457 0.38905 0.0
C224 C 0.44994 0.49537 0.42591 0.0
C225 C 0.4724 0.52763 0.41141 0.0
C226 C 0.46323 0.5278 0.38558 0.0
C227 C 0.43329 0.4965 0.37449 0.0
H228 H 0.94148 0.56684 0.57604 0.0
H229 H 0.98934 0.5496 0.64422 0.0
H230 H 0.93889 0.51195 0.55682 0.0
H231 H 0.98746 0.49539 0.6249 0.0
H232 H 0.9466 0.37952 0.59244 0.0
H233 H 0.94466 0.43221 0.61155 0.0
H234 H 0.98044 0.49176 0.54022 0.0
H235 H 0.98163 0.43896 0.52104 0.0
C236 C 0.95155 0.55143 0.58689 0.0
C237 C 0.96566 0.56267 0.61165 0.0
C238 C 0.95021 0.52005 0.57585 0.0
C239 C 0.96293 0.49918 0.58932 0.0
C240 C 0.9769 0.51042 0.61411 0.0
C241 C 0.97824 0.54173 0.62512 0.0
C242 C 0.9539 0.40381 0.58083 0.0
C243 C 0.96436 0.40503 0.55524 0.0
C244 C 0.95298 0.4341 0.59181 0.0
C245 C 0.96248 0.46632 0.57744 0.0
C246 C 0.97248 0.46727 0.55176 0.0
C247 C 0.97341 0.43703 0.54081 0.0
H248 H 0.57872 0.93913 0.75872 0.0
H249 H 0.56321 0.98923 0.69108 0.0
H250 H 0.52319 0.93569 0.7775 0.0
H251 H 0.50827 0.98636 0.70995 0.0
H252 H 0.44857 0.97675 0.81307 0.0
H253 H 0.50233 0.97697 0.79432 0.0
H254 H 0.44456 0.94198 0.72228 0.0
H255 H 0.39082 0.94236 0.74098 0.0
C256 C 0.56357 0.94951 0.74789 0.0
C257 C 0.57547 0.96451 0.72342 0.0
C258 C 0.53181 0.94768 0.75869 0.0
C259 C 0.5112 0.9607 0.74521 0.0
C260 C 0.52312 0.97557 0.72071 0.0
C261 C 0.55484 0.97748 0.70997 0.0
C262 C 0.44724 0.96903 0.79323 0.0
C263 C 0.41541 0.95967 0.7785 0.0
C264 C 0.47803 0.96891 0.78252 0.0
C265 C 0.47782 0.95951 0.75678 0.0
C266 C 0.44583 0.94981 0.74209 0.0
C267 C 0.41495 0.94985 0.75283 0.0
H268 H 0.48557 0.44052 0.97957 0.0
H269 H 0.46293 0.38052 0.90849 0.0
H270 H 0.53956 0.49346 0.96055 0.0
H271 H 0.51754 0.43338 0.88954 0.0
H272 H 0.59041 0.55065 0.85672 0.0
H273 H 0.5378 0.49653 0.87586 0.0
H274 H 0.60169 0.51357 0.94463 0.0
H275 H 0.65429 0.56835 0.92558 0.0
C276 C 0.49223 0.43852 0.9599 0.0
C277 C 0.46982 0.4063 0.94552 0.0
C278 C 0.52339 0.46884 0.94904 0.0
C279 C 0.53296 0.46774 0.92351 0.0
C280 C 0.51071 0.43536 0.90917 0.0
C281 C 0.4795 0.40498 0.92006 0.0
C282 C 0.59331 0.54291 0.87593 0.0
C283 C 0.62656 0.56393 0.88965 0.0
C284 C 0.56318 0.51165 0.88684 0.0
C285 C 0.56548 0.50058 0.91177 0.0
C286 C 0.59881 0.52155 0.92549 0.0
C287 C 0.62902 0.55287 0.91454 0.0
H288 H 0.16189 0.37868 0.05314 0.0
H289 H 0.12179 0.26254 0.06887 0.0
H290 H 0.20435 0.37802 0.02098 0.0
H291 H 0.16406 0.26192 0.03708 0.0
H292 H 0.22892 0.26236 0.96973 0.0
H293 H 0.17966 0.2672 0.99159 0.0
H294 H 0.26137 0.37294 0.02333 0.0
H295 H 0.31062 0.3684 0.0013 0.0
C296 C 0.16166 0.35288 0.04944 0.0
C297 C 0.13861 0.32072 0.06366 0.0
C298 C 0.18612 0.35256 0.03114 0.0
C299 C 0.18769 0.31994 0.02648 0.0
C300 C 0.16331 0.28741 0.0399 0.0
C301 C 0.13921 0.28783 0.0583 0.0
C302 C 0.23637 0.28707 0.98089 0.0
C303 C 0.27387 0.31477 0.98398 0.0
C304 C 0.2081 0.28971 0.99356 0.0
C305 C 0.2166 0.3202 0.0095 0.0
C306 C 0.25379 0.34916 0.01112 0.0
C307 C 0.28209 0.34645 0.99855 0.0
H308 H 0.79755 0.15552 0.21986 0.0
H309 H 0.87389 0.11535 0.23441 0.0
H310 H 0.83998 0.19796 0.18742 0.0
H311 H 0.9161 0.15761 0.20235 0.0
H312 H 0.97963 0.22278 0.13501 0.0
H313 H 0.92576 0.17341 0.15695 0.0
H314 H 0.90194 0.25493 0.1893 0.0
H315 H 0.95548 0.3043 0.16717 0.0
C316 C 0.82303 0.15527 0.21584 0.0
C317 C 0.83244 0.13221 0.22982 0.0
C318 C 0.84742 0.17972 0.19737 0.0
C319 C 0.8815 0.18128 0.19231 0.0
C320 C 0.88993 0.15687 0.20548 0.0
C321 C 0.86579 0.13277 0.22404 0.0
C322 C 0.96245 0.23017 0.14631 0.0
C323 C 0.97228 0.26766 0.14956 0.0
C324 C 0.93167 0.20183 0.15903 0.0
C325 C 0.90984 0.21024 0.17519 0.0
C326 C 0.91802 0.24741 0.17693 0.0
C327 C 0.94889 0.27579 0.16429 0.0
H328 H 0.76918 0.86856 0.40515 0.0
H329 H 0.65452 0.79078 0.38647 0.0
H330 H 0.77091 0.91071 0.37226 0.0
H331 H 0.65628 0.83324 0.35329 0.0
H332 H 0.66548 0.94906 0.33254 0.0
H333 H 0.66033 0.8953 0.35507 0.0
H334 H 0.76769 0.92017 0.32604 0.0
H335 H 0.77309 0.97416 0.30361 0.0
C336 C 0.7445 0.86015 0.3937 0.0
C337 C 0.71165 0.82641 0.39854 0.0
C338 C 0.74556 0.88425 0.37469 0.0
C339 C 0.7137 0.87541 0.36016 0.0
C340 C 0.68121 0.84095 0.36429 0.0
C341 C 0.68027 0.81656 0.38318 0.0
C342 C 0.68765 0.94264 0.33045 0.0
C343 C 0.71994 0.96632 0.31651 0.0
C344 C 0.68459 0.91165 0.34331 0.0
C345 C 0.71382 0.90373 0.34263 0.0
C346 C 0.74494 0.92587 0.32725 0.0
C347 C 0.7479 0.95671 0.31426 0.0
H348 H 0.8078 0.77232 0.47784 0.0
H349 H 0.72785 0.66075 0.5019 0.0
H350 H 0.85702 0.76738 0.49978 0.0
H351 H 0.77706 0.65605 0.52399 0.0
H352 H 0.91088 0.76352 0.57708 0.0
H353 H 0.86935 0.76644 0.54561 0.0
H354 H 0.83633 0.65478 0.52108 0.0
H355 H 0.87809 0.65178 0.55287 0.0
C356 C 0.80078 0.74647 0.48738 0.0
C357 C 0.7637 0.71709 0.48832 0.0
C358 C 0.829 0.74374 0.50009 0.0
C359 C 0.82091 0.71149 0.5139 0.0
C360 C 0.78432 0.68121 0.51343 0.0
C361 C 0.75603 0.684 0.50084 0.0
C362 C 0.89522 0.73975 0.56473 0.0
C363 C 0.89765 0.70733 0.56759 0.0
C364 C 0.87155 0.74153 0.54654 0.0
C365 C 0.84942 0.71081 0.53084 0.0
C366 C 0.85281 0.6788 0.53303 0.0
C367 C 0.87688 0.67717 0.55112 0.0
H368 H 0.05137 0.80329 0.64126 0.0
H369 H 0.08559 0.72542 0.66577 0.0
H370 H 0.10536 0.85353 0.6626 0.0
H371 H 0.1391 0.77551 0.68743 0.0
H372 H 0.24245 0.87643 0.71707 0.0
H373 H 0.1984 0.83419 0.68524 0.0
H374 H 0.11948 0.86808 0.70749 0.0
H375 H 0.16337 0.91032 0.73884 0.0
C376 C 0.07071 0.79693 0.65079 0.0
C377 C 0.06379 0.76013 0.65203 0.0
C378 C 0.10157 0.82576 0.66318 0.0
C379 C 0.12632 0.81852 0.67705 0.0
C380 C 0.12078 0.7822 0.67682 0.0
C381 C 0.0899 0.75335 0.66448 0.0
C382 C 0.21596 0.87532 0.7148 0.0
C383 C 0.20635 0.89658 0.73061 0.0
C384 C 0.19063 0.85095 0.69668 0.0
C385 C 0.1553 0.84759 0.69384 0.0
C386 C 0.14655 0.87022 0.70887 0.0
C387 C 0.17168 0.89431 0.72702 0.0
H388 H 0.37536 0.07908 0.83402 0.0
H389 H 0.26899 0.05422 0.80265 0.0
H390 H 0.37967 0.1327 0.85615 0.0
H391 H 0.2736 0.10816 0.82461 0.0
H392 H 0.26883 0.16098 0.90206 0.0
H393 H 0.26838 0.11835 0.87011 0.0
H394 H 0.38433 0.1946 0.85399 0.0
H395 H 0.38483 0.23747 0.8863 0.0
C396 C 0.35329 0.08551 0.83133 0.0
C397 C 0.32158 0.06194 0.8168 0.0
C398 C 0.35586 0.11643 0.84396 0.0
C399 C 0.32674 0.12446 0.84243 0.0
C400 C 0.29623 0.10238 0.82652 0.0
C401 C 0.29372 0.07156 0.8138 0.0
C402 C 0.29412 0.16901 0.89144 0.0
C403 C 0.32693 0.20254 0.89685 0.0
C404 C 0.2938 0.14463 0.87296 0.0
C405 C 0.32635 0.15299 0.85949 0.0
C406 C 0.35887 0.18722 0.86417 0.0
C407 C 0.3591 0.21187 0.88257 0.0
H408 H 0.66911 0.7268 0.83738 0.0
H409 H 0.78392 0.80379 0.85647 0.0
H410 H 0.66545 0.77618 0.81476 0.0
H411 H 0.78004 0.85324 0.83401 0.0
H412 H 0.77282 0.90317 0.75587 0.0
H413 H 0.7759 0.86268 0.78809 0.0
H414 H 0.66795 0.83728 0.81633 0.0
H415 H 0.66477 0.87798 0.78377 0.0
C416 C 0.69334 0.75444 0.83727 0.0
C417 C 0.72696 0.76112 0.8485 0.0
C418 C 0.69116 0.78284 0.82438 0.0
C419 C 0.72259 0.81856 0.82229 0.0
C420 C 0.75549 0.82587 0.83493 0.0
C421 C 0.75762 0.79753 0.84796 0.0
C422 C 0.74993 0.88942 0.76916 0.0
C423 C 0.71845 0.89365 0.76714 0.0
C424 C 0.75182 0.86637 0.7878 0.0
C425 C 0.72215 0.84666 0.8048 0.0
C426 C 0.69116 0.85187 0.80339 0.0
C427 C 0.68943 0.87533 0.78484 0.0
H428 H 0.87922 0.76309 0.92746 0.0
H429 H 0.8004 0.64979 0.94855 0.0
H430 H 0.92222 0.76517 0.95984 0.0
H431 H 0.84376 0.65189 0.98118 0.0
H432 H 0.9593 0.65978 0.00134 0.0
H433 H 0.90554 0.65479 0.97883 0.0
H434 H 0.93253 0.76354 0.00627 0.0
H435 H 0.98646 0.76875 0.02871 0.0
C436 C 0.87081 0.73878 0.93931 0.0
C437 C 0.83646 0.70621 0.93533 0.0
C438 C 0.8954 0.74006 0.95802 0.0
C439 C 0.88646 0.70867 0.9731 0.0
C440 C 0.85153 0.67645 0.96976 0.0
C441 C 0.82663 0.67533 0.95119 0.0
C442 C 0.95336 0.68232 0.00307 0.0
C443 C 0.97756 0.71487 0.01661 0.0
C444 C 0.92238 0.67936 0.99023 0.0
C445 C 0.91501 0.70897 0.99049 0.0
C446 C 0.93778 0.74047 0.0054 0.0
C447 C 0.96858 0.74333 0.0184 0.0
H448 H 0.23285 0.97518 0.19826 0.0
H449 H 0.31466 0.95102 0.16667 0.0
H450 H 0.18363 0.92113 0.17631 0.0
H451 H 0.26544 0.89726 0.14456 0.0
H452 H 0.12613 0.86852 0.09869 0.0
H453 H 0.16822 0.91113 0.13071 0.0
H454 H 0.20834 0.83513 0.14674 0.0
H455 H 0.16604 0.79225 0.11438 0.0
C456 C 0.24033 0.95796 0.18709 0.0
C457 C 0.27786 0.96782 0.18401 0.0
C458 C 0.21209 0.92707 0.17436 0.0
C459 C 0.22063 0.90516 0.15838 0.0
C460 C 0.25783 0.9134 0.15679 0.0
C461 C 0.28611 0.9444 0.16942 0.0
C462 C 0.14346 0.86054 0.1093 0.0
C463 C 0.14287 0.82707 0.10386 0.0
C464 C 0.16746 0.88491 0.12783 0.0
C465 C 0.19175 0.87662 0.14129 0.0
C466 C 0.19018 0.84245 0.13656 0.0
C467 C 0.1658 0.81781 0.11814 0.0
H468 H 0.38974 0.1594 0.27952 0.0
H469 H 0.27248 0.11608 0.26594 0.0
H470 H 0.38927 0.2025 0.31125 0.0
H471 H 0.27204 0.1589 0.29737 0.0
H472 H 0.27387 0.22504 0.36451 0.0
H473 H 0.27928 0.17596 0.34286 0.0
H474 H 0.38204 0.25854 0.30816 0.0
H475 H 0.3769 0.30768 0.32993 0.0
C476 C 0.36375 0.15859 0.28363 0.0
C477 C 0.33119 0.13446 0.27011 0.0
C478 C 0.36354 0.18341 0.30168 0.0
C479 C 0.33065 0.18422 0.30681 0.0
C480 C 0.29777 0.15877 0.29415 0.0
C481 C 0.29807 0.13434 0.27597 0.0
C482 C 0.29807 0.23277 0.35272 0.0
C483 C 0.32471 0.27043 0.34875 0.0
C484 C 0.30103 0.20459 0.34018 0.0
C485 C 0.33083 0.21334 0.32352 0.0
C486 C 0.35883 0.25079 0.32095 0.0
C487 C 0.35577 0.27902 0.33337 0.0
H488 H 0.24661 0.38143 0.44625 0.0
H489 H 0.17251 0.26386 0.43416 0.0
H490 H 0.20414 0.38157 0.47861 0.0
H491 H 0.13028 0.26404 0.46617 0.0
H492 H 0.0872 0.36975 0.49832 0.0
H493 H 0.14116 0.37455 0.47637 0.0
H494 H 0.12119 0.27203 0.51147 0.0
H495 H 0.06694 0.26692 0.53326 0.0
C496 C 0.22165 0.35551 0.45082 0.0
C497 C 0.21283 0.32268 0.43753 0.0
C498 C 0.19723 0.35564 0.46923 0.0
C499 C 0.16374 0.32285 0.47493 0.0
C500 C 0.15599 0.28971 0.46251 0.0
C501 C 0.18013 0.28966 0.444 0.0
C502 C 0.09474 0.34862 0.50183 0.0
C503 C 0.07233 0.31767 0.51731 0.0
C504 C 0.12585 0.35148 0.4893 0.0
C505 C 0.13521 0.3234 0.49189 0.0
C506 C 0.11435 0.29381 0.50875 0.0
C507 C 0.08335 0.29103 0.52137 0.0
H508 H 0.94495 0.18644 0.61446 0.0
H509 H 0.86323 0.21931 0.59965 0.0
H510 H 0.90484 0.14301 0.64688 0.0
H511 H 0.82124 0.17352 0.63019 0.0
H512 H 0.74983 0.0929 0.68947 0.0
H513 H 0.79951 0.14812 0.66891 0.0
H514 H 0.85485 0.08608 0.65019 0.0
H515 H 0.80703 0.03263 0.67252 0.0
C516 C 0.9183 0.18435 0.6183 0.0
C517 C 0.90711 0.20611 0.6046 0.0
C518 C 0.89491 0.15901 0.63667 0.0
C519 C 0.85897 0.1536 0.64103 0.0
C520 C 0.84863 0.17679 0.62791 0.0
C521 C 0.87265 0.20308 0.61019 0.0
C522 C 0.77321 0.09159 0.68145 0.0
C523 C 0.77454 0.05845 0.68264 0.0
C524 C 0.80159 0.12315 0.66931 0.0
C525 C 0.83144 0.12199 0.65732 0.0
C526 C 0.83314 0.08896 0.65945 0.0
C527 C 0.8054 0.0579 0.67222 0.0
H528 H 0.19304 0.31497 0.31328 0.0
H529 H 0.2866 0.42393 0.29695 0.0
H530 H 0.1623 0.31803 0.27455 0.0
H531 H 0.25522 0.42697 0.25816 0.0
H532 H 0.15821 0.42249 0.20558 0.0
H533 H 0.19192 0.4256 0.24478 0.0
H534 H 0.18157 0.31934 0.2268 0.0
H535 H 0.14855 0.31626 0.18769 0.0
C536 C 0.20687 0.33981 0.30164 0.0
C537 C 0.24241 0.36912 0.30813 0.0
C538 C 0.18931 0.34142 0.27939 0.0
C539 C 0.20661 0.37256 0.26333 0.0
C540 C 0.24136 0.40267 0.27029 0.0
C541 C 0.25928 0.40084 0.29242 0.0
C542 C 0.1635 0.4 0.20988 0.0
C543 C 0.15055 0.36905 0.19357 0.0
C544 C 0.18281 0.40186 0.23224 0.0
C545 C 0.18888 0.37251 0.23885 0.0
C546 C 0.17681 0.34211 0.22225 0.0
C547 C 0.1581 0.3405 0.19979 0.0
H548 H 0.89766 0.18661 0.47929 0.0
H549 H 0.8814 0.27991 0.46384 0.0
H550 H 0.86365 0.15614 0.44056 0.0
H551 H 0.84681 0.24885 0.42506 0.0
H552 H 0.75381 0.15277 0.37271 0.0
H553 H 0.78513 0.1862 0.41179 0.0
H554 H 0.8802 0.17488 0.39286 0.0
H555 H 0.84953 0.14209 0.35387 0.0
C556 C 0.88646 0.20044 0.46782 0.0
C557 C 0.89245 0.23581 0.47458 0.0
C558 C 0.86717 0.18305 0.44558 0.0
C559 C 0.85297 0.20035 0.42978 0.0
C560 C 0.85751 0.23498 0.43698 0.0
C561 C 0.87737 0.25273 0.4591 0.0
C562 C 0.78155 0.15778 0.37677 0.0
C563 C 0.7991 0.14462 0.36022 0.0
C564 C 0.79943 0.17694 0.39908 0.0
C565 C 0.83483 0.18268 0.40539 0.0
C566 C 0.8527 0.17037 0.38856 0.0
C567 C 0.83517 0.1518 0.36615 0.0
H568 H 0.63339 0.91317 0.61571 0.0
H569 H 0.66874 0.84563 0.6565 0.0
H570 H 0.62568 0.87715 0.57702 0.0
H571 H 0.66083 0.80968 0.61794 0.0
H572 H 0.68054 0.84266 0.51113 0.0
H573 H 0.67354 0.87282 0.54893 0.0
H574 H 0.61244 0.76607 0.58615 0.0
H575 H 0.61924 0.73572 0.54832 0.0
C576 C 0.63887 0.89026 0.61655 0.0
C577 C 0.65194 0.88242 0.63912 0.0
C578 C 0.63463 0.8698 0.59438 0.0
C579 C 0.64279 0.84075 0.59447 0.0
C580 C 0.65405 0.83173 0.61735 0.0
C581 C 0.65879 0.85247 0.6394 0.0
C582 C 0.66514 0.82553 0.52722 0.0
C583 C 0.65073 0.78682 0.52679 0.0
C584 C 0.66093 0.84279 0.5488 0.0
C585 C 0.6426 0.82178 0.5705 0.0
C586 C 0.62695 0.78294 0.56974 0.0
C587 C 0.63074 0.7656 0.54804 0.0
H588 H 0.85297 0.66704 0.67823 0.0
H589 H 0.90975 0.61823 0.71766 0.0
H590 H 0.81646 0.65983 0.71639 0.0
H591 H 0.87324 0.61126 0.75593 0.0
H592 H 0.84435 0.66762 0.82381 0.0
H593 H 0.87363 0.66017 0.78572 0.0
H594 H 0.76823 0.61099 0.74627 0.0
H595 H 0.7387 0.61819 0.78445 0.0
C596 C 0.85733 0.65434 0.69493 0.0
C597 C 0.88445 0.64347 0.69498 0.0
C598 C 0.83624 0.65 0.71673 0.0
C599 C 0.84215 0.63512 0.73912 0.0
C600 C 0.86833 0.62304 0.73894 0.0
C601 C 0.88908 0.6269 0.71701 0.0
C602 C 0.82727 0.65472 0.80715 0.0
C603 C 0.78926 0.64376 0.80709 0.0
C604 C 0.84401 0.65025 0.78539 0.0
C605 C 0.8232 0.63515 0.76304 0.0
C606 C 0.78493 0.62295 0.76322 0.0
C607 C 0.76805 0.62694 0.78511 0.0
H608 H 0.19552 0.88443 0.85376 0.0
H609 H 0.2925 0.87495 0.87073 0.0
H610 H 0.1661 0.85101 0.89282 0.0
H611 H 0.26234 0.84073 0.90986 0.0
H612 H 0.16451 0.74574 0.96227 0.0
H613 H 0.19831 0.77637 0.92312 0.0
H614 H 0.18744 0.87203 0.94087 0.0
H615 H 0.15444 0.84215 0.97995 0.0
C616 C 0.21039 0.87478 0.86561 0.0
C617 C 0.2465 0.88259 0.85919 0.0
C618 C 0.19357 0.85581 0.88803 0.0
C619 C 0.21216 0.84369 0.90435 0.0
C620 C 0.24752 0.84987 0.89751 0.0
C621 C 0.26472 0.86948 0.87519 0.0
C622 C 0.16977 0.7735 0.95796 0.0
C623 C 0.15661 0.79143 0.97417 0.0
C624 C 0.18914 0.79096 0.93563 0.0
C625 C 0.19502 0.82629 0.92898 0.0
C626 C 0.18286 0.84459 0.94551 0.0
C627 C 0.16414 0.8275 0.96794 0.0
H628 H 0.43235 0.15527 0.12867 0.0
H629 H 0.32519 0.14349 0.14643 0.0
H630 H 0.43508 0.1892 0.08966 0.0
H631 H 0.32789 0.17667 0.1075 0.0
H632 H 0.32375 0.18708 0.0207 0.0
H633 H 0.32766 0.15697 0.05947 0.0
H634 H 0.43447 0.25255 0.07675 0.0
H635 H 0.43052 0.28336 0.03791 0.0
C636 C 0.40958 0.16015 0.12439 0.0
C637 C 0.37847 0.14652 0.14059 0.0
C638 C 0.41123 0.17959 0.10214 0.0
C639 C 0.38151 0.1851 0.09557 0.0
C640 C 0.35096 0.17238 0.11206 0.0
C641 C 0.34956 0.15356 0.13441 0.0
C642 C 0.34831 0.20166 0.03255 0.0
C643 C 0.37673 0.23776 0.02628 0.0
C644 C 0.3504 0.18444 0.05481 0.0
C645 C 0.38119 0.20264 0.07111 0.0
C646 C 0.41046 0.23802 0.06441 0.0
C647 C 0.40811 0.2556 0.04227 0.0
loop_
_geom_bond_atom_site_label_1
_geom_bond_atom_site_label_2
_geom_bond_distance
_geom_bond_site_symmetry_2
_ccdc_geom_bond_type
O0 Cd1 2.223 . S
O0 C8 1.315 . S
Cd1 O0 2.223 . S
Cd1 O4 2.297 . S
Cd1 O5 2.439 . S
Cd1 O11 2.240 . S
Cd2 O3 2.240 . S
Cd2 O10 2.223 . S
Cd2 O12 2.297 . S
Cd2 O13 2.439 . S
O3 Cd2 2.240 . S
O3 C8 1.279 . S
O4 Cd1 2.297 . S
O4 C6 1.247 . S
O5 Cd1 2.439 . S
O5 C6 1.208 . S
C6 O4 1.247 . S
C6 O5 1.208 . S
C7 O12 1.247 . S
C7 O13 1.208 . S
C8 O0 1.315 . S
C8 O3 1.279 . S
C9 O10 1.315 . S
C9 O11 1.279 . S
O10 Cd2 2.223 . S
O10 C9 1.315 . S
O11 Cd1 2.240 . S
O11 C9 1.279 . S
O12 Cd2 2.297 . S
O12 C7 1.247 . S
O13 Cd2 2.439 . S
O13 C7 1.208 . S
O14 Cd15 2.223 . S
O14 C22 1.315 . S
Cd15 O14 2.223 . S
Cd15 O18 2.297 . S
Cd15 O19 2.439 . S
Cd15 O25 2.240 . S
Cd16 O17 2.240 . S
Cd16 O24 2.223 . S
Cd16 O26 2.297 . S
Cd16 O27 2.439 . S
O17 Cd16 2.240 . S
O17 C22 1.279 . S
O18 Cd15 2.297 . S
O18 C20 1.247 . S
O19 Cd15 2.439 . S
O19 C20 1.208 . S
C20 O18 1.247 . S
C20 O19 1.208 . S
C21 O26 1.247 . S
C21 O27 1.208 . S
C22 O14 1.315 . S
C22 O17 1.279 . S
C23 O24 1.315 . S
C23 O25 1.279 . S
O24 Cd16 2.223 . S
O24 C23 1.315 . S
O25 Cd15 2.240 . S
O25 C23 1.279 . S
O26 Cd16 2.297 . S
O26 C21 1.247 . S
O27 Cd16 2.439 . S
O27 C21 1.208 . S
O28 Cd29 2.223 . S
O28 C36 1.315 . S
Cd29 O28 2.223 . S
Cd29 O32 2.297 . S
Cd29 O33 2.439 . S
Cd29 O39 2.240 . S
Cd30 O31 2.240 . S
Cd30 O38 2.223 . S
Cd30 O40 2.297 . S
Cd30 O41 2.439 . S
O31 Cd30 2.240 . S
O31 C36 1.279 . S
O32 Cd29 2.297 . S
O32 C34 1.247 . S
O33 Cd29 2.439 . S
O33 C34 1.208 . S
C34 O32 1.247 . S
C34 O33 1.208 . S
C35 O40 1.247 . S
C35 O41 1.208 . S
C36 O28 1.315 . S
C36 O31 1.279 . S
C37 O38 1.315 . S
C37 O39 1.279 . S
O38 Cd30 2.223 . S
O38 C37 1.315 . S
O39 Cd29 2.240 . S
O39 C37 1.279 . S
O40 Cd30 2.297 . S
O40 C35 1.247 . S
O41 Cd30 2.439 . S
O41 C35 1.208 . S
O42 Cd43 2.223 . S
O42 C50 1.315 . S
Cd43 O42 2.223 . S
Cd43 O46 2.297 . S
Cd43 O47 2.439 . S
Cd43 O53 2.240 . S
Cd44 O45 2.240 . S
Cd44 O52 2.223 . S
Cd44 O54 2.297 . S
Cd44 O55 2.439 . S
O45 Cd44 2.240 . S
O45 C50 1.279 . S
O46 Cd43 2.297 . S
O46 C48 1.247 . S
O47 Cd43 2.439 . S
O47 C48 1.208 . S
C48 O46 1.247 . S
C48 O47 1.208 . S
C49 O54 1.247 . S
C49 O55 1.208 . S
C50 O42 1.315 . S
C50 O45 1.279 . S
C51 O52 1.315 . S
C51 O53 1.279 . S
O52 Cd44 2.223 . S
O52 C51 1.315 . S
O53 Cd43 2.240 . S
O53 C51 1.279 . S
O54 Cd44 2.297 . S
O54 C49 1.247 . S
O55 Cd44 2.439 . S
O55 C49 1.208 . S
O56 Cd57 2.223 . S
O56 C64 1.315 . S
Cd57 O56 2.223 . S
Cd57 O60 2.297 . S
Cd57 O61 2.439 . S
Cd57 O67 2.240 . S
Cd58 O59 2.240 . S
Cd58 O66 2.223 . S
Cd58 O68 2.297 . S
Cd58 O69 2.439 . S
O59 Cd58 2.240 . S
O59 C64 1.279 . S
O60 Cd57 2.297 . S
O60 C62 1.247 . S
O61 Cd57 2.439 . S
O61 C62 1.208 . S
C62 O60 1.247 . S
C62 O61 1.208 . S
C63 O68 1.247 . S
C63 O69 1.208 . S
C64 O56 1.315 . S
C64 O59 1.279 . S
C65 O66 1.315 . S
C65 O67 1.279 . S
O66 Cd58 2.223 . S
O66 C65 1.315 . S
O67 Cd57 2.240 . S
O67 C65 1.279 . S
O68 Cd58 2.297 . S
O68 C63 1.247 . S
O69 Cd58 2.439 . S
O69 C63 1.208 . S
O70 Cd71 2.227 . S
O70 C78 1.320 . S
Cd71 O70 2.227 . S
Cd71 O74 2.297 . S
Cd71 O75 2.439 . S
Cd71 O81 2.240 . S
Cd72 O73 2.240 . S
Cd72 O80 2.223 . S
Cd72 O82 2.297 . S
Cd72 O83 2.439 . S
O73 Cd72 2.240 . S
O73 C78 1.279 . S
O74 Cd71 2.297 . S
O74 C76 1.247 . S
O75 Cd71 2.439 . S
O75 C76 1.208 . S
C76 O74 1.247 . S
C76 O75 1.208 . S
C77 O82 1.247 . S
C77 O83 1.208 . S
C78 O70 1.320 . S
C78 O73 1.279 . S
C79 O80 1.327 . S
C79 O81 1.305 . S
O80 Cd72 2.223 . S
O80 C79 1.327 . S
O81 Cd71 2.240 . S
O81 C79 1.305 . S
O82 Cd72 2.297 . S
O82 C77 1.247 . S
O83 Cd72 2.439 . S
O83 C77 1.208 . S
O84 Cd85 2.223 . S
O84 C92 1.315 . S
Cd85 O84 2.223 . S
Cd85 O88 2.297 . S
Cd85 O89 2.439 . S
Cd85 O95 2.240 . S
Cd86 O87 2.240 . S
Cd86 O94 2.223 . S
Cd86 O96 2.297 . S
Cd86 O97 2.439 . S
O87 Cd86 2.240 . S
O87 C92 1.279 . S
O88 Cd85 2.297 . S
O88 C90 1.247 . S
O89 Cd85 2.439 . S
O89 C90 1.208 . S
C90 O88 1.247 . S
C90 O89 1.208 . S
C91 O96 1.247 . S
C91 O97 1.208 . S
C92 O84 1.315 . S
C92 O87 1.279 . S
C93 O94 1.315 . S
C93 O95 1.279 . S
O94 Cd86 2.223 . S
O94 C93 1.315 . S
O95 Cd85 2.240 . S
O95 C93 1.279 . S
O96 Cd86 2.297 . S
O96 C91 1.247 . S
O97 Cd86 2.439 . S
O97 C91 1.208 . S
O98 Cd99 2.223 . S
O98 C106 1.315 . S
Cd99 O98 2.223 . S
Cd99 O102 2.297 . S
Cd99 O103 2.439 . S
Cd99 O109 2.240 . S
Cd100 O101 2.240 . S
Cd100 O108 2.223 . S
Cd100 O110 2.297 . S
Cd100 O111 2.439 . S
O101 Cd100 2.240 . S
O101 C106 1.279 . S
O102 Cd99 2.297 . S
O102 C104 1.247 . S
O103 Cd99 2.439 . S
O103 C104 1.208 . S
C104 O102 1.247 . S
C104 O103 1.208 . S
C105 O110 1.247 . S
C105 O111 1.208 . S
C106 O98 1.315 . S
C106 O101 1.279 . S
C107 O108 1.315 . S
C107 O109 1.279 . S
O108 Cd100 2.223 . S
O108 C107 1.315 . S
O109 Cd99 2.240 . S
O109 C107 1.279 . S
O110 Cd100 2.297 . S
O110 C105 1.247 . S
O111 Cd100 2.439 . S
O111 C105 1.208 . S
O112 Cd113 2.227 . S
O112 C120 1.320 . S
Cd113 O112 2.227 . S
Cd113 O116 2.297 . S
Cd113 O117 2.439 . S
Cd113 O123 2.240 . S
Cd114 O115 2.240 . S
Cd114 O122 2.223 . S
Cd114 O124 2.297 . S
Cd114 O125 2.439 . S
O115 Cd114 2.240 . S
O115 C120 1.279 . S
O116 Cd113 2.297 . S
O116 C118 1.247 . S
O117 Cd113 2.439 . S
O117 C118 1.208 . S
C118 O116 1.247 . S
C118 O117 1.208 . S
C119 O124 1.247 . S
C119 O125 1.208 . S
C120 O112 1.320 . S
C120 O115 1.279 . S
C121 O122 1.327 . S
C121 O123 1.305 . S
O122 Cd114 2.223 . S
O122 C121 1.327 . S
O123 Cd113 2.240 . S
O123 C121 1.305 . S
O124 Cd114 2.297 . S
O124 C119 1.247 . S
O125 Cd114 2.439 . S
O125 C119 1.208 . S
O126 Cd127 2.223 . S
O126 C134 1.315 . S
Cd127 O126 2.223 . S
Cd127 O130 2.297 . S
Cd127 O131 2.439 . S
Cd127 O137 2.240 . S
Cd128 O129 2.240 . S
Cd128 O136 2.223 . S
Cd128 O138 2.297 . S
Cd128 O139 2.439 . S
O129 Cd128 2.240 . S
O129 C134 1.279 . S
O130 Cd127 2.297 . S
O130 C132 1.247 . S
O131 Cd127 2.439 . S
O131 C132 1.208 . S
C132 O130 1.247 . S
C132 O131 1.208 . S
C133 O138 1.247 . S
C133 O139 1.208 . S
C134 O126 1.315 . S
C134 O129 1.279 . S
C135 O136 1.315 . S
C135 O137 1.279 . S
O136 Cd128 2.223 . S
O136 C135 1.315 . S
O137 Cd127 2.240 . S
O137 C135 1.279 . S
O138 Cd128 2.297 . S
O138 C133 1.247 . S
O139 Cd128 2.439 . S
O139 C133 1.208 . S
O140 Cd141 2.223 . S
O140 C148 1.315 . S
Cd141 O140 2.223 . S
Cd141 O144 2.297 . S
Cd141 O145 2.439 . S
Cd141 O151 2.240 . S
Cd142 O143 2.240 . S
Cd142 O150 2.223 . S
Cd142 O152 2.297 . S
Cd142 O153 2.439 . S
O143 Cd142 2.240 . S
O143 C148 1.279 . S
O144 Cd141 2.297 . S
O144 C146 1.247 . S
O145 Cd141 2.439 . S
O145 C146 1.208 . S
C146 O144 1.247 . S
C146 O145 1.208 . S
C147 O152 1.247 . S
C147 O153 1.208 . S
C148 O140 1.315 . S
C148 O143 1.279 . S
C149 O150 1.315 . S
C149 O151 1.279 . S
O150 Cd142 2.223 . S
O150 C149 1.315 . S
O151 Cd141 2.240 . S
O151 C149 1.279 . S
O152 Cd142 2.297 . S
O152 C147 1.247 . S
O153 Cd142 2.439 . S
O153 C147 1.208 . S
O154 Cd155 2.223 . S
O154 C162 1.315 . S
Cd155 O154 2.223 . S
Cd155 O158 2.297 . S
Cd155 O159 2.439 . S
Cd155 O165 2.240 . S
Cd156 O157 2.240 . S
Cd156 O164 2.223 . S
Cd156 O166 2.297 . S
Cd156 O167 2.439 . S
O157 Cd156 2.240 . S
O157 C162 1.279 . S
O158 Cd155 2.297 . S
O158 C160 1.247 . S
O159 Cd155 2.439 . S
O159 C160 1.208 . S
C160 O158 1.247 . S
C160 O159 1.208 . S
C161 O166 1.247 . S
C161 O167 1.208 . S
C162 O154 1.315 . S
C162 O157 1.279 . S
C163 O164 1.315 . S
C163 O165 1.279 . S
O164 Cd156 2.223 . S
O164 C163 1.315 . S
O165 Cd155 2.240 . S
O165 C163 1.279 . S
O166 Cd156 2.297 . S
O166 C161 1.247 . S
O167 Cd156 2.439 . S
O167 C161 1.208 . S
H168 C176 0.950 . S
H169 C181 0.950 . S
H170 C178 0.950 . S
H171 C180 0.950 . S
H172 C182 0.950 . S
H173 C184 0.950 . S
H174 C186 0.950 . S
H175 C187 0.950 . S
C176 H168 0.950 . S
C176 C177 1.386 . S
C176 C178 1.391 . S
C177 C176 1.386 . S
C177 C181 1.393 . S
C178 H170 0.950 . S
C178 C176 1.391 . S
C178 C179 1.400 . S
C179 C178 1.400 . S
C179 C180 1.398 . S
C179 C185 1.491 . S
C180 H171 0.950 . S
C180 C179 1.398 . S
C180 C181 1.391 . S
C181 H169 0.950 . S
C181 C177 1.393 . S
C181 C180 1.391 . S
C182 H172 0.950 . S
C182 C183 1.386 . S
C182 C184 1.391 . S
C183 C182 1.386 . S
C183 C187 1.393 . S
C184 H173 0.950 . S
C184 C182 1.391 . S
C184 C185 1.400 . S
C185 C179 1.491 . S
C185 C184 1.400 . S
C185 C186 1.398 . S
C186 H174 0.950 . S
C186 C185 1.398 . S
C186 C187 1.391 . S
C187 H175 0.950 . S
C187 C183 1.393 . S
C187 C186 1.391 . S
H188 C196 0.950 . S
H189 C201 0.950 . S
H190 C198 0.950 . S
H191 C200 0.950 . S
H192 C202 0.950 . S
H193 C204 0.950 . S
H194 C206 0.950 . S
H195 C207 0.950 . S
C196 H188 0.950 . S
C196 C197 1.386 . S
C196 C198 1.391 . S
C197 C196 1.386 . S
C197 C201 1.393 . S
C198 H190 0.950 . S
C198 C196 1.391 . S
C198 C199 1.400 . S
C199 C198 1.400 . S
C199 C200 1.398 . S
C199 C205 1.491 . S
C200 H191 0.950 . S
C200 C199 1.398 . S
C200 C201 1.391 . S
C201 H189 0.950 . S
C201 C197 1.393 . S
C201 C200 1.391 . S
C202 H192 0.950 . S
C202 C203 1.386 . S
C202 C204 1.391 . S
C203 C202 1.386 . S
C203 C207 1.393 . S
C204 H193 0.950 . S
C204 C202 1.391 . S
C204 C205 1.400 . S
C205 C199 1.491 . S
C205 C204 1.400 . S
C205 C206 1.398 . S
C206 H194 0.950 . S
C206 C205 1.398 . S
C206 C207 1.391 . S
C207 H195 0.950 . S
C207 C203 1.393 . S
C207 C206 1.391 . S
H208 C216 0.950 . S
H209 C221 0.950 . S
H210 C218 0.950 . S
H211 C220 0.950 . S
H212 C222 0.950 . S
H213 C224 0.950 . S
H214 C226 0.950 . S
H215 C227 0.950 . S
C216 H208 0.950 . S
C216 C217 1.386 . S
C216 C218 1.391 . S
C217 C216 1.386 . S
C217 C221 1.393 . S
C218 H210 0.950 . S
C218 C216 1.391 . S
C218 C219 1.400 . S
C219 C218 1.400 . S
C219 C220 1.398 . S
C219 C225 1.491 . S
C220 H211 0.950 . S
C220 C219 1.398 . S
C220 C221 1.391 . S
C221 H209 0.950 . S
C221 C217 1.393 . S
C221 C220 1.391 . S
C222 H212 0.950 . S
C222 C223 1.386 . S
C222 C224 1.391 . S
C223 C222 1.386 . S
C223 C227 1.393 . S
C224 H213 0.950 . S
C224 C222 1.391 . S
C224 C225 1.400 . S
C225 C219 1.491 . S
C225 C224 1.400 . S
C225 C226 1.398 . S
C226 H214 0.950 . S
C226 C225 1.398 . S
C226 C227 1.391 . S
C227 H215 0.950 . S
C227 C223 1.393 . S
C227 C226 1.391 . S
H228 C236 0.950 . S
H229 C241 0.950 . S
H230 C238 0.950 . S
H231 C240 0.950 . S
H232 C242 0.950 . S
H233 C244 0.950 . S
H234 C246 0.950 . S
H235 C247 0.950 . S
C236 H228 0.950 . S
C236 C237 1.386 . S
C236 C238 1.391 . S
C237 C236 1.386 . S
C237 C241 1.393 . S
C238 H230 0.950 . S
C238 C236 1.391 . S
C238 C239 1.400 . S
C239 C238 1.400 . S
C239 C240 1.398 . S
C239 C245 1.491 . S
C240 H231 0.950 . S
C240 C239 1.398 . S
C240 C241 1.391 . S
C241 H229 0.950 . S
C241 C237 1.393 . S
C241 C240 1.391 . S
C242 H232 0.950 . S
C242 C243 1.386 . S
C242 C244 1.391 . S
C243 C242 1.386 . S
C243 C247 1.393 . S
C244 H233 0.950 . S
C244 C242 1.391 . S
C244 C245 1.400 . S
C245 C239 1.491 . S
C245 C244 1.400 . S
C245 C246 1.398 . S
C246 H234 0.950 . S
C246 C245 1.398 . S
C246 C247 1.391 . S
C247 H235 0.950 . S
C247 C243 1.393 . S
C247 C246 1.391 . S
H248 C256 0.950 . S
H249 C261 0.950 . S
H250 C258 0.950 . S
H251 C260 0.950 . S
H252 C262 0.950 . S
H253 C264 0.950 . S
H254 C266 0.950 . S
H255 C267 0.950 . S
C256 H248 0.950 . S
C256 C257 1.386 . S
C256 C258 1.391 . S
C257 C256 1.386 . S
C257 C261 1.393 . S
C258 H250 0.950 . S
C258 C256 1.391 . S
C258 C259 1.400 . S
C259 C258 1.400 . S
C259 C260 1.398 . S
C259 C265 1.491 . S
C260 H251 0.950 . S
C260 C259 1.398 . S
C260 C261 1.391 . S
C261 H249 0.950 . S
C261 C257 1.393 . S
C261 C260 1.391 . S
C262 H252 0.950 . S
C262 C263 1.386 . S
C262 C264 1.391 . S
C263 C262 1.386 . S
C263 C267 1.393 . S
C264 H253 0.950 . S
C264 C262 1.391 . S
C264 C265 1.400 . S
C265 C259 1.491 . S
C265 C264 1.400 . S
C265 C266 1.398 . S
C266 H254 0.950 . S
C266 C265 1.398 . S
C266 C267 1.391 . S
C267 H255 0.950 . S
C267 C263 1.393 . S
C267 C266 1.391 . S
H268 C276 0.950 . S
H269 C281 0.950 . S
H270 C278 0.950 . S
H271 C280 0.950 . S
H272 C282 0.950 . S
H273 C284 0.950 . S
H274 C286 0.950 . S
H275 C287 0.950 . S
C276 H268 0.950 . S
C276 C277 1.386 . S
C276 C278 1.391 . S
C277 C276 1.386 . S
C277 C281 1.393 . S
C278 H270 0.950 . S
C278 C276 1.391 . S
C278 C279 1.400 . S
C279 C278 1.400 . S
C279 C280 1.398 . S
C279 C285 1.491 . S
C280 H271 0.950 . S
C280 C279 1.398 . S
C280 C281 1.391 . S
C281 H269 0.950 . S
C281 C277 1.393 . S
C281 C280 1.391 . S
C282 H272 0.950 . S
C282 C283 1.386 . S
C282 C284 1.391 . S
C283 C282 1.386 . S
C283 C287 1.393 . S
C284 H273 0.950 . S
C284 C282 1.391 . S
C284 C285 1.400 . S
C285 C279 1.491 . S
C285 C284 1.400 . S
C285 C286 1.398 . S
C286 H274 0.950 . S
C286 C285 1.398 . S
C286 C287 1.391 . S
C287 H275 0.950 . S
C287 C283 1.393 . S
C287 C286 1.391 . S
H288 C296 0.950 . S
H289 C301 0.950 . S
H290 C298 0.950 . S
H291 C300 0.950 . S
H292 C302 0.950 . S
H293 C304 0.950 . S
H294 C306 0.950 . S
H295 C307 0.950 . S
C296 H288 0.950 . S
C296 C297 1.386 . S
C296 C298 1.391 . S
C297 C296 1.386 . S
C297 C301 1.393 . S
C298 H290 0.950 . S
C298 C296 1.391 . S
C298 C299 1.400 . S
C299 C298 1.400 . S
C299 C300 1.398 . S
C299 C305 1.491 . S
C300 H291 0.950 . S
C300 C299 1.398 . S
C300 C301 1.391 . S
C301 H289 0.950 . S
C301 C297 1.393 . S
C301 C300 1.391 . S
C302 H292 0.950 . S
C302 C303 1.386 . S
C302 C304 1.391 1_556 S
C303 C302 1.386 . S
C303 C307 1.393 1_556 S
C304 H293 0.950 . S
C304 C302 1.391 1_554 S
C304 C305 1.400 . S
C305 C299 1.491 . S
C305 C304 1.400 . S
C305 C306 1.398 . S
C306 H294 0.950 . S
C306 C305 1.398 . S
C306 C307 1.391 . S
C307 H295 0.950 . S
C307 C303 1.393 1_554 S
C307 C306 1.391 . S
H308 C316 0.950 . S
H309 C321 0.950 . S
H310 C318 0.950 . S
H311 C320 0.950 . S
H312 C322 0.950 . S
H313 C324 0.950 . S
H314 C326 0.950 . S
H315 C327 0.950 . S
C316 H308 0.950 . S
C316 C317 1.386 . S
C316 C318 1.391 . S
C317 C316 1.386 . S
C317 C321 1.393 . S
C318 H310 0.950 . S
C318 C316 1.391 . S
C318 C319 1.400 . S
C319 C318 1.400 . S
C319 C320 1.398 . S
C319 C325 1.491 . S
C320 H311 0.950 . S
C320 C319 1.398 . S
C320 C321 1.391 . S
C321 H309 0.950 . S
C321 C317 1.393 . S
C321 C320 1.391 . S
C322 H312 0.950 . S
C322 C323 1.386 . S
C322 C324 1.391 . S
C323 C322 1.386 . S
C323 C327 1.393 . S
C324 H313 0.950 . S
C324 C322 1.391 . S
C324 C325 1.400 . S
C325 C319 1.491 . S
C325 C324 1.400 . S
C325 C326 1.398 . S
C326 H314 0.950 . S
C326 C325 1.398 . S
C326 C327 1.391 . S
C327 H315 0.950 . S
C327 C323 1.393 . S
C327 C326 1.391 . S
H328 C336 0.950 . S
H329 C341 0.950 . S
H330 C338 0.950 . S
H331 C340 0.950 . S
H332 C342 0.950 . S
H333 C344 0.950 . S
H334 C346 0.950 . S
H335 C347 0.950 . S
C336 H328 0.950 . S
C336 C337 1.386 . S
C336 C338 1.391 . S
C337 C336 1.386 . S
C337 C341 1.393 . S
C338 H330 0.950 . S
C338 C336 1.391 . S
C338 C339 1.400 . S
C339 C338 1.400 . S
C339 C340 1.398 . S
C339 C345 1.491 . S
C340 H331 0.950 . S
C340 C339 1.398 . S
C340 C341 1.391 . S
C341 H329 0.950 . S
C341 C337 1.393 . S
C341 C340 1.391 . S
C342 H332 0.950 . S
C342 C343 1.386 . S
C342 C344 1.391 . S
C343 C342 1.386 . S
C343 C347 1.393 . S
C344 H333 0.950 . S
C344 C342 1.391 . S
C344 C345 1.400 . S
C345 C339 1.491 . S
C345 C344 1.400 . S
C345 C346 1.398 . S
C346 H334 0.950 . S
C346 C345 1.398 . S
C346 C347 1.391 . S
C347 H335 0.950 . S
C347 C343 1.393 . S
C347 C346 1.391 . S
H348 C356 0.950 . S
H349 C361 0.950 . S
H350 C358 0.950 . S
H351 C360 0.950 . S
H352 C362 0.950 . S
H353 C364 0.950 . S
H354 C366 0.950 . S
H355 C367 0.950 . S
C356 H348 0.950 . S
C356 C357 1.386 . S
C356 C358 1.391 . S
C357 C356 1.386 . S
C357 C361 1.393 . S
C358 H350 0.950 . S
C358 C356 1.391 . S
C358 C359 1.400 . S
C359 C358 1.400 . S
C359 C360 1.398 . S
C359 C365 1.491 . S
C360 H351 0.950 . S
C360 C359 1.398 . S
C360 C361 1.391 . S
C361 H349 0.950 . S
C361 C357 1.393 . S
C361 C360 1.391 . S
C362 H352 0.950 . S
C362 C363 1.386 . S
C362 C364 1.391 . S
C363 C362 1.386 . S
C363 C367 1.393 . S
C364 H353 0.950 . S
C364 C362 1.391 . S
C364 C365 1.400 . S
C365 C359 1.491 . S
C365 C364 1.400 . S
C365 C366 1.398 . S
C366 H354 0.950 . S
C366 C365 1.398 . S
C366 C367 1.391 . S
C367 H355 0.950 . S
C367 C363 1.393 . S
C367 C366 1.391 . S
H368 C376 0.950 . S
H369 C381 0.950 . S
H370 C378 0.950 . S
H371 C380 0.950 . S
H372 C382 0.950 . S
H373 C384 0.950 . S
H374 C386 0.950 . S
H375 C387 0.950 . S
C376 H368 0.950 . S
C376 C377 1.386 . S
C376 C378 1.391 . S
C377 C376 1.386 . S
C377 C381 1.393 . S
C378 H370 0.950 . S
C378 C376 1.391 . S
C378 C379 1.400 . S
C379 C378 1.400 . S
C379 C380 1.398 . S
C379 C385 1.491 . S
C380 H371 0.950 . S
C380 C379 1.398 . S
C380 C381 1.391 . S
C381 H369 0.950 . S
C381 C377 1.393 . S
C381 C380 1.391 . S
C382 H372 0.950 . S
C382 C383 1.386 . S
C382 C384 1.391 . S
C383 C382 1.386 . S
C383 C387 1.393 . S
C384 H373 0.950 . S
C384 C382 1.391 . S
C384 C385 1.400 . S
C385 C379 1.491 . S
C385 C384 1.400 . S
C385 C386 1.398 . S
C386 H374 0.950 . S
C386 C385 1.398 . S
C386 C387 1.391 . S
C387 H375 0.950 . S
C387 C383 1.393 . S
C387 C386 1.391 . S
H388 C396 0.950 . S
H389 C401 0.950 . S
H390 C398 0.950 . S
H391 C400 0.950 . S
H392 C402 0.950 . S
H393 C404 0.950 . S
H394 C406 0.950 . S
H395 C407 0.950 . S
C396 H388 0.950 . S
C396 C397 1.386 . S
C396 C398 1.391 . S
C397 C396 1.386 . S
C397 C401 1.393 . S
C398 H390 0.950 . S
C398 C396 1.391 . S
C398 C399 1.400 . S
C399 C398 1.400 . S
C399 C400 1.398 . S
C399 C405 1.491 . S
C400 H391 0.950 . S
C400 C399 1.398 . S
C400 C401 1.391 . S
C401 H389 0.950 . S
C401 C397 1.393 . S
C401 C400 1.391 . S
C402 H392 0.950 . S
C402 C403 1.386 . S
C402 C404 1.391 . S
C403 C402 1.386 . S
C403 C407 1.393 . S
C404 H393 0.950 . S
C404 C402 1.391 . S
C404 C405 1.400 . S
C405 C399 1.491 . S
C405 C404 1.400 . S
C405 C406 1.398 . S
C406 H394 0.950 . S
C406 C405 1.398 . S
C406 C407 1.391 . S
C407 H395 0.950 . S
C407 C403 1.393 . S
C407 C406 1.391 . S
H408 C416 0.950 . S
H409 C421 0.950 . S
H410 C418 0.950 . S
H411 C420 0.950 . S
H412 C422 0.950 . S
H413 C424 0.950 . S
H414 C426 0.950 . S
H415 C427 0.950 . S
C416 H408 0.950 . S
C416 C417 1.386 . S
C416 C418 1.391 . S
C417 C416 1.386 . S
C417 C421 1.393 . S
C418 H410 0.950 . S
C418 C416 1.391 . S
C418 C419 1.400 . S
C419 C418 1.400 . S
C419 C420 1.398 . S
C419 C425 1.491 . S
C420 H411 0.950 . S
C420 C419 1.398 . S
C420 C421 1.391 . S
C421 H409 0.950 . S
C421 C417 1.393 . S
C421 C420 1.391 . S
C422 H412 0.950 . S
C422 C423 1.386 . S
C422 C424 1.391 . S
C423 C422 1.386 . S
C423 C427 1.393 . S
C424 H413 0.950 . S
C424 C422 1.391 . S
C424 C425 1.400 . S
C425 C419 1.491 . S
C425 C424 1.400 . S
C425 C426 1.398 . S
C426 H414 0.950 . S
C426 C425 1.398 . S
C426 C427 1.391 . S
C427 H415 0.950 . S
C427 C423 1.393 . S
C427 C426 1.391 . S
H428 C436 0.950 . S
H429 C441 0.950 . S
H430 C438 0.950 . S
H431 C440 0.950 . S
H432 C442 0.950 . S
H433 C444 0.950 . S
H434 C446 0.950 . S
H435 C447 0.950 1_455 S
C436 H428 0.950 . S
C436 C437 1.386 . S
C436 C438 1.391 . S
C437 C436 1.386 . S
C437 C441 1.393 . S
C438 H430 0.950 . S
C438 C436 1.391 . S
C438 C439 1.400 . S
C439 C438 1.400 . S
C439 C440 1.398 . S
C439 C445 1.491 . S
C440 H431 0.950 . S
C440 C439 1.398 . S
C440 C441 1.391 . S
C441 H429 0.950 . S
C441 C437 1.393 . S
C441 C440 1.391 . S
C442 H432 0.950 . S
C442 C443 1.386 . S
C442 C444 1.391 1_554 S
C443 C442 1.386 . S
C443 C447 1.393 1_554 S
C444 H433 0.950 . S
C444 C442 1.391 1_556 S
C444 C445 1.400 . S
C445 C439 1.491 . S
C445 C444 1.400 . S
C445 C446 1.398 . S
C446 H434 0.950 . S
C446 C445 1.398 . S
C446 C447 1.391 . S
C447 H435 0.950 1_655 S
C447 C443 1.393 1_556 S
C447 C446 1.391 . S
H448 C456 0.950 . S
H449 C461 0.950 1_545 S
H450 C458 0.950 . S
H451 C460 0.950 . S
H452 C462 0.950 . S
H453 C464 0.950 . S
H454 C466 0.950 . S
H455 C467 0.950 . S
C456 H448 0.950 . S
C456 C457 1.386 . S
C456 C458 1.391 . S
C457 C456 1.386 . S
C457 C461 1.393 . S
C458 H450 0.950 . S
C458 C456 1.391 . S
C458 C459 1.400 . S
C459 C458 1.400 . S
C459 C460 1.398 . S
C459 C465 1.491 . S
C460 H451 0.950 . S
C460 C459 1.398 . S
C460 C461 1.391 . S
C461 H449 0.950 1_565 S
C461 C457 1.393 . S
C461 C460 1.391 . S
C462 H452 0.950 . S
C462 C463 1.386 . S
C462 C464 1.391 . S
C463 C462 1.386 . S
C463 C467 1.393 . S
C464 H453 0.950 . S
C464 C462 1.391 . S
C464 C465 1.400 . S
C465 C459 1.491 . S
C465 C464 1.400 . S
C465 C466 1.398 . S
C466 H454 0.950 . S
C466 C465 1.398 . S
C466 C467 1.391 . S
C467 H455 0.950 . S
C467 C463 1.393 . S
C467 C466 1.391 . S
H468 C476 0.950 . S
H469 C481 0.950 . S
H470 C478 0.950 . S
H471 C480 0.950 . S
H472 C482 0.950 . S
H473 C484 0.950 . S
H474 C486 0.950 . S
H475 C487 0.950 . S
C476 H468 0.950 . S
C476 C477 1.386 . S
C476 C478 1.391 . S
C477 C476 1.386 . S
C477 C481 1.393 . S
C478 H470 0.950 . S
C478 C476 1.391 . S
C478 C479 1.400 . S
C479 C478 1.400 . S
C479 C480 1.398 . S
C479 C485 1.491 . S
C480 H471 0.950 . S
C480 C479 1.398 . S
C480 C481 1.391 . S
C481 H469 0.950 . S
C481 C477 1.393 . S
C481 C480 1.391 . S
C482 H472 0.950 . S
C482 C483 1.386 . S
C482 C484 1.391 . S
C483 C482 1.386 . S
C483 C487 1.393 . S
C484 H473 0.950 . S
C484 C482 1.391 . S
C484 C485 1.400 . S
C485 C479 1.491 . S
C485 C484 1.400 . S
C485 C486 1.398 . S
C486 H474 0.950 . S
C486 C485 1.398 . S
C486 C487 1.391 . S
C487 H475 0.950 . S
C487 C483 1.393 . S
C487 C486 1.391 . S
H488 C496 0.950 . S
H489 C501 0.950 . S
H490 C498 0.950 . S
H491 C500 0.950 . S
H492 C502 0.950 1_655 S
H493 C504 0.950 . S
H494 C506 0.950 . S
H495 C507 0.950 . S
C496 H488 0.950 . S
C496 C497 1.386 . S
C496 C498 1.391 . S
C497 C496 1.386 . S
C497 C501 1.393 . S
C498 H490 0.950 . S
C498 C496 1.391 . S
C498 C499 1.400 . S
C499 C498 1.400 . S
C499 C500 1.398 . S
C499 C505 1.491 . S
C500 H491 0.950 . S
C500 C499 1.398 . S
C500 C501 1.391 . S
C501 H489 0.950 . S
C501 C497 1.393 . S
C501 C500 1.391 . S
C502 H492 0.950 1_455 S
C502 C503 1.386 . S
C502 C504 1.391 . S
C503 C502 1.386 . S
C503 C507 1.393 . S
C504 H493 0.950 . S
C504 C502 1.391 . S
C504 C505 1.400 . S
C505 C499 1.491 . S
C505 C504 1.400 . S
C505 C506 1.398 . S
C506 H494 0.950 . S
C506 C505 1.398 . S
C506 C507 1.391 . S
C507 H495 0.950 . S
C507 C503 1.393 . S
C507 C506 1.391 . S
H508 C516 0.950 . S
H509 C521 0.950 . S
H510 C518 0.950 . S
H511 C520 0.950 . S
H512 C522 0.950 . S
H513 C524 0.950 . S
H514 C526 0.950 . S
H515 C527 0.950 1_565 S
C516 H508 0.950 . S
C516 C517 1.386 . S
C516 C518 1.391 . S
C517 C516 1.386 . S
C517 C521 1.393 . S
C518 H510 0.950 . S
C518 C516 1.391 . S
C518 C519 1.400 . S
C519 C518 1.400 . S
C519 C520 1.398 . S
C519 C525 1.491 . S
C520 H511 0.950 . S
C520 C519 1.398 . S
C520 C521 1.391 . S
C521 H509 0.950 . S
C521 C517 1.393 . S
C521 C520 1.391 . S
C522 H512 0.950 . S
C522 C523 1.386 . S
C522 C524 1.391 . S
C523 C522 1.386 . S
C523 C527 1.393 . S
C524 H513 0.950 . S
C524 C522 1.391 . S
C524 C525 1.400 . S
C525 C519 1.491 . S
C525 C524 1.400 . S
C525 C526 1.398 . S
C526 H514 0.950 . S
C526 C525 1.398 . S
C526 C527 1.391 . S
C527 H515 0.950 1_545 S
C527 C523 1.393 . S
C527 C526 1.391 . S
H528 C536 0.950 . S
H529 C541 0.950 . S
H530 C538 0.950 . S
H531 C540 0.950 . S
H532 C542 0.950 . S
H533 C544 0.950 . S
H534 C546 0.950 . S
H535 C547 0.950 . S
C536 H528 0.950 . S
C536 C537 1.386 . S
C536 C538 1.391 . S
C537 C536 1.386 . S
C537 C541 1.393 . S
C538 H530 0.950 . S
C538 C536 1.391 . S
C538 C539 1.400 . S
C539 C538 1.400 . S
C539 C540 1.398 . S
C539 C545 1.491 . S
C540 H531 0.950 . S
C540 C539 1.398 . S
C540 C541 1.391 . S
C541 H529 0.950 . S
C541 C537 1.393 . S
C541 C540 1.391 . S
C542 H532 0.950 . S
C542 C543 1.386 . S
C542 C544 1.391 . S
C543 C542 1.386 . S
C543 C547 1.393 . S
C544 H533 0.950 . S
C544 C542 1.391 . S
C544 C545 1.400 . S
C545 C539 1.491 . S
C545 C544 1.400 . S
C545 C546 1.398 . S
C546 H534 0.950 . S
C546 C545 1.398 . S
C546 C547 1.391 . S
C547 H535 0.950 . S
C547 C543 1.393 . S
C547 C546 1.391 . S
H548 C556 0.950 . S
H549 C561 0.950 . S
H550 C558 0.950 . S
H551 C560 0.950 . S
H552 C562 0.950 . S
H553 C564 0.950 . S
H554 C566 0.950 . S
H555 C567 0.950 . S
C556 H548 0.950 . S
C556 C557 1.386 . S
C556 C558 1.391 . S
C557 C556 1.386 . S
C557 C561 1.393 . S
C558 H550 0.950 . S
C558 C556 1.391 . S
C558 C559 1.400 . S
C559 C558 1.400 . S
C559 C560 1.398 . S
C559 C565 1.491 . S
C560 H551 0.950 . S
C560 C559 1.398 . S
C560 C561 1.391 . S
C561 H549 0.950 . S
C561 C557 1.393 . S
C561 C560 1.391 . S
C562 H552 0.950 . S
C562 C563 1.386 . S
C562 C564 1.391 . S
C563 C562 1.386 . S
C563 C567 1.393 . S
C564 H553 0.950 . S
C564 C562 1.391 . S
C564 C565 1.400 . S
C565 C559 1.491 . S
C565 C564 1.400 . S
C565 C566 1.398 . S
C566 H554 0.950 . S
C566 C565 1.398 . S
C566 C567 1.391 . S
C567 H555 0.950 . S
C567 C563 1.393 . S
C567 C566 1.391 . S
H568 C576 0.950 . S
H569 C581 0.950 . S
H570 C578 0.950 . S
H571 C580 0.950 . S
H572 C582 0.950 . S
H573 C584 0.950 . S
H574 C586 0.950 . S
H575 C587 0.950 . S
C576 H568 0.950 . S
C576 C577 1.386 . S
C576 C578 1.391 . S
C577 C576 1.386 . S
C577 C581 1.393 . S
C578 H570 0.950 . S
C578 C576 1.391 . S
C578 C579 1.400 . S
C579 C578 1.400 . S
C579 C580 1.398 . S
C579 C585 1.491 . S
C580 H571 0.950 . S
C580 C579 1.398 . S
C580 C581 1.391 . S
C581 H569 0.950 . S
C581 C577 1.393 . S
C581 C580 1.391 . S
C582 H572 0.950 . S
C582 C583 1.386 . S
C582 C584 1.391 . S
C583 C582 1.386 . S
C583 C587 1.393 . S
C584 H573 0.950 . S
C584 C582 1.391 . S
C584 C585 1.400 . S
C585 C579 1.491 . S
C585 C584 1.400 . S
C585 C586 1.398 . S
C586 H574 0.950 . S
C586 C585 1.398 . S
C586 C587 1.391 . S
C587 H575 0.950 . S
C587 C583 1.393 . S
C587 C586 1.391 . S
H588 C596 0.950 . S
H589 C601 0.950 . S
H590 C598 0.950 . S
H591 C600 0.950 . S
H592 C602 0.950 . S
H593 C604 0.950 . S
H594 C606 0.950 . S
H595 C607 0.950 . S
C596 H588 0.950 . S
C596 C597 1.386 . S
C596 C598 1.391 . S
C597 C596 1.386 . S
C597 C601 1.393 . S
C598 H590 0.950 . S
C598 C596 1.391 . S
C598 C599 1.400 . S
C599 C598 1.400 . S
C599 C600 1.398 . S
C599 C605 1.491 . S
C600 H591 0.950 . S
C600 C599 1.398 . S
C600 C601 1.391 . S
C601 H589 0.950 . S
C601 C597 1.393 . S
C601 C600 1.391 . S
C602 H592 0.950 . S
C602 C603 1.386 . S
C602 C604 1.391 . S
C603 C602 1.386 . S
C603 C607 1.393 . S
C604 H593 0.950 . S
C604 C602 1.391 . S
C604 C605 1.400 . S
C605 C599 1.491 . S
C605 C604 1.400 . S
C605 C606 1.398 . S
C606 H594 0.950 . S
C606 C605 1.398 . S
C606 C607 1.391 . S
C607 H595 0.950 . S
C607 C603 1.393 . S
C607 C606 1.391 . S
H608 C616 0.950 . S
H609 C621 0.950 . S
H610 C618 0.950 . S
H611 C620 0.950 . S
H612 C622 0.950 . S
H613 C624 0.950 . S
H614 C626 0.950 . S
H615 C627 0.950 . S
C616 H608 0.950 . S
C616 C617 1.386 . S
C616 C618 1.391 . S
C617 C616 1.386 . S
C617 C621 1.393 . S
C618 H610 0.950 . S
C618 C616 1.391 . S
C618 C619 1.400 . S
C619 C618 1.400 . S
C619 C620 1.398 . S
C619 C625 1.491 . S
C620 H611 0.950 . S
C620 C619 1.398 . S
C620 C621 1.391 . S
C621 H609 0.950 . S
C621 C617 1.393 . S
C621 C620 1.391 . S
C622 H612 0.950 . S
C622 C623 1.386 . S
C622 C624 1.391 . S
C623 C622 1.386 . S
C623 C627 1.393 . S
C624 H613 0.950 . S
C624 C622 1.391 . S
C624 C625 1.400 . S
C625 C619 1.491 . S
C625 C624 1.400 . S
C625 C626 1.398 . S
C626 H614 0.950 . S
C626 C625 1.398 . S
C626 C627 1.391 . S
C627 H615 0.950 . S
C627 C623 1.393 . S
C627 C626 1.391 . S
H628 C636 0.950 . S
H629 C641 0.950 . S
H630 C638 0.950 . S
H631 C640 0.950 . S
H632 C642 0.950 . S
H633 C644 0.950 . S
H634 C646 0.950 . S
H635 C647 0.950 . S
C636 H628 0.950 . S
C636 C637 1.386 . S
C636 C638 1.391 . S
C637 C636 1.386 . S
C637 C641 1.393 . S
C638 H630 0.950 . S
C638 C636 1.391 . S
C638 C639 1.400 . S
C639 C638 1.400 . S
C639 C640 1.398 . S
C639 C645 1.491 . S
C640 H631 0.950 . S
C640 C639 1.398 . S
C640 C641 1.391 . S
C641 H629 0.950 . S
C641 C637 1.393 . S
C641 C640 1.391 . S
C642 H632 0.950 . S
C642 C643 1.386 . S
C642 C644 1.391 . S
C643 C642 1.386 . S
C643 C647 1.393 . S
C644 H633 0.950 . S
C644 C642 1.391 . S
C644 C645 1.400 . S
C645 C639 1.491 . S
C645 C644 1.400 . S
C645 C646 1.398 . S
C646 H634 0.950 . S
C646 C645 1.398 . S
C646 C647 1.391 . S
C647 H635 0.950 . S
C647 C643 1.393 . S
C647 C646 1.391 . S
C177 C118 1.496 . S
C183 C6 1.506 . S
C197 C20 1.487 . S
C203 C132 1.497 . S
C217 C34 1.486 . S
C223 C146 1.481 . S
C237 C48 1.492 . S
C243 C160 1.483 . S
C257 C90 1.507 . S
C263 C62 1.510 . S
C277 C76 1.489 . S
C283 C104 1.500 . S
C297 C7 1.579 . S
C303 C78 1.603 . S
C317 C21 1.580 . S
C323 C8 1.604 1_655 S
C337 C35 1.596 . S
C343 C22 1.600 1_565 S
C357 C36 1.603 . S
C363 C49 1.595 . S
C377 C50 1.597 1_455 S
C383 C63 1.595 . S
C397 C64 1.604 1_545 S
C403 C77 1.580 . S
C417 C106 1.607 . S
C423 C91 1.584 . S
C437 C105 1.587 . S
C443 C120 1.594 1_655 S
C457 C134 1.603 1_565 S
C463 C119 1.595 . S
C477 C133 1.585 . S
C483 C148 1.607 . S
C497 C147 1.591 . S
C503 C162 1.606 1_455 S
C517 C161 1.586 . S
C523 C92 1.594 1_545 S
C537 C149 1.471 . S
C543 C9 1.466 . S
C557 C163 1.473 . S
C563 C23 1.466 . S
C577 C93 1.469 . S
C583 C37 1.477 . S
C597 C51 1.477 . S
C603 C107 1.468 . S
C617 C65 1.469 . S
C623 C121 1.430 1_556 S
C637 C135 1.472 . S
C643 C79 1.440 1_554 S
