# Generated by pormake.
# Topology wmt, (6)-cn, num edge types: 1
# Building blocks:
#     Node 0, Type 0, BuildingBlock: LEVNOQ01_clean_sbu_1, # of connection points: 6
#     Node 1, Type 0, BuildingBlock: LEVNOQ01_clean_sbu_1, # of connection points: 6
#     Node 2, Type 0, BuildingBlock: LEVNOQ01_clean_sbu_1, # of connection points: 6
#     Node 3, Type 0, BuildingBlock: LEVNOQ01_clean_sbu_1, # of connection points: 6
#     Node 4, Type 0, BuildingBlock: LEVNOQ01_clean_sbu_1, # of connection points: 6
#     Node 5, Type 0, BuildingBlock: LEVNOQ01_clean_sbu_1, # of connection points: 6
#     Node 6, Type 0, BuildingBlock: LEVNOQ01_clean_sbu_1, # of connection points: 6
#     Node 7, Type 0, BuildingBlock: LEVNOQ01_clean_sbu_1, # of connection points: 6
#     Node 8, Type 0, BuildingBlock: LEVNOQ01_clean_sbu_1, # of connection points: 6
#     Node 9, Type 0, BuildingBlock: LEVNOQ01_clean_sbu_1, # of connection points: 6
#     Node 10, Type 0, BuildingBlock: LEVNOQ01_clean_sbu_1, # of connection points: 6
#     Node 11, Type 0, BuildingBlock: LEVNOQ01_clean_sbu_1, # of connection points: 6
#     Node 12, Type 0, BuildingBlock: LEVNOQ01_clean_sbu_1, # of connection points: 6
#     Node 13, Type 0, BuildingBlock: LEVNOQ01_clean_sbu_1, # of connection points: 6
#     Node 14, Type 0, BuildingBlock: LEVNOQ01_clean_sbu_1, # of connection points: 6
#     Node 15, Type 0, BuildingBlock: LEVNOQ01_clean_sbu_1, # of connection points: 6
#     Node 16, Type 0, BuildingBlock: LEVNOQ01_clean_sbu_1, # of connection points: 6
#     Node 17, Type 0, BuildingBlock: LEVNOQ01_clean_sbu_1, # of connection points: 6
#     Node 18, Type 0, BuildingBlock: LEVNOQ01_clean_sbu_1, # of connection points: 6
#     Node 19, Type 0, BuildingBlock: LEVNOQ01_clean_sbu_1, # of connection points: 6
#     Node 20, Type 0, BuildingBlock: LEVNOQ01_clean_sbu_1, # of connection points: 6
#     Node 21, Type 0, BuildingBlock: LEVNOQ01_clean_sbu_1, # of connection points: 6
#     Node 22, Type 0, BuildingBlock: LEVNOQ01_clean_sbu_1, # of connection points: 6
#     Node 23, Type 0, BuildingBlock: LEVNOQ01_clean_sbu_1, # of connection points: 6
#     Node 24, Type 0, BuildingBlock: LEVNOQ01_clean_sbu_1, # of connection points: 6
#     Node 25, Type 0, BuildingBlock: LEVNOQ01_clean_sbu_1, # of connection points: 6
#     Node 26, Type 0, BuildingBlock: LEVNOQ01_clean_sbu_1, # of connection points: 6
#     Node 27, Type 0, BuildingBlock: LEVNOQ01_clean_sbu_1, # of connection points: 6
#     Node 28, Type 0, BuildingBlock: LEVNOQ01_clean_sbu_1, # of connection points: 6
#     Node 29, Type 0, BuildingBlock: LEVNOQ01_clean_sbu_1, # of connection points: 6
#     Node 30, Type 0, BuildingBlock: LEVNOQ01_clean_sbu_1, # of connection points: 6
#     Node 31, Type 0, BuildingBlock: LEVNOQ01_clean_sbu_1, # of connection points: 6
#     Node 32, Type 0, BuildingBlock: LEVNOQ01_clean_sbu_1, # of connection points: 6
#     Node 33, Type 0, BuildingBlock: LEVNOQ01_clean_sbu_1, # of connection points: 6
#     Node 34, Type 0, BuildingBlock: LEVNOQ01_clean_sbu_1, # of connection points: 6
#     Node 35, Type 0, BuildingBlock: LEVNOQ01_clean_sbu_1, # of connection points: 6
#     Edge 36, Type (0, 0), BuildingBlock: ZUJKAS_clean_linker_0, # of connection points: 2
#     Edge 37, Type (0, 0), BuildingBlock: ZUJKAS_clean_linker_0, # of connection points: 2
#     Edge 38, Type (0, 0), BuildingBlock: ZUJKAS_clean_linker_0, # of connection points: 2
#     Edge 39, Type (0, 0), BuildingBlock: ZUJKAS_clean_linker_0, # of connection points: 2
#     Edge 40, Type (0, 0), BuildingBlock: ZUJKAS_clean_linker_0, # of connection points: 2
#     Edge 41, Type (0, 0), BuildingBlock: ZUJKAS_clean_linker_0, # of connection points: 2
#     Edge 42, Type (0, 0), BuildingBlock: ZUJKAS_clean_linker_0, # of connection points: 2
#     Edge 43, Type (0, 0), BuildingBlock: ZUJKAS_clean_linker_0, # of connection points: 2
#     Edge 44, Type (0, 0), BuildingBlock: ZUJKAS_clean_linker_0, # of connection points: 2
#     Edge 45, Type (0, 0), BuildingBlock: ZUJKAS_clean_linker_0, # of connection points: 2
#     Edge 46, Type (0, 0), BuildingBlock: ZUJKAS_clean_linker_0, # of connection points: 2
#     Edge 47, Type (0, 0), BuildingBlock: ZUJKAS_clean_linker_0, # of connection points: 2
#     Edge 48, Type (0, 0), BuildingBlock: ZUJKAS_clean_linker_0, # of connection points: 2
#     Edge 49, Type (0, 0), BuildingBlock: ZUJKAS_clean_linker_0, # of connection points: 2
#     Edge 50, Type (0, 0), BuildingBlock: ZUJKAS_clean_linker_0, # of connection points: 2
#     Edge 51, Type (0, 0), BuildingBlock: ZUJKAS_clean_linker_0, # of connection points: 2
#     Edge 52, Type (0, 0), BuildingBlock: ZUJKAS_clean_linker_0, # of connection points: 2
#     Edge 53, Type (0, 0), BuildingBlock: ZUJKAS_clean_linker_0, # of connection points: 2
#     Edge 54, Type (0, 0), BuildingBlock: ZUJKAS_clean_linker_0, # of connection points: 2
#     Edge 55, Type (0, 0), BuildingBlock: ZUJKAS_clean_linker_0, # of connection points: 2
#     Edge 56, Type (0, 0), BuildingBlock: ZUJKAS_clean_linker_0, # of connection points: 2
#     Edge 57, Type (0, 0), BuildingBlock: ZUJKAS_clean_linker_0, # of connection points: 2
#     Edge 58, Type (0, 0), BuildingBlock: ZUJKAS_clean_linker_0, # of connection points: 2
#     Edge 59, Type (0, 0), BuildingBlock: ZUJKAS_clean_linker_0, # of connection points: 2
#     Edge 60, Type (0, 0), BuildingBlock: ZUJKAS_clean_linker_0, # of connection points: 2
#     Edge 61, Type (0, 0), BuildingBlock: ZUJKAS_clean_linker_0, # of connection points: 2
#     Edge 62, Type (0, 0), BuildingBlock: ZUJKAS_clean_linker_0, # of connection points: 2
#     Edge 63, Type (0, 0), BuildingBlock: ZUJKAS_clean_linker_0, # of connection points: 2
#     Edge 64, Type (0, 0), BuildingBlock: ZUJKAS_clean_linker_0, # of connection points: 2
#     Edge 65, Type (0, 0), BuildingBlock: ZUJKAS_clean_linker_0, # of connection points: 2
#     Edge 66, Type (0, 0), BuildingBlock: ZUJKAS_clean_linker_0, # of connection points: 2
#     Edge 67, Type (0, 0), BuildingBlock: ZUJKAS_clean_linker_0, # of connection points: 2
#     Edge 68, Type (0, 0), BuildingBlock: ZUJKAS_clean_linker_0, # of connection points: 2
#     Edge 69, Type (0, 0), BuildingBlock: ZUJKAS_clean_linker_0, # of connection points: 2
#     Edge 70, Type (0, 0), BuildingBlock: ZUJKAS_clean_linker_0, # of connection points: 2
#     Edge 71, Type (0, 0), BuildingBlock: ZUJKAS_clean_linker_0, # of connection points: 2
#     Edge 72, Type (0, 0), BuildingBlock: ZUJKAS_clean_linker_0, # of connection points: 2
#     Edge 73, Type (0, 0), BuildingBlock: ZUJKAS_clean_linker_0, # of connection points: 2
#     Edge 74, Type (0, 0), BuildingBlock: ZUJKAS_clean_linker_0, # of connection points: 2
#     Edge 75, Type (0, 0), BuildingBlock: ZUJKAS_clean_linker_0, # of connection points: 2
#     Edge 76, Type (0, 0), BuildingBlock: ZUJKAS_clean_linker_0, # of connection points: 2
#     Edge 77, Type (0, 0), BuildingBlock: ZUJKAS_clean_linker_0, # of connection points: 2
#     Edge 78, Type (0, 0), BuildingBlock: ZUJKAS_clean_linker_0, # of connection points: 2
#     Edge 79, Type (0, 0), BuildingBlock: ZUJKAS_clean_linker_0, # of connection points: 2
#     Edge 80, Type (0, 0), BuildingBlock: ZUJKAS_clean_linker_0, # of connection points: 2
#     Edge 81, Type (0, 0), BuildingBlock: ZUJKAS_clean_linker_0, # of connection points: 2
#     Edge 82, Type (0, 0), BuildingBlock: ZUJKAS_clean_linker_0, # of connection points: 2
#     Edge 83, Type (0, 0), BuildingBlock: ZUJKAS_clean_linker_0, # of connection points: 2
#     Edge 84, Type (0, 0), BuildingBlock: ZUJKAS_clean_linker_0, # of connection points: 2
#     Edge 85, Type (0, 0), BuildingBlock: ZUJKAS_clean_linker_0, # of connection points: 2
#     Edge 86, Type (0, 0), BuildingBlock: ZUJKAS_clean_linker_0, # of connection points: 2
#     Edge 87, Type (0, 0), BuildingBlock: ZUJKAS_clean_linker_0, # of connection points: 2
#     Edge 88, Type (0, 0), BuildingBlock: ZUJKAS_clean_linker_0, # of connection points: 2
#     Edge 89, Type (0, 0), BuildingBlock: ZUJKAS_clean_linker_0, # of connection points: 2
#     Edge 90, Type (0, 0), BuildingBlock: ZUJKAS_clean_linker_0, # of connection points: 2
#     Edge 91, Type (0, 0), BuildingBlock: ZUJKAS_clean_linker_0, # of connection points: 2
#     Edge 92, Type (0, 0), BuildingBlock: ZUJKAS_clean_linker_0, # of connection points: 2
#     Edge 93, Type (0, 0), BuildingBlock: ZUJKAS_clean_linker_0, # of connection points: 2
#     Edge 94, Type (0, 0), BuildingBlock: ZUJKAS_clean_linker_0, # of connection points: 2
#     Edge 95, Type (0, 0), BuildingBlock: ZUJKAS_clean_linker_0, # of connection points: 2
#     Edge 96, Type (0, 0), BuildingBlock: ZUJKAS_clean_linker_0, # of connection points: 2
#     Edge 97, Type (0, 0), BuildingBlock: ZUJKAS_clean_linker_0, # of connection points: 2
#     Edge 98, Type (0, 0), BuildingBlock: ZUJKAS_clean_linker_0, # of connection points: 2
#     Edge 99, Type (0, 0), BuildingBlock: ZUJKAS_clean_linker_0, # of connection points: 2
#     Edge 100, Type (0, 0), BuildingBlock: ZUJKAS_clean_linker_0, # of connection points: 2
#     Edge 101, Type (0, 0), BuildingBlock: ZUJKAS_clean_linker_0, # of connection points: 2
#     Edge 102, Type (0, 0), BuildingBlock: ZUJKAS_clean_linker_0, # of connection points: 2
#     Edge 103, Type (0, 0), BuildingBlock: ZUJKAS_clean_linker_0, # of connection points: 2
#     Edge 104, Type (0, 0), BuildingBlock: ZUJKAS_clean_linker_0, # of connection points: 2
#     Edge 105, Type (0, 0), BuildingBlock: ZUJKAS_clean_linker_0, # of connection points: 2
#     Edge 106, Type (0, 0), BuildingBlock: ZUJKAS_clean_linker_0, # of connection points: 2
#     Edge 107, Type (0, 0), BuildingBlock: ZUJKAS_clean_linker_0, # of connection points: 2
#     Edge 108, Type (0, 0), BuildingBlock: ZUJKAS_clean_linker_0, # of connection points: 2
#     Edge 109, Type (0, 0), BuildingBlock: ZUJKAS_clean_linker_0, # of connection points: 2
#     Edge 110, Type (0, 0), BuildingBlock: ZUJKAS_clean_linker_0, # of connection points: 2
#     Edge 111, Type (0, 0), BuildingBlock: ZUJKAS_clean_linker_0, # of connection points: 2
#     Edge 112, Type (0, 0), BuildingBlock: ZUJKAS_clean_linker_0, # of connection points: 2
#     Edge 113, Type (0, 0), BuildingBlock: ZUJKAS_clean_linker_0, # of connection points: 2
#     Edge 114, Type (0, 0), BuildingBlock: ZUJKAS_clean_linker_0, # of connection points: 2
#     Edge 115, Type (0, 0), BuildingBlock: ZUJKAS_clean_linker_0, # of connection points: 2
#     Edge 116, Type (0, 0), BuildingBlock: ZUJKAS_clean_linker_0, # of connection points: 2
#     Edge 117, Type (0, 0), BuildingBlock: ZUJKAS_clean_linker_0, # of connection points: 2
#     Edge 118, Type (0, 0), BuildingBlock: ZUJKAS_clean_linker_0, # of connection points: 2
#     Edge 119, Type (0, 0), BuildingBlock: ZUJKAS_clean_linker_0, # of connection points: 2
#     Edge 120, Type (0, 0), BuildingBlock: ZUJKAS_clean_linker_0, # of connection points: 2
#     Edge 121, Type (0, 0), BuildingBlock: ZUJKAS_clean_linker_0, # of connection points: 2
#     Edge 122, Type (0, 0), BuildingBlock: ZUJKAS_clean_linker_0, # of connection points: 2
#     Edge 123, Type (0, 0), BuildingBlock: ZUJKAS_clean_linker_0, # of connection points: 2
#     Edge 124, Type (0, 0), BuildingBlock: ZUJKAS_clean_linker_0, # of connection points: 2
#     Edge 125, Type (0, 0), BuildingBlock: ZUJKAS_clean_linker_0, # of connection points: 2
#     Edge 126, Type (0, 0), BuildingBlock: ZUJKAS_clean_linker_0, # of connection points: 2
#     Edge 127, Type (0, 0), BuildingBlock: ZUJKAS_clean_linker_0, # of connection points: 2
#     Edge 128, Type (0, 0), BuildingBlock: ZUJKAS_clean_linker_0, # of connection points: 2
#     Edge 129, Type (0, 0), BuildingBlock: ZUJKAS_clean_linker_0, # of connection points: 2
#     Edge 130, Type (0, 0), BuildingBlock: ZUJKAS_clean_linker_0, # of connection points: 2
#     Edge 131, Type (0, 0), BuildingBlock: ZUJKAS_clean_linker_0, # of connection points: 2
#     Edge 132, Type (0, 0), BuildingBlock: ZUJKAS_clean_linker_0, # of connection points: 2
#     Edge 133, Type (0, 0), BuildingBlock: ZUJKAS_clean_linker_0, # of connection points: 2
#     Edge 134, Type (0, 0), BuildingBlock: ZUJKAS_clean_linker_0, # of connection points: 2
#     Edge 135, Type (0, 0), BuildingBlock: ZUJKAS_clean_linker_0, # of connection points: 2
#     Edge 136, Type (0, 0), BuildingBlock: ZUJKAS_clean_linker_0, # of connection points: 2
#     Edge 137, Type (0, 0), BuildingBlock: ZUJKAS_clean_linker_0, # of connection points: 2
#     Edge 138, Type (0, 0), BuildingBlock: ZUJKAS_clean_linker_0, # of connection points: 2
#     Edge 139, Type (0, 0), BuildingBlock: ZUJKAS_clean_linker_0, # of connection points: 2
#     Edge 140, Type (0, 0), BuildingBlock: ZUJKAS_clean_linker_0, # of connection points: 2
#     Edge 141, Type (0, 0), BuildingBlock: ZUJKAS_clean_linker_0, # of connection points: 2
#     Edge 142, Type (0, 0), BuildingBlock: ZUJKAS_clean_linker_0, # of connection points: 2
#     Edge 143, Type (0, 0), BuildingBlock: ZUJKAS_clean_linker_0, # of connection points: 2
# Relax obj value: 0.504
# Max RMSD: 0.243
# Mean RMSD: 0.243
data_MOF--net-wmt--node1-LEVNOQ01_clean_sbu_1--edge1-ZUJKAS_clean_linker_0
_symmetry_space_group_name_H-M    P1
_symmetry_Int_Tables_number       1
_symmetry_cell_setting            triclinic
loop_
_symmetry_equiv_pos_as_xyz
'x, y, z'
_cell_length_a     112.58663
_cell_length_b     112.48031
_cell_length_c     31.891399
_cell_angle_alpha  89.94789
_cell_angle_beta   90.056825
_cell_angle_gamma 119.99325
loop_
_atom_site_label
_atom_site_type_symbol
_atom_site_fract_x
_atom_site_fract_y
_atom_site_fract_z
_atom_type_partial_charge
O0 O 0.05096 0.46103 0.12893 0.0
Mg1 Mg 0.0705 0.4752 0.10263 0.0
O2 O 0.04045 0.47026 0.09409 0.0
Mg3 Mg 0.05297 0.48439 0.03922 0.0
O4 O 0.06768 0.47668 0.04028 0.0
O5 O 0.08157 0.46956 0.06269 0.0
O6 O 0.06503 0.49902 0.98381 0.0
O7 O 0.03928 0.46701 0.98966 0.0
Mg8 Mg 0.03191 0.49187 0.98354 0.0
O9 O 0.03828 0.49182 0.0416 0.0
O10 O 0.05103 0.50537 0.95407 0.0
O11 O 0.02315 0.47121 0.96484 0.0
O12 O 0.02331 0.49846 0.03078 0.0
C13 C 0.07578 0.50435 0.11503 0.0
C14 C 0.04049 0.46227 0.12242 0.0
C15 C 0.07587 0.47221 0.03178 0.0
C16 C 0.06268 0.50614 0.95722 0.0
C17 C 0.02851 0.46363 0.96752 0.0
C18 C 0.03106 0.49667 0.05669 0.0
O19 O 0.07911 0.49549 0.12537 0.0
O20 O 0.06679 0.50191 0.08657 0.0
O21 O 0.5259 0.58628 0.13713 0.0
Mg22 Mg 0.51529 0.59469 0.10477 0.0
O23 O 0.51769 0.5673 0.09844 0.0
Mg24 Mg 0.50454 0.56848 0.04327 0.0
O25 O 0.51726 0.5917 0.04233 0.0
O26 O 0.52627 0.6125 0.07047 0.0
O27 O 0.49174 0.57037 0.98782 0.0
O28 O 0.51821 0.56669 0.99181 0.0
Mg29 Mg 0.48309 0.54096 0.99051 0.0
O30 O 0.49254 0.54584 0.04533 0.0
O31 O 0.47175 0.55134 0.98976 0.0
O32 O 0.50163 0.55016 0.95213 0.0
O33 O 0.47946 0.52424 0.03043 0.0
C34 C 0.4858 0.57499 0.11575 0.0
C35 C 0.52489 0.57473 0.12919 0.0
C36 C 0.52482 0.60484 0.03856 0.0
C37 C 0.47922 0.56343 0.97607 0.0
C38 C 0.51422 0.55926 0.95847 0.0
C39 C 0.4891 0.53338 0.05347 0.0
O40 O 0.4947 0.58734 0.12372 0.0
O41 O 0.48856 0.5679 0.09056 0.0
O42 O 0.40557 0.94033 0.13587 0.0
Mg43 Mg 0.39643 0.92167 0.10125 0.0
O44 O 0.42371 0.95302 0.09519 0.0
Mg45 Mg 0.42262 0.93928 0.03776 0.0
O46 O 0.4 0.92811 0.04073 0.0
O47 O 0.37893 0.91589 0.06489 0.0
O48 O 0.42126 0.92547 0.98008 0.0
O49 O 0.42196 0.95528 0.9906 0.0
Mg50 Mg 0.45121 0.95512 0.97762 0.0
O51 O 0.44494 0.94946 0.03641 0.0
O52 O 0.44126 0.93624 0.94561 0.0
O53 O 0.44298 0.96812 0.96361 0.0
O54 O 0.46673 0.95926 0.02234 0.0
C55 C 0.41757 0.91345 0.10645 0.0
C56 C 0.41652 0.95158 0.12805 0.0
C57 C 0.38708 0.92269 0.03456 0.0
C58 C 0.42928 0.92604 0.95062 0.0
C59 C 0.43065 0.96545 0.96831 0.0
C60 C 0.45711 0.95394 0.04999 0.0
O61 O 0.40492 0.90892 0.1134 0.0
O62 O 0.42442 0.92396 0.08316 0.0
O63 O 0.46671 0.06554 0.44732 0.0
Mg64 Mg 0.47785 0.08387 0.48434 0.0
O65 O 0.46864 0.05054 0.4886 0.0
Mg66 Mg 0.48172 0.06237 0.54697 0.0
O67 O 0.47357 0.07661 0.54392 0.0
O68 O 0.46782 0.09157 0.52227 0.0
O69 O 0.49512 0.07432 0.6056 0.0
O70 O 0.46364 0.04777 0.59306 0.0
Mg71 Mg 0.49007 0.04214 0.60504 0.0
O72 O 0.49025 0.0489 0.54746 0.0
O73 O 0.5019 0.06086 0.63711 0.0
O74 O 0.4688 0.03241 0.61947 0.0
O75 O 0.49896 0.03573 0.55794 0.0
C76 C 0.50564 0.08709 0.4809 0.0
C77 C 0.46437 0.05341 0.45491 0.0
C78 C 0.46736 0.08333 0.55111 0.0
C79 C 0.50199 0.07217 0.63372 0.0
C80 C 0.46057 0.03698 0.61485 0.0
C81 C 0.49621 0.04282 0.53206 0.0
O82 O 0.49939 0.09372 0.47482 0.0
O83 O 0.50018 0.07611 0.50289 0.0
O84 O 0.92801 0.40792 0.44349 0.0
Mg85 Mg 0.91055 0.39966 0.48362 0.0
O86 O 0.94271 0.42475 0.48525 0.0
Mg87 Mg 0.92942 0.42452 0.5419 0.0
O88 O 0.9182 0.40116 0.54253 0.0
O89 O 0.90404 0.3811 0.51242 0.0
O90 O 0.91515 0.42292 0.59722 0.0
O91 O 0.9446 0.42514 0.59275 0.0
Mg92 Mg 0.9365 0.45189 0.59706 0.0
O93 O 0.94125 0.44731 0.54219 0.0
O94 O 0.91476 0.44226 0.59673 0.0
O95 O 0.94495 0.44155 0.63406 0.0
O96 O 0.95076 0.46884 0.55984 0.0
C97 C 0.90289 0.42017 0.47777 0.0
C98 C 0.94 0.41784 0.45116 0.0
C99 C 0.91191 0.3879 0.54332 0.0
C100 C 0.90973 0.42996 0.60917 0.0
C101 C 0.94811 0.43225 0.62678 0.0
C102 C 0.95103 0.45965 0.53644 0.0
O103 O 0.89693 0.40722 0.47612 0.0
O104 O 0.91452 0.42689 0.49589 0.0
O105 O 0.58881 0.52539 0.44765 0.0
Mg106 Mg 0.5978 0.51623 0.48483 0.0
O107 O 0.57018 0.51888 0.48666 0.0
Mg108 Mg 0.57142 0.50573 0.54196 0.0
O109 O 0.59452 0.51957 0.54615 0.0
O110 O 0.61539 0.52852 0.5183 0.0
O111 O 0.57357 0.49336 0.59766 0.0
O112 O 0.56786 0.51815 0.59424 0.0
Mg113 Mg 0.54389 0.48207 0.59018 0.0
O114 O 0.54889 0.4921 0.53641 0.0
O115 O 0.556 0.47252 0.59297 0.0
O116 O 0.5507 0.50039 0.62862 0.0
O117 O 0.52747 0.47707 0.54784 0.0
C118 C 0.57936 0.48756 0.47099 0.0
C119 C 0.57754 0.5251 0.45459 0.0
C120 C 0.60763 0.52754 0.54942 0.0
C121 C 0.56738 0.48086 0.60962 0.0
C122 C 0.55935 0.51327 0.62503 0.0
C123 C 0.53628 0.48769 0.5272 0.0
O124 O 0.59211 0.4958 0.46746 0.0
O125 O 0.57214 0.4908 0.49379 0.0
O126 O 0.93199 0.52653 0.94876 0.0
Mg127 Mg 0.91297 0.51507 0.9818 0.0
O128 O 0.94536 0.52165 0.98848 0.0
Mg129 Mg 0.93233 0.50771 0.04349 0.0
O130 O 0.91926 0.51737 0.04219 0.0
O131 O 0.90563 0.52493 0.02134 0.0
O132 O 0.91821 0.49361 0.09766 0.0
O133 O 0.94632 0.52313 0.0944 0.0
Mg134 Mg 0.94369 0.49066 0.09958 0.0
O135 O 0.94594 0.49878 0.04325 0.0
O136 O 0.9224 0.47644 0.10346 0.0
O137 O 0.95123 0.5097 0.13478 0.0
O138 O 0.95802 0.48923 0.05941 0.0
C139 C 0.90768 0.48644 0.97306 0.0
C140 C 0.94356 0.52753 0.95667 0.0
C141 C 0.91319 0.52418 0.05034 0.0
C142 C 0.91486 0.48161 0.1109 0.0
C143 C 0.95186 0.52118 0.12692 0.0
C144 C 0.95649 0.49762 0.0356 0.0
O145 O 0.90221 0.49382 0.9675 0.0
O146 O 0.91837 0.49059 0.99593 0.0
O147 O 0.46815 0.4036 0.94765 0.0
Mg148 Mg 0.48113 0.39987 0.98971 0.0
O149 O 0.46581 0.41883 0.98621 0.0
Mg150 Mg 0.47969 0.4246 0.04405 0.0
O151 O 0.47588 0.4033 0.04705 0.0
O152 O 0.473 0.38309 0.03181 0.0
O153 O 0.49471 0.43119 0.10131 0.0
O154 O 0.46096 0.41813 0.09123 0.0
Mg155 Mg 0.48219 0.45236 0.0938 0.0
O156 O 0.4819 0.44511 0.03659 0.0
O157 O 0.49914 0.45197 0.12222 0.0
O158 O 0.46311 0.43749 0.11835 0.0
O159 O 0.4833 0.46508 0.04315 0.0
C160 C 0.50654 0.42695 0.98412 0.0
C161 C 0.46321 0.41153 0.95318 0.0
C162 C 0.47072 0.39064 0.05712 0.0
C163 C 0.50142 0.44196 0.12394 0.0
C164 C 0.4567 0.4245 0.11487 0.0
C165 C 0.48263 0.45565 0.0187 0.0
O166 O 0.50215 0.41413 0.98317 0.0
O167 O 0.49937 0.43172 1.00068 0.0
O168 O 0.5897 0.05842 0.94799 0.0
Mg169 Mg 0.5979 0.07686 0.98422 0.0
O170 O 0.57254 0.04485 0.99069 0.0
Mg171 Mg 0.57266 0.05795 0.04788 0.0
O172 O 0.59555 0.07059 0.04547 0.0
O173 O 0.61604 0.0843 0.01866 0.0
O174 O 0.57273 0.07107 0.10564 0.0
O175 O 0.57403 0.0422 0.0948 0.0
Mg176 Mg 0.54348 0.04056 0.10573 0.0
O177 O 0.55038 0.04652 0.04783 0.0
O178 O 0.55235 0.05947 0.13779 0.0
O179 O 0.55289 0.0287 0.12053 0.0
O180 O 0.52839 0.03573 0.05857 0.0
C181 C 0.57555 0.08318 0.97967 0.0
C182 C 0.57938 0.04679 0.95682 0.0
C183 C 0.60865 0.07715 0.04987 0.0
C184 C 0.56418 0.07001 0.13399 0.0
C185 C 0.56538 0.03179 0.11649 0.0
C186 C 0.53839 0.04157 0.03236 0.0
O187 O 0.58827 0.0886 0.97195 0.0
O188 O 0.56957 0.07261 1.0032 0.0
O189 O 0.52549 0.93274 0.63693 0.0
Mg190 Mg 0.51412 0.91452 0.59957 0.0
O191 O 0.52478 0.9482 0.59462 0.0
Mg192 Mg 0.51211 0.93665 0.53533 0.0
O193 O 0.51945 0.92173 0.54034 0.0
O194 O 0.52399 0.90612 0.56431 0.0
O195 O 0.4992 0.92515 0.47565 0.0
O196 O 0.53109 0.95047 0.49017 0.0
Mg197 Mg 0.50814 0.9589 0.47501 0.0
O198 O 0.50434 0.95084 0.53239 0.0
O199 O 0.4981 0.94122 0.43691 0.0
O200 O 0.52975 0.96889 0.47146 0.0
O201 O 0.49736 0.96509 0.51522 0.0
C202 C 0.48682 0.91239 0.5995 0.0
C203 C 0.52846 0.94505 0.62898 0.0
C204 C 0.52531 0.91457 0.53496 0.0
C205 C 0.49552 0.92895 0.44253 0.0
C206 C 0.53624 0.96235 0.47273 0.0
C207 C 0.49842 0.95747 0.54342 0.0
O208 O 0.49254 0.90529 0.60608 0.0
O209 O 0.4929 0.92351 0.57816 0.0
O210 O 0.05617 0.59002 0.63875 0.0
Mg211 Mg 0.07518 0.59709 0.60576 0.0
O212 O 0.04274 0.57228 0.59752 0.0
Mg213 Mg 0.05503 0.57172 0.54033 0.0
O214 O 0.06923 0.59418 0.54491 0.0
O215 O 0.08377 0.61484 0.56814 0.0
O216 O 0.06704 0.57092 0.48258 0.0
O217 O 0.04088 0.57593 0.49371 0.0
Mg218 Mg 0.03363 0.54477 0.481 0.0
O219 O 0.04154 0.54936 0.53827 0.0
O220 O 0.05209 0.55264 0.44505 0.0
O221 O 0.02304 0.55568 0.47572 0.0
O222 O 0.02762 0.52791 0.52158 0.0
C223 C 0.07926 0.57278 0.60858 0.0
C224 C 0.04455 0.57961 0.6301 0.0
C225 C 0.07633 0.6071 0.53791 0.0
C226 C 0.06402 0.56295 0.45093 0.0
C227 C 0.02908 0.56869 0.47634 0.0
C228 C 0.03587 0.5367 0.54849 0.0
O229 O 0.08506 0.58549 0.61712 0.0
O230 O 0.06867 0.56701 0.58494 0.0
O231 O 0.40429 0.46581 0.6394 0.0
Mg232 Mg 0.39554 0.47618 0.60664 0.0
O233 O 0.42227 0.47164 0.59769 0.0
Mg234 Mg 0.4216 0.48498 0.54248 0.0
O235 O 0.39879 0.47417 0.54484 0.0
O236 O 0.37785 0.4658 0.56971 0.0
O237 O 0.42126 0.4984 0.48658 0.0
O238 O 0.42077 0.46866 0.49351 0.0
Mg239 Mg 0.45124 0.49845 0.48512 0.0
O240 O 0.44369 0.49589 0.54244 0.0
O241 O 0.44223 0.50925 0.45775 0.0
O242 O 0.44179 0.47751 0.46547 0.0
O243 O 0.46583 0.50707 0.53509 0.0
C244 C 0.41716 0.50549 0.61435 0.0
C245 C 0.41519 0.46558 0.6303 0.0
C246 C 0.38579 0.4673 0.53864 0.0
C247 C 0.43003 0.50709 0.46077 0.0
C248 C 0.4295 0.46768 0.46988 0.0
C249 C 0.45541 0.50237 0.55971 0.0
O250 O 0.40462 0.49722 0.62226 0.0
O251 O 0.42387 0.5021 0.58942 0.0
O252 O 0.71606 0.79501 0.46621 0.0
Mg253 Mg 0.73657 0.80772 0.44599 0.0
O254 O 0.70647 0.80522 0.43084 0.0
Mg255 Mg 0.72242 0.82069 0.38045 0.0
O256 O 0.73442 0.81025 0.3842 0.0
O257 O 0.74649 0.80089 0.40472 0.0
O258 O 0.73849 0.83552 0.33025 0.0
O259 O 0.70804 0.80606 0.32554 0.0
Mg260 Mg 0.70926 0.83669 0.32087 0.0
O261 O 0.71156 0.83219 0.37981 0.0
O262 O 0.72862 0.84509 0.2931 0.0
O263 O 0.69627 0.81591 0.30116 0.0
O264 O 0.70975 0.85017 0.36899 0.0
C265 C 0.74403 0.83729 0.46247 0.0
C266 C 0.70576 0.79641 0.45799 0.0
C267 C 0.74175 0.80493 0.37453 0.0
C268 C 0.73881 0.84357 0.30127 0.0
C269 C 0.6985 0.80583 0.30246 0.0
C270 C 0.7125 0.84314 0.39503 0.0
O271 O 0.74659 0.82783 0.47232 0.0
O272 O 0.73581 0.83572 0.43261 0.0
O273 O 0.20119 0.93313 0.46528 0.0
Mg274 Mg 0.1862 0.93493 0.42752 0.0
O275 O 0.1986 0.91469 0.4315 0.0
Mg276 Mg 0.18443 0.90848 0.37392 0.0
O277 O 0.18858 0.92991 0.36787 0.0
O278 O 0.19161 0.95034 0.38174 0.0
O279 O 0.16953 0.90123 0.31583 0.0
O280 O 0.20289 0.91357 0.32695 0.0
Mg281 Mg 0.18164 0.87951 0.33038 0.0
O282 O 0.18153 0.88812 0.38448 0.0
O283 O 0.16529 0.88015 0.29851 0.0
O284 O 0.20112 0.89369 0.30648 0.0
O285 O 0.1798 0.86799 0.38528 0.0
C286 C 0.15984 0.90795 0.44026 0.0
C287 C 0.20381 0.92339 0.46128 0.0
C288 C 0.19242 0.94213 0.35525 0.0
C289 C 0.16308 0.89016 0.29423 0.0
C290 C 0.20739 0.90675 0.30656 0.0
C291 C 0.18039 0.87807 0.40615 0.0
O292 O 0.16572 0.92088 0.44513 0.0
O293 O 0.16533 0.90246 0.41805 0.0
O294 O 0.05751 0.26007 0.47041 0.0
Mg295 Mg 0.058 0.24569 0.42533 0.0
O296 O 0.06803 0.27968 0.43418 0.0
Mg297 Mg 0.07886 0.27634 0.37952 0.0
O298 O 0.06111 0.25573 0.37077 0.0
O299 O 0.04255 0.23597 0.37836 0.0
O300 O 0.09044 0.27408 0.32415 0.0
O301 O 0.06949 0.28457 0.32833 0.0
Mg302 Mg 0.09795 0.30812 0.3409 0.0
O303 O 0.09638 0.29714 0.39159 0.0
O304 O 0.10119 0.29526 0.29624 0.0
O305 O 0.07846 0.30676 0.3377 0.0
O306 O 0.11299 0.31829 0.38852 0.0
C307 C 0.08713 0.25577 0.43897 0.0
C308 C 0.06164 0.27288 0.46667 0.0
C309 C 0.04917 0.24715 0.35714 0.0
C310 C 0.09793 0.28258 0.2957 0.0
C311 C 0.07004 0.29589 0.31865 0.0
C312 C 0.10804 0.30637 0.40565 0.0
O313 O 0.07607 0.24464 0.43162 0.0
O314 O 0.08872 0.2674 0.4271 0.0
O315 O 0.12421 0.38541 0.77401 0.0
Mg316 Mg 0.13633 0.4047 0.80398 0.0
O317 O 0.13022 0.37325 0.81538 0.0
Mg318 Mg 0.14353 0.38713 0.87161 0.0
O319 O 0.13387 0.40013 0.86623 0.0
O320 O 0.12682 0.41342 0.83754 0.0
O321 O 0.1567 0.40073 0.92914 0.0
O322 O 0.12607 0.37255 0.92019 0.0
Mg323 Mg 0.15267 0.36889 0.93384 0.0
O324 O 0.15379 0.3752 0.87487 0.0
O325 O 0.16228 0.38746 0.96718 0.0
O326 O 0.13134 0.35714 0.94482 0.0
O327 O 0.16376 0.36359 0.89242 0.0
C328 C 0.16526 0.41083 0.79907 0.0
C329 C 0.12376 0.37422 0.78359 0.0
C330 C 0.12762 0.40699 0.86992 0.0
C331 C 0.16257 0.39875 0.96079 0.0
C332 C 0.12307 0.36168 0.94153 0.0
C333 C 0.16078 0.36969 0.86351 0.0
O334 O 0.15748 0.4155 0.78875 0.0
O335 O 0.16127 0.40097 0.82537 0.0
O336 O 0.59558 0.73483 0.78493 0.0
Mg337 Mg 0.57726 0.72864 0.82005 0.0
O338 O 0.60984 0.75269 0.82425 0.0
Mg339 Mg 0.59689 0.75438 0.87973 0.0
O340 O 0.58359 0.73142 0.88116 0.0
O341 O 0.56886 0.71087 0.85606 0.0
O342 O 0.58377 0.75608 0.93517 0.0
O343 O 0.61198 0.75318 0.92982 0.0
Mg344 Mg 0.61529 0.78461 0.93313 0.0
O345 O 0.60897 0.7766 0.87661 0.0
O346 O 0.59642 0.77687 0.9642 0.0
O347 O 0.62636 0.77462 0.9521 0.0
O348 O 0.61911 0.79871 0.88305 0.0
C349 C 0.57245 0.75172 0.80891 0.0
C350 C 0.60752 0.74489 0.7923 0.0
C351 C 0.57668 0.71831 0.88622 0.0
C352 C 0.58534 0.76541 0.96144 0.0
C353 C 0.62252 0.76187 0.95096 0.0
C354 C 0.61293 0.78816 0.85899 0.0
O355 O 0.56642 0.73885 0.80334 0.0
O356 O 0.583 0.75761 0.83243 0.0
O357 O 0.26054 0.8692 0.78363 0.0
Mg358 Mg 0.26555 0.85471 0.80953 0.0
O359 O 0.24149 0.8631 0.82028 0.0
Mg360 Mg 0.23922 0.8476 0.87334 0.0
O361 O 0.26134 0.85466 0.87139 0.0
O362 O 0.28215 0.86045 0.85078 0.0
O363 O 0.23697 0.83256 0.92814 0.0
O364 O 0.24229 0.86449 0.92396 0.0
Mg365 Mg 0.21002 0.83822 0.92948 0.0
O366 O 0.2173 0.83911 0.87238 0.0
O367 O 0.21693 0.82621 0.96003 0.0
O368 O 0.22134 0.85938 0.9461 0.0
O369 O 0.19528 0.82909 0.8807 0.0
C370 C 0.24052 0.82696 0.79595 0.0
C371 C 0.25004 0.8703 0.79153 0.0
C372 C 0.27387 0.8589 0.88088 0.0
C373 C 0.22785 0.8256 0.95584 0.0
C374 C 0.23427 0.86744 0.94457 0.0
C375 C 0.20547 0.83253 0.8557 0.0
O376 O 0.25317 0.83432 0.78704 0.0
O377 O 0.23495 0.83076 0.82379 0.0
O378 O 0.59926 0.86045 0.28305 0.0
Mg379 Mg 0.58066 0.8503 0.31852 0.0
O380 O 0.61123 0.85352 0.32172 0.0
Mg381 Mg 0.59745 0.84042 0.37791 0.0
O382 O 0.58712 0.85311 0.3799 0.0
O383 O 0.57478 0.86184 0.35448 0.0
O384 O 0.58297 0.82782 0.43414 0.0
O385 O 0.61361 0.85415 0.42972 0.0
Mg386 Mg 0.60317 0.81893 0.42898 0.0
O387 O 0.60708 0.82752 0.37245 0.0
O388 O 0.58165 0.80768 0.43317 0.0
O389 O 0.61388 0.83733 0.46687 0.0
O390 O 0.61375 0.81281 0.38819 0.0
C391 C 0.57172 0.82133 0.30687 0.0
C392 C 0.61017 0.86002 0.29017 0.0
C393 C 0.58178 0.86081 0.38486 0.0
C394 C 0.57729 0.81537 0.44662 0.0
C395 C 0.61744 0.84998 0.46197 0.0
C396 C 0.61377 0.82155 0.36197 0.0
O397 O 0.56701 0.82936 0.3015 0.0
O398 O 0.5821 0.82484 0.33036 0.0
O399 O 0.13206 0.73173 0.27022 0.0
Mg400 Mg 0.14637 0.73063 0.31422 0.0
O401 O 0.12474 0.74328 0.30906 0.0
Mg402 Mg 0.1382 0.75149 0.36715 0.0
O403 O 0.13936 0.7326 0.37013 0.0
O404 O 0.13997 0.71393 0.35709 0.0
O405 O 0.15159 0.76054 0.42557 0.0
O406 O 0.11953 0.74131 0.41588 0.0
Mg407 Mg 0.12707 0.77018 0.41177 0.0
O408 O 0.13657 0.77001 0.35885 0.0
O409 O 0.14175 0.77108 0.458 0.0
O410 O 0.108 0.75201 0.40687 0.0
O411 O 0.13157 0.78618 0.36971 0.0
C412 C 0.1675 0.7601 0.31081 0.0
C413 C 0.1244 0.73701 0.27536 0.0
C414 C 0.13586 0.72036 0.38102 0.0
C415 C 0.15065 0.76717 0.45678 0.0
C416 C 0.10912 0.7426 0.42469 0.0
C417 C 0.13731 0.78115 0.34632 0.0
O418 O 0.16612 0.74819 0.3122 0.0
O419 O 0.15802 0.76237 0.32391 0.0
O420 O 0.26143 0.39429 0.27875 0.0
Mg421 Mg 0.26399 0.41114 0.31794 0.0
O422 O 0.24567 0.37688 0.31673 0.0
Mg423 Mg 0.23959 0.38522 0.37367 0.0
O424 O 0.2606 0.40306 0.37629 0.0
O425 O 0.28044 0.42094 0.36089 0.0
O426 O 0.23298 0.39308 0.43166 0.0
O427 O 0.24639 0.37351 0.42256 0.0
Mg428 Mg 0.21441 0.35778 0.42233 0.0
O429 O 0.21901 0.36764 0.36775 0.0
O430 O 0.21723 0.37389 0.46383 0.0
O431 O 0.22948 0.3519 0.42751 0.0
O432 O 0.19892 0.34935 0.37595 0.0
C433 C 0.2364 0.40829 0.30881 0.0
C434 C 0.25349 0.38144 0.28468 0.0
C435 C 0.27304 0.41129 0.38697 0.0
C436 C 0.22474 0.38693 0.46216 0.0
C437 C 0.24167 0.36115 0.43585 0.0
C438 C 0.2074 0.35916 0.35202 0.0
O439 O 0.24912 0.41701 0.30712 0.0
O440 O 0.23201 0.39678 0.32791 0.0
O441 O 0.19879 0.2675 0.97432 0.0
Mg442 Mg 0.18184 0.2505 0.94337 0.0
O443 O 0.19924 0.28323 0.93134 0.0
Mg444 Mg 0.18401 0.27389 0.87638 0.0
O445 O 0.18373 0.25393 0.88018 0.0
O446 O 0.18287 0.23553 0.90801 0.0
O447 O 0.16944 0.26625 0.8189 0.0
O448 O 0.20238 0.28289 0.82603 0.0
Mg449 Mg 0.19062 0.30254 0.82231 0.0
O450 O 0.18356 0.29259 0.87527 0.0
O451 O 0.17707 0.28581 0.78206 0.0
O452 O 0.21062 0.30536 0.82713 0.0
O453 O 0.18284 0.31131 0.86658 0.0
C454 C 0.15873 0.25605 0.95068 0.0
C455 C 0.20356 0.28 0.96395 0.0
C456 C 0.1838 0.24263 0.87513 0.0
C457 C 0.16955 0.27278 0.78572 0.0
C458 C 0.21156 0.29512 0.81519 0.0
C459 C 0.18024 0.30097 0.8899 0.0
O460 O 0.1625 0.24751 0.96038 0.0
O461 O 0.16547 0.26574 0.92422 0.0
O462 O 0.72208 0.92047 0.97363 0.0
Mg463 Mg 0.74217 0.92995 0.94702 0.0
O464 O 0.71213 0.90128 0.93515 0.0
Mg465 Mg 0.72786 0.90302 0.88339 0.0
O466 O 0.73822 0.92571 0.88478 0.0
O467 O 0.74914 0.94705 0.90749 0.0
O468 O 0.74396 0.90627 0.83115 0.0
O469 O 0.71309 0.90115 0.82763 0.0
Mg470 Mg 0.72473 0.87762 0.83105 0.0
O471 O 0.71846 0.88037 0.88686 0.0
O472 O 0.74631 0.88813 0.83223 0.0
O473 O 0.71427 0.8849 0.79047 0.0
O474 O 0.71365 0.85978 0.86627 0.0
C475 C 0.75151 0.90982 0.96151 0.0
C476 C 0.71178 0.90881 0.96482 0.0
C477 C 0.74383 0.93855 0.87677 0.0
C478 C 0.75044 0.90022 0.81969 0.0
C479 C 0.71011 0.89354 0.79469 0.0
C480 C 0.71212 0.86739 0.89346 0.0
O481 O 0.75503 0.92224 0.96894 0.0
O482 O 0.74215 0.90278 0.9349 0.0
O483 O 0.07152 0.79723 0.96526 0.0
Mg484 Mg 0.06385 0.80787 0.92925 0.0
O485 O 0.08849 0.80117 0.92158 0.0
Mg486 Mg 0.08801 0.81471 0.86649 0.0
O487 O 0.06471 0.80316 0.8672 0.0
O488 O 0.04508 0.79702 0.90056 0.0
O489 O 0.0877 0.82808 0.80943 0.0
O490 O 0.08786 0.7985 0.81794 0.0
Mg491 Mg 0.11782 0.82857 0.81097 0.0
O492 O 0.11015 0.8264 0.86821 0.0
O493 O 0.10859 0.8384 0.78009 0.0
O494 O 0.10938 0.80751 0.79372 0.0
O495 O 0.13214 0.83888 0.85996 0.0
C496 C 0.08474 0.83623 0.9379 0.0
C497 C 0.08171 0.79586 0.95528 0.0
C498 C 0.05146 0.79658 0.86753 0.0
C499 C 0.09645 0.83637 0.78268 0.0
C500 C 0.09707 0.79759 0.79655 0.0
C501 C 0.12182 0.83386 0.88522 0.0
O502 O 0.07204 0.82879 0.94506 0.0
O503 O 0.0907 0.83191 0.91336 0.0
O504 O 0.38893 0.13388 0.80186 0.0
Mg505 Mg 0.40758 0.14423 0.76696 0.0
O506 O 0.37603 0.13878 0.76026 0.0
Mg507 Mg 0.38973 0.15214 0.70396 0.0
O508 O 0.40132 0.14076 0.70578 0.0
O509 O 0.41432 0.13302 0.73227 0.0
O510 O 0.40358 0.16532 0.64721 0.0
O511 O 0.37389 0.13569 0.65573 0.0
Mg512 Mg 0.37413 0.16559 0.64567 0.0
O513 O 0.37924 0.16417 0.70458 0.0
O514 O 0.39334 0.17563 0.6157 0.0
O515 O 0.36173 0.1446 0.62812 0.0
O516 O 0.36914 0.17598 0.69141 0.0
C517 C 0.41501 0.17326 0.7739 0.0
C518 C 0.37751 0.1331 0.79327 0.0
C519 C 0.40711 0.13346 0.70151 0.0
C520 C 0.40339 0.17356 0.61974 0.0
C521 C 0.36404 0.1347 0.63272 0.0
C522 C 0.37455 0.17165 0.71874 0.0
O523 O 0.41985 0.16543 0.7813 0.0
O524 O 0.40464 0.16931 0.74986 0.0
O525 O 0.85653 0.25654 0.79375 0.0
Mg526 Mg 0.84594 0.26413 0.75731 0.0
O527 O 0.85008 0.23764 0.75605 0.0
Mg528 Mg 0.83566 0.23727 0.70179 0.0
O529 O 0.84825 0.26043 0.69535 0.0
O530 O 0.85682 0.28149 0.72154 0.0
O531 O 0.82243 0.23862 0.6461 0.0
O532 O 0.8494 0.23474 0.65116 0.0
Mg533 Mg 0.81587 0.20968 0.65326 0.0
O534 O 0.82237 0.21412 0.71265 0.0
O535 O 0.80389 0.21845 0.63811 0.0
O536 O 0.83443 0.21532 0.61867 0.0
O537 O 0.80734 0.19295 0.69288 0.0
C538 C 0.8175 0.24483 0.77381 0.0
C539 C 0.85664 0.24545 0.78707 0.0
C540 C 0.85551 0.27357 0.69052 0.0
C541 C 0.81063 0.2311 0.62958 0.0
C542 C 0.84653 0.22552 0.62308 0.0
C543 C 0.81533 0.20116 0.72154 0.0
O544 O 0.82563 0.25761 0.77761 0.0
O545 O 0.82072 0.23775 0.75025 0.0
O546 O 0.73116 0.59485 0.8002 0.0
Mg547 Mg 0.72923 0.57938 0.75536 0.0
O548 O 0.74458 0.61385 0.76357 0.0
Mg549 Mg 0.75213 0.60787 0.70521 0.0
O550 O 0.73189 0.5891 0.70003 0.0
O551 O 0.71259 0.57027 0.71227 0.0
O552 O 0.76056 0.60279 0.64663 0.0
O553 O 0.74458 0.61911 0.65786 0.0
Mg554 Mg 0.77603 0.63825 0.66403 0.0
O555 O 0.77156 0.62637 0.71422 0.0
O556 O 0.77504 0.62333 0.61826 0.0
O557 O 0.75891 0.64145 0.66219 0.0
O558 O 0.79144 0.64459 0.71222 0.0
C559 C 0.75767 0.58489 0.7615 0.0
C560 C 0.73755 0.60792 0.79626 0.0
C561 C 0.71948 0.58091 0.68899 0.0
C562 C 0.76884 0.61017 0.61757 0.0
C563 C 0.74797 0.63145 0.64769 0.0
C564 C 0.78363 0.63284 0.72925 0.0
O565 O 0.74542 0.57497 0.75927 0.0
O566 O 0.76089 0.59688 0.74817 0.0
O567 O 0.79504 0.72015 0.10347 0.0
Mg568 Mg 0.8048 0.7399 0.13158 0.0
O569 O 0.79902 0.708 0.15126 0.0
Mg570 Mg 0.81222 0.72354 0.20441 0.0
O571 O 0.80185 0.73545 0.19327 0.0
O572 O 0.79351 0.74733 0.16326 0.0
O573 O 0.82623 0.74014 0.2535 0.0
O574 O 0.79287 0.70978 0.25351 0.0
Mg575 Mg 0.81445 0.712 0.26384 0.0
O576 O 0.82496 0.71246 0.21034 0.0
O577 O 0.81496 0.72713 0.30548 0.0
O578 O 0.79673 0.69312 0.27075 0.0
O579 O 0.83303 0.7138 0.27505 0.0
C580 C 0.83397 0.74685 0.13147 0.0
C581 C 0.79386 0.70888 0.11628 0.0
C582 C 0.79496 0.74162 0.1964 0.0
C583 C 0.82353 0.73886 0.29234 0.0
C584 C 0.78878 0.69801 0.2709 0.0
C585 C 0.83462 0.71368 0.23516 0.0
O586 O 0.82624 0.75164 0.12172 0.0
O587 O 0.82985 0.73664 0.15652 0.0
O588 O 0.26234 0.07161 0.10819 0.0
Mg589 Mg 0.24435 0.06387 0.14613 0.0
O590 O 0.27587 0.08929 0.14912 0.0
Mg591 Mg 0.2625 0.08944 0.20552 0.0
O592 O 0.25132 0.0663 0.20685 0.0
O593 O 0.23765 0.04579 0.17894 0.0
O594 O 0.24882 0.08875 0.26294 0.0
O595 O 0.27879 0.09003 0.25406 0.0
Mg596 Mg 0.2762 0.11881 0.2601 0.0
O597 O 0.2725 0.11208 0.2011 0.0
O598 O 0.25678 0.10993 0.28793 0.0
O599 O 0.28901 0.11109 0.28233 0.0
O600 O 0.28188 0.13404 0.21398 0.0
C601 C 0.23657 0.08462 0.13704 0.0
C602 C 0.27398 0.08205 0.11609 0.0
C603 C 0.2453 0.05311 0.20957 0.0
C604 C 0.24785 0.09727 0.28739 0.0
C605 C 0.28786 0.09928 0.27818 0.0
C606 C 0.27779 0.12433 0.18664 0.0
O607 O 0.23123 0.07179 0.13186 0.0
O608 O 0.24729 0.09106 0.15957 0.0
O609 O 0.92061 0.19549 0.10553 0.0
Mg610 Mg 0.92924 0.18503 0.1381 0.0
O611 O 0.90147 0.18838 0.14288 0.0
Mg612 Mg 0.90155 0.17436 0.19819 0.0
O613 O 0.92435 0.18565 0.19906 0.0
O614 O 0.94592 0.19504 0.17939 0.0
O615 O 0.90249 0.16077 0.25253 0.0
O616 O 0.9005 0.18803 0.25174 0.0
Mg617 Mg 0.87337 0.15323 0.25002 0.0
O618 O 0.87897 0.16332 0.19641 0.0
O619 O 0.88307 0.14118 0.24851 0.0
O620 O 0.88354 0.17134 0.29008 0.0
O621 O 0.85725 0.15184 0.2109 0.0
C622 C 0.90806 0.15565 0.12528 0.0
C623 C 0.90925 0.1951 0.11194 0.0
C624 C 0.93711 0.19265 0.20863 0.0
C625 C 0.89513 0.14817 0.26297 0.0
C626 C 0.89305 0.18386 0.28506 0.0
C627 C 0.86698 0.16148 0.18943 0.0
O628 O 0.92067 0.16426 0.11944 0.0
O629 O 0.9007 0.15841 0.14943 0.0
O630 O 0.27936 0.19986 0.61204 0.0
Mg631 Mg 0.25975 0.19084 0.63867 0.0
O632 O 0.28884 0.19094 0.6538 0.0
Mg633 Mg 0.27286 0.17879 0.70883 0.0
O634 O 0.26359 0.19199 0.70107 0.0
O635 O 0.25393 0.20294 0.67263 0.0
O636 O 0.25735 0.16736 0.76442 0.0
O637 O 0.28886 0.19466 0.75839 0.0
Mg638 Mg 0.28575 0.16429 0.77438 0.0
O639 O 0.28052 0.16444 0.71488 0.0
O640 O 0.26724 0.15862 0.80573 0.0
O641 O 0.3007 0.18523 0.78447 0.0
O642 O 0.28725 0.15016 0.73363 0.0
C643 C 0.2487 0.1604 0.63349 0.0
C644 C 0.28943 0.19832 0.6221 0.0
C645 C 0.25856 0.19991 0.70549 0.0
C646 C 0.25744 0.16077 0.79717 0.0
C647 C 0.2988 0.19542 0.78039 0.0
C648 C 0.28291 0.15488 0.70418 0.0
O649 O 0.24649 0.16992 0.6217 0.0
O650 O 0.25763 0.16259 0.66165 0.0
O651 O 0.799 0.08142 0.61175 0.0
Mg652 Mg 0.80814 0.07047 0.6365 0.0
O653 O 0.80578 0.09704 0.66269 0.0
Mg654 Mg 0.8176 0.0916 0.71283 0.0
O655 O 0.80435 0.06884 0.69925 0.0
O656 O 0.79563 0.05074 0.65656 0.0
O657 O 0.82952 0.08666 0.76451 0.0
O658 O 0.8009 0.08927 0.76325 0.0
Mg659 Mg 0.83044 0.11693 0.78667 0.0
O660 O 0.83057 0.11339 0.72585 0.0
O661 O 0.83788 0.10429 0.80985 0.0
O662 O 0.80918 0.10918 0.7978 0.0
O663 O 0.84338 0.13425 0.74883 0.0
C664 C 0.8378 0.08927 0.63505 0.0
C665 C 0.79953 0.09195 0.6281 0.0
C666 C 0.79659 0.0558 0.69351 0.0
C667 C 0.83645 0.09291 0.7973 0.0
C668 C 0.79938 0.09724 0.78888 0.0
C669 C 0.83937 0.12584 0.71775 0.0
O670 O 0.82885 0.0775 0.62226 0.0
O671 O 0.83489 0.09535 0.66372 0.0
O672 O 0.92092 0.72829 0.60036 0.0
Mg673 Mg 0.92649 0.74566 0.64081 0.0
O674 O 0.90456 0.71227 0.64063 0.0
Mg675 Mg 0.90135 0.72291 0.6981 0.0
O676 O 0.92382 0.7379 0.7004 0.0
O677 O 0.94407 0.75416 0.67851 0.0
O678 O 0.89824 0.73371 0.75686 0.0
O679 O 0.90375 0.70807 0.745 0.0
Mg680 Mg 0.87076 0.70346 0.7478 0.0
O681 O 0.87961 0.70867 0.69226 0.0
O682 O 0.87619 0.72253 0.77604 0.0
O683 O 0.88276 0.69508 0.77298 0.0
O684 O 0.85794 0.69392 0.69428 0.0
C685 C 0.90194 0.74801 0.63417 0.0
C686 C 0.91188 0.71582 0.60738 0.0
C687 C 0.93672 0.74559 0.70734 0.0
C688 C 0.88836 0.73256 0.77968 0.0
C689 C 0.89533 0.69833 0.76917 0.0
C690 C 0.86907 0.69964 0.67273 0.0
O691 O 0.91483 0.75554 0.63087 0.0
O692 O 0.89676 0.73661 0.65387 0.0
O693 O 0.85925 0.60074 0.29396 0.0
Mg694 Mg 0.84852 0.58241 0.25779 0.0
O695 O 0.85584 0.61463 0.25194 0.0
Mg696 Mg 0.8415 0.60081 0.19734 0.0
O697 O 0.85284 0.5889 0.19671 0.0
O698 O 0.85932 0.575 0.22512 0.0
O699 O 0.82765 0.58673 0.14167 0.0
O700 O 0.85741 0.61613 0.14815 0.0
Mg701 Mg 0.82793 0.61632 0.14068 0.0
O702 O 0.82936 0.61169 0.20016 0.0
O703 O 0.81729 0.59711 0.11166 0.0
O704 O 0.84879 0.62868 0.12174 0.0
O705 O 0.81806 0.6223 0.18454 0.0
C706 C 0.82064 0.57613 0.26933 0.0
C707 C 0.86101 0.61256 0.28513 0.0
C708 C 0.85967 0.58252 0.19404 0.0
C709 C 0.8192 0.58695 0.11508 0.0
C710 C 0.85852 0.62608 0.12556 0.0
C711 C 0.8225 0.61733 0.21297 0.0
O712 O 0.8275 0.57008 0.27365 0.0
O713 O 0.82514 0.58666 0.24578 0.0
O714 O 0.39768 0.26209 0.29589 0.0
Mg715 Mg 0.41728 0.27128 0.2662 0.0
O716 O 0.38812 0.24278 0.25815 0.0
Mg717 Mg 0.4023 0.24465 0.20157 0.0
O718 O 0.41277 0.26747 0.20393 0.0
O719 O 0.42403 0.28866 0.22785 0.0
O720 O 0.41681 0.24728 0.14387 0.0
O721 O 0.38634 0.24358 0.15198 0.0
Mg722 Mg 0.39517 0.21799 0.144 0.0
O723 O 0.39263 0.2221 0.20296 0.0
O724 O 0.41656 0.22768 0.1379 0.0
O725 O 0.38466 0.22677 0.11018 0.0
O726 O 0.38512 0.20085 0.18348 0.0
C727 C 0.42651 0.25054 0.27658 0.0
C728 C 0.38778 0.25006 0.28855 0.0
C729 C 0.41808 0.28038 0.197 0.0
C730 C 0.4217 0.24018 0.12805 0.0
C731 C 0.38185 0.23621 0.11868 0.0
C732 C 0.3863 0.20934 0.21249 0.0
O733 O 0.42947 0.26265 0.28657 0.0
O734 O 0.41749 0.24387 0.24867 0.0
O735 O 0.73491 0.13626 0.30073 0.0
Mg736 Mg 0.73171 0.14893 0.2557 0.0
O737 O 0.74944 0.13203 0.26486 0.0
Mg738 Mg 0.75592 0.14541 0.20626 0.0
O739 O 0.73484 0.14204 0.20071 0.0
O740 O 0.71503 0.14051 0.21314 0.0
O741 O 0.76299 0.15943 0.14811 0.0
O742 O 0.74905 0.12625 0.16035 0.0
Mg743 Mg 0.78122 0.14304 0.16075 0.0
O744 O 0.77705 0.14873 0.21556 0.0
O745 O 0.78003 0.15752 0.11904 0.0
O746 O 0.76633 0.12221 0.15281 0.0
O747 O 0.79679 0.14962 0.2063 0.0
C748 C 0.75898 0.17303 0.26233 0.0
C749 C 0.74219 0.13048 0.29738 0.0
C750 C 0.72234 0.13733 0.18971 0.0
C751 C 0.77214 0.16265 0.11981 0.0
C752 C 0.75388 0.11877 0.14682 0.0
C753 C 0.78912 0.15241 0.22945 0.0
O754 O 0.74656 0.17007 0.2594 0.0
O755 O 0.76287 0.16476 0.24928 0.0
H756 H 0.10176 0.3879 0.88771 0.0
H757 H 0.08601 0.39514 0.91396 0.0
H758 H 0.12035 0.43272 0.95951 0.0
H759 H 0.13609 0.42566 0.93208 0.0
H760 H 0.08311 0.41342 0.98984 0.0
H761 H 0.10503 0.43709 0.83513 0.0
H762 H 0.10447 0.4216 0.85326 0.0
H763 H 0.11707 0.43798 0.87384 0.0
C764 C 0.10586 0.39721 0.90622 0.0
C765 C 0.12003 0.40643 0.90729 0.0
C766 C 0.09685 0.40137 0.92089 0.0
C767 C 0.10214 0.4146 0.93733 0.0
C768 C 0.11617 0.4225 0.94645 0.0
H769 H 0.09985 0.47978 0.99339 0.0
H770 H 0.10279 0.46425 0.94739 0.0
C771 C 0.12517 0.41843 0.93116 0.0
C772 C 0.09424 0.42167 0.93262 0.0
H773 H 0.09376 0.4467 0.87353 0.0
C774 C 0.08507 0.42043 0.96397 0.0
C775 C 0.09677 0.43058 0.89818 0.0
C776 C 0.10629 0.43186 0.86293 0.0
C777 C 0.07926 0.42892 0.96386 0.0
C778 C 0.08271 0.4387 0.93119 0.0
C779 C 0.091 0.43907 0.89804 0.0
C780 C 0.08102 0.45072 0.93755 0.0
C781 C 0.07055 0.42826 1.00076 0.0
C782 C 0.06794 0.44916 0.94241 0.0
C783 C 0.06628 0.4582 0.96848 0.0
C784 C 0.07771 0.4686 0.98944 0.0
C785 C 0.09092 0.47169 0.97766 0.0
C786 C 0.09258 0.46279 0.9514 0.0
H787 H 0.06945 0.4205 0.02437 0.0
H788 H 0.07513 0.43842 0.01644 0.0
H789 H 0.06015 0.42556 0.98969 0.0
H790 H 0.05894 0.43999 0.93119 0.0
H791 H 0.05599 0.45571 0.97725 0.0
H792 H 0.60106 0.72032 0.90339 0.0
H793 H 0.60309 0.70103 0.93086 0.0
H794 H 0.56079 0.68107 0.96998 0.0
H795 H 0.55861 0.69997 0.94107 0.0
H796 H 0.58296 0.67615 0.01969 0.0
H797 H 0.57605 0.66677 0.84743 0.0
H798 H 0.58917 0.68295 0.86855 0.0
H799 H 0.57152 0.67855 0.87084 0.0
C800 C 0.59247 0.71219 0.92024 0.0
C801 C 0.57964 0.71146 0.92013 0.0
C802 C 0.59364 0.70116 0.93563 0.0
C803 C 0.58203 0.68961 0.95179 0.0
C804 C 0.56985 0.68995 0.95759 0.0
H805 H 0.522 0.62135 0.98335 0.0
H806 H 0.54143 0.64047 0.94854 0.0
C807 C 0.5686 0.70076 0.94134 0.0
C808 C 0.58106 0.67606 0.9527 0.0
H809 H 0.56603 0.64734 0.89172 0.0
C810 C 0.57994 0.66986 0.99163 0.0
C811 C 0.57719 0.66798 0.91582 0.0
C812 C 0.57855 0.67433 0.87312 0.0
C813 C 0.57336 0.65553 0.99518 0.0
C814 C 0.56766 0.64736 0.95885 0.0
C815 C 0.57041 0.65364 0.9194 0.0
C816 C 0.5557 0.63344 0.96306 0.0
C817 C 0.57096 0.6492 0.0383 0.0
C818 C 0.55705 0.62257 0.97914 0.0
C819 C 0.5458 0.61145 0.99828 0.0
C820 C 0.53329 0.61131 1.0017 0.0
C821 C 0.53152 0.6212 0.98046 0.0
C822 C 0.54265 0.63215 0.96081 0.0
H823 H 0.57645 0.65699 0.0631 0.0
H824 H 0.55983 0.64371 0.04555 0.0
H825 H 0.5745 0.6416 0.03924 0.0
H826 H 0.56705 0.6234 0.98103 0.0
H827 H 0.54738 0.60398 0.01514 0.0
H828 H 0.3778 0.90659 0.966 0.0
H829 H 0.35585 0.90162 0.93633 0.0
H830 H 0.36015 0.9383 0.99321 0.0
H831 H 0.38231 0.94349 0.02177 0.0
H832 H 0.34377 0.90346 0.02858 0.0
H833 H 0.3287 0.92224 0.88782 0.0
H834 H 0.34266 0.91874 0.88366 0.0
H835 H 0.34469 0.93281 0.91515 0.0
C836 C 0.37463 0.9142 0.96897 0.0
C837 C 0.38137 0.92517 0.99689 0.0
C838 C 0.36205 0.91134 0.95216 0.0
C839 C 0.35629 0.9194 0.9639 0.0
C840 C 0.36444 0.93196 0.98411 0.0
H841 H 0.27019 0.87631 0.93018 0.0
H842 H 0.28829 0.89268 0.97639 0.0
C843 C 0.37714 0.93493 1.00031 0.0
C844 C 0.34144 0.91225 0.97116 0.0
H845 H 0.31104 0.90343 0.92472 0.0
C846 C 0.33653 0.90365 0.00646 0.0
C847 C 0.33221 0.91285 0.94283 0.0
C848 C 0.33723 0.92218 0.90518 0.0
C849 C 0.32253 0.89458 0.012 0.0
C850 C 0.31329 0.89419 0.98145 0.0
C851 C 0.31814 0.90382 0.94844 0.0
C852 C 0.29971 0.88191 0.97585 0.0
C853 C 0.31786 0.8848 0.04865 0.0
C854 C 0.29945 0.86973 0.96431 0.0
C855 C 0.28925 0.86052 0.9376 0.0
C856 C 0.27921 0.86336 0.92302 0.0
C857 C 0.27791 0.87398 0.94125 0.0
C858 C 0.28826 0.88337 0.96756 0.0
H859 H 0.32446 0.8897 0.07649 0.0
H860 H 0.30702 0.88126 0.05703 0.0
H861 H 0.31878 0.87571 0.04039 0.0
H862 H 0.30819 0.8684 0.97015 0.0
H863 H 0.29031 0.85228 0.92389 0.0
H864 H 0.4668 0.10076 0.60801 0.0
H865 H 0.44605 0.09724 0.64309 0.0
H866 H 0.42461 0.05507 0.60199 0.0
H867 H 0.44568 0.05844 0.56851 0.0
H868 H 0.41793 0.07514 0.56213 0.0
H869 H 0.4157 0.0757 0.73529 0.0
H870 H 0.43266 0.08659 0.71497 0.0
H871 H 0.42443 0.06834 0.70696 0.0
C872 C 0.45792 0.09053 0.60894 0.0
C873 C 0.45771 0.07988 0.58577 0.0
C874 C 0.44606 0.08849 0.62896 0.0
C875 C 0.4338 0.07591 0.62485 0.0
C876 C 0.43401 0.06479 0.60579 0.0
H877 H 0.38351 0.10965 0.69265 0.0
H878 H 0.38241 0.0891 0.66248 0.0
C879 C 0.44605 0.06672 0.58683 0.0
C880 C 0.42086 0.07608 0.62917 0.0
H881 H 0.40689 0.08869 0.69789 0.0
C882 C 0.41495 0.07748 0.59199 0.0
C883 C 0.41693 0.079 0.66799 0.0
C884 C 0.42267 0.0772 0.70866 0.0
C885 C 0.40697 0.08385 0.59227 0.0
C886 C 0.4047 0.08857 0.63064 0.0
C887 C 0.40873 0.08511 0.66833 0.0
C888 C 0.40219 0.10022 0.63222 0.0
C889 C 0.40237 0.08691 0.55133 0.0
C890 C 0.41325 0.11329 0.62268 0.0
C891 C 0.41405 0.12495 0.64075 0.0
C892 C 0.4036 0.12363 0.66741 0.0
C893 C 0.39158 0.11084 0.67155 0.0
C894 C 0.39095 0.0991 0.65448 0.0
H895 H 0.40114 0.07937 0.5268 0.0
H896 H 0.39253 0.08684 0.55521 0.0
H897 H 0.41024 0.09727 0.54041 0.0
H898 H 0.42211 0.11434 0.606 0.0
H899 H 0.42348 0.1347 0.63784 0.0
H900 H 0.93509 0.3866 0.54453 0.0
H901 H 0.93542 0.36574 0.56475 0.0
H902 H 0.89643 0.35066 0.62647 0.0
H903 H 0.89588 0.37121 0.605 0.0
H904 H 0.91863 0.3419 0.65766 0.0
H905 H 0.90072 0.33371 0.49156 0.0
H906 H 0.91612 0.34908 0.5075 0.0
H907 H 0.89967 0.34656 0.52253 0.0
C908 C 0.92706 0.37922 0.5648 0.0
C909 C 0.91544 0.38038 0.57336 0.0
C910 C 0.92722 0.36729 0.57605 0.0
C911 C 0.91587 0.35666 0.59653 0.0
C912 C 0.9053 0.35882 0.61072 0.0
H913 H 0.85326 0.29168 0.64128 0.0
H914 H 0.87217 0.30947 0.60112 0.0
C915 C 0.90501 0.37058 0.59875 0.0
C916 C 0.91293 0.34237 0.59369 0.0
H917 H 0.89229 0.31418 0.5348 0.0
C918 C 0.91344 0.33578 0.63027 0.0
C919 C 0.90625 0.33451 0.55765 0.0
C920 C 0.90562 0.34124 0.51739 0.0
C921 C 0.90594 0.32142 0.6334 0.0
C922 C 0.89766 0.31364 0.59916 0.0
C923 C 0.89866 0.32017 0.56087 0.0
C924 C 0.88511 0.30038 0.60713 0.0
C925 C 0.90551 0.31482 0.67503 0.0
C926 C 0.88566 0.28876 0.62031 0.0
C927 C 0.87467 0.27841 0.64279 0.0
C928 C 0.86325 0.27981 0.65228 0.0
C929 C 0.86197 0.29042 0.634 0.0
C930 C 0.8728 0.3006 0.61116 0.0
H931 H 0.91277 0.32232 0.69813 0.0
H932 H 0.89499 0.31001 0.68831 0.0
H933 H 0.90814 0.30662 0.67055 0.0
H934 H 0.89504 0.28839 0.6171 0.0
H935 H 0.87583 0.2703 0.65706 0.0
H936 H 0.60456 0.54908 0.57123 0.0
H937 H 0.62254 0.56974 0.60623 0.0
H938 H 0.64337 0.54766 0.63954 0.0
H939 H 0.62569 0.5273 0.604 0.0
H940 H 0.64738 0.57043 0.69742 0.0
H941 H 0.65733 0.58432 0.52806 0.0
H942 H 0.64135 0.58054 0.55218 0.0
H943 H 0.64495 0.56694 0.54251 0.0
C944 C 0.61258 0.54848 0.58823 0.0
C945 C 0.61389 0.53673 0.58508 0.0
C946 C 0.62287 0.56029 0.60791 0.0
C947 C 0.63437 0.56026 0.62474 0.0
C948 C 0.63456 0.54788 0.62674 0.0
H949 H 0.7012 0.56595 0.62887 0.0
H950 H 0.68214 0.56906 0.6072 0.0
C951 C 0.62445 0.53622 0.60659 0.0
C952 C 0.64758 0.57307 0.63067 0.0
H953 H 0.67645 0.59079 0.57153 0.0
C954 C 0.65371 0.57556 0.67033 0.0
C955 C 0.65576 0.57984 0.5952 0.0
C956 C 0.64959 0.57787 0.55197 0.0
C957 C 0.66803 0.58284 0.67451 0.0
C958 C 0.67626 0.58761 0.63798 0.0
C959 C 0.67008 0.58701 0.59932 0.0
C960 C 0.68991 0.58876 0.63776 0.0
C961 C 0.67424 0.58366 0.71711 0.0
C962 C 0.70106 0.59931 0.65924 0.0
C963 C 0.71208 0.5976 0.6711 0.0
C964 C 0.71194 0.58532 0.66168 0.0
C965 C 0.70158 0.57556 0.63594 0.0
C966 C 0.69069 0.57734 0.62371 0.0
H967 H 0.66644 0.5799 0.74248 0.0
H968 H 0.67938 0.57742 0.71735 0.0
H969 H 0.68211 0.59445 0.72408 0.0
H970 H 0.70061 0.60818 0.67034 0.0
H971 H 0.71977 0.60509 0.692 0.0
H972 H 0.88363 0.60606 0.18572 0.0
H973 H 0.90448 0.60712 0.15833 0.0
H974 H 0.87997 0.56681 0.10473 0.0
H975 H 0.8593 0.5655 0.13374 0.0
H976 H 0.9063 0.58369 0.1953 0.0
H977 H 0.91417 0.58781 0.02357 0.0
H978 H 0.90622 0.59606 0.05139 0.0
H979 H 0.8964 0.57812 0.03827 0.0
C980 C 0.88267 0.59781 0.16586 0.0
C981 C 0.86996 0.58571 0.1615 0.0
C982 C 0.89458 0.59841 0.15046 0.0
C983 C 0.89375 0.58705 0.12958 0.0
C984 C 0.88081 0.57576 0.12026 0.0
H985 H 0.89642 0.5237 0.11151 0.0
H986 H 0.89943 0.54437 0.14589 0.0
C987 C 0.86897 0.57501 0.13666 0.0
C988 C 0.90569 0.58499 0.1279 0.0
H989 H 0.91952 0.57195 0.0601 0.0
C990 C 0.90976 0.58169 0.16579 0.0
C991 C 0.91031 0.58255 0.08958 0.0
C992 C 0.90666 0.58645 0.04835 0.0
C993 C 0.9165 0.57405 0.16594 0.0
C994 C 0.91934 0.56988 0.12739 0.0
C995 C 0.91723 0.57509 0.08976 0.0
C996 C 0.92029 0.5573 0.12428 0.0
C997 C 0.91916 0.56919 0.20703 0.0
C998 C 0.93141 0.5575 0.10381 0.0
C999 C 0.9298 0.54551 0.08534 0.0
C1000 C 0.91694 0.53345 0.08614 0.0
C1001 C 0.90646 0.53286 0.11111 0.0
C1002 C 0.90819 0.5447 0.13064 0.0
H1003 H 0.92064 0.57645 0.23279 0.0
H1004 H 0.91017 0.55907 0.21502 0.0
H1005 H 0.92833 0.56795 0.20495 0.0
H1006 H 0.94075 0.56714 0.09829 0.0
H1007 H 0.93794 0.54618 0.06562 0.0
H1008 H 0.39414 0.27485 0.16087 0.0
H1009 H 0.39157 0.29141 0.11724 0.0
H1010 H 0.43552 0.31507 0.10263 0.0
H1011 H 0.43806 0.29893 0.14728 0.0
H1012 H 0.40521 0.31738 0.15918 0.0
H1013 H 0.42153 0.32368 0.99382 0.0
H1014 H 0.41383 0.30726 0.02044 0.0
H1015 H 0.43188 0.31933 0.02598 0.0
C1016 C 0.40315 0.28317 0.14617 0.0
C1017 C 0.41631 0.2858 0.15736 0.0
C1018 C 0.40167 0.29262 0.12137 0.0
C1019 C 0.41335 0.30447 0.10684 0.0
C1020 C 0.42635 0.30589 0.11298 0.0
H1021 H 0.46814 0.37514 0.12508 0.0
H1022 H 0.4465 0.35465 0.14266 0.0
C1023 C 0.42784 0.2967 0.13859 0.0
C1024 C 0.41282 0.31705 0.09735 0.0
H1025 H 0.43021 0.34509 0.0351 0.0
C1026 C 0.41006 0.32331 0.13118 0.0
C1027 C 0.41899 0.32474 0.06081 0.0
C1028 C 0.4216 0.31833 0.02304 0.0
C1029 C 0.41543 0.33756 0.13205 0.0
C1030 C 0.42341 0.34551 0.09801 0.0
C1031 C 0.42416 0.33895 0.06145 0.0
C1032 C 0.43413 0.35998 0.10358 0.0
C1033 C 0.41392 0.34421 0.17108 0.0
C1034 C 0.43408 0.37028 0.07898 0.0
C1035 C 0.44643 0.38229 0.07037 0.0
C1036 C 0.45887 0.38372 0.08491 0.0
C1037 C 0.45864 0.37432 0.1141 0.0
C1038 C 0.44627 0.36257 0.12388 0.0
H1039 H 0.40467 0.33697 0.18919 0.0
H1040 H 0.42305 0.34743 0.19134 0.0
H1041 H 0.41328 0.35349 0.1631 0.0
H1042 H 0.42483 0.3684 0.06281 0.0
H1043 H 0.44643 0.38936 0.04724 0.0
H1044 H 0.60693 0.05372 0.0787 0.0
H1045 H 0.62528 0.05295 0.11822 0.0
H1046 H 0.64422 0.09646 0.14144 0.0
H1047 H 0.62632 0.09729 0.10084 0.0
H1048 H 0.65121 0.0704 0.0773 0.0
H1049 H 0.65474 0.08209 0.24643 0.0
H1050 H 0.63854 0.07332 0.21872 0.0
H1051 H 0.64885 0.09175 0.21701 0.0
C1052 C 0.61464 0.06293 0.09431 0.0
C1053 C 0.61539 0.07559 0.08687 0.0
C1054 C 0.6251 0.06248 0.11674 0.0
C1055 C 0.63609 0.07464 0.13268 0.0
C1056 C 0.63573 0.08692 0.12996 0.0
H1057 H 0.70602 0.13466 0.12399 0.0
H1058 H 0.68629 0.11279 0.1034 0.0
C1059 C 0.62553 0.08742 0.10671 0.0
C1060 C 0.64949 0.07572 0.14111 0.0
H1061 H 0.67647 0.09349 0.20695 0.0
C1062 C 0.65668 0.07486 0.10631 0.0
C1063 C 0.65657 0.08142 0.1789 0.0
C1064 C 0.64922 0.08208 0.21752 0.0
C1065 C 0.67105 0.0815 0.10645 0.0
C1066 C 0.67821 0.08885 0.1424 0.0
C1067 C 0.67092 0.08788 0.1792 0.0
C1068 C 0.69238 0.10044 0.13962 0.0
C1069 C 0.67853 0.0819 0.06689 0.0
C1070 C 0.70283 0.10058 0.16392 0.0
C1071 C 0.71438 0.11311 0.17442 0.0
C1072 C 0.71523 0.12549 0.16189 0.0
C1073 C 0.70563 0.12522 0.13343 0.0
C1074 C 0.69434 0.11272 0.12187 0.0
H1075 H 0.67208 0.07298 0.04635 0.0
H1076 H 0.68116 0.09142 0.04932 0.0
H1077 H 0.68822 0.082 0.07432 0.0
H1078 H 0.70141 0.09122 0.17817 0.0
H1079 H 0.72158 0.11313 0.19705 0.0
H1080 H 0.56397 0.86041 0.44177 0.0
H1081 H 0.56675 0.881 0.47601 0.0
H1082 H 0.60922 0.90319 0.43831 0.0
H1083 H 0.6065 0.88231 0.405 0.0
H1084 H 0.58681 0.90577 0.52945 0.0
H1085 H 0.58595 0.91428 0.35739 0.0
H1086 H 0.58155 0.89744 0.37612 0.0
H1087 H 0.59887 0.91135 0.38066 0.0
C1088 C 0.57411 0.86941 0.44335 0.0
C1089 C 0.585 0.86992 0.42084 0.0
C1090 C 0.57572 0.8812 0.46276 0.0
C1091 C 0.58812 0.89365 0.45885 0.0
C1092 C 0.59958 0.89368 0.44152 0.0
H1093 H 0.54761 0.93924 0.51876 0.0
H1094 H 0.56911 0.94199 0.49046 0.0
C1095 C 0.59803 0.88174 0.42275 0.0
C1096 C 0.58743 0.90636 0.46213 0.0
H1097 H 0.57377 0.92139 0.40087 0.0
C1098 C 0.58471 0.90993 0.50153 0.0
C1099 C 0.58478 0.91181 0.42551 0.0
C1100 C 0.58795 0.90862 0.38239 0.0
C1101 C 0.57748 0.91704 0.50501 0.0
C1102 C 0.57278 0.9204 0.46811 0.0
C1103 C 0.57735 0.91872 0.42899 0.0
C1104 C 0.55998 0.92093 0.46969 0.0
C1105 C 0.57314 0.91908 0.5479 0.0
C1106 C 0.54766 0.90849 0.46437 0.0
C1107 C 0.53551 0.90684 0.48107 0.0
C1108 C 0.53553 0.91773 0.50222 0.0
C1109 C 0.54739 0.93076 0.50195 0.0
C1110 C 0.55968 0.93234 0.48606 0.0
H1111 H 0.57855 0.91695 0.5734 0.0
H1112 H 0.57524 0.92978 0.5512 0.0
H1113 H 0.56193 0.91211 0.55182 0.0
H1114 H 0.54773 0.89957 0.45185 0.0
H1115 H 0.52648 0.8967 0.48132 0.0
H1116 H 0.09661 0.62502 0.48796 0.0
H1117 H 0.09538 0.64244 0.44581 0.0
H1118 H 0.05154 0.62178 0.46362 0.0
H1119 H 0.05277 0.60407 0.50537 0.0
H1120 H 0.07857 0.6459 0.37802 0.0
H1121 H 0.06982 0.65713 0.5419 0.0
H1122 H 0.07522 0.64473 0.53276 0.0
H1123 H 0.05833 0.64091 0.51749 0.0
C1124 C 0.08664 0.62377 0.48074 0.0
C1125 C 0.07481 0.61338 0.4998 0.0
C1126 C 0.08591 0.6337 0.45671 0.0
C1127 C 0.0734 0.63348 0.45243 0.0
C1128 C 0.06127 0.62209 0.46679 0.0
H1129 H 0.111 0.71819 0.37547 0.0
H1130 H 0.0896 0.69821 0.3983 0.0
C1131 C 0.06198 0.61197 0.49033 0.0
C1132 C 0.0741 0.64664 0.4431 0.0
H1133 H 0.08322 0.67597 0.49809 0.0
C1134 C 0.0789 0.65244 0.40353 0.0
C1135 C 0.07451 0.65507 0.47669 0.0
C1136 C 0.06919 0.64923 0.5197 0.0
C1137 C 0.08585 0.6667 0.39813 0.0
C1138 C 0.08798 0.67521 0.4333 0.0
C1139 C 0.08156 0.66935 0.47138 0.0
C1140 C 0.09966 0.68934 0.43357 0.0
C1141 C 0.09246 0.67262 0.35633 0.0
C1142 C 0.11226 0.69138 0.44864 0.0
C1143 C 0.12447 0.70277 0.43576 0.0
C1144 C 0.12413 0.71233 0.40844 0.0
C1145 C 0.11148 0.71119 0.39781 0.0
C1146 C 0.09924 0.6997 0.4104 0.0
H1147 H 0.08947 0.66459 0.33189 0.0
H1148 H 0.08946 0.68014 0.34551 0.0
H1149 H 0.1038 0.67815 0.35965 0.0
H1150 H 0.11273 0.6834 0.46638 0.0
H1151 H 0.13413 0.70338 0.44364 0.0
H1152 H 0.38861 0.44668 0.5063 0.0
H1153 H 0.37077 0.42795 0.46448 0.0
H1154 H 0.35125 0.45214 0.44426 0.0
H1155 H 0.36866 0.47047 0.48713 0.0
H1156 H 0.3449 0.41898 0.50641 0.0
H1157 H 0.34082 0.4279 0.33804 0.0
H1158 H 0.3571 0.43544 0.36536 0.0
H1159 H 0.34651 0.44323 0.3684 0.0
C1160 C 0.38094 0.44824 0.49075 0.0
C1161 C 0.37982 0.45984 0.49983 0.0
C1162 C 0.37076 0.43754 0.46701 0.0
C1163 C 0.35969 0.43865 0.45147 0.0
C1164 C 0.3598 0.45114 0.45547 0.0
H1165 H 0.28877 0.427 0.45109 0.0
H1166 H 0.30896 0.42628 0.47542 0.0
C1167 C 0.36973 0.46163 0.48001 0.0
C1168 C 0.34638 0.42626 0.44292 0.0
H1169 H 0.31919 0.41687 0.37787 0.0
C1170 C 0.33935 0.41799 0.47761 0.0
C1171 C 0.33918 0.42497 0.40545 0.0
C1172 C 0.34635 0.43329 0.36706 0.0
C1173 C 0.32499 0.41005 0.4777 0.0
C1174 C 0.31772 0.41021 0.44205 0.0
C1175 C 0.32487 0.41683 0.40535 0.0
C1176 C 0.30337 0.407 0.4449 0.0
C1177 C 0.31762 0.40274 0.51717 0.0
C1178 C 0.29305 0.39577 0.42314 0.0
C1179 C 0.28124 0.39594 0.41065 0.0
C1180 C 0.28004 0.40759 0.41851 0.0
C1181 C 0.28945 0.41787 0.44517 0.0
C1182 C 0.30101 0.41748 0.45882 0.0
H1183 H 0.32437 0.40086 0.53829 0.0
H1184 H 0.31427 0.40917 0.53414 0.0
H1185 H 0.30834 0.39279 0.50953 0.0
H1186 H 0.29478 0.38768 0.41192 0.0
H1187 H 0.27415 0.388 0.38954 0.0
H1188 H 0.80688 0.75902 0.26095 0.0
H1189 H 0.79472 0.76875 0.29798 0.0
H1190 H 0.75619 0.73575 0.2524 0.0
H1191 H 0.76834 0.72609 0.21557 0.0
H1192 H 0.78199 0.77446 0.22736 0.0
H1193 H 0.74538 0.74941 0.35912 0.0
H1194 H 0.76044 0.74777 0.3521 0.0
H1195 H 0.74568 0.73821 0.31939 0.0
C1196 C 0.79576 0.75333 0.26159 0.0
C1197 C 0.78844 0.74205 0.23513 0.0
C1198 C 0.78883 0.7589 0.28257 0.0
C1199 C 0.77463 0.7531 0.27694 0.0
C1200 C 0.76714 0.74034 0.25713 0.0
H1201 H 0.72427 0.78796 0.31574 0.0
H1202 H 0.7314 0.77575 0.26786 0.0
C1203 C 0.77409 0.73481 0.2361 0.0
C1204 C 0.7687 0.76213 0.27768 0.0
H1205 H 0.7438 0.76665 0.32153 0.0
C1206 C 0.77366 0.77282 0.2481 0.0
C1207 C 0.75758 0.75958 0.30358 0.0
C1208 C 0.75196 0.74818 0.33558 0.0
C1209 C 0.76799 0.78135 0.24452 0.0
C1210 C 0.75719 0.77917 0.27153 0.0
C1211 C 0.75192 0.76815 0.30016 0.0
C1212 C 0.75311 0.78961 0.27744 0.0
C1213 C 0.77376 0.79271 0.21239 0.0
C1214 C 0.76296 0.80231 0.2941 0.0
C1215 C 0.75888 0.80923 0.32128 0.0
C1216 C 0.745 0.80348 0.3315 0.0
C1217 C 0.73505 0.79247 0.30809 0.0
C1218 C 0.73913 0.78547 0.28089 0.0
H1219 H 0.77747 0.78968 0.18431 0.0
H1220 H 0.76605 0.79554 0.20238 0.0
H1221 H 0.78269 0.80191 0.22611 0.0
H1222 H 0.77379 0.80571 0.29196 0.0
H1223 H 0.76665 0.81779 0.33915 0.0
H1224 H 0.21383 0.93935 0.33032 0.0
H1225 H 0.23338 0.95682 0.29108 0.0
H1226 H 0.21016 0.97669 0.26075 0.0
H1227 H 0.19054 0.95906 0.29905 0.0
H1228 H 0.23288 0.98227 0.20274 0.0
H1229 H 0.2472 0.99027 0.37229 0.0
H1230 H 0.2441 0.97482 0.34599 0.0
H1231 H 0.23003 0.9776 0.3571 0.0
C1232 C 0.21253 0.94679 0.31245 0.0
C1233 C 0.20072 0.9479 0.31751 0.0
C1234 C 0.22381 0.95691 0.29054 0.0
C1235 C 0.22331 0.96821 0.27411 0.0
C1236 C 0.21076 0.96806 0.27342 0.0
H1237 H 0.22881 0.03516 0.26812 0.0
H1238 H 0.23133 0.01595 0.29214 0.0
C1239 C 0.19953 0.95799 0.29531 0.0
C1240 C 0.23589 0.98165 0.26906 0.0
H1241 H 0.25387 0.00982 0.33109 0.0
C1242 C 0.23814 0.98826 0.23027 0.0
C1243 C 0.24276 0.9894 0.3052 0.0
C1244 C 0.24098 0.98274 0.34761 0.0
C1245 C 0.24544 0.00262 0.22779 0.0
C1246 C 0.25045 0.01038 0.26511 0.0
C1247 C 0.24995 0.00376 0.30272 0.0
C1248 C 0.25184 0.0241 0.26729 0.0
C1249 C 0.24607 0.00941 0.18635 0.0
C1250 C 0.26305 0.03554 0.2491 0.0
C1251 C 0.26173 0.04673 0.23651 0.0
C1252 C 0.24911 0.04629 0.24131 0.0
C1253 C 0.23866 0.03573 0.26468 0.0
C1254 C 0.24009 0.02474 0.27812 0.0
H1255 H 0.24258 0.002 0.15987 0.0
H1256 H 0.23948 0.01415 0.18762 0.0
H1257 H 0.25673 0.01769 0.18003 0.0
H1258 H 0.27217 0.03516 0.24049 0.0
H1259 H 0.26983 0.05475 0.21791 0.0
H1260 H 0.95292 0.1884 0.2628 0.0
H1261 H 0.96936 0.206 0.30962 0.0
H1262 H 0.94992 0.23025 0.28917 0.0
H1263 H 0.93307 0.21225 0.24314 0.0
H1264 H 0.97578 0.23997 0.25008 0.0
H1265 H 0.97924 0.22914 0.41702 0.0
H1266 H 0.97418 0.21421 0.38525 0.0
H1267 H 0.96312 0.22146 0.38885 0.0
C1268 C 0.95159 0.19704 0.27069 0.0
C1269 C 0.94191 0.19913 0.24948 0.0
C1270 C 0.96097 0.20711 0.29756 0.0
C1271 C 0.96093 0.2195 0.30256 0.0
C1272 C 0.95006 0.22073 0.28586 0.0
H1273 H 0.04574 0.26874 0.37235 0.0
H1274 H 0.02476 0.26909 0.35519 0.0
C1275 C 0.94044 0.21045 0.25968 0.0
C1276 C 0.97414 0.23186 0.31253 0.0
H1277 H 0.00113 0.24083 0.37813 0.0
C1278 C 0.98123 0.24065 0.27887 0.0
C1279 C 0.98122 0.23278 0.34996 0.0
C1280 C 0.97398 0.22396 0.38746 0.0
C1281 C 0.99555 0.24882 0.27951 0.0
C1282 C 0.00277 0.24833 0.3149 0.0
C1283 C 0.99552 0.24111 0.35081 0.0
C1284 C 0.01728 0.25202 0.3121 0.0
C1285 C 0.00298 0.2568 0.24091 0.0
C1286 C 0.02035 0.24288 0.29135 0.0
C1287 C 0.03221 0.24253 0.30156 0.0
C1288 C 0.04121 0.25152 0.33185 0.0
C1289 C 0.03909 0.26193 0.34805 0.0
C1290 C 0.02706 0.26208 0.3386 0.0
H1291 H -0.0037 0.25919 0.2212 0.0
H1292 H 0.01238 0.26651 0.24957 0.0
H1293 H 0.00611 0.25055 0.22193 0.0
H1294 H 0.01281 0.23493 0.27119 0.0
H1295 H 0.03356 0.23429 0.28937 0.0
H1296 H 0.27045 0.22594 0.73259 0.0
H1297 H 0.25725 0.23389 0.77162 0.0
H1298 H 0.22809 0.1921 0.8056 0.0
H1299 H 0.24149 0.18416 0.76671 0.0
H1300 H 0.21991 0.20364 0.74041 0.0
H1301 H 0.23941 0.23865 0.87733 0.0
H1302 H 0.25217 0.24229 0.83794 0.0
H1303 H 0.24476 0.22629 0.866 0.0
C1304 C 0.26184 0.2186 0.75121 0.0
C1305 C 0.2567 0.2045 0.7462 0.0
C1306 C 0.25425 0.22313 0.7735 0.0
C1307 C 0.24154 0.21352 0.79045 0.0
C1308 C 0.23786 0.19963 0.79238 0.0
H1309 H 0.17255 0.21678 0.84557 0.0
H1310 H 0.18541 0.20935 0.80267 0.0
C1311 C 0.24556 0.19511 0.77041 0.0
C1312 C 0.23077 0.21724 0.79196 0.0
H1313 H 0.22274 0.23998 0.83446 0.0
C1314 C 0.22039 0.21147 0.76136 0.0
C1315 C 0.23173 0.2277 0.81836 0.0
C1316 C 0.24255 0.23403 0.85201 0.0
C1317 C 0.21091 0.21596 0.7564 0.0
C1318 C 0.21187 0.22641 0.78284 0.0
C1319 C 0.22228 0.2322 0.81337 0.0
C1320 C 0.20097 0.22995 0.78519 0.0
C1321 C 0.20003 0.20956 0.72295 0.0
C1322 C 0.20459 0.24384 0.78521 0.0
C1323 C 0.19721 0.2481 0.80993 0.0
C1324 C 0.18636 0.23843 0.83451 0.0
C1325 C 0.18111 0.22438 0.82732 0.0
C1326 C 0.18841 0.22012 0.80247 0.0
H1327 H 0.20332 0.20524 0.69709 0.0
H1328 H 0.19058 0.20102 0.73694 0.0
H1329 H 0.19747 0.21714 0.7097 0.0
H1330 H 0.21422 0.25153 0.7716 0.0
H1331 H 0.20131 0.25899 0.81482 0.0
H1332 H 0.80323 0.04308 0.75303 0.0
H1333 H 0.78673 0.02046 0.78108 0.0
H1334 H 0.75339 0.02453 0.73066 0.0
H1335 H 0.76988 0.04721 0.70297 0.0
H1336 H 0.75308 0.00647 0.82135 0.0
H1337 H 0.76538 0.99587 0.66124 0.0
H1338 H 0.77875 0.00964 0.69122 0.0
H1339 H 0.76449 0.01112 0.67286 0.0
C1340 C 0.79236 0.03951 0.75047 0.0
C1341 C 0.7877 0.04672 0.72618 0.0
C1342 C 0.78296 0.0266 0.76615 0.0
C1343 C 0.76895 0.02089 0.75722 0.0
C1344 C 0.76418 0.02887 0.7378 0.0
H1345 H 0.72211 0.93561 0.83232 0.0
H1346 H 0.72373 0.95344 0.78442 0.0
C1347 C 0.77358 0.0418 0.72229 0.0
C1348 C 0.7601 0.00594 0.75922 0.0
H1349 H 0.75485 0.97711 0.70803 0.0
C1350 C 0.75302 -6e-05 0.79624 0.0
C1351 C 0.76012 -0.00237 0.72601 0.0
C1352 C 0.76753 0.00381 0.68539 0.0
C1353 C 0.74684 0.98574 0.80234 0.0
C1354 C 0.7478 0.97751 0.77034 0.0
C1355 C 0.75397 0.98345 0.73205 0.0
C1356 C 0.74587 0.96393 0.78073 0.0
C1357 C 0.74049 0.97984 0.84446 0.0
C1358 C 0.75766 0.96326 0.79055 0.0
C1359 C 0.75676 0.95325 0.81803 0.0
C1360 C 0.74404 0.94375 0.83492 0.0
C1361 C 0.73201 0.94291 0.81926 0.0
C1362 C 0.73292 0.95309 0.79211 0.0
H1363 H 0.74113 0.9878 0.86642 0.0
H1364 H 0.72952 0.972 0.84025 0.0
H1365 H 0.74572 0.97472 0.85908 0.0
H1366 H 0.76774 0.97153 0.78177 0.0
H1367 H 0.76613 0.954 0.83 0.0
H1368 H 0.03482 0.79901 0.81183 0.0
H1369 H 0.0142 0.77943 0.78323 0.0
H1370 H 0.0281 0.75212 0.8266 0.0
H1371 H 0.04906 0.77187 0.85402 0.0
H1372 H 0.00599 0.75052 0.73493 0.0
H1373 H 0.99486 0.75087 0.9051 0.0
H1374 H 0.00817 0.76638 0.88133 0.0
H1375 H 0.01052 0.75184 0.88715 0.0
C1376 C 0.0339 0.78895 0.81263 0.0
C1377 C 0.04343 0.78685 0.8347 0.0
C1378 C 0.0221 0.77776 0.79656 0.0
C1379 C 0.01963 0.76438 0.80336 0.0
C1380 C 0.02992 0.7624 0.82094 0.0
H1381 H 0.93351 0.72127 0.73428 0.0
H1382 H 0.95146 0.71888 0.77061 0.0
C1383 C 0.04189 0.77367 0.8363 0.0
C1384 C 0.00531 0.75311 0.80143 0.0
H1385 H 0.97617 0.74302 0.85821 0.0
C1386 C -0.0006 0.74819 0.76209 0.0
C1387 C -0.00318 0.75011 0.83714 0.0
C1388 C 0.00283 0.755 0.88024 0.0
C1389 C 0.98515 0.74181 0.75675 0.0
C1390 C 0.97682 0.74062 0.79157 0.0
C1391 C 0.9826 0.74393 0.83171 0.0
C1392 C 0.96385 0.74053 0.78451 0.0
C1393 C 0.97926 0.73805 0.71307 0.0
C1394 C 0.96448 0.7533 0.78329 0.0
C1395 C 0.95445 0.75471 0.76211 0.0
C1396 C 0.94354 0.7433 0.74285 0.0
C1397 C 0.94184 0.73018 0.74933 0.0
C1398 C 0.95208 0.7288 0.76984 0.0
H1399 H 0.98699 0.73887 0.68983 0.0
H1400 H 0.9705 0.72737 0.71275 0.0
H1401 H 0.97537 0.74495 0.70316 0.0
H1402 H 0.97351 0.76246 0.79449 0.0
H1403 H 0.95593 0.76491 0.7573 0.0
H1404 H 0.00281 0.44178 0.96332 0.0
H1405 H 0.99154 0.43042 0.89799 0.0
H1406 H 0.0306 0.45015 0.83482 0.0
H1407 H 0.04196 0.46126 0.90068 0.0
H1408 H 0.01112 0.45833 0.80991 0.0
H1409 H 0.98746 0.40167 0.80745 0.0
H1410 H 0.98555 0.40858 0.85616 0.0
H1411 H 0.00235 0.41264 0.83895 0.0
C1412 C 0.0091 0.44292 0.93621 0.0
C1413 C 0.02327 0.45224 0.93718 0.0
C1414 C 0.00263 0.43648 0.89872 0.0
C1415 C 0.01021 0.4394 0.86145 0.0
C1416 C 0.02457 0.44761 0.86329 0.0
H1417 H 0.96691 0.42348 0.6165 0.0
H1418 H 0.98304 0.42396 0.66982 0.0
C1419 C 0.03108 0.45385 0.90107 0.0
C1420 C 0.00291 0.4367 0.82064 0.0
H1421 H 0.97749 0.41137 0.76157 0.0
C1422 C 0.00405 0.44805 0.7987 0.0
C1423 C 0.99356 0.42332 0.80628 0.0
C1424 C 0.99219 0.41083 0.82819 0.0
C1425 C 0.99555 0.44638 0.76442 0.0
C1426 C 0.98569 0.43301 0.75132 0.0
C1427 C 0.98506 0.42162 0.77161 0.0
C1428 C 0.97505 0.43089 0.71995 0.0
C1429 C -0.00332 0.45902 0.74406 0.0
C1430 C 0.96504 0.43426 0.73082 0.0
C1431 C 0.95593 0.43402 0.70075 0.0
C1432 C 0.95654 0.43034 0.659 0.0
C1433 C 0.96611 0.42626 0.64847 0.0
C1434 C 0.97535 0.42656 0.67881 0.0
H1435 H 0.00709 0.46808 0.74815 0.0
H1436 H 0.99428 0.45735 0.71018 0.0
H1437 H 0.98918 0.46138 0.75889 0.0
H1438 H 0.96457 0.43753 0.76243 0.0
H1439 H 0.9486 0.43709 0.71004 0.0
H1440 H 0.54048 0.56386 0.96855 0.0
H1441 H 0.55512 0.56238 0.91376 0.0
H1442 H 0.52474 0.55604 0.82049 0.0
H1443 H 0.51022 0.55743 0.87462 0.0
H1444 H 0.547 0.53906 0.86576 0.0
H1445 H 0.56023 0.58298 0.76087 0.0
H1446 H 0.55471 0.58239 0.81443 0.0
H1447 H 0.54228 0.574 0.77334 0.0
C1448 C 0.53716 0.56255 0.93615 0.0
C1449 C 0.52422 0.56076 0.92578 0.0
C1450 C 0.54548 0.56165 0.90492 0.0
C1451 C 0.54113 0.5593 0.86283 0.0
C1452 C 0.52849 0.55817 0.85245 0.0
H1453 H 0.53805 0.50776 0.67616 0.0
H1454 H 0.53686 0.52144 0.73273 0.0
C1455 C 0.52013 0.55885 0.88353 0.0
C1456 C 0.54866 0.55614 0.83036 0.0
H1457 H 0.55897 0.56276 0.72794 0.0
C1458 C 0.54998 0.54449 0.83607 0.0
C1459 C 0.55277 0.56329 0.7917 0.0
C1460 C 0.55257 0.57645 0.78485 0.0
C1461 C 0.55411 0.53912 0.80307 0.0
C1462 C 0.55682 0.54543 0.76308 0.0
C1463 C 0.55671 0.55779 0.75837 0.0
C1464 C 0.55766 0.53815 0.72526 0.0
C1465 C 0.55486 0.52626 0.81073 0.0
C1466 C 0.56956 0.54332 0.70044 0.0
C1467 C 0.57016 0.53554 0.6667 0.0
C1468 C 0.55889 0.52248 0.65773 0.0
C1469 C 0.54693 0.51771 0.68196 0.0
C1470 C 0.54626 0.5255 0.71474 0.0
H1471 H 0.55687 0.52526 0.84429 0.0
H1472 H 0.54489 0.51716 0.80226 0.0
H1473 H 0.563 0.52615 0.79137 0.0
H1474 H 0.57846 0.55313 0.70785 0.0
H1475 H 0.57953 0.53951 0.64868 0.0
H1476 H 0.44442 0.99291 0.95433 0.0
H1477 H 0.44133 0.00474 0.89455 0.0
H1478 H 0.40485 0.96741 0.85872 0.0
H1479 H 0.40768 0.95557 0.91951 0.0
H1480 H 0.43401 0.98298 0.80529 0.0
H1481 H 0.4079 0.01251 0.84373 0.0
H1482 H 0.41917 0.0115 0.88207 0.0
H1483 H 0.40336 0.99638 0.86903 0.0
C1484 C 0.43537 0.9874 0.93491 0.0
C1485 C 0.42625 0.97334 0.94168 0.0
C1486 C 0.43361 0.99417 0.90075 0.0
C1487 C 0.42283 0.98698 0.87236 0.0
C1488 C 0.41312 0.97319 0.88068 0.0
H1489 H 0.4382 0.0114 0.60974 0.0
H1490 H 0.42459 -0.00181 0.67024 0.0
C1491 C 0.41471 0.96646 0.91549 0.0
C1492 C 0.42363 0.99303 0.83037 0.0
H1493 H 0.41908 0.01695 0.7778 0.0
C1494 C 0.43051 0.9902 0.79884 0.0
C1495 C 0.4193 0.00263 0.82265 0.0
C1496 C 0.41196 0.00599 0.85597 0.0
C1497 C 0.43375 0.99716 0.76031 0.0
C1498 C 0.42946 0.00687 0.75224 0.0
C1499 C 0.42221 0.00941 0.78357 0.0
C1500 C 0.43373 0.01536 0.71324 0.0
C1501 C 0.44254 0.99463 0.72991 0.0
C1502 C 0.44208 0.0297 0.71602 0.0
C1503 C 0.44935 0.03737 0.68087 0.0
C1504 C 0.44851 0.03079 0.64267 0.0
C1505 C 0.43891 0.01674 0.63871 0.0
C1506 C 0.43134 0.00915 0.67353 0.0
H1507 H 0.44777 0.98962 0.74533 0.0
H1508 H 0.43599 0.98771 0.70454 0.0
H1509 H 0.45051 0.00437 0.71556 0.0
H1510 H 0.44401 0.03479 0.74613 0.0
H1511 H 0.45686 0.04814 0.68493 0.0
H1512 H 0.94207 0.52881 0.19314 0.0
H1513 H 0.95564 0.54372 0.25146 0.0
H1514 H 0.99292 0.55293 0.18676 0.0
H1515 H 0.97928 0.53815 0.12841 0.0
H1516 H 0.97328 0.53671 0.2946 0.0
H1517 H 0.00228 0.59057 0.23805 0.0
H1518 H 0.98676 0.57764 0.21285 0.0
H1519 H 0.00269 0.57797 0.20439 0.0
C1520 C 0.95316 0.53446 0.19084 0.0
C1521 C 0.95972 0.53251 0.15639 0.0
C1522 C 0.9609 0.54293 0.22411 0.0
C1523 C 0.97531 0.5496 0.22331 0.0
C1524 C 0.98185 0.54818 0.18773 0.0
H1525 H 0.04054 0.5811 0.40305 0.0
H1526 H 0.02701 0.57885 0.3404 0.0
C1527 C 0.97409 0.5397 0.15454 0.0
C1528 C 0.98332 0.55603 0.26207 0.0
H1529 H 0.00932 0.58577 0.30336 0.0
C1530 C 0.98101 0.54749 0.29677 0.0
C1531 C 0.99362 0.57002 0.26444 0.0
C1532 C -0.00353 0.57965 0.22808 0.0
C1533 C 0.9889 0.5524 0.33339 0.0
C1534 C -0.0009 0.56648 0.33625 0.0
C1535 C 0.00138 0.57507 0.30153 0.0
C1536 C 0.008 0.572 0.37411 0.0
C1537 C 0.98663 0.54223 0.36777 0.0
C1538 C 0.00214 0.57017 0.41418 0.0
C1539 C 0.00984 0.57127 0.44996 0.0
C1540 C 0.02362 0.57471 0.44629 0.0
C1541 C 0.02999 0.57867 0.40686 0.0
C1542 C 0.0222 0.57721 0.3709 0.0
H1543 H 0.9812 0.53148 0.35606 0.0
H1544 H -0.0035 0.5443 0.38187 0.0
H1545 H 0.9802 0.54302 0.39274 0.0
H1546 H 0.99129 0.56657 0.41754 0.0
H1547 H 0.00463 0.56799 0.47988 0.0
H1548 H 0.43078 0.42049 0.11317 0.0
H1549 H 0.41821 0.42 0.17644 0.0
H1550 H 0.44705 0.41477 0.25207 0.0
H1551 H 0.45895 0.41427 0.18871 0.0
H1552 H 0.42337 0.40417 0.2921 0.0
H1553 H 0.43669 0.45605 0.2347 0.0
H1554 H 0.42491 0.44242 0.20132 0.0
H1555 H 0.44214 0.44553 0.20787 0.0
C1556 C 0.43386 0.41832 0.14309 0.0
C1557 C 0.44575 0.41727 0.14601 0.0
C1558 C 0.42689 0.4184 0.17941 0.0
C1559 C 0.43206 0.41803 0.21927 0.0
C1560 C 0.44292 0.41527 0.22184 0.0
H1561 H 0.44378 0.45459 0.45586 0.0
H1562 H 0.44074 0.43924 0.39754 0.0
C1563 C 0.44964 0.41479 0.18547 0.0
C1564 C 0.42759 0.42236 0.25767 0.0
H1565 H 0.42636 0.44962 0.30056 0.0
C1566 C 0.42386 0.41404 0.29372 0.0
C1567 C 0.42839 0.43536 0.26026 0.0
C1568 C 0.43338 0.44542 0.22417 0.0
C1569 C 0.42122 0.41846 0.33215 0.0
C1570 C 0.42221 0.43147 0.33464 0.0
C1571 C 0.42539 0.43955 0.29838 0.0
C1572 C 0.42195 0.43785 0.37524 0.0
C1573 C 0.41771 0.40932 0.37011 0.0
C1574 C 0.41217 0.4419 0.38293 0.0
C1575 C 0.41377 0.45052 0.41693 0.0
C1576 C 0.42537 0.4555 0.44297 0.0
C1577 C 0.43467 0.45078 0.43656 0.0
C1578 C 0.43294 0.44199 0.40324 0.0
H1579 H 0.41389 0.39846 0.36118 0.0
H1580 H 0.42706 0.41283 0.38955 0.0
H1581 H 0.40984 0.4099 0.3896 0.0
H1582 H 0.40372 0.43899 0.36137 0.0
H1583 H 0.40658 0.45419 0.42068 0.0
H1584 H 0.55146 0.00439 0.13096 0.0
H1585 H 0.55451 0.99259 0.1908 0.0
H1586 H 0.59162 0.02963 0.22459 0.0
H1587 H 0.5887 0.04152 0.16407 0.0
H1588 H 0.57807 0.98961 0.23015 0.0
H1589 H 0.56084 0.02131 0.31707 0.0
H1590 H 0.5585 0.01872 0.26117 0.0
H1591 H 0.57526 0.02987 0.28218 0.0
C1592 C 0.5606 0.00987 0.15007 0.0
C1593 C 0.56983 0.02388 0.14289 0.0
C1594 C 0.56232 0.00311 0.18431 0.0
C1595 C 0.5732 0.01026 0.21237 0.0
C1596 C 0.58315 0.02392 0.20324 0.0
H1597 H 0.56008 0.98682 0.47415 0.0
H1598 H 0.57346 -0.00133 0.41191 0.0
C1599 C 0.58152 0.03068 0.1685 0.0
C1600 C 0.57261 0.00411 0.25417 0.0
H1601 H 0.56183 0.004 0.35409 0.0
C1602 C 0.57478 0.99289 0.25759 0.0
C1603 C 0.56826 0.00836 0.28984 0.0
C1604 C 0.56549 0.02017 0.28773 0.0
C1605 C 0.57252 0.98568 0.29569 0.0
C1606 C 0.5675 0.98951 0.33093 0.0
C1607 C 0.56577 0.00103 0.32753 0.0
C1608 C 0.56273 0.98121 0.37046 0.0
C1609 C 0.57557 0.97408 0.29758 0.0
C1610 C 0.55294 0.96712 0.36905 0.0
C1611 C 0.54573 0.96018 0.40525 0.0
C1612 C 0.54785 0.96729 0.44321 0.0
C1613 C 0.55845 0.98101 0.44553 0.0
C1614 C 0.56595 0.98784 0.40968 0.0
H1615 H 0.58412 0.97601 0.27612 0.0
H1616 H 0.57831 0.97255 0.32981 0.0
H1617 H 0.5664 0.96446 0.28712 0.0
H1618 H 0.54989 0.96175 0.3394 0.0
H1619 H 0.53734 0.94972 0.40225 0.0
H1620 H 0.70639 0.78958 0.25945 0.0
H1621 H 0.69446 0.77472 0.19887 0.0
H1622 H 0.66061 0.78186 0.21711 0.0
H1623 H 0.67237 0.79663 0.27686 0.0
H1624 H 0.65431 0.75235 0.19211 0.0
H1625 H 0.69091 0.79547 0.0901 0.0
H1626 H 0.69709 0.78959 0.13297 0.0
H1627 H 0.68813 0.79868 0.14365 0.0
C1628 C 0.69622 0.78761 0.25132 0.0
C1629 C 0.69035 0.79433 0.27292 0.0
C1630 C 0.68945 0.7792 0.21654 0.0
C1631 C 0.67667 0.77726 0.20331 0.0
C1632 C 0.67043 0.78317 0.22675 0.0
H1633 H 0.61353 0.75339 0.02905 0.0
H1634 H 0.62733 0.75389 0.08842 0.0
C1635 C 0.67719 0.79163 0.26095 0.0
C1636 C 0.67031 0.77055 0.16268 0.0
H1637 H 0.67052 0.77867 0.05951 0.0
C1638 C 0.658 0.75792 0.16282 0.0
C1639 C 0.67522 0.77766 0.12434 0.0
C1640 C 0.68855 0.79111 0.12229 0.0
C1641 C 0.65012 0.75258 0.12607 0.0
C1642 C 0.65427 0.76044 0.08854 0.0
C1643 C 0.66712 0.7726 0.08797 0.0
C1644 C 0.64493 0.75731 0.05144 0.0
C1645 C 0.63738 0.73862 0.12822 0.0
C1646 C 0.64999 0.75903 0.0101 0.0
C1647 C 0.64214 0.75917 0.97598 0.0
C1648 C 0.62893 0.75718 0.98238 0.0
C1649 C 0.6235 0.75446 0.0231 0.0
C1650 C 0.63144 0.7547 0.05723 0.0
H1651 H 0.63897 0.73177 0.14978 0.0
H1652 H 0.6288 0.73967 0.1411 0.0
H1653 H 0.63441 0.73365 0.09695 0.0
H1654 H 0.66033 0.7611 1.00442 0.0
H1655 H 0.64671 0.76168 0.94504 0.0
H1656 H 0.22791 0.88765 0.94188 0.0
H1657 H 0.23031 0.90302 0.99948 0.0
H1658 H 0.25332 0.8885 0.06984 0.0
H1659 H 0.25158 0.87373 0.01102 0.0
H1660 H 0.21812 0.89283 0.06878 0.0
H1661 H 0.27256 0.92714 0.1093 0.0
H1662 H 0.26736 0.91809 0.05995 0.0
H1663 H 0.26856 0.90961 0.10642 0.0
C1664 C 0.23412 0.88833 0.96875 0.0
C1665 C 0.23974 0.87968 0.97179 0.0
C1666 C 0.23538 0.89701 1.00191 0.0
C1667 C 0.242 0.89701 0.03933 0.0
C1668 C 0.24845 0.88905 0.04118 0.0
H1669 H 0.2283 0.90175 0.29516 0.0
H1670 H 0.23943 0.90358 0.22799 0.0
C1671 C 0.24747 0.88057 0.00746 0.0
C1672 C 0.24 0.90332 0.07805 0.0
H1673 H 0.25612 0.92261 0.16482 0.0
C1674 C 0.2265 0.89963 0.08916 0.0
C1675 C 0.25086 0.91208 0.10517 0.0
C1676 C 0.26565 0.91706 0.09436 0.0
C1677 C 0.22349 0.90388 0.12707 0.0
C1678 C 0.23429 0.91228 0.15482 0.0
C1679 C 0.24785 0.9163 0.1434 0.0
C1680 C 0.23135 0.91527 0.19787 0.0
C1681 C 0.20863 0.89864 0.13815 0.0
C1682 C 0.22403 0.92224 0.20444 0.0
C1683 C 0.21771 0.9213 0.24321 0.0
C1684 C 0.21865 0.91338 0.27576 0.0
C1685 C 0.22747 0.908 0.27069 0.0
C1686 C 0.23378 0.90896 0.23214 0.0
H1687 H 0.20148 0.89037 0.11665 0.0
H1688 H 0.20646 0.8946 0.17072 0.0
H1689 H 0.20643 0.9072 0.13609 0.0
H1690 H 0.2222 0.92736 0.17857 0.0
H1691 H 0.21084 0.92539 0.24598 0.0
H1692 H 0.07824 0.28819 0.24935 0.0
H1693 H 0.08179 0.29855 0.18038 0.0
H1694 H 0.05861 0.31795 0.21717 0.0
H1695 H 0.0567 0.30896 0.2885 0.0
H1696 H 0.07092 0.29989 0.11656 0.0
H1697 H 0.09104 0.35157 0.18623 0.0
H1698 H 0.08604 0.33666 0.21816 0.0
H1699 H 0.07331 0.34053 0.19825 0.0
C1700 C 0.07368 0.29447 0.24259 0.0
C1701 C 0.0673 0.29787 0.27452 0.0
C1702 C 0.07574 0.30047 0.20288 0.0
C1703 C 0.07103 0.30965 0.19352 0.0
C1704 C 0.06308 0.3116 0.22392 0.0
H1705 H 0.09555 0.34233 0.93357 0.0
H1706 H 0.07993 0.32985 0.99206 0.0
C1707 C 0.06164 0.30616 0.26448 0.0
C1708 C 0.07534 0.3177 0.15331 0.0
H1709 H 0.09008 0.35023 0.11315 0.0
C1710 C 0.07518 0.31093 0.11601 0.0
C1711 C 0.081 0.33218 0.15202 0.0
C1712 C 0.083 0.34067 0.19085 0.0
C1713 C 0.08116 0.31815 0.07865 0.0
C1714 C 0.0866 0.33258 0.07729 0.0
C1715 C 0.08593 0.33921 0.11382 0.0
C1716 C 0.09472 0.34132 0.04085 0.0
C1717 C 0.08236 0.31027 0.04219 0.0
C1718 C 0.10776 0.35275 0.04835 0.0
C1719 C 0.11628 0.36027 0.01519 0.0
C1720 C 0.11216 0.35649 0.97351 0.0
C1721 C 0.09887 0.34559 0.96548 0.0
C1722 C 0.09009 0.33824 0.99898 0.0
H1723 H 0.08107 0.30022 0.05221 0.0
H1724 H 0.07419 0.30817 0.019 0.0
H1725 H 0.09248 0.31617 0.02654 0.0
H1726 H 0.11172 0.35549 0.07998 0.0
H1727 H 0.12658 0.36848 0.02217 0.0
H1728 H 0.61848 0.84362 0.5432 0.0
H1729 H 0.63437 0.85764 0.59749 0.0
H1730 H 0.65241 0.89231 0.5134 0.0
H1731 H 0.6364 0.87798 0.45763 0.0
H1732 H 0.67199 0.88924 0.55153 0.0
H1733 H 0.63674 0.88665 0.67466 0.0
H1734 H 0.63129 0.86959 0.65686 0.0
H1735 H 0.63126 0.88199 0.621 0.0
C1736 C 0.62568 0.85428 0.53608 0.0
C1737 C 0.62616 0.85961 0.49575 0.0
C1738 C 0.63472 0.86238 0.5676 0.0
C1739 C 0.64452 0.87617 0.56018 0.0
C1740 C 0.64487 0.88173 0.52019 0.0
H1741 H 0.69729 0.90929 0.78797 0.0
H1742 H 0.68248 0.90892 0.73017 0.0
C1743 C 0.63568 0.87356 0.48835 0.0
C1744 C 0.65504 0.88401 0.59328 0.0
H1745 H 0.65821 0.88825 0.69982 0.0
C1746 C 0.66898 0.88933 0.58377 0.0
C1747 C 0.65135 0.88463 0.63544 0.0
C1748 C 0.63685 0.88055 0.64743 0.0
C1749 C 0.67902 0.89393 0.61554 0.0
C1750 C 0.67503 0.8928 0.65822 0.0
C1751 C 0.66132 0.8888 0.66738 0.0
C1752 C 0.68443 0.89385 0.69315 0.0
C1753 C 0.6938 0.89957 0.60303 0.0
C1754 C 0.6903 0.88541 0.69216 0.0
C1755 C 0.69868 0.88562 0.72472 0.0
C1756 C 0.70142 0.89415 0.76001 0.0
C1757 C 0.69549 0.90262 0.76135 0.0
C1758 C 0.68701 0.90241 0.7283 0.0
H1759 H 0.69591 0.90483 0.57217 0.0
H1760 H 0.70094 0.90692 0.62665 0.0
H1761 H 0.69591 0.89097 0.59986 0.0
H1762 H 0.6882 0.87839 0.66632 0.0
H1763 H 0.70289 0.87885 0.7222 0.0
H1764 H 0.08523 0.74076 0.45086 0.0
H1765 H 0.08016 0.74429 0.52265 0.0
H1766 H 0.11401 0.74011 0.56751 0.0
H1767 H 0.11938 0.73691 0.4955 0.0
H1768 H 0.07512 0.73271 0.60202 0.0
H1769 H 0.12634 0.77993 0.59462 0.0
H1770 H 0.11848 0.76922 0.54944 0.0
H1771 H 0.12662 0.76422 0.58867 0.0
C1772 C 0.09128 0.74004 0.47612 0.0
C1773 C 0.10285 0.73876 0.46718 0.0
C1774 C 0.0884 0.74215 0.51726 0.0
C1775 C 0.09698 0.74295 0.5504 0.0
C1776 C 0.10746 0.73991 0.5423 0.0
H1777 H 0.11173 0.78459 0.78962 0.0
H1778 H 0.10998 0.76881 0.73427 0.0
C1779 C 0.11039 0.73785 0.50104 0.0
C1780 C 0.09598 0.74866 0.59166 0.0
H1781 H 0.1136 0.77636 0.65596 0.0
C1782 C 0.08357 0.74219 0.61408 0.0
C1783 C 0.10693 0.76117 0.60715 0.0
C1784 C 0.1203 0.76913 0.58363 0.0
C1785 C 0.08188 0.74776 0.65176 0.0
C1786 C 0.09282 0.7603 0.66709 0.0
C1787 C 0.10523 0.7667 0.64464 0.0
C1788 C 0.09183 0.7673 0.70572 0.0
C1789 C 0.06846 0.74006 0.67493 0.0
C1790 C 0.08184 0.77129 0.70964 0.0
C1791 C 0.08265 0.78011 0.74217 0.0
C1792 C 0.09362 0.78531 0.77074 0.0
C1793 C 0.1031 0.78067 0.76822 0.0
C1794 C 0.10216 0.77171 0.73636 0.0
H1795 H 0.06297 0.72896 0.66682 0.0
H1796 H 0.07004 0.74113 0.7094 0.0
H1797 H 0.06176 0.74427 0.66591 0.0
H1798 H 0.07394 0.76835 0.68605 0.0
H1799 H 0.07537 0.78374 0.74283 0.0
H1800 H 0.20099 0.28596 0.73847 0.0
H1801 H 0.21138 0.29747 0.67291 0.0
H1802 H 0.25005 0.32203 0.73634 0.0
H1803 H 0.2391 0.31136 0.80297 0.0
H1804 H 0.24663 0.33823 0.69535 0.0
H1805 H 0.2337 0.29666 0.58284 0.0
H1806 H 0.21806 0.29371 0.60641 0.0
H1807 H 0.23116 0.29332 0.6383 0.0
C1808 C 0.21188 0.29332 0.73805 0.0
C1809 C 0.21932 0.29748 0.77575 0.0
C1810 C 0.21788 0.29999 0.70028 0.0
C1811 C 0.23168 0.31061 0.69883 0.0
C1812 C 0.23941 0.31394 0.73613 0.0
H1813 H 0.25356 0.34514 0.44459 0.0
H1814 H 0.25498 0.33455 0.51032 0.0
C1815 C 0.23324 0.30763 0.77423 0.0
C1816 C 0.23743 0.3193 0.66015 0.0
H1817 H 0.23644 0.31789 0.55312 0.0
C1818 C 0.24466 0.3337 0.66432 0.0
C1819 C 0.23529 0.31368 0.6192 0.0
C1820 C 0.22928 0.2985 0.61157 0.0
C1821 C 0.24918 0.34248 0.62923 0.0
C1822 C 0.24566 0.33682 0.5883 0.0
C1823 C 0.23902 0.32244 0.58412 0.0
C1824 C 0.24786 0.34543 0.5498 0.0
C1825 C 0.25787 0.35772 0.6369 0.0
C1826 C 0.24416 0.35567 0.54965 0.0
C1827 C 0.24424 0.36233 0.51249 0.0
C1828 C 0.24738 0.35849 0.47403 0.0
C1829 C 0.25154 0.34862 0.47396 0.0
C1830 C 0.25205 0.34237 0.51157 0.0
H1831 H 0.26444 0.35979 0.66504 0.0
H1832 H 0.26459 0.36316 0.60978 0.0
H1833 H 0.2511 0.36206 0.64322 0.0
H1834 H 0.24025 0.35793 0.57767 0.0
H1835 H 0.2404 0.36946 0.51321 0.0
H1836 H 0.33657 0.11743 0.63476 0.0
H1837 H 0.32248 0.10362 0.57603 0.0
H1838 H 0.35912 0.11298 0.50716 0.0
H1839 H 0.37313 0.12609 0.56706 0.0
H1840 H 0.32299 0.11583 0.50862 0.0
H1841 H 0.3348 0.07559 0.462 0.0
H1842 H 0.33963 0.0839 0.51257 0.0
H1843 H 0.35016 0.0919 0.46715 0.0
C1844 C 0.34155 0.11584 0.60803 0.0
C1845 C 0.35592 0.12263 0.6057 0.0
C1846 C 0.3335 0.10807 0.57418 0.0
C1847 C 0.33964 0.1072 0.53675 0.0
C1848 C 0.35401 0.11312 0.53572 0.0
H1849 H 0.31501 0.11549 0.29338 0.0
H1850 H 0.32752 0.11446 0.35466 0.0
C1851 C 0.36206 0.12064 0.5701 0.0
C1852 C 0.33134 0.10255 0.49726 0.0
H1853 H 0.32535 0.08361 0.40747 0.0
C1854 C 0.32332 0.10853 0.48715 0.0
C1855 C 0.33174 0.09309 0.46865 0.0
C1856 C 0.33944 0.08565 0.47837 0.0
C1857 C 0.31613 0.10572 0.44917 0.0
C1858 C 0.31709 0.09686 0.41974 0.0
C1859 C 0.32471 0.09048 0.43 0.0
C1860 C 0.31094 0.09517 0.37735 0.0
C1861 C 0.30782 0.11261 0.4401 0.0
C1862 C 0.2977 0.08427 0.36856 0.0
C1863 C 0.29055 0.08474 0.33298 0.0
C1864 C 0.29651 0.09623 0.30623 0.0
C1865 C 0.31018 0.1065 0.31334 0.0
C1866 C 0.31735 0.10593 0.34837 0.0
H1867 H 0.30636 0.11744 0.46851 0.0
H1868 H 0.31318 0.12071 0.41606 0.0
H1869 H 0.29759 0.10507 0.42738 0.0
H1870 H 0.29252 0.07593 0.39077 0.0
H1871 H 0.27996 0.0768 0.32863 0.0
H1872 H 0.8983 0.21054 0.27956 0.0
H1873 H 0.89703 0.22446 0.33724 0.0
H1874 H 0.88983 0.1923 0.4249 0.0
H1875 H 0.89119 0.17861 0.36808 0.0
H1876 H 0.87459 0.21723 0.38524 0.0
H1877 H 0.91676 0.22543 0.49047 0.0
H1878 H 0.916 0.22029 0.43643 0.0
H1879 H 0.90685 0.20765 0.4765 0.0
C1880 C 0.8969 0.20669 0.31139 0.0
C1881 C 0.8949 0.19352 0.3194 0.0
C1882 C 0.89608 0.2146 0.34428 0.0
C1883 C 0.89355 0.20955 0.38571 0.0
C1884 C 0.89214 0.19664 0.39363 0.0
H1885 H 0.85193 0.2053 0.60355 0.0
H1886 H 0.86623 0.20494 0.54655 0.0
C1887 C 0.89281 0.18874 0.36097 0.0
C1888 C 0.89069 0.21677 0.42013 0.0
H1889 H 0.89682 0.22456 0.52444 0.0
C1890 C 0.87967 0.2192 0.41533 0.0
C1891 C 0.89742 0.21949 0.45946 0.0
C1892 C 0.91001 0.21822 0.46586 0.0
C1893 C 0.87447 0.22308 0.44953 0.0
C1894 C 0.88052 0.22472 0.48956 0.0
C1895 C 0.89212 0.22322 0.49381 0.0
C1896 C 0.87371 0.22599 0.52787 0.0
C1897 C 0.86192 0.22446 0.44344 0.0
C1898 C 0.87351 0.23811 0.53733 0.0
C1899 C 0.8654 0.23837 0.57049 0.0
C1900 C 0.85723 0.22643 0.59403 0.0
C1901 C 0.85801 0.21458 0.58568 0.0
C1902 C 0.86623 0.21439 0.5532 0.0
H1903 H 0.858 0.22219 0.41075 0.0
H1904 H 0.85363 0.21738 0.46497 0.0
H1905 H 0.86442 0.23508 0.45128 0.0
H1906 H 0.87923 0.24719 0.51817 0.0
H1907 H 0.86491 0.24761 0.57609 0.0
H1908 H 0.73293 0.64384 0.62652 0.0
H1909 H 0.73191 0.65263 0.55677 0.0
H1910 H 0.75627 0.63601 0.50708 0.0
H1911 H 0.75569 0.62593 0.57461 0.0
H1912 H 0.74885 0.67089 0.51546 0.0
H1913 H 0.73417 0.62773 0.40912 0.0
H1914 H 0.73247 0.62512 0.46498 0.0
H1915 H 0.74828 0.6291 0.43859 0.0
C1916 C 0.73735 0.64146 0.59995 0.0
C1917 C 0.74401 0.63384 0.60565 0.0
C1918 C 0.737 0.64667 0.5601 0.0
C1919 C 0.74379 0.64487 0.52557 0.0
C1920 C 0.75028 0.63707 0.53175 0.0
H1921 H 0.79184 0.70682 0.35009 0.0
H1922 H 0.77824 0.69396 0.41003 0.0
C1923 C 0.75007 0.63136 0.57083 0.0
C1924 C 0.74562 0.65237 0.48484 0.0
H1925 H 0.75095 0.6504 0.38024 0.0
C1926 C 0.74893 0.66621 0.48583 0.0
C1927 C 0.74527 0.64645 0.44522 0.0
C1928 C 0.73967 0.63124 0.43953 0.0
C1929 C 0.75282 0.6744 0.4494 0.0
C1930 C 0.7545 0.66899 0.41108 0.0
C1931 C 0.75018 0.65489 0.40945 0.0
C1932 C 0.76172 0.67786 0.37372 0.0
C1933 C 0.75492 0.68871 0.45276 0.0
C1934 C 0.75735 0.67323 0.33239 0.0
C1935 C 0.76556 0.68042 0.29776 0.0
C1936 C 0.77806 0.69264 0.30366 0.0
C1937 C 0.782 0.69771 0.34453 0.0
C1938 C 0.77411 0.69032 0.37906 0.0
H1939 H 0.74747 0.68891 0.47513 0.0
H1940 H 0.76533 0.69573 0.46533 0.0
H1941 H 0.75371 0.69263 0.42203 0.0
H1942 H 0.74791 0.66369 0.3269 0.0
H1943 H 0.76249 0.67606 0.26668 0.0
H1944 H 0.32619 0.20756 0.79298 0.0
H1945 H 0.3389 0.22163 0.8531 0.0
H1946 H 0.30326 0.22355 0.8923 0.0
H1947 H 0.29045 0.20944 0.83154 0.0
H1948 H 0.34478 0.24779 0.89093 0.0
H1949 H 0.31001 0.20185 0.98672 0.0
H1950 H 0.3109 0.20087 0.93043 0.0
H1951 H 0.30251 0.20926 0.95342 0.0
C1952 C 0.32122 0.21144 0.81346 0.0
C1953 C 0.30734 0.20743 0.8075 0.0
C1954 C 0.32848 0.21944 0.84795 0.0
C1955 C 0.32198 0.22345 0.87766 0.0
C1956 C 0.30845 0.22046 0.86998 0.0
H1957 H 0.35951 0.23976 0.13099 0.0
H1958 H 0.34408 0.23993 0.07612 0.0
C1959 C 0.30119 0.21254 0.83498 0.0
C1960 C 0.32896 0.22907 0.9186 0.0
H1961 H 0.33012 0.21869 0.01861 0.0
C1962 C 0.3414 0.24158 0.91916 0.0
C1963 C 0.32454 0.22105 0.95566 0.0
C1964 C 0.3113 0.20747 0.95688 0.0
C1965 C 0.34989 0.24586 0.95489 0.0
C1966 C 0.34605 0.23724 0.99062 0.0
C1967 C 0.33312 0.22527 0.99121 0.0
C1968 C 0.3561 0.23919 0.02427 0.0
C1969 C 0.36316 0.25938 0.95354 0.0
C1970 C 0.368 0.23883 0.0135 0.0
C1971 C 0.37662 0.23856 0.04451 0.0
C1972 C 0.37366 0.23875 0.0872 0.0
C1973 C 0.36211 0.23976 0.0983 0.0
C1974 C 0.35328 0.2398 0.067 0.0
H1975 H 0.36228 0.26678 0.93244 0.0
H1976 H 0.36621 0.26401 0.98527 0.0
H1977 H 0.3714 0.25771 0.94106 0.0
H1978 H 0.37029 0.23805 0.98098 0.0
H1979 H 0.38544 0.23777 0.03505 0.0
H1980 H 0.78547 0.07366 0.83473 0.0
H1981 H 0.76934 0.06987 0.89205 0.0
H1982 H 0.76905 0.10673 0.85695 0.0
H1983 H 0.78532 0.11069 0.80057 0.0
H1984 H 0.77937 0.09174 0.95333 0.0
H1985 H 0.7284 0.07976 0.89276 0.0
H1986 H 0.73994 0.07603 0.86363 0.0
H1987 H 0.74278 0.09323 0.86527 0.0
C1988 C 0.78144 0.08058 0.83808 0.0
C1989 C 0.78656 0.09243 0.81308 0.0
C1990 C 0.77229 0.07845 0.87096 0.0
C1991 C 0.76786 0.08794 0.8786 0.0
C1992 C 0.77207 0.09912 0.85125 0.0
H1993 H 0.74453 0.12305 0.07342 0.0
H1994 H 0.74489 0.11224 0.00733 0.0
C1995 C 0.7814 0.10139 0.81904 0.0
C1996 C 0.76134 0.08792 0.91923 0.0
H1997 H 0.73395 0.08868 0.96264 0.0
C1998 C 0.7693 0.09075 0.95561 0.0
C1999 C 0.74833 0.08692 0.92192 0.0
C2000 C 0.73929 0.08371 0.88388 0.0
C2001 C 0.765 0.09335 0.99412 0.0
C2002 C 0.752 0.0925 0.99698 0.0
C2003 C 0.74381 0.0892 0.96075 0.0
C2004 C 0.74751 0.09629 0.03637 0.0
C2005 C 0.77492 0.09792 0.03053 0.0
C2006 C 0.74755 0.09021 0.07486 0.0
C2007 C 0.74759 0.09654 0.1127 0.0
C2008 C 0.74703 0.10875 0.11268 0.0
C2009 C 0.74478 0.11355 0.07446 0.0
C2010 C 0.74514 0.10744 0.03653 0.0
H2011 H 0.78558 0.1014 0.02012 0.0
H2012 H 0.77492 0.10646 0.04798 0.0
H2013 H 0.77186 0.08918 0.05235 0.0
H2014 H 0.74885 0.0813 0.07565 0.0
H2015 H 0.74943 0.09268 0.14165 0.0
H2016 H 0.91579 0.71011 0.82698 0.0
H2017 H 0.91738 0.69872 0.89085 0.0
H2018 H 0.88659 0.65961 0.84185 0.0
H2019 H 0.88467 0.67097 0.77881 0.0
H2020 H 0.88536 0.67899 0.92673 0.0
H2021 H 0.92024 0.65735 0.91786 0.0
H2022 H 0.92416 0.67317 0.89157 0.0
H2023 H 0.91074 0.65712 0.87191 0.0
C2024 C 0.90991 0.69901 0.82896 0.0
C2025 C 0.90016 0.69138 0.79799 0.0
C2026 C 0.91079 0.69252 0.86549 0.0
C2027 C 0.90217 0.67832 0.87086 0.0
C2028 C 0.89347 0.67054 0.838 0.0
H2029 H 0.8663 0.61652 0.0593 0.0
H2030 H 0.88005 0.63046 0.99992 0.0
C2031 C 0.8924 0.67703 0.80199 0.0
C2032 C 0.89966 0.67214 0.91326 0.0
H2033 H 0.90556 0.6512 0.97699 0.0
C2034 C 0.88994 0.67311 0.93817 0.0
C2035 C 0.90544 0.66424 0.92734 0.0
C2036 C 0.91577 0.66285 0.90102 0.0
C2037 C 0.88548 0.66604 0.9763 0.0
C2038 C 0.89131 0.65817 0.99093 0.0
C2039 C 0.90124 0.65737 0.96619 0.0
C2040 C 0.88633 0.64995 0.0302 0.0
C2041 C 0.87396 0.66649 0.99919 0.0
C2042 C 0.88609 0.65622 0.06804 0.0
C2043 C 0.87799 0.64827 0.10152 0.0
C2044 C 0.87051 0.63391 0.09835 0.0
C2045 C 0.87214 0.62758 0.06262 0.0
C2046 C 0.87995 0.63555 0.02862 0.0
H2047 H 0.86828 0.66988 0.97839 0.0
H2048 H 0.86652 0.65627 0.01221 0.0
H2049 H 0.87827 0.67392 0.02547 0.0
H2050 H 0.89125 0.6673 0.07045 0.0
H2051 H 0.8768 0.65336 0.12868 0.0
H2052 H 0.10514 0.57863 0.63049 0.0
H2053 H 0.11116 0.56636 0.6823 0.0
H2054 H 0.06822 0.5365 0.69714 0.0
H2055 H 0.06237 0.54841 0.64491 0.0
H2056 H 0.10569 0.56447 0.7589 0.0
H2057 H 0.08238 0.5111 0.70654 0.0
H2058 H 0.08458 0.52458 0.67106 0.0
H2059 H 0.06936 0.51574 0.70314 0.0
C2060 C 0.09709 0.56913 0.64372 0.0
C2061 C 0.08332 0.56422 0.63287 0.0
C2062 C 0.10052 0.56214 0.67336 0.0
C2063 C 0.0902 0.55027 0.69314 0.0
C2064 C 0.07648 0.54521 0.68121 0.0
H2065 H 0.06778 0.53085 0.92935 0.0
H2066 H 0.08045 0.54267 0.86678 0.0
C2067 C 0.0731 0.55204 0.65118 0.0
C2068 C 0.09329 0.54448 0.73082 0.0
H2069 H 0.08118 0.51424 0.78357 0.0
C2070 C 0.10072 0.55347 0.76372 0.0
C2071 C 0.08728 0.53016 0.7373 0.0
C2072 C 0.08061 0.51991 0.70229 0.0
C2073 C 0.10081 0.54851 0.80399 0.0
C2074 C 0.09291 0.53426 0.81186 0.0
C2075 C 0.08698 0.52522 0.77793 0.0
C2076 C 0.08821 0.52883 0.85474 0.0
C2077 C 0.10873 0.55867 0.83822 0.0
C2078 C 0.08848 0.51717 0.86949 0.0
C2079 C 0.08114 0.51034 0.90563 0.0
C2080 C 0.07326 0.51496 0.92677 0.0
C2081 C 0.07379 0.52711 0.91357 0.0
C2082 C 0.08116 0.53395 0.87795 0.0
H2083 H 0.11842 0.56729 0.8256 0.0
H2084 H 0.10256 0.5631 0.8505 0.0
H2085 H 0.11122 0.5538 0.86448 0.0
H2086 H 0.09372 0.51295 0.8518 0.0
H2087 H 0.08076 0.50089 0.91502 0.0
H2088 H 0.4955 0.57837 0.91051 0.0
H2089 H 0.48796 0.57719 0.8379 0.0
H2090 H 0.44578 0.55412 0.87792 0.0
H2091 H 0.45322 0.55528 0.95033 0.0
H2092 H 0.47403 0.55196 0.80192 0.0
H2093 H 0.44328 0.57744 0.7853 0.0
H2094 H 0.45526 0.58125 0.82791 0.0
H2095 H 0.43818 0.56663 0.8308 0.0
C2096 C 0.48461 0.57363 0.90413 0.0
C2097 C 0.47493 0.56688 0.93615 0.0
C2098 C 0.48032 0.57289 0.86251 0.0
C2099 C 0.4663 0.56563 0.85241 0.0
C2100 C 0.45664 0.56002 0.88491 0.0
H2101 H 0.40837 0.5117 0.68634 0.0
H2102 H 0.42215 0.52963 0.73659 0.0
C2103 C 0.46091 0.56064 0.92638 0.0
C2104 C 0.46174 0.5616 0.80842 0.0
H2105 H 0.43711 0.55797 0.73878 0.0
C2106 C 0.46624 0.5536 0.78744 0.0
C2107 C 0.45158 0.56374 0.78963 0.0
C2108 C 0.44691 0.57286 0.80946 0.0
C2109 C 0.46004 0.54671 0.75003 0.0
C2110 C 0.4492 0.54809 0.73268 0.0
C2111 C 0.44537 0.55687 0.75213 0.0
C2112 C 0.44047 0.53898 0.69835 0.0
C2113 C 0.46451 0.53726 0.73114 0.0
C2114 C 0.44596 0.53867 0.65907 0.0
C2115 C 0.43806 0.52832 0.63009 0.0
C2116 C 0.42456 0.51816 0.63993 0.0
C2117 C 0.41876 0.51928 0.67773 0.0
C2118 C 0.42665 0.52955 0.70663 0.0
H2119 H 0.47137 0.53559 0.75239 0.0
H2120 H 0.45549 0.52713 0.72346 0.0
H2121 H 0.47018 0.54187 0.70168 0.0
H2122 H 0.4565 0.54607 0.65152 0.0
H2123 H 0.44265 0.52795 0.60067 0.0
H2124 H 0.41536 0.92454 0.88039 0.0
H2125 H 0.41864 0.91581 0.8139 0.0
H2126 H 0.43782 0.89626 0.87951 0.0
H2127 H 0.43492 0.90541 0.94584 0.0
H2128 H 0.45509 0.91625 0.82721 0.0
H2129 H 0.40709 0.88214 0.74118 0.0
H2130 H 0.40776 0.89737 0.76127 0.0
H2131 H 0.40747 0.88489 0.79712 0.0
C2132 C 0.41944 0.91762 0.88083 0.0
C2133 C 0.42471 0.91545 0.91814 0.0
C2134 C 0.42139 0.91268 0.84271 0.0
C2135 C 0.4285 0.90538 0.84162 0.0
C2136 C 0.43226 0.90182 0.87962 0.0
H2137 H 0.46968 0.88852 0.64105 0.0
H2138 H 0.45313 0.88548 0.69563 0.0
C2139 C 0.43045 0.9069 0.91761 0.0
C2140 C 0.43471 0.90429 0.80176 0.0
H2141 H 0.42783 0.89311 0.70017 0.0
C2142 C 0.44908 0.911 0.79968 0.0
C2143 C 0.4269 0.89763 0.76562 0.0
C2144 C 0.41144 0.88999 0.76639 0.0
C2145 C 0.45587 0.91141 0.76249 0.0
C2146 C 0.4481 0.90502 0.72617 0.0
C2147 C 0.43372 0.8981 0.72809 0.0
C2148 C 0.4551 0.90542 0.68651 0.0
C2149 C 0.47135 0.9188 0.76201 0.0
C2150 C 0.46123 0.91744 0.66225 0.0
C2151 C 0.47069 0.91921 0.63094 0.0
C2152 C 0.47427 0.90906 0.62376 0.0
C2153 C 0.46722 0.89658 0.64587 0.0
C2154 C 0.45771 0.89478 0.67699 0.0
H2155 H 0.47583 0.92213 0.79382 0.0
H2156 H 0.47498 0.91206 0.74871 0.0
H2157 H 0.47529 0.92802 0.74165 0.0
H2158 H 0.45942 0.92581 0.66945 0.0
H2159 H 0.47594 0.92894 0.6147 0.0
H2160 H 0.52942 0.08702 0.64263 0.0
H2161 H 0.54113 0.09485 0.71014 0.0
H2162 H 0.50302 0.08595 0.7683 0.0
H2163 H 0.4913 0.0783 0.70045 0.0
H2164 H 0.53685 0.11263 0.79502 0.0
H2165 H 0.51975 0.05671 0.79635 0.0
H2166 H 0.52497 0.06611 0.74767 0.0
H2167 H 0.5094 0.06299 0.77248 0.0
C2168 C 0.52376 0.0876 0.66926 0.0
C2169 C 0.50955 0.08231 0.66642 0.0
C2170 C 0.53042 0.09197 0.70783 0.0
C2171 C 0.52291 0.09093 0.74402 0.0
C2172 C 0.50899 0.08698 0.74051 0.0
H2173 H 0.54769 0.07236 0.98196 0.0
H2174 H 0.53368 0.07601 0.93079 0.0
C2175 C 0.50234 0.08272 0.70174 0.0
C2176 C 0.52885 0.09102 0.78538 0.0
H2177 H 0.53447 0.07021 0.85011 0.0
C2178 C 0.53622 0.10336 0.80753 0.0
C2179 C 0.5279 0.07887 0.80146 0.0
C2180 C 0.52007 0.06536 0.77852 0.0
C2181 C 0.543 0.10391 0.84518 0.0
C2182 C 0.54256 0.09185 0.86034 0.0
C2183 C 0.53477 0.07944 0.83868 0.0
C2184 C 0.55091 0.09186 0.89645 0.0
C2185 C 0.5506 0.11737 0.86822 0.0
C2186 C 0.56527 0.09985 0.89501 0.0
C2187 C 0.57333 0.09782 0.92433 0.0
C2188 C 0.56718 0.08762 0.95538 0.0
C2189 C 0.55278 0.08028 0.95846 0.0
C2190 C 0.54474 0.08235 0.92917 0.0
H2191 H 0.54623 0.12409 0.86112 0.0
H2192 H 0.55031 0.11577 0.90265 0.0
H2193 H 0.56148 0.12284 0.85798 0.0
H2194 H 0.57029 0.10703 0.86959 0.0
H2195 H 0.58437 0.10364 0.92091 0.0
H2196 H 0.9103 0.41391 0.67227 0.0
H2197 H 0.90414 0.41466 0.7452 0.0
H2198 H 0.88562 0.43865 0.709 0.0
H2199 H 0.89202 0.43823 0.63602 0.0
H2200 H 0.91686 0.44322 0.77429 0.0
H2201 H 0.86114 0.41332 0.80864 0.0
H2202 H 0.86919 0.40848 0.76824 0.0
H2203 H 0.86566 0.42217 0.75908 0.0
C2204 C 0.90433 0.41879 0.67943 0.0
C2205 C 0.90176 0.42616 0.64851 0.0
C2206 C 0.90084 0.41921 0.72121 0.0
C2207 C 0.89441 0.42667 0.73236 0.0
C2208 C 0.89042 0.43268 0.70087 0.0
H2209 H 0.88854 0.47713 0.91051 0.0
H2210 H 0.88422 0.45943 0.85916 0.0
C2211 C 0.89412 0.43248 0.65921 0.0
C2212 C 0.89486 0.43105 0.77623 0.0
H2213 H 0.87489 0.43216 0.85466 0.0
C2214 C 0.90773 0.44056 0.79254 0.0
C2215 C 0.88291 0.42764 0.79933 0.0
C2216 C 0.86892 0.41726 0.78319 0.0
C2217 C 0.90895 0.44754 0.83005 0.0
C2218 C 0.89694 0.44453 0.85268 0.0
C2219 C 0.88408 0.4344 0.83745 0.0
C2220 C 0.89746 0.45309 0.88875 0.0
C2221 C 0.92303 0.45884 0.84312 0.0
C2222 C 0.90578 0.45492 0.92377 0.0
C2223 C 0.90851 0.46527 0.95294 0.0
C2224 C 0.90271 0.47374 0.94794 0.0
C2225 C 0.8933 0.47091 0.91515 0.0
C2226 C 0.89076 0.46073 0.88574 0.0
H2227 H 0.93067 0.46175 0.81751 0.0
H2228 H 0.92272 0.46816 0.85284 0.0
H2229 H 0.92667 0.45529 0.8701 0.0
H2230 H 0.91075 0.44886 0.92733 0.0
H2231 H 0.91564 0.46703 0.9782 0.0
H2232 H 0.52039 0.45525 0.97658 0.0
H2233 H 0.53719 0.46875 0.92202 0.0
H2234 H 0.53845 0.43274 0.88301 0.0
H2235 H 0.52154 0.41917 0.93599 0.0
H2236 H 0.56561 0.46132 0.88145 0.0
H2237 H 0.51977 0.45621 0.79724 0.0
H2238 H 0.52276 0.46218 0.85069 0.0
H2239 H 0.5181 0.44477 0.83945 0.0
C2240 C 0.5243 0.45024 0.95659 0.0
C2241 C 0.51913 0.436 0.95956 0.0
C2242 C 0.53402 0.458 0.92581 0.0
C2243 C 0.53888 0.45166 0.89825 0.0
C2244 C 0.53481 0.43781 0.90398 0.0
H2245 H 0.55878 0.45562 0.64369 0.0
H2246 H 0.55505 0.45009 0.71837 0.0
C2247 C 0.52505 0.43005 0.93432 0.0
C2248 C 0.54631 0.4586 0.85943 0.0
H2249 H 0.54026 0.465 0.75942 0.0
C2250 C 0.56018 0.4624 0.85494 0.0
C2251 C 0.5391 0.45978 0.82485 0.0
C2252 C 0.5241 0.4555 0.82786 0.0
C2253 C 0.56695 0.46714 0.81623 0.0
C2254 C 0.55956 0.46783 0.78147 0.0
C2255 C 0.54584 0.46441 0.78633 0.0
C2256 C 0.56542 0.47124 0.7388 0.0
C2257 C 0.58175 0.47091 0.81196 0.0
C2258 C 0.57315 0.48496 0.72597 0.0
C2259 C 0.57541 0.48817 0.68324 0.0
C2260 C 0.56974 0.47767 0.65286 0.0
C2261 C 0.56325 0.46392 0.66626 0.0
C2262 C 0.56107 0.46075 0.70891 0.0
H2263 H 0.58611 0.4698 0.84199 0.0
H2264 H 0.58269 0.4643 0.7879 0.0
H2265 H 0.58791 0.4817 0.80103 0.0
H2266 H 0.57648 0.49318 0.74866 0.0
H2267 H 0.58039 0.49887 0.67409 0.0
H2268 H 0.89732 0.45446 0.12304 0.0
H2269 H 0.88732 0.44379 0.19032 0.0
H2270 H 0.90091 0.48374 0.24402 0.0
H2271 H 0.91042 0.49441 0.17624 0.0
H2272 H 0.90737 0.45135 0.24896 0.0
H2273 H 0.86602 0.45954 0.31183 0.0
H2274 H 0.86985 0.46047 0.25646 0.0
H2275 H 0.8805 0.47458 0.29038 0.0
C2276 C 0.89749 0.46089 0.1486 0.0
C2277 C 0.90469 0.47523 0.14467 0.0
C2278 C 0.8918 0.4548 0.18703 0.0
C2279 C 0.89345 0.46297 0.22224 0.0
C2280 C 0.89931 0.47721 0.21718 0.0
H2281 H 0.91452 0.4479 0.46636 0.0
H2282 H 0.90972 0.45923 0.40879 0.0
C2283 C 0.90478 0.48331 0.17838 0.0
C2284 C 0.89227 0.45707 0.26455 0.0
H2285 H 0.87724 0.45222 0.36091 0.0
C2286 C 0.90065 0.45141 0.2732 0.0
C2287 C 0.88369 0.45739 0.29633 0.0
C2288 C 0.87441 0.46322 0.28833 0.0
C2289 C 0.90068 0.44604 0.31264 0.0
C2290 C 0.89218 0.44641 0.34451 0.0
C2291 C 0.88375 0.45203 0.33622 0.0
C2292 C 0.89209 0.44069 0.38615 0.0
C2293 C 0.90988 0.44004 0.32018 0.0
C2294 C 0.88333 0.42666 0.39344 0.0
C2295 C 0.88608 0.42011 0.42612 0.0
C2296 C 0.89771 0.42752 0.45173 0.0
C2297 C 0.90557 0.44186 0.447 0.0
C2298 C 0.90279 0.44839 0.41431 0.0
H2299 H 0.91537 0.43996 0.29135 0.0
H2300 H 0.91761 0.44612 0.34452 0.0
H2301 H 0.90375 0.42935 0.33195 0.0
H2302 H 0.8751 0.42056 0.37169 0.0
H2303 H 0.87974 0.40907 0.4291 0.0
H2304 H 0.55192 0.47204 0.45715 0.0
H2305 H 0.54081 0.45757 0.39718 0.0
H2306 H 0.5793 0.46146 0.35819 0.0
H2307 H 0.59077 0.47684 0.41739 0.0
H2308 H 0.56983 0.46791 0.29737 0.0
H2309 H 0.52595 0.42033 0.35468 0.0
H2310 H 0.52492 0.43411 0.37887 0.0
H2311 H 0.53942 0.43181 0.38977 0.0
C2312 C 0.55801 0.46951 0.43669 0.0
C2313 C 0.57231 0.47577 0.44189 0.0
C2314 C 0.55155 0.46103 0.40238 0.0
C2315 C 0.55911 0.45819 0.37309 0.0
C2316 C 0.5732 0.46346 0.38028 0.0
H2317 H 0.50609 0.42136 0.15125 0.0
H2318 H 0.522 0.42297 0.20676 0.0
C2319 C 0.57976 0.47222 0.41425 0.0
C2320 C 0.55279 0.452 0.33191 0.0
H2321 H 0.52195 0.42937 0.28792 0.0
C2322 C 0.55952 0.45918 0.29534 0.0
C2323 C 0.53945 0.4404 0.32839 0.0
C2324 C 0.53215 0.43117 0.36514 0.0
C2325 C 0.55282 0.45599 0.25647 0.0
C2326 C 0.53885 0.44569 0.25428 0.0
C2327 C 0.53256 0.43754 0.28973 0.0
C2328 C 0.53015 0.44466 0.21789 0.0
C2329 C 0.56064 0.46413 0.21848 0.0
C2330 C 0.52942 0.45628 0.20587 0.0
C2331 C 0.52044 0.45541 0.17443 0.0
C2332 C 0.51179 0.44284 0.15442 0.0
C2333 C 0.51267 0.43121 0.16587 0.0
C2334 C 0.52172 0.4321 0.19761 0.0
H2335 H 0.57164 0.46713 0.22086 0.0
H2336 H 0.55638 0.45823 0.18906 0.0
H2337 H 0.56012 0.47371 0.21675 0.0
H2338 H 0.5355 0.46599 0.22183 0.0
H2339 H 0.52007 0.46459 0.16652 0.0
H2340 H 0.55765 0.09006 0.13599 0.0
H2341 H 0.5542 0.09965 0.20064 0.0
H2342 H 0.57338 0.08106 0.27134 0.0
H2343 H 0.57721 0.0719 0.20652 0.0
H2344 H 0.53694 0.08054 0.25491 0.0
H2345 H 0.58505 0.11564 0.33897 0.0
H2346 H 0.58465 0.11203 0.28361 0.0
H2347 H 0.58422 0.10005 0.32179 0.0
C2348 C 0.56195 0.08885 0.165 0.0
C2349 C 0.56793 0.08052 0.16638 0.0
C2350 C 0.55983 0.09417 0.20201 0.0
C2351 C 0.56352 0.09108 0.24093 0.0
C2352 C 0.57072 0.08386 0.24177 0.0
H2353 H 0.51947 0.07288 0.47436 0.0
H2354 H 0.53578 0.07551 0.41941 0.0
C2355 C 0.57296 0.07867 0.20464 0.0
C2356 C 0.55734 0.09276 0.27999 0.0
H2357 H 0.56431 0.10551 0.37991 0.0
C2358 C 0.54297 0.08618 0.28197 0.0
C2359 C 0.56518 0.09991 0.31557 0.0
C2360 C 0.58064 0.10742 0.31487 0.0
C2361 C 0.53622 0.08642 0.31853 0.0
C2362 C 0.54403 0.09344 0.35416 0.0
C2363 C 0.5584 0.10011 0.35243 0.0
C2364 C 0.53708 0.09383 0.39301 0.0
C2365 C 0.52074 0.07902 0.3192 0.0
C2366 C 0.53285 0.10355 0.39713 0.0
C2367 C 0.52346 0.10203 0.42827 0.0
C2368 C 0.5181 0.09071 0.45572 0.0
C2369 C 0.52332 0.08166 0.45367 0.0
C2370 C 0.53268 0.08317 0.42238 0.0
H2371 H 0.51616 0.07383 0.28898 0.0
H2372 H 0.51683 0.07121 0.34457 0.0
H2373 H 0.5172 0.08643 0.32603 0.0
H2374 H 0.53609 0.11179 0.37449 0.0
H2375 H 0.51974 0.10924 0.42899 0.0
H2376 H 0.47131 0.90453 0.44576 0.0
H2377 H 0.45631 0.8931 0.38519 0.0
H2378 H 0.48813 0.92151 0.30205 0.0
H2379 H 0.50299 0.93261 0.36185 0.0
H2380 H 0.44811 0.90743 0.33831 0.0
H2381 H 0.47273 0.88749 0.2325 0.0
H2382 H 0.47755 0.89126 0.287 0.0
H2383 H 0.48479 0.90469 0.2481 0.0
C2384 C 0.47527 0.9078 0.41435 0.0
C2385 C 0.48828 0.91933 0.40818 0.0
C2386 C 0.46669 0.90137 0.37983 0.0
C2387 C 0.47113 0.90634 0.33895 0.0
C2388 C 0.48456 0.9172 0.33295 0.0
H2389 H 0.4453 0.92434 0.11497 0.0
H2390 H 0.457 0.91899 0.16997 0.0
C2391 C 0.49304 0.9236 0.36721 0.0
C2392 C 0.46126 0.9022 0.30363 0.0
H2393 H 0.45838 0.89541 0.19856 0.0
C2394 C 0.45008 0.90437 0.30805 0.0
C2395 C 0.46394 0.89837 0.26404 0.0
C2396 C 0.47534 0.89519 0.25779 0.0
C2397 C 0.44213 0.90379 0.27341 0.0
C2398 C 0.44529 0.9007 0.23335 0.0
C2399 C 0.45599 0.8978 0.22928 0.0
C2400 C 0.43847 0.90189 0.1951 0.0
C2401 C 0.43104 0.90746 0.2795 0.0
C2402 C 0.42426 0.89359 0.18966 0.0
C2403 C 0.41751 0.89668 0.15841 0.0
C2404 C 0.42488 0.90807 0.13187 0.0
C2405 C 0.43928 0.91554 0.13493 0.0
C2406 C 0.446 0.91249 0.16639 0.0
H2407 H 0.43158 0.912 0.31087 0.0
H2408 H 0.43177 0.91488 0.2552 0.0
H2409 H 0.42084 0.89806 0.27649 0.0
H2410 H 0.41831 0.8852 0.21107 0.0
H2411 H 0.40643 0.89062 0.15666 0.0
H2412 H 0.07795 0.52915 0.09395 0.0
H2413 H 0.0841 0.54863 0.14119 0.0
H2414 H 0.09288 0.52769 0.2393 0.0
H2415 H 0.08666 0.50839 0.19306 0.0
H2416 H 0.07023 0.54644 0.21113 0.0
H2417 H 0.12398 0.5659 0.25629 0.0
H2418 H 0.11652 0.55536 0.21032 0.0
H2419 H 0.11467 0.5476 0.26122 0.0
C2420 C 0.08125 0.52878 0.12555 0.0
C2421 C 0.08148 0.5171 0.14008 0.0
C2422 C 0.08496 0.53998 0.15226 0.0
C2423 C 0.08919 0.53974 0.19358 0.0
C2424 C 0.09008 0.52836 0.20723 0.0
H2425 H 0.0754 0.54751 0.43261 0.0
H2426 H 0.08613 0.54756 0.36595 0.0
C2427 C 0.08637 0.51722 0.18074 0.0
C2428 C 0.0905 0.55006 0.22484 0.0
H2429 H 0.10905 0.56678 0.31171 0.0
C2430 C 0.07893 0.55138 0.23224 0.0
C2431 C 0.10188 0.55653 0.25226 0.0
C2432 C 0.115 0.55638 0.24424 0.0
C2433 C 0.07781 0.55763 0.26883 0.0
C2434 C 0.08865 0.56286 0.29837 0.0
C2435 C 0.10075 0.56273 0.28903 0.0
C2436 C 0.08631 0.56566 0.34189 0.0
C2437 C 0.06449 0.55736 0.27756 0.0
C2438 C 0.08369 0.57632 0.35129 0.0
C2439 C 0.07769 0.57636 0.38967 0.0
C2440 C 0.07428 0.56573 0.4186 0.0
C2441 C 0.0781 0.55585 0.41073 0.0
C2442 C 0.0842 0.55589 0.37273 0.0
H2443 H 0.05667 0.55185 0.25284 0.0
H2444 H 0.06019 0.55231 0.30815 0.0
H2445 H 0.0664 0.56803 0.2794 0.0
H2446 H 0.08528 0.58395 0.32782 0.0
H2447 H 0.0746 0.58395 0.3951 0.0
H2448 H 0.46372 0.54923 0.1044 0.0
H2449 H 0.4451 0.53627 0.15398 0.0
H2450 H 0.46069 0.57187 0.23401 0.0
H2451 H 0.47898 0.58499 0.18409 0.0
H2452 H 0.45027 0.53053 0.22776 0.0
H2453 H 0.42075 0.55692 0.25165 0.0
H2454 H 0.43188 0.56046 0.20696 0.0
H2455 H 0.43871 0.56898 0.25637 0.0
C2456 C 0.46292 0.55444 0.13187 0.0
C2457 C 0.47294 0.56812 0.14046 0.0
C2458 C 0.45224 0.54701 0.1602 0.0
C2459 C 0.45138 0.55308 0.19769 0.0
C2460 C 0.46085 0.56701 0.20491 0.0
H2461 H 0.44202 0.53425 0.44561 0.0
H2462 H 0.4421 0.54433 0.37768 0.0
C2463 C 0.47143 0.57449 0.17639 0.0
C2464 C 0.44237 0.54442 0.23231 0.0
H2465 H 0.42206 0.54416 0.31233 0.0
C2466 C 0.44373 0.53324 0.24539 0.0
C2467 C 0.43385 0.54794 0.25553 0.0
C2468 C 0.43111 0.55915 0.24154 0.0
C2469 C 0.43772 0.52619 0.28264 0.0
C2470 C 0.43003 0.53036 0.30737 0.0
C2471 C 0.42794 0.54098 0.29319 0.0
C2472 C 0.42625 0.52531 0.35083 0.0
C2473 C 0.44053 0.51501 0.29692 0.0
C2474 C 0.41659 0.51151 0.35903 0.0
C2475 C 0.41639 0.50578 0.39821 0.0
C2476 C 0.42594 0.51381 0.42911 0.0
C2477 C 0.43447 0.52794 0.42233 0.0
C2478 C 0.43455 0.53368 0.38351 0.0
H2479 H 0.44774 0.51388 0.27578 0.0
H2480 H 0.44492 0.51721 0.32907 0.0
H2481 H 0.43077 0.50506 0.29788 0.0
H2482 H 0.41014 0.50491 0.33406 0.0
H2483 H 0.4099 0.49481 0.40257 0.0
H2484 H 0.77782 0.91869 0.98869 0.0
H2485 H 0.78517 0.90696 0.0385 0.0
H2486 H 0.74313 0.87418 0.04981 0.0
H2487 H 0.73622 0.88509 0.99727 0.0
H2488 H 0.78207 0.90265 0.11187 0.0
H2489 H 0.75835 0.85042 0.05213 0.0
H2490 H 0.75914 0.864 0.02006 0.0
H2491 H 0.74461 0.854 0.05417 0.0
C2492 C 0.7703 0.90876 1.00104 0.0
C2493 C 0.75651 0.90267 0.9888 0.0
C2494 C 0.77447 0.90206 0.02962 0.0
C2495 C 0.76482 0.88938 0.04748 0.0
C2496 C 0.75101 0.88348 0.03521 0.0
H2497 H 0.75087 0.87056 0.28869 0.0
H2498 H 0.76318 0.88235 0.22642 0.0
C2499 C 0.74698 0.88985 0.00548 0.0
C2500 C 0.76863 0.88309 0.08255 0.0
H2501 H 0.75729 0.85216 0.13028 0.0
C2502 C 0.77698 0.89158 0.11512 0.0
C2503 C 0.76281 0.86868 0.08687 0.0
C2504 C 0.75591 0.85884 0.05101 0.0
C2505 C 0.77817 0.88606 0.15335 0.0
C2506 C 0.77001 0.87174 0.16044 0.0
C2507 C 0.76316 0.8632 0.1261 0.0
C2508 C 0.76616 0.86584 0.20358 0.0
C2509 C 0.78785 0.89576 0.186 0.0
C2510 C 0.76377 0.85255 0.213 0.0
C2511 C 0.75618 0.84553 0.24871 0.0
C2512 C 0.75107 0.85181 0.27549 0.0
C2513 C 0.75485 0.86556 0.26869 0.0
C2514 C 0.76208 0.87241 0.23292 0.0
H2515 H 0.79766 0.90336 0.17104 0.0
H2516 H 0.78337 0.90165 0.2002 0.0
H2517 H 0.79011 0.89031 0.21102 0.0
H2518 H 0.76678 0.84719 0.19109 0.0
H2519 H 0.7532 0.83483 0.253 0.0
H2520 H 0.07657 0.84421 0.00791 0.0
H2521 H 0.09126 0.85973 0.06221 0.0
H2522 H 0.12677 0.87137 0.9845 0.0
H2523 H 0.11209 0.8553 0.93052 0.0
H2524 H 0.13068 0.86342 0.05468 0.0
H2525 H 0.11194 0.89891 0.0924 0.0
H2526 H 0.09782 0.88169 0.09377 0.0
H2527 H 0.10681 0.88872 0.04512 0.0
C2528 C 0.08745 0.85038 1.00164 0.0
C2529 C 0.09314 0.84837 0.96491 0.0
C2530 C 0.09589 0.8594 0.03281 0.0
C2531 C 0.11019 0.86689 0.0276 0.0
C2532 C 0.11578 0.86574 0.98941 0.0
H2533 H 0.16463 0.91061 0.24324 0.0
H2534 H 0.15227 0.90732 0.17663 0.0
C2535 C 0.10736 0.85655 0.95845 0.0
C2536 C 0.11927 0.87393 0.06423 0.0
H2537 H 0.12282 0.89353 0.15054 0.0
C2538 C 0.12914 0.87028 0.07493 0.0
C2539 C 0.1175 0.88304 0.09082 0.0
C2540 C 0.10804 0.88842 0.07958 0.0
C2541 C 0.13656 0.87469 0.11247 0.0
C2542 C 0.1338 0.88267 0.14084 0.0
C2543 C 0.12468 0.88715 0.12912 0.0
C2544 C 0.13956 0.88533 0.18388 0.0
C2545 C 0.14703 0.87041 0.12206 0.0
C2546 C 0.136 0.87417 0.21076 0.0
C2547 C 0.14303 0.87599 0.24833 0.0
C2548 C 0.15367 0.88905 0.26012 0.0
C2549 C 0.15643 0.90044 0.23499 0.0
C2550 C 0.14943 0.89857 0.19692 0.0
H2551 H 0.15078 0.86793 0.09299 0.0
H2552 H 0.15595 0.87861 0.13925 0.0
H2553 H 0.14224 0.86108 0.14202 0.0
H2554 H 0.12824 0.8639 0.20157 0.0
H2555 H 0.14059 0.86705 0.26723 0.0
H2556 H 0.15898 0.27798 0.98526 0.0
H2557 H 0.14353 0.27823 0.03815 0.0
H2558 H 0.11997 0.23402 0.03445 0.0
H2559 H 0.13515 0.23389 0.97921 0.0
H2560 H 0.11243 0.26475 0.04269 0.0
H2561 H 0.13706 0.24601 0.15665 0.0
H2562 H 0.14498 0.25349 0.107 0.0
H2563 H 0.13015 0.23667 0.10855 0.0
C2564 C 0.14997 0.26844 0.99337 0.0
C2565 C 0.14788 0.25604 0.97653 0.0
C2566 C 0.14132 0.26852 0.02442 0.0
C2567 C 0.13061 0.25615 0.04004 0.0
C2568 C 0.12817 0.24368 0.02256 0.0
H2569 H 0.09148 0.25605 0.27909 0.0
H2570 H 0.09752 0.24756 0.21664 0.0
C2571 C 0.13678 0.24363 0.991 0.0
C2572 C 0.12309 0.25652 0.07743 0.0
H2573 H 0.12305 0.25405 0.18412 0.0
C2574 C 0.11452 0.26218 0.07357 0.0
C2575 C 0.12582 0.25307 0.11756 0.0
C2576 C 0.13503 0.24701 0.1231 0.0
C2577 C 0.10905 0.26503 0.1091 0.0
C2578 C 0.11259 0.26252 0.1494 0.0
C2579 C 0.12048 0.25609 0.15315 0.0
C2580 C 0.10917 0.26756 0.18776 0.0
C2581 C 0.09974 0.27097 0.10322 0.0
C2582 C 0.11409 0.28166 0.1927 0.0
C2583 C 0.11067 0.28655 0.22817 0.0
C2584 C 0.10235 0.27744 0.25967 0.0
C2585 C 0.09785 0.26335 0.25535 0.0
C2586 C 0.10126 0.25846 0.21969 0.0
H2587 H 0.09455 0.26811 0.07222 0.0
H2588 H 0.09182 0.26742 0.12817 0.0
H2589 H 0.10594 0.28233 0.10459 0.0
H2590 H 0.12053 0.28889 0.16892 0.0
H2591 H 0.11444 0.29746 0.23059 0.0
H2592 H 0.24134 0.43266 0.2745 0.0
H2593 H 0.22803 0.43601 0.2199 0.0
H2594 H 0.1972 0.39323 0.22747 0.0
H2595 H 0.21047 0.38976 0.28215 0.0
H2596 H 0.2134 0.40643 0.14413 0.0
H2597 H 0.18699 0.43193 0.21707 0.0
H2598 H 0.20409 0.43654 0.23382 0.0
H2599 H 0.19002 0.41985 0.24588 0.0
C2600 C 0.23154 0.42401 0.26545 0.0
C2601 C 0.22697 0.41089 0.28276 0.0
C2602 C 0.22394 0.42599 0.2343 0.0
C2603 C 0.21162 0.4149 0.2199 0.0
C2604 C 0.20663 0.40195 0.23856 0.0
H2605 H 0.15154 0.39829 0.03545 0.0
H2606 H 0.16488 0.40579 0.10006 0.0
C2607 C 0.2142 0.39999 0.26993 0.0
C2608 C 0.20502 0.41634 0.18154 0.0
H2609 H 0.18409 0.42782 0.14426 0.0
C2610 C 0.20705 0.41117 0.14397 0.0
C2611 C 0.19681 0.42256 0.18172 0.0
C2612 C 0.19424 0.42805 0.22168 0.0
C2613 C 0.2008 0.41174 0.10653 0.0
C2614 C 0.19251 0.41796 0.10645 0.0
C2615 C 0.19063 0.4233 0.14413 0.0
C2616 C 0.18446 0.41741 0.06876 0.0
C2617 C 0.20267 0.40506 0.06794 0.0
C2618 C 0.19087 0.42248 0.0298 0.0
C2619 C 0.1832 0.4181 0.99266 0.0
C2620 C 0.16902 0.40893 0.9943 0.0
C2621 C 0.16243 0.40558 0.03344 0.0
C2622 C 0.17009 0.40975 0.07043 0.0
H2623 H 0.20686 0.39823 0.07572 0.0
H2624 H 0.1928 0.39891 0.05114 0.0
H2625 H 0.21001 0.41313 0.04636 0.0
H2626 H 0.20192 0.42873 0.02788 0.0
H2627 H 0.18854 0.42061 0.96288 0.0
H2628 H 0.56901 0.74313 0.01147 0.0
H2629 H 0.55648 0.74374 0.07396 0.0
H2630 H 0.5664 0.785 0.04157 0.0
H2631 H 0.57795 0.78403 0.97913 0.0
H2632 H 0.56723 0.75829 0.13703 0.0
H2633 H 0.53055 0.77366 0.08797 0.0
H2634 H 0.53782 0.76713 0.05034 0.0
H2635 H 0.54608 0.78532 0.06169 0.0
C2636 C 0.56779 0.75197 0.01676 0.0
C2637 C 0.57438 0.76351 0.99056 0.0
C2638 C 0.56078 0.7524 0.05266 0.0
C2639 C 0.56026 0.76436 0.06256 0.0
C2640 C 0.56608 0.77544 0.03441 0.0
H2641 H 0.58724 0.81137 0.27539 0.0
H2642 H 0.58109 0.794 0.22193 0.0
C2643 C 0.57286 0.77494 0.99869 0.0
C2644 C 0.55607 0.76656 0.10488 0.0
H2645 H 0.54458 0.78617 0.15137 0.0
C2646 C 0.56184 0.76397 0.14035 0.0
C2647 C 0.54858 0.77349 0.11031 0.0
C2648 C 0.54029 0.77486 0.07541 0.0
C2649 C 0.5617 0.7695 0.17972 0.0
C2650 C 0.55636 0.77852 0.18325 0.0
C2651 C 0.54917 0.77972 0.14895 0.0
C2652 C 0.55955 0.78802 0.21966 0.0
C2653 C 0.56756 0.76574 0.21664 0.0
C2654 C 0.54971 0.79109 0.23569 0.0
C2655 C 0.55344 0.80165 0.26509 0.0
C2656 C 0.56698 0.80907 0.27993 0.0
C2657 C 0.57664 0.80562 0.26529 0.0
C2658 C 0.57306 0.79549 0.2349 0.0
H2659 H 0.56486 0.75481 0.2146 0.0
H2660 H 0.57892 0.772 0.21591 0.0
H2661 H 0.56376 0.76736 0.24698 0.0
H2662 H 0.53923 0.78561 0.22449 0.0
H2663 H 0.54582 0.80416 0.27569 0.0
H2664 H 0.16824 0.77976 0.25892 0.0
H2665 H 0.18571 0.79268 0.20588 0.0
H2666 H 0.21111 0.7774 0.2563 0.0
H2667 H 0.19334 0.7639 0.30795 0.0
H2668 H 0.212 0.8117 0.20039 0.0
H2669 H 0.20549 0.7624 0.14025 0.0
H2670 H 0.19471 0.76305 0.18081 0.0
H2671 H 0.21172 0.76638 0.19306 0.0
C2672 C 0.1777 0.77944 0.25937 0.0
C2673 C 0.17937 0.77071 0.28718 0.0
C2674 C 0.18767 0.78678 0.22891 0.0
C2675 C 0.19954 0.78564 0.22618 0.0
C2676 C 0.20183 0.77804 0.25678 0.0
H2677 H 0.24903 0.83441 0.0113 0.0
H2678 H 0.24669 0.82444 0.08151 0.0
C2679 C 0.19174 0.77047 0.28659 0.0
C2680 C 0.20878 0.79145 0.1893 0.0
H2681 H 0.22008 0.78223 0.10253 0.0
C2682 C 0.21394 0.80532 0.17922 0.0
C2683 C 0.21126 0.78306 0.16162 0.0
C2684 C 0.20542 0.76788 0.16916 0.0
C2685 C 0.22077 0.81085 0.14116 0.0
C2686 C 0.22293 0.80236 0.11299 0.0
C2687 C 0.21856 0.78874 0.12437 0.0
C2688 C 0.22697 0.80648 0.06868 0.0
C2689 C 0.22462 0.82542 0.13022 0.0
C2690 C 0.21747 0.79896 0.03708 0.0
C2691 C 0.219 0.80443 0.99699 0.0
C2692 C 0.23003 0.81751 0.98782 0.0
C2693 C 0.24051 0.82422 0.01758 0.0
C2694 C 0.23902 0.81867 0.05792 0.0
H2695 H 0.22023 0.82976 0.1526 0.0
H2696 H 0.23594 0.83202 0.13094 0.0
H2697 H 0.221 0.82591 0.09821 0.0
H2698 H 0.20815 0.78948 0.04439 0.0
H2699 H 0.21074 0.79914 0.97457 0.0
H2700 H 0.58201 0.77939 0.81475 0.0
H2701 H 0.57858 0.79378 0.76421 0.0
H2702 H 0.55125 0.75771 0.69295 0.0
H2703 H 0.55434 0.74331 0.74358 0.0
H2704 H 0.58619 0.79682 0.68582 0.0
H2705 H 0.53064 0.77781 0.6859 0.0
H2706 H 0.53888 0.77361 0.72728 0.0
H2707 H 0.53366 0.76373 0.67942 0.0
C2708 C 0.57499 0.77449 0.7889 0.0
C2709 C 0.56848 0.76018 0.78321 0.0
C2710 C 0.57303 0.78274 0.76003 0.0
C2711 C 0.56448 0.77684 0.72504 0.0
C2712 C 0.55755 0.76251 0.7203 0.0
H2713 H 0.55965 0.78956 0.4741 0.0
H2714 H 0.55472 0.78261 0.5474 0.0
C2715 C 0.55942 0.75426 0.74924 0.0
C2716 C 0.56415 0.78559 0.69059 0.0
H2717 H 0.54255 0.78791 0.62002 0.0
C2718 C 0.57666 0.79518 0.67216 0.0
C2719 C 0.55173 0.78351 0.67279 0.0
C2720 C 0.538 0.7742 0.69276 0.0
C2721 C 0.57704 0.80186 0.63459 0.0
C2722 C 0.56456 0.79896 0.61516 0.0
C2723 C 0.55209 0.79007 0.63495 0.0
C2724 C 0.56432 0.80334 0.57154 0.0
C2725 C 0.59077 0.8112 0.61441 0.0
C2726 C 0.57049 0.81728 0.56074 0.0
C2727 C 0.57324 0.82129 0.51866 0.0
C2728 C 0.56991 0.81139 0.48705 0.0
C2729 C 0.56235 0.79741 0.49778 0.0
C2730 C 0.55957 0.79342 0.53969 0.0
H2731 H 0.59935 0.81101 0.63107 0.0
H2732 H 0.59075 0.8082 0.58124 0.0
H2733 H 0.59277 0.82191 0.61466 0.0
H2734 H 0.57406 0.82506 0.58494 0.0
H2735 H 0.57915 0.83215 0.51145 0.0
H2736 H 0.17469 0.76659 0.45962 0.0
H2737 H 0.1905 0.77261 0.51911 0.0
H2738 H 0.16363 0.78073 0.59469 0.0
H2739 H 0.14787 0.77493 0.53551 0.0
H2740 H 0.2019 0.80022 0.56407 0.0
H2741 H 0.17338 0.75424 0.66558 0.0
H2742 H 0.1712 0.75368 0.60929 0.0
H2743 H 0.16359 0.76111 0.64165 0.0
C2744 C 0.1721 0.76956 0.48899 0.0
C2745 C 0.16005 0.77034 0.49282 0.0
C2746 C 0.18112 0.77296 0.52288 0.0
C2747 C 0.17811 0.77694 0.56124 0.0
C2748 C 0.16602 0.77751 0.56539 0.0
H2749 H 0.2126 0.8109 0.79776 0.0
H2750 H 0.19801 0.79679 0.74038 0.0
C2751 C 0.15708 0.77429 0.53146 0.0
C2752 C 0.18805 0.78154 0.59616 0.0
H2753 H 0.19231 0.77375 0.69649 0.0
C2754 C 0.19997 0.79438 0.59284 0.0
C2755 C 0.18534 0.77388 0.63355 0.0
C2756 C 0.17274 0.75991 0.63793 0.0
C2757 C 0.209 0.80011 0.62679 0.0
C2758 C 0.20624 0.79254 0.66463 0.0
C2759 C 0.19448 0.77948 0.66742 0.0
C2760 C 0.2148 0.79862 0.70256 0.0
C2761 C 0.22098 0.81454 0.62249 0.0
C2762 C 0.22898 0.80361 0.70158 0.0
C2763 C 0.23738 0.81196 0.73394 0.0
C2764 C 0.23168 0.81527 0.76815 0.0
C2765 C 0.21733 0.80887 0.77133 0.0
C2766 C 0.20896 0.80072 0.73863 0.0
H2767 H 0.21975 0.82001 0.59528 0.0
H2768 H 0.22223 0.82063 0.65123 0.0
H2769 H 0.23053 0.81414 0.61767 0.0
H2770 H 0.23365 0.80172 0.67464 0.0
H2771 H 0.24838 0.8165 0.73081 0.0
H2772 H 0.22944 0.41346 0.46346 0.0
H2773 H 0.22587 0.42516 0.5234 0.0
H2774 H 0.21489 0.38972 0.60096 0.0
H2775 H 0.2183 0.37808 0.54202 0.0
H2776 H 0.19959 0.41324 0.56678 0.0
H2777 H 0.24181 0.42246 0.67494 0.0
H2778 H 0.24262 0.42026 0.61905 0.0
H2779 H 0.23339 0.40556 0.65253 0.0
C2780 C 0.22649 0.40831 0.49354 0.0
C2781 C 0.22402 0.39483 0.49803 0.0
C2782 C 0.22447 0.41498 0.52763 0.0
C2783 C 0.22032 0.40836 0.56667 0.0
C2784 C 0.21834 0.39511 0.57135 0.0
H2785 H 0.17986 0.39756 0.79154 0.0
H2786 H 0.19623 0.40092 0.73635 0.0
C2787 C 0.22016 0.38842 0.53745 0.0
C2788 C 0.21644 0.41433 0.60169 0.0
H2789 H 0.22137 0.42043 0.70683 0.0
C2790 C 0.20455 0.41525 0.5972 0.0
C2791 C 0.2229 0.41678 0.64125 0.0
C2792 C 0.23597 0.41634 0.64724 0.0
C2793 C 0.19826 0.41742 0.63203 0.0
C2794 C 0.20433 0.41915 0.67223 0.0
C2795 C 0.21675 0.41913 0.67611 0.0
C2796 C 0.19696 0.41912 0.71084 0.0
C2797 C 0.18461 0.41671 0.62586 0.0
C2798 C 0.19258 0.42871 0.71653 0.0
C2799 C 0.18302 0.42666 0.74773 0.0
C2800 C 0.1779 0.41513 0.77427 0.0
C2801 C 0.18351 0.40646 0.77148 0.0
C2802 C 0.19289 0.40839 0.73987 0.0
H2803 H 0.18011 0.41258 0.59454 0.0
H2804 H 0.17715 0.41014 0.65018 0.0
H2805 H 0.18603 0.42717 0.62849 0.0
H2806 H 0.19592 0.43731 0.69527 0.0
H2807 H 0.17906 0.43366 0.74947 0.0
H2808 H 0.10761 0.2768 0.48372 0.0
H2809 H 0.12124 0.27484 0.54015 0.0
H2810 H 0.10249 0.23136 0.51734 0.0
H2811 H 0.08902 0.23323 0.46031 0.0
H2812 H 0.1083 0.25782 0.61066 0.0
H2813 H 0.14356 0.24374 0.53125 0.0
H2814 H 0.13513 0.25147 0.50345 0.0
H2815 H 0.12567 0.2337 0.51815 0.0
C2816 C 0.10671 0.2669 0.4897 0.0
C2817 C 0.09723 0.25518 0.46742 0.0
C2818 C 0.11442 0.26577 0.52221 0.0
C2819 C 0.11288 0.25296 0.53279 0.0
C2820 C 0.10396 0.24136 0.50932 0.0
H2821 H 0.14404 0.24941 0.78476 0.0
H2822 H 0.12857 0.24027 0.72377 0.0
C2823 C 0.09623 0.24247 0.47683 0.0
C2824 C 0.11965 0.2516 0.57085 0.0
H2825 H 0.14471 0.2453 0.6049 0.0
C2826 C 0.11618 0.25495 0.60956 0.0
C2827 C 0.12974 0.24765 0.56918 0.0
C2828 C 0.13386 0.244 0.52832 0.0
C2829 C 0.12307 0.25521 0.64646 0.0
C2830 C 0.13358 0.25181 0.6446 0.0
C2831 C 0.13655 0.24776 0.60621 0.0
C2832 C 0.14324 0.255 0.67993 0.0
C2833 C 0.11962 0.25993 0.6866 0.0
C2834 C 0.15675 0.26572 0.67483 0.0
C2835 C 0.16547 0.27088 0.70917 0.0
C2836 C 0.1609 0.26539 0.74938 0.0
C2837 C 0.14775 0.25388 0.7541 0.0
C2838 C 0.13892 0.24872 0.71943 0.0
H2839 H 0.11243 0.26386 0.68133 0.0
H2840 H 0.11474 0.25119 0.70886 0.0
H2841 H 0.12907 0.26817 0.70156 0.0
H2842 H 0.16032 0.27067 0.64462 0.0
H2843 H 0.17566 0.27959 0.70449 0.0
H2844 H 0.76855 0.8927 0.79194 0.0
H2845 H 0.77331 0.89088 0.71863 0.0
H2846 H 0.75385 0.91406 0.68274 0.0
H2847 H 0.74889 0.91579 0.7563 0.0
H2848 H 0.74091 0.88857 0.65129 0.0
H2849 H 0.79606 0.91114 0.61851 0.0
H2850 H 0.79162 0.90112 0.66558 0.0
H2851 H 0.7898 0.91615 0.66344 0.0
C2852 C 0.7659 0.89802 0.76867 0.0
C2853 C 0.7582 0.90423 0.77989 0.0
C2854 C 0.76868 0.89701 0.72661 0.0
C2855 C 0.76393 0.90233 0.69509 0.0
C2856 C 0.75765 0.90993 0.70658 0.0
H2857 H 0.7417 0.8602 0.45019 0.0
H2858 H 0.74792 0.87908 0.49954 0.0
C2859 C 0.75491 0.91099 0.74877 0.0
C2860 C 0.76286 0.89731 0.6515 0.0
H2861 H 0.78068 0.89051 0.57809 0.0
C2862 C 0.74965 0.88935 0.63451 0.0
C2863 C 0.77425 0.89828 0.62979 0.0
C2864 C 0.78873 0.90726 0.64517 0.0
C2865 C 0.7474 0.8814 0.5984 0.0
C2866 C 0.75872 0.88161 0.5784 0.0
C2867 C 0.77202 0.89032 0.59364 0.0
C2868 C 0.75673 0.87153 0.54542 0.0
C2869 C 0.73284 0.87203 0.58392 0.0
C2870 C 0.7602 0.86142 0.55404 0.0
C2871 C 0.75669 0.85065 0.526 0.0
C2872 C 0.74961 0.84979 0.48876 0.0
C2873 C 0.74692 0.86042 0.47896 0.0
C2874 C 0.75046 0.87122 0.50709 0.0
H2875 H 0.72517 0.87152 0.60684 0.0
H2876 H 0.73112 0.87586 0.55375 0.0
H2877 H 0.73096 0.86146 0.57866 0.0
H2878 H 0.76508 0.8615 0.58344 0.0
H2879 H 0.75901 0.84271 0.53448 0.0
H2880 H 0.07856 0.82337 0.71937 0.0
H2881 H 0.08125 0.83327 0.64902 0.0
H2882 H 0.1097 0.87329 0.69832 0.0
H2883 H 0.10709 0.86343 0.76826 0.0
H2884 H 0.09258 0.87255 0.62505 0.0
H2885 H 0.12049 0.84362 0.60429 0.0
H2886 H 0.1028 0.83426 0.62025 0.0
H2887 H 0.1155 0.84642 0.65544 0.0
C2888 C 0.08468 0.8344 0.71557 0.0
C2889 C 0.09253 0.84268 0.74915 0.0
C2890 C 0.08638 0.84002 0.67528 0.0
C2891 C 0.09587 0.85396 0.66843 0.0
C2892 C 0.10233 0.86251 0.70295 0.0
H2893 H 0.15104 0.91556 0.50902 0.0
H2894 H 0.13272 0.90111 0.55676 0.0
C2895 C 0.10073 0.8569 0.74301 0.0
C2896 C 0.10114 0.85922 0.62583 0.0
H2897 H 0.124 0.86007 0.55395 0.0
C2898 C 0.09921 0.86964 0.6089 0.0
C2899 C 0.10977 0.85537 0.6048 0.0
C2900 C 0.11238 0.84436 0.62199 0.0
C2901 C 0.10611 0.87668 0.57231 0.0
C2902 C 0.11555 0.87353 0.55299 0.0
C2903 C 0.11681 0.86254 0.56861 0.0
C2904 C 0.12549 0.8825 0.52037 0.0
C2905 C 0.10332 0.88757 0.55528 0.0
C2906 C 0.12785 0.87691 0.48395 0.0
C2907 C 0.13862 0.88521 0.45659 0.0
C2908 C 0.14728 0.89924 0.46531 0.0
C2909 C 0.14453 0.90485 0.50093 0.0
C2910 C 0.13391 0.89658 0.52828 0.0
H2911 H 0.09255 0.88487 0.56151 0.0
H2912 H 0.11007 0.89744 0.57142 0.0
H2913 H 0.10523 0.88903 0.52101 0.0
H2914 H 0.12158 0.86606 0.47727 0.0
H2915 H 0.14036 0.88058 0.42926 0.0
H2916 H 0.40887 0.16164 0.55464 0.0
H2917 H 0.41955 0.17338 0.48867 0.0
H2918 H 0.43162 0.21239 0.5469 0.0
H2919 H 0.4209 0.20069 0.61233 0.0
H2920 H 0.40811 0.18796 0.45287 0.0
H2921 H 0.46415 0.22194 0.46925 0.0
H2922 H 0.45435 0.20734 0.50315 0.0
H2923 H 0.45474 0.2233 0.51258 0.0
C2924 C 0.41455 0.17277 0.55392 0.0
C2925 C 0.41435 0.18033 0.58861 0.0
C2926 C 0.42052 0.17945 0.51615 0.0
C2927 C 0.4265 0.19378 0.51293 0.0
C2928 C 0.42739 0.20139 0.54884 0.0
H2929 H 0.43885 0.25818 0.3534 0.0
H2930 H 0.44046 0.24322 0.40559 0.0
C2931 C 0.4213 0.1947 0.58632 0.0
C2932 C 0.42922 0.20052 0.47127 0.0
H2933 H 0.45297 0.2285 0.41687 0.0
C2934 C 0.418 0.19661 0.44433 0.0
C2935 C 0.44207 0.21189 0.4606 0.0
C2936 C 0.45455 0.2163 0.48777 0.0
C2937 C 0.41903 0.20432 0.40849 0.0
C2938 C 0.4318 0.21606 0.39856 0.0
C2939 C 0.4432 0.21952 0.42439 0.0
C2940 C 0.43311 0.22565 0.36436 0.0
C2941 C 0.40616 0.20034 0.38349 0.0
C2942 C 0.42918 0.22102 0.32305 0.0
C2943 C 0.42807 0.22953 0.29313 0.0
C2944 C 0.43115 0.24293 0.30379 0.0
C2945 C 0.43639 0.24794 0.34401 0.0
C2946 C 0.43729 0.23936 0.37403 0.0
H2947 H 0.39674 0.1931 0.40094 0.0
H2948 H 0.40541 0.20952 0.37506 0.0
H2949 H 0.40639 0.19519 0.3541 0.0
H2950 H 0.42633 0.21062 0.31446 0.0
H2951 H 0.4241 0.22536 0.26235 0.0
H2952 H 0.78498 0.22029 0.59786 0.0
H2953 H 0.77977 0.2192 0.52386 0.0
H2954 H 0.82145 0.25083 0.49867 0.0
H2955 H 0.82702 0.25116 0.57312 0.0
H2956 H 0.77949 0.23187 0.45901 0.0
H2957 H 0.82213 0.22075 0.43793 0.0
H2958 H 0.81716 0.22349 0.48895 0.0
H2959 H 0.82709 0.23782 0.45459 0.0
C2960 C 0.79296 0.22735 0.57683 0.0
C2961 C 0.80651 0.23544 0.5911 0.0
C2962 C 0.78997 0.22672 0.53426 0.0
C2963 C 0.8004 0.23441 0.50516 0.0
C2964 C 0.8134 0.24428 0.52023 0.0
H2965 H 0.76353 0.19929 0.25849 0.0
H2966 H 0.77636 0.21779 0.30921 0.0
C2967 C 0.8165 0.24468 0.56301 0.0
C2968 C 0.79782 0.23041 0.46009 0.0
H2969 H 0.80682 0.21534 0.38296 0.0
C2970 C 0.78556 0.22841 0.44207 0.0
C2971 C 0.80575 0.22587 0.43792 0.0
C2972 C 0.8187 0.22697 0.45581 0.0
C2973 C 0.78029 0.22082 0.40499 0.0
C2974 C 0.78799 0.21585 0.38361 0.0
C2975 C 0.80089 0.21905 0.39946 0.0
C2976 C 0.78212 0.20577 0.34856 0.0
C2977 C 0.76603 0.21727 0.39147 0.0
C2978 C 0.78201 0.19323 0.35172 0.0
C2979 C 0.77524 0.18294 0.32182 0.0
C2980 C 0.76827 0.18488 0.28846 0.0
C2981 C 0.76884 0.19758 0.28408 0.0
C2982 C 0.776 0.20807 0.31337 0.0
H2983 H 0.76035 0.21903 0.41691 0.0
H2984 H 0.76674 0.22385 0.36457 0.0
H2985 H 0.75994 0.20636 0.3817 0.0
H2986 H 0.78664 0.19113 0.3784 0.0
H2987 H 0.77476 0.17316 0.32624 0.0
H2988 H 0.81098 0.55748 0.33393 0.0
H2989 H 0.79717 0.55737 0.39323 0.0
H2990 H 0.79186 0.58877 0.33312 0.0
H2991 H 0.8053 0.58874 0.27358 0.0
H2992 H 0.80589 0.57955 0.44191 0.0
H2993 H 0.75438 0.56534 0.38285 0.0
H2994 H 0.76605 0.5619 0.3535 0.0
H2995 H 0.76743 0.57856 0.35107 0.0
C2996 C 0.80643 0.56399 0.33256 0.0
C2997 C 0.80935 0.57319 0.29902 0.0
C2998 C 0.79858 0.56395 0.36663 0.0
C2999 C 0.7934 0.57301 0.36761 0.0
C3000 C 0.79547 0.58147 0.3328 0.0
H3001 H 0.78169 0.62167 0.54362 0.0
H3002 H 0.78634 0.6105 0.48534 0.0
C3003 C 0.80326 0.58148 0.29873 0.0
C3004 C 0.78775 0.57521 0.40701 0.0
H3005 H 0.76191 0.57969 0.44529 0.0
C3006 C 0.79611 0.57924 0.44292 0.0
C3007 C 0.77499 0.57482 0.40844 0.0
C3008 C 0.76515 0.56977 0.37197 0.0
C3009 C 0.79244 0.58366 0.47923 0.0
C3010 C 0.78013 0.5841 0.47957 0.0
C3011 C 0.77141 0.57943 0.44463 0.0
C3012 C 0.77681 0.59049 0.51461 0.0
C3013 C 0.80198 0.58846 0.51647 0.0
C3014 C 0.76984 0.58285 0.55012 0.0
C3015 C 0.76712 0.58919 0.58357 0.0
C3016 C 0.77141 0.60329 0.58199 0.0
C3017 C 0.77832 0.61084 0.54604 0.0
C3018 C 0.78095 0.60447 0.51264 0.0
H3019 H 0.81097 0.58703 0.51179 0.0
H3020 H 0.80572 0.59951 0.52224 0.0
H3021 H 0.79636 0.58273 0.54493 0.0
H3022 H 0.76661 0.57203 0.55205 0.0
H3023 H 0.76182 0.58309 0.61082 0.0
H3024 H 0.87734 0.72981 0.60042 0.0
H3025 H 0.86472 0.73423 0.54666 0.0
H3026 H 0.89295 0.77778 0.5573 0.0
H3027 H 0.90634 0.77324 0.60897 0.0
H3028 H 0.85115 0.74615 0.53787 0.0
H3029 H 0.89708 0.77426 0.43685 0.0
H3030 H 0.89746 0.76602 0.48476 0.0
H3031 H 0.89861 0.78259 0.48603 0.0
C3032 C 0.88079 0.74036 0.59172 0.0
C3033 C 0.89293 0.75117 0.60851 0.0
C3034 C 0.87355 0.7429 0.56085 0.0
C3035 C 0.87808 0.75634 0.54672 0.0
C3036 C 0.88955 0.76728 0.56621 0.0
H3037 H 0.8195 0.75266 0.35621 0.0
H3038 H 0.834 0.76159 0.41894 0.0
C3039 C 0.89709 0.7647 0.59619 0.0
C3040 C 0.87108 0.75855 0.51029 0.0
H3041 H 0.87645 0.77174 0.41109 0.0
C3042 C 0.85669 0.75178 0.51014 0.0
C3043 C 0.87829 0.76584 0.47391 0.0
C3044 C 0.89369 0.77247 0.4701 0.0
C3045 C 0.84928 0.75128 0.4741 0.0
C3046 C 0.85648 0.75865 0.43773 0.0
C3047 C 0.87089 0.76617 0.43886 0.0
C3048 C 0.84948 0.75704 0.3966 0.0
C3049 C 0.83389 0.74199 0.47482 0.0
C3050 C 0.85415 0.75314 0.36116 0.0
C3051 C 0.84636 0.74897 0.32448 0.0
C3052 C 0.83358 0.74827 0.32287 0.0
C3053 C 0.8294 0.75323 0.35676 0.0
C3054 C 0.83753 0.75801 0.39293 0.0
H3055 H 0.83053 0.73451 0.50111 0.0
H3056 H 0.8289 0.74826 0.47912 0.0
H3057 H 0.83014 0.73611 0.44515 0.0
H3058 H 0.86333 0.75233 0.36271 0.0
H3059 H 0.84966 0.74492 0.299 0.0
H3060 H 0.24549 0.07988 0.34954 0.0
H3061 H 0.23877 0.08165 0.4213 0.0
H3062 H 0.22303 0.10737 0.37728 0.0
H3063 H 0.22989 0.10575 0.30602 0.0
H3064 H 0.2527 0.10848 0.45099 0.0
H3065 H 0.19702 0.0868 0.47449 0.0
H3066 H 0.20396 0.0808 0.43389 0.0
H3067 H 0.20291 0.0961 0.42611 0.0
C3068 C 0.23975 0.08512 0.35484 0.0
C3069 C 0.23805 0.09257 0.32232 0.0
C3070 C 0.23605 0.08626 0.39594 0.0
C3071 C 0.23036 0.09461 0.40468 0.0
C3072 C 0.22714 0.10064 0.37129 0.0
H3073 H 0.23185 0.15337 0.56505 0.0
H3074 H 0.22593 0.13441 0.51695 0.0
C3075 C 0.23101 0.09967 0.33043 0.0
C3076 C 0.2308 0.09975 0.44781 0.0
H3077 H 0.21196 0.10646 0.51766 0.0
C3078 C 0.24375 0.10772 0.46635 0.0
C3079 C 0.21914 0.09886 0.4674 0.0
C3080 C 0.20495 0.09006 0.44962 0.0
C3081 C 0.24552 0.1157 0.5021 0.0
C3082 C 0.23391 0.11538 0.52059 0.0
C3083 C 0.22084 0.10671 0.50353 0.0
C3084 C 0.23541 0.12526 0.55395 0.0
C3085 C 0.25993 0.12521 0.5176 0.0
C3086 C 0.24212 0.12607 0.5919 0.0
C3087 C 0.24568 0.13705 0.6194 0.0
C3088 C 0.24243 0.14731 0.60965 0.0
C3089 C 0.23463 0.14575 0.57346 0.0
C3090 C 0.2312 0.13486 0.54587 0.0
H3091 H 0.26781 0.12625 0.49464 0.0
H3092 H 0.26151 0.1356 0.52414 0.0
H3093 H 0.26166 0.12107 0.54713 0.0
H3094 H 0.24514 0.11856 0.59936 0.0
H3095 H 0.25155 0.13782 0.64722 0.0
H3096 H 0.85369 0.11692 0.62387 0.0
H3097 H 0.87042 0.12851 0.56779 0.0
H3098 H 0.86711 0.08998 0.53267 0.0
H3099 H 0.8504 0.07838 0.58867 0.0
H3100 H 0.89674 0.12782 0.53128 0.0
H3101 H 0.84808 0.10324 0.43961 0.0
H3102 H 0.84843 0.10596 0.49545 0.0
H3103 H 0.85076 0.09239 0.47524 0.0
C3104 C 0.85702 0.11107 0.60558 0.0
C3105 C 0.85066 0.09676 0.61058 0.0
C3106 C 0.86656 0.11768 0.57342 0.0
C3107 C 0.86993 0.11006 0.54604 0.0
C3108 C 0.86466 0.09603 0.55361 0.0
H3109 H 0.88895 0.12224 0.28376 0.0
H3110 H 0.88637 0.11324 0.35504 0.0
C3111 C 0.85507 0.08941 0.58554 0.0
C3112 C 0.87647 0.11597 0.50524 0.0
H3113 H 0.8685 0.11553 0.40198 0.0
C3114 C 0.89065 0.12513 0.50286 0.0
C3115 C 0.86842 0.11251 0.46844 0.0
C3116 C 0.85306 0.10307 0.46952 0.0
C3117 C 0.89704 0.13072 0.46411 0.0
C3118 C 0.88895 0.12715 0.42722 0.0
C3119 C 0.87476 0.11808 0.43005 0.0
C3120 C 0.89455 0.13304 0.38526 0.0
C3121 C 0.91235 0.14019 0.46297 0.0
C3122 C 0.90085 0.14726 0.3784 0.0
C3123 C 0.9027 0.15244 0.33755 0.0
C3124 C 0.89793 0.14345 0.30303 0.0
C3125 C 0.89276 0.12938 0.30979 0.0
C3126 C 0.89122 0.12424 0.35053 0.0
H3127 H 0.91746 0.13838 0.49007 0.0
H3128 H 0.91685 0.13892 0.43352 0.0
H3129 H 0.91461 0.15098 0.46471 0.0
H3130 H 0.90324 0.15425 0.40447 0.0
H3131 H 0.90651 0.16332 0.33335 0.0
H3132 H 0.2592 0.17164 0.87311 0.0
H3133 H 0.24797 0.15788 0.93504 0.0
H3134 H 0.22037 0.12424 0.85579 0.0
H3135 H 0.23215 0.1379 0.79354 0.0
H3136 H 0.22383 0.14185 0.97487 0.0
H3137 H 0.24387 0.11 0.90536 0.0
H3138 H 0.24741 0.12614 0.88293 0.0
H3139 H 0.23109 0.11092 0.87413 0.0
C3140 C 0.25024 0.16158 0.86892 0.0
C3141 C 0.24652 0.1558 0.82871 0.0
C3142 C 0.24389 0.15366 0.90439 0.0
C3143 C 0.23367 0.13985 0.90005 0.0
C3144 C 0.22852 0.13476 0.85979 0.0
H3145 H 0.21562 0.07463 0.07976 0.0
H3146 H 0.21184 0.0877 0.02537 0.0
C3147 C 0.23505 0.14265 0.8242 0.0
C3148 C 0.23038 0.13045 0.93645 0.0
H3149 H 0.23403 0.10377 0.97179 0.0
C3150 C 0.22586 0.13339 0.97406 0.0
C3151 C 0.23335 0.11959 0.9357 0.0
C3152 C 0.23932 0.11652 0.89757 0.0
C3153 C 0.22432 0.12584 0.01086 0.0
C3154 C 0.22736 0.11507 0.00995 0.0
C3155 C 0.23152 0.11191 0.9722 0.0
C3156 C 0.22745 0.10755 0.04809 0.0
C3157 C 0.21966 0.12954 0.05053 0.0
C3158 C 0.23723 0.1144 0.07964 0.0
C3159 C 0.23945 0.10696 0.11079 0.0
C3160 C 0.23199 0.09249 0.11076 0.0
C3161 C 0.22155 0.08573 0.08079 0.0
C3162 C 0.21936 0.09319 0.04964 0.0
H3163 H 0.21434 0.13541 0.0438 0.0
H3164 H 0.21268 0.1202 0.06875 0.0
H3165 H 0.22875 0.13606 0.07033 0.0
H3166 H 0.24379 0.12545 0.07858 0.0
H3167 H 0.24762 0.11253 0.13322 0.0
H3168 H 0.91707 0.15109 0.05105 0.0
H3169 H 0.9042 0.13236 1.00194 0.0
H3170 H 0.87152 0.11254 0.09224 0.0
H3171 H 0.88405 0.13173 0.14082 0.0
H3172 H 0.89299 0.10516 0.99659 0.0
H3173 H 0.85162 0.11851 0.99861 0.0
H3174 H 0.86773 0.12878 0.02503 0.0
H3175 H 0.85464 0.11308 0.04837 0.0
C3176 C 0.90723 0.14265 0.0608 0.0
C3177 C 0.90145 0.14301 0.09952 0.0
C3178 C 0.89988 0.13191 0.03264 0.0
C3179 C 0.8867 0.12122 0.04286 0.0
C3180 C 0.88146 0.12091 0.08309 0.0
H3181 H 0.82491 0.07406 0.85895 0.0
H3182 H 0.83722 0.07563 0.9238 0.0
C3183 C 0.88867 0.13183 0.11094 0.0
C3184 C 0.87807 0.11132 0.00985 0.0
H3185 H 0.84895 0.10128 0.95275 0.0
C3186 C 0.88325 0.10414 0.98736 0.0
C3187 C 0.86538 0.11004 0.99753 0.0
C3188 C 0.85955 0.11809 0.01832 0.0
C3189 C 0.8763 0.09606 0.95225 0.0
C3190 C 0.86385 0.09514 0.93935 0.0
C3191 C 0.85837 0.10178 0.96304 0.0
C3192 C 0.85732 0.08938 0.89818 0.0
C3193 C 0.88255 0.08891 0.92873 0.0
C3194 C 0.86461 0.09562 0.86131 0.0
C3195 C 0.85757 0.09452 0.82411 0.0
C3196 C 0.84318 0.08729 0.82342 0.0
C3197 C 0.83603 0.07945 0.85849 0.0
C3198 C 0.84307 0.08049 0.89573 0.0
H3199 H 0.88863 0.08619 0.95007 0.0
H3200 H 0.87459 0.07945 0.91304 0.0
H3201 H 0.88963 0.09596 0.90444 0.0
H3202 H 0.87555 0.10273 0.86237 0.0
H3203 H 0.86327 0.10091 0.79773 0.0
H3204 H 0.88651 0.72291 0.85707 0.0
H3205 H 0.88574 0.73364 0.92255 0.0
H3206 H 0.89587 0.77093 0.85582 0.0
H3207 H 0.89632 0.75992 0.78933 0.0
H3208 H 0.90207 0.75678 0.96998 0.0
H3209 H 0.85749 0.75844 0.89989 0.0
H3210 H 0.86522 0.74969 0.87446 0.0
H3211 H 0.87372 0.76812 0.87388 0.0
C3212 C 0.8889 0.73353 0.85655 0.0
C3213 C 0.89131 0.74059 0.81842 0.0
C3214 C 0.88852 0.73967 0.89398 0.0
C3215 C 0.89048 0.75299 0.89399 0.0
C3216 C 0.89409 0.76054 0.85632 0.0
H3217 H 0.8485 0.77121 0.08986 0.0
H3218 H 0.86654 0.77702 0.03804 0.0
C3219 C 0.89445 0.75433 0.81851 0.0
C3220 C 0.8867 0.75781 0.93231 0.0
H3221 H 0.86059 0.7615 0.97168 0.0
C3222 C 0.89319 0.75816 0.97034 0.0
C3223 C 0.8751 0.75956 0.93278 0.0
C3224 C 0.86738 0.75886 0.89323 0.0
C3225 C 0.88794 0.75947 0.00896 0.0
C3226 C 0.8758 0.76027 0.0095 0.0
C3227 C 0.86991 0.7609 0.97132 0.0
C3228 C 0.86791 0.75872 0.04845 0.0
C3229 C 0.89525 0.7596 0.04872 0.0
C3230 C 0.86307 0.74679 0.07297 0.0
C3231 C 0.85283 0.74351 0.10299 0.0
C3232 C 0.84704 0.75195 0.10837 0.0
C3233 C 0.85265 0.76441 0.08616 0.0
C3234 C 0.863 0.76777 0.05657 0.0
H3235 H 0.90644 0.76418 0.04319 0.0
H3236 H 0.89364 0.76542 0.07402 0.0
H3237 H 0.89128 0.74888 0.05951 0.0
H3238 H 0.86642 0.73946 0.06673 0.0
H3239 H 0.84871 0.73381 0.11948 0.0
H3240 H 0.79242 0.57322 0.09594 0.0
H3241 H 0.78373 0.5662 0.02547 0.0
H3242 H 0.82265 0.57091 0.98737 0.0
H3243 H 0.83157 0.57861 0.05837 0.0
H3244 H 0.81767 0.58634 0.94178 0.0
H3245 H 0.7697 0.53711 0.94153 0.0
H3246 H 0.76821 0.54723 0.98212 0.0
H3247 H 0.78124 0.54236 0.98576 0.0
C3248 C 0.79885 0.57194 0.07321 0.0
C3249 C 0.81262 0.5764 0.08254 0.0
C3250 C 0.79386 0.56791 0.03264 0.0
C3251 C 0.80248 0.56797 1.0007 0.0
C3252 C 0.81578 0.57077 0.01138 0.0
H3253 H 0.75944 0.56162 0.76632 0.0
H3254 H 0.77301 0.55676 0.81611 0.0
C3255 C 0.82082 0.57495 0.05216 0.0
C3256 C 0.79851 0.56802 0.95615 0.0
H3257 H 0.77025 0.55476 0.89334 0.0
C3258 C 0.80743 0.57915 0.93066 0.0
C3259 C 0.78529 0.55859 0.94077 0.0
C3260 C 0.77568 0.54559 0.96399 0.0
C3261 C 0.80309 0.58174 0.89213 0.0
C3262 C 0.78928 0.57331 0.87945 0.0
C3263 C 0.78076 0.56151 0.90318 0.0
C3264 C 0.78308 0.57702 0.84402 0.0
C3265 C 0.81338 0.59363 0.86598 0.0
C3266 C 0.78449 0.59017 0.8419 0.0
C3267 C 0.77705 0.59308 0.81253 0.0
C3268 C 0.76769 0.58277 0.7856 0.0
C3269 C 0.76662 0.56977 0.78666 0.0
C3270 C 0.77432 0.56697 0.81527 0.0
H3271 H 0.82381 0.59504 0.86984 0.0
H3272 H 0.81067 0.59215 0.83217 0.0
H3273 H 0.81382 0.60322 0.87683 0.0
H3274 H 0.79074 0.59801 0.86448 0.0
H3275 H 0.77786 0.60309 0.8131 0.0
H3276 H 0.43388 0.18273 0.83741 0.0
H3277 H 0.43881 0.20129 0.88621 0.0
H3278 H 0.4129 0.2119 0.81468 0.0
H3279 H 0.40744 0.19293 0.76643 0.0
H3280 H 0.44958 0.22872 0.88359 0.0
H3281 H 0.39434 0.2038 0.92662 0.0
H3282 H 0.40094 0.1955 0.89339 0.0
H3283 H 0.39805 0.20871 0.87261 0.0
C3284 C 0.42936 0.18911 0.83156 0.0
C3285 C 0.4201 0.18618 0.79825 0.0
C3286 C 0.43222 0.19976 0.85957 0.0
C3287 C 0.42596 0.20779 0.85481 0.0
C3288 C 0.41754 0.20559 0.81973 0.0
H3289 H 0.41742 0.25323 0.06281 0.0
H3290 H 0.4211 0.24989 0.98915 0.0
C3291 C 0.41453 0.19481 0.79192 0.0
C3292 C 0.42753 0.21766 0.88841 0.0
H3293 H 0.40958 0.22324 0.9646 0.0
C3294 C 0.44081 0.22765 0.90092 0.0
C3295 C 0.4161 0.21632 0.91108 0.0
C3296 C 0.40156 0.20545 0.90059 0.0
C3297 C 0.44299 0.23593 0.93636 0.0
C3298 C 0.4316 0.23412 0.96007 0.0
C3299 C 0.41831 0.2247 0.94619 0.0
C3300 C 0.43308 0.24014 1.00254 0.0
C3301 C 0.45748 0.24628 0.94872 0.0
C3302 C 0.43924 0.23648 0.03448 0.0
C3303 C 0.43721 0.23844 0.07651 0.0
C3304 C 0.42892 0.24403 0.08739 0.0
C3305 C 0.42407 0.24913 0.05543 0.0
C3306 C 0.42604 0.24708 0.01325 0.0
H3307 H 0.46432 0.24998 0.92088 0.0
H3308 H 0.45797 0.25523 0.96502 0.0
H3309 H 0.46148 0.24133 0.97024 0.0
H3310 H 0.44448 0.23086 0.02721 0.0
H3311 H 0.44088 0.23423 0.1005 0.0
H3312 H 0.8009 0.2172 0.78239 0.0
H3313 H 0.78745 0.20531 0.84352 0.0
H3314 H 0.79451 0.24373 0.8954 0.0
H3315 H 0.80864 0.2559 0.83464 0.0
H3316 H 0.80256 0.23191 0.94783 0.0
H3317 H 0.75132 0.1921 0.89636 0.0
H3318 H 0.76382 0.19072 0.86535 0.0
H3319 H 0.76256 0.2061 0.86239 0.0
C3320 C 0.79924 0.22314 0.80599 0.0
C3321 C 0.80603 0.23756 0.80379 0.0
C3322 C 0.79138 0.21625 0.84099 0.0
C3323 C 0.78982 0.22357 0.8741 0.0
C3324 C 0.79554 0.23785 0.87021 0.0
H3325 H 0.75458 0.17211 0.09998 0.0
H3326 H 0.75748 0.18856 0.04473 0.0
C3327 C 0.80358 0.2448 0.83535 0.0
C3328 C 0.78455 0.21665 0.91512 0.0
H3329 H 0.76063 0.18614 0.95798 0.0
C3330 C 0.79316 0.22209 0.95026 0.0
C3331 C 0.77222 0.20391 0.91887 0.0
C3332 C 0.76192 0.19799 0.88371 0.0
C3333 C 0.79038 0.21463 0.98767 0.0
C3334 C 0.77887 0.20127 0.98969 0.0
C3335 C 0.76961 0.1963 0.95604 0.0
C3336 C 0.77718 0.19177 0.02426 0.0
C3337 C 0.80008 0.22092 0.02418 0.0
C3338 C 0.78721 0.18803 0.03052 0.0
C3339 C 0.78557 0.17862 0.06163 0.0
C3340 C 0.77382 0.17272 0.08715 0.0
C3341 C 0.76377 0.17652 0.08094 0.0
C3342 C 0.7654 0.18589 0.04945 0.0
H3343 H 0.80539 0.23231 0.02304 0.0
H3344 H 0.7946 0.21739 0.05457 0.0
H3345 H 0.80803 0.21785 0.02274 0.0
H3346 H 0.79626 0.19225 0.01083 0.0
H3347 H 0.79352 0.17598 0.06562 0.0
H3348 H 0.02691 0.47432 0.15407 0.0
H3349 H 0.01032 0.46615 0.21111 0.0
H3350 H 0.01112 0.42816 0.21458 0.0
H3351 H 0.02872 0.43691 0.1596 0.0
H3352 H 0.98626 0.44722 0.22065 0.0
H3353 H 0.01724 0.43686 0.33428 0.0
H3354 H 0.0241 0.44519 0.28477 0.0
H3355 H 0.01371 0.42675 0.28773 0.0
C3356 C 0.02349 0.46419 0.1669 0.0
C3357 C 0.0291 0.45624 0.15266 0.0
C3358 C 0.01402 0.45953 0.19962 0.0
C3359 C 0.00967 0.44665 0.21812 0.0
C3360 C 0.0147 0.43835 0.20217 0.0
H3361 H 0.9367 0.40759 0.37188 0.0
H3362 H 0.95388 0.41437 0.31697 0.0
C3363 C 0.02459 0.44325 0.17034 0.0
C3364 C -0.0002 0.44206 0.25371 0.0
H3365 H 0.99403 0.4291 0.35339 0.0
C3366 C 0.98805 0.44333 0.24969 0.0
C3367 C 0.00218 0.4372 0.2921 0.0
C3368 C 0.01506 0.43656 0.30018 0.0
C3369 C 0.97863 0.43984 0.28257 0.0
C3370 C 0.98065 0.43432 0.31997 0.0
C3371 C 0.99242 0.43316 0.3244 0.0
C3372 C 0.97053 0.42962 0.35457 0.0
C3373 C 0.96678 0.44243 0.2773 0.0
C3374 C 0.97431 0.43556 0.39457 0.0
C3375 C 0.96448 0.43159 0.42638 0.0
C3376 C 0.95074 0.42162 0.41872 0.0
C3377 C 0.94715 0.41539 0.37895 0.0
C3378 C 0.95695 0.4193 0.34733 0.0
H3379 H 0.96895 0.45032 0.25292 0.0
H3380 H 0.95754 0.43278 0.26737 0.0
H3381 H 0.9644 0.44586 0.30718 0.0
H3382 H 0.98479 0.44346 0.40092 0.0
H3383 H 0.96764 0.43639 0.45675 0.0
H3384 H 0.55369 0.52632 0.45491 0.0
H3385 H 0.54505 0.53499 0.39916 0.0
H3386 H 0.58173 0.54695 0.32725 0.0
H3387 H 0.59037 0.53824 0.38225 0.0
H3388 H 0.55608 0.56112 0.36174 0.0
H3389 H 0.55087 0.52182 0.24676 0.0
H3390 H 0.55337 0.52049 0.30211 0.0
H3391 H 0.5677 0.53145 0.26926 0.0
C3392 C 0.55994 0.53084 0.42738 0.0
C3393 C 0.57265 0.53141 0.42303 0.0
C3394 C 0.555 0.5358 0.39553 0.0
C3395 C 0.56263 0.54135 0.35872 0.0
C3396 C 0.57554 0.54243 0.355 0.0
H3397 H 0.54865 0.58971 0.17255 0.0
H3398 H 0.55828 0.58158 0.22667 0.0
C3399 C 0.58048 0.5375 0.38671 0.0
C3400 C 0.55708 0.54585 0.3238 0.0
H3401 H 0.54821 0.54012 0.22032 0.0
C3402 C 0.55429 0.55651 0.33084 0.0
C3403 C 0.55459 0.53966 0.28371 0.0
C3404 C 0.55665 0.52763 0.27497 0.0
C3405 C 0.54925 0.56132 0.29864 0.0
C3406 C 0.54727 0.55551 0.25799 0.0
C3407 C 0.54986 0.54468 0.25125 0.0
C3408 C 0.54221 0.5603 0.22231 0.0
C3409 C 0.54585 0.57238 0.30893 0.0
C3410 C 0.53051 0.55093 0.1997 0.0
C3411 C 0.52524 0.55551 0.16776 0.0
C3412 C 0.53149 0.56956 0.15826 0.0
C3413 C 0.54352 0.57883 0.17965 0.0
C3414 C 0.54895 0.57422 0.21089 0.0
H3415 H 0.5439 0.57262 0.34299 0.0
H3416 H 0.55467 0.58254 0.30038 0.0
H3417 H 0.53669 0.57089 0.29134 0.0
H3418 H 0.52519 0.54011 0.20764 0.0
H3419 H 0.5159 0.54815 0.15197 0.0
H3420 H 0.43787 0.97843 0.12261 0.0
H3421 H 0.44564 0.99619 0.17727 0.0
H3422 H 0.41301 0.96808 0.25826 0.0
H3423 H 0.40533 0.9503 0.20484 0.0
H3424 H 0.42042 0.00043 0.23826 0.0
H3425 H 0.45908 0.98874 0.30635 0.0
H3426 H 0.4565 0.98813 0.25029 0.0
H3427 H 0.44343 0.9754 0.28313 0.0
C3428 C 0.43239 0.976 0.15209 0.0
C3429 C 0.42106 0.96284 0.15934 0.0
C3430 C 0.4368 0.98618 0.18315 0.0
C3431 C 0.42989 0.98338 0.22172 0.0
C3432 C 0.41846 0.97042 0.22868 0.0
H3433 H 0.45242 0.02536 0.46262 0.0
H3434 H 0.44321 0.00825 0.40627 0.0
C3435 C 0.4141 0.96027 0.19793 0.0
C3436 C 0.43465 0.99378 0.2555 0.0
H3437 H 0.45626 0.00581 0.33963 0.0
C3438 C 0.42833 0.00172 0.26031 0.0
C3439 C 0.4447 0.99514 0.28464 0.0
C3440 C 0.45138 0.98643 0.28124 0.0
C3441 C 0.43186 0.0111 0.29359 0.0
C3442 C 0.44219 0.01273 0.32234 0.0
C3443 C 0.44839 0.00463 0.3176 0.0
C3444 C 0.44696 0.02298 0.35697 0.0
C3445 C 0.42422 0.01887 0.29818 0.0
C3446 C 0.45211 0.03693 0.34817 0.0
C3447 C 0.45725 0.04668 0.38028 0.0
C3448 C 0.45763 0.04275 0.42196 0.0
C3449 C 0.45235 0.02874 0.43087 0.0
C3450 C 0.44708 0.01896 0.39867 0.0
H3451 H 0.41401 0.01338 0.28276 0.0
H3452 H 0.42276 0.0205 0.33167 0.0
H3453 H 0.43018 0.02905 0.28286 0.0
H3454 H 0.4525 0.04037 0.31622 0.0
H3455 H 0.46138 0.05738 0.37211 0.0
H3456 H 0.94647 0.54678 0.89914 0.0
H3457 H 0.9637 0.55693 0.84374 0.0
H3458 H 0.98297 0.53445 0.88851 0.0
H3459 H 0.96587 0.52439 0.94426 0.0
H3460 H 0.0017 0.56082 0.86689 0.0
H3461 H 0.9633 0.53583 0.74011 0.0
H3462 H 0.95968 0.54628 0.77434 0.0
H3463 H 0.95938 0.5312 0.79459 0.0
C3464 C 0.95445 0.54409 0.89742 0.0
C3465 C 0.95482 0.53478 0.92614 0.0
C3466 C 0.96423 0.54983 0.86558 0.0
C3467 C 0.97443 0.54621 0.86147 0.0
C3468 C 0.97515 0.53734 0.89104 0.0
H3469 H 0.02255 0.55393 0.64122 0.0
H3470 H 0.00536 0.5463 0.6969 0.0
C3471 C 0.96542 0.53167 0.92309 0.0
C3472 C 0.98418 0.55144 0.82588 0.0
H3473 H 0.98595 0.55205 0.71895 0.0
C3474 C -0.00172 0.55892 0.83453 0.0
C3475 C 0.97968 0.54871 0.78372 0.0
C3476 C 0.9647 0.53995 0.77251 0.0
C3477 C 0.00802 0.56386 0.80215 0.0
C3478 C 0.0035 0.56157 0.75991 0.0
C3479 C 0.98939 0.55397 0.75129 0.0
C3480 C 0.01329 0.56648 0.7243 0.0
C3481 C 0.02304 0.57112 0.81362 0.0
C3482 C 0.02319 0.58043 0.72035 0.0
C3483 C 0.03316 0.58478 0.68899 0.0
C3484 C 0.03319 0.57531 0.66035 0.0
C3485 C 0.02278 0.56148 0.6628 0.0
C3486 C 0.01296 0.5571 0.69464 0.0
H3487 H 0.02466 0.56858 0.84603 0.0
H3488 H 0.02895 0.56839 0.79167 0.0
H3489 H 0.02724 0.58238 0.81207 0.0
H3490 H 0.02337 0.58792 0.74203 0.0
H3491 H 0.04095 0.59553 0.68749 0.0
H3492 H 0.4104 0.46209 0.71391 0.0
H3493 H 0.4183 0.45116 0.76381 0.0
H3494 H 0.43816 0.44192 0.66361 0.0
H3495 H 0.43089 0.45366 0.61364 0.0
H3496 H 0.41266 0.42618 0.77142 0.0
H3497 H 0.46879 0.45768 0.74486 0.0
H3498 H 0.45684 0.4621 0.72211 0.0
H3499 H 0.45941 0.44899 0.69862 0.0
C3500 C 0.41651 0.45779 0.70245 0.0
C3501 C 0.42002 0.45873 0.65984 0.0
C3502 C 0.42103 0.45152 0.73107 0.0
C3503 C 0.429 0.44583 0.71779 0.0
C3504 C 0.43237 0.44656 0.675 0.0
H3505 H 0.45993 0.40224 0.87205 0.0
H3506 H 0.45069 0.40901 0.81285 0.0
C3507 C 0.42811 0.45317 0.64637 0.0
C3508 C 0.43336 0.43889 0.74904 0.0
H3509 H 0.46129 0.43895 0.79162 0.0
C3510 C 0.42331 0.42899 0.77567 0.0
C3511 C 0.44726 0.44248 0.75472 0.0
C3512 C 0.45871 0.45348 0.72885 0.0
C3513 C 0.42678 0.42287 0.80818 0.0
C3514 C 0.44063 0.42659 0.81403 0.0
C3515 C 0.45065 0.43609 0.78674 0.0
C3516 C 0.44508 0.42148 0.85015 0.0
C3517 C 0.41564 0.4126 0.83651 0.0
C3518 C 0.44482 0.42615 0.89069 0.0
C3519 C 0.45011 0.42236 0.92451 0.0
C3520 C 0.45576 0.41379 0.91847 0.0
C3521 C 0.45557 0.40876 0.87793 0.0
C3522 C 0.45036 0.41266 0.84401 0.0
H3523 H 0.40527 0.40874 0.82284 0.0
H3524 H 0.41717 0.40374 0.84285 0.0
H3525 H 0.41607 0.41757 0.86695 0.0
H3526 H 0.44092 0.43309 0.89594 0.0
H3527 H 0.45016 0.42652 0.95518 0.0
H3528 H 0.58212 0.04974 0.87243 0.0
H3529 H 0.5738 0.03189 0.81906 0.0
H3530 H 0.55837 0.00086 0.91574 0.0
H3531 H 0.56595 0.01883 0.96945 0.0
H3532 H 0.58011 0.01385 0.79941 0.0
H3533 H 0.52528 0.98549 0.84531 0.0
H3534 H 0.53729 0.0017 0.86871 0.0
H3535 H 0.53637 0.98605 0.88649 0.0
C3536 C 0.57692 0.03911 0.88239 0.0
C3537 C 0.57467 0.03569 0.92516 0.0
C3538 C 0.57215 0.02888 0.85176 0.0
C3539 C 0.5652 0.01494 0.86304 0.0
C3540 C 0.56326 0.01149 0.90594 0.0
H3541 H 0.53437 0.94131 0.70942 0.0
H3542 H 0.54407 0.95828 0.76554 0.0
C3543 C 0.56773 0.02176 0.9367 0.0
C3544 C 0.56032 0.00423 0.82957 0.0
H3545 H 0.53213 0.97541 0.79226 0.0
C3546 C 0.56959 0.0055 0.79789 0.0
C3547 C 0.54657 0.99326 0.82729 0.0
C3548 C 0.53578 0.99161 0.85852 0.0
C3549 C 0.56552 0.99622 0.7642 0.0
C3550 C 0.55185 0.9853 0.76217 0.0
C3551 C 0.54262 0.98382 0.79403 0.0
C3552 C 0.54683 0.9753 0.72706 0.0
C3553 C 0.57587 -0.00188 0.73106 0.0
C3554 C 0.54524 0.97927 0.68664 0.0
C3555 C 0.53962 0.96956 0.65431 0.0
C3556 C 0.5355 0.95569 0.66188 0.0
C3557 C 0.53744 0.95187 0.70229 0.0
C3558 C 0.54296 0.96155 0.73454 0.0
H3559 H 0.58654 0.00549 0.74104 0.0
H3560 H 0.57515 0.98815 0.72339 0.0
H3561 H 0.57366 0.00211 0.70201 0.0
H3562 H 0.54805 0.98982 0.68034 0.0
H3563 H 0.53831 0.97289 0.62364 0.0
H3564 H 0.60563 0.73058 0.72108 0.0
H3565 H 0.62212 0.73722 0.66418 0.0
H3566 H 0.65059 0.77337 0.73298 0.0
H3567 H 0.63429 0.7665 0.79118 0.0
H3568 H 0.6308 0.75935 0.61681 0.0
H3569 H 0.67571 0.76012 0.69021 0.0
H3570 H 0.65909 0.75221 0.71505 0.0
H3571 H 0.67038 0.77049 0.71821 0.0
C3572 C 0.61548 0.73984 0.72467 0.0
C3573 C 0.61847 0.74813 0.76065 0.0
C3574 C 0.62491 0.74364 0.69188 0.0
C3575 C 0.63762 0.75581 0.69407 0.0
C3576 C 0.64093 0.76384 0.73065 0.0
H3577 H 0.6855 0.8024 0.47746 0.0
H3578 H 0.66839 0.79199 0.53309 0.0
C3579 C 0.63151 0.75996 0.7638 0.0
C3580 C 0.64681 0.76054 0.6567 0.0
H3581 H 0.6795 0.7713 0.62391 0.0
C3582 C 0.64143 0.76187 0.61831 0.0
C3583 C 0.66061 0.76359 0.6583 0.0
C3584 C 0.66676 0.76139 0.69754 0.0
C3585 C 0.64948 0.76638 0.58179 0.0
C3586 C 0.66351 0.77016 0.58387 0.0
C3587 C 0.66881 0.76858 0.62214 0.0
C3588 C 0.67294 0.77581 0.54708 0.0
C3589 C 0.64271 0.7667 0.54129 0.0
C3590 C 0.68128 0.77031 0.53607 0.0
C3591 C 0.69136 0.77655 0.5052 0.0
C3592 C 0.6933 0.78841 0.48417 0.0
C3593 C 0.68436 0.79338 0.49318 0.0
C3594 C 0.67445 0.78732 0.52484 0.0
H3595 H 0.63153 0.75921 0.54182 0.0
H3596 H 0.64399 0.77707 0.537 0.0
H3597 H 0.64729 0.76437 0.51394 0.0
H3598 H 0.68029 0.76139 0.55233 0.0
H3599 H 0.69797 0.77233 0.49882 0.0
H3600 H 0.22784 0.87449 0.79249 0.0
H3601 H 0.22178 0.88609 0.7387 0.0
H3602 H 0.26082 0.89997 0.6785 0.0
H3603 H 0.26645 0.88752 0.72976 0.0
H3604 H 0.23114 0.91115 0.70782 0.0
H3605 H 0.23562 0.87895 0.58489 0.0
H3606 H 0.23649 0.87588 0.6399 0.0
H3607 H 0.25144 0.88878 0.61267 0.0
C3608 C 0.23505 0.87982 0.76744 0.0
C3609 C 0.24732 0.87944 0.76431 0.0
C3610 C 0.23165 0.88663 0.737 0.0
C3611 C 0.24063 0.89347 0.70353 0.0
C3612 C 0.25348 0.89429 0.70296 0.0
H3613 H 0.22266 0.9414 0.51862 0.0
H3614 H 0.233 0.93557 0.57729 0.0
C3615 C 0.25672 0.88721 0.73259 0.0
C3616 C 0.23629 0.89898 0.66786 0.0
H3617 H 0.23314 0.89753 0.56136 0.0
C3618 C 0.23149 0.90814 0.67575 0.0
C3619 C 0.2365 0.89485 0.62605 0.0
C3620 C 0.24014 0.88396 0.61537 0.0
C3621 C 0.22688 0.91325 0.64304 0.0
C3622 C 0.22763 0.90954 0.60101 0.0
C3623 C 0.23263 0.90053 0.59334 0.0
C3624 C 0.22215 0.91369 0.56463 0.0
C3625 C 0.22076 0.92209 0.65424 0.0
C3626 C 0.21327 0.90357 0.53634 0.0
C3627 C 0.20804 0.90701 0.50182 0.0
C3628 C 0.21108 0.92058 0.49519 0.0
C3629 C 0.22006 0.93083 0.52309 0.0
C3630 C 0.22578 0.92745 0.55703 0.0
H3631 H 0.21734 0.92065 0.68746 0.0
H3632 H 0.22863 0.93305 0.65009 0.0
H3633 H 0.21184 0.91977 0.63394 0.0
H3634 H 0.2102 0.89287 0.54114 0.0
H3635 H 0.20119 0.89889 0.48104 0.0
H3636 H 0.09763 0.36458 0.75701 0.0
H3637 H 0.08457 0.34587 0.70728 0.0
H3638 H 0.11862 0.33857 0.69805 0.0
H3639 H 0.13182 0.35766 0.74626 0.0
H3640 H 0.10895 0.34042 0.622 0.0
H3641 H 0.06559 0.30438 0.72236 0.0
H3642 H 0.06812 0.32145 0.72165 0.0
H3643 H 0.08113 0.31848 0.74356 0.0
C3644 C 0.1022 0.3588 0.74485 0.0
C3645 C 0.11555 0.36218 0.75666 0.0
C3646 C 0.09471 0.34807 0.7167 0.0
C3647 C 0.10047 0.34057 0.69978 0.0
C3648 C 0.11385 0.34401 0.71141 0.0
H3649 H 0.06243 0.26669 0.54901 0.0
H3650 H 0.07072 0.28308 0.60706 0.0
C3651 C 0.12132 0.35474 0.73957 0.0
C3652 C 0.09296 0.32984 0.66761 0.0
H3653 H 0.06328 0.29969 0.64911 0.0
C3654 C 0.09898 0.33148 0.62798 0.0
C3655 C 0.08002 0.31812 0.67559 0.0
C3656 C 0.07337 0.31539 0.71821 0.0
C3657 C 0.0924 0.32183 0.59596 0.0
C3658 C 0.07921 0.31036 0.60343 0.0
C3659 C 0.07326 0.3086 0.64324 0.0
C3660 C 0.07179 0.29984 0.57068 0.0
C3661 C 0.09979 0.32387 0.55478 0.0
C3662 C 0.06878 0.30357 0.53179 0.0
C3663 C 0.0641 0.29424 0.49853 0.0
C3664 C 0.06212 0.28095 0.50382 0.0
C3665 C 0.06375 0.27681 0.544 0.0
C3666 C 0.06861 0.28621 0.57714 0.0
H3667 H 0.11101 0.33094 0.55805 0.0
H3668 H 0.09808 0.31395 0.54204 0.0
H3669 H 0.09585 0.32844 0.53167 0.0
H3670 H 0.07077 0.31392 0.5265 0.0
H3671 H 0.06286 0.29772 0.46798 0.0
H3672 H 0.70152 0.9238 1.00009 0.0
H3673 H 0.68337 0.91627 0.05274 0.0
H3674 H 0.67688 0.87513 0.04584 0.0
H3675 H 0.69479 0.88258 0.99223 0.0
H3676 H 0.65288 0.8748 0.05388 0.0
H3677 H 0.68954 0.91024 0.1726 0.0
H3678 H 0.68836 0.91885 0.1268 0.0
H3679 H 0.69507 0.90735 0.12253 0.0
C3680 C 0.69607 0.9131 0.00938 0.0
C3681 C 0.69953 0.90375 0.99196 0.0
C3682 C 0.68578 0.90883 0.03977 0.0
C3683 C 0.67901 0.89521 0.05421 0.0
C3684 C 0.68201 0.88571 0.0354 0.0
H3685 H 0.62497 0.84909 0.258 0.0
H3686 H 0.64193 0.85831 0.20139 0.0
C3687 C 0.69216 0.88994 1.00448 0.0
C3688 C 0.66914 0.89096 0.08978 0.0
H3689 H 0.66613 0.89783 0.19255 0.0
C3690 C 0.6558 0.87984 0.08417 0.0
C3691 C 0.67294 0.89752 0.12948 0.0
C3692 C 0.68728 0.90906 0.13844 0.0
C3693 C 0.64619 0.87514 0.117 0.0
C3694 C 0.65002 0.88166 0.15652 0.0
C3695 C 0.66325 0.89288 0.16211 0.0
C3696 C 0.6405 0.87663 0.19273 0.0
C3697 C 0.63194 0.86325 0.10931 0.0
C3698 C 0.63433 0.88403 0.20718 0.0
C3699 C 0.62472 0.87882 0.23978 0.0
C3700 C 0.62135 0.86625 0.25895 0.0
C3701 C 0.62779 0.85904 0.24501 0.0
C3702 C 0.63729 0.86418 0.2122 0.0
H3703 H 0.62983 0.8609 0.07539 0.0
H3704 H 0.63081 0.85399 0.1254 0.0
H3705 H 0.62413 0.86548 0.12248 0.0
H3706 H 0.63669 0.89366 0.1925 0.0
H3707 H 0.61979 0.88451 0.24969 0.0
H3708 H 0.10618 0.74635 0.27625 0.0
H3709 H 0.09742 0.75297 0.21617 0.0
H3710 H 0.1166 0.73754 0.13237 0.0
H3711 H 0.12562 0.73099 0.19255 0.0
H3712 H 0.12367 0.76479 0.11701 0.0
H3713 H 0.06728 0.73201 0.12995 0.0
H3714 H 0.07527 0.74068 0.17788 0.0
H3715 H 0.07901 0.72807 0.15692 0.0
C3716 C 0.10826 0.744 0.24512 0.0
C3717 C 0.11664 0.73813 0.23933 0.0
C3718 C 0.10318 0.74777 0.21072 0.0
C3719 C 0.10625 0.74565 0.16975 0.0
C3720 C 0.11405 0.7392 0.16375 0.0
H3721 H 0.09728 0.78382 0.93815 0.0
H3722 H 0.1032 0.77059 0.9865 0.0
C3723 C 0.11913 0.73538 0.19822 0.0
C3724 C 0.10252 0.7515 0.13369 0.0
H3725 H 0.07552 0.75207 0.08705 0.0
C3726 C 0.11313 0.76189 0.10992 0.0
C3727 C 0.08878 0.74776 0.12482 0.0
C3728 C 0.07692 0.73643 0.14849 0.0
C3729 C 0.11044 0.76911 0.07885 0.0
C3730 C 0.0967 0.76557 0.0705 0.0
C3731 C 0.08606 0.75484 0.09341 0.0
C3732 C 0.09309 0.77338 0.04027 0.0
C3733 C 0.12243 0.78089 0.0569 0.0
C3734 C 0.08509 0.779 0.05386 0.0
C3735 C 0.08144 0.78624 0.02615 0.0
C3736 C 0.0858 0.78818 0.98414 0.0
C3737 C 0.09386 0.78261 0.97041 0.0
C3738 C 0.09733 0.77512 0.99812 0.0
H3739 H 0.13213 0.78458 0.07473 0.0
H3740 H 0.12383 0.77741 0.0257 0.0
H3741 H 0.12064 0.78965 0.05224 0.0
H3742 H 0.0817 0.77784 0.08615 0.0
H3743 H 0.07528 0.79045 0.03787 0.0
H3744 H 0.20908 0.27746 0.04596 0.0
H3745 H 0.22058 0.29584 0.0973 0.0
H3746 H 0.23045 0.32601 0.99997 0.0
H3747 H 0.21846 0.30767 0.94864 0.0
H3748 H 0.24563 0.31692 0.10874 0.0
H3749 H 0.21018 0.33691 0.07952 0.0
H3750 H 0.20745 0.32106 0.05693 0.0
H3751 H 0.21958 0.33726 0.03378 0.0
C3752 C 0.21386 0.288 0.03528 0.0
C3753 C 0.21273 0.29107 0.99322 0.0
C3754 C 0.22041 0.29852 0.06475 0.0
C3755 C 0.22605 0.31232 0.05277 0.0
C3756 C 0.22578 0.31544 0.01026 0.0
H3757 H 0.26382 0.38709 0.20474 0.0
H3758 H 0.25875 0.3707 0.14758 0.0
C3759 C 0.21905 0.30493 0.98084 0.0
C3760 C 0.23175 0.32332 0.08513 0.0
H3761 H 0.22839 0.34947 0.12696 0.0
C3762 C 0.24187 0.32405 0.11261 0.0
C3763 C 0.22678 0.33258 0.09045 0.0
C3764 C 0.21531 0.33186 0.06391 0.0
C3765 C 0.2471 0.33374 0.14521 0.0
C3766 C 0.24215 0.34296 0.15029 0.0
C3767 C 0.23224 0.34243 0.12255 0.0
C3768 C 0.24651 0.35274 0.18571 0.0
C3769 C 0.25782 0.33404 0.17428 0.0
C3770 C 0.2414 0.34802 0.22607 0.0
C3771 C 0.24418 0.35733 0.25873 0.0
C3772 C 0.25216 0.37156 0.25163 0.0
C3773 C 0.2577 0.37621 0.21141 0.0
C3774 C 0.2548 0.36688 0.17866 0.0
H3775 H 0.26212 0.3277 0.16236 0.0
H3776 H 0.2663 0.34475 0.17871 0.0
H3777 H 0.25314 0.33002 0.20545 0.0
H3778 H 0.23485 0.33714 0.23194 0.0
H3779 H 0.23971 0.35337 0.28924 0.0
H3780 H 0.272 0.07172 0.03731 0.0
H3781 H 0.28969 0.07939 0.98351 0.0
H3782 H 0.31903 0.1095 0.06865 0.0
H3783 H 0.30139 0.10169 0.12341 0.0
H3784 H 0.31703 0.11961 0.9855 0.0
H3785 H 0.3237 0.07394 0.97743 0.0
H3786 H 0.30626 0.07041 0.97655 0.0
H3787 H 0.31652 0.07773 0.02267 0.0
C3788 C 0.28224 0.07987 0.045 0.0
C3789 C 0.28518 0.0862 0.08473 0.0
C3790 C 0.29236 0.08422 0.01408 0.0
C3791 C 0.30568 0.09497 0.02206 0.0
C3792 C 0.30878 0.10119 0.06182 0.0
H3793 H 0.37827 0.12255 0.86975 0.0
H3794 H 0.36051 0.1131 0.92333 0.0
C3795 C 0.29866 0.09675 0.09301 0.0
C3796 C 0.31614 0.10007 0.98815 0.0
H3797 H 0.33433 0.09065 0.92406 0.0
C3798 C 0.32086 0.11331 0.97211 0.0
C3799 C 0.32114 0.09184 0.97085 0.0
C3800 C 0.31676 0.07772 0.98785 0.0
C3801 C 0.33034 0.1185 0.93891 0.0
C3802 C 0.33513 0.11016 0.92095 0.0
C3803 C 0.33053 0.09698 0.93742 0.0
C3804 C 0.34551 0.11523 0.88673 0.0
C3805 C 0.33534 0.13297 0.92388 0.0
C3806 C 0.3429 0.11926 0.84763 0.0
C3807 C 0.35309 0.1247 0.81659 0.0
C3808 C 0.36611 0.12622 0.8241 0.0
C3809 C 0.36844 0.12165 0.86275 0.0
C3810 C 0.35827 0.11622 0.89358 0.0
H3811 H 0.33315 0.13902 0.94697 0.0
H3812 H 0.34654 0.13839 0.91772 0.0
H3813 H 0.33005 0.13263 0.89414 0.0
H3814 H 0.333 0.1183 0.84122 0.0
H3815 H 0.35083 0.12788 0.787 0.0
H3816 H 0.86449 0.22607 0.77848 0.0
H3817 H 0.87378 0.21751 0.83319 0.0
H3818 H 0.87488 0.24752 0.91947 0.0
H3819 H 0.86512 0.25562 0.8659 0.0
H3820 H 0.89949 0.24519 0.91654 0.0
H3821 H 0.85141 0.19533 0.94006 0.0
H3822 H 0.85749 0.19976 0.88698 0.0
H3823 H 0.85165 0.20978 0.91449 0.0
C3824 C 0.86646 0.23059 0.80936 0.0
C3825 C 0.86364 0.24117 0.81813 0.0
C3826 C 0.87188 0.22582 0.84045 0.0
C3827 C 0.87479 0.23174 0.88062 0.0
C3828 C 0.8726 0.24273 0.88881 0.0
H3829 H 0.88699 0.19914 0.11458 0.0
H3830 H 0.87899 0.2086 0.05938 0.0
C3831 C 0.86705 0.24737 0.858 0.0
C3832 C 0.88 0.2265 0.91452 0.0
H3833 H 0.87069 0.19916 0.97989 0.0
C3834 C 0.89323 0.23511 0.93035 0.0
C3835 C 0.87171 0.21345 0.9329 0.0
C3836 C 0.85723 0.20403 0.9181 0.0
C3837 C 0.89846 0.23099 0.96388 0.0
C3838 C 0.89027 0.2178 0.98179 0.0
C3839 C 0.87697 0.20924 0.96616 0.0
C3840 C 0.89539 0.21258 0.01617 0.0
C3841 C 0.91259 0.24093 0.98031 0.0
C3842 C 0.90722 0.21161 0.01038 0.0
C3843 C 0.91187 0.20635 0.04203 0.0
C3844 C 0.90467 0.20167 0.08016 0.0
C3845 C 0.89279 0.20263 0.0859 0.0
C3846 C 0.8882 0.20803 0.05423 0.0
H3847 H 0.91571 0.2517 0.97214 0.0
H3848 H 0.91311 0.24013 0.01489 0.0
H3849 H 0.92014 0.23855 0.96592 0.0
H3850 H 0.91275 0.21468 0.98096 0.0
H3851 H 0.92096 0.20564 0.03601 0.0
H3852 H 0.73039 0.60011 0.8781 0.0
H3853 H 0.73635 0.6152 0.93926 0.0
H3854 H 0.75377 0.65057 0.858 0.0
H3855 H 0.74784 0.63567 0.79686 0.0
H3856 H 0.76389 0.6353 0.95788 0.0
H3857 H 0.73111 0.65889 0.94173 0.0
H3858 H 0.72739 0.64324 0.915 0.0
H3859 H 0.74017 0.65961 0.89465 0.0
C3860 C 0.73515 0.61107 0.87315 0.0
C3861 C 0.73864 0.61666 0.83252 0.0
C3862 C 0.7386 0.61968 0.90817 0.0
C3863 C 0.7454 0.63399 0.90314 0.0
C3864 C 0.74832 0.63955 0.86258 0.0
H3865 H 0.78973 0.7091 0.03268 0.0
H3866 H 0.7772 0.68973 0.98592 0.0
C3867 C 0.74495 0.63099 0.82763 0.0
C3868 C 0.75072 0.64321 0.94002 0.0
H3869 H 0.75067 0.67045 0.98669 0.0
C3870 C 0.76085 0.64285 0.96478 0.0
C3871 C 0.74677 0.65306 0.94866 0.0
C3872 C 0.73567 0.65368 0.92385 0.0
C3873 C 0.76771 0.65259 0.99653 0.0
C3874 C 0.76405 0.66273 1.00437 0.0
C3875 C 0.75348 0.66269 0.9807 0.0
C3876 C 0.77185 0.67427 0.03397 0.0
C3877 C 0.77929 0.65237 0.01969 0.0
C3878 C 0.77313 0.67209 0.0768 0.0
C3879 C 0.78054 0.68327 0.10385 0.0
C3880 C 0.78653 0.69678 0.08853 0.0
C3881 C 0.78517 0.69885 0.04568 0.0
C3882 C 0.77797 0.68776 0.0188 0.0
H3883 H 0.78281 0.64595 1.00343 0.0
H3884 H 0.78817 0.66291 0.02326 0.0
H3885 H 0.77573 0.64801 0.05146 0.0
H3886 H 0.76826 0.66177 0.08941 0.0
H3887 H 0.7813 0.68135 0.13676 0.0
H3888 H 0.37659 0.22484 0.32433 0.0
H3889 H 0.3598 0.21565 0.38147 0.0
H3890 H 0.35776 0.2529 0.38242 0.0
H3891 H 0.37442 0.26206 0.3246 0.0
H3892 H 0.36523 0.23702 0.46617 0.0
H3893 H 0.31602 0.21185 0.37707 0.0
H3894 H 0.33121 0.21238 0.35636 0.0
H3895 H 0.3303 0.22781 0.35884 0.0
C3896 C 0.37213 0.23081 0.33552 0.0
C3897 C 0.37645 0.24395 0.31918 0.0
C3898 C 0.36274 0.22566 0.36861 0.0
C3899 C 0.35754 0.23359 0.3859 0.0
C3900 C 0.36164 0.24663 0.36925 0.0
H3901 H 0.29542 0.21859 0.56562 0.0
H3902 H 0.31289 0.22723 0.51161 0.0
C3903 C 0.3711 0.25181 0.33626 0.0
C3904 C 0.34835 0.22851 0.42271 0.0
H3905 H 0.31462 0.21098 0.45065 0.0
C3906 C 0.35416 0.23127 0.46298 0.0
C3907 C 0.33397 0.22111 0.41814 0.0
C3908 C 0.32738 0.21804 0.37537 0.0
C3909 C 0.34587 0.22694 0.49907 0.0
C3910 C 0.33144 0.21945 0.49456 0.0
C3911 C 0.32569 0.21664 0.4541 0.0
C3912 C 0.32198 0.21513 0.53105 0.0
C3913 C 0.3526 0.23078 0.54162 0.0
C3914 C 0.3215 0.2057 0.56104 0.0
C3915 C 0.31144 0.20073 0.59263 0.0
C3916 C 0.3016 0.20493 0.5941 0.0
C3917 C 0.30264 0.21489 0.56518 0.0
C3918 C 0.31266 0.21988 0.5341 0.0
H3919 H 0.36351 0.23904 0.53955 0.0
H3920 H 0.34707 0.23427 0.5626 0.0
H3921 H 0.35225 0.22165 0.55613 0.0
H3922 H 0.32855 0.20181 0.55911 0.0
H3923 H 0.31105 0.19324 0.61469 0.0
H3924 H 0.77215 0.08132 0.6248 0.0
H3925 H 0.75952 0.08771 0.57569 0.0
H3926 H 0.79776 0.12127 0.53039 0.0
H3927 H 0.81037 0.11514 0.58077 0.0
H3928 H 0.77725 0.12781 0.53254 0.0
H3929 H 0.75915 0.07763 0.45374 0.0
H3930 H 0.75418 0.07621 0.50776 0.0
H3931 H 0.77204 0.0839 0.49429 0.0
C3932 C 0.77778 0.09033 0.60525 0.0
C3933 C 0.79216 0.09784 0.60651 0.0
C3934 C 0.7706 0.09386 0.57692 0.0
C3935 C 0.77772 0.10473 0.54864 0.0
C3936 C 0.79207 0.1128 0.55181 0.0
H3937 H 0.75744 0.11779 0.30217 0.0
H3938 H 0.76435 0.11068 0.36536 0.0
C3939 C 0.79926 0.10936 0.58063 0.0
C3940 C 0.77036 0.107 0.51375 0.0
H3941 H 0.75095 0.09171 0.42672 0.0
C3942 C 0.77142 0.11991 0.50953 0.0
C3943 C 0.76294 0.09671 0.48339 0.0
C3944 C 0.76209 0.08288 0.48466 0.0
C3945 C 0.76534 0.12286 0.4756 0.0
C3946 C 0.75775 0.1125 0.44565 0.0
C3947 C 0.75659 0.09955 0.4501 0.0
C3948 C 0.7521 0.1153 0.40733 0.0
C3949 C 0.76759 0.13721 0.47118 0.0
C3950 C 0.74244 0.11968 0.40973 0.0
C3951 C 0.73847 0.12383 0.37351 0.0
C3952 C 0.74405 0.12356 0.33429 0.0
C3953 C 0.75298 0.11822 0.3318 0.0
C3954 C 0.75697 0.11415 0.36796 0.0
H3955 H 0.77604 0.14465 0.49161 0.0
H3956 H 0.77002 0.1408 0.4382 0.0
H3957 H 0.75808 0.13721 0.48027 0.0
H3958 H 0.7383 0.12031 0.43975 0.0
H3959 H 0.73152 0.12781 0.37655 0.0
H3960 H 0.91406 0.71982 0.52296 0.0
H3961 H 0.9063 0.70236 0.46798 0.0
H3962 H 0.89496 0.67089 0.56198 0.0
H3963 H 0.90266 0.68837 0.61714 0.0
H3964 H 0.91396 0.68397 0.44584 0.0
H3965 H 0.85958 0.65625 0.49715 0.0
H3966 H 0.87192 0.67279 0.51808 0.0
H3967 H 0.8714 0.65746 0.53694 0.0
C3968 C 0.91004 0.70919 0.53189 0.0
C3969 C 0.90873 0.70542 0.57437 0.0
C3970 C 0.90555 0.69921 0.50045 0.0
C3971 C 0.89971 0.68527 0.51083 0.0
C3972 C 0.89901 0.68154 0.55321 0.0
H3973 H 0.86294 0.60973 0.369 0.0
H3974 H 0.87317 0.6277 0.42197 0.0
C3975 C 0.90344 0.69152 0.5847 0.0
C3976 C 0.89442 0.67471 0.47717 0.0
H3977 H 0.86567 0.64603 0.44251 0.0
C3978 C 0.90339 0.67569 0.44501 0.0
C3979 C 0.88061 0.66392 0.47608 0.0
C3980 C 0.87028 0.66258 0.50866 0.0
C3981 C 0.89903 0.66603 0.4123 0.0
C3982 C 0.88523 0.65522 0.41124 0.0
C3983 C 0.87625 0.65429 0.44332 0.0
C3984 C 0.8799 0.64451 0.37797 0.0
C3985 C 0.90936 0.66733 0.37988 0.0
C3986 C 0.88043 0.64793 0.3353 0.0
C3987 C 0.87478 0.6376 0.30467 0.0
C3988 C 0.86818 0.6237 0.31631 0.0
C3989 C 0.86793 0.62035 0.35892 0.0
C3990 C 0.87369 0.63062 0.38934 0.0
H3991 H 0.92005 0.67365 0.39149 0.0
H3992 H 0.90771 0.6571 0.37061 0.0
H3993 H 0.90825 0.67242 0.35155 0.0
H3994 H 0.88495 0.65855 0.3257 0.0
H3995 H 0.87545 0.64048 0.27202 0.0
H3996 H 0.05436 0.51731 0.08845 0.0
H3997 H 0.05305 0.5363 0.11931 0.0
H3998 H 0.0103 0.50882 0.14656 0.0
H3999 H 0.01197 0.49001 0.11762 0.0
H4000 H 0.03986 0.53738 0.05681 0.0
H4001 H 0.01092 0.54194 0.18456 0.0
H4002 H 0.02164 0.53443 0.19387 0.0
H4003 H 0.00366 0.52379 0.18062 0.0
C4004 C 0.04513 0.51509 0.10507 0.0
C4005 C 0.0331 0.50249 0.09881 0.0
C4006 C 0.04428 0.52606 0.12245 0.0
C4007 C 0.03127 0.52431 0.13145 0.0
C4008 C 0.0204 0.51079 0.13776 0.0
H4009 H 0.97707 0.49636 0.99563 0.0
H4010 H 0.00085 0.51352 0.00713 0.0
C4011 C 0.0213 0.49984 0.12091 0.0
C4012 C 0.02742 0.53403 0.1123 0.0
H4013 H -0.00231 0.53471 0.1126 0.0
C4014 C 0.03099 0.53743 0.06976 0.0
C4015 C 0.01637 0.53518 0.12847 0.0
C4016 C 0.0131 0.53376 0.17461 0.0
C4017 C 0.02185 0.53825 0.04165 0.0
C4018 C 0.00908 0.53589 0.05671 0.0
C4019 C 0.0072 0.53595 0.10034 0.0
C4020 C -0.00346 0.52913 0.03023 0.0
C4021 C 0.02528 0.53998 0.99559 0.0
C4022 C 0.98621 0.53252 0.03525 0.0
C4023 C 0.97249 0.52254 0.02887 0.0
C4024 C 0.96901 0.5091 0.01746 0.0
C4025 C 0.97947 0.50662 1.00458 0.0
C4026 C 0.99317 0.51655 0.01113 0.0
H4027 H 0.0362 0.54793 0.99095 0.0
H4028 H 0.02396 0.53021 0.98284 0.0
H4029 H 0.01868 0.54291 0.97766 0.0
H4030 H 0.98854 0.54218 0.04957 0.0
H4031 H 0.9647 0.52482 0.03916 0.0
H4032 H 0.48377 0.50936 0.08993 0.0
H4033 H 0.49795 0.49943 0.07368 0.0
H4034 H 0.53132 0.53944 0.04016 0.0
H4035 H 0.51688 0.54915 0.05363 0.0
H4036 H 0.51959 0.52533 0.9728 0.0
H4037 H 0.52826 0.49097 0.07359 0.0
H4038 H 0.51163 0.48831 0.08596 0.0
H4039 H 0.52658 0.50492 0.09534 0.0
C4040 C 0.49444 0.5162 0.08201 0.0
C4041 C 0.49903 0.52996 0.07183 0.0
C4042 C 0.50267 0.5105 0.07285 0.0
C4043 C 0.51561 0.51864 0.05418 0.0
C4044 C 0.52131 0.53293 0.05393 0.0
H4045 H 0.49776 0.44984 0.96335 0.0
H4046 H 0.51529 0.47023 0.9276 0.0
C4047 C 0.51299 0.53857 0.06232 0.0
C4048 C 0.51993 0.51214 0.02172 0.0
H4049 H 0.51673 0.48096 1.00477 0.0
C4050 C 0.51957 0.51587 0.97972 0.0
C4051 C 0.5204 0.50007 0.02993 0.0
C4052 C 0.52189 0.49597 0.07379 0.0
C4053 C 0.51686 0.50658 0.9469 0.0
C4054 C 0.51454 0.49333 0.95641 0.0
C4055 C 0.51794 0.49089 0.99697 0.0
C4056 C 0.50411 0.48111 0.93286 0.0
C4057 C 0.51471 0.51039 0.9034 0.0
C4058 C 0.49072 0.47904 0.93562 0.0
C4059 C 0.48079 0.46748 0.95693 0.0
C4060 C 0.48442 0.45815 0.97321 0.0
C4061 C 0.49539 0.45764 0.95434 0.0
C4062 C 0.5054 0.46931 0.9333 0.0
H4063 H 0.52268 0.52113 0.89616 0.0
H4064 H 0.51501 0.50343 0.87928 0.0
H4065 H 0.50463 0.50992 0.90188 0.0
H4066 H 0.48887 0.48755 0.93201 0.0
H4067 H 0.47179 0.46756 0.96855 0.0
H4068 H 0.54762 0.03106 0.97042 0.0
H4069 H 0.52794 0.00922 0.95288 0.0
H4070 H 0.50185 0.02653 0.97255 0.0
H4071 H 0.52176 0.0485 0.987 0.0
H4072 H 0.52379 0.01 0.0351 0.0
H4073 H 0.47302 0.98788 0.96158 0.0
H4074 H 0.48819 0.00053 0.93446 0.0
H4075 H 0.47909 0.00573 0.96981 0.0
C4076 C 0.53787 0.03063 0.96721 0.0
C4077 C 0.53558 0.04045 0.98701 0.0
C4078 C 0.52643 0.01793 0.95724 0.0
C4079 C 0.51336 0.01582 0.96754 0.0
C4080 C 0.51182 0.0275 0.96817 0.0
H4081 H 0.44933 0.96539 0.11313 0.0
H4082 H 0.46971 0.98773 0.12072 0.0
C4083 C 0.52337 0.04024 0.97659 0.0
C4084 C 0.50542 0.00527 0.99991 0.0
H4085 H 0.47315 0.98565 0.03788 0.0
C4086 C 0.51268 0.00449 0.03506 0.0
C4087 C 0.49098 -0.0017 1.00123 0.0
C4088 C 0.48244 -0.0019 0.96445 0.0
C4089 C 0.50597 0.99738 0.07152 0.0
C4090 C 0.49155 0.9905 0.0729 0.0
C4091 C 0.48427 0.99117 0.03771 0.0
C4092 C 0.4836 0.98025 0.10585 0.0
C4093 C 0.51448 -0.00244 0.10834 0.0
C4094 C 0.48485 0.96839 0.10651 0.0
C4095 C 0.47293 0.95558 0.10322 0.0
C4096 C 0.46062 0.95544 0.09488 0.0
C4097 C 0.45915 0.96588 0.11374 0.0
C4098 C 0.47092 0.97879 0.11797 0.0
H4099 H 0.5241 0.00764 0.11063 0.0
H4100 H 0.50884 0.99549 0.13843 0.0
H4101 H 0.51747 0.98963 0.10356 0.0
H4102 H 0.49456 0.96899 0.10003 0.0
H4103 H 0.474 0.94687 0.09424 0.0
H4104 H 0.51431 0.96946 0.61286 0.0
H4105 H 0.51244 0.9898 0.62395 0.0
H4106 H 0.47018 0.96721 0.58452 0.0
H4107 H 0.47226 0.94709 0.57448 0.0
H4108 H 0.51037 0.99016 0.53956 0.0
H4109 H 0.47345 0.00358 0.60486 0.0
H4110 H 0.47775 0.99216 0.63216 0.0
H4111 H 0.46454 0.98566 0.5925 0.0
C4112 C 0.50427 0.9685 0.61012 0.0
C4113 C 0.49402 0.95776 0.58646 0.0
C4114 C 0.50322 0.98026 0.61637 0.0
C4115 C 0.49162 0.98042 0.6005 0.0
C4116 C 0.47962 0.9677 0.59439 0.0
H4117 H 0.47736 0.03227 0.46777 0.0
H4118 H 0.47637 0.01072 0.45197 0.0
C4119 C 0.48081 0.95603 0.58869 0.0
C4120 C 0.49389 0.9914 0.57034 0.0
H4121 H 0.47904 0.0089 0.53141 0.0
C4122 C 0.5035 0.99428 0.53801 0.0
C4123 C 0.48493 0.9967 0.56744 0.0
C4124 C 0.47469 0.99443 0.60141 0.0
C4125 C 0.50397 0.0017 0.50221 0.0
C4126 C 0.49518 0.00723 0.49948 0.0
C4127 C 0.48566 0.00449 0.53221 0.0
C4128 C 0.4976 0.01824 0.46898 0.0
C4129 C 0.51373 0.00322 0.46749 0.0
C4130 C 0.5105 0.0303 0.47119 0.0
C4131 C 0.51096 0.04277 0.47833 0.0
C4132 C 0.49854 0.04232 0.48697 0.0
C4133 C 0.4869 0.03219 0.46607 0.0
C4134 C 0.48632 0.01971 0.45731 0.0
H4135 H 0.5138 0.99345 0.46307 0.0
H4136 H 0.51103 0.00613 0.4372 0.0
H4137 H 0.52431 0.01114 0.47648 0.0
H4138 H 0.51976 0.02991 0.4772 0.0
H4139 H 0.52051 0.0513 0.48959 0.0
H4140 H 0.96052 0.44175 0.53087 0.0
H4141 H 0.9844 0.44772 0.52933 0.0
H4142 H -0.0037 0.49029 0.51267 0.0
H4143 H 0.97223 0.48412 0.51007 0.0
H4144 H 0.01566 0.48374 0.48008 0.0
H4145 H 0.00053 0.463 0.64197 0.0
H4146 H 0.99299 0.45171 0.59815 0.0
H4147 H 0.98848 0.46466 0.60889 0.0
C4148 C 0.96808 0.4522 0.52346 0.0
C4149 C 0.9644 0.4624 0.51992 0.0
C4150 C 0.98184 0.45567 0.52381 0.0
C4151 C 0.99214 0.46948 0.52245 0.0
C4152 C 0.98851 0.47953 0.514 0.0
H4153 H 0.02115 0.52384 0.61759 0.0
H4154 H 0.01867 0.50162 0.62967 0.0
C4155 C 0.97473 0.476 0.51253 0.0
C4156 C 0.00615 0.47397 0.53814 0.0
H4157 H 0.02251 0.48114 0.63253 0.0
C4158 C 0.01729 0.48291 0.51324 0.0
C4159 C 0.00847 0.47224 0.58084 0.0
C4160 C -0.00298 0.4624 0.60919 0.0
C4161 C 0.03 0.49202 0.53141 0.0
C4162 C 0.03122 0.49254 0.57593 0.0
C4163 C 0.02129 0.48127 0.59881 0.0
C4164 C 0.03753 0.50617 0.59743 0.0
C4165 C 0.04123 0.50202 0.50279 0.0
C4166 C 0.05032 0.51707 0.5848 0.0
C4167 C 0.05159 0.52993 0.57728 0.0
C4168 C 0.04027 0.53173 0.58426 0.0
C4169 C 0.02976 0.52241 0.61032 0.0
C4170 C 0.02834 0.50952 0.61693 0.0
H4171 H 0.05128 0.50337 0.51259 0.0
H4172 H 0.03942 0.49841 0.46975 0.0
H4173 H 0.04166 0.51209 0.5035 0.0
H4174 H 0.05826 0.51514 0.57357 0.0
H4175 H 0.06021 0.53735 0.55882 0.0
H4176 H 0.55086 0.51552 0.53161 0.0
H4177 H 0.54003 0.52791 0.55746 0.0
H4178 H 0.50051 0.49421 0.52245 0.0
H4179 H 0.51141 0.48172 0.49549 0.0
H4180 H 0.51282 0.53133 0.54183 0.0
H4181 H 0.50655 0.48785 0.60728 0.0
H4182 H 0.51305 0.4948 0.65837 0.0
H4183 H 0.52426 0.50059 0.61319 0.0
C4184 C 0.54002 0.51114 0.52587 0.0
C4185 C 0.53192 0.49738 0.51313 0.0
C4186 C 0.5338 0.51826 0.54132 0.0
C4187 C 0.51951 0.5117 0.54322 0.0
C4188 C 0.51161 0.4993 0.52169 0.0
H4189 H 0.45511 0.4833 0.61152 0.0
H4190 H 0.47598 0.4913 0.65044 0.0
C4191 C 0.51787 0.49221 0.50599 0.0
C4192 C 0.5131 0.51531 0.5772 0.0
H4193 H 0.49865 0.50408 0.67324 0.0
C4194 C 0.50962 0.52541 0.57065 0.0
C4195 C 0.50999 0.50825 0.61587 0.0
C4196 C 0.51375 0.49734 0.62447 0.0
C4197 C 0.50127 0.52729 0.59937 0.0
C4198 C 0.49589 0.5183 0.63485 0.0
C4199 C 0.50194 0.51034 0.64511 0.0
C4200 C 0.48139 0.51286 0.64937 0.0
C4201 C 0.49801 0.53847 0.58939 0.0
C4202 C 0.47531 0.52111 0.64735 0.0
C4203 C 0.46357 0.51662 0.62261 0.0
C4204 C 0.45738 0.50343 0.60507 0.0
C4205 C 0.46029 0.4938 0.62277 0.0
C4206 C 0.47246 0.49854 0.6452 0.0
H4207 H 0.49903 0.54456 0.61785 0.0
H4208 H 0.5051 0.54575 0.56548 0.0
H4209 H 0.4875 0.53396 0.57638 0.0
H4210 H 0.48095 0.53175 0.65664 0.0
H4211 H 0.46113 0.52417 0.61096 0.0
H4212 H 0.62925 0.8481 0.33716 0.0
H4213 H 0.65361 0.85718 0.33774 0.0
H4214 H 0.64676 0.8161 0.32194 0.0
H4215 H 0.62264 0.80755 0.31408 0.0
H4216 H 0.65347 0.84844 0.40963 0.0
H4217 H 0.68565 0.83423 0.31966 0.0
H4218 H 0.67107 0.83379 0.29511 0.0
H4219 H 0.66941 0.81885 0.32217 0.0
C4220 C 0.63294 0.84123 0.32861 0.0
C4221 C 0.62411 0.82696 0.32872 0.0
C4222 C 0.64705 0.84644 0.32996 0.0
C4223 C 0.65192 0.8372 0.334 0.0
C4224 C 0.64338 0.82356 0.32076 0.0
H4225 H 0.70366 0.82422 0.46011 0.0
H4226 H 0.68226 0.82206 0.48523 0.0
C4227 C 0.62937 0.81856 0.31639 0.0
C4228 C 0.66219 0.83977 0.3671 0.0
H4229 H 0.685 0.83015 0.39661 0.0
C4230 C 0.66085 0.84499 0.40608 0.0
C4231 C 0.67142 0.83481 0.36376 0.0
C4232 C 0.67447 0.83022 0.32266 0.0
C4233 C 0.66856 0.84549 0.44126 0.0
C4234 C 0.67747 0.84017 0.43803 0.0
C4235 C 0.67833 0.83443 0.3996 0.0
C4236 C 0.68819 0.84301 0.46984 0.0
C4237 C 0.66705 0.85155 0.48166 0.0
C4238 C 0.69973 0.85622 0.46644 0.0
C4239 C 0.71196 0.85737 0.45167 0.0
C4240 C 0.71187 0.84523 0.4406 0.0
C4241 C 0.70301 0.83341 0.46347 0.0
C4242 C 0.69074 0.8322 0.47831 0.0
H4243 H 0.65719 0.85158 0.48282 0.0
H4244 H 0.66764 0.84578 0.5091 0.0
H4245 H 0.67553 0.86233 0.48424 0.0
H4246 H 0.69846 0.86513 0.46389 0.0
H4247 H 0.7196 0.86711 0.43853 0.0
H4248 H 0.19397 0.87236 0.46794 0.0
H4249 H 0.17824 0.84917 0.48914 0.0
H4250 H 0.14463 0.85681 0.47678 0.0
H4251 H 0.16068 0.88005 0.45298 0.0
H4252 H 0.15818 0.82613 0.48555 0.0
H4253 H 0.13635 0.84782 0.41369 0.0
H4254 H 0.13984 0.84682 0.35966 0.0
H4255 H 0.15249 0.86041 0.39058 0.0
C4256 C 0.18329 0.86941 0.47205 0.0
C4257 C 0.17797 0.87677 0.45165 0.0
C4258 C 0.1741 0.85592 0.48401 0.0
C4259 C 0.16001 0.85061 0.47562 0.0
C4260 C 0.15546 0.86019 0.47603 0.0
H4261 H 0.13233 0.79315 0.27682 0.0
H4262 H 0.14021 0.81543 0.30754 0.0
C4263 C 0.16473 0.87368 0.46349 0.0
C4264 C 0.15397 0.83889 0.44527 0.0
H4265 H 0.15193 0.83623 0.33865 0.0
C4266 C 0.15627 0.82795 0.45347 0.0
C4267 C 0.15075 0.84067 0.4033 0.0
C4268 C 0.14456 0.84942 0.39139 0.0
C4269 C 0.15741 0.82015 0.42105 0.0
C4270 C 0.1567 0.82371 0.37848 0.0
C4271 C 0.15314 0.8338 0.37072 0.0
C4272 C 0.15712 0.8156 0.34199 0.0
C4273 C 0.15954 0.80839 0.43388 0.0
C4274 C 0.16557 0.80966 0.34197 0.0
C4275 C 0.16028 0.79642 0.3253 0.0
C4276 C 0.14651 0.78958 0.31231 0.0
C4277 C 0.14199 0.79788 0.29363 0.0
C4278 C 0.14648 0.81073 0.31184 0.0
H4279 H 0.17057 0.81162 0.43115 0.0
H4280 H 0.15652 0.80529 0.46701 0.0
H4281 H 0.15349 0.79921 0.41422 0.0
H4282 H 0.17494 0.81407 0.36013 0.0
H4283 H 0.1653 0.79065 0.33335 0.0
H4284 H 0.21288 0.34938 0.28084 0.0
H4285 H 0.19178 0.33175 0.24923 0.0
H4286 H 0.17085 0.35236 0.29519 0.0
H4287 H 0.19185 0.36989 0.32576 0.0
H4288 H 0.18438 0.32471 0.32862 0.0
H4289 H 0.13869 0.31964 0.25017 0.0
H4290 H 0.1557 0.33189 0.23179 0.0
H4291 H 0.14756 0.33641 0.27271 0.0
C4292 C 0.20406 0.35082 0.28083 0.0
C4293 C 0.20342 0.36005 0.30904 0.0
C4294 C 0.19188 0.34065 0.26262 0.0
C4295 C 0.17947 0.33992 0.27417 0.0
C4296 C 0.18011 0.35209 0.28821 0.0
H4297 H 0.13046 0.32181 0.45475 0.0
H4298 H 0.152 0.32408 0.43089 0.0
C4299 C 0.19229 0.36229 0.30596 0.0
C4300 C 0.16895 0.32717 0.29509 0.0
H4301 H 0.13564 0.31243 0.32586 0.0
C4302 C 0.17361 0.32163 0.3267 0.0
C4303 C 0.15488 0.32304 0.29338 0.0
C4304 C 0.14898 0.32803 0.25981 0.0
C4305 C 0.165 0.3136 0.35929 0.0
C4306 C 0.15135 0.31067 0.35951 0.0
C4307 C 0.14625 0.31482 0.32562 0.0
C4308 C 0.1424 0.30497 0.39636 0.0
C4309 C 0.17073 0.30918 0.39489 0.0
C4310 C 0.13027 0.29249 0.39074 0.0
C4311 C 0.11793 0.29137 0.40334 0.0
C4312 C 0.11787 0.30259 0.42252 0.0
C4313 C 0.13023 0.31316 0.43901 0.0
C4314 C 0.14261 0.31445 0.42543 0.0
H4315 H 0.18089 0.31039 0.38703 0.0
H4316 H 0.17192 0.31554 0.42291 0.0
H4317 H 0.16353 0.2983 0.40322 0.0
H4318 H 0.12998 0.28498 0.36887 0.0
H4319 H 0.10877 0.28321 0.38925 0.0
H4320 H 0.15261 0.28744 0.8987 0.0
H4321 H 0.14326 0.29932 0.93737 0.0
H4322 H 0.18036 0.32117 0.00745 0.0
H4323 H 0.19001 0.30889 0.97008 0.0
H4324 H 0.14454 0.32107 0.94575 0.0
H4325 H 0.19234 0.34011 0.96897 0.0
H4326 H 0.19965 0.34802 0.91996 0.0
H4327 H 0.19509 0.33062 0.92757 0.0
C4328 C 0.1586 0.29423 0.924 0.0
C4329 C 0.17253 0.29845 0.92854 0.0
C4330 C 0.15333 0.30119 0.9464 0.0
C4331 C 0.16285 0.3136 0.96598 0.0
C4332 C 0.17407 0.31344 0.9847 0.0
H4333 H 0.18638 0.38094 0.82357 0.0
H4334 H 0.18903 0.36117 0.83069 0.0
C4335 C 0.1795 0.30626 0.96387 0.0
C4336 C 0.16544 0.32597 0.94079 0.0
H4337 H 0.1863 0.34229 0.85797 0.0
C4338 C 0.15382 0.32637 0.9271 0.0
C4339 C 0.17774 0.33359 0.91739 0.0
C4340 C 0.19189 0.33823 0.93476 0.0
C4341 C 0.15338 0.33198 0.8881 0.0
C4342 C 0.16526 0.33767 0.86133 0.0
C4343 C 0.17707 0.33793 0.87682 0.0
C4344 C 0.16706 0.34633 0.82306 0.0
C4345 C 0.13983 0.33099 0.87702 0.0
C4346 C 0.15561 0.34521 0.80167 0.0
C4347 C 0.15416 0.3569 0.8002 0.0
C4348 C 0.16435 0.36888 0.81963 0.0
C4349 C 0.17766 0.37099 0.81614 0.0
C4350 C 0.17912 0.35941 0.82064 0.0
H4351 H 0.13504 0.32386 0.8503 0.0
H4352 H 0.13232 0.32689 0.9032 0.0
H4353 H 0.14113 0.34115 0.86929 0.0
H4354 H 0.14687 0.33529 0.79459 0.0
H4355 H 0.14396 0.35533 0.79643 0.0
H4356 H 0.69437 0.876 0.91634 0.0
H4357 H 0.67044 0.85921 0.90582 0.0
H4358 H 0.68032 0.8269 0.9202 0.0
H4359 H 0.70358 0.84363 0.93628 0.0
H4360 H 0.67087 0.85089 0.83397 0.0
H4361 H 0.6419 0.80347 0.92451 0.0
H4362 H 0.65551 0.81861 0.94871 0.0
H4363 H 0.659 0.80655 0.92153 0.0
C4364 C 0.69115 0.86532 0.92178 0.0
C4365 C 0.70082 0.86092 0.92346 0.0
C4366 C 0.67742 0.85563 0.91468 0.0
C4367 C 0.6737 0.8418 0.90907 0.0
C4368 C 0.68274 0.83745 0.92331 0.0
H4369 H 0.61969 0.77615 0.79529 0.0
H4370 H 0.64052 0.79388 0.76323 0.0
C4371 C 0.69625 0.84714 0.93264 0.0
C4372 C 0.66347 0.83356 0.87647 0.0
H4373 H 0.64149 0.80069 0.84843 0.0
C4374 C 0.66401 0.83995 0.83777 0.0
C4375 C 0.65495 0.81923 0.88016 0.0
C4376 C 0.65277 0.81168 0.9212 0.0
C4377 C 0.65602 0.83245 0.80335 0.0
C4378 C 0.6476 0.81812 0.80703 0.0
C4379 C 0.64778 0.8117 0.84493 0.0
C4380 C 0.63605 0.81002 0.77767 0.0
C4381 C 0.65662 0.83994 0.76348 0.0
C4382 C 0.62505 0.81248 0.78262 0.0
C4383 C 0.61301 0.80218 0.80108 0.0
C4384 C 0.61261 0.78999 0.81332 0.0
C4385 C 0.62055 0.78599 0.78985 0.0
C4386 C 0.6326 0.79628 0.77114 0.0
H4387 H 0.6669 0.84919 0.75931 0.0
H4388 H 0.65423 0.83322 0.73559 0.0
H4389 H 0.64901 0.84345 0.76532 0.0
H4390 H 0.62687 0.82288 0.78353 0.0
H4391 H 0.6061 0.80509 0.81533 0.0
H4392 H 0.137 0.8568 0.937 0.0
H4393 H 0.1578 0.85567 0.93559 0.0
H4394 H 0.13393 0.81181 0.95301 0.0
H4395 H 0.1131 0.81346 0.94881 0.0
H4396 H 0.17399 0.8492 0.92598 0.0
H4397 H 0.13297 0.80507 0.83546 0.0
H4398 H 0.12776 0.81363 0.87138 0.0
H4399 H 0.13446 0.80303 0.89028 0.0
C4400 C 0.13621 0.8469 0.94194 0.0
C4401 C 0.12408 0.83489 0.93108 0.0
C4402 C 0.14828 0.84621 0.94097 0.0
C4403 C 0.14719 0.83319 0.93576 0.0
C4404 C 0.13484 0.82179 0.94926 0.0
H4405 H 0.1896 0.80843 0.80971 0.0
H4406 H 0.16933 0.81029 0.80331 0.0
C4407 C 0.12291 0.82281 0.94795 0.0
C4408 C 0.15573 0.83188 0.902 0.0
H4409 H 0.15361 0.81782 0.80507 0.0
C4410 C 0.16952 0.84224 0.89969 0.0
C4411 C 0.14994 0.8228 0.86701 0.0
C4412 C 0.13553 0.81056 0.86599 0.0
C4413 C 0.17757 0.84425 0.86395 0.0
C4414 C 0.1719 0.83492 0.82956 0.0
C4415 C 0.15802 0.8248 0.83137 0.0
C4416 C 0.18059 0.8327 0.79854 0.0
C4417 C 0.19186 0.85667 0.86415 0.0
C4418 C 0.19331 0.8436 0.78499 0.0
C4419 C 0.20493 0.84215 0.78965 0.0
C4420 C 0.20316 0.83034 0.81014 0.0
C4421 C 0.19087 0.8183 0.80091 0.0
C4422 C 0.1791 0.81944 0.79755 0.0
H4423 H 0.19409 0.86287 0.89321 0.0
H4424 H 0.19979 0.85366 0.86175 0.0
H4425 H 0.19299 0.86351 0.83754 0.0
H4426 H 0.19464 0.85362 0.77837 0.0
H4427 H 0.21496 0.85117 0.78818 0.0
H4428 H 0.29154 0.17096 0.63214 0.0
H4429 H 0.31389 0.17312 0.6202 0.0
H4430 H 0.29743 0.13111 0.65899 0.0
H4431 H 0.27533 0.12929 0.66975 0.0
H4432 H 0.31232 0.1699 0.70815 0.0
H4433 H 0.33727 0.1423 0.64307 0.0
H4434 H 0.32518 0.14495 0.61306 0.0
H4435 H 0.31924 0.13115 0.65047 0.0
C4436 C 0.29249 0.16193 0.63531 0.0
C4437 C 0.28314 0.15093 0.66016 0.0
C4438 C 0.30533 0.16314 0.6282 0.0
C4439 C 0.30771 0.15284 0.64414 0.0
C4440 C 0.29621 0.13969 0.64968 0.0
H4441 H 0.36758 0.15344 0.78633 0.0
H4442 H 0.34365 0.14682 0.7964 0.0
C4443 C 0.28342 0.13864 0.6559 0.0
C4444 C 0.31867 0.15701 0.67605 0.0
H4445 H 0.34219 0.14941 0.71459 0.0
C4446 C 0.31888 0.16541 0.70927 0.0
C4447 C 0.32699 0.15098 0.67862 0.0
C4448 C 0.32725 0.14193 0.64419 0.0
C4449 C 0.32687 0.16765 0.74516 0.0
C4450 C 0.33552 0.16197 0.74731 0.0
C4451 C 0.33536 0.15359 0.71397 0.0
C4452 C 0.34682 0.16679 0.77838 0.0
C4453 C 0.32567 0.17588 0.78054 0.0
C4454 C 0.35686 0.18082 0.77672 0.0
C4455 C 0.37059 0.18436 0.77208 0.0
C4456 C 0.37322 0.17363 0.76394 0.0
C4457 C 0.36485 0.16132 0.78526 0.0
C4458 C 0.3511 0.15754 0.79127 0.0
H4459 H 0.3147 0.17231 0.78668 0.0
H4460 H 0.33038 0.175 0.81012 0.0
H4461 H 0.33062 0.18684 0.77116 0.0
H4462 H 0.35413 0.18857 0.76971 0.0
H4463 H 0.3778 0.19467 0.7616 0.0
H4464 H 0.83774 0.21359 0.77457 0.0
H4465 H 0.85232 0.20361 0.76088 0.0
H4466 H 0.81628 0.16438 0.73976 0.0
H4467 H 0.80195 0.17458 0.75187 0.0
H4468 H 0.85594 0.17926 0.76386 0.0
H4469 H 0.83117 0.18453 0.61984 0.0
H4470 H 0.8326 0.19366 0.6679 0.0
H4471 H 0.81996 0.1758 0.66297 0.0
C4472 C 0.83296 0.20272 0.76909 0.0
C4473 C 0.81917 0.19526 0.75688 0.0
C4474 C 0.84131 0.19707 0.76126 0.0
C4475 C 0.83533 0.18365 0.74603 0.0
C4476 C 0.82109 0.17502 0.74951 0.0
H4477 H 0.82357 0.12648 0.65529 0.0
H4478 H 0.8315 0.14872 0.62484 0.0
C4479 C 0.81289 0.18086 0.75711 0.0
C4480 C 0.84307 0.18021 0.7161 0.0
H4481 H 0.84388 0.17315 0.61269 0.0
C4482 C 0.8533 0.17779 0.73081 0.0
C4483 C 0.84056 0.17977 0.67248 0.0
C4484 C 0.83058 0.18371 0.65457 0.0
C4485 C 0.85962 0.17279 0.70386 0.0
C4486 C 0.8549 0.16947 0.66147 0.0
C4487 C 0.84685 0.17477 0.64547 0.0
C4488 C 0.85296 0.15658 0.64141 0.0
C4489 C 0.87079 0.17071 0.72239 0.0
C4490 C 0.86247 0.15221 0.64866 0.0
C4491 C 0.85782 0.13951 0.66821 0.0
C4492 C 0.84372 0.13099 0.67528 0.0
C4493 C 0.83453 0.13327 0.65201 0.0
C4494 C 0.83921 0.14622 0.63454 0.0
H4495 H 0.87488 0.17655 0.75203 0.0
H4496 H 0.8667 0.15973 0.73005 0.0
H4497 H 0.87952 0.17429 0.70033 0.0
H4498 H 0.87335 0.15943 0.64794 0.0
H4499 H 0.86519 0.13751 0.68386 0.0
H4500 H 0.8549 0.69247 0.59806 0.0
H4501 H 0.84442 0.66849 0.57787 0.0
H4502 H 0.87446 0.66449 0.64978 0.0
H4503 H 0.88513 0.6883 0.66944 0.0
H4504 H 0.84328 0.67022 0.66903 0.0
H4505 H 0.84476 0.62328 0.62619 0.0
H4506 H 0.86108 0.63857 0.63457 0.0
H4507 H 0.8506 0.63783 0.59117 0.0
C4508 C 0.86002 0.68683 0.60653 0.0
C4509 C 0.87032 0.69199 0.63731 0.0
C4510 C 0.85408 0.673 0.59463 0.0
C4511 C 0.85762 0.66444 0.61734 0.0
C4512 C 0.8708 0.67071 0.63488 0.0
H4513 H 0.78385 0.61121 0.69448 0.0
H4514 H 0.80639 0.61447 0.68233 0.0
C4515 C 0.87697 0.68453 0.64638 0.0
C4516 C 0.84682 0.65438 0.64587 0.0
H4517 H 0.83171 0.62202 0.68677 0.0
C4518 C 0.84091 0.65974 0.67296 0.0
C4519 C 0.8439 0.64076 0.65184 0.0
C4520 C 0.85034 0.63467 0.62432 0.0
C4521 C 0.83222 0.6522 0.70552 0.0
C4522 C 0.82841 0.63814 0.71026 0.0
C4523 C 0.83456 0.63272 0.68358 0.0
C4524 C 0.81583 0.62854 0.73432 0.0
C4525 C 0.82714 0.65971 0.73304 0.0
C4526 C 0.81289 0.63256 0.77293 0.0
C4527 C 0.80008 0.63164 0.77805 0.0
C4528 C 0.79013 0.62538 0.74657 0.0
C4529 C 0.79167 0.61679 0.71784 0.0
C4530 C 0.80471 0.61865 0.71086 0.0
H4531 H 0.83064 0.66011 0.76576 0.0
H4532 H 0.83102 0.6705 0.72312 0.0
H4533 H 0.81586 0.65458 0.73216 0.0
H4534 H 0.8211 0.63896 0.79426 0.0
H4535 H 0.79894 0.63783 0.80195 0.0
H4536 H 0.80753 0.6278 0.24824 0.0
H4537 H 0.82114 0.64904 0.28588 0.0
H4538 H 0.85002 0.63618 0.31962 0.0
H4539 H 0.83597 0.61451 0.28188 0.0
H4540 H 0.84152 0.66624 0.3466 0.0
H4541 H 0.8641 0.65695 0.20311 0.0
H4542 H 0.84634 0.64547 0.21503 0.0
H4543 H 0.85946 0.6456 0.24723 0.0
C4544 C 0.81632 0.62905 0.26587 0.0
C4545 C 0.82209 0.62077 0.25736 0.0
C4546 C 0.82416 0.64129 0.28751 0.0
C4547 C 0.83731 0.64466 0.30158 0.0
C4548 C 0.84041 0.63411 0.30583 0.0
H4549 H 0.86132 0.72672 0.25958 0.0
H4550 H 0.87305 0.7137 0.27151 0.0
C4551 C 0.83247 0.62182 0.28407 0.0
C4552 C 0.84828 0.65901 0.29486 0.0
H4553 H 0.86623 0.67852 0.21064 0.0
C4554 C 0.84758 0.66917 0.31807 0.0
C4555 C 0.85603 0.66268 0.25705 0.0
C4556 C 0.8566 0.65215 0.22907 0.0
C4557 C 0.85249 0.68235 0.30149 0.0
C4558 C 0.85887 0.68556 0.2614 0.0
C4559 C 0.86149 0.67605 0.24142 0.0
C4560 C 0.85851 0.69623 0.23518 0.0
C4561 C 0.84886 0.69191 0.32415 0.0
C4562 C 0.84811 0.69169 0.20468 0.0
C4563 C 0.8416 0.69924 0.19703 0.0
C4564 C 0.84546 0.71116 0.22036 0.0
C4565 C 0.85796 0.71727 0.24232 0.0
C4566 C 0.86465 0.70982 0.24931 0.0
H4567 H 0.84349 0.68756 0.3543 0.0
H4568 H 0.8583 0.70178 0.33101 0.0
H4569 H 0.84206 0.69405 0.3042 0.0
H4570 H 0.84347 0.68135 0.19231 0.0
H4571 H 0.83215 0.69452 0.1791 0.0
H4572 H 0.3829 0.18802 0.26167 0.0
H4573 H 0.35924 0.16984 0.25846 0.0
H4574 H 0.34625 0.19993 0.25226 0.0
H4575 H 0.36999 0.21794 0.2489 0.0
H4576 H 0.3335 0.1573 0.26219 0.0
H4577 H 0.34526 0.20042 0.1783 0.0
H4578 H 0.34769 0.19415 0.12941 0.0
H4579 H 0.35919 0.197 0.17202 0.0
C4580 C 0.37497 0.19081 0.26236 0.0
C4581 C 0.37807 0.20407 0.25066 0.0
C4582 C 0.36135 0.18033 0.26019 0.0
C4583 C 0.3512 0.18367 0.25028 0.0
C4584 C 0.35417 0.19724 0.25627 0.0
H4585 H 0.27793 0.14461 0.13676 0.0
H4586 H 0.30201 0.16193 0.13556 0.0
C4587 C 0.36788 0.20765 0.25579 0.0
C4588 C 0.34023 0.17455 0.22092 0.0
H4589 H 0.32809 0.1729 0.12147 0.0
C4590 C 0.33225 0.16068 0.23147 0.0
C4591 C 0.33914 0.17894 0.17988 0.0
C4592 C 0.34834 0.19339 0.16399 0.0
C4593 C 0.32288 0.15111 0.20305 0.0
C4594 C 0.32115 0.15567 0.16299 0.0
C4595 C 0.32942 0.16947 0.15203 0.0
C4596 C 0.30907 0.14712 0.13635 0.0
C4597 C 0.31492 0.13631 0.2171 0.0
C4598 C 0.30509 0.13341 0.12746 0.0
C4599 C 0.29112 0.12363 0.12895 0.0
C4600 C 0.28197 0.12786 0.1425 0.0
C4601 C 0.28534 0.14129 0.13185 0.0
C4602 C 0.29923 0.15128 0.13174 0.0
H4603 H 0.31813 0.13008 0.19843 0.0
H4604 H 0.31666 0.13503 0.25069 0.0
H4605 H 0.30381 0.13209 0.21268 0.0
H4606 H 0.31256 0.13004 0.12684 0.0
H4607 H 0.28834 0.11304 0.13109 0.0
H4608 H 0.84409 0.15991 0.15575 0.0
H4609 H 0.83742 0.17701 0.16779 0.0
H4610 H 0.87869 0.20612 0.2067 0.0
H4611 H 0.88517 0.1888 0.19596 0.0
H4612 H 0.86316 0.20095 0.26967 0.0
H4613 H 0.8362 0.21092 0.14596 0.0
H4614 H 0.83081 0.19315 0.13986 0.0
H4615 H 0.84874 0.20587 0.13346 0.0
C4616 C 0.85194 0.17021 0.16433 0.0
C4617 C 0.86511 0.17293 0.17538 0.0
C4618 C 0.84815 0.18012 0.17105 0.0
C4619 C 0.85753 0.19294 0.18865 0.0
C4620 C 0.87125 0.19634 0.19328 0.0
H4621 H 0.78738 0.1752 0.24377 0.0
H4622 H 0.80638 0.19635 0.26912 0.0
C4623 C 0.87499 0.18637 0.18683 0.0
C4624 C 0.85202 0.20027 0.21345 0.0
H4625 H 0.82194 0.20014 0.21247 0.0
C4626 C 0.85439 0.20129 0.25702 0.0
C4627 C 0.84124 0.20196 0.19784 0.0
C4628 C 0.83928 0.20309 0.15157 0.0
C4629 C 0.84429 0.20027 0.28487 0.0
C4630 C 0.8316 0.19781 0.26845 0.0
C4631 C 0.83114 0.20086 0.22573 0.0
C4632 C 0.81842 0.18708 0.28736 0.0
C4633 C 0.84663 0.20013 0.33128 0.0
C4634 C 0.81755 0.17451 0.29828 0.0
C4635 C 0.80612 0.16215 0.28632 0.0
C4636 C 0.79555 0.16234 0.2637 0.0
C4637 C 0.79505 0.17455 0.26228 0.0
C4638 C 0.80624 0.18684 0.27611 0.0
H4639 H 0.85594 0.20987 0.33995 0.0
H4640 H 0.83786 0.19911 0.35004 0.0
H4641 H 0.84861 0.19166 0.33917 0.0
H4642 H 0.82651 0.17407 0.30834 0.0
H4643 H 0.80664 0.15281 0.28835 0.0
loop_
_geom_bond_atom_site_label_1
_geom_bond_atom_site_label_2
_geom_bond_distance
_geom_bond_site_symmetry_2
_ccdc_geom_bond_type
O0 Mg1 1.990 . S
O0 C14 1.253 . S
Mg1 O0 1.990 . S
Mg1 O4 2.180 . S
Mg1 O5 2.117 . S
Mg1 O19 2.030 . S
O2 Mg3 2.072 . S
O2 C14 1.260 . S
Mg3 O2 2.072 . S
Mg3 O4 2.099 . S
Mg3 O6 2.079 1_554 S
Mg3 O7 2.072 1_554 S
Mg3 O9 2.099 . S
Mg3 O20 2.079 . S
O4 Mg1 2.180 . S
O4 Mg3 2.099 . S
O4 C15 1.279 . S
O5 Mg1 2.117 . S
O5 C15 1.250 . S
O6 Mg3 2.079 1_556 S
O6 C16 1.264 . S
O7 Mg3 2.072 1_556 S
O7 C17 1.260 . S
Mg8 O9 2.180 1_556 S
Mg8 O10 2.030 . S
Mg8 O11 1.990 . S
Mg8 O12 2.117 . S
O9 Mg3 2.099 . S
O9 Mg8 2.180 1_554 S
O9 C18 1.279 . S
O10 Mg8 2.030 . S
O10 C16 1.248 . S
O11 Mg8 1.990 . S
O11 C17 1.253 . S
O12 Mg8 2.117 . S
O12 C18 1.250 1_556 S
C13 O19 1.248 . S
C13 O20 1.264 . S
C14 O0 1.253 . S
C14 O2 1.260 . S
C15 O4 1.279 . S
C15 O5 1.250 . S
C16 O6 1.264 . S
C16 O10 1.248 . S
C17 O7 1.260 . S
C17 O11 1.253 . S
C18 O9 1.279 . S
C18 O12 1.250 1_554 S
O19 Mg1 2.030 . S
O19 C13 1.248 . S
O20 Mg3 2.079 . S
O20 C13 1.264 . S
O21 Mg22 1.990 . S
O21 C35 1.253 . S
Mg22 O21 1.990 . S
Mg22 O25 2.180 . S
Mg22 O26 2.117 . S
Mg22 O40 2.030 . S
O23 Mg24 2.072 . S
O23 C35 1.260 . S
Mg24 O23 2.072 . S
Mg24 O25 2.099 . S
Mg24 O27 2.079 1_554 S
Mg24 O28 2.072 1_554 S
Mg24 O30 2.099 . S
Mg24 O41 2.079 . S
O25 Mg22 2.180 . S
O25 Mg24 2.099 . S
O25 C36 1.279 . S
O26 Mg22 2.117 . S
O26 C36 1.250 . S
O27 Mg24 2.079 1_556 S
O27 C37 1.264 . S
O28 Mg24 2.072 1_556 S
O28 C38 1.260 . S
Mg29 O30 2.180 1_556 S
Mg29 O31 2.030 . S
Mg29 O32 1.990 . S
Mg29 O33 2.117 . S
O30 Mg24 2.099 . S
O30 Mg29 2.180 1_554 S
O30 C39 1.279 . S
O31 Mg29 2.030 . S
O31 C37 1.248 . S
O32 Mg29 1.990 . S
O32 C38 1.253 . S
O33 Mg29 2.117 . S
O33 C39 1.250 1_556 S
C34 O40 1.248 . S
C34 O41 1.264 . S
C35 O21 1.253 . S
C35 O23 1.260 . S
C36 O25 1.279 . S
C36 O26 1.250 . S
C37 O27 1.264 . S
C37 O31 1.248 . S
C38 O28 1.260 . S
C38 O32 1.253 . S
C39 O30 1.279 . S
C39 O33 1.250 1_554 S
O40 Mg22 2.030 . S
O40 C34 1.248 . S
O41 Mg24 2.079 . S
O41 C34 1.264 . S
O42 Mg43 1.990 . S
O42 C56 1.253 . S
Mg43 O42 1.990 . S
Mg43 O46 2.180 . S
Mg43 O47 2.117 . S
Mg43 O61 2.030 . S
O44 Mg45 2.072 . S
O44 C56 1.260 . S
Mg45 O44 2.072 . S
Mg45 O46 2.099 . S
Mg45 O48 2.079 1_554 S
Mg45 O49 2.072 1_554 S
Mg45 O51 2.099 . S
Mg45 O62 2.079 . S
O46 Mg43 2.180 . S
O46 Mg45 2.099 . S
O46 C57 1.279 . S
O47 Mg43 2.117 . S
O47 C57 1.250 . S
O48 Mg45 2.079 1_556 S
O48 C58 1.264 . S
O49 Mg45 2.072 1_556 S
O49 C59 1.260 . S
Mg50 O51 2.180 1_556 S
Mg50 O52 2.030 . S
Mg50 O53 1.990 . S
Mg50 O54 2.117 . S
O51 Mg45 2.099 . S
O51 Mg50 2.180 1_554 S
O51 C60 1.279 . S
O52 Mg50 2.030 . S
O52 C58 1.248 . S
O53 Mg50 1.990 . S
O53 C59 1.253 . S
O54 Mg50 2.117 . S
O54 C60 1.250 1_556 S
C55 O61 1.248 . S
C55 O62 1.264 . S
C56 O42 1.253 . S
C56 O44 1.260 . S
C57 O46 1.279 . S
C57 O47 1.250 . S
C58 O48 1.264 . S
C58 O52 1.248 . S
C59 O49 1.260 . S
C59 O53 1.253 . S
C60 O51 1.279 . S
C60 O54 1.250 1_554 S
O61 Mg43 2.030 . S
O61 C55 1.248 . S
O62 Mg45 2.079 . S
O62 C55 1.264 . S
O63 Mg64 1.990 . S
O63 C77 1.253 . S
Mg64 O63 1.990 . S
Mg64 O67 2.180 . S
Mg64 O68 2.117 . S
Mg64 O82 2.030 . S
O65 Mg66 2.072 . S
O65 C77 1.260 . S
Mg66 O65 2.072 . S
Mg66 O67 2.099 . S
Mg66 O69 2.079 . S
Mg66 O70 2.072 . S
Mg66 O72 2.099 . S
Mg66 O83 2.079 . S
O67 Mg64 2.180 . S
O67 Mg66 2.099 . S
O67 C78 1.279 . S
O68 Mg64 2.117 . S
O68 C78 1.250 . S
O69 Mg66 2.079 . S
O69 C79 1.264 . S
O70 Mg66 2.072 . S
O70 C80 1.260 . S
Mg71 O72 2.180 . S
Mg71 O73 2.030 . S
Mg71 O74 1.990 . S
Mg71 O75 2.117 . S
O72 Mg66 2.099 . S
O72 Mg71 2.180 . S
O72 C81 1.279 . S
O73 Mg71 2.030 . S
O73 C79 1.248 . S
O74 Mg71 1.990 . S
O74 C80 1.253 . S
O75 Mg71 2.117 . S
O75 C81 1.250 . S
C76 O82 1.248 . S
C76 O83 1.264 . S
C77 O63 1.253 . S
C77 O65 1.260 . S
C78 O67 1.279 . S
C78 O68 1.250 . S
C79 O69 1.264 . S
C79 O73 1.248 . S
C80 O70 1.260 . S
C80 O74 1.253 . S
C81 O72 1.279 . S
C81 O75 1.250 . S
O82 Mg64 2.030 . S
O82 C76 1.248 . S
O83 Mg66 2.079 . S
O83 C76 1.264 . S
O84 Mg85 1.990 . S
O84 C98 1.253 . S
Mg85 O84 1.990 . S
Mg85 O88 2.180 . S
Mg85 O89 2.117 . S
Mg85 O103 2.030 . S
O86 Mg87 2.072 . S
O86 C98 1.260 . S
Mg87 O86 2.072 . S
Mg87 O88 2.099 . S
Mg87 O90 2.079 . S
Mg87 O91 2.072 . S
Mg87 O93 2.099 . S
Mg87 O104 2.079 . S
O88 Mg85 2.180 . S
O88 Mg87 2.099 . S
O88 C99 1.279 . S
O89 Mg85 2.117 . S
O89 C99 1.250 . S
O90 Mg87 2.079 . S
O90 C100 1.264 . S
O91 Mg87 2.072 . S
O91 C101 1.260 . S
Mg92 O93 2.180 . S
Mg92 O94 2.030 . S
Mg92 O95 1.990 . S
Mg92 O96 2.117 . S
O93 Mg87 2.099 . S
O93 Mg92 2.180 . S
O93 C102 1.279 . S
O94 Mg92 2.030 . S
O94 C100 1.248 . S
O95 Mg92 1.990 . S
O95 C101 1.253 . S
O96 Mg92 2.117 . S
O96 C102 1.250 . S
C97 O103 1.248 . S
C97 O104 1.264 . S
C98 O84 1.253 . S
C98 O86 1.260 . S
C99 O88 1.279 . S
C99 O89 1.250 . S
C100 O90 1.264 . S
C100 O94 1.248 . S
C101 O91 1.260 . S
C101 O95 1.253 . S
C102 O93 1.279 . S
C102 O96 1.250 . S
O103 Mg85 2.030 . S
O103 C97 1.248 . S
O104 Mg87 2.079 . S
O104 C97 1.264 . S
O105 Mg106 1.990 . S
O105 C119 1.253 . S
Mg106 O105 1.990 . S
Mg106 O109 2.180 . S
Mg106 O110 2.117 . S
Mg106 O124 2.030 . S
O107 Mg108 2.072 . S
O107 C119 1.260 . S
Mg108 O107 2.072 . S
Mg108 O109 2.099 . S
Mg108 O111 2.079 . S
Mg108 O112 2.072 . S
Mg108 O114 2.099 . S
Mg108 O125 2.079 . S
O109 Mg106 2.180 . S
O109 Mg108 2.099 . S
O109 C120 1.279 . S
O110 Mg106 2.117 . S
O110 C120 1.250 . S
O111 Mg108 2.079 . S
O111 C121 1.264 . S
O112 Mg108 2.072 . S
O112 C122 1.260 . S
Mg113 O114 2.180 . S
Mg113 O115 2.030 . S
Mg113 O116 1.990 . S
Mg113 O117 2.117 . S
O114 Mg108 2.099 . S
O114 Mg113 2.180 . S
O114 C123 1.279 . S
O115 Mg113 2.030 . S
O115 C121 1.248 . S
O116 Mg113 1.990 . S
O116 C122 1.253 . S
O117 Mg113 2.117 . S
O117 C123 1.250 . S
C118 O124 1.248 . S
C118 O125 1.264 . S
C119 O105 1.253 . S
C119 O107 1.260 . S
C120 O109 1.279 . S
C120 O110 1.250 . S
C121 O111 1.264 . S
C121 O115 1.248 . S
C122 O112 1.260 . S
C122 O116 1.253 . S
C123 O114 1.279 . S
C123 O117 1.250 . S
O124 Mg106 2.030 . S
O124 C118 1.248 . S
O125 Mg108 2.079 . S
O125 C118 1.264 . S
O126 Mg127 1.990 . S
O126 C140 1.253 . S
Mg127 O126 1.990 . S
Mg127 O130 2.180 1_556 S
Mg127 O131 2.117 1_556 S
Mg127 O145 2.030 . S
O128 Mg129 2.072 . S
O128 C140 1.260 1_554 S
Mg129 O128 2.072 . S
Mg129 O130 2.099 . S
Mg129 O132 2.079 . S
Mg129 O133 2.072 . S
Mg129 O135 2.099 . S
Mg129 O146 2.079 . S
O130 Mg127 2.180 1_554 S
O130 Mg129 2.099 . S
O130 C141 1.279 . S
O131 Mg127 2.117 1_554 S
O131 C141 1.250 . S
O132 Mg129 2.079 . S
O132 C142 1.264 . S
O133 Mg129 2.072 . S
O133 C143 1.260 . S
Mg134 O135 2.180 . S
Mg134 O136 2.030 . S
Mg134 O137 1.990 . S
Mg134 O138 2.117 . S
O135 Mg129 2.099 . S
O135 Mg134 2.180 . S
O135 C144 1.279 . S
O136 Mg134 2.030 . S
O136 C142 1.248 . S
O137 Mg134 1.990 . S
O137 C143 1.253 . S
O138 Mg134 2.117 . S
O138 C144 1.250 . S
C139 O145 1.248 . S
C139 O146 1.264 1_556 S
C140 O126 1.253 . S
C140 O128 1.260 1_556 S
C141 O130 1.279 . S
C141 O131 1.250 . S
C142 O132 1.264 . S
C142 O136 1.248 . S
C143 O133 1.260 . S
C143 O137 1.253 . S
C144 O135 1.279 . S
C144 O138 1.250 . S
O145 Mg127 2.030 . S
O145 C139 1.248 . S
O146 Mg129 2.079 . S
O146 C139 1.264 1_554 S
O147 Mg148 1.990 . S
O147 C161 1.253 . S
Mg148 O147 1.990 . S
Mg148 O151 2.180 1_556 S
Mg148 O152 2.117 1_556 S
Mg148 O166 2.030 . S
O149 Mg150 2.072 . S
O149 C161 1.260 1_554 S
Mg150 O149 2.072 . S
Mg150 O151 2.099 . S
Mg150 O153 2.079 . S
Mg150 O154 2.072 . S
Mg150 O156 2.099 . S
Mg150 O167 2.079 . S
O151 Mg148 2.180 1_554 S
O151 Mg150 2.099 . S
O151 C162 1.279 . S
O152 Mg148 2.117 1_554 S
O152 C162 1.250 . S
O153 Mg150 2.079 . S
O153 C163 1.264 . S
O154 Mg150 2.072 . S
O154 C164 1.260 . S
Mg155 O156 2.180 . S
Mg155 O157 2.030 . S
Mg155 O158 1.990 . S
Mg155 O159 2.117 . S
O156 Mg150 2.099 . S
O156 Mg155 2.180 . S
O156 C165 1.279 . S
O157 Mg155 2.030 . S
O157 C163 1.248 . S
O158 Mg155 1.990 . S
O158 C164 1.253 . S
O159 Mg155 2.117 . S
O159 C165 1.250 . S
C160 O166 1.248 . S
C160 O167 1.264 1_556 S
C161 O147 1.253 . S
C161 O149 1.260 1_556 S
C162 O151 1.279 . S
C162 O152 1.250 . S
C163 O153 1.264 . S
C163 O157 1.248 . S
C164 O154 1.260 . S
C164 O158 1.253 . S
C165 O156 1.279 . S
C165 O159 1.250 . S
O166 Mg148 2.030 . S
O166 C160 1.248 . S
O167 Mg150 2.079 . S
O167 C160 1.264 1_554 S
O168 Mg169 1.990 . S
O168 C182 1.253 . S
Mg169 O168 1.990 . S
Mg169 O172 2.180 1_556 S
Mg169 O173 2.117 1_556 S
Mg169 O187 2.030 . S
O170 Mg171 2.072 . S
O170 C182 1.260 1_554 S
Mg171 O170 2.072 . S
Mg171 O172 2.099 . S
Mg171 O174 2.079 . S
Mg171 O175 2.072 . S
Mg171 O177 2.099 . S
Mg171 O188 2.079 . S
O172 Mg169 2.180 1_554 S
O172 Mg171 2.099 . S
O172 C183 1.279 . S
O173 Mg169 2.117 1_554 S
O173 C183 1.250 . S
O174 Mg171 2.079 . S
O174 C184 1.264 . S
O175 Mg171 2.072 . S
O175 C185 1.260 . S
Mg176 O177 2.180 . S
Mg176 O178 2.030 . S
Mg176 O179 1.990 . S
Mg176 O180 2.117 . S
O177 Mg171 2.099 . S
O177 Mg176 2.180 . S
O177 C186 1.279 . S
O178 Mg176 2.030 . S
O178 C184 1.248 . S
O179 Mg176 1.990 . S
O179 C185 1.253 . S
O180 Mg176 2.117 . S
O180 C186 1.250 . S
C181 O187 1.248 . S
C181 O188 1.264 1_556 S
C182 O168 1.253 . S
C182 O170 1.260 1_556 S
C183 O172 1.279 . S
C183 O173 1.250 . S
C184 O174 1.264 . S
C184 O178 1.248 . S
C185 O175 1.260 . S
C185 O179 1.253 . S
C186 O177 1.279 . S
C186 O180 1.250 . S
O187 Mg169 2.030 . S
O187 C181 1.248 . S
O188 Mg171 2.079 . S
O188 C181 1.264 1_554 S
O189 Mg190 1.990 . S
O189 C203 1.253 . S
Mg190 O189 1.990 . S
Mg190 O193 2.180 . S
Mg190 O194 2.117 . S
Mg190 O208 2.030 . S
O191 Mg192 2.072 . S
O191 C203 1.260 . S
Mg192 O191 2.072 . S
Mg192 O193 2.099 . S
Mg192 O195 2.079 . S
Mg192 O196 2.072 . S
Mg192 O198 2.099 . S
Mg192 O209 2.079 . S
O193 Mg190 2.180 . S
O193 Mg192 2.099 . S
O193 C204 1.279 . S
O194 Mg190 2.117 . S
O194 C204 1.250 . S
O195 Mg192 2.079 . S
O195 C205 1.264 . S
O196 Mg192 2.072 . S
O196 C206 1.260 . S
Mg197 O198 2.180 . S
Mg197 O199 2.030 . S
Mg197 O200 1.990 . S
Mg197 O201 2.117 . S
O198 Mg192 2.099 . S
O198 Mg197 2.180 . S
O198 C207 1.279 . S
O199 Mg197 2.030 . S
O199 C205 1.248 . S
O200 Mg197 1.990 . S
O200 C206 1.253 . S
O201 Mg197 2.117 . S
O201 C207 1.250 . S
C202 O208 1.248 . S
C202 O209 1.264 . S
C203 O189 1.253 . S
C203 O191 1.260 . S
C204 O193 1.279 . S
C204 O194 1.250 . S
C205 O195 1.264 . S
C205 O199 1.248 . S
C206 O196 1.260 . S
C206 O200 1.253 . S
C207 O198 1.279 . S
C207 O201 1.250 . S
O208 Mg190 2.030 . S
O208 C202 1.248 . S
O209 Mg192 2.079 . S
O209 C202 1.264 . S
O210 Mg211 1.990 . S
O210 C224 1.253 . S
Mg211 O210 1.990 . S
Mg211 O214 2.180 . S
Mg211 O215 2.117 . S
Mg211 O229 2.030 . S
O212 Mg213 2.072 . S
O212 C224 1.260 . S
Mg213 O212 2.072 . S
Mg213 O214 2.099 . S
Mg213 O216 2.079 . S
Mg213 O217 2.072 . S
Mg213 O219 2.099 . S
Mg213 O230 2.079 . S
O214 Mg211 2.180 . S
O214 Mg213 2.099 . S
O214 C225 1.279 . S
O215 Mg211 2.117 . S
O215 C225 1.250 . S
O216 Mg213 2.079 . S
O216 C226 1.264 . S
O217 Mg213 2.072 . S
O217 C227 1.260 . S
Mg218 O219 2.180 . S
Mg218 O220 2.030 . S
Mg218 O221 1.990 . S
Mg218 O222 2.117 . S
O219 Mg213 2.099 . S
O219 Mg218 2.180 . S
O219 C228 1.279 . S
O220 Mg218 2.030 . S
O220 C226 1.248 . S
O221 Mg218 1.990 . S
O221 C227 1.253 . S
O222 Mg218 2.117 . S
O222 C228 1.250 . S
C223 O229 1.248 . S
C223 O230 1.264 . S
C224 O210 1.253 . S
C224 O212 1.260 . S
C225 O214 1.279 . S
C225 O215 1.250 . S
C226 O216 1.264 . S
C226 O220 1.248 . S
C227 O217 1.260 . S
C227 O221 1.253 . S
C228 O219 1.279 . S
C228 O222 1.250 . S
O229 Mg211 2.030 . S
O229 C223 1.248 . S
O230 Mg213 2.079 . S
O230 C223 1.264 . S
O231 Mg232 1.990 . S
O231 C245 1.253 . S
Mg232 O231 1.990 . S
Mg232 O235 2.180 . S
Mg232 O236 2.117 . S
Mg232 O250 2.030 . S
O233 Mg234 2.072 . S
O233 C245 1.260 . S
Mg234 O233 2.072 . S
Mg234 O235 2.099 . S
Mg234 O237 2.079 . S
Mg234 O238 2.072 . S
Mg234 O240 2.099 . S
Mg234 O251 2.079 . S
O235 Mg232 2.180 . S
O235 Mg234 2.099 . S
O235 C246 1.279 . S
O236 Mg232 2.117 . S
O236 C246 1.250 . S
O237 Mg234 2.079 . S
O237 C247 1.264 . S
O238 Mg234 2.072 . S
O238 C248 1.260 . S
Mg239 O240 2.180 . S
Mg239 O241 2.030 . S
Mg239 O242 1.990 . S
Mg239 O243 2.117 . S
O240 Mg234 2.099 . S
O240 Mg239 2.180 . S
O240 C249 1.279 . S
O241 Mg239 2.030 . S
O241 C247 1.248 . S
O242 Mg239 1.990 . S
O242 C248 1.253 . S
O243 Mg239 2.117 . S
O243 C249 1.250 . S
C244 O250 1.248 . S
C244 O251 1.264 . S
C245 O231 1.253 . S
C245 O233 1.260 . S
C246 O235 1.279 . S
C246 O236 1.250 . S
C247 O237 1.264 . S
C247 O241 1.248 . S
C248 O238 1.260 . S
C248 O242 1.253 . S
C249 O240 1.279 . S
C249 O243 1.250 . S
O250 Mg232 2.030 . S
O250 C244 1.248 . S
O251 Mg234 2.079 . S
O251 C244 1.264 . S
O252 Mg253 1.990 . S
O252 C266 1.253 . S
Mg253 O252 1.990 . S
Mg253 O256 2.180 . S
Mg253 O257 2.117 . S
Mg253 O271 2.030 . S
O254 Mg255 2.072 . S
O254 C266 1.260 . S
Mg255 O254 2.072 . S
Mg255 O256 2.099 . S
Mg255 O258 2.079 . S
Mg255 O259 2.072 . S
Mg255 O261 2.099 . S
Mg255 O272 2.079 . S
O256 Mg253 2.180 . S
O256 Mg255 2.099 . S
O256 C267 1.279 . S
O257 Mg253 2.117 . S
O257 C267 1.250 . S
O258 Mg255 2.079 . S
O258 C268 1.264 . S
O259 Mg255 2.072 . S
O259 C269 1.260 . S
Mg260 O261 2.180 . S
Mg260 O262 2.030 . S
Mg260 O263 1.990 . S
Mg260 O264 2.117 . S
O261 Mg255 2.099 . S
O261 Mg260 2.180 . S
O261 C270 1.279 . S
O262 Mg260 2.030 . S
O262 C268 1.248 . S
O263 Mg260 1.990 . S
O263 C269 1.253 . S
O264 Mg260 2.117 . S
O264 C270 1.250 . S
C265 O271 1.248 . S
C265 O272 1.264 . S
C266 O252 1.253 . S
C266 O254 1.260 . S
C267 O256 1.279 . S
C267 O257 1.250 . S
C268 O258 1.264 . S
C268 O262 1.248 . S
C269 O259 1.260 . S
C269 O263 1.253 . S
C270 O261 1.279 . S
C270 O264 1.250 . S
O271 Mg253 2.030 . S
O271 C265 1.248 . S
O272 Mg255 2.079 . S
O272 C265 1.264 . S
O273 Mg274 1.990 . S
O273 C287 1.253 . S
Mg274 O273 1.990 . S
Mg274 O277 2.180 . S
Mg274 O278 2.117 . S
Mg274 O292 2.030 . S
O275 Mg276 2.072 . S
O275 C287 1.260 . S
Mg276 O275 2.072 . S
Mg276 O277 2.099 . S
Mg276 O279 2.079 . S
Mg276 O280 2.072 . S
Mg276 O282 2.099 . S
Mg276 O293 2.079 . S
O277 Mg274 2.180 . S
O277 Mg276 2.099 . S
O277 C288 1.279 . S
O278 Mg274 2.117 . S
O278 C288 1.250 . S
O279 Mg276 2.079 . S
O279 C289 1.264 . S
O280 Mg276 2.072 . S
O280 C290 1.260 . S
Mg281 O282 2.180 . S
Mg281 O283 2.030 . S
Mg281 O284 1.990 . S
Mg281 O285 2.117 . S
O282 Mg276 2.099 . S
O282 Mg281 2.180 . S
O282 C291 1.279 . S
O283 Mg281 2.030 . S
O283 C289 1.248 . S
O284 Mg281 1.990 . S
O284 C290 1.253 . S
O285 Mg281 2.117 . S
O285 C291 1.250 . S
C286 O292 1.248 . S
C286 O293 1.264 . S
C287 O273 1.253 . S
C287 O275 1.260 . S
C288 O277 1.279 . S
C288 O278 1.250 . S
C289 O279 1.264 . S
C289 O283 1.248 . S
C290 O280 1.260 . S
C290 O284 1.253 . S
C291 O282 1.279 . S
C291 O285 1.250 . S
O292 Mg274 2.030 . S
O292 C286 1.248 . S
O293 Mg276 2.079 . S
O293 C286 1.264 . S
O294 Mg295 1.990 . S
O294 C308 1.253 . S
Mg295 O294 1.990 . S
Mg295 O298 2.180 . S
Mg295 O299 2.117 . S
Mg295 O313 2.030 . S
O296 Mg297 2.072 . S
O296 C308 1.260 . S
Mg297 O296 2.072 . S
Mg297 O298 2.099 . S
Mg297 O300 2.079 . S
Mg297 O301 2.072 . S
Mg297 O303 2.099 . S
Mg297 O314 2.079 . S
O298 Mg295 2.180 . S
O298 Mg297 2.099 . S
O298 C309 1.279 . S
O299 Mg295 2.117 . S
O299 C309 1.250 . S
O300 Mg297 2.079 . S
O300 C310 1.264 . S
O301 Mg297 2.072 . S
O301 C311 1.260 . S
Mg302 O303 2.180 . S
Mg302 O304 2.030 . S
Mg302 O305 1.990 . S
Mg302 O306 2.117 . S
O303 Mg297 2.099 . S
O303 Mg302 2.180 . S
O303 C312 1.279 . S
O304 Mg302 2.030 . S
O304 C310 1.248 . S
O305 Mg302 1.990 . S
O305 C311 1.253 . S
O306 Mg302 2.117 . S
O306 C312 1.250 . S
C307 O313 1.248 . S
C307 O314 1.264 . S
C308 O294 1.253 . S
C308 O296 1.260 . S
C309 O298 1.279 . S
C309 O299 1.250 . S
C310 O300 1.264 . S
C310 O304 1.248 . S
C311 O301 1.260 . S
C311 O305 1.253 . S
C312 O303 1.279 . S
C312 O306 1.250 . S
O313 Mg295 2.030 . S
O313 C307 1.248 . S
O314 Mg297 2.079 . S
O314 C307 1.264 . S
O315 Mg316 1.990 . S
O315 C329 1.253 . S
Mg316 O315 1.990 . S
Mg316 O319 2.180 . S
Mg316 O320 2.117 . S
Mg316 O334 2.030 . S
O317 Mg318 2.072 . S
O317 C329 1.260 . S
Mg318 O317 2.072 . S
Mg318 O319 2.099 . S
Mg318 O321 2.079 . S
Mg318 O322 2.072 . S
Mg318 O324 2.099 . S
Mg318 O335 2.079 . S
O319 Mg316 2.180 . S
O319 Mg318 2.099 . S
O319 C330 1.279 . S
O320 Mg316 2.117 . S
O320 C330 1.250 . S
O321 Mg318 2.079 . S
O321 C331 1.264 . S
O322 Mg318 2.072 . S
O322 C332 1.260 . S
Mg323 O324 2.180 . S
Mg323 O325 2.030 . S
Mg323 O326 1.990 . S
Mg323 O327 2.117 . S
O324 Mg318 2.099 . S
O324 Mg323 2.180 . S
O324 C333 1.279 . S
O325 Mg323 2.030 . S
O325 C331 1.248 . S
O326 Mg323 1.990 . S
O326 C332 1.253 . S
O327 Mg323 2.117 . S
O327 C333 1.250 . S
C328 O334 1.248 . S
C328 O335 1.264 . S
C329 O315 1.253 . S
C329 O317 1.260 . S
C330 O319 1.279 . S
C330 O320 1.250 . S
C331 O321 1.264 . S
C331 O325 1.248 . S
C332 O322 1.260 . S
C332 O326 1.253 . S
C333 O324 1.279 . S
C333 O327 1.250 . S
O334 Mg316 2.030 . S
O334 C328 1.248 . S
O335 Mg318 2.079 . S
O335 C328 1.264 . S
O336 Mg337 1.990 . S
O336 C350 1.253 . S
Mg337 O336 1.990 . S
Mg337 O340 2.180 . S
Mg337 O341 2.117 . S
Mg337 O355 2.030 . S
O338 Mg339 2.072 . S
O338 C350 1.260 . S
Mg339 O338 2.072 . S
Mg339 O340 2.099 . S
Mg339 O342 2.079 . S
Mg339 O343 2.072 . S
Mg339 O345 2.099 . S
Mg339 O356 2.079 . S
O340 Mg337 2.180 . S
O340 Mg339 2.099 . S
O340 C351 1.279 . S
O341 Mg337 2.117 . S
O341 C351 1.250 . S
O342 Mg339 2.079 . S
O342 C352 1.264 . S
O343 Mg339 2.072 . S
O343 C353 1.260 . S
Mg344 O345 2.180 . S
Mg344 O346 2.030 . S
Mg344 O347 1.990 . S
Mg344 O348 2.117 . S
O345 Mg339 2.099 . S
O345 Mg344 2.180 . S
O345 C354 1.279 . S
O346 Mg344 2.030 . S
O346 C352 1.248 . S
O347 Mg344 1.990 . S
O347 C353 1.253 . S
O348 Mg344 2.117 . S
O348 C354 1.250 . S
C349 O355 1.248 . S
C349 O356 1.264 . S
C350 O336 1.253 . S
C350 O338 1.260 . S
C351 O340 1.279 . S
C351 O341 1.250 . S
C352 O342 1.264 . S
C352 O346 1.248 . S
C353 O343 1.260 . S
C353 O347 1.253 . S
C354 O345 1.279 . S
C354 O348 1.250 . S
O355 Mg337 2.030 . S
O355 C349 1.248 . S
O356 Mg339 2.079 . S
O356 C349 1.264 . S
O357 Mg358 1.990 . S
O357 C371 1.253 . S
Mg358 O357 1.990 . S
Mg358 O361 2.180 . S
Mg358 O362 2.117 . S
Mg358 O376 2.030 . S
O359 Mg360 2.072 . S
O359 C371 1.260 . S
Mg360 O359 2.072 . S
Mg360 O361 2.099 . S
Mg360 O363 2.079 . S
Mg360 O364 2.072 . S
Mg360 O366 2.099 . S
Mg360 O377 2.079 . S
O361 Mg358 2.180 . S
O361 Mg360 2.099 . S
O361 C372 1.279 . S
O362 Mg358 2.117 . S
O362 C372 1.250 . S
O363 Mg360 2.079 . S
O363 C373 1.264 . S
O364 Mg360 2.072 . S
O364 C374 1.260 . S
Mg365 O366 2.180 . S
Mg365 O367 2.030 . S
Mg365 O368 1.990 . S
Mg365 O369 2.117 . S
O366 Mg360 2.099 . S
O366 Mg365 2.180 . S
O366 C375 1.279 . S
O367 Mg365 2.030 . S
O367 C373 1.248 . S
O368 Mg365 1.990 . S
O368 C374 1.253 . S
O369 Mg365 2.117 . S
O369 C375 1.250 . S
C370 O376 1.248 . S
C370 O377 1.264 . S
C371 O357 1.253 . S
C371 O359 1.260 . S
C372 O361 1.279 . S
C372 O362 1.250 . S
C373 O363 1.264 . S
C373 O367 1.248 . S
C374 O364 1.260 . S
C374 O368 1.253 . S
C375 O366 1.279 . S
C375 O369 1.250 . S
O376 Mg358 2.030 . S
O376 C370 1.248 . S
O377 Mg360 2.079 . S
O377 C370 1.264 . S
O378 Mg379 1.990 . S
O378 C392 1.253 . S
Mg379 O378 1.990 . S
Mg379 O382 2.180 . S
Mg379 O383 2.117 . S
Mg379 O397 2.030 . S
O380 Mg381 2.072 . S
O380 C392 1.260 . S
Mg381 O380 2.072 . S
Mg381 O382 2.099 . S
Mg381 O384 2.079 . S
Mg381 O385 2.072 . S
Mg381 O387 2.099 . S
Mg381 O398 2.079 . S
O382 Mg379 2.180 . S
O382 Mg381 2.099 . S
O382 C393 1.279 . S
O383 Mg379 2.117 . S
O383 C393 1.250 . S
O384 Mg381 2.079 . S
O384 C394 1.264 . S
O385 Mg381 2.072 . S
O385 C395 1.260 . S
Mg386 O387 2.180 . S
Mg386 O388 2.030 . S
Mg386 O389 1.990 . S
Mg386 O390 2.117 . S
O387 Mg381 2.099 . S
O387 Mg386 2.180 . S
O387 C396 1.279 . S
O388 Mg386 2.030 . S
O388 C394 1.248 . S
O389 Mg386 1.990 . S
O389 C395 1.253 . S
O390 Mg386 2.117 . S
O390 C396 1.250 . S
C391 O397 1.248 . S
C391 O398 1.264 . S
C392 O378 1.253 . S
C392 O380 1.260 . S
C393 O382 1.279 . S
C393 O383 1.250 . S
C394 O384 1.264 . S
C394 O388 1.248 . S
C395 O385 1.260 . S
C395 O389 1.253 . S
C396 O387 1.279 . S
C396 O390 1.250 . S
O397 Mg379 2.030 . S
O397 C391 1.248 . S
O398 Mg381 2.079 . S
O398 C391 1.264 . S
O399 Mg400 1.990 . S
O399 C413 1.253 . S
Mg400 O399 1.990 . S
Mg400 O403 2.180 . S
Mg400 O404 2.117 . S
Mg400 O418 2.030 . S
O401 Mg402 2.072 . S
O401 C413 1.260 . S
Mg402 O401 2.072 . S
Mg402 O403 2.099 . S
Mg402 O405 2.079 . S
Mg402 O406 2.072 . S
Mg402 O408 2.099 . S
Mg402 O419 2.079 . S
O403 Mg400 2.180 . S
O403 Mg402 2.099 . S
O403 C414 1.279 . S
O404 Mg400 2.117 . S
O404 C414 1.250 . S
O405 Mg402 2.079 . S
O405 C415 1.264 . S
O406 Mg402 2.072 . S
O406 C416 1.260 . S
Mg407 O408 2.180 . S
Mg407 O409 2.030 . S
Mg407 O410 1.990 . S
Mg407 O411 2.117 . S
O408 Mg402 2.099 . S
O408 Mg407 2.180 . S
O408 C417 1.279 . S
O409 Mg407 2.030 . S
O409 C415 1.248 . S
O410 Mg407 1.990 . S
O410 C416 1.253 . S
O411 Mg407 2.117 . S
O411 C417 1.250 . S
C412 O418 1.248 . S
C412 O419 1.264 . S
C413 O399 1.253 . S
C413 O401 1.260 . S
C414 O403 1.279 . S
C414 O404 1.250 . S
C415 O405 1.264 . S
C415 O409 1.248 . S
C416 O406 1.260 . S
C416 O410 1.253 . S
C417 O408 1.279 . S
C417 O411 1.250 . S
O418 Mg400 2.030 . S
O418 C412 1.248 . S
O419 Mg402 2.079 . S
O419 C412 1.264 . S
O420 Mg421 1.990 . S
O420 C434 1.253 . S
Mg421 O420 1.990 . S
Mg421 O424 2.180 . S
Mg421 O425 2.117 . S
Mg421 O439 2.030 . S
O422 Mg423 2.072 . S
O422 C434 1.260 . S
Mg423 O422 2.072 . S
Mg423 O424 2.099 . S
Mg423 O426 2.079 . S
Mg423 O427 2.072 . S
Mg423 O429 2.099 . S
Mg423 O440 2.079 . S
O424 Mg421 2.180 . S
O424 Mg423 2.099 . S
O424 C435 1.279 . S
O425 Mg421 2.117 . S
O425 C435 1.250 . S
O426 Mg423 2.079 . S
O426 C436 1.264 . S
O427 Mg423 2.072 . S
O427 C437 1.260 . S
Mg428 O429 2.180 . S
Mg428 O430 2.030 . S
Mg428 O431 1.990 . S
Mg428 O432 2.117 . S
O429 Mg423 2.099 . S
O429 Mg428 2.180 . S
O429 C438 1.279 . S
O430 Mg428 2.030 . S
O430 C436 1.248 . S
O431 Mg428 1.990 . S
O431 C437 1.253 . S
O432 Mg428 2.117 . S
O432 C438 1.250 . S
C433 O439 1.248 . S
C433 O440 1.264 . S
C434 O420 1.253 . S
C434 O422 1.260 . S
C435 O424 1.279 . S
C435 O425 1.250 . S
C436 O426 1.264 . S
C436 O430 1.248 . S
C437 O427 1.260 . S
C437 O431 1.253 . S
C438 O429 1.279 . S
C438 O432 1.250 . S
O439 Mg421 2.030 . S
O439 C433 1.248 . S
O440 Mg423 2.079 . S
O440 C433 1.264 . S
O441 Mg442 1.990 . S
O441 C455 1.253 . S
Mg442 O441 1.990 . S
Mg442 O445 2.180 . S
Mg442 O446 2.117 . S
Mg442 O460 2.030 . S
O443 Mg444 2.072 . S
O443 C455 1.260 . S
Mg444 O443 2.072 . S
Mg444 O445 2.099 . S
Mg444 O447 2.079 . S
Mg444 O448 2.072 . S
Mg444 O450 2.099 . S
Mg444 O461 2.079 . S
O445 Mg442 2.180 . S
O445 Mg444 2.099 . S
O445 C456 1.279 . S
O446 Mg442 2.117 . S
O446 C456 1.250 . S
O447 Mg444 2.079 . S
O447 C457 1.264 . S
O448 Mg444 2.072 . S
O448 C458 1.260 . S
Mg449 O450 2.180 . S
Mg449 O451 2.030 . S
Mg449 O452 1.990 . S
Mg449 O453 2.117 . S
O450 Mg444 2.099 . S
O450 Mg449 2.180 . S
O450 C459 1.279 . S
O451 Mg449 2.030 . S
O451 C457 1.248 . S
O452 Mg449 1.990 . S
O452 C458 1.253 . S
O453 Mg449 2.117 . S
O453 C459 1.250 . S
C454 O460 1.248 . S
C454 O461 1.264 . S
C455 O441 1.253 . S
C455 O443 1.260 . S
C456 O445 1.279 . S
C456 O446 1.250 . S
C457 O447 1.264 . S
C457 O451 1.248 . S
C458 O448 1.260 . S
C458 O452 1.253 . S
C459 O450 1.279 . S
C459 O453 1.250 . S
O460 Mg442 2.030 . S
O460 C454 1.248 . S
O461 Mg444 2.079 . S
O461 C454 1.264 . S
O462 Mg463 1.990 . S
O462 C476 1.253 . S
Mg463 O462 1.990 . S
Mg463 O466 2.180 . S
Mg463 O467 2.117 . S
Mg463 O481 2.030 . S
O464 Mg465 2.072 . S
O464 C476 1.260 . S
Mg465 O464 2.072 . S
Mg465 O466 2.099 . S
Mg465 O468 2.079 . S
Mg465 O469 2.072 . S
Mg465 O471 2.099 . S
Mg465 O482 2.079 . S
O466 Mg463 2.180 . S
O466 Mg465 2.099 . S
O466 C477 1.279 . S
O467 Mg463 2.117 . S
O467 C477 1.250 . S
O468 Mg465 2.079 . S
O468 C478 1.264 . S
O469 Mg465 2.072 . S
O469 C479 1.260 . S
Mg470 O471 2.180 . S
Mg470 O472 2.030 . S
Mg470 O473 1.990 . S
Mg470 O474 2.117 . S
O471 Mg465 2.099 . S
O471 Mg470 2.180 . S
O471 C480 1.279 . S
O472 Mg470 2.030 . S
O472 C478 1.248 . S
O473 Mg470 1.990 . S
O473 C479 1.253 . S
O474 Mg470 2.117 . S
O474 C480 1.250 . S
C475 O481 1.248 . S
C475 O482 1.264 . S
C476 O462 1.253 . S
C476 O464 1.260 . S
C477 O466 1.279 . S
C477 O467 1.250 . S
C478 O468 1.264 . S
C478 O472 1.248 . S
C479 O469 1.260 . S
C479 O473 1.253 . S
C480 O471 1.279 . S
C480 O474 1.250 . S
O481 Mg463 2.030 . S
O481 C475 1.248 . S
O482 Mg465 2.079 . S
O482 C475 1.264 . S
O483 Mg484 1.990 . S
O483 C497 1.253 . S
Mg484 O483 1.990 . S
Mg484 O487 2.180 . S
Mg484 O488 2.117 . S
Mg484 O502 2.030 . S
O485 Mg486 2.072 . S
O485 C497 1.260 . S
Mg486 O485 2.072 . S
Mg486 O487 2.099 . S
Mg486 O489 2.079 . S
Mg486 O490 2.072 . S
Mg486 O492 2.099 . S
Mg486 O503 2.079 . S
O487 Mg484 2.180 . S
O487 Mg486 2.099 . S
O487 C498 1.279 . S
O488 Mg484 2.117 . S
O488 C498 1.250 . S
O489 Mg486 2.079 . S
O489 C499 1.264 . S
O490 Mg486 2.072 . S
O490 C500 1.260 . S
Mg491 O492 2.180 . S
Mg491 O493 2.030 . S
Mg491 O494 1.990 . S
Mg491 O495 2.117 . S
O492 Mg486 2.099 . S
O492 Mg491 2.180 . S
O492 C501 1.279 . S
O493 Mg491 2.030 . S
O493 C499 1.248 . S
O494 Mg491 1.990 . S
O494 C500 1.253 . S
O495 Mg491 2.117 . S
O495 C501 1.250 . S
C496 O502 1.248 . S
C496 O503 1.264 . S
C497 O483 1.253 . S
C497 O485 1.260 . S
C498 O487 1.279 . S
C498 O488 1.250 . S
C499 O489 1.264 . S
C499 O493 1.248 . S
C500 O490 1.260 . S
C500 O494 1.253 . S
C501 O492 1.279 . S
C501 O495 1.250 . S
O502 Mg484 2.030 . S
O502 C496 1.248 . S
O503 Mg486 2.079 . S
O503 C496 1.264 . S
O504 Mg505 1.990 . S
O504 C518 1.253 . S
Mg505 O504 1.990 . S
Mg505 O508 2.180 . S
Mg505 O509 2.117 . S
Mg505 O523 2.030 . S
O506 Mg507 2.072 . S
O506 C518 1.260 . S
Mg507 O506 2.072 . S
Mg507 O508 2.099 . S
Mg507 O510 2.079 . S
Mg507 O511 2.072 . S
Mg507 O513 2.099 . S
Mg507 O524 2.079 . S
O508 Mg505 2.180 . S
O508 Mg507 2.099 . S
O508 C519 1.279 . S
O509 Mg505 2.117 . S
O509 C519 1.250 . S
O510 Mg507 2.079 . S
O510 C520 1.264 . S
O511 Mg507 2.072 . S
O511 C521 1.260 . S
Mg512 O513 2.180 . S
Mg512 O514 2.030 . S
Mg512 O515 1.990 . S
Mg512 O516 2.117 . S
O513 Mg507 2.099 . S
O513 Mg512 2.180 . S
O513 C522 1.279 . S
O514 Mg512 2.030 . S
O514 C520 1.248 . S
O515 Mg512 1.990 . S
O515 C521 1.253 . S
O516 Mg512 2.117 . S
O516 C522 1.250 . S
C517 O523 1.248 . S
C517 O524 1.264 . S
C518 O504 1.253 . S
C518 O506 1.260 . S
C519 O508 1.279 . S
C519 O509 1.250 . S
C520 O510 1.264 . S
C520 O514 1.248 . S
C521 O511 1.260 . S
C521 O515 1.253 . S
C522 O513 1.279 . S
C522 O516 1.250 . S
O523 Mg505 2.030 . S
O523 C517 1.248 . S
O524 Mg507 2.079 . S
O524 C517 1.264 . S
O525 Mg526 1.990 . S
O525 C539 1.253 . S
Mg526 O525 1.990 . S
Mg526 O529 2.180 . S
Mg526 O530 2.117 . S
Mg526 O544 2.030 . S
O527 Mg528 2.072 . S
O527 C539 1.260 . S
Mg528 O527 2.072 . S
Mg528 O529 2.099 . S
Mg528 O531 2.079 . S
Mg528 O532 2.072 . S
Mg528 O534 2.099 . S
Mg528 O545 2.079 . S
O529 Mg526 2.180 . S
O529 Mg528 2.099 . S
O529 C540 1.279 . S
O530 Mg526 2.117 . S
O530 C540 1.250 . S
O531 Mg528 2.079 . S
O531 C541 1.264 . S
O532 Mg528 2.072 . S
O532 C542 1.260 . S
Mg533 O534 2.180 . S
Mg533 O535 2.030 . S
Mg533 O536 1.990 . S
Mg533 O537 2.117 . S
O534 Mg528 2.099 . S
O534 Mg533 2.180 . S
O534 C543 1.279 . S
O535 Mg533 2.030 . S
O535 C541 1.248 . S
O536 Mg533 1.990 . S
O536 C542 1.253 . S
O537 Mg533 2.117 . S
O537 C543 1.250 . S
C538 O544 1.248 . S
C538 O545 1.264 . S
C539 O525 1.253 . S
C539 O527 1.260 . S
C540 O529 1.279 . S
C540 O530 1.250 . S
C541 O531 1.264 . S
C541 O535 1.248 . S
C542 O532 1.260 . S
C542 O536 1.253 . S
C543 O534 1.279 . S
C543 O537 1.250 . S
O544 Mg526 2.030 . S
O544 C538 1.248 . S
O545 Mg528 2.079 . S
O545 C538 1.264 . S
O546 Mg547 1.990 . S
O546 C560 1.253 . S
Mg547 O546 1.990 . S
Mg547 O550 2.180 . S
Mg547 O551 2.117 . S
Mg547 O565 2.030 . S
O548 Mg549 2.072 . S
O548 C560 1.260 . S
Mg549 O548 2.072 . S
Mg549 O550 2.099 . S
Mg549 O552 2.079 . S
Mg549 O553 2.072 . S
Mg549 O555 2.099 . S
Mg549 O566 2.079 . S
O550 Mg547 2.180 . S
O550 Mg549 2.099 . S
O550 C561 1.279 . S
O551 Mg547 2.117 . S
O551 C561 1.250 . S
O552 Mg549 2.079 . S
O552 C562 1.264 . S
O553 Mg549 2.072 . S
O553 C563 1.260 . S
Mg554 O555 2.180 . S
Mg554 O556 2.030 . S
Mg554 O557 1.990 . S
Mg554 O558 2.117 . S
O555 Mg549 2.099 . S
O555 Mg554 2.180 . S
O555 C564 1.279 . S
O556 Mg554 2.030 . S
O556 C562 1.248 . S
O557 Mg554 1.990 . S
O557 C563 1.253 . S
O558 Mg554 2.117 . S
O558 C564 1.250 . S
C559 O565 1.248 . S
C559 O566 1.264 . S
C560 O546 1.253 . S
C560 O548 1.260 . S
C561 O550 1.279 . S
C561 O551 1.250 . S
C562 O552 1.264 . S
C562 O556 1.248 . S
C563 O553 1.260 . S
C563 O557 1.253 . S
C564 O555 1.279 . S
C564 O558 1.250 . S
O565 Mg547 2.030 . S
O565 C559 1.248 . S
O566 Mg549 2.079 . S
O566 C559 1.264 . S
O567 Mg568 1.990 . S
O567 C581 1.253 . S
Mg568 O567 1.990 . S
Mg568 O571 2.180 . S
Mg568 O572 2.117 . S
Mg568 O586 2.030 . S
O569 Mg570 2.072 . S
O569 C581 1.260 . S
Mg570 O569 2.072 . S
Mg570 O571 2.099 . S
Mg570 O573 2.079 . S
Mg570 O574 2.072 . S
Mg570 O576 2.099 . S
Mg570 O587 2.079 . S
O571 Mg568 2.180 . S
O571 Mg570 2.099 . S
O571 C582 1.279 . S
O572 Mg568 2.117 . S
O572 C582 1.250 . S
O573 Mg570 2.079 . S
O573 C583 1.264 . S
O574 Mg570 2.072 . S
O574 C584 1.260 . S
Mg575 O576 2.180 . S
Mg575 O577 2.030 . S
Mg575 O578 1.990 . S
Mg575 O579 2.117 . S
O576 Mg570 2.099 . S
O576 Mg575 2.180 . S
O576 C585 1.279 . S
O577 Mg575 2.030 . S
O577 C583 1.248 . S
O578 Mg575 1.990 . S
O578 C584 1.253 . S
O579 Mg575 2.117 . S
O579 C585 1.250 . S
C580 O586 1.248 . S
C580 O587 1.264 . S
C581 O567 1.253 . S
C581 O569 1.260 . S
C582 O571 1.279 . S
C582 O572 1.250 . S
C583 O573 1.264 . S
C583 O577 1.248 . S
C584 O574 1.260 . S
C584 O578 1.253 . S
C585 O576 1.279 . S
C585 O579 1.250 . S
O586 Mg568 2.030 . S
O586 C580 1.248 . S
O587 Mg570 2.079 . S
O587 C580 1.264 . S
O588 Mg589 1.990 . S
O588 C602 1.253 . S
Mg589 O588 1.990 . S
Mg589 O592 2.180 . S
Mg589 O593 2.117 . S
Mg589 O607 2.030 . S
O590 Mg591 2.072 . S
O590 C602 1.260 . S
Mg591 O590 2.072 . S
Mg591 O592 2.099 . S
Mg591 O594 2.079 . S
Mg591 O595 2.072 . S
Mg591 O597 2.099 . S
Mg591 O608 2.079 . S
O592 Mg589 2.180 . S
O592 Mg591 2.099 . S
O592 C603 1.279 . S
O593 Mg589 2.117 . S
O593 C603 1.250 . S
O594 Mg591 2.079 . S
O594 C604 1.264 . S
O595 Mg591 2.072 . S
O595 C605 1.260 . S
Mg596 O597 2.180 . S
Mg596 O598 2.030 . S
Mg596 O599 1.990 . S
Mg596 O600 2.117 . S
O597 Mg591 2.099 . S
O597 Mg596 2.180 . S
O597 C606 1.279 . S
O598 Mg596 2.030 . S
O598 C604 1.248 . S
O599 Mg596 1.990 . S
O599 C605 1.253 . S
O600 Mg596 2.117 . S
O600 C606 1.250 . S
C601 O607 1.248 . S
C601 O608 1.264 . S
C602 O588 1.253 . S
C602 O590 1.260 . S
C603 O592 1.279 . S
C603 O593 1.250 . S
C604 O594 1.264 . S
C604 O598 1.248 . S
C605 O595 1.260 . S
C605 O599 1.253 . S
C606 O597 1.279 . S
C606 O600 1.250 . S
O607 Mg589 2.030 . S
O607 C601 1.248 . S
O608 Mg591 2.079 . S
O608 C601 1.264 . S
O609 Mg610 1.990 . S
O609 C623 1.253 . S
Mg610 O609 1.990 . S
Mg610 O613 2.180 . S
Mg610 O614 2.117 . S
Mg610 O628 2.030 . S
O611 Mg612 2.072 . S
O611 C623 1.260 . S
Mg612 O611 2.072 . S
Mg612 O613 2.099 . S
Mg612 O615 2.079 . S
Mg612 O616 2.072 . S
Mg612 O618 2.099 . S
Mg612 O629 2.079 . S
O613 Mg610 2.180 . S
O613 Mg612 2.099 . S
O613 C624 1.279 . S
O614 Mg610 2.117 . S
O614 C624 1.250 . S
O615 Mg612 2.079 . S
O615 C625 1.264 . S
O616 Mg612 2.072 . S
O616 C626 1.260 . S
Mg617 O618 2.180 . S
Mg617 O619 2.030 . S
Mg617 O620 1.990 . S
Mg617 O621 2.117 . S
O618 Mg612 2.099 . S
O618 Mg617 2.180 . S
O618 C627 1.279 . S
O619 Mg617 2.030 . S
O619 C625 1.248 . S
O620 Mg617 1.990 . S
O620 C626 1.253 . S
O621 Mg617 2.117 . S
O621 C627 1.250 . S
C622 O628 1.248 . S
C622 O629 1.264 . S
C623 O609 1.253 . S
C623 O611 1.260 . S
C624 O613 1.279 . S
C624 O614 1.250 . S
C625 O615 1.264 . S
C625 O619 1.248 . S
C626 O616 1.260 . S
C626 O620 1.253 . S
C627 O618 1.279 . S
C627 O621 1.250 . S
O628 Mg610 2.030 . S
O628 C622 1.248 . S
O629 Mg612 2.079 . S
O629 C622 1.264 . S
O630 Mg631 1.990 . S
O630 C644 1.253 . S
Mg631 O630 1.990 . S
Mg631 O634 2.180 . S
Mg631 O635 2.117 . S
Mg631 O649 2.030 . S
O632 Mg633 2.072 . S
O632 C644 1.260 . S
Mg633 O632 2.072 . S
Mg633 O634 2.099 . S
Mg633 O636 2.079 . S
Mg633 O637 2.072 . S
Mg633 O639 2.099 . S
Mg633 O650 2.079 . S
O634 Mg631 2.180 . S
O634 Mg633 2.099 . S
O634 C645 1.279 . S
O635 Mg631 2.117 . S
O635 C645 1.250 . S
O636 Mg633 2.079 . S
O636 C646 1.264 . S
O637 Mg633 2.072 . S
O637 C647 1.260 . S
Mg638 O639 2.180 . S
Mg638 O640 2.030 . S
Mg638 O641 1.990 . S
Mg638 O642 2.117 . S
O639 Mg633 2.099 . S
O639 Mg638 2.180 . S
O639 C648 1.279 . S
O640 Mg638 2.030 . S
O640 C646 1.248 . S
O641 Mg638 1.990 . S
O641 C647 1.253 . S
O642 Mg638 2.117 . S
O642 C648 1.250 . S
C643 O649 1.248 . S
C643 O650 1.264 . S
C644 O630 1.253 . S
C644 O632 1.260 . S
C645 O634 1.279 . S
C645 O635 1.250 . S
C646 O636 1.264 . S
C646 O640 1.248 . S
C647 O637 1.260 . S
C647 O641 1.253 . S
C648 O639 1.279 . S
C648 O642 1.250 . S
O649 Mg631 2.030 . S
O649 C643 1.248 . S
O650 Mg633 2.079 . S
O650 C643 1.264 . S
O651 Mg652 1.990 . S
O651 C665 1.253 . S
Mg652 O651 1.990 . S
Mg652 O655 2.180 . S
Mg652 O656 2.117 . S
Mg652 O670 2.030 . S
O653 Mg654 2.072 . S
O653 C665 1.260 . S
Mg654 O653 2.072 . S
Mg654 O655 2.099 . S
Mg654 O657 2.079 . S
Mg654 O658 2.072 . S
Mg654 O660 2.099 . S
Mg654 O671 2.079 . S
O655 Mg652 2.180 . S
O655 Mg654 2.099 . S
O655 C666 1.279 . S
O656 Mg652 2.117 . S
O656 C666 1.250 . S
O657 Mg654 2.079 . S
O657 C667 1.264 . S
O658 Mg654 2.072 . S
O658 C668 1.260 . S
Mg659 O660 2.180 . S
Mg659 O661 2.030 . S
Mg659 O662 1.990 . S
Mg659 O663 2.117 . S
O660 Mg654 2.099 . S
O660 Mg659 2.180 . S
O660 C669 1.279 . S
O661 Mg659 2.030 . S
O661 C667 1.248 . S
O662 Mg659 1.990 . S
O662 C668 1.253 . S
O663 Mg659 2.117 . S
O663 C669 1.250 . S
C664 O670 1.248 . S
C664 O671 1.264 . S
C665 O651 1.253 . S
C665 O653 1.260 . S
C666 O655 1.279 . S
C666 O656 1.250 . S
C667 O657 1.264 . S
C667 O661 1.248 . S
C668 O658 1.260 . S
C668 O662 1.253 . S
C669 O660 1.279 . S
C669 O663 1.250 . S
O670 Mg652 2.030 . S
O670 C664 1.248 . S
O671 Mg654 2.079 . S
O671 C664 1.264 . S
O672 Mg673 1.990 . S
O672 C686 1.253 . S
Mg673 O672 1.990 . S
Mg673 O676 2.180 . S
Mg673 O677 2.117 . S
Mg673 O691 2.030 . S
O674 Mg675 2.072 . S
O674 C686 1.260 . S
Mg675 O674 2.072 . S
Mg675 O676 2.099 . S
Mg675 O678 2.079 . S
Mg675 O679 2.072 . S
Mg675 O681 2.099 . S
Mg675 O692 2.079 . S
O676 Mg673 2.180 . S
O676 Mg675 2.099 . S
O676 C687 1.279 . S
O677 Mg673 2.117 . S
O677 C687 1.250 . S
O678 Mg675 2.079 . S
O678 C688 1.264 . S
O679 Mg675 2.072 . S
O679 C689 1.260 . S
Mg680 O681 2.180 . S
Mg680 O682 2.030 . S
Mg680 O683 1.990 . S
Mg680 O684 2.117 . S
O681 Mg675 2.099 . S
O681 Mg680 2.180 . S
O681 C690 1.279 . S
O682 Mg680 2.030 . S
O682 C688 1.248 . S
O683 Mg680 1.990 . S
O683 C689 1.253 . S
O684 Mg680 2.117 . S
O684 C690 1.250 . S
C685 O691 1.248 . S
C685 O692 1.264 . S
C686 O672 1.253 . S
C686 O674 1.260 . S
C687 O676 1.279 . S
C687 O677 1.250 . S
C688 O678 1.264 . S
C688 O682 1.248 . S
C689 O679 1.260 . S
C689 O683 1.253 . S
C690 O681 1.279 . S
C690 O684 1.250 . S
O691 Mg673 2.030 . S
O691 C685 1.248 . S
O692 Mg675 2.079 . S
O692 C685 1.264 . S
O693 Mg694 1.990 . S
O693 C707 1.253 . S
Mg694 O693 1.990 . S
Mg694 O697 2.180 . S
Mg694 O698 2.117 . S
Mg694 O712 2.030 . S
O695 Mg696 2.072 . S
O695 C707 1.260 . S
Mg696 O695 2.072 . S
Mg696 O697 2.099 . S
Mg696 O699 2.079 . S
Mg696 O700 2.072 . S
Mg696 O702 2.099 . S
Mg696 O713 2.079 . S
O697 Mg694 2.180 . S
O697 Mg696 2.099 . S
O697 C708 1.279 . S
O698 Mg694 2.117 . S
O698 C708 1.250 . S
O699 Mg696 2.079 . S
O699 C709 1.264 . S
O700 Mg696 2.072 . S
O700 C710 1.260 . S
Mg701 O702 2.180 . S
Mg701 O703 2.030 . S
Mg701 O704 1.990 . S
Mg701 O705 2.117 . S
O702 Mg696 2.099 . S
O702 Mg701 2.180 . S
O702 C711 1.279 . S
O703 Mg701 2.030 . S
O703 C709 1.248 . S
O704 Mg701 1.990 . S
O704 C710 1.253 . S
O705 Mg701 2.117 . S
O705 C711 1.250 . S
C706 O712 1.248 . S
C706 O713 1.264 . S
C707 O693 1.253 . S
C707 O695 1.260 . S
C708 O697 1.279 . S
C708 O698 1.250 . S
C709 O699 1.264 . S
C709 O703 1.248 . S
C710 O700 1.260 . S
C710 O704 1.253 . S
C711 O702 1.279 . S
C711 O705 1.250 . S
O712 Mg694 2.030 . S
O712 C706 1.248 . S
O713 Mg696 2.079 . S
O713 C706 1.264 . S
O714 Mg715 1.990 . S
O714 C728 1.253 . S
Mg715 O714 1.990 . S
Mg715 O718 2.180 . S
Mg715 O719 2.117 . S
Mg715 O733 2.030 . S
O716 Mg717 2.072 . S
O716 C728 1.260 . S
Mg717 O716 2.072 . S
Mg717 O718 2.099 . S
Mg717 O720 2.079 . S
Mg717 O721 2.072 . S
Mg717 O723 2.099 . S
Mg717 O734 2.079 . S
O718 Mg715 2.180 . S
O718 Mg717 2.099 . S
O718 C729 1.279 . S
O719 Mg715 2.117 . S
O719 C729 1.250 . S
O720 Mg717 2.079 . S
O720 C730 1.264 . S
O721 Mg717 2.072 . S
O721 C731 1.260 . S
Mg722 O723 2.180 . S
Mg722 O724 2.030 . S
Mg722 O725 1.990 . S
Mg722 O726 2.117 . S
O723 Mg717 2.099 . S
O723 Mg722 2.180 . S
O723 C732 1.279 . S
O724 Mg722 2.030 . S
O724 C730 1.248 . S
O725 Mg722 1.990 . S
O725 C731 1.253 . S
O726 Mg722 2.117 . S
O726 C732 1.250 . S
C727 O733 1.248 . S
C727 O734 1.264 . S
C728 O714 1.253 . S
C728 O716 1.260 . S
C729 O718 1.279 . S
C729 O719 1.250 . S
C730 O720 1.264 . S
C730 O724 1.248 . S
C731 O721 1.260 . S
C731 O725 1.253 . S
C732 O723 1.279 . S
C732 O726 1.250 . S
O733 Mg715 2.030 . S
O733 C727 1.248 . S
O734 Mg717 2.079 . S
O734 C727 1.264 . S
O735 Mg736 1.990 . S
O735 C749 1.253 . S
Mg736 O735 1.990 . S
Mg736 O739 2.180 . S
Mg736 O740 2.117 . S
Mg736 O754 2.030 . S
O737 Mg738 2.072 . S
O737 C749 1.260 . S
Mg738 O737 2.072 . S
Mg738 O739 2.099 . S
Mg738 O741 2.079 . S
Mg738 O742 2.072 . S
Mg738 O744 2.099 . S
Mg738 O755 2.079 . S
O739 Mg736 2.180 . S
O739 Mg738 2.099 . S
O739 C750 1.279 . S
O740 Mg736 2.117 . S
O740 C750 1.250 . S
O741 Mg738 2.079 . S
O741 C751 1.264 . S
O742 Mg738 2.072 . S
O742 C752 1.260 . S
Mg743 O744 2.180 . S
Mg743 O745 2.030 . S
Mg743 O746 1.990 . S
Mg743 O747 2.117 . S
O744 Mg738 2.099 . S
O744 Mg743 2.180 . S
O744 C753 1.279 . S
O745 Mg743 2.030 . S
O745 C751 1.248 . S
O746 Mg743 1.990 . S
O746 C752 1.253 . S
O747 Mg743 2.117 . S
O747 C753 1.250 . S
C748 O754 1.248 . S
C748 O755 1.264 . S
C749 O735 1.253 . S
C749 O737 1.260 . S
C750 O739 1.279 . S
C750 O740 1.250 . S
C751 O741 1.264 . S
C751 O745 1.248 . S
C752 O742 1.260 . S
C752 O746 1.253 . S
C753 O744 1.279 . S
C753 O747 1.250 . S
O754 Mg736 2.030 . S
O754 C748 1.248 . S
O755 Mg738 2.079 . S
O755 C748 1.264 . S
H756 C764 0.929 . S
H757 C766 0.930 . S
H758 C768 0.930 . S
H759 C771 0.929 . S
H760 C774 0.930 . S
H761 C776 0.960 . S
H762 C776 0.960 . S
H763 C776 0.960 . S
C764 H756 0.929 . S
C764 C765 1.377 . S
C764 C766 1.384 . S
C765 C764 1.377 . S
C765 C771 1.390 . S
C766 H757 0.930 . S
C766 C764 1.384 . S
C766 C767 1.372 . S
C767 C766 1.372 . S
C767 C768 1.400 . S
C767 C772 1.490 . S
C768 H758 0.930 . S
C768 C767 1.400 . S
C768 C771 1.386 . S
H769 C785 0.930 . S
H770 C786 0.931 . S
C771 H759 0.929 . S
C771 C765 1.390 . S
C771 C768 1.386 . S
C772 C767 1.490 . S
C772 C774 1.395 . S
C772 C775 1.403 . S
H773 C779 0.930 . S
C774 H760 0.930 . S
C774 C772 1.395 . S
C774 C777 1.403 . S
C775 C772 1.403 . S
C775 C776 1.524 . S
C775 C779 1.400 . S
C776 H761 0.960 . S
C776 H762 0.960 . S
C776 H763 0.960 . S
C776 C775 1.524 . S
C777 C774 1.403 . S
C777 C778 1.392 . S
C777 C781 1.495 . S
C778 C777 1.392 . S
C778 C779 1.385 . S
C778 C780 1.478 . S
C779 H773 0.930 . S
C779 C775 1.400 . S
C779 C778 1.385 . S
C780 C778 1.478 . S
C780 C782 1.381 . S
C780 C786 1.383 1_556 S
C781 C777 1.495 . S
C781 H787 0.959 . S
C781 H788 0.961 . S
C781 H789 0.960 . S
C782 C780 1.381 . S
C782 C783 1.394 . S
C782 H790 0.930 . S
C783 C782 1.394 . S
C783 C784 1.375 1_556 S
C783 H791 0.929 . S
C784 C783 1.375 1_554 S
C784 C785 1.383 . S
C785 H769 0.930 . S
C785 C784 1.383 . S
C785 C786 1.379 . S
C786 H770 0.931 . S
C786 C780 1.383 1_554 S
C786 C785 1.379 . S
H787 C781 0.959 . S
H788 C781 0.961 . S
H789 C781 0.960 . S
H790 C782 0.930 . S
H791 C783 0.929 . S
H792 C800 0.929 . S
H793 C802 0.930 . S
H794 C804 0.930 . S
H795 C807 0.929 . S
H796 C810 0.930 . S
H797 C812 0.960 . S
H798 C812 0.960 . S
H799 C812 0.960 . S
C800 H792 0.929 . S
C800 C801 1.377 . S
C800 C802 1.384 . S
C801 C800 1.377 . S
C801 C807 1.390 . S
C802 H793 0.930 . S
C802 C800 1.384 . S
C802 C803 1.372 . S
C803 C802 1.372 . S
C803 C804 1.400 . S
C803 C808 1.490 . S
C804 H794 0.930 . S
C804 C803 1.400 . S
C804 C807 1.386 . S
H805 C821 0.930 . S
H806 C822 0.931 . S
C807 H795 0.929 . S
C807 C801 1.390 . S
C807 C804 1.386 . S
C808 C803 1.490 . S
C808 C810 1.395 . S
C808 C811 1.403 . S
H809 C815 0.930 . S
C810 H796 0.930 . S
C810 C808 1.395 . S
C810 C813 1.403 . S
C811 C808 1.403 . S
C811 C812 1.524 . S
C811 C815 1.400 . S
C812 H797 0.960 . S
C812 H798 0.960 . S
C812 H799 0.960 . S
C812 C811 1.524 . S
C813 C810 1.403 . S
C813 C814 1.392 . S
C813 C817 1.495 1_556 S
C814 C813 1.392 . S
C814 C815 1.385 . S
C814 C816 1.478 . S
C815 H809 0.930 . S
C815 C811 1.400 . S
C815 C814 1.385 . S
C816 C814 1.478 . S
C816 C818 1.381 . S
C816 C822 1.383 . S
C817 C813 1.495 1_554 S
C817 H823 0.959 . S
C817 H824 0.961 . S
C817 H825 0.960 . S
C818 C816 1.381 . S
C818 C819 1.394 . S
C818 H826 0.930 . S
C819 C818 1.394 . S
C819 C820 1.383 1_556 S
C819 H827 0.929 . S
C820 C819 1.383 1_554 S
C820 C821 1.377 . S
C821 H805 0.930 . S
C821 C820 1.377 . S
C821 C822 1.379 1_554 S
C822 H806 0.931 . S
C822 C816 1.383 . S
C822 C821 1.379 1_556 S
H823 C817 0.959 . S
H824 C817 0.961 . S
H825 C817 0.960 . S
H826 C818 0.930 . S
H827 C819 0.929 . S
H828 C836 0.929 . S
H829 C838 0.930 . S
H830 C840 0.930 . S
H831 C843 0.929 . S
H832 C846 0.930 . S
H833 C848 0.960 . S
H834 C848 0.960 . S
H835 C848 0.960 . S
C836 H828 0.929 . S
C836 C837 1.376 1_556 S
C836 C838 1.384 . S
C837 C836 1.376 1_554 S
C837 C843 1.391 . S
C838 H829 0.930 . S
C838 C836 1.384 . S
C838 C839 1.372 . S
C839 C838 1.372 . S
C839 C840 1.400 1_556 S
C839 C844 1.490 . S
C840 H830 0.930 . S
C840 C839 1.400 1_554 S
C840 C843 1.386 . S
H841 C857 0.930 . S
H842 C858 0.931 . S
C843 H831 0.929 . S
C843 C837 1.391 . S
C843 C840 1.386 . S
C844 C839 1.490 . S
C844 C846 1.395 . S
C844 C847 1.403 . S
H845 C851 0.930 . S
C846 H832 0.930 . S
C846 C844 1.395 . S
C846 C849 1.403 . S
C847 C844 1.403 . S
C847 C848 1.524 . S
C847 C851 1.400 . S
C848 H833 0.960 . S
C848 H834 0.960 . S
C848 H835 0.960 . S
C848 C847 1.524 . S
C849 C846 1.403 . S
C849 C850 1.392 . S
C849 C853 1.495 . S
C850 C849 1.392 . S
C850 C851 1.385 . S
C850 C852 1.478 . S
C851 H845 0.930 . S
C851 C847 1.400 . S
C851 C850 1.385 . S
C852 C850 1.478 . S
C852 C854 1.381 . S
C852 C858 1.383 . S
C853 C849 1.495 . S
C853 H859 0.959 . S
C853 H860 0.961 . S
C853 H861 0.960 . S
C854 C852 1.381 . S
C854 C855 1.394 . S
C854 H862 0.930 . S
C855 C854 1.394 . S
C855 C856 1.383 . S
C855 H863 0.929 . S
C856 C855 1.383 . S
C856 C857 1.377 . S
C857 H841 0.930 . S
C857 C856 1.377 . S
C857 C858 1.379 . S
C858 H842 0.931 . S
C858 C852 1.383 . S
C858 C857 1.379 . S
H859 C853 0.959 . S
H860 C853 0.961 . S
H861 C853 0.960 . S
H862 C854 0.930 . S
H863 C855 0.929 . S
H864 C872 0.929 . S
H865 C874 0.930 . S
H866 C876 0.930 . S
H867 C879 0.929 . S
H868 C882 0.930 . S
H869 C884 0.960 . S
H870 C884 0.960 . S
H871 C884 0.960 . S
C872 H864 0.929 . S
C872 C873 1.377 . S
C872 C874 1.384 . S
C873 C872 1.377 . S
C873 C879 1.390 . S
C874 H865 0.930 . S
C874 C872 1.384 . S
C874 C875 1.372 . S
C875 C874 1.372 . S
C875 C876 1.400 . S
C875 C880 1.490 . S
C876 H866 0.930 . S
C876 C875 1.400 . S
C876 C879 1.386 . S
H877 C893 0.930 . S
H878 C894 0.931 . S
C879 H867 0.929 . S
C879 C873 1.390 . S
C879 C876 1.386 . S
C880 C875 1.490 . S
C880 C882 1.395 . S
C880 C883 1.403 . S
H881 C887 0.930 . S
C882 H868 0.930 . S
C882 C880 1.395 . S
C882 C885 1.403 . S
C883 C880 1.403 . S
C883 C884 1.524 . S
C883 C887 1.400 . S
C884 H869 0.960 . S
C884 H870 0.960 . S
C884 H871 0.960 . S
C884 C883 1.524 . S
C885 C882 1.403 . S
C885 C886 1.392 . S
C885 C889 1.495 . S
C886 C885 1.392 . S
C886 C887 1.385 . S
C886 C888 1.478 . S
C887 H881 0.930 . S
C887 C883 1.400 . S
C887 C886 1.385 . S
C888 C886 1.478 . S
C888 C890 1.381 . S
C888 C894 1.383 . S
C889 C885 1.495 . S
C889 H895 0.959 . S
C889 H896 0.961 . S
C889 H897 0.960 . S
C890 C888 1.381 . S
C890 C891 1.394 . S
C890 H898 0.930 . S
C891 C890 1.394 . S
C891 C892 1.383 . S
C891 H899 0.929 . S
C892 C891 1.383 . S
C892 C893 1.377 . S
C893 H877 0.930 . S
C893 C892 1.377 . S
C893 C894 1.379 . S
C894 H878 0.931 . S
C894 C888 1.383 . S
C894 C893 1.379 . S
H895 C889 0.959 . S
H896 C889 0.961 . S
H897 C889 0.960 . S
H898 C890 0.930 . S
H899 C891 0.929 . S
H900 C908 0.929 . S
H901 C910 0.930 . S
H902 C912 0.930 . S
H903 C915 0.929 . S
H904 C918 0.930 . S
H905 C920 0.960 . S
H906 C920 0.960 . S
H907 C920 0.960 . S
C908 H900 0.929 . S
C908 C909 1.377 . S
C908 C910 1.384 . S
C909 C908 1.377 . S
C909 C915 1.390 . S
C910 H901 0.930 . S
C910 C908 1.384 . S
C910 C911 1.372 . S
C911 C910 1.372 . S
C911 C912 1.400 . S
C911 C916 1.490 . S
C912 H902 0.930 . S
C912 C911 1.400 . S
C912 C915 1.386 . S
H913 C929 0.930 . S
H914 C930 0.931 . S
C915 H903 0.929 . S
C915 C909 1.390 . S
C915 C912 1.386 . S
C916 C911 1.490 . S
C916 C918 1.395 . S
C916 C919 1.403 . S
H917 C923 0.930 . S
C918 H904 0.930 . S
C918 C916 1.395 . S
C918 C921 1.403 . S
C919 C916 1.403 . S
C919 C920 1.524 . S
C919 C923 1.400 . S
C920 H905 0.960 . S
C920 H906 0.960 . S
C920 H907 0.960 . S
C920 C919 1.524 . S
C921 C918 1.403 . S
C921 C922 1.392 . S
C921 C925 1.495 . S
C922 C921 1.392 . S
C922 C923 1.385 . S
C922 C924 1.478 . S
C923 H917 0.930 . S
C923 C919 1.400 . S
C923 C922 1.385 . S
C924 C922 1.478 . S
C924 C926 1.381 . S
C924 C930 1.383 . S
C925 C921 1.495 . S
C925 H931 0.959 . S
C925 H932 0.961 . S
C925 H933 0.960 . S
C926 C924 1.381 . S
C926 C927 1.394 . S
C926 H934 0.930 . S
C927 C926 1.394 . S
C927 C928 1.383 . S
C927 H935 0.929 . S
C928 C927 1.383 . S
C928 C929 1.377 . S
C929 H913 0.930 . S
C929 C928 1.377 . S
C929 C930 1.379 . S
C930 H914 0.931 . S
C930 C924 1.383 . S
C930 C929 1.379 . S
H931 C925 0.959 . S
H932 C925 0.961 . S
H933 C925 0.960 . S
H934 C926 0.930 . S
H935 C927 0.929 . S
H936 C944 0.929 . S
H937 C946 0.930 . S
H938 C948 0.930 . S
H939 C951 0.929 . S
H940 C954 0.930 . S
H941 C956 0.960 . S
H942 C956 0.960 . S
H943 C956 0.960 . S
C944 H936 0.929 . S
C944 C945 1.377 . S
C944 C946 1.384 . S
C945 C944 1.377 . S
C945 C951 1.390 . S
C946 H937 0.930 . S
C946 C944 1.384 . S
C946 C947 1.372 . S
C947 C946 1.372 . S
C947 C948 1.400 . S
C947 C952 1.490 . S
C948 H938 0.930 . S
C948 C947 1.400 . S
C948 C951 1.386 . S
H949 C965 0.930 . S
H950 C966 0.931 . S
C951 H939 0.929 . S
C951 C945 1.390 . S
C951 C948 1.386 . S
C952 C947 1.490 . S
C952 C954 1.395 . S
C952 C955 1.403 . S
H953 C959 0.930 . S
C954 H940 0.930 . S
C954 C952 1.395 . S
C954 C957 1.403 . S
C955 C952 1.403 . S
C955 C956 1.524 . S
C955 C959 1.400 . S
C956 H941 0.960 . S
C956 H942 0.960 . S
C956 H943 0.960 . S
C956 C955 1.524 . S
C957 C954 1.403 . S
C957 C958 1.392 . S
C957 C961 1.495 . S
C958 C957 1.392 . S
C958 C959 1.385 . S
C958 C960 1.478 . S
C959 H953 0.930 . S
C959 C955 1.400 . S
C959 C958 1.385 . S
C960 C958 1.478 . S
C960 C962 1.381 . S
C960 C966 1.383 . S
C961 C957 1.495 . S
C961 H967 0.959 . S
C961 H968 0.961 . S
C961 H969 0.960 . S
C962 C960 1.381 . S
C962 C963 1.394 . S
C962 H970 0.930 . S
C963 C962 1.394 . S
C963 C964 1.383 . S
C963 H971 0.929 . S
C964 C963 1.383 . S
C964 C965 1.377 . S
C965 H949 0.930 . S
C965 C964 1.377 . S
C965 C966 1.379 . S
C966 H950 0.931 . S
C966 C960 1.383 . S
C966 C965 1.379 . S
H967 C961 0.959 . S
H968 C961 0.961 . S
H969 C961 0.960 . S
H970 C962 0.930 . S
H971 C963 0.929 . S
H972 C980 0.929 . S
H973 C982 0.930 . S
H974 C984 0.930 . S
H975 C987 0.929 . S
H976 C990 0.930 . S
H977 C992 0.960 . S
H978 C992 0.960 . S
H979 C992 0.960 . S
C980 H972 0.929 . S
C980 C981 1.377 . S
C980 C982 1.384 . S
C981 C980 1.377 . S
C981 C987 1.390 . S
C982 H973 0.930 . S
C982 C980 1.384 . S
C982 C983 1.372 . S
C983 C982 1.372 . S
C983 C984 1.400 . S
C983 C988 1.490 . S
C984 H974 0.930 . S
C984 C983 1.400 . S
C984 C987 1.386 . S
H985 C1001 0.930 . S
H986 C1002 0.931 . S
C987 H975 0.929 . S
C987 C981 1.390 . S
C987 C984 1.386 . S
C988 C983 1.490 . S
C988 C990 1.395 . S
C988 C991 1.403 . S
H989 C995 0.930 . S
C990 H976 0.930 . S
C990 C988 1.395 . S
C990 C993 1.403 . S
C991 C988 1.403 . S
C991 C992 1.524 . S
C991 C995 1.400 . S
C992 H977 0.960 . S
C992 H978 0.960 . S
C992 H979 0.960 . S
C992 C991 1.524 . S
C993 C990 1.403 . S
C993 C994 1.392 . S
C993 C997 1.495 . S
C994 C993 1.392 . S
C994 C995 1.385 . S
C994 C996 1.478 . S
C995 H989 0.930 . S
C995 C991 1.400 . S
C995 C994 1.385 . S
C996 C994 1.478 . S
C996 C998 1.381 . S
C996 C1002 1.383 . S
C997 C993 1.495 . S
C997 H1003 0.959 . S
C997 H1004 0.961 . S
C997 H1005 0.960 . S
C998 C996 1.381 . S
C998 C999 1.394 . S
C998 H1006 0.930 . S
C999 C998 1.394 . S
C999 C1000 1.383 . S
C999 H1007 0.929 . S
C1000 C999 1.383 . S
C1000 C1001 1.377 . S
C1001 H985 0.930 . S
C1001 C1000 1.377 . S
C1001 C1002 1.379 . S
C1002 H986 0.931 . S
C1002 C996 1.383 . S
C1002 C1001 1.379 . S
H1003 C997 0.959 . S
H1004 C997 0.961 . S
H1005 C997 0.960 . S
H1006 C998 0.930 . S
H1007 C999 0.929 . S
H1008 C1016 0.929 . S
H1009 C1018 0.930 . S
H1010 C1020 0.930 . S
H1011 C1023 0.929 . S
H1012 C1026 0.930 . S
H1013 C1028 0.960 . S
H1014 C1028 0.960 . S
H1015 C1028 0.960 . S
C1016 H1008 0.929 . S
C1016 C1017 1.377 . S
C1016 C1018 1.384 . S
C1017 C1016 1.377 . S
C1017 C1023 1.390 . S
C1018 H1009 0.930 . S
C1018 C1016 1.384 . S
C1018 C1019 1.372 . S
C1019 C1018 1.372 . S
C1019 C1020 1.400 . S
C1019 C1024 1.490 . S
C1020 H1010 0.930 . S
C1020 C1019 1.400 . S
C1020 C1023 1.386 . S
H1021 C1037 0.930 . S
H1022 C1038 0.931 . S
C1023 H1011 0.929 . S
C1023 C1017 1.390 . S
C1023 C1020 1.386 . S
C1024 C1019 1.490 . S
C1024 C1026 1.395 . S
C1024 C1027 1.403 . S
H1025 C1031 0.930 . S
C1026 H1012 0.930 . S
C1026 C1024 1.395 . S
C1026 C1029 1.403 . S
C1027 C1024 1.403 . S
C1027 C1028 1.524 . S
C1027 C1031 1.400 . S
C1028 H1013 0.960 . S
C1028 H1014 0.960 . S
C1028 H1015 0.960 . S
C1028 C1027 1.524 . S
C1029 C1026 1.403 . S
C1029 C1030 1.392 . S
C1029 C1033 1.495 . S
C1030 C1029 1.392 . S
C1030 C1031 1.385 . S
C1030 C1032 1.478 . S
C1031 H1025 0.930 . S
C1031 C1027 1.400 . S
C1031 C1030 1.385 . S
C1032 C1030 1.478 . S
C1032 C1034 1.381 . S
C1032 C1038 1.383 . S
C1033 C1029 1.495 . S
C1033 H1039 0.959 . S
C1033 H1040 0.961 . S
C1033 H1041 0.960 . S
C1034 C1032 1.381 . S
C1034 C1035 1.394 . S
C1034 H1042 0.930 . S
C1035 C1034 1.394 . S
C1035 C1036 1.383 . S
C1035 H1043 0.929 . S
C1036 C1035 1.383 . S
C1036 C1037 1.377 . S
C1037 H1021 0.930 . S
C1037 C1036 1.377 . S
C1037 C1038 1.379 . S
C1038 H1022 0.931 . S
C1038 C1032 1.383 . S
C1038 C1037 1.379 . S
H1039 C1033 0.959 . S
H1040 C1033 0.961 . S
H1041 C1033 0.960 . S
H1042 C1034 0.930 . S
H1043 C1035 0.929 . S
H1044 C1052 0.929 . S
H1045 C1054 0.930 . S
H1046 C1056 0.930 . S
H1047 C1059 0.929 . S
H1048 C1062 0.930 . S
H1049 C1064 0.960 . S
H1050 C1064 0.960 . S
H1051 C1064 0.960 . S
C1052 H1044 0.929 . S
C1052 C1053 1.377 . S
C1052 C1054 1.384 . S
C1053 C1052 1.377 . S
C1053 C1059 1.390 . S
C1054 H1045 0.930 . S
C1054 C1052 1.384 . S
C1054 C1055 1.372 . S
C1055 C1054 1.372 . S
C1055 C1056 1.400 . S
C1055 C1060 1.490 . S
C1056 H1046 0.930 . S
C1056 C1055 1.400 . S
C1056 C1059 1.386 . S
H1057 C1073 0.930 . S
H1058 C1074 0.931 . S
C1059 H1047 0.929 . S
C1059 C1053 1.390 . S
C1059 C1056 1.386 . S
C1060 C1055 1.490 . S
C1060 C1062 1.395 . S
C1060 C1063 1.403 . S
H1061 C1067 0.930 . S
C1062 H1048 0.930 . S
C1062 C1060 1.395 . S
C1062 C1065 1.403 . S
C1063 C1060 1.403 . S
C1063 C1064 1.524 . S
C1063 C1067 1.400 . S
C1064 H1049 0.960 . S
C1064 H1050 0.960 . S
C1064 H1051 0.960 . S
C1064 C1063 1.524 . S
C1065 C1062 1.403 . S
C1065 C1066 1.392 . S
C1065 C1069 1.495 . S
C1066 C1065 1.392 . S
C1066 C1067 1.385 . S
C1066 C1068 1.478 . S
C1067 H1061 0.930 . S
C1067 C1063 1.400 . S
C1067 C1066 1.385 . S
C1068 C1066 1.478 . S
C1068 C1070 1.381 . S
C1068 C1074 1.383 . S
C1069 C1065 1.495 . S
C1069 H1075 0.959 . S
C1069 H1076 0.961 . S
C1069 H1077 0.960 . S
C1070 C1068 1.381 . S
C1070 C1071 1.394 . S
C1070 H1078 0.930 . S
C1071 C1070 1.394 . S
C1071 C1072 1.383 . S
C1071 H1079 0.929 . S
C1072 C1071 1.383 . S
C1072 C1073 1.377 . S
C1073 H1057 0.930 . S
C1073 C1072 1.377 . S
C1073 C1074 1.379 . S
C1074 H1058 0.931 . S
C1074 C1068 1.383 . S
C1074 C1073 1.379 . S
H1075 C1069 0.959 . S
H1076 C1069 0.961 . S
H1077 C1069 0.960 . S
H1078 C1070 0.930 . S
H1079 C1071 0.929 . S
H1080 C1088 0.929 . S
H1081 C1090 0.930 . S
H1082 C1092 0.930 . S
H1083 C1095 0.929 . S
H1084 C1098 0.930 . S
H1085 C1100 0.960 . S
H1086 C1100 0.960 . S
H1087 C1100 0.960 . S
C1088 H1080 0.929 . S
C1088 C1089 1.377 . S
C1088 C1090 1.384 . S
C1089 C1088 1.377 . S
C1089 C1095 1.390 . S
C1090 H1081 0.930 . S
C1090 C1088 1.384 . S
C1090 C1091 1.372 . S
C1091 C1090 1.372 . S
C1091 C1092 1.400 . S
C1091 C1096 1.490 . S
C1092 H1082 0.930 . S
C1092 C1091 1.400 . S
C1092 C1095 1.386 . S
H1093 C1109 0.930 . S
H1094 C1110 0.931 . S
C1095 H1083 0.929 . S
C1095 C1089 1.390 . S
C1095 C1092 1.386 . S
C1096 C1091 1.490 . S
C1096 C1098 1.395 . S
C1096 C1099 1.403 . S
H1097 C1103 0.930 . S
C1098 H1084 0.930 . S
C1098 C1096 1.395 . S
C1098 C1101 1.403 . S
C1099 C1096 1.403 . S
C1099 C1100 1.524 . S
C1099 C1103 1.400 . S
C1100 H1085 0.960 . S
C1100 H1086 0.960 . S
C1100 H1087 0.960 . S
C1100 C1099 1.524 . S
C1101 C1098 1.403 . S
C1101 C1102 1.392 . S
C1101 C1105 1.495 . S
C1102 C1101 1.392 . S
C1102 C1103 1.385 . S
C1102 C1104 1.478 . S
C1103 H1097 0.930 . S
C1103 C1099 1.400 . S
C1103 C1102 1.385 . S
C1104 C1102 1.478 . S
C1104 C1106 1.381 . S
C1104 C1110 1.383 . S
C1105 C1101 1.495 . S
C1105 H1111 0.959 . S
C1105 H1112 0.961 . S
C1105 H1113 0.960 . S
C1106 C1104 1.381 . S
C1106 C1107 1.394 . S
C1106 H1114 0.930 . S
C1107 C1106 1.394 . S
C1107 C1108 1.383 . S
C1107 H1115 0.929 . S
C1108 C1107 1.383 . S
C1108 C1109 1.377 . S
C1109 H1093 0.930 . S
C1109 C1108 1.377 . S
C1109 C1110 1.379 . S
C1110 H1094 0.931 . S
C1110 C1104 1.383 . S
C1110 C1109 1.379 . S
H1111 C1105 0.959 . S
H1112 C1105 0.961 . S
H1113 C1105 0.960 . S
H1114 C1106 0.930 . S
H1115 C1107 0.929 . S
H1116 C1124 0.929 . S
H1117 C1126 0.930 . S
H1118 C1128 0.930 . S
H1119 C1131 0.929 . S
H1120 C1134 0.930 . S
H1121 C1136 0.960 . S
H1122 C1136 0.960 . S
H1123 C1136 0.960 . S
C1124 H1116 0.929 . S
C1124 C1125 1.377 . S
C1124 C1126 1.384 . S
C1125 C1124 1.377 . S
C1125 C1131 1.390 . S
C1126 H1117 0.930 . S
C1126 C1124 1.384 . S
C1126 C1127 1.372 . S
C1127 C1126 1.372 . S
C1127 C1128 1.400 . S
C1127 C1132 1.490 . S
C1128 H1118 0.930 . S
C1128 C1127 1.400 . S
C1128 C1131 1.386 . S
H1129 C1145 0.930 . S
H1130 C1146 0.931 . S
C1131 H1119 0.929 . S
C1131 C1125 1.390 . S
C1131 C1128 1.386 . S
C1132 C1127 1.490 . S
C1132 C1134 1.395 . S
C1132 C1135 1.403 . S
H1133 C1139 0.930 . S
C1134 H1120 0.930 . S
C1134 C1132 1.395 . S
C1134 C1137 1.403 . S
C1135 C1132 1.403 . S
C1135 C1136 1.524 . S
C1135 C1139 1.400 . S
C1136 H1121 0.960 . S
C1136 H1122 0.960 . S
C1136 H1123 0.960 . S
C1136 C1135 1.524 . S
C1137 C1134 1.403 . S
C1137 C1138 1.392 . S
C1137 C1141 1.495 . S
C1138 C1137 1.392 . S
C1138 C1139 1.385 . S
C1138 C1140 1.478 . S
C1139 H1133 0.930 . S
C1139 C1135 1.400 . S
C1139 C1138 1.385 . S
C1140 C1138 1.478 . S
C1140 C1142 1.381 . S
C1140 C1146 1.383 . S
C1141 C1137 1.495 . S
C1141 H1147 0.959 . S
C1141 H1148 0.961 . S
C1141 H1149 0.960 . S
C1142 C1140 1.381 . S
C1142 C1143 1.394 . S
C1142 H1150 0.930 . S
C1143 C1142 1.394 . S
C1143 C1144 1.383 . S
C1143 H1151 0.929 . S
C1144 C1143 1.383 . S
C1144 C1145 1.377 . S
C1145 H1129 0.930 . S
C1145 C1144 1.377 . S
C1145 C1146 1.379 . S
C1146 H1130 0.931 . S
C1146 C1140 1.383 . S
C1146 C1145 1.379 . S
H1147 C1141 0.959 . S
H1148 C1141 0.961 . S
H1149 C1141 0.960 . S
H1150 C1142 0.930 . S
H1151 C1143 0.929 . S
H1152 C1160 0.929 . S
H1153 C1162 0.930 . S
H1154 C1164 0.930 . S
H1155 C1167 0.929 . S
H1156 C1170 0.930 . S
H1157 C1172 0.960 . S
H1158 C1172 0.960 . S
H1159 C1172 0.960 . S
C1160 H1152 0.929 . S
C1160 C1161 1.377 . S
C1160 C1162 1.384 . S
C1161 C1160 1.377 . S
C1161 C1167 1.390 . S
C1162 H1153 0.930 . S
C1162 C1160 1.384 . S
C1162 C1163 1.372 . S
C1163 C1162 1.372 . S
C1163 C1164 1.400 . S
C1163 C1168 1.490 . S
C1164 H1154 0.930 . S
C1164 C1163 1.400 . S
C1164 C1167 1.386 . S
H1165 C1181 0.930 . S
H1166 C1182 0.931 . S
C1167 H1155 0.929 . S
C1167 C1161 1.390 . S
C1167 C1164 1.386 . S
C1168 C1163 1.490 . S
C1168 C1170 1.395 . S
C1168 C1171 1.403 . S
H1169 C1175 0.930 . S
C1170 H1156 0.930 . S
C1170 C1168 1.395 . S
C1170 C1173 1.403 . S
C1171 C1168 1.403 . S
C1171 C1172 1.524 . S
C1171 C1175 1.400 . S
C1172 H1157 0.960 . S
C1172 H1158 0.960 . S
C1172 H1159 0.960 . S
C1172 C1171 1.524 . S
C1173 C1170 1.403 . S
C1173 C1174 1.392 . S
C1173 C1177 1.495 . S
C1174 C1173 1.392 . S
C1174 C1175 1.385 . S
C1174 C1176 1.478 . S
C1175 H1169 0.930 . S
C1175 C1171 1.400 . S
C1175 C1174 1.385 . S
C1176 C1174 1.478 . S
C1176 C1178 1.381 . S
C1176 C1182 1.383 . S
C1177 C1173 1.495 . S
C1177 H1183 0.959 . S
C1177 H1184 0.961 . S
C1177 H1185 0.960 . S
C1178 C1176 1.381 . S
C1178 C1179 1.394 . S
C1178 H1186 0.930 . S
C1179 C1178 1.394 . S
C1179 C1180 1.383 . S
C1179 H1187 0.929 . S
C1180 C1179 1.383 . S
C1180 C1181 1.377 . S
C1181 H1165 0.930 . S
C1181 C1180 1.377 . S
C1181 C1182 1.379 . S
C1182 H1166 0.931 . S
C1182 C1176 1.383 . S
C1182 C1181 1.379 . S
H1183 C1177 0.959 . S
H1184 C1177 0.961 . S
H1185 C1177 0.960 . S
H1186 C1178 0.930 . S
H1187 C1179 0.929 . S
H1188 C1196 0.929 . S
H1189 C1198 0.930 . S
H1190 C1200 0.930 . S
H1191 C1203 0.929 . S
H1192 C1206 0.930 . S
H1193 C1208 0.960 . S
H1194 C1208 0.960 . S
H1195 C1208 0.960 . S
C1196 H1188 0.929 . S
C1196 C1197 1.377 . S
C1196 C1198 1.384 . S
C1197 C1196 1.377 . S
C1197 C1203 1.390 . S
C1198 H1189 0.930 . S
C1198 C1196 1.384 . S
C1198 C1199 1.372 . S
C1199 C1198 1.372 . S
C1199 C1200 1.400 . S
C1199 C1204 1.490 . S
C1200 H1190 0.930 . S
C1200 C1199 1.400 . S
C1200 C1203 1.386 . S
H1201 C1217 0.930 . S
H1202 C1218 0.931 . S
C1203 H1191 0.929 . S
C1203 C1197 1.390 . S
C1203 C1200 1.386 . S
C1204 C1199 1.490 . S
C1204 C1206 1.395 . S
C1204 C1207 1.403 . S
H1205 C1211 0.930 . S
C1206 H1192 0.930 . S
C1206 C1204 1.395 . S
C1206 C1209 1.403 . S
C1207 C1204 1.403 . S
C1207 C1208 1.524 . S
C1207 C1211 1.400 . S
C1208 H1193 0.960 . S
C1208 H1194 0.960 . S
C1208 H1195 0.960 . S
C1208 C1207 1.524 . S
C1209 C1206 1.403 . S
C1209 C1210 1.392 . S
C1209 C1213 1.495 . S
C1210 C1209 1.392 . S
C1210 C1211 1.385 . S
C1210 C1212 1.478 . S
C1211 H1205 0.930 . S
C1211 C1207 1.400 . S
C1211 C1210 1.385 . S
C1212 C1210 1.478 . S
C1212 C1214 1.381 . S
C1212 C1218 1.383 . S
C1213 C1209 1.495 . S
C1213 H1219 0.959 . S
C1213 H1220 0.961 . S
C1213 H1221 0.960 . S
C1214 C1212 1.381 . S
C1214 C1215 1.394 . S
C1214 H1222 0.930 . S
C1215 C1214 1.394 . S
C1215 C1216 1.383 . S
C1215 H1223 0.929 . S
C1216 C1215 1.383 . S
C1216 C1217 1.377 . S
C1217 H1201 0.930 . S
C1217 C1216 1.377 . S
C1217 C1218 1.379 . S
C1218 H1202 0.931 . S
C1218 C1212 1.383 . S
C1218 C1217 1.379 . S
H1219 C1213 0.959 . S
H1220 C1213 0.961 . S
H1221 C1213 0.960 . S
H1222 C1214 0.930 . S
H1223 C1215 0.929 . S
H1224 C1232 0.929 . S
H1225 C1234 0.930 . S
H1226 C1236 0.930 . S
H1227 C1239 0.929 . S
H1228 C1242 0.930 . S
H1229 C1244 0.960 1_545 S
H1230 C1244 0.960 . S
H1231 C1244 0.960 . S
C1232 H1224 0.929 . S
C1232 C1233 1.377 . S
C1232 C1234 1.384 . S
C1233 C1232 1.377 . S
C1233 C1239 1.390 . S
C1234 H1225 0.930 . S
C1234 C1232 1.384 . S
C1234 C1235 1.372 . S
C1235 C1234 1.372 . S
C1235 C1236 1.400 . S
C1235 C1240 1.490 . S
C1236 H1226 0.930 . S
C1236 C1235 1.400 . S
C1236 C1239 1.386 . S
H1237 C1253 0.930 . S
H1238 C1254 0.931 . S
C1239 H1227 0.929 . S
C1239 C1233 1.390 . S
C1239 C1236 1.386 . S
C1240 C1235 1.490 . S
C1240 C1242 1.395 . S
C1240 C1243 1.403 . S
H1241 C1247 0.930 . S
C1242 H1228 0.930 . S
C1242 C1240 1.395 . S
C1242 C1245 1.403 1_565 S
C1243 C1240 1.403 . S
C1243 C1244 1.524 . S
C1243 C1247 1.400 1_565 S
C1244 H1229 0.960 1_565 S
C1244 H1230 0.960 . S
C1244 H1231 0.960 . S
C1244 C1243 1.524 . S
C1245 C1242 1.403 1_545 S
C1245 C1246 1.392 . S
C1245 C1249 1.495 . S
C1246 C1245 1.392 . S
C1246 C1247 1.385 . S
C1246 C1248 1.478 . S
C1247 H1241 0.930 . S
C1247 C1243 1.400 1_545 S
C1247 C1246 1.385 . S
C1248 C1246 1.478 . S
C1248 C1250 1.381 . S
C1248 C1254 1.383 . S
C1249 C1245 1.495 . S
C1249 H1255 0.959 1_545 S
C1249 H1256 0.961 . S
C1249 H1257 0.960 . S
C1250 C1248 1.381 . S
C1250 C1251 1.394 . S
C1250 H1258 0.930 . S
C1251 C1250 1.394 . S
C1251 C1252 1.383 . S
C1251 H1259 0.929 . S
C1252 C1251 1.383 . S
C1252 C1253 1.377 . S
C1253 H1237 0.930 . S
C1253 C1252 1.377 . S
C1253 C1254 1.379 . S
C1254 H1238 0.931 . S
C1254 C1248 1.383 . S
C1254 C1253 1.379 . S
H1255 C1249 0.959 1_565 S
H1256 C1249 0.961 . S
H1257 C1249 0.960 . S
H1258 C1250 0.930 . S
H1259 C1251 0.929 . S
H1260 C1268 0.929 . S
H1261 C1270 0.930 . S
H1262 C1272 0.930 . S
H1263 C1275 0.929 . S
H1264 C1278 0.930 . S
H1265 C1280 0.960 . S
H1266 C1280 0.960 . S
H1267 C1280 0.960 . S
C1268 H1260 0.929 . S
C1268 C1269 1.377 . S
C1268 C1270 1.384 . S
C1269 C1268 1.377 . S
C1269 C1275 1.390 . S
C1270 H1261 0.930 . S
C1270 C1268 1.384 . S
C1270 C1271 1.372 . S
C1271 C1270 1.372 . S
C1271 C1272 1.400 . S
C1271 C1276 1.490 . S
C1272 H1262 0.930 . S
C1272 C1271 1.400 . S
C1272 C1275 1.386 . S
H1273 C1289 0.930 . S
H1274 C1290 0.931 . S
C1275 H1263 0.929 . S
C1275 C1269 1.390 . S
C1275 C1272 1.386 . S
C1276 C1271 1.490 . S
C1276 C1278 1.395 . S
C1276 C1279 1.403 . S
H1277 C1283 0.930 . S
C1278 H1264 0.930 . S
C1278 C1276 1.395 . S
C1278 C1281 1.403 1_655 S
C1279 C1276 1.403 . S
C1279 C1280 1.524 . S
C1279 C1283 1.400 1_655 S
C1280 H1265 0.960 . S
C1280 H1266 0.960 . S
C1280 H1267 0.960 . S
C1280 C1279 1.524 . S
C1281 C1278 1.403 1_455 S
C1281 C1282 1.392 . S
C1281 C1285 1.495 . S
C1282 C1281 1.392 . S
C1282 C1283 1.385 . S
C1282 C1284 1.478 . S
C1283 H1277 0.930 . S
C1283 C1279 1.400 1_455 S
C1283 C1282 1.385 . S
C1284 C1282 1.478 . S
C1284 C1286 1.381 . S
C1284 C1290 1.383 . S
C1285 C1281 1.495 . S
C1285 H1291 0.959 . S
C1285 H1292 0.961 . S
C1285 H1293 0.960 . S
C1286 C1284 1.381 . S
C1286 C1287 1.394 . S
C1286 H1294 0.930 . S
C1287 C1286 1.394 . S
C1287 C1288 1.383 . S
C1287 H1295 0.929 . S
C1288 C1287 1.383 . S
C1288 C1289 1.377 . S
C1289 H1273 0.930 . S
C1289 C1288 1.377 . S
C1289 C1290 1.379 . S
C1290 H1274 0.931 . S
C1290 C1284 1.383 . S
C1290 C1289 1.379 . S
H1291 C1285 0.959 . S
H1292 C1285 0.961 . S
H1293 C1285 0.960 . S
H1294 C1286 0.930 . S
H1295 C1287 0.929 . S
H1296 C1304 0.929 . S
H1297 C1306 0.930 . S
H1298 C1308 0.930 . S
H1299 C1311 0.929 . S
H1300 C1314 0.930 . S
H1301 C1316 0.960 . S
H1302 C1316 0.960 . S
H1303 C1316 0.960 . S
C1304 H1296 0.929 . S
C1304 C1305 1.377 . S
C1304 C1306 1.384 . S
C1305 C1304 1.377 . S
C1305 C1311 1.390 . S
C1306 H1297 0.930 . S
C1306 C1304 1.384 . S
C1306 C1307 1.372 . S
C1307 C1306 1.372 . S
C1307 C1308 1.400 . S
C1307 C1312 1.490 . S
C1308 H1298 0.930 . S
C1308 C1307 1.400 . S
C1308 C1311 1.386 . S
H1309 C1325 0.930 . S
H1310 C1326 0.931 . S
C1311 H1299 0.929 . S
C1311 C1305 1.390 . S
C1311 C1308 1.386 . S
C1312 C1307 1.490 . S
C1312 C1314 1.395 . S
C1312 C1315 1.403 . S
H1313 C1319 0.930 . S
C1314 H1300 0.930 . S
C1314 C1312 1.395 . S
C1314 C1317 1.403 . S
C1315 C1312 1.403 . S
C1315 C1316 1.524 . S
C1315 C1319 1.400 . S
C1316 H1301 0.960 . S
C1316 H1302 0.960 . S
C1316 H1303 0.960 . S
C1316 C1315 1.524 . S
C1317 C1314 1.403 . S
C1317 C1318 1.392 . S
C1317 C1321 1.495 . S
C1318 C1317 1.392 . S
C1318 C1319 1.385 . S
C1318 C1320 1.478 . S
C1319 H1313 0.930 . S
C1319 C1315 1.400 . S
C1319 C1318 1.385 . S
C1320 C1318 1.478 . S
C1320 C1322 1.381 . S
C1320 C1326 1.383 . S
C1321 C1317 1.495 . S
C1321 H1327 0.959 . S
C1321 H1328 0.961 . S
C1321 H1329 0.960 . S
C1322 C1320 1.381 . S
C1322 C1323 1.394 . S
C1322 H1330 0.930 . S
C1323 C1322 1.394 . S
C1323 C1324 1.383 . S
C1323 H1331 0.929 . S
C1324 C1323 1.383 . S
C1324 C1325 1.377 . S
C1325 H1309 0.930 . S
C1325 C1324 1.377 . S
C1325 C1326 1.379 . S
C1326 H1310 0.931 . S
C1326 C1320 1.383 . S
C1326 C1325 1.379 . S
H1327 C1321 0.959 . S
H1328 C1321 0.961 . S
H1329 C1321 0.960 . S
H1330 C1322 0.930 . S
H1331 C1323 0.929 . S
H1332 C1340 0.929 . S
H1333 C1342 0.930 . S
H1334 C1344 0.930 . S
H1335 C1347 0.929 . S
H1336 C1350 0.930 . S
H1337 C1352 0.960 1_565 S
H1338 C1352 0.960 . S
H1339 C1352 0.960 . S
C1340 H1332 0.929 . S
C1340 C1341 1.377 . S
C1340 C1342 1.384 . S
C1341 C1340 1.377 . S
C1341 C1347 1.390 . S
C1342 H1333 0.930 . S
C1342 C1340 1.384 . S
C1342 C1343 1.372 . S
C1343 C1342 1.372 . S
C1343 C1344 1.400 . S
C1343 C1348 1.490 . S
C1344 H1334 0.930 . S
C1344 C1343 1.400 . S
C1344 C1347 1.386 . S
H1345 C1361 0.930 . S
H1346 C1362 0.931 . S
C1347 H1335 0.929 . S
C1347 C1341 1.390 . S
C1347 C1344 1.386 . S
C1348 C1343 1.490 . S
C1348 C1350 1.395 . S
C1348 C1351 1.403 . S
H1349 C1355 0.930 . S
C1350 H1336 0.930 . S
C1350 C1348 1.395 . S
C1350 C1353 1.403 1_545 S
C1351 C1348 1.403 . S
C1351 C1352 1.524 . S
C1351 C1355 1.400 1_545 S
C1352 H1337 0.960 1_545 S
C1352 H1338 0.960 . S
C1352 H1339 0.960 . S
C1352 C1351 1.524 . S
C1353 C1350 1.403 1_565 S
C1353 C1354 1.392 . S
C1353 C1357 1.495 . S
C1354 C1353 1.392 . S
C1354 C1355 1.385 . S
C1354 C1356 1.478 . S
C1355 H1349 0.930 . S
C1355 C1351 1.400 1_565 S
C1355 C1354 1.385 . S
C1356 C1354 1.478 . S
C1356 C1358 1.381 . S
C1356 C1362 1.383 . S
C1357 C1353 1.495 . S
C1357 H1363 0.959 1_565 S
C1357 H1364 0.961 . S
C1357 H1365 0.960 . S
C1358 C1356 1.381 . S
C1358 C1359 1.394 . S
C1358 H1366 0.930 . S
C1359 C1358 1.394 . S
C1359 C1360 1.383 . S
C1359 H1367 0.929 . S
C1360 C1359 1.383 . S
C1360 C1361 1.377 . S
C1361 H1345 0.930 . S
C1361 C1360 1.377 . S
C1361 C1362 1.379 . S
C1362 H1346 0.931 . S
C1362 C1356 1.383 . S
C1362 C1361 1.379 . S
H1363 C1357 0.959 1_545 S
H1364 C1357 0.961 . S
H1365 C1357 0.960 . S
H1366 C1358 0.930 . S
H1367 C1359 0.929 . S
H1368 C1376 0.929 . S
H1369 C1378 0.930 . S
H1370 C1380 0.930 . S
H1371 C1383 0.929 . S
H1372 C1386 0.930 . S
H1373 C1388 0.960 1_655 S
H1374 C1388 0.960 . S
H1375 C1388 0.960 . S
C1376 H1368 0.929 . S
C1376 C1377 1.377 . S
C1376 C1378 1.384 . S
C1377 C1376 1.377 . S
C1377 C1383 1.390 . S
C1378 H1369 0.930 . S
C1378 C1376 1.384 . S
C1378 C1379 1.372 . S
C1379 C1378 1.372 . S
C1379 C1380 1.400 . S
C1379 C1384 1.490 . S
C1380 H1370 0.930 . S
C1380 C1379 1.400 . S
C1380 C1383 1.386 . S
H1381 C1397 0.930 . S
H1382 C1398 0.931 . S
C1383 H1371 0.929 . S
C1383 C1377 1.390 . S
C1383 C1380 1.386 . S
C1384 C1379 1.490 . S
C1384 C1386 1.395 . S
C1384 C1387 1.403 . S
H1385 C1391 0.930 . S
C1386 H1372 0.930 . S
C1386 C1384 1.395 . S
C1386 C1389 1.403 1_455 S
C1387 C1384 1.403 . S
C1387 C1388 1.524 . S
C1387 C1391 1.400 1_455 S
C1388 H1373 0.960 1_455 S
C1388 H1374 0.960 . S
C1388 H1375 0.960 . S
C1388 C1387 1.524 . S
C1389 C1386 1.403 1_655 S
C1389 C1390 1.392 . S
C1389 C1393 1.495 . S
C1390 C1389 1.392 . S
C1390 C1391 1.385 . S
C1390 C1392 1.478 . S
C1391 H1385 0.930 . S
C1391 C1387 1.400 1_655 S
C1391 C1390 1.385 . S
C1392 C1390 1.478 . S
C1392 C1394 1.381 . S
C1392 C1398 1.383 . S
C1393 C1389 1.495 . S
C1393 H1399 0.959 1_655 S
C1393 H1400 0.961 . S
C1393 H1401 0.960 . S
C1394 C1392 1.381 . S
C1394 C1395 1.394 . S
C1394 H1402 0.930 . S
C1395 C1394 1.394 . S
C1395 C1396 1.383 . S
C1395 H1403 0.929 . S
C1396 C1395 1.383 . S
C1396 C1397 1.377 . S
C1397 H1381 0.930 . S
C1397 C1396 1.377 . S
C1397 C1398 1.379 . S
C1398 H1382 0.931 . S
C1398 C1392 1.383 . S
C1398 C1397 1.379 . S
H1399 C1393 0.959 1_455 S
H1400 C1393 0.961 . S
H1401 C1393 0.960 . S
H1402 C1394 0.930 . S
H1403 C1395 0.929 . S
H1404 C1412 0.929 . S
H1405 C1414 0.930 . S
H1406 C1416 0.930 . S
H1407 C1419 0.929 . S
H1408 C1422 0.930 . S
H1409 C1424 0.960 . S
H1410 C1424 0.960 . S
H1411 C1424 0.960 . S
C1412 H1404 0.929 . S
C1412 C1413 1.377 . S
C1412 C1414 1.384 . S
C1413 C1412 1.377 . S
C1413 C1419 1.390 . S
C1414 H1405 0.930 . S
C1414 C1412 1.384 . S
C1414 C1415 1.372 . S
C1415 C1414 1.372 . S
C1415 C1416 1.400 . S
C1415 C1420 1.490 . S
C1416 H1406 0.930 . S
C1416 C1415 1.400 . S
C1416 C1419 1.386 . S
H1417 C1433 0.930 . S
H1418 C1434 0.931 . S
C1419 H1407 0.929 . S
C1419 C1413 1.390 . S
C1419 C1416 1.386 . S
C1420 C1415 1.490 . S
C1420 C1422 1.395 . S
C1420 C1423 1.403 . S
H1421 C1427 0.930 . S
C1422 H1408 0.930 . S
C1422 C1420 1.395 . S
C1422 C1425 1.403 1_455 S
C1423 C1420 1.403 . S
C1423 C1424 1.524 . S
C1423 C1427 1.400 1_455 S
C1424 H1409 0.960 . S
C1424 H1410 0.960 . S
C1424 H1411 0.960 . S
C1424 C1423 1.524 . S
C1425 C1422 1.403 1_655 S
C1425 C1426 1.392 . S
C1425 C1429 1.495 . S
C1426 C1425 1.392 . S
C1426 C1427 1.385 . S
C1426 C1428 1.478 . S
C1427 H1421 0.930 . S
C1427 C1423 1.400 1_655 S
C1427 C1426 1.385 . S
C1428 C1426 1.478 . S
C1428 C1430 1.381 . S
C1428 C1434 1.383 . S
C1429 C1425 1.495 . S
C1429 H1435 0.959 . S
C1429 H1436 0.961 . S
C1429 H1437 0.960 . S
C1430 C1428 1.381 . S
C1430 C1431 1.394 . S
C1430 H1438 0.930 . S
C1431 C1430 1.394 . S
C1431 C1432 1.383 . S
C1431 H1439 0.929 . S
C1432 C1431 1.383 . S
C1432 C1433 1.377 . S
C1433 H1417 0.930 . S
C1433 C1432 1.377 . S
C1433 C1434 1.379 . S
C1434 H1418 0.931 . S
C1434 C1428 1.383 . S
C1434 C1433 1.379 . S
H1435 C1429 0.959 . S
H1436 C1429 0.961 . S
H1437 C1429 0.960 . S
H1438 C1430 0.930 . S
H1439 C1431 0.929 . S
H1440 C1448 0.929 . S
H1441 C1450 0.930 . S
H1442 C1452 0.930 . S
H1443 C1455 0.929 . S
H1444 C1458 0.930 . S
H1445 C1460 0.960 . S
H1446 C1460 0.960 . S
H1447 C1460 0.960 . S
C1448 H1440 0.929 . S
C1448 C1449 1.377 . S
C1448 C1450 1.384 . S
C1449 C1448 1.377 . S
C1449 C1455 1.390 . S
C1450 H1441 0.930 . S
C1450 C1448 1.384 . S
C1450 C1451 1.372 . S
C1451 C1450 1.372 . S
C1451 C1452 1.400 . S
C1451 C1456 1.490 . S
C1452 H1442 0.930 . S
C1452 C1451 1.400 . S
C1452 C1455 1.386 . S
H1453 C1469 0.930 . S
H1454 C1470 0.931 . S
C1455 H1443 0.929 . S
C1455 C1449 1.390 . S
C1455 C1452 1.386 . S
C1456 C1451 1.490 . S
C1456 C1458 1.395 . S
C1456 C1459 1.403 . S
H1457 C1463 0.930 . S
C1458 H1444 0.930 . S
C1458 C1456 1.395 . S
C1458 C1461 1.403 . S
C1459 C1456 1.403 . S
C1459 C1460 1.524 . S
C1459 C1463 1.400 . S
C1460 H1445 0.960 . S
C1460 H1446 0.960 . S
C1460 H1447 0.960 . S
C1460 C1459 1.524 . S
C1461 C1458 1.403 . S
C1461 C1462 1.392 . S
C1461 C1465 1.495 . S
C1462 C1461 1.392 . S
C1462 C1463 1.385 . S
C1462 C1464 1.478 . S
C1463 H1457 0.930 . S
C1463 C1459 1.400 . S
C1463 C1462 1.385 . S
C1464 C1462 1.478 . S
C1464 C1466 1.381 . S
C1464 C1470 1.383 . S
C1465 C1461 1.495 . S
C1465 H1471 0.959 . S
C1465 H1472 0.961 . S
C1465 H1473 0.960 . S
C1466 C1464 1.381 . S
C1466 C1467 1.394 . S
C1466 H1474 0.930 . S
C1467 C1466 1.394 . S
C1467 C1468 1.383 . S
C1467 H1475 0.929 . S
C1468 C1467 1.383 . S
C1468 C1469 1.377 . S
C1469 H1453 0.930 . S
C1469 C1468 1.377 . S
C1469 C1470 1.379 . S
C1470 H1454 0.931 . S
C1470 C1464 1.383 . S
C1470 C1469 1.379 . S
H1471 C1465 0.959 . S
H1472 C1465 0.961 . S
H1473 C1465 0.960 . S
H1474 C1466 0.930 . S
H1475 C1467 0.929 . S
H1476 C1484 0.929 . S
H1477 C1486 0.930 . S
H1478 C1488 0.930 . S
H1479 C1491 0.929 . S
H1480 C1494 0.930 . S
H1481 C1496 0.911 1_545 S
H1482 C1496 0.951 1_545 S
H1483 C1496 0.997 . S
C1484 H1476 0.929 . S
C1484 C1485 1.377 . S
C1484 C1486 1.384 . S
C1485 C1484 1.377 . S
C1485 C1491 1.390 . S
C1486 H1477 0.930 . S
C1486 C1484 1.384 . S
C1486 C1487 1.372 . S
C1487 C1486 1.372 . S
C1487 C1488 1.400 . S
C1487 C1492 1.490 . S
C1488 H1478 0.930 . S
C1488 C1487 1.400 . S
C1488 C1491 1.386 . S
H1489 C1505 0.930 . S
H1490 C1506 0.931 . S
C1491 H1479 0.929 . S
C1491 C1485 1.390 . S
C1491 C1488 1.386 . S
C1492 C1487 1.490 . S
C1492 C1494 1.395 . S
C1492 C1495 1.459 . S
H1493 C1499 0.930 . S
C1494 H1480 0.930 . S
C1494 C1492 1.395 . S
C1494 C1497 1.403 1_565 S
C1495 C1492 1.459 . S
C1495 C1496 1.521 . S
C1495 C1499 1.372 1_565 S
C1496 H1481 0.911 1_565 S
C1496 H1482 0.951 1_565 S
C1496 H1483 0.997 . S
C1496 C1495 1.521 . S
C1497 C1494 1.403 1_545 S
C1497 C1498 1.392 . S
C1497 C1501 1.495 . S
C1498 C1497 1.392 . S
C1498 C1499 1.385 . S
C1498 C1500 1.478 . S
C1499 H1493 0.930 . S
C1499 C1495 1.372 1_545 S
C1499 C1498 1.385 . S
C1500 C1498 1.478 . S
C1500 C1502 1.381 . S
C1500 C1506 1.383 . S
C1501 C1497 1.495 . S
C1501 H1507 0.959 1_545 S
C1501 H1508 0.961 1_545 S
C1501 H1509 0.960 . S
C1502 C1500 1.381 . S
C1502 C1503 1.394 . S
C1502 H1510 0.930 . S
C1503 C1502 1.394 . S
C1503 C1504 1.383 . S
C1503 H1511 0.929 . S
C1504 C1503 1.383 . S
C1504 C1505 1.377 . S
C1505 H1489 0.930 . S
C1505 C1504 1.377 . S
C1505 C1506 1.379 . S
C1506 H1490 0.931 . S
C1506 C1500 1.383 . S
C1506 C1505 1.379 . S
H1507 C1501 0.959 1_565 S
H1508 C1501 0.961 1_565 S
H1509 C1501 0.960 . S
H1510 C1502 0.930 . S
H1511 C1503 0.929 . S
H1512 C1520 0.929 . S
H1513 C1522 0.930 . S
H1514 C1524 0.930 . S
H1515 C1527 0.929 . S
H1516 C1530 0.930 . S
H1517 C1532 0.960 . S
H1518 C1532 0.960 1_655 S
H1519 C1532 0.960 . S
C1520 H1512 0.929 . S
C1520 C1521 1.377 . S
C1520 C1522 1.384 . S
C1521 C1520 1.377 . S
C1521 C1527 1.390 . S
C1522 H1513 0.930 . S
C1522 C1520 1.384 . S
C1522 C1523 1.372 . S
C1523 C1522 1.372 . S
C1523 C1524 1.400 . S
C1523 C1528 1.490 . S
C1524 H1514 0.930 . S
C1524 C1523 1.400 . S
C1524 C1527 1.386 . S
H1525 C1541 0.930 . S
H1526 C1542 0.931 . S
C1527 H1515 0.929 . S
C1527 C1521 1.390 . S
C1527 C1524 1.386 . S
C1528 C1523 1.490 . S
C1528 C1530 1.395 . S
C1528 C1531 1.403 1_655 S
H1529 C1535 0.930 . S
C1530 H1516 0.930 . S
C1530 C1528 1.395 . S
C1530 C1533 1.403 . S
C1531 C1528 1.403 1_455 S
C1531 C1532 1.524 . S
C1531 C1535 1.400 . S
C1532 H1517 0.960 . S
C1532 H1518 0.960 1_455 S
C1532 H1519 0.960 . S
C1532 C1531 1.524 . S
C1533 C1530 1.403 . S
C1533 C1534 1.392 1_655 S
C1533 C1537 1.495 . S
C1534 C1533 1.392 1_455 S
C1534 C1535 1.385 . S
C1534 C1536 1.478 . S
C1535 H1529 0.930 . S
C1535 C1531 1.400 . S
C1535 C1534 1.385 . S
C1536 C1534 1.478 . S
C1536 C1538 1.381 . S
C1536 C1542 1.383 . S
C1537 C1533 1.495 . S
C1537 H1543 0.959 . S
C1537 H1544 0.914 1_655 S
C1537 H1545 0.960 . S
C1538 C1536 1.381 . S
C1538 C1539 1.394 . S
C1538 H1546 0.930 . S
C1539 C1538 1.394 . S
C1539 C1540 1.383 . S
C1539 H1547 0.929 . S
C1540 C1539 1.383 . S
C1540 C1541 1.377 . S
C1541 H1525 0.930 . S
C1541 C1540 1.377 . S
C1541 C1542 1.379 . S
C1542 H1526 0.931 . S
C1542 C1536 1.383 . S
C1542 C1541 1.379 . S
H1543 C1537 0.959 . S
H1544 C1537 0.914 1_455 S
H1545 C1537 0.960 . S
H1546 C1538 0.930 . S
H1547 C1539 0.929 . S
H1548 C1556 0.929 . S
H1549 C1558 0.930 . S
H1550 C1560 0.930 . S
H1551 C1563 0.929 . S
H1552 C1566 0.930 . S
H1553 C1568 0.960 . S
H1554 C1568 0.960 . S
H1555 C1568 0.960 . S
C1556 H1548 0.929 . S
C1556 C1557 1.377 . S
C1556 C1558 1.384 . S
C1557 C1556 1.377 . S
C1557 C1563 1.390 . S
C1558 H1549 0.930 . S
C1558 C1556 1.384 . S
C1558 C1559 1.372 . S
C1559 C1558 1.372 . S
C1559 C1560 1.400 . S
C1559 C1564 1.490 . S
C1560 H1550 0.930 . S
C1560 C1559 1.400 . S
C1560 C1563 1.386 . S
H1561 C1577 0.930 . S
H1562 C1578 0.931 . S
C1563 H1551 0.929 . S
C1563 C1557 1.390 . S
C1563 C1560 1.386 . S
C1564 C1559 1.490 . S
C1564 C1566 1.395 . S
C1564 C1567 1.403 . S
H1565 C1571 0.930 . S
C1566 H1552 0.930 . S
C1566 C1564 1.395 . S
C1566 C1569 1.403 . S
C1567 C1564 1.403 . S
C1567 C1568 1.524 . S
C1567 C1571 1.400 . S
C1568 H1553 0.960 . S
C1568 H1554 0.960 . S
C1568 H1555 0.960 . S
C1568 C1567 1.524 . S
C1569 C1566 1.403 . S
C1569 C1570 1.392 . S
C1569 C1573 1.495 . S
C1570 C1569 1.392 . S
C1570 C1571 1.385 . S
C1570 C1572 1.478 . S
C1571 H1565 0.930 . S
C1571 C1567 1.400 . S
C1571 C1570 1.385 . S
C1572 C1570 1.478 . S
C1572 C1574 1.381 . S
C1572 C1578 1.383 . S
C1573 C1569 1.495 . S
C1573 H1579 0.959 . S
C1573 H1580 0.961 . S
C1573 H1581 0.960 . S
C1574 C1572 1.381 . S
C1574 C1575 1.394 . S
C1574 H1582 0.930 . S
C1575 C1574 1.394 . S
C1575 C1576 1.383 . S
C1575 H1583 0.929 . S
C1576 C1575 1.383 . S
C1576 C1577 1.377 . S
C1577 H1561 0.930 . S
C1577 C1576 1.377 . S
C1577 C1578 1.379 . S
C1578 H1562 0.931 . S
C1578 C1572 1.383 . S
C1578 C1577 1.379 . S
H1579 C1573 0.959 . S
H1580 C1573 0.961 . S
H1581 C1573 0.960 . S
H1582 C1574 0.930 . S
H1583 C1575 0.929 . S
H1584 C1592 0.929 . S
H1585 C1594 0.930 . S
H1586 C1596 0.930 . S
H1587 C1599 0.929 . S
H1588 C1602 0.930 . S
H1589 C1604 0.960 . S
H1590 C1604 0.960 . S
H1591 C1604 0.960 . S
C1592 H1584 0.929 . S
C1592 C1593 1.377 . S
C1592 C1594 1.384 . S
C1593 C1592 1.377 . S
C1593 C1599 1.390 . S
C1594 H1585 0.930 . S
C1594 C1592 1.384 . S
C1594 C1595 1.372 . S
C1595 C1594 1.372 . S
C1595 C1596 1.400 . S
C1595 C1600 1.490 . S
C1596 H1586 0.930 . S
C1596 C1595 1.400 . S
C1596 C1599 1.386 . S
H1597 C1613 0.930 . S
H1598 C1614 0.931 . S
C1599 H1587 0.929 . S
C1599 C1593 1.390 . S
C1599 C1596 1.386 . S
C1600 C1595 1.490 . S
C1600 C1602 1.395 1_545 S
C1600 C1603 1.403 . S
H1601 C1607 0.930 . S
C1602 H1588 0.930 . S
C1602 C1600 1.395 1_565 S
C1602 C1605 1.403 . S
C1603 C1600 1.403 . S
C1603 C1604 1.524 . S
C1603 C1607 1.399 . S
C1604 H1589 0.960 . S
C1604 H1590 0.960 . S
C1604 H1591 0.960 . S
C1604 C1603 1.524 . S
C1605 C1602 1.403 . S
C1605 C1606 1.392 . S
C1605 C1609 1.495 . S
C1606 C1605 1.392 . S
C1606 C1607 1.386 1_565 S
C1606 C1608 1.478 . S
C1607 H1601 0.930 . S
C1607 C1603 1.399 . S
C1607 C1606 1.386 1_545 S
C1608 C1606 1.478 . S
C1608 C1610 1.381 . S
C1608 C1614 1.383 . S
C1609 C1605 1.495 . S
C1609 H1615 0.959 . S
C1609 H1616 0.961 . S
C1609 H1617 0.960 . S
C1610 C1608 1.381 . S
C1610 C1611 1.394 . S
C1610 H1618 0.930 . S
C1611 C1610 1.394 . S
C1611 C1612 1.383 . S
C1611 H1619 0.929 . S
C1612 C1611 1.383 . S
C1612 C1613 1.377 . S
C1613 H1597 0.930 . S
C1613 C1612 1.377 . S
C1613 C1614 1.379 . S
C1614 H1598 0.931 . S
C1614 C1608 1.383 . S
C1614 C1613 1.379 . S
H1615 C1609 0.959 . S
H1616 C1609 0.961 . S
H1617 C1609 0.960 . S
H1618 C1610 0.930 . S
H1619 C1611 0.929 . S
H1620 C1628 0.929 . S
H1621 C1630 0.930 . S
H1622 C1632 0.930 . S
H1623 C1635 0.929 . S
H1624 C1638 0.930 . S
H1625 C1640 0.960 . S
H1626 C1640 0.960 . S
H1627 C1640 0.960 . S
C1628 H1620 0.929 . S
C1628 C1629 1.377 . S
C1628 C1630 1.384 . S
C1629 C1628 1.377 . S
C1629 C1635 1.390 . S
C1630 H1621 0.930 . S
C1630 C1628 1.384 . S
C1630 C1631 1.372 . S
C1631 C1630 1.372 . S
C1631 C1632 1.400 . S
C1631 C1636 1.490 . S
C1632 H1622 0.930 . S
C1632 C1631 1.400 . S
C1632 C1635 1.386 . S
H1633 C1649 0.930 1_556 S
H1634 C1650 0.931 . S
C1635 H1623 0.929 . S
C1635 C1629 1.390 . S
C1635 C1632 1.386 . S
C1636 C1631 1.490 . S
C1636 C1638 1.395 . S
C1636 C1639 1.403 . S
H1637 C1643 0.930 . S
C1638 H1624 0.930 . S
C1638 C1636 1.395 . S
C1638 C1641 1.403 . S
C1639 C1636 1.403 . S
C1639 C1640 1.524 . S
C1639 C1643 1.400 . S
C1640 H1625 0.960 . S
C1640 H1626 0.960 . S
C1640 H1627 0.960 . S
C1640 C1639 1.524 . S
C1641 C1638 1.403 . S
C1641 C1642 1.392 . S
C1641 C1645 1.495 . S
C1642 C1641 1.392 . S
C1642 C1643 1.385 . S
C1642 C1644 1.478 . S
C1643 H1637 0.930 . S
C1643 C1639 1.400 . S
C1643 C1642 1.385 . S
C1644 C1642 1.478 . S
C1644 C1646 1.381 . S
C1644 C1650 1.383 . S
C1645 C1641 1.495 . S
C1645 H1651 0.959 . S
C1645 H1652 0.961 . S
C1645 H1653 0.960 . S
C1646 C1644 1.381 . S
C1646 C1647 1.394 1_554 S
C1646 H1654 0.930 . S
C1647 C1646 1.394 1_556 S
C1647 C1648 1.383 . S
C1647 H1655 0.929 . S
C1648 C1647 1.383 . S
C1648 C1649 1.377 1_556 S
C1649 H1633 0.930 1_554 S
C1649 C1648 1.377 1_554 S
C1649 C1650 1.379 . S
C1650 H1634 0.931 . S
C1650 C1644 1.383 . S
C1650 C1649 1.379 . S
H1651 C1645 0.959 . S
H1652 C1645 0.961 . S
H1653 C1645 0.960 . S
H1654 C1646 0.930 . S
H1655 C1647 0.929 . S
H1656 C1664 0.929 . S
H1657 C1666 0.930 . S
H1658 C1668 0.930 . S
H1659 C1671 0.929 . S
H1660 C1674 0.930 . S
H1661 C1676 0.960 . S
H1662 C1676 0.960 . S
H1663 C1676 0.960 . S
C1664 H1656 0.929 . S
C1664 C1665 1.377 . S
C1664 C1666 1.384 1_556 S
C1665 C1664 1.377 . S
C1665 C1671 1.390 1_556 S
C1666 H1657 0.930 . S
C1666 C1664 1.384 1_554 S
C1666 C1667 1.372 . S
C1667 C1666 1.372 . S
C1667 C1668 1.400 . S
C1667 C1672 1.490 . S
C1668 H1658 0.930 . S
C1668 C1667 1.400 . S
C1668 C1671 1.386 . S
H1669 C1685 0.930 . S
H1670 C1686 0.931 . S
C1671 H1659 0.929 . S
C1671 C1665 1.390 1_554 S
C1671 C1668 1.386 . S
C1672 C1667 1.490 . S
C1672 C1674 1.395 . S
C1672 C1675 1.403 . S
H1673 C1679 0.930 . S
C1674 H1660 0.930 . S
C1674 C1672 1.395 . S
C1674 C1677 1.403 . S
C1675 C1672 1.403 . S
C1675 C1676 1.524 . S
C1675 C1679 1.400 . S
C1676 H1661 0.960 . S
C1676 H1662 0.960 . S
C1676 H1663 0.960 . S
C1676 C1675 1.524 . S
C1677 C1674 1.403 . S
C1677 C1678 1.392 . S
C1677 C1681 1.495 . S
C1678 C1677 1.392 . S
C1678 C1679 1.385 . S
C1678 C1680 1.478 . S
C1679 H1673 0.930 . S
C1679 C1675 1.400 . S
C1679 C1678 1.385 . S
C1680 C1678 1.478 . S
C1680 C1682 1.381 . S
C1680 C1686 1.383 . S
C1681 C1677 1.495 . S
C1681 H1687 0.959 . S
C1681 H1688 0.961 . S
C1681 H1689 0.960 . S
C1682 C1680 1.381 . S
C1682 C1683 1.394 . S
C1682 H1690 0.930 . S
C1683 C1682 1.394 . S
C1683 C1684 1.383 . S
C1683 H1691 0.929 . S
C1684 C1683 1.383 . S
C1684 C1685 1.377 . S
C1685 H1669 0.930 . S
C1685 C1684 1.377 . S
C1685 C1686 1.379 . S
C1686 H1670 0.931 . S
C1686 C1680 1.383 . S
C1686 C1685 1.379 . S
H1687 C1681 0.959 . S
H1688 C1681 0.961 . S
H1689 C1681 0.960 . S
H1690 C1682 0.930 . S
H1691 C1683 0.929 . S
H1692 C1700 0.929 . S
H1693 C1702 0.930 . S
H1694 C1704 0.930 . S
H1695 C1707 0.929 . S
H1696 C1710 0.930 . S
H1697 C1712 0.960 . S
H1698 C1712 0.960 . S
H1699 C1712 0.960 . S
C1700 H1692 0.929 . S
C1700 C1701 1.377 . S
C1700 C1702 1.384 . S
C1701 C1700 1.377 . S
C1701 C1707 1.390 . S
C1702 H1693 0.930 . S
C1702 C1700 1.384 . S
C1702 C1703 1.372 . S
C1703 C1702 1.372 . S
C1703 C1704 1.400 . S
C1703 C1708 1.490 . S
C1704 H1694 0.930 . S
C1704 C1703 1.400 . S
C1704 C1707 1.386 . S
H1705 C1721 0.930 . S
H1706 C1722 0.931 . S
C1707 H1695 0.929 . S
C1707 C1701 1.390 . S
C1707 C1704 1.386 . S
C1708 C1703 1.490 . S
C1708 C1710 1.395 . S
C1708 C1711 1.403 . S
H1709 C1715 0.930 . S
C1710 H1696 0.930 . S
C1710 C1708 1.395 . S
C1710 C1713 1.403 . S
C1711 C1708 1.403 . S
C1711 C1712 1.524 . S
C1711 C1715 1.400 . S
C1712 H1697 0.960 . S
C1712 H1698 0.960 . S
C1712 H1699 0.960 . S
C1712 C1711 1.524 . S
C1713 C1710 1.403 . S
C1713 C1714 1.392 . S
C1713 C1717 1.495 . S
C1714 C1713 1.392 . S
C1714 C1715 1.385 . S
C1714 C1716 1.478 . S
C1715 H1709 0.930 . S
C1715 C1711 1.400 . S
C1715 C1714 1.385 . S
C1716 C1714 1.478 . S
C1716 C1718 1.381 . S
C1716 C1722 1.383 . S
C1717 C1713 1.495 . S
C1717 H1723 0.959 . S
C1717 H1724 0.961 . S
C1717 H1725 0.960 . S
C1718 C1716 1.381 . S
C1718 C1719 1.394 . S
C1718 H1726 0.930 . S
C1719 C1718 1.394 . S
C1719 C1720 1.383 1_554 S
C1719 H1727 0.929 1_554 S
C1720 C1719 1.383 1_556 S
C1720 C1721 1.377 . S
C1721 H1705 0.930 . S
C1721 C1720 1.377 . S
C1721 C1722 1.379 1_556 S
C1722 H1706 0.931 . S
C1722 C1716 1.383 . S
C1722 C1721 1.379 1_554 S
H1723 C1717 0.959 . S
H1724 C1717 0.961 . S
H1725 C1717 0.960 . S
H1726 C1718 0.930 . S
H1727 C1719 0.929 1_556 S
H1728 C1736 0.929 . S
H1729 C1738 0.930 . S
H1730 C1740 0.930 . S
H1731 C1743 0.929 . S
H1732 C1746 0.930 . S
H1733 C1748 0.960 . S
H1734 C1748 0.960 . S
H1735 C1748 0.960 . S
C1736 H1728 0.929 . S
C1736 C1737 1.377 . S
C1736 C1738 1.384 . S
C1737 C1736 1.377 . S
C1737 C1743 1.390 . S
C1738 H1729 0.930 . S
C1738 C1736 1.384 . S
C1738 C1739 1.372 . S
C1739 C1738 1.372 . S
C1739 C1740 1.400 . S
C1739 C1744 1.490 . S
C1740 H1730 0.930 . S
C1740 C1739 1.400 . S
C1740 C1743 1.386 . S
H1741 C1757 0.930 . S
H1742 C1758 0.931 . S
C1743 H1731 0.929 . S
C1743 C1737 1.390 . S
C1743 C1740 1.386 . S
C1744 C1739 1.490 . S
C1744 C1746 1.395 . S
C1744 C1747 1.403 . S
H1745 C1751 0.930 . S
C1746 H1732 0.930 . S
C1746 C1744 1.395 . S
C1746 C1749 1.403 . S
C1747 C1744 1.403 . S
C1747 C1748 1.524 . S
C1747 C1751 1.400 . S
C1748 H1733 0.960 . S
C1748 H1734 0.960 . S
C1748 H1735 0.960 . S
C1748 C1747 1.524 . S
C1749 C1746 1.403 . S
C1749 C1750 1.392 . S
C1749 C1753 1.495 . S
C1750 C1749 1.392 . S
C1750 C1751 1.385 . S
C1750 C1752 1.478 . S
C1751 H1745 0.930 . S
C1751 C1747 1.400 . S
C1751 C1750 1.385 . S
C1752 C1750 1.478 . S
C1752 C1754 1.381 . S
C1752 C1758 1.383 . S
C1753 C1749 1.495 . S
C1753 H1759 0.959 . S
C1753 H1760 0.961 . S
C1753 H1761 0.960 . S
C1754 C1752 1.381 . S
C1754 C1755 1.394 . S
C1754 H1762 0.930 . S
C1755 C1754 1.394 . S
C1755 C1756 1.383 . S
C1755 H1763 0.929 . S
C1756 C1755 1.383 . S
C1756 C1757 1.377 . S
C1757 H1741 0.930 . S
C1757 C1756 1.377 . S
C1757 C1758 1.379 . S
C1758 H1742 0.931 . S
C1758 C1752 1.383 . S
C1758 C1757 1.379 . S
H1759 C1753 0.959 . S
H1760 C1753 0.961 . S
H1761 C1753 0.960 . S
H1762 C1754 0.930 . S
H1763 C1755 0.929 . S
H1764 C1772 0.929 . S
H1765 C1774 0.930 . S
H1766 C1776 0.930 . S
H1767 C1779 0.929 . S
H1768 C1782 0.930 . S
H1769 C1784 0.960 . S
H1770 C1784 0.960 . S
H1771 C1784 0.960 . S
C1772 H1764 0.929 . S
C1772 C1773 1.377 . S
C1772 C1774 1.384 . S
C1773 C1772 1.377 . S
C1773 C1779 1.390 . S
C1774 H1765 0.930 . S
C1774 C1772 1.384 . S
C1774 C1775 1.372 . S
C1775 C1774 1.372 . S
C1775 C1776 1.400 . S
C1775 C1780 1.490 . S
C1776 H1766 0.930 . S
C1776 C1775 1.400 . S
C1776 C1779 1.386 . S
H1777 C1793 0.930 . S
H1778 C1794 0.931 . S
C1779 H1767 0.929 . S
C1779 C1773 1.390 . S
C1779 C1776 1.386 . S
C1780 C1775 1.490 . S
C1780 C1782 1.395 . S
C1780 C1783 1.403 . S
H1781 C1787 0.930 . S
C1782 H1768 0.930 . S
C1782 C1780 1.395 . S
C1782 C1785 1.403 . S
C1783 C1780 1.403 . S
C1783 C1784 1.524 . S
C1783 C1787 1.400 . S
C1784 H1769 0.960 . S
C1784 H1770 0.960 . S
C1784 H1771 0.960 . S
C1784 C1783 1.524 . S
C1785 C1782 1.403 . S
C1785 C1786 1.392 . S
C1785 C1789 1.495 . S
C1786 C1785 1.392 . S
C1786 C1787 1.385 . S
C1786 C1788 1.478 . S
C1787 H1781 0.930 . S
C1787 C1783 1.400 . S
C1787 C1786 1.385 . S
C1788 C1786 1.478 . S
C1788 C1790 1.381 . S
C1788 C1794 1.383 . S
C1789 C1785 1.495 . S
C1789 H1795 0.959 . S
C1789 H1796 0.961 . S
C1789 H1797 0.960 . S
C1790 C1788 1.381 . S
C1790 C1791 1.394 . S
C1790 H1798 0.930 . S
C1791 C1790 1.394 . S
C1791 C1792 1.383 . S
C1791 H1799 0.929 . S
C1792 C1791 1.383 . S
C1792 C1793 1.377 . S
C1793 H1777 0.930 . S
C1793 C1792 1.377 . S
C1793 C1794 1.379 . S
C1794 H1778 0.931 . S
C1794 C1788 1.383 . S
C1794 C1793 1.379 . S
H1795 C1789 0.959 . S
H1796 C1789 0.961 . S
H1797 C1789 0.960 . S
H1798 C1790 0.930 . S
H1799 C1791 0.929 . S
H1800 C1808 0.929 . S
H1801 C1810 0.930 . S
H1802 C1812 0.930 . S
H1803 C1815 0.929 . S
H1804 C1818 0.930 . S
H1805 C1820 0.960 . S
H1806 C1820 0.960 . S
H1807 C1820 0.960 . S
C1808 H1800 0.929 . S
C1808 C1809 1.377 . S
C1808 C1810 1.384 . S
C1809 C1808 1.377 . S
C1809 C1815 1.390 . S
C1810 H1801 0.930 . S
C1810 C1808 1.384 . S
C1810 C1811 1.372 . S
C1811 C1810 1.372 . S
C1811 C1812 1.400 . S
C1811 C1816 1.490 . S
C1812 H1802 0.930 . S
C1812 C1811 1.400 . S
C1812 C1815 1.386 . S
H1813 C1829 0.930 . S
H1814 C1830 0.931 . S
C1815 H1803 0.929 . S
C1815 C1809 1.390 . S
C1815 C1812 1.386 . S
C1816 C1811 1.490 . S
C1816 C1818 1.395 . S
C1816 C1819 1.403 . S
H1817 C1823 0.930 . S
C1818 H1804 0.930 . S
C1818 C1816 1.395 . S
C1818 C1821 1.403 . S
C1819 C1816 1.403 . S
C1819 C1820 1.524 . S
C1819 C1823 1.400 . S
C1820 H1805 0.960 . S
C1820 H1806 0.960 . S
C1820 H1807 0.960 . S
C1820 C1819 1.524 . S
C1821 C1818 1.403 . S
C1821 C1822 1.392 . S
C1821 C1825 1.495 . S
C1822 C1821 1.392 . S
C1822 C1823 1.385 . S
C1822 C1824 1.478 . S
C1823 H1817 0.930 . S
C1823 C1819 1.400 . S
C1823 C1822 1.385 . S
C1824 C1822 1.478 . S
C1824 C1826 1.381 . S
C1824 C1830 1.383 . S
C1825 C1821 1.495 . S
C1825 H1831 0.959 . S
C1825 H1832 0.961 . S
C1825 H1833 0.960 . S
C1826 C1824 1.381 . S
C1826 C1827 1.394 . S
C1826 H1834 0.930 . S
C1827 C1826 1.394 . S
C1827 C1828 1.383 . S
C1827 H1835 0.929 . S
C1828 C1827 1.383 . S
C1828 C1829 1.377 . S
C1829 H1813 0.930 . S
C1829 C1828 1.377 . S
C1829 C1830 1.379 . S
C1830 H1814 0.931 . S
C1830 C1824 1.383 . S
C1830 C1829 1.379 . S
H1831 C1825 0.959 . S
H1832 C1825 0.961 . S
H1833 C1825 0.960 . S
H1834 C1826 0.930 . S
H1835 C1827 0.929 . S
H1836 C1844 0.929 . S
H1837 C1846 0.930 . S
H1838 C1848 0.930 . S
H1839 C1851 0.929 . S
H1840 C1854 0.930 . S
H1841 C1856 0.960 . S
H1842 C1856 0.960 . S
H1843 C1856 0.960 . S
C1844 H1836 0.929 . S
C1844 C1845 1.377 . S
C1844 C1846 1.384 . S
C1845 C1844 1.377 . S
C1845 C1851 1.390 . S
C1846 H1837 0.930 . S
C1846 C1844 1.384 . S
C1846 C1847 1.372 . S
C1847 C1846 1.372 . S
C1847 C1848 1.400 . S
C1847 C1852 1.490 . S
C1848 H1838 0.930 . S
C1848 C1847 1.400 . S
C1848 C1851 1.386 . S
H1849 C1865 0.930 . S
H1850 C1866 0.931 . S
C1851 H1839 0.929 . S
C1851 C1845 1.390 . S
C1851 C1848 1.386 . S
C1852 C1847 1.490 . S
C1852 C1854 1.395 . S
C1852 C1855 1.403 . S
H1853 C1859 0.930 . S
C1854 H1840 0.930 . S
C1854 C1852 1.395 . S
C1854 C1857 1.403 . S
C1855 C1852 1.403 . S
C1855 C1856 1.524 . S
C1855 C1859 1.400 . S
C1856 H1841 0.960 . S
C1856 H1842 0.960 . S
C1856 H1843 0.960 . S
C1856 C1855 1.524 . S
C1857 C1854 1.403 . S
C1857 C1858 1.392 . S
C1857 C1861 1.495 . S
C1858 C1857 1.392 . S
C1858 C1859 1.385 . S
C1858 C1860 1.478 . S
C1859 H1853 0.930 . S
C1859 C1855 1.400 . S
C1859 C1858 1.385 . S
C1860 C1858 1.478 . S
C1860 C1862 1.381 . S
C1860 C1866 1.383 . S
C1861 C1857 1.495 . S
C1861 H1867 0.959 . S
C1861 H1868 0.961 . S
C1861 H1869 0.960 . S
C1862 C1860 1.381 . S
C1862 C1863 1.394 . S
C1862 H1870 0.930 . S
C1863 C1862 1.394 . S
C1863 C1864 1.383 . S
C1863 H1871 0.929 . S
C1864 C1863 1.383 . S
C1864 C1865 1.377 . S
C1865 H1849 0.930 . S
C1865 C1864 1.377 . S
C1865 C1866 1.379 . S
C1866 H1850 0.931 . S
C1866 C1860 1.383 . S
C1866 C1865 1.379 . S
H1867 C1861 0.959 . S
H1868 C1861 0.961 . S
H1869 C1861 0.960 . S
H1870 C1862 0.930 . S
H1871 C1863 0.929 . S
H1872 C1880 0.929 . S
H1873 C1882 0.930 . S
H1874 C1884 0.930 . S
H1875 C1887 0.929 . S
H1876 C1890 0.930 . S
H1877 C1892 0.960 . S
H1878 C1892 0.960 . S
H1879 C1892 0.960 . S
C1880 H1872 0.929 . S
C1880 C1881 1.377 . S
C1880 C1882 1.384 . S
C1881 C1880 1.377 . S
C1881 C1887 1.390 . S
C1882 H1873 0.930 . S
C1882 C1880 1.384 . S
C1882 C1883 1.372 . S
C1883 C1882 1.372 . S
C1883 C1884 1.400 . S
C1883 C1888 1.490 . S
C1884 H1874 0.930 . S
C1884 C1883 1.400 . S
C1884 C1887 1.386 . S
H1885 C1901 0.930 . S
H1886 C1902 0.931 . S
C1887 H1875 0.929 . S
C1887 C1881 1.390 . S
C1887 C1884 1.386 . S
C1888 C1883 1.490 . S
C1888 C1890 1.395 . S
C1888 C1891 1.403 . S
H1889 C1895 0.930 . S
C1890 H1876 0.930 . S
C1890 C1888 1.395 . S
C1890 C1893 1.403 . S
C1891 C1888 1.403 . S
C1891 C1892 1.524 . S
C1891 C1895 1.400 . S
C1892 H1877 0.960 . S
C1892 H1878 0.960 . S
C1892 H1879 0.960 . S
C1892 C1891 1.524 . S
C1893 C1890 1.403 . S
C1893 C1894 1.392 . S
C1893 C1897 1.495 . S
C1894 C1893 1.392 . S
C1894 C1895 1.385 . S
C1894 C1896 1.478 . S
C1895 H1889 0.930 . S
C1895 C1891 1.400 . S
C1895 C1894 1.385 . S
C1896 C1894 1.478 . S
C1896 C1898 1.381 . S
C1896 C1902 1.383 . S
C1897 C1893 1.495 . S
C1897 H1903 0.959 . S
C1897 H1904 0.961 . S
C1897 H1905 0.960 . S
C1898 C1896 1.381 . S
C1898 C1899 1.394 . S
C1898 H1906 0.930 . S
C1899 C1898 1.394 . S
C1899 C1900 1.383 . S
C1899 H1907 0.929 . S
C1900 C1899 1.383 . S
C1900 C1901 1.377 . S
C1901 H1885 0.930 . S
C1901 C1900 1.377 . S
C1901 C1902 1.379 . S
C1902 H1886 0.931 . S
C1902 C1896 1.383 . S
C1902 C1901 1.379 . S
H1903 C1897 0.959 . S
H1904 C1897 0.961 . S
H1905 C1897 0.960 . S
H1906 C1898 0.930 . S
H1907 C1899 0.929 . S
H1908 C1916 0.929 . S
H1909 C1918 0.930 . S
H1910 C1920 0.930 . S
H1911 C1923 0.929 . S
H1912 C1926 0.930 . S
H1913 C1928 0.960 . S
H1914 C1928 0.960 . S
H1915 C1928 0.960 . S
C1916 H1908 0.929 . S
C1916 C1917 1.377 . S
C1916 C1918 1.384 . S
C1917 C1916 1.377 . S
C1917 C1923 1.390 . S
C1918 H1909 0.930 . S
C1918 C1916 1.384 . S
C1918 C1919 1.372 . S
C1919 C1918 1.372 . S
C1919 C1920 1.400 . S
C1919 C1924 1.490 . S
C1920 H1910 0.930 . S
C1920 C1919 1.400 . S
C1920 C1923 1.386 . S
H1921 C1937 0.930 . S
H1922 C1938 0.931 . S
C1923 H1911 0.929 . S
C1923 C1917 1.390 . S
C1923 C1920 1.386 . S
C1924 C1919 1.490 . S
C1924 C1926 1.395 . S
C1924 C1927 1.403 . S
H1925 C1931 0.930 . S
C1926 H1912 0.930 . S
C1926 C1924 1.395 . S
C1926 C1929 1.403 . S
C1927 C1924 1.403 . S
C1927 C1928 1.524 . S
C1927 C1931 1.400 . S
C1928 H1913 0.960 . S
C1928 H1914 0.960 . S
C1928 H1915 0.960 . S
C1928 C1927 1.524 . S
C1929 C1926 1.403 . S
C1929 C1930 1.392 . S
C1929 C1933 1.495 . S
C1930 C1929 1.392 . S
C1930 C1931 1.385 . S
C1930 C1932 1.478 . S
C1931 H1925 0.930 . S
C1931 C1927 1.400 . S
C1931 C1930 1.385 . S
C1932 C1930 1.478 . S
C1932 C1934 1.381 . S
C1932 C1938 1.383 . S
C1933 C1929 1.495 . S
C1933 H1939 0.959 . S
C1933 H1940 0.961 . S
C1933 H1941 0.960 . S
C1934 C1932 1.381 . S
C1934 C1935 1.394 . S
C1934 H1942 0.930 . S
C1935 C1934 1.394 . S
C1935 C1936 1.383 . S
C1935 H1943 0.929 . S
C1936 C1935 1.383 . S
C1936 C1937 1.377 . S
C1937 H1921 0.930 . S
C1937 C1936 1.377 . S
C1937 C1938 1.379 . S
C1938 H1922 0.931 . S
C1938 C1932 1.383 . S
C1938 C1937 1.379 . S
H1939 C1933 0.959 . S
H1940 C1933 0.961 . S
H1941 C1933 0.960 . S
H1942 C1934 0.930 . S
H1943 C1935 0.929 . S
H1944 C1952 0.929 . S
H1945 C1954 0.930 . S
H1946 C1956 0.930 . S
H1947 C1959 0.929 . S
H1948 C1962 0.930 . S
H1949 C1964 0.960 . S
H1950 C1964 0.960 . S
H1951 C1964 0.960 . S
C1952 H1944 0.929 . S
C1952 C1953 1.377 . S
C1952 C1954 1.384 . S
C1953 C1952 1.377 . S
C1953 C1959 1.390 . S
C1954 H1945 0.930 . S
C1954 C1952 1.384 . S
C1954 C1955 1.372 . S
C1955 C1954 1.372 . S
C1955 C1956 1.400 . S
C1955 C1960 1.490 . S
C1956 H1946 0.930 . S
C1956 C1955 1.400 . S
C1956 C1959 1.386 . S
H1957 C1973 0.930 . S
H1958 C1974 0.931 . S
C1959 H1947 0.929 . S
C1959 C1953 1.390 . S
C1959 C1956 1.386 . S
C1960 C1955 1.490 . S
C1960 C1962 1.395 . S
C1960 C1963 1.403 . S
H1961 C1967 0.930 1_554 S
C1962 H1948 0.930 . S
C1962 C1960 1.395 . S
C1962 C1965 1.403 . S
C1963 C1960 1.403 . S
C1963 C1964 1.524 . S
C1963 C1967 1.400 . S
C1964 H1949 0.960 . S
C1964 H1950 0.960 . S
C1964 H1951 0.960 . S
C1964 C1963 1.524 . S
C1965 C1962 1.403 . S
C1965 C1966 1.392 . S
C1965 C1969 1.495 . S
C1966 C1965 1.392 . S
C1966 C1967 1.385 . S
C1966 C1968 1.478 1_556 S
C1967 H1961 0.930 1_556 S
C1967 C1963 1.400 . S
C1967 C1966 1.385 . S
C1968 C1966 1.478 1_554 S
C1968 C1970 1.381 . S
C1968 C1974 1.383 . S
C1969 C1965 1.495 . S
C1969 H1975 0.959 . S
C1969 H1976 0.961 . S
C1969 H1977 0.960 . S
C1970 C1968 1.381 . S
C1970 C1971 1.394 . S
C1970 H1978 0.930 1_554 S
C1971 C1970 1.394 . S
C1971 C1972 1.383 . S
C1971 H1979 0.929 . S
C1972 C1971 1.383 . S
C1972 C1973 1.377 . S
C1973 H1957 0.930 . S
C1973 C1972 1.377 . S
C1973 C1974 1.379 . S
C1974 H1958 0.931 . S
C1974 C1968 1.383 . S
C1974 C1973 1.379 . S
H1975 C1969 0.959 . S
H1976 C1969 0.961 . S
H1977 C1969 0.960 . S
H1978 C1970 0.930 1_556 S
H1979 C1971 0.929 . S
H1980 C1988 0.929 . S
H1981 C1990 0.930 . S
H1982 C1992 0.930 . S
H1983 C1995 0.929 . S
H1984 C1998 0.930 . S
H1985 C2000 0.960 . S
H1986 C2000 0.960 . S
H1987 C2000 0.960 . S
C1988 H1980 0.929 . S
C1988 C1989 1.377 . S
C1988 C1990 1.384 . S
C1989 C1988 1.377 . S
C1989 C1995 1.390 . S
C1990 H1981 0.930 . S
C1990 C1988 1.384 . S
C1990 C1991 1.372 . S
C1991 C1990 1.372 . S
C1991 C1992 1.400 . S
C1991 C1996 1.490 . S
C1992 H1982 0.930 . S
C1992 C1991 1.400 . S
C1992 C1995 1.386 . S
H1993 C2009 0.930 . S
H1994 C2010 0.940 . S
C1995 H1983 0.929 . S
C1995 C1989 1.390 . S
C1995 C1992 1.386 . S
C1996 C1991 1.490 . S
C1996 C1998 1.395 . S
C1996 C1999 1.403 . S
H1997 C2003 0.930 . S
C1998 H1984 0.930 . S
C1998 C1996 1.395 . S
C1998 C2001 1.403 . S
C1999 C1996 1.403 . S
C1999 C2000 1.524 . S
C1999 C2003 1.400 . S
C2000 H1985 0.960 . S
C2000 H1986 0.960 . S
C2000 H1987 0.960 . S
C2000 C1999 1.524 . S
C2001 C1998 1.403 . S
C2001 C2002 1.392 . S
C2001 C2005 1.495 1_556 S
C2002 C2001 1.392 . S
C2002 C2003 1.385 . S
C2002 C2004 1.478 1_556 S
C2003 H1997 0.930 . S
C2003 C1999 1.400 . S
C2003 C2002 1.385 . S
C2004 C2002 1.478 1_554 S
C2004 C2006 1.381 . S
C2004 C2010 1.383 . S
C2005 C2001 1.495 1_554 S
C2005 H2011 0.959 . S
C2005 H2012 0.961 . S
C2005 H2013 0.960 . S
C2006 C2004 1.381 . S
C2006 C2007 1.394 . S
C2006 H2014 0.930 . S
C2007 C2006 1.394 . S
C2007 C2008 1.383 . S
C2007 H2015 0.929 . S
C2008 C2007 1.383 . S
C2008 C2009 1.377 . S
C2009 H1993 0.930 . S
C2009 C2008 1.377 . S
C2009 C2010 1.379 . S
C2010 H1994 0.940 . S
C2010 C2004 1.383 . S
C2010 C2009 1.379 . S
H2011 C2005 0.959 . S
H2012 C2005 0.961 . S
H2013 C2005 0.960 . S
H2014 C2006 0.930 . S
H2015 C2007 0.929 . S
H2016 C2024 0.929 . S
H2017 C2026 0.930 . S
H2018 C2028 0.930 . S
H2019 C2031 0.929 . S
H2020 C2034 0.930 . S
H2021 C2036 0.960 . S
H2022 C2036 0.960 . S
H2023 C2036 0.960 . S
C2024 H2016 0.929 . S
C2024 C2025 1.377 . S
C2024 C2026 1.384 . S
C2025 C2024 1.377 . S
C2025 C2031 1.390 . S
C2026 H2017 0.930 . S
C2026 C2024 1.384 . S
C2026 C2027 1.372 . S
C2027 C2026 1.372 . S
C2027 C2028 1.400 . S
C2027 C2032 1.490 . S
C2028 H2018 0.930 . S
C2028 C2027 1.400 . S
C2028 C2031 1.386 . S
H2029 C2045 0.930 . S
H2030 C2046 0.931 1_556 S
C2031 H2019 0.929 . S
C2031 C2025 1.390 . S
C2031 C2028 1.386 . S
C2032 C2027 1.490 . S
C2032 C2034 1.395 . S
C2032 C2035 1.403 . S
H2033 C2039 0.930 . S
C2034 H2020 0.930 . S
C2034 C2032 1.395 . S
C2034 C2037 1.403 . S
C2035 C2032 1.403 . S
C2035 C2036 1.524 . S
C2035 C2039 1.400 . S
C2036 H2021 0.960 . S
C2036 H2022 0.960 . S
C2036 H2023 0.960 . S
C2036 C2035 1.524 . S
C2037 C2034 1.403 . S
C2037 C2038 1.392 . S
C2037 C2041 1.495 . S
C2038 C2037 1.392 . S
C2038 C2039 1.385 . S
C2038 C2040 1.478 1_556 S
C2039 H2033 0.930 . S
C2039 C2035 1.400 . S
C2039 C2038 1.385 . S
C2040 C2038 1.478 1_554 S
C2040 C2042 1.381 . S
C2040 C2046 1.383 . S
C2041 C2037 1.495 . S
C2041 H2047 0.959 . S
C2041 H2048 0.961 . S
C2041 H2049 0.960 1_556 S
C2042 C2040 1.381 . S
C2042 C2043 1.394 . S
C2042 H2050 0.930 . S
C2043 C2042 1.394 . S
C2043 C2044 1.383 . S
C2043 H2051 0.929 . S
C2044 C2043 1.383 . S
C2044 C2045 1.377 . S
C2045 H2029 0.930 . S
C2045 C2044 1.377 . S
C2045 C2046 1.379 . S
C2046 H2030 0.931 1_554 S
C2046 C2040 1.383 . S
C2046 C2045 1.379 . S
H2047 C2041 0.959 . S
H2048 C2041 0.961 . S
H2049 C2041 0.960 1_554 S
H2050 C2042 0.930 . S
H2051 C2043 0.929 . S
H2052 C2060 0.929 . S
H2053 C2062 0.930 . S
H2054 C2064 0.930 . S
H2055 C2067 0.929 . S
H2056 C2070 0.930 . S
H2057 C2072 0.960 . S
H2058 C2072 0.960 . S
H2059 C2072 0.960 . S
C2060 H2052 0.929 . S
C2060 C2061 1.377 . S
C2060 C2062 1.384 . S
C2061 C2060 1.377 . S
C2061 C2067 1.390 . S
C2062 H2053 0.930 . S
C2062 C2060 1.384 . S
C2062 C2063 1.372 . S
C2063 C2062 1.372 . S
C2063 C2064 1.400 . S
C2063 C2068 1.490 . S
C2064 H2054 0.930 . S
C2064 C2063 1.400 . S
C2064 C2067 1.386 . S
H2065 C2081 0.930 . S
H2066 C2082 0.931 . S
C2067 H2055 0.929 . S
C2067 C2061 1.390 . S
C2067 C2064 1.386 . S
C2068 C2063 1.490 . S
C2068 C2070 1.395 . S
C2068 C2071 1.403 . S
H2069 C2075 0.930 . S
C2070 H2056 0.930 . S
C2070 C2068 1.395 . S
C2070 C2073 1.403 . S
C2071 C2068 1.403 . S
C2071 C2072 1.524 . S
C2071 C2075 1.400 . S
C2072 H2057 0.960 . S
C2072 H2058 0.960 . S
C2072 H2059 0.960 . S
C2072 C2071 1.524 . S
C2073 C2070 1.403 . S
C2073 C2074 1.392 . S
C2073 C2077 1.495 . S
C2074 C2073 1.392 . S
C2074 C2075 1.385 . S
C2074 C2076 1.478 . S
C2075 H2069 0.930 . S
C2075 C2071 1.400 . S
C2075 C2074 1.385 . S
C2076 C2074 1.478 . S
C2076 C2078 1.381 . S
C2076 C2082 1.383 . S
C2077 C2073 1.495 . S
C2077 H2083 0.959 . S
C2077 H2084 0.961 . S
C2077 H2085 0.960 . S
C2078 C2076 1.381 . S
C2078 C2079 1.394 . S
C2078 H2086 0.930 . S
C2079 C2078 1.394 . S
C2079 C2080 1.383 . S
C2079 H2087 0.929 . S
C2080 C2079 1.383 . S
C2080 C2081 1.377 . S
C2081 H2065 0.930 . S
C2081 C2080 1.377 . S
C2081 C2082 1.379 . S
C2082 H2066 0.931 . S
C2082 C2076 1.383 . S
C2082 C2081 1.379 . S
H2083 C2077 0.959 . S
H2084 C2077 0.961 . S
H2085 C2077 0.960 . S
H2086 C2078 0.930 . S
H2087 C2079 0.929 . S
H2088 C2096 0.929 . S
H2089 C2098 0.930 . S
H2090 C2100 0.930 . S
H2091 C2103 0.929 . S
H2092 C2106 0.930 . S
H2093 C2108 0.960 . S
H2094 C2108 0.960 . S
H2095 C2108 0.960 . S
C2096 H2088 0.929 . S
C2096 C2097 1.377 . S
C2096 C2098 1.384 . S
C2097 C2096 1.377 . S
C2097 C2103 1.390 . S
C2098 H2089 0.930 . S
C2098 C2096 1.384 . S
C2098 C2099 1.372 . S
C2099 C2098 1.372 . S
C2099 C2100 1.400 . S
C2099 C2104 1.490 . S
C2100 H2090 0.930 . S
C2100 C2099 1.400 . S
C2100 C2103 1.386 . S
H2101 C2117 0.930 . S
H2102 C2118 0.931 . S
C2103 H2091 0.929 . S
C2103 C2097 1.390 . S
C2103 C2100 1.386 . S
C2104 C2099 1.490 . S
C2104 C2106 1.395 . S
C2104 C2107 1.403 . S
H2105 C2111 0.930 . S
C2106 H2092 0.930 . S
C2106 C2104 1.395 . S
C2106 C2109 1.403 . S
C2107 C2104 1.403 . S
C2107 C2108 1.524 . S
C2107 C2111 1.400 . S
C2108 H2093 0.960 . S
C2108 H2094 0.960 . S
C2108 H2095 0.960 . S
C2108 C2107 1.524 . S
C2109 C2106 1.403 . S
C2109 C2110 1.392 . S
C2109 C2113 1.495 . S
C2110 C2109 1.392 . S
C2110 C2111 1.385 . S
C2110 C2112 1.478 . S
C2111 H2105 0.930 . S
C2111 C2107 1.400 . S
C2111 C2110 1.385 . S
C2112 C2110 1.478 . S
C2112 C2114 1.381 . S
C2112 C2118 1.383 . S
C2113 C2109 1.495 . S
C2113 H2119 0.959 . S
C2113 H2120 0.961 . S
C2113 H2121 0.960 . S
C2114 C2112 1.381 . S
C2114 C2115 1.394 . S
C2114 H2122 0.930 . S
C2115 C2114 1.394 . S
C2115 C2116 1.383 . S
C2115 H2123 0.929 . S
C2116 C2115 1.383 . S
C2116 C2117 1.377 . S
C2117 H2101 0.930 . S
C2117 C2116 1.377 . S
C2117 C2118 1.379 . S
C2118 H2102 0.931 . S
C2118 C2112 1.383 . S
C2118 C2117 1.379 . S
H2119 C2113 0.959 . S
H2120 C2113 0.961 . S
H2121 C2113 0.960 . S
H2122 C2114 0.930 . S
H2123 C2115 0.929 . S
H2124 C2132 0.929 . S
H2125 C2134 0.930 . S
H2126 C2136 0.930 . S
H2127 C2139 0.929 . S
H2128 C2142 0.930 . S
H2129 C2144 0.960 . S
H2130 C2144 0.960 . S
H2131 C2144 0.960 . S
C2132 H2124 0.929 . S
C2132 C2133 1.377 . S
C2132 C2134 1.384 . S
C2133 C2132 1.377 . S
C2133 C2139 1.390 . S
C2134 H2125 0.930 . S
C2134 C2132 1.384 . S
C2134 C2135 1.372 . S
C2135 C2134 1.372 . S
C2135 C2136 1.400 . S
C2135 C2140 1.490 . S
C2136 H2126 0.930 . S
C2136 C2135 1.400 . S
C2136 C2139 1.386 . S
H2137 C2153 0.930 . S
H2138 C2154 0.931 . S
C2139 H2127 0.929 . S
C2139 C2133 1.390 . S
C2139 C2136 1.386 . S
C2140 C2135 1.490 . S
C2140 C2142 1.395 . S
C2140 C2143 1.403 . S
H2141 C2147 0.930 . S
C2142 H2128 0.930 . S
C2142 C2140 1.395 . S
C2142 C2145 1.403 . S
C2143 C2140 1.403 . S
C2143 C2144 1.524 . S
C2143 C2147 1.400 . S
C2144 H2129 0.960 . S
C2144 H2130 0.960 . S
C2144 H2131 0.960 . S
C2144 C2143 1.524 . S
C2145 C2142 1.403 . S
C2145 C2146 1.392 . S
C2145 C2149 1.495 . S
C2146 C2145 1.392 . S
C2146 C2147 1.385 . S
C2146 C2148 1.478 . S
C2147 H2141 0.930 . S
C2147 C2143 1.400 . S
C2147 C2146 1.385 . S
C2148 C2146 1.478 . S
C2148 C2150 1.381 . S
C2148 C2154 1.383 . S
C2149 C2145 1.495 . S
C2149 H2155 0.959 . S
C2149 H2156 0.961 . S
C2149 H2157 0.960 . S
C2150 C2148 1.381 . S
C2150 C2151 1.394 . S
C2150 H2158 0.930 . S
C2151 C2150 1.394 . S
C2151 C2152 1.383 . S
C2151 H2159 0.929 . S
C2152 C2151 1.383 . S
C2152 C2153 1.377 . S
C2153 H2137 0.930 . S
C2153 C2152 1.377 . S
C2153 C2154 1.379 . S
C2154 H2138 0.931 . S
C2154 C2148 1.383 . S
C2154 C2153 1.379 . S
H2155 C2149 0.959 . S
H2156 C2149 0.961 . S
H2157 C2149 0.960 . S
H2158 C2150 0.930 . S
H2159 C2151 0.929 . S
H2160 C2168 0.929 . S
H2161 C2170 0.930 . S
H2162 C2172 0.930 . S
H2163 C2175 0.929 . S
H2164 C2178 0.930 . S
H2165 C2180 0.960 . S
H2166 C2180 0.960 . S
H2167 C2180 0.960 . S
C2168 H2160 0.929 . S
C2168 C2169 1.377 . S
C2168 C2170 1.384 . S
C2169 C2168 1.377 . S
C2169 C2175 1.390 . S
C2170 H2161 0.930 . S
C2170 C2168 1.384 . S
C2170 C2171 1.372 . S
C2171 C2170 1.372 . S
C2171 C2172 1.400 . S
C2171 C2176 1.490 . S
C2172 H2162 0.930 . S
C2172 C2171 1.400 . S
C2172 C2175 1.386 . S
H2173 C2189 0.930 . S
H2174 C2190 0.931 . S
C2175 H2163 0.929 . S
C2175 C2169 1.390 . S
C2175 C2172 1.386 . S
C2176 C2171 1.490 . S
C2176 C2178 1.395 . S
C2176 C2179 1.403 . S
H2177 C2183 0.930 . S
C2178 H2164 0.930 . S
C2178 C2176 1.395 . S
C2178 C2181 1.403 . S
C2179 C2176 1.403 . S
C2179 C2180 1.524 . S
C2179 C2183 1.400 . S
C2180 H2165 0.960 . S
C2180 H2166 0.960 . S
C2180 H2167 0.960 . S
C2180 C2179 1.524 . S
C2181 C2178 1.403 . S
C2181 C2182 1.392 . S
C2181 C2185 1.495 . S
C2182 C2181 1.392 . S
C2182 C2183 1.385 . S
C2182 C2184 1.478 . S
C2183 H2177 0.930 . S
C2183 C2179 1.400 . S
C2183 C2182 1.385 . S
C2184 C2182 1.478 . S
C2184 C2186 1.381 . S
C2184 C2190 1.383 . S
C2185 C2181 1.495 . S
C2185 H2191 0.959 . S
C2185 H2192 0.961 . S
C2185 H2193 0.960 . S
C2186 C2184 1.381 . S
C2186 C2187 1.394 . S
C2186 H2194 0.930 . S
C2187 C2186 1.394 . S
C2187 C2188 1.383 . S
C2187 H2195 0.929 . S
C2188 C2187 1.383 . S
C2188 C2189 1.377 . S
C2189 H2173 0.930 . S
C2189 C2188 1.377 . S
C2189 C2190 1.379 . S
C2190 H2174 0.931 . S
C2190 C2184 1.383 . S
C2190 C2189 1.379 . S
H2191 C2185 0.959 . S
H2192 C2185 0.961 . S
H2193 C2185 0.960 . S
H2194 C2186 0.930 . S
H2195 C2187 0.929 . S
H2196 C2204 0.929 . S
H2197 C2206 0.930 . S
H2198 C2208 0.930 . S
H2199 C2211 0.929 . S
H2200 C2214 0.930 . S
H2201 C2216 0.960 . S
H2202 C2216 0.960 . S
H2203 C2216 0.960 . S
C2204 H2196 0.929 . S
C2204 C2205 1.377 . S
C2204 C2206 1.384 . S
C2205 C2204 1.377 . S
C2205 C2211 1.390 . S
C2206 H2197 0.930 . S
C2206 C2204 1.384 . S
C2206 C2207 1.372 . S
C2207 C2206 1.372 . S
C2207 C2208 1.400 . S
C2207 C2212 1.490 . S
C2208 H2198 0.930 . S
C2208 C2207 1.400 . S
C2208 C2211 1.386 . S
H2209 C2225 0.930 . S
H2210 C2226 0.931 . S
C2211 H2199 0.929 . S
C2211 C2205 1.390 . S
C2211 C2208 1.386 . S
C2212 C2207 1.490 . S
C2212 C2214 1.395 . S
C2212 C2215 1.403 . S
H2213 C2219 0.930 . S
C2214 H2200 0.930 . S
C2214 C2212 1.395 . S
C2214 C2217 1.403 . S
C2215 C2212 1.403 . S
C2215 C2216 1.524 . S
C2215 C2219 1.400 . S
C2216 H2201 0.960 . S
C2216 H2202 0.960 . S
C2216 H2203 0.960 . S
C2216 C2215 1.524 . S
C2217 C2214 1.403 . S
C2217 C2218 1.392 . S
C2217 C2221 1.495 . S
C2218 C2217 1.392 . S
C2218 C2219 1.385 . S
C2218 C2220 1.478 . S
C2219 H2213 0.930 . S
C2219 C2215 1.400 . S
C2219 C2218 1.385 . S
C2220 C2218 1.478 . S
C2220 C2222 1.381 . S
C2220 C2226 1.383 . S
C2221 C2217 1.495 . S
C2221 H2227 0.959 . S
C2221 H2228 0.961 . S
C2221 H2229 0.960 . S
C2222 C2220 1.381 . S
C2222 C2223 1.394 . S
C2222 H2230 0.930 . S
C2223 C2222 1.394 . S
C2223 C2224 1.383 . S
C2223 H2231 0.929 . S
C2224 C2223 1.383 . S
C2224 C2225 1.377 . S
C2225 H2209 0.930 . S
C2225 C2224 1.377 . S
C2225 C2226 1.379 . S
C2226 H2210 0.931 . S
C2226 C2220 1.383 . S
C2226 C2225 1.379 . S
H2227 C2221 0.959 . S
H2228 C2221 0.961 . S
H2229 C2221 0.960 . S
H2230 C2222 0.930 . S
H2231 C2223 0.929 . S
H2232 C2240 0.929 . S
H2233 C2242 0.930 . S
H2234 C2244 0.930 . S
H2235 C2247 0.929 . S
H2236 C2250 0.930 . S
H2237 C2252 0.960 . S
H2238 C2252 0.960 . S
H2239 C2252 0.960 . S
C2240 H2232 0.929 . S
C2240 C2241 1.377 . S
C2240 C2242 1.384 . S
C2241 C2240 1.377 . S
C2241 C2247 1.390 . S
C2242 H2233 0.930 . S
C2242 C2240 1.384 . S
C2242 C2243 1.372 . S
C2243 C2242 1.372 . S
C2243 C2244 1.400 . S
C2243 C2248 1.490 . S
C2244 H2234 0.930 . S
C2244 C2243 1.400 . S
C2244 C2247 1.386 . S
H2245 C2261 0.930 . S
H2246 C2262 0.931 . S
C2247 H2235 0.929 . S
C2247 C2241 1.390 . S
C2247 C2244 1.386 . S
C2248 C2243 1.490 . S
C2248 C2250 1.395 . S
C2248 C2251 1.403 . S
H2249 C2255 0.930 . S
C2250 H2236 0.930 . S
C2250 C2248 1.395 . S
C2250 C2253 1.403 . S
C2251 C2248 1.403 . S
C2251 C2252 1.524 . S
C2251 C2255 1.400 . S
C2252 H2237 0.960 . S
C2252 H2238 0.960 . S
C2252 H2239 0.960 . S
C2252 C2251 1.524 . S
C2253 C2250 1.403 . S
C2253 C2254 1.392 . S
C2253 C2257 1.495 . S
C2254 C2253 1.392 . S
C2254 C2255 1.385 . S
C2254 C2256 1.478 . S
C2255 H2249 0.930 . S
C2255 C2251 1.400 . S
C2255 C2254 1.385 . S
C2256 C2254 1.478 . S
C2256 C2258 1.381 . S
C2256 C2262 1.383 . S
C2257 C2253 1.495 . S
C2257 H2263 0.959 . S
C2257 H2264 0.961 . S
C2257 H2265 0.960 . S
C2258 C2256 1.381 . S
C2258 C2259 1.394 . S
C2258 H2266 0.930 . S
C2259 C2258 1.394 . S
C2259 C2260 1.383 . S
C2259 H2267 0.929 . S
C2260 C2259 1.383 . S
C2260 C2261 1.377 . S
C2261 H2245 0.930 . S
C2261 C2260 1.377 . S
C2261 C2262 1.379 . S
C2262 H2246 0.931 . S
C2262 C2256 1.383 . S
C2262 C2261 1.379 . S
H2263 C2257 0.959 . S
H2264 C2257 0.961 . S
H2265 C2257 0.960 . S
H2266 C2258 0.930 . S
H2267 C2259 0.929 . S
H2268 C2276 0.929 . S
H2269 C2278 0.930 . S
H2270 C2280 0.930 . S
H2271 C2283 0.929 . S
H2272 C2286 0.930 . S
H2273 C2288 0.960 . S
H2274 C2288 0.960 . S
H2275 C2288 0.960 . S
C2276 H2268 0.929 . S
C2276 C2277 1.377 . S
C2276 C2278 1.384 . S
C2277 C2276 1.377 . S
C2277 C2283 1.390 . S
C2278 H2269 0.930 . S
C2278 C2276 1.384 . S
C2278 C2279 1.372 . S
C2279 C2278 1.372 . S
C2279 C2280 1.400 . S
C2279 C2284 1.490 . S
C2280 H2270 0.930 . S
C2280 C2279 1.400 . S
C2280 C2283 1.386 . S
H2281 C2297 0.930 . S
H2282 C2298 0.931 . S
C2283 H2271 0.929 . S
C2283 C2277 1.390 . S
C2283 C2280 1.386 . S
C2284 C2279 1.490 . S
C2284 C2286 1.395 . S
C2284 C2287 1.403 . S
H2285 C2291 0.930 . S
C2286 H2272 0.930 . S
C2286 C2284 1.395 . S
C2286 C2289 1.403 . S
C2287 C2284 1.403 . S
C2287 C2288 1.524 . S
C2287 C2291 1.400 . S
C2288 H2273 0.960 . S
C2288 H2274 0.960 . S
C2288 H2275 0.960 . S
C2288 C2287 1.524 . S
C2289 C2286 1.403 . S
C2289 C2290 1.392 . S
C2289 C2293 1.495 . S
C2290 C2289 1.392 . S
C2290 C2291 1.385 . S
C2290 C2292 1.478 . S
C2291 H2285 0.930 . S
C2291 C2287 1.400 . S
C2291 C2290 1.385 . S
C2292 C2290 1.478 . S
C2292 C2294 1.381 . S
C2292 C2298 1.383 . S
C2293 C2289 1.495 . S
C2293 H2299 0.959 . S
C2293 H2300 0.961 . S
C2293 H2301 0.960 . S
C2294 C2292 1.381 . S
C2294 C2295 1.394 . S
C2294 H2302 0.930 . S
C2295 C2294 1.394 . S
C2295 C2296 1.383 . S
C2295 H2303 0.929 . S
C2296 C2295 1.383 . S
C2296 C2297 1.377 . S
C2297 H2281 0.930 . S
C2297 C2296 1.377 . S
C2297 C2298 1.379 . S
C2298 H2282 0.931 . S
C2298 C2292 1.383 . S
C2298 C2297 1.379 . S
H2299 C2293 0.959 . S
H2300 C2293 0.961 . S
H2301 C2293 0.960 . S
H2302 C2294 0.930 . S
H2303 C2295 0.929 . S
H2304 C2312 0.929 . S
H2305 C2314 0.930 . S
H2306 C2316 0.930 . S
H2307 C2319 0.929 . S
H2308 C2322 0.930 . S
H2309 C2324 0.960 . S
H2310 C2324 0.960 . S
H2311 C2324 0.960 . S
C2312 H2304 0.929 . S
C2312 C2313 1.377 . S
C2312 C2314 1.384 . S
C2313 C2312 1.377 . S
C2313 C2319 1.390 . S
C2314 H2305 0.930 . S
C2314 C2312 1.384 . S
C2314 C2315 1.372 . S
C2315 C2314 1.372 . S
C2315 C2316 1.400 . S
C2315 C2320 1.490 . S
C2316 H2306 0.930 . S
C2316 C2315 1.400 . S
C2316 C2319 1.386 . S
H2317 C2333 0.930 . S
H2318 C2334 0.931 . S
C2319 H2307 0.929 . S
C2319 C2313 1.390 . S
C2319 C2316 1.386 . S
C2320 C2315 1.490 . S
C2320 C2322 1.395 . S
C2320 C2323 1.403 . S
H2321 C2327 0.930 . S
C2322 H2308 0.930 . S
C2322 C2320 1.395 . S
C2322 C2325 1.403 . S
C2323 C2320 1.403 . S
C2323 C2324 1.524 . S
C2323 C2327 1.400 . S
C2324 H2309 0.960 . S
C2324 H2310 0.960 . S
C2324 H2311 0.960 . S
C2324 C2323 1.524 . S
C2325 C2322 1.403 . S
C2325 C2326 1.392 . S
C2325 C2329 1.495 . S
C2326 C2325 1.392 . S
C2326 C2327 1.385 . S
C2326 C2328 1.478 . S
C2327 H2321 0.930 . S
C2327 C2323 1.400 . S
C2327 C2326 1.385 . S
C2328 C2326 1.478 . S
C2328 C2330 1.381 . S
C2328 C2334 1.383 . S
C2329 C2325 1.495 . S
C2329 H2335 0.959 . S
C2329 H2336 0.961 . S
C2329 H2337 0.960 . S
C2330 C2328 1.381 . S
C2330 C2331 1.394 . S
C2330 H2338 0.930 . S
C2331 C2330 1.394 . S
C2331 C2332 1.383 . S
C2331 H2339 0.929 . S
C2332 C2331 1.383 . S
C2332 C2333 1.377 . S
C2333 H2317 0.930 . S
C2333 C2332 1.377 . S
C2333 C2334 1.379 . S
C2334 H2318 0.931 . S
C2334 C2328 1.383 . S
C2334 C2333 1.379 . S
H2335 C2329 0.959 . S
H2336 C2329 0.961 . S
H2337 C2329 0.960 . S
H2338 C2330 0.930 . S
H2339 C2331 0.929 . S
H2340 C2348 0.929 . S
H2341 C2350 0.930 . S
H2342 C2352 0.930 . S
H2343 C2355 0.929 . S
H2344 C2358 0.930 . S
H2345 C2360 0.960 . S
H2346 C2360 0.960 . S
H2347 C2360 0.960 . S
C2348 H2340 0.929 . S
C2348 C2349 1.377 . S
C2348 C2350 1.384 . S
C2349 C2348 1.377 . S
C2349 C2355 1.390 . S
C2350 H2341 0.930 . S
C2350 C2348 1.384 . S
C2350 C2351 1.372 . S
C2351 C2350 1.372 . S
C2351 C2352 1.400 . S
C2351 C2356 1.490 . S
C2352 H2342 0.930 . S
C2352 C2351 1.400 . S
C2352 C2355 1.386 . S
H2353 C2369 0.930 . S
H2354 C2370 0.931 . S
C2355 H2343 0.929 . S
C2355 C2349 1.390 . S
C2355 C2352 1.386 . S
C2356 C2351 1.490 . S
C2356 C2358 1.395 . S
C2356 C2359 1.403 . S
H2357 C2363 0.930 . S
C2358 H2344 0.930 . S
C2358 C2356 1.395 . S
C2358 C2361 1.403 . S
C2359 C2356 1.403 . S
C2359 C2360 1.524 . S
C2359 C2363 1.400 . S
C2360 H2345 0.960 . S
C2360 H2346 0.960 . S
C2360 H2347 0.960 . S
C2360 C2359 1.524 . S
C2361 C2358 1.403 . S
C2361 C2362 1.392 . S
C2361 C2365 1.495 . S
C2362 C2361 1.392 . S
C2362 C2363 1.385 . S
C2362 C2364 1.478 . S
C2363 H2357 0.930 . S
C2363 C2359 1.400 . S
C2363 C2362 1.385 . S
C2364 C2362 1.478 . S
C2364 C2366 1.381 . S
C2364 C2370 1.383 . S
C2365 C2361 1.495 . S
C2365 H2371 0.959 . S
C2365 H2372 0.961 . S
C2365 H2373 0.960 . S
C2366 C2364 1.381 . S
C2366 C2367 1.394 . S
C2366 H2374 0.930 . S
C2367 C2366 1.394 . S
C2367 C2368 1.383 . S
C2367 H2375 0.929 . S
C2368 C2367 1.383 . S
C2368 C2369 1.377 . S
C2369 H2353 0.930 . S
C2369 C2368 1.377 . S
C2369 C2370 1.379 . S
C2370 H2354 0.931 . S
C2370 C2364 1.383 . S
C2370 C2369 1.379 . S
H2371 C2365 0.959 . S
H2372 C2365 0.961 . S
H2373 C2365 0.960 . S
H2374 C2366 0.930 . S
H2375 C2367 0.929 . S
H2376 C2384 0.929 . S
H2377 C2386 0.930 . S
H2378 C2388 0.930 . S
H2379 C2391 0.929 . S
H2380 C2394 0.930 . S
H2381 C2396 0.960 . S
H2382 C2396 0.960 . S
H2383 C2396 0.960 . S
C2384 H2376 0.929 . S
C2384 C2385 1.377 . S
C2384 C2386 1.384 . S
C2385 C2384 1.377 . S
C2385 C2391 1.390 . S
C2386 H2377 0.930 . S
C2386 C2384 1.384 . S
C2386 C2387 1.372 . S
C2387 C2386 1.372 . S
C2387 C2388 1.400 . S
C2387 C2392 1.490 . S
C2388 H2378 0.930 . S
C2388 C2387 1.400 . S
C2388 C2391 1.386 . S
H2389 C2405 0.930 . S
H2390 C2406 0.931 . S
C2391 H2379 0.929 . S
C2391 C2385 1.390 . S
C2391 C2388 1.386 . S
C2392 C2387 1.490 . S
C2392 C2394 1.395 . S
C2392 C2395 1.403 . S
H2393 C2399 0.930 . S
C2394 H2380 0.930 . S
C2394 C2392 1.395 . S
C2394 C2397 1.403 . S
C2395 C2392 1.403 . S
C2395 C2396 1.524 . S
C2395 C2399 1.400 . S
C2396 H2381 0.960 . S
C2396 H2382 0.960 . S
C2396 H2383 0.960 . S
C2396 C2395 1.524 . S
C2397 C2394 1.403 . S
C2397 C2398 1.392 . S
C2397 C2401 1.495 . S
C2398 C2397 1.392 . S
C2398 C2399 1.385 . S
C2398 C2400 1.478 . S
C2399 H2393 0.930 . S
C2399 C2395 1.400 . S
C2399 C2398 1.385 . S
C2400 C2398 1.478 . S
C2400 C2402 1.381 . S
C2400 C2406 1.383 . S
C2401 C2397 1.495 . S
C2401 H2407 0.959 . S
C2401 H2408 0.961 . S
C2401 H2409 0.960 . S
C2402 C2400 1.381 . S
C2402 C2403 1.394 . S
C2402 H2410 0.930 . S
C2403 C2402 1.394 . S
C2403 C2404 1.383 . S
C2403 H2411 0.929 . S
C2404 C2403 1.383 . S
C2404 C2405 1.377 . S
C2405 H2389 0.930 . S
C2405 C2404 1.377 . S
C2405 C2406 1.379 . S
C2406 H2390 0.931 . S
C2406 C2400 1.383 . S
C2406 C2405 1.379 . S
H2407 C2401 0.959 . S
H2408 C2401 0.961 . S
H2409 C2401 0.960 . S
H2410 C2402 0.930 . S
H2411 C2403 0.929 . S
H2412 C2420 0.929 . S
H2413 C2422 0.930 . S
H2414 C2424 0.930 . S
H2415 C2427 0.929 . S
H2416 C2430 0.930 . S
H2417 C2432 0.960 . S
H2418 C2432 0.960 . S
H2419 C2432 0.960 . S
C2420 H2412 0.929 . S
C2420 C2421 1.377 . S
C2420 C2422 1.384 . S
C2421 C2420 1.377 . S
C2421 C2427 1.390 . S
C2422 H2413 0.930 . S
C2422 C2420 1.384 . S
C2422 C2423 1.372 . S
C2423 C2422 1.372 . S
C2423 C2424 1.400 . S
C2423 C2428 1.490 . S
C2424 H2414 0.930 . S
C2424 C2423 1.400 . S
C2424 C2427 1.386 . S
H2425 C2441 0.930 . S
H2426 C2442 0.931 . S
C2427 H2415 0.929 . S
C2427 C2421 1.390 . S
C2427 C2424 1.386 . S
C2428 C2423 1.490 . S
C2428 C2430 1.395 . S
C2428 C2431 1.403 . S
H2429 C2435 0.930 . S
C2430 H2416 0.930 . S
C2430 C2428 1.395 . S
C2430 C2433 1.403 . S
C2431 C2428 1.403 . S
C2431 C2432 1.524 . S
C2431 C2435 1.400 . S
C2432 H2417 0.960 . S
C2432 H2418 0.960 . S
C2432 H2419 0.960 . S
C2432 C2431 1.524 . S
C2433 C2430 1.403 . S
C2433 C2434 1.392 . S
C2433 C2437 1.495 . S
C2434 C2433 1.392 . S
C2434 C2435 1.385 . S
C2434 C2436 1.478 . S
C2435 H2429 0.930 . S
C2435 C2431 1.400 . S
C2435 C2434 1.385 . S
C2436 C2434 1.478 . S
C2436 C2438 1.381 . S
C2436 C2442 1.383 . S
C2437 C2433 1.495 . S
C2437 H2443 0.959 . S
C2437 H2444 0.961 . S
C2437 H2445 0.960 . S
C2438 C2436 1.381 . S
C2438 C2439 1.394 . S
C2438 H2446 0.930 . S
C2439 C2438 1.394 . S
C2439 C2440 1.383 . S
C2439 H2447 0.929 . S
C2440 C2439 1.383 . S
C2440 C2441 1.377 . S
C2441 H2425 0.930 . S
C2441 C2440 1.377 . S
C2441 C2442 1.379 . S
C2442 H2426 0.931 . S
C2442 C2436 1.383 . S
C2442 C2441 1.379 . S
H2443 C2437 0.959 . S
H2444 C2437 0.961 . S
H2445 C2437 0.960 . S
H2446 C2438 0.930 . S
H2447 C2439 0.929 . S
H2448 C2456 0.929 . S
H2449 C2458 0.930 . S
H2450 C2460 0.930 . S
H2451 C2463 0.929 . S
H2452 C2466 0.930 . S
H2453 C2468 0.960 . S
H2454 C2468 0.960 . S
H2455 C2468 0.960 . S
C2456 H2448 0.929 . S
C2456 C2457 1.377 . S
C2456 C2458 1.384 . S
C2457 C2456 1.377 . S
C2457 C2463 1.390 . S
C2458 H2449 0.930 . S
C2458 C2456 1.384 . S
C2458 C2459 1.372 . S
C2459 C2458 1.372 . S
C2459 C2460 1.400 . S
C2459 C2464 1.490 . S
C2460 H2450 0.930 . S
C2460 C2459 1.400 . S
C2460 C2463 1.386 . S
H2461 C2477 0.930 . S
H2462 C2478 0.931 . S
C2463 H2451 0.929 . S
C2463 C2457 1.390 . S
C2463 C2460 1.386 . S
C2464 C2459 1.490 . S
C2464 C2466 1.395 . S
C2464 C2467 1.403 . S
H2465 C2471 0.930 . S
C2466 H2452 0.930 . S
C2466 C2464 1.395 . S
C2466 C2469 1.403 . S
C2467 C2464 1.403 . S
C2467 C2468 1.524 . S
C2467 C2471 1.400 . S
C2468 H2453 0.960 . S
C2468 H2454 0.960 . S
C2468 H2455 0.960 . S
C2468 C2467 1.524 . S
C2469 C2466 1.403 . S
C2469 C2470 1.392 . S
C2469 C2473 1.495 . S
C2470 C2469 1.392 . S
C2470 C2471 1.385 . S
C2470 C2472 1.478 . S
C2471 H2465 0.930 . S
C2471 C2467 1.400 . S
C2471 C2470 1.385 . S
C2472 C2470 1.478 . S
C2472 C2474 1.381 . S
C2472 C2478 1.383 . S
C2473 C2469 1.495 . S
C2473 H2479 0.959 . S
C2473 H2480 0.961 . S
C2473 H2481 0.960 . S
C2474 C2472 1.381 . S
C2474 C2475 1.394 . S
C2474 H2482 0.930 . S
C2475 C2474 1.394 . S
C2475 C2476 1.383 . S
C2475 H2483 0.929 . S
C2476 C2475 1.383 . S
C2476 C2477 1.377 . S
C2477 H2461 0.930 . S
C2477 C2476 1.377 . S
C2477 C2478 1.379 . S
C2478 H2462 0.931 . S
C2478 C2472 1.383 . S
C2478 C2477 1.379 . S
H2479 C2473 0.959 . S
H2480 C2473 0.961 . S
H2481 C2473 0.960 . S
H2482 C2474 0.930 . S
H2483 C2475 0.929 . S
H2484 C2492 0.929 . S
H2485 C2494 0.930 . S
H2486 C2496 0.930 . S
H2487 C2499 0.929 . S
H2488 C2502 0.930 . S
H2489 C2504 0.960 . S
H2490 C2504 0.960 . S
H2491 C2504 0.960 . S
C2492 H2484 0.929 . S
C2492 C2493 1.377 . S
C2492 C2494 1.384 1_556 S
C2493 C2492 1.377 . S
C2493 C2499 1.390 . S
C2494 H2485 0.930 . S
C2494 C2492 1.384 1_554 S
C2494 C2495 1.372 . S
C2495 C2494 1.372 . S
C2495 C2496 1.400 . S
C2495 C2500 1.490 . S
C2496 H2486 0.930 . S
C2496 C2495 1.400 . S
C2496 C2499 1.386 1_554 S
H2497 C2513 0.930 . S
H2498 C2514 0.931 . S
C2499 H2487 0.929 . S
C2499 C2493 1.390 . S
C2499 C2496 1.386 1_556 S
C2500 C2495 1.490 . S
C2500 C2502 1.395 . S
C2500 C2503 1.403 . S
H2501 C2507 0.930 . S
C2502 H2488 0.930 . S
C2502 C2500 1.395 . S
C2502 C2505 1.403 . S
C2503 C2500 1.403 . S
C2503 C2504 1.524 . S
C2503 C2507 1.400 . S
C2504 H2489 0.960 . S
C2504 H2490 0.960 . S
C2504 H2491 0.960 . S
C2504 C2503 1.524 . S
C2505 C2502 1.403 . S
C2505 C2506 1.392 . S
C2505 C2509 1.495 . S
C2506 C2505 1.392 . S
C2506 C2507 1.385 . S
C2506 C2508 1.478 . S
C2507 H2501 0.930 . S
C2507 C2503 1.400 . S
C2507 C2506 1.385 . S
C2508 C2506 1.478 . S
C2508 C2510 1.381 . S
C2508 C2514 1.383 . S
C2509 C2505 1.495 . S
C2509 H2515 0.959 . S
C2509 H2516 0.961 . S
C2509 H2517 0.960 . S
C2510 C2508 1.381 . S
C2510 C2511 1.394 . S
C2510 H2518 0.930 . S
C2511 C2510 1.394 . S
C2511 C2512 1.383 . S
C2511 H2519 0.929 . S
C2512 C2511 1.383 . S
C2512 C2513 1.377 . S
C2513 H2497 0.930 . S
C2513 C2512 1.377 . S
C2513 C2514 1.379 . S
C2514 H2498 0.931 . S
C2514 C2508 1.383 . S
C2514 C2513 1.379 . S
H2515 C2509 0.959 . S
H2516 C2509 0.961 . S
H2517 C2509 0.960 . S
H2518 C2510 0.930 . S
H2519 C2511 0.929 . S
H2520 C2528 0.929 . S
H2521 C2530 0.930 . S
H2522 C2532 0.930 . S
H2523 C2535 0.929 . S
H2524 C2538 0.930 . S
H2525 C2540 0.960 . S
H2526 C2540 0.960 . S
H2527 C2540 0.960 . S
C2528 H2520 0.929 . S
C2528 C2529 1.377 . S
C2528 C2530 1.384 1_556 S
C2529 C2528 1.377 . S
C2529 C2535 1.390 . S
C2530 H2521 0.930 . S
C2530 C2528 1.384 1_554 S
C2530 C2531 1.372 . S
C2531 C2530 1.372 . S
C2531 C2532 1.400 1_554 S
C2531 C2536 1.490 . S
C2532 H2522 0.930 . S
C2532 C2531 1.400 1_556 S
C2532 C2535 1.386 . S
H2533 C2549 0.930 . S
H2534 C2550 0.931 . S
C2535 H2523 0.929 . S
C2535 C2529 1.390 . S
C2535 C2532 1.386 . S
C2536 C2531 1.490 . S
C2536 C2538 1.395 . S
C2536 C2539 1.403 . S
H2537 C2543 0.930 . S
C2538 H2524 0.930 . S
C2538 C2536 1.395 . S
C2538 C2541 1.403 . S
C2539 C2536 1.403 . S
C2539 C2540 1.524 . S
C2539 C2543 1.400 . S
C2540 H2525 0.960 . S
C2540 H2526 0.960 . S
C2540 H2527 0.960 . S
C2540 C2539 1.524 . S
C2541 C2538 1.403 . S
C2541 C2542 1.392 . S
C2541 C2545 1.495 . S
C2542 C2541 1.392 . S
C2542 C2543 1.385 . S
C2542 C2544 1.478 . S
C2543 H2537 0.930 . S
C2543 C2539 1.400 . S
C2543 C2542 1.385 . S
C2544 C2542 1.478 . S
C2544 C2546 1.381 . S
C2544 C2550 1.383 . S
C2545 C2541 1.495 . S
C2545 H2551 0.959 . S
C2545 H2552 0.961 . S
C2545 H2553 0.960 . S
C2546 C2544 1.381 . S
C2546 C2547 1.394 . S
C2546 H2554 0.930 . S
C2547 C2546 1.394 . S
C2547 C2548 1.383 . S
C2547 H2555 0.929 . S
C2548 C2547 1.383 . S
C2548 C2549 1.377 . S
C2549 H2533 0.930 . S
C2549 C2548 1.377 . S
C2549 C2550 1.379 . S
C2550 H2534 0.931 . S
C2550 C2544 1.383 . S
C2550 C2549 1.379 . S
H2551 C2545 0.959 . S
H2552 C2545 0.961 . S
H2553 C2545 0.960 . S
H2554 C2546 0.930 . S
H2555 C2547 0.929 . S
H2556 C2564 0.929 . S
H2557 C2566 0.930 . S
H2558 C2568 0.930 . S
H2559 C2571 0.929 . S
H2560 C2574 0.930 . S
H2561 C2576 0.960 . S
H2562 C2576 0.960 . S
H2563 C2576 0.960 . S
C2564 H2556 0.929 . S
C2564 C2565 1.377 . S
C2564 C2566 1.384 1_556 S
C2565 C2564 1.377 . S
C2565 C2571 1.390 . S
C2566 H2557 0.930 . S
C2566 C2564 1.384 1_554 S
C2566 C2567 1.372 . S
C2567 C2566 1.372 . S
C2567 C2568 1.400 . S
C2567 C2572 1.490 . S
C2568 H2558 0.930 . S
C2568 C2567 1.400 . S
C2568 C2571 1.386 1_554 S
H2569 C2585 0.930 . S
H2570 C2586 0.931 . S
C2571 H2559 0.929 . S
C2571 C2565 1.390 . S
C2571 C2568 1.386 1_556 S
C2572 C2567 1.490 . S
C2572 C2574 1.395 . S
C2572 C2575 1.403 . S
H2573 C2579 0.930 . S
C2574 H2560 0.930 . S
C2574 C2572 1.395 . S
C2574 C2577 1.403 . S
C2575 C2572 1.403 . S
C2575 C2576 1.524 . S
C2575 C2579 1.400 . S
C2576 H2561 0.960 . S
C2576 H2562 0.960 . S
C2576 H2563 0.960 . S
C2576 C2575 1.524 . S
C2577 C2574 1.403 . S
C2577 C2578 1.392 . S
C2577 C2581 1.495 . S
C2578 C2577 1.392 . S
C2578 C2579 1.385 . S
C2578 C2580 1.478 . S
C2579 H2573 0.930 . S
C2579 C2575 1.400 . S
C2579 C2578 1.385 . S
C2580 C2578 1.478 . S
C2580 C2582 1.381 . S
C2580 C2586 1.383 . S
C2581 C2577 1.495 . S
C2581 H2587 0.959 . S
C2581 H2588 0.961 . S
C2581 H2589 0.960 . S
C2582 C2580 1.381 . S
C2582 C2583 1.394 . S
C2582 H2590 0.930 . S
C2583 C2582 1.394 . S
C2583 C2584 1.383 . S
C2583 H2591 0.929 . S
C2584 C2583 1.383 . S
C2584 C2585 1.377 . S
C2585 H2569 0.930 . S
C2585 C2584 1.377 . S
C2585 C2586 1.379 . S
C2586 H2570 0.931 . S
C2586 C2580 1.383 . S
C2586 C2585 1.379 . S
H2587 C2581 0.959 . S
H2588 C2581 0.961 . S
H2589 C2581 0.960 . S
H2590 C2582 0.930 . S
H2591 C2583 0.929 . S
H2592 C2600 0.929 . S
H2593 C2602 0.930 . S
H2594 C2604 0.930 . S
H2595 C2607 0.929 . S
H2596 C2610 0.930 . S
H2597 C2612 0.960 . S
H2598 C2612 0.960 . S
H2599 C2612 0.960 . S
C2600 H2592 0.929 . S
C2600 C2601 1.377 . S
C2600 C2602 1.384 . S
C2601 C2600 1.377 . S
C2601 C2607 1.390 . S
C2602 H2593 0.930 . S
C2602 C2600 1.384 . S
C2602 C2603 1.372 . S
C2603 C2602 1.372 . S
C2603 C2604 1.400 . S
C2603 C2608 1.490 . S
C2604 H2594 0.930 . S
C2604 C2603 1.400 . S
C2604 C2607 1.386 . S
H2605 C2621 0.930 . S
H2606 C2622 0.931 . S
C2607 H2595 0.929 . S
C2607 C2601 1.390 . S
C2607 C2604 1.386 . S
C2608 C2603 1.490 . S
C2608 C2610 1.395 . S
C2608 C2611 1.403 . S
H2609 C2615 0.930 . S
C2610 H2596 0.930 . S
C2610 C2608 1.395 . S
C2610 C2613 1.403 . S
C2611 C2608 1.403 . S
C2611 C2612 1.524 . S
C2611 C2615 1.400 . S
C2612 H2597 0.960 . S
C2612 H2598 0.960 . S
C2612 H2599 0.960 . S
C2612 C2611 1.524 . S
C2613 C2610 1.403 . S
C2613 C2614 1.392 . S
C2613 C2617 1.495 . S
C2614 C2613 1.392 . S
C2614 C2615 1.385 . S
C2614 C2616 1.478 . S
C2615 H2609 0.930 . S
C2615 C2611 1.400 . S
C2615 C2614 1.385 . S
C2616 C2614 1.478 . S
C2616 C2618 1.381 . S
C2616 C2622 1.383 . S
C2617 C2613 1.495 . S
C2617 H2623 0.959 . S
C2617 H2624 0.961 . S
C2617 H2625 0.960 . S
C2618 C2616 1.381 . S
C2618 C2619 1.394 1_554 S
C2618 H2626 0.930 . S
C2619 C2618 1.394 1_556 S
C2619 C2620 1.383 . S
C2619 H2627 0.929 . S
C2620 C2619 1.383 . S
C2620 C2621 1.377 1_556 S
C2621 H2605 0.930 . S
C2621 C2620 1.377 1_554 S
C2621 C2622 1.379 . S
C2622 H2606 0.931 . S
C2622 C2616 1.383 . S
C2622 C2621 1.379 . S
H2623 C2617 0.959 . S
H2624 C2617 0.961 . S
H2625 C2617 0.960 . S
H2626 C2618 0.930 . S
H2627 C2619 0.929 . S
H2628 C2636 0.929 . S
H2629 C2638 0.930 . S
H2630 C2640 0.930 . S
H2631 C2643 0.929 . S
H2632 C2646 0.930 . S
H2633 C2648 0.960 . S
H2634 C2648 0.960 . S
H2635 C2648 0.960 . S
C2636 H2628 0.929 . S
C2636 C2637 1.377 1_554 S
C2636 C2638 1.384 . S
C2637 C2636 1.377 1_556 S
C2637 C2643 1.390 . S
C2638 H2629 0.930 . S
C2638 C2636 1.384 . S
C2638 C2639 1.372 . S
C2639 C2638 1.372 . S
C2639 C2640 1.400 . S
C2639 C2644 1.490 . S
C2640 H2630 0.930 . S
C2640 C2639 1.400 . S
C2640 C2643 1.386 1_554 S
H2641 C2657 0.930 . S
H2642 C2658 0.931 . S
C2643 H2631 0.929 . S
C2643 C2637 1.390 . S
C2643 C2640 1.386 1_556 S
C2644 C2639 1.490 . S
C2644 C2646 1.395 . S
C2644 C2647 1.403 . S
H2645 C2651 0.930 . S
C2646 H2632 0.930 . S
C2646 C2644 1.395 . S
C2646 C2649 1.403 . S
C2647 C2644 1.403 . S
C2647 C2648 1.524 . S
C2647 C2651 1.400 . S
C2648 H2633 0.960 . S
C2648 H2634 0.960 . S
C2648 H2635 0.960 . S
C2648 C2647 1.524 . S
C2649 C2646 1.403 . S
C2649 C2650 1.392 . S
C2649 C2653 1.495 . S
C2650 C2649 1.392 . S
C2650 C2651 1.385 . S
C2650 C2652 1.478 . S
C2651 H2645 0.930 . S
C2651 C2647 1.400 . S
C2651 C2650 1.385 . S
C2652 C2650 1.478 . S
C2652 C2654 1.381 . S
C2652 C2658 1.383 . S
C2653 C2649 1.495 . S
C2653 H2659 0.959 . S
C2653 H2660 0.961 . S
C2653 H2661 0.960 . S
C2654 C2652 1.381 . S
C2654 C2655 1.394 . S
C2654 H2662 0.930 . S
C2655 C2654 1.394 . S
C2655 C2656 1.383 . S
C2655 H2663 0.929 . S
C2656 C2655 1.383 . S
C2656 C2657 1.377 . S
C2657 H2641 0.930 . S
C2657 C2656 1.377 . S
C2657 C2658 1.379 . S
C2658 H2642 0.931 . S
C2658 C2652 1.383 . S
C2658 C2657 1.379 . S
H2659 C2653 0.959 . S
H2660 C2653 0.961 . S
H2661 C2653 0.960 . S
H2662 C2654 0.930 . S
H2663 C2655 0.929 . S
H2664 C2672 0.929 . S
H2665 C2674 0.930 . S
H2666 C2676 0.930 . S
H2667 C2679 0.929 . S
H2668 C2682 0.930 . S
H2669 C2684 0.960 . S
H2670 C2684 0.960 . S
H2671 C2684 0.960 . S
C2672 H2664 0.929 . S
C2672 C2673 1.377 . S
C2672 C2674 1.384 . S
C2673 C2672 1.377 . S
C2673 C2679 1.390 . S
C2674 H2665 0.930 . S
C2674 C2672 1.384 . S
C2674 C2675 1.372 . S
C2675 C2674 1.372 . S
C2675 C2676 1.400 . S
C2675 C2680 1.490 . S
C2676 H2666 0.930 . S
C2676 C2675 1.400 . S
C2676 C2679 1.386 . S
H2677 C2693 0.930 . S
H2678 C2694 0.931 . S
C2679 H2667 0.929 . S
C2679 C2673 1.390 . S
C2679 C2676 1.386 . S
C2680 C2675 1.490 . S
C2680 C2682 1.395 . S
C2680 C2683 1.403 . S
H2681 C2687 0.930 . S
C2682 H2668 0.930 . S
C2682 C2680 1.395 . S
C2682 C2685 1.403 . S
C2683 C2680 1.403 . S
C2683 C2684 1.524 . S
C2683 C2687 1.400 . S
C2684 H2669 0.960 . S
C2684 H2670 0.960 . S
C2684 H2671 0.960 . S
C2684 C2683 1.524 . S
C2685 C2682 1.403 . S
C2685 C2686 1.392 . S
C2685 C2689 1.495 . S
C2686 C2685 1.392 . S
C2686 C2687 1.385 . S
C2686 C2688 1.478 . S
C2687 H2681 0.930 . S
C2687 C2683 1.400 . S
C2687 C2686 1.385 . S
C2688 C2686 1.478 . S
C2688 C2690 1.381 . S
C2688 C2694 1.383 . S
C2689 C2685 1.495 . S
C2689 H2695 0.959 . S
C2689 H2696 0.961 . S
C2689 H2697 0.960 . S
C2690 C2688 1.381 . S
C2690 C2691 1.394 1_554 S
C2690 H2698 0.930 . S
C2691 C2690 1.394 1_556 S
C2691 C2692 1.383 . S
C2691 H2699 0.929 . S
C2692 C2691 1.383 . S
C2692 C2693 1.377 1_556 S
C2693 H2677 0.930 . S
C2693 C2692 1.377 1_554 S
C2693 C2694 1.379 . S
C2694 H2678 0.931 . S
C2694 C2688 1.383 . S
C2694 C2693 1.379 . S
H2695 C2689 0.959 . S
H2696 C2689 0.961 . S
H2697 C2689 0.960 . S
H2698 C2690 0.930 . S
H2699 C2691 0.929 . S
H2700 C2708 0.929 . S
H2701 C2710 0.930 . S
H2702 C2712 0.930 . S
H2703 C2715 0.929 . S
H2704 C2718 0.930 . S
H2705 C2720 0.960 . S
H2706 C2720 0.960 . S
H2707 C2720 0.960 . S
C2708 H2700 0.929 . S
C2708 C2709 1.377 . S
C2708 C2710 1.384 . S
C2709 C2708 1.377 . S
C2709 C2715 1.390 . S
C2710 H2701 0.930 . S
C2710 C2708 1.384 . S
C2710 C2711 1.372 . S
C2711 C2710 1.372 . S
C2711 C2712 1.400 . S
C2711 C2716 1.490 . S
C2712 H2702 0.930 . S
C2712 C2711 1.400 . S
C2712 C2715 1.386 . S
H2713 C2729 0.930 . S
H2714 C2730 0.931 . S
C2715 H2703 0.929 . S
C2715 C2709 1.390 . S
C2715 C2712 1.386 . S
C2716 C2711 1.490 . S
C2716 C2718 1.395 . S
C2716 C2719 1.403 . S
H2717 C2723 0.930 . S
C2718 H2704 0.930 . S
C2718 C2716 1.395 . S
C2718 C2721 1.403 . S
C2719 C2716 1.403 . S
C2719 C2720 1.524 . S
C2719 C2723 1.400 . S
C2720 H2705 0.960 . S
C2720 H2706 0.960 . S
C2720 H2707 0.960 . S
C2720 C2719 1.524 . S
C2721 C2718 1.403 . S
C2721 C2722 1.392 . S
C2721 C2725 1.495 . S
C2722 C2721 1.392 . S
C2722 C2723 1.385 . S
C2722 C2724 1.478 . S
C2723 H2717 0.930 . S
C2723 C2719 1.400 . S
C2723 C2722 1.385 . S
C2724 C2722 1.478 . S
C2724 C2726 1.381 . S
C2724 C2730 1.383 . S
C2725 C2721 1.495 . S
C2725 H2731 0.959 . S
C2725 H2732 0.961 . S
C2725 H2733 0.960 . S
C2726 C2724 1.381 . S
C2726 C2727 1.394 . S
C2726 H2734 0.930 . S
C2727 C2726 1.394 . S
C2727 C2728 1.383 . S
C2727 H2735 0.929 . S
C2728 C2727 1.383 . S
C2728 C2729 1.377 . S
C2729 H2713 0.930 . S
C2729 C2728 1.377 . S
C2729 C2730 1.379 . S
C2730 H2714 0.931 . S
C2730 C2724 1.383 . S
C2730 C2729 1.379 . S
H2731 C2725 0.959 . S
H2732 C2725 0.961 . S
H2733 C2725 0.960 . S
H2734 C2726 0.930 . S
H2735 C2727 0.929 . S
H2736 C2744 0.929 . S
H2737 C2746 0.930 . S
H2738 C2748 0.930 . S
H2739 C2751 0.929 . S
H2740 C2754 0.930 . S
H2741 C2756 0.960 . S
H2742 C2756 0.960 . S
H2743 C2756 0.960 . S
C2744 H2736 0.929 . S
C2744 C2745 1.377 . S
C2744 C2746 1.384 . S
C2745 C2744 1.377 . S
C2745 C2751 1.390 . S
C2746 H2737 0.930 . S
C2746 C2744 1.384 . S
C2746 C2747 1.372 . S
C2747 C2746 1.372 . S
C2747 C2748 1.400 . S
C2747 C2752 1.490 . S
C2748 H2738 0.930 . S
C2748 C2747 1.400 . S
C2748 C2751 1.386 . S
H2749 C2765 0.930 . S
H2750 C2766 0.931 . S
C2751 H2739 0.929 . S
C2751 C2745 1.390 . S
C2751 C2748 1.386 . S
C2752 C2747 1.490 . S
C2752 C2754 1.395 . S
C2752 C2755 1.403 . S
H2753 C2759 0.930 . S
C2754 H2740 0.930 . S
C2754 C2752 1.395 . S
C2754 C2757 1.403 . S
C2755 C2752 1.403 . S
C2755 C2756 1.524 . S
C2755 C2759 1.400 . S
C2756 H2741 0.960 . S
C2756 H2742 0.960 . S
C2756 H2743 0.960 . S
C2756 C2755 1.524 . S
C2757 C2754 1.403 . S
C2757 C2758 1.392 . S
C2757 C2761 1.495 . S
C2758 C2757 1.392 . S
C2758 C2759 1.385 . S
C2758 C2760 1.478 . S
C2759 H2753 0.930 . S
C2759 C2755 1.400 . S
C2759 C2758 1.385 . S
C2760 C2758 1.478 . S
C2760 C2762 1.381 . S
C2760 C2766 1.383 . S
C2761 C2757 1.495 . S
C2761 H2767 0.959 . S
C2761 H2768 0.961 . S
C2761 H2769 0.960 . S
C2762 C2760 1.381 . S
C2762 C2763 1.394 . S
C2762 H2770 0.930 . S
C2763 C2762 1.394 . S
C2763 C2764 1.383 . S
C2763 H2771 0.929 . S
C2764 C2763 1.383 . S
C2764 C2765 1.377 . S
C2765 H2749 0.930 . S
C2765 C2764 1.377 . S
C2765 C2766 1.379 . S
C2766 H2750 0.931 . S
C2766 C2760 1.383 . S
C2766 C2765 1.379 . S
H2767 C2761 0.959 . S
H2768 C2761 0.961 . S
H2769 C2761 0.960 . S
H2770 C2762 0.930 . S
H2771 C2763 0.929 . S
H2772 C2780 0.929 . S
H2773 C2782 0.930 . S
H2774 C2784 0.930 . S
H2775 C2787 0.929 . S
H2776 C2790 0.930 . S
H2777 C2792 0.960 . S
H2778 C2792 0.960 . S
H2779 C2792 0.960 . S
C2780 H2772 0.929 . S
C2780 C2781 1.377 . S
C2780 C2782 1.384 . S
C2781 C2780 1.377 . S
C2781 C2787 1.390 . S
C2782 H2773 0.930 . S
C2782 C2780 1.384 . S
C2782 C2783 1.372 . S
C2783 C2782 1.372 . S
C2783 C2784 1.400 . S
C2783 C2788 1.490 . S
C2784 H2774 0.930 . S
C2784 C2783 1.400 . S
C2784 C2787 1.386 . S
H2785 C2801 0.930 . S
H2786 C2802 0.931 . S
C2787 H2775 0.929 . S
C2787 C2781 1.390 . S
C2787 C2784 1.386 . S
C2788 C2783 1.490 . S
C2788 C2790 1.395 . S
C2788 C2791 1.403 . S
H2789 C2795 0.930 . S
C2790 H2776 0.930 . S
C2790 C2788 1.395 . S
C2790 C2793 1.403 . S
C2791 C2788 1.403 . S
C2791 C2792 1.524 . S
C2791 C2795 1.400 . S
C2792 H2777 0.960 . S
C2792 H2778 0.960 . S
C2792 H2779 0.960 . S
C2792 C2791 1.524 . S
C2793 C2790 1.403 . S
C2793 C2794 1.392 . S
C2793 C2797 1.495 . S
C2794 C2793 1.392 . S
C2794 C2795 1.385 . S
C2794 C2796 1.478 . S
C2795 H2789 0.930 . S
C2795 C2791 1.400 . S
C2795 C2794 1.385 . S
C2796 C2794 1.478 . S
C2796 C2798 1.381 . S
C2796 C2802 1.383 . S
C2797 C2793 1.495 . S
C2797 H2803 0.959 . S
C2797 H2804 0.961 . S
C2797 H2805 0.960 . S
C2798 C2796 1.381 . S
C2798 C2799 1.394 . S
C2798 H2806 0.930 . S
C2799 C2798 1.394 . S
C2799 C2800 1.383 . S
C2799 H2807 0.929 . S
C2800 C2799 1.383 . S
C2800 C2801 1.377 . S
C2801 H2785 0.930 . S
C2801 C2800 1.377 . S
C2801 C2802 1.379 . S
C2802 H2786 0.931 . S
C2802 C2796 1.383 . S
C2802 C2801 1.379 . S
H2803 C2797 0.959 . S
H2804 C2797 0.961 . S
H2805 C2797 0.960 . S
H2806 C2798 0.930 . S
H2807 C2799 0.929 . S
H2808 C2816 0.929 . S
H2809 C2818 0.930 . S
H2810 C2820 0.930 . S
H2811 C2823 0.929 . S
H2812 C2826 0.930 . S
H2813 C2828 0.960 . S
H2814 C2828 0.960 . S
H2815 C2828 0.960 . S
C2816 H2808 0.929 . S
C2816 C2817 1.377 . S
C2816 C2818 1.384 . S
C2817 C2816 1.377 . S
C2817 C2823 1.390 . S
C2818 H2809 0.930 . S
C2818 C2816 1.384 . S
C2818 C2819 1.372 . S
C2819 C2818 1.372 . S
C2819 C2820 1.400 . S
C2819 C2824 1.490 . S
C2820 H2810 0.930 . S
C2820 C2819 1.400 . S
C2820 C2823 1.386 . S
H2821 C2837 0.930 . S
H2822 C2838 0.931 . S
C2823 H2811 0.929 . S
C2823 C2817 1.390 . S
C2823 C2820 1.386 . S
C2824 C2819 1.490 . S
C2824 C2826 1.395 . S
C2824 C2827 1.403 . S
H2825 C2831 0.930 . S
C2826 H2812 0.930 . S
C2826 C2824 1.395 . S
C2826 C2829 1.403 . S
C2827 C2824 1.403 . S
C2827 C2828 1.524 . S
C2827 C2831 1.400 . S
C2828 H2813 0.960 . S
C2828 H2814 0.960 . S
C2828 H2815 0.960 . S
C2828 C2827 1.524 . S
C2829 C2826 1.403 . S
C2829 C2830 1.392 . S
C2829 C2833 1.495 . S
C2830 C2829 1.392 . S
C2830 C2831 1.385 . S
C2830 C2832 1.478 . S
C2831 H2825 0.930 . S
C2831 C2827 1.400 . S
C2831 C2830 1.385 . S
C2832 C2830 1.478 . S
C2832 C2834 1.381 . S
C2832 C2838 1.383 . S
C2833 C2829 1.495 . S
C2833 H2839 0.959 . S
C2833 H2840 0.961 . S
C2833 H2841 0.960 . S
C2834 C2832 1.381 . S
C2834 C2835 1.394 . S
C2834 H2842 0.930 . S
C2835 C2834 1.394 . S
C2835 C2836 1.383 . S
C2835 H2843 0.929 . S
C2836 C2835 1.383 . S
C2836 C2837 1.377 . S
C2837 H2821 0.930 . S
C2837 C2836 1.377 . S
C2837 C2838 1.379 . S
C2838 H2822 0.931 . S
C2838 C2832 1.383 . S
C2838 C2837 1.379 . S
H2839 C2833 0.959 . S
H2840 C2833 0.961 . S
H2841 C2833 0.960 . S
H2842 C2834 0.930 . S
H2843 C2835 0.929 . S
H2844 C2852 0.929 . S
H2845 C2854 0.930 . S
H2846 C2856 0.930 . S
H2847 C2859 0.929 . S
H2848 C2862 0.930 . S
H2849 C2864 0.960 . S
H2850 C2864 0.960 . S
H2851 C2864 0.960 . S
C2852 H2844 0.929 . S
C2852 C2853 1.377 . S
C2852 C2854 1.384 . S
C2853 C2852 1.377 . S
C2853 C2859 1.390 . S
C2854 H2845 0.930 . S
C2854 C2852 1.384 . S
C2854 C2855 1.372 . S
C2855 C2854 1.372 . S
C2855 C2856 1.400 . S
C2855 C2860 1.490 . S
C2856 H2846 0.930 . S
C2856 C2855 1.400 . S
C2856 C2859 1.386 . S
H2857 C2873 0.930 . S
H2858 C2874 0.931 . S
C2859 H2847 0.929 . S
C2859 C2853 1.390 . S
C2859 C2856 1.386 . S
C2860 C2855 1.490 . S
C2860 C2862 1.395 . S
C2860 C2863 1.403 . S
H2861 C2867 0.930 . S
C2862 H2848 0.930 . S
C2862 C2860 1.395 . S
C2862 C2865 1.403 . S
C2863 C2860 1.403 . S
C2863 C2864 1.524 . S
C2863 C2867 1.400 . S
C2864 H2849 0.960 . S
C2864 H2850 0.960 . S
C2864 H2851 0.960 . S
C2864 C2863 1.524 . S
C2865 C2862 1.403 . S
C2865 C2866 1.392 . S
C2865 C2869 1.495 . S
C2866 C2865 1.392 . S
C2866 C2867 1.385 . S
C2866 C2868 1.478 . S
C2867 H2861 0.930 . S
C2867 C2863 1.400 . S
C2867 C2866 1.385 . S
C2868 C2866 1.478 . S
C2868 C2870 1.381 . S
C2868 C2874 1.383 . S
C2869 C2865 1.495 . S
C2869 H2875 0.959 . S
C2869 H2876 0.961 . S
C2869 H2877 0.960 . S
C2870 C2868 1.381 . S
C2870 C2871 1.394 . S
C2870 H2878 0.930 . S
C2871 C2870 1.394 . S
C2871 C2872 1.383 . S
C2871 H2879 0.929 . S
C2872 C2871 1.383 . S
C2872 C2873 1.377 . S
C2873 H2857 0.930 . S
C2873 C2872 1.377 . S
C2873 C2874 1.379 . S
C2874 H2858 0.931 . S
C2874 C2868 1.383 . S
C2874 C2873 1.379 . S
H2875 C2869 0.959 . S
H2876 C2869 0.961 . S
H2877 C2869 0.960 . S
H2878 C2870 0.930 . S
H2879 C2871 0.929 . S
H2880 C2888 0.929 . S
H2881 C2890 0.930 . S
H2882 C2892 0.930 . S
H2883 C2895 0.929 . S
H2884 C2898 0.930 . S
H2885 C2900 0.960 . S
H2886 C2900 0.960 . S
H2887 C2900 0.960 . S
C2888 H2880 0.929 . S
C2888 C2889 1.377 . S
C2888 C2890 1.384 . S
C2889 C2888 1.377 . S
C2889 C2895 1.390 . S
C2890 H2881 0.930 . S
C2890 C2888 1.384 . S
C2890 C2891 1.372 . S
C2891 C2890 1.372 . S
C2891 C2892 1.400 . S
C2891 C2896 1.490 . S
C2892 H2882 0.930 . S
C2892 C2891 1.400 . S
C2892 C2895 1.386 . S
H2893 C2909 0.930 . S
H2894 C2910 0.931 . S
C2895 H2883 0.929 . S
C2895 C2889 1.390 . S
C2895 C2892 1.386 . S
C2896 C2891 1.490 . S
C2896 C2898 1.395 . S
C2896 C2899 1.403 . S
H2897 C2903 0.930 . S
C2898 H2884 0.930 . S
C2898 C2896 1.395 . S
C2898 C2901 1.403 . S
C2899 C2896 1.403 . S
C2899 C2900 1.524 . S
C2899 C2903 1.400 . S
C2900 H2885 0.960 . S
C2900 H2886 0.960 . S
C2900 H2887 0.960 . S
C2900 C2899 1.524 . S
C2901 C2898 1.403 . S
C2901 C2902 1.392 . S
C2901 C2905 1.495 . S
C2902 C2901 1.392 . S
C2902 C2903 1.385 . S
C2902 C2904 1.478 . S
C2903 H2897 0.930 . S
C2903 C2899 1.400 . S
C2903 C2902 1.385 . S
C2904 C2902 1.478 . S
C2904 C2906 1.381 . S
C2904 C2910 1.383 . S
C2905 C2901 1.495 . S
C2905 H2911 0.959 . S
C2905 H2912 0.961 . S
C2905 H2913 0.960 . S
C2906 C2904 1.381 . S
C2906 C2907 1.394 . S
C2906 H2914 0.930 . S
C2907 C2906 1.394 . S
C2907 C2908 1.383 . S
C2907 H2915 0.929 . S
C2908 C2907 1.383 . S
C2908 C2909 1.377 . S
C2909 H2893 0.930 . S
C2909 C2908 1.377 . S
C2909 C2910 1.379 . S
C2910 H2894 0.931 . S
C2910 C2904 1.383 . S
C2910 C2909 1.379 . S
H2911 C2905 0.959 . S
H2912 C2905 0.961 . S
H2913 C2905 0.960 . S
H2914 C2906 0.930 . S
H2915 C2907 0.929 . S
H2916 C2924 0.929 . S
H2917 C2926 0.930 . S
H2918 C2928 0.930 . S
H2919 C2931 0.929 . S
H2920 C2934 0.930 . S
H2921 C2936 0.960 . S
H2922 C2936 0.960 . S
H2923 C2936 0.960 . S
C2924 H2916 0.929 . S
C2924 C2925 1.377 . S
C2924 C2926 1.384 . S
C2925 C2924 1.377 . S
C2925 C2931 1.390 . S
C2926 H2917 0.930 . S
C2926 C2924 1.384 . S
C2926 C2927 1.372 . S
C2927 C2926 1.372 . S
C2927 C2928 1.400 . S
C2927 C2932 1.490 . S
C2928 H2918 0.930 . S
C2928 C2927 1.400 . S
C2928 C2931 1.386 . S
H2929 C2945 0.930 . S
H2930 C2946 0.931 . S
C2931 H2919 0.929 . S
C2931 C2925 1.390 . S
C2931 C2928 1.386 . S
C2932 C2927 1.490 . S
C2932 C2934 1.395 . S
C2932 C2935 1.403 . S
H2933 C2939 0.930 . S
C2934 H2920 0.930 . S
C2934 C2932 1.395 . S
C2934 C2937 1.403 . S
C2935 C2932 1.403 . S
C2935 C2936 1.524 . S
C2935 C2939 1.400 . S
C2936 H2921 0.960 . S
C2936 H2922 0.960 . S
C2936 H2923 0.960 . S
C2936 C2935 1.524 . S
C2937 C2934 1.403 . S
C2937 C2938 1.392 . S
C2937 C2941 1.495 . S
C2938 C2937 1.392 . S
C2938 C2939 1.385 . S
C2938 C2940 1.478 . S
C2939 H2933 0.930 . S
C2939 C2935 1.400 . S
C2939 C2938 1.385 . S
C2940 C2938 1.478 . S
C2940 C2942 1.381 . S
C2940 C2946 1.383 . S
C2941 C2937 1.495 . S
C2941 H2947 0.959 . S
C2941 H2948 0.961 . S
C2941 H2949 0.960 . S
C2942 C2940 1.381 . S
C2942 C2943 1.394 . S
C2942 H2950 0.930 . S
C2943 C2942 1.394 . S
C2943 C2944 1.383 . S
C2943 H2951 0.929 . S
C2944 C2943 1.383 . S
C2944 C2945 1.377 . S
C2945 H2929 0.930 . S
C2945 C2944 1.377 . S
C2945 C2946 1.379 . S
C2946 H2930 0.931 . S
C2946 C2940 1.383 . S
C2946 C2945 1.379 . S
H2947 C2941 0.959 . S
H2948 C2941 0.961 . S
H2949 C2941 0.960 . S
H2950 C2942 0.930 . S
H2951 C2943 0.929 . S
H2952 C2960 0.929 . S
H2953 C2962 0.930 . S
H2954 C2964 0.930 . S
H2955 C2967 0.929 . S
H2956 C2970 0.930 . S
H2957 C2972 0.960 . S
H2958 C2972 0.960 . S
H2959 C2972 0.960 . S
C2960 H2952 0.929 . S
C2960 C2961 1.377 . S
C2960 C2962 1.384 . S
C2961 C2960 1.377 . S
C2961 C2967 1.390 . S
C2962 H2953 0.930 . S
C2962 C2960 1.384 . S
C2962 C2963 1.372 . S
C2963 C2962 1.372 . S
C2963 C2964 1.400 . S
C2963 C2968 1.490 . S
C2964 H2954 0.930 . S
C2964 C2963 1.400 . S
C2964 C2967 1.386 . S
H2965 C2981 0.930 . S
H2966 C2982 0.931 . S
C2967 H2955 0.929 . S
C2967 C2961 1.390 . S
C2967 C2964 1.386 . S
C2968 C2963 1.490 . S
C2968 C2970 1.395 . S
C2968 C2971 1.403 . S
H2969 C2975 0.930 . S
C2970 H2956 0.930 . S
C2970 C2968 1.395 . S
C2970 C2973 1.403 . S
C2971 C2968 1.403 . S
C2971 C2972 1.524 . S
C2971 C2975 1.400 . S
C2972 H2957 0.960 . S
C2972 H2958 0.960 . S
C2972 H2959 0.960 . S
C2972 C2971 1.524 . S
C2973 C2970 1.403 . S
C2973 C2974 1.392 . S
C2973 C2977 1.495 . S
C2974 C2973 1.392 . S
C2974 C2975 1.385 . S
C2974 C2976 1.478 . S
C2975 H2969 0.930 . S
C2975 C2971 1.400 . S
C2975 C2974 1.385 . S
C2976 C2974 1.478 . S
C2976 C2978 1.381 . S
C2976 C2982 1.383 . S
C2977 C2973 1.495 . S
C2977 H2983 0.959 . S
C2977 H2984 0.961 . S
C2977 H2985 0.960 . S
C2978 C2976 1.381 . S
C2978 C2979 1.394 . S
C2978 H2986 0.930 . S
C2979 C2978 1.394 . S
C2979 C2980 1.383 . S
C2979 H2987 0.929 . S
C2980 C2979 1.383 . S
C2980 C2981 1.377 . S
C2981 H2965 0.930 . S
C2981 C2980 1.377 . S
C2981 C2982 1.379 . S
C2982 H2966 0.931 . S
C2982 C2976 1.383 . S
C2982 C2981 1.379 . S
H2983 C2977 0.959 . S
H2984 C2977 0.961 . S
H2985 C2977 0.960 . S
H2986 C2978 0.930 . S
H2987 C2979 0.929 . S
H2988 C2996 0.929 . S
H2989 C2998 0.930 . S
H2990 C3000 0.930 . S
H2991 C3003 0.929 . S
H2992 C3006 0.930 . S
H2993 C3008 0.960 . S
H2994 C3008 0.960 . S
H2995 C3008 0.960 . S
C2996 H2988 0.929 . S
C2996 C2997 1.377 . S
C2996 C2998 1.384 . S
C2997 C2996 1.377 . S
C2997 C3003 1.390 . S
C2998 H2989 0.930 . S
C2998 C2996 1.384 . S
C2998 C2999 1.372 . S
C2999 C2998 1.372 . S
C2999 C3000 1.400 . S
C2999 C3004 1.490 . S
C3000 H2990 0.930 . S
C3000 C2999 1.400 . S
C3000 C3003 1.386 . S
H3001 C3017 0.930 . S
H3002 C3018 0.931 . S
C3003 H2991 0.929 . S
C3003 C2997 1.390 . S
C3003 C3000 1.386 . S
C3004 C2999 1.490 . S
C3004 C3006 1.395 . S
C3004 C3007 1.403 . S
H3005 C3011 0.930 . S
C3006 H2992 0.930 . S
C3006 C3004 1.395 . S
C3006 C3009 1.403 . S
C3007 C3004 1.403 . S
C3007 C3008 1.524 . S
C3007 C3011 1.400 . S
C3008 H2993 0.960 . S
C3008 H2994 0.960 . S
C3008 H2995 0.960 . S
C3008 C3007 1.524 . S
C3009 C3006 1.403 . S
C3009 C3010 1.392 . S
C3009 C3013 1.495 . S
C3010 C3009 1.392 . S
C3010 C3011 1.385 . S
C3010 C3012 1.478 . S
C3011 H3005 0.930 . S
C3011 C3007 1.400 . S
C3011 C3010 1.385 . S
C3012 C3010 1.478 . S
C3012 C3014 1.381 . S
C3012 C3018 1.383 . S
C3013 C3009 1.495 . S
C3013 H3019 0.959 . S
C3013 H3020 0.961 . S
C3013 H3021 0.960 . S
C3014 C3012 1.381 . S
C3014 C3015 1.394 . S
C3014 H3022 0.930 . S
C3015 C3014 1.394 . S
C3015 C3016 1.383 . S
C3015 H3023 0.929 . S
C3016 C3015 1.383 . S
C3016 C3017 1.377 . S
C3017 H3001 0.930 . S
C3017 C3016 1.377 . S
C3017 C3018 1.379 . S
C3018 H3002 0.931 . S
C3018 C3012 1.383 . S
C3018 C3017 1.379 . S
H3019 C3013 0.959 . S
H3020 C3013 0.961 . S
H3021 C3013 0.960 . S
H3022 C3014 0.930 . S
H3023 C3015 0.929 . S
H3024 C3032 0.929 . S
H3025 C3034 0.930 . S
H3026 C3036 0.930 . S
H3027 C3039 0.929 . S
H3028 C3042 0.930 . S
H3029 C3044 0.960 . S
H3030 C3044 0.960 . S
H3031 C3044 0.960 . S
C3032 H3024 0.929 . S
C3032 C3033 1.377 . S
C3032 C3034 1.384 . S
C3033 C3032 1.377 . S
C3033 C3039 1.390 . S
C3034 H3025 0.930 . S
C3034 C3032 1.384 . S
C3034 C3035 1.372 . S
C3035 C3034 1.372 . S
C3035 C3036 1.400 . S
C3035 C3040 1.490 . S
C3036 H3026 0.930 . S
C3036 C3035 1.400 . S
C3036 C3039 1.386 . S
H3037 C3053 0.930 . S
H3038 C3054 0.931 . S
C3039 H3027 0.929 . S
C3039 C3033 1.390 . S
C3039 C3036 1.386 . S
C3040 C3035 1.490 . S
C3040 C3042 1.395 . S
C3040 C3043 1.403 . S
H3041 C3047 0.930 . S
C3042 H3028 0.930 . S
C3042 C3040 1.395 . S
C3042 C3045 1.403 . S
C3043 C3040 1.403 . S
C3043 C3044 1.524 . S
C3043 C3047 1.400 . S
C3044 H3029 0.960 . S
C3044 H3030 0.960 . S
C3044 H3031 0.960 . S
C3044 C3043 1.524 . S
C3045 C3042 1.403 . S
C3045 C3046 1.392 . S
C3045 C3049 1.495 . S
C3046 C3045 1.392 . S
C3046 C3047 1.385 . S
C3046 C3048 1.478 . S
C3047 H3041 0.930 . S
C3047 C3043 1.400 . S
C3047 C3046 1.385 . S
C3048 C3046 1.478 . S
C3048 C3050 1.381 . S
C3048 C3054 1.383 . S
C3049 C3045 1.495 . S
C3049 H3055 0.959 . S
C3049 H3056 0.961 . S
C3049 H3057 0.960 . S
C3050 C3048 1.381 . S
C3050 C3051 1.394 . S
C3050 H3058 0.930 . S
C3051 C3050 1.394 . S
C3051 C3052 1.383 . S
C3051 H3059 0.929 . S
C3052 C3051 1.383 . S
C3052 C3053 1.377 . S
C3053 H3037 0.930 . S
C3053 C3052 1.377 . S
C3053 C3054 1.379 . S
C3054 H3038 0.931 . S
C3054 C3048 1.383 . S
C3054 C3053 1.379 . S
H3055 C3049 0.959 . S
H3056 C3049 0.961 . S
H3057 C3049 0.960 . S
H3058 C3050 0.930 . S
H3059 C3051 0.929 . S
H3060 C3068 0.929 . S
H3061 C3070 0.930 . S
H3062 C3072 0.930 . S
H3063 C3075 0.929 . S
H3064 C3078 0.930 . S
H3065 C3080 0.960 . S
H3066 C3080 0.960 . S
H3067 C3080 0.960 . S
C3068 H3060 0.929 . S
C3068 C3069 1.377 . S
C3068 C3070 1.384 . S
C3069 C3068 1.377 . S
C3069 C3075 1.390 . S
C3070 H3061 0.930 . S
C3070 C3068 1.384 . S
C3070 C3071 1.372 . S
C3071 C3070 1.372 . S
C3071 C3072 1.400 . S
C3071 C3076 1.490 . S
C3072 H3062 0.930 . S
C3072 C3071 1.400 . S
C3072 C3075 1.386 . S
H3073 C3089 0.930 . S
H3074 C3090 0.931 . S
C3075 H3063 0.929 . S
C3075 C3069 1.390 . S
C3075 C3072 1.386 . S
C3076 C3071 1.490 . S
C3076 C3078 1.395 . S
C3076 C3079 1.403 . S
H3077 C3083 0.930 . S
C3078 H3064 0.930 . S
C3078 C3076 1.395 . S
C3078 C3081 1.403 . S
C3079 C3076 1.403 . S
C3079 C3080 1.524 . S
C3079 C3083 1.400 . S
C3080 H3065 0.960 . S
C3080 H3066 0.960 . S
C3080 H3067 0.960 . S
C3080 C3079 1.524 . S
C3081 C3078 1.403 . S
C3081 C3082 1.392 . S
C3081 C3085 1.495 . S
C3082 C3081 1.392 . S
C3082 C3083 1.385 . S
C3082 C3084 1.478 . S
C3083 H3077 0.930 . S
C3083 C3079 1.400 . S
C3083 C3082 1.385 . S
C3084 C3082 1.478 . S
C3084 C3086 1.381 . S
C3084 C3090 1.383 . S
C3085 C3081 1.495 . S
C3085 H3091 0.959 . S
C3085 H3092 0.961 . S
C3085 H3093 0.960 . S
C3086 C3084 1.381 . S
C3086 C3087 1.394 . S
C3086 H3094 0.930 . S
C3087 C3086 1.394 . S
C3087 C3088 1.383 . S
C3087 H3095 0.929 . S
C3088 C3087 1.383 . S
C3088 C3089 1.377 . S
C3089 H3073 0.930 . S
C3089 C3088 1.377 . S
C3089 C3090 1.379 . S
C3090 H3074 0.931 . S
C3090 C3084 1.383 . S
C3090 C3089 1.379 . S
H3091 C3085 0.959 . S
H3092 C3085 0.961 . S
H3093 C3085 0.960 . S
H3094 C3086 0.930 . S
H3095 C3087 0.929 . S
H3096 C3104 0.929 . S
H3097 C3106 0.930 . S
H3098 C3108 0.930 . S
H3099 C3111 0.929 . S
H3100 C3114 0.930 . S
H3101 C3116 0.960 . S
H3102 C3116 0.960 . S
H3103 C3116 0.960 . S
C3104 H3096 0.929 . S
C3104 C3105 1.377 . S
C3104 C3106 1.384 . S
C3105 C3104 1.377 . S
C3105 C3111 1.390 . S
C3106 H3097 0.930 . S
C3106 C3104 1.384 . S
C3106 C3107 1.372 . S
C3107 C3106 1.372 . S
C3107 C3108 1.400 . S
C3107 C3112 1.490 . S
C3108 H3098 0.930 . S
C3108 C3107 1.400 . S
C3108 C3111 1.386 . S
H3109 C3125 0.930 . S
H3110 C3126 0.931 . S
C3111 H3099 0.929 . S
C3111 C3105 1.390 . S
C3111 C3108 1.386 . S
C3112 C3107 1.490 . S
C3112 C3114 1.395 . S
C3112 C3115 1.403 . S
H3113 C3119 0.930 . S
C3114 H3100 0.930 . S
C3114 C3112 1.395 . S
C3114 C3117 1.403 . S
C3115 C3112 1.403 . S
C3115 C3116 1.524 . S
C3115 C3119 1.400 . S
C3116 H3101 0.960 . S
C3116 H3102 0.960 . S
C3116 H3103 0.960 . S
C3116 C3115 1.524 . S
C3117 C3114 1.403 . S
C3117 C3118 1.392 . S
C3117 C3121 1.495 . S
C3118 C3117 1.392 . S
C3118 C3119 1.385 . S
C3118 C3120 1.478 . S
C3119 H3113 0.930 . S
C3119 C3115 1.400 . S
C3119 C3118 1.385 . S
C3120 C3118 1.478 . S
C3120 C3122 1.381 . S
C3120 C3126 1.383 . S
C3121 C3117 1.495 . S
C3121 H3127 0.959 . S
C3121 H3128 0.961 . S
C3121 H3129 0.960 . S
C3122 C3120 1.381 . S
C3122 C3123 1.394 . S
C3122 H3130 0.930 . S
C3123 C3122 1.394 . S
C3123 C3124 1.383 . S
C3123 H3131 0.929 . S
C3124 C3123 1.383 . S
C3124 C3125 1.377 . S
C3125 H3109 0.930 . S
C3125 C3124 1.377 . S
C3125 C3126 1.379 . S
C3126 H3110 0.931 . S
C3126 C3120 1.383 . S
C3126 C3125 1.379 . S
H3127 C3121 0.959 . S
H3128 C3121 0.961 . S
H3129 C3121 0.960 . S
H3130 C3122 0.930 . S
H3131 C3123 0.929 . S
H3132 C3140 0.929 . S
H3133 C3142 0.930 . S
H3134 C3144 0.930 . S
H3135 C3147 0.929 . S
H3136 C3150 0.930 . S
H3137 C3152 0.960 . S
H3138 C3152 0.960 . S
H3139 C3152 0.960 . S
C3140 H3132 0.929 . S
C3140 C3141 1.377 . S
C3140 C3142 1.384 . S
C3141 C3140 1.377 . S
C3141 C3147 1.390 . S
C3142 H3133 0.930 . S
C3142 C3140 1.384 . S
C3142 C3143 1.372 . S
C3143 C3142 1.372 . S
C3143 C3144 1.400 . S
C3143 C3148 1.490 . S
C3144 H3134 0.930 . S
C3144 C3143 1.400 . S
C3144 C3147 1.386 . S
H3145 C3161 0.930 . S
H3146 C3162 0.931 . S
C3147 H3135 0.929 . S
C3147 C3141 1.390 . S
C3147 C3144 1.386 . S
C3148 C3143 1.490 . S
C3148 C3150 1.395 . S
C3148 C3151 1.403 . S
H3149 C3155 0.930 . S
C3150 H3136 0.930 . S
C3150 C3148 1.395 . S
C3150 C3153 1.403 1_556 S
C3151 C3148 1.403 . S
C3151 C3152 1.524 . S
C3151 C3155 1.400 . S
C3152 H3137 0.960 . S
C3152 H3138 0.960 . S
C3152 H3139 0.960 . S
C3152 C3151 1.524 . S
C3153 C3150 1.403 1_554 S
C3153 C3154 1.392 . S
C3153 C3157 1.495 . S
C3154 C3153 1.392 . S
C3154 C3155 1.385 1_554 S
C3154 C3156 1.478 . S
C3155 H3149 0.930 . S
C3155 C3151 1.400 . S
C3155 C3154 1.385 1_556 S
C3156 C3154 1.478 . S
C3156 C3158 1.381 . S
C3156 C3162 1.383 . S
C3157 C3153 1.495 . S
C3157 H3163 0.959 . S
C3157 H3164 0.961 . S
C3157 H3165 0.960 . S
C3158 C3156 1.381 . S
C3158 C3159 1.394 . S
C3158 H3166 0.930 . S
C3159 C3158 1.394 . S
C3159 C3160 1.383 . S
C3159 H3167 0.929 . S
C3160 C3159 1.383 . S
C3160 C3161 1.377 . S
C3161 H3145 0.930 . S
C3161 C3160 1.377 . S
C3161 C3162 1.379 . S
C3162 H3146 0.931 . S
C3162 C3156 1.383 . S
C3162 C3161 1.379 . S
H3163 C3157 0.959 . S
H3164 C3157 0.961 . S
H3165 C3157 0.960 . S
H3166 C3158 0.930 . S
H3167 C3159 0.929 . S
H3168 C3176 0.929 . S
H3169 C3178 0.930 . S
H3170 C3180 0.930 . S
H3171 C3183 0.929 . S
H3172 C3186 0.930 . S
H3173 C3188 0.960 . S
H3174 C3188 0.960 . S
H3175 C3188 0.960 . S
C3176 H3168 0.929 . S
C3176 C3177 1.377 . S
C3176 C3178 1.384 . S
C3177 C3176 1.377 . S
C3177 C3183 1.390 . S
C3178 H3169 0.930 . S
C3178 C3176 1.384 . S
C3178 C3179 1.372 . S
C3179 C3178 1.372 . S
C3179 C3180 1.400 . S
C3179 C3184 1.490 . S
C3180 H3170 0.930 . S
C3180 C3179 1.400 . S
C3180 C3183 1.386 . S
H3181 C3197 0.930 . S
H3182 C3198 0.931 . S
C3183 H3171 0.929 . S
C3183 C3177 1.390 . S
C3183 C3180 1.386 . S
C3184 C3179 1.490 . S
C3184 C3186 1.395 1_554 S
C3184 C3187 1.403 . S
H3185 C3191 0.930 . S
C3186 H3172 0.930 . S
C3186 C3184 1.395 1_556 S
C3186 C3189 1.403 . S
C3187 C3184 1.403 . S
C3187 C3188 1.524 . S
C3187 C3191 1.400 1_554 S
C3188 H3173 0.960 . S
C3188 H3174 0.960 . S
C3188 H3175 0.960 . S
C3188 C3187 1.524 . S
C3189 C3186 1.403 . S
C3189 C3190 1.392 . S
C3189 C3193 1.495 . S
C3190 C3189 1.392 . S
C3190 C3191 1.385 . S
C3190 C3192 1.478 . S
C3191 H3185 0.930 . S
C3191 C3187 1.400 1_556 S
C3191 C3190 1.385 . S
C3192 C3190 1.478 . S
C3192 C3194 1.381 . S
C3192 C3198 1.383 . S
C3193 C3189 1.495 . S
C3193 H3199 0.959 . S
C3193 H3200 0.961 . S
C3193 H3201 0.960 . S
C3194 C3192 1.381 . S
C3194 C3195 1.394 . S
C3194 H3202 0.930 . S
C3195 C3194 1.394 . S
C3195 C3196 1.383 . S
C3195 H3203 0.929 . S
C3196 C3195 1.383 . S
C3196 C3197 1.377 . S
C3197 H3181 0.930 . S
C3197 C3196 1.377 . S
C3197 C3198 1.379 . S
C3198 H3182 0.931 . S
C3198 C3192 1.383 . S
C3198 C3197 1.379 . S
H3199 C3193 0.959 . S
H3200 C3193 0.961 . S
H3201 C3193 0.960 . S
H3202 C3194 0.930 . S
H3203 C3195 0.929 . S
H3204 C3212 0.929 . S
H3205 C3214 0.930 . S
H3206 C3216 0.930 . S
H3207 C3219 0.929 . S
H3208 C3222 0.930 . S
H3209 C3224 0.960 . S
H3210 C3224 0.960 . S
H3211 C3224 0.960 . S
C3212 H3204 0.929 . S
C3212 C3213 1.377 . S
C3212 C3214 1.384 . S
C3213 C3212 1.377 . S
C3213 C3219 1.390 . S
C3214 H3205 0.930 . S
C3214 C3212 1.384 . S
C3214 C3215 1.372 . S
C3215 C3214 1.372 . S
C3215 C3216 1.400 . S
C3215 C3220 1.490 . S
C3216 H3206 0.930 . S
C3216 C3215 1.400 . S
C3216 C3219 1.386 . S
H3217 C3233 0.930 . S
H3218 C3234 0.931 . S
C3219 H3207 0.929 . S
C3219 C3213 1.390 . S
C3219 C3216 1.386 . S
C3220 C3215 1.490 . S
C3220 C3222 1.395 . S
C3220 C3223 1.403 . S
H3221 C3227 0.930 . S
C3222 H3208 0.930 . S
C3222 C3220 1.395 . S
C3222 C3225 1.403 1_556 S
C3223 C3220 1.403 . S
C3223 C3224 1.524 . S
C3223 C3227 1.400 . S
C3224 H3209 0.960 . S
C3224 H3210 0.960 . S
C3224 H3211 0.960 . S
C3224 C3223 1.524 . S
C3225 C3222 1.403 1_554 S
C3225 C3226 1.392 . S
C3225 C3229 1.495 . S
C3226 C3225 1.392 . S
C3226 C3227 1.385 1_554 S
C3226 C3228 1.478 . S
C3227 H3221 0.930 . S
C3227 C3223 1.400 . S
C3227 C3226 1.385 1_556 S
C3228 C3226 1.478 . S
C3228 C3230 1.381 . S
C3228 C3234 1.383 . S
C3229 C3225 1.495 . S
C3229 H3235 0.959 . S
C3229 H3236 0.961 . S
C3229 H3237 0.960 . S
C3230 C3228 1.381 . S
C3230 C3231 1.394 . S
C3230 H3238 0.930 . S
C3231 C3230 1.394 . S
C3231 C3232 1.383 . S
C3231 H3239 0.929 . S
C3232 C3231 1.383 . S
C3232 C3233 1.377 . S
C3233 H3217 0.930 . S
C3233 C3232 1.377 . S
C3233 C3234 1.379 . S
C3234 H3218 0.931 . S
C3234 C3228 1.383 . S
C3234 C3233 1.379 . S
H3235 C3229 0.959 . S
H3236 C3229 0.961 . S
H3237 C3229 0.960 . S
H3238 C3230 0.930 . S
H3239 C3231 0.929 . S
H3240 C3248 0.929 . S
H3241 C3250 0.930 . S
H3242 C3252 0.930 . S
H3243 C3255 0.929 . S
H3244 C3258 0.930 . S
H3245 C3260 0.960 . S
H3246 C3260 0.960 1_554 S
H3247 C3260 0.960 1_554 S
C3248 H3240 0.929 . S
C3248 C3249 1.377 . S
C3248 C3250 1.384 . S
C3249 C3248 1.377 . S
C3249 C3255 1.390 . S
C3250 H3241 0.930 . S
C3250 C3248 1.384 . S
C3250 C3251 1.372 . S
C3251 C3250 1.372 . S
C3251 C3252 1.400 . S
C3251 C3256 1.490 1_554 S
C3252 H3242 0.930 . S
C3252 C3251 1.400 . S
C3252 C3255 1.386 . S
H3253 C3269 0.930 . S
H3254 C3270 0.931 . S
C3255 H3243 0.929 . S
C3255 C3249 1.390 . S
C3255 C3252 1.386 . S
C3256 C3251 1.490 1_556 S
C3256 C3258 1.395 . S
C3256 C3259 1.403 . S
H3257 C3263 0.930 . S
C3258 H3244 0.930 . S
C3258 C3256 1.395 . S
C3258 C3261 1.403 . S
C3259 C3256 1.403 . S
C3259 C3260 1.524 . S
C3259 C3263 1.400 . S
C3260 H3245 0.960 . S
C3260 H3246 0.960 1_556 S
C3260 H3247 0.960 1_556 S
C3260 C3259 1.524 . S
C3261 C3258 1.403 . S
C3261 C3262 1.392 . S
C3261 C3265 1.495 . S
C3262 C3261 1.392 . S
C3262 C3263 1.385 . S
C3262 C3264 1.478 . S
C3263 H3257 0.930 . S
C3263 C3259 1.400 . S
C3263 C3262 1.385 . S
C3264 C3262 1.478 . S
C3264 C3266 1.381 . S
C3264 C3270 1.383 . S
C3265 C3261 1.495 . S
C3265 H3271 0.959 . S
C3265 H3272 0.961 . S
C3265 H3273 0.960 . S
C3266 C3264 1.381 . S
C3266 C3267 1.394 . S
C3266 H3274 0.930 . S
C3267 C3266 1.394 . S
C3267 C3268 1.383 . S
C3267 H3275 0.929 . S
C3268 C3267 1.383 . S
C3268 C3269 1.377 . S
C3269 H3253 0.930 . S
C3269 C3268 1.377 . S
C3269 C3270 1.379 . S
C3270 H3254 0.931 . S
C3270 C3264 1.383 . S
C3270 C3269 1.379 . S
H3271 C3265 0.959 . S
H3272 C3265 0.961 . S
H3273 C3265 0.960 . S
H3274 C3266 0.930 . S
H3275 C3267 0.929 . S
H3276 C3284 0.929 . S
H3277 C3286 0.930 . S
H3278 C3288 0.930 . S
H3279 C3291 0.929 . S
H3280 C3294 0.930 . S
H3281 C3296 0.960 . S
H3282 C3296 0.960 . S
H3283 C3296 0.960 . S
C3284 H3276 0.929 . S
C3284 C3285 1.377 . S
C3284 C3286 1.384 . S
C3285 C3284 1.377 . S
C3285 C3291 1.390 . S
C3286 H3277 0.930 . S
C3286 C3284 1.384 . S
C3286 C3287 1.372 . S
C3287 C3286 1.372 . S
C3287 C3288 1.400 . S
C3287 C3292 1.490 . S
C3288 H3278 0.930 . S
C3288 C3287 1.400 . S
C3288 C3291 1.386 . S
H3289 C3305 0.930 . S
H3290 C3306 0.931 1_556 S
C3291 H3279 0.929 . S
C3291 C3285 1.390 . S
C3291 C3288 1.386 . S
C3292 C3287 1.490 . S
C3292 C3294 1.395 . S
C3292 C3295 1.403 . S
H3293 C3299 0.930 . S
C3294 H3280 0.930 . S
C3294 C3292 1.395 . S
C3294 C3297 1.403 . S
C3295 C3292 1.403 . S
C3295 C3296 1.524 . S
C3295 C3299 1.400 . S
C3296 H3281 0.960 . S
C3296 H3282 0.960 . S
C3296 H3283 0.960 . S
C3296 C3295 1.524 . S
C3297 C3294 1.403 . S
C3297 C3298 1.392 . S
C3297 C3301 1.495 . S
C3298 C3297 1.392 . S
C3298 C3299 1.385 . S
C3298 C3300 1.478 1_556 S
C3299 H3293 0.930 . S
C3299 C3295 1.400 . S
C3299 C3298 1.385 . S
C3300 C3298 1.478 1_554 S
C3300 C3302 1.381 . S
C3300 C3306 1.383 . S
C3301 C3297 1.495 . S
C3301 H3307 0.959 . S
C3301 H3308 0.961 . S
C3301 H3309 0.960 . S
C3302 C3300 1.381 . S
C3302 C3303 1.394 . S
C3302 H3310 0.930 . S
C3303 C3302 1.394 . S
C3303 C3304 1.383 . S
C3303 H3311 0.929 . S
C3304 C3303 1.383 . S
C3304 C3305 1.377 . S
C3305 H3289 0.930 . S
C3305 C3304 1.377 . S
C3305 C3306 1.379 . S
C3306 H3290 0.931 1_554 S
C3306 C3300 1.383 . S
C3306 C3305 1.379 . S
H3307 C3301 0.959 . S
H3308 C3301 0.961 . S
H3309 C3301 0.960 . S
H3310 C3302 0.930 . S
H3311 C3303 0.929 . S
H3312 C3320 0.929 . S
H3313 C3322 0.930 . S
H3314 C3324 0.930 . S
H3315 C3327 0.929 . S
H3316 C3330 0.930 . S
H3317 C3332 0.960 . S
H3318 C3332 0.960 . S
H3319 C3332 0.960 . S
C3320 H3312 0.929 . S
C3320 C3321 1.377 . S
C3320 C3322 1.384 . S
C3321 C3320 1.377 . S
C3321 C3327 1.390 . S
C3322 H3313 0.930 . S
C3322 C3320 1.384 . S
C3322 C3323 1.372 . S
C3323 C3322 1.372 . S
C3323 C3324 1.400 . S
C3323 C3328 1.490 . S
C3324 H3314 0.930 . S
C3324 C3323 1.400 . S
C3324 C3327 1.386 . S
H3325 C3341 0.930 . S
H3326 C3342 0.931 . S
C3327 H3315 0.929 . S
C3327 C3321 1.390 . S
C3327 C3324 1.386 . S
C3328 C3323 1.490 . S
C3328 C3330 1.395 . S
C3328 C3331 1.403 . S
H3329 C3335 0.930 . S
C3330 H3316 0.930 . S
C3330 C3328 1.395 . S
C3330 C3333 1.403 . S
C3331 C3328 1.403 . S
C3331 C3332 1.524 . S
C3331 C3335 1.400 . S
C3332 H3317 0.960 . S
C3332 H3318 0.960 . S
C3332 H3319 0.960 . S
C3332 C3331 1.524 . S
C3333 C3330 1.403 . S
C3333 C3334 1.392 . S
C3333 C3337 1.495 1_556 S
C3334 C3333 1.392 . S
C3334 C3335 1.385 . S
C3334 C3336 1.478 1_556 S
C3335 H3329 0.930 . S
C3335 C3331 1.400 . S
C3335 C3334 1.385 . S
C3336 C3334 1.478 1_554 S
C3336 C3338 1.381 . S
C3336 C3342 1.383 . S
C3337 C3333 1.495 1_554 S
C3337 H3343 0.959 . S
C3337 H3344 0.961 . S
C3337 H3345 0.960 . S
C3338 C3336 1.381 . S
C3338 C3339 1.394 . S
C3338 H3346 0.930 . S
C3339 C3338 1.394 . S
C3339 C3340 1.383 . S
C3339 H3347 0.929 . S
C3340 C3339 1.383 . S
C3340 C3341 1.377 . S
C3341 H3325 0.930 . S
C3341 C3340 1.377 . S
C3341 C3342 1.379 . S
C3342 H3326 0.931 . S
C3342 C3336 1.383 . S
C3342 C3341 1.379 . S
H3343 C3337 0.959 . S
H3344 C3337 0.961 . S
H3345 C3337 0.960 . S
H3346 C3338 0.930 . S
H3347 C3339 0.929 . S
H3348 C3356 0.929 . S
H3349 C3358 0.930 . S
H3350 C3360 0.930 . S
H3351 C3363 0.929 . S
H3352 C3366 0.930 . S
H3353 C3368 0.960 . S
H3354 C3368 0.960 . S
H3355 C3368 0.960 . S
C3356 H3348 0.929 . S
C3356 C3357 1.377 . S
C3356 C3358 1.384 . S
C3357 C3356 1.377 . S
C3357 C3363 1.390 . S
C3358 H3349 0.930 . S
C3358 C3356 1.384 . S
C3358 C3359 1.372 . S
C3359 C3358 1.372 . S
C3359 C3360 1.400 . S
C3359 C3364 1.490 . S
C3360 H3350 0.930 . S
C3360 C3359 1.400 . S
C3360 C3363 1.386 . S
H3361 C3377 0.930 . S
H3362 C3378 0.931 . S
C3363 H3351 0.929 . S
C3363 C3357 1.390 . S
C3363 C3360 1.386 . S
C3364 C3359 1.490 . S
C3364 C3366 1.395 . S
C3364 C3367 1.403 . S
H3365 C3371 0.930 . S
C3366 H3352 0.930 . S
C3366 C3364 1.395 . S
C3366 C3369 1.403 1_455 S
C3367 C3364 1.403 . S
C3367 C3368 1.524 . S
C3367 C3371 1.400 1_455 S
C3368 H3353 0.960 . S
C3368 H3354 0.960 . S
C3368 H3355 0.960 . S
C3368 C3367 1.524 . S
C3369 C3366 1.403 1_655 S
C3369 C3370 1.392 . S
C3369 C3373 1.495 . S
C3370 C3369 1.392 . S
C3370 C3371 1.385 . S
C3370 C3372 1.478 . S
C3371 H3365 0.930 . S
C3371 C3367 1.400 1_655 S
C3371 C3370 1.385 . S
C3372 C3370 1.478 . S
C3372 C3374 1.381 . S
C3372 C3378 1.383 . S
C3373 C3369 1.495 . S
C3373 H3379 0.959 . S
C3373 H3380 0.961 . S
C3373 H3381 0.960 . S
C3374 C3372 1.381 . S
C3374 C3375 1.394 . S
C3374 H3382 0.930 . S
C3375 C3374 1.394 . S
C3375 C3376 1.383 . S
C3375 H3383 0.929 . S
C3376 C3375 1.383 . S
C3376 C3377 1.377 . S
C3377 H3361 0.930 . S
C3377 C3376 1.377 . S
C3377 C3378 1.379 . S
C3378 H3362 0.931 . S
C3378 C3372 1.383 . S
C3378 C3377 1.379 . S
H3379 C3373 0.959 . S
H3380 C3373 0.961 . S
H3381 C3373 0.960 . S
H3382 C3374 0.930 . S
H3383 C3375 0.929 . S
H3384 C3392 0.929 . S
H3385 C3394 0.930 . S
H3386 C3396 0.930 . S
H3387 C3399 0.929 . S
H3388 C3402 0.930 . S
H3389 C3404 0.960 . S
H3390 C3404 0.960 . S
H3391 C3404 0.960 . S
C3392 H3384 0.929 . S
C3392 C3393 1.377 . S
C3392 C3394 1.384 . S
C3393 C3392 1.377 . S
C3393 C3399 1.390 . S
C3394 H3385 0.930 . S
C3394 C3392 1.384 . S
C3394 C3395 1.372 . S
C3395 C3394 1.372 . S
C3395 C3396 1.400 . S
C3395 C3400 1.490 . S
C3396 H3386 0.930 . S
C3396 C3395 1.400 . S
C3396 C3399 1.386 . S
H3397 C3413 0.930 . S
H3398 C3414 0.931 . S
C3399 H3387 0.929 . S
C3399 C3393 1.390 . S
C3399 C3396 1.386 . S
C3400 C3395 1.490 . S
C3400 C3402 1.395 . S
C3400 C3403 1.403 . S
H3401 C3407 0.930 . S
C3402 H3388 0.930 . S
C3402 C3400 1.395 . S
C3402 C3405 1.403 . S
C3403 C3400 1.403 . S
C3403 C3404 1.524 . S
C3403 C3407 1.400 . S
C3404 H3389 0.960 . S
C3404 H3390 0.960 . S
C3404 H3391 0.960 . S
C3404 C3403 1.524 . S
C3405 C3402 1.403 . S
C3405 C3406 1.392 . S
C3405 C3409 1.495 . S
C3406 C3405 1.392 . S
C3406 C3407 1.385 . S
C3406 C3408 1.478 . S
C3407 H3401 0.930 . S
C3407 C3403 1.400 . S
C3407 C3406 1.385 . S
C3408 C3406 1.478 . S
C3408 C3410 1.381 . S
C3408 C3414 1.383 . S
C3409 C3405 1.495 . S
C3409 H3415 0.959 . S
C3409 H3416 0.961 . S
C3409 H3417 0.960 . S
C3410 C3408 1.381 . S
C3410 C3411 1.394 . S
C3410 H3418 0.930 . S
C3411 C3410 1.394 . S
C3411 C3412 1.383 . S
C3411 H3419 0.929 . S
C3412 C3411 1.383 . S
C3412 C3413 1.377 . S
C3413 H3397 0.930 . S
C3413 C3412 1.377 . S
C3413 C3414 1.379 . S
C3414 H3398 0.931 . S
C3414 C3408 1.383 . S
C3414 C3413 1.379 . S
H3415 C3409 0.959 . S
H3416 C3409 0.961 . S
H3417 C3409 0.960 . S
H3418 C3410 0.930 . S
H3419 C3411 0.929 . S
H3420 C3428 0.929 . S
H3421 C3430 0.930 . S
H3422 C3432 0.930 . S
H3423 C3435 0.929 . S
H3424 C3438 0.930 . S
H3425 C3440 0.960 . S
H3426 C3440 0.960 . S
H3427 C3440 0.960 . S
C3428 H3420 0.929 . S
C3428 C3429 1.377 . S
C3428 C3430 1.384 . S
C3429 C3428 1.377 . S
C3429 C3435 1.390 . S
C3430 H3421 0.930 . S
C3430 C3428 1.384 . S
C3430 C3431 1.372 . S
C3431 C3430 1.372 . S
C3431 C3432 1.400 . S
C3431 C3436 1.490 . S
C3432 H3422 0.930 . S
C3432 C3431 1.400 . S
C3432 C3435 1.386 . S
H3433 C3449 0.930 . S
H3434 C3450 0.931 . S
C3435 H3423 0.929 . S
C3435 C3429 1.390 . S
C3435 C3432 1.386 . S
C3436 C3431 1.490 . S
C3436 C3438 1.395 1_565 S
C3436 C3439 1.403 . S
H3437 C3443 0.930 . S
C3438 H3424 0.930 . S
C3438 C3436 1.395 1_545 S
C3438 C3441 1.403 . S
C3439 C3436 1.403 . S
C3439 C3440 1.524 . S
C3439 C3443 1.400 . S
C3440 H3425 0.960 . S
C3440 H3426 0.960 . S
C3440 H3427 0.960 . S
C3440 C3439 1.524 . S
C3441 C3438 1.403 . S
C3441 C3442 1.392 . S
C3441 C3445 1.495 . S
C3442 C3441 1.392 . S
C3442 C3443 1.385 1_545 S
C3442 C3444 1.478 . S
C3443 H3437 0.930 . S
C3443 C3439 1.400 . S
C3443 C3442 1.385 1_565 S
C3444 C3442 1.478 . S
C3444 C3446 1.381 . S
C3444 C3450 1.383 . S
C3445 C3441 1.495 . S
C3445 H3451 0.959 . S
C3445 H3452 0.961 . S
C3445 H3453 0.960 . S
C3446 C3444 1.381 . S
C3446 C3447 1.394 . S
C3446 H3454 0.930 . S
C3447 C3446 1.394 . S
C3447 C3448 1.383 . S
C3447 H3455 0.929 . S
C3448 C3447 1.383 . S
C3448 C3449 1.377 . S
C3449 H3433 0.930 . S
C3449 C3448 1.377 . S
C3449 C3450 1.379 . S
C3450 H3434 0.931 . S
C3450 C3444 1.383 . S
C3450 C3449 1.379 . S
H3451 C3445 0.959 . S
H3452 C3445 0.961 . S
H3453 C3445 0.960 . S
H3454 C3446 0.930 . S
H3455 C3447 0.929 . S
H3456 C3464 0.929 . S
H3457 C3466 0.930 . S
H3458 C3468 0.930 . S
H3459 C3471 0.929 . S
H3460 C3474 0.930 . S
H3461 C3476 0.960 . S
H3462 C3476 0.960 . S
H3463 C3476 0.960 . S
C3464 H3456 0.929 . S
C3464 C3465 1.377 . S
C3464 C3466 1.384 . S
C3465 C3464 1.377 . S
C3465 C3471 1.390 . S
C3466 H3457 0.930 . S
C3466 C3464 1.384 . S
C3466 C3467 1.372 . S
C3467 C3466 1.372 . S
C3467 C3468 1.400 . S
C3467 C3472 1.490 . S
C3468 H3458 0.930 . S
C3468 C3467 1.400 . S
C3468 C3471 1.386 . S
H3469 C3485 0.930 . S
H3470 C3486 0.931 . S
C3471 H3459 0.929 . S
C3471 C3465 1.390 . S
C3471 C3468 1.386 . S
C3472 C3467 1.490 . S
C3472 C3474 1.395 1_655 S
C3472 C3475 1.403 . S
H3473 C3479 0.930 . S
C3474 H3460 0.930 . S
C3474 C3472 1.395 1_455 S
C3474 C3477 1.403 . S
C3475 C3472 1.403 . S
C3475 C3476 1.524 . S
C3475 C3479 1.400 . S
C3476 H3461 0.960 . S
C3476 H3462 0.960 . S
C3476 H3463 0.960 . S
C3476 C3475 1.524 . S
C3477 C3474 1.403 . S
C3477 C3478 1.392 . S
C3477 C3481 1.495 . S
C3478 C3477 1.392 . S
C3478 C3479 1.385 1_455 S
C3478 C3480 1.478 . S
C3479 H3473 0.930 . S
C3479 C3475 1.400 . S
C3479 C3478 1.385 1_655 S
C3480 C3478 1.478 . S
C3480 C3482 1.381 . S
C3480 C3486 1.383 . S
C3481 C3477 1.495 . S
C3481 H3487 0.959 . S
C3481 H3488 0.961 . S
C3481 H3489 0.960 . S
C3482 C3480 1.381 . S
C3482 C3483 1.394 . S
C3482 H3490 0.930 . S
C3483 C3482 1.394 . S
C3483 C3484 1.383 . S
C3483 H3491 0.929 . S
C3484 C3483 1.383 . S
C3484 C3485 1.377 . S
C3485 H3469 0.930 . S
C3485 C3484 1.377 . S
C3485 C3486 1.379 . S
C3486 H3470 0.931 . S
C3486 C3480 1.383 . S
C3486 C3485 1.379 . S
H3487 C3481 0.959 . S
H3488 C3481 0.961 . S
H3489 C3481 0.960 . S
H3490 C3482 0.930 . S
H3491 C3483 0.929 . S
H3492 C3500 0.929 . S
H3493 C3502 0.930 . S
H3494 C3504 0.930 . S
H3495 C3507 0.929 . S
H3496 C3510 0.930 . S
H3497 C3512 0.960 . S
H3498 C3512 0.960 . S
H3499 C3512 0.960 . S
C3500 H3492 0.929 . S
C3500 C3501 1.377 . S
C3500 C3502 1.384 . S
C3501 C3500 1.377 . S
C3501 C3507 1.390 . S
C3502 H3493 0.930 . S
C3502 C3500 1.384 . S
C3502 C3503 1.372 . S
C3503 C3502 1.372 . S
C3503 C3504 1.400 . S
C3503 C3508 1.490 . S
C3504 H3494 0.930 . S
C3504 C3503 1.400 . S
C3504 C3507 1.386 . S
H3505 C3521 0.930 . S
H3506 C3522 0.931 . S
C3507 H3495 0.929 . S
C3507 C3501 1.390 . S
C3507 C3504 1.386 . S
C3508 C3503 1.490 . S
C3508 C3510 1.395 . S
C3508 C3511 1.403 . S
H3509 C3515 0.930 . S
C3510 H3496 0.930 . S
C3510 C3508 1.395 . S
C3510 C3513 1.403 . S
C3511 C3508 1.403 . S
C3511 C3512 1.524 . S
C3511 C3515 1.400 . S
C3512 H3497 0.960 . S
C3512 H3498 0.960 . S
C3512 H3499 0.960 . S
C3512 C3511 1.524 . S
C3513 C3510 1.403 . S
C3513 C3514 1.392 . S
C3513 C3517 1.495 . S
C3514 C3513 1.392 . S
C3514 C3515 1.385 . S
C3514 C3516 1.478 . S
C3515 H3509 0.930 . S
C3515 C3511 1.400 . S
C3515 C3514 1.385 . S
C3516 C3514 1.478 . S
C3516 C3518 1.381 . S
C3516 C3522 1.383 . S
C3517 C3513 1.495 . S
C3517 H3523 0.959 . S
C3517 H3524 0.961 . S
C3517 H3525 0.960 . S
C3518 C3516 1.381 . S
C3518 C3519 1.394 . S
C3518 H3526 0.930 . S
C3519 C3518 1.394 . S
C3519 C3520 1.383 . S
C3519 H3527 0.929 . S
C3520 C3519 1.383 . S
C3520 C3521 1.377 . S
C3521 H3505 0.930 . S
C3521 C3520 1.377 . S
C3521 C3522 1.379 . S
C3522 H3506 0.931 . S
C3522 C3516 1.383 . S
C3522 C3521 1.379 . S
H3523 C3517 0.959 . S
H3524 C3517 0.961 . S
H3525 C3517 0.960 . S
H3526 C3518 0.930 . S
H3527 C3519 0.929 . S
H3528 C3536 0.929 . S
H3529 C3538 0.930 . S
H3530 C3540 0.930 . S
H3531 C3543 0.929 . S
H3532 C3546 0.930 . S
H3533 C3548 0.960 . S
H3534 C3548 0.960 . S
H3535 C3548 0.960 . S
C3536 H3528 0.929 . S
C3536 C3537 1.377 . S
C3536 C3538 1.384 . S
C3537 C3536 1.377 . S
C3537 C3543 1.390 . S
C3538 H3529 0.930 . S
C3538 C3536 1.384 . S
C3538 C3539 1.372 . S
C3539 C3538 1.372 . S
C3539 C3540 1.400 . S
C3539 C3544 1.490 . S
C3540 H3530 0.930 . S
C3540 C3539 1.400 . S
C3540 C3543 1.386 . S
H3541 C3557 0.930 . S
H3542 C3558 0.931 . S
C3543 H3531 0.929 . S
C3543 C3537 1.390 . S
C3543 C3540 1.386 . S
C3544 C3539 1.490 . S
C3544 C3546 1.395 . S
C3544 C3547 1.403 1_545 S
H3545 C3551 0.930 . S
C3546 H3532 0.930 . S
C3546 C3544 1.395 . S
C3546 C3549 1.403 . S
C3547 C3544 1.403 1_565 S
C3547 C3548 1.524 . S
C3547 C3551 1.400 . S
C3548 H3533 0.960 . S
C3548 H3534 0.960 . S
C3548 H3535 0.960 . S
C3548 C3547 1.524 . S
C3549 C3546 1.403 . S
C3549 C3550 1.392 1_545 S
C3549 C3553 1.495 . S
C3550 C3549 1.392 1_565 S
C3550 C3551 1.385 . S
C3550 C3552 1.478 . S
C3551 H3545 0.930 . S
C3551 C3547 1.400 . S
C3551 C3550 1.385 . S
C3552 C3550 1.478 . S
C3552 C3554 1.381 . S
C3552 C3558 1.383 . S
C3553 C3549 1.495 . S
C3553 H3559 0.959 . S
C3553 H3560 0.961 . S
C3553 H3561 0.960 . S
C3554 C3552 1.381 . S
C3554 C3555 1.394 . S
C3554 H3562 0.930 . S
C3555 C3554 1.394 . S
C3555 C3556 1.383 . S
C3555 H3563 0.929 . S
C3556 C3555 1.383 . S
C3556 C3557 1.377 . S
C3557 H3541 0.930 . S
C3557 C3556 1.377 . S
C3557 C3558 1.379 . S
C3558 H3542 0.931 . S
C3558 C3552 1.383 . S
C3558 C3557 1.379 . S
H3559 C3553 0.959 . S
H3560 C3553 0.961 . S
H3561 C3553 0.960 . S
H3562 C3554 0.930 . S
H3563 C3555 0.929 . S
H3564 C3572 0.929 . S
H3565 C3574 0.930 . S
H3566 C3576 0.930 . S
H3567 C3579 0.929 . S
H3568 C3582 0.930 . S
H3569 C3584 0.960 . S
H3570 C3584 0.960 . S
H3571 C3584 0.960 . S
C3572 H3564 0.929 . S
C3572 C3573 1.377 . S
C3572 C3574 1.384 . S
C3573 C3572 1.377 . S
C3573 C3579 1.390 . S
C3574 H3565 0.930 . S
C3574 C3572 1.384 . S
C3574 C3575 1.372 . S
C3575 C3574 1.372 . S
C3575 C3576 1.400 . S
C3575 C3580 1.490 . S
C3576 H3566 0.930 . S
C3576 C3575 1.400 . S
C3576 C3579 1.386 . S
H3577 C3593 0.930 . S
H3578 C3594 0.931 . S
C3579 H3567 0.929 . S
C3579 C3573 1.390 . S
C3579 C3576 1.386 . S
C3580 C3575 1.490 . S
C3580 C3582 1.395 . S
C3580 C3583 1.403 . S
H3581 C3587 0.930 . S
C3582 H3568 0.930 . S
C3582 C3580 1.395 . S
C3582 C3585 1.403 . S
C3583 C3580 1.403 . S
C3583 C3584 1.524 . S
C3583 C3587 1.400 . S
C3584 H3569 0.960 . S
C3584 H3570 0.960 . S
C3584 H3571 0.960 . S
C3584 C3583 1.524 . S
C3585 C3582 1.403 . S
C3585 C3586 1.392 . S
C3585 C3589 1.495 . S
C3586 C3585 1.392 . S
C3586 C3587 1.385 . S
C3586 C3588 1.478 . S
C3587 H3581 0.930 . S
C3587 C3583 1.400 . S
C3587 C3586 1.385 . S
C3588 C3586 1.478 . S
C3588 C3590 1.381 . S
C3588 C3594 1.383 . S
C3589 C3585 1.495 . S
C3589 H3595 0.959 . S
C3589 H3596 0.961 . S
C3589 H3597 0.960 . S
C3590 C3588 1.381 . S
C3590 C3591 1.394 . S
C3590 H3598 0.930 . S
C3591 C3590 1.394 . S
C3591 C3592 1.383 . S
C3591 H3599 0.929 . S
C3592 C3591 1.383 . S
C3592 C3593 1.377 . S
C3593 H3577 0.930 . S
C3593 C3592 1.377 . S
C3593 C3594 1.379 . S
C3594 H3578 0.931 . S
C3594 C3588 1.383 . S
C3594 C3593 1.379 . S
H3595 C3589 0.959 . S
H3596 C3589 0.961 . S
H3597 C3589 0.960 . S
H3598 C3590 0.930 . S
H3599 C3591 0.929 . S
H3600 C3608 0.929 . S
H3601 C3610 0.930 . S
H3602 C3612 0.930 . S
H3603 C3615 0.929 . S
H3604 C3618 0.930 . S
H3605 C3620 0.960 . S
H3606 C3620 0.960 . S
H3607 C3620 0.960 . S
C3608 H3600 0.929 . S
C3608 C3609 1.377 . S
C3608 C3610 1.384 . S
C3609 C3608 1.377 . S
C3609 C3615 1.390 . S
C3610 H3601 0.930 . S
C3610 C3608 1.384 . S
C3610 C3611 1.372 . S
C3611 C3610 1.372 . S
C3611 C3612 1.400 . S
C3611 C3616 1.490 . S
C3612 H3602 0.930 . S
C3612 C3611 1.400 . S
C3612 C3615 1.386 . S
H3613 C3629 0.930 . S
H3614 C3630 0.931 . S
C3615 H3603 0.929 . S
C3615 C3609 1.390 . S
C3615 C3612 1.386 . S
C3616 C3611 1.490 . S
C3616 C3618 1.395 . S
C3616 C3619 1.403 . S
H3617 C3623 0.930 . S
C3618 H3604 0.930 . S
C3618 C3616 1.395 . S
C3618 C3621 1.403 . S
C3619 C3616 1.403 . S
C3619 C3620 1.524 . S
C3619 C3623 1.400 . S
C3620 H3605 0.960 . S
C3620 H3606 0.960 . S
C3620 H3607 0.960 . S
C3620 C3619 1.524 . S
C3621 C3618 1.403 . S
C3621 C3622 1.392 . S
C3621 C3625 1.495 . S
C3622 C3621 1.392 . S
C3622 C3623 1.385 . S
C3622 C3624 1.478 . S
C3623 H3617 0.930 . S
C3623 C3619 1.400 . S
C3623 C3622 1.385 . S
C3624 C3622 1.478 . S
C3624 C3626 1.381 . S
C3624 C3630 1.383 . S
C3625 C3621 1.495 . S
C3625 H3631 0.959 . S
C3625 H3632 0.961 . S
C3625 H3633 0.960 . S
C3626 C3624 1.381 . S
C3626 C3627 1.394 . S
C3626 H3634 0.930 . S
C3627 C3626 1.394 . S
C3627 C3628 1.383 . S
C3627 H3635 0.929 . S
C3628 C3627 1.383 . S
C3628 C3629 1.377 . S
C3629 H3613 0.930 . S
C3629 C3628 1.377 . S
C3629 C3630 1.379 . S
C3630 H3614 0.931 . S
C3630 C3624 1.383 . S
C3630 C3629 1.379 . S
H3631 C3625 0.959 . S
H3632 C3625 0.961 . S
H3633 C3625 0.960 . S
H3634 C3626 0.930 . S
H3635 C3627 0.929 . S
H3636 C3644 0.929 . S
H3637 C3646 0.930 . S
H3638 C3648 0.930 . S
H3639 C3651 0.929 . S
H3640 C3654 0.930 . S
H3641 C3656 0.960 . S
H3642 C3656 0.960 . S
H3643 C3656 0.960 . S
C3644 H3636 0.929 . S
C3644 C3645 1.377 . S
C3644 C3646 1.384 . S
C3645 C3644 1.377 . S
C3645 C3651 1.390 . S
C3646 H3637 0.930 . S
C3646 C3644 1.384 . S
C3646 C3647 1.372 . S
C3647 C3646 1.372 . S
C3647 C3648 1.400 . S
C3647 C3652 1.490 . S
C3648 H3638 0.930 . S
C3648 C3647 1.400 . S
C3648 C3651 1.386 . S
H3649 C3665 0.930 . S
H3650 C3666 0.931 . S
C3651 H3639 0.929 . S
C3651 C3645 1.390 . S
C3651 C3648 1.386 . S
C3652 C3647 1.490 . S
C3652 C3654 1.395 . S
C3652 C3655 1.403 . S
H3653 C3659 0.930 . S
C3654 H3640 0.930 . S
C3654 C3652 1.395 . S
C3654 C3657 1.403 . S
C3655 C3652 1.403 . S
C3655 C3656 1.524 . S
C3655 C3659 1.400 . S
C3656 H3641 0.960 . S
C3656 H3642 0.960 . S
C3656 H3643 0.960 . S
C3656 C3655 1.524 . S
C3657 C3654 1.403 . S
C3657 C3658 1.392 . S
C3657 C3661 1.495 . S
C3658 C3657 1.392 . S
C3658 C3659 1.385 . S
C3658 C3660 1.478 . S
C3659 H3653 0.930 . S
C3659 C3655 1.400 . S
C3659 C3658 1.385 . S
C3660 C3658 1.478 . S
C3660 C3662 1.381 . S
C3660 C3666 1.383 . S
C3661 C3657 1.495 . S
C3661 H3667 0.959 . S
C3661 H3668 0.961 . S
C3661 H3669 0.960 . S
C3662 C3660 1.381 . S
C3662 C3663 1.394 . S
C3662 H3670 0.930 . S
C3663 C3662 1.394 . S
C3663 C3664 1.383 . S
C3663 H3671 0.929 . S
C3664 C3663 1.383 . S
C3664 C3665 1.377 . S
C3665 H3649 0.930 . S
C3665 C3664 1.377 . S
C3665 C3666 1.379 . S
C3666 H3650 0.931 . S
C3666 C3660 1.383 . S
C3666 C3665 1.379 . S
H3667 C3661 0.959 . S
H3668 C3661 0.961 . S
H3669 C3661 0.960 . S
H3670 C3662 0.930 . S
H3671 C3663 0.929 . S
H3672 C3680 0.929 . S
H3673 C3682 0.930 . S
H3674 C3684 0.930 . S
H3675 C3687 0.929 . S
H3676 C3690 0.930 . S
H3677 C3692 0.960 . S
H3678 C3692 0.960 . S
H3679 C3692 0.960 . S
C3680 H3672 0.929 . S
C3680 C3681 1.377 . S
C3680 C3682 1.384 1_556 S
C3681 C3680 1.377 . S
C3681 C3687 1.390 1_556 S
C3682 H3673 0.930 . S
C3682 C3680 1.384 1_554 S
C3682 C3683 1.372 . S
C3683 C3682 1.372 . S
C3683 C3684 1.400 . S
C3683 C3688 1.490 . S
C3684 H3674 0.930 . S
C3684 C3683 1.400 . S
C3684 C3687 1.386 . S
H3685 C3701 0.930 . S
H3686 C3702 0.931 . S
C3687 H3675 0.929 . S
C3687 C3681 1.390 1_554 S
C3687 C3684 1.386 . S
C3688 C3683 1.490 . S
C3688 C3690 1.395 . S
C3688 C3691 1.403 . S
H3689 C3695 0.930 . S
C3690 H3676 0.930 . S
C3690 C3688 1.395 . S
C3690 C3693 1.403 . S
C3691 C3688 1.403 . S
C3691 C3692 1.524 . S
C3691 C3695 1.400 . S
C3692 H3677 0.960 . S
C3692 H3678 0.960 . S
C3692 H3679 0.960 . S
C3692 C3691 1.524 . S
C3693 C3690 1.403 . S
C3693 C3694 1.392 . S
C3693 C3697 1.495 . S
C3694 C3693 1.392 . S
C3694 C3695 1.385 . S
C3694 C3696 1.478 . S
C3695 H3689 0.930 . S
C3695 C3691 1.400 . S
C3695 C3694 1.385 . S
C3696 C3694 1.478 . S
C3696 C3698 1.381 . S
C3696 C3702 1.383 . S
C3697 C3693 1.495 . S
C3697 H3703 0.959 . S
C3697 H3704 0.961 . S
C3697 H3705 0.960 . S
C3698 C3696 1.381 . S
C3698 C3699 1.394 . S
C3698 H3706 0.930 . S
C3699 C3698 1.394 . S
C3699 C3700 1.383 . S
C3699 H3707 0.929 . S
C3700 C3699 1.383 . S
C3700 C3701 1.377 . S
C3701 H3685 0.930 . S
C3701 C3700 1.377 . S
C3701 C3702 1.379 . S
C3702 H3686 0.931 . S
C3702 C3696 1.383 . S
C3702 C3701 1.379 . S
H3703 C3697 0.959 . S
H3704 C3697 0.961 . S
H3705 C3697 0.960 . S
H3706 C3698 0.930 . S
H3707 C3699 0.929 . S
H3708 C3716 0.929 . S
H3709 C3718 0.930 . S
H3710 C3720 0.930 . S
H3711 C3723 0.929 . S
H3712 C3726 0.930 . S
H3713 C3728 0.960 . S
H3714 C3728 0.960 . S
H3715 C3728 0.960 . S
C3716 H3708 0.929 . S
C3716 C3717 1.377 . S
C3716 C3718 1.384 . S
C3717 C3716 1.377 . S
C3717 C3723 1.390 . S
C3718 H3709 0.930 . S
C3718 C3716 1.384 . S
C3718 C3719 1.372 . S
C3719 C3718 1.372 . S
C3719 C3720 1.400 . S
C3719 C3724 1.490 . S
C3720 H3710 0.930 . S
C3720 C3719 1.400 . S
C3720 C3723 1.386 . S
H3721 C3737 0.930 . S
H3722 C3738 0.931 . S
C3723 H3711 0.929 . S
C3723 C3717 1.390 . S
C3723 C3720 1.386 . S
C3724 C3719 1.490 . S
C3724 C3726 1.395 . S
C3724 C3727 1.403 . S
H3725 C3731 0.930 . S
C3726 H3712 0.930 . S
C3726 C3724 1.395 . S
C3726 C3729 1.403 . S
C3727 C3724 1.403 . S
C3727 C3728 1.524 . S
C3727 C3731 1.400 . S
C3728 H3713 0.960 . S
C3728 H3714 0.960 . S
C3728 H3715 0.960 . S
C3728 C3727 1.524 . S
C3729 C3726 1.403 . S
C3729 C3730 1.392 . S
C3729 C3733 1.495 . S
C3730 C3729 1.392 . S
C3730 C3731 1.385 . S
C3730 C3732 1.478 . S
C3731 H3725 0.930 . S
C3731 C3727 1.400 . S
C3731 C3730 1.385 . S
C3732 C3730 1.478 . S
C3732 C3734 1.381 . S
C3732 C3738 1.383 . S
C3733 C3729 1.495 . S
C3733 H3739 0.959 . S
C3733 H3740 0.961 . S
C3733 H3741 0.960 . S
C3734 C3732 1.381 . S
C3734 C3735 1.394 1_554 S
C3734 H3742 0.930 . S
C3735 C3734 1.394 1_556 S
C3735 C3736 1.383 . S
C3735 H3743 0.929 . S
C3736 C3735 1.383 . S
C3736 C3737 1.377 . S
C3737 H3721 0.930 . S
C3737 C3736 1.377 . S
C3737 C3738 1.379 1_556 S
C3738 H3722 0.931 . S
C3738 C3732 1.383 . S
C3738 C3737 1.379 1_554 S
H3739 C3733 0.959 . S
H3740 C3733 0.961 . S
H3741 C3733 0.960 . S
H3742 C3734 0.930 . S
H3743 C3735 0.929 . S
H3744 C3752 0.929 . S
H3745 C3754 0.930 . S
H3746 C3756 0.930 . S
H3747 C3759 0.929 . S
H3748 C3762 0.930 . S
H3749 C3764 0.960 . S
H3750 C3764 0.960 . S
H3751 C3764 0.960 . S
C3752 H3744 0.929 . S
C3752 C3753 1.377 1_554 S
C3752 C3754 1.384 . S
C3753 C3752 1.377 1_556 S
C3753 C3759 1.390 . S
C3754 H3745 0.930 . S
C3754 C3752 1.384 . S
C3754 C3755 1.372 . S
C3755 C3754 1.372 . S
C3755 C3756 1.400 . S
C3755 C3760 1.490 . S
C3756 H3746 0.930 . S
C3756 C3755 1.400 . S
C3756 C3759 1.386 1_554 S
H3757 C3773 0.930 . S
H3758 C3774 0.931 . S
C3759 H3747 0.929 . S
C3759 C3753 1.390 . S
C3759 C3756 1.386 1_556 S
C3760 C3755 1.490 . S
C3760 C3762 1.395 . S
C3760 C3763 1.403 . S
H3761 C3767 0.930 . S
C3762 H3748 0.930 . S
C3762 C3760 1.395 . S
C3762 C3765 1.403 . S
C3763 C3760 1.403 . S
C3763 C3764 1.524 . S
C3763 C3767 1.400 . S
C3764 H3749 0.960 . S
C3764 H3750 0.960 . S
C3764 H3751 0.960 . S
C3764 C3763 1.524 . S
C3765 C3762 1.403 . S
C3765 C3766 1.392 . S
C3765 C3769 1.495 . S
C3766 C3765 1.392 . S
C3766 C3767 1.385 . S
C3766 C3768 1.478 . S
C3767 H3761 0.930 . S
C3767 C3763 1.400 . S
C3767 C3766 1.385 . S
C3768 C3766 1.478 . S
C3768 C3770 1.381 . S
C3768 C3774 1.383 . S
C3769 C3765 1.495 . S
C3769 H3775 0.959 . S
C3769 H3776 0.961 . S
C3769 H3777 0.960 . S
C3770 C3768 1.381 . S
C3770 C3771 1.394 . S
C3770 H3778 0.930 . S
C3771 C3770 1.394 . S
C3771 C3772 1.383 . S
C3771 H3779 0.929 . S
C3772 C3771 1.383 . S
C3772 C3773 1.377 . S
C3773 H3757 0.930 . S
C3773 C3772 1.377 . S
C3773 C3774 1.379 . S
C3774 H3758 0.931 . S
C3774 C3768 1.383 . S
C3774 C3773 1.379 . S
H3775 C3769 0.959 . S
H3776 C3769 0.961 . S
H3777 C3769 0.960 . S
H3778 C3770 0.930 . S
H3779 C3771 0.929 . S
H3780 C3788 0.929 . S
H3781 C3790 0.940 . S
H3782 C3792 0.930 . S
H3783 C3795 0.929 . S
H3784 C3798 0.930 . S
H3785 C3800 0.960 . S
H3786 C3800 0.960 . S
H3787 C3800 0.960 1_554 S
C3788 H3780 0.929 . S
C3788 C3789 1.377 . S
C3788 C3790 1.384 . S
C3789 C3788 1.377 . S
C3789 C3795 1.390 . S
C3790 H3781 0.940 . S
C3790 C3788 1.384 . S
C3790 C3791 1.372 . S
C3791 C3790 1.372 . S
C3791 C3792 1.400 . S
C3791 C3796 1.490 1_554 S
C3792 H3782 0.930 . S
C3792 C3791 1.400 . S
C3792 C3795 1.386 . S
H3793 C3809 0.930 . S
H3794 C3810 0.931 . S
C3795 H3783 0.929 . S
C3795 C3789 1.390 . S
C3795 C3792 1.386 . S
C3796 C3791 1.490 1_556 S
C3796 C3798 1.395 . S
C3796 C3799 1.403 . S
H3797 C3803 0.930 . S
C3798 H3784 0.930 . S
C3798 C3796 1.395 . S
C3798 C3801 1.403 . S
C3799 C3796 1.403 . S
C3799 C3800 1.524 . S
C3799 C3803 1.400 . S
C3800 H3785 0.960 . S
C3800 H3786 0.960 . S
C3800 H3787 0.960 1_556 S
C3800 C3799 1.524 . S
C3801 C3798 1.403 . S
C3801 C3802 1.392 . S
C3801 C3805 1.495 . S
C3802 C3801 1.392 . S
C3802 C3803 1.385 . S
C3802 C3804 1.478 . S
C3803 H3797 0.930 . S
C3803 C3799 1.400 . S
C3803 C3802 1.385 . S
C3804 C3802 1.478 . S
C3804 C3806 1.381 . S
C3804 C3810 1.383 . S
C3805 C3801 1.495 . S
C3805 H3811 0.959 . S
C3805 H3812 0.961 . S
C3805 H3813 0.960 . S
C3806 C3804 1.381 . S
C3806 C3807 1.394 . S
C3806 H3814 0.930 . S
C3807 C3806 1.394 . S
C3807 C3808 1.383 . S
C3807 H3815 0.929 . S
C3808 C3807 1.383 . S
C3808 C3809 1.377 . S
C3809 H3793 0.930 . S
C3809 C3808 1.377 . S
C3809 C3810 1.379 . S
C3810 H3794 0.931 . S
C3810 C3804 1.383 . S
C3810 C3809 1.379 . S
H3811 C3805 0.959 . S
H3812 C3805 0.961 . S
H3813 C3805 0.960 . S
H3814 C3806 0.930 . S
H3815 C3807 0.929 . S
H3816 C3824 0.929 . S
H3817 C3826 0.930 . S
H3818 C3828 0.930 . S
H3819 C3831 0.929 . S
H3820 C3834 0.930 . S
H3821 C3836 0.960 . S
H3822 C3836 0.960 . S
H3823 C3836 0.960 . S
C3824 H3816 0.929 . S
C3824 C3825 1.377 . S
C3824 C3826 1.384 . S
C3825 C3824 1.377 . S
C3825 C3831 1.390 . S
C3826 H3817 0.930 . S
C3826 C3824 1.384 . S
C3826 C3827 1.372 . S
C3827 C3826 1.372 . S
C3827 C3828 1.400 . S
C3827 C3832 1.490 . S
C3828 H3818 0.930 . S
C3828 C3827 1.400 . S
C3828 C3831 1.386 . S
H3829 C3845 0.930 . S
H3830 C3846 0.931 . S
C3831 H3819 0.929 . S
C3831 C3825 1.390 . S
C3831 C3828 1.386 . S
C3832 C3827 1.490 . S
C3832 C3834 1.395 . S
C3832 C3835 1.403 . S
H3833 C3839 0.930 . S
C3834 H3820 0.930 . S
C3834 C3832 1.395 . S
C3834 C3837 1.403 . S
C3835 C3832 1.403 . S
C3835 C3836 1.524 . S
C3835 C3839 1.400 . S
C3836 H3821 0.960 . S
C3836 H3822 0.960 . S
C3836 H3823 0.960 . S
C3836 C3835 1.524 . S
C3837 C3834 1.403 . S
C3837 C3838 1.392 . S
C3837 C3841 1.495 . S
C3838 C3837 1.392 . S
C3838 C3839 1.385 . S
C3838 C3840 1.478 1_556 S
C3839 H3833 0.930 . S
C3839 C3835 1.400 . S
C3839 C3838 1.385 . S
C3840 C3838 1.478 1_554 S
C3840 C3842 1.381 . S
C3840 C3846 1.383 . S
C3841 C3837 1.495 . S
C3841 H3847 0.959 . S
C3841 H3848 0.961 . S
C3841 H3849 0.960 . S
C3842 C3840 1.381 . S
C3842 C3843 1.394 . S
C3842 H3850 0.930 1_554 S
C3843 C3842 1.394 . S
C3843 C3844 1.383 . S
C3843 H3851 0.929 . S
C3844 C3843 1.383 . S
C3844 C3845 1.377 . S
C3845 H3829 0.930 . S
C3845 C3844 1.377 . S
C3845 C3846 1.379 . S
C3846 H3830 0.931 . S
C3846 C3840 1.383 . S
C3846 C3845 1.379 . S
H3847 C3841 0.959 . S
H3848 C3841 0.961 . S
H3849 C3841 0.960 . S
H3850 C3842 0.930 1_556 S
H3851 C3843 0.929 . S
H3852 C3860 0.929 . S
H3853 C3862 0.930 . S
H3854 C3864 0.930 . S
H3855 C3867 0.929 . S
H3856 C3870 0.930 . S
H3857 C3872 0.960 . S
H3858 C3872 0.960 . S
H3859 C3872 0.960 . S
C3860 H3852 0.929 . S
C3860 C3861 1.377 . S
C3860 C3862 1.384 . S
C3861 C3860 1.377 . S
C3861 C3867 1.390 . S
C3862 H3853 0.930 . S
C3862 C3860 1.384 . S
C3862 C3863 1.372 . S
C3863 C3862 1.372 . S
C3863 C3864 1.400 . S
C3863 C3868 1.490 . S
C3864 H3854 0.930 . S
C3864 C3863 1.400 . S
C3864 C3867 1.386 . S
H3865 C3881 0.930 . S
H3866 C3882 0.957 . S
C3867 H3855 0.929 . S
C3867 C3861 1.390 . S
C3867 C3864 1.386 . S
C3868 C3863 1.490 . S
C3868 C3870 1.395 . S
C3868 C3871 1.403 . S
H3869 C3875 0.930 . S
C3870 H3856 0.930 . S
C3870 C3868 1.395 . S
C3870 C3873 1.403 . S
C3871 C3868 1.403 . S
C3871 C3872 1.524 . S
C3871 C3875 1.400 . S
C3872 H3857 0.960 . S
C3872 H3858 0.960 . S
C3872 H3859 0.960 . S
C3872 C3871 1.524 . S
C3873 C3870 1.403 . S
C3873 C3874 1.392 . S
C3873 C3877 1.495 1_556 S
C3874 C3873 1.392 . S
C3874 C3875 1.385 . S
C3874 C3876 1.478 1_556 S
C3875 H3869 0.930 . S
C3875 C3871 1.400 . S
C3875 C3874 1.385 . S
C3876 C3874 1.478 1_554 S
C3876 C3878 1.381 . S
C3876 C3882 1.383 . S
C3877 C3873 1.495 1_554 S
C3877 H3883 0.970 . S
C3877 H3884 0.961 . S
C3877 H3885 0.960 . S
C3878 C3876 1.381 . S
C3878 C3879 1.394 . S
C3878 H3886 0.930 . S
C3879 C3878 1.394 . S
C3879 C3880 1.383 . S
C3879 H3887 0.929 . S
C3880 C3879 1.383 . S
C3880 C3881 1.377 . S
C3881 H3865 0.930 . S
C3881 C3880 1.377 . S
C3881 C3882 1.379 . S
C3882 H3866 0.957 . S
C3882 C3876 1.383 . S
C3882 C3881 1.379 . S
H3883 C3877 0.970 . S
H3884 C3877 0.961 . S
H3885 C3877 0.960 . S
H3886 C3878 0.930 . S
H3887 C3879 0.929 . S
H3888 C3896 0.929 . S
H3889 C3898 0.930 . S
H3890 C3900 0.930 . S
H3891 C3903 0.929 . S
H3892 C3906 0.930 . S
H3893 C3908 0.960 . S
H3894 C3908 0.960 . S
H3895 C3908 0.960 . S
C3896 H3888 0.929 . S
C3896 C3897 1.377 . S
C3896 C3898 1.384 . S
C3897 C3896 1.377 . S
C3897 C3903 1.390 . S
C3898 H3889 0.930 . S
C3898 C3896 1.384 . S
C3898 C3899 1.372 . S
C3899 C3898 1.372 . S
C3899 C3900 1.400 . S
C3899 C3904 1.490 . S
C3900 H3890 0.930 . S
C3900 C3899 1.400 . S
C3900 C3903 1.386 . S
H3901 C3917 0.930 . S
H3902 C3918 0.931 . S
C3903 H3891 0.929 . S
C3903 C3897 1.390 . S
C3903 C3900 1.386 . S
C3904 C3899 1.490 . S
C3904 C3906 1.395 . S
C3904 C3907 1.403 . S
H3905 C3911 0.930 . S
C3906 H3892 0.930 . S
C3906 C3904 1.395 . S
C3906 C3909 1.403 . S
C3907 C3904 1.403 . S
C3907 C3908 1.524 . S
C3907 C3911 1.400 . S
C3908 H3893 0.960 . S
C3908 H3894 0.960 . S
C3908 H3895 0.960 . S
C3908 C3907 1.524 . S
C3909 C3906 1.403 . S
C3909 C3910 1.392 . S
C3909 C3913 1.495 . S
C3910 C3909 1.392 . S
C3910 C3911 1.385 . S
C3910 C3912 1.478 . S
C3911 H3905 0.930 . S
C3911 C3907 1.400 . S
C3911 C3910 1.385 . S
C3912 C3910 1.478 . S
C3912 C3914 1.381 . S
C3912 C3918 1.383 . S
C3913 C3909 1.495 . S
C3913 H3919 0.959 . S
C3913 H3920 0.961 . S
C3913 H3921 0.960 . S
C3914 C3912 1.381 . S
C3914 C3915 1.394 . S
C3914 H3922 0.930 . S
C3915 C3914 1.394 . S
C3915 C3916 1.383 . S
C3915 H3923 0.929 . S
C3916 C3915 1.383 . S
C3916 C3917 1.377 . S
C3917 H3901 0.930 . S
C3917 C3916 1.377 . S
C3917 C3918 1.379 . S
C3918 H3902 0.931 . S
C3918 C3912 1.383 . S
C3918 C3917 1.379 . S
H3919 C3913 0.959 . S
H3920 C3913 0.961 . S
H3921 C3913 0.960 . S
H3922 C3914 0.930 . S
H3923 C3915 0.929 . S
H3924 C3932 0.929 . S
H3925 C3934 0.930 . S
H3926 C3936 0.930 . S
H3927 C3939 0.929 . S
H3928 C3942 0.930 . S
H3929 C3944 0.960 . S
H3930 C3944 0.960 . S
H3931 C3944 0.960 . S
C3932 H3924 0.929 . S
C3932 C3933 1.377 . S
C3932 C3934 1.384 . S
C3933 C3932 1.377 . S
C3933 C3939 1.390 . S
C3934 H3925 0.930 . S
C3934 C3932 1.384 . S
C3934 C3935 1.372 . S
C3935 C3934 1.372 . S
C3935 C3936 1.400 . S
C3935 C3940 1.490 . S
C3936 H3926 0.930 . S
C3936 C3935 1.400 . S
C3936 C3939 1.386 . S
H3937 C3953 0.930 . S
H3938 C3954 0.931 . S
C3939 H3927 0.929 . S
C3939 C3933 1.390 . S
C3939 C3936 1.386 . S
C3940 C3935 1.490 . S
C3940 C3942 1.395 . S
C3940 C3943 1.403 . S
H3941 C3947 0.930 . S
C3942 H3928 0.930 . S
C3942 C3940 1.395 . S
C3942 C3945 1.403 . S
C3943 C3940 1.403 . S
C3943 C3944 1.524 . S
C3943 C3947 1.400 . S
C3944 H3929 0.960 . S
C3944 H3930 0.960 . S
C3944 H3931 0.960 . S
C3944 C3943 1.524 . S
C3945 C3942 1.403 . S
C3945 C3946 1.392 . S
C3945 C3949 1.495 . S
C3946 C3945 1.392 . S
C3946 C3947 1.385 . S
C3946 C3948 1.478 . S
C3947 H3941 0.930 . S
C3947 C3943 1.400 . S
C3947 C3946 1.385 . S
C3948 C3946 1.478 . S
C3948 C3950 1.381 . S
C3948 C3954 1.383 . S
C3949 C3945 1.495 . S
C3949 H3955 0.959 . S
C3949 H3956 0.961 . S
C3949 H3957 0.960 . S
C3950 C3948 1.381 . S
C3950 C3951 1.394 . S
C3950 H3958 0.930 . S
C3951 C3950 1.394 . S
C3951 C3952 1.383 . S
C3951 H3959 0.929 . S
C3952 C3951 1.383 . S
C3952 C3953 1.377 . S
C3953 H3937 0.930 . S
C3953 C3952 1.377 . S
C3953 C3954 1.379 . S
C3954 H3938 0.931 . S
C3954 C3948 1.383 . S
C3954 C3953 1.379 . S
H3955 C3949 0.959 . S
H3956 C3949 0.961 . S
H3957 C3949 0.960 . S
H3958 C3950 0.930 . S
H3959 C3951 0.929 . S
H3960 C3968 0.929 . S
H3961 C3970 0.930 . S
H3962 C3972 0.930 . S
H3963 C3975 0.929 . S
H3964 C3978 0.930 . S
H3965 C3980 0.960 . S
H3966 C3980 0.960 . S
H3967 C3980 0.960 . S
C3968 H3960 0.929 . S
C3968 C3969 1.377 . S
C3968 C3970 1.384 . S
C3969 C3968 1.377 . S
C3969 C3975 1.390 . S
C3970 H3961 0.930 . S
C3970 C3968 1.384 . S
C3970 C3971 1.372 . S
C3971 C3970 1.372 . S
C3971 C3972 1.400 . S
C3971 C3976 1.490 . S
C3972 H3962 0.930 . S
C3972 C3971 1.400 . S
C3972 C3975 1.386 . S
H3973 C3989 0.930 . S
H3974 C3990 0.931 . S
C3975 H3963 0.929 . S
C3975 C3969 1.390 . S
C3975 C3972 1.386 . S
C3976 C3971 1.490 . S
C3976 C3978 1.395 . S
C3976 C3979 1.403 . S
H3977 C3983 0.930 . S
C3978 H3964 0.930 . S
C3978 C3976 1.395 . S
C3978 C3981 1.403 . S
C3979 C3976 1.403 . S
C3979 C3980 1.524 . S
C3979 C3983 1.400 . S
C3980 H3965 0.960 . S
C3980 H3966 0.960 . S
C3980 H3967 0.960 . S
C3980 C3979 1.524 . S
C3981 C3978 1.403 . S
C3981 C3982 1.392 . S
C3981 C3985 1.495 . S
C3982 C3981 1.392 . S
C3982 C3983 1.385 . S
C3982 C3984 1.478 . S
C3983 H3977 0.930 . S
C3983 C3979 1.400 . S
C3983 C3982 1.385 . S
C3984 C3982 1.478 . S
C3984 C3986 1.381 . S
C3984 C3990 1.383 . S
C3985 C3981 1.495 . S
C3985 H3991 0.959 . S
C3985 H3992 0.961 . S
C3985 H3993 0.960 . S
C3986 C3984 1.381 . S
C3986 C3987 1.394 . S
C3986 H3994 0.930 . S
C3987 C3986 1.394 . S
C3987 C3988 1.383 . S
C3987 H3995 0.929 . S
C3988 C3987 1.383 . S
C3988 C3989 1.377 . S
C3989 H3973 0.930 . S
C3989 C3988 1.377 . S
C3989 C3990 1.379 . S
C3990 H3974 0.931 . S
C3990 C3984 1.383 . S
C3990 C3989 1.379 . S
H3991 C3985 0.959 . S
H3992 C3985 0.961 . S
H3993 C3985 0.960 . S
H3994 C3986 0.930 . S
H3995 C3987 0.929 . S
H3996 C4004 0.929 . S
H3997 C4006 0.930 . S
H3998 C4008 0.930 . S
H3999 C4011 0.929 . S
H4000 C4014 0.930 1_556 S
H4001 C4016 0.952 1_655 S
H4002 C4016 0.966 . S
H4003 C4016 0.962 1_655 S
C4004 H3996 0.929 . S
C4004 C4005 1.377 . S
C4004 C4006 1.384 . S
C4005 C4004 1.377 . S
C4005 C4011 1.390 . S
C4006 H3997 0.930 . S
C4006 C4004 1.384 . S
C4006 C4007 1.372 . S
C4007 C4006 1.372 . S
C4007 C4008 1.400 . S
C4007 C4012 1.490 . S
C4008 H3998 0.930 . S
C4008 C4007 1.400 . S
C4008 C4011 1.386 . S
H4009 C4025 0.930 . S
H4010 C4026 0.931 . S
C4011 H3999 0.929 . S
C4011 C4005 1.390 . S
C4011 C4008 1.386 . S
C4012 C4007 1.490 . S
C4012 C4014 1.395 . S
C4012 C4015 1.449 . S
H4013 C4019 0.930 . S
C4014 H4000 0.930 1_554 S
C4014 C4012 1.395 . S
C4014 C4017 1.403 1_554 S
C4015 C4012 1.449 . S
C4015 C4016 1.540 . S
C4015 C4019 1.334 1_455 S
C4016 H4001 0.952 1_455 S
C4016 H4002 0.966 . S
C4016 H4003 0.962 1_455 S
C4016 C4015 1.540 . S
C4017 C4014 1.403 1_556 S
C4017 C4018 1.392 1_456 S
C4017 C4021 1.495 . S
C4018 C4017 1.392 1_654 S
C4018 C4019 1.385 . S
C4018 C4020 1.478 . S
C4019 H4013 0.930 . S
C4019 C4015 1.334 1_655 S
C4019 C4018 1.385 . S
C4020 C4018 1.478 . S
C4020 C4022 1.381 . S
C4020 C4026 1.383 . S
C4021 C4017 1.495 . S
C4021 H4027 0.959 . S
C4021 H4028 0.961 1_455 S
C4021 H4029 0.960 . S
C4022 C4020 1.381 . S
C4022 C4023 1.394 . S
C4022 H4030 0.930 . S
C4023 C4022 1.394 . S
C4023 C4024 1.383 . S
C4023 H4031 0.929 . S
C4024 C4023 1.383 . S
C4024 C4025 1.377 . S
C4025 H4009 0.930 . S
C4025 C4024 1.377 . S
C4025 C4026 1.379 . S
C4026 H4010 0.931 . S
C4026 C4020 1.383 . S
C4026 C4025 1.379 . S
H4027 C4021 0.959 . S
H4028 C4021 0.961 1_655 S
H4029 C4021 0.960 . S
H4030 C4022 0.930 . S
H4031 C4023 0.929 . S
H4032 C4040 0.929 . S
H4033 C4042 0.930 . S
H4034 C4044 0.930 . S
H4035 C4047 0.929 . S
H4036 C4050 0.930 . S
H4037 C4052 0.960 . S
H4038 C4052 0.960 . S
H4039 C4052 0.960 . S
C4040 H4032 0.929 . S
C4040 C4041 1.377 . S
C4040 C4042 1.384 . S
C4041 C4040 1.377 . S
C4041 C4047 1.390 . S
C4042 H4033 0.930 . S
C4042 C4040 1.384 . S
C4042 C4043 1.372 . S
C4043 C4042 1.372 . S
C4043 C4044 1.400 . S
C4043 C4048 1.490 . S
C4044 H4034 0.930 . S
C4044 C4043 1.400 . S
C4044 C4047 1.386 . S
H4045 C4061 0.930 1_556 S
H4046 C4062 0.931 1_556 S
C4047 H4035 0.929 . S
C4047 C4041 1.390 . S
C4047 C4044 1.386 . S
C4048 C4043 1.490 . S
C4048 C4050 1.395 . S
C4048 C4051 1.403 . S
H4049 C4055 0.930 . S
C4050 H4036 0.930 . S
C4050 C4048 1.395 . S
C4050 C4053 1.403 . S
C4051 C4048 1.403 . S
C4051 C4052 1.524 . S
C4051 C4055 1.400 . S
C4052 H4037 0.960 . S
C4052 H4038 0.960 . S
C4052 H4039 0.960 . S
C4052 C4051 1.524 . S
C4053 C4050 1.403 . S
C4053 C4054 1.392 . S
C4053 C4057 1.495 1_554 S
C4054 C4053 1.392 . S
C4054 C4055 1.385 . S
C4054 C4056 1.478 . S
C4055 H4049 0.930 . S
C4055 C4051 1.400 . S
C4055 C4054 1.385 . S
C4056 C4054 1.478 . S
C4056 C4058 1.381 . S
C4056 C4062 1.383 . S
C4057 C4053 1.495 1_556 S
C4057 H4063 0.959 . S
C4057 H4064 0.961 . S
C4057 H4065 0.960 1_556 S
C4058 C4056 1.381 . S
C4058 C4059 1.394 . S
C4058 H4066 0.930 . S
C4059 C4058 1.394 . S
C4059 C4060 1.383 . S
C4059 H4067 0.929 . S
C4060 C4059 1.383 . S
C4060 C4061 1.377 . S
C4061 H4045 0.930 1_554 S
C4061 C4060 1.377 . S
C4061 C4062 1.379 . S
C4062 H4046 0.931 1_554 S
C4062 C4056 1.383 . S
C4062 C4061 1.379 . S
H4063 C4057 0.959 . S
H4064 C4057 0.961 . S
H4065 C4057 0.960 1_554 S
H4066 C4058 0.930 . S
H4067 C4059 0.929 . S
H4068 C4076 0.929 . S
H4069 C4078 0.930 . S
H4070 C4080 0.930 . S
H4071 C4083 0.929 . S
H4072 C4086 0.930 . S
H4073 C4088 0.960 . S
H4074 C4088 0.960 . S
H4075 C4088 0.960 . S
C4076 H4068 0.929 . S
C4076 C4077 1.377 1_556 S
C4076 C4078 1.384 . S
C4077 C4076 1.377 1_554 S
C4077 C4083 1.390 . S
C4078 H4069 0.930 . S
C4078 C4076 1.384 . S
C4078 C4079 1.372 1_556 S
C4079 C4078 1.372 1_554 S
C4079 C4080 1.400 . S
C4079 C4084 1.490 . S
C4080 H4070 0.930 . S
C4080 C4079 1.400 . S
C4080 C4083 1.386 . S
H4081 C4097 0.930 . S
H4082 C4098 0.931 . S
C4083 H4071 0.929 . S
C4083 C4077 1.390 . S
C4083 C4080 1.386 . S
C4084 C4079 1.490 . S
C4084 C4086 1.395 1_545 S
C4084 C4087 1.403 . S
H4085 C4091 0.962 . S
C4086 H4072 0.930 . S
C4086 C4084 1.395 1_565 S
C4086 C4089 1.403 . S
C4087 C4084 1.403 . S
C4087 C4088 1.524 . S
C4087 C4091 1.421 . S
C4088 H4073 0.960 . S
C4088 H4074 0.960 . S
C4088 H4075 0.960 . S
C4088 C4087 1.524 . S
C4089 C4086 1.403 . S
C4089 C4090 1.392 . S
C4089 C4093 1.495 . S
C4090 C4089 1.392 . S
C4090 C4091 1.335 1_565 S
C4090 C4092 1.478 . S
C4091 H4085 0.962 . S
C4091 C4087 1.421 . S
C4091 C4090 1.335 1_545 S
C4092 C4090 1.478 . S
C4092 C4094 1.381 . S
C4092 C4098 1.383 . S
C4093 C4089 1.495 . S
C4093 H4099 0.959 . S
C4093 H4100 0.961 . S
C4093 H4101 0.960 . S
C4094 C4092 1.381 . S
C4094 C4095 1.394 . S
C4094 H4102 0.930 1_554 S
C4095 C4094 1.394 . S
C4095 C4096 1.383 . S
C4095 H4103 0.929 1_554 S
C4096 C4095 1.383 . S
C4096 C4097 1.377 . S
C4097 H4081 0.930 . S
C4097 C4096 1.377 . S
C4097 C4098 1.379 . S
C4098 H4082 0.931 . S
C4098 C4092 1.383 . S
C4098 C4097 1.379 . S
H4099 C4093 0.959 . S
H4100 C4093 0.961 . S
H4101 C4093 0.960 . S
H4102 C4094 0.930 1_556 S
H4103 C4095 0.929 1_556 S
H4104 C4112 0.929 . S
H4105 C4114 0.930 . S
H4106 C4116 0.930 . S
H4107 C4119 0.929 . S
H4108 C4122 0.930 . S
H4109 C4124 0.960 . S
H4110 C4124 0.960 . S
H4111 C4124 0.960 . S
C4112 H4104 0.929 . S
C4112 C4113 1.377 . S
C4112 C4114 1.384 . S
C4113 C4112 1.377 . S
C4113 C4119 1.390 . S
C4114 H4105 0.930 . S
C4114 C4112 1.384 . S
C4114 C4115 1.372 . S
C4115 C4114 1.372 . S
C4115 C4116 1.400 . S
C4115 C4120 1.490 . S
C4116 H4106 0.930 . S
C4116 C4115 1.400 . S
C4116 C4119 1.386 . S
H4117 C4133 0.930 . S
H4118 C4134 0.931 . S
C4119 H4107 0.929 . S
C4119 C4113 1.390 . S
C4119 C4116 1.386 . S
C4120 C4115 1.490 . S
C4120 C4122 1.395 1_565 S
C4120 C4123 1.403 . S
H4121 C4127 0.924 . S
C4122 H4108 0.930 . S
C4122 C4120 1.395 1_545 S
C4122 C4125 1.403 . S
C4123 C4120 1.403 . S
C4123 C4124 1.524 . S
C4123 C4127 1.415 . S
C4124 H4109 0.960 . S
C4124 H4110 0.960 . S
C4124 H4111 0.960 . S
C4124 C4123 1.524 . S
C4125 C4122 1.403 . S
C4125 C4126 1.392 . S
C4125 C4129 1.495 . S
C4126 C4125 1.392 . S
C4126 C4127 1.376 1_545 S
C4126 C4128 1.478 . S
C4127 H4121 0.924 . S
C4127 C4123 1.415 . S
C4127 C4126 1.376 1_565 S
C4128 C4126 1.478 . S
C4128 C4130 1.381 . S
C4128 C4134 1.383 . S
C4129 C4125 1.495 . S
C4129 H4135 0.959 . S
C4129 H4136 0.961 . S
C4129 H4137 0.960 . S
C4130 C4128 1.381 . S
C4130 C4131 1.394 . S
C4130 H4138 0.930 . S
C4131 C4130 1.394 . S
C4131 C4132 1.383 . S
C4131 H4139 0.929 . S
C4132 C4131 1.383 . S
C4132 C4133 1.377 . S
C4133 H4117 0.930 . S
C4133 C4132 1.377 . S
C4133 C4134 1.379 . S
C4134 H4118 0.931 . S
C4134 C4128 1.383 . S
C4134 C4133 1.379 . S
H4135 C4129 0.959 . S
H4136 C4129 0.961 . S
H4137 C4129 0.960 . S
H4138 C4130 0.930 . S
H4139 C4131 0.929 . S
H4140 C4148 0.929 . S
H4141 C4150 0.930 . S
H4142 C4152 0.930 . S
H4143 C4155 0.929 . S
H4144 C4158 0.943 . S
H4145 C4160 0.960 . S
H4146 C4160 0.960 . S
H4147 C4160 0.960 . S
C4148 H4140 0.929 . S
C4148 C4149 1.377 . S
C4148 C4150 1.384 . S
C4149 C4148 1.377 . S
C4149 C4155 1.390 . S
C4150 H4141 0.930 . S
C4150 C4148 1.384 . S
C4150 C4151 1.372 . S
C4151 C4150 1.372 . S
C4151 C4152 1.400 . S
C4151 C4156 1.490 . S
C4152 H4142 0.930 . S
C4152 C4151 1.400 . S
C4152 C4155 1.386 . S
H4153 C4169 0.930 . S
H4154 C4170 0.931 . S
C4155 H4143 0.929 . S
C4155 C4149 1.390 . S
C4155 C4152 1.386 . S
C4156 C4151 1.490 . S
C4156 C4158 1.344 1_655 S
C4156 C4159 1.403 . S
H4157 C4163 0.930 . S
C4158 H4144 0.943 . S
C4158 C4156 1.344 1_455 S
C4158 C4161 1.432 . S
C4159 C4156 1.403 . S
C4159 C4160 1.524 . S
C4159 C4163 1.400 1_655 S
C4160 H4145 0.960 . S
C4160 H4146 0.960 . S
C4160 H4147 0.960 . S
C4160 C4159 1.524 . S
C4161 C4158 1.432 . S
C4161 C4162 1.392 . S
C4161 C4165 1.495 . S
C4162 C4161 1.392 . S
C4162 C4163 1.385 . S
C4162 C4164 1.478 . S
C4163 H4157 0.930 . S
C4163 C4159 1.400 1_455 S
C4163 C4162 1.385 . S
C4164 C4162 1.478 . S
C4164 C4166 1.381 . S
C4164 C4170 1.383 . S
C4165 C4161 1.495 . S
C4165 H4171 0.959 . S
C4165 H4172 0.961 . S
C4165 H4173 0.960 . S
C4166 C4164 1.381 . S
C4166 C4167 1.394 . S
C4166 H4174 0.930 . S
C4167 C4166 1.394 . S
C4167 C4168 1.383 . S
C4167 H4175 0.929 . S
C4168 C4167 1.383 . S
C4168 C4169 1.377 . S
C4169 H4153 0.930 . S
C4169 C4168 1.377 . S
C4169 C4170 1.379 . S
C4170 H4154 0.931 . S
C4170 C4164 1.383 . S
C4170 C4169 1.379 . S
H4171 C4165 0.959 . S
H4172 C4165 0.961 . S
H4173 C4165 0.960 . S
H4174 C4166 0.930 . S
H4175 C4167 0.929 . S
H4176 C4184 0.929 . S
H4177 C4186 0.930 . S
H4178 C4188 0.930 . S
H4179 C4191 0.929 . S
H4180 C4194 0.930 . S
H4181 C4196 0.960 . S
H4182 C4196 0.960 . S
H4183 C4196 0.960 . S
C4184 H4176 0.929 . S
C4184 C4185 1.377 . S
C4184 C4186 1.384 . S
C4185 C4184 1.377 . S
C4185 C4191 1.390 . S
C4186 H4177 0.930 . S
C4186 C4184 1.384 . S
C4186 C4187 1.372 . S
C4187 C4186 1.372 . S
C4187 C4188 1.400 . S
C4187 C4192 1.490 . S
C4188 H4178 0.930 . S
C4188 C4187 1.400 . S
C4188 C4191 1.386 . S
H4189 C4205 0.930 . S
H4190 C4206 0.931 . S
C4191 H4179 0.929 . S
C4191 C4185 1.390 . S
C4191 C4188 1.386 . S
C4192 C4187 1.490 . S
C4192 C4194 1.395 . S
C4192 C4195 1.403 . S
H4193 C4199 0.930 . S
C4194 H4180 0.930 . S
C4194 C4192 1.395 . S
C4194 C4197 1.403 . S
C4195 C4192 1.403 . S
C4195 C4196 1.524 . S
C4195 C4199 1.400 . S
C4196 H4181 0.960 . S
C4196 H4182 0.960 . S
C4196 H4183 0.960 . S
C4196 C4195 1.524 . S
C4197 C4194 1.403 . S
C4197 C4198 1.392 . S
C4197 C4201 1.495 . S
C4198 C4197 1.392 . S
C4198 C4199 1.385 . S
C4198 C4200 1.478 . S
C4199 H4193 0.930 . S
C4199 C4195 1.400 . S
C4199 C4198 1.385 . S
C4200 C4198 1.478 . S
C4200 C4202 1.381 . S
C4200 C4206 1.383 . S
C4201 C4197 1.495 . S
C4201 H4207 0.959 . S
C4201 H4208 0.961 . S
C4201 H4209 0.960 . S
C4202 C4200 1.381 . S
C4202 C4203 1.394 . S
C4202 H4210 0.930 . S
C4203 C4202 1.394 . S
C4203 C4204 1.383 . S
C4203 H4211 0.929 . S
C4204 C4203 1.383 . S
C4204 C4205 1.377 . S
C4205 H4189 0.930 . S
C4205 C4204 1.377 . S
C4205 C4206 1.379 . S
C4206 H4190 0.931 . S
C4206 C4200 1.383 . S
C4206 C4205 1.379 . S
H4207 C4201 0.959 . S
H4208 C4201 0.961 . S
H4209 C4201 0.960 . S
H4210 C4202 0.930 . S
H4211 C4203 0.929 . S
H4212 C4220 0.929 . S
H4213 C4222 0.930 . S
H4214 C4224 0.930 . S
H4215 C4227 0.929 . S
H4216 C4230 0.930 . S
H4217 C4232 0.960 . S
H4218 C4232 0.960 . S
H4219 C4232 0.960 . S
C4220 H4212 0.929 . S
C4220 C4221 1.377 . S
C4220 C4222 1.384 . S
C4221 C4220 1.377 . S
C4221 C4227 1.390 . S
C4222 H4213 0.930 . S
C4222 C4220 1.384 . S
C4222 C4223 1.372 . S
C4223 C4222 1.372 . S
C4223 C4224 1.400 . S
C4223 C4228 1.490 . S
C4224 H4214 0.930 . S
C4224 C4223 1.400 . S
C4224 C4227 1.386 . S
H4225 C4241 0.930 . S
H4226 C4242 0.931 . S
C4227 H4215 0.929 . S
C4227 C4221 1.390 . S
C4227 C4224 1.386 . S
C4228 C4223 1.490 . S
C4228 C4230 1.395 . S
C4228 C4231 1.403 . S
H4229 C4235 0.930 . S
C4230 H4216 0.930 . S
C4230 C4228 1.395 . S
C4230 C4233 1.403 . S
C4231 C4228 1.403 . S
C4231 C4232 1.524 . S
C4231 C4235 1.400 . S
C4232 H4217 0.960 . S
C4232 H4218 0.960 . S
C4232 H4219 0.960 . S
C4232 C4231 1.524 . S
C4233 C4230 1.403 . S
C4233 C4234 1.392 . S
C4233 C4237 1.495 . S
C4234 C4233 1.392 . S
C4234 C4235 1.385 . S
C4234 C4236 1.478 . S
C4235 H4229 0.930 . S
C4235 C4231 1.400 . S
C4235 C4234 1.385 . S
C4236 C4234 1.478 . S
C4236 C4238 1.381 . S
C4236 C4242 1.383 . S
C4237 C4233 1.495 . S
C4237 H4243 0.959 . S
C4237 H4244 0.961 . S
C4237 H4245 0.960 . S
C4238 C4236 1.381 . S
C4238 C4239 1.394 . S
C4238 H4246 0.930 . S
C4239 C4238 1.394 . S
C4239 C4240 1.383 . S
C4239 H4247 0.929 . S
C4240 C4239 1.383 . S
C4240 C4241 1.377 . S
C4241 H4225 0.930 . S
C4241 C4240 1.377 . S
C4241 C4242 1.379 . S
C4242 H4226 0.931 . S
C4242 C4236 1.383 . S
C4242 C4241 1.379 . S
H4243 C4237 0.959 . S
H4244 C4237 0.961 . S
H4245 C4237 0.960 . S
H4246 C4238 0.930 . S
H4247 C4239 0.929 . S
H4248 C4256 0.929 . S
H4249 C4258 0.930 . S
H4250 C4260 0.930 . S
H4251 C4263 0.929 . S
H4252 C4266 0.930 . S
H4253 C4268 0.960 . S
H4254 C4268 0.960 . S
H4255 C4268 0.960 . S
C4256 H4248 0.929 . S
C4256 C4257 1.377 . S
C4256 C4258 1.384 . S
C4257 C4256 1.377 . S
C4257 C4263 1.390 . S
C4258 H4249 0.930 . S
C4258 C4256 1.384 . S
C4258 C4259 1.372 . S
C4259 C4258 1.372 . S
C4259 C4260 1.400 . S
C4259 C4264 1.490 . S
C4260 H4250 0.930 . S
C4260 C4259 1.400 . S
C4260 C4263 1.386 . S
H4261 C4277 0.930 . S
H4262 C4278 0.931 . S
C4263 H4251 0.929 . S
C4263 C4257 1.390 . S
C4263 C4260 1.386 . S
C4264 C4259 1.490 . S
C4264 C4266 1.395 . S
C4264 C4267 1.403 . S
H4265 C4271 0.930 . S
C4266 H4252 0.930 . S
C4266 C4264 1.395 . S
C4266 C4269 1.403 . S
C4267 C4264 1.403 . S
C4267 C4268 1.524 . S
C4267 C4271 1.400 . S
C4268 H4253 0.960 . S
C4268 H4254 0.960 . S
C4268 H4255 0.960 . S
C4268 C4267 1.524 . S
C4269 C4266 1.403 . S
C4269 C4270 1.392 . S
C4269 C4273 1.495 . S
C4270 C4269 1.392 . S
C4270 C4271 1.385 . S
C4270 C4272 1.478 . S
C4271 H4265 0.930 . S
C4271 C4267 1.400 . S
C4271 C4270 1.385 . S
C4272 C4270 1.478 . S
C4272 C4274 1.381 . S
C4272 C4278 1.383 . S
C4273 C4269 1.495 . S
C4273 H4279 0.959 . S
C4273 H4280 0.961 . S
C4273 H4281 0.960 . S
C4274 C4272 1.381 . S
C4274 C4275 1.394 . S
C4274 H4282 0.930 . S
C4275 C4274 1.394 . S
C4275 C4276 1.383 . S
C4275 H4283 0.929 . S
C4276 C4275 1.383 . S
C4276 C4277 1.377 . S
C4277 H4261 0.930 . S
C4277 C4276 1.377 . S
C4277 C4278 1.379 . S
C4278 H4262 0.931 . S
C4278 C4272 1.383 . S
C4278 C4277 1.379 . S
H4279 C4273 0.959 . S
H4280 C4273 0.961 . S
H4281 C4273 0.960 . S
H4282 C4274 0.930 . S
H4283 C4275 0.929 . S
H4284 C4292 0.929 . S
H4285 C4294 0.930 . S
H4286 C4296 0.930 . S
H4287 C4299 0.929 . S
H4288 C4302 0.930 . S
H4289 C4304 0.960 . S
H4290 C4304 0.960 . S
H4291 C4304 0.960 . S
C4292 H4284 0.929 . S
C4292 C4293 1.377 . S
C4292 C4294 1.384 . S
C4293 C4292 1.377 . S
C4293 C4299 1.390 . S
C4294 H4285 0.930 . S
C4294 C4292 1.384 . S
C4294 C4295 1.372 . S
C4295 C4294 1.372 . S
C4295 C4296 1.400 . S
C4295 C4300 1.490 . S
C4296 H4286 0.930 . S
C4296 C4295 1.400 . S
C4296 C4299 1.386 . S
H4297 C4313 0.930 . S
H4298 C4314 0.931 . S
C4299 H4287 0.929 . S
C4299 C4293 1.390 . S
C4299 C4296 1.386 . S
C4300 C4295 1.490 . S
C4300 C4302 1.395 . S
C4300 C4303 1.403 . S
H4301 C4307 0.930 . S
C4302 H4288 0.930 . S
C4302 C4300 1.395 . S
C4302 C4305 1.403 . S
C4303 C4300 1.403 . S
C4303 C4304 1.524 . S
C4303 C4307 1.400 . S
C4304 H4289 0.960 . S
C4304 H4290 0.960 . S
C4304 H4291 0.960 . S
C4304 C4303 1.524 . S
C4305 C4302 1.403 . S
C4305 C4306 1.392 . S
C4305 C4309 1.495 . S
C4306 C4305 1.392 . S
C4306 C4307 1.385 . S
C4306 C4308 1.478 . S
C4307 H4301 0.930 . S
C4307 C4303 1.400 . S
C4307 C4306 1.385 . S
C4308 C4306 1.478 . S
C4308 C4310 1.381 . S
C4308 C4314 1.383 . S
C4309 C4305 1.495 . S
C4309 H4315 0.959 . S
C4309 H4316 0.961 . S
C4309 H4317 0.960 . S
C4310 C4308 1.381 . S
C4310 C4311 1.394 . S
C4310 H4318 0.930 . S
C4311 C4310 1.394 . S
C4311 C4312 1.383 . S
C4311 H4319 0.929 . S
C4312 C4311 1.383 . S
C4312 C4313 1.377 . S
C4313 H4297 0.930 . S
C4313 C4312 1.377 . S
C4313 C4314 1.379 . S
C4314 H4298 0.931 . S
C4314 C4308 1.383 . S
C4314 C4313 1.379 . S
H4315 C4309 0.959 . S
H4316 C4309 0.961 . S
H4317 C4309 0.960 . S
H4318 C4310 0.930 . S
H4319 C4311 0.929 . S
H4320 C4328 0.929 . S
H4321 C4330 0.930 . S
H4322 C4332 0.930 . S
H4323 C4335 0.929 . S
H4324 C4338 0.930 . S
H4325 C4340 0.960 . S
H4326 C4340 0.960 . S
H4327 C4340 0.960 . S
C4328 H4320 0.929 . S
C4328 C4329 1.377 . S
C4328 C4330 1.384 . S
C4329 C4328 1.377 . S
C4329 C4335 1.390 . S
C4330 H4321 0.930 . S
C4330 C4328 1.384 . S
C4330 C4331 1.372 . S
C4331 C4330 1.372 . S
C4331 C4332 1.400 . S
C4331 C4336 1.490 . S
C4332 H4322 0.930 . S
C4332 C4331 1.400 . S
C4332 C4335 1.386 . S
H4333 C4349 0.930 . S
H4334 C4350 0.931 . S
C4335 H4323 0.929 . S
C4335 C4329 1.390 . S
C4335 C4332 1.386 . S
C4336 C4331 1.490 . S
C4336 C4338 1.395 . S
C4336 C4339 1.403 . S
H4337 C4343 0.930 . S
C4338 H4324 0.930 . S
C4338 C4336 1.395 . S
C4338 C4341 1.403 . S
C4339 C4336 1.403 . S
C4339 C4340 1.524 . S
C4339 C4343 1.400 . S
C4340 H4325 0.960 . S
C4340 H4326 0.960 . S
C4340 H4327 0.960 . S
C4340 C4339 1.524 . S
C4341 C4338 1.403 . S
C4341 C4342 1.392 . S
C4341 C4345 1.495 . S
C4342 C4341 1.392 . S
C4342 C4343 1.385 . S
C4342 C4344 1.478 . S
C4343 H4337 0.930 . S
C4343 C4339 1.400 . S
C4343 C4342 1.385 . S
C4344 C4342 1.478 . S
C4344 C4346 1.381 . S
C4344 C4350 1.383 . S
C4345 C4341 1.495 . S
C4345 H4351 0.959 . S
C4345 H4352 0.961 . S
C4345 H4353 0.960 . S
C4346 C4344 1.381 . S
C4346 C4347 1.394 . S
C4346 H4354 0.930 . S
C4347 C4346 1.394 . S
C4347 C4348 1.383 . S
C4347 H4355 0.929 . S
C4348 C4347 1.383 . S
C4348 C4349 1.377 . S
C4349 H4333 0.930 . S
C4349 C4348 1.377 . S
C4349 C4350 1.379 . S
C4350 H4334 0.931 . S
C4350 C4344 1.383 . S
C4350 C4349 1.379 . S
H4351 C4345 0.959 . S
H4352 C4345 0.961 . S
H4353 C4345 0.960 . S
H4354 C4346 0.930 . S
H4355 C4347 0.929 . S
H4356 C4364 0.929 . S
H4357 C4366 0.930 . S
H4358 C4368 0.930 . S
H4359 C4371 0.929 . S
H4360 C4374 0.930 . S
H4361 C4376 0.960 . S
H4362 C4376 0.960 . S
H4363 C4376 0.960 . S
C4364 H4356 0.929 . S
C4364 C4365 1.377 . S
C4364 C4366 1.384 . S
C4365 C4364 1.377 . S
C4365 C4371 1.390 . S
C4366 H4357 0.930 . S
C4366 C4364 1.384 . S
C4366 C4367 1.372 . S
C4367 C4366 1.372 . S
C4367 C4368 1.400 . S
C4367 C4372 1.490 . S
C4368 H4358 0.930 . S
C4368 C4367 1.400 . S
C4368 C4371 1.386 . S
H4369 C4385 0.930 . S
H4370 C4386 0.931 . S
C4371 H4359 0.929 . S
C4371 C4365 1.390 . S
C4371 C4368 1.386 . S
C4372 C4367 1.490 . S
C4372 C4374 1.395 . S
C4372 C4375 1.403 . S
H4373 C4379 0.930 . S
C4374 H4360 0.930 . S
C4374 C4372 1.395 . S
C4374 C4377 1.403 . S
C4375 C4372 1.403 . S
C4375 C4376 1.524 . S
C4375 C4379 1.400 . S
C4376 H4361 0.960 . S
C4376 H4362 0.960 . S
C4376 H4363 0.960 . S
C4376 C4375 1.524 . S
C4377 C4374 1.403 . S
C4377 C4378 1.392 . S
C4377 C4381 1.495 . S
C4378 C4377 1.392 . S
C4378 C4379 1.385 . S
C4378 C4380 1.478 . S
C4379 H4373 0.930 . S
C4379 C4375 1.400 . S
C4379 C4378 1.385 . S
C4380 C4378 1.478 . S
C4380 C4382 1.381 . S
C4380 C4386 1.383 . S
C4381 C4377 1.495 . S
C4381 H4387 0.959 . S
C4381 H4388 0.961 . S
C4381 H4389 0.960 . S
C4382 C4380 1.381 . S
C4382 C4383 1.394 . S
C4382 H4390 0.930 . S
C4383 C4382 1.394 . S
C4383 C4384 1.383 . S
C4383 H4391 0.929 . S
C4384 C4383 1.383 . S
C4384 C4385 1.377 . S
C4385 H4369 0.930 . S
C4385 C4384 1.377 . S
C4385 C4386 1.379 . S
C4386 H4370 0.931 . S
C4386 C4380 1.383 . S
C4386 C4385 1.379 . S
H4387 C4381 0.959 . S
H4388 C4381 0.961 . S
H4389 C4381 0.960 . S
H4390 C4382 0.930 . S
H4391 C4383 0.929 . S
H4392 C4400 0.929 . S
H4393 C4402 0.930 . S
H4394 C4404 0.930 . S
H4395 C4407 0.929 . S
H4396 C4410 0.930 . S
H4397 C4412 0.960 . S
H4398 C4412 0.960 . S
H4399 C4412 0.960 . S
C4400 H4392 0.929 . S
C4400 C4401 1.377 . S
C4400 C4402 1.384 . S
C4401 C4400 1.377 . S
C4401 C4407 1.390 . S
C4402 H4393 0.930 . S
C4402 C4400 1.384 . S
C4402 C4403 1.372 . S
C4403 C4402 1.372 . S
C4403 C4404 1.400 . S
C4403 C4408 1.490 . S
C4404 H4394 0.930 . S
C4404 C4403 1.400 . S
C4404 C4407 1.386 . S
H4405 C4421 0.930 . S
H4406 C4422 0.931 . S
C4407 H4395 0.929 . S
C4407 C4401 1.390 . S
C4407 C4404 1.386 . S
C4408 C4403 1.490 . S
C4408 C4410 1.395 . S
C4408 C4411 1.403 . S
H4409 C4415 0.930 . S
C4410 H4396 0.930 . S
C4410 C4408 1.395 . S
C4410 C4413 1.403 . S
C4411 C4408 1.403 . S
C4411 C4412 1.524 . S
C4411 C4415 1.400 . S
C4412 H4397 0.960 . S
C4412 H4398 0.960 . S
C4412 H4399 0.960 . S
C4412 C4411 1.524 . S
C4413 C4410 1.403 . S
C4413 C4414 1.392 . S
C4413 C4417 1.495 . S
C4414 C4413 1.392 . S
C4414 C4415 1.385 . S
C4414 C4416 1.478 . S
C4415 H4409 0.930 . S
C4415 C4411 1.400 . S
C4415 C4414 1.385 . S
C4416 C4414 1.478 . S
C4416 C4418 1.381 . S
C4416 C4422 1.383 . S
C4417 C4413 1.495 . S
C4417 H4423 0.959 . S
C4417 H4424 0.961 . S
C4417 H4425 0.960 . S
C4418 C4416 1.381 . S
C4418 C4419 1.394 . S
C4418 H4426 0.930 . S
C4419 C4418 1.394 . S
C4419 C4420 1.383 . S
C4419 H4427 0.929 . S
C4420 C4419 1.383 . S
C4420 C4421 1.377 . S
C4421 H4405 0.930 . S
C4421 C4420 1.377 . S
C4421 C4422 1.379 . S
C4422 H4406 0.931 . S
C4422 C4416 1.383 . S
C4422 C4421 1.379 . S
H4423 C4417 0.959 . S
H4424 C4417 0.961 . S
H4425 C4417 0.960 . S
H4426 C4418 0.930 . S
H4427 C4419 0.929 . S
H4428 C4436 0.929 . S
H4429 C4438 0.930 . S
H4430 C4440 0.930 . S
H4431 C4443 0.929 . S
H4432 C4446 0.930 . S
H4433 C4448 0.960 . S
H4434 C4448 0.960 . S
H4435 C4448 0.960 . S
C4436 H4428 0.929 . S
C4436 C4437 1.377 . S
C4436 C4438 1.384 . S
C4437 C4436 1.377 . S
C4437 C4443 1.390 . S
C4438 H4429 0.930 . S
C4438 C4436 1.384 . S
C4438 C4439 1.372 . S
C4439 C4438 1.372 . S
C4439 C4440 1.400 . S
C4439 C4444 1.490 . S
C4440 H4430 0.930 . S
C4440 C4439 1.400 . S
C4440 C4443 1.386 . S
H4441 C4457 0.930 . S
H4442 C4458 0.931 . S
C4443 H4431 0.929 . S
C4443 C4437 1.390 . S
C4443 C4440 1.386 . S
C4444 C4439 1.490 . S
C4444 C4446 1.395 . S
C4444 C4447 1.403 . S
H4445 C4451 0.930 . S
C4446 H4432 0.930 . S
C4446 C4444 1.395 . S
C4446 C4449 1.403 . S
C4447 C4444 1.403 . S
C4447 C4448 1.524 . S
C4447 C4451 1.400 . S
C4448 H4433 0.960 . S
C4448 H4434 0.960 . S
C4448 H4435 0.960 . S
C4448 C4447 1.524 . S
C4449 C4446 1.403 . S
C4449 C4450 1.392 . S
C4449 C4453 1.495 . S
C4450 C4449 1.392 . S
C4450 C4451 1.385 . S
C4450 C4452 1.478 . S
C4451 H4445 0.930 . S
C4451 C4447 1.400 . S
C4451 C4450 1.385 . S
C4452 C4450 1.478 . S
C4452 C4454 1.381 . S
C4452 C4458 1.383 . S
C4453 C4449 1.495 . S
C4453 H4459 0.959 . S
C4453 H4460 0.961 . S
C4453 H4461 0.960 . S
C4454 C4452 1.381 . S
C4454 C4455 1.394 . S
C4454 H4462 0.930 . S
C4455 C4454 1.394 . S
C4455 C4456 1.383 . S
C4455 H4463 0.929 . S
C4456 C4455 1.383 . S
C4456 C4457 1.377 . S
C4457 H4441 0.930 . S
C4457 C4456 1.377 . S
C4457 C4458 1.379 . S
C4458 H4442 0.931 . S
C4458 C4452 1.383 . S
C4458 C4457 1.379 . S
H4459 C4453 0.959 . S
H4460 C4453 0.961 . S
H4461 C4453 0.960 . S
H4462 C4454 0.930 . S
H4463 C4455 0.929 . S
H4464 C4472 0.929 . S
H4465 C4474 0.930 . S
H4466 C4476 0.930 . S
H4467 C4479 0.929 . S
H4468 C4482 0.930 . S
H4469 C4484 0.960 . S
H4470 C4484 0.960 . S
H4471 C4484 0.960 . S
C4472 H4464 0.929 . S
C4472 C4473 1.377 . S
C4472 C4474 1.384 . S
C4473 C4472 1.377 . S
C4473 C4479 1.390 . S
C4474 H4465 0.930 . S
C4474 C4472 1.384 . S
C4474 C4475 1.372 . S
C4475 C4474 1.372 . S
C4475 C4476 1.400 . S
C4475 C4480 1.490 . S
C4476 H4466 0.930 . S
C4476 C4475 1.400 . S
C4476 C4479 1.386 . S
H4477 C4493 0.930 . S
H4478 C4494 0.931 . S
C4479 H4467 0.929 . S
C4479 C4473 1.390 . S
C4479 C4476 1.386 . S
C4480 C4475 1.490 . S
C4480 C4482 1.395 . S
C4480 C4483 1.403 . S
H4481 C4487 0.930 . S
C4482 H4468 0.930 . S
C4482 C4480 1.395 . S
C4482 C4485 1.403 . S
C4483 C4480 1.403 . S
C4483 C4484 1.524 . S
C4483 C4487 1.400 . S
C4484 H4469 0.960 . S
C4484 H4470 0.960 . S
C4484 H4471 0.960 . S
C4484 C4483 1.524 . S
C4485 C4482 1.403 . S
C4485 C4486 1.392 . S
C4485 C4489 1.495 . S
C4486 C4485 1.392 . S
C4486 C4487 1.385 . S
C4486 C4488 1.478 . S
C4487 H4481 0.930 . S
C4487 C4483 1.400 . S
C4487 C4486 1.385 . S
C4488 C4486 1.478 . S
C4488 C4490 1.381 . S
C4488 C4494 1.383 . S
C4489 C4485 1.495 . S
C4489 H4495 0.959 . S
C4489 H4496 0.961 . S
C4489 H4497 0.960 . S
C4490 C4488 1.381 . S
C4490 C4491 1.394 . S
C4490 H4498 0.930 . S
C4491 C4490 1.394 . S
C4491 C4492 1.383 . S
C4491 H4499 0.929 . S
C4492 C4491 1.383 . S
C4492 C4493 1.377 . S
C4493 H4477 0.930 . S
C4493 C4492 1.377 . S
C4493 C4494 1.379 . S
C4494 H4478 0.931 . S
C4494 C4488 1.383 . S
C4494 C4493 1.379 . S
H4495 C4489 0.959 . S
H4496 C4489 0.961 . S
H4497 C4489 0.960 . S
H4498 C4490 0.930 . S
H4499 C4491 0.929 . S
H4500 C4508 0.929 . S
H4501 C4510 0.930 . S
H4502 C4512 0.930 . S
H4503 C4515 0.929 . S
H4504 C4518 0.930 . S
H4505 C4520 0.960 . S
H4506 C4520 0.960 . S
H4507 C4520 0.960 . S
C4508 H4500 0.929 . S
C4508 C4509 1.377 . S
C4508 C4510 1.384 . S
C4509 C4508 1.377 . S
C4509 C4515 1.390 . S
C4510 H4501 0.930 . S
C4510 C4508 1.384 . S
C4510 C4511 1.372 . S
C4511 C4510 1.372 . S
C4511 C4512 1.400 . S
C4511 C4516 1.490 . S
C4512 H4502 0.930 . S
C4512 C4511 1.400 . S
C4512 C4515 1.386 . S
H4513 C4529 0.930 . S
H4514 C4530 0.931 . S
C4515 H4503 0.929 . S
C4515 C4509 1.390 . S
C4515 C4512 1.386 . S
C4516 C4511 1.490 . S
C4516 C4518 1.395 . S
C4516 C4519 1.403 . S
H4517 C4523 0.930 . S
C4518 H4504 0.930 . S
C4518 C4516 1.395 . S
C4518 C4521 1.403 . S
C4519 C4516 1.403 . S
C4519 C4520 1.524 . S
C4519 C4523 1.400 . S
C4520 H4505 0.960 . S
C4520 H4506 0.960 . S
C4520 H4507 0.960 . S
C4520 C4519 1.524 . S
C4521 C4518 1.403 . S
C4521 C4522 1.392 . S
C4521 C4525 1.495 . S
C4522 C4521 1.392 . S
C4522 C4523 1.385 . S
C4522 C4524 1.478 . S
C4523 H4517 0.930 . S
C4523 C4519 1.400 . S
C4523 C4522 1.385 . S
C4524 C4522 1.478 . S
C4524 C4526 1.381 . S
C4524 C4530 1.383 . S
C4525 C4521 1.495 . S
C4525 H4531 0.959 . S
C4525 H4532 0.961 . S
C4525 H4533 0.960 . S
C4526 C4524 1.381 . S
C4526 C4527 1.394 . S
C4526 H4534 0.930 . S
C4527 C4526 1.394 . S
C4527 C4528 1.383 . S
C4527 H4535 0.929 . S
C4528 C4527 1.383 . S
C4528 C4529 1.377 . S
C4529 H4513 0.930 . S
C4529 C4528 1.377 . S
C4529 C4530 1.379 . S
C4530 H4514 0.931 . S
C4530 C4524 1.383 . S
C4530 C4529 1.379 . S
H4531 C4525 0.959 . S
H4532 C4525 0.961 . S
H4533 C4525 0.960 . S
H4534 C4526 0.930 . S
H4535 C4527 0.929 . S
H4536 C4544 0.929 . S
H4537 C4546 0.930 . S
H4538 C4548 0.930 . S
H4539 C4551 0.929 . S
H4540 C4554 0.930 . S
H4541 C4556 0.960 . S
H4542 C4556 0.960 . S
H4543 C4556 0.960 . S
C4544 H4536 0.929 . S
C4544 C4545 1.377 . S
C4544 C4546 1.384 . S
C4545 C4544 1.377 . S
C4545 C4551 1.390 . S
C4546 H4537 0.930 . S
C4546 C4544 1.384 . S
C4546 C4547 1.372 . S
C4547 C4546 1.372 . S
C4547 C4548 1.400 . S
C4547 C4552 1.490 . S
C4548 H4538 0.930 . S
C4548 C4547 1.400 . S
C4548 C4551 1.386 . S
H4549 C4565 0.930 . S
H4550 C4566 0.931 . S
C4551 H4539 0.929 . S
C4551 C4545 1.390 . S
C4551 C4548 1.386 . S
C4552 C4547 1.490 . S
C4552 C4554 1.395 . S
C4552 C4555 1.403 . S
H4553 C4559 0.930 . S
C4554 H4540 0.930 . S
C4554 C4552 1.395 . S
C4554 C4557 1.403 . S
C4555 C4552 1.403 . S
C4555 C4556 1.524 . S
C4555 C4559 1.400 . S
C4556 H4541 0.960 . S
C4556 H4542 0.960 . S
C4556 H4543 0.960 . S
C4556 C4555 1.524 . S
C4557 C4554 1.403 . S
C4557 C4558 1.392 . S
C4557 C4561 1.495 . S
C4558 C4557 1.392 . S
C4558 C4559 1.385 . S
C4558 C4560 1.478 . S
C4559 H4553 0.930 . S
C4559 C4555 1.400 . S
C4559 C4558 1.385 . S
C4560 C4558 1.478 . S
C4560 C4562 1.381 . S
C4560 C4566 1.383 . S
C4561 C4557 1.495 . S
C4561 H4567 0.959 . S
C4561 H4568 0.961 . S
C4561 H4569 0.960 . S
C4562 C4560 1.381 . S
C4562 C4563 1.394 . S
C4562 H4570 0.930 . S
C4563 C4562 1.394 . S
C4563 C4564 1.383 . S
C4563 H4571 0.929 . S
C4564 C4563 1.383 . S
C4564 C4565 1.377 . S
C4565 H4549 0.930 . S
C4565 C4564 1.377 . S
C4565 C4566 1.379 . S
C4566 H4550 0.931 . S
C4566 C4560 1.383 . S
C4566 C4565 1.379 . S
H4567 C4561 0.959 . S
H4568 C4561 0.961 . S
H4569 C4561 0.960 . S
H4570 C4562 0.930 . S
H4571 C4563 0.929 . S
H4572 C4580 0.929 . S
H4573 C4582 0.930 . S
H4574 C4584 0.930 . S
H4575 C4587 0.929 . S
H4576 C4590 0.930 . S
H4577 C4592 0.960 . S
H4578 C4592 0.960 . S
H4579 C4592 0.960 . S
C4580 H4572 0.929 . S
C4580 C4581 1.377 . S
C4580 C4582 1.384 . S
C4581 C4580 1.377 . S
C4581 C4587 1.390 . S
C4582 H4573 0.930 . S
C4582 C4580 1.384 . S
C4582 C4583 1.372 . S
C4583 C4582 1.372 . S
C4583 C4584 1.400 . S
C4583 C4588 1.490 . S
C4584 H4574 0.930 . S
C4584 C4583 1.400 . S
C4584 C4587 1.386 . S
H4585 C4601 0.930 . S
H4586 C4602 0.931 . S
C4587 H4575 0.929 . S
C4587 C4581 1.390 . S
C4587 C4584 1.386 . S
C4588 C4583 1.490 . S
C4588 C4590 1.395 . S
C4588 C4591 1.403 . S
H4589 C4595 0.930 . S
C4590 H4576 0.930 . S
C4590 C4588 1.395 . S
C4590 C4593 1.403 . S
C4591 C4588 1.403 . S
C4591 C4592 1.524 . S
C4591 C4595 1.400 . S
C4592 H4577 0.960 . S
C4592 H4578 0.960 . S
C4592 H4579 0.960 . S
C4592 C4591 1.524 . S
C4593 C4590 1.403 . S
C4593 C4594 1.392 . S
C4593 C4597 1.495 . S
C4594 C4593 1.392 . S
C4594 C4595 1.385 . S
C4594 C4596 1.478 . S
C4595 H4589 0.930 . S
C4595 C4591 1.400 . S
C4595 C4594 1.385 . S
C4596 C4594 1.478 . S
C4596 C4598 1.381 . S
C4596 C4602 1.383 . S
C4597 C4593 1.495 . S
C4597 H4603 0.959 . S
C4597 H4604 0.961 . S
C4597 H4605 0.960 . S
C4598 C4596 1.381 . S
C4598 C4599 1.394 . S
C4598 H4606 0.930 . S
C4599 C4598 1.394 . S
C4599 C4600 1.383 . S
C4599 H4607 0.929 . S
C4600 C4599 1.383 . S
C4600 C4601 1.377 . S
C4601 H4585 0.930 . S
C4601 C4600 1.377 . S
C4601 C4602 1.379 . S
C4602 H4586 0.931 . S
C4602 C4596 1.383 . S
C4602 C4601 1.379 . S
H4603 C4597 0.959 . S
H4604 C4597 0.961 . S
H4605 C4597 0.960 . S
H4606 C4598 0.930 . S
H4607 C4599 0.929 . S
H4608 C4616 0.929 . S
H4609 C4618 0.930 . S
H4610 C4620 0.930 . S
H4611 C4623 0.929 . S
H4612 C4626 0.930 . S
H4613 C4628 0.960 . S
H4614 C4628 0.960 . S
H4615 C4628 0.960 . S
C4616 H4608 0.929 . S
C4616 C4617 1.377 . S
C4616 C4618 1.384 . S
C4617 C4616 1.377 . S
C4617 C4623 1.390 . S
C4618 H4609 0.930 . S
C4618 C4616 1.384 . S
C4618 C4619 1.372 . S
C4619 C4618 1.372 . S
C4619 C4620 1.400 . S
C4619 C4624 1.490 . S
C4620 H4610 0.930 . S
C4620 C4619 1.400 . S
C4620 C4623 1.386 . S
H4621 C4637 0.930 . S
H4622 C4638 0.931 . S
C4623 H4611 0.929 . S
C4623 C4617 1.390 . S
C4623 C4620 1.386 . S
C4624 C4619 1.490 . S
C4624 C4626 1.395 . S
C4624 C4627 1.403 . S
H4625 C4631 0.930 . S
C4626 H4612 0.930 . S
C4626 C4624 1.395 . S
C4626 C4629 1.403 . S
C4627 C4624 1.403 . S
C4627 C4628 1.524 . S
C4627 C4631 1.400 . S
C4628 H4613 0.960 . S
C4628 H4614 0.960 . S
C4628 H4615 0.960 . S
C4628 C4627 1.524 . S
C4629 C4626 1.403 . S
C4629 C4630 1.392 . S
C4629 C4633 1.495 . S
C4630 C4629 1.392 . S
C4630 C4631 1.385 . S
C4630 C4632 1.478 . S
C4631 H4625 0.930 . S
C4631 C4627 1.400 . S
C4631 C4630 1.385 . S
C4632 C4630 1.478 . S
C4632 C4634 1.381 . S
C4632 C4638 1.383 . S
C4633 C4629 1.495 . S
C4633 H4639 0.959 . S
C4633 H4640 0.961 . S
C4633 H4641 0.960 . S
C4634 C4632 1.381 . S
C4634 C4635 1.394 . S
C4634 H4642 0.930 . S
C4635 C4634 1.394 . S
C4635 C4636 1.383 . S
C4635 H4643 0.929 . S
C4636 C4635 1.383 . S
C4636 C4637 1.377 . S
C4637 H4621 0.930 . S
C4637 C4636 1.377 . S
C4637 C4638 1.379 . S
C4638 H4622 0.931 . S
C4638 C4632 1.383 . S
C4638 C4637 1.379 . S
H4639 C4633 0.959 . S
H4640 C4633 0.961 . S
H4641 C4633 0.960 . S
H4642 C4634 0.930 . S
H4643 C4635 0.929 . S
C765 C330 0.773 . S
C784 C15 0.799 . S
C801 C351 0.771 . S
C820 C36 0.716 . S
C837 C57 0.800 . S
C856 C372 0.790 . S
C873 C78 0.787 . S
C892 C519 0.853 . S
C909 C99 0.771 . S
C928 C540 0.778 . S
C945 C120 0.775 . S
C964 C561 0.707 . S
C981 C708 0.792 . S
C1000 C141 0.862 . S
C1017 C729 0.800 . S
C1036 C162 0.775 . S
C1053 C183 0.802 . S
C1072 C750 0.815 . S
C1089 C393 0.777 . S
C1108 C204 0.707 . S
C1125 C225 0.772 . S
C1144 C414 0.723 . S
C1161 C246 0.802 . S
C1180 C435 0.803 . S
C1197 C582 0.801 . S
C1216 C267 0.827 . S
C1233 C288 0.785 . S
C1252 C603 0.720 . S
C1269 C624 0.785 . S
C1288 C309 0.849 . S
C1305 C645 0.775 . S
C1324 C456 0.823 . S
C1341 C666 0.784 . S
C1360 C477 0.709 . S
C1377 C498 0.785 . S
C1396 C687 0.711 . S
C1413 C17 1.080 . S
C1432 C101 1.019 . S
C1449 C38 1.089 . S
C1468 C122 1.059 . S
C1485 C59 1.075 . S
C1504 C80 1.017 . S
C1521 C143 1.090 . S
C1540 C227 1.020 . S
C1557 C164 1.080 . S
C1576 C248 1.093 . S
C1593 C185 1.066 . S
C1612 C206 1.131 . S
C1629 C269 1.088 . S
C1648 C353 1.117 . S
C1665 C374 1.087 . S
C1684 C290 1.042 . S
C1701 C311 1.069 . S
C1720 C332 1.030 . S
C1737 C395 1.073 . S
C1756 C479 1.077 . S
C1773 C416 1.071 . S
C1792 C500 1.127 . S
C1809 C458 1.072 . S
C1828 C437 1.079 . S
C1845 C521 1.083 . S
C1864 C605 1.025 . S
C1881 C626 1.089 . S
C1900 C542 1.053 . S
C1917 C563 1.087 . S
C1936 C584 1.122 . S
C1953 C647 1.067 . S
C1972 C731 1.119 . S
C1989 C668 1.090 . S
C2008 C752 1.029 . S
C2025 C689 1.087 . S
C2044 C710 1.019 . S
C2061 C223 1.221 . S
C2080 C16 1.112 . S
C2097 C37 1.107 . S
C2116 C244 1.189 . S
C2133 C58 1.095 . S
C2152 C202 1.181 . S
C2169 C79 1.099 . S
C2188 C181 1.241 . S
C2205 C100 1.102 . S
C2224 C139 1.182 . S
C2241 C160 1.211 . S
C2260 C121 1.142 . S
C2277 C142 1.111 . S
C2296 C97 1.181 . S
C2313 C118 1.214 . S
C2332 C163 1.078 . S
C2349 C184 1.113 . S
C2368 C76 1.181 . S
C2385 C205 1.112 . S
C2404 C55 1.186 . S
C2421 C13 1.219 . S
C2440 C226 1.073 . S
C2457 C34 1.221 . S
C2476 C247 1.040 . S
C2493 C475 1.221 . S
C2512 C268 1.102 . S
C2529 C496 1.211 . S
C2548 C289 1.041 . S
C2565 C454 1.208 . S
C2584 C310 1.084 . S
C2601 C433 1.219 . S
C2620 C331 1.072 . S
C2637 C352 1.111 . S
C2656 C391 1.233 . S
C2673 C412 1.209 . S
C2692 C373 1.055 . S
C2709 C349 1.221 . S
C2728 C394 1.040 . S
C2745 C415 1.113 . S
C2764 C370 1.182 . S
C2781 C436 1.112 . S
C2800 C328 1.186 . S
C2817 C307 1.216 . S
C2836 C457 1.064 . S
C2853 C478 1.106 . S
C2872 C265 1.189 . S
C2889 C499 1.100 . S
C2908 C286 1.225 . S
C2925 C520 1.112 . S
C2944 C727 1.210 . S
C2961 C541 1.088 . S
C2980 C748 1.207 . S
C2997 C706 1.219 . S
C3016 C562 1.067 . S
C3033 C685 1.208 . S
C3052 C583 1.100 . S
C3069 C604 1.103 . S
C3088 C643 1.183 . S
C3105 C664 1.209 . S
C3124 C625 1.123 . S
C3141 C646 1.088 . S
C3160 C601 1.240 . S
C3177 C622 1.211 . S
C3196 C667 1.112 . S
C3213 C688 1.091 . S
C3232 C580 1.229 . S
C3249 C709 1.096 . S
C3268 C559 1.212 . S
C3285 C517 1.208 . S
C3304 C730 1.157 . S
C3321 C538 1.215 . S
C3340 C751 1.073 . S
C3357 C14 1.833 . S
C3376 C98 1.828 . S
C3393 C119 1.836 . S
C3412 C35 1.820 . S
C3429 C56 1.836 . S
C3448 C77 1.822 . S
C3465 C140 1.834 . S
C3484 C224 1.819 . S
C3501 C245 1.834 . S
C3520 C161 1.841 . S
C3537 C182 1.835 . S
C3556 C203 1.843 . S
C3573 C350 1.836 . S
C3592 C266 1.844 . S
C3609 C371 1.835 . S
C3628 C287 1.819 . S
C3645 C329 1.837 . S
C3664 C308 1.845 . S
C3681 C476 1.835 . S
C3700 C392 1.819 . S
C3717 C413 1.838 . S
C3736 C497 1.841 . S
C3753 C455 1.834 . S
C3772 C434 1.840 . S
C3789 C602 1.833 . S
C3808 C518 1.833 . S
C3825 C539 1.837 . S
C3844 C623 1.827 . S
C3861 C560 1.834 . S
C3880 C581 1.838 . S
C3897 C728 1.836 . S
C3916 C644 1.845 . S
C3933 C665 1.836 . S
C3952 C749 1.821 . S
C3969 C686 1.835 . S
C3988 C707 1.842 . S
C4005 C18 1.554 . S
C4024 C144 1.594 . S
C4041 C39 1.555 . S
C4060 C165 1.580 . S
C4077 C186 1.554 . S
C4096 C60 1.563 . S
C4113 C207 1.555 . S
C4132 C81 1.572 . S
C4149 C102 1.536 . S
C4168 C228 1.517 . S
C4185 C123 1.535 . S
C4204 C249 1.530 . S
C4221 C396 1.547 . S
C4240 C270 1.598 . S
C4257 C291 1.547 . S
C4276 C417 1.518 . S
C4293 C438 1.554 . S
C4312 C312 1.558 . S
C4329 C459 1.536 . S
C4348 C333 1.529 . S
C4365 C480 1.546 . S
C4384 C354 1.596 . S
C4401 C501 1.538 . S
C4420 C375 1.561 . S
C4437 C648 1.553 . S
C4456 C522 1.547 . S
C4473 C543 1.536 . S
C4492 C669 1.522 . S
C4509 C690 1.537 . S
C4528 C564 1.559 . S
C4545 C711 1.543 . S
C4564 C585 1.508 . S
C4581 C732 1.540 . S
C4600 C606 1.507 . S
C4617 C627 1.555 . S
C4636 C753 1.578 . S
