# Generated by pormake.
# Topology wlj, (5)-cn, num edge types: 1
# Building blocks:
#     Node 0, Type 0, BuildingBlock: BEQFEK_clean_sbu_0, # of connection points: 5
#     Node 1, Type 0, BuildingBlock: BEQFEK_clean_sbu_0, # of connection points: 5
#     Node 2, Type 0, BuildingBlock: BEQFEK_clean_sbu_0, # of connection points: 5
#     Node 3, Type 0, BuildingBlock: BEQFEK_clean_sbu_0, # of connection points: 5
#     Node 4, Type 0, BuildingBlock: BEQFEK_clean_sbu_0, # of connection points: 5
#     Node 5, Type 0, BuildingBlock: BEQFEK_clean_sbu_0, # of connection points: 5
#     Edge 6, Type (0, 0), BuildingBlock: KIFKEQ_clean_linker_1, # of connection points: 2
#     Edge 7, Type (0, 0), BuildingBlock: KIFKEQ_clean_linker_1, # of connection points: 2
#     Edge 8, Type (0, 0), BuildingBlock: KIFKEQ_clean_linker_1, # of connection points: 2
#     Edge 9, Type (0, 0), BuildingBlock: KIFKEQ_clean_linker_1, # of connection points: 2
#     Edge 10, Type (0, 0), BuildingBlock: KIFKEQ_clean_linker_1, # of connection points: 2
#     Edge 11, Type (0, 0), BuildingBlock: KIFKEQ_clean_linker_1, # of connection points: 2
#     Edge 12, Type (0, 0), BuildingBlock: KIFKEQ_clean_linker_1, # of connection points: 2
#     Edge 13, Type (0, 0), BuildingBlock: KIFKEQ_clean_linker_1, # of connection points: 2
#     Edge 14, Type (0, 0), BuildingBlock: KIFKEQ_clean_linker_1, # of connection points: 2
#     Edge 15, Type (0, 0), BuildingBlock: KIFKEQ_clean_linker_1, # of connection points: 2
#     Edge 16, Type (0, 0), BuildingBlock: KIFKEQ_clean_linker_1, # of connection points: 2
#     Edge 17, Type (0, 0), BuildingBlock: KIFKEQ_clean_linker_1, # of connection points: 2
#     Edge 18, Type (0, 0), BuildingBlock: KIFKEQ_clean_linker_1, # of connection points: 2
#     Edge 19, Type (0, 0), BuildingBlock: KIFKEQ_clean_linker_1, # of connection points: 2
#     Edge 20, Type (0, 0), BuildingBlock: KIFKEQ_clean_linker_1, # of connection points: 2
# Relax obj value: 0.046
# Max RMSD: 0.094
# Mean RMSD: 0.094
data_MOF--net-wlj--node1-BEQFEK_clean_sbu_0--edge1-KIFKEQ_clean_linker_1
_symmetry_space_group_name_H-M    P1
_symmetry_Int_Tables_number       1
_symmetry_cell_setting            triclinic
loop_
_symmetry_equiv_pos_as_xyz
'x, y, z'
_cell_length_a     24.18511
_cell_length_b     24.214747
_cell_length_c     69.080875
_cell_angle_alpha  90.103594
_cell_angle_beta   89.882627
_cell_angle_gamma 119.91789
loop_
_atom_site_label
_atom_site_type_symbol
_atom_site_fract_x
_atom_site_fract_y
_atom_site_fract_z
_atom_type_partial_charge
Co0 Co 0.48214 0.33307 0.22672 0.0
Co1 Co 0.54094 0.2658 0.2512 0.0
C2 C 0.44253 0.19584 0.22042 0.0
O3 O 0.43927 0.24529 0.2162 0.0
O4 O 0.47896 0.19678 0.23387 0.0
C5 C 0.44571 0.38714 0.19675 0.0
O6 O 0.47616 0.36532 0.1863 0.0
C7 C 0.54294 0.17747 0.28045 0.0
C8 C 0.64516 0.22654 0.28817 0.0
C9 C 0.58673 0.17398 0.29268 0.0
N10 N 0.57404 0.23041 0.26956 0.0
N11 N 0.63519 0.25908 0.27414 0.0
C12 C 0.4731 0.13054 0.27872 0.0
H13 H 0.45581 0.13141 0.26398 0.0
H14 H 0.44609 0.14324 0.28906 0.0
H15 H 0.46328 0.08166 0.28211 0.0
C16 C 0.45779 0.36622 0.2657 0.0
N17 N 0.47716 0.33461 0.25399 0.0
N18 N 0.50312 0.30815 0.26445 0.0
C19 C 0.50155 0.32271 0.28325 0.0
C20 C 0.47254 0.35979 0.28467 0.0
C21 C 0.43278 0.40782 0.25845 0.0
H22 H 0.46718 0.44266 0.24794 0.0
H23 H 0.38717 0.378 0.2507 0.0
H24 H 0.42505 0.43411 0.27032 0.0
O25 O 0.57241 0.37797 0.21865 0.0
O26 O 0.61395 0.32839 0.23504 0.0
H27 H 0.58003 0.31983 0.29649 0.0
H28 H 0.52437 0.32192 0.31364 0.0
C29 C 0.529 0.3031 0.29947 0.0
H30 H 0.50344 0.25053 0.30043 0.0
H31 H 0.67004 0.30158 0.26792 0.0
O32 O 0.44152 0.37818 0.21493 0.0
C33 C 0.61946 0.37051 0.22291 0.0
Co34 Co 0.66168 0.15004 0.89067 0.0
Co35 Co 0.73152 0.2701 0.91779 0.0
C36 C 0.80059 0.24656 0.88556 0.0
O37 O 0.7503 0.19569 0.88054 0.0
O38 O 0.80055 0.27953 0.89996 0.0
C39 C 0.63978 0.03493 0.87166 0.0
O40 O 0.70029 0.05621 0.87549 0.0
C41 C 0.81931 0.35711 0.94805 0.0
C42 C 0.76606 0.40446 0.95768 0.0
C43 C 0.82063 0.40114 0.9613 0.0
N44 N 0.76568 0.3347 0.93742 0.0
N45 N 0.73453 0.36374 0.94317 0.0
C46 C 0.86873 0.33785 0.94513 0.0
H47 H 0.86784 0.32195 0.93005 0.0
H48 H 0.85857 0.29748 0.95486 0.0
H49 H 0.91699 0.37804 0.94854 0.0
C50 C 0.62474 0.08497 0.92871 0.0
N51 N 0.65861 0.1376 0.91786 0.0
N52 N 0.68749 0.1876 0.9293 0.0
C53 C 0.67275 0.16822 0.94784 0.0
C54 C 0.6325 0.10259 0.94809 0.0
C55 C 0.58014 0.02055 0.92047 0.0
H56 H 0.54979 0.02487 0.90925 0.0
H57 H 0.60837 0.00142 0.91343 0.0
H58 H 0.54905 0.98665 0.93174 0.0
O59 O 0.6197 0.19948 0.88404 0.0
O60 O 0.66999 0.28493 0.9028 0.0
H61 H 0.67734 0.2458 0.96402 0.0
H62 H 0.68006 0.18563 0.97885 0.0
C63 C 0.69552 0.21194 0.96496 0.0
H64 H 0.74822 0.23956 0.96484 0.0
H65 H 0.69106 0.35496 0.93739 0.0
O66 O 0.61419 0.06726 0.87703 0.0
C67 C 0.6283 0.253 0.88997 0.0
Co68 Co 0.85463 0.51977 0.55903 0.0
Co69 Co 0.73038 0.45886 0.58435 0.0
C70 C 0.75648 0.5597 0.55465 0.0
O71 O 0.80875 0.56289 0.54974 0.0
O72 O 0.72194 0.52266 0.56817 0.0
C73 C 0.9736 0.61535 0.54178 0.0
O74 O 0.95827 0.65714 0.54814 0.0
C75 C 0.6441 0.45601 0.61493 0.0
C76 C 0.58796 0.3531 0.62144 0.0
C77 C 0.59635 0.41186 0.62696 0.0
N78 N 0.66292 0.42462 0.60297 0.0
N79 N 0.62869 0.36308 0.6068 0.0
C80 C 0.67551 0.52707 0.61575 0.0
H81 H 0.72381 0.54919 0.60916 0.0
H82 H 0.67891 0.54351 0.63093 0.0
H83 H 0.64653 0.54262 0.6074 0.0
C84 C 0.91498 0.5435 0.59773 0.0
N85 N 0.86339 0.52359 0.58632 0.0
N86 N 0.81147 0.49544 0.59704 0.0
C87 C 0.82853 0.49539 0.61564 0.0
C88 C 0.89476 0.526 0.61673 0.0
C89 C 0.98219 0.57889 0.59042 0.0
H90 H 0.98866 0.61962 0.5815 0.0
H91 H 0.01743 0.59769 0.60236 0.0
H92 H 0.99131 0.54689 0.5811 0.0
O93 O 0.80858 0.43008 0.55072 0.0
O94 O 0.71824 0.38684 0.56751 0.0
H95 H 0.74392 0.41361 0.62618 0.0
H96 H 0.8059 0.4513 0.64402 0.0
C97 C 0.78231 0.46007 0.63161 0.0
H98 H 0.76053 0.48836 0.63671 0.0
H99 H 0.63427 0.32802 0.59975 0.0
O100 O 0.93757 0.55661 0.54547 0.0
C101 C 0.7546 0.38255 0.55497 0.0
Co102 Co 0.33288 0.48109 0.79725 0.0
Co103 Co 0.2706 0.54255 0.77183 0.0
C104 C 0.19552 0.4446 0.80213 0.0
O105 O 0.24408 0.44022 0.80681 0.0
O106 O 0.19827 0.48146 0.78853 0.0
C107 C 0.38221 0.44124 0.82783 0.0
O108 O 0.36067 0.47219 0.83814 0.0
C109 C 0.18515 0.54868 0.7427 0.0
C110 C 0.2427 0.64778 0.7323 0.0
C111 C 0.18575 0.59166 0.7293 0.0
N112 N 0.23941 0.57807 0.75304 0.0
N113 N 0.27311 0.63757 0.74695 0.0
C114 C 0.13764 0.47913 0.7443 0.0
H115 H 0.15996 0.45327 0.75092 0.0
H116 H 0.11811 0.45865 0.72985 0.0
H117 H 0.09762 0.47282 0.75369 0.0
C118 C 0.36788 0.45515 0.7587 0.0
N119 N 0.33679 0.47616 0.77002 0.0
N120 N 0.31179 0.50267 0.75916 0.0
C121 C 0.32677 0.49974 0.74048 0.0
C122 C 0.36268 0.46944 0.73958 0.0
C123 C 0.40732 0.42823 0.7664 0.0
H124 H 0.44267 0.46233 0.77686 0.0
H125 H 0.37596 0.38342 0.77432 0.0
H126 H 0.43288 0.41854 0.75472 0.0
O127 O 0.37875 0.57097 0.80565 0.0
O128 O 0.33356 0.61449 0.78812 0.0
H129 H 0.32861 0.57866 0.72603 0.0
H130 H 0.32532 0.51832 0.70982 0.0
C131 C 0.30839 0.52673 0.72385 0.0
H132 H 0.25577 0.50409 0.7233 0.0
H133 H 0.31797 0.67054 0.75233 0.0
O134 O 0.37487 0.43816 0.80958 0.0
C135 C 0.37364 0.61899 0.80088 0.0
Co136 Co 0.5185 0.8533 0.46511 0.0
Co137 Co 0.46306 0.72888 0.4399 0.0
C138 C 0.55868 0.75563 0.47126 0.0
O139 O 0.56088 0.80776 0.47565 0.0
O140 O 0.52379 0.72089 0.45745 0.0
C141 C 0.61414 0.97726 0.47921 0.0
O142 O 0.6552 0.96724 0.46956 0.0
C143 C 0.46242 0.63868 0.41057 0.0
C144 C 0.36041 0.58602 0.40259 0.0
C145 C 0.41883 0.59125 0.39836 0.0
N146 N 0.43118 0.66117 0.42123 0.0
N147 N 0.37017 0.62901 0.41647 0.0
C148 C 0.53208 0.66083 0.41254 0.0
H149 H 0.54954 0.68106 0.42709 0.0
H150 H 0.55948 0.69865 0.40174 0.0
H151 H 0.54121 0.62085 0.40987 0.0
C152 C 0.54342 0.91283 0.4261 0.0
N153 N 0.52524 0.86202 0.43777 0.0
N154 N 0.50144 0.80992 0.42713 0.0
C155 C 0.50399 0.8262 0.40832 0.0
C156 C 0.53095 0.89192 0.40706 0.0
C157 C 0.56442 0.97887 0.43317 0.0
H158 H 0.53687 0.97693 0.44624 0.0
H159 H 0.61572 0.0026 0.43701 0.0
H160 H 0.55783 0.00777 0.42194 0.0
O161 O 0.4279 0.80729 0.47226 0.0
O162 O 0.38834 0.71687 0.4556 0.0
H163 H 0.42794 0.74521 0.39422 0.0
H164 H 0.48607 0.80321 0.37772 0.0
C165 C 0.47933 0.77953 0.39193 0.0
H166 H 0.50525 0.75271 0.3916 0.0
H167 H 0.33522 0.637 0.42253 0.0
O168 O 0.55518 0.93601 0.47867 0.0
C169 C 0.38155 0.75305 0.46763 0.0
Co170 Co 0.15122 0.66196 0.13312 0.0
Co171 Co 0.27067 0.73232 0.10572 0.0
C172 C 0.24489 0.80232 0.13697 0.0
O173 O 0.19485 0.7516 0.14221 0.0
O174 O 0.27862 0.80225 0.12278 0.0
C175 C 0.02771 0.63214 0.14776 0.0
O176 O 0.03616 0.68086 0.13722 0.0
C177 C 0.35794 0.81894 0.07517 0.0
C178 C 0.40546 0.76538 0.06603 0.0
C179 C 0.40228 0.81978 0.06212 0.0
N180 N 0.3352 0.76572 0.08599 0.0
N181 N 0.36433 0.73437 0.08052 0.0
C182 C 0.33892 0.86865 0.07773 0.0
H183 H 0.32272 0.86838 0.09273 0.0
H184 H 0.29883 0.85843 0.06786 0.0
H185 H 0.3794 0.91662 0.07423 0.0
C186 C 0.08584 0.61898 0.09497 0.0
N187 N 0.13796 0.65507 0.10586 0.0
N188 N 0.18784 0.68541 0.09439 0.0
C189 C 0.16876 0.67 0.07585 0.0
C190 C 0.10356 0.62747 0.0756 0.0
C191 C 0.02198 0.57152 0.10298 0.0
H192 H 0.0279 0.54979 0.11635 0.0
H193 H 0.99497 0.59613 0.10655 0.0
H194 H 0.99391 0.53328 0.09234 0.0
O195 O 0.20294 0.6232 0.14043 0.0
O196 O 0.28786 0.67361 0.12143 0.0
H197 H 0.24701 0.67776 0.05921 0.0
H198 H 0.18582 0.68023 0.04483 0.0
C199 C 0.21228 0.69499 0.0587 0.0
H200 H 0.23897 0.74761 0.05922 0.0
H201 H 0.35545 0.69117 0.08651 0.0
O202 O 0.07011 0.61578 0.14773 0.0
C203 C 0.25697 0.63283 0.13459 0.0
H204 H 0.38992 0.18531 0.18467 0.0
H205 H 0.41397 0.07429 0.22934 0.0
H206 H 0.33718 0.09058 0.16417 0.0
H207 H 0.36046 0.97952 0.20886 0.0
H208 H 0.20628 0.81304 0.17328 0.0
H209 H 0.24914 0.90808 0.19362 0.0
H210 H 0.37594 0.01985 0.14743 0.0
H211 H 0.33378 0.92467 0.12706 0.0
C212 C 0.38331 0.14059 0.19022 0.0
C213 C 0.40626 0.13736 0.20864 0.0
C214 C 0.35346 0.08652 0.17842 0.0
C215 C 0.3449 0.02787 0.18493 0.0
C216 C 0.3661 0.02412 0.20355 0.0
C217 C 0.39694 0.07841 0.21523 0.0
C218 C 0.24284 0.85795 0.16735 0.0
C219 C 0.26678 0.8612 0.14855 0.0
C220 C 0.26757 0.91223 0.17906 0.0
C221 C 0.31597 0.97114 0.17212 0.0
C222 C 0.33837 0.97502 0.1531 0.0
C223 C 0.31439 0.9205 0.14147 0.0
H224 H 0.18213 0.39014 0.83764 0.0
H225 H 0.07494 0.41977 0.79289 0.0
H226 H 0.08663 0.33851 0.8578 0.0
H227 H 0.97906 0.3672 0.81312 0.0
H228 H 0.8102 0.21107 0.84868 0.0
H229 H 0.905 0.2552 0.82808 0.0
H230 H 0.01781 0.37906 0.87464 0.0
H231 H 0.92299 0.33572 0.89524 0.0
C232 C 0.13806 0.38506 0.832 0.0
C233 C 0.13619 0.40924 0.81365 0.0
C234 C 0.08352 0.35581 0.84362 0.0
C235 C 0.02563 0.34911 0.83704 0.0
C236 C 0.0231 0.37151 0.81849 0.0
C237 C 0.07799 0.40178 0.80696 0.0
C238 C 0.85529 0.24736 0.8546 0.0
C239 C 0.85902 0.26995 0.87361 0.0
C240 C 0.90939 0.27284 0.84274 0.0
C241 C 0.96857 0.3206 0.84975 0.0
C242 C 0.97277 0.34201 0.86891 0.0
C243 C 0.91847 0.31733 0.88067 0.0
H244 H 0.60532 0.79376 0.50783 0.0
H245 H 0.59129 0.66563 0.462 0.0
H246 H 0.65683 0.75094 0.52855 0.0
H247 H 0.64372 0.62372 0.48269 0.0
H248 H 0.79841 0.61505 0.51927 0.0
H249 H 0.75461 0.66667 0.49916 0.0
H250 H 0.6185 0.63854 0.54399 0.0
H251 H 0.66163 0.58582 0.56416 0.0
C252 C 0.61388 0.75702 0.50209 0.0
C253 C 0.59416 0.73303 0.48326 0.0
C254 C 0.64297 0.73231 0.51401 0.0
C255 C 0.65408 0.68402 0.50722 0.0
C256 C 0.636 0.66122 0.48824 0.0
C257 C 0.60583 0.68507 0.47643 0.0
C258 C 0.75954 0.62032 0.52497 0.0
C259 C 0.73334 0.59607 0.54332 0.0
C260 C 0.7343 0.64958 0.51338 0.0
C261 C 0.68307 0.65627 0.52 0.0
C262 C 0.65823 0.63416 0.53859 0.0
C263 C 0.68277 0.60384 0.55009 0.0
H264 H 0.37125 0.64008 0.12624 0.0
H265 H 0.20489 0.54238 0.16295 0.0
H266 H 0.41685 0.58078 0.14126 0.0
H267 H 0.25002 0.48245 0.17765 0.0
H268 H 0.38211 0.44051 0.21428 0.0
H269 H 0.33714 0.50006 0.1991 0.0
H270 H 0.39987 0.47261 0.14313 0.0
H271 H 0.44592 0.41401 0.15833 0.0
C272 C 0.34426 0.60581 0.13744 0.0
C273 C 0.28446 0.59615 0.14341 0.0
C274 C 0.37027 0.57158 0.14597 0.0
C275 C 0.33709 0.52698 0.16067 0.0
C276 C 0.27719 0.51711 0.16656 0.0
C277 C 0.25117 0.55126 0.15804 0.0
C278 C 0.38628 0.44711 0.19874 0.0
C279 C 0.41759 0.4225 0.18751 0.0
C280 C 0.36022 0.48098 0.19002 0.0
C281 C 0.36488 0.49101 0.1699 0.0
C282 C 0.39618 0.46637 0.15869 0.0
C283 C 0.42222 0.43246 0.1674 0.0
H284 H 0.37552 0.73197 0.79532 0.0
H285 H 0.46406 0.64614 0.8287 0.0
H286 H 0.4411 0.83285 0.81201 0.0
H287 H 0.52869 0.74664 0.84555 0.0
H288 H 0.67929 0.95441 0.8577 0.0
H289 H 0.61638 0.85496 0.83999 0.0
H290 H 0.45082 0.87804 0.84436 0.0
H291 H 0.51377 0.97783 0.86178 0.0
C292 C 0.4089 0.73453 0.8062 0.0
C293 C 0.41439 0.68084 0.81067 0.0
C294 C 0.44623 0.79229 0.81585 0.0
C295 C 0.49 0.79773 0.83015 0.0
C296 C 0.49597 0.74426 0.83446 0.0
C297 C 0.4586 0.6865 0.82485 0.0
C298 C 0.62948 0.93828 0.85488 0.0
C299 C 0.60161 0.97412 0.86113 0.0
C300 C 0.59336 0.88114 0.8448 0.0
C301 C 0.52862 0.85866 0.84073 0.0
C302 C 0.50079 0.8945 0.84701 0.0
C303 C 0.53683 0.95153 0.85711 0.0
H304 H 0.08432 0.72944 0.54337 0.0
H305 H 0.99454 0.54718 0.51442 0.0
H306 H 0.18197 0.76156 0.52513 0.0
H307 H 0.09011 0.58036 0.49512 0.0
H308 H 0.29115 0.63184 0.47732 0.0
H309 H 0.19279 0.59867 0.49531 0.0
H310 H 0.23173 0.79368 0.49565 0.0
H311 H 0.33196 0.82675 0.47895 0.0
C312 C 0.08534 0.69667 0.53287 0.0
C313 C 0.03215 0.63585 0.53034 0.0
C314 C 0.14114 0.71513 0.52225 0.0
C315 C 0.1444 0.67374 0.50849 0.0
C316 C 0.09036 0.61316 0.50583 0.0
C317 C 0.03524 0.5942 0.51679 0.0
C318 C 0.27825 0.66732 0.4812 0.0
C319 C 0.31914 0.73179 0.47687 0.0
C320 C 0.22165 0.64842 0.49144 0.0
C321 C 0.20394 0.69343 0.49713 0.0
C322 C 0.24422 0.75772 0.49209 0.0
C323 C 0.30149 0.77673 0.48231 0.0
H324 H 0.63341 0.36594 0.89857 0.0
H325 H 0.53608 0.19912 0.86212 0.0
H326 H 0.57258 0.41016 0.88376 0.0
H327 H 0.47459 0.24293 0.84762 0.0
H328 H 0.43424 0.37597 0.81059 0.0
H329 H 0.49234 0.32985 0.82602 0.0
H330 H 0.46409 0.39284 0.88184 0.0
H331 H 0.40688 0.44003 0.86638 0.0
C332 C 0.59881 0.33849 0.8875 0.0
C333 C 0.58985 0.27906 0.88149 0.0
C334 C 0.56368 0.36371 0.87909 0.0
C335 C 0.51886 0.33011 0.86448 0.0
C336 C 0.50941 0.2704 0.85864 0.0
C337 C 0.54445 0.24515 0.86705 0.0
C338 C 0.44026 0.37988 0.82616 0.0
C339 C 0.41599 0.41174 0.83726 0.0
C340 C 0.47328 0.35313 0.83502 0.0
C341 C 0.48281 0.35767 0.85516 0.0
C342 C 0.45822 0.38923 0.86626 0.0
C343 C 0.42513 0.41594 0.85741 0.0
H344 H 0.82992 0.3409 0.53884 0.0
H345 H 0.63277 0.28723 0.54805 0.0
H346 H 0.79681 0.24214 0.52134 0.0
H347 H 0.59917 0.19002 0.52949 0.0
H348 H 0.55476 0.99408 0.5102 0.0
H349 H 0.58941 0.09007 0.52933 0.0
H350 H 0.7548 0.19028 0.49229 0.0
H351 H 0.72167 0.09265 0.47396 0.0
C352 C 0.77939 0.30805 0.53697 0.0
C353 C 0.73389 0.32167 0.54481 0.0
C354 C 0.7603 0.25156 0.52677 0.0
C355 C 0.69519 0.20787 0.5238 0.0
C356 C 0.64971 0.2217 0.53173 0.0
C357 C 0.66886 0.27763 0.5423 0.0
C358 C 0.59863 0.03668 0.50621 0.0
C359 C 0.63562 0.03599 0.49062 0.0
C360 C 0.61835 0.09199 0.5171 0.0
C361 C 0.6749 0.14845 0.5124 0.0
C362 C 0.71167 0.1476 0.49666 0.0
C363 C 0.69257 0.09177 0.48603 0.0
H364 H 0.91198 0.62346 0.14214 0.0
H365 H 0.01076 0.55794 0.17929 0.0
H366 H 0.81421 0.56032 0.16051 0.0
H367 H 0.91435 0.49774 0.19844 0.0
H368 H 0.71585 0.34447 0.21689 0.0
H369 H 0.81406 0.40755 0.19872 0.0
H370 H 0.76177 0.55225 0.18939 0.0
H371 H 0.66207 0.48718 0.20655 0.0
C372 C 0.91291 0.59616 0.15442 0.0
C373 C 0.96887 0.59547 0.15926 0.0
C374 C 0.85694 0.56021 0.16508 0.0
C375 C 0.85598 0.52372 0.18108 0.0
C376 C 0.91255 0.52398 0.18602 0.0
C377 C 0.9681 0.55891 0.17512 0.0
C378 C 0.7256 0.38989 0.211 0.0
C379 C 0.68117 0.41074 0.21307 0.0
C380 C 0.78215 0.42638 0.20064 0.0
C381 C 0.79621 0.48524 0.19245 0.0
C382 C 0.75221 0.50664 0.19502 0.0
C383 C 0.69516 0.46956 0.20503 0.0
H384 H 0.63886 0.99634 0.3945 0.0
H385 H 0.43967 0.87564 0.38095 0.0
H386 H 0.65138 0.06266 0.36631 0.0
H387 H 0.45211 0.94055 0.35242 0.0
H388 H 0.48534 0.11749 0.31784 0.0
H389 H 0.47125 0.04703 0.34478 0.0
H390 H 0.65148 0.05956 0.33102 0.0
H391 H 0.66532 0.12996 0.30391 0.0
C392 C 0.59797 0.98386 0.38534 0.0
C393 C 0.53856 0.93069 0.38968 0.0
C394 C 0.60511 0.02142 0.36914 0.0
C395 C 0.5528 0.0067 0.35703 0.0
C396 C 0.49325 0.95345 0.3615 0.0
C397 C 0.48621 0.9159 0.37769 0.0
C398 C 0.52105 0.10377 0.32016 0.0
C399 C 0.57569 0.12802 0.3084 0.0
C400 C 0.51321 0.0637 0.33574 0.0
C401 C 0.56012 0.04743 0.34003 0.0
C402 C 0.61473 0.07164 0.32823 0.0
C403 C 0.62251 0.11167 0.31265 0.0
H404 H 0.88428 0.35876 0.98446 0.0
H405 H 0.85741 0.51992 0.97472 0.0
H406 H 0.95388 0.41388 1.01173 0.0
H407 H 0.92676 0.57502 1.00214 0.0
H408 H 0.99161 0.62014 0.06541 0.0
H409 H 0.92453 0.56544 0.0374 0.0
H410 H 0.05809 0.50549 0.01976 0.0
H411 H 0.12394 0.55885 0.04808 0.0
C412 C 0.8946 0.40663 0.98776 0.0
C413 C 0.86653 0.43559 0.9771 0.0
C414 C 0.93412 0.43806 1.00353 0.0
C415 C 0.94593 0.49889 1.00911 0.0
C416 C 0.91804 0.5279 0.99837 0.0
C417 C 0.87864 0.49651 0.9826 0.0
C418 C 0.00628 0.59506 0.05553 0.0
C419 C 0.06305 0.59413 0.0587 0.0
C420 C 0.9683 0.56421 0.03943 0.0
C421 C 0.98622 0.53149 0.02627 0.0
C422 C 0.04276 0.52996 0.02966 0.0
C423 C 0.08074 0.56094 0.04574 0.0
H424 H 0.34882 0.35897 0.72508 0.0
H425 H 0.44971 0.56212 0.71608 0.0
H426 H 0.40413 0.34552 0.69739 0.0
H427 H 0.50693 0.54961 0.68874 0.0
H428 H 0.55343 0.49755 0.62945 0.0
H429 H 0.49575 0.5116 0.65627 0.0
H430 H 0.50608 0.36353 0.68814 0.0
H431 H 0.56242 0.34885 0.66118 0.0
C432 C 0.38308 0.40068 0.71712 0.0
C433 C 0.39503 0.46144 0.72254 0.0
C434 C 0.41514 0.39321 0.70136 0.0
C435 C 0.46037 0.44653 0.69082 0.0
C436 C 0.47183 0.50739 0.69629 0.0
C437 C 0.43934 0.5147 0.71197 0.0
C438 C 0.54421 0.46876 0.64231 0.0
C439 C 0.56319 0.42268 0.64332 0.0
C440 C 0.51094 0.47663 0.65768 0.0
C441 C 0.49607 0.43867 0.67442 0.0
C442 C 0.51552 0.39284 0.67538 0.0
C443 C 0.54822 0.38466 0.65997 0.0
H444 H 0.05495 0.52664 0.73045 0.0
H445 H 0.21528 0.63136 0.69217 0.0
H446 H 0.98157 0.50831 0.70353 0.0
H447 H 0.14224 0.61261 0.66534 0.0
H448 H 0.98901 0.49584 0.61925 0.0
H449 H 0.05801 0.51074 0.64691 0.0
H450 H 0.95657 0.58161 0.68086 0.0
H451 H 0.88894 0.56904 0.65284 0.0
C452 C 0.07438 0.54517 0.71626 0.0
C453 C 0.14067 0.57986 0.7133 0.0
C454 C 0.03252 0.53517 0.70094 0.0
C455 C 0.05638 0.55879 0.68238 0.0
C456 C 0.12266 0.59341 0.67947 0.0
C457 C 0.16436 0.6044 0.69482 0.0
C458 C 0.98199 0.51535 0.63254 0.0
C459 C 0.93444 0.53235 0.63383 0.0
C460 C 0.02117 0.5235 0.64837 0.0
C461 C 0.01272 0.54758 0.66595 0.0
C462 C 0.9638 0.56266 0.66748 0.0
C463 C 0.92525 0.55551 0.6515 0.0
H464 H 0.36374 0.35197 0.29861 0.0
H465 H 0.56563 0.43968 0.30952 0.0
H466 H 0.35208 0.40701 0.32668 0.0
H467 H 0.55414 0.49295 0.33807 0.0
H468 H 0.51929 0.63495 0.37294 0.0
H469 H 0.53297 0.57731 0.3462 0.0
H470 H 0.35533 0.40935 0.36145 0.0
H471 H 0.3416 0.46755 0.38817 0.0
C472 C 0.40545 0.38268 0.30718 0.0
C473 C 0.46541 0.39141 0.30206 0.0
C474 C 0.39883 0.41379 0.32334 0.0
C475 C 0.45215 0.45427 0.33472 0.0
C476 C 0.51218 0.46265 0.32955 0.0
C477 C 0.51873 0.43168 0.31335 0.0
C478 C 0.48406 0.58528 0.37094 0.0
C479 C 0.43005 0.55536 0.38294 0.0
C480 C 0.49168 0.55224 0.3555 0.0
C481 C 0.44533 0.48856 0.35166 0.0
C482 C 0.39158 0.45855 0.36381 0.0
C483 C 0.38388 0.49172 0.3792 0.0
H484 H 0.55854 0.11957 0.97444 0.0
H485 H 0.63032 0.99396 0.95942 0.0
H486 H 0.50454 0.05384 1.00268 0.0
H487 H 0.57461 0.92658 0.98729 0.0
H488 H 0.52258 0.85827 0.04963 0.0
H489 H 0.57895 0.92762 0.02232 0.0
H490 H 0.41568 0.95001 1.0108 0.0
H491 H 0.35963 0.88087 0.03807 0.0
C492 C 0.56272 0.0778 0.97726 0.0
C493 C 0.59897 0.06197 0.96496 0.0
C494 C 0.53135 0.03982 0.9933 0.0
C495 C 0.53537 0.985 0.9973 0.0
C496 C 0.57133 0.969 0.98481 0.0
C497 C 0.60277 0.00712 0.96879 0.0
C498 C 0.49902 0.87851 0.04134 0.0
C499 C 0.43726 0.8653 0.04631 0.0
C500 C 0.53111 0.91788 0.02562 0.0
C501 C 0.5019 0.9445 0.01437 0.0
C502 C 0.4401 0.93137 0.01939 0.0
C503 C 0.40807 0.89205 0.03514 0.0
loop_
_geom_bond_atom_site_label_1
_geom_bond_atom_site_label_2
_geom_bond_distance
_geom_bond_site_symmetry_2
_ccdc_geom_bond_type
Co0 O3 1.970 . S
Co0 N17 1.989 . S
Co0 O25 1.967 . S
Co0 O32 1.920 . S
Co1 O4 1.966 . S
Co1 N10 2.022 . S
Co1 N18 1.993 . S
Co1 O26 1.941 . S
C2 O3 1.258 . S
C2 O4 1.263 . S
O3 Co0 1.970 . S
O3 C2 1.258 . S
O4 Co1 1.966 . S
O4 C2 1.263 . S
C5 O6 1.235 . S
C5 O32 1.289 . S
O6 C5 1.235 . S
C7 C9 1.400 . S
C7 N10 1.351 . S
C7 C12 1.501 . S
C8 C9 1.387 . S
C8 N11 1.341 . S
C9 C7 1.400 . S
C9 C8 1.387 . S
N10 Co1 2.022 . S
N10 C7 1.351 . S
N10 N11 1.365 . S
N11 C8 1.341 . S
N11 N10 1.365 . S
N11 H31 0.862 . S
C12 C7 1.501 . S
C12 H13 0.961 . S
C12 H14 0.961 . S
C12 H15 0.960 . S
H13 C12 0.961 . S
H14 C12 0.961 . S
H15 C12 0.960 . S
C16 N17 1.342 . S
C16 C20 1.401 . S
C16 C21 1.499 . S
N17 Co0 1.989 . S
N17 C16 1.342 . S
N17 N18 1.388 . S
N18 Co1 1.993 . S
N18 N17 1.388 . S
N18 C19 1.346 . S
C19 N18 1.346 . S
C19 C20 1.396 . S
C19 C29 1.510 . S
C20 C16 1.401 . S
C20 C19 1.396 . S
C21 C16 1.499 . S
C21 H22 0.959 . S
C21 H23 0.960 . S
C21 H24 0.961 . S
H22 C21 0.959 . S
H23 C21 0.960 . S
H24 C21 0.961 . S
O25 Co0 1.967 . S
O25 C33 1.258 . S
O26 Co1 1.941 . S
O26 C33 1.266 . S
H27 C29 0.959 . S
H28 C29 0.961 . S
C29 C19 1.510 . S
C29 H27 0.959 . S
C29 H28 0.961 . S
C29 H30 0.960 . S
H30 C29 0.960 . S
H31 N11 0.862 . S
O32 Co0 1.920 . S
O32 C5 1.289 . S
C33 O25 1.258 . S
C33 O26 1.266 . S
Co34 O37 1.970 . S
Co34 N51 1.989 . S
Co34 O59 1.967 . S
Co34 O66 1.920 . S
Co35 O38 1.966 . S
Co35 N44 2.022 . S
Co35 N52 1.993 . S
Co35 O60 1.941 . S
C36 O37 1.258 . S
C36 O38 1.263 . S
O37 Co34 1.970 . S
O37 C36 1.258 . S
O38 Co35 1.966 . S
O38 C36 1.263 . S
C39 O40 1.235 1_545 S
C39 O66 1.289 . S
O40 C39 1.235 1_565 S
C41 C43 1.400 . S
C41 N44 1.351 . S
C41 C46 1.501 . S
C42 C43 1.387 . S
C42 N45 1.341 . S
C43 C41 1.400 . S
C43 C42 1.387 . S
N44 Co35 2.022 . S
N44 C41 1.351 . S
N44 N45 1.365 . S
N45 C42 1.341 . S
N45 N44 1.365 . S
N45 H65 0.862 . S
C46 C41 1.501 . S
C46 H47 0.961 . S
C46 H48 0.961 . S
C46 H49 0.960 . S
H47 C46 0.961 . S
H48 C46 0.961 . S
H49 C46 0.960 . S
C50 N51 1.342 . S
C50 C54 1.401 . S
C50 C55 1.499 1_545 S
N51 Co34 1.989 . S
N51 C50 1.342 . S
N51 N52 1.388 . S
N52 Co35 1.993 . S
N52 N51 1.388 . S
N52 C53 1.346 . S
C53 N52 1.346 . S
C53 C54 1.396 . S
C53 C63 1.510 . S
C54 C50 1.401 . S
C54 C53 1.396 . S
C55 C50 1.499 1_565 S
C55 H56 0.959 . S
C55 H57 0.960 . S
C55 H58 0.961 . S
H56 C55 0.959 . S
H57 C55 0.960 . S
H58 C55 0.961 . S
O59 Co34 1.967 . S
O59 C67 1.258 . S
O60 Co35 1.941 . S
O60 C67 1.266 . S
H61 C63 0.959 . S
H62 C63 0.961 . S
C63 C53 1.510 . S
C63 H61 0.959 . S
C63 H62 0.961 . S
C63 H64 0.960 . S
H64 C63 0.960 . S
H65 N45 0.862 . S
O66 Co34 1.920 . S
O66 C39 1.289 . S
C67 O59 1.258 . S
C67 O60 1.266 . S
Co68 O71 1.970 . S
Co68 N85 1.989 . S
Co68 O93 1.967 . S
Co68 O100 1.920 . S
Co69 O72 1.966 . S
Co69 N78 2.022 . S
Co69 N86 1.993 . S
Co69 O94 1.941 . S
C70 O71 1.258 . S
C70 O72 1.263 . S
O71 Co68 1.970 . S
O71 C70 1.258 . S
O72 Co69 1.966 . S
O72 C70 1.263 . S
C73 O74 1.235 1_655 S
C73 O100 1.289 . S
O74 C73 1.235 1_455 S
C75 C77 1.400 . S
C75 N78 1.351 . S
C75 C80 1.501 . S
C76 C77 1.387 . S
C76 N79 1.341 . S
C77 C75 1.400 . S
C77 C76 1.387 . S
N78 Co69 2.022 . S
N78 C75 1.351 . S
N78 N79 1.365 . S
N79 C76 1.341 . S
N79 N78 1.365 . S
N79 H99 0.862 . S
C80 C75 1.501 . S
C80 H81 0.961 . S
C80 H82 0.961 . S
C80 H83 0.960 . S
H81 C80 0.961 . S
H82 C80 0.961 . S
H83 C80 0.960 . S
C84 N85 1.342 . S
C84 C88 1.401 . S
C84 C89 1.499 1_655 S
N85 Co68 1.989 . S
N85 C84 1.342 . S
N85 N86 1.388 . S
N86 Co69 1.993 . S
N86 N85 1.388 . S
N86 C87 1.346 . S
C87 N86 1.346 . S
C87 C88 1.396 . S
C87 C97 1.510 . S
C88 C84 1.401 . S
C88 C87 1.396 . S
C89 C84 1.499 1_455 S
C89 H90 0.959 . S
C89 H91 0.960 . S
C89 H92 0.961 . S
H90 C89 0.959 . S
H91 C89 0.960 . S
H92 C89 0.961 . S
O93 Co68 1.967 . S
O93 C101 1.258 . S
O94 Co69 1.941 . S
O94 C101 1.266 . S
H95 C97 0.959 . S
H96 C97 0.961 . S
C97 C87 1.510 . S
C97 H95 0.959 . S
C97 H96 0.961 . S
C97 H98 0.960 . S
H98 C97 0.960 . S
H99 N79 0.862 . S
O100 Co68 1.920 . S
O100 C73 1.289 . S
C101 O93 1.258 . S
C101 O94 1.266 . S
Co102 O105 1.970 . S
Co102 N119 1.989 . S
Co102 O127 1.967 . S
Co102 O134 1.920 . S
Co103 O106 1.966 . S
Co103 N112 2.022 . S
Co103 N120 1.993 . S
Co103 O128 1.941 . S
C104 O105 1.258 . S
C104 O106 1.263 . S
O105 Co102 1.970 . S
O105 C104 1.258 . S
O106 Co103 1.966 . S
O106 C104 1.263 . S
C107 O108 1.235 . S
C107 O134 1.289 . S
O108 C107 1.235 . S
C109 C111 1.400 . S
C109 N112 1.351 . S
C109 C114 1.501 . S
C110 C111 1.387 . S
C110 N113 1.341 . S
C111 C109 1.400 . S
C111 C110 1.387 . S
N112 Co103 2.022 . S
N112 C109 1.351 . S
N112 N113 1.365 . S
N113 C110 1.341 . S
N113 N112 1.365 . S
N113 H133 0.862 . S
C114 C109 1.501 . S
C114 H115 0.961 . S
C114 H116 0.961 . S
C114 H117 0.960 . S
H115 C114 0.961 . S
H116 C114 0.961 . S
H117 C114 0.960 . S
C118 N119 1.342 . S
C118 C122 1.401 . S
C118 C123 1.499 . S
N119 Co102 1.989 . S
N119 C118 1.342 . S
N119 N120 1.388 . S
N120 Co103 1.993 . S
N120 N119 1.388 . S
N120 C121 1.346 . S
C121 N120 1.346 . S
C121 C122 1.396 . S
C121 C131 1.510 . S
C122 C118 1.401 . S
C122 C121 1.396 . S
C123 C118 1.499 . S
C123 H124 0.959 . S
C123 H125 0.960 . S
C123 H126 0.961 . S
H124 C123 0.959 . S
H125 C123 0.960 . S
H126 C123 0.961 . S
O127 Co102 1.967 . S
O127 C135 1.258 . S
O128 Co103 1.941 . S
O128 C135 1.266 . S
H129 C131 0.959 . S
H130 C131 0.961 . S
C131 C121 1.510 . S
C131 H129 0.959 . S
C131 H130 0.961 . S
C131 H132 0.960 . S
H132 C131 0.960 . S
H133 N113 0.862 . S
O134 Co102 1.920 . S
O134 C107 1.289 . S
C135 O127 1.258 . S
C135 O128 1.266 . S
Co136 O139 1.970 . S
Co136 N153 1.989 . S
Co136 O161 1.967 . S
Co136 O168 1.920 . S
Co137 O140 1.966 . S
Co137 N146 2.022 . S
Co137 N154 1.993 . S
Co137 O162 1.941 . S
C138 O139 1.258 . S
C138 O140 1.263 . S
O139 Co136 1.970 . S
O139 C138 1.258 . S
O140 Co137 1.966 . S
O140 C138 1.263 . S
C141 O142 1.235 1_565 S
C141 O168 1.289 . S
O142 C141 1.235 1_545 S
C143 C145 1.400 . S
C143 N146 1.351 . S
C143 C148 1.501 . S
C144 C145 1.387 . S
C144 N147 1.341 . S
C145 C143 1.400 . S
C145 C144 1.387 . S
N146 Co137 2.022 . S
N146 C143 1.351 . S
N146 N147 1.365 . S
N147 C144 1.341 . S
N147 N146 1.365 . S
N147 H167 0.862 . S
C148 C143 1.501 . S
C148 H149 0.961 . S
C148 H150 0.961 . S
C148 H151 0.960 . S
H149 C148 0.961 . S
H150 C148 0.961 . S
H151 C148 0.960 . S
C152 N153 1.342 . S
C152 C156 1.401 . S
C152 C157 1.499 1_565 S
N153 Co136 1.989 . S
N153 C152 1.342 . S
N153 N154 1.388 . S
N154 Co137 1.993 . S
N154 N153 1.388 . S
N154 C155 1.346 . S
C155 N154 1.346 . S
C155 C156 1.396 . S
C155 C165 1.510 . S
C156 C152 1.401 . S
C156 C155 1.396 . S
C157 C152 1.499 1_545 S
C157 H158 0.959 . S
C157 H159 0.960 . S
C157 H160 0.961 . S
H158 C157 0.959 . S
H159 C157 0.960 . S
H160 C157 0.961 . S
O161 Co136 1.967 . S
O161 C169 1.258 . S
O162 Co137 1.941 . S
O162 C169 1.266 . S
H163 C165 0.959 . S
H164 C165 0.961 . S
C165 C155 1.510 . S
C165 H163 0.959 . S
C165 H164 0.961 . S
C165 H166 0.960 . S
H166 C165 0.960 . S
H167 N147 0.862 . S
O168 Co136 1.920 . S
O168 C141 1.289 . S
C169 O161 1.258 . S
C169 O162 1.266 . S
Co170 O173 1.970 . S
Co170 N187 1.989 . S
Co170 O195 1.967 . S
Co170 O202 1.920 . S
Co171 O174 1.966 . S
Co171 N180 2.022 . S
Co171 N188 1.993 . S
Co171 O196 1.941 . S
C172 O173 1.258 . S
C172 O174 1.263 . S
O173 Co170 1.970 . S
O173 C172 1.258 . S
O174 Co171 1.966 . S
O174 C172 1.263 . S
C175 O176 1.235 1_455 S
C175 O202 1.289 . S
O176 C175 1.235 1_655 S
C177 C179 1.400 . S
C177 N180 1.351 . S
C177 C182 1.501 . S
C178 C179 1.387 . S
C178 N181 1.341 . S
C179 C177 1.400 . S
C179 C178 1.387 . S
N180 Co171 2.022 . S
N180 C177 1.351 . S
N180 N181 1.365 . S
N181 C178 1.341 . S
N181 N180 1.365 . S
N181 H201 0.862 . S
C182 C177 1.501 . S
C182 H183 0.961 . S
C182 H184 0.961 . S
C182 H185 0.960 . S
H183 C182 0.961 . S
H184 C182 0.961 . S
H185 C182 0.960 . S
C186 N187 1.342 . S
C186 C190 1.401 . S
C186 C191 1.499 1_455 S
N187 Co170 1.989 . S
N187 C186 1.342 . S
N187 N188 1.388 . S
N188 Co171 1.993 . S
N188 N187 1.388 . S
N188 C189 1.346 . S
C189 N188 1.346 . S
C189 C190 1.396 . S
C189 C199 1.510 . S
C190 C186 1.401 . S
C190 C189 1.396 . S
C191 C186 1.499 1_655 S
C191 H192 0.959 . S
C191 H193 0.960 . S
C191 H194 0.961 . S
H192 C191 0.959 . S
H193 C191 0.960 . S
H194 C191 0.961 . S
O195 Co170 1.967 . S
O195 C203 1.258 . S
O196 Co171 1.941 . S
O196 C203 1.266 . S
H197 C199 0.959 . S
H198 C199 0.961 . S
C199 C189 1.510 . S
C199 H197 0.959 . S
C199 H198 0.961 . S
C199 H200 0.960 . S
H200 C199 0.960 . S
H201 N181 0.862 . S
O202 Co170 1.920 . S
O202 C175 1.289 . S
C203 O195 1.258 . S
C203 O196 1.266 . S
H204 C212 0.950 . S
H205 C217 0.950 . S
H206 C214 0.950 . S
H207 C216 0.950 1_565 S
H208 C218 0.950 . S
H209 C220 0.950 . S
H210 C222 0.950 1_545 S
H211 C223 0.950 . S
C212 H204 0.950 . S
C212 C213 1.386 . S
C212 C214 1.391 . S
C213 C212 1.386 . S
C213 C217 1.393 . S
C214 H206 0.950 . S
C214 C212 1.391 . S
C214 C215 1.400 . S
C215 C214 1.400 . S
C215 C216 1.398 . S
C215 C221 1.491 1_545 S
C216 H207 0.950 1_545 S
C216 C215 1.398 . S
C216 C217 1.391 . S
C217 H205 0.950 . S
C217 C213 1.393 . S
C217 C216 1.391 . S
C218 H208 0.950 . S
C218 C219 1.386 . S
C218 C220 1.391 . S
C219 C218 1.386 . S
C219 C223 1.393 . S
C220 H209 0.950 . S
C220 C218 1.391 . S
C220 C221 1.400 . S
C221 C215 1.491 1_565 S
C221 C220 1.400 . S
C221 C222 1.398 . S
C222 H210 0.950 1_565 S
C222 C221 1.398 . S
C222 C223 1.391 . S
C223 H211 0.950 . S
C223 C219 1.393 . S
C223 C222 1.391 . S
H224 C232 0.950 . S
H225 C237 0.950 . S
H226 C234 0.950 . S
H227 C236 0.950 1_655 S
H228 C238 0.950 . S
H229 C240 0.950 . S
H230 C242 0.950 1_455 S
H231 C243 0.950 . S
C232 H224 0.950 . S
C232 C233 1.386 . S
C232 C234 1.391 . S
C233 C232 1.386 . S
C233 C237 1.393 . S
C234 H226 0.950 . S
C234 C232 1.391 . S
C234 C235 1.400 . S
C235 C234 1.400 . S
C235 C236 1.398 . S
C235 C241 1.491 1_455 S
C236 H227 0.950 1_455 S
C236 C235 1.398 . S
C236 C237 1.391 . S
C237 H225 0.950 . S
C237 C233 1.393 . S
C237 C236 1.391 . S
C238 H228 0.950 . S
C238 C239 1.386 . S
C238 C240 1.391 . S
C239 C238 1.386 . S
C239 C243 1.393 . S
C240 H229 0.950 . S
C240 C238 1.391 . S
C240 C241 1.400 . S
C241 C235 1.491 1_655 S
C241 C240 1.400 . S
C241 C242 1.398 . S
C242 H230 0.950 1_655 S
C242 C241 1.398 . S
C242 C243 1.391 . S
C243 H231 0.950 . S
C243 C239 1.393 . S
C243 C242 1.391 . S
H244 C252 0.950 . S
H245 C257 0.950 . S
H246 C254 0.950 . S
H247 C256 0.950 . S
H248 C258 0.950 . S
H249 C260 0.950 . S
H250 C262 0.950 . S
H251 C263 0.950 . S
C252 H244 0.950 . S
C252 C253 1.386 . S
C252 C254 1.391 . S
C253 C252 1.386 . S
C253 C257 1.393 . S
C254 H246 0.950 . S
C254 C252 1.391 . S
C254 C255 1.400 . S
C255 C254 1.400 . S
C255 C256 1.398 . S
C255 C261 1.491 . S
C256 H247 0.950 . S
C256 C255 1.398 . S
C256 C257 1.391 . S
C257 H245 0.950 . S
C257 C253 1.393 . S
C257 C256 1.391 . S
C258 H248 0.950 . S
C258 C259 1.386 . S
C258 C260 1.391 . S
C259 C258 1.386 . S
C259 C263 1.393 . S
C260 H249 0.950 . S
C260 C258 1.391 . S
C260 C261 1.400 . S
C261 C255 1.491 . S
C261 C260 1.400 . S
C261 C262 1.398 . S
C262 H250 0.950 . S
C262 C261 1.398 . S
C262 C263 1.391 . S
C263 H251 0.950 . S
C263 C259 1.393 . S
C263 C262 1.391 . S
H264 C272 0.950 . S
H265 C277 0.950 . S
H266 C274 0.950 . S
H267 C276 0.950 . S
H268 C278 0.950 . S
H269 C280 0.950 . S
H270 C282 0.950 . S
H271 C283 0.950 . S
C272 H264 0.950 . S
C272 C273 1.386 . S
C272 C274 1.391 . S
C273 C272 1.386 . S
C273 C277 1.393 . S
C274 H266 0.950 . S
C274 C272 1.391 . S
C274 C275 1.400 . S
C275 C274 1.400 . S
C275 C276 1.398 . S
C275 C281 1.491 . S
C276 H267 0.950 . S
C276 C275 1.398 . S
C276 C277 1.391 . S
C277 H265 0.950 . S
C277 C273 1.393 . S
C277 C276 1.391 . S
C278 H268 0.950 . S
C278 C279 1.386 . S
C278 C280 1.391 . S
C279 C278 1.386 . S
C279 C283 1.393 . S
C280 H269 0.950 . S
C280 C278 1.391 . S
C280 C281 1.400 . S
C281 C275 1.491 . S
C281 C280 1.400 . S
C281 C282 1.398 . S
C282 H270 0.950 . S
C282 C281 1.398 . S
C282 C283 1.391 . S
C283 H271 0.950 . S
C283 C279 1.393 . S
C283 C282 1.391 . S
H284 C292 0.950 . S
H285 C297 0.950 . S
H286 C294 0.950 . S
H287 C296 0.950 . S
H288 C298 0.950 . S
H289 C300 0.950 . S
H290 C302 0.950 . S
H291 C303 0.950 . S
C292 H284 0.950 . S
C292 C293 1.386 . S
C292 C294 1.391 . S
C293 C292 1.386 . S
C293 C297 1.393 . S
C294 H286 0.950 . S
C294 C292 1.391 . S
C294 C295 1.400 . S
C295 C294 1.400 . S
C295 C296 1.398 . S
C295 C301 1.491 . S
C296 H287 0.950 . S
C296 C295 1.398 . S
C296 C297 1.391 . S
C297 H285 0.950 . S
C297 C293 1.393 . S
C297 C296 1.391 . S
C298 H288 0.950 . S
C298 C299 1.386 . S
C298 C300 1.391 . S
C299 C298 1.386 . S
C299 C303 1.393 . S
C300 H289 0.950 . S
C300 C298 1.391 . S
C300 C301 1.400 . S
C301 C295 1.491 . S
C301 C300 1.400 . S
C301 C302 1.398 . S
C302 H290 0.950 . S
C302 C301 1.398 . S
C302 C303 1.391 . S
C303 H291 0.950 . S
C303 C299 1.393 . S
C303 C302 1.391 . S
H304 C312 0.950 . S
H305 C317 0.950 . S
H306 C314 0.950 . S
H307 C316 0.950 . S
H308 C318 0.950 . S
H309 C320 0.950 . S
H310 C322 0.950 . S
H311 C323 0.950 . S
C312 H304 0.950 . S
C312 C313 1.386 . S
C312 C314 1.391 . S
C313 C312 1.386 . S
C313 C317 1.393 . S
C314 H306 0.950 . S
C314 C312 1.391 . S
C314 C315 1.400 . S
C315 C314 1.400 . S
C315 C316 1.398 . S
C315 C321 1.491 . S
C316 H307 0.950 . S
C316 C315 1.398 . S
C316 C317 1.391 . S
C317 H305 0.950 . S
C317 C313 1.393 . S
C317 C316 1.391 . S
C318 H308 0.950 . S
C318 C319 1.386 . S
C318 C320 1.391 . S
C319 C318 1.386 . S
C319 C323 1.393 . S
C320 H309 0.950 . S
C320 C318 1.391 . S
C320 C321 1.400 . S
C321 C315 1.491 . S
C321 C320 1.400 . S
C321 C322 1.398 . S
C322 H310 0.950 . S
C322 C321 1.398 . S
C322 C323 1.391 . S
C323 H311 0.950 . S
C323 C319 1.393 . S
C323 C322 1.391 . S
H324 C332 0.950 . S
H325 C337 0.950 . S
H326 C334 0.950 . S
H327 C336 0.950 . S
H328 C338 0.950 . S
H329 C340 0.950 . S
H330 C342 0.950 . S
H331 C343 0.950 . S
C332 H324 0.950 . S
C332 C333 1.386 . S
C332 C334 1.391 . S
C333 C332 1.386 . S
C333 C337 1.393 . S
C334 H326 0.950 . S
C334 C332 1.391 . S
C334 C335 1.400 . S
C335 C334 1.400 . S
C335 C336 1.398 . S
C335 C341 1.491 . S
C336 H327 0.950 . S
C336 C335 1.398 . S
C336 C337 1.391 . S
C337 H325 0.950 . S
C337 C333 1.393 . S
C337 C336 1.391 . S
C338 H328 0.950 . S
C338 C339 1.386 . S
C338 C340 1.391 . S
C339 C338 1.386 . S
C339 C343 1.393 . S
C340 H329 0.950 . S
C340 C338 1.391 . S
C340 C341 1.400 . S
C341 C335 1.491 . S
C341 C340 1.400 . S
C341 C342 1.398 . S
C342 H330 0.950 . S
C342 C341 1.398 . S
C342 C343 1.391 . S
C343 H331 0.950 . S
C343 C339 1.393 . S
C343 C342 1.391 . S
H344 C352 0.950 . S
H345 C357 0.950 . S
H346 C354 0.950 . S
H347 C356 0.950 . S
H348 C358 0.950 . S
H349 C360 0.950 . S
H350 C362 0.950 . S
H351 C363 0.950 . S
C352 H344 0.950 . S
C352 C353 1.386 . S
C352 C354 1.391 . S
C353 C352 1.386 . S
C353 C357 1.393 . S
C354 H346 0.950 . S
C354 C352 1.391 . S
C354 C355 1.400 . S
C355 C354 1.400 . S
C355 C356 1.398 . S
C355 C361 1.491 . S
C356 H347 0.950 . S
C356 C355 1.398 . S
C356 C357 1.391 . S
C357 H345 0.950 . S
C357 C353 1.393 . S
C357 C356 1.391 . S
C358 H348 0.950 . S
C358 C359 1.386 . S
C358 C360 1.391 . S
C359 C358 1.386 . S
C359 C363 1.393 . S
C360 H349 0.950 . S
C360 C358 1.391 . S
C360 C361 1.400 . S
C361 C355 1.491 . S
C361 C360 1.400 . S
C361 C362 1.398 . S
C362 H350 0.950 . S
C362 C361 1.398 . S
C362 C363 1.391 . S
C363 H351 0.950 . S
C363 C359 1.393 . S
C363 C362 1.391 . S
H364 C372 0.950 . S
H365 C377 0.950 . S
H366 C374 0.950 . S
H367 C376 0.950 . S
H368 C378 0.950 . S
H369 C380 0.950 . S
H370 C382 0.950 . S
H371 C383 0.950 . S
C372 H364 0.950 . S
C372 C373 1.386 . S
C372 C374 1.391 . S
C373 C372 1.386 . S
C373 C377 1.393 . S
C374 H366 0.950 . S
C374 C372 1.391 . S
C374 C375 1.400 . S
C375 C374 1.400 . S
C375 C376 1.398 . S
C375 C381 1.491 . S
C376 H367 0.950 . S
C376 C375 1.398 . S
C376 C377 1.391 . S
C377 H365 0.950 . S
C377 C373 1.393 . S
C377 C376 1.391 . S
C378 H368 0.950 . S
C378 C379 1.386 . S
C378 C380 1.391 . S
C379 C378 1.386 . S
C379 C383 1.393 . S
C380 H369 0.950 . S
C380 C378 1.391 . S
C380 C381 1.400 . S
C381 C375 1.491 . S
C381 C380 1.400 . S
C381 C382 1.398 . S
C382 H370 0.950 . S
C382 C381 1.398 . S
C382 C383 1.391 . S
C383 H371 0.950 . S
C383 C379 1.393 . S
C383 C382 1.391 . S
H384 C392 0.950 . S
H385 C397 0.950 . S
H386 C394 0.950 . S
H387 C396 0.950 . S
H388 C398 0.950 . S
H389 C400 0.950 . S
H390 C402 0.950 . S
H391 C403 0.950 . S
C392 H384 0.950 . S
C392 C393 1.386 . S
C392 C394 1.391 . S
C393 C392 1.386 . S
C393 C397 1.393 . S
C394 H386 0.950 . S
C394 C392 1.391 . S
C394 C395 1.400 1_565 S
C395 C394 1.400 1_545 S
C395 C396 1.398 . S
C395 C401 1.491 . S
C396 H387 0.950 . S
C396 C395 1.398 . S
C396 C397 1.391 1_545 S
C397 H385 0.950 . S
C397 C393 1.393 . S
C397 C396 1.391 1_565 S
C398 H388 0.950 . S
C398 C399 1.386 . S
C398 C400 1.391 . S
C399 C398 1.386 . S
C399 C403 1.393 . S
C400 H389 0.950 . S
C400 C398 1.391 . S
C400 C401 1.400 . S
C401 C395 1.491 . S
C401 C400 1.400 . S
C401 C402 1.398 . S
C402 H390 0.950 . S
C402 C401 1.398 . S
C402 C403 1.391 . S
C403 H391 0.950 . S
C403 C399 1.393 . S
C403 C402 1.391 . S
H404 C412 0.950 . S
H405 C417 0.950 . S
H406 C414 0.950 . S
H407 C416 0.942 1_554 S
H408 C418 0.950 . S
H409 C420 0.950 . S
H410 C422 0.950 . S
H411 C423 0.950 . S
C412 H404 0.950 . S
C412 C413 1.386 . S
C412 C414 1.391 . S
C413 C412 1.386 . S
C413 C417 1.393 . S
C414 H406 0.950 . S
C414 C412 1.391 . S
C414 C415 1.400 . S
C415 C414 1.400 . S
C415 C416 1.398 . S
C415 C421 1.491 1_556 S
C416 H407 0.942 1_556 S
C416 C415 1.398 . S
C416 C417 1.391 . S
C417 H405 0.950 . S
C417 C413 1.393 . S
C417 C416 1.391 . S
C418 H408 0.950 . S
C418 C419 1.386 1_655 S
C418 C420 1.391 . S
C419 C418 1.386 1_455 S
C419 C423 1.393 . S
C420 H409 0.950 . S
C420 C418 1.391 . S
C420 C421 1.400 . S
C421 C415 1.491 1_554 S
C421 C420 1.400 . S
C421 C422 1.398 1_655 S
C422 H410 0.950 . S
C422 C421 1.398 1_455 S
C422 C423 1.391 . S
C423 H411 0.950 . S
C423 C419 1.393 . S
C423 C422 1.391 . S
H424 C432 0.950 . S
H425 C437 0.950 . S
H426 C434 0.950 . S
H427 C436 0.950 . S
H428 C438 0.950 . S
H429 C440 0.950 . S
H430 C442 0.950 . S
H431 C443 0.950 . S
C432 H424 0.950 . S
C432 C433 1.386 . S
C432 C434 1.391 . S
C433 C432 1.386 . S
C433 C437 1.393 . S
C434 H426 0.950 . S
C434 C432 1.391 . S
C434 C435 1.400 . S
C435 C434 1.400 . S
C435 C436 1.398 . S
C435 C441 1.491 . S
C436 H427 0.950 . S
C436 C435 1.398 . S
C436 C437 1.391 . S
C437 H425 0.950 . S
C437 C433 1.393 . S
C437 C436 1.391 . S
C438 H428 0.950 . S
C438 C439 1.386 . S
C438 C440 1.391 . S
C439 C438 1.386 . S
C439 C443 1.393 . S
C440 H429 0.950 . S
C440 C438 1.391 . S
C440 C441 1.400 . S
C441 C435 1.491 . S
C441 C440 1.400 . S
C441 C442 1.398 . S
C442 H430 0.950 . S
C442 C441 1.398 . S
C442 C443 1.391 . S
C443 H431 0.950 . S
C443 C439 1.393 . S
C443 C442 1.391 . S
H444 C452 0.950 . S
H445 C457 0.950 . S
H446 C454 0.950 . S
H447 C456 0.950 . S
H448 C458 0.954 . S
H449 C460 0.950 . S
H450 C462 0.950 . S
H451 C463 0.950 . S
C452 H444 0.950 . S
C452 C453 1.386 . S
C452 C454 1.391 . S
C453 C452 1.386 . S
C453 C457 1.393 . S
C454 H446 0.950 . S
C454 C452 1.391 . S
C454 C455 1.400 . S
C455 C454 1.400 . S
C455 C456 1.398 . S
C455 C461 1.491 . S
C456 H447 0.950 . S
C456 C455 1.398 . S
C456 C457 1.391 . S
C457 H445 0.950 . S
C457 C453 1.393 . S
C457 C456 1.391 . S
C458 H448 0.954 . S
C458 C459 1.386 . S
C458 C460 1.391 1_655 S
C459 C458 1.386 . S
C459 C463 1.393 . S
C460 H449 0.950 . S
C460 C458 1.391 1_455 S
C460 C461 1.400 . S
C461 C455 1.491 . S
C461 C460 1.400 . S
C461 C462 1.398 1_455 S
C462 H450 0.950 . S
C462 C461 1.398 1_655 S
C462 C463 1.391 . S
C463 H451 0.950 . S
C463 C459 1.393 . S
C463 C462 1.391 . S
H464 C472 0.950 . S
H465 C477 0.950 . S
H466 C474 0.950 . S
H467 C476 0.950 . S
H468 C478 0.950 . S
H469 C480 0.950 . S
H470 C482 0.950 . S
H471 C483 0.950 . S
C472 H464 0.950 . S
C472 C473 1.386 . S
C472 C474 1.391 . S
C473 C472 1.386 . S
C473 C477 1.393 . S
C474 H466 0.950 . S
C474 C472 1.391 . S
C474 C475 1.400 . S
C475 C474 1.400 . S
C475 C476 1.398 . S
C475 C481 1.491 . S
C476 H467 0.950 . S
C476 C475 1.398 . S
C476 C477 1.391 . S
C477 H465 0.950 . S
C477 C473 1.393 . S
C477 C476 1.391 . S
C478 H468 0.950 . S
C478 C479 1.386 . S
C478 C480 1.391 . S
C479 C478 1.386 . S
C479 C483 1.393 . S
C480 H469 0.950 . S
C480 C478 1.391 . S
C480 C481 1.400 . S
C481 C475 1.491 . S
C481 C480 1.400 . S
C481 C482 1.398 . S
C482 H470 0.950 . S
C482 C481 1.398 . S
C482 C483 1.391 . S
C483 H471 0.950 . S
C483 C479 1.393 . S
C483 C482 1.391 . S
H484 C492 0.950 . S
H485 C497 0.950 . S
H486 C494 0.950 . S
H487 C496 0.950 . S
H488 C498 0.950 . S
H489 C500 0.950 . S
H490 C502 0.982 . S
H491 C503 0.950 . S
C492 H484 0.950 . S
C492 C493 1.386 . S
C492 C494 1.391 . S
C493 C492 1.386 . S
C493 C497 1.393 1_545 S
C494 H486 0.950 . S
C494 C492 1.391 . S
C494 C495 1.400 1_545 S
C495 C494 1.400 1_565 S
C495 C496 1.398 . S
C495 C501 1.491 1_556 S
C496 H487 0.950 . S
C496 C495 1.398 . S
C496 C497 1.391 . S
C497 H485 0.950 . S
C497 C493 1.393 1_565 S
C497 C496 1.391 . S
C498 H488 0.950 . S
C498 C499 1.386 . S
C498 C500 1.391 . S
C499 C498 1.386 . S
C499 C503 1.393 . S
C500 H489 0.950 . S
C500 C498 1.391 . S
C500 C501 1.400 . S
C501 C495 1.491 1_554 S
C501 C500 1.400 . S
C501 C502 1.398 . S
C502 H490 0.982 . S
C502 C501 1.398 . S
C502 C503 1.391 . S
C503 H491 0.950 . S
C503 C499 1.393 . S
C503 C502 1.391 . S
C213 C2 1.959 . S
C219 C172 1.961 . S
C233 C104 1.957 . S
C239 C36 1.959 . S
C253 C138 1.958 . S
C259 C70 1.960 . S
C273 C203 1.512 . S
C279 C5 1.491 . S
C293 C135 1.511 . S
C299 C39 1.504 1_565 S
C313 C73 1.492 1_455 S
C319 C169 1.510 . S
C333 C67 1.511 . S
C339 C107 1.490 . S
C353 C101 1.509 . S
C359 C141 1.496 1_545 S
C373 C175 1.499 1_655 S
C379 C33 1.509 . S
C393 C156 1.300 . S
C399 C9 1.250 . S
C413 C43 1.263 . S
C419 C190 1.301 . S
C433 C122 1.301 . S
C439 C77 1.273 . S
C453 C111 1.251 . S
C459 C88 1.300 . S
C473 C20 1.301 . S
C479 C145 1.261 . S
C493 C54 1.302 . S
C499 C179 1.272 . S
