# Generated by pormake.
# Topology gis, (4)-cn, num edge types: 1
# Building blocks:
#     Node 0, Type 0, BuildingBlock: TATPOV_clean_sbu_0, # of connection points: 4
#     Node 1, Type 0, BuildingBlock: TATPOV_clean_sbu_0, # of connection points: 4
#     Node 2, Type 0, BuildingBlock: TATPOV_clean_sbu_0, # of connection points: 4
#     Node 3, Type 0, BuildingBlock: TATPOV_clean_sbu_0, # of connection points: 4
#     Node 4, Type 0, BuildingBlock: TATPOV_clean_sbu_0, # of connection points: 4
#     Node 5, Type 0, BuildingBlock: TATPOV_clean_sbu_0, # of connection points: 4
#     Node 6, Type 0, BuildingBlock: TATPOV_clean_sbu_0, # of connection points: 4
#     Node 7, Type 0, BuildingBlock: TATPOV_clean_sbu_0, # of connection points: 4
#     Node 8, Type 0, BuildingBlock: TATPOV_clean_sbu_0, # of connection points: 4
#     Node 9, Type 0, BuildingBlock: TATPOV_clean_sbu_0, # of connection points: 4
#     Node 10, Type 0, BuildingBlock: TATPOV_clean_sbu_0, # of connection points: 4
#     Node 11, Type 0, BuildingBlock: TATPOV_clean_sbu_0, # of connection points: 4
#     Node 12, Type 0, BuildingBlock: TATPOV_clean_sbu_0, # of connection points: 4
#     Node 13, Type 0, BuildingBlock: TATPOV_clean_sbu_0, # of connection points: 4
#     Node 14, Type 0, BuildingBlock: TATPOV_clean_sbu_0, # of connection points: 4
#     Node 15, Type 0, BuildingBlock: TATPOV_clean_sbu_0, # of connection points: 4
#     Edge 16, Type (0, 0), BuildingBlock: UVAHIK_clean_linker_0, # of connection points: 2
#     Edge 17, Type (0, 0), BuildingBlock: UVAHIK_clean_linker_0, # of connection points: 2
#     Edge 18, Type (0, 0), BuildingBlock: UVAHIK_clean_linker_0, # of connection points: 2
#     Edge 19, Type (0, 0), BuildingBlock: UVAHIK_clean_linker_0, # of connection points: 2
#     Edge 20, Type (0, 0), BuildingBlock: UVAHIK_clean_linker_0, # of connection points: 2
#     Edge 21, Type (0, 0), BuildingBlock: UVAHIK_clean_linker_0, # of connection points: 2
#     Edge 22, Type (0, 0), BuildingBlock: UVAHIK_clean_linker_0, # of connection points: 2
#     Edge 23, Type (0, 0), BuildingBlock: UVAHIK_clean_linker_0, # of connection points: 2
#     Edge 24, Type (0, 0), BuildingBlock: UVAHIK_clean_linker_0, # of connection points: 2
#     Edge 25, Type (0, 0), BuildingBlock: UVAHIK_clean_linker_0, # of connection points: 2
#     Edge 26, Type (0, 0), BuildingBlock: UVAHIK_clean_linker_0, # of connection points: 2
#     Edge 27, Type (0, 0), BuildingBlock: UVAHIK_clean_linker_0, # of connection points: 2
#     Edge 28, Type (0, 0), BuildingBlock: UVAHIK_clean_linker_0, # of connection points: 2
#     Edge 29, Type (0, 0), BuildingBlock: UVAHIK_clean_linker_0, # of connection points: 2
#     Edge 30, Type (0, 0), BuildingBlock: UVAHIK_clean_linker_0, # of connection points: 2
#     Edge 31, Type (0, 0), BuildingBlock: UVAHIK_clean_linker_0, # of connection points: 2
#     Edge 32, Type (0, 0), BuildingBlock: UVAHIK_clean_linker_0, # of connection points: 2
#     Edge 33, Type (0, 0), BuildingBlock: UVAHIK_clean_linker_0, # of connection points: 2
#     Edge 34, Type (0, 0), BuildingBlock: UVAHIK_clean_linker_0, # of connection points: 2
#     Edge 35, Type (0, 0), BuildingBlock: UVAHIK_clean_linker_0, # of connection points: 2
#     Edge 36, Type (0, 0), BuildingBlock: UVAHIK_clean_linker_0, # of connection points: 2
#     Edge 37, Type (0, 0), BuildingBlock: UVAHIK_clean_linker_0, # of connection points: 2
#     Edge 38, Type (0, 0), BuildingBlock: UVAHIK_clean_linker_0, # of connection points: 2
#     Edge 39, Type (0, 0), BuildingBlock: UVAHIK_clean_linker_0, # of connection points: 2
#     Edge 40, Type (0, 0), BuildingBlock: UVAHIK_clean_linker_0, # of connection points: 2
#     Edge 41, Type (0, 0), BuildingBlock: UVAHIK_clean_linker_0, # of connection points: 2
#     Edge 42, Type (0, 0), BuildingBlock: UVAHIK_clean_linker_0, # of connection points: 2
#     Edge 43, Type (0, 0), BuildingBlock: UVAHIK_clean_linker_0, # of connection points: 2
#     Edge 44, Type (0, 0), BuildingBlock: UVAHIK_clean_linker_0, # of connection points: 2
#     Edge 45, Type (0, 0), BuildingBlock: UVAHIK_clean_linker_0, # of connection points: 2
#     Edge 46, Type (0, 0), BuildingBlock: UVAHIK_clean_linker_0, # of connection points: 2
#     Edge 47, Type (0, 0), BuildingBlock: UVAHIK_clean_linker_0, # of connection points: 2
# Relax obj value: 0.142
# Max RMSD: 0.160
# Mean RMSD: 0.140
data_MOF--net-gis--node1-TATPOV_clean_sbu_0--edge1-UVAHIK_clean_linker_0
_symmetry_space_group_name_H-M    P1
_symmetry_Int_Tables_number       1
_symmetry_cell_setting            triclinic
loop_
_symmetry_equiv_pos_as_xyz
'x, y, z'
_cell_length_a     60.517681
_cell_length_b     60.522829
_cell_length_c     60.360937
_cell_angle_alpha  91.507286
_cell_angle_beta   91.517572
_cell_angle_gamma 90.022083
loop_
_atom_site_label
_atom_site_type_symbol
_atom_site_fract_x
_atom_site_fract_y
_atom_site_fract_z
_atom_type_partial_charge
Zn0 Zn 0.14613 0.62802 0.06727 0.0
Zn1 Zn 0.15822 0.61615 0.10846 0.0
O2 O 0.17828 0.59806 0.08772 0.0
O3 O 0.17144 0.61064 0.05433 0.0
O4 O 0.16817 0.60652 0.13883 0.0
O5 O 0.15024 0.65997 0.07668 0.0
O6 O 0.16218 0.65006 0.10974 0.0
C7 C 0.18221 0.59807 0.06709 0.0
C8 C 0.11162 0.60589 0.09071 0.0
O9 O 0.12588 0.6065 0.1066 0.0
O10 O 0.11645 0.61322 0.07195 0.0
C11 C 0.16946 0.58598 0.14257 0.0
O12 O 0.16416 0.57165 0.12657 0.0
C13 C 0.15768 0.66512 0.09594 0.0
Zn14 Zn 0.67763 0.88056 0.45235 0.0
Zn15 Zn 0.6907 0.89427 0.41254 0.0
O16 O 0.70497 0.91636 0.43518 0.0
O17 O 0.6973 0.90339 0.46784 0.0
O18 O 0.70268 0.90376 0.38332 0.0
O19 O 0.68855 0.84967 0.44561 0.0
O20 O 0.69894 0.86119 0.41321 0.0
C21 C 0.70647 0.91776 0.45628 0.0
C22 C 0.642 0.89659 0.42342 0.0
O23 O 0.6574 0.89895 0.4097 0.0
O24 O 0.64635 0.88937 0.44259 0.0
C25 C 0.69399 0.91904 0.37195 0.0
O26 O 0.67643 0.92933 0.37932 0.0
C27 C 0.69696 0.84569 0.42694 0.0
Zn28 Zn 0.34043 0.40182 0.57716 0.0
Zn29 Zn 0.32462 0.41254 0.617 0.0
O30 O 0.31143 0.43697 0.59711 0.0
O31 O 0.32173 0.42575 0.56388 0.0
O32 O 0.31084 0.41717 0.64687 0.0
O33 O 0.3283 0.37098 0.57766 0.0
O34 O 0.31481 0.38022 0.61007 0.0
C35 C 0.31141 0.43926 0.57616 0.0
C36 C 0.3743 0.41497 0.60998 0.0
O37 O 0.35802 0.4166 0.62291 0.0
O38 O 0.37108 0.40918 0.58981 0.0
C39 C 0.30355 0.43502 0.65552 0.0
O40 O 0.30533 0.45356 0.64486 0.0
C41 C 0.31736 0.366 0.59439 0.0
Zn42 Zn 0.87168 0.07646 0.81573 0.0
Zn43 Zn 0.85531 0.06717 0.85611 0.0
O44 O 0.83395 0.05151 0.83365 0.0
O45 O 0.84714 0.05859 0.80094 0.0
O46 O 0.84266 0.06131 0.88612 0.0
O47 O 0.89985 0.06123 0.82527 0.0
O48 O 0.88682 0.05439 0.85815 0.0
C49 C 0.83274 0.04956 0.81257 0.0
C50 C 0.8591 0.11521 0.84097 0.0
O51 O 0.85416 0.10085 0.85508 0.0
O52 O 0.86703 0.10918 0.82256 0.0
C53 C 0.8223 0.05711 0.88868 0.0
O54 O 0.80877 0.05618 0.87132 0.0
C55 C 0.90238 0.05321 0.84434 0.0
Zn56 Zn 0.17372 0.37731 0.94287 0.0
Zn57 Zn 0.18226 0.38804 0.90105 0.0
O58 O 0.19975 0.41063 0.92084 0.0
O59 O 0.19615 0.39941 0.95498 0.0
O60 O 0.19208 0.39462 0.8702 0.0
O61 O 0.1826 0.34567 0.93735 0.0
O62 O 0.18961 0.3548 0.9032 0.0
C63 C 0.20425 0.4127 0.94154 0.0
C64 C 0.13551 0.39333 0.91673 0.0
O65 O 0.14902 0.39419 0.90094 0.0
O66 O 0.14211 0.38717 0.93573 0.0
C67 C 0.19391 0.41404 0.86291 0.0
O68 O 0.18846 0.43103 0.87562 0.0
C69 C 0.18887 0.3403 0.91812 0.0
Zn70 Zn 0.81959 0.90792 0.08115 0.0
Zn71 Zn 0.80813 0.92514 0.12057 0.0
O72 O 0.79347 0.9464 0.09815 0.0
O73 O 0.79981 0.92976 0.06602 0.0
O74 O 0.79825 0.93521 0.15085 0.0
O75 O 0.80777 0.87799 0.08816 0.0
O76 O 0.79852 0.89237 0.12044 0.0
C77 C 0.79124 0.94544 0.07707 0.0
C78 C 0.85651 0.9253 0.10818 0.0
O79 O 0.84162 0.92922 0.12227 0.0
O80 O 0.8514 0.91656 0.08941 0.0
C81 C 0.77903 0.94266 0.15456 0.0
O82 O 0.76512 0.94555 0.13781 0.0
C83 C 0.79939 0.87586 0.10695 0.0
Zn84 Zn 0.35545 0.5807 0.31934 0.0
Zn85 Zn 0.34096 0.58049 0.36047 0.0
O86 O 0.31572 0.56719 0.33997 0.0
O87 O 0.32938 0.56432 0.30656 0.0
O88 O 0.33012 0.57698 0.39183 0.0
O89 O 0.38259 0.56397 0.32741 0.0
O90 O 0.37182 0.56498 0.36197 0.0
C91 C 0.31371 0.56132 0.31956 0.0
C92 C 0.34964 0.62454 0.33977 0.0
O93 O 0.3438 0.61391 0.35661 0.0
O94 O 0.35508 0.61418 0.32221 0.0
C95 C 0.31107 0.56958 0.39618 0.0
O96 O 0.29701 0.56475 0.37983 0.0
C97 C 0.38602 0.55951 0.34755 0.0
Zn98 Zn 0.61734 0.11481 0.67407 0.0
Zn99 Zn 0.63817 0.10123 0.63704 0.0
O100 O 0.65294 0.08433 0.66274 0.0
O101 O 0.63699 0.09605 0.69321 0.0
O102 O 0.65413 0.08964 0.6101 0.0
O103 O 0.58927 0.10152 0.66142 0.0
O104 O 0.60552 0.09313 0.63004 0.0
C105 C 0.65103 0.08386 0.6837 0.0
C106 C 0.63729 0.15028 0.64998 0.0
O107 O 0.64404 0.13462 0.63738 0.0
O108 O 0.62554 0.14614 0.66645 0.0
C109 C 0.67415 0.08331 0.61148 0.0
O110 O 0.68494 0.08501 0.63061 0.0
C111 C 0.5883 0.09373 0.64176 0.0
Zn112 Zn 0.86568 0.3794 0.93274 0.0
Zn113 Zn 0.85512 0.39489 0.89244 0.0
O114 O 0.83523 0.41176 0.9147 0.0
O115 O 0.84328 0.39863 0.94756 0.0
O116 O 0.84496 0.40682 0.86279 0.0
O117 O 0.8571 0.34882 0.92198 0.0
O118 O 0.84951 0.36133 0.88869 0.0
C119 C 0.83215 0.41156 0.93552 0.0
C120 C 0.90241 0.39978 0.91087 0.0
O121 O 0.88828 0.4025 0.89513 0.0
O122 O 0.89671 0.39073 0.92855 0.0
C123 C 0.8378 0.42651 0.86121 0.0
O124 O 0.83805 0.4396 0.87891 0.0
C125 C 0.85088 0.34534 0.90201 0.0
Zn126 Zn 0.32378 0.10604 0.54515 0.0
Zn127 Zn 0.31352 0.09072 0.5854 0.0
O128 O 0.29914 0.06804 0.56325 0.0
O129 O 0.30586 0.08148 0.53056 0.0
O130 O 0.30697 0.07937 0.6158 0.0
O131 O 0.30943 0.13499 0.55329 0.0
O132 O 0.30134 0.12269 0.58613 0.0
C133 C 0.29738 0.06672 0.54217 0.0
C134 C 0.36187 0.09354 0.57133 0.0
O135 O 0.34718 0.08924 0.58531 0.0
O136 O 0.3563 0.10098 0.55258 0.0
C137 C 0.29163 0.0657 0.61951 0.0
O138 O 0.27873 0.0586 0.60298 0.0
C139 C 0.30109 0.13813 0.57213 0.0
Zn140 Zn 0.65106 0.58695 0.3261 0.0
Zn141 Zn 0.66578 0.57066 0.36424 0.0
O142 O 0.68636 0.55614 0.34088 0.0
O143 O 0.67224 0.56802 0.30936 0.0
O144 O 0.67513 0.55668 0.39303 0.0
O145 O 0.62047 0.57556 0.33052 0.0
O146 O 0.63242 0.56251 0.36236 0.0
C147 C 0.68636 0.55654 0.31974 0.0
C148 C 0.66921 0.62027 0.35673 0.0
O149 O 0.67197 0.60392 0.36942 0.0
O150 O 0.66069 0.61731 0.33748 0.0
C151 C 0.665 0.56237 0.41047 0.0
O152 O 0.64975 0.57777 0.40919 0.0
C153 C 0.61684 0.5654 0.3481 0.0
Zn154 Zn 0.11871 0.92685 0.19599 0.0
Zn155 Zn 0.1333 0.94034 0.15649 0.0
O156 O 0.15379 0.95601 0.17959 0.0
O157 O 0.14197 0.94573 0.2119 0.0
O158 O 0.14261 0.95327 0.12766 0.0
O159 O 0.08823 0.93881 0.18923 0.0
O160 O 0.10006 0.94764 0.15646 0.0
C161 C 0.15541 0.95659 0.20069 0.0
C162 C 0.13523 0.8915 0.16685 0.0
O163 O 0.13931 0.9071 0.15377 0.0
O164 O 0.12637 0.89565 0.18531 0.0
C165 C 0.15769 0.94575 0.11527 0.0
O166 O 0.16853 0.92789 0.12098 0.0
C167 C 0.08447 0.94643 0.17017 0.0
Zn168 Zn 0.8447 0.62091 0.07654 0.0
Zn169 Zn 0.83429 0.60258 0.11412 0.0
O170 O 0.81604 0.5847 0.09048 0.0
O171 O 0.82091 0.6033 0.06015 0.0
O172 O 0.82538 0.58983 0.14304 0.0
O173 O 0.8385 0.65123 0.08909 0.0
O174 O 0.8256 0.63543 0.11855 0.0
C175 C 0.8118 0.58761 0.06996 0.0
C176 C 0.88146 0.59903 0.09754 0.0
O177 O 0.8678 0.59651 0.113 0.0
O178 O 0.8753 0.60817 0.07978 0.0
C179 C 0.82606 0.5694 0.14743 0.0
O180 O 0.83311 0.55515 0.13243 0.0
C181 C 0.82924 0.65273 0.10761 0.0
Zn182 Zn 0.15752 0.07727 0.82593 0.0
Zn183 Zn 0.17526 0.0617 0.86344 0.0
O184 O 0.19608 0.04847 0.83967 0.0
O185 O 0.17918 0.05909 0.8089 0.0
O186 O 0.18545 0.04906 0.89263 0.0
O187 O 0.1279 0.06425 0.83167 0.0
O188 O 0.1427 0.05104 0.86225 0.0
C189 C 0.19461 0.04866 0.81854 0.0
C190 C 0.17475 0.11155 0.85572 0.0
O191 O 0.1792 0.09529 0.86807 0.0
O192 O 0.16562 0.10823 0.83679 0.0
C193 C 0.17526 0.05623 0.90953 0.0
O194 O 0.16036 0.0718 0.9069 0.0
C195 C 0.12612 0.05324 0.84904 0.0
Zn196 Zn 0.64051 0.41304 0.69269 0.0
Zn197 Zn 0.65037 0.42838 0.65335 0.0
O198 O 0.67438 0.44125 0.67533 0.0
O199 O 0.66289 0.43272 0.70834 0.0
O200 O 0.65608 0.44399 0.62487 0.0
O201 O 0.60868 0.4223 0.68995 0.0
O202 O 0.61722 0.43541 0.65765 0.0
C203 C 0.6767 0.4422 0.69641 0.0
C204 C 0.65514 0.37955 0.66024 0.0
O205 O 0.65527 0.39542 0.6468 0.0
O206 O 0.6502 0.38304 0.68033 0.0
C207 C 0.67002 0.43828 0.61041 0.0
O208 O 0.68229 0.42068 0.61355 0.0
C209 C 0.60295 0.43189 0.67234 0.0
Zn210 Zn 0.38715 0.90055 0.31251 0.0
Zn211 Zn 0.3693 0.90721 0.3528 0.0
O212 O 0.35089 0.92658 0.33185 0.0
O213 O 0.36594 0.92266 0.29919 0.0
O214 O 0.35588 0.91411 0.38228 0.0
O215 O 0.41677 0.91066 0.32531 0.0
O216 O 0.40199 0.9154 0.35803 0.0
C217 C 0.35146 0.93131 0.31143 0.0
C218 C 0.36901 0.86095 0.33188 0.0
O219 O 0.36453 0.87406 0.34799 0.0
O220 O 0.37823 0.86822 0.3149 0.0
C221 C 0.33545 0.91094 0.38545 0.0
O222 O 0.32301 0.90226 0.3693 0.0
C223 C 0.41876 0.91593 0.34572 0.0
C224 C 0.15489 0.86333 0.14328 0.0
C225 C 0.14023 0.86833 0.16039 0.0
C226 C 0.15909 0.84132 0.13701 0.0
C227 C 0.13277 0.78777 0.1342 0.0
H228 H 0.19154 0.7626 0.12994 0.0
C229 C 0.17022 0.69551 0.12266 0.0
C230 C 0.15937 0.68877 0.10272 0.0
C231 C 0.17007 0.71778 0.12964 0.0
C232 C 0.17508 0.76949 0.13112 0.0
H233 H 0.11861 0.85419 0.18442 0.0
H234 H 0.12552 0.81591 0.17303 0.0
H235 H 0.18712 0.80132 0.14253 0.0
H236 H 0.14035 0.70022 0.07423 0.0
H237 H 0.13973 0.73878 0.0867 0.0
H238 H 0.12069 0.75625 0.12239 0.0
C239 C 0.13389 0.829 0.16467 0.0
C240 C 0.17256 0.79156 0.13817 0.0
C241 C 0.13001 0.85091 0.17119 0.0
C242 C 0.14888 0.7048 0.08967 0.0
C243 C 0.14843 0.72688 0.09681 0.0
C244 C 0.1353 0.76593 0.12677 0.0
C245 C 0.14837 0.82401 0.14746 0.0
C246 C 0.15136 0.80082 0.13985 0.0
C247 C 0.15875 0.73352 0.11697 0.0
C248 C 0.15644 0.7566 0.12518 0.0
H249 H 0.16309 0.8764 0.13472 0.0
H250 H 0.17023 0.83784 0.1236 0.0
H251 H 0.11627 0.79459 0.13526 0.0
H252 H 0.17849 0.68356 0.13304 0.0
H253 H 0.17809 0.72257 0.14529 0.0
C254 C 0.45921 0.92281 0.34172 0.0
C255 C 0.44099 0.92072 0.35549 0.0
C256 C 0.48062 0.92442 0.35082 0.0
C257 C 0.51245 0.90689 0.39928 0.0
H258 H 0.55869 0.94322 0.37583 0.0
C259 C 0.60229 0.90223 0.43281 0.0
C260 C 0.61896 0.90232 0.41704 0.0
C261 C 0.58048 0.90734 0.42676 0.0
C262 C 0.54599 0.93285 0.38245 0.0
H263 H 0.43088 0.91987 0.38969 0.0
H264 H 0.46835 0.92265 0.40555 0.0
H265 H 0.52047 0.94804 0.36283 0.0
H266 H 0.62583 0.90808 0.38256 0.0
H267 H 0.58772 0.91643 0.37189 0.0
H268 H 0.53789 0.89115 0.41832 0.0
C269 C 0.46602 0.92284 0.3877 0.0
C270 C 0.52411 0.93569 0.37506 0.0
C271 C 0.44456 0.92137 0.37861 0.0
C272 C 0.61339 0.90787 0.39513 0.0
C273 C 0.59155 0.91285 0.38905 0.0
C274 C 0.53431 0.90397 0.40657 0.0
C275 C 0.48429 0.92387 0.37387 0.0
C276 C 0.50716 0.92254 0.38321 0.0
C277 C 0.5748 0.91251 0.40476 0.0
C278 C 0.5514 0.91671 0.39804 0.0
H279 H 0.45704 0.92246 0.32385 0.0
H280 H 0.49437 0.92503 0.33972 0.0
H281 H 0.49981 0.89625 0.4056 0.0
H282 H 0.60605 0.89823 0.44988 0.0
H283 H 0.56808 0.90726 0.43936 0.0
C284 C 0.30526 0.3303 0.57633 0.0
C285 C 0.308 0.3435 0.59569 0.0
C286 C 0.2977 0.30859 0.5774 0.0
C287 C 0.27203 0.2662 0.58333 0.0
H288 H 0.30696 0.22858 0.62167 0.0
C289 C 0.29059 0.1673 0.60042 0.0
C290 C 0.29286 0.16048 0.57815 0.0
C291 C 0.28623 0.18951 0.60591 0.0
C292 C 0.2966 0.23884 0.61126 0.0
H293 H 0.30454 0.34442 0.63138 0.0
H294 H 0.29177 0.30604 0.63328 0.0
H295 H 0.31077 0.26865 0.62536 0.0
H296 H 0.29082 0.17124 0.54416 0.0
H297 H 0.28342 0.2096 0.55362 0.0
H298 H 0.25838 0.23648 0.56871 0.0
C299 C 0.29533 0.31271 0.61728 0.0
C300 C 0.29884 0.26182 0.61336 0.0
C301 C 0.30257 0.33464 0.61617 0.0
C302 C 0.28931 0.17596 0.56149 0.0
C303 C 0.28486 0.198 0.56694 0.0
C304 C 0.26966 0.24328 0.58135 0.0
C305 C 0.29297 0.29944 0.59789 0.0
C306 C 0.28723 0.27566 0.5988 0.0
C307 C 0.28384 0.2052 0.58921 0.0
C308 C 0.28262 0.22929 0.59464 0.0
H309 H 0.3092 0.33666 0.56029 0.0
H310 H 0.29634 0.29869 0.56221 0.0
H311 H 0.2626 0.27653 0.57215 0.0
H312 H 0.29321 0.15576 0.61364 0.0
H313 H 0.28533 0.1945 0.62323 0.0
C314 C 0.08926 0.03876 0.83662 0.0
C315 C 0.10449 0.04353 0.85402 0.0
C316 C 0.06796 0.03168 0.84103 0.0
C317 C 0.02605 0.03983 0.88131 0.0
H318 H 0.99403 0.99774 0.843 0.0
C319 C 0.93088 0.04164 0.87283 0.0
C320 C 0.92393 0.04331 0.85052 0.0
C321 C 0.95246 0.03484 0.87822 0.0
C322 C 0.00274 0.0094 0.854 0.0
H323 H 0.10971 0.04393 0.8897 0.0
H324 H 0.07192 0.03208 0.8975 0.0
H325 H 0.03438 0.99797 0.84356 0.0
H326 H 0.93356 0.03778 0.81646 0.0
H327 H 0.97085 0.02601 0.82576 0.0
H328 H 0.99443 0.05235 0.89055 0.0
C329 C 0.0767 0.0336 0.88044 0.0
C330 C 0.0258 0.00949 0.85435 0.0
C331 C 0.09826 0.04032 0.87597 0.0
C332 C 0.93846 0.03684 0.83381 0.0
C333 C 0.95981 0.02984 0.83916 0.0
C334 C 0.00293 0.03981 0.88089 0.0
C335 C 0.06128 0.02951 0.86298 0.0
C336 C 0.03764 0.02542 0.86718 0.0
C337 C 0.96726 0.02927 0.86139 0.0
C338 C 0.99107 0.02533 0.86637 0.0
H339 H 0.09364 0.04096 0.81953 0.0
H340 H 0.05637 0.02897 0.82724 0.0
H341 H 0.03475 0.05236 0.89128 0.0
H342 H 0.92001 0.04651 0.88606 0.0
H343 H 0.95774 0.03449 0.89549 0.0
C344 C 0.1958 0.30143 0.92963 0.0
C345 C 0.19362 0.31681 0.91267 0.0
C346 C 0.19778 0.27888 0.92454 0.0
C347 C 0.20787 0.23833 0.87835 0.0
H348 H 0.17275 0.19961 0.91365 0.0
C349 C 0.17923 0.1517 0.84814 0.0
C350 C 0.18021 0.13443 0.86326 0.0
C351 C 0.18391 0.1734 0.85511 0.0
C352 C 0.18291 0.21014 0.90384 0.0
H353 H 0.19261 0.32066 0.87704 0.0
H354 H 0.19551 0.28131 0.86813 0.0
H355 H 0.17578 0.23865 0.92399 0.0
H356 H 0.18709 0.1264 0.89757 0.0
H357 H 0.19502 0.16453 0.90982 0.0
H358 H 0.21423 0.2098 0.85773 0.0
C359 C 0.1961 0.28665 0.8854 0.0
C360 C 0.18471 0.23255 0.90978 0.0
C361 C 0.19434 0.30924 0.8905 0.0
C362 C 0.18618 0.13934 0.88552 0.0
C363 C 0.19064 0.16115 0.89255 0.0
C364 C 0.20591 0.21595 0.87231 0.0
C365 C 0.1974 0.27114 0.90237 0.0
C366 C 0.19699 0.247 0.89695 0.0
C367 C 0.1895 0.1784 0.8774 0.0
C368 C 0.19317 0.20169 0.88484 0.0
H369 H 0.19554 0.30674 0.9469 0.0
H370 H 0.19925 0.26748 0.93803 0.0
H371 H 0.21778 0.24887 0.86832 0.0
H372 H 0.17476 0.1485 0.83085 0.0
H373 H 0.18263 0.18638 0.84311 0.0
C374 C 0.88666 0.93649 0.1355 0.0
C375 C 0.87983 0.93108 0.1136 0.0
C376 C 0.90878 0.94156 0.1406 0.0
C377 C 0.96491 0.93409 0.11855 0.0
H378 H 0.9811 0.97688 0.16514 0.0
C379 C 0.05586 0.95378 0.14052 0.0
C380 C 0.06148 0.95158 0.1631 0.0
C381 C 0.03371 0.95506 0.13351 0.0
C382 C 0.97679 0.96491 0.15208 0.0
H383 H 0.89075 0.92743 0.07975 0.0
H384 H 0.92913 0.93683 0.08852 0.0
H385 H 0.9422 0.97154 0.15451 0.0
H386 H 0.04834 0.95054 0.19617 0.0
H387 H 0.00973 0.95296 0.18391 0.0
H388 H -0.00051 0.92745 0.11618 0.0
C389 C 0.91757 0.93658 0.1019 0.0
C390 C 0.95452 0.96174 0.14606 0.0
C391 C 0.89551 0.93127 0.09685 0.0
C392 C 0.04456 0.9521 0.17864 0.0
C393 C 0.02244 0.95361 0.17164 0.0
C394 C 0.98715 0.93742 0.12441 0.0
C395 C 0.92455 0.94159 0.12387 0.0
C396 C 0.94828 0.94605 0.12942 0.0
C397 C 0.01677 0.95443 0.14896 0.0
C398 C 0.99331 0.95264 0.14143 0.0
H399 H 0.87499 0.93643 0.1488 0.0
H400 H 0.91359 0.94498 0.15776 0.0
H401 H 0.96077 0.92159 0.10596 0.0
H402 H 0.06849 0.95348 0.12813 0.0
H403 H 0.02979 0.95595 0.11594 0.0
C404 C 0.35719 0.66035 0.32178 0.0
C405 C 0.35036 0.64901 0.34044 0.0
C406 C 0.35841 0.68335 0.32221 0.0
C407 C 0.3382 0.73364 0.35038 0.0
H408 H 0.38926 0.76007 0.32395 0.0
C409 C 0.35629 0.82816 0.35284 0.0
C410 C 0.36452 0.83699 0.33336 0.0
C411 C 0.35365 0.80532 0.35468 0.0
C412 C 0.37479 0.75296 0.33119 0.0
H413 H 0.33912 0.65306 0.37414 0.0
H414 H 0.34137 0.69348 0.37489 0.0
H415 H 0.38666 0.72007 0.32586 0.0
H416 H 0.37558 0.82877 0.30024 0.0
H417 H 0.37074 0.78912 0.30337 0.0
H418 H 0.32631 0.7667 0.35558 0.0
C419 C 0.34567 0.68442 0.3599 0.0
C420 C 0.37331 0.73004 0.33232 0.0
C421 C 0.34448 0.66129 0.3595 0.0
C422 C 0.36939 0.82255 0.31555 0.0
C423 C 0.36674 0.79978 0.31739 0.0
C424 C 0.33967 0.75667 0.34925 0.0
C425 C 0.35286 0.69565 0.3413 0.0
C426 C 0.35487 0.72009 0.34161 0.0
C427 C 0.35921 0.79087 0.33709 0.0
C428 C 0.35784 0.76654 0.33933 0.0
H429 H 0.3617 0.65149 0.30675 0.0
H430 H 0.36362 0.69152 0.30747 0.0
H431 H 0.32372 0.72643 0.35752 0.0
H432 H 0.35236 0.83883 0.36687 0.0
H433 H 0.34789 0.79894 0.3701 0.0
C434 C 0.55007 0.08011 0.64668 0.0
C435 C 0.56659 0.08673 0.63238 0.0
C436 C 0.52844 0.07693 0.63879 0.0
C437 C 0.49215 0.07235 0.5883 0.0
H438 H 0.44957 0.09937 0.62757 0.0
C439 C 0.40198 0.09412 0.56179 0.0
C440 C 0.38548 0.08992 0.57712 0.0
C441 C 0.42429 0.09127 0.56759 0.0
C442 C 0.46119 0.09148 0.61653 0.0
H443 H 0.57385 0.0939 0.59835 0.0
H444 H 0.53573 0.0889 0.58455 0.0
H445 H 0.48822 0.09796 0.6391 0.0
H446 H 0.37948 0.07881 0.61034 0.0
H447 H 0.41833 0.07387 0.6204 0.0
H448 H 0.46485 0.06642 0.56551 0.0
C449 C 0.53958 0.08587 0.60183 0.0
C450 C 0.48337 0.09061 0.62316 0.0
C451 C 0.56139 0.08878 0.60971 0.0
C452 C 0.39175 0.08237 0.59819 0.0
C453 C 0.41402 0.07959 0.60398 0.0
C454 C 0.46985 0.07332 0.58161 0.0
C455 C 0.52275 0.08065 0.61648 0.0
C456 C 0.49913 0.08095 0.6092 0.0
C457 C 0.43053 0.08426 0.58886 0.0
C458 C 0.45416 0.08285 0.59572 0.0
H459 H 0.55371 0.07806 0.66417 0.0
H460 H 0.51601 0.07226 0.65038 0.0
H461 H 0.50387 0.06471 0.57723 0.0
H462 H 0.3977 0.09988 0.54539 0.0
H463 H 0.43668 0.09516 0.55566 0.0
C464 C 0.85921 0.15497 0.83016 0.0
C465 C 0.85567 0.13898 0.84618 0.0
C466 C 0.85634 0.17743 0.8353 0.0
C467 C 0.85753 0.21635 0.8827 0.0
H468 H 0.8273 0.25632 0.8429 0.0
C469 C 0.84242 0.30603 0.90964 0.0
C470 C 0.84656 0.32237 0.89419 0.0
C471 C 0.84099 0.28385 0.90297 0.0
C472 C 0.83596 0.2454 0.85409 0.0
H473 H 0.84596 0.13405 0.88007 0.0
H474 H 0.84108 0.17319 0.88901 0.0
H475 H 0.83007 0.21704 0.83268 0.0
H476 H 0.85145 0.32843 0.85943 0.0
H477 H 0.84952 0.28947 0.84776 0.0
H478 H 0.86394 0.24449 0.90389 0.0
C479 C 0.84621 0.16835 0.87252 0.0
C480 C 0.83751 0.22293 0.84825 0.0
C481 C 0.84893 0.14592 0.86736 0.0
C482 C 0.84822 0.31618 0.8717 0.0
C483 C 0.84705 0.29386 0.86503 0.0
C484 C 0.85611 0.23874 0.88846 0.0
C485 C 0.85004 0.18435 0.85661 0.0
C486 C 0.84824 0.20818 0.86257 0.0
C487 C 0.84399 0.2774 0.88071 0.0
C488 C 0.8452 0.25355 0.87432 0.0
H489 H 0.86433 0.15018 0.81366 0.0
H490 H 0.85958 0.18942 0.82277 0.0
H491 H 0.86628 0.20546 0.89387 0.0
H492 H 0.84072 0.31032 0.92705 0.0
H493 H 0.83798 0.27168 0.91538 0.0
C494 C 0.68019 0.6482 0.38664 0.0
C495 C 0.67609 0.64283 0.36411 0.0
C496 C 0.68583 0.66986 0.39336 0.0
C497 C 0.68211 0.72734 0.37354 0.0
H498 H 0.72223 0.74045 0.42331 0.0
C499 C 0.70515 0.8168 0.39777 0.0
C500 C 0.70182 0.82252 0.42016 0.0
C501 C 0.70576 0.79461 0.39077 0.0
C502 C 0.711 0.737 0.40938 0.0
H503 H 0.67568 0.65573 0.3309 0.0
H504 H 0.68612 0.69306 0.34246 0.0
H505 H 0.71566 0.70201 0.41139 0.0
H506 H 0.69821 0.80939 0.45299 0.0
H507 H 0.69944 0.77071 0.44074 0.0
H508 H 0.67744 0.76224 0.37151 0.0
C509 C 0.68429 0.68086 0.35509 0.0
C510 C 0.70712 0.71499 0.40261 0.0
C511 C 0.67839 0.65937 0.34843 0.0
C512 C 0.70067 0.80556 0.4356 0.0
C513 C 0.70147 0.78338 0.42861 0.0
C514 C 0.68615 0.74927 0.38014 0.0
C515 C 0.68774 0.68652 0.37766 0.0
C516 C 0.69251 0.70988 0.38467 0.0
C517 C 0.70329 0.77768 0.40602 0.0
C518 C 0.70051 0.75436 0.39821 0.0
H519 H 0.67853 0.63581 0.39912 0.0
H520 H 0.68813 0.67363 0.4109 0.0
H521 H 0.67037 0.72412 0.35999 0.0
H522 H 0.70617 0.82943 0.38545 0.0
H523 H 0.7075 0.79068 0.37329 0.0
C524 C 0.83565 0.69319 0.11131 0.0
C525 C 0.82281 0.67473 0.11624 0.0
C526 C 0.82901 0.71437 0.1178 0.0
C527 C 0.78111 0.74722 0.12324 0.0
H528 H 0.82178 0.79048 0.14982 0.0
C529 C 0.79407 0.84803 0.13631 0.0
C530 C 0.79281 0.85363 0.11386 0.0
C531 C 0.7921 0.82596 0.14235 0.0
C532 C 0.80998 0.77858 0.14284 0.0
H533 H 0.79321 0.66376 0.13213 0.0
H534 H 0.78101 0.70129 0.14274 0.0
H535 H 0.83081 0.75118 0.15101 0.0
H536 H 0.78661 0.84095 0.08035 0.0
H537 H 0.78275 0.80259 0.0909 0.0
H538 H 0.76114 0.77475 0.11348 0.0
C539 C 0.79643 0.69913 0.13425 0.0
C540 C 0.81522 0.75614 0.14344 0.0
C541 C 0.80341 0.67777 0.12824 0.0
C542 C 0.78778 0.83708 0.09777 0.0
C543 C 0.78541 0.81514 0.10383 0.0
C544 C 0.77603 0.76972 0.12232 0.0
C545 C 0.80916 0.71758 0.12893 0.0
C546 C 0.8012 0.74036 0.13297 0.0
C547 C 0.78837 0.80925 0.12607 0.0
C548 C 0.79082 0.78563 0.13144 0.0
H549 H 0.85073 0.69127 0.10217 0.0
H550 H 0.83897 0.72836 0.11328 0.0
H551 H 0.77015 0.73533 0.11491 0.0
H552 H 0.79797 0.86045 0.14907 0.0
H553 H 0.79441 0.82181 0.15961 0.0
C554 C 0.66746 0.34117 0.66788 0.0
C555 C 0.65988 0.35672 0.65258 0.0
C556 C 0.66964 0.31898 0.66154 0.0
C557 C 0.67972 0.27352 0.64126 0.0
H558 H 0.62379 0.24929 0.61917 0.0
C559 C 0.6606 0.1791 0.63247 0.0
C560 C 0.64228 0.17351 0.64506 0.0
C561 C 0.66521 0.20128 0.62833 0.0
C562 C 0.63962 0.25586 0.62498 0.0
H563 H 0.64952 0.36145 0.61838 0.0
H564 H 0.6527 0.32226 0.6074 0.0
H565 H 0.62932 0.28931 0.62056 0.0
H566 H 0.61412 0.18664 0.66259 0.0
H567 H 0.62191 0.22513 0.65494 0.0
H568 H 0.6896 0.24 0.64659 0.0
C569 C 0.65718 0.32743 0.62424 0.0
C570 C 0.64285 0.27871 0.62565 0.0
C571 C 0.65541 0.3498 0.63051 0.0
C572 C 0.62844 0.19042 0.65297 0.0
C573 C 0.63277 0.21243 0.64844 0.0
C574 C 0.67661 0.25062 0.64028 0.0
C575 C 0.66395 0.31179 0.63983 0.0
C576 C 0.66261 0.28778 0.63458 0.0
C577 C 0.65124 0.21809 0.63621 0.0
C578 C 0.65622 0.24168 0.63293 0.0
H579 H 0.67118 0.34607 0.68497 0.0
H580 H 0.67465 0.30726 0.67396 0.0
H581 H 0.69513 0.28014 0.64815 0.0
H582 H 0.67155 0.16638 0.62619 0.0
H583 H 0.67961 0.20531 0.61893 0.0
C584 C 0.10313 0.40288 0.89172 0.0
C585 C 0.11197 0.39933 0.91313 0.0
C586 C 0.08065 0.40775 0.88855 0.0
C587 C 0.03142 0.42744 0.9185 0.0
H588 H 0.99794 0.39247 0.87456 0.0
C589 C 0.93998 0.40735 0.92733 0.0
C590 C 0.92584 0.40613 0.90849 0.0
C591 C 0.96252 0.41126 0.92527 0.0
C592 C 0.00708 0.40273 0.88659 0.0
H593 H 0.10416 0.39859 0.948 0.0
H594 H 0.06522 0.40697 0.94247 0.0
H595 H 0.03827 0.39045 0.87566 0.0
H596 H 0.92419 0.40879 0.87273 0.0
H597 H 0.96388 0.41549 0.86912 0.0
H598 H 0.00026 0.43911 0.92997 0.0
C599 C 0.07562 0.40619 0.92813 0.0
C600 C 0.03018 0.40155 0.88723 0.0
C601 C 0.09795 0.40118 0.93128 0.0
C602 C 0.93467 0.40965 0.88755 0.0
C603 C 0.95738 0.41336 0.88547 0.0
C604 C 0.00838 0.42862 0.91786 0.0
C605 C 0.06665 0.40939 0.90674 0.0
C606 C 0.04255 0.41334 0.90368 0.0
C607 C 0.97157 0.41394 0.90432 0.0
C608 C 0.99592 0.41572 0.90238 0.0
H609 H 0.1135 0.4016 0.87739 0.0
H610 H 0.07422 0.41022 0.87188 0.0
H611 H 0.04052 0.43708 0.93107 0.0
H612 H 0.93372 0.4048 0.94372 0.0
H613 H 0.97301 0.4113 0.9401 0.0
C614 C 0.58112 0.55003 0.3337 0.0
C615 C 0.59426 0.55744 0.35187 0.0
C616 C 0.55884 0.54521 0.33626 0.0
C617 C 0.51426 0.53825 0.3772 0.0
H618 H 0.47822 0.55877 0.32782 0.0
C619 C 0.4186 0.55683 0.37398 0.0
C620 C 0.40778 0.55028 0.35397 0.0
C621 C 0.44137 0.55311 0.377 0.0
C622 C 0.48805 0.55272 0.34165 0.0
H623 H 0.59484 0.56462 0.38721 0.0
H624 H 0.55538 0.55716 0.39161 0.0
H625 H 0.51801 0.56166 0.32659 0.0
H626 H 0.41151 0.53245 0.32268 0.0
H627 H 0.45091 0.5258 0.32805 0.0
H628 H 0.4836 0.53028 0.39251 0.0
C629 C 0.56242 0.55456 0.37544 0.0
C630 C 0.51094 0.55425 0.34092 0.0
C631 C 0.58498 0.55891 0.37295 0.0
C632 C 0.41949 0.53795 0.33814 0.0
C633 C 0.44205 0.53416 0.34118 0.0
C634 C 0.49111 0.53699 0.37805 0.0
C635 C 0.54893 0.54832 0.35694 0.0
C636 C 0.52444 0.54673 0.35848 0.0
C637 C 0.45342 0.54273 0.36007 0.0
C638 C 0.47787 0.54393 0.36008 0.0
H639 H 0.58798 0.5484 0.31734 0.0
H640 H 0.54922 0.53966 0.32178 0.0
H641 H 0.52413 0.53232 0.39103 0.0
H642 H 0.40996 0.56642 0.38643 0.0
H643 H 0.4498 0.55987 0.39171 0.0
C644 C 0.57133 0.44066 0.64636 0.0
C645 C 0.57928 0.43683 0.668 0.0
C646 C 0.5486 0.44201 0.64176 0.0
C647 C 0.49558 0.42371 0.66438 0.0
H648 H 0.47041 0.45897 0.61734 0.0
C649 C 0.40201 0.42295 0.64098 0.0
C650 C 0.39707 0.42014 0.61819 0.0
C651 C 0.42367 0.42751 0.64848 0.0
C652 C 0.47723 0.44901 0.63051 0.0
H653 H 0.56966 0.43293 0.70204 0.0
H654 H 0.53014 0.43597 0.69416 0.0
H655 H 0.50933 0.46349 0.62817 0.0
H656 H 0.41098 0.42034 0.5854 0.0
H657 H 0.44857 0.42836 0.59848 0.0
H658 H 0.46346 0.40918 0.66659 0.0
C659 C 0.54138 0.43722 0.68058 0.0
C660 C 0.49954 0.45154 0.63668 0.0
C661 C 0.56407 0.43565 0.68514 0.0
C662 C 0.41419 0.42233 0.60308 0.0
C663 C 0.43573 0.42711 0.61055 0.0
C664 C 0.47324 0.42132 0.65833 0.0
C665 C 0.5333 0.43979 0.65873 0.0
C666 C 0.50911 0.43865 0.65345 0.0
C667 C 0.44075 0.42964 0.63332 0.0
C668 C 0.46392 0.43367 0.64108 0.0
H669 H 0.58259 0.44156 0.63276 0.0
H670 H 0.54305 0.44377 0.6247 0.0
H671 H 0.50239 0.4132 0.67709 0.0
H672 H 0.3892 0.42141 0.65304 0.0
H673 H 0.42706 0.42949 0.66613 0.0
C674 C 0.074 0.59478 0.07632 0.0
C675 C 0.08903 0.59753 0.09431 0.0
C676 C 0.05218 0.58856 0.07975 0.0
C677 C 0.00986 0.59278 0.12144 0.0
H678 H 0.97678 0.55573 0.07895 0.0
C679 C 0.9143 0.58777 0.12109 0.0
C680 C 0.90473 0.59187 0.10012 0.0
C681 C 0.93689 0.58295 0.12329 0.0
C682 C 0.98581 0.56603 0.09103 0.0
H683 H 0.09313 0.59513 0.13 0.0
H684 H 0.05484 0.58437 0.13598 0.0
H685 H 0.01701 0.5572 0.07747 0.0
H686 H 0.91108 0.59303 0.06494 0.0
H687 H 0.95015 0.58469 0.06876 0.0
H688 H 0.97858 0.60237 0.13437 0.0
C689 C 0.06 0.58713 0.11924 0.0
C690 C 0.00882 0.56689 0.09016 0.0
C691 C 0.08193 0.59322 0.11578 0.0
C692 C 0.91794 0.59011 0.08136 0.0
C693 C 0.94034 0.5851 0.08352 0.0
C694 C 0.98681 0.59193 0.12231 0.0
C695 C 0.04483 0.58502 0.10127 0.0
C696 C 0.02102 0.58091 0.10483 0.0
C697 C 0.95018 0.58183 0.10451 0.0
C698 C 0.97451 0.57918 0.10657 0.0
H699 H 0.07892 0.59789 0.05956 0.0
H700 H 0.04084 0.58738 0.06558 0.0
H701 H 0.01879 0.60384 0.13289 0.0
H702 H 0.90452 0.58897 0.13584 0.0
H703 H 0.94404 0.58042 0.13966 0.0
C704 C 0.20962 0.58631 0.03891 0.0
C705 C 0.19709 0.58142 0.05737 0.0
C706 C 0.22065 0.56951 0.02733 0.0
C707 C 0.23064 0.50767 0.02688 0.0
H708 H 0.22935 0.51567 0.96346 0.0
C709 C 0.22972 0.43136 0.96931 0.0
C710 C 0.2157 0.43257 0.95052 0.0
C711 C 0.23658 0.45063 0.98081 0.0
C712 C 0.22954 0.51293 0.9811 0.0
H713 H 0.1869 0.55546 0.07884 0.0
H714 H 0.20447 0.52602 0.05801 0.0
H715 H 0.22335 0.54697 0.98792 0.0
H716 H 0.19875 0.45467 0.92823 0.0
H717 H 0.20908 0.48799 0.94885 0.0
H718 H 0.23406 0.47326 0.02003 0.0
C719 C 0.20695 0.54275 0.05274 0.0
C720 C 0.2266 0.5312 0.99536 0.0
C721 C 0.19663 0.55968 0.06474 0.0
C722 C 0.20975 0.45333 0.94259 0.0
C723 C 0.21587 0.47255 0.95452 0.0
C724 C 0.23269 0.48928 0.01261 0.0
C725 C 0.21861 0.54727 0.03341 0.0
C726 C 0.22619 0.52874 0.0185 0.0
C727 C 0.22871 0.47149 0.97434 0.0
C728 C 0.23126 0.49147 0.98942 0.0
H729 H 0.21039 0.60307 0.03307 0.0
H730 H 0.23008 0.57398 0.01315 0.0
H731 H 0.23152 0.50503 0.04454 0.0
H732 H 0.23468 0.41545 0.9756 0.0
H733 H 0.24721 0.44895 0.99536 0.0
C734 C 0.72371 0.91606 0.34385 0.0
C735 C 0.70333 0.92485 0.35041 0.0
C736 C 0.7323 0.92115 0.32333 0.0
C737 C 0.71531 0.93781 0.26765 0.0
H738 H 0.77741 0.95157 0.26161 0.0
C739 C 0.75097 0.955 0.18214 0.0
C740 C 0.77158 0.94543 0.17766 0.0
C741 C 0.74306 0.95564 0.20372 0.0
C742 C 0.76006 0.94756 0.26295 0.0
H743 H 0.67608 0.94607 0.34061 0.0
H744 H 0.69102 0.95476 0.30465 0.0
H745 H 0.76277 0.94625 0.29837 0.0
H746 H 0.80032 0.92958 0.19246 0.0
H747 H 0.78636 0.93015 0.22982 0.0
H748 H 0.71263 0.93828 0.2323 0.0
C749 C 0.70031 0.94392 0.31542 0.0
C750 C 0.75169 0.94458 0.28403 0.0
C751 C 0.69182 0.939 0.33605 0.0
C752 C 0.7844 0.93716 0.19533 0.0
C753 C 0.77642 0.9376 0.21684 0.0
C754 C 0.72371 0.94057 0.24655 0.0
C755 C 0.72061 0.93499 0.30882 0.0
C756 C 0.72927 0.93945 0.28659 0.0
C757 C 0.75549 0.94654 0.22129 0.0
C758 C 0.74626 0.94525 0.24389 0.0
H759 H 0.73302 0.90513 0.35453 0.0
H760 H 0.74787 0.91384 0.3186 0.0
H761 H 0.69801 0.93362 0.26908 0.0
H762 H 0.74076 0.96168 0.16892 0.0
H763 H 0.72707 0.96306 0.20657 0.0
C764 C 0.2897 0.4561 0.54558 0.0
C765 C 0.30152 0.45876 0.56578 0.0
C766 C 0.28518 0.4743 0.53248 0.0
C767 C 0.31335 0.5224 0.51685 0.0
H768 H 0.26019 0.53461 0.48212 0.0
C769 C 0.3185 0.5722 0.43732 0.0
C770 C 0.30566 0.56404 0.41917 0.0
C771 C 0.31455 0.56514 0.45877 0.0
C772 C 0.27524 0.53135 0.49155 0.0
H773 H 0.31693 0.48246 0.58881 0.0
H774 H 0.30969 0.51441 0.56538 0.0
H775 H 0.25817 0.51122 0.51436 0.0
H776 H 0.27815 0.54266 0.40938 0.0
H777 H 0.27196 0.52961 0.44627 0.0
H778 H 0.3309 0.54064 0.49323 0.0
C779 C 0.30351 0.49829 0.55999 0.0
C780 C 0.27398 0.51816 0.51017 0.0
C781 C 0.30752 0.4801 0.57341 0.0
C782 C 0.28831 0.54933 0.42301 0.0
C783 C 0.28463 0.54198 0.44433 0.0
C784 C 0.31472 0.5352 0.49801 0.0
C785 C 0.29293 0.49539 0.53909 0.0
C786 C 0.29313 0.51307 0.52261 0.0
C787 C 0.29795 0.54944 0.4625 0.0
C788 C 0.2958 0.53924 0.48463 0.0
H789 H 0.28508 0.43975 0.53932 0.0
H790 H 0.2772 0.47156 0.51636 0.0
H791 H 0.32843 0.51847 0.526 0.0
H792 H 0.33183 0.58377 0.43491 0.0
H793 H 0.32485 0.57169 0.47233 0.0
C794 C 0.68569 0.06175 0.68872 0.0
C795 C 0.66576 0.06977 0.69718 0.0
C796 C 0.70075 0.05066 0.7024 0.0
C797 C 0.71622 0.04876 0.7615 0.0
H798 H 0.75998 0.00709 0.74026 0.0
C799 C 0.7942 0.03446 0.81341 0.0
C800 C 0.81314 0.03921 0.80141 0.0
C801 C 0.77421 0.02944 0.80227 0.0
C802 C 0.74774 0.01855 0.74649 0.0
H803 H 0.64509 0.07082 0.72601 0.0
H804 H 0.67105 0.05097 0.74967 0.0
H805 H 0.7273 0.01491 0.71711 0.0
H806 H 0.82659 0.03992 0.76845 0.0
H807 H 0.79182 0.03142 0.74914 0.0
H808 H 0.73696 0.05317 0.79039 0.0
C809 C 0.67543 0.05386 0.73271 0.0
C810 C 0.7291 0.02312 0.73321 0.0
C811 C 0.66053 0.0652 0.71913 0.0
C812 C 0.81222 0.03665 0.77819 0.0
C813 C 0.79229 0.03156 0.76709 0.0
C814 C 0.73473 0.0441 0.77478 0.0
C815 C 0.69605 0.04712 0.72475 0.0
C816 C 0.71354 0.03892 0.74023 0.0
C817 C 0.77285 0.02895 0.77897 0.0
C818 C 0.75111 0.02959 0.76709 0.0
H819 H 0.69015 0.06494 0.67185 0.0
H820 H 0.71656 0.04596 0.69574 0.0
H821 H 0.70483 0.06125 0.76738 0.0
H822 H 0.79442 0.036 0.83132 0.0
H823 H 0.75954 0.02716 0.81186 0.0
C824 C 0.80774 0.4451 0.93416 0.0
C825 C 0.81705 0.42764 0.94613 0.0
C826 C 0.79651 0.46218 0.94516 0.0
C827 C 0.77489 0.48042 0.00026 0.0
H828 H 0.80046 0.53657 0.98517 0.0
C829 C 0.79703 0.54928 0.0637 0.0
C830 C 0.79886 0.5711 0.05661 0.0
C831 C 0.78977 0.53251 0.04888 0.0
C832 C 0.79257 0.52123 0.98939 0.0
H833 H 0.82015 0.41342 0.97871 0.0
H834 H 0.80106 0.44317 0.9978 0.0
H835 H 0.80469 0.50489 0.96044 0.0
H836 H 0.79195 0.59296 0.02939 0.0
H837 H 0.77872 0.56383 0.00376 0.0
H838 H 0.76387 0.4967 0.02993 0.0
C839 C 0.80221 0.44375 0.97995 0.0
C840 C 0.79501 0.50297 0.97511 0.0
C841 C 0.81342 0.42675 0.969 0.0
C842 C 0.79109 0.57621 0.0352 0.0
C843 C 0.78359 0.5595 0.02049 0.0
C844 C 0.77243 0.49875 0.01459 0.0
C845 C 0.79434 0.46207 0.96832 0.0
C846 C 0.78702 0.48214 0.98081 0.0
C847 C 0.78399 0.5373 0.02677 0.0
C848 C 0.78202 0.51916 0.00973 0.0
H849 H 0.81001 0.44616 0.91648 0.0
H850 H 0.79034 0.47592 0.93567 0.0
H851 H 0.76819 0.46466 0.00492 0.0
H852 H 0.80285 0.54485 0.08012 0.0
H853 H 0.79039 0.5156 0.05431 0.0
C854 C 0.20521 0.02808 0.78452 0.0
C855 C 0.21172 0.03872 0.80456 0.0
C856 C 0.22044 0.0243 0.76793 0.0
C857 C 0.26716 0.05291 0.74683 0.0
H858 H 0.26451 0.00599 0.70185 0.0
C859 C 0.30221 0.06512 0.66002 0.0
C860 C 0.28811 0.05812 0.6423 0.0
C861 C 0.29828 0.05862 0.68165 0.0
C862 C 0.26546 0.01924 0.71425 0.0
H863 H 0.23944 0.05231 0.82379 0.0
H864 H 0.26626 0.04596 0.79448 0.0
H865 H 0.24871 0.00011 0.73804 0.0
H866 H 0.25919 0.03833 0.63336 0.0
H867 H 0.25206 0.02745 0.67098 0.0
H868 H 0.28261 0.07256 0.72274 0.0
C869 C 0.24937 0.04042 0.7917 0.0
C870 C 0.25655 0.0158 0.73502 0.0
C871 C 0.23411 0.04387 0.80852 0.0
C872 C 0.27036 0.04405 0.64661 0.0
C873 C 0.2664 0.03761 0.66821 0.0
C874 C 0.27596 0.05639 0.72604 0.0
C875 C 0.24244 0.03145 0.7709 0.0
C876 C 0.25656 0.03289 0.75124 0.0
C877 C 0.28016 0.04501 0.68605 0.0
C878 C 0.27446 0.0399 0.70921 0.0
H879 H 0.18798 0.02407 0.78109 0.0
H880 H 0.21449 0.01754 0.75208 0.0
H881 H 0.26719 0.06652 0.75885 0.0
H882 H 0.31615 0.07582 0.65725 0.0
H883 H 0.30934 0.06443 0.69495 0.0
C884 C 0.65734 0.55694 0.45052 0.0
C885 C 0.66907 0.5508 0.43153 0.0
C886 C 0.66005 0.54528 0.47007 0.0
C887 C 0.67729 0.49092 0.49055 0.0
H888 H 0.67664 0.52132 0.54789 0.0
C889 C 0.68662 0.44479 0.57337 0.0
C890 C 0.67214 0.45138 0.59014 0.0
C891 C 0.68828 0.45711 0.55416 0.0
C892 C 0.6767 0.51257 0.532 0.0
H893 H 0.69325 0.52785 0.41839 0.0
H894 H 0.69812 0.50758 0.45265 0.0
H895 H 0.67629 0.54269 0.51421 0.0
H896 H 0.6481 0.47617 0.59985 0.0
H897 H 0.6509 0.49747 0.56643 0.0
H898 H 0.67743 0.46078 0.50839 0.0
C899 C 0.68661 0.52127 0.45229 0.0
C900 C 0.6765 0.52482 0.5127 0.0
C901 C 0.68392 0.53298 0.4327 0.0
C902 C 0.65947 0.47062 0.58732 0.0
C903 C 0.66118 0.48294 0.56819 0.0
C904 C 0.67751 0.47866 0.50989 0.0
C905 C 0.67456 0.52717 0.47116 0.0
C906 C 0.67647 0.51415 0.49172 0.0
C907 C 0.67557 0.47634 0.55136 0.0
C908 C 0.67689 0.48933 0.53084 0.0
H909 H 0.64573 0.57054 0.45021 0.0
H910 H 0.65028 0.5501 0.48417 0.0
H911 H 0.67701 0.48216 0.47467 0.0
H912 H 0.69664 0.43007 0.57502 0.0
H913 H 0.69966 0.45168 0.54159 0.0
C914 C 0.33656 0.95371 0.28017 0.0
C915 C 0.3341 0.94541 0.30148 0.0
C916 C 0.31896 0.96427 0.2694 0.0
C917 C 0.27535 0.96592 0.24452 0.0
H918 H 0.22812 0.99742 0.27385 0.0
C919 C 0.17706 0.96702 0.23527 0.0
C920 C 0.17468 0.96741 0.21205 0.0
C921 C 0.19713 0.97283 0.24579 0.0
C922 C 0.24125 0.98878 0.26539 0.0
H923 H 0.31175 0.94294 0.32881 0.0
H924 H 0.28085 0.96065 0.3098 0.0
H925 H 0.26347 0.99203 0.29352 0.0
H926 H 0.1908 0.97638 0.18187 0.0
H927 H 0.22581 0.98664 0.2003 0.0
H928 H 0.25302 0.96183 0.21679 0.0
C929 C 0.29645 0.95943 0.30148 0.0
C930 C 0.26146 0.98562 0.27667 0.0
C931 C 0.31415 0.94911 0.31236 0.0
C932 C 0.19215 0.97564 0.19977 0.0
C933 C 0.21225 0.98145 0.2103 0.0
C934 C 0.25526 0.96916 0.23326 0.0
C935 C 0.29841 0.96649 0.27959 0.0
C936 C 0.27849 0.97349 0.26661 0.0
C937 C 0.21525 0.97917 0.23331 0.0
C938 C 0.23772 0.97997 0.2438 0.0
H939 H 0.35186 0.95143 0.27148 0.0
H940 H 0.32122 0.96997 0.25275 0.0
H941 H 0.28789 0.9562 0.23631 0.0
H942 H 0.16387 0.96096 0.24527 0.0
H943 H 0.19888 0.97077 0.26352 0.0
C944 C 0.677 0.07598 0.57065 0.0
C945 C 0.68441 0.07199 0.59239 0.0
C946 C 0.68549 0.06382 0.55278 0.0
C947 C 0.72856 0.02125 0.53799 0.0
H948 H 0.6847 0.00458 0.49265 0.0
C949 C 0.72162 0.93782 0.49002 0.0
C950 C 0.71527 0.93803 0.46747 0.0
C951 C 0.72441 0.95763 0.50219 0.0
C952 C 0.6973 0.0094 0.50492 0.0
H953 H 0.70688 0.05259 0.61253 0.0
H954 H 0.72069 0.03052 0.58177 0.0
H955 H 0.676 0.033 0.52003 0.0
H956 H 0.70861 0.95909 0.43954 0.0
H957 H 0.71289 0.99371 0.46104 0.0
H958 H 0.74901 0.99593 0.52365 0.0
C959 C 0.709 0.04355 0.57814 0.0
C960 C 0.69237 0.02583 0.52067 0.0
C961 C 0.70093 0.0561 0.59591 0.0
C962 C 0.71357 0.9584 0.45688 0.0
C963 C 0.71592 0.97821 0.46917 0.0
C964 C 0.73328 0.00441 0.52249 0.0
C965 C 0.70112 0.04693 0.55632 0.0
C966 C 0.70771 0.03166 0.53779 0.0
C967 C 0.7205 0.97794 0.49209 0.0
C968 C 0.7175 0.99809 0.50609 0.0
H969 H 0.66448 0.08837 0.56746 0.0
H970 H 0.67941 0.06743 0.53625 0.0
H971 H 0.74107 0.02561 0.55049 0.0
H972 H 0.7231 0.92236 0.49857 0.0
H973 H 0.72784 0.95698 0.51987 0.0
C974 C 0.2838 0.45382 0.68699 0.0
C975 C 0.29206 0.43442 0.6769 0.0
C976 C 0.27227 0.45288 0.70677 0.0
C977 C 0.24041 0.41421 0.73987 0.0
H978 H 0.25243 0.45579 0.78866 0.0
C979 C 0.21034 0.39925 0.82785 0.0
C980 C 0.20321 0.41742 0.84076 0.0
C981 C 0.21996 0.40237 0.80739 0.0
C982 C 0.24862 0.44425 0.77508 0.0
H983 H 0.29492 0.39886 0.67993 0.0
H984 H 0.27497 0.39729 0.71428 0.0
H985 H 0.27172 0.45953 0.75391 0.0
H986 H 0.2003 0.45315 0.84205 0.0
H987 H 0.21684 0.45858 0.80613 0.0
H988 H 0.21738 0.39887 0.76091 0.0
C989 C 0.27715 0.41319 0.7068 0.0
C990 C 0.25971 0.44638 0.75518 0.0
C991 C 0.28874 0.41413 0.68716 0.0
C992 C 0.20567 0.43879 0.83256 0.0
C993 C 0.21528 0.44192 0.81202 0.0
C994 C 0.22928 0.41213 0.75968 0.0
C995 C 0.26863 0.43251 0.71677 0.0
C996 C 0.25596 0.43118 0.73747 0.0
C997 C 0.22264 0.42374 0.79923 0.0
C998 C 0.23346 0.42691 0.77766 0.0
H999 H 0.28607 0.46971 0.67953 0.0
H1000 H 0.26581 0.46804 0.714 0.0
H1001 H 0.23682 0.4025 0.72637 0.0
H1002 H 0.20879 0.38256 0.83368 0.0
H1003 H 0.22574 0.388 0.79817 0.0
C1004 C 0.79511 0.03953 0.91319 0.0
C1005 C 0.81404 0.05258 0.91092 0.0
C1006 C 0.78801 0.03404 0.93419 0.0
C1007 C 0.8096 0.03031 0.99217 0.0
H1008 H 0.74907 0.01304 0.00236 0.0
C1009 C 0.78893 0.98585 0.07075 0.0
C1010 C 0.78229 0.96424 0.06471 0.0
C1011 C 0.7873 0.00267 0.05531 0.0
C1012 C 0.76596 0.01814 0.99985 0.0
H1013 H 0.83966 0.07127 0.92877 0.0
H1014 H 0.82673 0.06268 0.96544 0.0
H1015 H 0.75786 0.03189 0.96839 0.0
H1016 H 0.76641 0.94374 0.03902 0.0
H1017 H 0.76283 0.97321 0.01238 0.0
H1018 H 0.81764 0.01635 0.02353 0.0
C1019 C 0.81781 0.05583 0.95108 0.0
C1020 C 0.77111 0.02869 0.98028 0.0
C1021 C 0.8252 0.06087 0.93005 0.0
C1022 C 0.77161 0.9603 0.04405 0.0
C1023 C 0.76954 0.97718 0.02883 0.0
C1024 C 0.80436 0.02021 0.01187 0.0
C1025 C 0.7994 0.0419 0.95348 0.0
C1026 C 0.79317 0.03415 0.97577 0.0
C1027 C 0.77855 0.99816 0.03385 0.0
C1028 C 0.78265 0.01335 0.01557 0.0
H1029 H 0.78622 0.03285 0.8987 0.0
H1030 H 0.77407 0.02294 0.93516 0.0
H1031 H 0.82682 0.03384 0.98935 0.0
H1032 H 0.7974 0.98926 0.08651 0.0
H1033 H 0.7943 0.01875 0.05956 0.0
C1034 C 0.18057 0.59302 0.18246 0.0
C1035 C 0.17816 0.57827 0.16417 0.0
C1036 C 0.19028 0.58605 0.20236 0.0
C1037 C 0.23205 0.5482 0.22139 0.0
H1038 H 0.21187 0.56306 0.28036 0.0
C1039 C 0.29131 0.53662 0.29439 0.0
C1040 C 0.29226 0.55432 0.30982 0.0
C1041 C 0.27293 0.53388 0.28011 0.0
C1042 C 0.21784 0.55887 0.26404 0.0
H1043 H 0.18329 0.54443 0.15268 0.0
H1044 H 0.20072 0.53245 0.18729 0.0
H1045 H 0.18795 0.57018 0.24805 0.0
H1046 H 0.2744 0.58213 0.32365 0.0
H1047 H 0.24285 0.57826 0.29803 0.0
H1048 H 0.26242 0.53848 0.23668 0.0
C1049 C 0.19496 0.54935 0.18621 0.0
C1050 C 0.20406 0.56286 0.24556 0.0
C1051 C 0.18498 0.55623 0.16643 0.0
C1052 C 0.27387 0.56819 0.31201 0.0
C1053 C 0.25575 0.5659 0.29724 0.0
C1054 C 0.24595 0.5446 0.23972 0.0
C1055 C 0.19801 0.56428 0.20424 0.0
C1056 C 0.21121 0.55787 0.22406 0.0
C1057 C 0.25555 0.54936 0.28033 0.0
C1058 C 0.23926 0.55024 0.26134 0.0
H1059 H 0.17535 0.61008 0.18127 0.0
H1060 H 0.19263 0.59794 0.21594 0.0
H1061 H 0.23811 0.54448 0.20498 0.0
H1062 H 0.30534 0.52568 0.29251 0.0
H1063 H 0.27305 0.52039 0.26796 0.0
C1064 C 0.28376 0.0467 0.50789 0.0
C1065 C 0.28831 0.04661 0.53083 0.0
C1066 C 0.28045 0.02692 0.49591 0.0
C1067 C 0.27212 0.98302 0.47271 0.0
H1068 H 0.32018 0.94326 0.48745 0.0
C1069 C 0.30247 0.91838 0.4089 0.0
C1070 C 0.32548 0.91904 0.40628 0.0
C1071 C 0.29296 0.92836 0.42753 0.0
C1072 C 0.30657 0.95408 0.48316 0.0
H1073 H 0.2907 0.0259 0.55957 0.0
H1074 H 0.28479 0.9912 0.53855 0.0
H1075 H 0.30988 0.97214 0.51393 0.0
H1076 H 0.35663 0.92958 0.42175 0.0
H1077 H 0.34014 0.94719 0.45386 0.0
H1078 H 0.27008 0.96612 0.44118 0.0
C1079 C 0.28414 0.0066 0.52981 0.0
C1080 C 0.30043 0.97049 0.49849 0.0
C1081 C 0.28737 0.02648 0.54187 0.0
C1082 C 0.33884 0.92885 0.42319 0.0
C1083 C 0.32936 0.93878 0.44176 0.0
C1084 C 0.27835 0.96669 0.45732 0.0
C1085 C 0.28163 0.00656 0.50656 0.0
C1086 C 0.28384 0.98583 0.49302 0.0
C1087 C 0.30627 0.93912 0.44393 0.0
C1088 C 0.29636 0.95272 0.46198 0.0
H1089 H 0.28414 0.06196 0.49893 0.0
H1090 H 0.27872 0.02761 0.47804 0.0
H1091 H 0.25899 0.99432 0.46814 0.0
H1092 H 0.29172 0.91081 0.39623 0.0
H1093 H 0.27514 0.92812 0.42881 0.0
C1094 C 0.8111 0.57736 0.18503 0.0
C1095 C 0.81787 0.56184 0.16888 0.0
C1096 C 0.80193 0.57047 0.20466 0.0
C1097 C 0.77078 0.52441 0.22639 0.0
H1098 H 0.77687 0.55955 0.28085 0.0
C1099 C 0.72542 0.54331 0.31582 0.0
C1100 C 0.70391 0.54562 0.30688 0.0
C1101 C 0.74296 0.53797 0.30192 0.0
C1102 C 0.77528 0.54914 0.26603 0.0
H1103 H 0.82109 0.52681 0.1611 0.0
H1104 H 0.80502 0.51474 0.19552 0.0
H1105 H 0.80252 0.56505 0.25113 0.0
H1106 H 0.68347 0.54204 0.27696 0.0
H1107 H 0.71372 0.5328 0.25293 0.0
H1108 H 0.74316 0.50891 0.24109 0.0
C1109 C 0.80667 0.53228 0.19285 0.0
C1110 C 0.78982 0.55253 0.24884 0.0
C1111 C 0.81593 0.5392 0.17316 0.0
C1112 C 0.69993 0.54054 0.28429 0.0
C1113 C 0.71731 0.53506 0.27051 0.0
C1114 C 0.75628 0.52096 0.24362 0.0
C1115 C 0.79929 0.54785 0.20869 0.0
C1116 C 0.7871 0.54093 0.22845 0.0
C1117 C 0.73917 0.53462 0.27895 0.0
C1118 C 0.75772 0.53401 0.26324 0.0
H1119 H 0.81239 0.59493 0.18233 0.0
H1120 H 0.79609 0.58295 0.21627 0.0
H1121 H 0.76821 0.51515 0.21094 0.0
H1122 H 0.72896 0.54714 0.33318 0.0
H1123 H 0.75959 0.5375 0.30897 0.0
C1124 C 0.15252 0.9773 0.08961 0.0
C1125 C 0.16289 0.95719 0.09461 0.0
C1126 C 0.1572 0.98813 0.07014 0.0
C1127 C 0.17753 0.9786 0.0139 0.0
H1128 H 0.18284 0.04248 0.01483 0.0
C1129 C 0.19182 0.02721 0.93404 0.0
C1130 C 0.17844 0.04601 0.93143 0.0
C1131 C 0.19315 0.01664 0.95441 0.0
C1132 C 0.18129 0.02464 0.01425 0.0
H1133 H 0.18641 0.93273 0.08302 0.0
H1134 H 0.19455 0.95171 0.0489 0.0
H1135 H 0.17889 0.02329 0.0495 0.0
H1136 H 0.1565 0.06879 0.94838 0.0
H1137 H 0.15867 0.05037 0.98361 0.0
H1138 H 0.17938 0.98 0.97858 0.0
C1139 C 0.18272 0.959 0.06008 0.0
C1140 C 0.17902 0.01365 0.03413 0.0
C1141 C 0.17812 0.94819 0.07967 0.0
C1142 C 0.16698 0.05436 0.94978 0.0
C1143 C 0.16833 0.04386 0.97008 0.0
C1144 C 0.17974 0.98961 0.99398 0.0
C1145 C 0.17232 0.97912 0.05512 0.0
C1146 C 0.1767 0.99054 0.03416 0.0
C1147 C 0.18121 0.02472 0.97261 0.0
C1148 C 0.18122 0.01281 0.99388 0.0
H1149 H 0.14068 0.98471 0.10072 0.0
H1150 H 0.14865 0.00343 0.06667 0.0
H1151 H 0.1756 0.9608 0.01334 0.0
H1152 H 0.20089 0.02038 0.92024 0.0
H1153 H 0.20341 0.00207 0.95588 0.0
C1154 C 0.71767 0.44701 0.69761 0.0
C1155 C 0.69711 0.45107 0.70719 0.0
C1156 C 0.73723 0.44976 0.7103 0.0
C1157 C 0.76257 0.47321 0.76169 0.0
H1158 H 0.78931 0.41552 0.76853 0.0
C1159 C 0.81127 0.4508 0.84091 0.0
C1160 C 0.82701 0.43379 0.84037 0.0
C1161 C 0.79928 0.45627 0.82173 0.0
C1162 C 0.78264 0.43196 0.76655 0.0
H1163 H 0.68087 0.4631 0.73668 0.0
H1164 H 0.71505 0.46875 0.75854 0.0
H1165 H 0.76192 0.42104 0.73911 0.0
H1166 H 0.84357 0.41005 0.81909 0.0
H1167 H 0.82353 0.4203 0.78533 0.0
H1168 H 0.78321 0.48428 0.78905 0.0
C1169 C 0.71607 0.46316 0.7414 0.0
C1170 C 0.76682 0.43506 0.74965 0.0
C1171 C 0.69653 0.4599 0.72892 0.0
C1172 C 0.83133 0.42308 0.82004 0.0
C1173 C 0.81968 0.42888 0.80071 0.0
C1174 C 0.77878 0.47027 0.77833 0.0
C1175 C 0.7365 0.45718 0.73253 0.0
C1176 C 0.75616 0.4555 0.7475 0.0
C1177 C 0.80305 0.44517 0.80137 0.0
C1178 C 0.78849 0.44937 0.78152 0.0
H1179 H 0.71856 0.43998 0.68097 0.0
H1180 H 0.75282 0.44505 0.70314 0.0
H1181 H 0.75462 0.48916 0.76029 0.0
H1182 H 0.80746 0.45928 0.85637 0.0
H1183 H 0.7864 0.46857 0.82321 0.0
loop_
_geom_bond_atom_site_label_1
_geom_bond_atom_site_label_2
_geom_bond_distance
_geom_bond_site_symmetry_2
_ccdc_geom_bond_type
Zn0 O3 2.031 . S
Zn0 O5 2.049 . S
Zn0 O10 2.067 . S
Zn1 O2 1.962 . S
Zn1 O4 1.986 . S
Zn1 O6 1.996 . S
Zn1 O9 1.943 . S
O2 Zn1 1.962 . S
O2 C7 1.254 . S
O3 Zn0 2.031 . S
O3 C7 1.269 . S
O4 Zn1 1.986 . S
O4 C11 1.262 . S
O5 Zn0 2.049 . S
O5 C13 1.260 . S
O6 Zn1 1.996 . S
O6 C13 1.257 . S
C7 O2 1.254 . S
C7 O3 1.269 . S
C8 O9 1.249 . S
C8 O10 1.270 . S
O9 Zn1 1.943 . S
O9 C8 1.249 . S
O10 Zn0 2.067 . S
O10 C8 1.270 . S
C11 O4 1.262 . S
C11 O12 1.232 . S
O12 C11 1.232 . S
C13 O5 1.260 . S
C13 O6 1.257 . S
Zn14 O17 2.031 . S
Zn14 O19 2.049 . S
Zn14 O24 2.067 . S
Zn15 O16 1.962 . S
Zn15 O18 1.986 . S
Zn15 O20 1.996 . S
Zn15 O23 1.943 . S
O16 Zn15 1.962 . S
O16 C21 1.254 . S
O17 Zn14 2.031 . S
O17 C21 1.269 . S
O18 Zn15 1.986 . S
O18 C25 1.262 . S
O19 Zn14 2.049 . S
O19 C27 1.260 . S
O20 Zn15 1.996 . S
O20 C27 1.257 . S
C21 O16 1.254 . S
C21 O17 1.269 . S
C22 O23 1.249 . S
C22 O24 1.270 . S
O23 Zn15 1.943 . S
O23 C22 1.249 . S
O24 Zn14 2.067 . S
O24 C22 1.270 . S
C25 O18 1.262 . S
C25 O26 1.232 . S
O26 C25 1.232 . S
C27 O19 1.260 . S
C27 O20 1.257 . S
Zn28 O31 2.031 . S
Zn28 O33 2.049 . S
Zn28 O38 2.067 . S
Zn29 O30 1.962 . S
Zn29 O32 1.986 . S
Zn29 O34 1.996 . S
Zn29 O37 1.943 . S
O30 Zn29 1.962 . S
O30 C35 1.254 . S
O31 Zn28 2.031 . S
O31 C35 1.269 . S
O32 Zn29 1.986 . S
O32 C39 1.262 . S
O33 Zn28 2.049 . S
O33 C41 1.260 . S
O34 Zn29 1.996 . S
O34 C41 1.257 . S
C35 O30 1.254 . S
C35 O31 1.269 . S
C36 O37 1.249 . S
C36 O38 1.270 . S
O37 Zn29 1.943 . S
O37 C36 1.249 . S
O38 Zn28 2.067 . S
O38 C36 1.270 . S
C39 O32 1.262 . S
C39 O40 1.232 . S
O40 C39 1.232 . S
C41 O33 1.260 . S
C41 O34 1.257 . S
Zn42 O45 2.031 . S
Zn42 O47 2.049 . S
Zn42 O52 2.067 . S
Zn43 O44 1.962 . S
Zn43 O46 1.986 . S
Zn43 O48 1.996 . S
Zn43 O51 1.943 . S
O44 Zn43 1.962 . S
O44 C49 1.254 . S
O45 Zn42 2.031 . S
O45 C49 1.269 . S
O46 Zn43 1.986 . S
O46 C53 1.262 . S
O47 Zn42 2.049 . S
O47 C55 1.260 . S
O48 Zn43 1.996 . S
O48 C55 1.257 . S
C49 O44 1.254 . S
C49 O45 1.269 . S
C50 O51 1.249 . S
C50 O52 1.270 . S
O51 Zn43 1.943 . S
O51 C50 1.249 . S
O52 Zn42 2.067 . S
O52 C50 1.270 . S
C53 O46 1.262 . S
C53 O54 1.232 . S
O54 C53 1.232 . S
C55 O47 1.260 . S
C55 O48 1.257 . S
Zn56 O59 2.031 . S
Zn56 O61 2.049 . S
Zn56 O66 2.067 . S
Zn57 O58 1.962 . S
Zn57 O60 1.986 . S
Zn57 O62 1.996 . S
Zn57 O65 1.943 . S
O58 Zn57 1.962 . S
O58 C63 1.254 . S
O59 Zn56 2.031 . S
O59 C63 1.269 . S
O60 Zn57 1.986 . S
O60 C67 1.262 . S
O61 Zn56 2.049 . S
O61 C69 1.260 . S
O62 Zn57 1.996 . S
O62 C69 1.257 . S
C63 O58 1.254 . S
C63 O59 1.269 . S
C64 O65 1.249 . S
C64 O66 1.270 . S
O65 Zn57 1.943 . S
O65 C64 1.249 . S
O66 Zn56 2.067 . S
O66 C64 1.270 . S
C67 O60 1.262 . S
C67 O68 1.232 . S
O68 C67 1.232 . S
C69 O61 1.260 . S
C69 O62 1.257 . S
Zn70 O73 2.031 . S
Zn70 O75 2.049 . S
Zn70 O80 2.067 . S
Zn71 O72 1.962 . S
Zn71 O74 1.986 . S
Zn71 O76 1.996 . S
Zn71 O79 1.943 . S
O72 Zn71 1.962 . S
O72 C77 1.254 . S
O73 Zn70 2.031 . S
O73 C77 1.269 . S
O74 Zn71 1.986 . S
O74 C81 1.262 . S
O75 Zn70 2.049 . S
O75 C83 1.260 . S
O76 Zn71 1.996 . S
O76 C83 1.257 . S
C77 O72 1.254 . S
C77 O73 1.269 . S
C78 O79 1.249 . S
C78 O80 1.270 . S
O79 Zn71 1.943 . S
O79 C78 1.249 . S
O80 Zn70 2.067 . S
O80 C78 1.270 . S
C81 O74 1.262 . S
C81 O82 1.232 . S
O82 C81 1.232 . S
C83 O75 1.260 . S
C83 O76 1.257 . S
Zn84 O87 2.031 . S
Zn84 O89 2.049 . S
Zn84 O94 2.067 . S
Zn85 O86 1.962 . S
Zn85 O88 1.986 . S
Zn85 O90 1.996 . S
Zn85 O93 1.943 . S
O86 Zn85 1.962 . S
O86 C91 1.254 . S
O87 Zn84 2.031 . S
O87 C91 1.269 . S
O88 Zn85 1.986 . S
O88 C95 1.262 . S
O89 Zn84 2.049 . S
O89 C97 1.260 . S
O90 Zn85 1.996 . S
O90 C97 1.257 . S
C91 O86 1.254 . S
C91 O87 1.269 . S
C92 O93 1.249 . S
C92 O94 1.270 . S
O93 Zn85 1.943 . S
O93 C92 1.249 . S
O94 Zn84 2.067 . S
O94 C92 1.270 . S
C95 O88 1.262 . S
C95 O96 1.232 . S
O96 C95 1.232 . S
C97 O89 1.260 . S
C97 O90 1.257 . S
Zn98 O101 2.031 . S
Zn98 O103 2.049 . S
Zn98 O108 2.067 . S
Zn99 O100 1.962 . S
Zn99 O102 1.986 . S
Zn99 O104 1.996 . S
Zn99 O107 1.943 . S
O100 Zn99 1.962 . S
O100 C105 1.254 . S
O101 Zn98 2.031 . S
O101 C105 1.269 . S
O102 Zn99 1.986 . S
O102 C109 1.262 . S
O103 Zn98 2.049 . S
O103 C111 1.260 . S
O104 Zn99 1.996 . S
O104 C111 1.257 . S
C105 O100 1.254 . S
C105 O101 1.269 . S
C106 O107 1.249 . S
C106 O108 1.270 . S
O107 Zn99 1.943 . S
O107 C106 1.249 . S
O108 Zn98 2.067 . S
O108 C106 1.270 . S
C109 O102 1.262 . S
C109 O110 1.232 . S
O110 C109 1.232 . S
C111 O103 1.260 . S
C111 O104 1.257 . S
Zn112 O115 2.031 . S
Zn112 O117 2.049 . S
Zn112 O122 2.067 . S
Zn113 O114 1.962 . S
Zn113 O116 1.986 . S
Zn113 O118 1.996 . S
Zn113 O121 1.943 . S
O114 Zn113 1.962 . S
O114 C119 1.254 . S
O115 Zn112 2.031 . S
O115 C119 1.269 . S
O116 Zn113 1.986 . S
O116 C123 1.262 . S
O117 Zn112 2.049 . S
O117 C125 1.260 . S
O118 Zn113 1.996 . S
O118 C125 1.257 . S
C119 O114 1.254 . S
C119 O115 1.269 . S
C120 O121 1.249 . S
C120 O122 1.270 . S
O121 Zn113 1.943 . S
O121 C120 1.249 . S
O122 Zn112 2.067 . S
O122 C120 1.270 . S
C123 O116 1.262 . S
C123 O124 1.232 . S
O124 C123 1.232 . S
C125 O117 1.260 . S
C125 O118 1.257 . S
Zn126 O129 2.031 . S
Zn126 O131 2.049 . S
Zn126 O136 2.067 . S
Zn127 O128 1.962 . S
Zn127 O130 1.986 . S
Zn127 O132 1.996 . S
Zn127 O135 1.943 . S
O128 Zn127 1.962 . S
O128 C133 1.254 . S
O129 Zn126 2.031 . S
O129 C133 1.269 . S
O130 Zn127 1.986 . S
O130 C137 1.262 . S
O131 Zn126 2.049 . S
O131 C139 1.260 . S
O132 Zn127 1.996 . S
O132 C139 1.257 . S
C133 O128 1.254 . S
C133 O129 1.269 . S
C134 O135 1.249 . S
C134 O136 1.270 . S
O135 Zn127 1.943 . S
O135 C134 1.249 . S
O136 Zn126 2.067 . S
O136 C134 1.270 . S
C137 O130 1.262 . S
C137 O138 1.232 . S
O138 C137 1.232 . S
C139 O131 1.260 . S
C139 O132 1.257 . S
Zn140 O143 2.031 . S
Zn140 O145 2.049 . S
Zn140 O150 2.067 . S
Zn141 O142 1.962 . S
Zn141 O144 1.986 . S
Zn141 O146 1.996 . S
Zn141 O149 1.943 . S
O142 Zn141 1.962 . S
O142 C147 1.254 . S
O143 Zn140 2.031 . S
O143 C147 1.269 . S
O144 Zn141 1.986 . S
O144 C151 1.262 . S
O145 Zn140 2.049 . S
O145 C153 1.260 . S
O146 Zn141 1.996 . S
O146 C153 1.257 . S
C147 O142 1.254 . S
C147 O143 1.269 . S
C148 O149 1.249 . S
C148 O150 1.270 . S
O149 Zn141 1.943 . S
O149 C148 1.249 . S
O150 Zn140 2.067 . S
O150 C148 1.270 . S
C151 O144 1.262 . S
C151 O152 1.232 . S
O152 C151 1.232 . S
C153 O145 1.260 . S
C153 O146 1.257 . S
Zn154 O157 2.031 . S
Zn154 O159 2.049 . S
Zn154 O164 2.067 . S
Zn155 O156 1.962 . S
Zn155 O158 1.986 . S
Zn155 O160 1.996 . S
Zn155 O163 1.943 . S
O156 Zn155 1.962 . S
O156 C161 1.254 . S
O157 Zn154 2.031 . S
O157 C161 1.269 . S
O158 Zn155 1.986 . S
O158 C165 1.262 . S
O159 Zn154 2.049 . S
O159 C167 1.260 . S
O160 Zn155 1.996 . S
O160 C167 1.257 . S
C161 O156 1.254 . S
C161 O157 1.269 . S
C162 O163 1.249 . S
C162 O164 1.270 . S
O163 Zn155 1.943 . S
O163 C162 1.249 . S
O164 Zn154 2.067 . S
O164 C162 1.270 . S
C165 O158 1.262 . S
C165 O166 1.232 . S
O166 C165 1.232 . S
C167 O159 1.260 . S
C167 O160 1.257 . S
Zn168 O171 2.031 . S
Zn168 O173 2.049 . S
Zn168 O178 2.067 . S
Zn169 O170 1.962 . S
Zn169 O172 1.986 . S
Zn169 O174 1.996 . S
Zn169 O177 1.943 . S
O170 Zn169 1.962 . S
O170 C175 1.254 . S
O171 Zn168 2.031 . S
O171 C175 1.269 . S
O172 Zn169 1.986 . S
O172 C179 1.262 . S
O173 Zn168 2.049 . S
O173 C181 1.260 . S
O174 Zn169 1.996 . S
O174 C181 1.257 . S
C175 O170 1.254 . S
C175 O171 1.269 . S
C176 O177 1.249 . S
C176 O178 1.270 . S
O177 Zn169 1.943 . S
O177 C176 1.249 . S
O178 Zn168 2.067 . S
O178 C176 1.270 . S
C179 O172 1.262 . S
C179 O180 1.232 . S
O180 C179 1.232 . S
C181 O173 1.260 . S
C181 O174 1.257 . S
Zn182 O185 2.031 . S
Zn182 O187 2.049 . S
Zn182 O192 2.067 . S
Zn183 O184 1.962 . S
Zn183 O186 1.986 . S
Zn183 O188 1.996 . S
Zn183 O191 1.943 . S
O184 Zn183 1.962 . S
O184 C189 1.254 . S
O185 Zn182 2.031 . S
O185 C189 1.269 . S
O186 Zn183 1.986 . S
O186 C193 1.262 . S
O187 Zn182 2.049 . S
O187 C195 1.260 . S
O188 Zn183 1.996 . S
O188 C195 1.257 . S
C189 O184 1.254 . S
C189 O185 1.269 . S
C190 O191 1.249 . S
C190 O192 1.270 . S
O191 Zn183 1.943 . S
O191 C190 1.249 . S
O192 Zn182 2.067 . S
O192 C190 1.270 . S
C193 O186 1.262 . S
C193 O194 1.232 . S
O194 C193 1.232 . S
C195 O187 1.260 . S
C195 O188 1.257 . S
Zn196 O199 2.031 . S
Zn196 O201 2.049 . S
Zn196 O206 2.067 . S
Zn197 O198 1.962 . S
Zn197 O200 1.986 . S
Zn197 O202 1.996 . S
Zn197 O205 1.943 . S
O198 Zn197 1.962 . S
O198 C203 1.254 . S
O199 Zn196 2.031 . S
O199 C203 1.269 . S
O200 Zn197 1.986 . S
O200 C207 1.262 . S
O201 Zn196 2.049 . S
O201 C209 1.260 . S
O202 Zn197 1.996 . S
O202 C209 1.257 . S
C203 O198 1.254 . S
C203 O199 1.269 . S
C204 O205 1.249 . S
C204 O206 1.270 . S
O205 Zn197 1.943 . S
O205 C204 1.249 . S
O206 Zn196 2.067 . S
O206 C204 1.270 . S
C207 O200 1.262 . S
C207 O208 1.232 . S
O208 C207 1.232 . S
C209 O201 1.260 . S
C209 O202 1.257 . S
Zn210 O213 2.031 . S
Zn210 O215 2.049 . S
Zn210 O220 2.067 . S
Zn211 O212 1.962 . S
Zn211 O214 1.986 . S
Zn211 O216 1.996 . S
Zn211 O219 1.943 . S
O212 Zn211 1.962 . S
O212 C217 1.254 . S
O213 Zn210 2.031 . S
O213 C217 1.269 . S
O214 Zn211 1.986 . S
O214 C221 1.262 . S
O215 Zn210 2.049 . S
O215 C223 1.260 . S
O216 Zn211 1.996 . S
O216 C223 1.257 . S
C217 O212 1.254 . S
C217 O213 1.269 . S
C218 O219 1.249 . S
C218 O220 1.270 . S
O219 Zn211 1.943 . S
O219 C218 1.249 . S
O220 Zn210 2.067 . S
O220 C218 1.270 . S
C221 O214 1.262 . S
C221 O222 1.232 . S
O222 C221 1.232 . S
C223 O215 1.260 . S
C223 O216 1.257 . S
C224 C225 1.349 . S
C224 C226 1.327 . S
C224 H249 0.950 . S
C225 C224 1.349 . S
C225 C241 1.349 . S
C226 C224 1.327 . S
C226 C245 1.429 . S
C226 H250 0.950 . S
C227 C244 1.574 . S
C227 C246 1.368 . S
C227 H251 0.949 . S
H228 C232 0.949 . S
C229 C230 1.349 . S
C229 C231 1.327 . S
C229 H252 0.950 . S
C230 C229 1.349 . S
C230 C242 1.349 . S
C231 C229 1.327 . S
C231 C247 1.429 . S
C231 H253 0.950 . S
C232 H228 0.949 . S
C232 C240 1.574 . S
C232 C248 1.368 . S
H233 C241 0.950 . S
H234 C239 0.950 . S
H235 C240 0.949 . S
H236 C242 0.950 . S
H237 C243 0.950 . S
H238 C244 0.949 . S
C239 H234 0.950 . S
C239 C241 1.327 . S
C239 C245 1.429 . S
C240 C232 1.574 . S
C240 H235 0.949 . S
C240 C246 1.368 . S
C241 C225 1.349 . S
C241 H233 0.950 . S
C241 C239 1.327 . S
C242 C230 1.349 . S
C242 H236 0.950 . S
C242 C243 1.327 . S
C243 H237 0.950 . S
C243 C242 1.327 . S
C243 C247 1.429 . S
C244 C227 1.574 . S
C244 H238 0.949 . S
C244 C248 1.368 . S
C245 C226 1.429 . S
C245 C239 1.429 . S
C245 C246 1.523 . S
C246 C227 1.368 . S
C246 C240 1.368 . S
C246 C245 1.523 . S
C247 C231 1.429 . S
C247 C243 1.429 . S
C247 C248 1.523 . S
C248 C232 1.368 . S
C248 C244 1.368 . S
C248 C247 1.523 . S
H249 C224 0.950 . S
H250 C226 0.950 . S
H251 C227 0.949 . S
H252 C229 0.950 . S
H253 C231 0.950 . S
C254 C255 1.349 . S
C254 C256 1.327 . S
C254 H279 0.950 . S
C255 C254 1.349 . S
C255 C271 1.349 . S
C256 C254 1.327 . S
C256 C275 1.429 . S
C256 H280 0.950 . S
C257 C274 1.574 . S
C257 C276 1.368 . S
C257 H281 0.949 . S
H258 C262 0.949 . S
C259 C260 1.349 . S
C259 C261 1.327 . S
C259 H282 0.950 . S
C260 C259 1.349 . S
C260 C272 1.349 . S
C261 C259 1.327 . S
C261 C277 1.429 . S
C261 H283 0.950 . S
C262 H258 0.949 . S
C262 C270 1.574 . S
C262 C278 1.368 . S
H263 C271 0.950 . S
H264 C269 0.950 . S
H265 C270 0.949 . S
H266 C272 0.950 . S
H267 C273 0.950 . S
H268 C274 0.949 . S
C269 H264 0.950 . S
C269 C271 1.327 . S
C269 C275 1.429 . S
C270 C262 1.574 . S
C270 H265 0.949 . S
C270 C276 1.368 . S
C271 C255 1.349 . S
C271 H263 0.950 . S
C271 C269 1.327 . S
C272 C260 1.349 . S
C272 H266 0.950 . S
C272 C273 1.327 . S
C273 H267 0.950 . S
C273 C272 1.327 . S
C273 C277 1.429 . S
C274 C257 1.574 . S
C274 H268 0.949 . S
C274 C278 1.368 . S
C275 C256 1.429 . S
C275 C269 1.429 . S
C275 C276 1.523 . S
C276 C257 1.368 . S
C276 C270 1.368 . S
C276 C275 1.523 . S
C277 C261 1.429 . S
C277 C273 1.429 . S
C277 C278 1.523 . S
C278 C262 1.368 . S
C278 C274 1.368 . S
C278 C277 1.523 . S
H279 C254 0.950 . S
H280 C256 0.950 . S
H281 C257 0.949 . S
H282 C259 0.950 . S
H283 C261 0.950 . S
C284 C285 1.349 . S
C284 C286 1.327 . S
C284 H309 0.950 . S
C285 C284 1.349 . S
C285 C301 1.349 . S
C286 C284 1.327 . S
C286 C305 1.429 . S
C286 H310 0.950 . S
C287 C304 1.574 . S
C287 C306 1.368 . S
C287 H311 0.949 . S
H288 C292 0.949 . S
C289 C290 1.349 . S
C289 C291 1.327 . S
C289 H312 0.950 . S
C290 C289 1.349 . S
C290 C302 1.349 . S
C291 C289 1.327 . S
C291 C307 1.429 . S
C291 H313 0.950 . S
C292 H288 0.949 . S
C292 C300 1.574 . S
C292 C308 1.368 . S
H293 C301 0.950 . S
H294 C299 0.950 . S
H295 C300 0.949 . S
H296 C302 0.950 . S
H297 C303 0.950 . S
H298 C304 0.949 . S
C299 H294 0.950 . S
C299 C301 1.327 . S
C299 C305 1.429 . S
C300 C292 1.574 . S
C300 H295 0.949 . S
C300 C306 1.368 . S
C301 C285 1.349 . S
C301 H293 0.950 . S
C301 C299 1.327 . S
C302 C290 1.349 . S
C302 H296 0.950 . S
C302 C303 1.327 . S
C303 H297 0.950 . S
C303 C302 1.327 . S
C303 C307 1.429 . S
C304 C287 1.574 . S
C304 H298 0.949 . S
C304 C308 1.368 . S
C305 C286 1.429 . S
C305 C299 1.429 . S
C305 C306 1.523 . S
C306 C287 1.368 . S
C306 C300 1.368 . S
C306 C305 1.523 . S
C307 C291 1.429 . S
C307 C303 1.429 . S
C307 C308 1.523 . S
C308 C292 1.368 . S
C308 C304 1.368 . S
C308 C307 1.523 . S
H309 C284 0.950 . S
H310 C286 0.950 . S
H311 C287 0.949 . S
H312 C289 0.950 . S
H313 C291 0.950 . S
C314 C315 1.349 . S
C314 C316 1.327 . S
C314 H339 0.950 . S
C315 C314 1.349 . S
C315 C331 1.349 . S
C316 C314 1.327 . S
C316 C335 1.429 . S
C316 H340 0.950 . S
C317 C334 1.574 1_455 S
C317 C336 1.368 . S
C317 H341 0.949 . S
H318 C322 0.949 . S
C319 C320 1.349 . S
C319 C321 1.327 . S
C319 H342 0.950 . S
C320 C319 1.349 . S
C320 C332 1.349 . S
C321 C319 1.327 . S
C321 C337 1.429 . S
C321 H343 0.950 . S
C322 H318 0.949 . S
C322 C330 1.574 1_655 S
C322 C338 1.368 . S
H323 C331 0.950 . S
H324 C329 0.950 . S
H325 C330 0.949 . S
H326 C332 0.950 . S
H327 C333 0.950 . S
H328 C334 0.949 . S
C329 H324 0.950 . S
C329 C331 1.327 . S
C329 C335 1.429 . S
C330 C322 1.574 1_455 S
C330 H325 0.949 . S
C330 C336 1.368 . S
C331 C315 1.349 . S
C331 H323 0.950 . S
C331 C329 1.327 . S
C332 C320 1.349 . S
C332 H326 0.950 . S
C332 C333 1.327 . S
C333 H327 0.950 . S
C333 C332 1.327 . S
C333 C337 1.429 . S
C334 C317 1.574 1_655 S
C334 H328 0.949 . S
C334 C338 1.368 . S
C335 C316 1.429 . S
C335 C329 1.429 . S
C335 C336 1.523 . S
C336 C317 1.368 . S
C336 C330 1.368 . S
C336 C335 1.523 . S
C337 C321 1.429 . S
C337 C333 1.429 . S
C337 C338 1.523 . S
C338 C322 1.368 . S
C338 C334 1.368 . S
C338 C337 1.523 . S
H339 C314 0.950 . S
H340 C316 0.950 . S
H341 C317 0.949 . S
H342 C319 0.950 . S
H343 C321 0.950 . S
C344 C345 1.349 . S
C344 C346 1.327 . S
C344 H369 0.950 . S
C345 C344 1.349 . S
C345 C361 1.349 . S
C346 C344 1.327 . S
C346 C365 1.429 . S
C346 H370 0.950 . S
C347 C364 1.574 . S
C347 C366 1.368 . S
C347 H371 0.949 . S
H348 C352 0.949 . S
C349 C350 1.349 . S
C349 C351 1.327 . S
C349 H372 0.950 . S
C350 C349 1.349 . S
C350 C362 1.349 . S
C351 C349 1.327 . S
C351 C367 1.429 . S
C351 H373 0.950 . S
C352 H348 0.949 . S
C352 C360 1.574 . S
C352 C368 1.368 . S
H353 C361 0.950 . S
H354 C359 0.950 . S
H355 C360 0.949 . S
H356 C362 0.950 . S
H357 C363 0.950 . S
H358 C364 0.949 . S
C359 H354 0.950 . S
C359 C361 1.327 . S
C359 C365 1.429 . S
C360 C352 1.574 . S
C360 H355 0.949 . S
C360 C366 1.368 . S
C361 C345 1.349 . S
C361 H353 0.950 . S
C361 C359 1.327 . S
C362 C350 1.349 . S
C362 H356 0.950 . S
C362 C363 1.327 . S
C363 H357 0.950 . S
C363 C362 1.327 . S
C363 C367 1.429 . S
C364 C347 1.574 . S
C364 H358 0.949 . S
C364 C368 1.368 . S
C365 C346 1.429 . S
C365 C359 1.429 . S
C365 C366 1.523 . S
C366 C347 1.368 . S
C366 C360 1.368 . S
C366 C365 1.523 . S
C367 C351 1.429 . S
C367 C363 1.429 . S
C367 C368 1.523 . S
C368 C352 1.368 . S
C368 C364 1.368 . S
C368 C367 1.523 . S
H369 C344 0.950 . S
H370 C346 0.950 . S
H371 C347 0.949 . S
H372 C349 0.950 . S
H373 C351 0.950 . S
C374 C375 1.349 . S
C374 C376 1.327 . S
C374 H399 0.950 . S
C375 C374 1.349 . S
C375 C391 1.349 . S
C376 C374 1.327 . S
C376 C395 1.429 . S
C376 H400 0.950 . S
C377 C394 1.574 1_655 S
C377 C396 1.368 . S
C377 H401 0.949 . S
H378 C382 0.949 . S
C379 C380 1.349 . S
C379 C381 1.327 . S
C379 H402 0.950 . S
C380 C379 1.349 . S
C380 C392 1.349 . S
C381 C379 1.327 . S
C381 C397 1.429 . S
C381 H403 0.950 . S
C382 H378 0.949 . S
C382 C390 1.574 1_455 S
C382 C398 1.368 . S
H383 C391 0.950 . S
H384 C389 0.950 . S
H385 C390 0.949 . S
H386 C392 0.950 . S
H387 C393 0.950 . S
H388 C394 0.949 . S
C389 H384 0.950 . S
C389 C391 1.327 . S
C389 C395 1.429 . S
C390 C382 1.574 1_655 S
C390 H385 0.949 . S
C390 C396 1.368 . S
C391 C375 1.349 . S
C391 H383 0.950 . S
C391 C389 1.327 . S
C392 C380 1.349 . S
C392 H386 0.950 . S
C392 C393 1.327 . S
C393 H387 0.950 . S
C393 C392 1.327 . S
C393 C397 1.429 . S
C394 C377 1.574 1_455 S
C394 H388 0.949 . S
C394 C398 1.368 . S
C395 C376 1.429 . S
C395 C389 1.429 . S
C395 C396 1.523 . S
C396 C377 1.368 . S
C396 C390 1.368 . S
C396 C395 1.523 . S
C397 C381 1.429 . S
C397 C393 1.429 . S
C397 C398 1.523 . S
C398 C382 1.368 . S
C398 C394 1.368 . S
C398 C397 1.523 . S
H399 C374 0.950 . S
H400 C376 0.950 . S
H401 C377 0.949 . S
H402 C379 0.950 . S
H403 C381 0.950 . S
C404 C405 1.349 . S
C404 C406 1.327 . S
C404 H429 0.950 . S
C405 C404 1.349 . S
C405 C421 1.349 . S
C406 C404 1.327 . S
C406 C425 1.429 . S
C406 H430 0.950 . S
C407 C424 1.574 . S
C407 C426 1.368 . S
C407 H431 0.949 . S
H408 C412 0.949 . S
C409 C410 1.349 . S
C409 C411 1.327 . S
C409 H432 0.950 . S
C410 C409 1.349 . S
C410 C422 1.349 . S
C411 C409 1.327 . S
C411 C427 1.429 . S
C411 H433 0.950 . S
C412 H408 0.949 . S
C412 C420 1.574 . S
C412 C428 1.368 . S
H413 C421 0.950 . S
H414 C419 0.950 . S
H415 C420 0.949 . S
H416 C422 0.950 . S
H417 C423 0.950 . S
H418 C424 0.949 . S
C419 H414 0.950 . S
C419 C421 1.327 . S
C419 C425 1.429 . S
C420 C412 1.574 . S
C420 H415 0.949 . S
C420 C426 1.368 . S
C421 C405 1.349 . S
C421 H413 0.950 . S
C421 C419 1.327 . S
C422 C410 1.349 . S
C422 H416 0.950 . S
C422 C423 1.327 . S
C423 H417 0.950 . S
C423 C422 1.327 . S
C423 C427 1.429 . S
C424 C407 1.574 . S
C424 H418 0.949 . S
C424 C428 1.368 . S
C425 C406 1.429 . S
C425 C419 1.429 . S
C425 C426 1.523 . S
C426 C407 1.368 . S
C426 C420 1.368 . S
C426 C425 1.523 . S
C427 C411 1.429 . S
C427 C423 1.429 . S
C427 C428 1.523 . S
C428 C412 1.368 . S
C428 C424 1.368 . S
C428 C427 1.523 . S
H429 C404 0.950 . S
H430 C406 0.950 . S
H431 C407 0.949 . S
H432 C409 0.950 . S
H433 C411 0.950 . S
C434 C435 1.349 . S
C434 C436 1.327 . S
C434 H459 0.950 . S
C435 C434 1.349 . S
C435 C451 1.349 . S
C436 C434 1.327 . S
C436 C455 1.429 . S
C436 H460 0.950 . S
C437 C454 1.574 . S
C437 C456 1.368 . S
C437 H461 0.949 . S
H438 C442 0.949 . S
C439 C440 1.349 . S
C439 C441 1.327 . S
C439 H462 0.950 . S
C440 C439 1.349 . S
C440 C452 1.349 . S
C441 C439 1.327 . S
C441 C457 1.429 . S
C441 H463 0.950 . S
C442 H438 0.949 . S
C442 C450 1.574 . S
C442 C458 1.368 . S
H443 C451 0.950 . S
H444 C449 0.950 . S
H445 C450 0.949 . S
H446 C452 0.950 . S
H447 C453 0.950 . S
H448 C454 0.949 . S
C449 H444 0.950 . S
C449 C451 1.327 . S
C449 C455 1.429 . S
C450 C442 1.574 . S
C450 H445 0.949 . S
C450 C456 1.368 . S
C451 C435 1.349 . S
C451 H443 0.950 . S
C451 C449 1.327 . S
C452 C440 1.349 . S
C452 H446 0.950 . S
C452 C453 1.327 . S
C453 H447 0.950 . S
C453 C452 1.327 . S
C453 C457 1.429 . S
C454 C437 1.574 . S
C454 H448 0.949 . S
C454 C458 1.368 . S
C455 C436 1.429 . S
C455 C449 1.429 . S
C455 C456 1.523 . S
C456 C437 1.368 . S
C456 C450 1.368 . S
C456 C455 1.523 . S
C457 C441 1.429 . S
C457 C453 1.429 . S
C457 C458 1.523 . S
C458 C442 1.368 . S
C458 C454 1.368 . S
C458 C457 1.523 . S
H459 C434 0.950 . S
H460 C436 0.950 . S
H461 C437 0.949 . S
H462 C439 0.950 . S
H463 C441 0.950 . S
C464 C465 1.349 . S
C464 C466 1.327 . S
C464 H489 0.950 . S
C465 C464 1.349 . S
C465 C481 1.349 . S
C466 C464 1.327 . S
C466 C485 1.429 . S
C466 H490 0.950 . S
C467 C484 1.574 . S
C467 C486 1.368 . S
C467 H491 0.949 . S
H468 C472 0.949 . S
C469 C470 1.349 . S
C469 C471 1.327 . S
C469 H492 0.950 . S
C470 C469 1.349 . S
C470 C482 1.349 . S
C471 C469 1.327 . S
C471 C487 1.429 . S
C471 H493 0.950 . S
C472 H468 0.949 . S
C472 C480 1.574 . S
C472 C488 1.368 . S
H473 C481 0.950 . S
H474 C479 0.950 . S
H475 C480 0.949 . S
H476 C482 0.950 . S
H477 C483 0.950 . S
H478 C484 0.949 . S
C479 H474 0.950 . S
C479 C481 1.327 . S
C479 C485 1.429 . S
C480 C472 1.574 . S
C480 H475 0.949 . S
C480 C486 1.368 . S
C481 C465 1.349 . S
C481 H473 0.950 . S
C481 C479 1.327 . S
C482 C470 1.349 . S
C482 H476 0.950 . S
C482 C483 1.327 . S
C483 H477 0.950 . S
C483 C482 1.327 . S
C483 C487 1.429 . S
C484 C467 1.574 . S
C484 H478 0.949 . S
C484 C488 1.368 . S
C485 C466 1.429 . S
C485 C479 1.429 . S
C485 C486 1.523 . S
C486 C467 1.368 . S
C486 C480 1.368 . S
C486 C485 1.523 . S
C487 C471 1.429 . S
C487 C483 1.429 . S
C487 C488 1.523 . S
C488 C472 1.368 . S
C488 C484 1.368 . S
C488 C487 1.523 . S
H489 C464 0.950 . S
H490 C466 0.950 . S
H491 C467 0.949 . S
H492 C469 0.950 . S
H493 C471 0.950 . S
C494 C495 1.349 . S
C494 C496 1.327 . S
C494 H519 0.950 . S
C495 C494 1.349 . S
C495 C511 1.349 . S
C496 C494 1.327 . S
C496 C515 1.429 . S
C496 H520 0.950 . S
C497 C514 1.574 . S
C497 C516 1.368 . S
C497 H521 0.949 . S
H498 C502 0.949 . S
C499 C500 1.349 . S
C499 C501 1.327 . S
C499 H522 0.950 . S
C500 C499 1.349 . S
C500 C512 1.349 . S
C501 C499 1.327 . S
C501 C517 1.429 . S
C501 H523 0.950 . S
C502 H498 0.949 . S
C502 C510 1.574 . S
C502 C518 1.368 . S
H503 C511 0.950 . S
H504 C509 0.950 . S
H505 C510 0.949 . S
H506 C512 0.950 . S
H507 C513 0.950 . S
H508 C514 0.949 . S
C509 H504 0.950 . S
C509 C511 1.327 . S
C509 C515 1.429 . S
C510 C502 1.574 . S
C510 H505 0.949 . S
C510 C516 1.368 . S
C511 C495 1.349 . S
C511 H503 0.950 . S
C511 C509 1.327 . S
C512 C500 1.349 . S
C512 H506 0.950 . S
C512 C513 1.327 . S
C513 H507 0.950 . S
C513 C512 1.327 . S
C513 C517 1.429 . S
C514 C497 1.574 . S
C514 H508 0.949 . S
C514 C518 1.368 . S
C515 C496 1.429 . S
C515 C509 1.429 . S
C515 C516 1.523 . S
C516 C497 1.368 . S
C516 C510 1.368 . S
C516 C515 1.523 . S
C517 C501 1.429 . S
C517 C513 1.429 . S
C517 C518 1.523 . S
C518 C502 1.368 . S
C518 C514 1.368 . S
C518 C517 1.523 . S
H519 C494 0.950 . S
H520 C496 0.950 . S
H521 C497 0.949 . S
H522 C499 0.950 . S
H523 C501 0.950 . S
C524 C525 1.349 . S
C524 C526 1.327 . S
C524 H549 0.950 . S
C525 C524 1.349 . S
C525 C541 1.349 . S
C526 C524 1.327 . S
C526 C545 1.429 . S
C526 H550 0.950 . S
C527 C544 1.574 . S
C527 C546 1.368 . S
C527 H551 0.949 . S
H528 C532 0.949 . S
C529 C530 1.349 . S
C529 C531 1.327 . S
C529 H552 0.950 . S
C530 C529 1.349 . S
C530 C542 1.349 . S
C531 C529 1.327 . S
C531 C547 1.429 . S
C531 H553 0.950 . S
C532 H528 0.949 . S
C532 C540 1.574 . S
C532 C548 1.368 . S
H533 C541 0.950 . S
H534 C539 0.950 . S
H535 C540 0.949 . S
H536 C542 0.950 . S
H537 C543 0.950 . S
H538 C544 0.949 . S
C539 H534 0.950 . S
C539 C541 1.327 . S
C539 C545 1.429 . S
C540 C532 1.574 . S
C540 H535 0.949 . S
C540 C546 1.368 . S
C541 C525 1.349 . S
C541 H533 0.950 . S
C541 C539 1.327 . S
C542 C530 1.349 . S
C542 H536 0.950 . S
C542 C543 1.327 . S
C543 H537 0.950 . S
C543 C542 1.327 . S
C543 C547 1.429 . S
C544 C527 1.574 . S
C544 H538 0.949 . S
C544 C548 1.368 . S
C545 C526 1.429 . S
C545 C539 1.429 . S
C545 C546 1.523 . S
C546 C527 1.368 . S
C546 C540 1.368 . S
C546 C545 1.523 . S
C547 C531 1.429 . S
C547 C543 1.429 . S
C547 C548 1.523 . S
C548 C532 1.368 . S
C548 C544 1.368 . S
C548 C547 1.523 . S
H549 C524 0.950 . S
H550 C526 0.950 . S
H551 C527 0.949 . S
H552 C529 0.950 . S
H553 C531 0.950 . S
C554 C555 1.349 . S
C554 C556 1.327 . S
C554 H579 0.950 . S
C555 C554 1.349 . S
C555 C571 1.349 . S
C556 C554 1.327 . S
C556 C575 1.429 . S
C556 H580 0.950 . S
C557 C574 1.574 . S
C557 C576 1.368 . S
C557 H581 0.949 . S
H558 C562 0.949 . S
C559 C560 1.349 . S
C559 C561 1.327 . S
C559 H582 0.950 . S
C560 C559 1.349 . S
C560 C572 1.349 . S
C561 C559 1.327 . S
C561 C577 1.429 . S
C561 H583 0.950 . S
C562 H558 0.949 . S
C562 C570 1.574 . S
C562 C578 1.368 . S
H563 C571 0.950 . S
H564 C569 0.950 . S
H565 C570 0.949 . S
H566 C572 0.950 . S
H567 C573 0.950 . S
H568 C574 0.949 . S
C569 H564 0.950 . S
C569 C571 1.327 . S
C569 C575 1.429 . S
C570 C562 1.574 . S
C570 H565 0.949 . S
C570 C576 1.368 . S
C571 C555 1.349 . S
C571 H563 0.950 . S
C571 C569 1.327 . S
C572 C560 1.349 . S
C572 H566 0.950 . S
C572 C573 1.327 . S
C573 H567 0.950 . S
C573 C572 1.327 . S
C573 C577 1.429 . S
C574 C557 1.574 . S
C574 H568 0.949 . S
C574 C578 1.368 . S
C575 C556 1.429 . S
C575 C569 1.429 . S
C575 C576 1.523 . S
C576 C557 1.368 . S
C576 C570 1.368 . S
C576 C575 1.523 . S
C577 C561 1.429 . S
C577 C573 1.429 . S
C577 C578 1.523 . S
C578 C562 1.368 . S
C578 C574 1.368 . S
C578 C577 1.523 . S
H579 C554 0.950 . S
H580 C556 0.950 . S
H581 C557 0.949 . S
H582 C559 0.950 . S
H583 C561 0.950 . S
C584 C585 1.349 . S
C584 C586 1.327 . S
C584 H609 0.950 . S
C585 C584 1.349 . S
C585 C601 1.349 . S
C586 C584 1.327 . S
C586 C605 1.429 . S
C586 H610 0.950 . S
C587 C604 1.574 1_455 S
C587 C606 1.368 . S
C587 H611 0.949 . S
H588 C592 0.949 . S
C589 C590 1.349 . S
C589 C591 1.327 . S
C589 H612 0.950 . S
C590 C589 1.349 . S
C590 C602 1.349 . S
C591 C589 1.327 . S
C591 C607 1.429 . S
C591 H613 0.950 . S
C592 H588 0.949 . S
C592 C600 1.574 1_655 S
C592 C608 1.368 . S
H593 C601 0.950 . S
H594 C599 0.950 . S
H595 C600 0.949 . S
H596 C602 0.950 . S
H597 C603 0.950 . S
H598 C604 0.949 . S
C599 H594 0.950 . S
C599 C601 1.327 . S
C599 C605 1.429 . S
C600 C592 1.574 1_455 S
C600 H595 0.949 . S
C600 C606 1.368 . S
C601 C585 1.349 . S
C601 H593 0.950 . S
C601 C599 1.327 . S
C602 C590 1.349 . S
C602 H596 0.950 . S
C602 C603 1.327 . S
C603 H597 0.950 . S
C603 C602 1.327 . S
C603 C607 1.429 . S
C604 C587 1.574 1_655 S
C604 H598 0.949 . S
C604 C608 1.368 . S
C605 C586 1.429 . S
C605 C599 1.429 . S
C605 C606 1.523 . S
C606 C587 1.368 . S
C606 C600 1.368 . S
C606 C605 1.523 . S
C607 C591 1.429 . S
C607 C603 1.429 . S
C607 C608 1.523 . S
C608 C592 1.368 . S
C608 C604 1.368 . S
C608 C607 1.523 . S
H609 C584 0.950 . S
H610 C586 0.950 . S
H611 C587 0.949 . S
H612 C589 0.950 . S
H613 C591 0.950 . S
C614 C615 1.349 . S
C614 C616 1.327 . S
C614 H639 0.950 . S
C615 C614 1.349 . S
C615 C631 1.349 . S
C616 C614 1.327 . S
C616 C635 1.429 . S
C616 H640 0.950 . S
C617 C634 1.574 . S
C617 C636 1.368 . S
C617 H641 0.949 . S
H618 C622 0.949 . S
C619 C620 1.349 . S
C619 C621 1.327 . S
C619 H642 0.950 . S
C620 C619 1.349 . S
C620 C632 1.349 . S
C621 C619 1.327 . S
C621 C637 1.429 . S
C621 H643 0.950 . S
C622 H618 0.949 . S
C622 C630 1.574 . S
C622 C638 1.368 . S
H623 C631 0.950 . S
H624 C629 0.950 . S
H625 C630 0.949 . S
H626 C632 0.950 . S
H627 C633 0.950 . S
H628 C634 0.949 . S
C629 H624 0.950 . S
C629 C631 1.327 . S
C629 C635 1.429 . S
C630 C622 1.574 . S
C630 H625 0.949 . S
C630 C636 1.368 . S
C631 C615 1.349 . S
C631 H623 0.950 . S
C631 C629 1.327 . S
C632 C620 1.349 . S
C632 H626 0.950 . S
C632 C633 1.327 . S
C633 H627 0.950 . S
C633 C632 1.327 . S
C633 C637 1.429 . S
C634 C617 1.574 . S
C634 H628 0.949 . S
C634 C638 1.368 . S
C635 C616 1.429 . S
C635 C629 1.429 . S
C635 C636 1.523 . S
C636 C617 1.368 . S
C636 C630 1.368 . S
C636 C635 1.523 . S
C637 C621 1.429 . S
C637 C633 1.429 . S
C637 C638 1.523 . S
C638 C622 1.368 . S
C638 C634 1.368 . S
C638 C637 1.523 . S
H639 C614 0.950 . S
H640 C616 0.950 . S
H641 C617 0.949 . S
H642 C619 0.950 . S
H643 C621 0.950 . S
C644 C645 1.349 . S
C644 C646 1.327 . S
C644 H669 0.950 . S
C645 C644 1.349 . S
C645 C661 1.349 . S
C646 C644 1.327 . S
C646 C665 1.429 . S
C646 H670 0.950 . S
C647 C664 1.574 . S
C647 C666 1.368 . S
C647 H671 0.949 . S
H648 C652 0.949 . S
C649 C650 1.349 . S
C649 C651 1.327 . S
C649 H672 0.950 . S
C650 C649 1.349 . S
C650 C662 1.349 . S
C651 C649 1.327 . S
C651 C667 1.429 . S
C651 H673 0.950 . S
C652 H648 0.949 . S
C652 C660 1.574 . S
C652 C668 1.368 . S
H653 C661 0.950 . S
H654 C659 0.950 . S
H655 C660 0.949 . S
H656 C662 0.950 . S
H657 C663 0.950 . S
H658 C664 0.949 . S
C659 H654 0.950 . S
C659 C661 1.327 . S
C659 C665 1.429 . S
C660 C652 1.574 . S
C660 H655 0.949 . S
C660 C666 1.368 . S
C661 C645 1.349 . S
C661 H653 0.950 . S
C661 C659 1.327 . S
C662 C650 1.349 . S
C662 H656 0.950 . S
C662 C663 1.327 . S
C663 H657 0.950 . S
C663 C662 1.327 . S
C663 C667 1.429 . S
C664 C647 1.574 . S
C664 H658 0.949 . S
C664 C668 1.368 . S
C665 C646 1.429 . S
C665 C659 1.429 . S
C665 C666 1.523 . S
C666 C647 1.368 . S
C666 C660 1.368 . S
C666 C665 1.523 . S
C667 C651 1.429 . S
C667 C663 1.429 . S
C667 C668 1.523 . S
C668 C652 1.368 . S
C668 C664 1.368 . S
C668 C667 1.523 . S
H669 C644 0.950 . S
H670 C646 0.950 . S
H671 C647 0.949 . S
H672 C649 0.950 . S
H673 C651 0.950 . S
C674 C675 1.349 . S
C674 C676 1.327 . S
C674 H699 0.950 . S
C675 C674 1.349 . S
C675 C691 1.349 . S
C676 C674 1.327 . S
C676 C695 1.429 . S
C676 H700 0.950 . S
C677 C694 1.574 1_455 S
C677 C696 1.368 . S
C677 H701 0.949 . S
H678 C682 0.949 . S
C679 C680 1.349 . S
C679 C681 1.327 . S
C679 H702 0.950 . S
C680 C679 1.349 . S
C680 C692 1.349 . S
C681 C679 1.327 . S
C681 C697 1.429 . S
C681 H703 0.950 . S
C682 H678 0.949 . S
C682 C690 1.574 1_655 S
C682 C698 1.368 . S
H683 C691 0.950 . S
H684 C689 0.950 . S
H685 C690 0.949 . S
H686 C692 0.950 . S
H687 C693 0.950 . S
H688 C694 0.949 . S
C689 H684 0.950 . S
C689 C691 1.327 . S
C689 C695 1.429 . S
C690 C682 1.574 1_455 S
C690 H685 0.949 . S
C690 C696 1.368 . S
C691 C675 1.349 . S
C691 H683 0.950 . S
C691 C689 1.327 . S
C692 C680 1.349 . S
C692 H686 0.950 . S
C692 C693 1.327 . S
C693 H687 0.950 . S
C693 C692 1.327 . S
C693 C697 1.429 . S
C694 C677 1.574 1_655 S
C694 H688 0.949 . S
C694 C698 1.368 . S
C695 C676 1.429 . S
C695 C689 1.429 . S
C695 C696 1.523 . S
C696 C677 1.368 . S
C696 C690 1.368 . S
C696 C695 1.523 . S
C697 C681 1.429 . S
C697 C693 1.429 . S
C697 C698 1.523 . S
C698 C682 1.368 . S
C698 C694 1.368 . S
C698 C697 1.523 . S
H699 C674 0.950 . S
H700 C676 0.950 . S
H701 C677 0.949 . S
H702 C679 0.950 . S
H703 C681 0.950 . S
C704 C705 1.349 . S
C704 C706 1.327 . S
C704 H729 0.950 . S
C705 C704 1.349 . S
C705 C721 1.349 . S
C706 C704 1.327 . S
C706 C725 1.429 . S
C706 H730 0.950 . S
C707 C724 1.605 . S
C707 C726 1.368 . S
C707 H731 0.949 . S
H708 C712 0.949 . S
C709 C710 1.349 . S
C709 C711 1.327 . S
C709 H732 0.950 . S
C710 C709 1.349 . S
C710 C722 1.349 . S
C711 C709 1.327 . S
C711 C727 1.429 . S
C711 H733 0.950 . S
C712 H708 0.949 . S
C712 C720 1.571 1_556 S
C712 C728 1.368 . S
H713 C721 0.950 . S
H714 C719 0.950 . S
H715 C720 0.950 . S
H716 C722 0.950 . S
H717 C723 0.950 . S
H718 C724 0.950 . S
C719 H714 0.950 . S
C719 C721 1.327 . S
C719 C725 1.429 . S
C720 C712 1.571 1_554 S
C720 H715 0.950 . S
C720 C726 1.371 . S
C721 C705 1.349 . S
C721 H713 0.950 . S
C721 C719 1.327 . S
C722 C710 1.349 . S
C722 H716 0.950 . S
C722 C723 1.327 . S
C723 H717 0.950 . S
C723 C722 1.327 . S
C723 C727 1.429 . S
C724 C707 1.605 . S
C724 H718 0.950 . S
C724 C728 1.337 1_554 S
C725 C706 1.429 . S
C725 C719 1.429 . S
C725 C726 1.523 . S
C726 C707 1.368 . S
C726 C720 1.371 . S
C726 C725 1.523 . S
C727 C711 1.429 . S
C727 C723 1.429 . S
C727 C728 1.523 . S
C728 C712 1.368 . S
C728 C724 1.337 1_556 S
C728 C727 1.523 . S
H729 C704 0.950 . S
H730 C706 0.950 . S
H731 C707 0.949 . S
H732 C709 0.950 . S
H733 C711 0.950 . S
C734 C735 1.349 . S
C734 C736 1.327 . S
C734 H759 0.950 . S
C735 C734 1.349 . S
C735 C751 1.349 . S
C736 C734 1.327 . S
C736 C755 1.429 . S
C736 H760 0.950 . S
C737 C754 1.574 . S
C737 C756 1.368 . S
C737 H761 0.949 . S
H738 C742 0.949 . S
C739 C740 1.349 . S
C739 C741 1.327 . S
C739 H762 0.950 . S
C740 C739 1.349 . S
C740 C752 1.349 . S
C741 C739 1.327 . S
C741 C757 1.429 . S
C741 H763 0.950 . S
C742 H738 0.949 . S
C742 C750 1.574 . S
C742 C758 1.368 . S
H743 C751 0.950 . S
H744 C749 0.950 . S
H745 C750 0.949 . S
H746 C752 0.950 . S
H747 C753 0.950 . S
H748 C754 0.949 . S
C749 H744 0.950 . S
C749 C751 1.327 . S
C749 C755 1.429 . S
C750 C742 1.574 . S
C750 H745 0.949 . S
C750 C756 1.368 . S
C751 C735 1.349 . S
C751 H743 0.950 . S
C751 C749 1.327 . S
C752 C740 1.349 . S
C752 H746 0.950 . S
C752 C753 1.327 . S
C753 H747 0.950 . S
C753 C752 1.327 . S
C753 C757 1.429 . S
C754 C737 1.574 . S
C754 H748 0.949 . S
C754 C758 1.368 . S
C755 C736 1.429 . S
C755 C749 1.429 . S
C755 C756 1.523 . S
C756 C737 1.368 . S
C756 C750 1.368 . S
C756 C755 1.523 . S
C757 C741 1.429 . S
C757 C753 1.429 . S
C757 C758 1.523 . S
C758 C742 1.368 . S
C758 C754 1.368 . S
C758 C757 1.523 . S
H759 C734 0.950 . S
H760 C736 0.950 . S
H761 C737 0.949 . S
H762 C739 0.950 . S
H763 C741 0.950 . S
C764 C765 1.349 . S
C764 C766 1.327 . S
C764 H789 0.950 . S
C765 C764 1.349 . S
C765 C781 1.349 . S
C766 C764 1.327 . S
C766 C785 1.429 . S
C766 H790 0.950 . S
C767 C784 1.574 . S
C767 C786 1.368 . S
C767 H791 0.949 . S
H768 C772 0.949 . S
C769 C770 1.349 . S
C769 C771 1.327 . S
C769 H792 0.950 . S
C770 C769 1.349 . S
C770 C782 1.349 . S
C771 C769 1.327 . S
C771 C787 1.429 . S
C771 H793 0.950 . S
C772 H768 0.949 . S
C772 C780 1.574 . S
C772 C788 1.368 . S
H773 C781 0.950 . S
H774 C779 0.950 . S
H775 C780 0.949 . S
H776 C782 0.950 . S
H777 C783 0.950 . S
H778 C784 0.949 . S
C779 H774 0.950 . S
C779 C781 1.327 . S
C779 C785 1.429 . S
C780 C772 1.574 . S
C780 H775 0.949 . S
C780 C786 1.368 . S
C781 C765 1.349 . S
C781 H773 0.950 . S
C781 C779 1.327 . S
C782 C770 1.349 . S
C782 H776 0.950 . S
C782 C783 1.327 . S
C783 H777 0.950 . S
C783 C782 1.327 . S
C783 C787 1.429 . S
C784 C767 1.574 . S
C784 H778 0.949 . S
C784 C788 1.368 . S
C785 C766 1.429 . S
C785 C779 1.429 . S
C785 C786 1.523 . S
C786 C767 1.368 . S
C786 C780 1.368 . S
C786 C785 1.523 . S
C787 C771 1.429 . S
C787 C783 1.429 . S
C787 C788 1.523 . S
C788 C772 1.368 . S
C788 C784 1.368 . S
C788 C787 1.523 . S
H789 C764 0.950 . S
H790 C766 0.950 . S
H791 C767 0.949 . S
H792 C769 0.950 . S
H793 C771 0.950 . S
C794 C795 1.349 . S
C794 C796 1.327 . S
C794 H819 0.950 . S
C795 C794 1.349 . S
C795 C811 1.349 . S
C796 C794 1.327 . S
C796 C815 1.429 . S
C796 H820 0.950 . S
C797 C814 1.574 . S
C797 C816 1.368 . S
C797 H821 0.949 . S
H798 C802 0.949 . S
C799 C800 1.349 . S
C799 C801 1.327 . S
C799 H822 0.950 . S
C800 C799 1.349 . S
C800 C812 1.349 . S
C801 C799 1.327 . S
C801 C817 1.429 . S
C801 H823 0.950 . S
C802 H798 0.949 . S
C802 C810 1.574 . S
C802 C818 1.368 . S
H803 C811 0.950 . S
H804 C809 0.950 . S
H805 C810 0.949 . S
H806 C812 0.950 . S
H807 C813 0.950 . S
H808 C814 0.949 . S
C809 H804 0.950 . S
C809 C811 1.327 . S
C809 C815 1.429 . S
C810 C802 1.574 . S
C810 H805 0.949 . S
C810 C816 1.368 . S
C811 C795 1.349 . S
C811 H803 0.950 . S
C811 C809 1.327 . S
C812 C800 1.349 . S
C812 H806 0.950 . S
C812 C813 1.327 . S
C813 H807 0.950 . S
C813 C812 1.327 . S
C813 C817 1.429 . S
C814 C797 1.574 . S
C814 H808 0.949 . S
C814 C818 1.368 . S
C815 C796 1.429 . S
C815 C809 1.429 . S
C815 C816 1.523 . S
C816 C797 1.368 . S
C816 C810 1.368 . S
C816 C815 1.523 . S
C817 C801 1.429 . S
C817 C813 1.429 . S
C817 C818 1.523 . S
C818 C802 1.368 . S
C818 C814 1.368 . S
C818 C817 1.523 . S
H819 C794 0.950 . S
H820 C796 0.950 . S
H821 C797 0.949 . S
H822 C799 0.950 . S
H823 C801 0.950 . S
C824 C825 1.349 . S
C824 C826 1.327 . S
C824 H849 0.950 . S
C825 C824 1.349 . S
C825 C841 1.349 . S
C826 C824 1.327 . S
C826 C845 1.429 . S
C826 H850 0.950 . S
C827 C844 1.534 1_556 S
C827 C846 1.406 . S
C827 H851 0.952 . S
H828 C832 0.949 1_554 S
C829 C830 1.349 . S
C829 C831 1.327 . S
C829 H852 0.950 . S
C830 C829 1.349 . S
C830 C842 1.349 . S
C831 C829 1.327 . S
C831 C847 1.429 . S
C831 H853 0.950 . S
C832 H828 0.949 1_556 S
C832 C840 1.573 . S
C832 C848 1.369 1_556 S
H833 C841 0.950 . S
H834 C839 0.950 . S
H835 C840 0.949 . S
H836 C842 0.950 . S
H837 C843 0.950 . S
H838 C844 0.949 . S
C839 H834 0.950 . S
C839 C841 1.327 . S
C839 C845 1.429 . S
C840 C832 1.573 . S
C840 H835 0.949 . S
C840 C846 1.368 . S
C841 C825 1.349 . S
C841 H833 0.950 . S
C841 C839 1.327 . S
C842 C830 1.349 . S
C842 H836 0.950 . S
C842 C843 1.327 . S
C843 H837 0.950 . S
C843 C842 1.327 . S
C843 C847 1.429 . S
C844 C827 1.534 1_554 S
C844 H838 0.949 . S
C844 C848 1.368 . S
C845 C826 1.429 . S
C845 C839 1.429 . S
C845 C846 1.523 . S
C846 C827 1.406 . S
C846 C840 1.368 . S
C846 C845 1.523 . S
C847 C831 1.429 . S
C847 C843 1.429 . S
C847 C848 1.523 . S
C848 C832 1.369 1_554 S
C848 C844 1.368 . S
C848 C847 1.523 . S
H849 C824 0.950 . S
H850 C826 0.950 . S
H851 C827 0.952 . S
H852 C829 0.950 . S
H853 C831 0.950 . S
C854 C855 1.349 . S
C854 C856 1.327 . S
C854 H879 0.950 . S
C855 C854 1.349 . S
C855 C871 1.349 . S
C856 C854 1.327 . S
C856 C875 1.429 . S
C856 H880 0.950 . S
C857 C874 1.574 . S
C857 C876 1.368 . S
C857 H881 0.949 . S
H858 C862 0.949 . S
C859 C860 1.349 . S
C859 C861 1.327 . S
C859 H882 0.950 . S
C860 C859 1.349 . S
C860 C872 1.349 . S
C861 C859 1.327 . S
C861 C877 1.429 . S
C861 H883 0.950 . S
C862 H858 0.949 . S
C862 C870 1.574 . S
C862 C878 1.368 . S
H863 C871 0.950 . S
H864 C869 0.950 . S
H865 C870 0.949 . S
H866 C872 0.950 . S
H867 C873 0.950 . S
H868 C874 0.949 . S
C869 H864 0.950 . S
C869 C871 1.327 . S
C869 C875 1.429 . S
C870 C862 1.574 . S
C870 H865 0.949 . S
C870 C876 1.368 . S
C871 C855 1.349 . S
C871 H863 0.950 . S
C871 C869 1.327 . S
C872 C860 1.349 . S
C872 H866 0.950 . S
C872 C873 1.327 . S
C873 H867 0.950 . S
C873 C872 1.327 . S
C873 C877 1.429 . S
C874 C857 1.574 . S
C874 H868 0.949 . S
C874 C878 1.368 . S
C875 C856 1.429 . S
C875 C869 1.429 . S
C875 C876 1.523 . S
C876 C857 1.368 . S
C876 C870 1.368 . S
C876 C875 1.523 . S
C877 C861 1.429 . S
C877 C873 1.429 . S
C877 C878 1.523 . S
C878 C862 1.368 . S
C878 C874 1.368 . S
C878 C877 1.523 . S
H879 C854 0.950 . S
H880 C856 0.950 . S
H881 C857 0.949 . S
H882 C859 0.950 . S
H883 C861 0.950 . S
C884 C885 1.349 . S
C884 C886 1.327 . S
C884 H909 0.950 . S
C885 C884 1.349 . S
C885 C901 1.349 . S
C886 C884 1.327 . S
C886 C905 1.429 . S
C886 H910 0.950 . S
C887 C904 1.574 . S
C887 C906 1.368 . S
C887 H911 0.949 . S
H888 C892 0.949 . S
C889 C890 1.349 . S
C889 C891 1.327 . S
C889 H912 0.950 . S
C890 C889 1.349 . S
C890 C902 1.349 . S
C891 C889 1.327 . S
C891 C907 1.429 . S
C891 H913 0.950 . S
C892 H888 0.949 . S
C892 C900 1.574 . S
C892 C908 1.368 . S
H893 C901 0.950 . S
H894 C899 0.950 . S
H895 C900 0.949 . S
H896 C902 0.950 . S
H897 C903 0.950 . S
H898 C904 0.949 . S
C899 H894 0.950 . S
C899 C901 1.327 . S
C899 C905 1.429 . S
C900 C892 1.574 . S
C900 H895 0.949 . S
C900 C906 1.368 . S
C901 C885 1.349 . S
C901 H893 0.950 . S
C901 C899 1.327 . S
C902 C890 1.349 . S
C902 H896 0.950 . S
C902 C903 1.327 . S
C903 H897 0.950 . S
C903 C902 1.327 . S
C903 C907 1.429 . S
C904 C887 1.574 . S
C904 H898 0.949 . S
C904 C908 1.368 . S
C905 C886 1.429 . S
C905 C899 1.429 . S
C905 C906 1.523 . S
C906 C887 1.368 . S
C906 C900 1.368 . S
C906 C905 1.523 . S
C907 C891 1.429 . S
C907 C903 1.429 . S
C907 C908 1.523 . S
C908 C892 1.368 . S
C908 C904 1.368 . S
C908 C907 1.523 . S
H909 C884 0.950 . S
H910 C886 0.950 . S
H911 C887 0.949 . S
H912 C889 0.950 . S
H913 C891 0.950 . S
C914 C915 1.349 . S
C914 C916 1.327 . S
C914 H939 0.950 . S
C915 C914 1.349 . S
C915 C931 1.349 . S
C916 C914 1.327 . S
C916 C935 1.429 . S
C916 H940 0.950 . S
C917 C934 1.574 . S
C917 C936 1.368 . S
C917 H941 0.949 . S
H918 C922 0.949 . S
C919 C920 1.349 . S
C919 C921 1.327 . S
C919 H942 0.950 . S
C920 C919 1.349 . S
C920 C932 1.349 . S
C921 C919 1.327 . S
C921 C937 1.429 . S
C921 H943 0.950 . S
C922 H918 0.949 . S
C922 C930 1.574 . S
C922 C938 1.368 . S
H923 C931 0.950 . S
H924 C929 0.950 . S
H925 C930 0.949 . S
H926 C932 0.950 . S
H927 C933 0.950 . S
H928 C934 0.949 . S
C929 H924 0.950 . S
C929 C931 1.327 . S
C929 C935 1.429 . S
C930 C922 1.574 . S
C930 H925 0.949 . S
C930 C936 1.368 . S
C931 C915 1.349 . S
C931 H923 0.950 . S
C931 C929 1.327 . S
C932 C920 1.349 . S
C932 H926 0.950 . S
C932 C933 1.327 . S
C933 H927 0.950 . S
C933 C932 1.327 . S
C933 C937 1.429 . S
C934 C917 1.574 . S
C934 H928 0.949 . S
C934 C938 1.368 . S
C935 C916 1.429 . S
C935 C929 1.429 . S
C935 C936 1.523 . S
C936 C917 1.368 . S
C936 C930 1.368 . S
C936 C935 1.523 . S
C937 C921 1.429 . S
C937 C933 1.429 . S
C937 C938 1.523 . S
C938 C922 1.368 . S
C938 C934 1.368 . S
C938 C937 1.523 . S
H939 C914 0.950 . S
H940 C916 0.950 . S
H941 C917 0.949 . S
H942 C919 0.950 . S
H943 C921 0.950 . S
C944 C945 1.349 . S
C944 C946 1.327 . S
C944 H969 0.950 . S
C945 C944 1.349 . S
C945 C961 1.349 . S
C946 C944 1.327 . S
C946 C965 1.429 . S
C946 H970 0.950 . S
C947 C964 1.574 1_545 S
C947 C966 1.368 . S
C947 H971 0.949 . S
H948 C952 0.949 . S
C949 C950 1.349 . S
C949 C951 1.327 . S
C949 H972 0.950 . S
C950 C949 1.349 . S
C950 C962 1.349 . S
C951 C949 1.327 . S
C951 C967 1.429 . S
C951 H973 0.950 . S
C952 H948 0.949 . S
C952 C960 1.574 1_565 S
C952 C968 1.368 . S
H953 C961 0.950 . S
H954 C959 0.950 . S
H955 C960 0.949 . S
H956 C962 0.950 . S
H957 C963 0.950 . S
H958 C964 0.949 . S
C959 H954 0.950 . S
C959 C961 1.327 . S
C959 C965 1.429 . S
C960 C952 1.574 1_545 S
C960 H955 0.949 . S
C960 C966 1.368 . S
C961 C945 1.349 . S
C961 H953 0.950 . S
C961 C959 1.327 . S
C962 C950 1.349 . S
C962 H956 0.950 . S
C962 C963 1.327 . S
C963 H957 0.950 . S
C963 C962 1.327 . S
C963 C967 1.429 . S
C964 C947 1.574 1_565 S
C964 H958 0.949 . S
C964 C968 1.368 . S
C965 C946 1.429 . S
C965 C959 1.429 . S
C965 C966 1.523 . S
C966 C947 1.368 . S
C966 C960 1.368 . S
C966 C965 1.523 . S
C967 C951 1.429 . S
C967 C963 1.429 . S
C967 C968 1.523 . S
C968 C952 1.368 . S
C968 C964 1.368 . S
C968 C967 1.523 . S
H969 C944 0.950 . S
H970 C946 0.950 . S
H971 C947 0.949 . S
H972 C949 0.950 . S
H973 C951 0.950 . S
C974 C975 1.349 . S
C974 C976 1.327 . S
C974 H999 0.950 . S
C975 C974 1.349 . S
C975 C991 1.349 . S
C976 C974 1.327 . S
C976 C995 1.429 . S
C976 H1000 0.950 . S
C977 C994 1.574 . S
C977 C996 1.368 . S
C977 H1001 0.949 . S
H978 C982 0.949 . S
C979 C980 1.349 . S
C979 C981 1.327 . S
C979 H1002 0.950 . S
C980 C979 1.349 . S
C980 C992 1.349 . S
C981 C979 1.327 . S
C981 C997 1.429 . S
C981 H1003 0.950 . S
C982 H978 0.949 . S
C982 C990 1.574 . S
C982 C998 1.368 . S
H983 C991 0.950 . S
H984 C989 0.950 . S
H985 C990 0.949 . S
H986 C992 0.950 . S
H987 C993 0.950 . S
H988 C994 0.949 . S
C989 H984 0.950 . S
C989 C991 1.327 . S
C989 C995 1.429 . S
C990 C982 1.574 . S
C990 H985 0.949 . S
C990 C996 1.368 . S
C991 C975 1.349 . S
C991 H983 0.950 . S
C991 C989 1.327 . S
C992 C980 1.349 . S
C992 H986 0.950 . S
C992 C993 1.327 . S
C993 H987 0.950 . S
C993 C992 1.327 . S
C993 C997 1.429 . S
C994 C977 1.574 . S
C994 H988 0.949 . S
C994 C998 1.368 . S
C995 C976 1.429 . S
C995 C989 1.429 . S
C995 C996 1.523 . S
C996 C977 1.368 . S
C996 C990 1.368 . S
C996 C995 1.523 . S
C997 C981 1.429 . S
C997 C993 1.429 . S
C997 C998 1.523 . S
C998 C982 1.368 . S
C998 C994 1.368 . S
C998 C997 1.523 . S
H999 C974 0.950 . S
H1000 C976 0.950 . S
H1001 C977 0.949 . S
H1002 C979 0.950 . S
H1003 C981 0.950 . S
C1004 C1005 1.349 . S
C1004 C1006 1.327 . S
C1004 H1029 0.950 . S
C1005 C1004 1.349 . S
C1005 C1021 1.349 . S
C1006 C1004 1.327 . S
C1006 C1025 1.429 . S
C1006 H1030 0.950 . S
C1007 C1024 1.574 1_546 S
C1007 C1026 1.368 . S
C1007 H1031 0.949 . S
H1008 C1012 0.949 . S
C1009 C1010 1.349 . S
C1009 C1011 1.327 . S
C1009 H1032 0.950 . S
C1010 C1009 1.349 . S
C1010 C1022 1.349 . S
C1011 C1009 1.327 . S
C1011 C1027 1.429 . S
C1011 H1033 0.950 . S
C1012 H1008 0.949 . S
C1012 C1020 1.574 1_564 S
C1012 C1028 1.368 . S
H1013 C1021 0.950 . S
H1014 C1019 0.950 . S
H1015 C1020 0.949 . S
H1016 C1022 0.950 . S
H1017 C1023 0.950 . S
H1018 C1024 0.949 . S
C1019 H1014 0.950 . S
C1019 C1021 1.327 . S
C1019 C1025 1.429 . S
C1020 C1012 1.574 1_546 S
C1020 H1015 0.949 . S
C1020 C1026 1.368 . S
C1021 C1005 1.349 . S
C1021 H1013 0.950 . S
C1021 C1019 1.327 . S
C1022 C1010 1.349 . S
C1022 H1016 0.950 . S
C1022 C1023 1.327 . S
C1023 H1017 0.950 . S
C1023 C1022 1.327 . S
C1023 C1027 1.429 . S
C1024 C1007 1.574 1_564 S
C1024 H1018 0.949 . S
C1024 C1028 1.368 . S
C1025 C1006 1.429 . S
C1025 C1019 1.429 . S
C1025 C1026 1.523 . S
C1026 C1007 1.368 . S
C1026 C1020 1.368 . S
C1026 C1025 1.523 . S
C1027 C1011 1.429 . S
C1027 C1023 1.429 . S
C1027 C1028 1.523 . S
C1028 C1012 1.368 . S
C1028 C1024 1.368 . S
C1028 C1027 1.523 . S
H1029 C1004 0.950 . S
H1030 C1006 0.950 . S
H1031 C1007 0.949 . S
H1032 C1009 0.950 . S
H1033 C1011 0.950 . S
C1034 C1035 1.349 . S
C1034 C1036 1.327 . S
C1034 H1059 0.950 . S
C1035 C1034 1.349 . S
C1035 C1051 1.349 . S
C1036 C1034 1.327 . S
C1036 C1055 1.429 . S
C1036 H1060 0.950 . S
C1037 C1054 1.574 . S
C1037 C1056 1.368 . S
C1037 H1061 0.949 . S
H1038 C1042 0.949 . S
C1039 C1040 1.349 . S
C1039 C1041 1.327 . S
C1039 H1062 0.950 . S
C1040 C1039 1.349 . S
C1040 C1052 1.349 . S
C1041 C1039 1.327 . S
C1041 C1057 1.429 . S
C1041 H1063 0.950 . S
C1042 H1038 0.949 . S
C1042 C1050 1.574 . S
C1042 C1058 1.368 . S
H1043 C1051 0.950 . S
H1044 C1049 0.950 . S
H1045 C1050 0.949 . S
H1046 C1052 0.950 . S
H1047 C1053 0.950 . S
H1048 C1054 0.949 . S
C1049 H1044 0.950 . S
C1049 C1051 1.327 . S
C1049 C1055 1.429 . S
C1050 C1042 1.574 . S
C1050 H1045 0.949 . S
C1050 C1056 1.368 . S
C1051 C1035 1.349 . S
C1051 H1043 0.950 . S
C1051 C1049 1.327 . S
C1052 C1040 1.349 . S
C1052 H1046 0.950 . S
C1052 C1053 1.327 . S
C1053 H1047 0.950 . S
C1053 C1052 1.327 . S
C1053 C1057 1.429 . S
C1054 C1037 1.574 . S
C1054 H1048 0.949 . S
C1054 C1058 1.368 . S
C1055 C1036 1.429 . S
C1055 C1049 1.429 . S
C1055 C1056 1.523 . S
C1056 C1037 1.368 . S
C1056 C1050 1.368 . S
C1056 C1055 1.523 . S
C1057 C1041 1.429 . S
C1057 C1053 1.429 . S
C1057 C1058 1.523 . S
C1058 C1042 1.368 . S
C1058 C1054 1.368 . S
C1058 C1057 1.523 . S
H1059 C1034 0.950 . S
H1060 C1036 0.950 . S
H1061 C1037 0.949 . S
H1062 C1039 0.950 . S
H1063 C1041 0.950 . S
C1064 C1065 1.349 . S
C1064 C1066 1.327 . S
C1064 H1089 0.950 . S
C1065 C1064 1.349 . S
C1065 C1081 1.349 . S
C1066 C1064 1.327 . S
C1066 C1085 1.429 . S
C1066 H1090 0.950 . S
C1067 C1084 1.574 . S
C1067 C1086 1.368 1_565 S
C1067 H1091 0.949 . S
H1068 C1072 0.949 . S
C1069 C1070 1.349 . S
C1069 C1071 1.327 . S
C1069 H1092 0.950 . S
C1070 C1069 1.349 . S
C1070 C1082 1.349 . S
C1071 C1069 1.327 . S
C1071 C1087 1.429 . S
C1071 H1093 0.950 . S
C1072 H1068 0.949 . S
C1072 C1080 1.574 . S
C1072 C1088 1.368 1_545 S
H1073 C1081 0.950 . S
H1074 C1079 0.950 . S
H1075 C1080 0.949 . S
H1076 C1082 0.950 . S
H1077 C1083 0.950 . S
H1078 C1084 0.949 . S
C1079 H1074 0.950 . S
C1079 C1081 1.327 . S
C1079 C1085 1.429 . S
C1080 C1072 1.574 . S
C1080 H1075 0.949 . S
C1080 C1086 1.368 . S
C1081 C1065 1.349 . S
C1081 H1073 0.950 . S
C1081 C1079 1.327 . S
C1082 C1070 1.349 . S
C1082 H1076 0.950 . S
C1082 C1083 1.327 . S
C1083 H1077 0.950 . S
C1083 C1082 1.327 . S
C1083 C1087 1.429 . S
C1084 C1067 1.574 . S
C1084 H1078 0.949 . S
C1084 C1088 1.368 . S
C1085 C1066 1.429 . S
C1085 C1079 1.429 . S
C1085 C1086 1.523 . S
C1086 C1067 1.368 1_545 S
C1086 C1080 1.368 . S
C1086 C1085 1.523 . S
C1087 C1071 1.429 . S
C1087 C1083 1.429 . S
C1087 C1088 1.523 . S
C1088 C1072 1.368 1_565 S
C1088 C1084 1.368 . S
C1088 C1087 1.523 . S
H1089 C1064 0.950 . S
H1090 C1066 0.950 . S
H1091 C1067 0.949 . S
H1092 C1069 0.950 . S
H1093 C1071 0.950 . S
C1094 C1095 1.349 . S
C1094 C1096 1.327 . S
C1094 H1119 0.950 . S
C1095 C1094 1.349 . S
C1095 C1111 1.349 . S
C1096 C1094 1.327 . S
C1096 C1115 1.429 . S
C1096 H1120 0.950 . S
C1097 C1114 1.574 . S
C1097 C1116 1.368 . S
C1097 H1121 0.949 . S
H1098 C1102 0.949 . S
C1099 C1100 1.349 . S
C1099 C1101 1.327 . S
C1099 H1122 0.950 . S
C1100 C1099 1.349 . S
C1100 C1112 1.349 . S
C1101 C1099 1.327 . S
C1101 C1117 1.429 . S
C1101 H1123 0.950 . S
C1102 H1098 0.949 . S
C1102 C1110 1.574 . S
C1102 C1118 1.368 . S
H1103 C1111 0.950 . S
H1104 C1109 0.950 . S
H1105 C1110 0.949 . S
H1106 C1112 0.950 . S
H1107 C1113 0.950 . S
H1108 C1114 0.949 . S
C1109 H1104 0.950 . S
C1109 C1111 1.327 . S
C1109 C1115 1.429 . S
C1110 C1102 1.574 . S
C1110 H1105 0.949 . S
C1110 C1116 1.368 . S
C1111 C1095 1.349 . S
C1111 H1103 0.950 . S
C1111 C1109 1.327 . S
C1112 C1100 1.349 . S
C1112 H1106 0.950 . S
C1112 C1113 1.327 . S
C1113 H1107 0.950 . S
C1113 C1112 1.327 . S
C1113 C1117 1.429 . S
C1114 C1097 1.574 . S
C1114 H1108 0.949 . S
C1114 C1118 1.368 . S
C1115 C1096 1.429 . S
C1115 C1109 1.429 . S
C1115 C1116 1.523 . S
C1116 C1097 1.368 . S
C1116 C1110 1.368 . S
C1116 C1115 1.523 . S
C1117 C1101 1.429 . S
C1117 C1113 1.429 . S
C1117 C1118 1.523 . S
C1118 C1102 1.368 . S
C1118 C1114 1.368 . S
C1118 C1117 1.523 . S
H1119 C1094 0.950 . S
H1120 C1096 0.950 . S
H1121 C1097 0.949 . S
H1122 C1099 0.950 . S
H1123 C1101 0.950 . S
C1124 C1125 1.349 . S
C1124 C1126 1.327 . S
C1124 H1149 0.950 . S
C1125 C1124 1.349 . S
C1125 C1141 1.349 . S
C1126 C1124 1.327 . S
C1126 C1145 1.429 . S
C1126 H1150 0.950 . S
C1127 C1144 1.594 . S
C1127 C1146 1.349 1_556 S
C1127 H1151 0.950 . S
H1128 C1132 0.949 . S
C1129 C1130 1.349 . S
C1129 C1131 1.327 . S
C1129 H1152 0.950 . S
C1130 C1129 1.349 . S
C1130 C1142 1.349 . S
C1131 C1129 1.327 . S
C1131 C1147 1.429 . S
C1131 H1153 0.950 . S
C1132 H1128 0.949 . S
C1132 C1140 1.574 . S
C1132 C1148 1.368 1_554 S
H1133 C1141 0.950 . S
H1134 C1139 0.950 . S
H1135 C1140 0.949 . S
H1136 C1142 0.950 . S
H1137 C1143 0.950 . S
H1138 C1144 0.949 . S
C1139 H1134 0.950 . S
C1139 C1141 1.327 . S
C1139 C1145 1.429 . S
C1140 C1132 1.574 . S
C1140 H1135 0.949 . S
C1140 C1146 1.368 1_545 S
C1141 C1125 1.349 . S
C1141 H1133 0.950 . S
C1141 C1139 1.327 . S
C1142 C1130 1.349 . S
C1142 H1136 0.950 . S
C1142 C1143 1.327 . S
C1143 H1137 0.950 . S
C1143 C1142 1.327 . S
C1143 C1147 1.429 . S
C1144 C1127 1.594 . S
C1144 H1138 0.949 . S
C1144 C1148 1.368 1_565 S
C1145 C1126 1.429 . S
C1145 C1139 1.429 . S
C1145 C1146 1.523 . S
C1146 C1127 1.349 1_554 S
C1146 C1140 1.368 1_565 S
C1146 C1145 1.523 . S
C1147 C1131 1.429 . S
C1147 C1143 1.429 . S
C1147 C1148 1.523 . S
C1148 C1132 1.368 1_556 S
C1148 C1144 1.368 1_545 S
C1148 C1147 1.523 . S
H1149 C1124 0.950 . S
H1150 C1126 0.950 . S
H1151 C1127 0.950 . S
H1152 C1129 0.950 . S
H1153 C1131 0.950 . S
C1154 C1155 1.349 . S
C1154 C1156 1.327 . S
C1154 H1179 0.950 . S
C1155 C1154 1.349 . S
C1155 C1171 1.349 . S
C1156 C1154 1.327 . S
C1156 C1175 1.429 . S
C1156 H1180 0.950 . S
C1157 C1174 1.574 . S
C1157 C1176 1.368 . S
C1157 H1181 0.949 . S
H1158 C1162 0.949 . S
C1159 C1160 1.349 . S
C1159 C1161 1.327 . S
C1159 H1182 0.950 . S
C1160 C1159 1.349 . S
C1160 C1172 1.349 . S
C1161 C1159 1.327 . S
C1161 C1177 1.429 . S
C1161 H1183 0.950 . S
C1162 H1158 0.949 . S
C1162 C1170 1.574 . S
C1162 C1178 1.368 . S
H1163 C1171 0.950 . S
H1164 C1169 0.950 . S
H1165 C1170 0.949 . S
H1166 C1172 0.950 . S
H1167 C1173 0.950 . S
H1168 C1174 0.949 . S
C1169 H1164 0.950 . S
C1169 C1171 1.327 . S
C1169 C1175 1.429 . S
C1170 C1162 1.574 . S
C1170 H1165 0.949 . S
C1170 C1176 1.368 . S
C1171 C1155 1.349 . S
C1171 H1163 0.950 . S
C1171 C1169 1.327 . S
C1172 C1160 1.349 . S
C1172 H1166 0.950 . S
C1172 C1173 1.327 . S
C1173 H1167 0.950 . S
C1173 C1172 1.327 . S
C1173 C1177 1.429 . S
C1174 C1157 1.574 . S
C1174 H1168 0.949 . S
C1174 C1178 1.368 . S
C1175 C1156 1.429 . S
C1175 C1169 1.429 . S
C1175 C1176 1.523 . S
C1176 C1157 1.368 . S
C1176 C1170 1.368 . S
C1176 C1175 1.523 . S
C1177 C1161 1.429 . S
C1177 C1173 1.429 . S
C1177 C1178 1.523 . S
C1178 C1162 1.368 . S
C1178 C1174 1.368 . S
C1178 C1177 1.523 . S
H1179 C1154 0.950 . S
H1180 C1156 0.950 . S
H1181 C1157 0.949 . S
H1182 C1159 0.950 . S
H1183 C1161 0.950 . S
C225 C162 1.243 . S
C230 C13 1.245 . S
C255 C223 1.325 . S
C260 C22 1.332 . S
C285 C41 1.174 . S
C290 C139 1.167 . S
C315 C195 1.157 . S
C320 C55 1.152 . S
C345 C69 1.404 . S
C350 C190 1.400 . S
C375 C78 1.367 . S
C380 C167 1.366 . S
C405 C92 1.447 . S
C410 C218 1.447 . S
C435 C111 1.308 . S
C440 C134 1.316 . S
C465 C50 1.227 . S
C470 C125 1.227 . S
C495 C148 1.383 . S
C500 C27 1.381 . S
C525 C181 1.189 . S
C530 C83 1.194 . S
C555 C204 1.464 . S
C560 C106 1.466 . S
C585 C64 1.378 . S
C590 C120 1.386 . S
C615 C153 1.215 . S
C620 C97 1.207 . S
C645 C209 1.422 . S
C650 C36 1.420 . S
C675 C8 1.367 . S
C680 C176 1.361 . S
C705 C7 1.092 . S
C710 C63 1.091 . S
C735 C25 0.919 . S
C740 C81 0.918 . S
C765 C35 1.125 . S
C770 C95 1.139 . S
C795 C105 1.192 . S
C800 C49 1.187 . S
C825 C119 1.084 . S
C830 C175 1.083 . S
C855 C189 1.066 . S
C860 C137 1.077 . S
C885 C151 0.981 . S
C890 C207 0.983 . S
C915 C217 1.200 . S
C920 C161 1.194 . S
C945 C109 1.108 . S
C950 C21 1.096 . S
C975 C39 1.024 . S
C980 C67 1.026 . S
C1005 C53 1.114 . S
C1010 C77 1.104 . S
C1035 C11 0.999 . S
C1040 C91 0.991 . S
C1065 C133 1.089 . S
C1070 C221 1.101 . S
C1095 C179 1.180 . S
C1100 C147 1.168 . S
C1125 C165 0.958 . S
C1130 C193 0.956 . S
C1155 C203 0.999 . S
C1160 C123 1.007 . S
