# Generated by pormake.
# Topology sxa, (6)-cn, num edge types: 1
# Building blocks:
#     Node 0, Type 0, BuildingBlock: LEVNOQ01_clean_sbu_1, # of connection points: 6
#     Node 1, Type 0, BuildingBlock: LEVNOQ01_clean_sbu_1, # of connection points: 6
#     Node 2, Type 0, BuildingBlock: LEVNOQ01_clean_sbu_1, # of connection points: 6
#     Node 3, Type 0, BuildingBlock: LEVNOQ01_clean_sbu_1, # of connection points: 6
#     Edge 4, Type (0, 0), BuildingBlock: XIVTED_clean_linker_0, # of connection points: 2
#     Edge 5, Type (0, 0), BuildingBlock: XIVTED_clean_linker_0, # of connection points: 2
#     Edge 6, Type (0, 0), BuildingBlock: XIVTED_clean_linker_0, # of connection points: 2
#     Edge 7, Type (0, 0), BuildingBlock: XIVTED_clean_linker_0, # of connection points: 2
#     Edge 8, Type (0, 0), BuildingBlock: XIVTED_clean_linker_0, # of connection points: 2
#     Edge 9, Type (0, 0), BuildingBlock: XIVTED_clean_linker_0, # of connection points: 2
#     Edge 10, Type (0, 0), BuildingBlock: XIVTED_clean_linker_0, # of connection points: 2
#     Edge 11, Type (0, 0), BuildingBlock: XIVTED_clean_linker_0, # of connection points: 2
#     Edge 12, Type (0, 0), BuildingBlock: XIVTED_clean_linker_0, # of connection points: 2
#     Edge 13, Type (0, 0), BuildingBlock: XIVTED_clean_linker_0, # of connection points: 2
#     Edge 14, Type (0, 0), BuildingBlock: XIVTED_clean_linker_0, # of connection points: 2
#     Edge 15, Type (0, 0), BuildingBlock: XIVTED_clean_linker_0, # of connection points: 2
# Relax obj value: 0.188
# Max RMSD: 0.231
# Mean RMSD: 0.231
data_MOF--net-sxa--node1-LEVNOQ01_clean_sbu_1--edge1-XIVTED_clean_linker_0
_symmetry_space_group_name_H-M    P1
_symmetry_Int_Tables_number       1
_symmetry_cell_setting            triclinic
loop_
_symmetry_equiv_pos_as_xyz
'x, y, z'
_cell_length_a     26.717316
_cell_length_b     29.272492
_cell_length_c     16.070137
_cell_angle_alpha  90.079666
_cell_angle_beta   90.13422
_cell_angle_gamma 90.158194
loop_
_atom_site_label
_atom_site_type_symbol
_atom_site_fract_x
_atom_site_fract_y
_atom_site_fract_z
_atom_type_partial_charge
O0 O 0.08277 0.73579 0.16508 0.0
Mg1 Mg 0.0314 0.70055 0.24486 0.0
O2 O 0.02153 0.76039 0.08613 0.0
Mg3 Mg 0.97057 0.76059 0.19581 0.0
O4 O 0.96576 0.67775 0.19272 0.0
O5 O 0.03124 0.6323 0.22149 0.0
O6 O 0.91307 0.76164 0.30725 0.0
O7 O 0.90604 0.73711 0.10941 0.0
Mg8 Mg 0.90325 0.81984 0.14227 0.0
O9 O -0.02536 0.84306 0.16536 0.0
O10 O 0.85513 0.79978 0.23886 0.0
O11 O 0.88435 0.7914 0.0249 0.0
O12 O 0.90838 0.88805 0.1363 0.0
C13 C 0.05601 0.75859 0.35749 0.0
C14 C 0.06767 0.75618 0.10036 0.0
C15 C -0.01299 0.63752 0.19061 0.0
C16 C 0.86821 0.77646 0.30132 0.0
C17 C 0.88131 0.75006 0.04635 0.0
C18 C 0.95591 0.88331 0.14697 0.0
O19 O 0.03939 0.71884 0.37135 0.0
O20 O 0.04011 0.7793 0.29201 0.0
O21 O 0.58486 0.22783 0.15635 0.0
Mg22 Mg 0.53255 0.19386 0.23599 0.0
O23 O 0.5276 0.27395 0.10425 0.0
Mg24 Mg 0.47255 0.26354 0.2087 0.0
O25 O 0.46645 0.18173 0.17851 0.0
O26 O 0.52245 0.12691 0.20868 0.0
O27 O 0.41403 0.24923 0.32018 0.0
O28 O 0.40928 0.25892 0.11927 0.0
Mg29 Mg 0.41603 0.3286 0.27058 0.0
O30 O 0.47465 0.3462 0.19464 0.0
O31 O 0.41891 0.31014 0.398 0.0
O32 O 0.35793 0.29268 0.20706 0.0
O33 O 0.41924 0.39672 0.24489 0.0
C34 C 0.5525 0.24575 0.36551 0.0
C35 C 0.57179 0.25834 0.10463 0.0
C36 C 0.48064 0.13896 0.17513 0.0
C37 C 0.40178 0.27019 0.38712 0.0
C38 C 0.36543 0.26656 0.14536 0.0
C39 C 0.45772 0.38811 0.1991 0.0
O40 O 0.5355 0.20557 0.36499 0.0
O41 O 0.53992 0.27203 0.30584 0.0
O42 O 0.08707 0.33684 0.79402 0.0
Mg43 Mg 0.04084 0.36313 0.69496 0.0
O44 O 0.03349 0.29794 0.87425 0.0
Mg45 Mg -0.02529 0.2834 0.78143 0.0
O46 O -0.02451 0.36047 0.75566 0.0
O47 O 0.00181 0.42581 0.70568 0.0
O48 O 0.91354 0.27198 0.67752 0.0
O49 O 0.91294 0.31184 0.86918 0.0
Mg50 Mg 0.91444 0.22751 0.85216 0.0
O51 O -0.01623 0.20217 0.82798 0.0
O52 O 0.86072 0.23437 0.75687 0.0
O53 O 0.90383 0.26152 0.96644 0.0
O54 O 0.91857 0.1609 0.8767 0.0
C55 C 0.05723 0.27899 0.61841 0.0
C56 C 0.07705 0.3134 0.8591 0.0
C57 C -0.02855 0.40456 0.75437 0.0
C58 C 0.87089 0.2532 0.68824 0.0
C59 C 0.89575 0.30123 0.94 0.0
C60 C 0.96521 0.1638 0.8577 0.0
O61 O 0.04146 0.31723 0.59221 0.0
O62 O 0.04106 0.26366 0.68813 0.0
O63 O 0.35385 0.71019 0.76725 0.0
Mg64 Mg 0.40695 0.67734 0.68792 0.0
O65 O 0.40295 0.74678 0.8585 0.0
Mg66 Mg 0.47071 0.75081 0.77802 0.0
O67 O 0.46613 0.67101 0.7662 0.0
O68 O 0.43241 0.61056 0.70496 0.0
O69 O 0.53958 0.75296 0.68581 0.0
O70 O 0.52361 0.72397 0.88195 0.0
Mg71 Mg 0.53649 0.80676 0.85158 0.0
O72 O 0.46871 0.83287 0.81444 0.0
O73 O 0.5933 0.7878 0.76819 0.0
O74 O 0.54126 0.77741 0.97107 0.0
O75 O 0.53466 0.87489 0.85859 0.0
C76 C 0.40024 0.75534 0.59829 0.0
C77 C 0.3598 0.73559 0.83115 0.0
C78 C 0.4634 0.62673 0.75922 0.0
C79 C 0.58413 0.76658 0.70139 0.0
C80 C 0.54354 0.73591 0.95044 0.0
C81 C 0.48815 0.87221 0.83787 0.0
O82 O 0.41663 0.71631 0.57772 0.0
O83 O 0.41317 0.77153 0.66941 0.0
H84 H 0.92764 0.48852 0.74551 0.0
H85 H 0.00259 0.54559 0.21042 0.0
H86 H 0.96949 0.3846 0.92157 0.0
H87 H 0.92373 0.64134 0.0549 0.0
H88 H -0.0173 0.48464 0.11115 0.0
H89 H 0.91693 0.54261 0.86052 0.0
C90 C 0.9327 0.47654 0.80872 0.0
C91 C 0.94876 0.43156 0.82357 0.0
C92 C 0.96883 0.51874 0.09929 0.0
C93 C 0.93876 0.49429 0.95628 0.0
C94 C -0.01993 0.55366 0.15629 0.0
C95 C 0.9649 0.59891 0.14137 0.0
C96 C 0.94313 0.52898 0.02519 0.0
C97 C 0.93597 0.60708 0.06963 0.0
C98 C 0.92704 0.50766 0.87453 0.0
C99 C 0.95593 0.41845 0.90693 0.0
N100 N 0.92692 0.57278 0.01365 0.0
N101 N 0.95187 0.4498 0.96971 0.0
H102 H 0.45175 0.48096 0.22043 0.0
H103 H 0.48731 0.53652 0.74077 0.0
H104 H 0.50328 0.37998 0.0453 0.0
H105 H 0.47978 0.64217 0.92711 0.0
H106 H 0.49796 0.47958 0.85087 0.0
H107 H 0.46615 0.54057 0.11634 0.0
C108 C 0.46705 0.47133 0.16059 0.0
C109 C 0.47636 0.42508 0.14219 0.0
C110 C 0.49514 0.51528 0.8679 0.0
C111 C 0.49172 0.49373 0.02072 0.0
C112 C 0.48934 0.548 0.80481 0.0
C113 C 0.48312 0.59457 0.82409 0.0
C114 C 0.49363 0.5287 0.95188 0.0
C115 C 0.48528 0.60698 0.9087 0.0
C116 C 0.47516 0.50554 0.10089 0.0
C117 C 0.4959 0.41502 0.06297 0.0
N118 N 0.48946 0.5743 0.9692 0.0
N119 N 0.50207 0.44881 0.005 0.0
H120 H 0.41555 0.87664 0.95585 0.0
H121 H 0.45138 0.14739 0.01229 0.0
H122 H 0.49655 0.9598 0.78097 0.0
H123 H 0.45586 0.05107 0.21444 0.0
H124 H 0.43425 0.08384 0.91532 0.0
H125 H 0.3955 0.94573 0.03622 0.0
C126 C 0.4267 0.90967 0.93169 0.0
C127 C 0.45729 0.91242 0.86088 0.0
C128 C 0.43742 0.0769 0.9813 0.0
C129 C 0.4353 0.99161 0.95355 0.0
C130 C 0.44662 0.1132 0.0368 0.0
C131 C 0.45474 0.10457 0.12177 0.0
C132 C 0.4352 0.03179 0.01124 0.0
C133 C 0.44951 0.05931 0.14962 0.0
C134 C 0.41601 0.94903 0.97847 0.0
C135 C 0.47226 0.95616 0.83441 0.0
N136 N 0.4403 0.02471 0.09469 0.0
N137 N 0.46161 0.9939 0.88104 0.0
H138 H 0.02233 0.88541 0.01822 0.0
H139 H -0.02127 0.08076 0.78261 0.0
H140 H 0.95523 0.97096 0.20504 0.0
H141 H 0.01443 0.15686 0.00415 0.0
H142 H -0.00305 1.00958 0.85729 0.0
H143 H 0.04505 0.95427 0.93874 0.0
C144 C 0.01454 0.91874 0.04456 0.0
C145 C -0.01266 0.92239 0.11907 0.0
C146 C 0.00303 0.04187 0.8887 0.0
C147 C 0.01191 1.00134 0.02724 0.0
C148 C -0.00685 0.08264 0.84559 0.0
C149 C -0.00341 0.12505 0.88627 0.0
C150 C 0.01461 0.04334 0.97422 0.0
C151 C 0.01277 0.12509 0.9696 0.0
C152 C 0.02662 0.958 -0.00172 0.0
C153 C -0.02322 0.96653 0.14864 0.0
N154 N 0.01971 0.08501 0.01136 0.0
N155 N -0.01122 1.00412 0.10262 0.0
H156 H 0.32448 0.80574 0.66877 0.0
H157 H 0.08634 0.73859 0.51692 0.0
H158 H 0.36473 0.7388 0.43934 0.0
H159 H 0.13524 0.80826 0.29573 0.0
H160 H 0.17075 0.74808 0.57619 0.0
H161 H 0.23878 0.81486 0.61577 0.0
C162 C 0.3159 0.79408 0.60636 0.0
C163 C 0.35231 0.77118 0.55879 0.0
C164 C 0.16267 0.76195 0.51518 0.0
C165 C 0.25387 0.78224 0.49743 0.0
C166 C 0.11444 0.75676 0.48138 0.0
C167 C 0.10326 0.77295 0.40106 0.0
C168 C 0.20079 0.78211 0.46749 0.0
C169 C 0.14185 0.79548 0.3577 0.0
C170 C 0.26675 0.79903 0.57656 0.0
C171 C 0.3382 0.75661 0.47842 0.0
N172 N 0.18908 0.7984 0.39041 0.0
N173 N 0.29026 0.76237 0.45035 0.0
H174 H 0.08629 0.27199 0.45533 0.0
H175 H 0.32822 0.21121 0.33436 0.0
H176 H 0.1407 0.25279 0.70544 0.0
H177 H 0.36666 0.29982 0.53964 0.0
H178 H 0.24336 0.20393 0.39022 0.0
H179 H 0.17152 0.25927 0.40293 0.0
C180 C 0.1159 0.26392 0.49901 0.0
C181 C 0.10598 0.26249 0.58473 0.0
C182 C 0.27064 0.22436 0.42367 0.0
C183 C 0.20418 0.24969 0.52545 0.0
C184 C 0.31941 0.22819 0.3924 0.0
C185 C 0.35497 0.2565 0.4319 0.0
C186 C 0.25721 0.24818 0.49614 0.0
C187 C 0.34066 0.27779 0.50679 0.0
C188 C 0.16456 0.25677 0.46914 0.0
C189 C 0.14632 0.25316 0.63873 0.0
N190 N 0.29297 0.27326 0.53636 0.0
N191 N 0.19373 0.24812 0.60842 0.0
H192 H 0.81226 0.18219 0.64554 0.0
H193 H 0.6223 0.3153 0.35006 0.0
H194 H 0.83817 0.3241 0.58842 0.0
H195 H 0.58546 0.19729 0.49885 0.0
H196 H 0.70444 0.31919 0.42007 0.0
H197 H 0.73474 0.18454 0.56607 0.0
C198 C 0.80191 0.21373 0.61479 0.0
C199 C 0.83146 0.25301 0.6237 0.0
C200 C 0.67795 0.29289 0.43776 0.0
C201 C 0.74153 0.2565 0.53456 0.0
C202 C 0.63093 0.29087 0.39855 0.0
C203 C 0.59692 0.25569 0.41825 0.0
C204 C 0.69099 0.25918 0.49599 0.0
C205 C 0.6104 0.22478 0.48098 0.0
C206 C 0.75734 0.21523 0.5702 0.0
C207 C 0.81645 0.29299 0.58237 0.0
N208 N 0.65638 0.22694 0.51661 0.0
N209 N 0.772 0.29394 0.54006 0.0
H210 H 0.7706 0.76208 0.26688 0.0
H211 H 0.68344 0.76747 0.73892 0.0
H212 H 0.87498 0.76324 0.47206 0.0
H213 H 0.58177 0.74636 0.53326 0.0
H214 H 0.75394 0.7609 0.64393 0.0
H215 H 0.70202 0.75095 0.36389 0.0
C216 C 0.77912 0.75979 0.33272 0.0
C217 C 0.82858 0.76437 0.36167 0.0
C218 C 0.71633 0.75732 0.61946 0.0
C219 C 0.7496 0.75178 0.4737 0.0
C220 C 0.67587 0.76128 0.67359 0.0
C221 C 0.62641 0.75818 0.64376 0.0
C222 C 0.70756 0.75065 0.53432 0.0
C223 C 0.61915 0.74927 0.55887 0.0
C224 C 0.73981 0.75323 0.38808 0.0
C225 C 0.83742 0.76015 0.44728 0.0
N226 N 0.6593 0.74639 0.50694 0.0
N227 N 0.79812 0.75475 0.50056 0.0
H228 H 0.35339 0.788 0.97169 0.0
H229 H 0.13923 0.81354 0.15493 0.0
H230 H 0.26916 0.74355 0.75644 0.0
H231 H 0.0731 0.75929 0.93133 0.0
H232 H 0.20859 0.8433 0.07493 0.0
H233 H 0.28027 0.82782 0.02169 0.0
C234 C 0.31921 0.7864 0.93536 0.0
C235 C 0.31623 0.75998 0.86286 0.0
C236 C 0.17945 0.8248 0.04248 0.0
C237 C 0.23204 0.80608 0.91846 0.0
C238 C 0.1399 0.80773 0.08856 0.0
C239 C 0.1032 0.78106 0.04982 0.0
C240 C 0.18315 0.81245 0.9583 0.0
C241 C 0.10271 0.77753 0.96345 0.0
C242 C 0.2773 0.80984 0.9632 0.0
C243 C 0.2722 0.76123 0.81546 0.0
N244 N 0.14329 0.79181 0.9204 0.0
N245 N 0.23165 0.78329 0.84477 0.0
H246 H 0.17624 0.32656 0.83222 0.0
H247 H 0.2748 0.24973 0.21436 0.0
H248 H 0.07189 0.25162 0.98648 0.0
H249 H 0.36081 0.22817 0.9907 0.0
H250 H 0.19883 0.2318 0.13777 0.0
H251 H 0.24403 0.28267 0.89135 0.0
C252 C 0.16759 0.3011 0.87893 0.0
C253 C 0.11851 0.29324 0.9053 0.0
C254 C 0.23447 0.22921 0.10606 0.0
C255 C 0.19573 0.24182 0.97111 0.0
C256 C 0.27765 0.2404 0.14927 0.0
C257 C 0.32301 0.24401 0.10631 0.0
C258 C 0.23727 0.22408 0.0196 0.0
C259 C 0.32567 0.22863 0.02412 0.0
C260 C 0.20611 0.27507 0.91081 0.0
C261 C 0.10944 0.25937 0.96548 0.0
N262 N 0.28268 0.22082 0.98189 0.0
N263 N 0.14803 0.23521 -0.00242 0.0
H264 H 0.63717 0.22207 0.99462 0.0
H265 H 0.83517 0.36054 0.85661 0.0
H266 H 0.59601 0.34762 0.11691 0.0
H267 H 0.8565 0.29719 0.09647 0.0
H268 H 0.74613 0.36897 0.88758 0.0
H269 H 0.71592 0.25799 0.95085 0.0
C270 C 0.64411 0.25765 0.0095 0.0
C271 C 0.61065 0.28226 0.05855 0.0
C272 C 0.77102 0.35558 0.93489 0.0
C273 C 0.70005 0.32236 0.01215 0.0
C274 C 0.82182 0.35072 0.91765 0.0
C275 C 0.85261 0.32637 0.97302 0.0
C276 C 0.75206 0.337 0.00843 0.0
C277 C 0.83354 0.31491 0.05132 0.0
C278 C 0.68867 0.278 0.98488 0.0
C279 C 0.62122 0.32807 0.07808 0.0
N280 N 0.78382 0.31898 0.0658 0.0
N281 N 0.66618 0.34648 0.05708 0.0
H282 H 0.82602 0.75672 0.90264 0.0
H283 H 0.59197 0.74346 0.10049 0.0
H284 H 0.83598 0.68231 0.13401 0.0
H285 H 0.59319 0.66803 0.86932 0.0
H286 H 0.67986 0.72286 0.1218 0.0
H287 H 0.74053 0.72738 0.88435 0.0
C288 C 0.81092 0.73308 0.94798 0.0
C289 C 0.83776 0.7225 0.02034 0.0
C290 C 0.66006 0.70941 0.06812 0.0
C291 C 0.74041 0.69037 0.00123 0.0
C292 C 0.60996 0.72099 0.05614 0.0
C293 C 0.58565 0.70846 0.98214 0.0
C294 C 0.6858 0.68656 0.00455 0.0
C295 C 0.61079 0.67922 0.92662 0.0
C296 C 0.76236 0.71634 0.93754 0.0
C297 C 0.8164 0.6917 0.07752 0.0
N298 N 0.66036 0.67102 0.93692 0.0
N299 N 0.76812 0.67813 0.06845 0.0
loop_
_geom_bond_atom_site_label_1
_geom_bond_atom_site_label_2
_geom_bond_distance
_geom_bond_site_symmetry_2
_ccdc_geom_bond_type
O0 Mg1 1.990 . S
O0 C14 1.253 . S
Mg1 O0 1.990 . S
Mg1 O4 2.180 . S
Mg1 O5 2.117 . S
Mg1 O19 2.030 . S
O2 Mg3 2.072 . S
O2 C14 1.260 . S
Mg3 O2 2.072 . S
Mg3 O4 2.099 . S
Mg3 O6 2.079 1_455 S
Mg3 O7 2.072 1_455 S
Mg3 O9 2.099 1_455 S
Mg3 O20 2.079 . S
O4 Mg1 2.180 . S
O4 Mg3 2.099 . S
O4 C15 1.279 . S
O5 Mg1 2.117 . S
O5 C15 1.250 . S
O6 Mg3 2.079 1_655 S
O6 C16 1.264 . S
O7 Mg3 2.072 1_655 S
O7 C17 1.260 . S
Mg8 O9 2.180 . S
Mg8 O10 2.030 . S
Mg8 O11 1.990 . S
Mg8 O12 2.117 . S
O9 Mg3 2.099 1_655 S
O9 Mg8 2.180 . S
O9 C18 1.279 . S
O10 Mg8 2.030 . S
O10 C16 1.248 . S
O11 Mg8 1.990 . S
O11 C17 1.253 . S
O12 Mg8 2.117 . S
O12 C18 1.250 . S
C13 O19 1.248 . S
C13 O20 1.264 . S
C14 O0 1.253 . S
C14 O2 1.260 . S
C15 O4 1.279 . S
C15 O5 1.250 . S
C16 O6 1.264 . S
C16 O10 1.248 . S
C17 O7 1.260 . S
C17 O11 1.253 . S
C18 O9 1.279 . S
C18 O12 1.250 . S
O19 Mg1 2.030 . S
O19 C13 1.248 . S
O20 Mg3 2.079 . S
O20 C13 1.264 . S
O21 Mg22 1.990 . S
O21 C35 1.253 . S
Mg22 O21 1.990 . S
Mg22 O25 2.180 . S
Mg22 O26 2.117 . S
Mg22 O40 2.030 . S
O23 Mg24 2.072 . S
O23 C35 1.260 . S
Mg24 O23 2.072 . S
Mg24 O25 2.099 . S
Mg24 O27 2.079 . S
Mg24 O28 2.072 . S
Mg24 O30 2.099 . S
Mg24 O41 2.079 . S
O25 Mg22 2.180 . S
O25 Mg24 2.099 . S
O25 C36 1.279 . S
O26 Mg22 2.117 . S
O26 C36 1.250 . S
O27 Mg24 2.079 . S
O27 C37 1.264 . S
O28 Mg24 2.072 . S
O28 C38 1.260 . S
Mg29 O30 2.180 . S
Mg29 O31 2.030 . S
Mg29 O32 1.990 . S
Mg29 O33 2.117 . S
O30 Mg24 2.099 . S
O30 Mg29 2.180 . S
O30 C39 1.279 . S
O31 Mg29 2.030 . S
O31 C37 1.248 . S
O32 Mg29 1.990 . S
O32 C38 1.253 . S
O33 Mg29 2.117 . S
O33 C39 1.250 . S
C34 O40 1.248 . S
C34 O41 1.264 . S
C35 O21 1.253 . S
C35 O23 1.260 . S
C36 O25 1.279 . S
C36 O26 1.250 . S
C37 O27 1.264 . S
C37 O31 1.248 . S
C38 O28 1.260 . S
C38 O32 1.253 . S
C39 O30 1.279 . S
C39 O33 1.250 . S
O40 Mg22 2.030 . S
O40 C34 1.248 . S
O41 Mg24 2.079 . S
O41 C34 1.264 . S
O42 Mg43 1.990 . S
O42 C56 1.253 . S
Mg43 O42 1.990 . S
Mg43 O46 2.180 . S
Mg43 O47 2.117 . S
Mg43 O61 2.030 . S
O44 Mg45 2.072 . S
O44 C56 1.260 . S
Mg45 O44 2.072 . S
Mg45 O46 2.099 . S
Mg45 O48 2.079 1_455 S
Mg45 O49 2.072 1_455 S
Mg45 O51 2.099 1_455 S
Mg45 O62 2.079 . S
O46 Mg43 2.180 . S
O46 Mg45 2.099 . S
O46 C57 1.279 . S
O47 Mg43 2.117 . S
O47 C57 1.250 . S
O48 Mg45 2.079 1_655 S
O48 C58 1.264 . S
O49 Mg45 2.072 1_655 S
O49 C59 1.260 . S
Mg50 O51 2.180 . S
Mg50 O52 2.030 . S
Mg50 O53 1.990 . S
Mg50 O54 2.117 . S
O51 Mg45 2.099 1_655 S
O51 Mg50 2.180 . S
O51 C60 1.279 . S
O52 Mg50 2.030 . S
O52 C58 1.248 . S
O53 Mg50 1.990 . S
O53 C59 1.253 . S
O54 Mg50 2.117 . S
O54 C60 1.250 . S
C55 O61 1.248 . S
C55 O62 1.264 . S
C56 O42 1.253 . S
C56 O44 1.260 . S
C57 O46 1.279 . S
C57 O47 1.250 . S
C58 O48 1.264 . S
C58 O52 1.248 . S
C59 O49 1.260 . S
C59 O53 1.253 . S
C60 O51 1.279 . S
C60 O54 1.250 . S
O61 Mg43 2.030 . S
O61 C55 1.248 . S
O62 Mg45 2.079 . S
O62 C55 1.264 . S
O63 Mg64 1.990 . S
O63 C77 1.253 . S
Mg64 O63 1.990 . S
Mg64 O67 2.180 . S
Mg64 O68 2.117 . S
Mg64 O82 2.030 . S
O65 Mg66 2.072 . S
O65 C77 1.260 . S
Mg66 O65 2.072 . S
Mg66 O67 2.099 . S
Mg66 O69 2.079 . S
Mg66 O70 2.072 . S
Mg66 O72 2.099 . S
Mg66 O83 2.079 . S
O67 Mg64 2.180 . S
O67 Mg66 2.099 . S
O67 C78 1.279 . S
O68 Mg64 2.117 . S
O68 C78 1.250 . S
O69 Mg66 2.079 . S
O69 C79 1.264 . S
O70 Mg66 2.072 . S
O70 C80 1.260 . S
Mg71 O72 2.180 . S
Mg71 O73 2.030 . S
Mg71 O74 1.990 . S
Mg71 O75 2.117 . S
O72 Mg66 2.099 . S
O72 Mg71 2.180 . S
O72 C81 1.279 . S
O73 Mg71 2.030 . S
O73 C79 1.248 . S
O74 Mg71 1.990 . S
O74 C80 1.253 . S
O75 Mg71 2.117 . S
O75 C81 1.250 . S
C76 O82 1.248 . S
C76 O83 1.264 . S
C77 O63 1.253 . S
C77 O65 1.260 . S
C78 O67 1.279 . S
C78 O68 1.250 . S
C79 O69 1.264 . S
C79 O73 1.248 . S
C80 O70 1.260 . S
C80 O74 1.253 . S
C81 O72 1.279 . S
C81 O75 1.250 . S
O82 Mg64 2.030 . S
O82 C76 1.248 . S
O83 Mg66 2.079 . S
O83 C76 1.264 . S
H84 C90 0.930 . S
H85 C94 0.930 1_455 S
H86 C99 0.929 1_455 S
H87 C97 0.929 . S
H88 C92 0.929 1_455 S
H89 C98 0.929 . S
C90 H84 0.930 . S
C90 C91 1.367 . S
C90 C98 1.378 . S
C91 C90 1.367 . S
C91 C99 1.433 . S
C92 H88 0.929 1_655 S
C92 C94 1.378 . S
C92 C96 1.350 . S
C93 C96 1.463 1_556 S
C93 C98 1.350 . S
C93 N101 1.427 1_556 S
C94 H85 0.930 1_655 S
C94 C92 1.378 . S
C94 C95 1.367 . S
C95 C94 1.367 . S
C95 C97 1.433 . S
C96 C92 1.350 . S
C96 C93 1.463 1_554 S
C96 N100 1.427 1_554 S
C97 H87 0.929 . S
C97 C95 1.433 . S
C97 N100 1.384 1_554 S
C98 H89 0.929 . S
C98 C90 1.378 . S
C98 C93 1.350 . S
C99 H86 0.929 1_655 S
C99 C91 1.433 . S
C99 N101 1.384 1_556 S
N100 C96 1.427 1_556 S
N100 C97 1.384 1_556 S
N101 C93 1.427 1_554 S
N101 C99 1.384 1_554 S
H102 C108 0.930 . S
H103 C112 0.930 . S
H104 C117 0.929 . S
H105 C115 0.929 . S
H106 C110 0.929 . S
H107 C116 0.929 . S
C108 H102 0.930 . S
C108 C109 1.367 . S
C108 C116 1.378 . S
C109 C108 1.367 . S
C109 C117 1.433 . S
C110 H106 0.929 . S
C110 C112 1.378 . S
C110 C114 1.350 . S
C111 C114 1.463 1_554 S
C111 C116 1.350 . S
C111 N119 1.427 . S
C112 H103 0.930 . S
C112 C110 1.378 . S
C112 C113 1.367 . S
C113 C112 1.367 . S
C113 C115 1.433 . S
C114 C110 1.350 . S
C114 C111 1.463 1_556 S
C114 N118 1.427 . S
C115 H105 0.929 . S
C115 C113 1.433 . S
C115 N118 1.384 . S
C116 H107 0.929 . S
C116 C108 1.378 . S
C116 C111 1.350 . S
C117 H104 0.929 . S
C117 C109 1.433 . S
C117 N119 1.384 . S
N118 C114 1.427 . S
N118 C115 1.384 . S
N119 C111 1.427 . S
N119 C117 1.384 . S
H120 C126 0.930 . S
H121 C130 0.930 . S
H122 C135 0.929 . S
H123 C133 0.929 . S
H124 C128 0.929 . S
H125 C134 0.929 . S
C126 H120 0.930 . S
C126 C127 1.367 . S
C126 C134 1.378 1_556 S
C127 C126 1.367 . S
C127 C135 1.433 . S
C128 H124 0.929 . S
C128 C130 1.378 1_556 S
C128 C132 1.350 1_556 S
C129 C132 1.463 1_566 S
C129 C134 1.350 1_556 S
C129 N137 1.427 . S
C130 H121 0.930 . S
C130 C128 1.378 1_554 S
C130 C131 1.367 . S
C131 C130 1.367 . S
C131 C133 1.433 . S
C132 C128 1.350 1_554 S
C132 C129 1.463 1_544 S
C132 N136 1.427 . S
C133 H123 0.929 . S
C133 C131 1.433 . S
C133 N136 1.384 . S
C134 H125 0.929 . S
C134 C126 1.378 1_554 S
C134 C129 1.350 1_554 S
C135 H122 0.929 . S
C135 C127 1.433 . S
C135 N137 1.384 . S
N136 C132 1.427 . S
N136 C133 1.384 . S
N137 C129 1.427 . S
N137 C135 1.384 . S
H138 C144 0.930 . S
H139 C148 0.930 . S
H140 C153 0.929 . S
H141 C151 0.929 . S
H142 C146 0.929 . S
H143 C152 0.929 . S
C144 H138 0.930 . S
C144 C145 1.367 . S
C144 C152 1.378 . S
C145 C144 1.367 . S
C145 C153 1.433 1_455 S
C146 H142 0.929 . S
C146 C148 1.378 . S
C146 C150 1.350 1_655 S
C147 C150 1.463 1_564 S
C147 C152 1.350 . S
C147 N155 1.427 1_455 S
C148 H139 0.930 . S
C148 C146 1.378 . S
C148 C149 1.367 1_655 S
C149 C148 1.367 1_455 S
C149 C151 1.433 . S
C150 C146 1.350 1_455 S
C150 C147 1.463 1_546 S
C150 N154 1.427 . S
C151 H141 0.929 . S
C151 C149 1.433 . S
C151 N154 1.384 . S
C152 H143 0.929 . S
C152 C144 1.378 . S
C152 C147 1.350 . S
C153 H140 0.929 . S
C153 C145 1.433 1_655 S
C153 N155 1.384 . S
N154 C150 1.427 . S
N154 C151 1.384 . S
N155 C147 1.427 1_655 S
N155 C153 1.384 . S
H156 C162 0.930 . S
H157 C166 0.930 . S
H158 C171 0.929 . S
H159 C169 0.929 . S
H160 C164 0.929 . S
H161 C170 0.929 . S
C162 H156 0.930 . S
C162 C163 1.367 . S
C162 C170 1.378 . S
C163 C162 1.367 . S
C163 C171 1.433 . S
C164 H160 0.929 . S
C164 C166 1.378 . S
C164 C168 1.350 . S
C165 C168 1.463 . S
C165 C170 1.350 . S
C165 N173 1.427 . S
C166 H157 0.930 . S
C166 C164 1.378 . S
C166 C167 1.367 . S
C167 C166 1.367 . S
C167 C169 1.433 . S
C168 C164 1.350 . S
C168 C165 1.463 . S
C168 N172 1.427 . S
C169 H159 0.929 . S
C169 C167 1.433 . S
C169 N172 1.384 . S
C170 H161 0.929 . S
C170 C162 1.378 . S
C170 C165 1.350 . S
C171 H158 0.929 . S
C171 C163 1.433 . S
C171 N173 1.384 . S
N172 C168 1.427 . S
N172 C169 1.384 . S
N173 C165 1.427 . S
N173 C171 1.384 . S
H174 C180 0.930 . S
H175 C184 0.930 . S
H176 C189 0.929 . S
H177 C187 0.929 . S
H178 C182 0.929 . S
H179 C188 0.929 . S
C180 H174 0.930 . S
C180 C181 1.367 . S
C180 C188 1.378 . S
C181 C180 1.367 . S
C181 C189 1.433 . S
C182 H178 0.929 . S
C182 C184 1.378 . S
C182 C186 1.350 . S
C183 C186 1.463 . S
C183 C188 1.350 . S
C183 N191 1.427 . S
C184 H175 0.930 . S
C184 C182 1.378 . S
C184 C185 1.367 . S
C185 C184 1.367 . S
C185 C187 1.433 . S
C186 C182 1.350 . S
C186 C183 1.463 . S
C186 N190 1.427 . S
C187 H177 0.929 . S
C187 C185 1.433 . S
C187 N190 1.384 . S
C188 H179 0.929 . S
C188 C180 1.378 . S
C188 C183 1.350 . S
C189 H176 0.929 . S
C189 C181 1.433 . S
C189 N191 1.384 . S
N190 C186 1.427 . S
N190 C187 1.384 . S
N191 C183 1.427 . S
N191 C189 1.384 . S
H192 C198 0.930 . S
H193 C202 0.930 . S
H194 C207 0.929 . S
H195 C205 0.929 . S
H196 C200 0.929 . S
H197 C206 0.929 . S
C198 H192 0.930 . S
C198 C199 1.367 . S
C198 C206 1.378 . S
C199 C198 1.367 . S
C199 C207 1.433 . S
C200 H196 0.929 . S
C200 C202 1.378 . S
C200 C204 1.350 . S
C201 C204 1.463 . S
C201 C206 1.350 . S
C201 N209 1.427 . S
C202 H193 0.930 . S
C202 C200 1.378 . S
C202 C203 1.367 . S
C203 C202 1.367 . S
C203 C205 1.433 . S
C204 C200 1.350 . S
C204 C201 1.463 . S
C204 N208 1.427 . S
C205 H195 0.929 . S
C205 C203 1.433 . S
C205 N208 1.384 . S
C206 H197 0.929 . S
C206 C198 1.378 . S
C206 C201 1.350 . S
C207 H194 0.929 . S
C207 C199 1.433 . S
C207 N209 1.384 . S
N208 C204 1.427 . S
N208 C205 1.384 . S
N209 C201 1.427 . S
N209 C207 1.384 . S
H210 C216 0.930 . S
H211 C220 0.930 . S
H212 C225 0.929 . S
H213 C223 0.929 . S
H214 C218 0.929 . S
H215 C224 0.929 . S
C216 H210 0.930 . S
C216 C217 1.367 . S
C216 C224 1.378 . S
C217 C216 1.367 . S
C217 C225 1.433 . S
C218 H214 0.929 . S
C218 C220 1.378 . S
C218 C222 1.350 . S
C219 C222 1.463 . S
C219 C224 1.350 . S
C219 N227 1.427 . S
C220 H211 0.930 . S
C220 C218 1.378 . S
C220 C221 1.367 . S
C221 C220 1.367 . S
C221 C223 1.433 . S
C222 C218 1.350 . S
C222 C219 1.463 . S
C222 N226 1.427 . S
C223 H213 0.929 . S
C223 C221 1.433 . S
C223 N226 1.384 . S
C224 H215 0.929 . S
C224 C216 1.378 . S
C224 C219 1.350 . S
C225 H212 0.929 . S
C225 C217 1.433 . S
C225 N227 1.384 . S
N226 C222 1.427 . S
N226 C223 1.384 . S
N227 C219 1.427 . S
N227 C225 1.384 . S
H228 C234 0.930 . S
H229 C238 0.930 . S
H230 C243 0.929 . S
H231 C241 0.929 . S
H232 C236 0.929 . S
H233 C242 0.929 . S
C234 H228 0.930 . S
C234 C235 1.367 . S
C234 C242 1.378 . S
C235 C234 1.367 . S
C235 C243 1.433 1_556 S
C236 H232 0.929 . S
C236 C238 1.378 . S
C236 C240 1.350 . S
C237 C240 1.463 1_556 S
C237 C242 1.350 . S
C237 N245 1.427 1_556 S
C238 H229 0.930 . S
C238 C236 1.378 . S
C238 C239 1.367 . S
C239 C238 1.367 . S
C239 C241 1.433 1_554 S
C240 C236 1.350 . S
C240 C237 1.463 1_554 S
C240 N244 1.427 1_554 S
C241 H231 0.929 . S
C241 C239 1.433 1_556 S
C241 N244 1.384 . S
C242 H233 0.929 . S
C242 C234 1.378 . S
C242 C237 1.350 . S
C243 H230 0.929 . S
C243 C235 1.433 1_554 S
C243 N245 1.384 . S
N244 C240 1.427 1_556 S
N244 C241 1.384 . S
N245 C237 1.427 1_554 S
N245 C243 1.384 . S
H246 C252 0.929 1_554 S
H247 C256 0.929 1_556 S
H248 C261 0.929 . S
H249 C259 0.929 . S
H250 C254 0.929 . S
H251 C260 0.929 . S
C252 H246 0.929 1_556 S
C252 C253 1.367 . S
C252 C260 1.378 1_556 S
C253 C252 1.367 . S
C253 C261 1.433 . S
C254 H250 0.929 . S
C254 C256 1.378 1_556 S
C254 C258 1.350 1_556 S
C255 C258 1.463 1_556 S
C255 C260 1.350 1_556 S
C255 N263 1.427 . S
C256 H247 0.929 1_554 S
C256 C254 1.378 1_554 S
C256 C257 1.367 . S
C257 C256 1.367 . S
C257 C259 1.433 . S
C258 C254 1.350 1_554 S
C258 C255 1.463 1_554 S
C258 N262 1.427 . S
C259 H249 0.929 . S
C259 C257 1.433 . S
C259 N262 1.384 . S
C260 H251 0.929 . S
C260 C252 1.378 1_554 S
C260 C255 1.350 1_554 S
C261 H248 0.929 . S
C261 C253 1.433 . S
C261 N263 1.384 . S
N262 C258 1.427 . S
N262 C259 1.384 . S
N263 C255 1.427 . S
N263 C261 1.384 . S
H264 C270 0.930 . S
H265 C274 0.930 . S
H266 C279 0.929 . S
H267 C277 0.929 . S
H268 C272 0.929 . S
H269 C278 0.929 . S
C270 H264 0.930 . S
C270 C271 1.367 1_556 S
C270 C278 1.378 . S
C271 C270 1.367 1_554 S
C271 C279 1.433 . S
C272 H268 0.929 . S
C272 C274 1.378 . S
C272 C276 1.350 1_554 S
C273 C276 1.463 1_554 S
C273 C278 1.350 1_554 S
C273 N281 1.427 . S
C274 H265 0.930 . S
C274 C272 1.378 . S
C274 C275 1.367 1_554 S
C275 C274 1.367 1_556 S
C275 C277 1.433 . S
C276 C272 1.350 1_556 S
C276 C273 1.463 1_556 S
C276 N280 1.427 . S
C277 H267 0.929 . S
C277 C275 1.433 . S
C277 N280 1.384 . S
C278 H269 0.929 . S
C278 C270 1.378 . S
C278 C273 1.350 1_556 S
C279 H266 0.929 . S
C279 C271 1.433 . S
C279 N281 1.384 . S
N280 C276 1.427 . S
N280 C277 1.384 . S
N281 C273 1.427 . S
N281 C279 1.384 . S
H282 C288 0.930 . S
H283 C292 0.930 . S
H284 C297 0.929 . S
H285 C295 0.929 . S
H286 C290 0.929 . S
H287 C296 0.929 . S
C288 H282 0.930 . S
C288 C289 1.367 1_556 S
C288 C296 1.378 . S
C289 C288 1.367 1_554 S
C289 C297 1.433 . S
C290 H286 0.929 . S
C290 C292 1.378 . S
C290 C294 1.350 1_554 S
C291 C294 1.463 1_554 S
C291 C296 1.350 1_554 S
C291 N299 1.427 . S
C292 H283 0.930 . S
C292 C290 1.378 . S
C292 C293 1.367 1_554 S
C293 C292 1.367 1_556 S
C293 C295 1.433 . S
C294 C290 1.350 1_556 S
C294 C291 1.463 1_556 S
C294 N298 1.427 . S
C295 H285 0.929 . S
C295 C293 1.433 . S
C295 N298 1.384 . S
C296 H287 0.929 . S
C296 C288 1.378 . S
C296 C291 1.350 1_556 S
C297 H284 0.929 . S
C297 C289 1.433 . S
C297 N299 1.384 . S
N298 C294 1.427 . S
N298 C295 1.384 . S
N299 C291 1.427 . S
N299 C297 1.384 . S
C91 C57 1.743 1_655 S
C95 C15 1.737 1_655 S
C109 C39 1.731 . S
C113 C78 1.747 . S
C127 C81 1.729 . S
C131 C36 1.742 . S
C145 C18 1.748 1_455 S
C149 C60 1.726 1_455 S
C163 C76 1.482 . S
C167 C13 1.469 . S
C181 C55 1.470 . S
C185 C37 1.482 . S
C199 C58 1.471 . S
C203 C34 1.484 . S
C217 C16 1.470 . S
C221 C79 1.477 . S
C235 C77 0.785 . S
C239 C14 0.807 . S
C253 C56 0.795 . S
C257 C38 0.822 . S
C271 C35 0.803 . S
C275 C59 0.825 . S
C289 C17 0.809 . S
C293 C80 0.824 . S
