# Generated by pormake.
# Topology zfx, (5)-cn, num edge types: 1
# Building blocks:
#     Node 0, Type 0, BuildingBlock: BEQFEK_clean_sbu_0, # of connection points: 5
#     Node 1, Type 0, BuildingBlock: BEQFEK_clean_sbu_0, # of connection points: 5
#     Node 2, Type 0, BuildingBlock: BEQFEK_clean_sbu_0, # of connection points: 5
#     Node 3, Type 0, BuildingBlock: BEQFEK_clean_sbu_0, # of connection points: 5
#     Node 4, Type 0, BuildingBlock: BEQFEK_clean_sbu_0, # of connection points: 5
#     Node 5, Type 0, BuildingBlock: BEQFEK_clean_sbu_0, # of connection points: 5
#     Node 6, Type 0, BuildingBlock: BEQFEK_clean_sbu_0, # of connection points: 5
#     Node 7, Type 0, BuildingBlock: BEQFEK_clean_sbu_0, # of connection points: 5
#     Node 8, Type 0, BuildingBlock: BEQFEK_clean_sbu_0, # of connection points: 5
#     Node 9, Type 0, BuildingBlock: BEQFEK_clean_sbu_0, # of connection points: 5
#     Node 10, Type 0, BuildingBlock: BEQFEK_clean_sbu_0, # of connection points: 5
#     Node 11, Type 0, BuildingBlock: BEQFEK_clean_sbu_0, # of connection points: 5
#     Node 12, Type 0, BuildingBlock: BEQFEK_clean_sbu_0, # of connection points: 5
#     Node 13, Type 0, BuildingBlock: BEQFEK_clean_sbu_0, # of connection points: 5
#     Node 14, Type 0, BuildingBlock: BEQFEK_clean_sbu_0, # of connection points: 5
#     Node 15, Type 0, BuildingBlock: BEQFEK_clean_sbu_0, # of connection points: 5
#     Edge 16, Type (0, 0), BuildingBlock: XUDNAN_clean_linker_2, # of connection points: 2
#     Edge 17, Type (0, 0), BuildingBlock: XUDNAN_clean_linker_2, # of connection points: 2
#     Edge 18, Type (0, 0), BuildingBlock: XUDNAN_clean_linker_2, # of connection points: 2
#     Edge 19, Type (0, 0), BuildingBlock: XUDNAN_clean_linker_2, # of connection points: 2
#     Edge 20, Type (0, 0), BuildingBlock: XUDNAN_clean_linker_2, # of connection points: 2
#     Edge 21, Type (0, 0), BuildingBlock: XUDNAN_clean_linker_2, # of connection points: 2
#     Edge 22, Type (0, 0), BuildingBlock: XUDNAN_clean_linker_2, # of connection points: 2
#     Edge 23, Type (0, 0), BuildingBlock: XUDNAN_clean_linker_2, # of connection points: 2
#     Edge 24, Type (0, 0), BuildingBlock: XUDNAN_clean_linker_2, # of connection points: 2
#     Edge 25, Type (0, 0), BuildingBlock: XUDNAN_clean_linker_2, # of connection points: 2
#     Edge 26, Type (0, 0), BuildingBlock: XUDNAN_clean_linker_2, # of connection points: 2
#     Edge 27, Type (0, 0), BuildingBlock: XUDNAN_clean_linker_2, # of connection points: 2
#     Edge 28, Type (0, 0), BuildingBlock: XUDNAN_clean_linker_2, # of connection points: 2
#     Edge 29, Type (0, 0), BuildingBlock: XUDNAN_clean_linker_2, # of connection points: 2
#     Edge 30, Type (0, 0), BuildingBlock: XUDNAN_clean_linker_2, # of connection points: 2
#     Edge 31, Type (0, 0), BuildingBlock: XUDNAN_clean_linker_2, # of connection points: 2
#     Edge 32, Type (0, 0), BuildingBlock: XUDNAN_clean_linker_2, # of connection points: 2
#     Edge 33, Type (0, 0), BuildingBlock: XUDNAN_clean_linker_2, # of connection points: 2
#     Edge 34, Type (0, 0), BuildingBlock: XUDNAN_clean_linker_2, # of connection points: 2
#     Edge 35, Type (0, 0), BuildingBlock: XUDNAN_clean_linker_2, # of connection points: 2
#     Edge 36, Type (0, 0), BuildingBlock: XUDNAN_clean_linker_2, # of connection points: 2
#     Edge 37, Type (0, 0), BuildingBlock: XUDNAN_clean_linker_2, # of connection points: 2
#     Edge 38, Type (0, 0), BuildingBlock: XUDNAN_clean_linker_2, # of connection points: 2
#     Edge 39, Type (0, 0), BuildingBlock: XUDNAN_clean_linker_2, # of connection points: 2
#     Edge 40, Type (0, 0), BuildingBlock: XUDNAN_clean_linker_2, # of connection points: 2
#     Edge 41, Type (0, 0), BuildingBlock: XUDNAN_clean_linker_2, # of connection points: 2
#     Edge 42, Type (0, 0), BuildingBlock: XUDNAN_clean_linker_2, # of connection points: 2
#     Edge 43, Type (0, 0), BuildingBlock: XUDNAN_clean_linker_2, # of connection points: 2
#     Edge 44, Type (0, 0), BuildingBlock: XUDNAN_clean_linker_2, # of connection points: 2
#     Edge 45, Type (0, 0), BuildingBlock: XUDNAN_clean_linker_2, # of connection points: 2
#     Edge 46, Type (0, 0), BuildingBlock: XUDNAN_clean_linker_2, # of connection points: 2
#     Edge 47, Type (0, 0), BuildingBlock: XUDNAN_clean_linker_2, # of connection points: 2
#     Edge 48, Type (0, 0), BuildingBlock: XUDNAN_clean_linker_2, # of connection points: 2
#     Edge 49, Type (0, 0), BuildingBlock: XUDNAN_clean_linker_2, # of connection points: 2
#     Edge 50, Type (0, 0), BuildingBlock: XUDNAN_clean_linker_2, # of connection points: 2
#     Edge 51, Type (0, 0), BuildingBlock: XUDNAN_clean_linker_2, # of connection points: 2
#     Edge 52, Type (0, 0), BuildingBlock: XUDNAN_clean_linker_2, # of connection points: 2
#     Edge 53, Type (0, 0), BuildingBlock: XUDNAN_clean_linker_2, # of connection points: 2
#     Edge 54, Type (0, 0), BuildingBlock: XUDNAN_clean_linker_2, # of connection points: 2
#     Edge 55, Type (0, 0), BuildingBlock: XUDNAN_clean_linker_2, # of connection points: 2
# Relax obj value: 0.597
# Max RMSD: 0.174
# Mean RMSD: 0.174
data_MOF--net-zfx--node1-BEQFEK_clean_sbu_0--edge1-XUDNAN_clean_linker_2
_symmetry_space_group_name_H-M    P1
_symmetry_Int_Tables_number       1
_symmetry_cell_setting            triclinic
loop_
_symmetry_equiv_pos_as_xyz
'x, y, z'
_cell_length_a     58.08788
_cell_length_b     58.0765
_cell_length_c     24.758666
_cell_angle_alpha  89.946129
_cell_angle_beta   89.884862
_cell_angle_gamma 90.050533
loop_
_atom_site_label
_atom_site_type_symbol
_atom_site_fract_x
_atom_site_fract_y
_atom_site_fract_z
_atom_type_partial_charge
Co0 Co 0.48762 0.12023 0.4455 0.0
Co1 Co 0.5327 0.12804 0.38496 0.0
C2 C 0.53115 0.14322 0.49632 0.0
O3 O 0.51118 0.13391 0.49753 0.0
O4 O 0.54251 0.14452 0.45221 0.0
C5 C 0.46001 0.10705 0.52741 0.0
O6 O 0.47972 0.09704 0.53847 0.0
C7 C 0.57824 0.12808 0.33135 0.0
C8 C 0.56741 0.1175 0.24946 0.0
C9 C 0.58666 0.12232 0.28039 0.0
N10 N 0.55513 0.12692 0.32974 0.0
N11 N 0.54887 0.12028 0.28096 0.0
C12 C 0.59159 0.13166 0.38225 0.0
H13 H 0.58136 0.12589 0.41765 0.0
H14 H 0.59529 0.15029 0.38709 0.0
H15 H 0.6081 0.12207 0.38104 0.0
C16 C 0.46807 0.14625 0.35045 0.0
N17 N 0.48552 0.13686 0.37905 0.0
N18 N 0.50508 0.14134 0.35459 0.0
C19 C 0.5008 0.15464 0.31072 0.0
C20 C 0.47706 0.15796 0.30558 0.0
C21 C 0.44326 0.14312 0.365 0.0
H22 H 0.44078 0.12661 0.38682 0.0
H23 H 0.43787 0.15733 0.39214 0.0
H24 H 0.43227 0.14337 0.32838 0.0
O25 O 0.49527 0.08773 0.43368 0.0
O26 O 0.53037 0.09439 0.40394 0.0
H27 H 0.52236 0.15618 0.24057 0.0
H28 H 0.51358 0.18375 0.26583 0.0
C29 C 0.51916 0.16621 0.27792 0.0
H30 H 0.53541 0.16741 0.30122 0.0
H31 H 0.53192 0.11681 0.26972 0.0
O32 O 0.45839 0.11935 0.48511 0.0
C33 C 0.51501 0.08042 0.4205 0.0
Co34 Co 0.14698 0.2278 0.68064 0.0
Co35 Co 0.14943 0.27518 0.62823 0.0
C36 C 0.12475 0.27349 0.72646 0.0
O37 O 0.13216 0.25283 0.72564 0.0
O38 O 0.12807 0.28664 0.6859 0.0
C39 C 0.11049 0.20545 0.71431 0.0
O40 O 0.10151 0.21661 0.67328 0.0
C41 C 0.15344 0.31667 0.55701 0.0
C42 C 0.19028 0.31365 0.53546 0.0
C43 C 0.17081 0.32663 0.52565 0.0
N44 N 0.16238 0.29852 0.58327 0.0
N45 N 0.18451 0.2972 0.57096 0.0
C46 C 0.12853 0.32311 0.55942 0.0
H47 H 0.11876 0.31059 0.5844 0.0
H48 H 0.12125 0.32394 0.51805 0.0
H49 H 0.12676 0.34036 0.57815 0.0
C50 C 0.12968 0.214 0.57393 0.0
N51 N 0.13902 0.22995 0.60657 0.0
N52 N 0.13613 0.25051 0.58572 0.0
C53 C 0.12352 0.24833 0.5399 0.0
C54 C 0.11865 0.22493 0.53106 0.0
C55 C 0.13129 0.18862 0.58436 0.0
H56 H 0.14729 0.1847 0.607 0.0
H57 H 0.11652 0.18283 0.60927 0.0
H58 H 0.13109 0.17891 0.54576 0.0
O59 O 0.18032 0.2287 0.69325 0.0
O60 O 0.1783 0.26473 0.66573 0.0
H61 H 0.12837 0.27937 0.49503 0.0
H62 H 0.10315 0.26318 0.47507 0.0
C63 C 0.11397 0.26845 0.50964 0.0
H64 H 0.10332 0.27891 0.53752 0.0
H65 H 0.1956 0.28441 0.58489 0.0
O66 O 0.13195 0.20114 0.71314 0.0
C67 C 0.18962 0.2483 0.68701 0.0
Co68 Co 0.04973 0.8857 0.94195 0.0
Co69 Co 0.9994 0.89136 0.90741 0.0
C70 C 0.00974 0.86359 1.00518 0.0
O71 O 0.03112 0.86834 0.99914 0.0
O72 O 0.9949 0.87086 0.9714 0.0
C73 C 0.09794 0.89589 0.95456 0.0
O74 O 0.09248 0.91713 0.94175 0.0
C75 C 0.95261 0.88287 0.86807 0.0
C76 C 0.94688 0.91426 0.81962 0.0
C77 C 0.93719 0.89318 0.83274 0.0
N78 N 0.97078 0.89689 0.87387 0.0
N79 N 0.96692 0.91595 0.84625 0.0
C80 C 0.95035 0.85996 0.89557 0.0
H81 H 0.94946 0.86277 0.93985 0.0
H82 H 0.96583 0.8493 0.88779 0.0
H83 H 0.93459 0.85067 0.88271 0.0
C84 C 0.05517 0.868 0.82944 0.0
N85 N 0.04236 0.87649 0.87045 0.0
N86 N 0.0207 0.87768 0.85568 0.0
C87 C 0.01889 0.86889 0.80515 0.0
C88 C 0.04077 0.86245 0.78625 0.0
C89 C 0.08093 0.86739 0.83028 0.0
H90 H 0.08758 0.88297 0.85072 0.0
H91 H 0.08674 0.85205 0.85322 0.0
H92 H 0.08831 0.86696 0.78897 0.0
O93 O 0.04574 0.91896 0.95094 0.0
O94 O 0.00897 0.9232 0.93136 0.0
H95 H 0.99041 0.8817 0.7595 0.0
H96 H 0.99765 0.85194 0.74526 0.0
C97 C 0.99637 0.86521 0.77726 0.0
H98 H 0.98345 0.85938 0.80688 0.0
H99 H 0.97857 0.92958 0.84316 0.0
O100 O 0.08252 0.88028 0.95553 0.0
C101 C 0.02814 0.93165 0.9463 0.0
Co102 Co 0.38749 0.79718 0.19901 0.0
Co103 Co 0.3831 0.74877 0.15159 0.0
C104 C 0.41019 0.75521 0.25238 0.0
O105 O 0.40486 0.7766 0.25131 0.0
O106 O 0.40355 0.7417 0.21488 0.0
C107 C 0.37543 0.84409 0.22285 0.0
O108 O 0.35451 0.83829 0.20829 0.0
C109 C 0.39174 0.70505 0.09619 0.0
C110 C 0.35737 0.69853 0.06112 0.0
C111 C 0.37953 0.68994 0.06362 0.0
N112 N 0.37741 0.72188 0.11157 0.0
N113 N 0.3568 0.71765 0.09142 0.0
C114 C 0.41615 0.70306 0.11503 0.0
H115 H 0.4235 0.72038 0.12286 0.0
H116 H 0.42702 0.69344 0.08601 0.0
H117 H 0.41627 0.69348 0.15382 0.0
C118 C 0.40779 0.80782 0.09199 0.0
N119 N 0.39754 0.79315 0.12667 0.0
N120 N 0.39665 0.77249 0.10523 0.0
C121 C 0.40703 0.77336 0.05591 0.0
C122 C 0.41473 0.7959 0.04586 0.0
C123 C 0.4104 0.83306 0.10283 0.0
H124 H 0.39382 0.84006 0.11772 0.0
H125 H 0.42353 0.83569 0.13473 0.0
H126 H 0.41539 0.84275 0.066 0.0
O127 O 0.35439 0.79214 0.20585 0.0
O128 O 0.35102 0.75635 0.17786 0.0
H129 H 0.39532 0.74228 0.01832 0.0
H130 H 0.41737 0.75731 0.98052 0.0
C131 C 0.41131 0.75263 0.02149 0.0
H132 H 0.42469 0.74182 0.04075 0.0
H133 H 0.3425 0.72827 0.09668 0.0
O134 O 0.3917 0.82941 0.2209 0.0
C135 C 0.34212 0.77456 0.19707 0.0
Co136 Co 0.50201 0.87737 0.5624 0.0
Co137 Co 0.54788 0.88275 0.61989 0.0
C138 C 0.54575 0.85074 0.52867 0.0
O139 O 0.52488 0.85701 0.52087 0.0
O140 O 0.55734 0.85845 0.56846 0.0
C141 C 0.47284 0.88213 0.48182 0.0
O142 O 0.49319 0.88714 0.46167 0.0
C143 C 0.59066 0.8815 0.68433 0.0
C144 C 0.58755 0.91524 0.72501 0.0
C145 C 0.60106 0.8957 0.72223 0.0
N146 N 0.57158 0.89205 0.66667 0.0
N147 N 0.57016 0.91243 0.69009 0.0
C148 C 0.59877 0.8585 0.66466 0.0
H149 H 0.59793 0.85801 0.61992 0.0
H150 H 0.58728 0.84474 0.68016 0.0
H151 H 0.61669 0.85501 0.67784 0.0
C152 C 0.48584 0.86331 0.67436 0.0
N153 N 0.50174 0.87065 0.63808 0.0
N154 N 0.52176 0.87252 0.66219 0.0
C155 C 0.5195 0.86556 0.71404 0.0
C156 C 0.49648 0.85971 0.72441 0.0
C157 C 0.46082 0.86074 0.66156 0.0
H158 H 0.45593 0.87242 0.62807 0.0
H159 H 0.45744 0.84275 0.64874 0.0
H160 H 0.45007 0.86458 0.69754 0.0
O161 O 0.50804 0.91057 0.54919 0.0
O162 O 0.54346 0.91203 0.57941 0.0
H163 H 0.54433 0.87909 0.76932 0.0
H164 H 0.53581 0.84966 0.78344 0.0
C165 C 0.5396 0.86231 0.75103 0.0
H166 H 0.55452 0.85596 0.72773 0.0
H167 H 0.55677 0.92407 0.68371 0.0
O168 O 0.47161 0.87426 0.5296 0.0
C169 C 0.5267 0.92146 0.55538 0.0
Co170 Co 0.39554 0.23022 0.81425 0.0
Co171 Co 0.39187 0.27955 0.85814 0.0
C172 C 0.42056 0.27172 0.76154 0.0
O173 O 0.41421 0.25057 0.7627 0.0
O174 O 0.41441 0.28559 0.79876 0.0
C175 C 0.38394 0.18327 0.79633 0.0
O176 O 0.3635 0.18973 0.81313 0.0
C177 C 0.39674 0.32393 0.91456 0.0
C178 C 0.36033 0.33112 0.93394 0.0
C179 C 0.3824 0.33945 0.94068 0.0
N180 N 0.38371 0.30709 0.89385 0.0
N181 N 0.3619 0.31183 0.9044 0.0
C182 C 0.42239 0.32517 0.90924 0.0
H183 H 0.42931 0.30902 0.8916 0.0
H184 H 0.43052 0.32851 0.94895 0.0
H185 H 0.42692 0.33981 0.88239 0.0
C186 C 0.41037 0.22046 0.92839 0.0
N187 N 0.40353 0.23494 0.88869 0.0
N188 N 0.40202 0.25594 0.90812 0.0
C189 C 0.40783 0.25544 0.96111 0.0
C190 C 0.41347 0.23287 0.9761 0.0
C191 C 0.41213 0.19492 0.92131 0.0
H192 H 0.39545 0.18822 0.90637 0.0
H193 H 0.42542 0.19103 0.89041 0.0
H194 H 0.41638 0.18595 0.95951 0.0
O195 O 0.36217 0.23555 0.80019 0.0
O196 O 0.36201 0.27183 0.82498 0.0
H197 H 0.39187 0.28523 0.9954 0.0
H198 H 0.41369 0.27242 0.03822 0.0
C199 C 0.4088 0.27641 0.99604 0.0
H200 H 0.42186 0.28835 0.97939 0.0
H201 H 0.34806 0.30136 0.89364 0.0
O202 O 0.40046 0.19769 0.7951 0.0
C203 C 0.35172 0.25456 0.80522 0.0
Co204 Co 0.02254 0.14278 0.07368 0.0
Co205 Co 0.98223 0.12004 0.13348 0.0
C206 C 0.97249 0.14884 0.0373 0.0
O207 O 0.99406 0.15244 0.03298 0.0
O208 O 0.96452 0.13671 0.07608 0.0
C209 C 0.04248 0.18482 0.05075 0.0
O210 O 0.02363 0.19195 0.07491 0.0
C211 C 0.94126 0.10874 0.19839 0.0
C212 C 0.95315 0.07726 0.24022 0.0
C213 C 0.93472 0.09223 0.23601 0.0
N214 N 0.96254 0.10364 0.18105 0.0
N215 N 0.9694 0.08462 0.20554 0.0
C216 C 0.92876 0.13039 0.18372 0.0
H217 H 0.94083 0.14325 0.16636 0.0
H218 H 0.9201 0.1378 0.21971 0.0
H219 H 0.91542 0.12633 0.15316 0.0
C220 C 0.03545 0.1569 0.18461 0.0
N221 N 0.0208 0.1471 0.14918 0.0
N222 N 0.00252 0.13959 0.17478 0.0
C223 C 0.00432 0.14559 0.22745 0.0
C224 C 0.02546 0.15681 0.23592 0.0
C225 C 0.05978 0.16313 0.17056 0.0
H226 H 0.06583 0.15283 0.13564 0.0
H227 H 0.06066 0.18165 0.15969 0.0
H228 H 0.07145 0.15996 0.20519 0.0
O229 O 0.02985 0.11033 0.0556 0.0
O230 O 0.99951 0.09493 0.09624 0.0
H231 H 0.9876 0.12358 0.28461 0.0
H232 H 0.98648 0.15388 0.30162 0.0
C233 C 0.98572 0.14125 0.26809 0.0
H234 H 0.96866 0.14254 0.24852 0.0
H235 H 0.98555 0.07709 0.19988 0.0
O236 O 0.04622 0.16334 0.0465 0.0
C237 C 0.0176 0.09284 0.06756 0.0
Co238 Co 0.13003 0.77398 0.30739 0.0
Co239 Co 0.14773 0.73604 0.38277 0.0
C240 C 0.11834 0.72382 0.28695 0.0
O241 O 0.11665 0.74517 0.2754 0.0
O242 O 0.1299 0.71714 0.32812 0.0
C243 C 0.12867 0.79786 0.21703 0.0
O244 O 0.13656 0.77758 0.20256 0.0
C245 C 0.15483 0.6993 0.46521 0.0
C246 C 0.18831 0.71106 0.49765 0.0
C247 C 0.17164 0.69422 0.50372 0.0
N248 N 0.16144 0.71833 0.43844 0.0
N249 N 0.18155 0.72504 0.45767 0.0
C250 C 0.13213 0.68771 0.45613 0.0
H251 H 0.1208 0.69865 0.43079 0.0
H252 H 0.12353 0.68409 0.4953 0.0
H253 H 0.13496 0.67119 0.4347 0.0
C254 C 0.11091 0.79334 0.4088 0.0
N255 N 0.12279 0.77722 0.38139 0.0
N256 N 0.12904 0.76064 0.41433 0.0
C257 C 0.12032 0.76534 0.46406 0.0
C258 C 0.10836 0.78635 0.46254 0.0
C259 C 0.10368 0.81573 0.38406 0.0
H260 H 0.1168 0.82154 0.35447 0.0
H261 H 0.0872 0.81325 0.36221 0.0
H262 H 0.10152 0.82932 0.4151 0.0
O263 O 0.16339 0.7756 0.29591 0.0
O264 O 0.17645 0.74735 0.34599 0.0
H265 H 0.13858 0.75216 0.53214 0.0
H266 H 0.10761 0.75172 0.53982 0.0
C267 C 0.12202 0.74921 0.51099 0.0
H268 H 0.12165 0.73123 0.49662 0.0
H269 H 0.19048 0.73957 0.44434 0.0
O270 O 0.12072 0.80043 0.26444 0.0
C271 C 0.18 0.76361 0.31284 0.0
Co272 Co 0.90232 0.73089 0.31308 0.0
Co273 Co 0.89867 0.77194 0.38907 0.0
C274 C 0.92783 0.77708 0.29294 0.0
O275 O 0.9213 0.75689 0.27886 0.0
O276 O 0.92137 0.7858 0.33785 0.0
C277 C 0.92546 0.69121 0.26745 0.0
O278 O 0.94396 0.6969 0.29479 0.0
C279 C 0.89917 0.80821 0.47483 0.0
C280 C 0.86349 0.80376 0.50468 0.0
C281 C 0.88335 0.81632 0.51227 0.0
N282 N 0.88898 0.79146 0.4461 0.0
N283 N 0.86764 0.78908 0.46403 0.0
C284 C 0.92309 0.81692 0.46531 0.0
H285 H 0.92272 0.83591 0.46032 0.0
H286 H 0.93078 0.80879 0.42899 0.0
H287 H 0.93402 0.8131 0.50087 0.0
C288 C 0.91728 0.70704 0.41605 0.0
N289 N 0.90989 0.72552 0.38768 0.0
N290 N 0.91048 0.74371 0.41904 0.0
C291 C 0.91982 0.73773 0.46716 0.0
C292 C 0.92462 0.71412 0.46724 0.0
C293 C 0.91455 0.68266 0.39736 0.0
H294 H 0.9008 0.68146 0.36647 0.0
H295 H 0.93087 0.67633 0.37968 0.0
H296 H 0.91017 0.67131 0.43201 0.0
O297 O 0.86918 0.73629 0.30325 0.0
O298 O 0.86847 0.76829 0.35048 0.0
H299 H 0.91067 0.75841 0.53516 0.0
H300 H 0.94019 0.7485 0.53585 0.0
C301 C 0.92603 0.75483 0.50982 0.0
H302 H 0.93156 0.77109 0.49049 0.0
H303 H 0.85591 0.77704 0.44914 0.0
O304 O 0.90742 0.70333 0.27034 0.0
C305 C 0.85842 0.75376 0.32029 0.0
Co306 Co 0.62923 0.25725 0.84463 0.0
Co307 Co 0.64794 0.21424 0.89939 0.0
C308 C 0.61464 0.20857 0.81026 0.0
O309 O 0.61531 0.2304 0.80526 0.0
O310 O 0.62572 0.1986 0.84828 0.0
C311 C 0.59073 0.28314 0.81689 0.0
O312 O 0.57952 0.26426 0.82973 0.0
C313 C 0.65885 0.17498 0.97248 0.0
C314 C 0.69508 0.18347 0.99116 0.0
C315 C 0.6775 0.16839 1.00436 0.0
N316 N 0.66516 0.19335 0.94292 0.0
N317 N 0.68702 0.19785 0.95322 0.0
C318 C 0.63492 0.16538 0.9732 0.0
H319 H 0.62305 0.17659 0.94996 0.0
H320 H 0.62867 0.16351 0.01536 0.0
H321 H 0.63503 0.14804 0.95445 0.0
C322 C 0.61828 0.27137 0.9558 0.0
N323 N 0.62644 0.2559 0.92006 0.0
N324 N 0.63281 0.23709 0.9452 0.0
C325 C 0.62779 0.23969 0.99847 0.0
C326 C 0.61822 0.26163 0.00712 0.0
C327 C 0.61327 0.29597 0.94168 0.0
H328 H 0.62465 0.30175 0.9083 0.0
H329 H 0.5951 0.29752 0.9285 0.0
H330 H 0.61606 0.30748 0.97681 0.0
O331 O 0.66119 0.26152 0.82231 0.0
O332 O 0.6734 0.22822 0.85431 0.0
H333 H 0.64955 0.21784 0.04562 0.0
H334 H 0.62252 0.22512 0.0784 0.0
C335 C 0.6309 0.221 0.03938 0.0
H336 H 0.62306 0.20502 0.02381 0.0
H337 H 0.69615 0.21167 0.93668 0.0
O338 O 0.61245 0.28373 0.82061 0.0
C339 C 0.67702 0.2467 0.82793 0.0
Co340 Co 0.65442 0.72606 0.18756 0.0
Co341 Co 0.65534 0.77525 0.14326 0.0
C342 C 0.62787 0.76612 0.24078 0.0
O343 O 0.63542 0.74542 0.23949 0.0
O344 O 0.63303 0.78034 0.20342 0.0
C345 C 0.6679 0.68052 0.21707 0.0
O346 O 0.68799 0.68623 0.19677 0.0
C347 C 0.6464 0.81874 0.08686 0.0
C348 C 0.68182 0.82846 0.06323 0.0
C349 C 0.65906 0.83509 0.05861 0.0
N350 N 0.66106 0.80303 0.10637 0.0
N351 N 0.68224 0.80924 0.09327 0.0
C352 C 0.62097 0.8183 0.09698 0.0
H353 H 0.61514 0.80052 0.1062 0.0
H354 H 0.61117 0.82545 0.06251 0.0
H355 H 0.6172 0.82918 0.13274 0.0
C356 C 0.63421 0.71588 0.07871 0.0
N357 N 0.64437 0.73014 0.11469 0.0
N358 N 0.64515 0.7511 0.09462 0.0
C359 C 0.63585 0.75067 0.04448 0.0
C360 C 0.62832 0.72836 0.03258 0.0
C361 C 0.62809 0.69141 0.09121 0.0
H362 H 0.61973 0.6905 0.13149 0.0
H363 H 0.61637 0.68395 0.06056 0.0
H364 H 0.64409 0.68103 0.09308 0.0
O365 O 0.68778 0.7331 0.19879 0.0
O366 O 0.68595 0.76954 0.17536 0.0
H367 H 0.63267 0.76579 0.96517 0.0
H368 H 0.61869 0.78128 0.01882 0.0
C369 C 0.63418 0.77116 0.00803 0.0
H370 H 0.64961 0.78219 0.01263 0.0
H371 H 0.69697 0.79985 0.10286 0.0
O372 O 0.65084 0.69398 0.21103 0.0
C373 C 0.69721 0.7527 0.19428 0.0
Co374 Co 0.88146 0.2583 0.66495 0.0
Co375 Co 0.86559 0.21274 0.61324 0.0
C376 C 0.89531 0.21233 0.7129 0.0
O377 O 0.89607 0.23429 0.71301 0.0
O378 O 0.88442 0.2015 0.67601 0.0
C379 C 0.88263 0.29486 0.73371 0.0
O380 O 0.86908 0.28053 0.75982 0.0
C381 C 0.86538 0.1691 0.55157 0.0
C382 C 0.82902 0.16822 0.52549 0.0
C383 C 0.8497 0.15651 0.52056 0.0
N384 N 0.85437 0.18742 0.57229 0.0
N385 N 0.83257 0.18649 0.5575 0.0
C386 C 0.89058 0.16494 0.55963 0.0
H387 H 0.89877 0.17998 0.57953 0.0
H388 H 0.89921 0.16164 0.52036 0.0
H389 H 0.89296 0.14964 0.58589 0.0
C390 C 0.89718 0.26863 0.55312 0.0
N391 N 0.88806 0.25431 0.59047 0.0
N392 N 0.88181 0.23492 0.56741 0.0
C393 C 0.88737 0.23615 0.51421 0.0
C394 C 0.8974 0.25765 0.50302 0.0
C395 C 0.9031 0.29326 0.56457 0.0
H396 H 0.89 0.30085 0.59184 0.0
H397 H 0.92002 0.29401 0.58523 0.0
H398 H 0.90381 0.30374 0.52717 0.0
O399 O 0.84783 0.25928 0.67661 0.0
O400 O 0.83662 0.22578 0.6441 0.0
H401 H 0.8651 0.21327 0.47115 0.0
H402 H 0.89159 0.22009 0.43539 0.0
C403 C 0.8838 0.21673 0.47545 0.0
H404 H 0.89199 0.2011 0.49181 0.0
H405 H 0.82023 0.19878 0.56767 0.0
O406 O 0.89177 0.28849 0.68961 0.0
C407 C 0.8321 0.24467 0.66756 0.0
Co408 Co 0.00427 0.61628 0.93833 0.0
Co409 Co 0.05117 0.61029 0.88166 0.0
C410 C 0.04815 0.63793 0.98341 0.0
O411 O 0.02635 0.63482 0.98554 0.0
O412 O 0.06012 0.62963 0.94477 0.0
C413 C 0.95908 0.60367 0.97142 0.0
O414 O 0.96461 0.58342 0.95176 0.0
C415 C 0.09501 0.61663 0.82361 0.0
C416 C 0.09654 0.58393 0.77797 0.0
C417 C 0.10813 0.60444 0.78641 0.0
N418 N 0.07655 0.60384 0.83635 0.0
N419 N 0.07778 0.58417 0.80972 0.0
C420 C 0.09846 0.64088 0.84242 0.0
H421 H 0.08237 0.64781 0.8603 0.0
H422 H 0.104 0.65201 0.80831 0.0
H423 H 0.11213 0.64118 0.87363 0.0
C424 C 0.99052 0.63342 0.82812 0.0
N425 N 0.00596 0.62491 0.86383 0.0
N426 N 0.02616 0.62322 0.84022 0.0
C427 C 0.02435 0.63111 0.78897 0.0
C428 C 1.00158 0.6378 0.77897 0.0
C429 C 0.9654 0.63592 0.84022 0.0
H430 H 0.95936 0.62096 0.86418 0.0
H431 H 0.96268 0.65169 0.86465 0.0
H432 H 0.95501 0.63703 0.80279 0.0
O433 O 0.0107 0.58296 0.95112 0.0
O434 O 0.04451 0.5795 0.91162 0.0
H435 H 0.0494 0.61631 0.736 0.0
H436 H 0.04066 0.64517 0.71719 0.0
C437 C 0.04448 0.63353 0.75154 0.0
H438 H 0.05931 0.64068 0.77388 0.0
H439 H 0.06539 0.57118 0.81196 0.0
O440 O 0.97293 0.62053 0.9663 0.0
C441 C 0.02808 0.57088 0.93866 0.0
Co442 Co 0.53959 0.39081 0.44102 0.0
Co443 Co 0.49628 0.39143 0.37467 0.0
C444 C 0.49514 0.36363 0.47212 0.0
O445 O 0.51527 0.37152 0.48211 0.0
O446 O 0.48476 0.36906 0.42863 0.0
C447 C 0.57062 0.36257 0.4844 0.0
O448 O 0.55819 0.34857 0.4546 0.0
C449 C 0.45464 0.38991 0.30652 0.0
C450 C 0.46114 0.42086 0.25654 0.0
C451 C 0.44558 0.4032 0.26506 0.0
N452 N 0.47475 0.39929 0.32132 0.0
N453 N 0.47834 0.41795 0.29193 0.0
C454 C 0.44409 0.36926 0.33308 0.0
H455 H 0.4454 0.37094 0.37757 0.0
H456 H 0.4537 0.35359 0.32107 0.0
H457 H 0.42571 0.36729 0.32174 0.0
C458 C 0.5598 0.37141 0.33974 0.0
N459 N 0.54249 0.3814 0.36753 0.0
N460 N 0.52327 0.37906 0.34053 0.0
C461 C 0.52741 0.36611 0.29607 0.0
C462 C 0.55088 0.36048 0.29398 0.0
C463 C 0.58465 0.3737 0.3551 0.0
H464 H 0.58737 0.38983 0.37824 0.0
H465 H 0.58991 0.35906 0.38092 0.0
H466 H 0.59572 0.37379 0.3185 0.0
O467 O 0.53427 0.42405 0.44934 0.0
O468 O 0.50051 0.42236 0.40946 0.0
H469 H 0.50782 0.36784 0.22335 0.0
H470 H 0.5124 0.33904 0.24814 0.0
C471 C 0.50877 0.35706 0.2603 0.0
H472 H 0.49193 0.35779 0.28123 0.0
H473 H 0.49277 0.42854 0.29561 0.0
O474 O 0.56779 0.38403 0.47874 0.0
C475 C 0.51566 0.43365 0.43531 0.0
Co476 Co 0.99244 0.37118 0.05402 0.0
Co477 Co 0.03241 0.36793 0.13295 0.0
C478 C 0.03758 0.3454 0.02743 0.0
O479 O 0.01792 0.35359 0.01409 0.0
O480 O 0.04572 0.34861 0.0747 0.0
C481 C 0.96489 0.38507 0.96855 0.0
O482 O 0.98268 0.39859 0.96017 0.0
C483 C 0.07447 0.37128 0.19704 0.0
C484 C 0.05989 0.37988 0.27704 0.0
C485 C 0.08057 0.3769 0.24984 0.0
N486 N 0.0514 0.37052 0.19425 0.0
N487 N 0.04282 0.37615 0.24182 0.0
C488 C 0.08963 0.3699 0.14822 0.0
H489 H 0.0798 0.37457 0.11144 0.0
H490 H 0.0959 0.35197 0.14345 0.0
H491 H 0.1046 0.38167 0.15215 0.0
C492 C 0.96695 0.34822 0.14592 0.0
N493 N 0.98578 0.35794 0.12316 0.0
N494 N 0.00347 0.35493 0.1552 0.0
C495 C 0.9969 0.34174 0.19762 0.0
C496 C 0.97324 0.33739 0.19443 0.0
C497 C 0.94342 0.34996 0.12178 0.0
H498 H 0.9419 0.36602 0.09779 0.0
H499 H 0.94059 0.33515 0.09429 0.0
H500 H 0.92998 0.34984 0.15368 0.0
O501 O 0.99999 0.40402 0.05983 0.0
O502 O 0.03164 0.40073 0.10767 0.0
H503 H 0.01468 0.33977 0.27336 0.0
H504 H 0.00784 0.31234 0.24415 0.0
C505 C 0.01361 0.33014 0.23483 0.0
H506 H 0.03099 0.32948 0.21625 0.0
H507 H 0.02533 0.37837 0.2497 0.0
O508 O 0.96527 0.37089 0.00772 0.0
C509 C 0.01768 0.413 0.08073 0.0
Co510 Co 0.53769 0.63907 0.56151 0.0
Co511 Co 0.49267 0.63408 0.62441 0.0
C512 C 0.49468 0.6664 0.53082 0.0
O513 O 0.5154 0.66014 0.52082 0.0
O514 O 0.48376 0.65851 0.57164 0.0
C515 C 0.58129 0.6568 0.51547 0.0
O516 O 0.57478 0.67812 0.52428 0.0
C517 C 0.4525 0.63961 0.69627 0.0
C518 C 0.44944 0.60389 0.72665 0.0
C519 C 0.44037 0.62575 0.73216 0.0
N520 N 0.46838 0.62652 0.67176 0.0
N521 N 0.46609 0.60512 0.68918 0.0
C522 C 0.44876 0.6646 0.68413 0.0
H523 H 0.44872 0.66727 0.63977 0.0
H524 H 0.46311 0.67494 0.70078 0.0
H525 H 0.43222 0.67079 0.70131 0.0
C526 C 0.55517 0.65442 0.67142 0.0
N527 N 0.53888 0.64581 0.63783 0.0
N528 N 0.51957 0.64319 0.66503 0.0
C529 C 0.52304 0.65007 0.71665 0.0
C530 C 0.54566 0.65767 0.72264 0.0
C531 C 0.57877 0.66142 0.65363 0.0
H532 H 0.58626 0.64786 0.62751 0.0
H533 H 0.57753 0.67759 0.62999 0.0
H534 H 0.59033 0.66448 0.68843 0.0
O535 O 0.53025 0.60614 0.54703 0.0
O536 O 0.49624 0.60453 0.58575 0.0
H537 H 0.49462 0.63382 0.75712 0.0
H538 H 0.51301 0.65055 0.8007 0.0
C539 C 0.50505 0.64973 0.76001 0.0
H540 H 0.49362 0.66482 0.7552 0.0
H541 H 0.47659 0.59147 0.67716 0.0
O542 O 0.56832 0.64026 0.52909 0.0
C543 C 0.51199 0.59515 0.55809 0.0
H544 H 0.4858 0.04466 0.44663 0.0
H545 H 0.55792 0.06086 0.41975 0.0
H546 H 0.56856 0.02172 0.44924 0.0
H547 H 0.49293 0.01207 0.5646 0.0
H548 H 0.47127 0.99088 0.54886 0.0
H549 H 0.46897 0.01958 0.52191 0.0
H550 H 0.46701 0.0032 0.42473 0.0
H551 H 0.46904 0.9744 0.45142 0.0
H552 H 0.48937 0.98415 0.40128 0.0
H553 H 0.5717 0.98232 0.4907 0.0
H554 H 0.56687 0.94381 0.53151 0.0
H555 H 0.49265 0.95222 0.52725 0.0
C556 C 0.5038 0.03986 0.44596 0.0
C557 C 0.52101 0.05592 0.43077 0.0
C558 C 0.54438 0.04891 0.43082 0.0
C559 C 0.55062 0.02671 0.44775 0.0
C560 C 0.5333 0.01155 0.46383 0.0
C561 C 0.51033 0.01766 0.46212 0.0
C562 C 0.49513 0.99819 0.48236 0.0
C563 C 0.48127 0.00563 0.5324 0.0
C564 C 0.4792 0.98947 0.43725 0.0
C565 C 0.51317 0.98037 0.49678 0.0
C566 C 0.53508 0.98849 0.48603 0.0
C567 C 0.55461 0.97565 0.49854 0.0
C568 C 0.55169 0.95384 0.52203 0.0
C569 C 0.52939 0.94492 0.53233 0.0
C570 C 0.50991 0.95844 0.51936 0.0
H571 H 0.31951 0.22067 0.78106 0.0
H572 H 0.32908 0.29484 0.78873 0.0
H573 H 0.28916 0.30059 0.75941 0.0
H574 H 0.28259 0.22019 0.66328 0.0
H575 H 0.26412 0.19756 0.68813 0.0
H576 H 0.29379 0.19881 0.70905 0.0
H577 H 0.28095 0.19923 0.80925 0.0
H578 H 0.25124 0.198 0.78865 0.0
H579 H 0.26098 0.2209 0.83207 0.0
H580 H 0.24912 0.299 0.7282 0.0
H581 H 0.2097 0.29016 0.6996 0.0
H582 H 0.22395 0.21696 0.71427 0.0
C583 C 0.31319 0.23809 0.77637 0.0
C584 C 0.32753 0.2573 0.78717 0.0
C585 C 0.31852 0.27982 0.78094 0.0
C586 C 0.29583 0.28332 0.76415 0.0
C587 C 0.28217 0.26414 0.75403 0.0
C588 C 0.29032 0.24196 0.7601 0.0
C589 C 0.27155 0.22451 0.7474 0.0
C590 C 0.27843 0.20938 0.69909 0.0
C591 C 0.26584 0.20979 0.79733 0.0
C592 C 0.25171 0.24045 0.7331 0.0
C593 C 0.25843 0.26321 0.73702 0.0
C594 C 0.24358 0.28126 0.72514 0.0
C595 C 0.22118 0.276 0.70878 0.0
C596 C 0.21361 0.25285 0.70471 0.0
C597 C 0.22914 0.23482 0.71728 0.0
H598 H 0.98969 0.05487 0.05934 0.0
H599 H 0.05927 0.0786 0.02707 0.0
H600 H 0.06919 0.04014 0.99105 0.0
H601 H 0.00395 0.99735 0.1001 0.0
H602 H 0.97933 0.98448 0.06776 0.0
H603 H 0.97786 0.01374 0.09152 0.0
H604 H 0.96614 0.02734 0.99577 0.0
H605 H 0.96766 0.99813 0.97163 0.0
H606 H 0.98427 0.02037 0.9389 0.0
H607 H 0.07185 0.99876 0.96174 0.0
H608 H 0.06682 0.95789 0.9375 0.0
H609 H 0.99485 0.96152 0.98396 0.0
C610 C 0.00707 0.05198 0.04494 0.0
C611 C 0.02379 0.06974 0.04639 0.0
C612 C 0.04621 0.06529 0.02644 0.0
C613 C 0.05199 0.04349 1.00594 0.0
C614 C 0.03508 0.02642 1.005 0.0
C615 C 0.01303 0.03046 0.02361 0.0
C616 C 0.99794 0.00928 0.01723 0.0
C617 C 0.98927 1.00071 0.07244 0.0
C618 C 0.97781 0.01407 0.97858 0.0
C619 C 0.01502 0.99258 0.99256 0.0
C620 C 0.03637 0.00281 0.98617 0.0
C621 C 0.05517 0.99065 0.96618 0.0
C622 C 0.05215 0.9674 0.95266 0.0
C623 C 0.03042 0.95654 0.95856 0.0
C624 C 0.01157 0.96944 0.97829 0.0
H625 H 0.31291 0.7408 0.23675 0.0
H626 H 0.31507 0.81197 0.18347 0.0
H627 H 0.274 0.81636 0.20613 0.0
H628 H 0.2543 0.72805 0.19168 0.0
H629 H 0.24739 0.71079 0.25007 0.0
H630 H 0.27671 0.71256 0.22648 0.0
H631 H 0.28966 0.72619 0.32125 0.0
H632 H 0.26037 0.72461 0.34502 0.0
H633 H 0.27627 0.75114 0.35105 0.0
H634 H 0.23323 0.8135 0.23408 0.0
H635 H 0.19476 0.80402 0.26943 0.0
H636 H 0.21842 0.73531 0.31087 0.0
C637 C 0.30457 0.75716 0.22924 0.0
C638 C 0.31711 0.77604 0.20806 0.0
C639 C 0.30579 0.79733 0.19976 0.0
C640 C 0.28246 0.79998 0.21236 0.0
C641 C 0.27065 0.78125 0.23394 0.0
C642 C 0.28123 0.76027 0.24267 0.0
C643 C 0.2646 0.74336 0.26887 0.0
C644 C 0.26051 0.72245 0.23207 0.0
C645 C 0.27325 0.73589 0.32487 0.0
C646 C 0.24313 0.75818 0.27337 0.0
C647 C 0.24706 0.77988 0.2524 0.0
C648 C 0.22992 0.7966 0.25081 0.0
C649 C 0.2081 0.79102 0.27101 0.0
C650 C 0.20356 0.76897 0.29323 0.0
C651 C 0.22142 0.75238 0.29466 0.0
H652 H 0.82676 0.72191 0.28339 0.0
H653 H 0.83507 0.79448 0.32068 0.0
H654 H 0.79514 0.80173 0.29172 0.0
H655 H 0.79105 0.72859 0.16596 0.0
H656 H 0.77278 0.70433 0.18124 0.0
H657 H 0.80219 0.70464 0.20415 0.0
H658 H 0.78839 0.69831 0.30259 0.0
H659 H 0.75893 0.69794 0.27995 0.0
H660 H 0.76774 0.71789 0.33168 0.0
H661 H 0.75524 0.80165 0.2553 0.0
H662 H 0.71632 0.7939 0.22084 0.0
H663 H 0.73208 0.7209 0.21206 0.0
C664 C 0.82016 0.73933 0.28538 0.0
C665 C 0.83413 0.75768 0.30402 0.0
C666 C 0.82475 0.78016 0.30662 0.0
C667 C 0.80209 0.78446 0.2901 0.0
C668 C 0.78883 0.76607 0.27176 0.0
C669 C 0.79735 0.74389 0.26992 0.0
C670 C 0.77909 0.72717 0.24996 0.0
C671 C 0.78674 0.7155 0.19719 0.0
C672 C 0.77319 0.70927 0.29366 0.0
C673 C 0.75909 0.7435 0.24037 0.0
C674 C 0.76526 0.76587 0.2528 0.0
C675 C 0.75014 0.78419 0.24583 0.0
C676 C 0.72806 0.77958 0.22599 0.0
C677 C 0.72104 0.75677 0.21385 0.0
C678 C 0.73684 0.73848 0.22132 0.0
H679 H 0.79916 0.2135 0.69933 0.0
H680 H 0.81209 0.28672 0.68156 0.0
H681 H 0.77351 0.29511 0.71885 0.0
H682 H 0.738 0.21425 0.6684 0.0
H683 H 0.73088 0.19303 0.71895 0.0
H684 H 0.75885 0.19275 0.6874 0.0
H685 H 0.7781 0.19495 0.78156 0.0
H686 H 0.7502 0.19538 0.8134 0.0
H687 H 0.77058 0.21808 0.82677 0.0
H688 H 0.73356 0.29557 0.75765 0.0
H689 H 0.69573 0.28821 0.80001 0.0
H690 H 0.70976 0.21481 0.79895 0.0
C691 C 0.7937 0.23128 0.70255 0.0
C692 C 0.80847 0.24948 0.68693 0.0
C693 C 0.80098 0.27253 0.69301 0.0
C694 C 0.7791 0.27746 0.71409 0.0
C695 C 0.76505 0.25916 0.72968 0.0
C696 C 0.77209 0.23653 0.7246 0.0
C697 C 0.75415 0.22013 0.74721 0.0
C698 C 0.74492 0.2041 0.70284 0.0
C699 C 0.76384 0.20633 0.79508 0.0
C700 C 0.73591 0.23708 0.76561 0.0
C701 C 0.74246 0.25948 0.75457 0.0
C702 C 0.72828 0.27812 0.76671 0.0
C703 C 0.70682 0.27376 0.7907 0.0
C704 C 0.69985 0.25097 0.80308 0.0
C705 C 0.71471 0.23244 0.7905 0.0
H706 H 0.99394 0.53959 0.96468 0.0
H707 H 0.06807 0.54904 0.96314 0.0
H708 H 0.07308 0.51092 1.00539 0.0
H709 H 0.9897 0.50842 0.09062 0.0
H710 H 0.96797 0.48874 0.06682 0.0
H711 H 0.96989 0.51731 0.03869 0.0
H712 H 0.97367 0.50014 0.94253 0.0
H713 H 0.97155 0.47155 0.97032 0.0
H714 H 0.99591 0.47929 0.9289 0.0
H715 H 0.07021 0.47244 0.05046 0.0
H716 H 0.06 0.43352 0.08286 0.0
H717 H 0.98803 0.44733 0.0489 0.0
C718 C 0.0112 0.53359 0.97327 0.0
C719 C 0.03062 0.54732 0.96081 0.0
C720 C 0.05295 0.53878 0.97207 0.0
C721 C 0.05598 0.51722 0.99647 0.0
C722 C 0.03653 0.50418 0.00866 0.0
C723 C 0.01459 0.51179 0.99652 0.0
C724 C 0.99676 0.49366 0.01078 0.0
C725 C 0.9801 0.50257 0.05432 0.0
C726 C 0.98371 0.48569 0.96011 0.0
C727 C 0.01213 0.47474 0.03277 0.0
C728 C 0.03497 0.48137 0.03212 0.0
C729 C 0.05239 0.46698 0.05093 0.0
C730 C 0.04641 0.44495 0.06958 0.0
C731 C 0.02324 0.43735 0.06835 0.0
C732 C 0.00589 0.45263 0.05029 0.0
H733 H 0.54682 0.46755 0.46356 0.0
H734 H 0.4738 0.45468 0.44156 0.0
H735 H 0.46525 0.49446 0.46978 0.0
H736 H 0.54225 0.50377 0.58003 0.0
H737 H 0.56476 0.52328 0.55942 0.0
H738 H 0.56537 0.49373 0.53747 0.0
H739 H 0.56732 0.50712 0.43774 0.0
H740 H 0.56677 0.53672 0.45939 0.0
H741 H 0.54559 0.52638 0.41214 0.0
H742 H 0.46426 0.53464 0.50526 0.0
H743 H 0.47103 0.57404 0.53866 0.0
H744 H 0.5448 0.56247 0.53212 0.0
C745 C 0.52905 0.47313 0.46463 0.0
C746 C 0.51096 0.45792 0.45057 0.0
C747 C 0.48795 0.46598 0.45201 0.0
C748 C 0.4829 0.48855 0.46813 0.0
C749 C 0.50106 0.50305 0.48197 0.0
C750 C 0.5237 0.49582 0.47973 0.0
C751 C 0.53995 0.51515 0.49573 0.0
C752 C 0.5539 0.50858 0.54616 0.0
C753 C 0.55584 0.52173 0.44842 0.0
C754 C 0.52287 0.53423 0.50799 0.0
C755 C 0.50053 0.52674 0.50017 0.0
C756 C 0.48167 0.54079 0.51097 0.0
C757 C 0.4857 0.56313 0.53012 0.0
C758 C 0.50843 0.57141 0.53763 0.0
C759 C 0.52725 0.55673 0.5261 0.0
H760 H 0.48573 0.15975 0.19521 0.0
H761 H 0.43986 0.18686 0.31803 0.0
H762 H 0.4185 0.20815 0.24785 0.0
H763 H 0.48893 0.21276 0.11688 0.0
H764 H 0.49015 0.19809 0.05282 0.0
H765 H 0.50136 0.18439 0.11255 0.0
H766 H 0.47486 0.14927 0.09578 0.0
H767 H 0.46345 0.16292 0.0362 0.0
H768 H 0.44425 0.15357 0.08916 0.0
H769 H 0.40133 0.22602 0.16305 0.0
H770 H 0.39109 0.24028 0.07204 0.0
H771 H 0.44994 0.20453 1.00458 0.0
C772 C 0.47139 0.17037 0.20762 0.0
C773 C 0.46444 0.1713 0.26264 0.0
C774 C 0.44528 0.18525 0.27638 0.0
C775 C 0.43311 0.19763 0.23668 0.0
C776 C 0.44037 0.19623 0.18298 0.0
C777 C 0.45921 0.18311 0.16845 0.0
C778 C 0.4637 0.18492 0.10797 0.0
C779 C 0.48745 0.19568 0.09691 0.0
C780 C 0.46143 0.16126 0.08068 0.0
C781 C 0.44439 0.201 0.09067 0.0
C782 C 0.43105 0.20722 0.13459 0.0
C783 C 0.41187 0.22145 0.12859 0.0
C784 C 0.40624 0.22961 0.07669 0.0
C785 C 0.41983 0.22387 0.03105 0.0
C786 C 0.43917 0.20929 0.03851 0.0
H787 H 0.05447 0.19434 0.25141 0.0
H788 H 0.02144 0.13832 0.33835 0.0
H789 H 0.03879 0.15215 0.42288 0.0
H790 H 0.10846 0.18704 0.32143 0.0
H791 H 0.11554 0.21727 0.32018 0.0
H792 H 0.09792 0.2051 0.26765 0.0
H793 H 0.06623 0.2352 0.28811 0.0
H794 H 0.08367 0.24732 0.3411 0.0
H795 H 0.05486 0.23753 0.3557 0.0
H796 H 0.05891 0.17279 0.49876 0.0
H797 H 0.085 0.19427 0.55825 0.0
H798 H 0.1123 0.23135 0.41998 0.0
C799 C 0.05098 0.18473 0.28792 0.0
C800 C 0.03594 0.1654 0.28767 0.0
C801 C 0.03188 0.15373 0.33711 0.0
C802 C 0.04196 0.16131 0.38551 0.0
C803 C 0.05675 0.18023 0.38398 0.0
C804 C 0.06173 0.19145 0.33626 0.0
C805 C 0.08008 0.20983 0.34492 0.0
C806 C 0.10179 0.20449 0.31157 0.0
C807 C 0.07064 0.2339 0.33166 0.0
C808 C 0.08457 0.20723 0.40511 0.0
C809 C 0.07045 0.19042 0.42687 0.0
C810 C 0.07046 0.18554 0.48187 0.0
C811 C 0.08564 0.1977 0.51535 0.0
C812 C 0.10138 0.21405 0.49397 0.0
C813 C 0.10057 0.21902 0.43789 0.0
H814 H 0.11697 0.78941 0.57368 0.0
H815 H 0.06735 0.8092 0.45127 0.0
H816 H 0.04594 0.83158 0.51888 0.0
H817 H 0.07196 0.78014 0.67728 0.0
H818 H 0.0902 0.7895 0.73186 0.0
H819 H 0.10269 0.77619 0.67298 0.0
H820 H 0.1291 0.81171 0.65989 0.0
H821 H 0.11645 0.82526 0.71826 0.0
H822 H 0.1164 0.83992 0.65406 0.0
H823 H 0.03216 0.85534 0.59822 0.0
H824 H 0.02258 0.87255 0.6863 0.0
H825 H 0.07473 0.83005 0.76247 0.0
C826 C 0.10141 0.79809 0.56107 0.0
C827 C 0.09448 0.79806 0.50605 0.0
C828 C 0.07389 0.80977 0.4921 0.0
C829 C 0.06135 0.82238 0.53054 0.0
C830 C 0.06892 0.82247 0.58384 0.0
C831 C 0.08802 0.81001 0.59961 0.0
C832 C 0.09137 0.81176 0.66046 0.0
C833 C 0.0889 0.78798 0.68723 0.0
C834 C 0.11472 0.82282 0.67394 0.0
C835 C 0.07152 0.82755 0.67598 0.0
C836 C 0.05911 0.83389 0.6309 0.0
C837 C 0.04126 0.84988 0.6341 0.0
C838 C 0.03574 0.8594 0.68469 0.0
C839 C 0.04734 0.85238 0.73229 0.0
C840 C 0.06546 0.83606 0.72735 0.0
H841 H 0.41177 0.79191 0.93271 0.0
H842 H 0.45387 0.8206 0.06072 0.0
H843 H 0.4777 0.84059 0.99317 0.0
H844 H 0.46189 0.78152 0.84149 0.0
H845 H 0.44571 0.78767 0.78114 0.0
H846 H 0.4314 0.77578 0.83952 0.0
H847 H 0.40275 0.80986 0.83849 0.0
H848 H 0.41721 0.82207 0.7807 0.0
H849 H 0.4136 0.83894 0.8412 0.0
H850 H 0.49399 0.86134 0.91349 0.0
H851 H 0.50752 0.87528 0.82533 0.0
H852 H 0.46083 0.828 0.74512 0.0
C853 C 0.42631 0.80195 0.94647 0.0
C854 C 0.43054 0.805 1.00258 0.0
C855 C 0.44976 0.81847 0.01838 0.0
C856 C 0.46351 0.82988 0.98019 0.0
C857 C 0.4585 0.82715 0.92562 0.0
C858 C 0.44088 0.81295 0.90842 0.0
C859 C 0.44022 0.81232 0.84678 0.0
C860 C 0.4451 0.78787 0.826 0.0
C861 C 0.41706 0.82133 0.82556 0.0
C862 C 0.45983 0.82876 0.83244 0.0
C863 C 0.46975 0.83737 0.87884 0.0
C864 C 0.48692 0.85409 0.87683 0.0
C865 C 0.49469 0.86176 0.82623 0.0
C866 C 0.48609 0.85224 0.77754 0.0
C867 C 0.46807 0.83566 0.78108 0.0
H868 H 0.60126 0.85518 0.77609 0.0
H869 H 0.63382 0.92233 0.77004 0.0
H870 H 0.65258 0.91448 0.85796 0.0
H871 H 0.587 0.85668 0.90902 0.0
H872 H 0.59209 0.82664 0.92288 0.0
H873 H 0.5843 0.83567 0.85584 0.0
H874 H 0.6211 0.8169 0.81596 0.0
H875 H 0.62849 0.8069 0.88259 0.0
H876 H 0.64879 0.82388 0.84438 0.0
H877 H 0.66498 0.90012 0.9501 0.0
H878 H 0.67244 0.87903 0.0356 0.0
H879 H 0.63023 0.8225 0.97884 0.0
C880 C 0.61332 0.86774 0.79158 0.0
C881 C 0.61678 0.88903 0.76567 0.0
C882 C 0.6315 0.90568 0.78905 0.0
C883 C 0.64204 0.90143 0.83894 0.0
C884 C 0.63746 0.88056 0.86457 0.0
C885 C 0.62372 0.86387 0.84119 0.0
C886 C 0.61998 0.84362 0.8783 0.0
C887 C 0.59432 0.84049 0.89231 0.0
C888 C 0.63021 0.82152 0.85386 0.0
C889 C 0.63349 0.85163 0.92659 0.0
C890 C 0.64354 0.8729 0.91812 0.0
C891 C 0.65713 0.88349 0.95727 0.0
C892 C 0.66107 0.87159 1.0057 0.0
C893 C 0.65109 0.84968 0.01435 0.0
C894 C 0.63706 0.83974 0.97444 0.0
H895 H 0.94358 0.85207 0.784 0.0
H896 H 0.89627 0.90951 0.79488 0.0
H897 H 0.87526 0.8947 0.71505 0.0
H898 H 0.95068 0.85478 0.65 0.0
H899 H 0.95283 0.8243 0.63726 0.0
H900 H 0.96091 0.83563 0.70202 0.0
H901 H 0.93215 0.80877 0.75109 0.0
H902 H 0.92464 0.79634 0.68684 0.0
H903 H 0.90249 0.80804 0.72986 0.0
H904 H 0.86245 0.87576 0.62818 0.0
H905 H 0.8582 0.85356 0.54311 0.0
H906 H 0.91616 0.81085 0.58827 0.0
C907 C 0.92805 0.86086 0.77164 0.0
C908 C 0.92098 0.88147 0.79658 0.0
C909 C 0.90144 0.8933 0.77699 0.0
C910 C 0.88955 0.88509 0.73164 0.0
C911 C 0.89769 0.86523 0.70644 0.0
C912 C 0.91638 0.85316 0.72618 0.0
C913 C 0.9236 0.83403 0.68855 0.0
C914 C 0.94847 0.83742 0.66827 0.0
C915 C 0.92052 0.81039 0.7157 0.0
C916 C 0.90645 0.83755 0.64376 0.0
C917 C 0.89141 0.85536 0.65499 0.0
C918 C 0.87411 0.86176 0.61905 0.0
C919 C 0.87194 0.84928 0.57086 0.0
C920 C 0.88736 0.83116 0.55894 0.0
C921 C 0.90477 0.82526 0.59573 0.0
H922 H 0.9358 0.08698 0.34441 0.0
H923 H 0.8897 0.10068 0.21098 0.0
H924 H 0.85854 0.10983 0.27547 0.0
H925 H 0.88962 0.06562 0.44537 0.0
H926 H 0.90432 0.07994 0.4999 0.0
H927 H 0.92058 0.06785 0.44465 0.0
H928 H 0.93986 0.10752 0.42844 0.0
H929 H 0.92356 0.11977 0.48287 0.0
H930 H 0.92199 0.13239 0.41644 0.0
H931 H 0.83624 0.12588 0.35068 0.0
H932 H 0.82486 0.14877 0.42931 0.0
H933 H 0.88433 0.12341 0.51707 0.0
C934 C 0.91879 0.09085 0.32902 0.0
C935 C 0.91496 0.09316 0.2731 0.0
C936 C 0.89285 0.09898 0.25389 0.0
C937 C 0.87504 0.10393 0.29021 0.0
C938 C 0.87965 0.10271 0.34541 0.0
C939 C 0.90095 0.09604 0.36484 0.0
C940 C 0.90279 0.09998 0.42515 0.0
C941 C 0.90441 0.07697 0.45556 0.0
C942 C 0.92324 0.11586 0.43896 0.0
C943 C 0.87996 0.11165 0.43576 0.0
C944 C 0.8666 0.11237 0.38962 0.0
C945 C 0.84626 0.12493 0.38741 0.0
C946 C 0.83998 0.13797 0.43251 0.0
C947 C 0.85414 0.13862 0.4791 0.0
C948 C 0.87358 0.12412 0.48166 0.0
H949 H 0.60187 0.09836 0.19411 0.0
H950 H 0.62429 0.14778 0.3141 0.0
H951 H 0.65974 0.15426 0.26283 0.0
H952 H 0.66269 0.08101 0.13876 0.0
H953 H 0.65116 0.08095 0.07121 0.0
H954 H 0.63346 0.07182 0.12724 0.0
H955 H 0.60255 0.10169 0.09958 0.0
H956 H 0.62009 0.11102 0.04434 0.0
H957 H 0.61053 0.13164 0.09394 0.0
H958 H 0.6854 0.16464 0.18938 0.0
H959 H 0.69613 0.18023 0.10076 0.0
H960 H 0.6564 0.12682 0.0221 0.0
C961 C 0.61478 0.10974 0.21085 0.0
C962 C 0.61043 0.12215 0.2588 0.0
C963 C 0.62742 0.13732 0.27881 0.0
C964 C 0.64773 0.14119 0.24956 0.0
C965 C 0.6507 0.12996 0.20021 0.0
C966 C 0.63466 0.11436 0.18108 0.0
C967 C 0.63849 0.10908 0.12181 0.0
C968 C 0.64697 0.08424 0.11434 0.0
C969 C 0.61664 0.11367 0.08802 0.0
C970 C 0.65742 0.12612 0.10908 0.0
C971 C 0.66512 0.13701 0.15543 0.0
C972 C 0.68 0.1558 0.15309 0.0
C973 C 0.68598 0.16458 0.10239 0.0
C974 C 0.67667 0.15487 0.05478 0.0
C975 C 0.66348 0.1346 0.0581 0.0
H976 H 0.96965 0.67298 0.76172 0.0
H977 H 0.00987 0.6213 0.67742 0.0
H978 H 0.99522 0.63569 0.59039 0.0
H979 H 0.91932 0.66749 0.67315 0.0
H980 H 0.91224 0.69767 0.6763 0.0
H981 H 0.92654 0.68402 0.73235 0.0
H982 H 0.95911 0.71438 0.72689 0.0
H983 H 0.945 0.728 0.67054 0.0
H984 H 0.97439 0.71843 0.66413 0.0
H985 H 0.97841 0.65717 0.51205 0.0
H986 H 0.95729 0.68129 0.44763 0.0
H987 H 0.92268 0.71566 0.58048 0.0
C988 C 0.97518 0.66452 0.72501 0.0
C989 C 0.99141 0.64621 0.72673 0.0
C990 C 0.99812 0.63576 0.67745 0.0
C991 C 0.98972 0.64371 0.62766 0.0
C992 C 0.97406 0.66189 0.62734 0.0
C993 C 0.96647 0.67192 0.67467 0.0
C994 C 0.94881 0.69065 0.66254 0.0
C995 C 0.92533 0.68459 0.68757 0.0
C996 C 0.95734 0.71426 0.68221 0.0
C997 C 0.94792 0.6897 0.60105 0.0
C998 C 0.96288 0.67313 0.58184 0.0
C999 C 0.96619 0.66976 0.5267 0.0
C1000 C 0.95378 0.68343 0.49019 0.0
C1001 C 0.93763 0.70005 0.50826 0.0
C1002 C 0.93479 0.70317 0.56485 0.0
H1003 H 0.63337 0.69059 0.96444 0.0
H1004 H 0.58927 0.74921 0.99636 0.0
H1005 H 0.56395 0.73766 0.92111 0.0
H1006 H 0.62839 0.69226 0.81816 0.0
H1007 H 0.628 0.66141 0.81035 0.0
H1008 H 0.64286 0.67421 0.86666 0.0
H1009 H 0.61874 0.64951 0.933 0.0
H1010 H 0.60383 0.63661 0.87688 0.0
H1011 H 0.58775 0.65062 0.92981 0.0
H1012 H 0.54275 0.71944 0.84353 0.0
H1013 H 0.52783 0.69649 0.76721 0.0
H1014 H 0.58519 0.64931 0.78311 0.0
C1015 C 0.61835 0.70094 0.95552 0.0
C1016 C 0.61341 0.72095 0.98629 0.0
C1017 C 0.59364 0.73405 0.97309 0.0
C1018 C 0.57905 0.72753 0.93052 0.0
C1019 C 0.58437 0.70778 0.90099 0.0
C1020 C 0.60357 0.69468 0.9127 0.0
C1021 C 0.60528 0.67427 0.8742 0.0
C1022 C 0.62745 0.67563 0.84034 0.0
C1023 C 0.60381 0.6514 0.90534 0.0
C1024 C 0.58404 0.67795 0.83921 0.0
C1025 C 0.57222 0.69737 0.85566 0.0
C1026 C 0.55193 0.70425 0.83029 0.0
C1027 C 0.54352 0.69105 0.78703 0.0
C1028 C 0.55532 0.67116 0.76896 0.0
C1029 C 0.5759 0.66457 0.7956 0.0
H1030 H 0.58059 0.2901 0.02171 0.0
H1031 H 0.638 0.25994 0.10838 0.0
H1032 H 0.62534 0.27977 0.19147 0.0
H1033 H 0.58778 0.34594 0.08221 0.0
H1034 H 0.55744 0.35244 0.08277 0.0
H1035 H 0.56908 0.33348 0.03208 0.0
H1036 H 0.53999 0.30189 0.06047 0.0
H1037 H 0.52833 0.32071 0.11147 0.0
H1038 H 0.53887 0.29261 0.12994 0.0
H1039 H 0.6056 0.3023 0.26589 0.0
H1040 H 0.58398 0.3291 0.32307 0.0
H1041 H 0.54439 0.35136 0.18405 0.0
C1042 C 0.59062 0.28766 0.05802 0.0
C1043 C 0.61011 0.27288 0.05836 0.0
C1044 C 0.62253 0.27028 0.10716 0.0
C1045 C 0.6156 0.28176 0.15455 0.0
C1046 C 0.59654 0.29637 0.15241 0.0
C1047 C 0.58448 0.29971 0.10511 0.0
C1048 C 0.56591 0.31794 0.11245 0.0
C1049 C 0.57032 0.33868 0.07517 0.0
C1050 C 0.54185 0.30767 0.10302 0.0
C1051 C 0.56934 0.3243 0.17144 0.0
C1052 C 0.58679 0.31127 0.19385 0.0
C1053 C 0.59238 0.31306 0.24828 0.0
C1054 C 0.58017 0.32877 0.28044 0.0
C1055 C 0.56298 0.34334 0.25823 0.0
C1056 C 0.55744 0.34077 0.20273 0.0
H1057 H 0.93622 0.28395 0.48231 0.0
H1058 H 0.87643 0.25459 0.4034 0.0
H1059 H 0.89006 0.26996 0.31591 0.0
H1060 H 0.93352 0.33747 0.40661 0.0
H1061 H 0.96433 0.3412 0.40502 0.0
H1062 H 0.95101 0.32598 0.46031 0.0
H1063 H 0.97722 0.29082 0.4415 0.0
H1064 H 0.99046 0.30586 0.38583 0.0
H1065 H 0.97743 0.27807 0.37513 0.0
H1066 H 0.91172 0.28727 0.23529 0.0
H1067 H 0.93621 0.30888 0.17161 0.0
H1068 H 0.97727 0.33364 0.30586 0.0
C1069 C 0.92588 0.28081 0.44674 0.0
C1070 C 0.90552 0.26734 0.4499 0.0
C1071 C 0.89258 0.26389 0.40206 0.0
C1072 C 0.90007 0.27282 0.35211 0.0
C1073 C 0.92023 0.28589 0.3505 0.0
C1074 C 0.93267 0.29033 0.39685 0.0
C1075 C 0.95277 0.30634 0.38488 0.0
C1076 C 0.95025 0.3291 0.41605 0.0
C1077 C 0.97583 0.29456 0.3976 0.0
C1078 C 0.94987 0.31 0.32447 0.0
C1079 C 0.93126 0.29772 0.30523 0.0
C1080 C 0.92599 0.29739 0.25027 0.0
C1081 C 0.93991 0.31006 0.21427 0.0
C1082 C 0.95862 0.32357 0.23309 0.0
C1083 C 0.96343 0.32343 0.28932 0.0
H1084 H 0.09016 0.39675 0.34598 0.0
H1085 H 0.1221 0.35776 0.21664 0.0
H1086 H 0.15653 0.35297 0.27124 0.0
H1087 H 0.14646 0.41788 0.41707 0.0
H1088 H 0.13329 0.41235 0.48179 0.0
H1089 H 0.11602 0.42252 0.42621 0.0
H1090 H 0.08872 0.3876 0.43864 0.0
H1091 H 0.10591 0.37724 0.49335 0.0
H1092 H 0.10048 0.35887 0.43612 0.0
H1093 H 0.18154 0.34196 0.34444 0.0
H1094 H 0.19234 0.32289 0.4289 0.0
H1095 H 0.14369 0.36531 0.51676 0.0
C1096 C 0.10482 0.3881 0.32818 0.0
C1097 C 0.10342 0.37823 0.27615 0.0
C1098 C 0.12275 0.36648 0.255 0.0
C1099 C 0.14258 0.36355 0.2862 0.0
C1100 C 0.14274 0.37208 0.33882 0.0
C1101 C 0.12429 0.38421 0.35974 0.0
C1102 C 0.12583 0.38624 0.42066 0.0
C1103 C 0.1307 0.41123 0.43741 0.0
C1104 C 0.10396 0.37691 0.44874 0.0
C1105 C 0.14649 0.3711 0.43115 0.0
C1106 C 0.15677 0.36426 0.38329 0.0
C1107 C 0.17404 0.34768 0.38215 0.0
C1108 C 0.18 0.33685 0.43049 0.0
C1109 C 0.16835 0.34228 0.47911 0.0
C1110 C 0.15244 0.36053 0.47991 0.0
H1111 H 0.40503 0.32531 0.02857 0.0
H1112 H 0.37186 0.38481 0.95769 0.0
H1113 H 0.37943 0.40707 0.0417 0.0
H1114 H 0.38404 0.33387 0.16475 0.0
H1115 H 0.4104 0.32378 0.19486 0.0
H1116 H 0.40135 0.31269 0.13033 0.0
H1117 H 0.44024 0.32489 0.08707 0.0
H1118 H 0.44963 0.33527 0.1517 0.0
H1119 H 0.44992 0.35424 0.09402 0.0
H1120 H 0.39404 0.42305 0.13043 0.0
H1121 H 0.41596 0.4321 0.21342 0.0
H1122 H 0.43744 0.36083 0.22447 0.0
C1123 C 0.39972 0.34315 0.0304 0.0
C1124 C 0.38865 0.35379 0.98666 0.0
C1125 C 0.38094 0.37677 0.99087 0.0
C1126 C 0.3849 0.38932 0.03841 0.0
C1127 C 0.39594 0.3782 0.08115 0.0
C1128 C 0.40319 0.35561 0.07734 0.0
C1129 C 0.41547 0.34767 0.12746 0.0
C1130 C 0.402 0.32836 0.15603 0.0
C1131 C 0.44028 0.3401 0.11427 0.0
C1132 C 0.41489 0.36964 0.15966 0.0
C1133 C 0.40326 0.38702 0.13284 0.0
C1134 C 0.40269 0.40948 0.15243 0.0
C1135 C 0.41508 0.41445 0.1995 0.0
C1136 C 0.42771 0.39697 0.22606 0.0
C1137 C 0.42698 0.37424 0.20673 0.0
H1138 H 0.41512 0.69769 0.99571 0.0
H1139 H 0.36222 0.64798 0.03672 0.0
H1140 H 0.37171 0.62574 0.9542 0.0
H1141 H 0.40425 0.69976 0.8604 0.0
H1142 H 0.43376 0.70246 0.83868 0.0
H1143 H 0.42531 0.7127 0.90436 0.0
H1144 H 0.45594 0.68687 0.95035 0.0
H1145 H 0.46515 0.67722 0.88467 0.0
H1146 H 0.45672 0.65651 0.93527 0.0
H1147 H 0.38517 0.61096 0.86377 0.0
H1148 H 0.40386 0.60289 0.77574 0.0
H1149 H 0.44723 0.66308 0.79619 0.0
C1150 C 0.40641 0.68146 0.989 0.0
C1151 C 0.38862 0.67391 0.02337 0.0
C1152 C 0.37639 0.65351 0.01129 0.0
C1153 C 0.38154 0.64094 0.96451 0.0
C1154 C 0.39879 0.64927 0.93051 0.0
C1155 C 0.41126 0.66887 0.94266 0.0
C1156 C 0.42791 0.67509 0.89813 0.0
C1157 C 0.42246 0.69891 0.874 0.0
C1158 C 0.45291 0.67383 0.9183 0.0
C1159 C 0.42266 0.65609 0.85859 0.0
C1160 C 0.40585 0.64134 0.87784 0.0
C1161 C 0.39835 0.62239 0.84826 0.0
C1162 C 0.40887 0.61805 0.79832 0.0
C1163 C 0.42641 0.63278 0.77866 0.0
C1164 C 0.43318 0.6521 0.80902 0.0
H1165 H 0.11207 0.59916 0.67857 0.0
H1166 H 0.14549 0.63025 0.81681 0.0
H1167 H 0.17174 0.65133 0.75563 0.0
H1168 H 0.16519 0.59763 0.58589 0.0
H1169 H 0.14754 0.60463 0.52838 0.0
H1170 H 0.13592 0.58739 0.5826 0.0
H1171 H 0.10222 0.61628 0.59265 0.0
H1172 H 0.11385 0.6338 0.53948 0.0
H1173 H 0.10847 0.64624 0.60496 0.0
H1174 H 0.18772 0.67484 0.68169 0.0
H1175 H 0.19256 0.69901 0.60115 0.0
H1176 H 0.15002 0.65168 0.50925 0.0
C1177 C 0.12562 0.60961 0.69593 0.0
C1178 C 0.12679 0.6133 0.7521 0.0
C1179 C 0.14422 0.62752 0.77368 0.0
C1180 C 0.15934 0.63931 0.73928 0.0
C1181 C 0.15691 0.63631 0.6837 0.0
C1182 C 0.14068 0.62153 0.66211 0.0
C1183 C 0.13906 0.62407 0.6014 0.0
C1184 C 0.14744 0.60212 0.57289 0.0
C1185 C 0.11445 0.63048 0.58365 0.0
C1186 C 0.15565 0.64377 0.5927 0.0
C1187 C 0.16621 0.65015 0.64042 0.0
C1188 C 0.18004 0.66964 0.64382 0.0
C1189 C 0.1826 0.68331 0.59772 0.0
C1190 C 0.17115 0.67761 0.54898 0.0
C1191 C 0.15839 0.65701 0.54605 0.0
H1192 H 0.42111 0.15538 0.79841 0.0
H1193 H 0.35349 0.16332 0.72797 0.0
H1194 H 0.3631 0.13438 0.6588 0.0
H1195 H 0.45096 0.1562 0.69175 0.0
H1196 H 0.47214 0.13441 0.70645 0.0
H1197 H 0.45768 0.14871 0.76068 0.0
H1198 H 0.44367 0.10965 0.79903 0.0
H1199 H 0.45854 0.09499 0.74507 0.0
H1200 H 0.42828 0.08989 0.75611 0.0
H1201 H 0.38425 0.11799 0.58215 0.0
H1202 H 0.41347 0.10969 0.51206 0.0
H1203 H 0.46637 0.10786 0.63483 0.0
C1204 C 0.40799 0.14992 0.77013 0.0
C1205 C 0.3867 0.16135 0.76801 0.0
C1206 C 0.36984 0.15442 0.73035 0.0
C1207 C 0.37516 0.13799 0.69095 0.0
C1208 C 0.39707 0.12819 0.6913 0.0
C1209 C 0.41294 0.13318 0.73138 0.0
C1210 C 0.43631 0.12315 0.71838 0.0
C1211 C 0.45535 0.14173 0.71931 0.0
C1212 C 0.44202 0.10323 0.75693 0.0
C1213 C 0.43187 0.11438 0.66192 0.0
C1214 C 0.40901 0.11695 0.64732 0.0
C1215 C 0.4019 0.11472 0.59372 0.0
C1216 C 0.41857 0.11024 0.5541 0.0
C1217 C 0.44192 0.10774 0.56865 0.0
C1218 C 0.44843 0.10888 0.62328 0.0
H1219 H 0.08643 0.17904 0.01823 0.0
H1220 H 0.02795 0.22486 1.00474 0.0
H1221 H 0.04431 0.24131 0.92156 0.0
H1222 H 0.1305 0.22009 0.94049 0.0
H1223 H 0.14352 0.19485 0.91121 0.0
H1224 H 0.13277 0.19399 0.97958 0.0
H1225 H 0.10814 0.15851 0.95386 0.0
H1226 H 0.11768 0.15985 0.88512 0.0
H1227 H 0.08732 0.16098 0.90017 0.0
H1228 H 0.05785 0.24142 0.82818 0.0
H1229 H 0.07328 0.23249 0.73824 0.0
H1230 H 0.12363 0.18665 0.81045 0.0
C1231 C 0.07788 0.19351 0.99931 0.0
C1232 C 0.05595 0.20056 0.01697 0.0
C1233 C 0.04487 0.21932 0.9917 0.0
C1234 C 0.05403 0.22873 0.9443 0.0
C1235 C 0.07443 0.21948 0.92408 0.0
C1236 C 0.08685 0.20297 0.95201 0.0
C1237 C 0.10599 0.19304 0.91763 0.0
C1238 C 0.1296 0.20098 0.93846 0.0
C1239 C 0.10465 0.16655 0.914 0.0
C1240 C 0.10046 0.20424 0.86427 0.0
C1241 C 0.08264 0.21988 0.86913 0.0
C1242 C 0.07239 0.2299 0.82416 0.0
C1243 C 0.08101 0.22434 0.77312 0.0
C1244 C 0.09971 0.20883 0.76747 0.0
C1245 C 0.10949 0.19872 0.81372 0.0
H1246 H 0.1245 0.85854 0.94363 0.0
H1247 H 0.11692 0.92164 0.03384 0.0
H1248 H 0.13614 0.90395 0.11162 0.0
H1249 H 0.10545 0.82556 0.02407 0.0
H1250 H 0.12395 0.80069 0.02058 0.0
H1251 H 0.12242 0.81987 0.96436 0.0
H1252 H 0.16629 0.82695 0.96654 0.0
H1253 H 0.16841 0.80672 0.02164 0.0
H1254 H 0.18002 0.83534 0.02871 0.0
H1255 H 0.13677 0.87656 0.18559 0.0
H1256 H 0.12939 0.84343 0.24559 0.0
H1257 H 0.13761 0.79706 0.1099 0.0
C1258 C 0.12874 0.86898 0.97843 0.0
C1259 C 0.11924 0.89111 0.98362 0.0
C1260 C 0.12434 0.90464 0.02932 0.0
C1261 C 0.13515 0.89461 0.07389 0.0
C1262 C 0.14123 0.8714 0.0709 0.0
C1263 C 0.13939 0.859 0.02316 0.0
C1264 C 0.14231 0.83343 0.03302 0.0
C1265 C 0.12233 0.81911 0.00917 0.0
C1266 C 0.16565 0.82513 0.01121 0.0
C1267 C 0.14206 0.83315 0.09393 0.0
C1268 C 0.1423 0.85518 0.11517 0.0
C1269 C 0.13774 0.85923 0.16972 0.0
C1270 C 0.13307 0.84037 0.2033 0.0
C1271 C 0.13292 0.8178 0.18202 0.0
C1272 C 0.13796 0.8142 0.12709 0.0
H1273 H 0.41081 0.87341 0.2137 0.0
H1274 H 0.34953 0.859 0.30668 0.0
H1275 H 0.36568 0.87994 0.38404 0.0
H1276 H 0.44668 0.85875 0.29347 0.0
H1277 H 0.46897 0.88024 0.28751 0.0
H1278 H 0.44953 0.87583 0.23283 0.0
H1279 H 0.4373 0.91858 0.2344 0.0
H1280 H 0.45749 0.92356 0.28842 0.0
H1281 H 0.42771 0.93153 0.29663 0.0
H1282 H 0.39335 0.8845 0.45681 0.0
H1283 H 0.42765 0.88025 0.51461 0.0
H1284 H 0.47147 0.89371 0.37628 0.0
C1285 C 0.40029 0.87636 0.24917 0.0
C1286 C 0.37921 0.86479 0.25499 0.0
C1287 C 0.36567 0.86813 0.30165 0.0
C1288 C 0.3748 0.87997 0.34588 0.0
C1289 C 0.39709 0.88879 0.34169 0.0
C1290 C 0.40928 0.88821 0.29338 0.0
C1291 C 0.43433 0.89438 0.30181 0.0
C1292 C 0.45079 0.87619 0.27757 0.0
C1293 C 0.4395 0.91845 0.27898 0.0
C1294 C 0.43507 0.89456 0.36273 0.0
C1295 C 0.41334 0.89226 0.38515 0.0
C1296 C 0.41031 0.88743 0.44 0.0
C1297 C 0.42988 0.88464 0.47239 0.0
C1298 C 0.45211 0.8866 0.44962 0.0
C1299 C 0.45461 0.89242 0.39473 0.0
H1300 H 0.54937 0.8525 0.4175 0.0
H1301 H 0.5682 0.81161 0.55702 0.0
H1302 H 0.58864 0.78412 0.49757 0.0
H1303 H 0.54286 0.80532 0.31987 0.0
H1304 H 0.55608 0.82114 0.26534 0.0
H1305 H 0.54081 0.83628 0.31784 0.0
H1306 H 0.57705 0.86093 0.33683 0.0
H1307 H 0.59242 0.84588 0.28444 0.0
H1308 H 0.60392 0.84683 0.35198 0.0
H1309 H 0.60728 0.76113 0.42318 0.0
H1310 H 0.62648 0.74664 0.34107 0.0
H1311 H 0.59909 0.80413 0.24962 0.0
C1312 C 0.55746 0.8375 0.43521 0.0
C1313 C 0.55683 0.83387 0.49178 0.0
C1314 C 0.56826 0.81452 0.51378 0.0
C1315 C 0.57987 0.7988 0.48029 0.0
C1316 C 0.58036 0.80289 0.42476 0.0
C1317 C 0.56974 0.82194 0.40234 0.0
C1318 C 0.57466 0.82333 0.34201 0.0
C1319 C 0.55227 0.8214 0.30934 0.0
C1320 C 0.58779 0.84556 0.32801 0.0
C1321 C 0.58974 0.80218 0.33412 0.0
C1322 C 0.5924 0.79043 0.38227 0.0
C1323 C 0.60535 0.77026 0.38533 0.0
C1324 C 0.61616 0.76208 0.33831 0.0
C1325 C 0.61442 0.77416 0.28872 0.0
C1326 C 0.60085 0.79447 0.28682 0.0
H1327 H 0.92541 0.78264 0.18218 0.0
H1328 H 0.96529 0.80247 0.3224 0.0
H1329 H 0.99164 0.82488 0.26368 0.0
H1330 H 0.97226 0.77873 0.08519 0.0
H1331 H 0.95614 0.79153 0.03076 0.0
H1332 H 0.94139 0.77569 0.08302 0.0
H1333 H 0.91563 0.81109 0.1025 0.0
H1334 H 0.93026 0.827 0.05022 0.0
H1335 H 0.92888 0.83839 0.11785 0.0
H1336 H 0.01457 0.8442 0.18863 0.0
H1337 H 0.02913 0.86319 0.10584 0.0
H1338 H 0.97208 0.83461 0.01512 0.0
C1339 C 0.93983 0.79155 0.20034 0.0
C1340 C 0.94351 0.79053 0.2569 0.0
C1341 C 0.96222 0.8029 0.27927 0.0
C1342 C 0.97732 0.81561 0.24614 0.0
C1343 C 0.97326 0.8163 0.19059 0.0
C1344 C 0.9547 0.80495 0.16793 0.0
C1345 C 0.95327 0.80991 0.10764 0.0
C1346 C 0.95593 0.78764 0.07472 0.0
C1347 C 0.93067 0.82234 0.09375 0.0
C1348 C 0.97393 0.8257 0.09988 0.0
C1349 C 0.98548 0.82879 0.14809 0.0
C1350 C 0.00551 0.84205 0.15082 0.0
C1351 C 0.01374 0.8527 0.10345 0.0
C1352 C 1.00175 0.85056 0.05391 0.0
C1353 C 0.98158 0.83676 0.05238 0.0
H1354 H 0.93276 0.22315 0.778 0.0
H1355 H 0.87916 0.17206 0.75477 0.0
H1356 H 0.8919 0.15175 0.83701 0.0
H1357 H 0.97611 0.18171 0.82389 0.0
H1358 H 0.98886 0.20136 0.87158 0.0
H1359 H 0.9752 0.2123 0.81156 0.0
H1360 H 0.94894 0.23803 0.87071 0.0
H1361 H 0.96236 0.22694 0.93089 0.0
H1362 H 0.93158 0.225 0.92291 0.0
H1363 H 0.9086 0.13835 0.92543 0.0
H1364 H 0.93221 0.12889 1.00523 0.0
H1365 H 0.9778 0.18597 0.96777 0.0
C1366 C 0.92383 0.2076 0.7901 0.0
C1367 C 0.90485 0.19926 0.75981 0.0
C1368 C 0.89377 0.17875 0.7769 0.0
C1369 C 0.90079 0.16716 0.8239 0.0
C1370 C 0.9193 0.17594 0.85318 0.0
C1371 C 0.93106 0.19538 0.83633 0.0
C1372 C 0.95117 0.20039 0.87395 0.0
C1373 C 0.9742 0.19884 0.84342 0.0
C1374 C 0.94833 0.22399 0.90122 0.0
C1375 C 0.94868 0.1809 0.91473 0.0
C1376 C 0.92989 0.16729 0.90244 0.0
C1377 C 0.9235 0.14875 0.93508 0.0
C1378 C 0.93695 0.1436 0.98066 0.0
C1379 C 0.95692 0.15659 0.99293 0.0
C1380 C 0.9627 0.17562 0.95947 0.0
H1381 H 0.55368 0.18386 0.52364 0.0
H1382 H 0.53339 0.11729 0.58711 0.0
H1383 H 0.55263 0.12627 0.67359 0.0
H1384 H 0.60856 0.18963 0.58801 0.0
H1385 H 0.60508 0.2197 0.60416 0.0
H1386 H 0.5905 0.20765 0.54661 0.0
H1387 H 0.55205 0.22261 0.58464 0.0
H1388 H 0.56574 0.23373 0.64443 0.0
H1389 H 0.54252 0.21344 0.6506 0.0
H1390 H 0.57636 0.14168 0.75198 0.0
H1391 H 0.59867 0.164 0.81919 0.0
H1392 H 0.60024 0.22215 0.70902 0.0
C1393 C 0.55339 0.17121 0.55578 0.0
C1394 C 0.54224 0.14973 0.54842 0.0
C1395 C 0.54183 0.13381 0.59181 0.0
C1396 C 0.5528 0.13873 0.64106 0.0
C1397 C 0.5637 0.15997 0.64717 0.0
C1398 C 0.56366 0.17617 0.60611 0.0
C1399 C 0.57529 0.19826 0.62464 0.0
C1400 C 0.5961 0.20415 0.58871 0.0
C1401 C 0.55787 0.21819 0.6261 0.0
C1402 C 0.58275 0.19158 0.68143 0.0
C1403 C 0.57595 0.16939 0.69362 0.0
C1404 C 0.58154 0.15918 0.74303 0.0
C1405 C 0.5943 0.17197 0.78099 0.0
C1406 C 0.60115 0.19491 0.7699 0.0
C1407 C 0.59513 0.20474 0.71927 0.0
H1408 H 0.92675 0.6364 0.98443 0.0
H1409 H 0.95621 0.57574 0.05813 0.0
H1410 H 0.94258 0.58857 0.14728 0.0
H1411 H 0.94391 0.67332 0.06494 0.0
H1412 H 0.91937 0.69209 0.07176 0.0
H1413 H 0.92239 0.67471 0.01255 0.0
H1414 H 0.88265 0.65583 0.02859 0.0
H1415 H 0.87882 0.67393 0.08707 0.0
H1416 H 0.87605 0.64313 0.09326 0.0
H1417 H 0.94118 0.61468 0.22547 0.0
H1418 H 0.9417 0.64793 0.28824 0.0
H1419 H 0.90928 0.69024 0.16618 0.0
C1420 C 0.92867 0.62511 0.01897 0.0
C1421 C 0.94227 0.6052 0.01508 0.0
C1422 C 0.94538 0.59089 0.06062 0.0
C1423 C 0.93781 0.59814 0.11147 0.0
C1424 C 0.92645 0.6192 0.1152 0.0
C1425 C 0.92072 0.63194 0.06974 0.0
C1426 C 0.91161 0.65545 0.08491 0.0
C1427 C 0.92516 0.675 0.05691 0.0
C1428 C 0.88574 0.65717 0.07276 0.0
C1429 C 0.91593 0.655 0.14498 0.0
C1430 C 0.92418 0.63388 0.16201 0.0
C1431 C 0.9336 0.6309 0.21345 0.0
C1432 C 0.93424 0.64988 0.24843 0.0
C1433 C 0.92529 0.67128 0.23166 0.0
C1434 C 0.91566 0.67372 0.17995 0.0
H1435 H 0.67468 0.69645 0.3155 0.0
H1436 H 0.65679 0.63497 0.22715 0.0
H1437 H 0.64261 0.61701 0.31147 0.0
H1438 H 0.68186 0.66838 0.46019 0.0
H1439 H 0.66771 0.69313 0.48894 0.0
H1440 H 0.68647 0.69652 0.43132 0.0
H1441 H 0.65353 0.7168 0.38019 0.0
H1442 H 0.63447 0.71304 0.43623 0.0
H1443 H 0.6265 0.70199 0.37084 0.0
H1444 H 0.6207 0.6106 0.39415 0.0
H1445 H 0.59074 0.61686 0.46246 0.0
H1446 H 0.61789 0.68507 0.49432 0.0
C1447 C 0.66919 0.67861 0.31521 0.0
C1448 C 0.66734 0.66665 0.26607 0.0
C1449 C 0.65893 0.64393 0.26516 0.0
C1450 C 0.65089 0.63369 0.31293 0.0
C1451 C 0.6511 0.64668 0.36051 0.0
C1452 C 0.66023 0.66873 0.36203 0.0
C1453 C 0.65288 0.68151 0.41253 0.0
C1454 C 0.67346 0.68508 0.4505 0.0
C1455 C 0.64113 0.70465 0.39907 0.0
C1456 C 0.6361 0.66433 0.43596 0.0
C1457 C 0.63645 0.64383 0.40735 0.0
C1458 C 0.62068 0.62632 0.41759 0.0
C1459 C 0.60359 0.63014 0.45632 0.0
C1460 C 0.60194 0.65162 0.48317 0.0
C1461 C 0.6189 0.66853 0.47433 0.0
H1462 H 0.5715 0.31827 0.51935 0.0
H1463 H 0.58962 0.38809 0.56593 0.0
H1464 H 0.59234 0.37574 0.66093 0.0
H1465 H 0.53533 0.3064 0.62225 0.0
H1466 H 0.54388 0.27703 0.63493 0.0
H1467 H 0.5471 0.28922 0.56846 0.0
H1468 H 0.59035 0.28061 0.56575 0.0
H1469 H 0.58833 0.26693 0.63081 0.0
H1470 H 0.60859 0.28992 0.62037 0.0
H1471 H 0.59027 0.35652 0.75071 0.0
H1472 H 0.59149 0.32942 0.8278 0.0
H1473 H 0.57114 0.27361 0.72228 0.0
C1474 C 0.57672 0.33086 0.54919 0.0
C1475 C 0.57993 0.35417 0.5356 0.0
C1476 C 0.58692 0.37011 0.5757 0.0
C1477 C 0.58825 0.36335 0.62978 0.0
C1478 C 0.58276 0.34066 0.6424 0.0
C1479 C 0.5779 0.3245 0.60315 0.0
C1480 C 0.57263 0.30124 0.62721 0.0
C1481 C 0.54828 0.29299 0.61235 0.0
C1482 C 0.59105 0.28364 0.61003 0.0
C1483 C 0.57442 0.30707 0.68639 0.0
C1484 C 0.58045 0.32986 0.69432 0.0
C1485 C 0.58526 0.33872 0.74528 0.0
C1486 C 0.58553 0.3234 0.78884 0.0
C1487 C 0.58065 0.29984 0.7806 0.0
C1488 C 0.57383 0.29182 0.7296 0.0
H1489 H 0.9239 0.36319 0.97915 0.0
H1490 H 0.96505 0.40295 0.86648 0.0
H1491 H 0.93941 0.39141 0.79242 0.0
H1492 H 0.92019 0.31755 0.9102 0.0
H1493 H 0.89092 0.30909 0.92446 0.0
H1494 H 0.90597 0.32713 0.97101 0.0
H1495 H 0.874 0.35803 0.96437 0.0
H1496 H 0.85845 0.3398 0.91808 0.0
H1497 H 0.86552 0.36894 0.89919 0.0
H1498 H 0.91948 0.3659 0.72983 0.0
H1499 H 0.90439 0.33119 0.68491 0.0
H1500 H 0.87473 0.30841 0.83665 0.0
C1501 C 0.9268 0.37029 0.93926 0.0
C1502 C 0.94648 0.38364 0.92817 0.0
C1503 C 0.95 0.39264 0.87573 0.0
C1504 C 0.93543 0.38627 0.83341 0.0
C1505 C 0.91718 0.37141 0.84468 0.0
C1506 C 0.91237 0.36407 0.89677 0.0
C1507 C 0.89469 0.34496 0.89715 0.0
C1508 C 0.9035 0.32344 0.9274 0.0
C1509 C 0.8718 0.35345 0.9211 0.0
C1510 C 0.89253 0.34077 0.83719 0.0
C1511 C 0.90495 0.35672 0.80746 0.0
C1512 C 0.90893 0.35387 0.75229 0.0
C1513 C 0.90053 0.33398 0.72723 0.0
C1514 C 0.88843 0.31724 0.75754 0.0
C1515 C 0.88359 0.3212 0.81247 0.0
H1516 H 0.09346 0.30972 0.73999 0.0
H1517 H 0.12899 0.25546 0.82713 0.0
H1518 H 0.11007 0.26743 0.91132 0.0
H1519 H 0.09509 0.35252 0.84553 0.0
H1520 H 0.06649 0.36327 0.83312 0.0
H1521 H 0.08286 0.35069 0.7788 0.0
H1522 H 0.04978 0.32184 0.76069 0.0
H1523 H 0.03331 0.33429 0.81507 0.0
H1524 H 0.03942 0.30387 0.81495 0.0
H1525 H 0.08928 0.2862 0.98752 0.0
H1526 H 0.06569 0.30929 0.05029 0.0
H1527 H 0.04066 0.35011 0.91586 0.0
C1528 C 0.09731 0.30047 0.77687 0.0
C1529 C 0.11294 0.2817 0.77663 0.0
C1530 C 0.11722 0.2699 0.82585 0.0
C1531 C 0.10654 0.27659 0.87416 0.0
C1532 C 0.09127 0.29503 0.87311 0.0
C1533 C 0.08641 0.30672 0.82581 0.0
C1534 C 0.06883 0.32567 0.83641 0.0
C1535 C 0.07893 0.34945 0.82265 0.0
C1536 C 0.04651 0.32114 0.8049 0.0
C1537 C 0.065 0.32301 0.89702 0.0
C1538 C 0.07827 0.30526 0.91719 0.0
C1539 C 0.07864 0.30001 0.97213 0.0
C1540 C 0.06521 0.31327 0.00756 0.0
C1541 C 0.05116 0.3314 0.98815 0.0
C1542 C 0.05095 0.33616 0.93188 0.0
H1543 H 0.44852 0.31052 0.75352 0.0
H1544 H 0.42057 0.25411 0.65929 0.0
H1545 H 0.43731 0.27101 0.57661 0.0
H1546 H 0.44045 0.35521 0.65736 0.0
H1547 H 0.46734 0.36963 0.67068 0.0
H1548 H 0.45363 0.35294 0.72301 0.0
H1549 H 0.49074 0.3295 0.73431 0.0
H1550 H 0.50488 0.34496 0.68045 0.0
H1551 H 0.5025 0.31402 0.67776 0.0
H1552 H 0.45305 0.29626 0.50261 0.0
H1553 H 0.47157 0.32518 0.44357 0.0
H1554 H 0.49356 0.36352 0.58456 0.0
C1555 C 0.44618 0.30158 0.71556 0.0
C1556 C 0.43312 0.28089 0.71317 0.0
C1557 C 0.43056 0.26979 0.66256 0.0
C1558 C 0.43993 0.27936 0.61517 0.0
C1559 C 0.45234 0.29988 0.61876 0.0
C1560 C 0.45595 0.31063 0.66778 0.0
C1561 C 0.47042 0.33232 0.66018 0.0
C1562 C 0.45716 0.35379 0.67892 0.0
C1563 C 0.49352 0.33008 0.68991 0.0
C1564 C 0.47381 0.33239 0.59911 0.0
C1565 C 0.46295 0.31361 0.57613 0.0
C1566 C 0.462 0.31076 0.52025 0.0
C1567 C 0.47247 0.32737 0.48697 0.0
C1568 C 0.48425 0.34648 0.50927 0.0
C1569 C 0.48505 0.34887 0.5663 0.0
H1570 H 0.48901 0.66539 0.41977 0.0
H1571 H 0.47278 0.70538 0.56249 0.0
H1572 H 0.45136 0.73329 0.50619 0.0
H1573 H 0.49418 0.71313 0.32352 0.0
H1574 H 0.47998 0.69789 0.26962 0.0
H1575 H 0.49586 0.68217 0.32006 0.0
H1576 H 0.45965 0.65775 0.34133 0.0
H1577 H 0.44367 0.67342 0.29104 0.0
H1578 H 0.43319 0.672 0.35954 0.0
H1579 H 0.43189 0.75712 0.4344 0.0
H1580 H 0.41234 0.77307 0.35429 0.0
H1581 H 0.43748 0.71595 0.25799 0.0
C1582 C 0.48125 0.68027 0.43884 0.0
C1583 C 0.48295 0.68352 0.49546 0.0
C1584 C 0.47193 0.70274 0.51922 0.0
C1585 C 0.45974 0.71869 0.4875 0.0
C1586 C 0.45822 0.71498 0.43194 0.0
C1587 C 0.46839 0.69608 0.40779 0.0
C1588 C 0.46254 0.69527 0.34785 0.0
C1589 C 0.48445 0.69723 0.31322 0.0
C1590 C 0.44896 0.6733 0.33415 0.0
C1591 C 0.44756 0.71664 0.34214 0.0
C1592 C 0.44566 0.72794 0.39105 0.0
C1593 C 0.43317 0.74833 0.39599 0.0
C1594 C 0.42216 0.75733 0.35007 0.0
C1595 C 0.42321 0.74581 0.29965 0.0
C1596 C 0.43618 0.72514 0.29591 0.0
H1597 H 0.08192 0.7292 0.21601 0.0
H1598 H 0.13293 0.67966 0.26943 0.0
H1599 H 0.1202 0.65272 0.19831 0.0
H1600 H 0.03711 0.68588 0.18526 0.0
H1601 H 0.02646 0.70163 0.12774 0.0
H1602 H 0.03918 0.71685 0.18364 0.0
H1603 H 0.06801 0.73634 0.11814 0.0
H1604 H 0.05555 0.72102 0.06212 0.0
H1605 H 0.08595 0.7187 0.07548 0.0
H1606 H 0.105 0.63298 0.11533 0.0
H1607 H 0.08436 0.61893 0.03476 0.0
H1608 H 0.04003 0.67892 0.03914 0.0
C1609 C 0.0902 0.71254 0.21321 0.0
C1610 C 0.10853 0.7066 0.24849 0.0
C1611 C 0.11881 0.6846 0.24338 0.0
C1612 C 0.11177 0.66922 0.20279 0.0
C1613 C 0.09402 0.67578 0.16811 0.0
C1614 C 0.08296 0.69668 0.17366 0.0
C1615 C 0.06404 0.69923 0.1315 0.0
C1616 C 0.04029 0.701 0.15866 0.0
C1617 C 0.06867 0.72006 0.09463 0.0
C1618 C 0.06652 0.6767 0.10066 0.0
C1619 C 0.08418 0.66363 0.12218 0.0
C1620 C 0.0909 0.64288 0.0988 0.0
C1621 C 0.07915 0.6351 0.05279 0.0
C1622 C 0.0605 0.6477 0.03085 0.0
C1623 C 0.05403 0.66877 0.0554 0.0
loop_
_geom_bond_atom_site_label_1
_geom_bond_atom_site_label_2
_geom_bond_distance
_geom_bond_site_symmetry_2
_ccdc_geom_bond_type
Co0 O3 1.970 . S
Co0 N17 1.989 . S
Co0 O25 1.967 . S
Co0 O32 1.920 . S
Co1 O4 1.966 . S
Co1 N10 2.022 . S
Co1 N18 1.993 . S
Co1 O26 1.941 . S
C2 O3 1.258 . S
C2 O4 1.263 . S
O3 Co0 1.970 . S
O3 C2 1.258 . S
O4 Co1 1.966 . S
O4 C2 1.263 . S
C5 O6 1.235 . S
C5 O32 1.289 . S
O6 C5 1.235 . S
C7 C9 1.400 . S
C7 N10 1.351 . S
C7 C12 1.501 . S
C8 C9 1.387 . S
C8 N11 1.341 . S
C9 C7 1.400 . S
C9 C8 1.387 . S
N10 Co1 2.022 . S
N10 C7 1.351 . S
N10 N11 1.365 . S
N11 C8 1.341 . S
N11 N10 1.365 . S
N11 H31 0.862 . S
C12 C7 1.501 . S
C12 H13 0.961 . S
C12 H14 0.961 . S
C12 H15 0.960 . S
H13 C12 0.961 . S
H14 C12 0.961 . S
H15 C12 0.960 . S
C16 N17 1.342 . S
C16 C20 1.401 . S
C16 C21 1.499 . S
N17 Co0 1.989 . S
N17 C16 1.342 . S
N17 N18 1.388 . S
N18 Co1 1.993 . S
N18 N17 1.388 . S
N18 C19 1.346 . S
C19 N18 1.346 . S
C19 C20 1.396 . S
C19 C29 1.510 . S
C20 C16 1.401 . S
C20 C19 1.396 . S
C21 C16 1.499 . S
C21 H22 0.959 . S
C21 H23 0.960 . S
C21 H24 0.961 . S
H22 C21 0.959 . S
H23 C21 0.960 . S
H24 C21 0.961 . S
O25 Co0 1.967 . S
O25 C33 1.258 . S
O26 Co1 1.941 . S
O26 C33 1.266 . S
H27 C29 0.959 . S
H28 C29 0.961 . S
C29 C19 1.510 . S
C29 H27 0.959 . S
C29 H28 0.961 . S
C29 H30 0.960 . S
H30 C29 0.960 . S
H31 N11 0.862 . S
O32 Co0 1.920 . S
O32 C5 1.289 . S
C33 O25 1.258 . S
C33 O26 1.266 . S
Co34 O37 1.970 . S
Co34 N51 1.989 . S
Co34 O59 1.967 . S
Co34 O66 1.920 . S
Co35 O38 1.966 . S
Co35 N44 2.022 . S
Co35 N52 1.993 . S
Co35 O60 1.941 . S
C36 O37 1.258 . S
C36 O38 1.263 . S
O37 Co34 1.970 . S
O37 C36 1.258 . S
O38 Co35 1.966 . S
O38 C36 1.263 . S
C39 O40 1.235 . S
C39 O66 1.289 . S
O40 C39 1.235 . S
C41 C43 1.400 . S
C41 N44 1.351 . S
C41 C46 1.501 . S
C42 C43 1.387 . S
C42 N45 1.341 . S
C43 C41 1.400 . S
C43 C42 1.387 . S
N44 Co35 2.022 . S
N44 C41 1.351 . S
N44 N45 1.365 . S
N45 C42 1.341 . S
N45 N44 1.365 . S
N45 H65 0.862 . S
C46 C41 1.501 . S
C46 H47 0.961 . S
C46 H48 0.961 . S
C46 H49 0.960 . S
H47 C46 0.961 . S
H48 C46 0.961 . S
H49 C46 0.960 . S
C50 N51 1.342 . S
C50 C54 1.401 . S
C50 C55 1.499 . S
N51 Co34 1.989 . S
N51 C50 1.342 . S
N51 N52 1.388 . S
N52 Co35 1.993 . S
N52 N51 1.388 . S
N52 C53 1.346 . S
C53 N52 1.346 . S
C53 C54 1.396 . S
C53 C63 1.510 . S
C54 C50 1.401 . S
C54 C53 1.396 . S
C55 C50 1.499 . S
C55 H56 0.959 . S
C55 H57 0.960 . S
C55 H58 0.961 . S
H56 C55 0.959 . S
H57 C55 0.960 . S
H58 C55 0.961 . S
O59 Co34 1.967 . S
O59 C67 1.258 . S
O60 Co35 1.941 . S
O60 C67 1.266 . S
H61 C63 0.959 . S
H62 C63 0.961 . S
C63 C53 1.510 . S
C63 H61 0.959 . S
C63 H62 0.961 . S
C63 H64 0.960 . S
H64 C63 0.960 . S
H65 N45 0.862 . S
O66 Co34 1.920 . S
O66 C39 1.289 . S
C67 O59 1.258 . S
C67 O60 1.266 . S
Co68 O71 1.970 . S
Co68 N85 1.989 . S
Co68 O93 1.967 . S
Co68 O100 1.920 . S
Co69 O72 1.966 . S
Co69 N78 2.022 . S
Co69 N86 1.993 1_655 S
Co69 O94 1.941 . S
C70 O71 1.258 1_655 S
C70 O72 1.263 . S
O71 Co68 1.970 . S
O71 C70 1.258 1_455 S
O72 Co69 1.966 . S
O72 C70 1.263 . S
C73 O74 1.235 1_554 S
C73 O100 1.289 1_554 S
O74 C73 1.235 1_556 S
C75 C77 1.400 . S
C75 N78 1.351 . S
C75 C80 1.501 . S
C76 C77 1.387 . S
C76 N79 1.341 . S
C77 C75 1.400 . S
C77 C76 1.387 . S
N78 Co69 2.022 . S
N78 C75 1.351 . S
N78 N79 1.365 . S
N79 C76 1.341 . S
N79 N78 1.365 . S
N79 H99 0.862 . S
C80 C75 1.501 . S
C80 H81 0.961 . S
C80 H82 0.961 . S
C80 H83 0.960 . S
H81 C80 0.961 . S
H82 C80 0.961 . S
H83 C80 0.960 . S
C84 N85 1.342 . S
C84 C88 1.401 . S
C84 C89 1.499 . S
N85 Co68 1.989 . S
N85 C84 1.342 . S
N85 N86 1.388 . S
N86 Co69 1.993 1_455 S
N86 N85 1.388 . S
N86 C87 1.346 . S
C87 N86 1.346 . S
C87 C88 1.396 . S
C87 C97 1.510 . S
C88 C84 1.401 . S
C88 C87 1.396 . S
C89 C84 1.499 . S
C89 H90 0.959 . S
C89 H91 0.960 . S
C89 H92 0.961 . S
H90 C89 0.959 . S
H91 C89 0.960 . S
H92 C89 0.961 . S
O93 Co68 1.967 . S
O93 C101 1.258 . S
O94 Co69 1.941 . S
O94 C101 1.266 1_655 S
H95 C97 0.959 . S
H96 C97 0.961 . S
C97 C87 1.510 . S
C97 H95 0.959 . S
C97 H96 0.961 . S
C97 H98 0.960 . S
H98 C97 0.960 . S
H99 N79 0.862 . S
O100 Co68 1.920 . S
O100 C73 1.289 1_556 S
C101 O93 1.258 . S
C101 O94 1.266 1_455 S
Co102 O105 1.970 . S
Co102 N119 1.989 . S
Co102 O127 1.967 . S
Co102 O134 1.920 . S
Co103 O106 1.966 . S
Co103 N112 2.022 . S
Co103 N120 1.993 . S
Co103 O128 1.941 . S
C104 O105 1.258 . S
C104 O106 1.263 . S
O105 Co102 1.970 . S
O105 C104 1.258 . S
O106 Co103 1.966 . S
O106 C104 1.263 . S
C107 O108 1.235 . S
C107 O134 1.289 . S
O108 C107 1.235 . S
C109 C111 1.400 1_554 S
C109 N112 1.351 . S
C109 C114 1.501 . S
C110 C111 1.387 . S
C110 N113 1.341 . S
C111 C109 1.400 1_556 S
C111 C110 1.387 . S
N112 Co103 2.022 . S
N112 C109 1.351 . S
N112 N113 1.365 1_554 S
N113 C110 1.341 . S
N113 N112 1.365 1_556 S
N113 H133 0.862 . S
C114 C109 1.501 . S
C114 H115 0.961 . S
C114 H116 0.961 . S
C114 H117 0.960 . S
H115 C114 0.961 . S
H116 C114 0.961 . S
H117 C114 0.960 . S
C118 N119 1.342 . S
C118 C122 1.401 . S
C118 C123 1.499 . S
N119 Co102 1.989 . S
N119 C118 1.342 . S
N119 N120 1.388 . S
N120 Co103 1.993 . S
N120 N119 1.388 . S
N120 C121 1.346 . S
C121 N120 1.346 . S
C121 C122 1.396 . S
C121 C131 1.510 1_554 S
C122 C118 1.401 . S
C122 C121 1.396 . S
C123 C118 1.499 . S
C123 H124 0.959 . S
C123 H125 0.960 . S
C123 H126 0.961 . S
H124 C123 0.959 . S
H125 C123 0.960 . S
H126 C123 0.961 . S
O127 Co102 1.967 . S
O127 C135 1.258 . S
O128 Co103 1.941 . S
O128 C135 1.266 . S
H129 C131 0.959 . S
H130 C131 0.961 . S
C131 C121 1.510 1_556 S
C131 H129 0.959 . S
C131 H130 0.961 . S
C131 H132 0.960 . S
H132 C131 0.960 . S
H133 N113 0.862 . S
O134 Co102 1.920 . S
O134 C107 1.289 . S
C135 O127 1.258 . S
C135 O128 1.266 . S
Co136 O139 1.970 . S
Co136 N153 1.989 . S
Co136 O161 1.967 . S
Co136 O168 1.920 . S
Co137 O140 1.966 . S
Co137 N146 2.022 . S
Co137 N154 1.993 . S
Co137 O162 1.941 . S
C138 O139 1.258 . S
C138 O140 1.263 . S
O139 Co136 1.970 . S
O139 C138 1.258 . S
O140 Co137 1.966 . S
O140 C138 1.263 . S
C141 O142 1.235 . S
C141 O168 1.289 . S
O142 C141 1.235 . S
C143 C145 1.400 . S
C143 N146 1.351 . S
C143 C148 1.501 . S
C144 C145 1.387 . S
C144 N147 1.341 . S
C145 C143 1.400 . S
C145 C144 1.387 . S
N146 Co137 2.022 . S
N146 C143 1.351 . S
N146 N147 1.365 . S
N147 C144 1.341 . S
N147 N146 1.365 . S
N147 H167 0.862 . S
C148 C143 1.501 . S
C148 H149 0.961 . S
C148 H150 0.961 . S
C148 H151 0.960 . S
H149 C148 0.961 . S
H150 C148 0.961 . S
H151 C148 0.960 . S
C152 N153 1.342 . S
C152 C156 1.401 . S
C152 C157 1.499 . S
N153 Co136 1.989 . S
N153 C152 1.342 . S
N153 N154 1.388 . S
N154 Co137 1.993 . S
N154 N153 1.388 . S
N154 C155 1.346 . S
C155 N154 1.346 . S
C155 C156 1.396 . S
C155 C165 1.510 . S
C156 C152 1.401 . S
C156 C155 1.396 . S
C157 C152 1.499 . S
C157 H158 0.959 . S
C157 H159 0.960 . S
C157 H160 0.961 . S
H158 C157 0.959 . S
H159 C157 0.960 . S
H160 C157 0.961 . S
O161 Co136 1.967 . S
O161 C169 1.258 . S
O162 Co137 1.941 . S
O162 C169 1.266 . S
H163 C165 0.959 . S
H164 C165 0.961 . S
C165 C155 1.510 . S
C165 H163 0.959 . S
C165 H164 0.961 . S
C165 H166 0.960 . S
H166 C165 0.960 . S
H167 N147 0.862 . S
O168 Co136 1.920 . S
O168 C141 1.289 . S
C169 O161 1.258 . S
C169 O162 1.266 . S
Co170 O173 1.970 . S
Co170 N187 1.989 . S
Co170 O195 1.967 . S
Co170 O202 1.920 . S
Co171 O174 1.966 . S
Co171 N180 2.022 . S
Co171 N188 1.993 . S
Co171 O196 1.941 . S
C172 O173 1.258 . S
C172 O174 1.263 . S
O173 Co170 1.970 . S
O173 C172 1.258 . S
O174 Co171 1.966 . S
O174 C172 1.263 . S
C175 O176 1.235 . S
C175 O202 1.289 . S
O176 C175 1.235 . S
C177 C179 1.400 1_556 S
C177 N180 1.351 . S
C177 C182 1.501 . S
C178 C179 1.387 . S
C178 N181 1.341 . S
C179 C177 1.400 1_554 S
C179 C178 1.387 . S
N180 Co171 2.022 . S
N180 C177 1.351 . S
N180 N181 1.365 1_556 S
N181 C178 1.341 . S
N181 N180 1.365 1_554 S
N181 H201 0.862 . S
C182 C177 1.501 . S
C182 H183 0.961 . S
C182 H184 0.961 . S
C182 H185 0.960 . S
H183 C182 0.961 . S
H184 C182 0.961 . S
H185 C182 0.960 . S
C186 N187 1.342 . S
C186 C190 1.401 . S
C186 C191 1.499 . S
N187 Co170 1.989 . S
N187 C186 1.342 . S
N187 N188 1.388 . S
N188 Co171 1.993 . S
N188 N187 1.388 . S
N188 C189 1.346 . S
C189 N188 1.346 . S
C189 C190 1.396 . S
C189 C199 1.510 1_556 S
C190 C186 1.401 . S
C190 C189 1.396 . S
C191 C186 1.499 . S
C191 H192 0.959 . S
C191 H193 0.960 . S
C191 H194 0.961 . S
H192 C191 0.959 . S
H193 C191 0.960 . S
H194 C191 0.961 . S
O195 Co170 1.967 . S
O195 C203 1.258 . S
O196 Co171 1.941 . S
O196 C203 1.266 . S
H197 C199 0.959 . S
H198 C199 0.961 . S
C199 C189 1.510 1_554 S
C199 H197 0.959 . S
C199 H198 0.961 . S
C199 H200 0.960 . S
H200 C199 0.960 . S
H201 N181 0.862 . S
O202 Co170 1.920 . S
O202 C175 1.289 . S
C203 O195 1.258 . S
C203 O196 1.266 . S
Co204 O207 1.970 . S
Co204 N221 1.989 . S
Co204 O229 1.967 . S
Co204 O236 1.920 . S
Co205 O208 1.966 . S
Co205 N214 2.022 . S
Co205 N222 1.993 1_655 S
Co205 O230 1.941 . S
C206 O207 1.258 1_655 S
C206 O208 1.263 . S
O207 Co204 1.970 . S
O207 C206 1.258 1_455 S
O208 Co205 1.966 . S
O208 C206 1.263 . S
C209 O210 1.235 1_556 S
C209 O236 1.289 1_556 S
O210 C209 1.235 1_554 S
C211 C213 1.400 . S
C211 N214 1.351 . S
C211 C216 1.501 . S
C212 C213 1.387 . S
C212 N215 1.341 . S
C213 C211 1.400 . S
C213 C212 1.387 . S
N214 Co205 2.022 . S
N214 C211 1.351 . S
N214 N215 1.365 . S
N215 C212 1.341 . S
N215 N214 1.365 . S
N215 H235 0.862 . S
C216 C211 1.501 . S
C216 H217 0.961 . S
C216 H218 0.961 . S
C216 H219 0.960 . S
H217 C216 0.961 . S
H218 C216 0.961 . S
H219 C216 0.960 . S
C220 N221 1.342 . S
C220 C224 1.401 . S
C220 C225 1.499 . S
N221 Co204 1.989 . S
N221 C220 1.342 . S
N221 N222 1.388 . S
N222 Co205 1.993 1_455 S
N222 N221 1.388 . S
N222 C223 1.346 . S
C223 N222 1.346 . S
C223 C224 1.396 . S
C223 C233 1.510 . S
C224 C220 1.401 . S
C224 C223 1.396 . S
C225 C220 1.499 . S
C225 H226 0.959 . S
C225 H227 0.960 . S
C225 H228 0.961 . S
H226 C225 0.959 . S
H227 C225 0.960 . S
H228 C225 0.961 . S
O229 Co204 1.967 . S
O229 C237 1.258 . S
O230 Co205 1.941 . S
O230 C237 1.266 1_655 S
H231 C233 0.959 . S
H232 C233 0.961 . S
C233 C223 1.510 . S
C233 H231 0.959 . S
C233 H232 0.961 . S
C233 H234 0.960 . S
H234 C233 0.960 . S
H235 N215 0.862 . S
O236 Co204 1.920 . S
O236 C209 1.289 1_554 S
C237 O229 1.258 . S
C237 O230 1.266 1_455 S
Co238 O241 1.970 . S
Co238 N255 1.989 . S
Co238 O263 1.967 . S
Co238 O270 1.920 . S
Co239 O242 1.966 . S
Co239 N248 2.022 . S
Co239 N256 1.993 . S
Co239 O264 1.941 . S
C240 O241 1.258 . S
C240 O242 1.263 . S
O241 Co238 1.970 . S
O241 C240 1.258 . S
O242 Co239 1.966 . S
O242 C240 1.263 . S
C243 O244 1.235 . S
C243 O270 1.289 . S
O244 C243 1.235 . S
C245 C247 1.400 . S
C245 N248 1.351 . S
C245 C250 1.501 . S
C246 C247 1.387 . S
C246 N249 1.341 . S
C247 C245 1.400 . S
C247 C246 1.387 . S
N248 Co239 2.022 . S
N248 C245 1.351 . S
N248 N249 1.365 . S
N249 C246 1.341 . S
N249 N248 1.365 . S
N249 H269 0.862 . S
C250 C245 1.501 . S
C250 H251 0.961 . S
C250 H252 0.961 . S
C250 H253 0.960 . S
H251 C250 0.961 . S
H252 C250 0.961 . S
H253 C250 0.960 . S
C254 N255 1.342 . S
C254 C258 1.401 . S
C254 C259 1.499 . S
N255 Co238 1.989 . S
N255 C254 1.342 . S
N255 N256 1.388 . S
N256 Co239 1.993 . S
N256 N255 1.388 . S
N256 C257 1.346 . S
C257 N256 1.346 . S
C257 C258 1.396 . S
C257 C267 1.510 . S
C258 C254 1.401 . S
C258 C257 1.396 . S
C259 C254 1.499 . S
C259 H260 0.959 . S
C259 H261 0.960 . S
C259 H262 0.961 . S
H260 C259 0.959 . S
H261 C259 0.960 . S
H262 C259 0.961 . S
O263 Co238 1.967 . S
O263 C271 1.258 . S
O264 Co239 1.941 . S
O264 C271 1.266 . S
H265 C267 0.959 . S
H266 C267 0.961 . S
C267 C257 1.510 . S
C267 H265 0.959 . S
C267 H266 0.961 . S
C267 H268 0.960 . S
H268 C267 0.960 . S
H269 N249 0.862 . S
O270 Co238 1.920 . S
O270 C243 1.289 . S
C271 O263 1.258 . S
C271 O264 1.266 . S
Co272 O275 1.970 . S
Co272 N289 1.989 . S
Co272 O297 1.967 . S
Co272 O304 1.920 . S
Co273 O276 1.966 . S
Co273 N282 2.022 . S
Co273 N290 1.993 . S
Co273 O298 1.941 . S
C274 O275 1.258 . S
C274 O276 1.263 . S
O275 Co272 1.970 . S
O275 C274 1.258 . S
O276 Co273 1.966 . S
O276 C274 1.263 . S
C277 O278 1.235 . S
C277 O304 1.289 . S
O278 C277 1.235 . S
C279 C281 1.400 . S
C279 N282 1.351 . S
C279 C284 1.501 . S
C280 C281 1.387 . S
C280 N283 1.341 . S
C281 C279 1.400 . S
C281 C280 1.387 . S
N282 Co273 2.022 . S
N282 C279 1.351 . S
N282 N283 1.365 . S
N283 C280 1.341 . S
N283 N282 1.365 . S
N283 H303 0.862 . S
C284 C279 1.501 . S
C284 H285 0.961 . S
C284 H286 0.961 . S
C284 H287 0.960 . S
H285 C284 0.961 . S
H286 C284 0.961 . S
H287 C284 0.960 . S
C288 N289 1.342 . S
C288 C292 1.401 . S
C288 C293 1.499 . S
N289 Co272 1.989 . S
N289 C288 1.342 . S
N289 N290 1.388 . S
N290 Co273 1.993 . S
N290 N289 1.388 . S
N290 C291 1.346 . S
C291 N290 1.346 . S
C291 C292 1.396 . S
C291 C301 1.510 . S
C292 C288 1.401 . S
C292 C291 1.396 . S
C293 C288 1.499 . S
C293 H294 0.959 . S
C293 H295 0.960 . S
C293 H296 0.961 . S
H294 C293 0.959 . S
H295 C293 0.960 . S
H296 C293 0.961 . S
O297 Co272 1.967 . S
O297 C305 1.258 . S
O298 Co273 1.941 . S
O298 C305 1.266 . S
H299 C301 0.959 . S
H300 C301 0.961 . S
C301 C291 1.510 . S
C301 H299 0.959 . S
C301 H300 0.961 . S
C301 H302 0.960 . S
H302 C301 0.960 . S
H303 N283 0.862 . S
O304 Co272 1.920 . S
O304 C277 1.289 . S
C305 O297 1.258 . S
C305 O298 1.266 . S
Co306 O309 1.970 . S
Co306 N323 1.989 . S
Co306 O331 1.967 . S
Co306 O338 1.920 . S
Co307 O310 1.966 . S
Co307 N316 2.022 . S
Co307 N324 1.993 . S
Co307 O332 1.941 . S
C308 O309 1.258 . S
C308 O310 1.263 . S
O309 Co306 1.970 . S
O309 C308 1.258 . S
O310 Co307 1.966 . S
O310 C308 1.263 . S
C311 O312 1.235 . S
C311 O338 1.289 . S
O312 C311 1.235 . S
C313 C315 1.400 1_556 S
C313 N316 1.351 . S
C313 C318 1.501 . S
C314 C315 1.387 . S
C314 N317 1.341 . S
C315 C313 1.400 1_554 S
C315 C314 1.387 . S
N316 Co307 2.022 . S
N316 C313 1.351 . S
N316 N317 1.365 1_556 S
N317 C314 1.341 . S
N317 N316 1.365 1_554 S
N317 H337 0.862 . S
C318 C313 1.501 . S
C318 H319 0.961 . S
C318 H320 0.961 . S
C318 H321 0.960 . S
H319 C318 0.961 . S
H320 C318 0.961 . S
H321 C318 0.960 . S
C322 N323 1.342 . S
C322 C326 1.401 . S
C322 C327 1.499 . S
N323 Co306 1.989 . S
N323 C322 1.342 . S
N323 N324 1.388 . S
N324 Co307 1.993 . S
N324 N323 1.388 . S
N324 C325 1.346 . S
C325 N324 1.346 . S
C325 C326 1.396 . S
C325 C335 1.510 1_556 S
C326 C322 1.401 . S
C326 C325 1.396 . S
C327 C322 1.499 . S
C327 H328 0.959 . S
C327 H329 0.960 . S
C327 H330 0.961 . S
H328 C327 0.959 . S
H329 C327 0.960 . S
H330 C327 0.961 . S
O331 Co306 1.967 . S
O331 C339 1.258 . S
O332 Co307 1.941 . S
O332 C339 1.266 . S
H333 C335 0.959 . S
H334 C335 0.961 . S
C335 C325 1.510 1_554 S
C335 H333 0.959 . S
C335 H334 0.961 . S
C335 H336 0.960 . S
H336 C335 0.960 . S
H337 N317 0.862 . S
O338 Co306 1.920 . S
O338 C311 1.289 . S
C339 O331 1.258 . S
C339 O332 1.266 . S
Co340 O343 1.970 . S
Co340 N357 1.989 . S
Co340 O365 1.967 . S
Co340 O372 1.920 . S
Co341 O344 1.966 . S
Co341 N350 2.022 . S
Co341 N358 1.993 . S
Co341 O366 1.941 . S
C342 O343 1.258 . S
C342 O344 1.263 . S
O343 Co340 1.970 . S
O343 C342 1.258 . S
O344 Co341 1.966 . S
O344 C342 1.263 . S
C345 O346 1.235 . S
C345 O372 1.289 . S
O346 C345 1.235 . S
C347 C349 1.400 1_554 S
C347 N350 1.351 . S
C347 C352 1.501 . S
C348 C349 1.387 . S
C348 N351 1.341 . S
C349 C347 1.400 1_556 S
C349 C348 1.387 . S
N350 Co341 2.022 . S
N350 C347 1.351 . S
N350 N351 1.365 1_554 S
N351 C348 1.341 . S
N351 N350 1.365 1_556 S
N351 H371 0.862 . S
C352 C347 1.501 . S
C352 H353 0.961 . S
C352 H354 0.961 . S
C352 H355 0.960 . S
H353 C352 0.961 . S
H354 C352 0.961 . S
H355 C352 0.960 . S
C356 N357 1.342 . S
C356 C360 1.401 . S
C356 C361 1.499 . S
N357 Co340 1.989 . S
N357 C356 1.342 . S
N357 N358 1.388 . S
N358 Co341 1.993 . S
N358 N357 1.388 . S
N358 C359 1.346 . S
C359 N358 1.346 . S
C359 C360 1.396 . S
C359 C369 1.510 1_554 S
C360 C356 1.401 . S
C360 C359 1.396 . S
C361 C356 1.499 . S
C361 H362 0.959 . S
C361 H363 0.960 . S
C361 H364 0.961 . S
H362 C361 0.959 . S
H363 C361 0.960 . S
H364 C361 0.961 . S
O365 Co340 1.967 . S
O365 C373 1.258 . S
O366 Co341 1.941 . S
O366 C373 1.266 . S
H367 C369 0.959 . S
H368 C369 0.961 . S
C369 C359 1.510 1_556 S
C369 H367 0.959 . S
C369 H368 0.961 . S
C369 H370 0.960 . S
H370 C369 0.960 . S
H371 N351 0.862 . S
O372 Co340 1.920 . S
O372 C345 1.289 . S
C373 O365 1.258 . S
C373 O366 1.266 . S
Co374 O377 1.970 . S
Co374 N391 1.989 . S
Co374 O399 1.967 . S
Co374 O406 1.920 . S
Co375 O378 1.966 . S
Co375 N384 2.022 . S
Co375 N392 1.993 . S
Co375 O400 1.941 . S
C376 O377 1.258 . S
C376 O378 1.263 . S
O377 Co374 1.970 . S
O377 C376 1.258 . S
O378 Co375 1.966 . S
O378 C376 1.263 . S
C379 O380 1.235 . S
C379 O406 1.289 . S
O380 C379 1.235 . S
C381 C383 1.400 . S
C381 N384 1.351 . S
C381 C386 1.501 . S
C382 C383 1.387 . S
C382 N385 1.341 . S
C383 C381 1.400 . S
C383 C382 1.387 . S
N384 Co375 2.022 . S
N384 C381 1.351 . S
N384 N385 1.365 . S
N385 C382 1.341 . S
N385 N384 1.365 . S
N385 H405 0.862 . S
C386 C381 1.501 . S
C386 H387 0.961 . S
C386 H388 0.961 . S
C386 H389 0.960 . S
H387 C386 0.961 . S
H388 C386 0.961 . S
H389 C386 0.960 . S
C390 N391 1.342 . S
C390 C394 1.401 . S
C390 C395 1.499 . S
N391 Co374 1.989 . S
N391 C390 1.342 . S
N391 N392 1.388 . S
N392 Co375 1.993 . S
N392 N391 1.388 . S
N392 C393 1.346 . S
C393 N392 1.346 . S
C393 C394 1.396 . S
C393 C403 1.510 . S
C394 C390 1.401 . S
C394 C393 1.396 . S
C395 C390 1.499 . S
C395 H396 0.959 . S
C395 H397 0.960 . S
C395 H398 0.961 . S
H396 C395 0.959 . S
H397 C395 0.960 . S
H398 C395 0.961 . S
O399 Co374 1.967 . S
O399 C407 1.258 . S
O400 Co375 1.941 . S
O400 C407 1.266 . S
H401 C403 0.959 . S
H402 C403 0.961 . S
C403 C393 1.510 . S
C403 H401 0.959 . S
C403 H402 0.961 . S
C403 H404 0.960 . S
H404 C403 0.960 . S
H405 N385 0.862 . S
O406 Co374 1.920 . S
O406 C379 1.289 . S
C407 O399 1.258 . S
C407 O400 1.266 . S
Co408 O411 1.970 1_655 S
Co408 N425 1.989 . S
Co408 O433 1.967 1_655 S
Co408 O440 1.920 . S
Co409 O412 1.966 . S
Co409 N418 2.022 . S
Co409 N426 1.993 . S
Co409 O434 1.941 . S
C410 O411 1.258 . S
C410 O412 1.263 . S
O411 Co408 1.970 1_455 S
O411 C410 1.258 . S
O412 Co409 1.966 . S
O412 C410 1.263 . S
C413 O414 1.235 1_554 S
C413 O440 1.289 1_554 S
O414 C413 1.235 1_556 S
C415 C417 1.400 . S
C415 N418 1.351 . S
C415 C420 1.501 . S
C416 C417 1.387 . S
C416 N419 1.341 . S
C417 C415 1.400 . S
C417 C416 1.387 . S
N418 Co409 2.022 . S
N418 C415 1.351 . S
N418 N419 1.365 . S
N419 C416 1.341 . S
N419 N418 1.365 . S
N419 H439 0.862 . S
C420 C415 1.501 . S
C420 H421 0.961 . S
C420 H422 0.961 . S
C420 H423 0.960 . S
H421 C420 0.961 . S
H422 C420 0.961 . S
H423 C420 0.960 . S
C424 N425 1.342 . S
C424 C428 1.401 . S
C424 C429 1.499 . S
N425 Co408 1.989 . S
N425 C424 1.342 . S
N425 N426 1.388 1_655 S
N426 Co409 1.993 . S
N426 N425 1.388 1_455 S
N426 C427 1.346 1_455 S
C427 N426 1.346 1_655 S
C427 C428 1.396 . S
C427 C437 1.510 1_655 S
C428 C424 1.401 . S
C428 C427 1.396 . S
C429 C424 1.499 . S
C429 H430 0.959 . S
C429 H431 0.960 . S
C429 H432 0.961 . S
H430 C429 0.959 . S
H431 C429 0.960 . S
H432 C429 0.961 . S
O433 Co408 1.967 1_455 S
O433 C441 1.258 . S
O434 Co409 1.941 . S
O434 C441 1.266 . S
H435 C437 0.959 . S
H436 C437 0.961 . S
C437 C427 1.510 1_455 S
C437 H435 0.959 . S
C437 H436 0.961 . S
C437 H438 0.960 . S
H438 C437 0.960 . S
H439 N419 0.862 . S
O440 Co408 1.920 . S
O440 C413 1.289 1_556 S
C441 O433 1.258 . S
C441 O434 1.266 . S
Co442 O445 1.970 . S
Co442 N459 1.989 . S
Co442 O467 1.967 . S
Co442 O474 1.920 . S
Co443 O446 1.966 . S
Co443 N452 2.022 . S
Co443 N460 1.993 . S
Co443 O468 1.941 . S
C444 O445 1.258 . S
C444 O446 1.263 . S
O445 Co442 1.970 . S
O445 C444 1.258 . S
O446 Co443 1.966 . S
O446 C444 1.263 . S
C447 O448 1.235 . S
C447 O474 1.289 . S
O448 C447 1.235 . S
C449 C451 1.400 . S
C449 N452 1.351 . S
C449 C454 1.501 . S
C450 C451 1.387 . S
C450 N453 1.341 . S
C451 C449 1.400 . S
C451 C450 1.387 . S
N452 Co443 2.022 . S
N452 C449 1.351 . S
N452 N453 1.365 . S
N453 C450 1.341 . S
N453 N452 1.365 . S
N453 H473 0.862 . S
C454 C449 1.501 . S
C454 H455 0.961 . S
C454 H456 0.961 . S
C454 H457 0.960 . S
H455 C454 0.961 . S
H456 C454 0.961 . S
H457 C454 0.960 . S
C458 N459 1.342 . S
C458 C462 1.401 . S
C458 C463 1.499 . S
N459 Co442 1.989 . S
N459 C458 1.342 . S
N459 N460 1.388 . S
N460 Co443 1.993 . S
N460 N459 1.388 . S
N460 C461 1.346 . S
C461 N460 1.346 . S
C461 C462 1.396 . S
C461 C471 1.510 . S
C462 C458 1.401 . S
C462 C461 1.396 . S
C463 C458 1.499 . S
C463 H464 0.959 . S
C463 H465 0.960 . S
C463 H466 0.961 . S
H464 C463 0.959 . S
H465 C463 0.960 . S
H466 C463 0.961 . S
O467 Co442 1.967 . S
O467 C475 1.258 . S
O468 Co443 1.941 . S
O468 C475 1.266 . S
H469 C471 0.959 . S
H470 C471 0.961 . S
C471 C461 1.510 . S
C471 H469 0.959 . S
C471 H470 0.961 . S
C471 H472 0.960 . S
H472 C471 0.960 . S
H473 N453 0.862 . S
O474 Co442 1.920 . S
O474 C447 1.289 . S
C475 O467 1.258 . S
C475 O468 1.266 . S
Co476 O479 1.970 1_655 S
Co476 N493 1.989 . S
Co476 O501 1.967 1_655 S
Co476 O508 1.920 . S
Co477 O480 1.966 . S
Co477 N486 2.022 . S
Co477 N494 1.993 . S
Co477 O502 1.941 . S
C478 O479 1.258 . S
C478 O480 1.263 . S
O479 Co476 1.970 1_455 S
O479 C478 1.258 . S
O480 Co477 1.966 . S
O480 C478 1.263 . S
C481 O482 1.235 1_556 S
C481 O508 1.289 1_556 S
O482 C481 1.235 1_554 S
C483 C485 1.400 . S
C483 N486 1.351 . S
C483 C488 1.501 . S
C484 C485 1.387 . S
C484 N487 1.341 . S
C485 C483 1.400 . S
C485 C484 1.387 . S
N486 Co477 2.022 . S
N486 C483 1.351 . S
N486 N487 1.365 . S
N487 C484 1.341 . S
N487 N486 1.365 . S
N487 H507 0.862 . S
C488 C483 1.501 . S
C488 H489 0.961 . S
C488 H490 0.961 . S
C488 H491 0.960 . S
H489 C488 0.961 . S
H490 C488 0.961 . S
H491 C488 0.960 . S
C492 N493 1.342 . S
C492 C496 1.401 . S
C492 C497 1.499 . S
N493 Co476 1.989 . S
N493 C492 1.342 . S
N493 N494 1.388 1_655 S
N494 Co477 1.993 . S
N494 N493 1.388 1_455 S
N494 C495 1.346 1_455 S
C495 N494 1.346 1_655 S
C495 C496 1.396 . S
C495 C505 1.510 1_655 S
C496 C492 1.401 . S
C496 C495 1.396 . S
C497 C492 1.499 . S
C497 H498 0.959 . S
C497 H499 0.960 . S
C497 H500 0.961 . S
H498 C497 0.959 . S
H499 C497 0.960 . S
H500 C497 0.961 . S
O501 Co476 1.967 1_455 S
O501 C509 1.258 . S
O502 Co477 1.941 . S
O502 C509 1.266 . S
H503 C505 0.959 . S
H504 C505 0.961 . S
C505 C495 1.510 1_455 S
C505 H503 0.959 . S
C505 H504 0.961 . S
C505 H506 0.960 . S
H506 C505 0.960 . S
H507 N487 0.862 . S
O508 Co476 1.920 . S
O508 C481 1.289 1_554 S
C509 O501 1.258 . S
C509 O502 1.266 . S
Co510 O513 1.970 . S
Co510 N527 1.989 . S
Co510 O535 1.967 . S
Co510 O542 1.920 . S
Co511 O514 1.966 . S
Co511 N520 2.022 . S
Co511 N528 1.993 . S
Co511 O536 1.941 . S
C512 O513 1.258 . S
C512 O514 1.263 . S
O513 Co510 1.970 . S
O513 C512 1.258 . S
O514 Co511 1.966 . S
O514 C512 1.263 . S
C515 O516 1.235 . S
C515 O542 1.289 . S
O516 C515 1.235 . S
C517 C519 1.400 . S
C517 N520 1.351 . S
C517 C522 1.501 . S
C518 C519 1.387 . S
C518 N521 1.341 . S
C519 C517 1.400 . S
C519 C518 1.387 . S
N520 Co511 2.022 . S
N520 C517 1.351 . S
N520 N521 1.365 . S
N521 C518 1.341 . S
N521 N520 1.365 . S
N521 H541 0.862 . S
C522 C517 1.501 . S
C522 H523 0.961 . S
C522 H524 0.961 . S
C522 H525 0.960 . S
H523 C522 0.961 . S
H524 C522 0.961 . S
H525 C522 0.960 . S
C526 N527 1.342 . S
C526 C530 1.401 . S
C526 C531 1.499 . S
N527 Co510 1.989 . S
N527 C526 1.342 . S
N527 N528 1.388 . S
N528 Co511 1.993 . S
N528 N527 1.388 . S
N528 C529 1.346 . S
C529 N528 1.346 . S
C529 C530 1.396 . S
C529 C539 1.510 . S
C530 C526 1.401 . S
C530 C529 1.396 . S
C531 C526 1.499 . S
C531 H532 0.959 . S
C531 H533 0.960 . S
C531 H534 0.961 . S
H532 C531 0.959 . S
H533 C531 0.960 . S
H534 C531 0.961 . S
O535 Co510 1.967 . S
O535 C543 1.258 . S
O536 Co511 1.941 . S
O536 C543 1.266 . S
H537 C539 0.959 . S
H538 C539 0.961 . S
C539 C529 1.510 . S
C539 H537 0.959 . S
C539 H538 0.961 . S
C539 H540 0.960 . S
H540 C539 0.960 . S
H541 N521 0.862 . S
O542 Co510 1.920 . S
O542 C515 1.289 . S
C543 O535 1.258 . S
C543 O536 1.266 . S
H544 C556 0.930 . S
H545 C558 0.930 . S
H546 C559 0.930 . S
H547 C563 0.959 . S
H548 C563 0.959 . S
H549 C563 0.961 . S
H550 C564 0.960 . S
H551 C564 0.961 . S
H552 C564 0.959 . S
H553 C567 0.929 1_545 S
H554 C568 0.931 . S
H555 C570 0.930 . S
C556 H544 0.930 . S
C556 C557 1.399 . S
C556 C561 1.399 . S
C557 C556 1.399 . S
C557 C558 1.376 . S
C558 H545 0.930 . S
C558 C557 1.376 . S
C558 C559 1.388 . S
C559 H546 0.930 . S
C559 C558 1.388 . S
C559 C560 1.390 . S
C560 C559 1.390 . S
C560 C561 1.394 . S
C560 C566 1.465 1_545 S
C561 C556 1.399 . S
C561 C560 1.394 . S
C561 C562 1.516 1_545 S
C562 C561 1.516 1_565 S
C562 C563 1.502 . S
C562 C564 1.561 . S
C562 C565 1.526 . S
C563 H547 0.959 . S
C563 H548 0.959 . S
C563 H549 0.961 . S
C563 C562 1.502 . S
C564 H550 0.960 . S
C564 H551 0.961 . S
C564 H552 0.959 . S
C564 C562 1.561 . S
C565 C562 1.526 . S
C565 C566 1.396 . S
C565 C570 1.390 . S
C566 C560 1.465 1_565 S
C566 C565 1.396 . S
C566 C567 1.399 . S
C567 H553 0.929 1_565 S
C567 C566 1.399 . S
C567 C568 1.385 . S
C568 H554 0.931 . S
C568 C567 1.385 . S
C568 C569 1.389 . S
C569 C568 1.389 . S
C569 C570 1.387 . S
C570 H555 0.930 . S
C570 C565 1.390 . S
C570 C569 1.387 . S
H571 C583 0.930 . S
H572 C585 0.930 . S
H573 C586 0.930 . S
H574 C590 0.959 . S
H575 C590 0.959 . S
H576 C590 0.961 . S
H577 C591 0.960 . S
H578 C591 0.961 . S
H579 C591 0.959 . S
H580 C594 0.929 . S
H581 C595 0.931 . S
H582 C597 0.930 . S
C583 H571 0.930 . S
C583 C584 1.399 . S
C583 C588 1.399 . S
C584 C583 1.399 . S
C584 C585 1.376 . S
C585 H572 0.930 . S
C585 C584 1.376 . S
C585 C586 1.388 . S
C586 H573 0.930 . S
C586 C585 1.388 . S
C586 C587 1.390 . S
C587 C586 1.390 . S
C587 C588 1.394 . S
C587 C593 1.465 . S
C588 C583 1.399 . S
C588 C587 1.394 . S
C588 C589 1.516 . S
C589 C588 1.516 . S
C589 C590 1.502 . S
C589 C591 1.561 . S
C589 C592 1.526 . S
C590 H574 0.959 . S
C590 H575 0.959 . S
C590 H576 0.961 . S
C590 C589 1.502 . S
C591 H577 0.960 . S
C591 H578 0.961 . S
C591 H579 0.959 . S
C591 C589 1.561 . S
C592 C589 1.526 . S
C592 C593 1.396 . S
C592 C597 1.390 . S
C593 C587 1.465 . S
C593 C592 1.396 . S
C593 C594 1.399 . S
C594 H580 0.929 . S
C594 C593 1.399 . S
C594 C595 1.385 . S
C595 H581 0.931 . S
C595 C594 1.385 . S
C595 C596 1.389 . S
C596 C595 1.389 . S
C596 C597 1.387 . S
C597 H582 0.930 . S
C597 C592 1.390 . S
C597 C596 1.387 . S
H598 C610 0.930 . S
H599 C612 0.930 . S
H600 C613 0.930 . S
H601 C617 0.959 . S
H602 C617 0.959 . S
H603 C617 0.961 . S
H604 C618 0.960 . S
H605 C618 0.961 . S
H606 C618 0.959 . S
H607 C621 0.929 1_545 S
H608 C622 0.931 . S
H609 C624 0.930 . S
C610 H598 0.930 . S
C610 C611 1.399 . S
C610 C615 1.399 . S
C611 C610 1.399 . S
C611 C612 1.376 . S
C612 H599 0.930 . S
C612 C611 1.376 . S
C612 C613 1.388 1_554 S
C613 H600 0.930 . S
C613 C612 1.388 1_556 S
C613 C614 1.390 . S
C614 C613 1.390 . S
C614 C615 1.394 1_556 S
C614 C620 1.465 1_545 S
C615 C610 1.399 . S
C615 C614 1.394 1_554 S
C615 C616 1.516 1_545 S
C616 C615 1.516 1_565 S
C616 C617 1.502 . S
C616 C618 1.561 1_455 S
C616 C619 1.526 1_554 S
C617 H601 0.959 . S
C617 H602 0.959 . S
C617 H603 0.961 . S
C617 C616 1.502 . S
C618 H604 0.960 . S
C618 H605 0.961 . S
C618 H606 0.959 . S
C618 C616 1.561 1_655 S
C619 C616 1.526 1_556 S
C619 C620 1.396 . S
C619 C624 1.390 . S
C620 C614 1.465 1_565 S
C620 C619 1.396 . S
C620 C621 1.399 . S
C621 H607 0.929 1_565 S
C621 C620 1.399 . S
C621 C622 1.385 . S
C622 H608 0.931 . S
C622 C621 1.385 . S
C622 C623 1.389 . S
C623 C622 1.389 . S
C623 C624 1.387 . S
C624 H609 0.930 . S
C624 C619 1.390 . S
C624 C623 1.387 . S
H625 C637 0.930 . S
H626 C639 0.930 . S
H627 C640 0.930 . S
H628 C644 0.959 . S
H629 C644 0.959 . S
H630 C644 0.961 . S
H631 C645 0.960 . S
H632 C645 0.961 . S
H633 C645 0.959 . S
H634 C648 0.929 . S
H635 C649 0.931 . S
H636 C651 0.930 . S
C637 H625 0.930 . S
C637 C638 1.399 . S
C637 C642 1.399 . S
C638 C637 1.399 . S
C638 C639 1.376 . S
C639 H626 0.930 . S
C639 C638 1.376 . S
C639 C640 1.388 . S
C640 H627 0.930 . S
C640 C639 1.388 . S
C640 C641 1.390 . S
C641 C640 1.390 . S
C641 C642 1.394 . S
C641 C647 1.465 . S
C642 C637 1.399 . S
C642 C641 1.394 . S
C642 C643 1.516 . S
C643 C642 1.516 . S
C643 C644 1.502 . S
C643 C645 1.561 . S
C643 C646 1.526 . S
C644 H628 0.959 . S
C644 H629 0.959 . S
C644 H630 0.961 . S
C644 C643 1.502 . S
C645 H631 0.960 . S
C645 H632 0.961 . S
C645 H633 0.959 . S
C645 C643 1.561 . S
C646 C643 1.526 . S
C646 C647 1.396 . S
C646 C651 1.390 . S
C647 C641 1.465 . S
C647 C646 1.396 . S
C647 C648 1.399 . S
C648 H634 0.929 . S
C648 C647 1.399 . S
C648 C649 1.385 . S
C649 H635 0.931 . S
C649 C648 1.385 . S
C649 C650 1.389 . S
C650 C649 1.389 . S
C650 C651 1.387 . S
C651 H636 0.930 . S
C651 C646 1.390 . S
C651 C650 1.387 . S
H652 C664 0.930 . S
H653 C666 0.930 . S
H654 C667 0.930 . S
H655 C671 0.959 . S
H656 C671 0.959 . S
H657 C671 0.961 . S
H658 C672 0.960 . S
H659 C672 0.961 . S
H660 C672 0.959 . S
H661 C675 0.929 . S
H662 C676 0.931 . S
H663 C678 0.930 . S
C664 H652 0.930 . S
C664 C665 1.399 . S
C664 C669 1.399 . S
C665 C664 1.399 . S
C665 C666 1.376 . S
C666 H653 0.930 . S
C666 C665 1.376 . S
C666 C667 1.388 . S
C667 H654 0.930 . S
C667 C666 1.388 . S
C667 C668 1.390 . S
C668 C667 1.390 . S
C668 C669 1.394 . S
C668 C674 1.465 . S
C669 C664 1.399 . S
C669 C668 1.394 . S
C669 C670 1.516 . S
C670 C669 1.516 . S
C670 C671 1.502 . S
C670 C672 1.561 . S
C670 C673 1.526 . S
C671 H655 0.959 . S
C671 H656 0.959 . S
C671 H657 0.961 . S
C671 C670 1.502 . S
C672 H658 0.960 . S
C672 H659 0.961 . S
C672 H660 0.959 . S
C672 C670 1.561 . S
C673 C670 1.526 . S
C673 C674 1.396 . S
C673 C678 1.390 . S
C674 C668 1.465 . S
C674 C673 1.396 . S
C674 C675 1.399 . S
C675 H661 0.929 . S
C675 C674 1.399 . S
C675 C676 1.385 . S
C676 H662 0.931 . S
C676 C675 1.385 . S
C676 C677 1.389 . S
C677 C676 1.389 . S
C677 C678 1.387 . S
C678 H663 0.930 . S
C678 C673 1.390 . S
C678 C677 1.387 . S
H679 C691 0.930 . S
H680 C693 0.930 . S
H681 C694 0.930 . S
H682 C698 0.959 . S
H683 C698 0.959 . S
H684 C698 0.961 . S
H685 C699 0.960 . S
H686 C699 0.961 . S
H687 C699 0.959 . S
H688 C702 0.929 . S
H689 C703 0.931 . S
H690 C705 0.930 . S
C691 H679 0.930 . S
C691 C692 1.399 . S
C691 C696 1.399 . S
C692 C691 1.399 . S
C692 C693 1.376 . S
C693 H680 0.930 . S
C693 C692 1.376 . S
C693 C694 1.388 . S
C694 H681 0.930 . S
C694 C693 1.388 . S
C694 C695 1.390 . S
C695 C694 1.390 . S
C695 C696 1.394 . S
C695 C701 1.465 . S
C696 C691 1.399 . S
C696 C695 1.394 . S
C696 C697 1.516 . S
C697 C696 1.516 . S
C697 C698 1.502 . S
C697 C699 1.561 . S
C697 C700 1.526 . S
C698 H682 0.959 . S
C698 H683 0.959 . S
C698 H684 0.961 . S
C698 C697 1.502 . S
C699 H685 0.960 . S
C699 H686 0.961 . S
C699 H687 0.959 . S
C699 C697 1.561 . S
C700 C697 1.526 . S
C700 C701 1.396 . S
C700 C705 1.390 . S
C701 C695 1.465 . S
C701 C700 1.396 . S
C701 C702 1.399 . S
C702 H688 0.929 . S
C702 C701 1.399 . S
C702 C703 1.385 . S
C703 H689 0.931 . S
C703 C702 1.385 . S
C703 C704 1.389 . S
C704 C703 1.389 . S
C704 C705 1.387 . S
C705 H690 0.930 . S
C705 C700 1.390 . S
C705 C704 1.387 . S
H706 C718 0.930 . S
H707 C720 0.930 . S
H708 C721 0.930 . S
H709 C725 0.959 . S
H710 C725 0.959 . S
H711 C725 0.961 . S
H712 C726 0.960 . S
H713 C726 0.961 . S
H714 C726 0.959 . S
H715 C729 0.929 . S
H716 C730 0.931 . S
H717 C732 0.930 . S
C718 H706 0.930 . S
C718 C719 1.399 . S
C718 C723 1.399 . S
C719 C718 1.399 . S
C719 C720 1.376 . S
C720 H707 0.930 . S
C720 C719 1.376 . S
C720 C721 1.388 . S
C721 H708 0.930 . S
C721 C720 1.388 . S
C721 C722 1.390 . S
C722 C721 1.390 . S
C722 C723 1.394 . S
C722 C728 1.465 . S
C723 C718 1.399 . S
C723 C722 1.394 . S
C723 C724 1.516 1_556 S
C724 C723 1.516 1_554 S
C724 C725 1.502 . S
C724 C726 1.561 1_455 S
C724 C727 1.526 . S
C725 H709 0.959 . S
C725 H710 0.959 . S
C725 H711 0.961 . S
C725 C724 1.502 . S
C726 H712 0.960 . S
C726 H713 0.961 . S
C726 H714 0.959 . S
C726 C724 1.561 1_655 S
C727 C724 1.526 . S
C727 C728 1.396 1_554 S
C727 C732 1.390 . S
C728 C722 1.465 . S
C728 C727 1.396 1_556 S
C728 C729 1.399 . S
C729 H715 0.929 . S
C729 C728 1.399 . S
C729 C730 1.385 1_556 S
C730 H716 0.931 . S
C730 C729 1.385 1_554 S
C730 C731 1.389 . S
C731 C730 1.389 . S
C731 C732 1.387 . S
C732 H717 0.930 . S
C732 C727 1.390 . S
C732 C731 1.387 . S
H733 C745 0.930 . S
H734 C747 0.930 . S
H735 C748 0.930 . S
H736 C752 0.959 . S
H737 C752 0.959 . S
H738 C752 0.961 . S
H739 C753 0.960 . S
H740 C753 0.961 . S
H741 C753 0.959 . S
H742 C756 0.929 . S
H743 C757 0.931 . S
H744 C759 0.930 . S
C745 H733 0.930 . S
C745 C746 1.399 . S
C745 C750 1.399 . S
C746 C745 1.399 . S
C746 C747 1.376 . S
C747 H734 0.930 . S
C747 C746 1.376 . S
C747 C748 1.388 . S
C748 H735 0.930 . S
C748 C747 1.388 . S
C748 C749 1.390 . S
C749 C748 1.390 . S
C749 C750 1.394 . S
C749 C755 1.465 . S
C750 C745 1.399 . S
C750 C749 1.394 . S
C750 C751 1.516 . S
C751 C750 1.516 . S
C751 C752 1.502 . S
C751 C753 1.561 . S
C751 C754 1.526 . S
C752 H736 0.959 . S
C752 H737 0.959 . S
C752 H738 0.961 . S
C752 C751 1.502 . S
C753 H739 0.960 . S
C753 H740 0.961 . S
C753 H741 0.959 . S
C753 C751 1.561 . S
C754 C751 1.526 . S
C754 C755 1.396 . S
C754 C759 1.390 . S
C755 C749 1.465 . S
C755 C754 1.396 . S
C755 C756 1.399 . S
C756 H742 0.929 . S
C756 C755 1.399 . S
C756 C757 1.385 . S
C757 H743 0.931 . S
C757 C756 1.385 . S
C757 C758 1.389 . S
C758 C757 1.389 . S
C758 C759 1.387 . S
C759 H744 0.930 . S
C759 C754 1.390 . S
C759 C758 1.387 . S
H760 C772 0.930 . S
H761 C774 0.930 . S
H762 C775 0.930 . S
H763 C779 0.959 . S
H764 C779 0.959 . S
H765 C779 0.961 . S
H766 C780 0.960 . S
H767 C780 0.961 . S
H768 C780 0.959 . S
H769 C783 0.929 . S
H770 C784 0.931 . S
H771 C786 0.930 1_556 S
C772 H760 0.930 . S
C772 C773 1.399 . S
C772 C777 1.399 . S
C773 C772 1.399 . S
C773 C774 1.376 . S
C774 H761 0.930 . S
C774 C773 1.376 . S
C774 C775 1.388 . S
C775 H762 0.930 . S
C775 C774 1.388 . S
C775 C776 1.390 . S
C776 C775 1.390 . S
C776 C777 1.394 . S
C776 C782 1.465 . S
C777 C772 1.399 . S
C777 C776 1.394 . S
C777 C778 1.516 . S
C778 C777 1.516 . S
C778 C779 1.502 . S
C778 C780 1.561 . S
C778 C781 1.526 . S
C779 H763 0.959 . S
C779 H764 0.959 . S
C779 H765 0.961 . S
C779 C778 1.502 . S
C780 H766 0.960 . S
C780 H767 0.961 . S
C780 H768 0.959 . S
C780 C778 1.561 . S
C781 C778 1.526 . S
C781 C782 1.396 . S
C781 C786 1.390 . S
C782 C776 1.465 . S
C782 C781 1.396 . S
C782 C783 1.399 . S
C783 H769 0.929 . S
C783 C782 1.399 . S
C783 C784 1.385 . S
C784 H770 0.931 . S
C784 C783 1.385 . S
C784 C785 1.389 . S
C785 C784 1.389 . S
C785 C786 1.387 . S
C786 H771 0.930 1_554 S
C786 C781 1.390 . S
C786 C785 1.387 . S
H787 C799 0.930 . S
H788 C801 0.930 . S
H789 C802 0.930 . S
H790 C806 0.959 . S
H791 C806 0.959 . S
H792 C806 0.961 . S
H793 C807 0.960 . S
H794 C807 0.961 . S
H795 C807 0.959 . S
H796 C810 0.929 . S
H797 C811 0.931 . S
H798 C813 0.930 . S
C799 H787 0.930 . S
C799 C800 1.399 . S
C799 C804 1.399 . S
C800 C799 1.399 . S
C800 C801 1.376 . S
C801 H788 0.930 . S
C801 C800 1.376 . S
C801 C802 1.388 . S
C802 H789 0.930 . S
C802 C801 1.388 . S
C802 C803 1.390 . S
C803 C802 1.390 . S
C803 C804 1.394 . S
C803 C809 1.465 . S
C804 C799 1.399 . S
C804 C803 1.394 . S
C804 C805 1.516 . S
C805 C804 1.516 . S
C805 C806 1.502 . S
C805 C807 1.561 . S
C805 C808 1.526 . S
C806 H790 0.959 . S
C806 H791 0.959 . S
C806 H792 0.961 . S
C806 C805 1.502 . S
C807 H793 0.960 . S
C807 H794 0.961 . S
C807 H795 0.959 . S
C807 C805 1.561 . S
C808 C805 1.526 . S
C808 C809 1.396 . S
C808 C813 1.390 . S
C809 C803 1.465 . S
C809 C808 1.396 . S
C809 C810 1.399 . S
C810 H796 0.929 . S
C810 C809 1.399 . S
C810 C811 1.385 . S
C811 H797 0.931 . S
C811 C810 1.385 . S
C811 C812 1.389 . S
C812 C811 1.389 . S
C812 C813 1.387 . S
C813 H798 0.930 . S
C813 C808 1.390 . S
C813 C812 1.387 . S
H814 C826 0.930 . S
H815 C828 0.930 . S
H816 C829 0.930 . S
H817 C833 0.959 . S
H818 C833 0.959 . S
H819 C833 0.961 . S
H820 C834 0.960 . S
H821 C834 0.961 . S
H822 C834 0.959 . S
H823 C837 0.929 . S
H824 C838 0.931 . S
H825 C840 0.930 . S
C826 H814 0.930 . S
C826 C827 1.399 . S
C826 C831 1.399 . S
C827 C826 1.399 . S
C827 C828 1.376 . S
C828 H815 0.930 . S
C828 C827 1.376 . S
C828 C829 1.388 . S
C829 H816 0.930 . S
C829 C828 1.388 . S
C829 C830 1.390 . S
C830 C829 1.390 . S
C830 C831 1.394 . S
C830 C836 1.465 . S
C831 C826 1.399 . S
C831 C830 1.394 . S
C831 C832 1.516 . S
C832 C831 1.516 . S
C832 C833 1.502 . S
C832 C834 1.561 . S
C832 C835 1.526 . S
C833 H817 0.959 . S
C833 H818 0.959 . S
C833 H819 0.961 . S
C833 C832 1.502 . S
C834 H820 0.960 . S
C834 H821 0.961 . S
C834 H822 0.959 . S
C834 C832 1.561 . S
C835 C832 1.526 . S
C835 C836 1.396 . S
C835 C840 1.390 . S
C836 C830 1.465 . S
C836 C835 1.396 . S
C836 C837 1.399 . S
C837 H823 0.929 . S
C837 C836 1.399 . S
C837 C838 1.385 . S
C838 H824 0.931 . S
C838 C837 1.385 . S
C838 C839 1.389 . S
C839 C838 1.389 . S
C839 C840 1.387 . S
C840 H825 0.930 . S
C840 C835 1.390 . S
C840 C839 1.387 . S
H841 C853 0.930 . S
H842 C855 0.930 . S
H843 C856 0.930 . S
H844 C860 0.959 . S
H845 C860 0.959 . S
H846 C860 0.961 . S
H847 C861 0.960 . S
H848 C861 0.961 . S
H849 C861 0.959 . S
H850 C864 0.929 . S
H851 C865 0.931 . S
H852 C867 0.930 . S
C853 H841 0.930 . S
C853 C854 1.399 . S
C853 C858 1.399 . S
C854 C853 1.399 . S
C854 C855 1.376 1_556 S
C855 H842 0.930 . S
C855 C854 1.376 1_554 S
C855 C856 1.388 1_554 S
C856 H843 0.930 . S
C856 C855 1.388 1_556 S
C856 C857 1.390 . S
C857 C856 1.390 . S
C857 C858 1.394 . S
C857 C863 1.465 . S
C858 C853 1.399 . S
C858 C857 1.394 . S
C858 C859 1.516 . S
C859 C858 1.516 . S
C859 C860 1.502 . S
C859 C861 1.561 . S
C859 C862 1.526 . S
C860 H844 0.959 . S
C860 H845 0.959 . S
C860 H846 0.961 . S
C860 C859 1.502 . S
C861 H847 0.960 . S
C861 H848 0.961 . S
C861 H849 0.959 . S
C861 C859 1.561 . S
C862 C859 1.526 . S
C862 C863 1.396 . S
C862 C867 1.390 . S
C863 C857 1.465 . S
C863 C862 1.396 . S
C863 C864 1.399 . S
C864 H850 0.929 . S
C864 C863 1.399 . S
C864 C865 1.385 . S
C865 H851 0.931 . S
C865 C864 1.385 . S
C865 C866 1.389 . S
C866 C865 1.389 . S
C866 C867 1.387 . S
C867 H852 0.930 . S
C867 C862 1.390 . S
C867 C866 1.387 . S
H868 C880 0.930 . S
H869 C882 0.930 . S
H870 C883 0.930 . S
H871 C887 0.959 . S
H872 C887 0.959 . S
H873 C887 0.961 . S
H874 C888 0.960 . S
H875 C888 0.961 . S
H876 C888 0.959 . S
H877 C891 0.929 . S
H878 C892 0.931 . S
H879 C894 0.930 . S
C880 H868 0.930 . S
C880 C881 1.399 . S
C880 C885 1.399 . S
C881 C880 1.399 . S
C881 C882 1.376 . S
C882 H869 0.930 . S
C882 C881 1.376 . S
C882 C883 1.388 . S
C883 H870 0.930 . S
C883 C882 1.388 . S
C883 C884 1.390 . S
C884 C883 1.390 . S
C884 C885 1.394 . S
C884 C890 1.465 . S
C885 C880 1.399 . S
C885 C884 1.394 . S
C885 C886 1.516 . S
C886 C885 1.516 . S
C886 C887 1.502 . S
C886 C888 1.561 . S
C886 C889 1.526 . S
C887 H871 0.959 . S
C887 H872 0.959 . S
C887 H873 0.961 . S
C887 C886 1.502 . S
C888 H874 0.960 . S
C888 H875 0.961 . S
C888 H876 0.959 . S
C888 C886 1.561 . S
C889 C886 1.526 . S
C889 C890 1.396 . S
C889 C894 1.390 . S
C890 C884 1.465 . S
C890 C889 1.396 . S
C890 C891 1.399 . S
C891 H877 0.929 . S
C891 C890 1.399 . S
C891 C892 1.385 . S
C892 H878 0.931 . S
C892 C891 1.385 . S
C892 C893 1.389 . S
C893 C892 1.389 . S
C893 C894 1.387 . S
C894 H879 0.930 . S
C894 C889 1.390 . S
C894 C893 1.387 . S
H895 C907 0.930 . S
H896 C909 0.930 . S
H897 C910 0.930 . S
H898 C914 0.959 . S
H899 C914 0.959 . S
H900 C914 0.961 . S
H901 C915 0.960 . S
H902 C915 0.961 . S
H903 C915 0.959 . S
H904 C918 0.929 . S
H905 C919 0.931 . S
H906 C921 0.930 . S
C907 H895 0.930 . S
C907 C908 1.399 . S
C907 C912 1.399 . S
C908 C907 1.399 . S
C908 C909 1.376 . S
C909 H896 0.930 . S
C909 C908 1.376 . S
C909 C910 1.388 . S
C910 H897 0.930 . S
C910 C909 1.388 . S
C910 C911 1.390 . S
C911 C910 1.390 . S
C911 C912 1.394 . S
C911 C917 1.465 . S
C912 C907 1.399 . S
C912 C911 1.394 . S
C912 C913 1.516 . S
C913 C912 1.516 . S
C913 C914 1.502 . S
C913 C915 1.561 . S
C913 C916 1.526 . S
C914 H898 0.959 . S
C914 H899 0.959 . S
C914 H900 0.961 . S
C914 C913 1.502 . S
C915 H901 0.960 . S
C915 H902 0.961 . S
C915 H903 0.959 . S
C915 C913 1.561 . S
C916 C913 1.526 . S
C916 C917 1.396 . S
C916 C921 1.390 . S
C917 C911 1.465 . S
C917 C916 1.396 . S
C917 C918 1.399 . S
C918 H904 0.929 . S
C918 C917 1.399 . S
C918 C919 1.385 . S
C919 H905 0.931 . S
C919 C918 1.385 . S
C919 C920 1.389 . S
C920 C919 1.389 . S
C920 C921 1.387 . S
C921 H906 0.930 . S
C921 C916 1.390 . S
C921 C920 1.387 . S
H922 C934 0.930 . S
H923 C936 0.930 . S
H924 C937 0.930 . S
H925 C941 0.959 . S
H926 C941 0.959 . S
H927 C941 0.961 . S
H928 C942 0.960 . S
H929 C942 0.961 . S
H930 C942 0.959 . S
H931 C945 0.929 . S
H932 C946 0.931 . S
H933 C948 0.930 . S
C934 H922 0.930 . S
C934 C935 1.399 . S
C934 C939 1.399 . S
C935 C934 1.399 . S
C935 C936 1.376 . S
C936 H923 0.930 . S
C936 C935 1.376 . S
C936 C937 1.388 . S
C937 H924 0.930 . S
C937 C936 1.388 . S
C937 C938 1.390 . S
C938 C937 1.390 . S
C938 C939 1.394 . S
C938 C944 1.465 . S
C939 C934 1.399 . S
C939 C938 1.394 . S
C939 C940 1.516 . S
C940 C939 1.516 . S
C940 C941 1.502 . S
C940 C942 1.561 . S
C940 C943 1.526 . S
C941 H925 0.959 . S
C941 H926 0.959 . S
C941 H927 0.961 . S
C941 C940 1.502 . S
C942 H928 0.960 . S
C942 H929 0.961 . S
C942 H930 0.959 . S
C942 C940 1.561 . S
C943 C940 1.526 . S
C943 C944 1.396 . S
C943 C948 1.390 . S
C944 C938 1.465 . S
C944 C943 1.396 . S
C944 C945 1.399 . S
C945 H931 0.929 . S
C945 C944 1.399 . S
C945 C946 1.385 . S
C946 H932 0.931 . S
C946 C945 1.385 . S
C946 C947 1.389 . S
C947 C946 1.389 . S
C947 C948 1.387 . S
C948 H933 0.930 . S
C948 C943 1.390 . S
C948 C947 1.387 . S
H949 C961 0.930 . S
H950 C963 0.930 . S
H951 C964 0.930 . S
H952 C968 0.959 . S
H953 C968 0.959 . S
H954 C968 0.961 . S
H955 C969 0.960 . S
H956 C969 0.961 . S
H957 C969 0.959 . S
H958 C972 0.929 . S
H959 C973 0.931 . S
H960 C975 0.930 . S
C961 H949 0.930 . S
C961 C962 1.399 . S
C961 C966 1.399 . S
C962 C961 1.399 . S
C962 C963 1.376 . S
C963 H950 0.930 . S
C963 C962 1.376 . S
C963 C964 1.388 . S
C964 H951 0.930 . S
C964 C963 1.388 . S
C964 C965 1.390 . S
C965 C964 1.390 . S
C965 C966 1.394 . S
C965 C971 1.465 . S
C966 C961 1.399 . S
C966 C965 1.394 . S
C966 C967 1.516 . S
C967 C966 1.516 . S
C967 C968 1.502 . S
C967 C969 1.561 . S
C967 C970 1.526 . S
C968 H952 0.959 . S
C968 H953 0.959 . S
C968 H954 0.961 . S
C968 C967 1.502 . S
C969 H955 0.960 . S
C969 H956 0.961 . S
C969 H957 0.959 . S
C969 C967 1.561 . S
C970 C967 1.526 . S
C970 C971 1.396 . S
C970 C975 1.390 . S
C971 C965 1.465 . S
C971 C970 1.396 . S
C971 C972 1.399 . S
C972 H958 0.929 . S
C972 C971 1.399 . S
C972 C973 1.385 . S
C973 H959 0.931 . S
C973 C972 1.385 . S
C973 C974 1.389 . S
C974 C973 1.389 . S
C974 C975 1.387 . S
C975 H960 0.930 . S
C975 C970 1.390 . S
C975 C974 1.387 . S
H976 C988 0.930 . S
H977 C990 0.930 . S
H978 C991 0.930 . S
H979 C995 0.959 . S
H980 C995 0.959 . S
H981 C995 0.961 . S
H982 C996 0.960 . S
H983 C996 0.961 . S
H984 C996 0.959 . S
H985 C999 0.929 . S
H986 C1000 0.931 . S
H987 C1002 0.930 . S
C988 H976 0.930 . S
C988 C989 1.399 . S
C988 C993 1.399 . S
C989 C988 1.399 . S
C989 C990 1.376 . S
C990 H977 0.930 . S
C990 C989 1.376 . S
C990 C991 1.388 . S
C991 H978 0.930 . S
C991 C990 1.388 . S
C991 C992 1.390 . S
C992 C991 1.390 . S
C992 C993 1.394 . S
C992 C998 1.465 . S
C993 C988 1.399 . S
C993 C992 1.394 . S
C993 C994 1.516 . S
C994 C993 1.516 . S
C994 C995 1.502 . S
C994 C996 1.561 . S
C994 C997 1.526 . S
C995 H979 0.959 . S
C995 H980 0.959 . S
C995 H981 0.961 . S
C995 C994 1.502 . S
C996 H982 0.960 . S
C996 H983 0.961 . S
C996 H984 0.959 . S
C996 C994 1.561 . S
C997 C994 1.526 . S
C997 C998 1.396 . S
C997 C1002 1.390 . S
C998 C992 1.465 . S
C998 C997 1.396 . S
C998 C999 1.399 . S
C999 H985 0.929 . S
C999 C998 1.399 . S
C999 C1000 1.385 . S
C1000 H986 0.931 . S
C1000 C999 1.385 . S
C1000 C1001 1.389 . S
C1001 C1000 1.389 . S
C1001 C1002 1.387 . S
C1002 H987 0.930 . S
C1002 C997 1.390 . S
C1002 C1001 1.387 . S
H1003 C1015 0.930 . S
H1004 C1017 0.930 . S
H1005 C1018 0.930 . S
H1006 C1022 0.959 . S
H1007 C1022 0.959 . S
H1008 C1022 0.961 . S
H1009 C1023 0.960 . S
H1010 C1023 0.961 . S
H1011 C1023 0.959 . S
H1012 C1026 0.929 . S
H1013 C1027 0.931 . S
H1014 C1029 0.930 . S
C1015 H1003 0.930 . S
C1015 C1016 1.399 . S
C1015 C1020 1.399 . S
C1016 C1015 1.399 . S
C1016 C1017 1.376 . S
C1017 H1004 0.930 . S
C1017 C1016 1.376 . S
C1017 C1018 1.388 . S
C1018 H1005 0.930 . S
C1018 C1017 1.388 . S
C1018 C1019 1.390 . S
C1019 C1018 1.390 . S
C1019 C1020 1.394 . S
C1019 C1025 1.465 . S
C1020 C1015 1.399 . S
C1020 C1019 1.394 . S
C1020 C1021 1.516 . S
C1021 C1020 1.516 . S
C1021 C1022 1.502 . S
C1021 C1023 1.561 . S
C1021 C1024 1.526 . S
C1022 H1006 0.959 . S
C1022 H1007 0.959 . S
C1022 H1008 0.961 . S
C1022 C1021 1.502 . S
C1023 H1009 0.960 . S
C1023 H1010 0.961 . S
C1023 H1011 0.959 . S
C1023 C1021 1.561 . S
C1024 C1021 1.526 . S
C1024 C1025 1.396 . S
C1024 C1029 1.390 . S
C1025 C1019 1.465 . S
C1025 C1024 1.396 . S
C1025 C1026 1.399 . S
C1026 H1012 0.929 . S
C1026 C1025 1.399 . S
C1026 C1027 1.385 . S
C1027 H1013 0.931 . S
C1027 C1026 1.385 . S
C1027 C1028 1.389 . S
C1028 C1027 1.389 . S
C1028 C1029 1.387 . S
C1029 H1014 0.930 . S
C1029 C1024 1.390 . S
C1029 C1028 1.387 . S
H1030 C1042 0.930 1_556 S
H1031 C1044 0.930 . S
H1032 C1045 0.930 . S
H1033 C1049 0.959 . S
H1034 C1049 0.959 . S
H1035 C1049 0.961 . S
H1036 C1050 0.960 . S
H1037 C1050 0.961 . S
H1038 C1050 0.959 . S
H1039 C1053 0.929 . S
H1040 C1054 0.931 . S
H1041 C1056 0.930 . S
C1042 H1030 0.930 1_554 S
C1042 C1043 1.399 . S
C1042 C1047 1.399 . S
C1043 C1042 1.399 . S
C1043 C1044 1.376 . S
C1044 H1031 0.930 . S
C1044 C1043 1.376 . S
C1044 C1045 1.388 . S
C1045 H1032 0.930 . S
C1045 C1044 1.388 . S
C1045 C1046 1.390 . S
C1046 C1045 1.390 . S
C1046 C1047 1.394 . S
C1046 C1052 1.465 . S
C1047 C1042 1.399 . S
C1047 C1046 1.394 . S
C1047 C1048 1.516 . S
C1048 C1047 1.516 . S
C1048 C1049 1.502 . S
C1048 C1050 1.561 . S
C1048 C1051 1.526 . S
C1049 H1033 0.959 . S
C1049 H1034 0.959 . S
C1049 H1035 0.961 . S
C1049 C1048 1.502 . S
C1050 H1036 0.960 . S
C1050 H1037 0.961 . S
C1050 H1038 0.959 . S
C1050 C1048 1.561 . S
C1051 C1048 1.526 . S
C1051 C1052 1.396 . S
C1051 C1056 1.390 . S
C1052 C1046 1.465 . S
C1052 C1051 1.396 . S
C1052 C1053 1.399 . S
C1053 H1039 0.929 . S
C1053 C1052 1.399 . S
C1053 C1054 1.385 . S
C1054 H1040 0.931 . S
C1054 C1053 1.385 . S
C1054 C1055 1.389 . S
C1055 C1054 1.389 . S
C1055 C1056 1.387 . S
C1056 H1041 0.930 . S
C1056 C1051 1.390 . S
C1056 C1055 1.387 . S
H1057 C1069 0.930 . S
H1058 C1071 0.930 . S
H1059 C1072 0.930 . S
H1060 C1076 0.959 . S
H1061 C1076 0.959 . S
H1062 C1076 0.961 . S
H1063 C1077 0.960 . S
H1064 C1077 0.961 . S
H1065 C1077 0.959 . S
H1066 C1080 0.929 . S
H1067 C1081 0.931 . S
H1068 C1083 0.930 . S
C1069 H1057 0.930 . S
C1069 C1070 1.399 . S
C1069 C1074 1.399 . S
C1070 C1069 1.399 . S
C1070 C1071 1.376 . S
C1071 H1058 0.930 . S
C1071 C1070 1.376 . S
C1071 C1072 1.388 . S
C1072 H1059 0.930 . S
C1072 C1071 1.388 . S
C1072 C1073 1.390 . S
C1073 C1072 1.390 . S
C1073 C1074 1.394 . S
C1073 C1079 1.465 . S
C1074 C1069 1.399 . S
C1074 C1073 1.394 . S
C1074 C1075 1.516 . S
C1075 C1074 1.516 . S
C1075 C1076 1.502 . S
C1075 C1077 1.561 . S
C1075 C1078 1.526 . S
C1076 H1060 0.959 . S
C1076 H1061 0.959 . S
C1076 H1062 0.961 . S
C1076 C1075 1.502 . S
C1077 H1063 0.960 . S
C1077 H1064 0.961 . S
C1077 H1065 0.959 . S
C1077 C1075 1.561 . S
C1078 C1075 1.526 . S
C1078 C1079 1.396 . S
C1078 C1083 1.390 . S
C1079 C1073 1.465 . S
C1079 C1078 1.396 . S
C1079 C1080 1.399 . S
C1080 H1066 0.929 . S
C1080 C1079 1.399 . S
C1080 C1081 1.385 . S
C1081 H1067 0.931 . S
C1081 C1080 1.385 . S
C1081 C1082 1.389 . S
C1082 C1081 1.389 . S
C1082 C1083 1.387 . S
C1083 H1068 0.930 . S
C1083 C1078 1.390 . S
C1083 C1082 1.387 . S
H1084 C1096 0.930 . S
H1085 C1098 0.930 . S
H1086 C1099 0.930 . S
H1087 C1103 0.959 . S
H1088 C1103 0.959 . S
H1089 C1103 0.961 . S
H1090 C1104 0.960 . S
H1091 C1104 0.961 . S
H1092 C1104 0.959 . S
H1093 C1107 0.929 . S
H1094 C1108 0.931 . S
H1095 C1110 0.930 . S
C1096 H1084 0.930 . S
C1096 C1097 1.399 . S
C1096 C1101 1.399 . S
C1097 C1096 1.399 . S
C1097 C1098 1.376 . S
C1098 H1085 0.930 . S
C1098 C1097 1.376 . S
C1098 C1099 1.388 . S
C1099 H1086 0.930 . S
C1099 C1098 1.388 . S
C1099 C1100 1.390 . S
C1100 C1099 1.390 . S
C1100 C1101 1.394 . S
C1100 C1106 1.465 . S
C1101 C1096 1.399 . S
C1101 C1100 1.394 . S
C1101 C1102 1.516 . S
C1102 C1101 1.516 . S
C1102 C1103 1.502 . S
C1102 C1104 1.561 . S
C1102 C1105 1.526 . S
C1103 H1087 0.959 . S
C1103 H1088 0.959 . S
C1103 H1089 0.961 . S
C1103 C1102 1.502 . S
C1104 H1090 0.960 . S
C1104 H1091 0.961 . S
C1104 H1092 0.959 . S
C1104 C1102 1.561 . S
C1105 C1102 1.526 . S
C1105 C1106 1.396 . S
C1105 C1110 1.390 . S
C1106 C1100 1.465 . S
C1106 C1105 1.396 . S
C1106 C1107 1.399 . S
C1107 H1093 0.929 . S
C1107 C1106 1.399 . S
C1107 C1108 1.385 . S
C1108 H1094 0.931 . S
C1108 C1107 1.385 . S
C1108 C1109 1.389 . S
C1109 C1108 1.389 . S
C1109 C1110 1.387 . S
C1110 H1095 0.930 . S
C1110 C1105 1.390 . S
C1110 C1109 1.387 . S
H1111 C1123 0.930 . S
H1112 C1125 0.930 1_556 S
H1113 C1126 0.930 . S
H1114 C1130 0.959 . S
H1115 C1130 0.959 . S
H1116 C1130 0.961 . S
H1117 C1131 0.960 . S
H1118 C1131 0.961 . S
H1119 C1131 0.959 . S
H1120 C1134 0.929 . S
H1121 C1135 0.931 . S
H1122 C1137 0.930 . S
C1123 H1111 0.930 . S
C1123 C1124 1.399 . S
C1123 C1128 1.399 . S
C1124 C1123 1.399 . S
C1124 C1125 1.376 . S
C1125 H1112 0.930 1_554 S
C1125 C1124 1.376 . S
C1125 C1126 1.388 . S
C1126 H1113 0.930 . S
C1126 C1125 1.388 . S
C1126 C1127 1.390 . S
C1127 C1126 1.390 . S
C1127 C1128 1.394 . S
C1127 C1133 1.465 . S
C1128 C1123 1.399 . S
C1128 C1127 1.394 . S
C1128 C1129 1.516 . S
C1129 C1128 1.516 . S
C1129 C1130 1.502 . S
C1129 C1131 1.561 . S
C1129 C1132 1.526 . S
C1130 H1114 0.959 . S
C1130 H1115 0.959 . S
C1130 H1116 0.961 . S
C1130 C1129 1.502 . S
C1131 H1117 0.960 . S
C1131 H1118 0.961 . S
C1131 H1119 0.959 . S
C1131 C1129 1.561 . S
C1132 C1129 1.526 . S
C1132 C1133 1.396 . S
C1132 C1137 1.390 . S
C1133 C1127 1.465 . S
C1133 C1132 1.396 . S
C1133 C1134 1.399 . S
C1134 H1120 0.929 . S
C1134 C1133 1.399 . S
C1134 C1135 1.385 . S
C1135 H1121 0.931 . S
C1135 C1134 1.385 . S
C1135 C1136 1.389 . S
C1136 C1135 1.389 . S
C1136 C1137 1.387 . S
C1137 H1122 0.930 . S
C1137 C1132 1.390 . S
C1137 C1136 1.387 . S
H1138 C1150 0.930 . S
H1139 C1152 0.930 . S
H1140 C1153 0.930 . S
H1141 C1157 0.959 . S
H1142 C1157 0.959 . S
H1143 C1157 0.961 . S
H1144 C1158 0.960 . S
H1145 C1158 0.961 . S
H1146 C1158 0.959 . S
H1147 C1161 0.929 . S
H1148 C1162 0.931 . S
H1149 C1164 0.930 . S
C1150 H1138 0.930 . S
C1150 C1151 1.399 . S
C1150 C1155 1.399 . S
C1151 C1150 1.399 . S
C1151 C1152 1.376 . S
C1152 H1139 0.930 . S
C1152 C1151 1.376 . S
C1152 C1153 1.388 . S
C1153 H1140 0.930 . S
C1153 C1152 1.388 . S
C1153 C1154 1.390 . S
C1154 C1153 1.390 . S
C1154 C1155 1.394 . S
C1154 C1160 1.465 . S
C1155 C1150 1.399 . S
C1155 C1154 1.394 . S
C1155 C1156 1.516 . S
C1156 C1155 1.516 . S
C1156 C1157 1.502 . S
C1156 C1158 1.561 . S
C1156 C1159 1.526 . S
C1157 H1141 0.959 . S
C1157 H1142 0.959 . S
C1157 H1143 0.961 . S
C1157 C1156 1.502 . S
C1158 H1144 0.960 . S
C1158 H1145 0.961 . S
C1158 H1146 0.959 . S
C1158 C1156 1.561 . S
C1159 C1156 1.526 . S
C1159 C1160 1.396 . S
C1159 C1164 1.390 . S
C1160 C1154 1.465 . S
C1160 C1159 1.396 . S
C1160 C1161 1.399 . S
C1161 H1147 0.929 . S
C1161 C1160 1.399 . S
C1161 C1162 1.385 . S
C1162 H1148 0.931 . S
C1162 C1161 1.385 . S
C1162 C1163 1.389 . S
C1163 C1162 1.389 . S
C1163 C1164 1.387 . S
C1164 H1149 0.930 . S
C1164 C1159 1.390 . S
C1164 C1163 1.387 . S
H1165 C1177 0.930 . S
H1166 C1179 0.930 . S
H1167 C1180 0.930 . S
H1168 C1184 0.959 . S
H1169 C1184 0.959 . S
H1170 C1184 0.961 . S
H1171 C1185 0.960 . S
H1172 C1185 0.961 . S
H1173 C1185 0.959 . S
H1174 C1188 0.929 . S
H1175 C1189 0.931 . S
H1176 C1191 0.930 . S
C1177 H1165 0.930 . S
C1177 C1178 1.399 . S
C1177 C1182 1.399 . S
C1178 C1177 1.399 . S
C1178 C1179 1.376 . S
C1179 H1166 0.930 . S
C1179 C1178 1.376 . S
C1179 C1180 1.388 . S
C1180 H1167 0.930 . S
C1180 C1179 1.388 . S
C1180 C1181 1.390 . S
C1181 C1180 1.390 . S
C1181 C1182 1.394 . S
C1181 C1187 1.465 . S
C1182 C1177 1.399 . S
C1182 C1181 1.394 . S
C1182 C1183 1.516 . S
C1183 C1182 1.516 . S
C1183 C1184 1.502 . S
C1183 C1185 1.561 . S
C1183 C1186 1.526 . S
C1184 H1168 0.959 . S
C1184 H1169 0.959 . S
C1184 H1170 0.961 . S
C1184 C1183 1.502 . S
C1185 H1171 0.960 . S
C1185 H1172 0.961 . S
C1185 H1173 0.959 . S
C1185 C1183 1.561 . S
C1186 C1183 1.526 . S
C1186 C1187 1.396 . S
C1186 C1191 1.390 . S
C1187 C1181 1.465 . S
C1187 C1186 1.396 . S
C1187 C1188 1.399 . S
C1188 H1174 0.929 . S
C1188 C1187 1.399 . S
C1188 C1189 1.385 . S
C1189 H1175 0.931 . S
C1189 C1188 1.385 . S
C1189 C1190 1.389 . S
C1190 C1189 1.389 . S
C1190 C1191 1.387 . S
C1191 H1176 0.930 . S
C1191 C1186 1.390 . S
C1191 C1190 1.387 . S
H1192 C1204 0.930 . S
H1193 C1206 0.930 . S
H1194 C1207 0.930 . S
H1195 C1211 0.959 . S
H1196 C1211 0.959 . S
H1197 C1211 0.961 . S
H1198 C1212 0.960 . S
H1199 C1212 0.961 . S
H1200 C1212 0.959 . S
H1201 C1215 0.929 . S
H1202 C1216 0.931 . S
H1203 C1218 0.930 . S
C1204 H1192 0.930 . S
C1204 C1205 1.399 . S
C1204 C1209 1.399 . S
C1205 C1204 1.399 . S
C1205 C1206 1.376 . S
C1206 H1193 0.930 . S
C1206 C1205 1.376 . S
C1206 C1207 1.388 . S
C1207 H1194 0.930 . S
C1207 C1206 1.388 . S
C1207 C1208 1.390 . S
C1208 C1207 1.390 . S
C1208 C1209 1.394 . S
C1208 C1214 1.465 . S
C1209 C1204 1.399 . S
C1209 C1208 1.394 . S
C1209 C1210 1.516 . S
C1210 C1209 1.516 . S
C1210 C1211 1.502 . S
C1210 C1212 1.561 . S
C1210 C1213 1.526 . S
C1211 H1195 0.959 . S
C1211 H1196 0.959 . S
C1211 H1197 0.961 . S
C1211 C1210 1.502 . S
C1212 H1198 0.960 . S
C1212 H1199 0.961 . S
C1212 H1200 0.959 . S
C1212 C1210 1.561 . S
C1213 C1210 1.526 . S
C1213 C1214 1.396 . S
C1213 C1218 1.390 . S
C1214 C1208 1.465 . S
C1214 C1213 1.396 . S
C1214 C1215 1.399 . S
C1215 H1201 0.929 . S
C1215 C1214 1.399 . S
C1215 C1216 1.385 . S
C1216 H1202 0.931 . S
C1216 C1215 1.385 . S
C1216 C1217 1.389 . S
C1217 C1216 1.389 . S
C1217 C1218 1.387 . S
C1218 H1203 0.930 . S
C1218 C1213 1.390 . S
C1218 C1217 1.387 . S
H1219 C1231 0.930 . S
H1220 C1233 0.930 . S
H1221 C1234 0.930 . S
H1222 C1238 0.959 . S
H1223 C1238 0.959 . S
H1224 C1238 0.961 . S
H1225 C1239 0.960 . S
H1226 C1239 0.961 . S
H1227 C1239 0.959 . S
H1228 C1242 0.929 . S
H1229 C1243 0.931 . S
H1230 C1245 0.930 . S
C1231 H1219 0.930 . S
C1231 C1232 1.399 . S
C1231 C1236 1.399 . S
C1232 C1231 1.399 . S
C1232 C1233 1.376 . S
C1233 H1220 0.930 . S
C1233 C1232 1.376 . S
C1233 C1234 1.388 . S
C1234 H1221 0.930 . S
C1234 C1233 1.388 . S
C1234 C1235 1.390 . S
C1235 C1234 1.390 . S
C1235 C1236 1.394 . S
C1235 C1241 1.465 . S
C1236 C1231 1.399 . S
C1236 C1235 1.394 . S
C1236 C1237 1.516 . S
C1237 C1236 1.516 . S
C1237 C1238 1.502 . S
C1237 C1239 1.561 . S
C1237 C1240 1.526 . S
C1238 H1222 0.959 . S
C1238 H1223 0.959 . S
C1238 H1224 0.961 . S
C1238 C1237 1.502 . S
C1239 H1225 0.960 . S
C1239 H1226 0.961 . S
C1239 H1227 0.959 . S
C1239 C1237 1.561 . S
C1240 C1237 1.526 . S
C1240 C1241 1.396 . S
C1240 C1245 1.390 . S
C1241 C1235 1.465 . S
C1241 C1240 1.396 . S
C1241 C1242 1.399 . S
C1242 H1228 0.929 . S
C1242 C1241 1.399 . S
C1242 C1243 1.385 . S
C1243 H1229 0.931 . S
C1243 C1242 1.385 . S
C1243 C1244 1.389 . S
C1244 C1243 1.389 . S
C1244 C1245 1.387 . S
C1245 H1230 0.930 . S
C1245 C1240 1.390 . S
C1245 C1244 1.387 . S
H1246 C1258 0.915 1_556 S
H1247 C1260 0.930 . S
H1248 C1261 0.930 . S
H1249 C1265 0.959 . S
H1250 C1265 0.959 . S
H1251 C1265 0.961 . S
H1252 C1266 0.960 . S
H1253 C1266 0.961 . S
H1254 C1266 0.959 . S
H1255 C1269 0.929 . S
H1256 C1270 0.931 . S
H1257 C1272 0.930 . S
C1258 H1246 0.915 1_554 S
C1258 C1259 1.399 . S
C1258 C1263 1.399 . S
C1259 C1258 1.399 . S
C1259 C1260 1.376 . S
C1260 H1247 0.930 . S
C1260 C1259 1.376 . S
C1260 C1261 1.388 . S
C1261 H1248 0.930 . S
C1261 C1260 1.388 . S
C1261 C1262 1.390 . S
C1262 C1261 1.390 . S
C1262 C1263 1.394 . S
C1262 C1268 1.465 . S
C1263 C1258 1.399 . S
C1263 C1262 1.394 . S
C1263 C1264 1.516 . S
C1264 C1263 1.516 . S
C1264 C1265 1.502 . S
C1264 C1266 1.561 . S
C1264 C1267 1.526 . S
C1265 H1249 0.959 . S
C1265 H1250 0.959 . S
C1265 H1251 0.961 . S
C1265 C1264 1.502 . S
C1266 H1252 0.960 . S
C1266 H1253 0.961 . S
C1266 H1254 0.959 . S
C1266 C1264 1.561 . S
C1267 C1264 1.526 . S
C1267 C1268 1.396 . S
C1267 C1272 1.390 . S
C1268 C1262 1.465 . S
C1268 C1267 1.396 . S
C1268 C1269 1.399 . S
C1269 H1255 0.929 . S
C1269 C1268 1.399 . S
C1269 C1270 1.385 . S
C1270 H1256 0.931 . S
C1270 C1269 1.385 . S
C1270 C1271 1.389 . S
C1271 C1270 1.389 . S
C1271 C1272 1.387 . S
C1272 H1257 0.930 . S
C1272 C1267 1.390 . S
C1272 C1271 1.387 . S
H1273 C1285 0.930 . S
H1274 C1287 0.930 . S
H1275 C1288 0.930 . S
H1276 C1292 0.959 . S
H1277 C1292 0.959 . S
H1278 C1292 0.961 . S
H1279 C1293 0.960 . S
H1280 C1293 0.961 . S
H1281 C1293 0.959 . S
H1282 C1296 0.929 . S
H1283 C1297 0.931 . S
H1284 C1299 0.930 . S
C1285 H1273 0.930 . S
C1285 C1286 1.399 . S
C1285 C1290 1.399 . S
C1286 C1285 1.399 . S
C1286 C1287 1.376 . S
C1287 H1274 0.930 . S
C1287 C1286 1.376 . S
C1287 C1288 1.388 . S
C1288 H1275 0.930 . S
C1288 C1287 1.388 . S
C1288 C1289 1.390 . S
C1289 C1288 1.390 . S
C1289 C1290 1.394 . S
C1289 C1295 1.465 . S
C1290 C1285 1.399 . S
C1290 C1289 1.394 . S
C1290 C1291 1.516 . S
C1291 C1290 1.516 . S
C1291 C1292 1.502 . S
C1291 C1293 1.561 . S
C1291 C1294 1.526 . S
C1292 H1276 0.959 . S
C1292 H1277 0.959 . S
C1292 H1278 0.961 . S
C1292 C1291 1.502 . S
C1293 H1279 0.960 . S
C1293 H1280 0.961 . S
C1293 H1281 0.959 . S
C1293 C1291 1.561 . S
C1294 C1291 1.526 . S
C1294 C1295 1.396 . S
C1294 C1299 1.390 . S
C1295 C1289 1.465 . S
C1295 C1294 1.396 . S
C1295 C1296 1.399 . S
C1296 H1282 0.929 . S
C1296 C1295 1.399 . S
C1296 C1297 1.385 . S
C1297 H1283 0.931 . S
C1297 C1296 1.385 . S
C1297 C1298 1.389 . S
C1298 C1297 1.389 . S
C1298 C1299 1.387 . S
C1299 H1284 0.930 . S
C1299 C1294 1.390 . S
C1299 C1298 1.387 . S
H1300 C1312 0.930 . S
H1301 C1314 0.930 . S
H1302 C1315 0.930 . S
H1303 C1319 0.959 . S
H1304 C1319 0.959 . S
H1305 C1319 0.961 . S
H1306 C1320 0.960 . S
H1307 C1320 0.961 . S
H1308 C1320 0.959 . S
H1309 C1323 0.929 . S
H1310 C1324 0.931 . S
H1311 C1326 0.930 . S
C1312 H1300 0.930 . S
C1312 C1313 1.399 . S
C1312 C1317 1.399 . S
C1313 C1312 1.399 . S
C1313 C1314 1.376 . S
C1314 H1301 0.930 . S
C1314 C1313 1.376 . S
C1314 C1315 1.388 . S
C1315 H1302 0.930 . S
C1315 C1314 1.388 . S
C1315 C1316 1.390 . S
C1316 C1315 1.390 . S
C1316 C1317 1.394 . S
C1316 C1322 1.465 . S
C1317 C1312 1.399 . S
C1317 C1316 1.394 . S
C1317 C1318 1.516 . S
C1318 C1317 1.516 . S
C1318 C1319 1.502 . S
C1318 C1320 1.561 . S
C1318 C1321 1.526 . S
C1319 H1303 0.959 . S
C1319 H1304 0.959 . S
C1319 H1305 0.961 . S
C1319 C1318 1.502 . S
C1320 H1306 0.960 . S
C1320 H1307 0.961 . S
C1320 H1308 0.959 . S
C1320 C1318 1.561 . S
C1321 C1318 1.526 . S
C1321 C1322 1.396 . S
C1321 C1326 1.390 . S
C1322 C1316 1.465 . S
C1322 C1321 1.396 . S
C1322 C1323 1.399 . S
C1323 H1309 0.929 . S
C1323 C1322 1.399 . S
C1323 C1324 1.385 . S
C1324 H1310 0.931 . S
C1324 C1323 1.385 . S
C1324 C1325 1.389 . S
C1325 C1324 1.389 . S
C1325 C1326 1.387 . S
C1326 H1311 0.930 . S
C1326 C1321 1.390 . S
C1326 C1325 1.387 . S
H1327 C1339 0.930 . S
H1328 C1341 0.930 . S
H1329 C1342 0.930 . S
H1330 C1346 0.959 . S
H1331 C1346 0.959 . S
H1332 C1346 0.961 . S
H1333 C1347 0.960 . S
H1334 C1347 0.961 . S
H1335 C1347 0.959 . S
H1336 C1350 0.929 . S
H1337 C1351 0.931 . S
H1338 C1353 0.930 . S
C1339 H1327 0.930 . S
C1339 C1340 1.399 . S
C1339 C1344 1.399 . S
C1340 C1339 1.399 . S
C1340 C1341 1.376 . S
C1341 H1328 0.930 . S
C1341 C1340 1.376 . S
C1341 C1342 1.388 . S
C1342 H1329 0.930 . S
C1342 C1341 1.388 . S
C1342 C1343 1.390 . S
C1343 C1342 1.390 . S
C1343 C1344 1.394 . S
C1343 C1349 1.465 . S
C1344 C1339 1.399 . S
C1344 C1343 1.394 . S
C1344 C1345 1.516 . S
C1345 C1344 1.516 . S
C1345 C1346 1.502 . S
C1345 C1347 1.561 . S
C1345 C1348 1.526 . S
C1346 H1330 0.959 . S
C1346 H1331 0.959 . S
C1346 H1332 0.961 . S
C1346 C1345 1.502 . S
C1347 H1333 0.960 . S
C1347 H1334 0.961 . S
C1347 H1335 0.959 . S
C1347 C1345 1.561 . S
C1348 C1345 1.526 . S
C1348 C1349 1.396 . S
C1348 C1353 1.390 . S
C1349 C1343 1.465 . S
C1349 C1348 1.396 . S
C1349 C1350 1.399 . S
C1350 H1336 0.929 . S
C1350 C1349 1.399 . S
C1350 C1351 1.385 . S
C1351 H1337 0.931 . S
C1351 C1350 1.385 . S
C1351 C1352 1.389 . S
C1352 C1351 1.389 . S
C1352 C1353 1.387 . S
C1353 H1338 0.930 . S
C1353 C1348 1.390 . S
C1353 C1352 1.387 . S
H1354 C1366 0.930 . S
H1355 C1368 0.930 . S
H1356 C1369 0.930 . S
H1357 C1373 0.959 . S
H1358 C1373 0.959 . S
H1359 C1373 0.961 . S
H1360 C1374 0.960 . S
H1361 C1374 0.961 . S
H1362 C1374 0.959 . S
H1363 C1377 0.929 . S
H1364 C1378 0.931 . S
H1365 C1380 0.930 . S
C1366 H1354 0.930 . S
C1366 C1367 1.399 . S
C1366 C1371 1.399 . S
C1367 C1366 1.399 . S
C1367 C1368 1.376 . S
C1368 H1355 0.930 . S
C1368 C1367 1.376 . S
C1368 C1369 1.388 . S
C1369 H1356 0.930 . S
C1369 C1368 1.388 . S
C1369 C1370 1.390 . S
C1370 C1369 1.390 . S
C1370 C1371 1.394 . S
C1370 C1376 1.465 . S
C1371 C1366 1.399 . S
C1371 C1370 1.394 . S
C1371 C1372 1.516 . S
C1372 C1371 1.516 . S
C1372 C1373 1.502 . S
C1372 C1374 1.561 . S
C1372 C1375 1.526 . S
C1373 H1357 0.959 . S
C1373 H1358 0.959 . S
C1373 H1359 0.961 . S
C1373 C1372 1.502 . S
C1374 H1360 0.960 . S
C1374 H1361 0.961 . S
C1374 H1362 0.959 . S
C1374 C1372 1.561 . S
C1375 C1372 1.526 . S
C1375 C1376 1.396 . S
C1375 C1380 1.390 . S
C1376 C1370 1.465 . S
C1376 C1375 1.396 . S
C1376 C1377 1.399 . S
C1377 H1363 0.929 . S
C1377 C1376 1.399 . S
C1377 C1378 1.385 . S
C1378 H1364 0.931 . S
C1378 C1377 1.385 . S
C1378 C1379 1.389 . S
C1379 C1378 1.389 . S
C1379 C1380 1.387 . S
C1380 H1365 0.930 . S
C1380 C1375 1.390 . S
C1380 C1379 1.387 . S
H1381 C1393 0.930 . S
H1382 C1395 0.930 . S
H1383 C1396 0.930 . S
H1384 C1400 0.959 . S
H1385 C1400 0.959 . S
H1386 C1400 0.961 . S
H1387 C1401 0.960 . S
H1388 C1401 0.961 . S
H1389 C1401 0.959 . S
H1390 C1404 0.929 . S
H1391 C1405 0.931 . S
H1392 C1407 0.930 . S
C1393 H1381 0.930 . S
C1393 C1394 1.399 . S
C1393 C1398 1.399 . S
C1394 C1393 1.399 . S
C1394 C1395 1.376 . S
C1395 H1382 0.930 . S
C1395 C1394 1.376 . S
C1395 C1396 1.388 . S
C1396 H1383 0.930 . S
C1396 C1395 1.388 . S
C1396 C1397 1.390 . S
C1397 C1396 1.390 . S
C1397 C1398 1.394 . S
C1397 C1403 1.465 . S
C1398 C1393 1.399 . S
C1398 C1397 1.394 . S
C1398 C1399 1.516 . S
C1399 C1398 1.516 . S
C1399 C1400 1.502 . S
C1399 C1401 1.561 . S
C1399 C1402 1.526 . S
C1400 H1384 0.959 . S
C1400 H1385 0.959 . S
C1400 H1386 0.961 . S
C1400 C1399 1.502 . S
C1401 H1387 0.960 . S
C1401 H1388 0.961 . S
C1401 H1389 0.959 . S
C1401 C1399 1.561 . S
C1402 C1399 1.526 . S
C1402 C1403 1.396 . S
C1402 C1407 1.390 . S
C1403 C1397 1.465 . S
C1403 C1402 1.396 . S
C1403 C1404 1.399 . S
C1404 H1390 0.929 . S
C1404 C1403 1.399 . S
C1404 C1405 1.385 . S
C1405 H1391 0.931 . S
C1405 C1404 1.385 . S
C1405 C1406 1.389 . S
C1406 C1405 1.389 . S
C1406 C1407 1.387 . S
C1407 H1392 0.930 . S
C1407 C1402 1.390 . S
C1407 C1406 1.387 . S
H1408 C1420 0.930 . S
H1409 C1422 0.930 . S
H1410 C1423 0.930 . S
H1411 C1427 0.959 . S
H1412 C1427 0.959 . S
H1413 C1427 0.961 . S
H1414 C1428 0.960 . S
H1415 C1428 0.961 . S
H1416 C1428 0.959 . S
H1417 C1431 0.929 . S
H1418 C1432 0.931 . S
H1419 C1434 0.930 . S
C1420 H1408 0.930 . S
C1420 C1421 1.399 . S
C1420 C1425 1.399 . S
C1421 C1420 1.399 . S
C1421 C1422 1.376 . S
C1422 H1409 0.930 . S
C1422 C1421 1.376 . S
C1422 C1423 1.388 . S
C1423 H1410 0.930 . S
C1423 C1422 1.388 . S
C1423 C1424 1.390 . S
C1424 C1423 1.390 . S
C1424 C1425 1.394 . S
C1424 C1430 1.465 . S
C1425 C1420 1.399 . S
C1425 C1424 1.394 . S
C1425 C1426 1.516 . S
C1426 C1425 1.516 . S
C1426 C1427 1.502 . S
C1426 C1428 1.561 . S
C1426 C1429 1.526 . S
C1427 H1411 0.959 . S
C1427 H1412 0.959 . S
C1427 H1413 0.961 . S
C1427 C1426 1.502 . S
C1428 H1414 0.960 . S
C1428 H1415 0.961 . S
C1428 H1416 0.959 . S
C1428 C1426 1.561 . S
C1429 C1426 1.526 . S
C1429 C1430 1.396 . S
C1429 C1434 1.390 . S
C1430 C1424 1.465 . S
C1430 C1429 1.396 . S
C1430 C1431 1.399 . S
C1431 H1417 0.929 . S
C1431 C1430 1.399 . S
C1431 C1432 1.385 . S
C1432 H1418 0.931 . S
C1432 C1431 1.385 . S
C1432 C1433 1.389 . S
C1433 C1432 1.389 . S
C1433 C1434 1.387 . S
C1434 H1419 0.930 . S
C1434 C1429 1.390 . S
C1434 C1433 1.387 . S
H1435 C1447 0.930 . S
H1436 C1449 0.930 . S
H1437 C1450 0.930 . S
H1438 C1454 0.959 . S
H1439 C1454 0.959 . S
H1440 C1454 0.961 . S
H1441 C1455 0.960 . S
H1442 C1455 0.961 . S
H1443 C1455 0.959 . S
H1444 C1458 0.929 . S
H1445 C1459 0.931 . S
H1446 C1461 0.930 . S
C1447 H1435 0.930 . S
C1447 C1448 1.399 . S
C1447 C1452 1.399 . S
C1448 C1447 1.399 . S
C1448 C1449 1.376 . S
C1449 H1436 0.930 . S
C1449 C1448 1.376 . S
C1449 C1450 1.388 . S
C1450 H1437 0.930 . S
C1450 C1449 1.388 . S
C1450 C1451 1.390 . S
C1451 C1450 1.390 . S
C1451 C1452 1.394 . S
C1451 C1457 1.465 . S
C1452 C1447 1.399 . S
C1452 C1451 1.394 . S
C1452 C1453 1.516 . S
C1453 C1452 1.516 . S
C1453 C1454 1.502 . S
C1453 C1455 1.561 . S
C1453 C1456 1.526 . S
C1454 H1438 0.959 . S
C1454 H1439 0.959 . S
C1454 H1440 0.961 . S
C1454 C1453 1.502 . S
C1455 H1441 0.960 . S
C1455 H1442 0.961 . S
C1455 H1443 0.959 . S
C1455 C1453 1.561 . S
C1456 C1453 1.526 . S
C1456 C1457 1.396 . S
C1456 C1461 1.390 . S
C1457 C1451 1.465 . S
C1457 C1456 1.396 . S
C1457 C1458 1.399 . S
C1458 H1444 0.929 . S
C1458 C1457 1.399 . S
C1458 C1459 1.385 . S
C1459 H1445 0.931 . S
C1459 C1458 1.385 . S
C1459 C1460 1.389 . S
C1460 C1459 1.389 . S
C1460 C1461 1.387 . S
C1461 H1446 0.930 . S
C1461 C1456 1.390 . S
C1461 C1460 1.387 . S
H1462 C1474 0.930 . S
H1463 C1476 0.930 . S
H1464 C1477 0.930 . S
H1465 C1481 0.959 . S
H1466 C1481 0.959 . S
H1467 C1481 0.961 . S
H1468 C1482 0.960 . S
H1469 C1482 0.961 . S
H1470 C1482 0.959 . S
H1471 C1485 0.929 . S
H1472 C1486 0.931 . S
H1473 C1488 0.930 . S
C1474 H1462 0.930 . S
C1474 C1475 1.399 . S
C1474 C1479 1.399 . S
C1475 C1474 1.399 . S
C1475 C1476 1.376 . S
C1476 H1463 0.930 . S
C1476 C1475 1.376 . S
C1476 C1477 1.388 . S
C1477 H1464 0.930 . S
C1477 C1476 1.388 . S
C1477 C1478 1.390 . S
C1478 C1477 1.390 . S
C1478 C1479 1.394 . S
C1478 C1484 1.465 . S
C1479 C1474 1.399 . S
C1479 C1478 1.394 . S
C1479 C1480 1.516 . S
C1480 C1479 1.516 . S
C1480 C1481 1.502 . S
C1480 C1482 1.561 . S
C1480 C1483 1.526 . S
C1481 H1465 0.959 . S
C1481 H1466 0.959 . S
C1481 H1467 0.961 . S
C1481 C1480 1.502 . S
C1482 H1468 0.960 . S
C1482 H1469 0.961 . S
C1482 H1470 0.959 . S
C1482 C1480 1.561 . S
C1483 C1480 1.526 . S
C1483 C1484 1.396 . S
C1483 C1488 1.390 . S
C1484 C1478 1.465 . S
C1484 C1483 1.396 . S
C1484 C1485 1.399 . S
C1485 H1471 0.929 . S
C1485 C1484 1.399 . S
C1485 C1486 1.385 . S
C1486 H1472 0.931 . S
C1486 C1485 1.385 . S
C1486 C1487 1.389 . S
C1487 C1486 1.389 . S
C1487 C1488 1.387 . S
C1488 H1473 0.930 . S
C1488 C1483 1.390 . S
C1488 C1487 1.387 . S
H1489 C1501 0.912 1_554 S
H1490 C1503 0.930 . S
H1491 C1504 0.930 . S
H1492 C1508 0.959 . S
H1493 C1508 0.959 . S
H1494 C1508 0.961 . S
H1495 C1509 0.960 . S
H1496 C1509 0.961 . S
H1497 C1509 0.959 . S
H1498 C1512 0.929 . S
H1499 C1513 0.931 . S
H1500 C1515 0.930 . S
C1501 H1489 0.912 1_556 S
C1501 C1502 1.399 . S
C1501 C1506 1.399 . S
C1502 C1501 1.399 . S
C1502 C1503 1.376 . S
C1503 H1490 0.930 . S
C1503 C1502 1.376 . S
C1503 C1504 1.388 . S
C1504 H1491 0.930 . S
C1504 C1503 1.388 . S
C1504 C1505 1.390 . S
C1505 C1504 1.390 . S
C1505 C1506 1.394 . S
C1505 C1511 1.465 . S
C1506 C1501 1.399 . S
C1506 C1505 1.394 . S
C1506 C1507 1.516 . S
C1507 C1506 1.516 . S
C1507 C1508 1.502 . S
C1507 C1509 1.561 . S
C1507 C1510 1.526 . S
C1508 H1492 0.959 . S
C1508 H1493 0.959 . S
C1508 H1494 0.961 . S
C1508 C1507 1.502 . S
C1509 H1495 0.960 . S
C1509 H1496 0.961 . S
C1509 H1497 0.959 . S
C1509 C1507 1.561 . S
C1510 C1507 1.526 . S
C1510 C1511 1.396 . S
C1510 C1515 1.390 . S
C1511 C1505 1.465 . S
C1511 C1510 1.396 . S
C1511 C1512 1.399 . S
C1512 H1498 0.929 . S
C1512 C1511 1.399 . S
C1512 C1513 1.385 . S
C1513 H1499 0.931 . S
C1513 C1512 1.385 . S
C1513 C1514 1.389 . S
C1514 C1513 1.389 . S
C1514 C1515 1.387 . S
C1515 H1500 0.930 . S
C1515 C1510 1.390 . S
C1515 C1514 1.387 . S
H1516 C1528 0.930 . S
H1517 C1530 0.930 . S
H1518 C1531 0.930 . S
H1519 C1535 0.959 . S
H1520 C1535 0.959 . S
H1521 C1535 0.961 . S
H1522 C1536 0.960 . S
H1523 C1536 0.961 . S
H1524 C1536 0.959 . S
H1525 C1539 0.929 . S
H1526 C1540 0.931 1_554 S
H1527 C1542 0.930 . S
C1528 H1516 0.930 . S
C1528 C1529 1.399 . S
C1528 C1533 1.399 . S
C1529 C1528 1.399 . S
C1529 C1530 1.376 . S
C1530 H1517 0.930 . S
C1530 C1529 1.376 . S
C1530 C1531 1.388 . S
C1531 H1518 0.930 . S
C1531 C1530 1.388 . S
C1531 C1532 1.390 . S
C1532 C1531 1.390 . S
C1532 C1533 1.394 . S
C1532 C1538 1.465 . S
C1533 C1528 1.399 . S
C1533 C1532 1.394 . S
C1533 C1534 1.516 . S
C1534 C1533 1.516 . S
C1534 C1535 1.502 . S
C1534 C1536 1.561 . S
C1534 C1537 1.526 . S
C1535 H1519 0.959 . S
C1535 H1520 0.959 . S
C1535 H1521 0.961 . S
C1535 C1534 1.502 . S
C1536 H1522 0.960 . S
C1536 H1523 0.961 . S
C1536 H1524 0.959 . S
C1536 C1534 1.561 . S
C1537 C1534 1.526 . S
C1537 C1538 1.396 . S
C1537 C1542 1.390 . S
C1538 C1532 1.465 . S
C1538 C1537 1.396 . S
C1538 C1539 1.399 . S
C1539 H1525 0.929 . S
C1539 C1538 1.399 . S
C1539 C1540 1.385 . S
C1540 H1526 0.931 1_556 S
C1540 C1539 1.385 . S
C1540 C1541 1.389 . S
C1541 C1540 1.389 . S
C1541 C1542 1.387 . S
C1542 H1527 0.930 . S
C1542 C1537 1.390 . S
C1542 C1541 1.387 . S
H1543 C1555 0.930 . S
H1544 C1557 0.930 . S
H1545 C1558 0.930 . S
H1546 C1562 0.959 . S
H1547 C1562 0.959 . S
H1548 C1562 0.961 . S
H1549 C1563 0.960 . S
H1550 C1563 0.961 . S
H1551 C1563 0.959 . S
H1552 C1566 0.929 . S
H1553 C1567 0.931 . S
H1554 C1569 0.930 . S
C1555 H1543 0.930 . S
C1555 C1556 1.399 . S
C1555 C1560 1.399 . S
C1556 C1555 1.399 . S
C1556 C1557 1.376 . S
C1557 H1544 0.930 . S
C1557 C1556 1.376 . S
C1557 C1558 1.388 . S
C1558 H1545 0.930 . S
C1558 C1557 1.388 . S
C1558 C1559 1.390 . S
C1559 C1558 1.390 . S
C1559 C1560 1.394 . S
C1559 C1565 1.465 . S
C1560 C1555 1.399 . S
C1560 C1559 1.394 . S
C1560 C1561 1.516 . S
C1561 C1560 1.516 . S
C1561 C1562 1.502 . S
C1561 C1563 1.561 . S
C1561 C1564 1.526 . S
C1562 H1546 0.959 . S
C1562 H1547 0.959 . S
C1562 H1548 0.961 . S
C1562 C1561 1.502 . S
C1563 H1549 0.960 . S
C1563 H1550 0.961 . S
C1563 H1551 0.959 . S
C1563 C1561 1.561 . S
C1564 C1561 1.526 . S
C1564 C1565 1.396 . S
C1564 C1569 1.390 . S
C1565 C1559 1.465 . S
C1565 C1564 1.396 . S
C1565 C1566 1.399 . S
C1566 H1552 0.929 . S
C1566 C1565 1.399 . S
C1566 C1567 1.385 . S
C1567 H1553 0.931 . S
C1567 C1566 1.385 . S
C1567 C1568 1.389 . S
C1568 C1567 1.389 . S
C1568 C1569 1.387 . S
C1569 H1554 0.930 . S
C1569 C1564 1.390 . S
C1569 C1568 1.387 . S
H1570 C1582 0.930 . S
H1571 C1584 0.930 . S
H1572 C1585 0.930 . S
H1573 C1589 0.959 . S
H1574 C1589 0.959 . S
H1575 C1589 0.961 . S
H1576 C1590 0.960 . S
H1577 C1590 0.961 . S
H1578 C1590 0.959 . S
H1579 C1593 0.929 . S
H1580 C1594 0.931 . S
H1581 C1596 0.930 . S
C1582 H1570 0.930 . S
C1582 C1583 1.399 . S
C1582 C1587 1.399 . S
C1583 C1582 1.399 . S
C1583 C1584 1.376 . S
C1584 H1571 0.930 . S
C1584 C1583 1.376 . S
C1584 C1585 1.388 . S
C1585 H1572 0.930 . S
C1585 C1584 1.388 . S
C1585 C1586 1.390 . S
C1586 C1585 1.390 . S
C1586 C1587 1.394 . S
C1586 C1592 1.465 . S
C1587 C1582 1.399 . S
C1587 C1586 1.394 . S
C1587 C1588 1.516 . S
C1588 C1587 1.516 . S
C1588 C1589 1.502 . S
C1588 C1590 1.561 . S
C1588 C1591 1.526 . S
C1589 H1573 0.959 . S
C1589 H1574 0.959 . S
C1589 H1575 0.961 . S
C1589 C1588 1.502 . S
C1590 H1576 0.960 . S
C1590 H1577 0.961 . S
C1590 H1578 0.959 . S
C1590 C1588 1.561 . S
C1591 C1588 1.526 . S
C1591 C1592 1.396 . S
C1591 C1596 1.390 . S
C1592 C1586 1.465 . S
C1592 C1591 1.396 . S
C1592 C1593 1.399 . S
C1593 H1579 0.929 . S
C1593 C1592 1.399 . S
C1593 C1594 1.385 . S
C1594 H1580 0.931 . S
C1594 C1593 1.385 . S
C1594 C1595 1.389 . S
C1595 C1594 1.389 . S
C1595 C1596 1.387 . S
C1596 H1581 0.930 . S
C1596 C1591 1.390 . S
C1596 C1595 1.387 . S
H1597 C1609 0.930 . S
H1598 C1611 0.930 . S
H1599 C1612 0.930 . S
H1600 C1616 0.959 . S
H1601 C1616 0.959 . S
H1602 C1616 0.961 . S
H1603 C1617 0.960 . S
H1604 C1617 0.961 . S
H1605 C1617 0.959 . S
H1606 C1620 0.929 . S
H1607 C1621 0.931 . S
H1608 C1623 0.930 . S
C1609 H1597 0.930 . S
C1609 C1610 1.399 . S
C1609 C1614 1.399 . S
C1610 C1609 1.399 . S
C1610 C1611 1.376 . S
C1611 H1598 0.930 . S
C1611 C1610 1.376 . S
C1611 C1612 1.388 . S
C1612 H1599 0.930 . S
C1612 C1611 1.388 . S
C1612 C1613 1.390 . S
C1613 C1612 1.390 . S
C1613 C1614 1.394 . S
C1613 C1619 1.465 . S
C1614 C1609 1.399 . S
C1614 C1613 1.394 . S
C1614 C1615 1.516 . S
C1615 C1614 1.516 . S
C1615 C1616 1.502 . S
C1615 C1617 1.561 . S
C1615 C1618 1.526 . S
C1616 H1600 0.959 . S
C1616 H1601 0.959 . S
C1616 H1602 0.961 . S
C1616 C1615 1.502 . S
C1617 H1603 0.960 . S
C1617 H1604 0.961 . S
C1617 H1605 0.959 . S
C1617 C1615 1.561 . S
C1618 C1615 1.526 . S
C1618 C1619 1.396 . S
C1618 C1623 1.390 . S
C1619 C1613 1.465 . S
C1619 C1618 1.396 . S
C1619 C1620 1.399 . S
C1620 H1606 0.929 . S
C1620 C1619 1.399 . S
C1620 C1621 1.385 . S
C1621 H1607 0.931 . S
C1621 C1620 1.385 . S
C1621 C1622 1.389 . S
C1622 C1621 1.389 . S
C1622 C1623 1.387 . S
C1623 H1608 0.930 . S
C1623 C1618 1.390 . S
C1623 C1622 1.387 . S
C557 C33 0.311 . S
C569 C169 0.514 . S
C584 C203 0.452 . S
C596 C67 0.406 . S
C611 C237 0.312 . S
C623 C101 0.513 . S
C638 C135 0.445 . S
C650 C271 0.391 . S
C665 C305 0.438 . S
C677 C373 0.421 . S
C692 C407 0.320 . S
C704 C339 0.502 . S
C719 C441 0.517 . S
C731 C509 0.309 . S
C746 C475 0.308 . S
C758 C543 0.512 . S
C773 C20 2.186 . S
C785 C190 2.187 1_554 S
C800 C224 2.187 . S
C812 C54 2.186 . S
C827 C258 2.193 . S
C839 C88 2.194 . S
C854 C122 2.188 1_556 S
C866 C156 2.189 . S
C881 C145 0.814 . S
C893 C349 0.813 . S
C908 C77 0.816 . S
C920 C281 0.811 . S
C935 C213 0.797 . S
C947 C383 0.779 . S
C962 C9 0.781 . S
C974 C315 0.792 . S
C989 C428 2.189 . S
C1001 C292 2.188 . S
C1016 C360 2.171 1_556 S
C1028 C530 2.171 . S
C1043 C326 2.177 1_554 S
C1055 C462 2.177 . S
C1070 C394 2.186 . S
C1082 C496 2.186 . S
C1097 C485 0.806 . S
C1109 C43 0.776 . S
C1124 C179 0.822 . S
C1136 C451 0.781 . S
C1151 C111 0.823 . S
C1163 C519 0.799 . S
C1178 C417 0.818 . S
C1190 C247 0.778 . S
C1205 C175 1.138 . S
C1217 C5 1.072 . S
C1232 C209 1.052 . S
C1244 C39 1.053 . S
C1259 C73 1.158 . S
C1271 C243 1.099 . S
C1286 C107 1.155 . S
C1298 C141 1.094 . S
C1313 C138 2.679 . S
C1325 C342 2.669 . S
C1340 C274 2.684 . S
C1352 C70 2.681 1_554 S
C1367 C376 2.684 . S
C1379 C206 2.681 1_556 S
C1394 C2 2.667 . S
C1406 C308 2.677 . S
C1421 C413 1.167 . S
C1433 C277 1.131 . S
C1448 C345 1.052 . S
C1460 C515 1.114 . S
C1475 C447 1.165 . S
C1487 C311 1.143 . S
C1502 C481 1.145 . S
C1514 C379 1.080 . S
C1529 C36 2.670 . S
C1541 C478 2.680 1_556 S
C1556 C172 2.659 . S
C1568 C444 2.666 . S
C1583 C512 2.675 . S
C1595 C104 2.665 . S
C1610 C240 2.679 . S
C1622 C410 2.684 1_554 S
