# Generated by pormake.
# Topology wip, (6)-cn, num edge types: 1
# Building blocks:
#     Node 0, Type 0, BuildingBlock: MIDCAF_clean_sbu_0, # of connection points: 6
#     Node 1, Type 0, BuildingBlock: MIDCAF_clean_sbu_0, # of connection points: 6
#     Node 2, Type 0, BuildingBlock: MIDCAF_clean_sbu_0, # of connection points: 6
#     Node 3, Type 0, BuildingBlock: MIDCAF_clean_sbu_0, # of connection points: 6
#     Node 4, Type 0, BuildingBlock: MIDCAF_clean_sbu_0, # of connection points: 6
#     Node 5, Type 0, BuildingBlock: MIDCAF_clean_sbu_0, # of connection points: 6
#     Node 6, Type 0, BuildingBlock: MIDCAF_clean_sbu_0, # of connection points: 6
#     Node 7, Type 0, BuildingBlock: MIDCAF_clean_sbu_0, # of connection points: 6
#     Node 8, Type 0, BuildingBlock: MIDCAF_clean_sbu_0, # of connection points: 6
#     Node 9, Type 0, BuildingBlock: MIDCAF_clean_sbu_0, # of connection points: 6
#     Node 10, Type 0, BuildingBlock: MIDCAF_clean_sbu_0, # of connection points: 6
#     Node 11, Type 0, BuildingBlock: MIDCAF_clean_sbu_0, # of connection points: 6
#     Node 12, Type 0, BuildingBlock: MIDCAF_clean_sbu_0, # of connection points: 6
#     Node 13, Type 0, BuildingBlock: MIDCAF_clean_sbu_0, # of connection points: 6
#     Node 14, Type 0, BuildingBlock: MIDCAF_clean_sbu_0, # of connection points: 6
#     Node 15, Type 0, BuildingBlock: MIDCAF_clean_sbu_0, # of connection points: 6
#     Node 16, Type 0, BuildingBlock: MIDCAF_clean_sbu_0, # of connection points: 6
#     Node 17, Type 0, BuildingBlock: MIDCAF_clean_sbu_0, # of connection points: 6
#     Node 18, Type 0, BuildingBlock: MIDCAF_clean_sbu_0, # of connection points: 6
#     Node 19, Type 0, BuildingBlock: MIDCAF_clean_sbu_0, # of connection points: 6
#     Node 20, Type 0, BuildingBlock: MIDCAF_clean_sbu_0, # of connection points: 6
#     Node 21, Type 0, BuildingBlock: MIDCAF_clean_sbu_0, # of connection points: 6
#     Node 22, Type 0, BuildingBlock: MIDCAF_clean_sbu_0, # of connection points: 6
#     Node 23, Type 0, BuildingBlock: MIDCAF_clean_sbu_0, # of connection points: 6
#     Node 24, Type 0, BuildingBlock: MIDCAF_clean_sbu_0, # of connection points: 6
#     Node 25, Type 0, BuildingBlock: MIDCAF_clean_sbu_0, # of connection points: 6
#     Node 26, Type 0, BuildingBlock: MIDCAF_clean_sbu_0, # of connection points: 6
#     Node 27, Type 0, BuildingBlock: MIDCAF_clean_sbu_0, # of connection points: 6
#     Node 28, Type 0, BuildingBlock: MIDCAF_clean_sbu_0, # of connection points: 6
#     Node 29, Type 0, BuildingBlock: MIDCAF_clean_sbu_0, # of connection points: 6
#     Node 30, Type 0, BuildingBlock: MIDCAF_clean_sbu_0, # of connection points: 6
#     Node 31, Type 0, BuildingBlock: MIDCAF_clean_sbu_0, # of connection points: 6
#     Edge 32, Type (0, 0), None
#     Edge 33, Type (0, 0), None
#     Edge 34, Type (0, 0), None
#     Edge 35, Type (0, 0), None
#     Edge 36, Type (0, 0), None
#     Edge 37, Type (0, 0), None
#     Edge 38, Type (0, 0), None
#     Edge 39, Type (0, 0), None
#     Edge 40, Type (0, 0), None
#     Edge 41, Type (0, 0), None
#     Edge 42, Type (0, 0), None
#     Edge 43, Type (0, 0), None
#     Edge 44, Type (0, 0), None
#     Edge 45, Type (0, 0), None
#     Edge 46, Type (0, 0), None
#     Edge 47, Type (0, 0), None
#     Edge 48, Type (0, 0), None
#     Edge 49, Type (0, 0), None
#     Edge 50, Type (0, 0), None
#     Edge 51, Type (0, 0), None
#     Edge 52, Type (0, 0), None
#     Edge 53, Type (0, 0), None
#     Edge 54, Type (0, 0), None
#     Edge 55, Type (0, 0), None
#     Edge 56, Type (0, 0), None
#     Edge 57, Type (0, 0), None
#     Edge 58, Type (0, 0), None
#     Edge 59, Type (0, 0), None
#     Edge 60, Type (0, 0), None
#     Edge 61, Type (0, 0), None
#     Edge 62, Type (0, 0), None
#     Edge 63, Type (0, 0), None
#     Edge 64, Type (0, 0), None
#     Edge 65, Type (0, 0), None
#     Edge 66, Type (0, 0), None
#     Edge 67, Type (0, 0), None
#     Edge 68, Type (0, 0), None
#     Edge 69, Type (0, 0), None
#     Edge 70, Type (0, 0), None
#     Edge 71, Type (0, 0), None
#     Edge 72, Type (0, 0), None
#     Edge 73, Type (0, 0), None
#     Edge 74, Type (0, 0), None
#     Edge 75, Type (0, 0), None
#     Edge 76, Type (0, 0), None
#     Edge 77, Type (0, 0), None
#     Edge 78, Type (0, 0), None
#     Edge 79, Type (0, 0), None
#     Edge 80, Type (0, 0), None
#     Edge 81, Type (0, 0), None
#     Edge 82, Type (0, 0), None
#     Edge 83, Type (0, 0), None
#     Edge 84, Type (0, 0), None
#     Edge 85, Type (0, 0), None
#     Edge 86, Type (0, 0), None
#     Edge 87, Type (0, 0), None
#     Edge 88, Type (0, 0), None
#     Edge 89, Type (0, 0), None
#     Edge 90, Type (0, 0), None
#     Edge 91, Type (0, 0), None
#     Edge 92, Type (0, 0), None
#     Edge 93, Type (0, 0), None
#     Edge 94, Type (0, 0), None
#     Edge 95, Type (0, 0), None
#     Edge 96, Type (0, 0), None
#     Edge 97, Type (0, 0), None
#     Edge 98, Type (0, 0), None
#     Edge 99, Type (0, 0), None
#     Edge 100, Type (0, 0), None
#     Edge 101, Type (0, 0), None
#     Edge 102, Type (0, 0), None
#     Edge 103, Type (0, 0), None
#     Edge 104, Type (0, 0), None
#     Edge 105, Type (0, 0), None
#     Edge 106, Type (0, 0), None
#     Edge 107, Type (0, 0), None
#     Edge 108, Type (0, 0), None
#     Edge 109, Type (0, 0), None
#     Edge 110, Type (0, 0), None
#     Edge 111, Type (0, 0), None
#     Edge 112, Type (0, 0), None
#     Edge 113, Type (0, 0), None
#     Edge 114, Type (0, 0), None
#     Edge 115, Type (0, 0), None
#     Edge 116, Type (0, 0), None
#     Edge 117, Type (0, 0), None
#     Edge 118, Type (0, 0), None
#     Edge 119, Type (0, 0), None
#     Edge 120, Type (0, 0), None
#     Edge 121, Type (0, 0), None
#     Edge 122, Type (0, 0), None
#     Edge 123, Type (0, 0), None
#     Edge 124, Type (0, 0), None
#     Edge 125, Type (0, 0), None
#     Edge 126, Type (0, 0), None
#     Edge 127, Type (0, 0), None
# Relax obj value: 0.755
# Max RMSD: 0.313
# Mean RMSD: 0.313
data_MOF--net-wip--node1-MIDCAF_clean_sbu_0--edge1-none
_symmetry_space_group_name_H-M    P1
_symmetry_Int_Tables_number       1
_symmetry_cell_setting            triclinic
loop_
_symmetry_equiv_pos_as_xyz
'x, y, z'
_cell_length_a     33.838012
_cell_length_b     33.830082
_cell_length_c     10.556653
_cell_angle_alpha  89.965154
_cell_angle_beta   90.067956
_cell_angle_gamma 90.000954
loop_
_atom_site_label
_atom_site_type_symbol
_atom_site_fract_x
_atom_site_fract_y
_atom_site_fract_z
_atom_type_partial_charge
Zn0 Zn 0.98568 0.31757 0.01368 0.0
Zn1 Zn 0.04826 0.51837 0.05732 0.0
Zn2 Zn 0.0549 0.42064 0.03826 0.0
C3 C 0.10704 0.49208 0.17876 0.0
C4 C 0.98854 0.45907 0.10847 0.0
O5 O -0.00296 0.39204 0.9755 0.0
O6 O 0.95435 0.35239 0.88495 0.0
C7 C 0.07308 0.33621 0.07016 0.0
O8 O 0.08792 0.45899 0.17705 0.0
O9 O 0.1063 0.514 0.08263 0.0
O10 O 0.01838 0.47551 0.15281 0.0
O11 O -0.00562 0.42406 0.0731 0.0
O12 O 0.04568 0.33496 0.98757 0.0
O13 O 0.09045 0.36932 0.08715 0.0
O14 O 0.00723 0.37996 0.13231 0.0
O15 O 0.96648 0.33264 0.19262 0.0
C16 C 0.9843 0.36458 0.21866 0.0
O17 O 0.06232 0.44949 0.85182 0.0
O18 O 0.05178 0.51456 0.87248 0.0
C19 C 0.97194 0.38558 0.88417 0.0
C20 C 0.05921 0.48471 0.80496 0.0
Zn21 Zn 0.91757 0.73561 0.26358 0.0
Zn22 Zn 0.71684 0.79798 0.30652 0.0
Zn23 Zn 0.81448 0.80478 0.28769 0.0
C24 C 0.74295 0.85681 0.42775 0.0
C25 C 0.77612 0.7383 0.35811 0.0
O26 O 0.84311 0.74697 0.22495 0.0
O27 O 0.88279 0.70429 0.13477 0.0
C28 C 0.89894 0.82301 0.31993 0.0
O29 O 0.77604 0.83772 0.42623 0.0
O30 O 0.72102 0.85603 0.33162 0.0
O31 O 0.75966 0.7681 0.4025 0.0
O32 O 0.81108 0.74423 0.3225 0.0
O33 O 0.90022 0.79564 0.23737 0.0
O34 O 0.86581 0.84032 0.33689 0.0
O35 O 0.85517 0.7571 0.38176 0.0
O36 O 0.90247 0.71636 0.44252 0.0
C37 C 0.87053 0.73419 0.46833 0.0
O38 O 0.7857 0.81224 0.10108 0.0
O39 O 0.72068 0.80152 0.12167 0.0
C40 C 0.84959 0.72186 0.1338 0.0
C41 C 0.7505 0.80904 0.05417 0.0
Zn42 Zn 0.43709 0.4668 0.5564 0.0
Zn43 Zn 0.49932 0.66762 0.51274 0.0
Zn44 Zn 0.43028 0.56443 0.53722 0.0
C45 C 0.50091 0.62048 0.71745 0.0
C46 C 0.41198 0.64888 0.56994 0.0
O47 O 0.42276 0.53569 0.35068 0.0
O48 O 0.43354 0.47066 0.37154 0.0
C49 C 0.49678 0.52607 0.60766 0.0
O50 O 0.47799 0.60514 0.63092 0.0
O51 O 0.51871 0.65245 0.69157 0.0
O52 O 0.43926 0.65028 0.48713 0.0
O53 O 0.39473 0.6157 0.58683 0.0
O54 O 0.467 0.50961 0.65221 0.0
O55 O 0.49083 0.56104 0.57184 0.0
O56 O 0.39738 0.52598 0.67594 0.0
O57 O 0.37906 0.47097 0.5815 0.0
C58 C 0.37828 0.49289 0.67754 0.0
O59 O 0.48799 0.59315 0.47418 0.0
O60 O 0.53059 0.6329 0.38381 0.0
C61 C 0.42598 0.50049 0.3039 0.0
C62 C 0.51308 0.59966 0.38302 0.0
Zn63 Zn 0.76834 0.18687 0.80727 0.0
Zn64 Zn 0.56757 0.24941 0.7628 0.0
Zn65 Zn 0.67065 0.18023 0.78777 0.0
C66 C 0.61466 0.25092 0.96773 0.0
C67 C 0.58623 0.16202 0.82011 0.0
O68 O 0.69948 0.17274 0.60142 0.0
O69 O 0.76453 0.18333 0.6224 0.0
C70 C 0.70909 0.24664 0.85798 0.0
O71 O 0.63 0.22797 0.8814 0.0
O72 O 0.58272 0.26874 0.94163 0.0
O73 O 0.58489 0.18935 0.73728 0.0
O74 O 0.61936 0.14469 0.83709 0.0
O75 O 0.72552 0.21681 0.90254 0.0
O76 O 0.67409 0.24078 0.82236 0.0
O77 O 0.70899 0.14724 0.92676 0.0
O78 O 0.76395 0.12882 0.83251 0.0
C79 C 0.74205 0.1281 0.92855 0.0
O80 O 0.64201 0.23802 0.72465 0.0
O81 O 0.60233 0.28068 0.63392 0.0
C82 C 0.73469 0.17588 0.55473 0.0
C83 C 0.63553 0.26311 0.63332 0.0
Zn84 Zn 0.0554 0.46943 0.41018 0.0
Zn85 Zn 0.97378 0.6773 0.47136 0.0
Zn86 Zn 0.04911 0.56551 0.45782 0.0
C87 C 0.9777 0.6208 0.28156 0.0
C88 C 0.0556 0.66104 0.41977 0.0
O89 O 0.05745 0.52775 0.62658 0.0
O90 O 0.05712 0.4622 0.59589 0.0
C91 C 0.98836 0.52584 0.38687 0.0
O92 O 0.00047 0.60758 0.37279 0.0
O93 O 0.95703 0.65146 0.30262 0.0
O94 O 0.03352 0.69117 0.4342 0.0
O95 O 0.04303 0.6283 0.46569 0.0
O96 O 0.02071 0.51399 0.34388 0.0
O97 O 0.98881 0.56046 0.42723 0.0
O98 O 0.08829 0.54505 0.30571 0.0
O99 O 0.11041 0.49104 0.39623 0.0
C100 C 0.10898 0.51308 0.30019 0.0
O101 O 0.00131 0.60453 0.52323 0.0
O102 O 0.95868 0.64125 0.62484 0.0
C103 C 0.0596 0.49183 0.66854 0.0
C104 C 0.97755 0.60892 0.61899 0.0
Zn105 Zn 0.76572 0.80531 0.65941 0.0
Zn106 Zn 0.55793 0.72344 0.72088 0.0
Zn107 Zn 0.6696 0.79894 0.70711 0.0
C108 C 0.61436 0.72752 0.53093 0.0
C109 C 0.57407 0.80535 0.66969 0.0
O110 O 0.70744 0.80726 0.87577 0.0
O111 O 0.77298 0.80703 0.84511 0.0
C112 C 0.7093 0.73824 0.63636 0.0
O113 O 0.62757 0.75029 0.62207 0.0
O114 O 0.58373 0.70681 0.55208 0.0
O115 O 0.54398 0.78321 0.68408 0.0
O116 O 0.60686 0.79273 0.71524 0.0
O117 O 0.72113 0.77062 0.59337 0.0
O118 O 0.67468 0.73865 0.67656 0.0
O119 O 0.68998 0.83818 0.55483 0.0
O120 O 0.744 0.8603 0.6452 0.0
C121 C 0.72197 0.85884 0.54914 0.0
O122 O 0.63067 0.75105 0.77257 0.0
O123 O 0.59404 0.70832 0.8743 0.0
C124 C 0.74336 0.80945 0.91774 0.0
C125 C 0.62632 0.72725 0.86841 0.0
Zn126 Zn 0.42969 0.51573 0.90909 0.0
Zn127 Zn 0.51152 0.30783 0.97169 0.0
Zn128 Zn 0.4361 0.41956 0.95729 0.0
C129 C 0.50754 0.3643 0.78149 0.0
C130 C 0.42967 0.32408 0.92004 0.0
O131 O 0.42779 0.45744 0.1257 0.0
O132 O 0.42796 0.523 0.09474 0.0
C133 C 0.49675 0.45929 0.88648 0.0
O134 O 0.48476 0.37753 0.87247 0.0
O135 O 0.52821 0.33365 0.80288 0.0
O136 O 0.45176 0.29394 0.93454 0.0
O137 O 0.44228 0.35682 0.96582 0.0
O138 O 0.46437 0.47113 0.84345 0.0
O139 O 0.49636 0.42463 0.92671 0.0
O140 O 0.39684 0.43989 0.80491 0.0
O141 O 0.37474 0.49392 0.89496 0.0
C142 C 0.3762 0.47189 0.79901 0.0
O143 O 0.48394 0.38058 0.02299 0.0
O144 O 0.52664 0.34392 0.125 0.0
C145 C 0.42557 0.49337 0.1675 0.0
C146 C 0.50773 0.37622 0.11889 0.0
Zn147 Zn 0.7194 0.17969 0.15987 0.0
Zn148 Zn 0.92731 0.26127 0.22217 0.0
Zn149 Zn 0.8155 0.18598 0.20799 0.0
C150 C 0.87078 0.25743 0.03213 0.0
C151 C 0.91097 0.17945 0.17006 0.0
O152 O 0.77772 0.17765 0.37656 0.0
O153 O 0.71217 0.17796 0.34554 0.0
C154 C 0.77583 0.24673 0.13698 0.0
O155 O 0.85755 0.23464 0.12319 0.0
O156 O 0.90144 0.27808 0.05342 0.0
O157 O 0.94112 0.20152 0.18469 0.0
O158 O 0.87827 0.19202 0.2161 0.0
O159 O 0.76397 0.21438 0.09391 0.0
O160 O 0.81046 0.24628 0.17743 0.0
O161 O 0.79505 0.14678 0.05575 0.0
O162 O 0.74105 0.12468 0.146 0.0
C163 C 0.76306 0.12611 0.05004 0.0
O164 O 0.85455 0.23374 0.27365 0.0
O165 O 0.89128 0.27636 0.37555 0.0
C166 C 0.7418 0.17549 0.41833 0.0
C167 C 0.85895 0.25751 0.36949 0.0
Zn168 Zn -0.0071 0.54998 0.95372 0.0
Zn169 Zn 0.84456 0.55535 0.00182 0.0
Zn170 Zn 0.92515 0.55789 0.97435 0.0
C171 C 0.88491 0.51049 0.78632 0.0
C172 C 0.87726 0.62924 0.9414 0.0
O173 O 0.9454 0.6082 0.08154 0.0
O174 O -0.00284 0.57217 0.13358 0.0
C175 C 0.96482 0.48357 0.02869 0.0
O176 O 0.9153 0.53301 0.79657 0.0
O177 O 0.85471 0.51552 0.85591 0.0
O178 O 0.8447 0.61642 0.98357 0.0
O179 O 0.90773 0.61697 0.0022 0.0
O180 O 0.9788 0.49205 0.92187 0.0
O181 O 0.94371 0.50957 0.08429 0.0
O182 O 0.94485 0.56455 0.76775 0.0
O183 O 0.00553 0.58469 0.80668 0.0
C184 C 0.97695 0.58215 0.73056 0.0
O185 O 0.90435 0.51471 0.1254 0.0
O186 O 0.84155 0.52642 0.16874 0.0
C187 C 0.97379 0.60022 0.15896 0.0
C188 C 0.87312 0.50759 0.19145 0.0
Zn189 Zn 0.18538 0.24288 0.70321 0.0
Zn190 Zn 0.17981 0.09469 0.752 0.0
Zn191 Zn 0.17738 0.17516 0.72412 0.0
C192 C 0.22483 0.1349 0.53661 0.0
C193 C 0.10598 0.12741 0.69063 0.0
O194 O 0.12708 0.19547 0.83104 0.0
O195 O 0.16318 0.24718 0.88299 0.0
C196 C 0.25174 0.21474 0.77851 0.0
O197 O 0.20232 0.1653 0.54654 0.0
O198 O 0.21975 0.1047 0.60635 0.0
O199 O 0.11878 0.0948 0.73285 0.0
O200 O 0.11825 0.15785 0.75143 0.0
O201 O 0.24328 0.22868 0.67153 0.0
O202 O 0.22569 0.19368 0.83414 0.0
O203 O 0.17085 0.19485 0.51745 0.0
O204 O 0.15067 0.25551 0.55603 0.0
C205 C 0.15324 0.22695 0.48003 0.0
O206 O 0.22047 0.15433 0.87553 0.0
O207 O 0.2086 0.09155 0.91926 0.0
C208 C 0.1351 0.22384 0.90838 0.0
C209 C 0.22748 0.1231 0.94186 0.0
Zn210 Zn 0.49237 0.43516 0.45325 0.0
Zn211 Zn 0.64054 0.4297 0.50256 0.0
Zn212 Zn 0.5601 0.42718 0.4744 0.0
C213 C 0.60027 0.47469 0.28683 0.0
C214 C 0.60798 0.35584 0.44128 0.0
O215 O 0.53983 0.37686 0.58157 0.0
O216 O 0.48812 0.41295 0.63316 0.0
C217 C 0.52048 0.50155 0.52819 0.0
O218 O 0.56991 0.45212 0.29672 0.0
O219 O 0.63045 0.46965 0.35672 0.0
O220 O 0.64056 0.36865 0.48363 0.0
O221 O 0.57752 0.36807 0.50195 0.0
O222 O 0.50651 0.49309 0.42126 0.0
O223 O 0.54155 0.47552 0.58406 0.0
O224 O 0.5404 0.4206 0.26771 0.0
O225 O 0.47974 0.40044 0.30624 0.0
C226 C 0.50831 0.40299 0.23033 0.0
O227 O 0.58087 0.4703 0.62568 0.0
O228 O 0.64363 0.45847 0.6697 0.0
C229 C 0.51147 0.38488 0.6588 0.0
C230 C 0.61207 0.47733 0.6921 0.0
Zn231 Zn 0.29985 0.74229 0.20367 0.0
Zn232 Zn 0.30528 0.8906 0.2518 0.0
Zn233 Zn 0.30778 0.81003 0.22425 0.0
C234 C 0.2604 0.85025 0.03605 0.0
C235 C 0.37911 0.85791 0.19153 0.0
O236 O 0.35806 0.78978 0.33189 0.0
O237 O 0.32199 0.73804 0.38369 0.0
C238 C 0.23343 0.7704 0.27805 0.0
O239 O 0.28292 0.81985 0.04632 0.0
O240 O 0.26544 0.88045 0.10573 0.0
O241 O 0.36633 0.8905 0.23365 0.0
O242 O 0.36684 0.82746 0.25234 0.0
O243 O 0.24195 0.75642 0.17127 0.0
O244 O 0.25943 0.79151 0.33382 0.0
O245 O 0.31446 0.79028 0.0177 0.0
O246 O 0.33462 0.72962 0.05697 0.0
C247 C 0.33209 0.75816 0.98073 0.0
O248 O 0.26459 0.83088 0.37507 0.0
O249 O 0.27638 0.89367 0.4186 0.0
C250 C 0.35005 0.76141 0.40926 0.0
C251 C 0.25752 0.86212 0.44114 0.0
Zn252 Zn 0.99226 0.43338 0.54359 0.0
Zn253 Zn 0.8451 0.4309 0.4855 0.0
Zn254 Zn 0.92499 0.42738 0.51142 0.0
C255 C 0.88468 0.47809 0.69483 0.0
C256 C 0.87837 0.35638 0.55071 0.0
O257 O 0.94854 0.37635 0.41274 0.0
O258 O 0.00146 0.41192 0.37001 0.0
C259 C 0.96623 0.49842 0.45832 0.0
O260 O 0.91478 0.45518 0.68558 0.0
O261 O 0.85403 0.47231 0.62784 0.0
O262 O 0.84628 0.36983 0.50646 0.0
O263 O 0.90945 0.36762 0.49141 0.0
O264 O 0.97872 0.49051 0.56762 0.0
O265 O 0.94565 0.4729 0.39861 0.0
O266 O 0.94262 0.4252 0.71908 0.0
O267 O 0.00237 0.40036 0.69274 0.0
C268 C 0.97339 0.40716 0.76408 0.0
O269 O 0.9048 0.4696 0.35656 0.0
O270 O 0.84159 0.45876 0.31727 0.0
C271 C 0.97861 0.38383 0.34171 0.0
C272 C 0.87333 0.4769 0.29182 0.0
Zn273 Zn 0.30426 0.09492 0.23598 0.0
Zn274 Zn 0.30195 0.24226 0.29292 0.0
Zn275 Zn 0.30784 0.17496 0.26126 0.0
C276 C 0.3282 0.22337 0.51356 0.0
C277 C 0.23687 0.2163 0.20788 0.0
O278 O 0.26555 0.15475 0.1067 0.0
O279 O 0.27624 0.09148 0.06798 0.0
C280 C 0.37881 0.12833 0.30037 0.0
O281 O 0.3101 0.19262 0.46881 0.0
O282 O 0.33502 0.25232 0.44197 0.0
O283 O 0.24484 0.22874 0.31713 0.0
O284 O 0.26233 0.19565 0.14832 0.0
O285 O 0.36535 0.09625 0.25624 0.0
O286 O 0.36756 0.15942 0.24094 0.0
O287 O 0.2801 0.16475 0.43555 0.0
O288 O 0.26299 0.10395 0.37846 0.0
C289 C 0.25722 0.13463 0.44516 0.0
O290 O 0.35887 0.19845 0.16246 0.0
O291 O 0.32338 0.25142 0.11928 0.0
C292 C 0.25817 0.12326 0.0423 0.0
C293 C 0.35143 0.22853 0.0912 0.0
Zn294 Zn 0.6402 0.55416 0.98581 0.0
Zn295 Zn 0.49288 0.55172 0.04255 0.0
Zn296 Zn 0.56018 0.55769 0.01104 0.0
C297 C 0.5117 0.57805 0.26304 0.0
C298 C 0.51891 0.48667 0.958 0.0
O299 O 0.58041 0.51539 0.85671 0.0
O300 O 0.64365 0.52614 0.81796 0.0
C301 C 0.60681 0.62867 0.04992 0.0
O302 O 0.54249 0.55997 0.21855 0.0
O303 O 0.48276 0.5848 0.1913 0.0
O304 O 0.50643 0.4946 0.06715 0.0
O305 O 0.53954 0.51215 0.89834 0.0
O306 O 0.63889 0.61525 0.00582 0.0
O307 O 0.57572 0.61742 -0.00953 0.0
O308 O 0.57038 0.52997 0.18551 0.0
O309 O 0.63116 0.51287 0.12848 0.0
C310 C 0.6005 0.50709 0.19523 0.0
O311 O 0.53665 0.60869 0.91183 0.0
O312 O 0.48373 0.57312 0.86873 0.0
C313 C 0.61189 0.50803 0.79236 0.0
C314 C 0.5066 0.6012 0.84054 0.0
Zn315 Zn 0.18323 0.74306 0.79248 0.0
Zn316 Zn 0.18089 0.89021 0.73484 0.0
Zn317 Zn 0.17726 0.81033 0.76066 0.0
C318 C 0.22801 0.8505 0.94437 0.0
C319 C 0.10637 0.85706 0.79976 0.0
O320 O 0.12625 0.78685 0.66148 0.0
O321 O 0.16182 0.73394 0.61864 0.0
C322 C 0.24832 0.76906 0.70796 0.0
O323 O 0.20503 0.82044 0.93505 0.0
O324 O 0.22229 0.88116 0.87731 0.0
O325 O 0.11984 0.88915 0.75566 0.0
O326 O 0.11755 0.82597 0.74033 0.0
O327 O 0.24036 0.75656 0.81715 0.0
O328 O 0.22282 0.78968 0.64818 0.0
O329 O 0.17498 0.79263 0.96825 0.0
O330 O 0.15014 0.73291 0.94122 0.0
C331 C 0.15689 0.76185 0.01285 0.0
O332 O 0.21951 0.83048 0.60606 0.0
O333 O 0.20871 0.89371 0.5667 0.0
C334 C 0.13374 0.7568 0.5903 0.0
C335 C 0.22682 0.86195 0.54134 0.0
Zn336 Zn 0.48538 0.81743 0.51365 0.0
Zn337 Zn 0.54818 0.01817 0.55751 0.0
Zn338 Zn 0.55469 0.92044 0.53821 0.0
C339 C 0.60691 0.99177 0.67886 0.0
C340 C 0.48837 0.95894 0.6084 0.0
O341 O 0.49683 0.89189 0.47535 0.0
O342 O 0.4541 0.85227 0.3848 0.0
C343 C 0.5728 0.83599 0.57019 0.0
O344 O 0.58774 0.95871 0.67712 0.0
O345 O 0.60621 0.01369 0.58272 0.0
O346 O 0.51823 0.97532 0.65284 0.0
O347 O 0.49417 0.92393 0.57293 0.0
O348 O 0.5454 0.83473 0.48761 0.0
O349 O 0.5902 0.86908 0.58716 0.0
O350 O 0.50698 0.87981 0.63216 0.0
O351 O 0.46618 0.83254 0.69256 0.0
C352 C 0.48404 0.86447 0.71855 0.0
O353 O 0.56215 0.94932 0.35185 0.0
O354 O 0.5517 0.0144 0.37264 0.0
C355 C 0.47173 0.88545 0.38402 0.0
C356 C 0.55908 0.98456 0.30505 0.0
Zn357 Zn 0.41776 0.23558 0.76353 0.0
Zn358 Zn 0.21708 0.29814 0.80655 0.0
Zn359 Zn 0.31469 0.30483 0.78765 0.0
C360 C 0.24324 0.35694 0.92779 0.0
C361 C 0.27631 0.23841 0.85811 0.0
O362 O 0.34331 0.24701 0.72488 0.0
O363 O 0.38296 0.20431 0.63461 0.0
C364 C 0.39914 0.32295 0.82015 0.0
O365 O 0.27631 0.3378 0.92628 0.0
O366 O 0.22132 0.35619 0.83166 0.0
O367 O 0.25985 0.26821 0.90258 0.0
O368 O 0.31126 0.24428 0.82233 0.0
O369 O 0.40047 0.29563 0.73741 0.0
O370 O 0.36602 0.3403 0.83697 0.0
O371 O 0.35536 0.25709 0.88158 0.0
O372 O 0.40262 0.21631 0.94242 0.0
C373 C 0.37069 0.23418 0.96819 0.0
O374 O 0.28593 0.31235 0.60108 0.0
O375 O 0.2209 0.30168 0.62169 0.0
C376 C 0.34979 0.22193 0.63367 0.0
C377 C 0.25073 0.30918 0.55418 0.0
Zn378 Zn 0.93704 0.96709 0.05613 0.0
Zn379 Zn -0.00066 0.16793 0.01226 0.0
Zn380 Zn 0.93035 0.06472 0.0366 0.0
C381 C 0.00102 0.12076 0.21683 0.0
C382 C 0.91204 0.14908 0.06975 0.0
O383 O 0.92283 0.03589 0.85019 0.0
O384 O 0.93349 0.97084 0.87124 0.0
C385 C -0.0032 0.02636 0.10704 0.0
O386 O 0.9781 0.10542 0.13029 0.0
O387 O 0.0188 0.15274 0.19099 0.0
O388 O 0.93928 0.15057 0.98681 0.0
O389 O 0.89476 0.11591 0.08634 0.0
O390 O 0.967 0.00994 0.1516 0.0
O391 O 0.9909 0.06134 0.07121 0.0
O392 O 0.89742 0.0264 0.17551 0.0
O393 O 0.87901 0.97143 0.08105 0.0
C394 C 0.87828 -0.00667 0.17713 0.0
O395 O 0.98804 0.09348 0.97362 0.0
O396 O 0.03059 0.13325 0.88315 0.0
C397 C 0.926 0.00067 0.80351 0.0
C398 C 0.0131 0.10001 0.8824 0.0
Zn399 Zn 0.26811 0.68692 0.30719 0.0
Zn400 Zn 0.06732 0.74957 0.26237 0.0
Zn401 Zn 0.17042 0.6804 0.28722 0.0
C402 C 0.11447 0.75112 0.46718 0.0
C403 C 0.08605 0.66218 0.31979 0.0
O404 O 0.19933 0.67291 0.10103 0.0
O405 O 0.2644 0.6834 0.12228 0.0
C406 C 0.20885 0.74674 0.35755 0.0
O407 O 0.12979 0.72817 0.38083 0.0
O408 O 0.08252 0.76894 0.44113 0.0
O409 O 0.08464 0.6895 0.23694 0.0
O410 O 0.11917 0.64483 0.33655 0.0
O411 O 0.22526 0.71691 0.40222 0.0
O412 O 0.17387 0.74095 0.3217 0.0
O413 O 0.20864 0.64738 0.42641 0.0
O414 O 0.26357 0.62887 0.3322 0.0
C415 C 0.24168 0.6282 0.42827 0.0
O416 O 0.14175 0.73817 0.22411 0.0
O417 O 0.10205 0.78082 0.13332 0.0
C418 C 0.23456 0.676 0.05448 0.0
C419 C 0.13525 0.76324 0.13274 0.0
Zn420 Zn 0.55513 0.9693 0.91024 0.0
Zn421 Zn 0.4739 0.17724 0.9714 0.0
Zn422 Zn 0.54904 0.06533 0.95787 0.0
C423 C 0.47773 0.12073 0.78163 0.0
C424 C 0.55571 0.16087 0.91986 0.0
O425 O 0.55736 0.02763 0.12673 0.0
O426 O 0.55688 0.96208 0.09597 0.0
C427 C 0.4882 0.02578 0.88687 0.0
O428 O 0.50048 0.10749 0.87286 0.0
O429 O 0.45712 0.15142 0.80267 0.0
O430 O 0.53367 0.19103 0.93431 0.0
O431 O 0.54309 0.12813 0.96562 0.0
O432 O 0.52051 0.0139 0.84371 0.0
O433 O 0.48873 0.06038 0.92743 0.0
O434 O 0.58818 0.04477 0.80575 0.0
O435 O 0.61021 0.99074 0.89633 0.0
C436 C 0.60883 0.01277 0.80029 0.0
O437 O 0.50132 0.10442 0.02329 0.0
O438 O 0.45876 0.14122 0.12492 0.0
C439 C 0.55944 0.9917 0.16865 0.0
C440 C 0.47757 0.10886 0.11908 0.0
Zn441 Zn 0.0581 0.22372 0.22091 0.0
Zn442 Zn 0.26596 0.30544 0.15944 0.0
Zn443 Zn 0.16983 0.29914 0.20715 0.0
C444 C 0.22226 0.35901 0.04918 0.0
C445 C 0.20946 0.23846 0.13637 0.0
O446 O 0.13084 0.2513 0.27258 0.0
O447 O 0.09419 0.20859 0.37435 0.0
C448 C 0.07431 0.30559 0.16971 0.0
O449 O 0.19025 0.33839 0.05488 0.0
O450 O 0.24429 0.36044 0.14524 0.0
O451 O 0.22134 0.27082 0.09338 0.0
O452 O 0.17485 0.23884 0.17665 0.0
O453 O 0.04419 0.28349 0.18412 0.0
O454 O 0.10708 0.29298 0.21531 0.0
O455 O 0.12776 0.25052 0.1221 0.0
O456 O 0.08388 0.20708 0.05212 0.0
C457 C 0.11453 0.22776 0.03096 0.0
O458 O 0.20767 0.30744 0.37579 0.0
O459 O 0.27321 0.30716 0.34514 0.0
C460 C 0.12647 0.22752 0.36846 0.0
C461 C 0.24359 0.3096 0.41776 0.0
Zn462 Zn 0.92989 0.01594 0.40867 0.0
Zn463 Zn 0.01145 0.80806 0.47119 0.0
Zn464 Zn 0.93613 0.91985 0.45674 0.0
C465 C 0.00751 0.86455 0.28105 0.0
C466 C 0.92959 0.82428 0.41945 0.0
O467 O 0.92778 0.9576 0.62535 0.0
O468 O 0.92813 0.02316 0.59436 0.0
C469 C -0.00312 0.95951 0.38598 0.0
O470 O 0.98473 0.87777 0.37205 0.0
O471 O 0.02816 0.83388 0.30239 0.0
O472 O 0.95169 0.79416 0.4341 0.0
O473 O 0.94221 0.85707 0.46487 0.0
O474 O 0.96454 0.97136 0.34267 0.0
O475 O -0.00358 0.92489 0.42648 0.0
O476 O 0.89694 0.94031 0.30432 0.0
O477 O 0.87487 -0.00568 0.39456 0.0
C478 C 0.87628 0.97231 0.29857 0.0
O479 O 0.98392 0.88083 0.5225 0.0
O480 O 0.02657 0.84412 0.62458 0.0
C481 C 0.92562 -0.00647 0.66712 0.0
C482 C 0.00769 0.87644 0.61846 0.0
Zn483 Zn 0.2193 0.68004 0.65957 0.0
Zn484 Zn 0.4272 0.76122 0.7219 0.0
Zn485 Zn 0.31529 0.6861 0.70767 0.0
C486 C 0.37065 0.75745 0.53194 0.0
C487 C 0.41082 0.6794 0.66979 0.0
O488 O 0.27764 0.67773 0.87642 0.0
O489 O 0.21211 0.67826 0.84527 0.0
C490 C 0.27576 0.74697 0.63665 0.0
O491 O 0.35743 0.73468 0.62305 0.0
O492 O 0.40134 0.77807 0.55315 0.0
O493 O 0.44097 0.70145 0.68449 0.0
O494 O 0.37809 0.69201 0.71546 0.0
O495 O 0.26387 0.71468 0.59318 0.0
O496 O 0.31033 0.74645 0.67758 0.0
O497 O 0.29469 0.64699 0.55535 0.0
O498 O 0.2407 0.62494 0.64573 0.0
C499 C 0.26271 0.62631 0.54976 0.0
O500 O 0.35441 0.73379 0.77343 0.0
O501 O 0.39122 0.77633 0.87541 0.0
C502 C 0.24171 0.67566 0.91811 0.0
C503 C 0.35888 0.75751 0.86935 0.0
Zn504 Zn 0.49283 0.04988 0.4538 0.0
Zn505 Zn 0.34453 0.05538 0.50173 0.0
Zn506 Zn 0.42509 0.05786 0.47436 0.0
C507 C 0.38483 0.01049 0.28628 0.0
C508 C 0.37727 0.12925 0.44146 0.0
O509 O 0.4454 0.10815 0.58162 0.0
O510 O 0.49713 0.07206 0.63367 0.0
C511 C 0.46469 0.98349 0.52868 0.0
O512 O 0.41524 0.03299 0.29656 0.0
O513 O 0.35463 0.01555 0.35584 0.0
O514 O 0.34467 0.11643 0.48333 0.0
O515 O 0.40776 0.11697 0.50213 0.0
O516 O 0.47868 0.99197 0.42187 0.0
O517 O 0.44361 0.00951 0.58431 0.0
O518 O 0.44482 0.0645 0.26778 0.0
O519 O 0.5055 0.08461 0.30681 0.0
C520 C 0.47694 0.0821 0.23065 0.0
O521 O 0.40424 0.01469 0.62537 0.0
O522 O 0.34144 0.02646 0.66865 0.0
C523 C 0.47378 0.10013 0.65905 0.0
C524 C 0.373 0.00761 0.69138 0.0
Zn525 Zn 0.68521 0.74267 0.20317 0.0
Zn526 Zn 0.67981 0.59443 0.25204 0.0
Zn527 Zn 0.67727 0.67492 0.22419 0.0
C528 C 0.72474 0.6347 0.03661 0.0
C529 C 0.60591 0.62708 0.19102 0.0
O530 O 0.62695 0.69521 0.33108 0.0
O531 O 0.663 0.74696 0.38295 0.0
C532 C 0.7516 0.71458 0.27849 0.0
O533 O 0.7022 0.66508 0.04658 0.0
O534 O 0.71971 0.6045 0.10635 0.0
O535 O 0.61879 0.59447 0.23296 0.0
O536 O 0.61816 0.65757 0.25163 0.0
O537 O 0.74313 0.72854 0.17153 0.0
O538 O 0.72558 0.6935 0.3342 0.0
O539 O 0.67069 0.69461 0.01747 0.0
O540 O 0.65051 0.75528 0.05595 0.0
C541 C 0.65308 0.7267 0.98002 0.0
O542 O 0.72039 0.65413 0.37554 0.0
O543 O 0.70861 0.59134 0.41925 0.0
C544 C 0.63494 0.7236 0.40837 0.0
C545 C 0.72745 0.62291 0.44185 0.0
Zn546 Zn 0.99236 0.93539 0.95283 0.0
Zn547 Zn 0.14051 0.93 0.00193 0.0
Zn548 Zn 0.06009 0.92745 0.97389 0.0
C549 C 0.10024 0.97495 0.7862 0.0
C550 C 0.10796 0.85611 0.9409 0.0
O551 O 0.03982 0.87714 0.08116 0.0
O552 O 0.9881 0.91321 0.13277 0.0
C553 C 0.02047 0.0018 0.0276 0.0
O554 O 0.06988 0.95238 0.79615 0.0
O555 O 0.13043 0.96993 0.85609 0.0
O556 O 0.14056 0.86897 0.98287 0.0
O557 O 0.07748 0.86833 0.00148 0.0
O558 O 0.00648 -0.00668 0.92072 0.0
O559 O 0.04155 0.97579 0.08351 0.0
O560 O 0.04036 0.92085 0.76721 0.0
O561 O 0.97972 0.90064 0.8059 0.0
C562 C 0.00828 0.90321 0.72992 0.0
O563 O 0.08088 0.9706 0.12509 0.0
O564 O 0.14365 0.95878 0.16903 0.0
C565 C 0.01145 0.88515 0.15839 0.0
C566 C 0.1121 0.97765 0.19144 0.0
Zn567 Zn 0.79998 0.24223 0.7038 0.0
Zn568 Zn 0.80541 0.39049 0.75225 0.0
Zn569 Zn 0.80795 0.31 0.72455 0.0
C570 C 0.76054 0.35019 0.53647 0.0
C571 C 0.87929 0.35792 0.69184 0.0
O572 O 0.85823 0.28974 0.83203 0.0
O573 O 0.82216 0.238 0.88381 0.0
C574 C 0.7336 0.27034 0.77838 0.0
O575 O 0.78309 0.31981 0.54668 0.0
O576 O 0.76555 0.38038 0.60622 0.0
O577 O 0.86644 0.39052 0.73368 0.0
O578 O 0.86704 0.32742 0.75243 0.0
O579 O 0.74207 0.25635 0.67158 0.0
O580 O 0.75962 0.29144 0.83415 0.0
O581 O 0.8146 0.29025 0.51799 0.0
O582 O 0.8347 0.22955 0.557 0.0
C583 C 0.83219 0.25813 0.48088 0.0
O584 O 0.76478 0.33079 0.87549 0.0
O585 O 0.77655 0.39358 0.91915 0.0
C586 C 0.85021 0.26136 0.9094 0.0
C587 C 0.7577 0.36201 0.94164 0.0
Zn588 Zn 0.49205 0.93327 0.04344 0.0
Zn589 Zn 0.34491 0.93098 0.98545 0.0
Zn590 Zn 0.42479 0.92734 0.01132 0.0
C591 C 0.38457 0.9781 0.19475 0.0
C592 C 0.37812 0.85639 0.05042 0.0
O593 O 0.44829 0.87629 0.91262 0.0
O594 O 0.50124 0.91182 0.86983 0.0
C595 C 0.46606 -0.00164 0.9583 0.0
O596 O 0.41463 0.95514 0.18551 0.0
O597 O 0.35391 0.97237 0.12775 0.0
O598 O 0.34603 0.86992 0.00649 0.0
O599 O 0.40924 0.86759 -0.00877 0.0
O600 O 0.47857 0.99042 0.06756 0.0
O601 O 0.44546 0.97287 0.89856 0.0
O602 O 0.44244 0.92512 0.21899 0.0
O603 O 0.50214 0.90022 0.19255 0.0
C604 C 0.47319 0.90704 0.26394 0.0
O605 O 0.40463 0.96958 0.85647 0.0
O606 O 0.3414 0.95882 0.81721 0.0
C607 C 0.47837 0.88374 0.84156 0.0
C608 C 0.37317 0.97691 0.79175 0.0
Zn609 Zn 0.80421 0.59484 0.736 0.0
Zn610 Zn 0.80175 0.74214 0.79303 0.0
Zn611 Zn 0.80773 0.67484 0.7613 0.0
C612 C 0.82801 0.72328 0.01366 0.0
C613 C 0.73671 0.71609 0.70793 0.0
O614 O 0.76548 0.6546 0.6067 0.0
O615 O 0.77624 0.59134 0.56795 0.0
C616 C 0.87876 0.62828 0.80031 0.0
O617 O 0.80996 0.6925 0.96887 0.0
O618 O 0.83478 0.75225 0.94211 0.0
O619 O 0.74464 0.72858 0.81717 0.0
O620 O 0.7622 0.69549 0.64835 0.0
O621 O 0.86528 0.59616 0.75649 0.0
O622 O 0.86748 0.65939 0.74105 0.0
O623 O 0.77999 0.66461 0.93558 0.0
O624 O 0.76291 0.6038 0.87841 0.0
C625 C 0.75713 0.63447 0.94515 0.0
O626 O 0.85874 0.69841 0.66252 0.0
O627 O 0.82318 0.75135 0.6194 0.0
C628 C 0.75813 0.6231 0.54227 0.0
C629 C 0.85126 0.7285 0.59131 0.0
Zn630 Zn 0.14017 0.05441 0.48522 0.0
Zn631 Zn -0.00705 0.052 0.54196 0.0
Zn632 Zn 0.06024 0.05799 0.51053 0.0
C633 C 0.01173 0.07837 0.76245 0.0
C634 C 0.01901 0.98692 0.45752 0.0
O635 O 0.08045 0.0157 0.35611 0.0
O636 O 0.14368 0.02648 0.31724 0.0
C637 C 0.10692 0.12896 0.54951 0.0
O638 O 0.04253 0.06029 0.71802 0.0
O639 O 0.9828 0.0851 0.69067 0.0
O640 O 0.00649 -0.00513 0.56663 0.0
O641 O 0.03962 0.01242 0.39786 0.0
O642 O 0.13902 0.11548 0.50575 0.0
O643 O 0.07581 0.11773 0.49017 0.0
O644 O 0.07039 0.03027 0.68499 0.0
O645 O 0.13113 0.01308 0.62775 0.0
C646 C 0.10048 0.00734 0.69459 0.0
O647 O 0.03674 0.10899 0.41129 0.0
O648 O 0.98385 0.07339 0.3681 0.0
C649 C 0.11192 0.00836 0.29168 0.0
C650 C 0.0067 0.10148 0.33993 0.0
Zn651 Zn 0.68341 0.24286 0.29303 0.0
Zn652 Zn 0.68101 0.38999 0.23525 0.0
Zn653 Zn 0.67744 0.31017 0.2611 0.0
C654 C 0.72815 0.35042 0.44482 0.0
C655 C 0.60648 0.35684 0.30013 0.0
O656 O 0.62643 0.28666 0.162 0.0
O657 O 0.66199 0.23373 0.11924 0.0
C658 C 0.74845 0.26888 0.20835 0.0
O659 O 0.70521 0.32034 0.43547 0.0
O660 O 0.72241 0.38106 0.37773 0.0
O661 O 0.61999 0.38896 0.25639 0.0
O662 O 0.61769 0.32573 0.24089 0.0
O663 O 0.74053 0.25639 0.31757 0.0
O664 O 0.72296 0.2895 0.14854 0.0
O665 O 0.67521 0.29248 0.46869 0.0
O666 O 0.65035 0.23275 0.44183 0.0
C667 C 0.65713 0.2617 0.51338 0.0
O668 O 0.7197 0.33034 0.10651 0.0
O669 O 0.70883 0.39355 0.06711 0.0
C670 C 0.63392 0.2566 0.09086 0.0
C671 C 0.72699 0.36181 0.04181 0.0
loop_
_geom_bond_atom_site_label_1
_geom_bond_atom_site_label_2
_geom_bond_distance
_geom_bond_site_symmetry_2
_ccdc_geom_bond_type
Zn0 O6 1.920 1_554 S
Zn0 O12 1.898 . S
Zn0 O15 1.889 1_455 S
Zn1 O9 1.905 1_556 S
Zn1 O10 1.898 1_556 S
Zn1 O18 1.920 . S
Zn2 O5 2.080 1_554 S
Zn2 O8 2.114 . S
Zn2 O11 2.120 1_554 S
Zn2 O13 2.120 . S
Zn2 O14 2.114 . S
Zn2 O17 2.080 1_554 S
C3 O8 1.166 . S
C3 O9 1.182 . S
C4 O10 1.167 . S
C4 O11 1.299 1_554 S
O5 Zn2 2.080 1_556 S
O5 C19 1.305 . S
O6 Zn0 1.920 1_556 S
O6 C19 1.234 . S
C7 O12 1.167 . S
C7 O13 1.299 . S
O8 Zn2 2.114 . S
O8 C3 1.166 . S
O9 Zn1 1.905 1_554 S
O9 C3 1.182 . S
O10 Zn1 1.898 1_554 S
O10 C4 1.167 . S
O11 Zn2 2.120 1_556 S
O11 C4 1.299 1_556 S
O12 Zn0 1.898 . S
O12 C7 1.167 . S
O13 Zn2 2.120 . S
O13 C7 1.299 . S
O14 Zn2 2.114 . S
O14 C16 1.166 . S
O15 Zn0 1.889 1_655 S
O15 C16 1.180 1_655 S
C16 O14 1.166 . S
C16 O15 1.180 1_455 S
O17 Zn2 2.080 1_556 S
O17 C20 1.305 . S
O18 Zn1 1.920 . S
O18 C20 1.234 . S
C19 O5 1.305 . S
C19 O6 1.234 . S
C20 O17 1.305 . S
C20 O18 1.234 . S
Zn21 O27 1.920 . S
Zn21 O33 1.898 . S
Zn21 O36 1.905 . S
Zn22 O30 1.905 . S
Zn22 O31 1.898 . S
Zn22 O39 1.920 . S
Zn23 O26 2.080 . S
Zn23 O29 2.114 . S
Zn23 O32 2.120 . S
Zn23 O34 2.120 . S
Zn23 O35 2.114 . S
Zn23 O38 2.080 . S
C24 O29 1.166 . S
C24 O30 1.182 . S
C25 O31 1.167 . S
C25 O32 1.299 . S
O26 Zn23 2.080 . S
O26 C40 1.305 . S
O27 Zn21 1.920 . S
O27 C40 1.234 . S
C28 O33 1.167 . S
C28 O34 1.299 . S
O29 Zn23 2.114 . S
O29 C24 1.166 . S
O30 Zn22 1.905 . S
O30 C24 1.182 . S
O31 Zn22 1.898 . S
O31 C25 1.167 . S
O32 Zn23 2.120 . S
O32 C25 1.299 . S
O33 Zn21 1.898 . S
O33 C28 1.167 . S
O34 Zn23 2.120 . S
O34 C28 1.299 . S
O35 Zn23 2.114 . S
O35 C37 1.166 . S
O36 Zn21 1.905 . S
O36 C37 1.182 . S
C37 O35 1.166 . S
C37 O36 1.182 . S
O38 Zn23 2.080 . S
O38 C41 1.305 . S
O39 Zn22 1.920 . S
O39 C41 1.234 . S
C40 O26 1.305 . S
C40 O27 1.234 . S
C41 O38 1.305 . S
C41 O39 1.234 . S
Zn42 O48 1.920 . S
Zn42 O54 1.898 . S
Zn42 O57 1.905 . S
Zn43 O51 1.905 . S
Zn43 O52 1.898 . S
Zn43 O60 1.920 . S
Zn44 O47 2.080 . S
Zn44 O50 2.114 . S
Zn44 O53 2.120 . S
Zn44 O55 2.120 . S
Zn44 O56 2.114 . S
Zn44 O59 2.080 . S
C45 O50 1.166 . S
C45 O51 1.182 . S
C46 O52 1.167 . S
C46 O53 1.299 . S
O47 Zn44 2.080 . S
O47 C61 1.305 . S
O48 Zn42 1.920 . S
O48 C61 1.234 . S
C49 O54 1.167 . S
C49 O55 1.299 . S
O50 Zn44 2.114 . S
O50 C45 1.166 . S
O51 Zn43 1.905 . S
O51 C45 1.182 . S
O52 Zn43 1.898 . S
O52 C46 1.167 . S
O53 Zn44 2.120 . S
O53 C46 1.299 . S
O54 Zn42 1.898 . S
O54 C49 1.167 . S
O55 Zn44 2.120 . S
O55 C49 1.299 . S
O56 Zn44 2.114 . S
O56 C58 1.166 . S
O57 Zn42 1.905 . S
O57 C58 1.182 . S
C58 O56 1.166 . S
C58 O57 1.182 . S
O59 Zn44 2.080 . S
O59 C62 1.305 . S
O60 Zn43 1.920 . S
O60 C62 1.234 . S
C61 O47 1.305 . S
C61 O48 1.234 . S
C62 O59 1.305 . S
C62 O60 1.234 . S
Zn63 O69 1.920 . S
Zn63 O75 1.898 . S
Zn63 O78 1.905 . S
Zn64 O72 1.905 . S
Zn64 O73 1.898 . S
Zn64 O81 1.920 . S
Zn65 O68 2.080 . S
Zn65 O71 2.114 . S
Zn65 O74 2.120 . S
Zn65 O76 2.120 . S
Zn65 O77 2.114 . S
Zn65 O80 2.080 . S
C66 O71 1.166 . S
C66 O72 1.182 . S
C67 O73 1.167 . S
C67 O74 1.299 . S
O68 Zn65 2.080 . S
O68 C82 1.305 . S
O69 Zn63 1.920 . S
O69 C82 1.234 . S
C70 O75 1.167 . S
C70 O76 1.299 . S
O71 Zn65 2.114 . S
O71 C66 1.166 . S
O72 Zn64 1.905 . S
O72 C66 1.182 . S
O73 Zn64 1.898 . S
O73 C67 1.167 . S
O74 Zn65 2.120 . S
O74 C67 1.299 . S
O75 Zn63 1.898 . S
O75 C70 1.167 . S
O76 Zn65 2.120 . S
O76 C70 1.299 . S
O77 Zn65 2.114 . S
O77 C79 1.166 . S
O78 Zn63 1.905 . S
O78 C79 1.182 . S
C79 O77 1.166 . S
C79 O78 1.182 . S
O80 Zn65 2.080 . S
O80 C83 1.305 . S
O81 Zn64 1.920 . S
O81 C83 1.234 . S
C82 O68 1.305 . S
C82 O69 1.234 . S
C83 O80 1.305 . S
C83 O81 1.234 . S
Zn84 O90 1.920 . S
Zn84 O96 1.898 . S
Zn84 O99 1.905 . S
Zn85 O93 1.889 1_455 S
Zn85 O94 1.898 . S
Zn85 O102 1.920 . S
Zn86 O89 2.080 . S
Zn86 O92 2.114 . S
Zn86 O95 2.120 . S
Zn86 O97 2.120 . S
Zn86 O98 2.114 . S
Zn86 O101 2.080 . S
C87 O92 1.166 . S
C87 O93 1.180 1_455 S
C88 O94 1.167 . S
C88 O95 1.299 . S
O89 Zn86 2.080 . S
O89 C103 1.305 . S
O90 Zn84 1.920 . S
O90 C103 1.234 . S
C91 O96 1.167 . S
C91 O97 1.299 . S
O92 Zn86 2.114 . S
O92 C87 1.166 . S
O93 Zn85 1.889 1_655 S
O93 C87 1.180 1_655 S
O94 Zn85 1.898 . S
O94 C88 1.167 . S
O95 Zn86 2.120 . S
O95 C88 1.299 . S
O96 Zn84 1.898 . S
O96 C91 1.167 . S
O97 Zn86 2.120 . S
O97 C91 1.299 . S
O98 Zn86 2.114 . S
O98 C100 1.166 . S
O99 Zn84 1.905 . S
O99 C100 1.182 . S
C100 O98 1.166 . S
C100 O99 1.182 . S
O101 Zn86 2.080 . S
O101 C104 1.305 . S
O102 Zn85 1.920 . S
O102 C104 1.234 . S
C103 O89 1.305 . S
C103 O90 1.234 . S
C104 O101 1.305 . S
C104 O102 1.234 . S
Zn105 O111 1.920 . S
Zn105 O117 1.898 . S
Zn105 O120 1.905 . S
Zn106 O114 1.905 . S
Zn106 O115 1.898 . S
Zn106 O123 1.920 . S
Zn107 O110 2.080 . S
Zn107 O113 2.114 . S
Zn107 O116 2.120 . S
Zn107 O118 2.120 . S
Zn107 O119 2.114 . S
Zn107 O122 2.080 . S
C108 O113 1.166 . S
C108 O114 1.182 . S
C109 O115 1.167 . S
C109 O116 1.299 . S
O110 Zn107 2.080 . S
O110 C124 1.305 . S
O111 Zn105 1.920 . S
O111 C124 1.234 . S
C112 O117 1.167 . S
C112 O118 1.299 . S
O113 Zn107 2.114 . S
O113 C108 1.166 . S
O114 Zn106 1.905 . S
O114 C108 1.182 . S
O115 Zn106 1.898 . S
O115 C109 1.167 . S
O116 Zn107 2.120 . S
O116 C109 1.299 . S
O117 Zn105 1.898 . S
O117 C112 1.167 . S
O118 Zn107 2.120 . S
O118 C112 1.299 . S
O119 Zn107 2.114 . S
O119 C121 1.166 . S
O120 Zn105 1.905 . S
O120 C121 1.182 . S
C121 O119 1.166 . S
C121 O120 1.182 . S
O122 Zn107 2.080 . S
O122 C125 1.305 . S
O123 Zn106 1.920 . S
O123 C125 1.234 . S
C124 O110 1.305 . S
C124 O111 1.234 . S
C125 O122 1.305 . S
C125 O123 1.234 . S
Zn126 O132 1.920 . S
Zn126 O138 1.898 1_554 S
Zn126 O141 1.905 1_554 S
Zn127 O135 1.905 . S
Zn127 O136 1.898 . S
Zn127 O144 1.920 1_556 S
Zn128 O131 2.076 1_556 S
Zn128 O134 2.118 . S
Zn128 O137 2.120 . S
Zn128 O139 2.119 1_556 S
Zn128 O140 2.118 . S
Zn128 O143 2.076 1_556 S
C129 O134 1.166 . S
C129 O135 1.182 . S
C130 O136 1.167 . S
C130 O137 1.299 . S
O131 Zn128 2.076 1_554 S
O131 C145 1.305 . S
O132 Zn126 1.920 . S
O132 C145 1.234 . S
C133 O138 1.167 . S
C133 O139 1.299 1_556 S
O134 Zn128 2.118 . S
O134 C129 1.166 . S
O135 Zn127 1.905 . S
O135 C129 1.182 . S
O136 Zn127 1.898 . S
O136 C130 1.167 . S
O137 Zn128 2.120 . S
O137 C130 1.299 . S
O138 Zn126 1.898 1_556 S
O138 C133 1.167 . S
O139 Zn128 2.119 1_554 S
O139 C133 1.299 1_554 S
O140 Zn128 2.118 . S
O140 C142 1.166 . S
O141 Zn126 1.905 1_556 S
O141 C142 1.182 . S
C142 O140 1.166 . S
C142 O141 1.182 . S
O143 Zn128 2.076 1_554 S
O143 C146 1.305 . S
O144 Zn127 1.920 1_554 S
O144 C146 1.234 . S
C145 O131 1.305 . S
C145 O132 1.234 . S
C146 O143 1.305 . S
C146 O144 1.234 . S
Zn147 O153 1.920 . S
Zn147 O159 1.898 . S
Zn147 O162 1.905 . S
Zn148 O156 1.905 . S
Zn148 O157 1.898 . S
Zn148 O165 1.920 . S
Zn149 O152 2.080 . S
Zn149 O155 2.114 . S
Zn149 O158 2.120 . S
Zn149 O160 2.120 . S
Zn149 O161 2.114 . S
Zn149 O164 2.080 . S
C150 O155 1.166 . S
C150 O156 1.182 . S
C151 O157 1.167 . S
C151 O158 1.299 . S
O152 Zn149 2.080 . S
O152 C166 1.305 . S
O153 Zn147 1.920 . S
O153 C166 1.234 . S
C154 O159 1.167 . S
C154 O160 1.299 . S
O155 Zn149 2.114 . S
O155 C150 1.166 . S
O156 Zn148 1.905 . S
O156 C150 1.182 . S
O157 Zn148 1.898 . S
O157 C151 1.167 . S
O158 Zn149 2.120 . S
O158 C151 1.299 . S
O159 Zn147 1.898 . S
O159 C154 1.167 . S
O160 Zn149 2.120 . S
O160 C154 1.299 . S
O161 Zn149 2.114 . S
O161 C163 1.166 . S
O162 Zn147 1.905 . S
O162 C163 1.182 . S
C163 O161 1.166 . S
C163 O162 1.182 . S
O164 Zn149 2.080 . S
O164 C167 1.305 . S
O165 Zn148 1.920 . S
O165 C167 1.234 . S
C166 O152 1.305 . S
C166 O153 1.234 . S
C167 O164 1.305 . S
C167 O165 1.234 . S
Zn168 O174 1.920 . S
Zn168 O180 1.898 1_554 S
Zn168 O183 1.905 1_554 S
Zn169 O177 1.905 . S
Zn169 O178 1.898 . S
Zn169 O186 1.920 1_556 S
Zn170 O173 2.077 1_556 S
Zn170 O176 2.118 . S
Zn170 O179 2.120 . S
Zn170 O181 2.119 1_556 S
Zn170 O182 2.118 . S
Zn170 O185 2.077 1_556 S
C171 O176 1.166 . S
C171 O177 1.182 . S
C172 O178 1.167 . S
C172 O179 1.299 . S
O173 Zn170 2.077 1_554 S
O173 C187 1.305 . S
O174 Zn168 1.920 . S
O174 C187 1.234 1_455 S
C175 O180 1.167 . S
C175 O181 1.299 1_456 S
O176 Zn170 2.118 . S
O176 C171 1.166 . S
O177 Zn169 1.905 . S
O177 C171 1.182 . S
O178 Zn169 1.898 . S
O178 C172 1.167 . S
O179 Zn170 2.120 . S
O179 C172 1.299 . S
O180 Zn168 1.898 1_556 S
O180 C175 1.167 . S
O181 Zn170 2.119 1_554 S
O181 C175 1.299 1_654 S
O182 Zn170 2.118 . S
O182 C184 1.166 . S
O183 Zn168 1.905 1_556 S
O183 C184 1.182 1_455 S
C184 O182 1.166 . S
C184 O183 1.182 1_655 S
O185 Zn170 2.077 1_554 S
O185 C188 1.305 . S
O186 Zn169 1.920 1_554 S
O186 C188 1.234 . S
C187 O173 1.305 . S
C187 O174 1.234 1_655 S
C188 O185 1.305 . S
C188 O186 1.234 . S
Zn189 O195 1.920 . S
Zn189 O201 1.898 . S
Zn189 O204 1.905 . S
Zn190 O198 1.905 . S
Zn190 O199 1.898 . S
Zn190 O207 1.920 . S
Zn191 O194 2.080 . S
Zn191 O197 2.114 . S
Zn191 O200 2.120 . S
Zn191 O202 2.120 . S
Zn191 O203 2.114 . S
Zn191 O206 2.080 . S
C192 O197 1.166 . S
C192 O198 1.182 . S
C193 O199 1.167 . S
C193 O200 1.299 . S
O194 Zn191 2.080 . S
O194 C208 1.305 . S
O195 Zn189 1.920 . S
O195 C208 1.234 . S
C196 O201 1.167 . S
C196 O202 1.299 . S
O197 Zn191 2.114 . S
O197 C192 1.166 . S
O198 Zn190 1.905 . S
O198 C192 1.182 . S
O199 Zn190 1.898 . S
O199 C193 1.167 . S
O200 Zn191 2.120 . S
O200 C193 1.299 . S
O201 Zn189 1.898 . S
O201 C196 1.167 . S
O202 Zn191 2.120 . S
O202 C196 1.299 . S
O203 Zn191 2.114 . S
O203 C205 1.166 . S
O204 Zn189 1.905 . S
O204 C205 1.182 . S
C205 O203 1.166 . S
C205 O204 1.182 . S
O206 Zn191 2.080 . S
O206 C209 1.305 . S
O207 Zn190 1.920 . S
O207 C209 1.234 . S
C208 O194 1.305 . S
C208 O195 1.234 . S
C209 O206 1.305 . S
C209 O207 1.234 . S
Zn210 O216 1.920 . S
Zn210 O222 1.898 . S
Zn210 O225 1.905 . S
Zn211 O219 1.905 . S
Zn211 O220 1.898 . S
Zn211 O228 1.920 . S
Zn212 O215 2.080 . S
Zn212 O218 2.114 . S
Zn212 O221 2.120 . S
Zn212 O223 2.120 . S
Zn212 O224 2.114 . S
Zn212 O227 2.080 . S
C213 O218 1.166 . S
C213 O219 1.182 . S
C214 O220 1.167 . S
C214 O221 1.299 . S
O215 Zn212 2.080 . S
O215 C229 1.305 . S
O216 Zn210 1.920 . S
O216 C229 1.234 . S
C217 O222 1.167 . S
C217 O223 1.299 . S
O218 Zn212 2.114 . S
O218 C213 1.166 . S
O219 Zn211 1.905 . S
O219 C213 1.182 . S
O220 Zn211 1.898 . S
O220 C214 1.167 . S
O221 Zn212 2.120 . S
O221 C214 1.299 . S
O222 Zn210 1.898 . S
O222 C217 1.167 . S
O223 Zn212 2.120 . S
O223 C217 1.299 . S
O224 Zn212 2.114 . S
O224 C226 1.166 . S
O225 Zn210 1.905 . S
O225 C226 1.182 . S
C226 O224 1.166 . S
C226 O225 1.182 . S
O227 Zn212 2.080 . S
O227 C230 1.305 . S
O228 Zn211 1.920 . S
O228 C230 1.234 . S
C229 O215 1.305 . S
C229 O216 1.234 . S
C230 O227 1.305 . S
C230 O228 1.234 . S
Zn231 O237 1.920 . S
Zn231 O243 1.898 . S
Zn231 O246 1.905 . S
Zn232 O240 1.905 . S
Zn232 O241 1.898 . S
Zn232 O249 1.920 . S
Zn233 O236 2.080 . S
Zn233 O239 2.114 . S
Zn233 O242 2.120 . S
Zn233 O244 2.120 . S
Zn233 O245 2.114 . S
Zn233 O248 2.080 . S
C234 O239 1.166 . S
C234 O240 1.182 . S
C235 O241 1.167 . S
C235 O242 1.299 . S
O236 Zn233 2.080 . S
O236 C250 1.305 . S
O237 Zn231 1.920 . S
O237 C250 1.234 . S
C238 O243 1.167 . S
C238 O244 1.299 . S
O239 Zn233 2.114 . S
O239 C234 1.166 . S
O240 Zn232 1.905 . S
O240 C234 1.182 . S
O241 Zn232 1.898 . S
O241 C235 1.167 . S
O242 Zn233 2.120 . S
O242 C235 1.299 . S
O243 Zn231 1.898 . S
O243 C238 1.167 . S
O244 Zn233 2.120 . S
O244 C238 1.299 . S
O245 Zn233 2.114 . S
O245 C247 1.166 . S
O246 Zn231 1.905 . S
O246 C247 1.182 . S
C247 O245 1.166 . S
C247 O246 1.182 . S
O248 Zn233 2.080 . S
O248 C251 1.305 . S
O249 Zn232 1.920 . S
O249 C251 1.234 . S
C250 O236 1.305 . S
C250 O237 1.234 . S
C251 O248 1.305 . S
C251 O249 1.234 . S
Zn252 O258 1.920 . S
Zn252 O264 1.898 . S
Zn252 O267 1.905 . S
Zn253 O261 1.905 . S
Zn253 O262 1.898 . S
Zn253 O270 1.920 . S
Zn254 O257 2.080 . S
Zn254 O260 2.114 . S
Zn254 O263 2.120 . S
Zn254 O265 2.120 . S
Zn254 O266 2.114 . S
Zn254 O269 2.080 . S
C255 O260 1.166 . S
C255 O261 1.182 . S
C256 O262 1.167 . S
C256 O263 1.299 . S
O257 Zn254 2.080 . S
O257 C271 1.305 . S
O258 Zn252 1.920 . S
O258 C271 1.234 1_455 S
C259 O264 1.167 . S
C259 O265 1.299 1_455 S
O260 Zn254 2.114 . S
O260 C255 1.166 . S
O261 Zn253 1.905 . S
O261 C255 1.182 . S
O262 Zn253 1.898 . S
O262 C256 1.167 . S
O263 Zn254 2.120 . S
O263 C256 1.299 . S
O264 Zn252 1.898 . S
O264 C259 1.167 . S
O265 Zn254 2.120 . S
O265 C259 1.299 1_655 S
O266 Zn254 2.114 . S
O266 C268 1.166 . S
O267 Zn252 1.905 . S
O267 C268 1.182 1_455 S
C268 O266 1.166 . S
C268 O267 1.182 1_655 S
O269 Zn254 2.080 . S
O269 C272 1.305 . S
O270 Zn253 1.920 . S
O270 C272 1.234 . S
C271 O257 1.305 . S
C271 O258 1.234 1_655 S
C272 O269 1.305 . S
C272 O270 1.234 . S
Zn273 O279 1.920 . S
Zn273 O285 1.898 . S
Zn273 O288 1.905 . S
Zn274 O282 1.905 . S
Zn274 O283 1.898 . S
Zn274 O291 1.920 . S
Zn275 O278 2.080 . S
Zn275 O281 2.114 . S
Zn275 O284 2.120 . S
Zn275 O286 2.120 . S
Zn275 O287 2.114 . S
Zn275 O290 2.080 . S
C276 O281 1.166 . S
C276 O282 1.182 . S
C277 O283 1.167 . S
C277 O284 1.299 . S
O278 Zn275 2.080 . S
O278 C292 1.305 . S
O279 Zn273 1.920 . S
O279 C292 1.234 . S
C280 O285 1.167 . S
C280 O286 1.299 . S
O281 Zn275 2.114 . S
O281 C276 1.166 . S
O282 Zn274 1.905 . S
O282 C276 1.182 . S
O283 Zn274 1.898 . S
O283 C277 1.167 . S
O284 Zn275 2.120 . S
O284 C277 1.299 . S
O285 Zn273 1.898 . S
O285 C280 1.167 . S
O286 Zn275 2.120 . S
O286 C280 1.299 . S
O287 Zn275 2.114 . S
O287 C289 1.166 . S
O288 Zn273 1.905 . S
O288 C289 1.182 . S
C289 O287 1.166 . S
C289 O288 1.182 . S
O290 Zn275 2.080 . S
O290 C293 1.305 . S
O291 Zn274 1.920 . S
O291 C293 1.234 . S
C292 O278 1.305 . S
C292 O279 1.234 . S
C293 O290 1.305 . S
C293 O291 1.234 . S
Zn294 O300 1.920 1_554 S
Zn294 O306 1.898 . S
Zn294 O309 1.905 . S
Zn295 O303 1.905 1_556 S
Zn295 O304 1.898 1_556 S
Zn295 O312 1.920 . S
Zn296 O299 2.080 1_554 S
Zn296 O302 2.114 . S
Zn296 O305 2.120 1_554 S
Zn296 O307 2.120 . S
Zn296 O308 2.114 . S
Zn296 O311 2.080 1_554 S
C297 O302 1.166 . S
C297 O303 1.182 . S
C298 O304 1.167 . S
C298 O305 1.299 1_554 S
O299 Zn296 2.080 1_556 S
O299 C313 1.305 . S
O300 Zn294 1.920 1_556 S
O300 C313 1.234 . S
C301 O306 1.167 . S
C301 O307 1.299 . S
O302 Zn296 2.114 . S
O302 C297 1.166 . S
O303 Zn295 1.905 1_554 S
O303 C297 1.182 . S
O304 Zn295 1.898 1_554 S
O304 C298 1.167 . S
O305 Zn296 2.120 1_556 S
O305 C298 1.299 1_556 S
O306 Zn294 1.898 . S
O306 C301 1.167 . S
O307 Zn296 2.120 . S
O307 C301 1.299 . S
O308 Zn296 2.114 . S
O308 C310 1.166 . S
O309 Zn294 1.905 . S
O309 C310 1.182 . S
C310 O308 1.166 . S
C310 O309 1.182 . S
O311 Zn296 2.080 1_556 S
O311 C314 1.305 . S
O312 Zn295 1.920 . S
O312 C314 1.234 . S
C313 O299 1.305 . S
C313 O300 1.234 . S
C314 O311 1.305 . S
C314 O312 1.234 . S
Zn315 O321 1.920 . S
Zn315 O327 1.898 . S
Zn315 O330 1.905 . S
Zn316 O324 1.905 . S
Zn316 O325 1.898 . S
Zn316 O333 1.920 . S
Zn317 O320 2.080 . S
Zn317 O323 2.114 . S
Zn317 O326 2.120 . S
Zn317 O328 2.120 . S
Zn317 O329 2.114 . S
Zn317 O332 2.080 . S
C318 O323 1.166 . S
C318 O324 1.182 . S
C319 O325 1.167 . S
C319 O326 1.299 . S
O320 Zn317 2.080 . S
O320 C334 1.305 . S
O321 Zn315 1.920 . S
O321 C334 1.234 . S
C322 O327 1.167 . S
C322 O328 1.299 . S
O323 Zn317 2.114 . S
O323 C318 1.166 . S
O324 Zn316 1.905 . S
O324 C318 1.182 . S
O325 Zn316 1.898 . S
O325 C319 1.167 . S
O326 Zn317 2.120 . S
O326 C319 1.299 . S
O327 Zn315 1.898 . S
O327 C322 1.167 . S
O328 Zn317 2.120 . S
O328 C322 1.299 . S
O329 Zn317 2.114 . S
O329 C331 1.166 . S
O330 Zn315 1.905 . S
O330 C331 1.182 . S
C331 O329 1.166 . S
C331 O330 1.182 . S
O332 Zn317 2.080 . S
O332 C335 1.305 . S
O333 Zn316 1.920 . S
O333 C335 1.234 . S
C334 O320 1.305 . S
C334 O321 1.234 . S
C335 O332 1.305 . S
C335 O333 1.234 . S
Zn336 O342 1.920 . S
Zn336 O348 1.898 . S
Zn336 O351 1.905 . S
Zn337 O345 1.905 . S
Zn337 O346 1.898 . S
Zn337 O354 1.920 . S
Zn338 O341 2.080 . S
Zn338 O344 2.114 . S
Zn338 O347 2.120 . S
Zn338 O349 2.120 . S
Zn338 O350 2.114 . S
Zn338 O353 2.080 . S
C339 O344 1.166 . S
C339 O345 1.182 1_565 S
C340 O346 1.167 . S
C340 O347 1.299 1_545 S
O341 Zn338 2.080 . S
O341 C355 1.305 . S
O342 Zn336 1.920 . S
O342 C355 1.234 . S
C343 O348 1.167 . S
C343 O349 1.299 . S
O344 Zn338 2.114 . S
O344 C339 1.166 . S
O345 Zn337 1.905 . S
O345 C339 1.182 1_545 S
O346 Zn337 1.898 . S
O346 C340 1.167 . S
O347 Zn338 2.120 . S
O347 C340 1.299 1_565 S
O348 Zn336 1.898 . S
O348 C343 1.167 . S
O349 Zn338 2.120 . S
O349 C343 1.299 . S
O350 Zn338 2.114 . S
O350 C352 1.166 . S
O351 Zn336 1.905 . S
O351 C352 1.182 . S
C352 O350 1.166 . S
C352 O351 1.182 . S
O353 Zn338 2.080 . S
O353 C356 1.305 . S
O354 Zn337 1.920 . S
O354 C356 1.234 1_545 S
C355 O341 1.305 . S
C355 O342 1.234 . S
C356 O353 1.305 . S
C356 O354 1.234 1_565 S
Zn357 O363 1.920 . S
Zn357 O369 1.898 . S
Zn357 O372 1.905 . S
Zn358 O366 1.905 . S
Zn358 O367 1.898 . S
Zn358 O375 1.920 . S
Zn359 O362 2.080 . S
Zn359 O365 2.114 . S
Zn359 O368 2.120 . S
Zn359 O370 2.120 . S
Zn359 O371 2.114 . S
Zn359 O374 2.080 . S
C360 O365 1.166 . S
C360 O366 1.182 . S
C361 O367 1.167 . S
C361 O368 1.299 . S
O362 Zn359 2.080 . S
O362 C376 1.305 . S
O363 Zn357 1.920 . S
O363 C376 1.234 . S
C364 O369 1.167 . S
C364 O370 1.299 . S
O365 Zn359 2.114 . S
O365 C360 1.166 . S
O366 Zn358 1.905 . S
O366 C360 1.182 . S
O367 Zn358 1.898 . S
O367 C361 1.167 . S
O368 Zn359 2.120 . S
O368 C361 1.299 . S
O369 Zn357 1.898 . S
O369 C364 1.167 . S
O370 Zn359 2.120 . S
O370 C364 1.299 . S
O371 Zn359 2.114 . S
O371 C373 1.166 . S
O372 Zn357 1.905 . S
O372 C373 1.182 . S
C373 O371 1.166 . S
C373 O372 1.182 . S
O374 Zn359 2.080 . S
O374 C377 1.305 . S
O375 Zn358 1.920 . S
O375 C377 1.234 . S
C376 O362 1.305 . S
C376 O363 1.234 . S
C377 O374 1.305 . S
C377 O375 1.234 . S
Zn378 O384 1.920 . S
Zn378 O390 1.898 1_556 S
Zn378 O393 1.905 1_556 S
Zn379 O387 1.889 1_655 S
Zn379 O388 1.898 . S
Zn379 O396 1.920 1_554 S
Zn380 O383 2.080 1_554 S
Zn380 O386 2.114 . S
Zn380 O389 2.120 . S
Zn380 O391 2.120 1_554 S
Zn380 O392 2.114 . S
Zn380 O395 2.080 1_554 S
C381 O386 1.166 . S
C381 O387 1.180 1_655 S
C382 O388 1.167 . S
C382 O389 1.299 . S
O383 Zn380 2.080 1_556 S
O383 C397 1.305 . S
O384 Zn378 1.920 . S
O384 C397 1.234 1_565 S
C385 O390 1.167 . S
C385 O391 1.299 1_564 S
O386 Zn380 2.114 . S
O386 C381 1.166 . S
O387 Zn379 1.889 1_455 S
O387 C381 1.180 1_455 S
O388 Zn379 1.898 . S
O388 C382 1.167 . S
O389 Zn380 2.120 . S
O389 C382 1.299 . S
O390 Zn378 1.898 1_554 S
O390 C385 1.167 . S
O391 Zn380 2.120 1_556 S
O391 C385 1.299 1_546 S
O392 Zn380 2.114 . S
O392 C394 1.166 . S
O393 Zn378 1.905 1_554 S
O393 C394 1.182 1_565 S
C394 O392 1.166 . S
C394 O393 1.182 1_545 S
O395 Zn380 2.080 1_556 S
O395 C398 1.305 . S
O396 Zn379 1.920 1_556 S
O396 C398 1.234 . S
C397 O383 1.305 . S
C397 O384 1.234 1_545 S
C398 O395 1.305 . S
C398 O396 1.234 . S
Zn399 O405 1.920 . S
Zn399 O411 1.898 . S
Zn399 O414 1.905 . S
Zn400 O408 1.905 . S
Zn400 O409 1.898 . S
Zn400 O417 1.920 . S
Zn401 O404 2.080 . S
Zn401 O407 2.114 . S
Zn401 O410 2.120 . S
Zn401 O412 2.120 . S
Zn401 O413 2.114 . S
Zn401 O416 2.080 . S
C402 O407 1.166 . S
C402 O408 1.182 . S
C403 O409 1.167 . S
C403 O410 1.299 . S
O404 Zn401 2.080 . S
O404 C418 1.305 . S
O405 Zn399 1.920 . S
O405 C418 1.234 . S
C406 O411 1.167 . S
C406 O412 1.299 . S
O407 Zn401 2.114 . S
O407 C402 1.166 . S
O408 Zn400 1.905 . S
O408 C402 1.182 . S
O409 Zn400 1.898 . S
O409 C403 1.167 . S
O410 Zn401 2.120 . S
O410 C403 1.299 . S
O411 Zn399 1.898 . S
O411 C406 1.167 . S
O412 Zn401 2.120 . S
O412 C406 1.299 . S
O413 Zn401 2.114 . S
O413 C415 1.166 . S
O414 Zn399 1.905 . S
O414 C415 1.182 . S
C415 O413 1.166 . S
C415 O414 1.182 . S
O416 Zn401 2.080 . S
O416 C419 1.305 . S
O417 Zn400 1.920 . S
O417 C419 1.234 . S
C418 O404 1.305 . S
C418 O405 1.234 . S
C419 O416 1.305 . S
C419 O417 1.234 . S
Zn420 O426 1.920 . S
Zn420 O432 1.898 1_554 S
Zn420 O435 1.905 1_554 S
Zn421 O429 1.905 . S
Zn421 O430 1.898 . S
Zn421 O438 1.920 1_556 S
Zn422 O425 2.076 1_556 S
Zn422 O428 2.118 . S
Zn422 O431 2.120 . S
Zn422 O433 2.119 1_556 S
Zn422 O434 2.118 . S
Zn422 O437 2.076 1_556 S
C423 O428 1.166 . S
C423 O429 1.182 . S
C424 O430 1.167 . S
C424 O431 1.299 . S
O425 Zn422 2.076 1_554 S
O425 C439 1.305 . S
O426 Zn420 1.920 . S
O426 C439 1.234 1_565 S
C427 O432 1.167 . S
C427 O433 1.299 1_566 S
O428 Zn422 2.118 . S
O428 C423 1.166 . S
O429 Zn421 1.905 . S
O429 C423 1.182 . S
O430 Zn421 1.898 . S
O430 C424 1.167 . S
O431 Zn422 2.120 . S
O431 C424 1.299 . S
O432 Zn420 1.898 1_556 S
O432 C427 1.167 . S
O433 Zn422 2.119 1_554 S
O433 C427 1.299 1_544 S
O434 Zn422 2.118 . S
O434 C436 1.166 . S
O435 Zn420 1.905 1_556 S
O435 C436 1.182 1_565 S
C436 O434 1.166 . S
C436 O435 1.182 1_545 S
O437 Zn422 2.076 1_554 S
O437 C440 1.305 . S
O438 Zn421 1.920 1_554 S
O438 C440 1.234 . S
C439 O425 1.305 . S
C439 O426 1.234 1_545 S
C440 O437 1.305 . S
C440 O438 1.234 . S
Zn441 O447 1.920 . S
Zn441 O453 1.898 . S
Zn441 O456 1.905 . S
Zn442 O450 1.905 . S
Zn442 O451 1.898 . S
Zn442 O459 1.920 . S
Zn443 O446 2.080 . S
Zn443 O449 2.114 . S
Zn443 O452 2.120 . S
Zn443 O454 2.120 . S
Zn443 O455 2.114 . S
Zn443 O458 2.080 . S
C444 O449 1.166 . S
C444 O450 1.182 . S
C445 O451 1.167 . S
C445 O452 1.299 . S
O446 Zn443 2.080 . S
O446 C460 1.305 . S
O447 Zn441 1.920 . S
O447 C460 1.234 . S
C448 O453 1.167 . S
C448 O454 1.299 . S
O449 Zn443 2.114 . S
O449 C444 1.166 . S
O450 Zn442 1.905 . S
O450 C444 1.182 . S
O451 Zn442 1.898 . S
O451 C445 1.167 . S
O452 Zn443 2.120 . S
O452 C445 1.299 . S
O453 Zn441 1.898 . S
O453 C448 1.167 . S
O454 Zn443 2.120 . S
O454 C448 1.299 . S
O455 Zn443 2.114 . S
O455 C457 1.166 . S
O456 Zn441 1.905 . S
O456 C457 1.182 . S
C457 O455 1.166 . S
C457 O456 1.182 . S
O458 Zn443 2.080 . S
O458 C461 1.305 . S
O459 Zn442 1.920 . S
O459 C461 1.234 . S
C460 O446 1.305 . S
C460 O447 1.234 . S
C461 O458 1.305 . S
C461 O459 1.234 . S
Zn462 O468 1.920 . S
Zn462 O474 1.898 . S
Zn462 O477 1.905 . S
Zn463 O471 1.889 1_655 S
Zn463 O472 1.898 . S
Zn463 O480 1.920 . S
Zn464 O467 2.080 . S
Zn464 O470 2.114 . S
Zn464 O473 2.120 . S
Zn464 O475 2.120 . S
Zn464 O476 2.114 . S
Zn464 O479 2.080 . S
C465 O470 1.166 . S
C465 O471 1.180 1_655 S
C466 O472 1.167 . S
C466 O473 1.299 . S
O467 Zn464 2.080 . S
O467 C481 1.305 . S
O468 Zn462 1.920 . S
O468 C481 1.234 1_545 S
C469 O474 1.167 . S
C469 O475 1.299 1_545 S
O470 Zn464 2.114 . S
O470 C465 1.166 . S
O471 Zn463 1.889 1_455 S
O471 C465 1.180 1_455 S
O472 Zn463 1.898 . S
O472 C466 1.167 . S
O473 Zn464 2.120 . S
O473 C466 1.299 . S
O474 Zn462 1.898 . S
O474 C469 1.167 . S
O475 Zn464 2.120 . S
O475 C469 1.299 1_565 S
O476 Zn464 2.114 . S
O476 C478 1.166 . S
O477 Zn462 1.905 . S
O477 C478 1.182 1_545 S
C478 O476 1.166 . S
C478 O477 1.182 1_565 S
O479 Zn464 2.080 . S
O479 C482 1.305 . S
O480 Zn463 1.920 . S
O480 C482 1.234 . S
C481 O467 1.305 . S
C481 O468 1.234 1_565 S
C482 O479 1.305 . S
C482 O480 1.234 . S
Zn483 O489 1.920 . S
Zn483 O495 1.898 . S
Zn483 O498 1.905 . S
Zn484 O492 1.905 . S
Zn484 O493 1.898 . S
Zn484 O501 1.920 . S
Zn485 O488 2.080 . S
Zn485 O491 2.114 . S
Zn485 O494 2.120 . S
Zn485 O496 2.120 . S
Zn485 O497 2.114 . S
Zn485 O500 2.080 . S
C486 O491 1.166 . S
C486 O492 1.182 . S
C487 O493 1.167 . S
C487 O494 1.299 . S
O488 Zn485 2.080 . S
O488 C502 1.305 . S
O489 Zn483 1.920 . S
O489 C502 1.234 . S
C490 O495 1.167 . S
C490 O496 1.299 . S
O491 Zn485 2.114 . S
O491 C486 1.166 . S
O492 Zn484 1.905 . S
O492 C486 1.182 . S
O493 Zn484 1.898 . S
O493 C487 1.167 . S
O494 Zn485 2.120 . S
O494 C487 1.299 . S
O495 Zn483 1.898 . S
O495 C490 1.167 . S
O496 Zn485 2.120 . S
O496 C490 1.299 . S
O497 Zn485 2.114 . S
O497 C499 1.166 . S
O498 Zn483 1.905 . S
O498 C499 1.182 . S
C499 O497 1.166 . S
C499 O498 1.182 . S
O500 Zn485 2.080 . S
O500 C503 1.305 . S
O501 Zn484 1.920 . S
O501 C503 1.234 . S
C502 O488 1.305 . S
C502 O489 1.234 . S
C503 O500 1.305 . S
C503 O501 1.234 . S
Zn504 O510 1.920 . S
Zn504 O516 1.898 . S
Zn504 O519 1.905 . S
Zn505 O513 1.905 1_545 S
Zn505 O514 1.898 . S
Zn505 O522 1.920 . S
Zn506 O509 2.080 . S
Zn506 O512 2.114 . S
Zn506 O515 2.120 . S
Zn506 O517 2.120 . S
Zn506 O518 2.114 . S
Zn506 O521 2.080 . S
C507 O512 1.166 . S
C507 O513 1.182 1_545 S
C508 O514 1.167 . S
C508 O515 1.299 . S
O509 Zn506 2.080 . S
O509 C523 1.305 . S
O510 Zn504 1.920 . S
O510 C523 1.234 . S
C511 O516 1.167 . S
C511 O517 1.299 . S
O512 Zn506 2.114 . S
O512 C507 1.166 . S
O513 Zn505 1.905 1_565 S
O513 C507 1.182 1_565 S
O514 Zn505 1.898 . S
O514 C508 1.167 . S
O515 Zn506 2.120 . S
O515 C508 1.299 . S
O516 Zn504 1.898 . S
O516 C511 1.167 . S
O517 Zn506 2.120 . S
O517 C511 1.299 . S
O518 Zn506 2.114 . S
O518 C520 1.166 . S
O519 Zn504 1.905 . S
O519 C520 1.182 . S
C520 O518 1.166 . S
C520 O519 1.182 . S
O521 Zn506 2.080 . S
O521 C524 1.305 . S
O522 Zn505 1.920 . S
O522 C524 1.234 . S
C523 O509 1.305 . S
C523 O510 1.234 . S
C524 O521 1.305 . S
C524 O522 1.234 . S
Zn525 O531 1.920 . S
Zn525 O537 1.898 . S
Zn525 O540 1.905 . S
Zn526 O534 1.905 . S
Zn526 O535 1.898 . S
Zn526 O543 1.920 . S
Zn527 O530 2.080 . S
Zn527 O533 2.114 . S
Zn527 O536 2.120 . S
Zn527 O538 2.120 . S
Zn527 O539 2.114 . S
Zn527 O542 2.080 . S
C528 O533 1.166 . S
C528 O534 1.182 . S
C529 O535 1.167 . S
C529 O536 1.299 . S
O530 Zn527 2.080 . S
O530 C544 1.305 . S
O531 Zn525 1.920 . S
O531 C544 1.234 . S
C532 O537 1.167 . S
C532 O538 1.299 . S
O533 Zn527 2.114 . S
O533 C528 1.166 . S
O534 Zn526 1.905 . S
O534 C528 1.182 . S
O535 Zn526 1.898 . S
O535 C529 1.167 . S
O536 Zn527 2.120 . S
O536 C529 1.299 . S
O537 Zn525 1.898 . S
O537 C532 1.167 . S
O538 Zn527 2.120 . S
O538 C532 1.299 . S
O539 Zn527 2.114 . S
O539 C541 1.166 . S
O540 Zn525 1.905 . S
O540 C541 1.182 . S
C541 O539 1.166 . S
C541 O540 1.182 . S
O542 Zn527 2.080 . S
O542 C545 1.305 . S
O543 Zn526 1.920 . S
O543 C545 1.234 . S
C544 O530 1.305 . S
C544 O531 1.234 . S
C545 O542 1.305 . S
C545 O543 1.234 . S
Zn546 O552 1.920 . S
Zn546 O558 1.898 1_554 S
Zn546 O561 1.905 1_554 S
Zn547 O555 1.905 1_565 S
Zn547 O556 1.898 . S
Zn547 O564 1.920 1_556 S
Zn548 O551 2.077 1_556 S
Zn548 O554 2.118 . S
Zn548 O557 2.120 . S
Zn548 O559 2.119 1_556 S
Zn548 O560 2.118 . S
Zn548 O563 2.077 1_556 S
C549 O554 1.166 . S
C549 O555 1.182 1_565 S
C550 O556 1.167 . S
C550 O557 1.299 . S
O551 Zn548 2.077 1_554 S
O551 C565 1.305 . S
O552 Zn546 1.920 . S
O552 C565 1.234 1_655 S
C553 O558 1.167 . S
C553 O559 1.299 1_656 S
O554 Zn548 2.118 . S
O554 C549 1.166 . S
O555 Zn547 1.905 1_545 S
O555 C549 1.182 1_545 S
O556 Zn547 1.898 . S
O556 C550 1.167 . S
O557 Zn548 2.120 . S
O557 C550 1.299 . S
O558 Zn546 1.898 1_556 S
O558 C553 1.167 . S
O559 Zn548 2.119 1_554 S
O559 C553 1.299 1_454 S
O560 Zn548 2.118 . S
O560 C562 1.166 . S
O561 Zn546 1.905 1_556 S
O561 C562 1.182 1_655 S
C562 O560 1.166 . S
C562 O561 1.182 1_455 S
O563 Zn548 2.077 1_554 S
O563 C566 1.305 . S
O564 Zn547 1.920 1_554 S
O564 C566 1.234 . S
C565 O551 1.305 . S
C565 O552 1.234 1_455 S
C566 O563 1.305 . S
C566 O564 1.234 . S
Zn567 O573 1.920 . S
Zn567 O579 1.898 . S
Zn567 O582 1.905 . S
Zn568 O576 1.905 . S
Zn568 O577 1.898 . S
Zn568 O585 1.920 . S
Zn569 O572 2.080 . S
Zn569 O575 2.114 . S
Zn569 O578 2.120 . S
Zn569 O580 2.120 . S
Zn569 O581 2.114 . S
Zn569 O584 2.080 . S
C570 O575 1.166 . S
C570 O576 1.182 . S
C571 O577 1.167 . S
C571 O578 1.299 . S
O572 Zn569 2.080 . S
O572 C586 1.305 . S
O573 Zn567 1.920 . S
O573 C586 1.234 . S
C574 O579 1.167 . S
C574 O580 1.299 . S
O575 Zn569 2.114 . S
O575 C570 1.166 . S
O576 Zn568 1.905 . S
O576 C570 1.182 . S
O577 Zn568 1.898 . S
O577 C571 1.167 . S
O578 Zn569 2.120 . S
O578 C571 1.299 . S
O579 Zn567 1.898 . S
O579 C574 1.167 . S
O580 Zn569 2.120 . S
O580 C574 1.299 . S
O581 Zn569 2.114 . S
O581 C583 1.166 . S
O582 Zn567 1.905 . S
O582 C583 1.182 . S
C583 O581 1.166 . S
C583 O582 1.182 . S
O584 Zn569 2.080 . S
O584 C587 1.305 . S
O585 Zn568 1.920 . S
O585 C587 1.234 . S
C586 O572 1.305 . S
C586 O573 1.234 . S
C587 O584 1.305 . S
C587 O585 1.234 . S
Zn588 O594 1.920 . S
Zn588 O600 1.898 1_556 S
Zn588 O603 1.905 1_556 S
Zn589 O597 1.883 1_565 S
Zn589 O598 1.898 . S
Zn589 O606 1.920 1_554 S
Zn590 O593 2.080 1_554 S
Zn590 O596 2.114 . S
Zn590 O599 2.120 . S
Zn590 O601 2.120 1_554 S
Zn590 O602 2.114 . S
Zn590 O605 2.080 1_554 S
C591 O596 1.166 . S
C591 O597 1.180 1_565 S
C592 O598 1.167 . S
C592 O599 1.299 . S
O593 Zn590 2.080 1_556 S
O593 C607 1.305 . S
O594 Zn588 1.920 . S
O594 C607 1.234 . S
C595 O600 1.167 . S
C595 O601 1.299 1_554 S
O596 Zn590 2.114 . S
O596 C591 1.166 . S
O597 Zn589 1.883 1_545 S
O597 C591 1.180 1_545 S
O598 Zn589 1.898 . S
O598 C592 1.167 . S
O599 Zn590 2.120 . S
O599 C592 1.299 . S
O600 Zn588 1.898 1_554 S
O600 C595 1.167 . S
O601 Zn590 2.120 1_556 S
O601 C595 1.299 1_556 S
O602 Zn590 2.114 . S
O602 C604 1.166 . S
O603 Zn588 1.905 1_554 S
O603 C604 1.182 . S
C604 O602 1.166 . S
C604 O603 1.182 . S
O605 Zn590 2.080 1_556 S
O605 C608 1.305 . S
O606 Zn589 1.920 1_556 S
O606 C608 1.234 . S
C607 O593 1.305 . S
C607 O594 1.234 . S
C608 O605 1.305 . S
C608 O606 1.234 . S
Zn609 O615 1.920 . S
Zn609 O621 1.898 . S
Zn609 O624 1.905 . S
Zn610 O618 1.905 . S
Zn610 O619 1.898 . S
Zn610 O627 1.920 . S
Zn611 O614 2.080 . S
Zn611 O617 2.114 . S
Zn611 O620 2.120 . S
Zn611 O622 2.120 . S
Zn611 O623 2.114 . S
Zn611 O626 2.080 . S
C612 O617 1.166 . S
C612 O618 1.182 . S
C613 O619 1.167 . S
C613 O620 1.299 . S
O614 Zn611 2.080 . S
O614 C628 1.305 . S
O615 Zn609 1.920 . S
O615 C628 1.234 . S
C616 O621 1.167 . S
C616 O622 1.299 . S
O617 Zn611 2.114 . S
O617 C612 1.166 . S
O618 Zn610 1.905 . S
O618 C612 1.182 . S
O619 Zn610 1.898 . S
O619 C613 1.167 . S
O620 Zn611 2.120 . S
O620 C613 1.299 . S
O621 Zn609 1.898 . S
O621 C616 1.167 . S
O622 Zn611 2.120 . S
O622 C616 1.299 . S
O623 Zn611 2.114 . S
O623 C625 1.166 . S
O624 Zn609 1.905 . S
O624 C625 1.182 . S
C625 O623 1.166 . S
C625 O624 1.182 . S
O626 Zn611 2.080 . S
O626 C629 1.305 . S
O627 Zn610 1.920 . S
O627 C629 1.234 . S
C628 O614 1.305 . S
C628 O615 1.234 . S
C629 O626 1.305 . S
C629 O627 1.234 . S
Zn630 O636 1.920 . S
Zn630 O642 1.898 . S
Zn630 O645 1.883 1_545 S
Zn631 O639 1.905 . S
Zn631 O640 1.898 . S
Zn631 O648 1.920 . S
Zn632 O635 2.080 . S
Zn632 O638 2.114 . S
Zn632 O641 2.120 . S
Zn632 O643 2.120 . S
Zn632 O644 2.114 . S
Zn632 O647 2.080 . S
C633 O638 1.166 . S
C633 O639 1.182 1_455 S
C634 O640 1.167 . S
C634 O641 1.299 1_655 S
O635 Zn632 2.080 . S
O635 C649 1.305 . S
O636 Zn630 1.920 . S
O636 C649 1.234 . S
C637 O642 1.167 . S
C637 O643 1.299 . S
O638 Zn632 2.114 . S
O638 C633 1.166 . S
O639 Zn631 1.905 . S
O639 C633 1.182 1_655 S
O640 Zn631 1.898 . S
O640 C634 1.167 . S
O641 Zn632 2.120 . S
O641 C634 1.299 1_455 S
O642 Zn630 1.898 . S
O642 C637 1.167 . S
O643 Zn632 2.120 . S
O643 C637 1.299 . S
O644 Zn632 2.114 . S
O644 C646 1.166 . S
O645 Zn630 1.883 1_565 S
O645 C646 1.180 1_565 S
C646 O644 1.166 . S
C646 O645 1.180 1_545 S
O647 Zn632 2.080 . S
O647 C650 1.305 . S
O648 Zn631 1.920 . S
O648 C650 1.234 1_655 S
C649 O635 1.305 . S
C649 O636 1.234 . S
C650 O647 1.305 . S
C650 O648 1.234 1_455 S
Zn651 O657 1.920 . S
Zn651 O663 1.898 . S
Zn651 O666 1.905 . S
Zn652 O660 1.905 . S
Zn652 O661 1.898 . S
Zn652 O669 1.920 . S
Zn653 O656 2.080 . S
Zn653 O659 2.114 . S
Zn653 O662 2.120 . S
Zn653 O664 2.120 . S
Zn653 O665 2.114 . S
Zn653 O668 2.080 . S
C654 O659 1.166 . S
C654 O660 1.182 . S
C655 O661 1.167 . S
C655 O662 1.299 . S
O656 Zn653 2.080 . S
O656 C670 1.305 . S
O657 Zn651 1.920 . S
O657 C670 1.234 . S
C658 O663 1.167 . S
C658 O664 1.299 . S
O659 Zn653 2.114 . S
O659 C654 1.166 . S
O660 Zn652 1.905 . S
O660 C654 1.182 . S
O661 Zn652 1.898 . S
O661 C655 1.167 . S
O662 Zn653 2.120 . S
O662 C655 1.299 . S
O663 Zn651 1.898 . S
O663 C658 1.167 . S
O664 Zn653 2.120 . S
O664 C658 1.299 . S
O665 Zn653 2.114 . S
O665 C667 1.166 . S
O666 Zn651 1.905 . S
O666 C667 1.182 . S
C667 O665 1.166 . S
C667 O666 1.182 . S
O668 Zn653 2.080 . S
O668 C671 1.305 . S
O669 Zn652 1.920 . S
O669 C671 1.234 . S
C670 O656 1.305 . S
C670 O657 1.234 . S
C671 O668 1.305 . S
C671 O669 1.234 . S
C3 C100 1.816 . S
C121 C24 1.816 . S
C58 C142 1.816 . S
C163 C79 1.816 1_554 S
C171 C255 1.827 . S
C192 C289 1.827 . S
C310 C213 1.827 . S
C234 C318 1.827 1_554 S
C436 C339 1.816 1_545 S
C360 C444 1.816 1_556 S
C394 C478 1.816 1_545 S
C415 C499 1.816 . S
C507 C591 1.827 1_545 S
C625 C528 1.827 1_556 S
C549 C646 1.827 1_565 S
C654 C570 1.827 . S
C448 C7 0.931 . S
C466 C28 0.932 . S
C487 C46 0.931 . S
C67 C424 0.932 . S
C88 C403 0.932 . S
C343 C109 0.931 . S
C130 C364 0.932 . S
C151 C382 0.931 . S
C172 C616 0.939 . S
C637 C193 0.939 . S
C655 C214 0.940 . S
C235 C592 0.939 . S
C256 C571 0.939 . S
C280 C508 0.940 . S
C301 C529 0.939 . S
C319 C550 0.939 . S
C175 C4 0.899 1_556 S
C25 C532 0.899 . S
C217 C49 0.899 . S
C70 C574 0.899 . S
C259 C91 0.899 . S
C613 C112 0.899 . S
C133 C298 0.899 1_556 S
C154 C658 0.899 . S
C361 C196 0.899 . S
C406 C238 0.899 . S
C277 C445 0.899 . S
C490 C322 0.899 . S
C511 C340 0.899 . S
C553 C385 0.899 1_556 S
C595 C427 0.899 1_554 S
C469 C634 0.899 . S
C19 C268 1.847 1_455 S
C612 C40 1.847 1_556 S
C297 C62 1.847 . S
C83 C667 1.847 . S
C184 C104 1.847 1_655 S
C541 C125 1.847 1_554 S
C226 C146 1.847 . S
C583 C167 1.847 . S
C87 C187 1.417 1_455 S
C457 C208 1.417 1_554 S
C129 C229 1.417 . S
C250 C486 1.417 . S
C16 C271 1.417 1_455 S
C373 C293 1.417 1_556 S
C314 C45 1.417 . S
C334 C402 1.417 . S
C604 C355 1.847 . S
C276 C376 1.847 . S
C398 C633 1.847 1_655 S
C331 C419 1.847 1_556 S
C440 C520 1.847 . S
C460 C205 1.847 . S
C562 C482 1.847 1_455 S
C247 C503 1.847 1_554 S
C523 C423 1.417 . S
C544 C108 1.417 . S
C565 C465 1.417 1_455 S
C586 C150 1.417 1_556 S
C352 C607 1.417 . S
C37 C629 1.417 . S
C650 C381 1.417 1_455 S
C66 C670 1.417 1_556 S
C103 C20 0.760 . S
C124 C41 0.760 1_556 S
C61 C145 0.760 . S
C166 C82 0.760 . S
C272 C188 2.383 . S
C209 C292 2.384 1_556 S
C230 C313 2.383 . S
C335 C251 2.384 . S
C356 C439 0.760 1_565 S
C461 C377 0.760 . S
C397 C481 0.760 1_545 S
C418 C502 0.760 1_554 S
C608 C524 2.383 1_565 S
C628 C545 2.384 . S
C566 C649 2.383 1_565 S
C671 C587 2.384 1_554 S
