# Generated by pormake.
# Topology crs, (6)-cn, num edge types: 1
# Building blocks:
#     Node 0, Type 0, BuildingBlock: CIFDUS_clean_sbu_1, # of connection points: 6
#     Node 1, Type 0, BuildingBlock: CIFDUS_clean_sbu_1, # of connection points: 6
#     Node 2, Type 0, BuildingBlock: CIFDUS_clean_sbu_1, # of connection points: 6
#     Node 3, Type 0, BuildingBlock: CIFDUS_clean_sbu_1, # of connection points: 6
#     Node 4, Type 0, BuildingBlock: CIFDUS_clean_sbu_1, # of connection points: 6
#     Node 5, Type 0, BuildingBlock: CIFDUS_clean_sbu_1, # of connection points: 6
#     Node 6, Type 0, BuildingBlock: CIFDUS_clean_sbu_1, # of connection points: 6
#     Node 7, Type 0, BuildingBlock: CIFDUS_clean_sbu_1, # of connection points: 6
#     Node 8, Type 0, BuildingBlock: CIFDUS_clean_sbu_1, # of connection points: 6
#     Node 9, Type 0, BuildingBlock: CIFDUS_clean_sbu_1, # of connection points: 6
#     Node 10, Type 0, BuildingBlock: CIFDUS_clean_sbu_1, # of connection points: 6
#     Node 11, Type 0, BuildingBlock: CIFDUS_clean_sbu_1, # of connection points: 6
#     Node 12, Type 0, BuildingBlock: CIFDUS_clean_sbu_1, # of connection points: 6
#     Node 13, Type 0, BuildingBlock: CIFDUS_clean_sbu_1, # of connection points: 6
#     Node 14, Type 0, BuildingBlock: CIFDUS_clean_sbu_1, # of connection points: 6
#     Node 15, Type 0, BuildingBlock: CIFDUS_clean_sbu_1, # of connection points: 6
#     Edge 16, Type (0, 0), BuildingBlock: XIVTED_clean_linker_0, # of connection points: 2
#     Edge 17, Type (0, 0), BuildingBlock: XIVTED_clean_linker_0, # of connection points: 2
#     Edge 18, Type (0, 0), BuildingBlock: XIVTED_clean_linker_0, # of connection points: 2
#     Edge 19, Type (0, 0), BuildingBlock: XIVTED_clean_linker_0, # of connection points: 2
#     Edge 20, Type (0, 0), BuildingBlock: XIVTED_clean_linker_0, # of connection points: 2
#     Edge 21, Type (0, 0), BuildingBlock: XIVTED_clean_linker_0, # of connection points: 2
#     Edge 22, Type (0, 0), BuildingBlock: XIVTED_clean_linker_0, # of connection points: 2
#     Edge 23, Type (0, 0), BuildingBlock: XIVTED_clean_linker_0, # of connection points: 2
#     Edge 24, Type (0, 0), BuildingBlock: XIVTED_clean_linker_0, # of connection points: 2
#     Edge 25, Type (0, 0), BuildingBlock: XIVTED_clean_linker_0, # of connection points: 2
#     Edge 26, Type (0, 0), BuildingBlock: XIVTED_clean_linker_0, # of connection points: 2
#     Edge 27, Type (0, 0), BuildingBlock: XIVTED_clean_linker_0, # of connection points: 2
#     Edge 28, Type (0, 0), BuildingBlock: XIVTED_clean_linker_0, # of connection points: 2
#     Edge 29, Type (0, 0), BuildingBlock: XIVTED_clean_linker_0, # of connection points: 2
#     Edge 30, Type (0, 0), BuildingBlock: XIVTED_clean_linker_0, # of connection points: 2
#     Edge 31, Type (0, 0), BuildingBlock: XIVTED_clean_linker_0, # of connection points: 2
#     Edge 32, Type (0, 0), BuildingBlock: XIVTED_clean_linker_0, # of connection points: 2
#     Edge 33, Type (0, 0), BuildingBlock: XIVTED_clean_linker_0, # of connection points: 2
#     Edge 34, Type (0, 0), BuildingBlock: XIVTED_clean_linker_0, # of connection points: 2
#     Edge 35, Type (0, 0), BuildingBlock: XIVTED_clean_linker_0, # of connection points: 2
#     Edge 36, Type (0, 0), BuildingBlock: XIVTED_clean_linker_0, # of connection points: 2
#     Edge 37, Type (0, 0), BuildingBlock: XIVTED_clean_linker_0, # of connection points: 2
#     Edge 38, Type (0, 0), BuildingBlock: XIVTED_clean_linker_0, # of connection points: 2
#     Edge 39, Type (0, 0), BuildingBlock: XIVTED_clean_linker_0, # of connection points: 2
#     Edge 40, Type (0, 0), BuildingBlock: XIVTED_clean_linker_0, # of connection points: 2
#     Edge 41, Type (0, 0), BuildingBlock: XIVTED_clean_linker_0, # of connection points: 2
#     Edge 42, Type (0, 0), BuildingBlock: XIVTED_clean_linker_0, # of connection points: 2
#     Edge 43, Type (0, 0), BuildingBlock: XIVTED_clean_linker_0, # of connection points: 2
#     Edge 44, Type (0, 0), BuildingBlock: XIVTED_clean_linker_0, # of connection points: 2
#     Edge 45, Type (0, 0), BuildingBlock: XIVTED_clean_linker_0, # of connection points: 2
#     Edge 46, Type (0, 0), BuildingBlock: XIVTED_clean_linker_0, # of connection points: 2
#     Edge 47, Type (0, 0), BuildingBlock: XIVTED_clean_linker_0, # of connection points: 2
#     Edge 48, Type (0, 0), BuildingBlock: XIVTED_clean_linker_0, # of connection points: 2
#     Edge 49, Type (0, 0), BuildingBlock: XIVTED_clean_linker_0, # of connection points: 2
#     Edge 50, Type (0, 0), BuildingBlock: XIVTED_clean_linker_0, # of connection points: 2
#     Edge 51, Type (0, 0), BuildingBlock: XIVTED_clean_linker_0, # of connection points: 2
#     Edge 52, Type (0, 0), BuildingBlock: XIVTED_clean_linker_0, # of connection points: 2
#     Edge 53, Type (0, 0), BuildingBlock: XIVTED_clean_linker_0, # of connection points: 2
#     Edge 54, Type (0, 0), BuildingBlock: XIVTED_clean_linker_0, # of connection points: 2
#     Edge 55, Type (0, 0), BuildingBlock: XIVTED_clean_linker_0, # of connection points: 2
#     Edge 56, Type (0, 0), BuildingBlock: XIVTED_clean_linker_0, # of connection points: 2
#     Edge 57, Type (0, 0), BuildingBlock: XIVTED_clean_linker_0, # of connection points: 2
#     Edge 58, Type (0, 0), BuildingBlock: XIVTED_clean_linker_0, # of connection points: 2
#     Edge 59, Type (0, 0), BuildingBlock: XIVTED_clean_linker_0, # of connection points: 2
#     Edge 60, Type (0, 0), BuildingBlock: XIVTED_clean_linker_0, # of connection points: 2
#     Edge 61, Type (0, 0), BuildingBlock: XIVTED_clean_linker_0, # of connection points: 2
#     Edge 62, Type (0, 0), BuildingBlock: XIVTED_clean_linker_0, # of connection points: 2
#     Edge 63, Type (0, 0), BuildingBlock: XIVTED_clean_linker_0, # of connection points: 2
# Relax obj value: 0.275
# Max RMSD: 0.232
# Mean RMSD: 0.228
data_MOF--net-crs--node1-CIFDUS_clean_sbu_1--edge1-XIVTED_clean_linker_0
_symmetry_space_group_name_H-M    P1
_symmetry_Int_Tables_number       1
_symmetry_cell_setting            triclinic
loop_
_symmetry_equiv_pos_as_xyz
'x, y, z'
_cell_length_a     40.950921
_cell_length_b     41.296533
_cell_length_c     41.619358
_cell_angle_alpha  90.574199
_cell_angle_beta   88.934683
_cell_angle_gamma 88.357613
loop_
_atom_site_label
_atom_site_type_symbol
_atom_site_fract_x
_atom_site_fract_y
_atom_site_fract_z
_atom_type_partial_charge
O0 O 0.95686 0.00826 0.99421 0.0
Mn1 Mn 0.00275 0.99447 0.01067 0.0
O2 O 0.91981 0.99641 0.03237 0.0
Mn3 Mn 0.94862 0.97162 0.05629 0.0
O4 O 0.04868 0.98071 0.02737 0.0
O5 O 0.01942 0.99724 0.96458 0.0
Mn6 Mn 0.05774 0.01571 0.96496 0.0
O7 O 0.01219 0.0439 0.01848 0.0
O8 O 0.08562 0.98939 0.9882 0.0
O9 O 0.99335 0.94499 0.00231 0.0
O10 O 0.95802 0.93028 0.04119 0.0
O11 O 0.05002 0.00765 0.92257 0.0
O12 O 0.04993 0.05697 0.98102 0.0
C13 C 0.98174 0.99379 0.08793 0.0
C14 C 0.92749 0.00893 0.00552 0.0
C15 C 0.07788 0.97841 0.01569 0.0
C16 C 0.02293 0.99617 0.93351 0.0
C17 C 0.03029 0.06451 0.00413 0.0
C18 C 0.9767 0.92355 0.01716 0.0
O19 O 0.98604 0.99194 0.05691 0.0
O20 O 0.9552 0.98097 0.0986 0.0
O21 O 0.04303 0.24517 0.21608 0.0
Mn22 Mn 0.02018 0.23424 0.25923 0.0
O23 O 0.00706 0.23836 0.17635 0.0
Mn24 Mn 0.975 0.2191 0.20157 0.0
O25 O -0.00236 0.22404 0.30318 0.0
O26 O 0.06425 0.22893 0.27894 0.0
Mn27 Mn 0.06727 0.25232 0.31414 0.0
O28 O 0.01697 0.2835 0.27198 0.0
O29 O 0.03425 0.23695 0.341 0.0
O30 O 0.02328 0.18518 0.24588 0.0
O31 O 0.98366 0.176 0.21032 0.0
O32 O 0.10724 0.23033 0.30802 0.0
O33 O 0.06054 0.29486 0.3016 0.0
C34 C 0.94686 0.24956 0.23466 0.0
C35 C 0.0351 0.24623 0.1864 0.0
C36 C 0.00617 0.22713 0.33269 0.0
C37 C 0.09361 0.21799 0.28314 0.0
C38 C 0.03513 0.30369 0.28644 0.0
C39 C 0.00718 0.16626 0.2277 0.0
O40 O 0.97635 0.23916 0.23898 0.0
O41 O 0.93418 0.2388 0.20855 0.0
O42 O 0.77802 0.23981 0.57644 0.0
Mn43 Mn 0.78186 0.24802 0.52707 0.0
O44 O 0.8077 0.19463 0.58683 0.0
Mn45 Mn 0.80853 0.17932 0.5448 0.0
O46 O 0.7845 0.25669 0.47782 0.0
O47 O 0.74716 0.28343 0.53264 0.0
Mn48 Mn 0.76091 0.31921 0.51461 0.0
O49 O 0.81895 0.27969 0.53607 0.0
O50 O 0.76779 0.30877 0.47153 0.0
O51 O 0.74618 0.21483 0.51856 0.0
O52 O 0.76897 0.16563 0.52906 0.0
O53 O 0.71942 0.329 0.53055 0.0
O54 O 0.79756 0.33026 0.53721 0.0
C55 C 0.84274 0.19837 0.51044 0.0
C56 C 0.79123 0.21978 0.59602 0.0
C57 C 0.77789 0.28135 0.4603 0.0
C58 C 0.72045 0.29935 0.54028 0.0
C59 C 0.82091 0.30999 0.54211 0.0
C60 C 0.7453 0.18377 0.51945 0.0
O61 O 0.81658 0.21319 0.52111 0.0
O62 O 0.84769 0.17017 0.52294 0.0
O63 O 0.73243 0.97504 0.79146 0.0
Mn64 Mn 0.73632 0.02404 0.77978 0.0
O65 O 0.69022 0.97075 0.82662 0.0
Mn66 Mn 0.68632 0.01454 0.83672 0.0
O67 O 0.74054 0.07352 0.76939 0.0
O68 O 0.77982 0.01283 0.75913 0.0
Mn69 Mn 0.78731 0.03755 0.72595 0.0
O70 O 0.71425 0.01749 0.73608 0.0
O71 O 0.78858 0.07858 0.74356 0.0
O72 O 0.75845 0.03182 0.82316 0.0
O73 O 0.71973 0.02983 0.86235 0.0
O74 O 0.82271 0.00875 0.72812 0.0
O75 O 0.75228 0.03051 0.6987 0.0
C76 C 0.66441 0.04778 0.80291 0.0
C77 C 0.71334 0.9582 0.80921 0.0
C78 C 0.7638 0.09087 0.75851 0.0
C79 C 0.80686 0.99733 0.75243 0.0
C80 C 0.72328 0.0225 0.70686 0.0
C81 C 0.74908 0.03453 0.85269 0.0
O82 O 0.69276 0.03403 0.80001 0.0
O83 O 0.6486 0.03936 0.8285 0.0
O84 O 0.54708 0.74337 0.22889 0.0
Mn85 Mn 0.51557 0.73473 0.2667 0.0
O86 O 0.51752 0.74138 0.18354 0.0
Mn87 Mn 0.47724 0.73124 0.20233 0.0
O88 O 0.48361 0.72719 0.30482 0.0
O89 O 0.5529 0.7189 0.29306 0.0
Mn90 Mn 0.55402 0.73912 0.33034 0.0
O91 O 0.52047 0.78255 0.28288 0.0
O92 O 0.51331 0.73157 0.34977 0.0
O93 O 0.51125 0.68722 0.24951 0.0
O94 O 0.47322 0.68774 0.21116 0.0
O95 O 0.58848 0.70857 0.32924 0.0
O96 O 0.55998 0.78198 0.31963 0.0
C97 C 0.45397 0.76823 0.23308 0.0
C98 C 0.54433 0.74526 0.19831 0.0
C99 C 0.48609 0.72808 0.33556 0.0
C100 C 0.57771 0.70123 0.30118 0.0
C101 C 0.54051 0.79709 0.30111 0.0
C102 C 0.49308 0.67273 0.22937 0.0
O103 O 0.47827 0.74976 0.24041 0.0
O104 O 0.44267 0.76177 0.20503 0.0
O105 O 0.22359 0.75983 0.53678 0.0
Mn106 Mn 0.22688 0.76963 0.48753 0.0
O107 O 0.24216 0.70808 0.54223 0.0
Mn108 Mn 0.24749 0.69757 0.49905 0.0
O109 O 0.23195 0.77817 0.43823 0.0
O110 O 0.19257 0.80548 0.49347 0.0
Mn111 Mn 0.204 0.83893 0.4702 0.0
O112 O 0.26367 0.80127 0.49738 0.0
O113 O 0.20496 0.82481 0.42786 0.0
O114 O 0.18948 0.73881 0.47715 0.0
O115 O 0.20994 0.68776 0.47718 0.0
O116 O 0.16512 0.85101 0.4904 0.0
O117 O 0.24346 0.85135 0.48704 0.0
C118 C 0.28695 0.7188 0.47267 0.0
C119 C 0.23143 0.73512 0.55389 0.0
C120 C 0.2202 0.799 0.4186 0.0
C121 C 0.16703 0.82246 0.50291 0.0
C122 C 0.26604 0.83218 0.497 0.0
C123 C 0.18713 0.70846 0.47143 0.0
O124 O 0.26034 0.73376 0.48165 0.0
O125 O 0.28868 0.6888 0.48118 0.0
O126 O 0.24176 0.48403 0.76329 0.0
Mn127 Mn 0.24552 0.53281 0.74928 0.0
O128 O 0.2003 0.48271 0.79982 0.0
Mn129 Mn 0.19831 0.52659 0.80886 0.0
O130 O 0.24793 0.58145 0.73556 0.0
O131 O 0.28839 0.52143 0.72742 0.0
Mn132 Mn 0.2936 0.54423 0.69232 0.0
O133 O 0.22135 0.52409 0.70708 0.0
O134 O 0.29322 0.58719 0.70546 0.0
O135 O 0.26992 0.54296 0.79104 0.0
O136 O 0.23314 0.54244 0.83203 0.0
O137 O 0.33044 0.51731 0.6953 0.0
O138 O 0.25788 0.53395 0.6672 0.0
C139 C 0.1753 0.55884 0.77513 0.0
C140 C 0.22184 0.46862 0.78162 0.0
C141 C 0.2683 0.59919 0.72043 0.0
C142 C 0.31601 0.50688 0.72091 0.0
C143 C 0.22911 0.52712 0.67722 0.0
C144 C 0.26196 0.54693 0.82081 0.0
O145 O 0.20299 0.54405 0.771 0.0
O146 O 0.16081 0.55197 0.80195 0.0
O147 O 0.0062 0.53031 0.53956 0.0
Mn148 Mn 0.00184 0.51108 0.49281 0.0
O149 O 0.95954 0.55862 0.5511 0.0
Mn150 Mn 0.947 0.563 0.50904 0.0
O151 O -0.00267 0.49162 0.44605 0.0
O152 O 0.04908 0.49775 0.49363 0.0
Mn153 Mn 0.05694 0.45968 0.47552 0.0
O154 O 0.99049 0.46738 0.51258 0.0
O155 O 0.04509 0.46576 0.43349 0.0
O156 O 0.01348 0.55494 0.47304 0.0
O157 O 0.97173 0.59053 0.48377 0.0
O158 O 0.09631 0.47333 0.49137 0.0
O159 O 0.03145 0.43153 0.49963 0.0
C160 C 0.92399 0.52318 0.486 0.0
C161 C 0.9867 0.54575 0.55934 0.0
C162 C 0.01721 0.47733 0.42576 0.0
C163 C 0.079 0.49783 0.50231 0.0
C164 C 0.00432 0.43917 0.5139 0.0
C165 C -0.00054 0.58302 0.47072 0.0
O166 O 0.95456 0.52427 0.49216 0.0
O167 O 0.90708 0.54844 0.49572 0.0
O168 O 0.25003 0.23641 0.03574 0.0
Mn169 Mn 0.24048 0.25876 0.99197 0.0
O170 O 0.24936 0.18235 0.02642 0.0
Mn171 Mn 0.23591 0.18321 0.98395 0.0
O172 O 0.23165 0.28125 0.94814 0.0
O173 O 0.22761 0.2993 0.01505 0.0
Mn174 Mn 0.24586 0.33422 0.00089 0.0
O175 O 0.28921 0.27331 0.98897 0.0
O176 O 0.2362 0.33507 0.95736 0.0
O177 O 0.1918 0.24412 0.99547 0.0
O178 O 0.19153 0.19168 0.97926 0.0
O179 O 0.21406 0.34692 0.032 0.0
O180 O 0.28958 0.32464 0.00844 0.0
C181 C 0.2712 0.20104 0.94939 0.0
C182 C 0.25315 0.20684 0.04485 0.0
C183 C 0.23165 0.31085 0.93877 0.0
C184 C 0.20854 0.31634 0.03344 0.0
C185 C 0.30422 0.29855 -0.00148 0.0
C186 C 0.17686 0.21807 0.98823 0.0
O187 O 0.25305 0.21823 0.96857 0.0
O188 O 0.26563 0.17047 0.95115 0.0
O189 O 0.2747 0.93896 0.2439 0.0
Mn190 Mn 0.27917 0.98878 0.23437 0.0
O191 O 0.2272 0.93436 0.27077 0.0
Mn192 Mn 0.22955 0.97497 0.28907 0.0
O193 O 0.28289 0.03804 0.22304 0.0
O194 O 0.32275 0.97865 0.2128 0.0
Mn195 Mn 0.32409 0.99645 0.17443 0.0
O196 O 0.25451 0.98111 0.19226 0.0
O197 O 0.31911 0.04061 0.18167 0.0
O198 O 0.30272 0.99478 0.27763 0.0
O199 O 0.26534 0.98115 0.31543 0.0
O200 O 0.3641 0.97574 0.17961 0.0
O201 O 0.29088 0.97779 0.1513 0.0
C202 C 0.20917 0.01535 0.26361 0.0
C203 C 0.2512 0.92189 0.25476 0.0
C204 C 0.29944 0.05403 0.2022 0.0
C205 C 0.35229 0.96784 0.20742 0.0
C206 C 0.26198 0.97504 0.16275 0.0
C207 C 0.29422 0.98921 0.30694 0.0
O208 O 0.2363 0.00027 0.25624 0.0
O209 O 0.19407 0.00374 0.28829 0.0
O210 O 0.52444 0.28138 0.71105 0.0
Mn211 Mn 0.49266 0.27473 0.74971 0.0
O212 O 0.49539 0.27529 0.66598 0.0
Mn213 Mn 0.45556 0.26518 0.68579 0.0
O214 O 0.46135 0.26739 0.7886 0.0
O215 O 0.53103 0.26351 0.77644 0.0
Mn216 Mn 0.53036 0.28337 0.81384 0.0
O217 O 0.49454 0.32346 0.76343 0.0
O218 O 0.49205 0.26916 0.83318 0.0
O219 O 0.49006 0.22566 0.73662 0.0
O220 O 0.45286 0.22226 0.69769 0.0
O221 O 0.56836 0.25748 0.81174 0.0
O222 O 0.52963 0.32703 0.80429 0.0
C223 C 0.42842 0.30176 0.71368 0.0
C224 C 0.5223 0.2801 0.68029 0.0
C225 C 0.46489 0.26511 0.81915 0.0
C226 C 0.5578 0.24888 0.78394 0.0
C227 C 0.51044 0.33989 0.78398 0.0
C228 C 0.47191 0.20921 0.718 0.0
O229 O 0.4546 0.28668 0.7225 0.0
O230 O 0.41871 0.2927 0.68571 0.0
O231 O 0.008 0.78373 0.70579 0.0
Mn232 Mn 0.98392 0.77121 0.74804 0.0
O233 O 0.97238 0.77579 0.66568 0.0
Mn234 Mn 0.93814 0.75894 0.69011 0.0
O235 O 0.95982 0.75813 0.78981 0.0
O236 O 0.02691 0.76399 0.76899 0.0
Mn237 Mn 0.02847 0.78188 0.80736 0.0
O238 O 0.98136 0.81913 0.76469 0.0
O239 O 0.99508 0.76237 0.83065 0.0
O240 O 0.98626 0.72301 0.73195 0.0
O241 O 0.94382 0.71536 0.69946 0.0
O242 O 0.06873 0.76101 0.79961 0.0
O243 O 0.02116 0.82564 0.80061 0.0
C244 C 0.91207 0.7914 0.72342 0.0
C245 C 0.00045 0.78363 0.6759 0.0
C246 C 0.96711 0.7556 0.81958 0.0
C247 C 0.05595 0.7523 0.77282 0.0
C248 C -0.00235 0.83672 0.78394 0.0
C249 C 0.96825 0.70464 0.7151 0.0
O250 O 0.9408 0.77888 0.72733 0.0
O251 O 0.89866 0.78178 0.69727 0.0
O252 O 0.74903 0.41709 0.268 0.0
Mn253 Mn 0.75023 0.46604 0.25542 0.0
O254 O 0.70236 0.409 0.29505 0.0
Mn255 Mn 0.70092 0.45118 0.31058 0.0
O256 O 0.75256 0.51524 0.24281 0.0
O257 O 0.79336 0.45632 0.23394 0.0
Mn258 Mn 0.79782 0.47565 0.19694 0.0
O259 O 0.72671 0.45649 0.21312 0.0
O260 O 0.79502 0.5191 0.20785 0.0
O261 O 0.77316 0.47434 0.29835 0.0
O262 O 0.73632 0.46033 0.33667 0.0
O263 O 0.83583 0.45087 0.20277 0.0
O264 O 0.76352 0.46043 0.17252 0.0
C265 C 0.67943 0.49027 0.2832 0.0
C266 C 0.72873 0.39821 0.2817 0.0
C267 C 0.77247 0.53192 0.22575 0.0
C268 C 0.82148 0.44243 0.22917 0.0
C269 C 0.73482 0.45453 0.18325 0.0
C270 C 0.76491 0.46899 0.32776 0.0
O271 O 0.70697 0.47568 0.27683 0.0
O272 O 0.66423 0.4786 0.3078 0.0
O273 O 0.76603 0.71357 0.0551 0.0
Mn274 Mn 0.76161 0.74372 0.01536 0.0
O275 O 0.75234 0.66382 0.03745 0.0
Mn276 Mn 0.74571 0.67259 0.99417 0.0
O277 O 0.75652 0.77351 0.97561 0.0
O278 O 0.75363 0.78189 0.04488 0.0
Mn279 Mn 0.7788 0.81406 0.03466 0.0
O280 O 0.81247 0.75108 0.01418 0.0
O281 O 0.76906 0.82382 0.99227 0.0
O282 O 0.71096 0.73563 0.01517 0.0
O283 O 0.70427 0.68962 0.98652 0.0
O284 O 0.75291 0.82836 0.06922 0.0
O285 O 0.82073 0.79797 0.04029 0.0
C286 C 0.78666 0.68973 0.96586 0.0
C287 C 0.75995 0.68356 0.05984 0.0
C288 C 0.76074 0.80375 0.97051 0.0
C289 C 0.74086 0.79977 0.06761 0.0
C290 C 0.83144 0.77204 0.02649 0.0
C291 C 0.69283 0.71501 0.00103 0.0
O292 O 0.76952 0.70605 0.9865 0.0
O293 O 0.77693 0.66048 0.96228 0.0
O294 O 0.50118 0.02306 0.55614 0.0
Mn295 Mn 0.50732 0.00433 0.50919 0.0
O296 O 0.46709 0.06681 0.55287 0.0
Mn297 Mn 0.47198 0.07254 0.509 0.0
O298 O 0.51337 0.98567 0.46232 0.0
O299 O 0.54339 0.97563 0.52457 0.0
Mn300 Mn 0.54196 0.93583 0.50973 0.0
O301 O 0.47409 0.96916 0.5197 0.0
O302 O 0.5458 0.94073 0.46568 0.0
O303 O 0.54045 0.03955 0.49879 0.0
O304 O 0.51248 0.08726 0.4955 0.0
O305 O 0.5785 0.9377 0.53554 0.0
O306 O 0.50177 0.92149 0.52453 0.0
C307 C 0.44641 0.041 0.47711 0.0
C308 C 0.48322 0.04593 0.56906 0.0
C309 C 0.53045 0.96215 0.44947 0.0
C310 C 0.56938 0.9677 0.53957 0.0
C311 C 0.47535 0.93877 0.52588 0.0
C312 C 0.53898 0.07013 0.49356 0.0
O313 O 0.47136 0.03295 0.4936 0.0
O314 O 0.43674 0.0708 0.4814 0.0
O315 O 0.45772 0.52682 0.97884 0.0
Mn316 Mn 0.49823 0.50883 0.00321 0.0
O317 O 0.41384 0.52273 0.01138 0.0
Mn318 Mn 0.43425 0.49411 0.03887 0.0
O319 O 0.53888 0.49068 0.02738 0.0
O320 O 0.5228 0.50898 0.96039 0.0
Mn321 Mn 0.56199 0.52405 0.96717 0.0
O322 O 0.51115 0.55695 0.01283 0.0
O323 O 0.58257 0.49552 0.99463 0.0
O324 O 0.48522 0.46074 0.99364 0.0
O325 O 0.44027 0.4521 0.02406 0.0
O326 O 0.56104 0.51568 0.92401 0.0
O327 O 0.55558 0.56603 0.98183 0.0
C328 C 0.46447 0.51107 0.07606 0.0
C329 C 0.42738 0.53241 0.98559 0.0
C330 C 0.5692 0.48528 0.02029 0.0
C331 C 0.53163 0.50655 0.93031 0.0
C332 C 0.53322 0.57557 0.00165 0.0
C333 C 0.46274 0.44237 0.00444 0.0
O334 O 0.47358 0.50878 0.04604 0.0
O335 O 0.43489 0.50224 0.08206 0.0
H336 H 0.02517 0.04298 0.07735 0.0
H337 H 0.98183 0.10875 0.2452 0.0
H338 H 0.98646 0.98192 0.1513 0.0
H339 H 0.05946 0.15073 0.18993 0.0
H340 H 0.99008 0.05824 0.21466 0.0
H341 H 0.04561 0.07912 0.1192 0.0
C342 C 0.02182 0.03669 0.10225 0.0
C343 C 0.00313 0.01016 0.11084 0.0
C344 C 0.0062 0.07803 0.20987 0.0
C345 C 0.02598 0.05115 0.15873 0.0
C346 C 0.00163 0.10671 0.2276 0.0
C347 C 0.02018 0.13359 0.22016 0.0
C348 C 0.02843 0.07688 0.18363 0.0
C349 C 0.04494 0.1302 0.19648 0.0
C350 C 0.03347 0.05726 0.12621 0.0
C351 C -0.00012 0.00278 0.1436 0.0
N352 N 0.04772 0.10268 0.1783 0.0
N353 N 0.01042 0.02355 0.16633 0.0
H354 H 0.82852 0.22066 0.45025 0.0
H355 H 0.01746 0.21816 0.39648 0.0
H356 H 0.90824 0.20003 0.51361 0.0
H357 H 0.93913 0.22565 0.32868 0.0
H358 H 0.97729 0.21603 0.44012 0.0
H359 H 0.86808 0.22932 0.40629 0.0
C360 C 0.85435 0.21925 0.45519 0.0
C361 C 0.86527 0.21049 0.4857 0.0
C362 C 0.96878 0.21799 0.41572 0.0
C363 C 0.91049 0.21866 0.43544 0.0
C364 C 0.99177 0.21907 0.3907 0.0
C365 C 0.98174 0.22191 0.35875 0.0
C366 C 0.93532 0.21995 0.409 0.0
C367 C 0.94802 0.22307 0.35288 0.0
C368 C 0.87691 0.22347 0.42996 0.0
C369 C 0.89894 0.20716 0.49045 0.0
N370 N 0.92599 0.22222 0.37779 0.0
N371 N 0.92033 0.21115 0.46561 0.0
H372 H 0.71046 0.1225 0.73579 0.0
H373 H 0.83333 0.22211 0.64567 0.0
H374 H 0.80759 0.13789 0.76943 0.0
H375 H 0.73103 0.22039 0.62395 0.0
H376 H 0.82026 0.20801 0.70122 0.0
H377 H 0.71122 0.17413 0.70865 0.0
C378 C 0.7311 0.1378 0.73934 0.0
C379 C 0.75886 0.12603 0.75507 0.0
C380 C 0.80042 0.21196 0.68474 0.0
C381 C 0.7614 0.18376 0.72122 0.0
C382 C 0.80796 0.22007 0.65305 0.0
C383 C 0.78316 0.22245 0.63044 0.0
C384 C 0.76802 0.20487 0.69333 0.0
C385 C 0.75072 0.21937 0.64089 0.0
C386 C 0.73196 0.16709 0.72304 0.0
C387 C 0.78579 0.1461 0.75722 0.0
N388 N 0.74413 0.20991 0.67141 0.0
N389 N 0.78683 0.17354 0.73958 0.0
H390 H 0.8628 0.01794 0.02203 0.0
H391 H 0.81232 0.05153 0.84159 0.0
H392 H 0.93179 0.03088 0.94369 0.0
H393 H 0.74334 0.03253 0.91847 0.0
H394 H 0.85556 0.05439 0.88075 0.0
H395 H 0.81845 0.03343 0.98659 0.0
C396 C 0.8687 0.02438 0.99748 0.0
C397 C 0.90105 0.02254 0.98567 0.0
C398 C 0.8309 0.04998 0.88912 0.0
C399 C 0.85031 0.04018 0.94497 0.0
C400 C 0.80614 0.0483 0.86676 0.0
C401 C 0.77421 0.04113 0.87669 0.0
C402 C 0.82377 0.04424 0.92163 0.0
C403 C 0.76765 0.03772 0.90967 0.0
C404 C 0.84332 0.03326 0.97726 0.0
C405 C 0.90721 0.03161 0.95377 0.0
N406 N 0.79234 0.03886 0.93093 0.0
N407 N 0.882 0.03964 0.93441 0.0
H408 H 0.14126 0.96364 -0.00207 0.0
H409 H 0.19874 0.96234 0.17923 0.0
H410 H 0.07522 0.96554 0.08015 0.0
H411 H 0.26464 0.96675 0.09718 0.0
H412 H 0.15387 0.95296 0.1431 0.0
H413 H 0.18682 0.95358 0.03363 0.0
C414 C 0.13625 0.96147 0.02345 0.0
C415 C 0.10443 0.96611 0.03615 0.0
C416 C 0.17819 0.95564 0.133 0.0
C417 C 0.15657 0.95488 0.07713 0.0
C418 C 0.20388 0.9611 0.15361 0.0
C419 C 0.23546 0.96596 0.14117 0.0
C420 C 0.18403 0.95521 0.09968 0.0
C421 C 0.24064 0.96355 0.10781 0.0
C422 C 0.16232 0.95574 0.04383 0.0
C423 C 0.09938 0.96249 0.06933 0.0
N424 N 0.21508 0.95873 0.08819 0.0
N425 N 0.12528 0.95759 0.08876 0.0
H426 H 0.04929 0.48644 0.36923 0.0
H427 H 0.97571 0.32306 0.31012 0.0
H428 H 0.96287 0.44469 0.40984 0.0
H429 H 0.06827 0.3596 0.27872 0.0
H430 H 0.96043 0.37648 0.33234 0.0
H431 H 0.04511 0.45122 0.3221 0.0
C432 C 0.02853 0.47086 0.36747 0.0
C433 C 0.00651 0.46823 0.39345 0.0
C434 C 0.98365 0.37322 0.31967 0.0
C435 C 0.00243 0.42677 0.34043 0.0
C436 C 0.99215 0.34283 0.30651 0.0
C437 C 0.02297 0.33721 0.29197 0.0
C438 C 0.00652 0.39792 0.31895 0.0
C439 C 0.04416 0.36312 0.28953 0.0
C440 C 0.02636 0.45045 0.34075 0.0
C441 C 0.98023 0.44753 0.39021 0.0
N442 N 0.03572 0.39225 0.30328 0.0
N443 N 0.97941 0.42687 0.36457 0.0
H444 H 0.72249 0.2704 0.59869 0.0
H445 H 0.58565 0.28038 0.70098 0.0
H446 H 0.65647 0.30331 0.52603 0.0
H447 H 0.52892 0.28199 0.61453 0.0
H448 H 0.63548 0.279 0.66815 0.0
H449 H 0.67571 0.26121 0.63481 0.0
C450 C 0.69798 0.27451 0.5901 0.0
C451 C 0.69311 0.28677 0.55931 0.0
C452 C 0.61226 0.27912 0.65622 0.0
C453 C 0.63953 0.27898 0.60091 0.0
C454 C 0.58362 0.28049 0.67506 0.0
C455 C 0.55286 0.28148 0.66058 0.0
C456 C 0.61024 0.27867 0.62252 0.0
C457 C 0.55196 0.28134 0.62686 0.0
C458 C 0.67125 0.27029 0.61097 0.0
C459 C 0.66109 0.29347 0.54959 0.0
N460 N 0.58016 0.28011 0.60907 0.0
N461 N 0.63555 0.28959 0.57032 0.0
H462 H 0.77464 0.93476 0.81798 0.0
H463 H 0.7127 0.79138 0.92717 0.0
H464 H 0.67409 0.90695 0.82201 0.0
H465 H 0.80068 0.84457 0.93975 0.0
H466 H 0.70381 0.81972 0.87602 0.0
H467 H 0.79008 0.88626 0.84712 0.0
C468 C 0.75605 0.91741 0.82318 0.0
C469 C 0.72317 0.92453 0.81676 0.0
C470 C 0.72536 0.82461 0.88975 0.0
C471 C 0.74026 0.87023 0.85286 0.0
C472 C 0.73041 0.80852 0.91879 0.0
C473 C 0.75704 0.81633 0.93781 0.0
C474 C 0.74754 0.84798 0.87963 0.0
C475 C 0.77946 0.83848 0.92603 0.0
C476 C 0.76475 0.89008 0.84071 0.0
C477 C 0.69976 0.90221 0.82637 0.0
N478 N 0.77409 0.85367 0.89783 0.0
N479 N 0.70865 0.87632 0.84457 0.0
H480 H 0.1454 0.33772 0.03588 0.0
H481 H 0.10111 0.23986 0.19192 0.0
H482 H 0.21175 0.26675 0.07574 0.0
H483 H 0.02647 0.27263 0.12687 0.0
H484 H 0.14285 0.25408 0.15223 0.0
H485 H 0.10172 0.31841 0.07142 0.0
C486 C 0.15055 0.31779 0.05192 0.0
C487 C 0.18184 0.30332 0.05278 0.0
C488 C 0.11733 0.25805 0.14663 0.0
C489 C 0.13272 0.2818 0.0937 0.0
C490 C 0.09351 0.25024 0.16934 0.0
C491 C 0.0603 0.25534 0.16271 0.0
C492 C 0.1079 0.27164 0.11737 0.0
C493 C 0.05182 0.26839 0.1329 0.0
C494 C 0.12573 0.30675 0.07203 0.0
C495 C 0.18764 0.2778 0.07393 0.0
N496 N 0.07554 0.27644 0.11139 0.0
N497 N 0.16336 0.26805 0.09395 0.0
H498 H 0.69494 0.34236 0.29131 0.0
H499 H 0.73598 0.25155 0.42063 0.0
H500 H 0.78956 0.38371 0.3014 0.0
H501 H 0.82326 0.30711 0.42101 0.0
H502 H 0.72769 0.26597 0.36458 0.0
H503 H 0.71221 0.29778 0.32564 0.0
C504 C 0.71991 0.34116 0.29947 0.0
C505 C 0.74114 0.36636 0.29268 0.0
C506 C 0.7491 0.27457 0.37638 0.0
C507 C 0.76113 0.31592 0.33301 0.0
C508 C 0.7541 0.26576 0.40832 0.0
C509 C 0.78013 0.2785 0.42524 0.0
C510 C 0.7701 0.29675 0.36176 0.0
C511 C 0.80279 0.29702 0.40865 0.0
C512 C 0.72987 0.31568 0.31936 0.0
C513 C 0.77294 0.36408 0.30448 0.0
N514 N 0.79693 0.30607 0.37801 0.0
N515 N 0.78174 0.33968 0.32431 0.0
H516 H 0.62963 0.98974 0.52788 0.0
H517 H 0.65691 0.01745 0.71426 0.0
H518 H 0.55121 0.99183 0.59827 0.0
H519 H 0.73313 0.02404 0.64161 0.0
H520 H 0.61664 0.01451 0.67189 0.0
H521 H 0.66622 0.01095 0.56822 0.0
C522 C 0.61997 0.99577 0.55168 0.0
C523 C 0.58758 0.98941 0.55998 0.0
C524 C 0.64215 0.01679 0.66524 0.0
C525 C 0.62933 0.01202 0.60659 0.0
C526 C 0.66524 0.01814 0.68942 0.0
C527 C 0.69859 0.02039 0.6815 0.0
C528 C 0.65248 0.01747 0.6329 0.0
C529 C 0.70777 0.02192 0.6489 0.0
C530 C 0.64085 0.00756 0.57479 0.0
C531 C 0.57608 0.99691 0.59109 0.0
N532 N 0.68488 0.02014 0.62584 0.0
N533 N 0.59715 0.00731 0.61357 0.0
H534 H 0.01174 0.01729 0.87362 0.0
H535 H 0.94315 0.84794 0.81982 0.0
H536 H 0.98251 0.94446 0.94072 0.0
H537 H 0.02346 0.89605 0.7745 0.0
H538 H 0.93343 0.89538 0.85519 0.0
H539 H 0.99007 0.98518 0.82979 0.0
C540 C -0.00036 0.995 0.87928 0.0
C541 C -0.00045 0.98295 0.9107 0.0
C542 C 0.95222 0.89603 0.83656 0.0
C543 C 0.97493 0.94624 0.86068 0.0
C544 C 0.95758 0.86924 0.81619 0.0
C545 C 0.98405 0.8684 0.79425 0.0
C546 C 0.97321 0.92214 0.8344 0.0
C547 C 0.00267 0.89603 0.79096 0.0
C548 C 0.98734 0.97676 0.85424 0.0
C549 C 0.98322 0.9543 0.91681 0.0
N550 N -0.0029 0.92175 0.81111 0.0
N551 N 0.97221 0.93634 0.89179 0.0
H552 H 0.05591 0.08975 0.05853 0.0
H553 H 0.12759 0.2122 0.94594 0.0
H554 H 0.00906 0.11626 0.97053 0.0
H555 H 0.14791 0.215 0.047 0.0
H556 H 0.0758 0.18664 0.958 0.0
H557 H 0.08005 0.14314 0.06083 0.0
C558 C 0.04909 0.10753 0.04075 0.0
C559 C 0.03047 0.09869 0.01434 0.0
C560 C 0.09087 0.19388 0.97779 0.0
C561 C 0.05953 0.15904 0.01561 0.0
C562 C 0.12034 0.20872 0.97081 0.0
C563 C 0.14179 0.21573 0.99553 0.0
C564 C 0.08363 0.18467 0.00955 0.0
C565 C 0.13174 0.21012 0.02734 0.0
C566 C 0.06331 0.13794 0.04174 0.0
C567 C 0.02334 0.12227 0.9913 0.0
N568 N 0.10382 0.19396 0.03343 0.0
N569 N 0.03864 0.15101 0.99192 0.0
H570 H 0.62199 0.50084 0.25321 0.0
H571 H 0.54554 0.64826 0.28075 0.0
H572 H 0.70887 0.5484 0.28252 0.0
H573 H 0.6411 0.68855 0.28454 0.0
H574 H 0.56984 0.59705 0.26233 0.0
H575 H 0.5957 0.55354 0.24369 0.0
C576 C 0.63575 0.52256 0.25684 0.0
C577 C 0.66764 0.52043 0.26835 0.0
C578 C 0.58576 0.61714 0.26576 0.0
C579 C 0.63699 0.58114 0.26014 0.0
C580 C 0.57157 0.64679 0.27587 0.0
C581 C 0.59121 0.67297 0.283 0.0
C582 C 0.62007 0.61347 0.26342 0.0
C583 C 0.62511 0.66897 0.27876 0.0
C584 C 0.62053 0.5528 0.25204 0.0
C585 C 0.68439 0.54909 0.27312 0.0
N586 N 0.63848 0.6397 0.26962 0.0
N587 N 0.66868 0.57828 0.26951 0.0
H588 H 0.32409 0.801 0.51078 0.0
H589 H 0.4148 0.96714 0.53521 0.0
H590 H 0.2767 0.89586 0.50977 0.0
H591 H 0.46492 0.87363 0.53001 0.0
H592 H 0.36284 0.94017 0.53586 0.0
H593 H 0.3747 0.82609 0.52673 0.0
C594 C 0.32424 0.82704 0.51413 0.0
C595 C 0.29628 0.84644 0.50845 0.0
C596 C 0.3852 0.9255 0.53496 0.0
C597 C 0.35389 0.87514 0.5268 0.0
C598 C 0.41492 0.9409 0.53463 0.0
C599 C 0.44426 0.92262 0.5319 0.0
C600 C 0.38478 0.89161 0.5323 0.0
C601 C 0.44288 0.88869 0.53171 0.0
C602 C 0.35311 0.84132 0.52329 0.0
C603 C 0.2978 0.88 0.51337 0.0
N604 N 0.41355 0.87425 0.53139 0.0
N605 N 0.3262 0.89329 0.52204 0.0
H606 H 0.03167 0.69376 0.75957 0.0
H607 H 0.20148 0.61755 0.76989 0.0
H608 H 0.11682 0.7511 0.746 0.0
H609 H 0.12025 0.56145 0.7399 0.0
H610 H 0.17292 0.66675 0.75227 0.0
H611 H 0.06319 0.64569 0.74245 0.0
C612 C 0.0565 0.69654 0.75097 0.0
C613 C 0.07141 0.72648 0.75305 0.0
C614 C 0.16175 0.64363 0.74833 0.0
C615 C 0.10852 0.6712 0.736 0.0
C616 C 0.17819 0.61555 0.75818 0.0
C617 C 0.16335 0.58563 0.75558 0.0
C618 C 0.12978 0.64169 0.73693 0.0
C619 C 0.13258 0.58424 0.74168 0.0
C620 C 0.07478 0.66892 0.74177 0.0
C621 C 0.10444 0.72835 0.74417 0.0
N622 N 0.11647 0.61202 0.73334 0.0
N623 N 0.12215 0.70091 0.73663 0.0
H624 H 0.83154 0.3646 0.57704 0.0
H625 H 0.00779 0.37329 0.50466 0.0
H626 H 0.88176 0.28333 0.53014 0.0
H627 H 0.96066 0.44848 0.5632 0.0
H628 H 0.9685 0.3348 0.52539 0.0
H629 H 0.88376 0.3901 0.58434 0.0
C630 C 0.85369 0.35197 0.56868 0.0
C631 C 0.85239 0.32238 0.55215 0.0
C632 C 0.96726 0.35954 0.53431 0.0
C633 C 0.91213 0.35157 0.55972 0.0
C634 C 0.98969 0.38148 0.52248 0.0
C635 C 0.98659 0.41424 0.53139 0.0
C636 C 0.94167 0.37072 0.55491 0.0
C637 C 0.9631 0.42358 0.55486 0.0
C638 C 0.88356 0.36641 0.57296 0.0
C639 C 0.88177 0.30652 0.54252 0.0
N640 N 0.94112 0.40206 0.56534 0.0
N641 N 0.91048 0.32175 0.54569 0.0
H642 H 0.3319 0.9339 0.26097 0.0
H643 H 0.49091 0.82069 0.2397 0.0
H644 H 0.41717 0.9539 0.20329 0.0
H645 H 0.39507 0.78521 0.26062 0.0
H646 H 0.47021 0.87599 0.25009 0.0
H647 H 0.36152 0.88697 0.28383 0.0
C648 C 0.35679 0.92866 0.25338 0.0
C649 C 0.37137 0.94644 0.22878 0.0
C650 C 0.45395 0.85604 0.25361 0.0
C651 C 0.40551 0.89409 0.25534 0.0
C652 C 0.46587 0.82448 0.24807 0.0
C653 C 0.44468 0.79856 0.24982 0.0
C654 C 0.42053 0.86161 0.26039 0.0
C655 C 0.41212 0.80474 0.25941 0.0
C656 C 0.37372 0.90212 0.26654 0.0
C657 C 0.40447 0.93995 0.22124 0.0
N658 N 0.40083 0.83578 0.26391 0.0
N659 N 0.42023 0.91395 0.23398 0.0
H660 H 0.37607 0.49873 0.74613 0.0
H661 H 0.36423 0.30767 0.72991 0.0
H662 H 0.28684 0.44919 0.72927 0.0
H663 H 0.45439 0.35851 0.73347 0.0
H664 H 0.33432 0.35778 0.74553 0.0
H665 H 0.40336 0.44674 0.75785 0.0
C666 C 0.36195 0.47693 0.74613 0.0
C667 C 0.32907 0.47815 0.73739 0.0
C668 C 0.36074 0.35779 0.74391 0.0
C669 C 0.3603 0.41851 0.74931 0.0
C670 C 0.3778 0.32917 0.73519 0.0
C671 C 0.41186 0.32887 0.7312 0.0
C672 C 0.37789 0.3865 0.7479 0.0
C673 C 0.42832 0.35741 0.73758 0.0
C674 C 0.37756 0.44725 0.75254 0.0
C675 C 0.31199 0.44929 0.73681 0.0
N676 N 0.41115 0.38521 0.74517 0.0
N677 N 0.32793 0.42054 0.7422 0.0
H678 H 0.16398 0.76572 0.53825 0.0
H679 H 0.06562 0.76826 0.67919 0.0
H680 H 0.11241 0.85639 0.52174 0.0
H681 H 0.99371 0.8116 0.61713 0.0
H682 H 0.10709 0.77342 0.63626 0.0
H683 H 0.12506 0.7548 0.58223 0.0
C684 C 0.14493 0.78346 0.54406 0.0
C685 C 0.14234 0.81256 0.52708 0.0
C686 C 0.08219 0.78161 0.63209 0.0
C687 C 0.09729 0.79986 0.57637 0.0
C688 C 0.05868 0.77921 0.65667 0.0
C689 C 0.02626 0.78973 0.65168 0.0
C690 C 0.07324 0.79517 0.60263 0.0
C691 C 0.01843 0.80325 0.62193 0.0
C692 C 0.12268 0.77719 0.56907 0.0
C693 C 0.11586 0.8339 0.53455 0.0
N694 N 0.04185 0.80594 0.59864 0.0
N695 N 0.09436 0.82709 0.55853 0.0
H696 H 0.20498 0.87782 0.2424 0.0
H697 H 0.27973 0.78888 0.38943 0.0
H698 H 0.30392 0.88584 0.27374 0.0
H699 H 0.17754 0.80349 0.36969 0.0
H700 H 0.29301 0.80119 0.33324 0.0
H701 H 0.20083 0.82727 0.27189 0.0
C702 C 0.22645 0.86802 0.25413 0.0
C703 C 0.25461 0.88638 0.2564 0.0
C704 C 0.26761 0.80043 0.34087 0.0
C705 C 0.2496 0.82956 0.2913 0.0
C706 C 0.26004 0.79318 0.37285 0.0
C707 C 0.22756 0.79558 0.38403 0.0
C708 C 0.24244 0.81022 0.32026 0.0
C709 C 0.20292 0.80185 0.36191 0.0
C710 C 0.22398 0.83933 0.27126 0.0
C711 C 0.28174 0.87259 0.2717 0.0
N712 N 0.21089 0.8095 0.33118 0.0
N713 N 0.27824 0.84553 0.28963 0.0
H714 H 0.93434 0.649 0.71997 0.0
H715 H 0.04224 0.57411 0.5796 0.0
H716 H 0.02714 0.68593 0.68984 0.0
H717 H 0.95168 0.53514 0.61366 0.0
H718 H 0.04642 0.60407 0.6304 0.0
H719 H 0.94852 0.59768 0.69256 0.0
C720 C 0.95822 0.64576 0.70855 0.0
C721 C 0.9798 0.67139 0.70743 0.0
C722 C 0.02619 0.5881 0.62728 0.0
C723 C 0.99573 0.6135 0.67474 0.0
C724 C 0.02408 0.57066 0.59842 0.0
C725 C -0.00358 0.55249 0.5925 0.0
C726 C 0.00016 0.58758 0.64988 0.0
C727 C 0.97321 0.54924 0.61734 0.0
C728 C 0.96633 0.61656 0.69276 0.0
C729 C 0.0102 0.66637 0.69185 0.0
N730 N 0.97521 0.5672 0.64466 0.0
N731 N 0.01702 0.63824 0.67553 0.0
H732 H 0.34606 0.73619 0.49325 0.0
H733 H 0.42265 0.72758 0.31514 0.0
H734 H 0.28805 0.72888 0.40845 0.0
H735 H 0.47979 0.73075 0.40131 0.0
H736 H 0.3729 0.73325 0.34821 0.0
H737 H 0.39489 0.7422 0.45927 0.0
C738 C 0.34358 0.73705 0.46739 0.0
C739 C 0.31319 0.7327 0.45344 0.0
C740 C 0.39633 0.73267 0.35986 0.0
C741 C 0.36886 0.73781 0.41439 0.0
C742 C 0.42481 0.72912 0.34101 0.0
C743 C 0.45561 0.72835 0.35542 0.0
C744 C 0.39856 0.73548 0.39339 0.0
C745 C 0.4567 0.73096 0.38906 0.0
C746 C 0.37144 0.74001 0.44798 0.0
C747 C 0.31112 0.73294 0.41992 0.0
N748 N 0.42863 0.73437 0.40684 0.0
N749 N 0.33871 0.73504 0.40144 0.0
H750 H 0.23927 0.08164 0.19601 0.0
H751 H 0.21173 0.20879 0.09673 0.0
H752 H 0.34148 0.10274 0.19077 0.0
H753 H 0.31151 0.18675 0.06798 0.0
H754 H 0.22168 0.18287 0.14856 0.0
H755 H 0.22652 0.13168 0.16835 0.0
C756 C 0.25883 0.09802 0.19112 0.0
C757 C 0.29133 0.0885 0.19665 0.0
C758 C 0.24157 0.18408 0.13117 0.0
C759 C 0.27733 0.1452 0.16274 0.0
C760 C 0.23602 0.19936 0.10186 0.0
C761 C 0.26094 0.19985 0.07837 0.0
C762 C 0.27209 0.16874 0.13653 0.0
C763 C 0.29178 0.18682 0.08568 0.0
C764 C 0.25164 0.12655 0.17463 0.0
C765 C 0.31605 0.10945 0.18726 0.0
N766 N 0.2964 0.17145 0.114 0.0
N767 N 0.30861 0.13639 0.17006 0.0
H768 H 0.84785 0.6632 0.96256 0.0
H769 H 0.90166 0.76594 0.81345 0.0
H770 H 0.78865 0.74321 0.92858 0.0
H771 H 0.97337 0.72572 0.87775 0.0
H772 H 0.85853 0.75271 0.85207 0.0
H773 H 0.89359 0.6812 0.92881 0.0
C774 C 0.84476 0.6848 0.94824 0.0
C775 C 0.81489 0.70212 0.94842 0.0
C776 C 0.88372 0.74687 0.85772 0.0
C777 C 0.86617 0.72209 0.90941 0.0
C778 C 0.90829 0.75406 0.8356 0.0
C779 C 0.94107 0.7466 0.84236 0.0
C780 C 0.89193 0.73152 0.88647 0.0
C781 C 0.94836 0.73176 0.87165 0.0
C782 C 0.87072 0.69505 0.92914 0.0
C783 C 0.81165 0.72974 0.92945 0.0
N784 N 0.92388 0.72434 0.89256 0.0
N785 N 0.83692 0.73867 0.91024 0.0
H786 H 0.30514 0.65354 0.71611 0.0
H787 H 0.17893 0.72245 0.59182 0.0
H788 H 0.20884 0.6182 0.70014 0.0
H789 H 0.27996 0.74806 0.5947 0.0
H790 H 0.18302 0.7011 0.64627 0.0
H791 H 0.29045 0.70259 0.68609 0.0
C792 C 0.28044 0.65683 0.7076 0.0
C793 C 0.25779 0.63228 0.71149 0.0
C794 C 0.20403 0.71247 0.63555 0.0
C795 C 0.24109 0.68761 0.67645 0.0
C796 C 0.20149 0.72509 0.60465 0.0
C797 C 0.22914 0.73696 0.58902 0.0
C798 C 0.23468 0.71102 0.65031 0.0
C799 C 0.2581 0.73913 0.60621 0.0
C800 C 0.27207 0.68471 0.69038 0.0
C801 C 0.22643 0.63722 0.6992 0.0
N802 N 0.2604 0.7255 0.63569 0.0
N803 N 0.21914 0.66406 0.68192 0.0
H804 H 0.28604 0.97788 0.37116 0.0
H805 H 0.46663 0.02672 0.41613 0.0
H806 H 0.35949 0.0029 0.30049 0.0
H807 H 0.38934 0.01086 0.48522 0.0
H808 H 0.43165 0.00692 0.37329 0.0
H809 H 0.32681 0.98023 0.41267 0.0
C810 C 0.31073 0.98398 0.36429 0.0
C811 C 0.31911 0.99082 0.33224 0.0
C812 C 0.42259 0.00703 0.3979 0.0
C813 C 0.3662 0.99333 0.38 0.0
C814 C 0.44267 0.01791 0.4223 0.0
C815 C 0.43068 0.02003 0.45398 0.0
C816 C 0.39033 -0.0013 0.40547 0.0
C817 C 0.39936 0.0092 0.46097 0.0
C818 C 0.3341 0.98512 0.38809 0.0
C819 C 0.35173 0.998 0.32493 0.0
N820 N 0.38007 -0.00069 0.43682 0.0
N821 N 0.37405 -0.00066 0.34869 0.0
H822 H 0.86023 0.76961 0.96715 0.0
H823 H 0.9523 0.90068 0.96108 0.0
H824 H 0.88178 0.77645 0.06775 0.0
H825 H 0.9959 0.87003 0.04942 0.0
H826 H 0.92894 0.84754 0.95499 0.0
H827 H 0.91184 0.79547 0.95425 0.0
C828 C 0.87666 0.77503 0.98643 0.0
C829 C 0.86665 0.77127 0.01857 0.0
C830 C 0.94502 0.85153 0.97488 0.0
C831 C 0.92464 0.80262 0.0043 0.0
C832 C 0.95872 0.88206 0.97814 0.0
C833 C 0.97619 0.88969 0.0057 0.0
C834 C 0.94841 0.82883 -0.00024 0.0
C835 C 0.98258 0.86499 0.02777 0.0
C836 C 0.90579 0.79061 0.97912 0.0
C837 C 0.88855 0.77919 0.04267 0.0
N838 N 0.96797 0.83601 0.02481 0.0
N839 N 0.91616 0.79513 0.0351 0.0
H840 H 0.6863 0.21242 0.50464 0.0
H841 H 0.60042 0.04277 0.4877 0.0
H842 H 0.73655 0.11917 0.50987 0.0
H843 H 0.54812 0.13519 0.48657 0.0
H844 H 0.65168 0.07097 0.48684 0.0
H845 H 0.63659 0.18506 0.48991 0.0
C846 C 0.68697 0.18624 0.50249 0.0
C847 C 0.7155 0.16801 0.50894 0.0
C848 C 0.629 0.08509 0.4864 0.0
C849 C 0.65887 0.13669 0.49205 0.0
C850 C 0.59967 0.06899 0.48684 0.0
C851 C 0.56989 0.08667 0.48781 0.0
C852 C 0.62856 0.11908 0.48713 0.0
C853 C 0.5705 0.12059 0.48628 0.0
C854 C 0.65861 0.17066 0.49403 0.0
C855 C 0.71501 0.13419 0.5056 0.0
N856 N 0.59943 0.13574 0.48646 0.0
N857 N 0.68706 0.11963 0.4976 0.0
H858 H 0.79749 0.3825 0.23291 0.0
H859 H 0.96926 0.30956 0.24423 0.0
H860 H 0.87684 0.4407 0.26378 0.0
H861 H 0.88587 0.25061 0.26122 0.0
H862 H 0.93631 0.35764 0.25873 0.0
H863 H 0.82767 0.33384 0.24984 0.0
C864 C 0.82073 0.38503 0.24458 0.0
C865 C 0.83451 0.41542 0.24782 0.0
C866 C 0.92545 0.33412 0.26074 0.0
C867 C 0.86987 0.3601 0.26565 0.0
C868 C 0.94453 0.30656 0.25303 0.0
C869 C 0.93057 0.27609 0.25284 0.0
C870 C 0.89188 0.33117 0.26701 0.0
C871 C 0.89758 0.27379 0.26179 0.0
C872 C 0.83806 0.3573 0.25406 0.0
C873 C 0.86528 0.41754 0.26163 0.0
N874 N 0.8791 0.30108 0.26794 0.0
N875 N 0.88225 0.39013 0.26959 0.0
H876 H 0.99366 0.64843 0.48108 0.0
H877 H 0.12805 0.74127 0.46834 0.0
H878 H 0.04853 0.57567 0.42598 0.0
H879 H 0.17609 0.64941 0.44465 0.0
H880 H 0.07597 0.71875 0.45338 0.0
H881 H 0.03534 0.68725 0.46873 0.0
C882 C 0.01394 0.64098 0.46536 0.0
C883 C 0.01835 0.60858 0.45546 0.0
C884 C 0.09784 0.70349 0.45147 0.0
C885 C 0.06619 0.65284 0.44095 0.0
C886 C 0.12765 0.7164 0.45983 0.0
C887 C 0.15624 0.69676 0.45883 0.0
C888 C 0.09678 0.67069 0.44234 0.0
C889 C 0.1545 0.66508 0.44684 0.0
C890 C 0.03786 0.66327 0.45816 0.0
C891 C 0.04483 0.60023 0.43496 0.0
N892 N 0.1252 0.65293 0.43947 0.0
N893 N 0.06816 0.62205 0.42899 0.0
H894 H 0.60808 0.05123 0.76933 0.0
H895 H 0.62059 0.24253 0.76297 0.0
H896 H 0.69204 0.10553 0.79493 0.0
H897 H 0.53024 0.192 0.76898 0.0
H898 H 0.64977 0.19089 0.75183 0.0
H899 H 0.58257 0.1009 0.74778 0.0
C900 C 0.62161 0.0734 0.76919 0.0
C901 C 0.65253 0.07437 0.78291 0.0
C902 C 0.62338 0.19126 0.75435 0.0
C903 C 0.6235 0.13097 0.75935 0.0
C904 C 0.60677 0.22069 0.76044 0.0
C905 C 0.57299 0.22139 0.76627 0.0
C906 C 0.60605 0.1624 0.75496 0.0
C907 C 0.55612 0.19253 0.7635 0.0
C908 C 0.60709 0.10164 0.75704 0.0
C909 C 0.66879 0.10363 0.78324 0.0
N910 N 0.57292 0.16401 0.75863 0.0
N911 N 0.65393 0.13089 0.77197 0.0
H912 H 0.81634 0.58007 0.22441 0.0
H913 H 0.79655 0.70101 0.11217 0.0
H914 H 0.71454 0.5613 0.21126 0.0
H915 H 0.71932 0.63876 0.08326 0.0
H916 H 0.79564 0.67562 0.1655 0.0
H917 H 0.8105 0.62852 0.19183 0.0
C918 C 0.79229 0.58723 0.21611 0.0
C919 C 0.76588 0.56667 0.22045 0.0
C920 C 0.7789 0.66762 0.14745 0.0
C921 C 0.75909 0.62161 0.18236 0.0
C922 C 0.77938 0.68215 0.11711 0.0
C923 C 0.7588 0.67113 0.093 0.0
C924 C 0.75732 0.64234 0.15357 0.0
C925 C 0.73643 0.64719 0.10079 0.0
C926 C 0.78895 0.61491 0.19733 0.0
C927 C 0.7354 0.57666 0.20881 0.0
N928 N 0.73644 0.63354 0.13025 0.0
N929 N 0.73308 0.60288 0.1894 0.0
H930 H 0.87315 0.48653 0.50205 0.0
H931 H 0.76368 0.44226 0.38746 0.0
H932 H 0.93861 0.50852 0.42371 0.0
H933 H 0.8253 0.49591 0.32307 0.0
H934 H 0.80679 0.44145 0.4266 0.0
H935 H 0.83527 0.46434 0.4642 0.0
C936 C 0.8802 0.48502 0.47684 0.0
C937 C 0.90908 0.49877 0.46588 0.0
C938 C 0.81085 0.45402 0.4043 0.0
C939 C 0.86549 0.47436 0.42185 0.0
C940 C 0.78608 0.45451 0.38182 0.0
C941 C 0.79047 0.47006 0.35227 0.0
C942 C 0.84009 0.46981 0.39751 0.0
C943 C 0.82056 0.48426 0.3458 0.0
C944 C 0.85843 0.47248 0.45499 0.0
C945 C 0.91687 0.49732 0.43304 0.0
N946 N 0.84408 0.48408 0.36839 0.0
N947 N 0.89481 0.48598 0.41203 0.0
H948 H 0.16282 0.52779 0.6884 0.0
H949 H 0.05607 0.50022 0.56355 0.0
H950 H 0.2354 0.52646 0.61169 0.0
H951 H 0.13244 0.53457 0.50135 0.0
H952 H 0.08843 0.51315 0.60999 0.0
H953 H 0.12005 0.53179 0.64861 0.0
C954 C 0.16977 0.52766 0.66315 0.0
C955 C 0.20283 0.52613 0.65338 0.0
C956 C 0.09773 0.51941 0.58645 0.0
C957 C 0.15385 0.53064 0.60753 0.0
C958 C 0.07882 0.5125 0.55983 0.0
C959 C 0.09131 0.51724 0.52875 0.0
C960 C 0.12956 0.53058 0.58167 0.0
C961 C 0.12185 0.53116 0.52508 0.0
C962 C 0.14524 0.53005 0.64037 0.0
C963 C 0.21031 0.52713 0.62039 0.0
N964 N 0.1402 0.53683 0.55123 0.0
N965 N 0.18604 0.52924 0.59874 0.0
H966 H 0.56137 0.72318 0.13809 0.0
H967 H 0.70838 0.83761 0.1121 0.0
H968 H 0.59429 0.78303 0.21601 0.0
H969 H 0.71292 0.74024 0.07367 0.0
H970 H 0.66143 0.82324 0.14557 0.0
H971 H 0.6117 0.73474 0.10778 0.0
C972 C 0.57912 0.73885 0.14867 0.0
C973 C 0.57384 0.75229 0.17944 0.0
C974 C 0.67282 0.80509 0.12971 0.0
C975 C 0.63068 0.76559 0.14512 0.0
C976 C 0.69951 0.81319 0.11057 0.0
C977 C 0.714 0.79025 0.08922 0.0
C978 C 0.66028 0.77402 0.12706 0.0
C979 C 0.70178 0.75895 0.08866 0.0
C980 C 0.60779 0.74513 0.13157 0.0
C981 C 0.59762 0.77217 0.19234 0.0
N982 N 0.67524 0.75179 0.10699 0.0
N983 N 0.62495 0.77856 0.17492 0.0
H984 H 0.66903 0.45034 0.19513 0.0
H985 H 0.6293 0.45694 0.00911 0.0
H986 H 0.74155 0.44313 0.11844 0.0
H987 H 0.55766 0.4766 0.08477 0.0
H988 H 0.66813 0.43877 0.04914 0.0
H989 H 0.62616 0.44724 0.15542 0.0
C990 C 0.67602 0.4476 0.17 0.0
C991 C 0.709 0.44765 0.16005 0.0
C992 C 0.6438 0.44665 0.057 0.0
C993 C 0.65996 0.44418 0.11456 0.0
C994 C 0.6216 0.45707 0.03416 0.0
C995 C 0.59045 0.46898 0.04372 0.0
C996 C 0.63494 0.44847 0.0897 0.0
C997 C 0.58157 0.46794 0.0764 0.0
C998 C 0.65147 0.44587 0.14735 0.0
C999 C 0.71648 0.44377 0.12719 0.0
N1000 N 0.60395 0.45841 0.09834 0.0
N1001 N 0.69212 0.44259 0.1056 0.0
H1002 H 0.47556 0.38915 0.03957 0.0
H1003 H 0.33825 0.30264 0.94227 0.0
H1004 H 0.44164 0.41956 0.94708 0.0
H1005 H 0.34979 0.30126 0.04486 0.0
H1006 H 0.39252 0.32605 0.93639 0.0
H1007 H 0.44781 0.33795 0.03271 0.0
C1008 C 0.46374 0.38425 0.01702 0.0
C1009 C 0.46086 0.40846 0.99382 0.0
C1010 C 0.38372 0.31941 0.96006 0.0
C1011 C 0.42791 0.35073 0.98639 0.0
C1012 C 0.35296 0.30578 0.96339 0.0
C1013 C 0.33979 0.30011 0.9941 0.0
C1014 C 0.40119 0.32724 0.98769 0.0
C1015 C 0.35928 0.30529 0.02081 0.0
C1016 C 0.44756 0.35521 0.01328 0.0
C1017 C 0.44468 0.40131 0.96534 0.0
N1018 N 0.38884 0.31899 0.01704 0.0
N1019 N 0.42805 0.37335 0.96274 0.0
H1020 H 0.15569 0.21582 0.25914 0.0
H1021 H 0.15206 0.02428 0.23317 0.0
H1022 H 0.07018 0.15844 0.26965 0.0
H1023 H 0.2368 0.07438 0.26435 0.0
H1024 H 0.12372 0.07659 0.22503 0.0
H1025 H 0.18689 0.16713 0.24082 0.0
C1026 C 0.14314 0.19326 0.25621 0.0
C1027 C 0.10992 0.19137 0.26462 0.0
C1028 C 0.14888 0.07617 0.23265 0.0
C1029 C 0.14539 0.13576 0.24438 0.0
C1030 C 0.16511 0.04642 0.237 0.0
C1031 C 0.19692 0.04526 0.2488 0.0
C1032 C 0.16447 0.10489 0.24072 0.0
C1033 C 0.2125 0.07443 0.25453 0.0
C1034 C 0.16095 0.16555 0.24593 0.0
C1035 C 0.095 0.16148 0.26138 0.0
N1036 N 0.19598 0.10317 0.25076 0.0
N1037 N 0.11288 0.13479 0.25174 0.0
H1038 H 0.17797 0.31898 0.9013 0.0
H1039 H 0.27847 0.43479 0.79293 0.0
H1040 H 0.28301 0.32127 0.89946 0.0
H1041 H 0.17464 0.42387 0.78526 0.0
H1042 H 0.28239 0.383 0.82046 0.0
H1043 H 0.17718 0.34664 0.84938 0.0
C1044 C 0.20086 0.32427 0.88927 0.0
C1045 C 0.23057 0.31792 0.90433 0.0
C1046 C 0.25884 0.39126 0.81181 0.0
C1047 C 0.23005 0.35048 0.84585 0.0
C1048 C 0.25678 0.42062 0.79542 0.0
C1049 C 0.22627 0.43348 0.78657 0.0
C1050 C 0.23005 0.37522 0.82011 0.0
C1051 C 0.19864 0.41475 0.79183 0.0
C1052 C 0.2005 0.34023 0.85977 0.0
C1053 C 0.25964 0.32574 0.88831 0.0
N1054 N 0.20105 0.38696 0.80891 0.0
N1055 N 0.25866 0.34214 0.86021 0.0
H1056 H 0.27229 0.25257 0.90853 0.0
H1057 H 0.4645 0.23834 0.87873 0.0
H1058 H 0.33282 0.17671 0.94863 0.0
H1059 H 0.40012 0.27522 0.80573 0.0
H1060 H 0.41686 0.22553 0.91186 0.0
H1061 H 0.31986 0.27097 0.87737 0.0
C1062 C 0.29571 0.24024 0.91113 0.0
C1063 C 0.299 0.21339 0.93119 0.0
C1064 C 0.41323 0.23646 0.88859 0.0
C1065 C 0.35287 0.23396 0.89609 0.0
C1066 C 0.44034 0.24384 0.86971 0.0
C1067 C 0.4362 0.25756 0.83932 0.0
C1068 C 0.3818 0.24327 0.87723 0.0
C1069 C 0.40432 0.26423 0.82887 0.0
C1070 C 0.32262 0.25045 0.89319 0.0
C1071 C 0.3295 0.19749 0.93325 0.0
N1072 N 0.37822 0.25709 0.84789 0.0
N1073 N 0.35539 0.20816 0.91605 0.0
H1074 H 0.36681 0.56053 0.99475 0.0
H1075 H 0.32789 0.54967 0.80874 0.0
H1076 H 0.43953 0.53767 0.92089 0.0
H1077 H 0.25506 0.56367 0.88446 0.0
H1078 H 0.37057 0.55719 0.84803 0.0
H1079 H 0.32782 0.57451 0.9533 0.0
C1080 C 0.37472 0.55893 0.96978 0.0
C1081 C 0.40622 0.54725 0.9612 0.0
C1082 C 0.34524 0.55904 0.85594 0.0
C1083 C 0.36156 0.56278 0.91364 0.0
C1084 C 0.3208 0.55474 0.83353 0.0
C1085 C 0.2878 0.55539 0.84344 0.0
C1086 C 0.3366 0.56402 0.88844 0.0
C1087 C 0.28016 0.56235 0.87582 0.0
C1088 C 0.35243 0.5669 0.94612 0.0
C1089 C 0.41536 0.54625 0.92854 0.0
N1090 N 0.3044 0.56602 0.8972 0.0
N1091 N 0.39289 0.55331 0.90586 0.0
H1092 H 0.6621 0.70941 0.05859 0.0
H1093 H 0.51963 0.62841 0.96621 0.0
H1094 H 0.64405 0.71766 0.95744 0.0
H1095 H 0.55435 0.59901 0.05874 0.0
H1096 H 0.54781 0.67946 0.97202 0.0
H1097 H 0.60745 0.68828 0.06673 0.0
C1098 C 0.64585 0.7087 0.03842 0.0
C1099 C 0.65736 0.71568 0.00738 0.0
C1100 C 0.5482 0.66248 0.99169 0.0
C1101 C 0.59538 0.69023 0.01622 0.0
C1102 C 0.53173 0.63353 0.98856 0.0
C1103 C 0.5348 0.60956 0.01201 0.0
C1104 C 0.56834 0.66709 0.01819 0.0
C1105 C 0.55127 0.61701 0.04022 0.0
C1106 C 0.61482 0.69609 0.04298 0.0
C1107 C 0.63592 0.71273 0.98177 0.0
N1108 N 0.56822 0.64482 0.04219 0.0
N1109 N 0.60614 0.69971 0.98666 0.0
H1110 H 0.8504 0.79477 0.74866 0.0
H1111 H 0.86286 0.98425 0.78369 0.0
H1112 H 0.93788 0.84927 0.73839 0.0
H1113 H 0.77628 0.94009 0.74859 0.0
H1114 H 0.88841 0.93025 0.78977 0.0
H1115 H 0.82152 0.84377 0.76981 0.0
C1116 C 0.86388 0.81667 0.75227 0.0
C1117 C 0.89698 0.81769 0.7432 0.0
C1118 C 0.86341 0.93234 0.78181 0.0
C1119 C 0.86425 0.87355 0.76671 0.0
C1120 C 0.84877 0.96303 0.77862 0.0
C1121 C 0.81728 0.96635 0.76629 0.0
C1122 C 0.84655 0.90492 0.77203 0.0
C1123 C 0.80036 0.93834 0.75888 0.0
C1124 C 0.84742 0.84453 0.76417 0.0
C1125 C 0.91314 0.84681 0.74722 0.0
N1126 N 0.81535 0.90869 0.76154 0.0
N1127 N 0.89659 0.87365 0.7585 0.0
H1128 H 0.42658 0.16305 0.72637 0.0
H1129 H 0.43064 0.05092 0.60914 0.0
H1130 H 0.52766 0.17597 0.70081 0.0
H1131 H 0.53542 0.05648 0.60709 0.0
H1132 H 0.42849 0.07953 0.66013 0.0
H1133 H 0.43031 0.10836 0.70387 0.0
C1134 C 0.44983 0.15387 0.7167 0.0
C1135 C 0.47679 0.1739 0.71523 0.0
C1136 C 0.45226 0.07366 0.64967 0.0
C1137 C 0.4807 0.11243 0.68658 0.0
C1138 C 0.45337 0.05704 0.62034 0.0
C1139 C 0.48319 0.05145 0.60401 0.0
C1140 C 0.48128 0.08559 0.66238 0.0
C1141 C 0.51195 0.06014 0.61917 0.0
C1142 C 0.45188 0.12279 0.70316 0.0
C1143 C 0.50637 0.16108 0.70253 0.0
N1144 N 0.51022 0.07758 0.64712 0.0
N1145 N 0.50732 0.13145 0.68793 0.0
H1146 H 0.54659 0.39329 0.77436 0.0
H1147 H 0.48229 0.46216 0.93296 0.0
H1148 H 0.45409 0.36193 0.81163 0.0
H1149 H 0.5371 0.5208 0.86744 0.0
H1150 H 0.46507 0.42917 0.88725 0.0
H1151 H 0.53871 0.44425 0.80426 0.0
C1152 C 0.52395 0.39787 0.78774 0.0
C1153 C 0.50082 0.37378 0.79043 0.0
C1154 C 0.48 0.44994 0.88282 0.0
C1155 C 0.49247 0.43083 0.82628 0.0
C1156 C 0.48977 0.46875 0.90897 0.0
C1157 C 0.51198 0.49345 0.90407 0.0
C1158 C 0.49297 0.45592 0.85193 0.0
C1159 C 0.52073 0.50124 0.87235 0.0
C1160 C 0.51948 0.4268 0.80505 0.0
C1161 C 0.47225 0.3803 0.80879 0.0
N1162 N 0.51195 0.48203 0.84757 0.0
N1163 N 0.46929 0.40785 0.82692 0.0
H1164 H 0.58918 0.8405 0.30195 0.0
H1165 H 0.47741 0.95518 0.41181 0.0
H1166 H 0.48498 0.83281 0.31347 0.0
H1167 H 0.58262 0.95343 0.40916 0.0
H1168 H 0.47797 0.92531 0.36061 0.0
H1169 H 0.58515 0.89513 0.32523 0.0
C1170 C 0.56531 0.85087 0.30834 0.0
C1171 C 0.53735 0.83239 0.3057 0.0
C1172 C 0.50093 0.93248 0.3706 0.0
C1173 C 0.53256 0.89418 0.33343 0.0
C1174 C 0.50057 0.94993 0.39959 0.0
C1175 C 0.53002 0.95648 0.41461 0.0
C1176 C 0.53099 0.92143 0.35698 0.0
C1177 C 0.55942 0.94851 0.3983 0.0
C1178 C 0.56297 0.88198 0.32173 0.0
C1179 C 0.507 0.84663 0.31457 0.0
N1180 N 0.55919 0.93084 0.37066 0.0
N1181 N 0.50546 0.87647 0.3287 0.0
H1182 H 0.45916 0.49452 0.13828 0.0
H1183 H 0.54885 0.65062 0.20046 0.0
H1184 H 0.51355 0.55595 0.07498 0.0
H1185 H 0.45437 0.6203 0.23354 0.0
H1186 H 0.55399 0.60178 0.16625 0.0
H1187 H 0.47722 0.52588 0.18422 0.0
C1188 C 0.47573 0.5141 0.13408 0.0
C1189 C 0.48417 0.5233 0.10269 0.0
C1190 C 0.53277 0.60526 0.18197 0.0
C1191 C 0.50483 0.55916 0.15526 0.0
C1192 C 0.52996 0.6328 0.20173 0.0
C1193 C 0.50123 0.63913 0.21992 0.0
C1194 C 0.50687 0.58385 0.18101 0.0
C1195 C 0.477 0.61598 0.2201 0.0
C1196 C 0.48597 0.53193 0.16035 0.0
C1197 C 0.50615 0.54839 0.09872 0.0
N1198 N 0.48025 0.58941 0.20068 0.0
N1199 N 0.51521 0.56607 0.12478 0.0
loop_
_geom_bond_atom_site_label_1
_geom_bond_atom_site_label_2
_geom_bond_distance
_geom_bond_site_symmetry_2
_ccdc_geom_bond_type
O0 Mn1 2.163 1_656 S
O0 C14 1.244 . S
Mn1 O0 2.163 1_454 S
Mn1 O4 2.160 1_545 S
Mn1 O5 2.221 1_544 S
Mn1 O7 2.166 . S
Mn1 O9 2.160 1_445 S
Mn1 O19 2.221 1_455 S
O2 Mn3 2.087 1_556 S
O2 C14 1.256 . S
Mn3 O2 2.087 1_554 S
Mn3 O10 2.089 1_545 S
Mn3 O19 2.290 . S
Mn3 O20 2.251 . S
O4 Mn1 2.160 1_565 S
O4 C15 1.239 . S
O5 Mn1 2.221 1_566 S
O5 Mn6 2.290 . S
O5 C16 1.278 . S
Mn6 O5 2.290 . S
Mn6 O8 2.089 1_556 S
Mn6 O11 2.251 . S
Mn6 O12 2.087 1_565 S
O7 Mn1 2.166 . S
O7 C17 1.237 1_554 S
O8 Mn6 2.089 1_554 S
O8 C15 1.256 . S
O9 Mn1 2.160 1_665 S
O9 C18 1.239 . S
O10 Mn3 2.089 1_565 S
O10 C18 1.256 . S
O11 Mn6 2.251 . S
O11 C16 1.241 . S
O12 Mn6 2.087 1_545 S
O12 C17 1.256 . S
C13 O19 1.278 . S
C13 O20 1.241 . S
C14 O0 1.244 . S
C14 O2 1.256 . S
C15 O4 1.239 . S
C15 O8 1.256 . S
C16 O5 1.278 . S
C16 O11 1.241 . S
C17 O7 1.237 1_556 S
C17 O12 1.256 . S
C18 O9 1.239 . S
C18 O10 1.256 . S
O19 Mn1 2.221 1_655 S
O19 Mn3 2.290 . S
O19 C13 1.278 . S
O20 Mn3 2.251 . S
O20 C13 1.241 . S
O21 Mn22 2.163 . S
O21 C35 1.244 . S
Mn22 O21 2.163 . S
Mn22 O25 2.160 1_455 S
Mn22 O26 2.221 . S
Mn22 O28 2.163 . S
Mn22 O30 2.160 1_455 S
Mn22 O40 2.221 1_455 S
O23 Mn24 2.087 1_455 S
O23 C35 1.256 . S
Mn24 O23 2.087 1_655 S
Mn24 O31 2.089 . S
Mn24 O40 2.290 . S
Mn24 O41 2.251 . S
O25 Mn22 2.160 1_655 S
O25 C36 1.239 . S
O26 Mn22 2.221 . S
O26 Mn27 2.290 . S
O26 C37 1.278 . S
Mn27 O26 2.290 . S
Mn27 O29 2.089 1_455 S
Mn27 O32 2.251 . S
Mn27 O33 2.087 . S
O28 Mn22 2.163 . S
O28 C38 1.244 . S
O29 Mn27 2.089 1_655 S
O29 C36 1.256 . S
O30 Mn22 2.160 1_655 S
O30 C39 1.239 . S
O31 Mn24 2.089 . S
O31 C39 1.256 . S
O32 Mn27 2.251 . S
O32 C37 1.241 . S
O33 Mn27 2.087 . S
O33 C38 1.256 . S
C34 O40 1.278 . S
C34 O41 1.241 . S
C35 O21 1.244 . S
C35 O23 1.256 . S
C36 O25 1.239 . S
C36 O29 1.256 . S
C37 O26 1.278 . S
C37 O32 1.241 . S
C38 O28 1.244 . S
C38 O33 1.256 . S
C39 O30 1.239 . S
C39 O31 1.256 . S
O40 Mn22 2.221 1_655 S
O40 Mn24 2.290 . S
O40 C34 1.278 . S
O41 Mn24 2.251 . S
O41 C34 1.241 . S
O42 Mn43 2.163 . S
O42 C56 1.244 . S
Mn43 O42 2.163 . S
Mn43 O46 2.160 . S
Mn43 O47 2.221 . S
Mn43 O49 2.163 . S
Mn43 O51 2.160 . S
Mn43 O61 2.221 . S
O44 Mn45 2.087 . S
O44 C56 1.256 . S
Mn45 O44 2.087 . S
Mn45 O52 2.089 . S
Mn45 O61 2.290 . S
Mn45 O62 2.251 . S
O46 Mn43 2.160 . S
O46 C57 1.239 . S
O47 Mn43 2.221 . S
O47 Mn48 2.290 . S
O47 C58 1.278 . S
Mn48 O47 2.290 . S
Mn48 O50 2.089 . S
Mn48 O53 2.251 . S
Mn48 O54 2.087 . S
O49 Mn43 2.163 . S
O49 C59 1.244 . S
O50 Mn48 2.089 . S
O50 C57 1.256 . S
O51 Mn43 2.160 . S
O51 C60 1.239 . S
O52 Mn45 2.089 . S
O52 C60 1.256 . S
O53 Mn48 2.251 . S
O53 C58 1.241 . S
O54 Mn48 2.087 . S
O54 C59 1.256 . S
C55 O61 1.278 . S
C55 O62 1.241 . S
C56 O42 1.244 . S
C56 O44 1.256 . S
C57 O46 1.239 . S
C57 O50 1.256 . S
C58 O47 1.278 . S
C58 O53 1.241 . S
C59 O49 1.244 . S
C59 O54 1.256 . S
C60 O51 1.239 . S
C60 O52 1.256 . S
O61 Mn43 2.221 . S
O61 Mn45 2.290 . S
O61 C55 1.278 . S
O62 Mn45 2.251 . S
O62 C55 1.241 . S
O63 Mn64 2.163 1_565 S
O63 C77 1.244 . S
Mn64 O63 2.163 1_545 S
Mn64 O67 2.160 . S
Mn64 O68 2.221 1_545 S
Mn64 O70 2.166 . S
Mn64 O72 2.160 . S
Mn64 O82 2.221 . S
O65 Mn66 2.087 1_565 S
O65 C77 1.256 . S
Mn66 O65 2.087 1_545 S
Mn66 O73 2.089 . S
Mn66 O82 2.290 . S
Mn66 O83 2.251 . S
O67 Mn64 2.160 . S
O67 C78 1.239 . S
O68 Mn64 2.221 1_565 S
O68 Mn69 2.290 . S
O68 C79 1.278 . S
Mn69 O68 2.290 . S
Mn69 O71 2.089 1_565 S
Mn69 O74 2.251 . S
Mn69 O75 2.087 . S
O70 Mn64 2.166 . S
O70 C80 1.236 1_545 S
O71 Mn69 2.089 1_545 S
O71 C78 1.256 . S
O72 Mn64 2.160 . S
O72 C81 1.239 . S
O73 Mn66 2.089 . S
O73 C81 1.256 . S
O74 Mn69 2.251 . S
O74 C79 1.241 . S
O75 Mn69 2.087 . S
O75 C80 1.256 . S
C76 O82 1.278 . S
C76 O83 1.241 . S
C77 O63 1.244 . S
C77 O65 1.256 . S
C78 O67 1.239 . S
C78 O71 1.256 . S
C79 O68 1.278 . S
C79 O74 1.241 . S
C80 O70 1.236 1_565 S
C80 O75 1.256 . S
C81 O72 1.239 . S
C81 O73 1.256 . S
O82 Mn64 2.221 . S
O82 Mn66 2.290 . S
O82 C76 1.278 . S
O83 Mn66 2.251 . S
O83 C76 1.241 . S
O84 Mn85 2.163 . S
O84 C98 1.244 . S
Mn85 O84 2.163 . S
Mn85 O88 2.160 . S
Mn85 O89 2.221 . S
Mn85 O91 2.163 . S
Mn85 O93 2.160 . S
Mn85 O103 2.221 . S
O86 Mn87 2.087 . S
O86 C98 1.256 . S
Mn87 O86 2.087 . S
Mn87 O94 2.089 . S
Mn87 O103 2.290 . S
Mn87 O104 2.251 . S
O88 Mn85 2.160 . S
O88 C99 1.239 . S
O89 Mn85 2.221 . S
O89 Mn90 2.290 . S
O89 C100 1.278 . S
Mn90 O89 2.290 . S
Mn90 O92 2.089 . S
Mn90 O95 2.251 . S
Mn90 O96 2.087 . S
O91 Mn85 2.163 . S
O91 C101 1.244 . S
O92 Mn90 2.089 . S
O92 C99 1.256 . S
O93 Mn85 2.160 . S
O93 C102 1.239 . S
O94 Mn87 2.089 . S
O94 C102 1.256 . S
O95 Mn90 2.251 . S
O95 C100 1.241 . S
O96 Mn90 2.087 . S
O96 C101 1.256 . S
C97 O103 1.278 . S
C97 O104 1.241 . S
C98 O84 1.244 . S
C98 O86 1.256 . S
C99 O88 1.239 . S
C99 O92 1.256 . S
C100 O89 1.278 . S
C100 O95 1.241 . S
C101 O91 1.244 . S
C101 O96 1.256 . S
C102 O93 1.239 . S
C102 O94 1.256 . S
O103 Mn85 2.221 . S
O103 Mn87 2.290 . S
O103 C97 1.278 . S
O104 Mn87 2.251 . S
O104 C97 1.241 . S
O105 Mn106 2.163 . S
O105 C119 1.244 . S
Mn106 O105 2.163 . S
Mn106 O109 2.160 . S
Mn106 O110 2.221 . S
Mn106 O112 2.163 . S
Mn106 O114 2.160 . S
Mn106 O124 2.221 . S
O107 Mn108 2.087 . S
O107 C119 1.256 . S
Mn108 O107 2.087 . S
Mn108 O115 2.089 . S
Mn108 O124 2.290 . S
Mn108 O125 2.251 . S
O109 Mn106 2.160 . S
O109 C120 1.239 . S
O110 Mn106 2.221 . S
O110 Mn111 2.290 . S
O110 C121 1.278 . S
Mn111 O110 2.290 . S
Mn111 O113 2.089 . S
Mn111 O116 2.251 . S
Mn111 O117 2.087 . S
O112 Mn106 2.163 . S
O112 C122 1.244 . S
O113 Mn111 2.089 . S
O113 C120 1.256 . S
O114 Mn106 2.160 . S
O114 C123 1.239 . S
O115 Mn108 2.089 . S
O115 C123 1.256 . S
O116 Mn111 2.251 . S
O116 C121 1.241 . S
O117 Mn111 2.087 . S
O117 C122 1.256 . S
C118 O124 1.278 . S
C118 O125 1.241 . S
C119 O105 1.244 . S
C119 O107 1.256 . S
C120 O109 1.239 . S
C120 O113 1.256 . S
C121 O110 1.278 . S
C121 O116 1.241 . S
C122 O112 1.244 . S
C122 O117 1.256 . S
C123 O114 1.239 . S
C123 O115 1.256 . S
O124 Mn106 2.221 . S
O124 Mn108 2.290 . S
O124 C118 1.278 . S
O125 Mn108 2.251 . S
O125 C118 1.241 . S
O126 Mn127 2.163 . S
O126 C140 1.244 . S
Mn127 O126 2.163 . S
Mn127 O130 2.160 . S
Mn127 O131 2.221 . S
Mn127 O133 2.163 . S
Mn127 O135 2.160 . S
Mn127 O145 2.221 . S
O128 Mn129 2.087 . S
O128 C140 1.256 . S
Mn129 O128 2.087 . S
Mn129 O136 2.089 . S
Mn129 O145 2.290 . S
Mn129 O146 2.251 . S
O130 Mn127 2.160 . S
O130 C141 1.239 . S
O131 Mn127 2.221 . S
O131 Mn132 2.290 . S
O131 C142 1.278 . S
Mn132 O131 2.290 . S
Mn132 O134 2.089 . S
Mn132 O137 2.251 . S
Mn132 O138 2.087 . S
O133 Mn127 2.163 . S
O133 C143 1.244 . S
O134 Mn132 2.089 . S
O134 C141 1.256 . S
O135 Mn127 2.160 . S
O135 C144 1.239 . S
O136 Mn129 2.089 . S
O136 C144 1.256 . S
O137 Mn132 2.251 . S
O137 C142 1.241 . S
O138 Mn132 2.087 . S
O138 C143 1.256 . S
C139 O145 1.278 . S
C139 O146 1.241 . S
C140 O126 1.244 . S
C140 O128 1.256 . S
C141 O130 1.239 . S
C141 O134 1.256 . S
C142 O131 1.278 . S
C142 O137 1.241 . S
C143 O133 1.244 . S
C143 O138 1.256 . S
C144 O135 1.239 . S
C144 O136 1.256 . S
O145 Mn127 2.221 . S
O145 Mn129 2.290 . S
O145 C139 1.278 . S
O146 Mn129 2.251 . S
O146 C139 1.241 . S
O147 Mn148 2.160 1_655 S
O147 C161 1.252 . S
Mn148 O147 2.160 1_455 S
Mn148 O151 2.160 . S
Mn148 O152 2.221 . S
Mn148 O154 2.163 1_455 S
Mn148 O156 2.160 . S
Mn148 O166 2.221 1_455 S
O149 Mn150 2.087 . S
O149 C161 1.256 . S
Mn150 O149 2.087 . S
Mn150 O157 2.089 1_655 S
Mn150 O166 2.290 . S
Mn150 O167 2.251 . S
O151 Mn148 2.160 . S
O151 C162 1.239 . S
O152 Mn148 2.221 . S
O152 Mn153 2.290 . S
O152 C163 1.278 . S
Mn153 O152 2.290 . S
Mn153 O155 2.089 . S
Mn153 O158 2.251 . S
Mn153 O159 2.087 1_455 S
O154 Mn148 2.163 1_655 S
O154 C164 1.244 . S
O155 Mn153 2.089 . S
O155 C162 1.256 . S
O156 Mn148 2.160 . S
O156 C165 1.239 . S
O157 Mn150 2.089 1_455 S
O157 C165 1.256 . S
O158 Mn153 2.251 . S
O158 C163 1.241 . S
O159 Mn153 2.087 1_655 S
O159 C164 1.256 . S
C160 O166 1.278 . S
C160 O167 1.241 . S
C161 O147 1.252 . S
C161 O149 1.256 . S
C162 O151 1.239 . S
C162 O155 1.256 . S
C163 O152 1.278 . S
C163 O158 1.241 . S
C164 O154 1.244 . S
C164 O159 1.256 . S
C165 O156 1.239 . S
C165 O157 1.256 . S
O166 Mn148 2.221 1_655 S
O166 Mn150 2.290 . S
O166 C160 1.278 . S
O167 Mn150 2.251 . S
O167 C160 1.241 . S
O168 Mn169 2.163 . S
O168 C182 1.244 . S
Mn169 O168 2.163 . S
Mn169 O172 2.160 1_554 S
Mn169 O173 2.221 . S
Mn169 O175 2.163 . S
Mn169 O177 2.160 1_554 S
Mn169 O187 2.221 1_554 S
O170 Mn171 2.087 1_554 S
O170 C182 1.256 . S
Mn171 O170 2.087 1_556 S
Mn171 O178 2.089 . S
Mn171 O187 2.290 . S
Mn171 O188 2.251 . S
O172 Mn169 2.160 1_556 S
O172 C183 1.239 . S
O173 Mn169 2.221 . S
O173 Mn174 2.290 . S
O173 C184 1.278 . S
Mn174 O173 2.290 . S
Mn174 O176 2.089 1_554 S
Mn174 O179 2.251 . S
Mn174 O180 2.087 . S
O175 Mn169 2.163 . S
O175 C185 1.244 . S
O176 Mn174 2.089 1_556 S
O176 C183 1.256 . S
O177 Mn169 2.160 1_556 S
O177 C186 1.239 . S
O178 Mn171 2.089 . S
O178 C186 1.256 . S
O179 Mn174 2.251 . S
O179 C184 1.241 . S
O180 Mn174 2.087 . S
O180 C185 1.256 . S
C181 O187 1.278 . S
C181 O188 1.241 . S
C182 O168 1.244 . S
C182 O170 1.256 . S
C183 O172 1.239 . S
C183 O176 1.256 . S
C184 O173 1.278 . S
C184 O179 1.241 . S
C185 O175 1.244 . S
C185 O180 1.256 . S
C186 O177 1.239 . S
C186 O178 1.256 . S
O187 Mn169 2.221 1_556 S
O187 Mn171 2.290 . S
O187 C181 1.278 . S
O188 Mn171 2.251 . S
O188 C181 1.241 . S
O189 Mn190 2.163 1_565 S
O189 C203 1.244 . S
Mn190 O189 2.163 1_545 S
Mn190 O193 2.160 . S
Mn190 O194 2.221 1_545 S
Mn190 O196 2.163 . S
Mn190 O198 2.160 . S
Mn190 O208 2.221 . S
O191 Mn192 2.087 1_565 S
O191 C203 1.256 . S
Mn192 O191 2.087 1_545 S
Mn192 O199 2.089 . S
Mn192 O208 2.290 . S
Mn192 O209 2.251 . S
O193 Mn190 2.160 . S
O193 C204 1.239 . S
O194 Mn190 2.221 1_565 S
O194 Mn195 2.290 . S
O194 C205 1.278 . S
Mn195 O194 2.290 . S
Mn195 O197 2.089 1_565 S
Mn195 O200 2.251 . S
Mn195 O201 2.087 . S
O196 Mn190 2.163 . S
O196 C206 1.244 1_545 S
O197 Mn195 2.089 1_545 S
O197 C204 1.256 . S
O198 Mn190 2.160 . S
O198 C207 1.239 . S
O199 Mn192 2.089 . S
O199 C207 1.256 . S
O200 Mn195 2.251 . S
O200 C205 1.241 . S
O201 Mn195 2.087 . S
O201 C206 1.256 . S
C202 O208 1.278 . S
C202 O209 1.241 . S
C203 O189 1.244 . S
C203 O191 1.256 . S
C204 O193 1.239 . S
C204 O197 1.256 . S
C205 O194 1.278 . S
C205 O200 1.241 . S
C206 O196 1.244 1_565 S
C206 O201 1.256 . S
C207 O198 1.239 . S
C207 O199 1.256 . S
O208 Mn190 2.221 . S
O208 Mn192 2.290 . S
O208 C202 1.278 . S
O209 Mn192 2.251 . S
O209 C202 1.241 . S
O210 Mn211 2.163 . S
O210 C224 1.244 . S
Mn211 O210 2.163 . S
Mn211 O214 2.160 . S
Mn211 O215 2.221 . S
Mn211 O217 2.163 . S
Mn211 O219 2.160 . S
Mn211 O229 2.221 . S
O212 Mn213 2.087 . S
O212 C224 1.256 . S
Mn213 O212 2.087 . S
Mn213 O220 2.089 . S
Mn213 O229 2.290 . S
Mn213 O230 2.251 . S
O214 Mn211 2.160 . S
O214 C225 1.239 . S
O215 Mn211 2.221 . S
O215 Mn216 2.290 . S
O215 C226 1.278 . S
Mn216 O215 2.290 . S
Mn216 O218 2.089 . S
Mn216 O221 2.251 . S
Mn216 O222 2.087 . S
O217 Mn211 2.163 . S
O217 C227 1.244 . S
O218 Mn216 2.089 . S
O218 C225 1.256 . S
O219 Mn211 2.160 . S
O219 C228 1.239 . S
O220 Mn213 2.089 . S
O220 C228 1.256 . S
O221 Mn216 2.251 . S
O221 C226 1.241 . S
O222 Mn216 2.087 . S
O222 C227 1.256 . S
C223 O229 1.278 . S
C223 O230 1.241 . S
C224 O210 1.244 . S
C224 O212 1.256 . S
C225 O214 1.239 . S
C225 O218 1.256 . S
C226 O215 1.278 . S
C226 O221 1.241 . S
C227 O217 1.244 . S
C227 O222 1.256 . S
C228 O219 1.239 . S
C228 O220 1.256 . S
O229 Mn211 2.221 . S
O229 Mn213 2.290 . S
O229 C223 1.278 . S
O230 Mn213 2.251 . S
O230 C223 1.241 . S
O231 Mn232 2.163 . S
O231 C245 1.244 . S
Mn232 O231 2.163 . S
Mn232 O235 2.160 1_455 S
Mn232 O236 2.221 . S
Mn232 O238 2.163 . S
Mn232 O240 2.160 1_455 S
Mn232 O250 2.221 1_455 S
O233 Mn234 2.087 1_455 S
O233 C245 1.256 . S
Mn234 O233 2.087 1_655 S
Mn234 O241 2.089 . S
Mn234 O250 2.290 . S
Mn234 O251 2.251 . S
O235 Mn232 2.160 1_655 S
O235 C246 1.239 . S
O236 Mn232 2.221 . S
O236 Mn237 2.290 . S
O236 C247 1.278 . S
Mn237 O236 2.290 . S
Mn237 O239 2.089 1_455 S
Mn237 O242 2.251 . S
Mn237 O243 2.087 . S
O238 Mn232 2.163 . S
O238 C248 1.244 . S
O239 Mn237 2.089 1_655 S
O239 C246 1.256 . S
O240 Mn232 2.160 1_655 S
O240 C249 1.239 . S
O241 Mn234 2.089 . S
O241 C249 1.256 . S
O242 Mn237 2.251 . S
O242 C247 1.241 . S
O243 Mn237 2.087 . S
O243 C248 1.256 . S
C244 O250 1.278 . S
C244 O251 1.241 . S
C245 O231 1.244 . S
C245 O233 1.256 . S
C246 O235 1.239 . S
C246 O239 1.256 . S
C247 O236 1.278 . S
C247 O242 1.241 . S
C248 O238 1.244 . S
C248 O243 1.256 . S
C249 O240 1.239 . S
C249 O241 1.256 . S
O250 Mn232 2.221 1_655 S
O250 Mn234 2.290 . S
O250 C244 1.278 . S
O251 Mn234 2.251 . S
O251 C244 1.241 . S
O252 Mn253 2.163 . S
O252 C266 1.244 . S
Mn253 O252 2.163 . S
Mn253 O256 2.160 . S
Mn253 O257 2.221 . S
Mn253 O259 2.163 . S
Mn253 O261 2.160 . S
Mn253 O271 2.221 . S
O254 Mn255 2.087 . S
O254 C266 1.256 . S
Mn255 O254 2.087 . S
Mn255 O262 2.089 . S
Mn255 O271 2.290 . S
Mn255 O272 2.251 . S
O256 Mn253 2.160 . S
O256 C267 1.239 . S
O257 Mn253 2.221 . S
O257 Mn258 2.290 . S
O257 C268 1.278 . S
Mn258 O257 2.290 . S
Mn258 O260 2.089 . S
Mn258 O263 2.251 . S
Mn258 O264 2.087 . S
O259 Mn253 2.163 . S
O259 C269 1.244 . S
O260 Mn258 2.089 . S
O260 C267 1.256 . S
O261 Mn253 2.160 . S
O261 C270 1.239 . S
O262 Mn255 2.089 . S
O262 C270 1.256 . S
O263 Mn258 2.251 . S
O263 C268 1.241 . S
O264 Mn258 2.087 . S
O264 C269 1.256 . S
C265 O271 1.278 . S
C265 O272 1.241 . S
C266 O252 1.244 . S
C266 O254 1.256 . S
C267 O256 1.239 . S
C267 O260 1.256 . S
C268 O257 1.278 . S
C268 O263 1.241 . S
C269 O259 1.244 . S
C269 O264 1.256 . S
C270 O261 1.239 . S
C270 O262 1.256 . S
O271 Mn253 2.221 . S
O271 Mn255 2.290 . S
O271 C265 1.278 . S
O272 Mn255 2.251 . S
O272 C265 1.241 . S
O273 Mn274 2.163 . S
O273 C287 1.244 . S
Mn274 O273 2.163 . S
Mn274 O277 2.160 1_554 S
Mn274 O278 2.221 . S
Mn274 O280 2.163 . S
Mn274 O282 2.160 1_554 S
Mn274 O292 2.221 1_554 S
O275 Mn276 2.087 1_554 S
O275 C287 1.256 . S
Mn276 O275 2.087 1_556 S
Mn276 O283 2.089 . S
Mn276 O292 2.290 . S
Mn276 O293 2.251 . S
O277 Mn274 2.160 1_556 S
O277 C288 1.239 . S
O278 Mn274 2.221 . S
O278 Mn279 2.290 . S
O278 C289 1.278 . S
Mn279 O278 2.290 . S
Mn279 O281 2.089 1_554 S
Mn279 O284 2.251 . S
Mn279 O285 2.087 . S
O280 Mn274 2.163 . S
O280 C290 1.244 . S
O281 Mn279 2.089 1_556 S
O281 C288 1.256 . S
O282 Mn274 2.160 1_556 S
O282 C291 1.239 . S
O283 Mn276 2.089 . S
O283 C291 1.256 . S
O284 Mn279 2.251 . S
O284 C289 1.241 . S
O285 Mn279 2.087 . S
O285 C290 1.256 . S
C286 O292 1.278 . S
C286 O293 1.241 . S
C287 O273 1.244 . S
C287 O275 1.256 . S
C288 O277 1.239 . S
C288 O281 1.256 . S
C289 O278 1.278 . S
C289 O284 1.241 . S
C290 O280 1.244 . S
C290 O285 1.256 . S
C291 O282 1.239 . S
C291 O283 1.256 . S
O292 Mn274 2.221 1_556 S
O292 Mn276 2.290 . S
O292 C286 1.278 . S
O293 Mn276 2.251 . S
O293 C286 1.241 . S
O294 Mn295 2.163 . S
O294 C308 1.244 . S
Mn295 O294 2.163 . S
Mn295 O298 2.160 1_545 S
Mn295 O299 2.221 1_545 S
Mn295 O301 2.163 1_545 S
Mn295 O303 2.160 . S
Mn295 O313 2.221 . S
O296 Mn297 2.087 . S
O296 C308 1.256 . S
Mn297 O296 2.087 . S
Mn297 O304 2.089 . S
Mn297 O313 2.290 . S
Mn297 O314 2.251 . S
O298 Mn295 2.160 1_565 S
O298 C309 1.239 . S
O299 Mn295 2.221 1_565 S
O299 Mn300 2.290 . S
O299 C310 1.278 . S
Mn300 O299 2.290 . S
Mn300 O302 2.089 . S
Mn300 O305 2.251 . S
Mn300 O306 2.087 . S
O301 Mn295 2.163 1_565 S
O301 C311 1.244 . S
O302 Mn300 2.089 . S
O302 C309 1.256 . S
O303 Mn295 2.160 . S
O303 C312 1.239 . S
O304 Mn297 2.089 . S
O304 C312 1.256 . S
O305 Mn300 2.251 . S
O305 C310 1.241 . S
O306 Mn300 2.087 . S
O306 C311 1.256 . S
C307 O313 1.278 . S
C307 O314 1.241 . S
C308 O294 1.244 . S
C308 O296 1.256 . S
C309 O298 1.239 . S
C309 O302 1.256 . S
C310 O299 1.278 . S
C310 O305 1.241 . S
C311 O301 1.244 . S
C311 O306 1.256 . S
C312 O303 1.239 . S
C312 O304 1.256 . S
O313 Mn295 2.221 . S
O313 Mn297 2.290 . S
O313 C307 1.278 . S
O314 Mn297 2.251 . S
O314 C307 1.241 . S
O315 Mn316 2.163 1_556 S
O315 C329 1.244 . S
Mn316 O315 2.163 1_554 S
Mn316 O319 2.160 . S
Mn316 O320 2.221 1_554 S
Mn316 O322 2.166 . S
Mn316 O324 2.160 . S
Mn316 O334 2.221 . S
O317 Mn318 2.087 1_556 S
O317 C329 1.256 . S
Mn318 O317 2.087 1_554 S
Mn318 O325 2.089 . S
Mn318 O334 2.290 . S
Mn318 O335 2.251 . S
O319 Mn316 2.160 . S
O319 C330 1.239 . S
O320 Mn316 2.221 1_556 S
O320 Mn321 2.290 . S
O320 C331 1.278 . S
Mn321 O320 2.290 . S
Mn321 O323 2.089 1_556 S
Mn321 O326 2.251 . S
Mn321 O327 2.087 . S
O322 Mn316 2.166 . S
O322 C332 1.237 1_554 S
O323 Mn321 2.089 1_554 S
O323 C330 1.256 . S
O324 Mn316 2.160 . S
O324 C333 1.239 . S
O325 Mn318 2.089 . S
O325 C333 1.256 . S
O326 Mn321 2.251 . S
O326 C331 1.241 . S
O327 Mn321 2.087 . S
O327 C332 1.256 . S
C328 O334 1.278 . S
C328 O335 1.241 . S
C329 O315 1.244 . S
C329 O317 1.256 . S
C330 O319 1.239 . S
C330 O323 1.256 . S
C331 O320 1.278 . S
C331 O326 1.241 . S
C332 O322 1.237 1_556 S
C332 O327 1.256 . S
C333 O324 1.239 . S
C333 O325 1.256 . S
O334 Mn316 2.221 . S
O334 Mn318 2.290 . S
O334 C328 1.278 . S
O335 Mn318 2.251 . S
O335 C328 1.241 . S
H336 C342 0.930 . S
H337 C346 0.930 . S
H338 C351 0.929 . S
H339 C349 0.929 . S
H340 C344 0.929 . S
H341 C350 0.929 . S
C342 H336 0.930 . S
C342 C343 1.367 . S
C342 C350 1.378 . S
C343 C342 1.367 . S
C343 C351 1.433 1_655 S
C344 H340 0.929 . S
C344 C346 1.378 . S
C344 C348 1.350 1_455 S
C345 C348 1.463 . S
C345 C350 1.350 . S
C345 N353 1.427 1_655 S
C346 H337 0.930 . S
C346 C344 1.378 . S
C346 C347 1.367 1_455 S
C347 C346 1.367 1_655 S
C347 C349 1.433 . S
C348 C344 1.350 1_655 S
C348 C345 1.463 . S
C348 N352 1.427 . S
C349 H339 0.929 . S
C349 C347 1.433 . S
C349 N352 1.384 . S
C350 H341 0.929 . S
C350 C342 1.378 . S
C350 C345 1.350 . S
C351 H338 0.929 . S
C351 C343 1.433 1_455 S
C351 N353 1.384 . S
N352 C348 1.427 . S
N352 C349 1.384 . S
N353 C345 1.427 1_455 S
N353 C351 1.384 . S
H354 C360 0.930 . S
H355 C364 0.930 . S
H356 C369 0.929 . S
H357 C367 0.929 . S
H358 C362 0.929 . S
H359 C368 0.929 . S
C360 H354 0.930 . S
C360 C361 1.367 . S
C360 C368 1.378 . S
C361 C360 1.367 . S
C361 C369 1.433 . S
C362 H358 0.929 . S
C362 C364 1.378 . S
C362 C366 1.350 . S
C363 C366 1.463 . S
C363 C368 1.350 . S
C363 N371 1.427 . S
C364 H355 0.930 . S
C364 C362 1.378 . S
C364 C365 1.367 . S
C365 C364 1.367 . S
C365 C367 1.433 . S
C366 C362 1.350 . S
C366 C363 1.463 . S
C366 N370 1.427 . S
C367 H357 0.929 . S
C367 C365 1.433 . S
C367 N370 1.384 . S
C368 H359 0.929 . S
C368 C360 1.378 . S
C368 C363 1.350 . S
C369 H356 0.929 . S
C369 C361 1.433 . S
C369 N371 1.384 . S
N370 C366 1.427 . S
N370 C367 1.384 . S
N371 C363 1.427 . S
N371 C369 1.384 . S
H372 C378 0.930 . S
H373 C382 0.930 . S
H374 C387 0.929 . S
H375 C385 0.929 . S
H376 C380 0.929 . S
H377 C386 0.929 . S
C378 H372 0.930 . S
C378 C379 1.367 . S
C378 C386 1.378 . S
C379 C378 1.367 . S
C379 C387 1.433 . S
C380 H376 0.929 . S
C380 C382 1.378 . S
C380 C384 1.350 . S
C381 C384 1.463 . S
C381 C386 1.350 . S
C381 N389 1.427 . S
C382 H373 0.930 . S
C382 C380 1.378 . S
C382 C383 1.367 . S
C383 C382 1.367 . S
C383 C385 1.433 . S
C384 C380 1.350 . S
C384 C381 1.463 . S
C384 N388 1.427 . S
C385 H375 0.929 . S
C385 C383 1.433 . S
C385 N388 1.384 . S
C386 H377 0.929 . S
C386 C378 1.378 . S
C386 C381 1.350 . S
C387 H374 0.929 . S
C387 C379 1.433 . S
C387 N389 1.384 . S
N388 C384 1.427 . S
N388 C385 1.384 . S
N389 C381 1.427 . S
N389 C387 1.384 . S
H390 C396 0.930 . S
H391 C400 0.930 1_565 S
H392 C405 0.929 . S
H393 C403 0.929 . S
H394 C398 0.953 . S
H395 C404 0.929 . S
C396 H390 0.930 . S
C396 C397 1.367 . S
C396 C404 1.378 . S
C397 C396 1.367 . S
C397 C405 1.433 1_545 S
C398 H394 0.953 . S
C398 C400 1.378 1_565 S
C398 C402 1.326 1_565 S
C399 C402 1.463 . S
C399 C404 1.350 . S
C399 N407 1.427 1_545 S
C400 H391 0.930 1_545 S
C400 C398 1.378 1_545 S
C400 C401 1.368 . S
C401 C400 1.368 . S
C401 C403 1.433 . S
C402 C398 1.326 1_545 S
C402 C399 1.463 . S
C402 N406 1.427 . S
C403 H393 0.929 . S
C403 C401 1.433 . S
C403 N406 1.384 . S
C404 H395 0.929 . S
C404 C396 1.378 . S
C404 C399 1.350 . S
C405 H392 0.929 . S
C405 C397 1.433 1_565 S
C405 N407 1.384 . S
N406 C402 1.427 . S
N406 C403 1.384 . S
N407 C399 1.427 1_565 S
N407 C405 1.384 . S
H408 C414 0.930 . S
H409 C418 0.930 . S
H410 C423 0.929 . S
H411 C421 0.929 . S
H412 C416 0.929 . S
H413 C422 0.929 . S
C414 H408 0.930 . S
C414 C415 1.367 . S
C414 C422 1.378 . S
C415 C414 1.367 . S
C415 C423 1.433 1_565 S
C416 H412 0.929 . S
C416 C418 1.378 . S
C416 C420 1.350 1_545 S
C417 C420 1.463 . S
C417 C422 1.350 . S
C417 N425 1.427 1_565 S
C418 H409 0.930 . S
C418 C416 1.378 . S
C418 C419 1.367 1_545 S
C419 C418 1.367 1_565 S
C419 C421 1.433 . S
C420 C416 1.350 1_565 S
C420 C417 1.463 . S
C420 N424 1.427 . S
C421 H411 0.929 . S
C421 C419 1.433 . S
C421 N424 1.384 . S
C422 H413 0.929 . S
C422 C414 1.378 . S
C422 C417 1.350 . S
C423 H410 0.929 . S
C423 C415 1.433 1_545 S
C423 N425 1.384 . S
N424 C420 1.427 . S
N424 C421 1.384 . S
N425 C417 1.427 1_545 S
N425 C423 1.384 . S
H426 C432 0.930 . S
H427 C436 0.930 1_655 S
H428 C441 0.929 . S
H429 C439 0.929 . S
H430 C434 0.929 1_655 S
H431 C440 0.929 . S
C432 H426 0.930 . S
C432 C433 1.367 . S
C432 C440 1.378 . S
C433 C432 1.367 . S
C433 C441 1.433 . S
C434 H430 0.929 1_455 S
C434 C436 1.378 . S
C434 C438 1.350 . S
C435 C438 1.463 . S
C435 C440 1.350 . S
C435 N443 1.427 . S
C436 H427 0.930 1_455 S
C436 C434 1.378 . S
C436 C437 1.367 . S
C437 C436 1.367 . S
C437 C439 1.433 . S
C438 C434 1.350 . S
C438 C435 1.463 . S
C438 N442 1.427 . S
C439 H429 0.929 . S
C439 C437 1.433 . S
C439 N442 1.384 . S
C440 H431 0.929 . S
C440 C432 1.378 . S
C440 C435 1.350 . S
C441 H428 0.929 . S
C441 C433 1.433 . S
C441 N443 1.384 . S
N442 C438 1.427 . S
N442 C439 1.384 . S
N443 C435 1.427 . S
N443 C441 1.384 . S
H444 C450 0.930 . S
H445 C454 0.930 . S
H446 C459 0.929 . S
H447 C457 0.929 . S
H448 C452 0.929 . S
H449 C458 0.929 . S
C450 H444 0.930 . S
C450 C451 1.367 . S
C450 C458 1.378 . S
C451 C450 1.367 . S
C451 C459 1.433 . S
C452 H448 0.929 . S
C452 C454 1.378 . S
C452 C456 1.350 . S
C453 C456 1.463 . S
C453 C458 1.350 . S
C453 N461 1.427 . S
C454 H445 0.930 . S
C454 C452 1.378 . S
C454 C455 1.367 . S
C455 C454 1.367 . S
C455 C457 1.433 . S
C456 C452 1.350 . S
C456 C453 1.463 . S
C456 N460 1.427 . S
C457 H447 0.929 . S
C457 C455 1.433 . S
C457 N460 1.384 . S
C458 H449 0.929 . S
C458 C450 1.378 . S
C458 C453 1.350 . S
C459 H446 0.929 . S
C459 C451 1.433 . S
C459 N461 1.384 . S
N460 C456 1.427 . S
N460 C457 1.384 . S
N461 C453 1.427 . S
N461 C459 1.384 . S
H462 C468 0.930 . S
H463 C472 0.930 . S
H464 C477 0.929 . S
H465 C475 0.929 . S
H466 C470 0.929 . S
H467 C476 0.929 . S
C468 H462 0.930 . S
C468 C469 1.367 . S
C468 C476 1.378 . S
C469 C468 1.367 . S
C469 C477 1.433 . S
C470 H466 0.929 . S
C470 C472 1.378 . S
C470 C474 1.350 . S
C471 C474 1.463 . S
C471 C476 1.350 . S
C471 N479 1.427 . S
C472 H463 0.930 . S
C472 C470 1.378 . S
C472 C473 1.367 . S
C473 C472 1.367 . S
C473 C475 1.433 . S
C474 C470 1.350 . S
C474 C471 1.463 . S
C474 N478 1.427 . S
C475 H465 0.929 . S
C475 C473 1.433 . S
C475 N478 1.384 . S
C476 H467 0.929 . S
C476 C468 1.378 . S
C476 C471 1.350 . S
C477 H464 0.929 . S
C477 C469 1.433 . S
C477 N479 1.384 . S
N478 C474 1.427 . S
N478 C475 1.384 . S
N479 C471 1.427 . S
N479 C477 1.384 . S
H480 C486 0.930 . S
H481 C490 0.930 . S
H482 C495 0.929 . S
H483 C493 0.929 . S
H484 C488 0.929 . S
H485 C494 0.929 . S
C486 H480 0.930 . S
C486 C487 1.367 . S
C486 C494 1.378 . S
C487 C486 1.367 . S
C487 C495 1.433 . S
C488 H484 0.929 . S
C488 C490 1.378 . S
C488 C492 1.350 . S
C489 C492 1.463 . S
C489 C494 1.350 . S
C489 N497 1.427 . S
C490 H481 0.930 . S
C490 C488 1.378 . S
C490 C491 1.367 . S
C491 C490 1.367 . S
C491 C493 1.433 . S
C492 C488 1.350 . S
C492 C489 1.463 . S
C492 N496 1.427 . S
C493 H483 0.929 . S
C493 C491 1.433 . S
C493 N496 1.384 . S
C494 H485 0.929 . S
C494 C486 1.378 . S
C494 C489 1.350 . S
C495 H482 0.929 . S
C495 C487 1.433 . S
C495 N497 1.384 . S
N496 C492 1.427 . S
N496 C493 1.384 . S
N497 C489 1.427 . S
N497 C495 1.384 . S
H498 C504 0.930 . S
H499 C508 0.930 . S
H500 C513 0.929 . S
H501 C511 0.929 . S
H502 C506 0.929 . S
H503 C512 0.929 . S
C504 H498 0.930 . S
C504 C505 1.367 . S
C504 C512 1.378 . S
C505 C504 1.367 . S
C505 C513 1.433 . S
C506 H502 0.929 . S
C506 C508 1.378 . S
C506 C510 1.350 . S
C507 C510 1.463 . S
C507 C512 1.350 . S
C507 N515 1.427 . S
C508 H499 0.930 . S
C508 C506 1.378 . S
C508 C509 1.367 . S
C509 C508 1.367 . S
C509 C511 1.433 . S
C510 C506 1.350 . S
C510 C507 1.463 . S
C510 N514 1.427 . S
C511 H501 0.929 . S
C511 C509 1.433 . S
C511 N514 1.384 . S
C512 H503 0.929 . S
C512 C504 1.378 . S
C512 C507 1.350 . S
C513 H500 0.929 . S
C513 C505 1.433 . S
C513 N515 1.384 . S
N514 C510 1.427 . S
N514 C511 1.384 . S
N515 C507 1.427 . S
N515 C513 1.384 . S
H516 C522 0.930 . S
H517 C526 0.930 . S
H518 C531 0.929 . S
H519 C529 0.929 . S
H520 C524 0.929 . S
H521 C530 0.929 . S
C522 H516 0.930 . S
C522 C523 1.367 . S
C522 C530 1.378 . S
C523 C522 1.367 . S
C523 C531 1.433 1_565 S
C524 H520 0.929 . S
C524 C526 1.378 . S
C524 C528 1.350 1_545 S
C525 C528 1.463 . S
C525 C530 1.350 . S
C525 N533 1.427 1_565 S
C526 H517 0.930 . S
C526 C524 1.378 . S
C526 C527 1.367 1_545 S
C527 C526 1.367 1_565 S
C527 C529 1.433 . S
C528 C524 1.350 1_565 S
C528 C525 1.463 . S
C528 N532 1.427 . S
C529 H519 0.929 . S
C529 C527 1.433 . S
C529 N532 1.384 . S
C530 H521 0.929 . S
C530 C522 1.378 . S
C530 C525 1.350 . S
C531 H518 0.929 . S
C531 C523 1.433 1_545 S
C531 N533 1.384 . S
N532 C528 1.427 . S
N532 C529 1.384 . S
N533 C525 1.427 1_545 S
N533 C531 1.384 . S
H534 C540 0.930 . S
H535 C544 0.930 1_655 S
H536 C549 0.929 1_655 S
H537 C547 0.929 . S
H538 C542 0.929 1_655 S
H539 C548 0.929 . S
C540 H534 0.930 . S
C540 C541 1.367 . S
C540 C548 1.378 . S
C541 C540 1.367 . S
C541 C549 1.433 . S
C542 H538 0.929 1_455 S
C542 C544 1.378 . S
C542 C546 1.350 . S
C543 C546 1.463 . S
C543 C548 1.350 . S
C543 N551 1.427 . S
C544 H535 0.930 1_455 S
C544 C542 1.378 . S
C544 C545 1.367 . S
C545 C544 1.367 . S
C545 C547 1.433 . S
C546 C542 1.350 . S
C546 C543 1.463 . S
C546 N550 1.427 . S
C547 H537 0.929 . S
C547 C545 1.433 . S
C547 N550 1.384 . S
C548 H539 0.929 . S
C548 C540 1.378 . S
C548 C543 1.350 . S
C549 H536 0.929 1_455 S
C549 C541 1.433 . S
C549 N551 1.384 . S
N550 C546 1.427 . S
N550 C547 1.384 . S
N551 C543 1.427 . S
N551 C549 1.384 . S
H552 C558 0.930 . S
H553 C562 0.930 . S
H554 C567 0.929 . S
H555 C565 0.929 . S
H556 C560 0.929 . S
H557 C566 0.929 . S
C558 H552 0.930 . S
C558 C559 1.367 1_554 S
C558 C566 1.378 . S
C559 C558 1.367 1_556 S
C559 C567 1.433 . S
C560 H556 0.929 . S
C560 C562 1.378 . S
C560 C564 1.350 . S
C561 C564 1.463 . S
C561 C566 1.350 1_556 S
C561 N569 1.427 . S
C562 H553 0.930 . S
C562 C560 1.378 . S
C562 C563 1.367 . S
C563 C562 1.367 . S
C563 C565 1.433 1_556 S
C564 C560 1.350 . S
C564 C561 1.463 . S
C564 N568 1.427 1_556 S
C565 H555 0.929 . S
C565 C563 1.433 1_554 S
C565 N568 1.384 . S
C566 H557 0.929 . S
C566 C558 1.378 . S
C566 C561 1.350 1_554 S
C567 H554 0.929 . S
C567 C559 1.433 . S
C567 N569 1.384 . S
N568 C564 1.427 1_554 S
N568 C565 1.384 . S
N569 C561 1.427 . S
N569 C567 1.384 . S
H570 C576 0.930 . S
H571 C580 0.930 . S
H572 C585 0.929 . S
H573 C583 0.929 . S
H574 C578 0.929 . S
H575 C584 0.929 . S
C576 H570 0.930 . S
C576 C577 1.367 . S
C576 C584 1.378 . S
C577 C576 1.367 . S
C577 C585 1.433 . S
C578 H574 0.929 . S
C578 C580 1.378 . S
C578 C582 1.350 . S
C579 C582 1.463 . S
C579 C584 1.350 . S
C579 N587 1.427 . S
C580 H571 0.930 . S
C580 C578 1.378 . S
C580 C581 1.367 . S
C581 C580 1.367 . S
C581 C583 1.433 . S
C582 C578 1.350 . S
C582 C579 1.463 . S
C582 N586 1.427 . S
C583 H573 0.929 . S
C583 C581 1.433 . S
C583 N586 1.384 . S
C584 H575 0.929 . S
C584 C576 1.378 . S
C584 C579 1.350 . S
C585 H572 0.929 . S
C585 C577 1.433 . S
C585 N587 1.384 . S
N586 C582 1.427 . S
N586 C583 1.384 . S
N587 C579 1.427 . S
N587 C585 1.384 . S
H588 C594 0.930 . S
H589 C598 0.930 . S
H590 C603 0.929 . S
H591 C601 0.929 . S
H592 C596 0.929 . S
H593 C602 0.929 . S
C594 H588 0.930 . S
C594 C595 1.367 . S
C594 C602 1.378 . S
C595 C594 1.367 . S
C595 C603 1.433 . S
C596 H592 0.929 . S
C596 C598 1.378 . S
C596 C600 1.350 . S
C597 C600 1.463 . S
C597 C602 1.350 . S
C597 N605 1.427 . S
C598 H589 0.930 . S
C598 C596 1.378 . S
C598 C599 1.367 . S
C599 C598 1.367 . S
C599 C601 1.433 . S
C600 C596 1.350 . S
C600 C597 1.463 . S
C600 N604 1.427 . S
C601 H591 0.929 . S
C601 C599 1.433 . S
C601 N604 1.384 . S
C602 H593 0.929 . S
C602 C594 1.378 . S
C602 C597 1.350 . S
C603 H590 0.929 . S
C603 C595 1.433 . S
C603 N605 1.384 . S
N604 C600 1.427 . S
N604 C601 1.384 . S
N605 C597 1.427 . S
N605 C603 1.384 . S
H606 C612 0.930 . S
H607 C616 0.930 . S
H608 C621 0.929 . S
H609 C619 0.929 . S
H610 C614 0.929 . S
H611 C620 0.929 . S
C612 H606 0.930 . S
C612 C613 1.367 . S
C612 C620 1.378 . S
C613 C612 1.367 . S
C613 C621 1.433 . S
C614 H610 0.929 . S
C614 C616 1.378 . S
C614 C618 1.350 . S
C615 C618 1.463 . S
C615 C620 1.350 . S
C615 N623 1.427 . S
C616 H607 0.930 . S
C616 C614 1.378 . S
C616 C617 1.367 . S
C617 C616 1.367 . S
C617 C619 1.433 . S
C618 C614 1.350 . S
C618 C615 1.463 . S
C618 N622 1.427 . S
C619 H609 0.929 . S
C619 C617 1.433 . S
C619 N622 1.384 . S
C620 H611 0.929 . S
C620 C612 1.378 . S
C620 C615 1.350 . S
C621 H608 0.929 . S
C621 C613 1.433 . S
C621 N623 1.384 . S
N622 C618 1.427 . S
N622 C619 1.384 . S
N623 C615 1.427 . S
N623 C621 1.384 . S
H624 C630 0.930 . S
H625 C634 0.930 . S
H626 C639 0.929 . S
H627 C637 0.929 . S
H628 C632 0.929 . S
H629 C638 0.929 . S
C630 H624 0.930 . S
C630 C631 1.367 . S
C630 C638 1.378 . S
C631 C630 1.367 . S
C631 C639 1.433 . S
C632 H628 0.929 . S
C632 C634 1.378 . S
C632 C636 1.350 . S
C633 C636 1.463 . S
C633 C638 1.350 . S
C633 N641 1.427 . S
C634 H625 0.930 . S
C634 C632 1.378 . S
C634 C635 1.367 . S
C635 C634 1.367 . S
C635 C637 1.433 . S
C636 C632 1.350 . S
C636 C633 1.463 . S
C636 N640 1.427 . S
C637 H627 0.929 . S
C637 C635 1.433 . S
C637 N640 1.384 . S
C638 H629 0.929 . S
C638 C630 1.378 . S
C638 C633 1.350 . S
C639 H626 0.929 . S
C639 C631 1.433 . S
C639 N641 1.384 . S
N640 C636 1.427 . S
N640 C637 1.384 . S
N641 C633 1.427 . S
N641 C639 1.384 . S
H642 C648 0.930 . S
H643 C652 0.930 . S
H644 C657 0.929 . S
H645 C655 0.929 . S
H646 C650 0.929 . S
H647 C656 0.929 . S
C648 H642 0.930 . S
C648 C649 1.367 . S
C648 C656 1.378 . S
C649 C648 1.367 . S
C649 C657 1.433 . S
C650 H646 0.929 . S
C650 C652 1.378 . S
C650 C654 1.350 . S
C651 C654 1.463 . S
C651 C656 1.350 . S
C651 N659 1.427 . S
C652 H643 0.930 . S
C652 C650 1.378 . S
C652 C653 1.367 . S
C653 C652 1.367 . S
C653 C655 1.433 . S
C654 C650 1.350 . S
C654 C651 1.463 . S
C654 N658 1.427 . S
C655 H645 0.929 . S
C655 C653 1.433 . S
C655 N658 1.384 . S
C656 H647 0.929 . S
C656 C648 1.378 . S
C656 C651 1.350 . S
C657 H644 0.929 . S
C657 C649 1.433 . S
C657 N659 1.384 . S
N658 C654 1.427 . S
N658 C655 1.384 . S
N659 C651 1.427 . S
N659 C657 1.384 . S
H660 C666 0.930 . S
H661 C670 0.930 . S
H662 C675 0.929 . S
H663 C673 0.929 . S
H664 C668 0.929 . S
H665 C674 0.929 . S
C666 H660 0.930 . S
C666 C667 1.367 . S
C666 C674 1.378 . S
C667 C666 1.367 . S
C667 C675 1.433 . S
C668 H664 0.929 . S
C668 C670 1.378 . S
C668 C672 1.350 . S
C669 C672 1.463 . S
C669 C674 1.350 . S
C669 N677 1.427 . S
C670 H661 0.930 . S
C670 C668 1.378 . S
C670 C671 1.367 . S
C671 C670 1.367 . S
C671 C673 1.433 . S
C672 C668 1.350 . S
C672 C669 1.463 . S
C672 N676 1.427 . S
C673 H663 0.929 . S
C673 C671 1.433 . S
C673 N676 1.384 . S
C674 H665 0.929 . S
C674 C666 1.378 . S
C674 C669 1.350 . S
C675 H662 0.929 . S
C675 C667 1.433 . S
C675 N677 1.384 . S
N676 C672 1.427 . S
N676 C673 1.384 . S
N677 C669 1.427 . S
N677 C675 1.384 . S
H678 C684 0.930 . S
H679 C688 0.930 . S
H680 C693 0.929 . S
H681 C691 0.929 . S
H682 C686 0.929 . S
H683 C692 0.929 . S
C684 H678 0.930 . S
C684 C685 1.367 . S
C684 C692 1.378 . S
C685 C684 1.367 . S
C685 C693 1.433 . S
C686 H682 0.929 . S
C686 C688 1.378 . S
C686 C690 1.350 . S
C687 C690 1.463 . S
C687 C692 1.350 . S
C687 N695 1.427 . S
C688 H679 0.930 . S
C688 C686 1.378 . S
C688 C689 1.367 . S
C689 C688 1.367 . S
C689 C691 1.433 . S
C690 C686 1.350 . S
C690 C687 1.463 . S
C690 N694 1.427 . S
C691 H681 0.929 . S
C691 C689 1.433 . S
C691 N694 1.384 . S
C692 H683 0.929 . S
C692 C684 1.378 . S
C692 C687 1.350 . S
C693 H680 0.929 . S
C693 C685 1.433 . S
C693 N695 1.384 . S
N694 C690 1.427 . S
N694 C691 1.384 . S
N695 C687 1.427 . S
N695 C693 1.384 . S
H696 C702 0.930 . S
H697 C706 0.930 . S
H698 C711 0.929 . S
H699 C709 0.929 . S
H700 C704 0.929 . S
H701 C710 0.929 . S
C702 H696 0.930 . S
C702 C703 1.367 . S
C702 C710 1.378 . S
C703 C702 1.367 . S
C703 C711 1.433 . S
C704 H700 0.929 . S
C704 C706 1.378 . S
C704 C708 1.350 . S
C705 C708 1.463 . S
C705 C710 1.350 . S
C705 N713 1.427 . S
C706 H697 0.930 . S
C706 C704 1.378 . S
C706 C707 1.367 . S
C707 C706 1.367 . S
C707 C709 1.433 . S
C708 C704 1.350 . S
C708 C705 1.463 . S
C708 N712 1.427 . S
C709 H699 0.929 . S
C709 C707 1.433 . S
C709 N712 1.384 . S
C710 H701 0.929 . S
C710 C702 1.378 . S
C710 C705 1.350 . S
C711 H698 0.929 . S
C711 C703 1.433 . S
C711 N713 1.384 . S
N712 C708 1.427 . S
N712 C709 1.384 . S
N713 C705 1.427 . S
N713 C711 1.384 . S
H714 C720 0.930 . S
H715 C724 0.930 . S
H716 C729 0.929 . S
H717 C727 0.929 . S
H718 C722 0.929 . S
H719 C728 0.929 . S
C720 H714 0.930 . S
C720 C721 1.367 . S
C720 C728 1.378 . S
C721 C720 1.367 . S
C721 C729 1.433 1_655 S
C722 H718 0.929 . S
C722 C724 1.378 . S
C722 C726 1.350 1_455 S
C723 C726 1.463 . S
C723 C728 1.350 . S
C723 N731 1.427 1_655 S
C724 H715 0.930 . S
C724 C722 1.378 . S
C724 C725 1.367 1_455 S
C725 C724 1.367 1_655 S
C725 C727 1.433 . S
C726 C722 1.350 1_655 S
C726 C723 1.463 . S
C726 N730 1.427 . S
C727 H717 0.929 . S
C727 C725 1.433 . S
C727 N730 1.384 . S
C728 H719 0.929 . S
C728 C720 1.378 . S
C728 C723 1.350 . S
C729 H716 0.929 . S
C729 C721 1.433 1_455 S
C729 N731 1.384 . S
N730 C726 1.427 . S
N730 C727 1.384 . S
N731 C723 1.427 1_455 S
N731 C729 1.384 . S
H732 C738 0.930 . S
H733 C742 0.930 . S
H734 C747 0.929 . S
H735 C745 0.929 . S
H736 C740 0.929 . S
H737 C746 0.929 . S
C738 H732 0.930 . S
C738 C739 1.367 . S
C738 C746 1.378 . S
C739 C738 1.367 . S
C739 C747 1.433 . S
C740 H736 0.929 . S
C740 C742 1.378 . S
C740 C744 1.350 . S
C741 C744 1.463 . S
C741 C746 1.350 . S
C741 N749 1.427 . S
C742 H733 0.930 . S
C742 C740 1.378 . S
C742 C743 1.367 . S
C743 C742 1.367 . S
C743 C745 1.433 . S
C744 C740 1.350 . S
C744 C741 1.463 . S
C744 N748 1.427 . S
C745 H735 0.929 . S
C745 C743 1.433 . S
C745 N748 1.384 . S
C746 H737 0.929 . S
C746 C738 1.378 . S
C746 C741 1.350 . S
C747 H734 0.929 . S
C747 C739 1.433 . S
C747 N749 1.384 . S
N748 C744 1.427 . S
N748 C745 1.384 . S
N749 C741 1.427 . S
N749 C747 1.384 . S
H750 C756 0.930 . S
H751 C760 0.930 . S
H752 C765 0.929 . S
H753 C763 0.929 . S
H754 C758 0.929 . S
H755 C764 0.929 . S
C756 H750 0.930 . S
C756 C757 1.367 . S
C756 C764 1.378 . S
C757 C756 1.367 . S
C757 C765 1.433 . S
C758 H754 0.929 . S
C758 C760 1.378 . S
C758 C762 1.350 . S
C759 C762 1.463 . S
C759 C764 1.350 . S
C759 N767 1.427 . S
C760 H751 0.930 . S
C760 C758 1.378 . S
C760 C761 1.367 . S
C761 C760 1.367 . S
C761 C763 1.433 . S
C762 C758 1.350 . S
C762 C759 1.463 . S
C762 N766 1.427 . S
C763 H753 0.929 . S
C763 C761 1.433 . S
C763 N766 1.384 . S
C764 H755 0.929 . S
C764 C756 1.378 . S
C764 C759 1.350 . S
C765 H752 0.929 . S
C765 C757 1.433 . S
C765 N767 1.384 . S
N766 C762 1.427 . S
N766 C763 1.384 . S
N767 C759 1.427 . S
N767 C765 1.384 . S
H768 C774 0.930 . S
H769 C778 0.930 . S
H770 C783 0.929 . S
H771 C781 0.929 . S
H772 C776 0.929 . S
H773 C782 0.929 . S
C774 H768 0.930 . S
C774 C775 1.367 . S
C774 C782 1.378 . S
C775 C774 1.367 . S
C775 C783 1.433 . S
C776 H772 0.929 . S
C776 C778 1.378 . S
C776 C780 1.350 . S
C777 C780 1.463 . S
C777 C782 1.350 . S
C777 N785 1.427 . S
C778 H769 0.930 . S
C778 C776 1.378 . S
C778 C779 1.367 . S
C779 C778 1.367 . S
C779 C781 1.433 . S
C780 C776 1.350 . S
C780 C777 1.463 . S
C780 N784 1.427 . S
C781 H771 0.929 . S
C781 C779 1.433 . S
C781 N784 1.384 . S
C782 H773 0.929 . S
C782 C774 1.378 . S
C782 C777 1.350 . S
C783 H770 0.929 . S
C783 C775 1.433 . S
C783 N785 1.384 . S
N784 C780 1.427 . S
N784 C781 1.384 . S
N785 C777 1.427 . S
N785 C783 1.384 . S
H786 C792 0.930 . S
H787 C796 0.930 . S
H788 C801 0.929 . S
H789 C799 0.929 . S
H790 C794 0.929 . S
H791 C800 0.929 . S
C792 H786 0.930 . S
C792 C793 1.367 . S
C792 C800 1.378 . S
C793 C792 1.367 . S
C793 C801 1.433 . S
C794 H790 0.929 . S
C794 C796 1.378 . S
C794 C798 1.350 . S
C795 C798 1.463 . S
C795 C800 1.350 . S
C795 N803 1.427 . S
C796 H787 0.930 . S
C796 C794 1.378 . S
C796 C797 1.367 . S
C797 C796 1.367 . S
C797 C799 1.433 . S
C798 C794 1.350 . S
C798 C795 1.463 . S
C798 N802 1.427 . S
C799 H789 0.929 . S
C799 C797 1.433 . S
C799 N802 1.384 . S
C800 H791 0.929 . S
C800 C792 1.378 . S
C800 C795 1.350 . S
C801 H788 0.929 . S
C801 C793 1.433 . S
C801 N803 1.384 . S
N802 C798 1.427 . S
N802 C799 1.384 . S
N803 C795 1.427 . S
N803 C801 1.384 . S
H804 C810 0.930 1_565 S
H805 C814 0.930 . S
H806 C819 0.929 . S
H807 C817 0.929 . S
H808 C812 0.929 . S
H809 C818 0.916 1_565 S
C810 H804 0.930 1_545 S
C810 C811 1.367 . S
C810 C818 1.378 . S
C811 C810 1.367 . S
C811 C819 1.433 . S
C812 H808 0.929 . S
C812 C814 1.378 . S
C812 C816 1.350 . S
C813 C816 1.463 . S
C813 C818 1.363 . S
C813 N821 1.427 . S
C814 H805 0.930 . S
C814 C812 1.378 . S
C814 C815 1.367 . S
C815 C814 1.367 . S
C815 C817 1.433 1_545 S
C816 C812 1.350 . S
C816 C813 1.463 . S
C816 N820 1.427 1_545 S
C817 H807 0.929 . S
C817 C815 1.433 1_565 S
C817 N820 1.384 . S
C818 H809 0.916 1_545 S
C818 C810 1.378 . S
C818 C813 1.363 . S
C819 H806 0.929 . S
C819 C811 1.433 . S
C819 N821 1.384 . S
N820 C816 1.427 1_565 S
N820 C817 1.384 . S
N821 C813 1.427 . S
N821 C819 1.384 . S
H822 C828 0.930 . S
H823 C832 0.930 . S
H824 C837 0.929 . S
H825 C835 0.929 . S
H826 C830 0.929 . S
H827 C836 0.929 . S
C828 H822 0.930 . S
C828 C829 1.367 . S
C828 C836 1.378 . S
C829 C828 1.367 . S
C829 C837 1.433 . S
C830 H826 0.929 . S
C830 C832 1.378 . S
C830 C834 1.350 . S
C831 C834 1.463 . S
C831 C836 1.350 . S
C831 N839 1.427 . S
C832 H823 0.930 . S
C832 C830 1.378 . S
C832 C833 1.367 . S
C833 C832 1.367 . S
C833 C835 1.433 . S
C834 C830 1.350 . S
C834 C831 1.463 . S
C834 N838 1.427 . S
C835 H825 0.929 . S
C835 C833 1.433 . S
C835 N838 1.384 . S
C836 H827 0.929 . S
C836 C828 1.378 . S
C836 C831 1.350 . S
C837 H824 0.929 . S
C837 C829 1.433 . S
C837 N839 1.384 . S
N838 C834 1.427 . S
N838 C835 1.384 . S
N839 C831 1.427 . S
N839 C837 1.384 . S
H840 C846 0.930 . S
H841 C850 0.930 . S
H842 C855 0.929 . S
H843 C853 0.929 . S
H844 C848 0.929 . S
H845 C854 0.929 . S
C846 H840 0.930 . S
C846 C847 1.367 . S
C846 C854 1.378 . S
C847 C846 1.367 . S
C847 C855 1.433 . S
C848 H844 0.929 . S
C848 C850 1.378 . S
C848 C852 1.350 . S
C849 C852 1.463 . S
C849 C854 1.350 . S
C849 N857 1.427 . S
C850 H841 0.930 . S
C850 C848 1.378 . S
C850 C851 1.367 . S
C851 C850 1.367 . S
C851 C853 1.433 . S
C852 C848 1.350 . S
C852 C849 1.463 . S
C852 N856 1.427 . S
C853 H843 0.929 . S
C853 C851 1.433 . S
C853 N856 1.384 . S
C854 H845 0.929 . S
C854 C846 1.378 . S
C854 C849 1.350 . S
C855 H842 0.929 . S
C855 C847 1.433 . S
C855 N857 1.384 . S
N856 C852 1.427 . S
N856 C853 1.384 . S
N857 C849 1.427 . S
N857 C855 1.384 . S
H858 C864 0.930 . S
H859 C868 0.930 . S
H860 C873 0.929 . S
H861 C871 0.929 . S
H862 C866 0.929 . S
H863 C872 0.929 . S
C864 H858 0.930 . S
C864 C865 1.367 . S
C864 C872 1.378 . S
C865 C864 1.367 . S
C865 C873 1.433 . S
C866 H862 0.929 . S
C866 C868 1.378 . S
C866 C870 1.350 . S
C867 C870 1.463 . S
C867 C872 1.350 . S
C867 N875 1.427 . S
C868 H859 0.930 . S
C868 C866 1.378 . S
C868 C869 1.367 . S
C869 C868 1.367 . S
C869 C871 1.433 . S
C870 C866 1.350 . S
C870 C867 1.463 . S
C870 N874 1.427 . S
C871 H861 0.929 . S
C871 C869 1.433 . S
C871 N874 1.384 . S
C872 H863 0.929 . S
C872 C864 1.378 . S
C872 C867 1.350 . S
C873 H860 0.929 . S
C873 C865 1.433 . S
C873 N875 1.384 . S
N874 C870 1.427 . S
N874 C871 1.384 . S
N875 C867 1.427 . S
N875 C873 1.384 . S
H876 C882 0.930 . S
H877 C886 0.930 . S
H878 C891 0.929 . S
H879 C889 0.929 . S
H880 C884 0.929 . S
H881 C890 0.929 . S
C882 H876 0.930 . S
C882 C883 1.367 . S
C882 C890 1.378 . S
C883 C882 1.367 . S
C883 C891 1.433 . S
C884 H880 0.929 . S
C884 C886 1.378 . S
C884 C888 1.350 . S
C885 C888 1.463 . S
C885 C890 1.350 . S
C885 N893 1.427 . S
C886 H877 0.930 . S
C886 C884 1.378 . S
C886 C887 1.367 . S
C887 C886 1.367 . S
C887 C889 1.433 . S
C888 C884 1.350 . S
C888 C885 1.463 . S
C888 N892 1.427 . S
C889 H879 0.929 . S
C889 C887 1.433 . S
C889 N892 1.384 . S
C890 H881 0.929 . S
C890 C882 1.378 . S
C890 C885 1.350 . S
C891 H878 0.929 . S
C891 C883 1.433 . S
C891 N893 1.384 . S
N892 C888 1.427 . S
N892 C889 1.384 . S
N893 C885 1.427 . S
N893 C891 1.384 . S
H894 C900 0.930 . S
H895 C904 0.930 . S
H896 C909 0.929 . S
H897 C907 0.929 . S
H898 C902 0.929 . S
H899 C908 0.929 . S
C900 H894 0.930 . S
C900 C901 1.367 . S
C900 C908 1.378 . S
C901 C900 1.367 . S
C901 C909 1.433 . S
C902 H898 0.929 . S
C902 C904 1.378 . S
C902 C906 1.350 . S
C903 C906 1.463 . S
C903 C908 1.350 . S
C903 N911 1.427 . S
C904 H895 0.930 . S
C904 C902 1.378 . S
C904 C905 1.367 . S
C905 C904 1.367 . S
C905 C907 1.433 . S
C906 C902 1.350 . S
C906 C903 1.463 . S
C906 N910 1.427 . S
C907 H897 0.929 . S
C907 C905 1.433 . S
C907 N910 1.384 . S
C908 H899 0.929 . S
C908 C900 1.378 . S
C908 C903 1.350 . S
C909 H896 0.929 . S
C909 C901 1.433 . S
C909 N911 1.384 . S
N910 C906 1.427 . S
N910 C907 1.384 . S
N911 C903 1.427 . S
N911 C909 1.384 . S
H912 C918 0.930 . S
H913 C922 0.930 . S
H914 C927 0.929 . S
H915 C925 0.929 . S
H916 C920 0.929 . S
H917 C926 0.929 . S
C918 H912 0.930 . S
C918 C919 1.367 . S
C918 C926 1.378 . S
C919 C918 1.367 . S
C919 C927 1.433 . S
C920 H916 0.929 . S
C920 C922 1.378 . S
C920 C924 1.350 . S
C921 C924 1.463 . S
C921 C926 1.350 . S
C921 N929 1.427 . S
C922 H913 0.930 . S
C922 C920 1.378 . S
C922 C923 1.367 . S
C923 C922 1.367 . S
C923 C925 1.433 . S
C924 C920 1.350 . S
C924 C921 1.463 . S
C924 N928 1.427 . S
C925 H915 0.929 . S
C925 C923 1.433 . S
C925 N928 1.384 . S
C926 H917 0.929 . S
C926 C918 1.378 . S
C926 C921 1.350 . S
C927 H914 0.929 . S
C927 C919 1.433 . S
C927 N929 1.384 . S
N928 C924 1.427 . S
N928 C925 1.384 . S
N929 C921 1.427 . S
N929 C927 1.384 . S
H930 C936 0.930 . S
H931 C940 0.930 . S
H932 C945 0.929 . S
H933 C943 0.929 . S
H934 C938 0.929 . S
H935 C944 0.929 . S
C936 H930 0.930 . S
C936 C937 1.367 . S
C936 C944 1.378 . S
C937 C936 1.367 . S
C937 C945 1.433 . S
C938 H934 0.929 . S
C938 C940 1.378 . S
C938 C942 1.350 . S
C939 C942 1.463 . S
C939 C944 1.350 . S
C939 N947 1.427 . S
C940 H931 0.930 . S
C940 C938 1.378 . S
C940 C941 1.367 . S
C941 C940 1.367 . S
C941 C943 1.433 . S
C942 C938 1.350 . S
C942 C939 1.463 . S
C942 N946 1.427 . S
C943 H933 0.929 . S
C943 C941 1.433 . S
C943 N946 1.384 . S
C944 H935 0.929 . S
C944 C936 1.378 . S
C944 C939 1.350 . S
C945 H932 0.929 . S
C945 C937 1.433 . S
C945 N947 1.384 . S
N946 C942 1.427 . S
N946 C943 1.384 . S
N947 C939 1.427 . S
N947 C945 1.384 . S
H948 C954 0.930 . S
H949 C958 0.930 . S
H950 C963 0.929 . S
H951 C961 0.929 . S
H952 C956 0.929 . S
H953 C962 0.929 . S
C954 H948 0.930 . S
C954 C955 1.367 . S
C954 C962 1.378 . S
C955 C954 1.367 . S
C955 C963 1.433 . S
C956 H952 0.929 . S
C956 C958 1.378 . S
C956 C960 1.350 . S
C957 C960 1.463 . S
C957 C962 1.350 . S
C957 N965 1.427 . S
C958 H949 0.930 . S
C958 C956 1.378 . S
C958 C959 1.367 . S
C959 C958 1.367 . S
C959 C961 1.433 . S
C960 C956 1.350 . S
C960 C957 1.463 . S
C960 N964 1.427 . S
C961 H951 0.929 . S
C961 C959 1.433 . S
C961 N964 1.384 . S
C962 H953 0.929 . S
C962 C954 1.378 . S
C962 C957 1.350 . S
C963 H950 0.929 . S
C963 C955 1.433 . S
C963 N965 1.384 . S
N964 C960 1.427 . S
N964 C961 1.384 . S
N965 C957 1.427 . S
N965 C963 1.384 . S
H966 C972 0.930 . S
H967 C976 0.930 . S
H968 C981 0.929 . S
H969 C979 0.929 . S
H970 C974 0.929 . S
H971 C980 0.929 . S
C972 H966 0.930 . S
C972 C973 1.367 . S
C972 C980 1.378 . S
C973 C972 1.367 . S
C973 C981 1.433 . S
C974 H970 0.929 . S
C974 C976 1.378 . S
C974 C978 1.350 . S
C975 C978 1.463 . S
C975 C980 1.350 . S
C975 N983 1.427 . S
C976 H967 0.930 . S
C976 C974 1.378 . S
C976 C977 1.367 . S
C977 C976 1.367 . S
C977 C979 1.433 . S
C978 C974 1.350 . S
C978 C975 1.463 . S
C978 N982 1.427 . S
C979 H969 0.929 . S
C979 C977 1.433 . S
C979 N982 1.384 . S
C980 H971 0.929 . S
C980 C972 1.378 . S
C980 C975 1.350 . S
C981 H968 0.929 . S
C981 C973 1.433 . S
C981 N983 1.384 . S
N982 C978 1.427 . S
N982 C979 1.384 . S
N983 C975 1.427 . S
N983 C981 1.384 . S
H984 C990 0.930 . S
H985 C994 0.930 . S
H986 C999 0.929 . S
H987 C997 0.929 . S
H988 C992 0.929 . S
H989 C998 0.929 . S
C990 H984 0.930 . S
C990 C991 1.367 . S
C990 C998 1.378 . S
C991 C990 1.367 . S
C991 C999 1.433 . S
C992 H988 0.929 . S
C992 C994 1.378 . S
C992 C996 1.350 . S
C993 C996 1.463 . S
C993 C998 1.350 . S
C993 N1001 1.427 . S
C994 H985 0.930 . S
C994 C992 1.378 . S
C994 C995 1.367 . S
C995 C994 1.367 . S
C995 C997 1.433 . S
C996 C992 1.350 . S
C996 C993 1.463 . S
C996 N1000 1.427 . S
C997 H987 0.929 . S
C997 C995 1.433 . S
C997 N1000 1.384 . S
C998 H989 0.929 . S
C998 C990 1.378 . S
C998 C993 1.350 . S
C999 H986 0.929 . S
C999 C991 1.433 . S
C999 N1001 1.384 . S
N1000 C996 1.427 . S
N1000 C997 1.384 . S
N1001 C993 1.427 . S
N1001 C999 1.384 . S
H1002 C1008 0.930 . S
H1003 C1012 0.938 . S
H1004 C1017 0.929 1_556 S
H1005 C1015 0.929 . S
H1006 C1010 0.924 1_556 S
H1007 C1016 0.929 . S
C1008 H1002 0.930 . S
C1008 C1009 1.367 . S
C1008 C1016 1.378 . S
C1009 C1008 1.367 . S
C1009 C1017 1.433 . S
C1010 H1006 0.924 1_554 S
C1010 C1012 1.378 1_554 S
C1010 C1014 1.355 . S
C1011 C1014 1.463 . S
C1011 C1016 1.350 . S
C1011 N1019 1.427 . S
C1012 H1003 0.938 . S
C1012 C1010 1.378 1_556 S
C1012 C1013 1.359 1_556 S
C1013 C1012 1.359 1_554 S
C1013 C1015 1.433 . S
C1014 C1010 1.355 . S
C1014 C1011 1.463 . S
C1014 N1018 1.427 . S
C1015 H1005 0.929 . S
C1015 C1013 1.433 . S
C1015 N1018 1.384 . S
C1016 H1007 0.929 . S
C1016 C1008 1.378 . S
C1016 C1011 1.350 . S
C1017 H1004 0.929 1_554 S
C1017 C1009 1.433 . S
C1017 N1019 1.384 . S
N1018 C1014 1.427 . S
N1018 C1015 1.384 . S
N1019 C1011 1.427 . S
N1019 C1017 1.384 . S
H1020 C1026 0.930 . S
H1021 C1030 0.930 . S
H1022 C1035 0.929 . S
H1023 C1033 0.929 . S
H1024 C1028 0.929 . S
H1025 C1034 0.929 . S
C1026 H1020 0.930 . S
C1026 C1027 1.367 . S
C1026 C1034 1.378 . S
C1027 C1026 1.367 . S
C1027 C1035 1.433 . S
C1028 H1024 0.929 . S
C1028 C1030 1.378 . S
C1028 C1032 1.350 . S
C1029 C1032 1.463 . S
C1029 C1034 1.350 . S
C1029 N1037 1.427 . S
C1030 H1021 0.930 . S
C1030 C1028 1.378 . S
C1030 C1031 1.367 . S
C1031 C1030 1.367 . S
C1031 C1033 1.433 . S
C1032 C1028 1.350 . S
C1032 C1029 1.463 . S
C1032 N1036 1.427 . S
C1033 H1023 0.929 . S
C1033 C1031 1.433 . S
C1033 N1036 1.384 . S
C1034 H1025 0.929 . S
C1034 C1026 1.378 . S
C1034 C1029 1.350 . S
C1035 H1022 0.929 . S
C1035 C1027 1.433 . S
C1035 N1037 1.384 . S
N1036 C1032 1.427 . S
N1036 C1033 1.384 . S
N1037 C1029 1.427 . S
N1037 C1035 1.384 . S
H1038 C1044 0.930 . S
H1039 C1048 0.930 . S
H1040 C1053 0.929 . S
H1041 C1051 0.929 . S
H1042 C1046 0.929 . S
H1043 C1052 0.929 . S
C1044 H1038 0.930 . S
C1044 C1045 1.367 . S
C1044 C1052 1.378 . S
C1045 C1044 1.367 . S
C1045 C1053 1.433 . S
C1046 H1042 0.929 . S
C1046 C1048 1.378 . S
C1046 C1050 1.350 . S
C1047 C1050 1.463 . S
C1047 C1052 1.350 . S
C1047 N1055 1.427 . S
C1048 H1039 0.930 . S
C1048 C1046 1.378 . S
C1048 C1049 1.367 . S
C1049 C1048 1.367 . S
C1049 C1051 1.433 . S
C1050 C1046 1.350 . S
C1050 C1047 1.463 . S
C1050 N1054 1.427 . S
C1051 H1041 0.929 . S
C1051 C1049 1.433 . S
C1051 N1054 1.384 . S
C1052 H1043 0.929 . S
C1052 C1044 1.378 . S
C1052 C1047 1.350 . S
C1053 H1040 0.929 . S
C1053 C1045 1.433 . S
C1053 N1055 1.384 . S
N1054 C1050 1.427 . S
N1054 C1051 1.384 . S
N1055 C1047 1.427 . S
N1055 C1053 1.384 . S
H1056 C1062 0.930 . S
H1057 C1066 0.930 . S
H1058 C1071 0.929 . S
H1059 C1069 0.929 . S
H1060 C1064 0.929 . S
H1061 C1070 0.929 . S
C1062 H1056 0.930 . S
C1062 C1063 1.367 . S
C1062 C1070 1.378 . S
C1063 C1062 1.367 . S
C1063 C1071 1.433 . S
C1064 H1060 0.929 . S
C1064 C1066 1.378 . S
C1064 C1068 1.350 . S
C1065 C1068 1.463 . S
C1065 C1070 1.350 . S
C1065 N1073 1.427 . S
C1066 H1057 0.930 . S
C1066 C1064 1.378 . S
C1066 C1067 1.367 . S
C1067 C1066 1.367 . S
C1067 C1069 1.433 . S
C1068 C1064 1.350 . S
C1068 C1065 1.463 . S
C1068 N1072 1.427 . S
C1069 H1059 0.929 . S
C1069 C1067 1.433 . S
C1069 N1072 1.384 . S
C1070 H1061 0.929 . S
C1070 C1062 1.378 . S
C1070 C1065 1.350 . S
C1071 H1058 0.929 . S
C1071 C1063 1.433 . S
C1071 N1073 1.384 . S
N1072 C1068 1.427 . S
N1072 C1069 1.384 . S
N1073 C1065 1.427 . S
N1073 C1071 1.384 . S
H1074 C1080 0.930 . S
H1075 C1084 0.930 . S
H1076 C1089 0.929 . S
H1077 C1087 0.929 . S
H1078 C1082 0.929 . S
H1079 C1088 0.929 . S
C1080 H1074 0.930 . S
C1080 C1081 1.367 . S
C1080 C1088 1.378 . S
C1081 C1080 1.367 . S
C1081 C1089 1.433 . S
C1082 H1078 0.929 . S
C1082 C1084 1.378 . S
C1082 C1086 1.350 . S
C1083 C1086 1.463 . S
C1083 C1088 1.350 . S
C1083 N1091 1.427 . S
C1084 H1075 0.930 . S
C1084 C1082 1.378 . S
C1084 C1085 1.367 . S
C1085 C1084 1.367 . S
C1085 C1087 1.433 . S
C1086 C1082 1.350 . S
C1086 C1083 1.463 . S
C1086 N1090 1.427 . S
C1087 H1077 0.929 . S
C1087 C1085 1.433 . S
C1087 N1090 1.384 . S
C1088 H1079 0.929 . S
C1088 C1080 1.378 . S
C1088 C1083 1.350 . S
C1089 H1076 0.929 . S
C1089 C1081 1.433 . S
C1089 N1091 1.384 . S
N1090 C1086 1.427 . S
N1090 C1087 1.384 . S
N1091 C1083 1.427 . S
N1091 C1089 1.384 . S
H1092 C1098 0.930 . S
H1093 C1102 0.930 . S
H1094 C1107 0.929 . S
H1095 C1105 0.929 . S
H1096 C1100 0.929 . S
H1097 C1106 0.929 . S
C1098 H1092 0.930 . S
C1098 C1099 1.367 1_554 S
C1098 C1106 1.378 . S
C1099 C1098 1.367 1_556 S
C1099 C1107 1.433 . S
C1100 H1096 0.929 . S
C1100 C1102 1.378 . S
C1100 C1104 1.350 . S
C1101 C1104 1.463 . S
C1101 C1106 1.350 1_556 S
C1101 N1109 1.427 . S
C1102 H1093 0.930 . S
C1102 C1100 1.378 . S
C1102 C1103 1.367 . S
C1103 C1102 1.367 . S
C1103 C1105 1.433 1_556 S
C1104 C1100 1.350 . S
C1104 C1101 1.463 . S
C1104 N1108 1.427 1_556 S
C1105 H1095 0.929 . S
C1105 C1103 1.433 1_554 S
C1105 N1108 1.384 . S
C1106 H1097 0.929 . S
C1106 C1098 1.378 . S
C1106 C1101 1.350 1_554 S
C1107 H1094 0.929 . S
C1107 C1099 1.433 . S
C1107 N1109 1.384 . S
N1108 C1104 1.427 1_554 S
N1108 C1105 1.384 . S
N1109 C1101 1.427 . S
N1109 C1107 1.384 . S
H1110 C1116 0.930 . S
H1111 C1120 0.930 . S
H1112 C1125 0.929 . S
H1113 C1123 0.929 . S
H1114 C1118 0.929 . S
H1115 C1124 0.929 . S
C1116 H1110 0.930 . S
C1116 C1117 1.367 . S
C1116 C1124 1.378 . S
C1117 C1116 1.367 . S
C1117 C1125 1.433 . S
C1118 H1114 0.929 . S
C1118 C1120 1.378 . S
C1118 C1122 1.350 . S
C1119 C1122 1.463 . S
C1119 C1124 1.350 . S
C1119 N1127 1.427 . S
C1120 H1111 0.930 . S
C1120 C1118 1.378 . S
C1120 C1121 1.367 . S
C1121 C1120 1.367 . S
C1121 C1123 1.433 . S
C1122 C1118 1.350 . S
C1122 C1119 1.463 . S
C1122 N1126 1.427 . S
C1123 H1113 0.929 . S
C1123 C1121 1.433 . S
C1123 N1126 1.384 . S
C1124 H1115 0.929 . S
C1124 C1116 1.378 . S
C1124 C1119 1.350 . S
C1125 H1112 0.929 . S
C1125 C1117 1.433 . S
C1125 N1127 1.384 . S
N1126 C1122 1.427 . S
N1126 C1123 1.384 . S
N1127 C1119 1.427 . S
N1127 C1125 1.384 . S
H1128 C1134 0.930 . S
H1129 C1138 0.930 . S
H1130 C1143 0.929 . S
H1131 C1141 0.929 . S
H1132 C1136 0.929 . S
H1133 C1142 0.929 . S
C1134 H1128 0.930 . S
C1134 C1135 1.367 . S
C1134 C1142 1.378 . S
C1135 C1134 1.367 . S
C1135 C1143 1.433 . S
C1136 H1132 0.929 . S
C1136 C1138 1.378 . S
C1136 C1140 1.350 . S
C1137 C1140 1.463 . S
C1137 C1142 1.350 . S
C1137 N1145 1.427 . S
C1138 H1129 0.930 . S
C1138 C1136 1.378 . S
C1138 C1139 1.367 . S
C1139 C1138 1.367 . S
C1139 C1141 1.433 . S
C1140 C1136 1.350 . S
C1140 C1137 1.463 . S
C1140 N1144 1.427 . S
C1141 H1131 0.929 . S
C1141 C1139 1.433 . S
C1141 N1144 1.384 . S
C1142 H1133 0.929 . S
C1142 C1134 1.378 . S
C1142 C1137 1.350 . S
C1143 H1130 0.929 . S
C1143 C1135 1.433 . S
C1143 N1145 1.384 . S
N1144 C1140 1.427 . S
N1144 C1141 1.384 . S
N1145 C1137 1.427 . S
N1145 C1143 1.384 . S
H1146 C1152 0.930 . S
H1147 C1156 0.930 . S
H1148 C1161 0.929 . S
H1149 C1159 0.929 . S
H1150 C1154 0.929 . S
H1151 C1160 0.929 . S
C1152 H1146 0.930 . S
C1152 C1153 1.367 . S
C1152 C1160 1.378 . S
C1153 C1152 1.367 . S
C1153 C1161 1.433 . S
C1154 H1150 0.929 . S
C1154 C1156 1.378 . S
C1154 C1158 1.350 . S
C1155 C1158 1.463 . S
C1155 C1160 1.350 . S
C1155 N1163 1.427 . S
C1156 H1147 0.930 . S
C1156 C1154 1.378 . S
C1156 C1157 1.367 . S
C1157 C1156 1.367 . S
C1157 C1159 1.433 . S
C1158 C1154 1.350 . S
C1158 C1155 1.463 . S
C1158 N1162 1.427 . S
C1159 H1149 0.929 . S
C1159 C1157 1.433 . S
C1159 N1162 1.384 . S
C1160 H1151 0.929 . S
C1160 C1152 1.378 . S
C1160 C1155 1.350 . S
C1161 H1148 0.929 . S
C1161 C1153 1.433 . S
C1161 N1163 1.384 . S
N1162 C1158 1.427 . S
N1162 C1159 1.384 . S
N1163 C1155 1.427 . S
N1163 C1161 1.384 . S
H1164 C1170 0.930 . S
H1165 C1174 0.930 . S
H1166 C1179 0.929 . S
H1167 C1177 0.929 . S
H1168 C1172 0.929 . S
H1169 C1178 0.929 . S
C1170 H1164 0.930 . S
C1170 C1171 1.367 . S
C1170 C1178 1.378 . S
C1171 C1170 1.367 . S
C1171 C1179 1.433 . S
C1172 H1168 0.929 . S
C1172 C1174 1.378 . S
C1172 C1176 1.350 . S
C1173 C1176 1.463 . S
C1173 C1178 1.350 . S
C1173 N1181 1.427 . S
C1174 H1165 0.930 . S
C1174 C1172 1.378 . S
C1174 C1175 1.367 . S
C1175 C1174 1.367 . S
C1175 C1177 1.433 . S
C1176 C1172 1.350 . S
C1176 C1173 1.463 . S
C1176 N1180 1.427 . S
C1177 H1167 0.929 . S
C1177 C1175 1.433 . S
C1177 N1180 1.384 . S
C1178 H1169 0.929 . S
C1178 C1170 1.378 . S
C1178 C1173 1.350 . S
C1179 H1166 0.929 . S
C1179 C1171 1.433 . S
C1179 N1181 1.384 . S
N1180 C1176 1.427 . S
N1180 C1177 1.384 . S
N1181 C1173 1.427 . S
N1181 C1179 1.384 . S
H1182 C1188 0.930 . S
H1183 C1192 0.930 . S
H1184 C1197 0.929 . S
H1185 C1195 0.929 . S
H1186 C1190 0.929 . S
H1187 C1196 0.929 . S
C1188 H1182 0.930 . S
C1188 C1189 1.367 . S
C1188 C1196 1.378 . S
C1189 C1188 1.367 . S
C1189 C1197 1.433 . S
C1190 H1186 0.929 . S
C1190 C1192 1.378 . S
C1190 C1194 1.350 . S
C1191 C1194 1.463 . S
C1191 C1196 1.350 . S
C1191 N1199 1.427 . S
C1192 H1183 0.930 . S
C1192 C1190 1.378 . S
C1192 C1193 1.367 . S
C1193 C1192 1.367 . S
C1193 C1195 1.433 . S
C1194 C1190 1.350 . S
C1194 C1191 1.463 . S
C1194 N1198 1.427 . S
C1195 H1185 0.929 . S
C1195 C1193 1.433 . S
C1195 N1198 1.384 . S
C1196 H1187 0.929 . S
C1196 C1188 1.378 . S
C1196 C1191 1.350 . S
C1197 H1184 0.929 . S
C1197 C1189 1.433 . S
C1197 N1199 1.384 . S
N1198 C1194 1.427 . S
N1198 C1195 1.384 . S
N1199 C1191 1.427 . S
N1199 C1197 1.384 . S
C343 C13 0.841 . S
C347 C39 0.875 . S
C361 C55 0.826 . S
C365 C36 0.823 . S
C379 C78 0.891 . S
C383 C56 0.885 . S
C397 C14 0.837 . S
C401 C81 0.839 . S
C415 C15 0.935 . S
C419 C206 0.933 . S
C433 C162 0.911 . S
C437 C38 0.901 . S
C451 C58 0.971 . S
C455 C224 0.995 . S
C469 C77 0.928 . S
C473 C288 0.920 . S
C487 C184 0.921 . S
C491 C35 0.972 . S
C505 C266 0.905 . S
C509 C57 0.877 . S
C523 C310 0.934 . S
C527 C80 0.994 . S
C541 C16 0.918 . S
C545 C248 0.962 . S
C559 C17 0.860 . S
C563 C186 0.868 . S
C577 C265 0.894 . S
C581 C100 0.857 . S
C595 C122 0.961 . S
C599 C311 0.963 . S
C613 C247 0.906 . S
C617 C139 0.873 . S
C631 C59 0.953 . S
C635 C164 0.952 . S
C649 C205 0.962 . S
C653 C97 0.933 . S
C667 C142 0.959 . S
C671 C223 0.960 . S
C685 C121 0.949 . S
C689 C245 1.008 . S
C703 C203 0.886 . S
C707 C120 0.897 . S
C721 C249 0.901 . S
C725 C161 0.894 . S
C739 C118 0.826 . S
C743 C99 0.819 . S
C757 C204 0.853 . S
C761 C182 0.841 . S
C775 C286 0.827 . S
C779 C246 0.860 . S
C793 C141 0.896 . S
C797 C119 0.885 . S
C811 C207 0.807 . S
C815 C307 0.783 . S
C829 C290 0.857 . S
C833 C18 0.874 . S
C847 C60 0.771 . S
C851 C312 0.764 . S
C865 C268 0.938 . S
C869 C34 0.959 . S
C883 C165 0.763 . S
C887 C123 0.758 . S
C901 C76 0.903 . S
C905 C226 0.882 . S
C919 C267 0.829 . S
C923 C287 0.857 . S
C937 C160 0.790 . S
C941 C270 0.821 . S
C955 C143 0.983 . S
C959 C163 0.938 . S
C973 C98 0.976 . S
C977 C289 0.920 . S
C991 C269 0.937 . S
C995 C330 0.931 . S
C1009 C333 0.872 . S
C1013 C185 0.864 . S
C1027 C37 0.859 . S
C1031 C202 0.894 . S
C1045 C183 0.926 . S
C1049 C140 0.922 . S
C1063 C181 0.863 . S
C1067 C225 0.866 . S
C1081 C329 0.846 . S
C1085 C144 0.828 . S
C1099 C291 0.862 . S
C1103 C332 0.857 . S
C1117 C244 0.943 . S
C1121 C79 0.978 . S
C1135 C228 0.880 . S
C1139 C308 0.906 . S
C1153 C227 0.973 . S
C1157 C331 0.914 . S
C1171 C101 0.898 . S
C1175 C309 0.909 . S
C1189 C328 0.844 . S
C1193 C102 0.877 . S
