# Generated by pormake.
# Topology vmg, (6)-cn, num edge types: 1
# Building blocks:
#     Node 0, Type 0, BuildingBlock: IZENUY_clean_sbu_0, # of connection points: 6
#     Node 1, Type 0, BuildingBlock: IZENUY_clean_sbu_0, # of connection points: 6
#     Node 2, Type 0, BuildingBlock: IZENUY_clean_sbu_0, # of connection points: 6
#     Node 3, Type 0, BuildingBlock: IZENUY_clean_sbu_0, # of connection points: 6
#     Node 4, Type 0, BuildingBlock: IZENUY_clean_sbu_0, # of connection points: 6
#     Node 5, Type 0, BuildingBlock: IZENUY_clean_sbu_0, # of connection points: 6
#     Node 6, Type 0, BuildingBlock: IZENUY_clean_sbu_0, # of connection points: 6
#     Node 7, Type 0, BuildingBlock: IZENUY_clean_sbu_0, # of connection points: 6
#     Edge 8, Type (0, 0), BuildingBlock: OJICUG_clean_linker_0, # of connection points: 2
#     Edge 9, Type (0, 0), BuildingBlock: OJICUG_clean_linker_0, # of connection points: 2
#     Edge 10, Type (0, 0), BuildingBlock: OJICUG_clean_linker_0, # of connection points: 2
#     Edge 11, Type (0, 0), BuildingBlock: OJICUG_clean_linker_0, # of connection points: 2
#     Edge 12, Type (0, 0), BuildingBlock: OJICUG_clean_linker_0, # of connection points: 2
#     Edge 13, Type (0, 0), BuildingBlock: OJICUG_clean_linker_0, # of connection points: 2
#     Edge 14, Type (0, 0), BuildingBlock: OJICUG_clean_linker_0, # of connection points: 2
#     Edge 15, Type (0, 0), BuildingBlock: OJICUG_clean_linker_0, # of connection points: 2
#     Edge 16, Type (0, 0), BuildingBlock: OJICUG_clean_linker_0, # of connection points: 2
#     Edge 17, Type (0, 0), BuildingBlock: OJICUG_clean_linker_0, # of connection points: 2
#     Edge 18, Type (0, 0), BuildingBlock: OJICUG_clean_linker_0, # of connection points: 2
#     Edge 19, Type (0, 0), BuildingBlock: OJICUG_clean_linker_0, # of connection points: 2
#     Edge 20, Type (0, 0), BuildingBlock: OJICUG_clean_linker_0, # of connection points: 2
#     Edge 21, Type (0, 0), BuildingBlock: OJICUG_clean_linker_0, # of connection points: 2
#     Edge 22, Type (0, 0), BuildingBlock: OJICUG_clean_linker_0, # of connection points: 2
#     Edge 23, Type (0, 0), BuildingBlock: OJICUG_clean_linker_0, # of connection points: 2
#     Edge 24, Type (0, 0), BuildingBlock: OJICUG_clean_linker_0, # of connection points: 2
#     Edge 25, Type (0, 0), BuildingBlock: OJICUG_clean_linker_0, # of connection points: 2
#     Edge 26, Type (0, 0), BuildingBlock: OJICUG_clean_linker_0, # of connection points: 2
#     Edge 27, Type (0, 0), BuildingBlock: OJICUG_clean_linker_0, # of connection points: 2
#     Edge 28, Type (0, 0), BuildingBlock: OJICUG_clean_linker_0, # of connection points: 2
#     Edge 29, Type (0, 0), BuildingBlock: OJICUG_clean_linker_0, # of connection points: 2
#     Edge 30, Type (0, 0), BuildingBlock: OJICUG_clean_linker_0, # of connection points: 2
#     Edge 31, Type (0, 0), BuildingBlock: OJICUG_clean_linker_0, # of connection points: 2
# Relax obj value: 0.254
# Max RMSD: 0.238
# Mean RMSD: 0.238
data_MOF--net-vmg--node1-IZENUY_clean_sbu_0--edge1-OJICUG_clean_linker_0
_symmetry_space_group_name_H-M    P1
_symmetry_Int_Tables_number       1
_symmetry_cell_setting            triclinic
loop_
_symmetry_equiv_pos_as_xyz
'x, y, z'
_cell_length_a     20.614636
_cell_length_b     32.821522
_cell_length_c     19.583283
_cell_angle_alpha  90.00167
_cell_angle_beta   99.361825
_cell_angle_gamma 89.997465
loop_
_atom_site_label
_atom_site_type_symbol
_atom_site_fract_x
_atom_site_fract_y
_atom_site_fract_z
_atom_type_partial_charge
Fe0 Fe 0.26497 0.38862 0.21472 0.0
Fe1 Fe 0.16922 0.40768 0.08258 0.0
O2 O 0.23216 0.42311 0.14905 0.0
Fe3 Fe 0.25976 0.47406 0.15069 0.0
O4 O 0.23086 0.48266 0.23031 0.0
O5 O 0.27706 0.42847 0.28429 0.0
O6 O 0.18541 0.38024 0.23965 0.0
C7 C 0.13369 0.36995 0.20031 0.0
C8 C 0.37662 0.42928 0.20194 0.0
O9 O 0.13175 0.3703 0.13524 0.0
C10 C 0.24805 0.46221 0.01485 0.0
O11 O 0.25716 0.34351 0.15463 0.0
O12 O 0.22098 0.37047 0.05243 0.0
O13 O 0.34408 0.46233 0.19523 0.0
O14 O 0.34718 0.39548 0.19571 0.0
C15 C 0.12246 0.48146 0.10239 0.0
O16 O 0.19491 0.4428 0.01752 0.0
O17 O 0.28882 0.4678 0.06933 0.0
C18 C 0.24782 0.34155 0.08831 0.0
O19 O 0.11426 0.44413 0.11044 0.0
O20 O 0.1804 0.49552 0.10716 0.0
C21 C 0.24951 0.46332 0.28521 0.0
Fe22 Fe 0.77087 0.47405 0.37211 0.0
Fe23 Fe 0.76566 0.3886 0.30809 0.0
O24 O 0.79847 0.42309 0.37376 0.0
Fe25 Fe 0.86141 0.40767 0.44024 0.0
O26 O 0.91638 0.44412 0.41239 0.0
O27 O 0.85023 0.49551 0.41565 0.0
O28 O 0.79978 0.48264 0.2925 0.0
C29 C 0.78113 0.4633 0.2376 0.0
C30 C 0.78257 0.46221 0.50795 0.0
O31 O 0.75358 0.42845 0.23852 0.0
C32 C 0.78281 0.34154 0.43451 0.0
O33 O 0.68655 0.46232 0.32757 0.0
O34 O 0.68345 0.39547 0.3271 0.0
O35 O 0.83571 0.44279 0.5053 0.0
O36 O 0.74181 0.4678 0.45347 0.0
C37 C 0.89695 0.36993 0.32251 0.0
O38 O 0.77347 0.3435 0.36819 0.0
O39 O 0.80965 0.37046 0.47039 0.0
C40 C 0.65402 0.42927 0.32086 0.0
O41 O 0.84523 0.38022 0.28317 0.0
O42 O 0.89889 0.37028 0.38759 0.0
C43 C 0.90817 0.48145 0.42043 0.0
Fe44 Fe 0.77086 0.56084 0.87212 0.0
Fe45 Fe 0.76564 0.64629 0.8081 0.0
O46 O 0.79845 0.6118 0.87377 0.0
Fe47 Fe 0.8614 0.62723 0.94024 0.0
O48 O 0.91636 0.59078 0.91238 0.0
O49 O 0.85022 0.53939 0.91564 0.0
O50 O 0.79976 0.55225 0.7925 0.0
C51 C 0.78111 0.5716 0.7376 0.0
C52 C 0.78257 0.57269 1.00796 0.0
O53 O 0.75356 0.60645 0.73852 0.0
C54 C 0.78279 0.69335 0.93452 0.0
O55 O 0.68654 0.57258 0.82758 0.0
O56 O 0.68344 0.63943 0.82711 0.0
O57 O 0.83571 0.59211 1.0053 0.0
O58 O 0.7418 0.5671 0.95348 0.0
C59 C 0.89693 0.66497 0.82251 0.0
O60 O 0.77346 0.6914 0.8682 0.0
O61 O 0.80964 0.66444 0.97039 0.0
C62 C 0.654 0.60563 0.82087 0.0
O63 O 0.8452 0.65468 0.78317 0.0
O64 O 0.89887 0.66462 0.88759 0.0
C65 C 0.90816 0.55345 0.92042 0.0
Fe66 Fe 0.26495 0.6463 0.71473 0.0
Fe67 Fe 0.16921 0.62724 0.58258 0.0
O68 O 0.23215 0.61181 0.64905 0.0
Fe69 Fe 0.25975 0.56086 0.6507 0.0
O70 O 0.23084 0.55226 0.73031 0.0
O71 O 0.27704 0.60646 0.7843 0.0
O72 O 0.18539 0.65469 0.73965 0.0
C73 C 0.13367 0.66498 0.70031 0.0
C74 C 0.3766 0.60564 0.70196 0.0
O75 O 0.13173 0.66463 0.63524 0.0
C76 C 0.24805 0.57271 0.51486 0.0
O77 O 0.25714 0.69141 0.65463 0.0
O78 O 0.22097 0.66445 0.55244 0.0
O79 O 0.34407 0.57259 0.69524 0.0
O80 O 0.34717 0.63943 0.69572 0.0
C81 C 0.12245 0.55346 0.60238 0.0
O82 O 0.19491 0.59212 0.51752 0.0
O83 O 0.28881 0.56711 0.56934 0.0
C84 C 0.24781 0.69337 0.58831 0.0
O85 O 0.11424 0.59079 0.61043 0.0
O86 O 0.18039 0.5394 0.60716 0.0
C87 C 0.24949 0.57161 0.78522 0.0
Fe88 Fe 0.76496 0.88862 0.21472 0.0
Fe89 Fe 0.66922 0.90767 0.08258 0.0
O90 O 0.73216 0.9231 0.14905 0.0
Fe91 Fe 0.75976 0.97406 0.15069 0.0
O92 O 0.73085 0.98266 0.2303 0.0
O93 O 0.77705 0.92847 0.28429 0.0
O94 O 0.6854 0.88024 0.23965 0.0
C95 C 0.63368 0.86994 0.20031 0.0
C96 C 0.87661 0.92928 0.20195 0.0
O97 O 0.63174 0.87029 0.13524 0.0
C98 C 0.74805 0.96221 0.01485 0.0
O99 O 0.75716 0.84351 0.15463 0.0
O100 O 0.72098 0.87046 0.05243 0.0
O101 O 0.84408 0.96233 0.19523 0.0
O102 O 0.84718 0.89548 0.19571 0.0
C103 C 0.62246 0.98146 0.10238 0.0
O104 O 0.69491 0.94279 0.01751 0.0
O105 O 0.78881 0.9678 0.06933 0.0
C106 C 0.74782 0.84155 0.08831 0.0
O107 O 0.61425 0.94413 0.11043 0.0
O108 O 0.68039 0.99551 0.10715 0.0
C109 C 0.7495 0.96332 0.28521 0.0
Fe110 Fe 0.27086 0.97406 0.37212 0.0
Fe111 Fe 0.26566 0.88861 0.3081 0.0
O112 O 0.29846 0.9231 0.37377 0.0
Fe113 Fe 0.3614 0.90767 0.44024 0.0
O114 O 0.41637 0.94413 0.41239 0.0
O115 O 0.35021 0.99551 0.41566 0.0
O116 O 0.29977 0.98265 0.29251 0.0
C117 C 0.28112 0.96331 0.23761 0.0
C118 C 0.28256 0.96221 0.50796 0.0
O119 O 0.25357 0.92846 0.23853 0.0
C120 C 0.28281 0.84155 0.43451 0.0
O121 O 0.18654 0.96232 0.32758 0.0
O122 O 0.18345 0.89548 0.32711 0.0
O123 O 0.3357 0.94279 0.5053 0.0
O124 O 0.24179 0.9678 0.45348 0.0
C125 C 0.39695 0.86994 0.32251 0.0
O126 O 0.27347 0.8435 0.3682 0.0
O127 O 0.30965 0.87046 0.47039 0.0
C128 C 0.15401 0.92927 0.32087 0.0
O129 O 0.34522 0.88023 0.28317 0.0
O130 O 0.39888 0.87029 0.38759 0.0
C131 C 0.40815 0.98146 0.42044 0.0
Fe132 Fe 0.27085 0.06085 0.87213 0.0
Fe133 Fe 0.26564 0.14629 0.8081 0.0
O134 O 0.29844 0.11181 0.87377 0.0
Fe135 Fe 0.36139 0.12723 0.94024 0.0
O136 O 0.41635 0.09078 0.91238 0.0
O137 O 0.35021 0.03939 0.91566 0.0
O138 O 0.29975 0.05226 0.79251 0.0
C139 C 0.2811 0.0716 0.73761 0.0
C140 C 0.28256 0.0727 1.00797 0.0
O141 O 0.25355 0.10645 0.73853 0.0
C142 C 0.28278 0.19336 0.93452 0.0
O143 O 0.18653 0.07258 0.82759 0.0
O144 O 0.18343 0.13943 0.82712 0.0
O145 O 0.3357 0.09211 1.0053 0.0
O146 O 0.24179 0.06711 0.95349 0.0
C147 C 0.39692 0.16497 0.82251 0.0
O148 O 0.27345 0.1914 0.8682 0.0
O149 O 0.30963 0.16444 0.97039 0.0
C150 C 0.15399 0.10563 0.82088 0.0
O151 O 0.3452 0.15468 0.78317 0.0
O152 O 0.39886 0.16462 0.88759 0.0
C153 C 0.40815 0.05345 0.92043 0.0
Fe154 Fe 0.76495 0.1463 0.71473 0.0
Fe155 Fe 0.6692 0.12724 0.58259 0.0
O156 O 0.73214 0.11181 0.64906 0.0
Fe157 Fe 0.75974 0.06085 0.65072 0.0
O158 O 0.73083 0.05227 0.73033 0.0
O159 O 0.77703 0.10646 0.78431 0.0
O160 O 0.68538 0.15469 0.73966 0.0
C161 C 0.63366 0.16498 0.70032 0.0
C162 C 0.87659 0.10564 0.70196 0.0
O163 O 0.63172 0.16463 0.63524 0.0
C164 C 0.74804 0.0727 0.51487 0.0
O165 O 0.75714 0.19141 0.65463 0.0
O166 O 0.72096 0.16445 0.55244 0.0
O167 O 0.84406 0.07259 0.69526 0.0
O168 O 0.84716 0.13943 0.69572 0.0
C169 C 0.62245 0.05346 0.6024 0.0
O170 O 0.6949 0.09212 0.51753 0.0
O171 O 0.7888 0.0671 0.56936 0.0
C172 C 0.7478 0.19336 0.58831 0.0
O173 O 0.61424 0.09079 0.61044 0.0
O174 O 0.68038 0.0394 0.60718 0.0
C175 C 0.74948 0.07161 0.78523 0.0
C176 C 0.54851 0.46671 0.27685 0.0
C177 C 0.58245 0.42982 0.29276 0.0
H178 H 0.45733 0.49565 0.23499 0.0
C179 C 0.54832 0.39302 0.27693 0.0
H180 H 0.5733 0.49564 0.28781 0.0
C181 C 0.48232 0.39302 0.24587 0.0
C182 C 0.44818 0.42982 0.23004 0.0
H183 H 0.57271 0.36397 0.28791 0.0
H184 H 0.45792 0.36397 0.23489 0.0
C185 C 0.48212 0.46672 0.24595 0.0
C186 C 0.5483 0.64189 0.77695 0.0
C187 C 0.58244 0.60509 0.79278 0.0
H188 H 0.4579 0.67094 0.73492 0.0
C189 C 0.5485 0.56819 0.77686 0.0
H190 H 0.5727 0.67094 0.78794 0.0
C191 C 0.48211 0.56819 0.74597 0.0
C192 C 0.44817 0.60509 0.73006 0.0
H193 H 0.57329 0.53926 0.78782 0.0
H194 H 0.45732 0.53927 0.735 0.0
C195 C 0.4823 0.64189 0.7459 0.0
C196 C 0.0485 0.96672 0.27684 0.0
C197 C 0.08244 0.92982 0.29277 0.0
H198 H 0.95733 0.99564 0.23498 0.0
C199 C 0.04831 0.89302 0.27694 0.0
H200 H 0.0733 0.99564 0.28779 0.0
C201 C 0.98231 0.89302 0.24589 0.0
C202 C 0.94818 0.92982 0.23004 0.0
H203 H 0.0727 0.86397 0.28793 0.0
H204 H 0.95791 0.86397 0.23491 0.0
C205 C 0.98212 0.96672 0.24594 0.0
C206 C 0.04829 0.14189 0.77694 0.0
C207 C 0.08243 0.10509 0.79279 0.0
H208 H 0.9579 0.17094 0.7349 0.0
C209 C 0.04849 0.06819 0.77688 0.0
H210 H 0.07269 0.17094 0.78792 0.0
C211 C 0.9821 0.06819 0.74598 0.0
C212 C 0.94816 0.10509 0.73006 0.0
H213 H 0.07327 0.03927 0.78784 0.0
H214 H 0.95731 0.03927 0.73503 0.0
C215 C 0.98229 0.14189 0.74589 0.0
C216 C 0.24984 0.30396 0.97664 0.0
C217 C 0.25914 0.30362 0.04992 0.0
H218 H 0.2489 0.26992 0.88275 0.0
C219 C 0.27481 0.2666 0.08412 0.0
H220 H 0.2376 0.33192 0.94809 0.0
C221 C 0.28077 0.23096 0.04618 0.0
C222 C 0.27147 0.23129 0.97291 0.0
H223 H 0.28171 0.265 0.14008 0.0
H224 H 0.29301 0.20299 0.07474 0.0
C225 C 0.2558 0.26832 0.93871 0.0
C226 C 0.78078 0.30395 0.54618 0.0
C227 C 0.77149 0.30361 0.4729 0.0
H228 H 0.78171 0.26992 0.64008 0.0
C229 C 0.7558 0.26659 0.43871 0.0
H230 H 0.79303 0.33192 0.57473 0.0
C231 C 0.74982 0.23095 0.47664 0.0
C232 C 0.75912 0.23129 0.54992 0.0
H233 H 0.74889 0.26499 0.38275 0.0
H234 H 0.73757 0.20299 0.44809 0.0
C235 C 0.77481 0.26832 0.58412 0.0
C236 C 0.77482 0.76659 0.08412 0.0
C237 C 0.75913 0.80361 0.04992 0.0
H238 H 0.79304 0.70299 0.07475 0.0
C239 C 0.74983 0.80395 0.97664 0.0
H240 H 0.78173 0.765 0.14008 0.0
C241 C 0.75579 0.76831 0.93871 0.0
C242 C 0.77148 0.73129 0.97291 0.0
H243 H 0.73758 0.83191 0.94809 0.0
H244 H 0.74888 0.76991 0.88275 0.0
C245 C 0.78079 0.73095 0.04619 0.0
C246 C 0.27482 0.76832 0.58412 0.0
C247 C 0.25912 0.7313 0.54992 0.0
H248 H 0.29304 0.83192 0.57474 0.0
C249 C 0.24982 0.73096 0.47664 0.0
H250 H 0.28172 0.76992 0.64008 0.0
C251 C 0.2558 0.76659 0.43871 0.0
C252 C 0.27149 0.80362 0.4729 0.0
H253 H 0.23757 0.70299 0.44809 0.0
H254 H 0.24889 0.76499 0.38275 0.0
C255 C 0.28079 0.80395 0.54618 0.0
C256 C 0.95148 0.50254 1.01029 0.0
C257 C 0.9634 0.53203 0.962 0.0
H258 H 0.99257 0.46506 0.09561 0.0
C259 C 0.02772 0.54668 0.9634 0.0
H260 H 0.90219 0.49149 0.01169 0.0
C261 C 0.07914 0.53237 0.01252 0.0
C262 C 0.06723 0.50288 0.0608 0.0
H263 H 0.03805 0.56985 0.92719 0.0
H264 H 0.12844 0.54342 1.01111 0.0
C265 C 1.0029 0.48823 0.05941 0.0
C266 C 0.07915 0.50254 0.51253 0.0
C267 C 0.06722 0.53204 0.5608 0.0
H268 H 0.03807 0.46505 0.42722 0.0
C269 C 1.00289 0.54669 0.5594 0.0
H270 H 0.12844 0.49149 0.51113 0.0
C271 C 0.95147 0.53237 0.51028 0.0
C272 C 0.9634 0.50287 0.46201 0.0
H273 H 0.99255 0.56986 0.59559 0.0
H274 H 0.90218 0.54342 0.51168 0.0
C275 C 0.02773 0.48822 0.46341 0.0
C276 C 0.57914 0.03237 0.01252 0.0
C277 C 0.56722 1.00288 0.0608 0.0
H278 H 0.53804 0.06985 0.9272 0.0
C279 C 0.50289 0.98822 0.05941 0.0
H280 H 0.62843 0.04342 1.01111 0.0
C281 C 0.45147 1.00254 1.01029 0.0
C282 C 0.46339 0.03203 0.96201 0.0
H283 H 0.49256 0.96506 0.09561 0.0
H284 H 0.40218 0.99149 0.0117 0.0
C285 C 0.52771 0.04669 0.9634 0.0
C286 C 0.52771 0.98822 0.46341 0.0
C287 C 0.46338 1.00288 0.46203 0.0
H288 H 0.62843 0.99149 0.51112 0.0
C289 C 0.45146 0.03237 0.51031 0.0
H290 H 0.53805 0.96506 0.42721 0.0
C291 C 0.50289 0.04669 0.55942 0.0
C292 C 0.56721 0.03203 0.56081 0.0
H293 H 0.40217 0.04342 0.51172 0.0
H294 H 0.49255 0.06985 0.59562 0.0
C295 C 0.57913 1.00254 0.51253 0.0
C296 C 0.07677 0.36024 0.30354 0.0
C297 C 0.07343 0.36156 0.23106 0.0
H298 H 0.02407 0.36129 0.38935 0.0
C299 C 1.0112 0.36015 0.18934 0.0
H300 H 0.12381 0.36123 0.33747 0.0
C301 C 0.95387 0.36022 0.21928 0.0
C302 C 0.95721 0.36155 0.29176 0.0
H303 H 1.00658 0.36127 0.13347 0.0
H304 H 0.90683 0.36119 0.18536 0.0
C305 C 0.01944 0.36016 0.33349 0.0
C306 C 0.07674 0.67468 0.80354 0.0
C307 C 0.07341 0.67336 0.73106 0.0
H308 H 0.02404 0.67363 0.88935 0.0
C309 C 1.01118 0.67475 0.68933 0.0
H310 H 0.12379 0.67371 0.83747 0.0
C311 C 0.95385 0.67467 0.71928 0.0
C312 C 0.95718 0.67335 0.79176 0.0
H313 H 1.00655 0.67362 0.63347 0.0
H314 H 0.90681 0.67369 0.68535 0.0
C315 C 0.01941 0.67476 0.83349 0.0
C316 C 0.45387 0.86023 0.21928 0.0
C317 C 0.4572 0.86156 0.29176 0.0
H318 H 0.50656 0.86128 0.13347 0.0
C319 C 0.51943 0.86016 0.33349 0.0
H320 H 0.40682 0.86121 0.18536 0.0
C321 C 0.57676 0.86024 0.30354 0.0
C322 C 0.57343 0.86156 0.23106 0.0
H323 H 0.52406 0.86129 0.38935 0.0
H324 H 0.6238 0.86122 0.33747 0.0
C325 C 0.5112 0.86016 0.18933 0.0
C326 C 0.51117 0.17475 0.68933 0.0
C327 C 0.5734 0.17336 0.73106 0.0
H328 H 0.4068 0.17369 0.68535 0.0
C329 C 0.57673 0.17469 0.80354 0.0
H330 H 0.50655 0.17362 0.63347 0.0
C331 C 0.5194 0.17476 0.83349 0.0
C332 C 0.45717 0.17335 0.79176 0.0
H333 H 0.62378 0.17372 0.83747 0.0
H334 H 0.52403 0.17364 0.88935 0.0
C335 C 0.45384 0.17467 0.71928 0.0
C336 C 0.19676 0.49201 0.90179 0.0
C337 C 0.25062 0.48999 0.95563 0.0
H338 H 0.15321 0.52099 0.80804 0.0
C339 C 0.30236 0.51829 0.95633 0.0
H340 H 0.15541 0.47145 0.90005 0.0
C341 C 0.30061 0.54735 0.90347 0.0
C342 C 0.24711 0.5485 0.84924 0.0
H343 H 0.34419 0.51802 0.99771 0.0
H344 H 0.34205 0.56765 0.90349 0.0
C345 C 0.19496 0.52093 0.84961 0.0
C346 C 0.72825 0.51828 0.56647 0.0
C347 C 0.77999 0.48999 0.56717 0.0
H348 H 0.68854 0.56763 0.61932 0.0
C349 C 0.83385 0.49201 0.62102 0.0
H350 H 0.68641 0.51801 0.5251 0.0
C351 C 0.83565 0.52093 0.6732 0.0
C352 C 0.78349 0.5485 0.67357 0.0
H353 H 0.87521 0.47145 0.62276 0.0
H354 H 0.87739 0.52099 0.71477 0.0
C355 C 0.72999 0.54735 0.61934 0.0
C356 C 0.83566 0.51397 0.1732 0.0
C357 C 0.78351 0.4864 0.17357 0.0
H358 H 0.87521 0.56344 0.12276 0.0
C359 C 0.73 0.48755 0.11934 0.0
H360 H 0.87741 0.5139 0.21477 0.0
C361 C 0.72826 0.51662 0.06648 0.0
C362 C 0.78 0.54491 0.06718 0.0
H363 H 0.68856 0.46726 0.11932 0.0
H364 H 0.68642 0.51689 0.02511 0.0
C365 C 0.83386 0.54289 0.12102 0.0
C366 C 0.30061 0.48756 0.40348 0.0
C367 C 0.24713 0.48643 0.34923 0.0
H368 H 0.34419 0.51689 0.49773 0.0
C369 C 0.19498 0.514 0.3496 0.0
H370 H 0.34205 0.46726 0.4035 0.0
C371 C 0.19678 0.54292 0.40178 0.0
C372 C 0.25063 0.54493 0.45564 0.0
H373 H 0.15324 0.51395 0.30802 0.0
H374 H 0.15543 0.56348 0.40004 0.0
C375 C 0.30236 0.51663 0.45635 0.0
C376 C 0.80237 0.01827 0.95632 0.0
C377 C 0.75061 0.98999 0.95563 0.0
H378 H 0.84208 0.06762 0.90348 0.0
C379 C 0.69674 0.99202 0.9018 0.0
H380 H 0.84422 0.01799 0.99768 0.0
C381 C 0.69494 0.02095 0.84964 0.0
C382 C 0.7471 0.04851 0.84926 0.0
H383 H 0.65538 0.97148 0.90007 0.0
H384 H 0.65318 0.02102 0.80808 0.0
C385 C 0.80062 0.04734 0.90347 0.0
C386 C 0.22999 0.04735 0.61935 0.0
C387 C 0.28348 0.04849 0.67359 0.0
H388 H 0.18641 0.01802 0.5251 0.0
C389 C 0.33563 0.02092 0.67321 0.0
H390 H 0.18855 0.06764 0.61933 0.0
C391 C 0.33384 0.992 0.62103 0.0
C392 C 0.27998 0.98998 0.56719 0.0
H393 H 0.37738 0.02097 0.71479 0.0
H394 H 0.37519 0.97144 0.62278 0.0
C395 C 0.22824 0.01829 0.56648 0.0
C396 C 0.23 0.98756 0.11935 0.0
C397 C 0.2835 0.98642 0.17359 0.0
H398 H 0.18642 1.01689 0.02511 0.0
C399 C 0.33565 1.01399 0.17321 0.0
H400 H 0.18856 0.96726 0.11933 0.0
C401 C 0.33385 0.04291 0.12103 0.0
C402 C 0.27999 0.04492 0.06719 0.0
H403 H 0.37739 1.01393 0.21479 0.0
H404 H 0.37519 0.06346 0.12278 0.0
C405 C 0.22825 1.01662 0.06649 0.0
C406 C 0.69679 0.04294 0.40177 0.0
C407 C 0.75062 0.04492 0.45565 0.0
H408 H 0.65326 1.01398 0.30799 0.0
C409 C 0.80234 1.01661 0.45637 0.0
H410 H 0.65546 0.06351 0.40001 0.0
C411 C 0.80059 0.98755 0.40349 0.0
C412 C 0.74712 0.98643 0.34923 0.0
H413 H 0.84415 1.01685 0.49777 0.0
H414 H 0.84202 0.96724 0.40353 0.0
C415 C 0.69499 1.01402 0.34958 0.0
loop_
_geom_bond_atom_site_label_1
_geom_bond_atom_site_label_2
_geom_bond_distance
_geom_bond_site_symmetry_2
_ccdc_geom_bond_type
Fe0 O2 1.918 . S
Fe0 O5 1.997 . S
Fe0 O6 2.002 . S
Fe0 O11 1.976 . S
Fe0 O14 1.996 . S
Fe1 O2 1.918 . S
Fe1 O9 1.997 . S
Fe1 O12 1.996 . S
Fe1 O16 1.976 1_554 S
Fe1 O19 2.002 . S
O2 Fe0 1.918 . S
O2 Fe1 1.918 . S
O2 Fe3 1.918 . S
Fe3 O2 1.918 . S
Fe3 O4 2.002 . S
Fe3 O13 1.976 . S
Fe3 O17 1.996 . S
Fe3 O20 1.997 . S
O4 Fe3 2.002 . S
O4 C21 1.295 . S
O5 Fe0 1.997 . S
O5 C21 1.235 . S
O6 Fe0 2.002 . S
O6 C7 1.295 . S
C7 O6 1.295 . S
C7 O9 1.235 . S
C8 O13 1.287 . S
C8 O14 1.255 . S
O9 Fe1 1.997 . S
O9 C7 1.235 . S
C10 O16 1.287 . S
C10 O17 1.255 1_556 S
O11 Fe0 1.976 . S
O11 C18 1.287 . S
O12 Fe1 1.996 . S
O12 C18 1.255 . S
O13 Fe3 1.976 . S
O13 C8 1.287 . S
O14 Fe0 1.996 . S
O14 C8 1.255 . S
C15 O19 1.295 . S
C15 O20 1.235 . S
O16 Fe1 1.976 1_556 S
O16 C10 1.287 . S
O17 Fe3 1.996 . S
O17 C10 1.255 1_554 S
C18 O11 1.287 . S
C18 O12 1.255 . S
O19 Fe1 2.002 . S
O19 C15 1.295 . S
O20 Fe3 1.997 . S
O20 C15 1.235 . S
C21 O4 1.295 . S
C21 O5 1.235 . S
Fe22 O24 1.918 . S
Fe22 O27 1.997 . S
Fe22 O28 2.002 . S
Fe22 O33 1.976 . S
Fe22 O36 1.996 . S
Fe23 O24 1.918 . S
Fe23 O31 1.997 . S
Fe23 O34 1.996 . S
Fe23 O38 1.976 . S
Fe23 O41 2.002 . S
O24 Fe22 1.918 . S
O24 Fe23 1.918 . S
O24 Fe25 1.918 . S
Fe25 O24 1.918 . S
Fe25 O26 2.002 . S
Fe25 O35 1.976 . S
Fe25 O39 1.996 . S
Fe25 O42 1.997 . S
O26 Fe25 2.002 . S
O26 C43 1.295 . S
O27 Fe22 1.997 . S
O27 C43 1.235 . S
O28 Fe22 2.002 . S
O28 C29 1.295 . S
C29 O28 1.295 . S
C29 O31 1.235 . S
C30 O35 1.287 . S
C30 O36 1.255 . S
O31 Fe23 1.997 . S
O31 C29 1.235 . S
C32 O38 1.287 . S
C32 O39 1.255 . S
O33 Fe22 1.976 . S
O33 C40 1.287 . S
O34 Fe23 1.996 . S
O34 C40 1.255 . S
O35 Fe25 1.976 . S
O35 C30 1.287 . S
O36 Fe22 1.996 . S
O36 C30 1.255 . S
C37 O41 1.295 . S
C37 O42 1.235 . S
O38 Fe23 1.976 . S
O38 C32 1.287 . S
O39 Fe25 1.996 . S
O39 C32 1.255 . S
C40 O33 1.287 . S
C40 O34 1.255 . S
O41 Fe23 2.002 . S
O41 C37 1.295 . S
O42 Fe25 1.997 . S
O42 C37 1.235 . S
C43 O26 1.295 . S
C43 O27 1.235 . S
Fe44 O46 1.918 . S
Fe44 O49 1.997 . S
Fe44 O50 2.002 . S
Fe44 O55 1.976 . S
Fe44 O58 1.996 . S
Fe45 O46 1.918 . S
Fe45 O53 1.997 . S
Fe45 O56 1.996 . S
Fe45 O60 1.976 . S
Fe45 O63 2.002 . S
O46 Fe44 1.918 . S
O46 Fe45 1.918 . S
O46 Fe47 1.918 . S
Fe47 O46 1.918 . S
Fe47 O48 2.002 . S
Fe47 O57 1.976 1_556 S
Fe47 O61 1.996 . S
Fe47 O64 1.997 . S
O48 Fe47 2.002 . S
O48 C65 1.295 . S
O49 Fe44 1.997 . S
O49 C65 1.235 . S
O50 Fe44 2.002 . S
O50 C51 1.295 . S
C51 O50 1.295 . S
C51 O53 1.235 . S
C52 O57 1.287 . S
C52 O58 1.255 1_554 S
O53 Fe45 1.997 . S
O53 C51 1.235 . S
C54 O60 1.287 . S
C54 O61 1.255 . S
O55 Fe44 1.976 . S
O55 C62 1.287 . S
O56 Fe45 1.996 . S
O56 C62 1.255 . S
O57 Fe47 1.976 1_554 S
O57 C52 1.287 . S
O58 Fe44 1.996 . S
O58 C52 1.255 1_556 S
C59 O63 1.295 . S
C59 O64 1.235 . S
O60 Fe45 1.976 . S
O60 C54 1.287 . S
O61 Fe47 1.996 . S
O61 C54 1.255 . S
C62 O55 1.287 . S
C62 O56 1.255 . S
O63 Fe45 2.002 . S
O63 C59 1.295 . S
O64 Fe47 1.997 . S
O64 C59 1.235 . S
C65 O48 1.295 . S
C65 O49 1.235 . S
Fe66 O68 1.918 . S
Fe66 O71 1.997 . S
Fe66 O72 2.002 . S
Fe66 O77 1.976 . S
Fe66 O80 1.996 . S
Fe67 O68 1.918 . S
Fe67 O75 1.997 . S
Fe67 O78 1.996 . S
Fe67 O82 1.976 . S
Fe67 O85 2.002 . S
O68 Fe66 1.918 . S
O68 Fe67 1.918 . S
O68 Fe69 1.918 . S
Fe69 O68 1.918 . S
Fe69 O70 2.002 . S
Fe69 O79 1.976 . S
Fe69 O83 1.996 . S
Fe69 O86 1.997 . S
O70 Fe69 2.002 . S
O70 C87 1.295 . S
O71 Fe66 1.997 . S
O71 C87 1.235 . S
O72 Fe66 2.002 . S
O72 C73 1.295 . S
C73 O72 1.295 . S
C73 O75 1.235 . S
C74 O79 1.287 . S
C74 O80 1.255 . S
O75 Fe67 1.997 . S
O75 C73 1.235 . S
C76 O82 1.287 . S
C76 O83 1.255 . S
O77 Fe66 1.976 . S
O77 C84 1.287 . S
O78 Fe67 1.996 . S
O78 C84 1.255 . S
O79 Fe69 1.976 . S
O79 C74 1.287 . S
O80 Fe66 1.996 . S
O80 C74 1.255 . S
C81 O85 1.295 . S
C81 O86 1.235 . S
O82 Fe67 1.976 . S
O82 C76 1.287 . S
O83 Fe69 1.996 . S
O83 C76 1.255 . S
C84 O77 1.287 . S
C84 O78 1.255 . S
O85 Fe67 2.002 . S
O85 C81 1.295 . S
O86 Fe69 1.997 . S
O86 C81 1.235 . S
C87 O70 1.295 . S
C87 O71 1.235 . S
Fe88 O90 1.918 . S
Fe88 O93 1.997 . S
Fe88 O94 2.002 . S
Fe88 O99 1.976 . S
Fe88 O102 1.996 . S
Fe89 O90 1.918 . S
Fe89 O97 1.997 . S
Fe89 O100 1.996 . S
Fe89 O104 1.976 1_554 S
Fe89 O107 2.002 . S
O90 Fe88 1.918 . S
O90 Fe89 1.918 . S
O90 Fe91 1.918 . S
Fe91 O90 1.918 . S
Fe91 O92 2.002 . S
Fe91 O101 1.976 . S
Fe91 O105 1.996 . S
Fe91 O108 1.997 . S
O92 Fe91 2.002 . S
O92 C109 1.295 . S
O93 Fe88 1.997 . S
O93 C109 1.235 . S
O94 Fe88 2.002 . S
O94 C95 1.295 . S
C95 O94 1.295 . S
C95 O97 1.235 . S
C96 O101 1.287 . S
C96 O102 1.255 . S
O97 Fe89 1.997 . S
O97 C95 1.235 . S
C98 O104 1.287 . S
C98 O105 1.255 1_556 S
O99 Fe88 1.976 . S
O99 C106 1.287 . S
O100 Fe89 1.996 . S
O100 C106 1.255 . S
O101 Fe91 1.976 . S
O101 C96 1.287 . S
O102 Fe88 1.996 . S
O102 C96 1.255 . S
C103 O107 1.295 . S
C103 O108 1.235 . S
O104 Fe89 1.976 1_556 S
O104 C98 1.287 . S
O105 Fe91 1.996 . S
O105 C98 1.255 1_554 S
C106 O99 1.287 . S
C106 O100 1.255 . S
O107 Fe89 2.002 . S
O107 C103 1.295 . S
O108 Fe91 1.997 . S
O108 C103 1.235 . S
C109 O92 1.295 . S
C109 O93 1.235 . S
Fe110 O112 1.918 . S
Fe110 O115 1.997 . S
Fe110 O116 2.002 . S
Fe110 O121 1.976 . S
Fe110 O124 1.996 . S
Fe111 O112 1.918 . S
Fe111 O119 1.997 . S
Fe111 O122 1.996 . S
Fe111 O126 1.976 . S
Fe111 O129 2.002 . S
O112 Fe110 1.918 . S
O112 Fe111 1.918 . S
O112 Fe113 1.918 . S
Fe113 O112 1.918 . S
Fe113 O114 2.002 . S
Fe113 O123 1.976 . S
Fe113 O127 1.996 . S
Fe113 O130 1.997 . S
O114 Fe113 2.002 . S
O114 C131 1.295 . S
O115 Fe110 1.997 . S
O115 C131 1.235 . S
O116 Fe110 2.002 . S
O116 C117 1.295 . S
C117 O116 1.295 . S
C117 O119 1.235 . S
C118 O123 1.287 . S
C118 O124 1.255 . S
O119 Fe111 1.997 . S
O119 C117 1.235 . S
C120 O126 1.287 . S
C120 O127 1.255 . S
O121 Fe110 1.976 . S
O121 C128 1.287 . S
O122 Fe111 1.996 . S
O122 C128 1.255 . S
O123 Fe113 1.976 . S
O123 C118 1.287 . S
O124 Fe110 1.996 . S
O124 C118 1.255 . S
C125 O129 1.295 . S
C125 O130 1.235 . S
O126 Fe111 1.976 . S
O126 C120 1.287 . S
O127 Fe113 1.996 . S
O127 C120 1.255 . S
C128 O121 1.287 . S
C128 O122 1.255 . S
O129 Fe111 2.002 . S
O129 C125 1.295 . S
O130 Fe113 1.997 . S
O130 C125 1.235 . S
C131 O114 1.295 . S
C131 O115 1.235 . S
Fe132 O134 1.918 . S
Fe132 O137 1.997 . S
Fe132 O138 2.002 . S
Fe132 O143 1.976 . S
Fe132 O146 1.996 . S
Fe133 O134 1.918 . S
Fe133 O141 1.997 . S
Fe133 O144 1.996 . S
Fe133 O148 1.976 . S
Fe133 O151 2.002 . S
O134 Fe132 1.918 . S
O134 Fe133 1.918 . S
O134 Fe135 1.918 . S
Fe135 O134 1.918 . S
Fe135 O136 2.002 . S
Fe135 O145 1.976 1_556 S
Fe135 O149 1.996 . S
Fe135 O152 1.997 . S
O136 Fe135 2.002 . S
O136 C153 1.295 . S
O137 Fe132 1.997 . S
O137 C153 1.235 . S
O138 Fe132 2.002 . S
O138 C139 1.295 . S
C139 O138 1.295 . S
C139 O141 1.235 . S
C140 O145 1.287 . S
C140 O146 1.255 1_554 S
O141 Fe133 1.997 . S
O141 C139 1.235 . S
C142 O148 1.287 . S
C142 O149 1.255 . S
O143 Fe132 1.976 . S
O143 C150 1.287 . S
O144 Fe133 1.996 . S
O144 C150 1.255 . S
O145 Fe135 1.976 1_554 S
O145 C140 1.287 . S
O146 Fe132 1.996 . S
O146 C140 1.255 1_556 S
C147 O151 1.295 . S
C147 O152 1.235 . S
O148 Fe133 1.976 . S
O148 C142 1.287 . S
O149 Fe135 1.996 . S
O149 C142 1.255 . S
C150 O143 1.287 . S
C150 O144 1.255 . S
O151 Fe133 2.002 . S
O151 C147 1.295 . S
O152 Fe135 1.997 . S
O152 C147 1.235 . S
C153 O136 1.295 . S
C153 O137 1.235 . S
Fe154 O156 1.918 . S
Fe154 O159 1.997 . S
Fe154 O160 2.002 . S
Fe154 O165 1.976 . S
Fe154 O168 1.996 . S
Fe155 O156 1.918 . S
Fe155 O163 1.997 . S
Fe155 O166 1.996 . S
Fe155 O170 1.976 . S
Fe155 O173 2.002 . S
O156 Fe154 1.918 . S
O156 Fe155 1.918 . S
O156 Fe157 1.918 . S
Fe157 O156 1.918 . S
Fe157 O158 2.002 . S
Fe157 O167 1.976 . S
Fe157 O171 1.996 . S
Fe157 O174 1.997 . S
O158 Fe157 2.002 . S
O158 C175 1.295 . S
O159 Fe154 1.997 . S
O159 C175 1.235 . S
O160 Fe154 2.002 . S
O160 C161 1.295 . S
C161 O160 1.295 . S
C161 O163 1.235 . S
C162 O167 1.287 . S
C162 O168 1.255 . S
O163 Fe155 1.997 . S
O163 C161 1.235 . S
C164 O170 1.287 . S
C164 O171 1.255 . S
O165 Fe154 1.976 . S
O165 C172 1.287 . S
O166 Fe155 1.996 . S
O166 C172 1.255 . S
O167 Fe157 1.976 . S
O167 C162 1.287 . S
O168 Fe154 1.996 . S
O168 C162 1.255 . S
C169 O173 1.295 . S
C169 O174 1.235 . S
O170 Fe155 1.976 . S
O170 C164 1.287 . S
O171 Fe157 1.996 . S
O171 C164 1.255 . S
C172 O165 1.287 . S
C172 O166 1.255 . S
O173 Fe155 2.002 . S
O173 C169 1.295 . S
O174 Fe157 1.997 . S
O174 C169 1.235 . S
C175 O158 1.295 . S
C175 O159 1.235 . S
C176 C177 1.387 . S
C176 H180 0.950 . S
C176 C185 1.390 . S
C177 C176 1.387 . S
C177 C179 1.387 . S
H178 C185 0.950 . S
C179 C177 1.387 . S
C179 C181 1.390 . S
C179 H183 0.950 . S
H180 C176 0.950 . S
C181 C179 1.390 . S
C181 C182 1.387 . S
C181 H184 0.950 . S
C182 C181 1.387 . S
C182 C185 1.387 . S
H183 C179 0.950 . S
H184 C181 0.950 . S
C185 C176 1.390 . S
C185 H178 0.950 . S
C185 C182 1.387 . S
C186 C187 1.387 . S
C186 H190 0.950 . S
C186 C195 1.390 . S
C187 C186 1.387 . S
C187 C189 1.387 . S
H188 C195 0.950 . S
C189 C187 1.387 . S
C189 C191 1.390 . S
C189 H193 0.950 . S
H190 C186 0.950 . S
C191 C189 1.390 . S
C191 C192 1.387 . S
C191 H194 0.950 . S
C192 C191 1.387 . S
C192 C195 1.387 . S
H193 C189 0.950 . S
H194 C191 0.950 . S
C195 C186 1.390 . S
C195 H188 0.950 . S
C195 C192 1.387 . S
C196 C197 1.387 . S
C196 H200 0.950 . S
C196 C205 1.390 1_455 S
C197 C196 1.387 . S
C197 C199 1.387 . S
H198 C205 0.950 . S
C199 C197 1.387 . S
C199 C201 1.390 1_455 S
C199 H203 0.950 . S
H200 C196 0.950 . S
C201 C199 1.390 1_655 S
C201 C202 1.387 . S
C201 H204 0.950 . S
C202 C201 1.387 . S
C202 C205 1.387 . S
H203 C199 0.950 . S
H204 C201 0.950 . S
C205 C196 1.390 1_655 S
C205 H198 0.950 . S
C205 C202 1.387 . S
C206 C207 1.387 . S
C206 H210 0.950 . S
C206 C215 1.390 1_455 S
C207 C206 1.387 . S
C207 C209 1.387 . S
H208 C215 0.950 . S
C209 C207 1.387 . S
C209 C211 1.390 1_455 S
C209 H213 0.950 . S
H210 C206 0.950 . S
C211 C209 1.390 1_655 S
C211 C212 1.387 . S
C211 H214 0.950 . S
C212 C211 1.387 . S
C212 C215 1.387 . S
H213 C209 0.950 . S
H214 C211 0.950 . S
C215 C206 1.390 1_655 S
C215 H208 0.950 . S
C215 C212 1.387 . S
C216 C217 1.387 . S
C216 H220 0.950 . S
C216 C225 1.390 1_554 S
C217 C216 1.387 . S
C217 C219 1.387 . S
H218 C225 0.950 . S
C219 C217 1.387 . S
C219 C221 1.390 1_554 S
C219 H223 0.950 . S
H220 C216 0.950 . S
C221 C219 1.390 1_556 S
C221 C222 1.387 . S
C221 H224 0.950 . S
C222 C221 1.387 . S
C222 C225 1.387 . S
H223 C219 0.950 . S
H224 C221 0.950 . S
C225 C216 1.390 1_556 S
C225 H218 0.950 . S
C225 C222 1.387 . S
C226 C227 1.387 . S
C226 H230 0.950 . S
C226 C235 1.390 . S
C227 C226 1.387 . S
C227 C229 1.387 . S
H228 C235 0.950 . S
C229 C227 1.387 . S
C229 C231 1.390 . S
C229 H233 0.950 . S
H230 C226 0.950 . S
C231 C229 1.390 . S
C231 C232 1.387 . S
C231 H234 0.950 . S
C232 C231 1.387 . S
C232 C235 1.387 . S
H233 C229 0.950 . S
H234 C231 0.950 . S
C235 C226 1.390 . S
C235 H228 0.950 . S
C235 C232 1.387 . S
C236 C237 1.387 . S
C236 H240 0.950 . S
C236 C245 1.390 1_554 S
C237 C236 1.387 . S
C237 C239 1.387 . S
H238 C245 0.950 . S
C239 C237 1.387 . S
C239 C241 1.390 1_554 S
C239 H243 0.950 . S
H240 C236 0.950 . S
C241 C239 1.390 1_556 S
C241 C242 1.387 . S
C241 H244 0.950 . S
C242 C241 1.387 . S
C242 C245 1.387 . S
H243 C239 0.950 . S
H244 C241 0.950 . S
C245 C236 1.390 1_556 S
C245 H238 0.950 . S
C245 C242 1.387 . S
C246 C247 1.387 . S
C246 H250 0.950 . S
C246 C255 1.390 . S
C247 C246 1.387 . S
C247 C249 1.387 . S
H248 C255 0.950 . S
C249 C247 1.387 . S
C249 C251 1.390 . S
C249 H253 0.950 . S
H250 C246 0.950 . S
C251 C249 1.390 . S
C251 C252 1.387 . S
C251 H254 0.950 . S
C252 C251 1.387 . S
C252 C255 1.387 . S
H253 C249 0.950 . S
H254 C251 0.950 . S
C255 C246 1.390 . S
C255 H248 0.950 . S
C255 C252 1.387 . S
C256 C257 1.387 . S
C256 H260 0.950 . S
C256 C265 1.384 1_656 S
C257 C256 1.387 . S
C257 C259 1.395 . S
H258 C265 0.948 . S
C259 C257 1.395 . S
C259 C261 1.384 1_656 S
C259 H263 0.948 . S
H260 C256 0.950 . S
C261 C259 1.384 1_454 S
C261 C262 1.387 . S
C261 H264 0.950 . S
C262 C261 1.387 . S
C262 C265 1.395 . S
H263 C259 0.948 . S
H264 C261 0.950 . S
C265 C256 1.384 1_454 S
C265 H258 0.948 . S
C265 C262 1.395 . S
C266 C267 1.387 . S
C266 H270 0.950 . S
C266 C275 1.390 1_455 S
C267 C266 1.387 . S
C267 C269 1.387 . S
H268 C275 0.950 . S
C269 C267 1.387 . S
C269 C271 1.390 1_455 S
C269 H273 0.950 . S
H270 C266 0.950 . S
C271 C269 1.390 1_655 S
C271 C272 1.387 . S
C271 H274 0.950 . S
C272 C271 1.387 . S
C272 C275 1.387 . S
H273 C269 0.950 . S
H274 C271 0.950 . S
C275 C266 1.390 1_655 S
C275 H268 0.950 . S
C275 C272 1.387 . S
C276 C277 1.387 1_546 S
C276 H280 0.950 . S
C276 C285 1.390 . S
C277 C276 1.387 1_564 S
C277 C279 1.387 . S
H278 C285 0.950 . S
C279 C277 1.387 . S
C279 C281 1.390 . S
C279 H283 0.950 . S
H280 C276 0.950 . S
C281 C279 1.390 . S
C281 C282 1.387 1_564 S
C281 H284 0.950 . S
C282 C281 1.387 1_546 S
C282 C285 1.387 . S
H283 C279 0.950 . S
H284 C281 0.950 . S
C285 C276 1.390 . S
C285 H278 0.950 . S
C285 C282 1.387 . S
C286 C287 1.387 . S
C286 H290 0.950 . S
C286 C295 1.390 . S
C287 C286 1.387 . S
C287 C289 1.387 1_565 S
H288 C295 0.950 . S
C289 C287 1.387 1_545 S
C289 C291 1.390 . S
C289 H293 0.950 . S
H290 C286 0.950 . S
C291 C289 1.390 . S
C291 C292 1.387 . S
C291 H294 0.950 . S
C292 C291 1.387 . S
C292 C295 1.387 1_545 S
H293 C289 0.950 . S
H294 C291 0.950 . S
C295 C286 1.390 . S
C295 H288 0.950 . S
C295 C292 1.387 1_565 S
C296 C297 1.387 . S
C296 H300 0.950 . S
C296 C305 1.390 1_455 S
C297 C296 1.387 . S
C297 C299 1.387 . S
H298 C305 0.950 . S
C299 C297 1.387 . S
C299 C301 1.390 1_455 S
C299 H303 0.950 . S
H300 C296 0.950 . S
C301 C299 1.390 1_655 S
C301 C302 1.387 . S
C301 H304 0.950 . S
C302 C301 1.387 . S
C302 C305 1.387 . S
H303 C299 0.950 . S
H304 C301 0.950 . S
C305 C296 1.390 1_655 S
C305 H298 0.950 . S
C305 C302 1.387 . S
C306 C307 1.387 . S
C306 H310 0.950 . S
C306 C315 1.390 1_455 S
C307 C306 1.387 . S
C307 C309 1.387 . S
H308 C315 0.950 . S
C309 C307 1.387 . S
C309 C311 1.390 1_455 S
C309 H313 0.950 . S
H310 C306 0.950 . S
C311 C309 1.390 1_655 S
C311 C312 1.387 . S
C311 H314 0.950 . S
C312 C311 1.387 . S
C312 C315 1.387 . S
H313 C309 0.950 . S
H314 C311 0.950 . S
C315 C306 1.390 1_655 S
C315 H308 0.950 . S
C315 C312 1.387 . S
C316 C317 1.387 . S
C316 H320 0.950 . S
C316 C325 1.390 . S
C317 C316 1.387 . S
C317 C319 1.387 . S
H318 C325 0.950 . S
C319 C317 1.387 . S
C319 C321 1.390 . S
C319 H323 0.950 . S
H320 C316 0.950 . S
C321 C319 1.390 . S
C321 C322 1.387 . S
C321 H324 0.950 . S
C322 C321 1.387 . S
C322 C325 1.387 . S
H323 C319 0.950 . S
H324 C321 0.950 . S
C325 C316 1.390 . S
C325 H318 0.950 . S
C325 C322 1.387 . S
C326 C327 1.387 . S
C326 H330 0.950 . S
C326 C335 1.390 . S
C327 C326 1.387 . S
C327 C329 1.387 . S
H328 C335 0.950 . S
C329 C327 1.387 . S
C329 C331 1.390 . S
C329 H333 0.950 . S
H330 C326 0.950 . S
C331 C329 1.390 . S
C331 C332 1.387 . S
C331 H334 0.950 . S
C332 C331 1.387 . S
C332 C335 1.387 . S
H333 C329 0.950 . S
H334 C331 0.950 . S
C335 C326 1.390 . S
C335 H328 0.950 . S
C335 C332 1.387 . S
C336 C337 1.387 . S
C336 H340 0.950 . S
C336 C345 1.390 . S
C337 C336 1.387 . S
C337 C339 1.387 . S
H338 C345 0.950 . S
C339 C337 1.387 . S
C339 C341 1.390 . S
C339 H343 0.950 . S
H340 C336 0.950 . S
C341 C339 1.390 . S
C341 C342 1.387 . S
C341 H344 0.950 . S
C342 C341 1.387 . S
C342 C345 1.387 . S
H343 C339 0.950 . S
H344 C341 0.950 . S
C345 C336 1.390 . S
C345 H338 0.950 . S
C345 C342 1.387 . S
C346 C347 1.387 . S
C346 H350 0.950 . S
C346 C355 1.390 . S
C347 C346 1.387 . S
C347 C349 1.387 . S
H348 C355 0.950 . S
C349 C347 1.387 . S
C349 C351 1.390 . S
C349 H353 0.950 . S
H350 C346 0.950 . S
C351 C349 1.390 . S
C351 C352 1.387 . S
C351 H354 0.950 . S
C352 C351 1.387 . S
C352 C355 1.387 . S
H353 C349 0.950 . S
H354 C351 0.950 . S
C355 C346 1.390 . S
C355 H348 0.950 . S
C355 C352 1.387 . S
C356 C357 1.387 . S
C356 H360 0.950 . S
C356 C365 1.390 . S
C357 C356 1.387 . S
C357 C359 1.387 . S
H358 C365 0.950 . S
C359 C357 1.387 . S
C359 C361 1.390 . S
C359 H363 0.950 . S
H360 C356 0.950 . S
C361 C359 1.390 . S
C361 C362 1.387 . S
C361 H364 0.950 . S
C362 C361 1.387 . S
C362 C365 1.387 . S
H363 C359 0.950 . S
H364 C361 0.950 . S
C365 C356 1.390 . S
C365 H358 0.950 . S
C365 C362 1.387 . S
C366 C367 1.387 . S
C366 H370 0.950 . S
C366 C375 1.390 . S
C367 C366 1.387 . S
C367 C369 1.387 . S
H368 C375 0.950 . S
C369 C367 1.387 . S
C369 C371 1.390 . S
C369 H373 0.950 . S
H370 C366 0.950 . S
C371 C369 1.390 . S
C371 C372 1.387 . S
C371 H374 0.950 . S
C372 C371 1.387 . S
C372 C375 1.387 . S
H373 C369 0.950 . S
H374 C371 0.950 . S
C375 C366 1.390 . S
C375 H368 0.950 . S
C375 C372 1.387 . S
C376 C377 1.387 . S
C376 H380 0.950 . S
C376 C385 1.406 . S
C377 C376 1.387 . S
C377 C379 1.387 . S
H378 C385 0.943 1_545 S
C379 C377 1.387 . S
C379 C381 1.390 1_565 S
C379 H383 0.950 . S
H380 C376 0.950 . S
C381 C379 1.390 1_545 S
C381 C382 1.387 . S
C381 H384 0.950 . S
C382 C381 1.387 . S
C382 C385 1.378 1_545 S
H383 C379 0.950 . S
H384 C381 0.950 . S
C385 C376 1.406 . S
C385 H378 0.943 1_565 S
C385 C382 1.378 1_565 S
C386 C387 1.387 . S
C386 H390 0.950 . S
C386 C395 1.390 1_545 S
C387 C386 1.387 . S
C387 C389 1.378 1_545 S
H388 C395 0.950 . S
C389 C387 1.378 1_565 S
C389 C391 1.407 . S
C389 H393 0.943 1_565 S
H390 C386 0.950 . S
C391 C389 1.407 . S
C391 C392 1.387 . S
C391 H394 0.950 . S
C392 C391 1.387 . S
C392 C395 1.387 . S
H393 C389 0.943 1_545 S
H394 C391 0.950 . S
C395 C386 1.390 1_565 S
C395 H388 0.950 . S
C395 C392 1.387 . S
C396 C397 1.398 . S
C396 H400 0.960 . S
C396 C405 1.369 1_565 S
C397 C396 1.398 . S
C397 C399 1.387 . S
H398 C405 0.950 . S
C399 C397 1.387 . S
C399 C401 1.390 1_565 S
C399 H403 0.950 . S
H400 C396 0.960 . S
C401 C399 1.390 1_545 S
C401 C402 1.387 . S
C401 H404 0.950 . S
C402 C401 1.387 . S
C402 C405 1.387 . S
H403 C399 0.950 . S
H404 C401 0.950 . S
C405 C396 1.369 1_545 S
C405 H398 0.950 . S
C405 C402 1.387 . S
C406 C407 1.387 . S
C406 H410 0.950 . S
C406 C415 1.390 . S
C407 C406 1.387 . S
C407 C409 1.387 . S
H408 C415 0.950 . S
C409 C407 1.387 . S
C409 C411 1.390 1_545 S
C409 H413 0.950 . S
H410 C406 0.950 . S
C411 C409 1.390 1_565 S
C411 C412 1.387 . S
C411 H414 0.950 . S
C412 C411 1.387 . S
C412 C415 1.387 1_565 S
H413 C409 0.950 . S
H414 C411 0.950 . S
C415 C406 1.390 . S
C415 H408 0.950 . S
C415 C412 1.387 1_545 S
C177 C40 1.404 . S
C182 C8 1.404 . S
C187 C62 1.404 . S
C192 C74 1.404 . S
C197 C128 1.404 . S
C202 C96 1.404 . S
C207 C150 1.404 . S
C212 C162 1.404 . S
C217 C18 1.635 . S
C222 C142 1.635 . S
C227 C32 1.636 . S
C232 C172 1.636 . S
C237 C106 1.635 . S
C242 C54 1.635 . S
C247 C84 1.637 . S
C252 C120 1.637 . S
C257 C65 1.220 . S
C262 C15 1.220 . S
C267 C81 1.220 . S
C272 C43 1.220 . S
C277 C103 1.223 . S
C282 C153 1.223 . S
C287 C131 1.219 . S
C292 C169 1.219 . S
C297 C7 1.672 . S
C302 C37 1.672 . S
C307 C73 1.672 . S
C312 C59 1.672 . S
C317 C125 1.672 . S
C322 C95 1.672 . S
C327 C161 1.673 . S
C332 C147 1.673 . S
C337 C10 1.355 . S
C342 C87 1.417 . S
C347 C30 1.351 . S
C352 C51 1.415 . S
C357 C29 1.415 . S
C362 C52 1.351 . S
C367 C21 1.417 . S
C372 C76 1.353 . S
C377 C98 1.351 . S
C382 C175 1.415 . S
C387 C139 1.415 . S
C392 C118 1.351 . S
C397 C117 1.417 . S
C402 C140 1.355 . S
C407 C164 1.353 . S
C412 C109 1.416 . S
