# Generated by pormake.
# Topology wld, (5)-cn, num edge types: 1
# Building blocks:
#     Node 0, Type 0, BuildingBlock: XOMCOT_clean_sbu_1, # of connection points: 5
#     Node 1, Type 0, BuildingBlock: XOMCOT_clean_sbu_1, # of connection points: 5
#     Node 2, Type 0, BuildingBlock: XOMCOT_clean_sbu_1, # of connection points: 5
#     Node 3, Type 0, BuildingBlock: XOMCOT_clean_sbu_1, # of connection points: 5
#     Node 4, Type 0, BuildingBlock: XOMCOT_clean_sbu_1, # of connection points: 5
#     Node 5, Type 0, BuildingBlock: XOMCOT_clean_sbu_1, # of connection points: 5
#     Node 6, Type 0, BuildingBlock: XOMCOT_clean_sbu_1, # of connection points: 5
#     Node 7, Type 0, BuildingBlock: XOMCOT_clean_sbu_1, # of connection points: 5
#     Node 8, Type 0, BuildingBlock: XOMCOT_clean_sbu_1, # of connection points: 5
#     Node 9, Type 0, BuildingBlock: XOMCOT_clean_sbu_1, # of connection points: 5
#     Node 10, Type 0, BuildingBlock: XOMCOT_clean_sbu_1, # of connection points: 5
#     Node 11, Type 0, BuildingBlock: XOMCOT_clean_sbu_1, # of connection points: 5
#     Edge 12, Type (0, 0), BuildingBlock: ZUJKAS_clean_linker_0, # of connection points: 2
#     Edge 13, Type (0, 0), BuildingBlock: ZUJKAS_clean_linker_0, # of connection points: 2
#     Edge 14, Type (0, 0), BuildingBlock: ZUJKAS_clean_linker_0, # of connection points: 2
#     Edge 15, Type (0, 0), BuildingBlock: ZUJKAS_clean_linker_0, # of connection points: 2
#     Edge 16, Type (0, 0), BuildingBlock: ZUJKAS_clean_linker_0, # of connection points: 2
#     Edge 17, Type (0, 0), BuildingBlock: ZUJKAS_clean_linker_0, # of connection points: 2
#     Edge 18, Type (0, 0), BuildingBlock: ZUJKAS_clean_linker_0, # of connection points: 2
#     Edge 19, Type (0, 0), BuildingBlock: ZUJKAS_clean_linker_0, # of connection points: 2
#     Edge 20, Type (0, 0), BuildingBlock: ZUJKAS_clean_linker_0, # of connection points: 2
#     Edge 21, Type (0, 0), BuildingBlock: ZUJKAS_clean_linker_0, # of connection points: 2
#     Edge 22, Type (0, 0), BuildingBlock: ZUJKAS_clean_linker_0, # of connection points: 2
#     Edge 23, Type (0, 0), BuildingBlock: ZUJKAS_clean_linker_0, # of connection points: 2
#     Edge 24, Type (0, 0), BuildingBlock: ZUJKAS_clean_linker_0, # of connection points: 2
#     Edge 25, Type (0, 0), BuildingBlock: ZUJKAS_clean_linker_0, # of connection points: 2
#     Edge 26, Type (0, 0), BuildingBlock: ZUJKAS_clean_linker_0, # of connection points: 2
#     Edge 27, Type (0, 0), BuildingBlock: ZUJKAS_clean_linker_0, # of connection points: 2
#     Edge 28, Type (0, 0), BuildingBlock: ZUJKAS_clean_linker_0, # of connection points: 2
#     Edge 29, Type (0, 0), BuildingBlock: ZUJKAS_clean_linker_0, # of connection points: 2
#     Edge 30, Type (0, 0), BuildingBlock: ZUJKAS_clean_linker_0, # of connection points: 2
#     Edge 31, Type (0, 0), BuildingBlock: ZUJKAS_clean_linker_0, # of connection points: 2
#     Edge 32, Type (0, 0), BuildingBlock: ZUJKAS_clean_linker_0, # of connection points: 2
#     Edge 33, Type (0, 0), BuildingBlock: ZUJKAS_clean_linker_0, # of connection points: 2
#     Edge 34, Type (0, 0), BuildingBlock: ZUJKAS_clean_linker_0, # of connection points: 2
#     Edge 35, Type (0, 0), BuildingBlock: ZUJKAS_clean_linker_0, # of connection points: 2
#     Edge 36, Type (0, 0), BuildingBlock: ZUJKAS_clean_linker_0, # of connection points: 2
#     Edge 37, Type (0, 0), BuildingBlock: ZUJKAS_clean_linker_0, # of connection points: 2
#     Edge 38, Type (0, 0), BuildingBlock: ZUJKAS_clean_linker_0, # of connection points: 2
#     Edge 39, Type (0, 0), BuildingBlock: ZUJKAS_clean_linker_0, # of connection points: 2
#     Edge 40, Type (0, 0), BuildingBlock: ZUJKAS_clean_linker_0, # of connection points: 2
#     Edge 41, Type (0, 0), BuildingBlock: ZUJKAS_clean_linker_0, # of connection points: 2
# Relax obj value: 0.226
# Max RMSD: 0.209
# Mean RMSD: 0.209
data_MOF--net-wld--node1-XOMCOT_clean_sbu_1--edge1-ZUJKAS_clean_linker_0
_symmetry_space_group_name_H-M    P1
_symmetry_Int_Tables_number       1
_symmetry_cell_setting            triclinic
loop_
_symmetry_equiv_pos_as_xyz
'x, y, z'
_cell_length_a     46.74028
_cell_length_b     46.743411
_cell_length_c     65.472779
_cell_angle_alpha  90.01913
_cell_angle_beta   90.018613
_cell_angle_gamma 119.99397
loop_
_atom_site_label
_atom_site_type_symbol
_atom_site_fract_x
_atom_site_fract_y
_atom_site_fract_z
_atom_type_partial_charge
C0 C 0.41197 0.1906 0.13537 0.0
C1 C 0.43924 0.18672 0.13588 0.0
N2 N 0.45727 0.20039 0.11887 0.0
N3 N 0.41284 0.20687 0.11821 0.0
C4 C 0.44059 0.21242 0.10844 0.0
H5 H 0.39216 0.18114 0.14644 0.0
Co6 Co 0.37991 0.21482 0.10902 0.0
C7 C 0.41658 0.28533 0.09609 0.0
O8 O 0.39289 0.28968 0.10349 0.0
N9 N 0.34557 0.22147 0.0992 0.0
C10 C 0.29738 0.21964 0.09496 0.0
C11 C 0.3152 0.21047 0.10725 0.0
C12 C 0.34457 0.23541 0.08125 0.0
N13 N 0.316 0.23562 0.07867 0.0
O14 O 0.37694 0.19184 0.08434 0.0
H15 H 0.30558 0.19565 0.12079 0.0
H16 H 0.36473 0.24577 0.07041 0.0
O17 O 0.41388 0.2567 0.09697 0.0
C18 C 0.35872 0.16071 0.08629 0.0
O19 O 0.34532 0.14891 0.1042 0.0
N20 N 0.38176 0.2355 0.13429 0.0
C21 C 0.37634 0.26345 0.17068 0.0
C22 C 0.40528 0.2794 0.15894 0.0
C23 C 0.40789 0.26449 0.14108 0.0
C24 C 0.35589 0.21757 0.14707 0.0
C25 C 0.3521 0.23139 0.16503 0.0
H26 H 0.43088 0.27648 0.13278 0.0
H27 H 0.33784 0.19243 0.14322 0.0
H28 H 0.44786 0.22434 0.09369 0.0
H29 H 0.44449 0.17351 0.14749 0.0
H30 H 0.27232 0.21428 0.09762 0.0
H31 H 0.42563 0.30324 0.16344 0.0
H32 H 0.32985 0.2174 0.17396 0.0
C33 C 0.82435 0.21617 0.1279 0.0
C34 C 0.83123 0.2484 0.12909 0.0
N35 N 0.81223 0.25262 0.11533 0.0
N36 N 0.8011 0.20023 0.11348 0.0
C37 C 0.79435 0.22311 0.10602 0.0
H38 H 0.83591 0.20515 0.13673 0.0
Co39 Co 0.78549 0.15713 0.10512 0.0
C40 C 0.71705 0.13336 0.08972 0.0
O41 O 0.70783 0.10292 0.0952 0.0
N42 N 0.77077 0.11321 0.09637 0.0
C43 C 0.75709 0.06027 0.09451 0.0
C44 C 0.7661 0.08663 0.10728 0.0
C45 C 0.76471 0.10209 0.07682 0.0
N46 N 0.75629 0.06996 0.0753 0.0
O47 O 0.80937 0.17334 0.08026 0.0
H48 H 0.76922 0.08569 0.12348 0.0
H49 H 0.76681 0.11745 0.0639 0.0
O50 O 0.74689 0.15626 0.0927 0.0
C51 C 0.83881 0.17867 0.08123 0.0
O52 O 0.84875 0.17158 0.0983 0.0
N53 N 0.76427 0.14259 0.13054 0.0
C54 C 0.73663 0.11505 0.16825 0.0
C55 C 0.72126 0.12729 0.15531 0.0
C56 C 0.73584 0.1416 0.13665 0.0
C57 C 0.78183 0.13543 0.14415 0.0
C58 C 0.7681 0.1207 0.16284 0.0
H59 H 0.72408 0.15171 0.12732 0.0
H60 H 0.80567 0.13889 0.13975 0.0
H61 H 0.77759 0.21867 0.09349 0.0
H62 H 0.84881 0.26723 0.13929 0.0
H63 H 0.7514 0.03576 0.09913 0.0
H64 H 0.69795 0.12544 0.15942 0.0
H65 H 0.78139 0.1123 0.17234 0.0
C66 C 0.78025 0.61744 0.11888 0.0
C67 C 0.74659 0.5967 0.12099 0.0
N68 N 0.73709 0.57115 0.10797 0.0
N69 N 0.79168 0.60487 0.10462 0.0
C70 C 0.76481 0.577 0.09814 0.0
H71 H 0.79545 0.63994 0.12734 0.0
Co72 Co 0.83442 0.62059 0.09524 0.0
C73 C 0.82886 0.56144 0.076 0.0
O74 O 0.84172 0.57802 0.05907 0.0
N75 N 0.87759 0.6357 0.08571 0.0
C76 C 0.92673 0.63978 0.08201 0.0
C77 C 0.89751 0.6245 0.09247 0.0
C78 C 0.89541 0.65787 0.07102 0.0
N79 N 0.92543 0.66064 0.06835 0.0
O80 O 0.81969 0.62241 0.06831 0.0
H81 H 0.89104 0.60588 0.10412 0.0
H82 H 0.88622 0.671 0.06208 0.0
O83 O 0.82478 0.57574 0.09136 0.0
C84 C 0.81913 0.64919 0.06605 0.0
O85 O 0.82968 0.67052 0.0812 0.0
N86 N 0.84888 0.62137 0.12185 0.0
C87 C 0.88404 0.63138 0.15783 0.0
C88 C 0.86005 0.59934 0.15192 0.0
C89 C 0.84249 0.59479 0.13372 0.0
C90 C 0.86973 0.65269 0.12841 0.0
C91 C 0.88786 0.65828 0.14627 0.0
H92 H 0.82503 0.57001 0.12877 0.0
H93 H 0.87379 0.67339 0.11898 0.0
H94 H 0.76552 0.56133 0.08622 0.0
H95 H 0.73057 0.59976 0.1316 0.0
H96 H 0.94729 0.63564 0.08436 0.0
H97 H 0.8562 0.57804 0.16067 0.0
H98 H 0.90561 0.6834 0.15063 0.0
C99 C 0.16257 0.38571 0.37134 0.0
C100 C 0.14947 0.40632 0.36985 0.0
N101 N 0.16398 0.43027 0.38408 0.0
N102 N 0.18536 0.39682 0.38633 0.0
C103 C 0.1855 0.42376 0.39385 0.0
H104 H 0.15593 0.36403 0.36215 0.0
Co105 Co 0.21083 0.3792 0.39556 0.0
C106 C 0.26361 0.43535 0.41774 0.0
O107 O 0.2581 0.41683 0.434 0.0
N108 N 0.23705 0.36193 0.4049 0.0
C109 C 0.28064 0.35557 0.40944 0.0
C110 C 0.26867 0.37298 0.39926 0.0
C111 C 0.23037 0.33775 0.4186 0.0
N112 N 0.2566 0.33342 0.42165 0.0
O113 O 0.1921 0.37473 0.42214 0.0
H114 H 0.28256 0.39313 0.38878 0.0
H115 H 0.20692 0.32384 0.42635 0.0
O116 O 0.24626 0.4231 0.4017 0.0
C117 C 0.16319 0.34958 0.42299 0.0
O118 O 0.15185 0.33036 0.40685 0.0
N119 N 0.22679 0.38133 0.36918 0.0
C120 C 0.25173 0.37589 0.33169 0.0
C121 C 0.26111 0.40709 0.34 0.0
C122 C 0.24805 0.40932 0.35877 0.0
C123 C 0.21593 0.35099 0.36081 0.0
C124 C 0.22822 0.34765 0.34215 0.0
H125 H 0.25569 0.43343 0.36511 0.0
H126 H 0.19865 0.32916 0.36918 0.0
H127 H 0.20146 0.43852 0.40618 0.0
H128 H 0.13049 0.40358 0.35925 0.0
H129 H 0.30562 0.35989 0.40854 0.0
H130 H 0.27868 0.4295 0.33221 0.0
H131 H 0.22042 0.32308 0.33645 0.0
C132 C 0.60774 0.78021 0.37108 0.0
C133 C 0.58286 0.74772 0.37062 0.0
N134 N 0.56007 0.74369 0.38466 0.0
N135 N 0.60057 0.7965 0.38531 0.0
C136 C 0.57147 0.7736 0.39339 0.0
H137 H 0.62993 0.79118 0.3619 0.0
Co138 Co 0.62783 0.84005 0.39285 0.0
C139 C 0.58261 0.86457 0.40535 0.0
O140 O 0.60365 0.89407 0.3983 0.0
N141 N 0.65681 0.88437 0.40087 0.0
C142 C 0.69676 0.93707 0.40234 0.0
C143 C 0.68125 0.90954 0.39022 0.0
C144 C 0.65902 0.89723 0.41976 0.0
N145 N 0.68272 0.92937 0.42091 0.0
O146 O 0.63541 0.82549 0.41838 0.0
H147 H 0.68861 0.90854 0.37482 0.0
H148 H 0.64313 0.88336 0.43236 0.0
O149 O 0.58974 0.8415 0.40435 0.0
C150 C 0.65977 0.8205 0.41782 0.0
O151 O 0.67647 0.82648 0.40069 0.0
N152 N 0.62134 0.85312 0.36681 0.0
C153 C 0.62092 0.87927 0.32865 0.0
C154 C 0.59267 0.8656 0.34108 0.0
C155 C 0.59313 0.85192 0.35996 0.0
C156 C 0.64673 0.86124 0.3536 0.0
C157 C 0.64762 0.87542 0.33471 0.0
H158 H 0.57081 0.84058 0.3689 0.0
H159 H 0.66747 0.85858 0.35832 0.0
H160 H 0.55947 0.77836 0.40597 0.0
H161 H 0.58165 0.72858 0.36074 0.0
H162 H 0.71752 0.9607 0.39798 0.0
H163 H 0.57058 0.86588 0.33643 0.0
H164 H 0.66975 0.88469 0.32554 0.0
C165 C 0.22007 0.81393 0.36114 0.0
C166 C 0.25136 0.81819 0.36017 0.0
N167 N 0.25598 0.80343 0.37655 0.0
N168 N 0.20483 0.79633 0.37796 0.0
C169 C 0.22726 0.79037 0.38706 0.0
H170 H 0.20962 0.82417 0.3507 0.0
Co171 Co 0.16421 0.78773 0.38796 0.0
C172 C 0.13099 0.71713 0.4007 0.0
O173 O 0.10231 0.71297 0.3947 0.0
N174 N 0.12342 0.78033 0.39864 0.0
C175 C 0.0766 0.78071 0.40422 0.0
C176 C 0.10206 0.78897 0.39078 0.0
C177 C 0.1109 0.76819 0.41737 0.0
N178 N 0.08207 0.76745 0.42095 0.0
O179 O 0.18512 0.80981 0.41266 0.0
H180 H 0.10468 0.80138 0.37648 0.0
H181 H 0.12295 0.76026 0.42826 0.0
O182 O 0.15694 0.74558 0.39904 0.0
C183 C 0.19306 0.8401 0.41211 0.0
O184 O 0.18581 0.85126 0.39563 0.0
N185 N 0.1446 0.76822 0.36269 0.0
C186 C 0.10981 0.74377 0.32634 0.0
C187 C 0.12101 0.72548 0.33729 0.0
C188 C 0.13921 0.73859 0.35523 0.0
C189 C 0.13823 0.7881 0.35063 0.0
C190 C 0.12006 0.77612 0.33267 0.0
H191 H 0.14857 0.72467 0.36304 0.0
H192 H 0.14653 0.81323 0.35533 0.0
H193 H 0.22281 0.77754 0.40147 0.0
H194 H 0.26974 0.83247 0.34875 0.0
H195 H 0.05559 0.78408 0.40174 0.0
H196 H 0.11496 0.70093 0.33243 0.0
H197 H 0.1137 0.79188 0.32399 0.0
C198 C 0.60433 0.82566 0.86029 0.0
C199 C 0.57908 0.83269 0.8613 0.0
N200 N 0.56049 0.81735 0.87782 0.0
N201 N 0.60157 0.80593 0.87606 0.0
C202 C 0.57469 0.80134 0.8865 0.0
H203 H 0.62392 0.83493 0.84908 0.0
Co204 Co 0.63167 0.79272 0.88267 0.0
C205 C 0.5891 0.72301 0.89611 0.0
O206 O 0.60852 0.71451 0.88662 0.0
N207 N 0.66363 0.7808 0.88973 0.0
C208 C 0.70998 0.77828 0.89035 0.0
C209 C 0.69273 0.79053 0.88022 0.0
C210 C 0.66504 0.7645 0.9065 0.0
N211 N 0.69242 0.76165 0.90682 0.0
O212 O 0.64104 0.81673 0.90754 0.0
H213 H 0.70211 0.80689 0.86731 0.0
H214 H 0.6463 0.75479 0.91826 0.0
O215 O 0.5963 0.75327 0.89607 0.0
C216 C 0.66312 0.84695 0.90568 0.0
O217 O 0.677 0.85749 0.88772 0.0
N218 N 0.62311 0.77077 0.85715 0.0
C219 C 0.61737 0.7393 0.81993 0.0
C220 C 0.59036 0.72757 0.83328 0.0
C221 C 0.59345 0.74431 0.85156 0.0
C222 C 0.64756 0.78526 0.84297 0.0
C223 C 0.64574 0.76948 0.82455 0.0
H224 H 0.57197 0.73571 0.86119 0.0
H225 H 0.66868 0.80923 0.84595 0.0
H226 H 0.56657 0.7878 0.90071 0.0
H227 H 0.57489 0.8481 0.8508 0.0
H228 H 0.73418 0.78234 0.88629 0.0
H229 H 0.56715 0.70557 0.82972 0.0
H230 H 0.66685 0.78042 0.81441 0.0
C231 C 0.18498 0.78491 0.86804 0.0
C232 C 0.17695 0.75232 0.86777 0.0
N233 N 0.19331 0.74734 0.88307 0.0
N234 N 0.20654 0.80059 0.8833 0.0
C235 C 0.21095 0.77706 0.89231 0.0
H236 H 0.17519 0.79632 0.85801 0.0
Co237 Co 0.22268 0.84435 0.89054 0.0
C238 C 0.29159 0.8689 0.90457 0.0
O239 O 0.30038 0.89828 0.89716 0.0
N240 N 0.23777 0.88886 0.89824 0.0
C241 C 0.24818 0.94083 0.89947 0.0
C242 C 0.23763 0.91342 0.8874 0.0
C243 C 0.2478 0.90205 0.91714 0.0
N244 N 0.25457 0.93372 0.91823 0.0
O245 O 0.19935 0.83008 0.91564 0.0
H246 H 0.2295 0.91198 0.87189 0.0
H247 H 0.24949 0.88837 0.92996 0.0
O248 O 0.2615 0.84572 0.90306 0.0
C249 C 0.17226 0.83034 0.91582 0.0
O250 O 0.164 0.8411 0.89957 0.0
N251 N 0.24349 0.85725 0.86482 0.0
C252 C 0.27103 0.88269 0.8267 0.0
C253 C 0.28552 0.86964 0.83973 0.0
C254 C 0.27092 0.85632 0.85859 0.0
C255 C 0.22655 0.86506 0.85114 0.0
C256 C 0.24029 0.87883 0.83228 0.0
H257 H 0.28186 0.84543 0.86801 0.0
H258 H 0.20291 0.86224 0.85541 0.0
H259 H 0.2265 0.7816 0.90553 0.0
H260 H 0.15958 0.73358 0.85746 0.0
H261 H 0.25078 0.96419 0.89474 0.0
H262 H 0.30812 0.87003 0.83554 0.0
H263 H 0.22751 0.88772 0.8227 0.0
C264 C 0.22227 0.41328 0.86589 0.0
C265 C 0.25312 0.44064 0.8637 0.0
N266 N 0.26004 0.4595 0.88062 0.0
N267 N 0.20964 0.41496 0.88403 0.0
C268 C 0.23311 0.44324 0.89266 0.0
H269 H 0.21028 0.39286 0.85531 0.0
Co270 Co 0.17091 0.38228 0.89574 0.0
C271 C 0.14044 0.42258 0.9083 0.0
O272 O 0.11187 0.40076 0.90039 0.0
N273 N 0.13276 0.34803 0.90797 0.0
C274 C 0.09832 0.29615 0.91745 0.0
C275 C 0.12474 0.31624 0.90533 0.0
C276 C 0.11186 0.34666 0.92278 0.0
N277 N 0.09014 0.31531 0.92844 0.0
O278 O 0.19513 0.38187 0.91906 0.0
H279 H 0.13814 0.3082 0.89567 0.0
H280 H 0.11374 0.36801 0.93039 0.0
O281 O 0.16451 0.41687 0.90824 0.0
C282 C 0.21137 0.36692 0.91659 0.0
O283 O 0.21161 0.35503 0.89844 0.0
N284 N 0.14724 0.3815 0.87192 0.0
C285 C 0.11093 0.37715 0.83695 0.0
C286 C 0.13104 0.40772 0.84641 0.0
C287 C 0.14961 0.40948 0.86361 0.0
C288 C 0.1299 0.35216 0.86186 0.0
C289 C 0.1111 0.34928 0.84466 0.0
H290 H 0.16574 0.43339 0.87032 0.0
H291 H 0.13071 0.3307 0.8669 0.0
H292 H 0.23074 0.45105 0.9078 0.0
H293 H 0.26969 0.44531 0.85101 0.0
H294 H 0.08644 0.2695 0.91828 0.0
H295 H 0.13267 0.43012 0.84048 0.0
H296 H 0.09648 0.32522 0.83766 0.0
C297 C 0.81106 0.58874 0.6324 0.0
C298 C 0.81471 0.56141 0.63404 0.0
N299 N 0.80277 0.54312 0.6169 0.0
N300 N 0.79669 0.58766 0.61439 0.0
C301 C 0.79202 0.55976 0.60526 0.0
H302 H 0.81933 0.6087 0.64332 0.0
Co303 Co 0.79021 0.62069 0.60369 0.0
C304 C 0.72005 0.5807 0.59007 0.0
O305 O 0.71281 0.60165 0.59878 0.0
N306 N 0.78585 0.65546 0.59254 0.0
C307 C 0.80091 0.70782 0.58575 0.0
C308 C 0.80829 0.68728 0.59662 0.0
C309 C 0.76643 0.6575 0.5779 0.0
N310 N 0.77442 0.68903 0.57402 0.0
O311 O 0.81595 0.62344 0.58042 0.0
H312 H 0.82952 0.69515 0.60645 0.0
H313 H 0.74749 0.63661 0.56965 0.0
O314 O 0.74992 0.58665 0.59019 0.0
C315 C 0.84696 0.63926 0.58363 0.0
O316 O 0.85765 0.65057 0.6021 0.0
N317 N 0.76631 0.61906 0.62757 0.0
C318 C 0.73254 0.61999 0.66255 0.0
C319 C 0.72284 0.59032 0.65213 0.0
C320 C 0.7406 0.59025 0.63497 0.0
C321 C 0.77772 0.64739 0.63867 0.0
C322 C 0.76089 0.64859 0.65589 0.0
H323 H 0.73339 0.567 0.62749 0.0
H324 H 0.8002 0.6693 0.63446 0.0
H325 H 0.78177 0.55246 0.5901 0.0
H326 H 0.82659 0.55634 0.64658 0.0
H327 H 0.81473 0.73456 0.58587 0.0
H328 H 0.70189 0.56736 0.65726 0.0
H329 H 0.76981 0.67197 0.6637 0.0
C330 C 0.40606 0.21998 0.62835 0.0
C331 C 0.43105 0.25242 0.62854 0.0
N332 N 0.44961 0.25795 0.61166 0.0
N333 N 0.40898 0.20508 0.6115 0.0
C334 C 0.43562 0.22884 0.60158 0.0
H335 H 0.38659 0.20818 0.63955 0.0
Co336 Co 0.37958 0.16244 0.60299 0.0
C337 C 0.42348 0.13701 0.5886 0.0
O338 O 0.4028 0.10732 0.59557 0.0
N339 N 0.34847 0.11947 0.59398 0.0
C340 C 0.30145 0.07175 0.59014 0.0
C341 C 0.31865 0.09894 0.60236 0.0
C342 C 0.34795 0.10465 0.57606 0.0
N343 N 0.31998 0.07529 0.57363 0.0
O344 O 0.37217 0.17943 0.57844 0.0
H345 H 0.30872 0.10369 0.61593 0.0
H346 H 0.36724 0.11565 0.56467 0.0
O347 O 0.4164 0.16005 0.59032 0.0
C348 C 0.34826 0.18497 0.58021 0.0
O349 O 0.33299 0.179 0.59789 0.0
N350 N 0.38555 0.14627 0.62815 0.0
C351 C 0.38544 0.11616 0.66496 0.0
C352 C 0.41373 0.13078 0.65257 0.0
C353 C 0.41355 0.14648 0.63442 0.0
C354 C 0.35993 0.13658 0.6414 0.0
C355 C 0.3588 0.12051 0.65955 0.0
H356 H 0.436 0.15873 0.62561 0.0
H357 H 0.33999 0.14108 0.63777 0.0
H358 H 0.44372 0.22524 0.58681 0.0
H359 H 0.4351 0.27056 0.64014 0.0
H360 H 0.27699 0.05112 0.59308 0.0
H361 H 0.43575 0.13003 0.65677 0.0
H362 H 0.33673 0.11075 0.66882 0.0
C363 C 0.78032 0.17693 0.63652 0.0
C364 C 0.74801 0.16981 0.63623 0.0
N365 N 0.7432 0.1832 0.61924 0.0
N366 N 0.79595 0.19498 0.61991 0.0
C367 C 0.77272 0.19828 0.60962 0.0
H368 H 0.7916 0.16907 0.64798 0.0
Co369 Co 0.83922 0.20886 0.61254 0.0
C370 C 0.86522 0.27802 0.59832 0.0
O371 O 0.89414 0.28681 0.60652 0.0
N372 N 0.88306 0.22174 0.60469 0.0
C373 C 0.9343 0.22998 0.60378 0.0
C374 C 0.90582 0.21763 0.61501 0.0
C375 C 0.89799 0.235 0.58661 0.0
N376 N 0.92945 0.24113 0.58596 0.0
O377 O 0.82384 0.18493 0.58767 0.0
H378 H 0.90232 0.20562 0.62954 0.0
H379 H 0.88623 0.2408 0.57432 0.0
O380 O 0.84202 0.24792 0.59947 0.0
C381 C 0.81489 0.15446 0.58917 0.0
O382 O 0.81787 0.14313 0.60694 0.0
N383 N 0.85335 0.2307 0.63802 0.0
C384 C 0.87953 0.2604 0.67561 0.0
C385 C 0.86581 0.27386 0.66233 0.0
C386 C 0.85197 0.25808 0.64382 0.0
C387 C 0.86194 0.21479 0.65203 0.0
C388 C 0.87607 0.22961 0.67065 0.0
H389 H 0.84018 0.26803 0.63434 0.0
H390 H 0.85843 0.19064 0.64852 0.0
H391 H 0.77713 0.21053 0.59499 0.0
H392 H 0.72955 0.15585 0.64768 0.0
H393 H 0.95667 0.23008 0.60821 0.0
H394 H 0.8659 0.29646 0.66613 0.0
H395 H 0.88519 0.2175 0.68064 0.0
H396 H 0.65025 0.09458 0.09376 0.0
H397 H 0.60907 0.11182 0.09232 0.0
H398 H 0.68411 0.20979 0.07432 0.0
H399 H 0.7258 0.1928 0.07612 0.0
H400 H 0.64968 0.21273 0.10531 0.0
H401 H 0.56129 0.12902 0.04777 0.0
H402 H 0.56836 0.10577 0.06684 0.0
H403 H 0.60195 0.13404 0.05073 0.0
C404 C 0.65799 0.11961 0.08903 0.0
C405 C 0.69146 0.14239 0.08522 0.0
C406 C 0.63427 0.12941 0.08809 0.0
C407 C 0.64332 0.16202 0.08296 0.0
C408 C 0.6765 0.18446 0.07826 0.0
H409 H 0.48142 0.20641 0.08021 0.0
H410 H 0.52956 0.20265 0.06969 0.0
C411 C 0.70033 0.17472 0.07933 0.0
C412 C 0.61876 0.17327 0.08467 0.0
H413 H 0.53928 0.15138 0.07272 0.0
C414 C 0.62576 0.19968 0.09787 0.0
C415 C 0.58774 0.15677 0.07471 0.0
C416 C 0.57956 0.13008 0.05905 0.0
C417 C 0.60194 0.20871 0.10231 0.0
C418 C 0.56994 0.19025 0.09376 0.0
C419 C 0.5636 0.16518 0.07959 0.0
C420 C 0.54219 0.19511 0.10024 0.0
C421 C 0.61131 0.23777 0.11627 0.0
C422 C 0.5332 0.19213 0.12091 0.0
C423 C 0.50595 0.19471 0.12703 0.0
C424 C 0.48661 0.19976 0.11258 0.0
C425 C 0.49583 0.20295 0.09185 0.0
C426 C 0.52328 0.20058 0.08576 0.0
H427 H 0.63823 0.25575 0.11546 0.0
H428 H 0.5976 0.25076 0.11238 0.0
H429 H 0.60546 0.22891 0.13227 0.0
H430 H 0.54685 0.1871 0.13234 0.0
H431 H 0.49996 0.19247 0.14311 0.0
H432 H 0.86337 0.3152 0.11803 0.0
H433 H 0.86242 0.36597 0.11061 0.0
H434 H 0.75884 0.30863 0.09555 0.0
H435 H 0.75987 0.2577 0.10259 0.0
H436 H 0.79177 0.35689 0.06809 0.0
H437 H 0.82455 0.40919 0.14609 0.0
H438 H 0.85454 0.39997 0.13573 0.0
H439 H 0.81307 0.367 0.14049 0.0
C440 C 0.84035 0.31346 0.11333 0.0
C441 C 0.81165 0.28252 0.11103 0.0
C442 C 0.8398 0.34247 0.10913 0.0
C443 C 0.8104 0.34114 0.10294 0.0
C444 C 0.78177 0.31025 0.1004 0.0
H445 H 0.79012 0.51623 0.10457 0.0
H446 H 0.78218 0.46099 0.10994 0.0
C447 C 0.7824 0.28119 0.10438 0.0
C448 C 0.80968 0.37196 0.09877 0.0
H449 H 0.82797 0.44602 0.11974 0.0
C450 C 0.79943 0.3763 0.07942 0.0
C451 C 0.81911 0.39701 0.11369 0.0
C452 C 0.82809 0.39296 0.13522 0.0
C453 C 0.79919 0.40539 0.07441 0.0
C454 C 0.8103 0.43114 0.08898 0.0
C455 C 0.81976 0.42643 0.10849 0.0
C456 C 0.81271 0.46336 0.08441 0.0
C457 C 0.78659 0.40799 0.05367 0.0
C458 C 0.83226 0.48297 0.06814 0.0
C459 C 0.83653 0.51444 0.06489 0.0
C460 C 0.82186 0.52708 0.07811 0.0
C461 C 0.8019 0.50722 0.09419 0.0
C462 C 0.79733 0.47565 0.09728 0.0
H463 H 0.7696 0.3832 0.04715 0.0
H464 H 0.77341 0.4222 0.05442 0.0
H465 H 0.8078 0.42086 0.04306 0.0
H466 H 0.84507 0.47439 0.05833 0.0
H467 H 0.85231 0.5293 0.0525 0.0
H468 H 0.6779 0.56766 0.1137 0.0
H469 H 0.62296 0.51879 0.10913 0.0
H470 H 0.66814 0.46149 0.09173 0.0
H471 H 0.72279 0.50971 0.09663 0.0
H472 H 0.59657 0.47817 0.07213 0.0
H473 H 0.60358 0.40819 0.13874 0.0
H474 H 0.63037 0.45224 0.136 0.0
H475 H 0.63822 0.42416 0.12161 0.0
C476 C 0.67607 0.54457 0.10907 0.0
C477 C 0.7047 0.54261 0.10549 0.0
C478 C 0.64474 0.51678 0.10634 0.0
C479 C 0.64158 0.48654 0.10024 0.0
C480 C 0.67007 0.48453 0.09662 0.0
H481 H 0.47489 0.28751 0.08676 0.0
H482 H 0.52978 0.33668 0.08487 0.0
C483 C 0.7013 0.51224 0.09925 0.0
C484 C 0.60856 0.45694 0.09759 0.0
H485 H 0.558 0.37969 0.11656 0.0
C486 C 0.58801 0.45663 0.08186 0.0
C487 C 0.59768 0.42887 0.11022 0.0
C488 C 0.61843 0.42829 0.12771 0.0
C489 C 0.5569 0.42872 0.07826 0.0
C490 C 0.54588 0.40072 0.09102 0.0
C491 C 0.56656 0.40107 0.1067 0.0
C492 C 0.51238 0.37135 0.08918 0.0
C493 C 0.5364 0.42929 0.06063 0.0
C494 C 0.48432 0.37452 0.09182 0.0
C495 C 0.45293 0.34652 0.09279 0.0
C496 C 0.44899 0.3147 0.0914 0.0
C497 C 0.477 0.31161 0.08786 0.0
C498 C 0.50843 0.33969 0.08685 0.0
H499 H 0.55203 0.44749 0.04882 0.0
H500 H 0.52222 0.40457 0.05338 0.0
H501 H 0.51862 0.43659 0.06633 0.0
H502 H 0.48678 0.39861 0.09408 0.0
H503 H 0.43193 0.34984 0.09557 0.0
H504 H 0.17651 0.46584 0.41914 0.0
H505 H 0.17092 0.51434 0.4247 0.0
H506 H 0.13261 0.50527 0.36367 0.0
H507 H 0.13955 0.45753 0.35759 0.0
H508 H 0.18033 0.56813 0.37246 0.0
H509 H 0.08812 0.51926 0.43504 0.0
H510 H 0.12443 0.51658 0.4402 0.0
H511 H 0.09748 0.49303 0.41956 0.0
C512 C 0.16704 0.47414 0.40681 0.0
C513 C 0.15862 0.4577 0.38784 0.0
C514 C 0.16342 0.50168 0.41015 0.0
C515 C 0.15089 0.51316 0.39472 0.0
C516 C 0.14215 0.4967 0.37584 0.0
H517 H 0.08198 0.65252 0.40072 0.0
H518 H 0.08829 0.6038 0.40106 0.0
C519 C 0.1459 0.46922 0.37244 0.0
C520 C 0.1483 0.54321 0.3979 0.0
H521 H 0.11297 0.57673 0.42808 0.0
C522 C 0.16557 0.57001 0.3846 0.0
C523 C 0.12883 0.5455 0.41368 0.0
C524 C 0.1084 0.51696 0.42782 0.0
C525 C 0.16394 0.59905 0.38661 0.0
C526 C 0.14512 0.60167 0.40269 0.0
C527 C 0.12777 0.57484 0.41597 0.0
C528 C 0.14134 0.63117 0.40501 0.0
C529 C 0.18158 0.62623 0.3711 0.0
C530 C 0.16894 0.6627 0.40797 0.0
C531 C 0.16546 0.69074 0.40767 0.0
C532 C 0.13425 0.68766 0.40456 0.0
C533 C 0.10642 0.65586 0.40299 0.0
C534 C 0.10995 0.62791 0.4032 0.0
H535 H 0.18806 0.61721 0.35712 0.0
H536 H 0.16615 0.63712 0.36659 0.0
H537 H 0.20484 0.64609 0.37787 0.0
H538 H 0.1933 0.6657 0.40991 0.0
H539 H 0.18737 0.71483 0.40911 0.0
H540 H 0.5022 0.73747 0.39748 0.0
H541 H 0.45115 0.68603 0.40519 0.0
H542 H 0.49968 0.63043 0.3913 0.0
H543 H 0.55047 0.68171 0.38316 0.0
H544 H 0.44121 0.60412 0.37324 0.0
H545 H 0.42682 0.62722 0.45457 0.0
H546 H 0.42969 0.65903 0.43792 0.0
H547 H 0.46437 0.65254 0.44049 0.0
C548 C 0.50202 0.71427 0.3963 0.0
C549 C 0.53029 0.71356 0.38972 0.0
C550 C 0.4729 0.68491 0.4008 0.0
C551 C 0.47172 0.65438 0.39918 0.0
C552 C 0.50002 0.6537 0.39271 0.0
H553 H 0.31743 0.46333 0.44305 0.0
H554 H 0.36756 0.5172 0.43902 0.0
C555 C 0.52898 0.68297 0.38798 0.0
C556 C 0.44064 0.62297 0.40317 0.0
H557 H 0.38072 0.58113 0.43891 0.0
C558 C 0.42808 0.59906 0.38764 0.0
C559 C 0.42373 0.61618 0.42206 0.0
C560 C 0.43699 0.63995 0.43979 0.0
C561 C 0.39896 0.56874 0.39036 0.0
C562 C 0.3813 0.5625 0.40892 0.0
C563 C 0.39405 0.58617 0.42459 0.0
C564 C 0.3499 0.53122 0.41241 0.0
C565 C 0.38784 0.5434 0.37346 0.0
C566 C 0.32295 0.52176 0.39923 0.0
C567 C 0.29449 0.49095 0.40137 0.0
C568 C 0.29222 0.46923 0.41696 0.0
C569 C 0.31848 0.47951 0.43087 0.0
C570 C 0.34713 0.51025 0.42858 0.0
H571 H 0.40856 0.54807 0.36309 0.0
H572 H 0.37717 0.51802 0.37971 0.0
H573 H 0.36861 0.54464 0.36419 0.0
H574 H 0.32419 0.53795 0.38701 0.0
H575 H 0.27445 0.48393 0.39061 0.0
H576 H 0.53073 0.80571 0.41894 0.0
H577 H 0.47226 0.78983 0.41972 0.0
H578 H 0.4976 0.88805 0.40067 0.0
H579 H 0.55585 0.9043 0.40035 0.0
H580 H 0.44867 0.8641 0.42859 0.0
H581 H 0.42012 0.7712 0.36731 0.0
H582 H 0.43714 0.76463 0.39023 0.0
H583 H 0.46186 0.8005 0.3748 0.0
C584 C 0.52389 0.82404 0.41517 0.0
C585 C 0.548 0.85614 0.40925 0.0
C586 C 0.49041 0.81486 0.4155 0.0
C587 C 0.48045 0.8375 0.40971 0.0
C588 C 0.50464 0.87006 0.40505 0.0
H589 H 0.30745 0.81501 0.35192 0.0
H590 H 0.36013 0.82068 0.3621 0.0
C591 C 0.53803 0.87932 0.40487 0.0
C592 C 0.44499 0.82729 0.40733 0.0
H593 H 0.37632 0.77797 0.37891 0.0
C594 C 0.4327 0.84504 0.41788 0.0
C595 C 0.42433 0.80266 0.39315 0.0
C596 C 0.4365 0.7838 0.38057 0.0
C597 C 0.40072 0.83957 0.41424 0.0
C598 C 0.38013 0.81505 0.39999 0.0
C599 C 0.39207 0.79661 0.3899 0.0
C600 C 0.34726 0.81007 0.39403 0.0
C601 C 0.38996 0.86126 0.42491 0.0
C602 C 0.32213 0.80157 0.4085 0.0
C603 C 0.292 0.79886 0.40278 0.0
C604 C 0.28623 0.80422 0.38238 0.0
C605 C 0.31109 0.81143 0.36782 0.0
C606 C 0.34122 0.81439 0.37359 0.0
H607 H 0.41124 0.88372 0.43153 0.0
H608 H 0.3767 0.86907 0.41423 0.0
H609 H 0.37292 0.8472 0.43757 0.0
H610 H 0.32592 0.79737 0.42428 0.0
H611 H 0.27367 0.79333 0.41449 0.0
H612 H 0.35832 0.90986 0.9029 0.0
H613 H 0.4009 0.89454 0.90519 0.0
H614 H 0.32716 0.79469 0.92059 0.0
H615 H 0.28401 0.80963 0.91778 0.0
H616 H 0.42296 0.8686 0.93432 0.0
H617 H 0.36721 0.78096 0.86928 0.0
H618 H 0.35349 0.80939 0.87645 0.0
H619 H 0.34105 0.77255 0.89116 0.0
C620 C 0.35105 0.8847 0.90703 0.0
C621 C 0.31761 0.86081 0.90976 0.0
C622 C 0.37552 0.87599 0.90837 0.0
C623 C 0.36715 0.84329 0.91256 0.0
C624 C 0.33408 0.81987 0.91678 0.0
H625 H 0.50699 0.76959 0.89763 0.0
H626 H 0.45863 0.77266 0.9094 0.0
C627 C 0.30946 0.82852 0.9153 0.0
C628 C 0.393 0.83379 0.91109 0.0
H629 H 0.41769 0.78927 0.88202 0.0
C630 C 0.42161 0.85092 0.92307 0.0
C631 C 0.39125 0.81072 0.89636 0.0
C632 C 0.36177 0.79249 0.88244 0.0
C633 C 0.44891 0.84649 0.92023 0.0
C634 C 0.44758 0.82447 0.90499 0.0
C635 C 0.41847 0.80607 0.89372 0.0
C636 C 0.47723 0.82281 0.89901 0.0
C637 C 0.47935 0.86602 0.93316 0.0
C638 C 0.50339 0.84987 0.88915 0.0
C639 C 0.5307 0.84807 0.88227 0.0
C640 C 0.53247 0.81922 0.88522 0.0
C641 C 0.50637 0.79222 0.89533 0.0
C642 C 0.47879 0.7939 0.902 0.0
H643 H 0.47378 0.87544 0.9473 0.0
H644 H 0.49049 0.85071 0.93742 0.0
H645 H 0.49794 0.88752 0.92426 0.0
H646 H 0.50241 0.87224 0.88648 0.0
H647 H 0.55056 0.86935 0.87475 0.0
H648 H 0.09767 0.44603 0.90418 0.0
H649 H 0.11093 0.50353 0.90509 0.0
H650 H 0.21072 0.53361 0.9233 0.0
H651 H 0.19787 0.47605 0.92204 0.0
H652 H 0.13495 0.55341 0.93387 0.0
H653 H 0.22403 0.58381 0.87002 0.0
H654 H 0.19593 0.54189 0.87778 0.0
H655 H 0.23259 0.56724 0.89244 0.0
C656 C 0.12233 0.46474 0.90869 0.0
C657 C 0.14685 0.45642 0.91271 0.0
C658 C 0.12987 0.49767 0.90921 0.0
C659 C 0.16201 0.52295 0.9138 0.0
C660 C 0.18596 0.51456 0.91924 0.0
H661 H 0.20618 0.72977 0.92019 0.0
H662 H 0.20154 0.67686 0.92936 0.0
C663 C 0.17849 0.48159 0.91864 0.0
C664 C 0.17066 0.55799 0.91145 0.0
H665 H 0.21673 0.62688 0.88251 0.0
C666 C 0.15306 0.56963 0.92279 0.0
C667 C 0.194 0.57893 0.89677 0.0
C668 C 0.21257 0.56737 0.8834 0.0
C669 C 0.15769 0.60142 0.91959 0.0
C670 C 0.18097 0.6223 0.90488 0.0
C671 C 0.19907 0.6109 0.89387 0.0
C672 C 0.18507 0.655 0.89945 0.0
C673 C 0.1366 0.6118 0.93132 0.0
C674 C 0.17839 0.6607 0.87945 0.0
C675 C 0.18146 0.69102 0.87408 0.0
C676 C 0.19132 0.71645 0.88859 0.0
C677 C 0.19866 0.7109 0.90857 0.0
C678 C 0.19565 0.68049 0.91392 0.0
H679 H 0.11514 0.59046 0.9387 0.0
H680 H 0.15171 0.62948 0.94348 0.0
H681 H 0.12729 0.62434 0.92113 0.0
H682 H 0.17043 0.64149 0.86798 0.0
H683 H 0.17622 0.6945 0.85848 0.0
H684 H 0.56133 0.65652 0.89074 0.0
H685 H 0.50327 0.61486 0.89403 0.0
H686 H 0.48209 0.68812 0.91826 0.0
H687 H 0.54029 0.73042 0.91444 0.0
H688 H 0.45856 0.58985 0.92443 0.0
H689 H 0.42284 0.65619 0.8686 0.0
H690 H 0.46533 0.66808 0.87343 0.0
H691 H 0.44316 0.67917 0.8912 0.0
C692 C 0.54451 0.66382 0.89705 0.0
C693 C 0.5554 0.69698 0.90197 0.0
C694 C 0.51124 0.63989 0.89893 0.0
C695 C 0.48817 0.64852 0.90589 0.0
C696 C 0.49932 0.68109 0.9123 0.0
H697 H 0.28256 0.4866 0.91832 0.0
H698 H 0.33583 0.53462 0.92645 0.0
C699 C 0.53265 0.7052 0.91025 0.0
C700 C 0.45244 0.62363 0.90509 0.0
H701 H 0.38048 0.60542 0.88095 0.0
C702 C 0.44135 0.59333 0.9151 0.0
C703 C 0.43017 0.62814 0.89269 0.0
C704 C 0.44091 0.6595 0.88071 0.0
C705 C 0.40894 0.56704 0.91256 0.0
C706 C 0.38673 0.5715 0.90007 0.0
C707 C 0.39751 0.60215 0.89059 0.0
C708 C 0.35317 0.5439 0.89521 0.0
C709 C 0.39936 0.53426 0.92241 0.0
C710 C 0.34453 0.53404 0.87483 0.0
C711 C 0.31374 0.50696 0.87004 0.0
C712 C 0.29088 0.48895 0.88553 0.0
C713 C 0.29927 0.49966 0.90591 0.0
C714 C 0.33 0.52697 0.91066 0.0
H715 H 0.42132 0.5328 0.92739 0.0
H716 H 0.38403 0.53097 0.9361 0.0
H717 H 0.38467 0.51352 0.91174 0.0
H718 H 0.36191 0.54692 0.86262 0.0
H719 H 0.30807 0.50009 0.85416 0.0
H720 H 0.81152 0.50246 0.64265 0.0
H721 H 0.81763 0.45541 0.63348 0.0
H722 H 0.80036 0.46747 0.57021 0.0
H723 H 0.79607 0.51583 0.57899 0.0
H724 H 0.77637 0.39717 0.61602 0.0
H725 H 0.88642 0.46748 0.56649 0.0
H726 H 0.87056 0.48756 0.58269 0.0
H727 H 0.85057 0.46947 0.55884 0.0
C728 C 0.80942 0.49557 0.62672 0.0
C729 C 0.80387 0.51363 0.61158 0.0
C730 C 0.8126 0.46833 0.62153 0.0
C731 C 0.81009 0.45826 0.6011 0.0
C732 C 0.8032 0.47527 0.58601 0.0
H733 H 0.80749 0.27006 0.58202 0.0
H734 H 0.79164 0.31244 0.57851 0.0
C735 C 0.80034 0.50279 0.59116 0.0
C736 C 0.81524 0.43026 0.59585 0.0
H737 H 0.86637 0.41046 0.5699 0.0
C738 C 0.79586 0.39994 0.6058 0.0
C739 C 0.84084 0.43405 0.58259 0.0
C740 C 0.86351 0.46644 0.57215 0.0
C741 C 0.80212 0.37371 0.60349 0.0
C742 C 0.82788 0.37756 0.59035 0.0
C743 C 0.84647 0.40747 0.57981 0.0
C744 C 0.83845 0.35247 0.58925 0.0
C745 C 0.78227 0.34286 0.61606 0.0
C746 C 0.87068 0.36124 0.59515 0.0
C747 C 0.88 0.33725 0.59681 0.0
C748 C 0.85717 0.3039 0.59273 0.0
C749 C 0.82554 0.29546 0.58553 0.0
C750 C 0.81634 0.31961 0.58366 0.0
H751 H 0.76862 0.3468 0.62862 0.0
H752 H 0.76389 0.3229 0.60611 0.0
H753 H 0.79848 0.33432 0.62284 0.0
H754 H 0.88825 0.38646 0.59941 0.0
H755 H 0.90462 0.34471 0.60229 0.0
H756 H 0.72476 0.52815 0.57533 0.0
H757 H 0.67992 0.47097 0.57173 0.0
H758 H 0.60945 0.50034 0.58946 0.0
H759 H 0.65375 0.55735 0.59265 0.0
H760 H 0.64178 0.43395 0.60249 0.0
H761 H 0.56089 0.43931 0.54301 0.0
H762 H 0.6027 0.47249 0.54694 0.0
H763 H 0.5695 0.46948 0.5625 0.0
C764 C 0.69963 0.52258 0.57797 0.0
C765 C 0.69291 0.54738 0.58437 0.0
C766 C 0.67402 0.48985 0.57594 0.0
C767 C 0.64122 0.48134 0.5801 0.0
C768 C 0.63437 0.50631 0.58565 0.0
H769 H 0.46043 0.31937 0.61968 0.0
H770 H 0.50836 0.37186 0.60963 0.0
C771 C 0.65988 0.53898 0.58761 0.0
C772 C 0.61463 0.44616 0.58097 0.0
H773 H 0.53476 0.39345 0.56673 0.0
C774 C 0.61865 0.42488 0.59431 0.0
C775 C 0.58443 0.43426 0.5703 0.0
C776 C 0.57926 0.45503 0.55473 0.0
C777 C 0.59267 0.39272 0.59815 0.0
C778 C 0.56197 0.38156 0.58833 0.0
C779 C 0.55832 0.40224 0.57434 0.0
C780 C 0.53268 0.34948 0.59361 0.0
C781 C 0.59761 0.37142 0.61343 0.0
C782 C 0.53042 0.31954 0.58777 0.0
C783 C 0.50301 0.28943 0.59351 0.0
C784 C 0.47754 0.28884 0.6053 0.0
C785 C 0.47983 0.31897 0.61089 0.0
C786 C 0.50706 0.34897 0.60502 0.0
H787 H 0.62179 0.38507 0.62139 0.0
H788 H 0.57758 0.36178 0.62502 0.0
H789 H 0.59643 0.3499 0.60547 0.0
H790 H 0.54993 0.31948 0.57888 0.0
H791 H 0.50204 0.26665 0.58908 0.0
H792 H 0.68099 0.1357 0.62914 0.0
H793 H 0.62944 0.13286 0.61899 0.0
H794 H 0.68383 0.22212 0.58382 0.0
H795 H 0.73586 0.22558 0.59422 0.0
H796 H 0.61334 0.18449 0.62648 0.0
H797 H 0.61075 0.15358 0.54407 0.0
H798 H 0.63546 0.14672 0.56253 0.0
H799 H 0.64823 0.18781 0.55395 0.0
C800 C 0.68216 0.15489 0.61935 0.0
C801 C 0.71269 0.18096 0.61259 0.0
C802 C 0.6526 0.15308 0.61345 0.0
C803 C 0.65285 0.17712 0.60055 0.0
C804 C 0.68314 0.20304 0.59355 0.0
H805 H 0.47847 0.19862 0.58616 0.0
H806 H 0.53607 0.21164 0.58601 0.0
C807 C 0.71283 0.20494 0.5995 0.0
C808 C 0.62126 0.17553 0.59532 0.0
H809 H 0.56602 0.15853 0.55655 0.0
C810 C 0.60313 0.17917 0.61116 0.0
C811 C 0.60803 0.1684 0.57533 0.0
C812 C 0.6264 0.16367 0.55793 0.0
C813 C 0.57181 0.17533 0.60762 0.0
C814 C 0.55838 0.16781 0.58769 0.0
C815 C 0.57663 0.1646 0.57175 0.0
C816 C 0.5243 0.16075 0.58376 0.0
C817 C 0.55273 0.1782 0.62533 0.0
C818 C 0.49878 0.12794 0.58171 0.0
C819 C 0.46582 0.12036 0.58187 0.0
C820 C 0.45787 0.14553 0.58401 0.0
C821 C 0.48365 0.17862 0.58449 0.0
C822 C 0.51662 0.18615 0.58446 0.0
H823 H 0.56501 0.18024 0.64022 0.0
H824 H 0.55033 0.20048 0.62329 0.0
H825 H 0.52742 0.1564 0.62582 0.0
H826 H 0.5043 0.10803 0.58115 0.0
H827 H 0.44657 0.09465 0.58134 0.0
H828 H 0.37563 0.17601 0.0459 0.0
H829 H 0.35989 0.1372 0.01715 0.0
H830 H 0.31032 0.05529 0.05876 0.0
H831 H 0.32547 0.09356 0.08736 0.0
H832 H 0.3715 0.0833 0.00965 0.0
H833 H 0.23804 0.04152 0.01748 0.0
H834 H 0.26982 0.07842 0.0297 0.0
H835 H 0.25712 0.03851 0.04056 0.0
C836 C 0.36152 0.14973 0.0489 0.0
C837 C 0.35148 0.13788 0.06888 0.0
C838 C 0.35259 0.12762 0.03249 0.0
C839 C 0.33347 0.09342 0.03583 0.0
C840 C 0.32452 0.08159 0.05582 0.0
H841 H 0.29022 0.93238 0.95067 0.0
H842 H 0.31023 0.97088 0.97962 0.0
C843 C 0.3333 0.10357 0.07216 0.0
C844 C 0.32201 0.06994 0.01847 0.0
H845 H 0.25219 0.01109 0.99473 0.0
C846 C 0.34545 0.06755 0.00631 0.0
C847 C 0.28799 0.04968 0.01407 0.0
C848 C 0.26175 0.05227 0.026 0.0
C849 C 0.3357 0.04504 0.98998 0.0
C850 C 0.30163 0.02414 0.98596 0.0
C851 C 0.27827 0.02686 -0.00201 0.0
C852 C 0.28955 1.00041 0.96869 0.0
C853 C 0.36191 0.04428 0.97694 0.0
C854 C 0.27047 0.00363 0.95332 0.0
C855 C 0.25871 0.98151 0.93699 0.0
C856 C 0.26569 0.95557 0.93564 0.0
C857 C 0.2843 0.95198 0.95128 0.0
C858 C 0.2961 0.9742 0.96769 0.0
H859 H 0.38641 0.06685 0.97902 0.0
H860 H 0.36428 0.02261 0.98128 0.0
H861 H 0.35512 0.04186 0.96052 0.0
H862 H 0.26484 0.02346 0.95389 0.0
H863 H 0.24392 0.98468 0.92547 0.0
H864 H 0.82777 0.19841 0.04392 0.0
H865 H 0.86779 0.22494 0.01613 0.0
H866 H 0.94235 0.21956 0.05199 0.0
H867 H 0.90294 0.19346 0.07973 0.0
H868 H 0.96332 0.28231 0.03413 0.0
H869 H 0.9039 0.17947 0.9779 0.0
H870 H 0.8782 0.19409 0.98875 0.0
H871 H 0.89376 0.17376 0.00475 0.0
C872 C 0.85266 0.20276 0.04582 0.0
C873 C 0.86215 0.19375 0.06401 0.0
C874 C 0.87544 0.21783 0.02993 0.0
C875 C 0.90795 0.224 0.03199 0.0
C876 C 0.91739 0.21504 0.05012 0.0
H877 H 0.06408 0.2591 0.95089 0.0
H878 H 0.01855 0.23936 0.97515 0.0
C879 C 0.89475 0.20001 0.06594 0.0
C880 C 0.93256 0.23995 0.01547 0.0
H881 H 0.95329 0.22665 0.96784 0.0
C882 C 0.96103 0.27037 0.01953 0.0
C883 C 0.9295 0.2241 0.99654 0.0
C884 C 0.89986 0.19094 0.99165 0.0
C885 C 0.98694 0.28504 0.00534 0.0
C886 C 0.98408 0.26898 0.98653 0.0
C887 C 0.95527 0.23894 0.98226 0.0
C888 C 0.01172 0.28158 0.97173 0.0
C889 C 0.01775 0.31686 0.01094 0.0
C890 C 0.023 0.31192 0.96176 0.0
C891 C 0.04909 0.3233 0.94777 0.0
C892 C 0.06418 0.3044 0.94346 0.0
C893 C 0.05279 0.27408 0.95359 0.0
C894 C 0.0268 0.26278 0.96752 0.0
H895 H 0.01846 0.32279 0.02743 0.0
H896 H 0.04019 0.31548 0.00715 0.0
H897 H 0.0186 0.33744 0.00202 0.0
H898 H 0.01136 0.32659 0.96459 0.0
H899 H 0.05693 0.3465 0.94002 0.0
H900 H 0.7853 0.60756 0.03407 0.0
H901 H 0.7619 0.6204 0.0041 0.0
H902 H 0.79993 0.71977 0.02633 0.0
H903 H 0.82331 0.70741 0.05594 0.0
H904 H 0.71524 0.64444 0.00423 0.0
H905 H 0.83358 0.73186 0.96684 0.0
H906 H 0.83047 0.70276 0.98609 0.0
H907 H 0.8322 0.74069 0.9934 0.0
C908 C 0.78891 0.6322 0.03241 0.0
C909 C 0.80625 0.65649 0.04733 0.0
C910 C 0.77545 0.63944 0.01537 0.0
C911 C 0.77954 0.67114 0.01294 0.0
C912 C 0.79694 0.69532 0.02777 0.0
H913 H 0.67758 0.75282 0.94726 0.0
H914 H 0.69619 0.72648 0.97219 0.0
C915 C 0.81018 0.68812 0.04474 0.0
C916 C 0.76511 0.67929 0.99529 0.0
H917 H 0.78595 0.7344 0.95621 0.0
C918 C 0.73062 0.66375 0.99351 0.0
C919 C 0.78526 0.70427 0.98125 0.0
C920 C 0.82244 0.72067 0.98182 0.0
C921 C 0.71573 0.67358 0.97853 0.0
C922 C 0.73594 0.69994 0.96525 0.0
C923 C 0.77043 0.71445 0.96653 0.0
C924 C 0.72216 0.71338 0.95006 0.0
C925 C 0.67855 0.6557 0.97709 0.0
C926 C 0.73086 0.71514 0.92942 0.0
C927 C 0.7206 0.73048 0.91526 0.0
C928 C 0.70142 0.74444 0.92142 0.0
C929 C 0.69204 0.742 0.94203 0.0
C930 C 0.70254 0.72682 0.95626 0.0
H931 H 0.66731 0.63056 0.98383 0.0
H932 H 0.66915 0.66976 0.98571 0.0
H933 H 0.67026 0.65353 0.96098 0.0
H934 H 0.74599 0.70499 0.92428 0.0
H935 H 0.72776 0.73147 0.89944 0.0
H936 H 0.99501 0.28129 0.59088 0.0
H937 H 0.03676 0.30613 0.56412 0.0
H938 H 0.96062 0.26125 0.51822 0.0
H939 H 0.9186 0.23692 0.54511 0.0
H940 H 0.05292 0.27558 0.53637 0.0
H941 H 0.01243 0.35377 0.49656 0.0
H942 H 0.99623 0.33536 0.52116 0.0
H943 H 0.98015 0.31146 0.49814 0.0
C944 C 0.98717 0.27687 0.57507 0.0
C945 C 0.95358 0.25707 0.57005 0.0
C946 C 0.01103 0.29117 0.5598 0.0
C947 C 0.00187 0.28593 0.53914 0.0
C948 C 0.96825 0.26639 0.53404 0.0
H949 H 0.09829 0.30313 0.42608 0.0
H950 H 0.0617 0.2912 0.45526 0.0
C951 C 0.94426 0.25236 0.54938 0.0
C952 C 0.02777 0.29913 0.52306 0.0
H953 H 0.05142 0.34369 0.47875 0.0
C954 C 0.05284 0.29088 0.52395 0.0
C955 C 0.02779 0.31925 0.50688 0.0
C956 C 0.0029 0.33077 0.50571 0.0
C957 C 0.07715 0.30118 0.50874 0.0
C958 C 0.07637 0.32017 0.49223 0.0
C959 C 0.05186 0.3291 0.4915 0.0
C960 C 0.0991 0.32851 0.47471 0.0
C961 C 0.10289 0.29076 0.50993 0.0
C962 C 0.13231 0.35358 0.47605 0.0
C963 C 0.15347 0.36066 0.45927 0.0
C964 C 0.14164 0.34254 0.44104 0.0
C965 C 0.10831 0.31747 0.4399 0.0
C966 C 0.08726 0.31065 0.45653 0.0
H967 H 0.09887 0.27424 0.52313 0.0
H968 H 0.10265 0.27778 0.49566 0.0
H969 H 0.12776 0.31298 0.51137 0.0
H970 H 0.14179 0.36763 0.49002 0.0
H971 H 0.17898 0.38014 0.46059 0.0
H972 H 0.63053 0.80417 0.45572 0.0
H973 H 0.64659 0.78222 0.48491 0.0
H974 H 0.72534 0.78484 0.44916 0.0
H975 H 0.70989 0.80696 0.42022 0.0
H976 H 0.6508 0.72394 0.48759 0.0
H977 H 0.77244 0.83566 0.50099 0.0
H978 H 0.74075 0.8362 0.48549 0.0
H979 H 0.76676 0.82167 0.47499 0.0
C980 C 0.65137 0.80021 0.45415 0.0
C981 C 0.66907 0.80752 0.4357 0.0
C982 C 0.66044 0.78762 0.4708 0.0
C983 C 0.68746 0.78241 0.46927 0.0
C984 C 0.70484 0.78932 0.4508 0.0
H985 H 0.74437 0.66126 0.53808 0.0
H986 H 0.72016 0.68311 0.51383 0.0
C987 C 0.69585 0.80185 0.43423 0.0
C988 C 0.69752 0.76928 0.48674 0.0
H989 H 0.76394 0.78573 0.51649 0.0
C990 C 0.67539 0.73754 0.49411 0.0
C991 C 0.72945 0.78726 0.49539 0.0
C992 C 0.75362 0.82222 0.48896 0.0
C993 C 0.68481 0.72281 0.50941 0.0
C994 C 0.71742 0.74009 0.51722 0.0
C995 C 0.73908 0.7723 0.51034 0.0
C996 C 0.72991 0.72539 0.53242 0.0
C997 C 0.65973 0.68899 0.51711 0.0
C998 C 0.74394 0.74212 0.55075 0.0
C999 C 0.75815 0.72992 0.56444 0.0
C1000 C 0.7586 0.70069 0.56012 0.0
C1001 C 0.74402 0.68359 0.54193 0.0
C1002 C 0.73004 0.696 0.52812 0.0
H1003 H 0.63407 0.68372 0.51438 0.0
H1004 H 0.66292 0.67006 0.50884 0.0
H1005 H 0.66292 0.68649 0.5337 0.0
H1006 H 0.74418 0.76485 0.55439 0.0
H1007 H 0.76878 0.74337 0.57846 0.0
H1008 H 0.25901 0.03563 0.55828 0.0
H1009 H 0.24353 0.99384 0.53169 0.0
H1010 H 0.34564 0.02022 0.5249 0.0
H1011 H 0.36133 0.06269 0.55142 0.0
H1012 H 0.31638 0.01171 0.48853 0.0
H1013 H 0.23654 0.90492 0.53742 0.0
H1014 H 0.22385 0.93529 0.53822 0.0
H1015 H 0.26399 0.94539 0.54779 0.0
C1016 C 0.27813 0.03241 0.5512 0.0
C1017 C 0.31133 0.05218 0.55705 0.0
C1018 C 0.26925 0.00839 0.53609 0.0
C1019 C 0.29328 0.00319 0.52673 0.0
C1020 C 0.32663 0.02355 0.5321 0.0
H1021 H 0.22071 0.82923 0.4462 0.0
H1022 H 0.24966 0.86818 0.4742 0.0
C1023 C 0.3356 0.04789 0.54713 0.0
C1024 C 0.28343 0.97719 0.5109 0.0
H1025 H 0.22775 0.89622 0.50107 0.0
C1026 C 0.29736 0.98634 0.49135 0.0
C1027 C 0.25923 0.94385 0.51468 0.0
C1028 C 0.24534 0.93171 0.53574 0.0
C1029 C 0.2863 0.96356 0.47519 0.0
C1030 C 0.25999 0.93101 0.47855 0.0
C1031 C 0.24751 0.92132 0.49839 0.0
C1032 C 0.24346 0.90751 0.46148 0.0
C1033 C 0.30275 0.97476 0.45462 0.0
C1034 C 0.22983 0.91642 0.44531 0.0
C1035 C 0.21356 0.89444 0.42936 0.0
C1036 C 0.21004 0.86276 0.42937 0.0
C1037 C 0.22308 0.85349 0.44577 0.0
C1038 C 0.23967 0.87572 0.46173 0.0
H1039 H 0.32876 0.99501 0.45626 0.0
H1040 H 0.3025 0.95412 0.44606 0.0
H1041 H 0.28943 0.98444 0.4455 0.0
H1042 H 0.23144 0.94035 0.44511 0.0
H1043 H 0.20348 0.90226 0.4171 0.0
H1044 H 0.76368 0.01659 0.06979 0.0
H1045 H 0.74781 0.98071 0.04001 0.0
H1046 H 0.71616 0.0418 0.00937 0.0
H1047 H 0.73094 0.07743 0.03962 0.0
H1048 H 0.67061 0.97436 0.00656 0.0
H1049 H 0.79606 0.99981 0.98564 0.0
H1050 H 0.78565 0.98722 0.01174 0.0
H1051 H 0.78913 0.02544 0.00326 0.0
C1052 C 0.75319 0.02242 0.05681 0.0
C1053 C 0.74848 0.04989 0.05716 0.0
C1054 C 0.7445 0.00205 0.03967 0.0
C1055 C 0.73126 0.00885 0.02237 0.0
C1056 C 0.72657 0.03627 0.02255 0.0
H1057 H 0.70759 0.91286 0.9053 0.0
H1058 H 0.72268 0.95216 0.93333 0.0
C1059 C 0.73524 0.05673 0.03977 0.0
C1060 C 0.72146 0.98659 0.00443 0.0
H1061 H 0.75088 0.95281 0.96997 0.0
C1062 C 0.68817 0.96981 -0.00158 0.0
C1063 C 0.74449 0.98096 0.99375 0.0
C1064 C 0.78088 0.99955 -0.00122 0.0
C1065 C 0.67713 0.9469 0.98231 0.0
C1066 C 0.69994 0.94024 0.97221 0.0
C1067 C 0.73336 0.95762 0.97791 0.0
C1068 C 0.68994 0.91604 0.95529 0.0
C1069 C 0.64128 0.93034 0.97608 0.0
C1070 C 0.66672 0.88252 0.95838 0.0
C1071 C 0.65792 0.85986 0.94231 0.0
C1072 C 0.67243 0.87037 0.92294 0.0
C1073 C 0.69591 0.9039 0.92001 0.0
C1074 C 0.70459 0.92646 0.93602 0.0
H1075 H 0.62922 0.94422 0.98161 0.0
H1076 H 0.63864 0.92791 0.95922 0.0
H1077 H 0.62792 0.9052 0.9828 0.0
H1078 H 0.65563 0.87383 0.97326 0.0
H1079 H 0.63986 0.83419 0.94507 0.0
H1080 H 0.97391 0.65006 0.05413 0.0
H1081 H 0.01677 0.68321 0.02968 0.0
H1082 H 0.97612 0.7476 0.02273 0.0
H1083 H 0.93375 0.71534 0.0482 0.0
H1084 H 0.00997 0.69417 0.99019 0.0
H1085 H 0.07318 0.81341 0.03219 0.0
H1086 H 0.0435 0.77521 0.04421 0.0
H1087 H 0.02975 0.79727 0.02824 0.0
C1088 C 0.97427 0.67161 0.04782 0.0
C1089 C 0.95044 0.68017 0.05345 0.0
C1090 C 0.99874 0.69041 0.03364 0.0
C1091 C 1.0 0.71817 0.0246 0.0
C1092 C 0.97606 0.72667 0.02986 0.0
H1093 H 0.11843 0.83685 0.923 0.0
H1094 H 0.0776 0.81126 0.95027 0.0
C1095 C 0.95157 0.70793 0.04423 0.0
C1096 C 0.0258 0.73719 0.00916 0.0
H1097 H 0.0917 0.8133 -0.00156 0.0
C1098 C 0.02786 0.7202 0.99204 0.0
C1099 C 0.04918 0.77115 0.01163 0.0
C1100 C 0.04909 0.79033 0.03014 0.0
C1101 C 0.05262 0.73622 0.97732 0.0
C1102 C 0.07589 0.77005 0.97981 0.0
C1103 C 0.07375 0.78727 0.99672 0.0
C1104 C 0.10227 0.78787 0.96463 0.0
C1105 C 0.05378 0.71703 0.95911 0.0
C1106 C 0.12988 0.78357 0.96403 0.0
C1107 C 0.1534 0.79828 0.94852 0.0
C1108 C 0.14938 0.81724 0.93334 0.0
C1109 C 0.12211 0.82222 0.93441 0.0
C1110 C 0.09882 0.80775 0.94998 0.0
H1111 H 0.03187 0.6918 0.95834 0.0
H1112 H 0.05523 0.73037 0.94477 0.0
H1113 H 0.07631 0.71481 0.96001 0.0
H1114 H 0.13282 0.76824 0.97528 0.0
H1115 H 0.17411 0.79397 0.94808 0.0
H1116 H 0.20284 0.37291 0.95749 0.0
H1117 H 0.22456 0.35533 0.98599 0.0
H1118 H 0.27668 0.32733 0.94347 0.0
H1119 H 0.2552 0.34474 0.915 0.0
H1120 H 0.21255 0.28828 0.98943 0.0
H1121 H 0.34646 0.38121 0.98816 0.0
H1122 H 0.31559 0.3886 0.97667 0.0
H1123 H 0.32867 0.36311 0.96386 0.0
C1124 C 0.21942 0.36358 0.95425 0.0
C1125 C 0.22725 0.36014 0.934 0.0
C1126 C 0.23172 0.35349 0.97052 0.0
C1127 C 0.25244 0.34033 0.96681 0.0
C1128 C 0.26115 0.33789 0.94667 0.0
H1129 H 0.33705 0.24505 0.03927 0.0
H1130 H 0.32172 0.27092 0.01203 0.0
C1131 C 0.24867 0.34769 0.93042 0.0
C1132 C 0.26267 0.32641 0.98374 0.0
H1133 H 0.33004 0.33378 0.00889 0.0
C1134 C 0.23819 0.29837 0.99384 0.0
C1135 C 0.29617 0.33941 0.98919 0.0
C1136 C 0.3233 0.3699 0.97905 0.0
C1137 C 0.24636 0.28254 0.00905 0.0
C1138 C 0.27988 0.29565 0.01466 0.0
C1139 C 0.30438 0.32378 0.00456 0.0
C1140 C 0.28986 0.28073 0.03118 0.0
C1141 C 0.21906 0.25137 0.01854 0.0
C1142 C 0.27755 0.27825 0.05102 0.0
C1143 C 0.2861 0.2634 0.0665 0.0
C1144 C 0.30751 0.25106 0.06255 0.0
C1145 C 0.32057 0.25437 0.04279 0.0
C1146 C 0.31179 0.26907 0.02723 0.0
H1147 H 0.1968 0.23953 0.00861 0.0
H1148 H 0.22731 0.23322 0.02153 0.0
H1149 H 0.21177 0.25754 0.03329 0.0
H1150 H 0.26135 0.28791 0.05457 0.0
H1151 H 0.27629 0.26201 0.08167 0.0
H1152 H 0.03855 0.78513 0.43497 0.0
H1153 H 0.9998 0.76031 0.46318 0.0
H1154 H 0.03844 0.69539 0.47544 0.0
H1155 H 0.07665 0.71937 0.44664 0.0
H1156 H 0.96965 0.66287 0.47488 0.0
H1157 H 0.02042 0.7743 0.52396 0.0
H1158 H 0.01075 0.78139 0.4986 0.0
H1159 H 0.0427 0.77113 0.50237 0.0
C1160 C 0.03882 0.76553 0.44359 0.0
C1161 C 0.06077 0.75427 0.43851 0.0
C1162 C 0.01685 0.75159 0.45987 0.0
C1163 C 0.01654 0.72633 0.47158 0.0
C1164 C 0.03844 0.71503 0.46666 0.0
H1165 H 0.91311 0.66366 0.58718 0.0
H1166 H 0.95396 0.68138 0.5599 0.0
C1167 C 0.06046 0.72897 0.45032 0.0
C1168 C 0.99269 0.71123 0.48859 0.0
H1169 H 0.96717 0.72987 0.53289 0.0
C1170 C 0.96922 0.6774 0.48768 0.0
C1171 C 0.99244 0.73018 0.50535 0.0
C1172 C 0.01813 0.76618 0.50779 0.0
C1173 C 0.94495 0.66219 0.50286 0.0
C1174 C 0.94386 0.6815 0.51915 0.0
C1175 C 0.96783 0.71514 0.52028 0.0
C1176 C 0.91836 0.66751 0.5354 0.0
C1177 C 0.92098 0.62558 0.50142 0.0
C1178 C 0.88463 0.6534 0.5307 0.0
C1179 C 0.86107 0.64298 0.54633 0.0
C1180 C 0.87097 0.64695 0.5669 0.0
C1181 C 0.90467 0.6604 0.5715 0.0
C1182 C 0.92809 0.67055 0.55592 0.0
H1183 H 0.93069 0.61299 0.49157 0.0
H1184 H 0.91545 0.6139 0.51676 0.0
H1185 H 0.89751 0.62154 0.4946 0.0
H1186 H 0.87661 0.65144 0.51498 0.0
H1187 H 0.83531 0.63292 0.54232 0.0
H1188 H 0.29882 0.19966 0.58042 0.0
H1189 H 0.28025 0.22061 0.55234 0.0
H1190 H 0.354 0.22022 0.51297 0.0
H1191 H 0.37271 0.19884 0.54108 0.0
H1192 H 0.3186 0.27992 0.53096 0.0
H1193 H 0.26771 0.17091 0.47937 0.0
H1194 H 0.27612 0.16857 0.50606 0.0
H1195 H 0.30938 0.1859 0.48793 0.0
C1196 C 0.31107 0.20384 0.56578 0.0
C1197 C 0.33725 0.19754 0.56297 0.0
C1198 C 0.30037 0.21582 0.54975 0.0
C1199 C 0.31546 0.22156 0.53054 0.0
C1200 C 0.34164 0.21536 0.52761 0.0
H1201 H 0.29658 0.30729 0.41855 0.0
H1202 H 0.30856 0.27821 0.44517 0.0
C1203 C 0.35244 0.20337 0.5437 0.0
C1204 C 0.30453 0.23541 0.51395 0.0
H1205 H 0.26974 0.21927 0.46644 0.0
C1206 C 0.30777 0.26663 0.51688 0.0
C1207 C 0.29044 0.21795 0.49564 0.0
C1208 C 0.28539 0.18385 0.49203 0.0
C1209 C 0.29787 0.2812 0.50182 0.0
C1210 C 0.28368 0.26373 0.48351 0.0
C1211 C 0.2804 0.23247 0.48056 0.0
C1212 C 0.27372 0.27835 0.46684 0.0
C1213 C 0.30357 0.31557 0.50541 0.0
C1214 C 0.24932 0.28707 0.46995 0.0
C1215 C 0.24259 0.30398 0.45479 0.0
C1216 C 0.26011 0.31232 0.43625 0.0
C1217 C 0.28317 0.30185 0.43282 0.0
C1218 C 0.28988 0.28502 0.44795 0.0
H1219 H 0.32152 0.32841 0.51796 0.0
H1220 H 0.31285 0.33078 0.49135 0.0
H1221 H 0.27985 0.31399 0.5097 0.0
H1222 H 0.23611 0.28157 0.48431 0.0
H1223 H 0.22474 0.31172 0.45793 0.0
H1224 H 0.80707 0.16942 0.54977 0.0
H1225 H 0.78179 0.13081 0.52117 0.0
H1226 H 0.76431 0.04963 0.56045 0.0
H1227 H 0.78931 0.08776 0.58901 0.0
H1228 H 0.80209 0.08593 0.50526 0.0
H1229 H 0.673 0.02026 0.53403 0.0
H1230 H 0.70387 0.06019 0.5436 0.0
H1231 H 0.70366 0.02347 0.5519 0.0
C1232 C 0.79776 0.14334 0.55231 0.0
C1233 C 0.80012 0.13165 0.57167 0.0
C1234 C 0.78333 0.12135 0.53599 0.0
C1235 C 0.77075 0.08736 0.53883 0.0
C1236 C 0.77331 0.0757 0.55806 0.0
H1237 H 0.68086 0.91332 0.4609 0.0
H1238 H 0.70161 0.95187 0.48988 0.0
C1239 C 0.78782 0.0976 0.57433 0.0
C1240 C 0.75597 0.06407 0.52154 0.0
H1241 H 0.68445 0.99718 0.50502 0.0
C1242 C 0.77633 0.06666 0.5051 0.0
C1243 C 0.72243 0.03881 0.52155 0.0
C1244 C 0.69932 0.03554 0.53862 0.0
C1245 C 0.76419 0.04425 0.48876 0.0
C1246 C 0.73057 0.01906 0.48868 0.0
C1247 C 0.71019 0.01649 0.50514 0.0
C1248 C 0.71611 0.99547 0.47146 0.0
C1249 C 0.78772 0.04725 0.47201 0.0
C1250 C 0.71643 0.0071 0.45169 0.0
C1251 C 0.70477 0.98525 0.43522 0.0
C1252 C 0.69215 0.95124 0.43822 0.0
C1253 C 0.69037 0.93938 0.45817 0.0
C1254 C 0.70231 0.96136 0.47468 0.0
H1255 H 0.81386 0.0614 0.47713 0.0
H1256 H 0.78248 0.02254 0.46666 0.0
H1257 H 0.78483 0.06056 0.45886 0.0
H1258 H 0.72606 0.03319 0.44894 0.0
H1259 H 0.70574 0.99498 0.42008 0.0
H1260 H 0.22253 0.33233 0.30015 0.0
H1261 H 0.24994 0.32067 0.2723 0.0
H1262 H 0.34424 0.40002 0.29261 0.0
H1263 H 0.31713 0.41102 0.32107 0.0
H1264 H 0.28968 0.35753 0.24043 0.0
H1265 H 0.35775 0.32025 0.29383 0.0
H1266 H 0.32456 0.32666 0.30211 0.0
H1267 H 0.36491 0.36143 0.29741 0.0
C1268 C 0.24911 0.34735 0.29869 0.0
C1269 C 0.26769 0.37228 0.31301 0.0
C1270 C 0.26471 0.34079 0.28269 0.0
C1271 C 0.29918 0.35902 0.28066 0.0
C1272 C 0.31766 0.3852 0.29418 0.0
H1273 H 0.39293 0.32838 0.17321 0.0
H1274 H 0.37849 0.35503 0.20021 0.0
C1275 C 0.30207 0.39173 0.31027 0.0
C1276 C 0.31556 0.34942 0.26489 0.0
H1277 H 0.36699 0.31786 0.25867 0.0
C1278 C 0.30681 0.34912 0.24436 0.0
C1279 C 0.33753 0.33803 0.27016 0.0
C1280 C 0.3466 0.33627 0.29207 0.0
C1281 C 0.31901 0.33721 0.22895 0.0
C1282 C 0.34112 0.32597 0.2342 0.0
C1283 C 0.35029 0.32678 0.25469 0.0
C1284 C 0.3531 0.3111 0.21885 0.0
C1285 C 0.307 0.33547 0.20733 0.0
C1286 C 0.3451 0.27804 0.2209 0.0
C1287 C 0.35383 0.26287 0.20568 0.0
C1288 C 0.37073 0.28049 0.1881 0.0
C1289 C 0.38008 0.3141 0.18658 0.0
C1290 C 0.37147 0.32929 0.20187 0.0
H1291 H 0.28449 0.3378 0.20671 0.0
H1292 H 0.32658 0.35602 0.19831 0.0
H1293 H 0.30142 0.31184 0.19995 0.0
H1294 H 0.33121 0.26365 0.234 0.0
H1295 H 0.34683 0.23717 0.20755 0.0
H1296 H 0.67059 0.07056 0.17212 0.0
H1297 H 0.64283 0.03201 0.20002 0.0
H1298 H 0.73537 0.07172 0.23239 0.0
H1299 H 0.76291 0.11197 0.20528 0.0
H1300 H 0.65288 0.98423 0.21114 0.0
H1301 H 0.67619 0.06473 0.27813 0.0
H1302 H 0.68352 0.0805 0.25236 0.0
H1303 H 0.71416 0.07483 0.2656 0.0
C1304 C 0.68491 0.07199 0.18548 0.0
C1305 C 0.71911 0.09447 0.18636 0.0
C1306 C 0.669 0.04961 0.20135 0.0
C1307 C 0.6869 0.04909 0.2184 0.0
C1308 C 0.72083 0.07207 0.21962 0.0
H1309 H 0.6526 0.88417 0.29226 0.0
H1310 H 0.66433 0.92395 0.26499 0.0
C1311 C 0.73668 0.09477 0.20389 0.0
C1312 C 0.67086 0.02266 0.23396 0.0
H1313 H 0.663 0.00879 0.28531 0.0
C1314 C 0.65464 0.98963 0.22736 0.0
C1315 C 0.6726 0.02959 0.2551 0.0
C1316 C 0.68725 0.06436 0.26318 0.0
C1317 C 0.64136 0.96338 0.24134 0.0
C1318 C 0.64535 0.97038 0.2625 0.0
C1319 C 0.6603 0.00337 0.26909 0.0
C1320 C 0.63565 0.94414 0.27812 0.0
C1321 C 0.62318 0.9285 0.23322 0.0
C1322 C 0.61594 0.94241 0.29475 0.0
C1323 C 0.60999 0.92032 0.31072 0.0
C1324 C 0.62353 0.89935 0.31036 0.0
C1325 C 0.64214 0.90021 0.29324 0.0
C1326 C 0.64844 0.92263 0.27742 0.0
H1327 H 0.61209 0.92744 0.21802 0.0
H1328 H 0.64086 0.91941 0.23129 0.0
H1329 H 0.60326 0.91163 0.24377 0.0
H1330 H 0.60594 0.95888 0.29568 0.0
H1331 H 0.59601 0.92084 0.32376 0.0
H1332 H 0.95075 0.66757 0.15699 0.0
H1333 H 0.9892 0.68129 0.18545 0.0
H1334 H 0.9076 0.62287 0.22593 0.0
H1335 H 0.86892 0.60838 0.19717 0.0
H1336 H 0.99089 0.71556 0.21837 0.0
H1337 H 0.97288 0.59383 0.24234 0.0
H1338 H 0.95778 0.59991 0.21828 0.0
H1339 H 0.93531 0.59543 0.24148 0.0
C1340 C 0.94105 0.65741 0.17194 0.0
C1341 C 0.90691 0.63717 0.17499 0.0
C1342 C 0.96302 0.66516 0.18816 0.0
C1343 C 0.95134 0.65296 0.2078 0.0
C1344 C 0.91724 0.63202 0.21083 0.0
H1345 H 0.05501 0.74816 0.31865 0.0
H1346 H 0.01682 0.72495 0.28996 0.0
C1347 C 0.89517 0.62391 0.19446 0.0
C1348 C 0.97478 0.66463 0.22521 0.0
H1349 H 0.00441 0.63924 0.26475 0.0
C1350 C 0.99393 0.69883 0.22844 0.0
C1351 C 0.97902 0.64283 0.23818 0.0
C1352 C 0.96041 0.60597 0.23482 0.0
C1353 C 0.0169 0.71186 0.2444 0.0
C1354 C 0.02023 0.69006 0.25786 0.0
C1355 C 1.00154 0.65586 0.25449 0.0
C1356 C 0.04261 0.70254 0.27573 0.0
C1357 C 0.0377 0.74891 0.24651 0.0
C1358 C 0.06919 0.69671 0.27759 0.0
C1359 C 0.0911 0.7099 0.29407 0.0
C1360 C 0.0867 0.72914 0.3089 0.0
C1361 C 0.05953 0.73415 0.3072 0.0
C1362 C 0.03763 0.72084 0.29085 0.0
H1363 H 0.03899 0.76169 0.23194 0.0
H1364 H 0.02652 0.75752 0.2582 0.0
H1365 H 0.06323 0.75637 0.25144 0.0
H1366 H 0.07334 0.6825 0.26609 0.0
H1367 H 0.1118 0.70563 0.29498 0.0
H1368 H 0.756 0.65401 0.69834 0.0
H1369 H 0.72463 0.66258 0.72495 0.0
H1370 H 0.6338 0.59782 0.69334 0.0
H1371 H 0.66529 0.59015 0.66609 0.0
H1372 H 0.63733 0.65523 0.70355 0.0
H1373 H 0.66837 0.60572 0.77118 0.0
H1374 H 0.70516 0.63499 0.75811 0.0
H1375 H 0.67602 0.59723 0.74548 0.0
C1376 C 0.72934 0.64141 0.69708 0.0
C1377 C 0.71315 0.62157 0.68003 0.0
C1378 C 0.71138 0.64597 0.71246 0.0
C1379 C 0.67682 0.63045 0.7113 0.0
C1380 C 0.66044 0.60981 0.69461 0.0
H1381 H 0.59005 0.67224 0.81741 0.0
H1382 H 0.59581 0.64053 0.7897 0.0
C1383 C 0.67845 0.60529 0.67914 0.0
C1384 C 0.65845 0.63838 0.72659 0.0
H1385 H 0.6524 0.64688 0.77786 0.0
C1386 C 0.64003 0.65279 0.71981 0.0
C1387 C 0.66135 0.63459 0.74779 0.0
C1388 C 0.6785 0.61693 0.75604 0.0
C1389 C 0.62639 0.66558 0.73368 0.0
C1390 C 0.63203 0.6646 0.75483 0.0
C1391 C 0.64846 0.64812 0.76163 0.0
C1392 C 0.62374 0.6828 0.77009 0.0
C1393 C 0.60656 0.68046 0.72548 0.0
C1394 C 0.6369 0.71703 0.76811 0.0
C1395 C 0.6332 0.73518 0.78379 0.0
C1396 C 0.61678 0.71956 0.80195 0.0
C1397 C 0.60249 0.68505 0.80355 0.0
C1398 C 0.60597 0.66688 0.78778 0.0
H1399 H 0.59429 0.66859 0.71086 0.0
H1400 H 0.58743 0.67797 0.73653 0.0
H1401 H 0.62339 0.7071 0.72237 0.0
H1402 H 0.65134 0.73004 0.75482 0.0
H1403 H 0.64411 0.76161 0.7819 0.0
H1404 H 0.33773 0.92381 0.82156 0.0
H1405 H 0.36565 0.9616 0.79333 0.0
H1406 H 0.27229 0.92579 0.76252 0.0
H1407 H 0.24448 0.88606 0.78985 0.0
H1408 H 0.31939 0.93874 0.73582 0.0
H1409 H 0.36246 0.04523 0.78883 0.0
H1410 H 0.37765 0.01784 0.79502 0.0
H1411 H 0.33409 0.00344 0.79662 0.0
C1412 C 0.32316 0.9232 0.80854 0.0
C1413 C 0.28863 0.90218 0.80825 0.0
C1414 C 0.33917 0.94531 0.79254 0.0
C1415 C 0.32093 0.94738 0.77617 0.0
C1416 C 0.28685 0.92501 0.77517 0.0
H1417 H 0.35447 0.11033 0.70169 0.0
H1418 H 0.34273 0.06962 0.72834 0.0
C1419 C 0.2709 0.90251 0.79096 0.0
C1420 C 0.33671 0.97377 0.76056 0.0
H1421 H 0.37816 0.05753 0.75438 0.0
C1422 C 0.33242 0.96473 0.73986 0.0
C1423 C 0.35333 0.0077 0.76587 0.0
C1424 C 0.35692 0.01922 0.78777 0.0
C1425 C 0.34343 0.98858 0.72432 0.0
C1426 C 0.36035 0.02251 0.72965 0.0
C1427 C 0.36547 0.03154 0.75034 0.0
C1428 C 0.37017 0.04892 0.71412 0.0
C1429 C 0.33524 0.97706 0.70245 0.0
C1430 C 0.39047 0.05166 0.69758 0.0
C1431 C 0.39652 0.0744 0.68197 0.0
C1432 C 0.38291 0.09531 0.68282 0.0
C1433 C 0.36455 0.09402 0.70017 0.0
C1434 C 0.35809 0.07095 0.71557 0.0
H1435 H 0.31511 0.9509 0.70144 0.0
H1436 H 0.32759 0.99254 0.69377 0.0
H1437 H 0.35742 0.97894 0.69498 0.0
H1438 H 0.4009 0.03562 0.69644 0.0
H1439 H 0.41071 0.07457 0.66886 0.0
H1440 H 0.09976 0.34006 0.80243 0.0
H1441 H 0.06017 0.33003 0.77526 0.0
H1442 H 0.03454 0.39732 0.80389 0.0
H1443 H 0.07335 0.40653 0.8317 0.0
H1444 H 0.98025 0.33922 0.79381 0.0
H1445 H 0.06414 0.38627 0.72743 0.0
H1446 H 0.07031 0.35706 0.74169 0.0
H1447 H 0.07899 0.39547 0.75341 0.0
C1448 C 0.0858 0.35283 0.80295 0.0
C1449 C 0.08959 0.37397 0.81929 0.0
C1450 C 0.06347 0.34741 0.78725 0.0
C1451 C 0.04476 0.36332 0.78738 0.0
C1452 C 0.04894 0.385 0.80342 0.0
H1453 H 0.92181 0.32692 0.67908 0.0
H1454 H 0.95882 0.35651 0.70744 0.0
C1455 C 0.07128 0.39041 0.81921 0.0
C1456 C 0.0192 0.35522 0.77152 0.0
H1457 H 0.00702 0.34692 0.72002 0.0
C1458 C 0.98612 0.34144 0.77766 0.0
C1459 C 0.02689 0.35869 0.75046 0.0
C1460 C 0.06207 0.37552 0.74286 0.0
C1461 C 0.96037 0.32923 0.76329 0.0
C1462 C 0.96793 0.33018 0.74229 0.0
C1463 C 1.00114 0.34576 0.73613 0.0
C1464 C 0.94202 0.31324 0.72652 0.0
C1465 C 0.92537 0.31514 0.7708 0.0
C1466 C 0.91976 0.27917 0.72797 0.0
C1467 C 0.89818 0.26224 0.71191 0.0
C1468 C 0.89879 0.27894 0.69389 0.0
C1469 C 0.92031 0.3133 0.6928 0.0
C1470 C 0.94171 0.33026 0.70894 0.0
H1471 H 0.92462 0.32669 0.78547 0.0
H1472 H 0.90977 0.31875 0.75947 0.0
H1473 H 0.91455 0.28826 0.77355 0.0
H1474 H 0.91999 0.26534 0.74117 0.0
H1475 H 0.88165 0.23589 0.7134 0.0
loop_
_geom_bond_atom_site_label_1
_geom_bond_atom_site_label_2
_geom_bond_distance
_geom_bond_site_symmetry_2
_ccdc_geom_bond_type
C0 C1 1.351 . S
C0 N3 1.368 . S
C0 H5 0.931 . S
C1 C0 1.351 . S
C1 N2 1.373 . S
C1 H29 0.930 . S
N2 C1 1.373 . S
N2 C4 1.340 . S
N3 C0 1.368 . S
N3 C4 1.321 . S
N3 Co6 2.135 . S
C4 N2 1.340 . S
C4 N3 1.321 . S
C4 H28 0.930 . S
H5 C0 0.931 . S
Co6 N3 2.135 . S
Co6 N9 2.121 . S
Co6 O14 2.055 . S
Co6 O17 2.039 . S
Co6 N20 2.140 . S
C7 O8 1.227 . S
C7 O17 1.265 . S
O8 C7 1.227 . S
N9 Co6 2.121 . S
N9 C11 1.375 . S
N9 C12 1.313 . S
C10 C11 1.338 . S
C10 N13 1.377 . S
C10 H30 0.930 . S
C11 N9 1.375 . S
C11 C10 1.338 . S
C11 H15 0.931 . S
C12 N9 1.313 . S
C12 N13 1.344 . S
C12 H16 0.930 . S
N13 C10 1.377 . S
N13 C12 1.344 . S
O14 Co6 2.055 . S
O14 C18 1.253 . S
H15 C11 0.931 . S
H16 C12 0.930 . S
O17 Co6 2.039 . S
O17 C7 1.265 . S
C18 O14 1.253 . S
C18 O19 1.227 . S
O19 C18 1.227 . S
N20 Co6 2.140 . S
N20 C23 1.346 . S
N20 C24 1.345 . S
C21 C22 1.387 . S
C21 C25 1.391 . S
C22 C21 1.387 . S
C22 C23 1.369 . S
C22 H31 0.929 . S
C23 N20 1.346 . S
C23 C22 1.369 . S
C23 H26 0.928 . S
C24 N20 1.345 . S
C24 C25 1.371 . S
C24 H27 0.931 . S
C25 C21 1.391 . S
C25 C24 1.371 . S
C25 H32 0.930 . S
H26 C23 0.928 . S
H27 C24 0.931 . S
H28 C4 0.930 . S
H29 C1 0.930 . S
H30 C10 0.930 . S
H31 C22 0.929 . S
H32 C25 0.930 . S
C33 C34 1.351 . S
C33 N36 1.368 . S
C33 H38 0.931 . S
C34 C33 1.351 . S
C34 N35 1.373 . S
C34 H62 0.930 . S
N35 C34 1.373 . S
N35 C37 1.340 . S
N36 C33 1.368 . S
N36 C37 1.321 . S
N36 Co39 2.135 . S
C37 N35 1.340 . S
C37 N36 1.321 . S
C37 H61 0.930 . S
H38 C33 0.931 . S
Co39 N36 2.135 . S
Co39 N42 2.121 . S
Co39 O47 2.055 . S
Co39 O50 2.039 . S
Co39 N53 2.140 . S
C40 O41 1.227 . S
C40 O50 1.265 . S
O41 C40 1.227 . S
N42 Co39 2.121 . S
N42 C44 1.375 . S
N42 C45 1.313 . S
C43 C44 1.338 . S
C43 N46 1.377 . S
C43 H63 0.930 . S
C44 N42 1.375 . S
C44 C43 1.338 . S
C44 H48 0.931 . S
C45 N42 1.313 . S
C45 N46 1.344 . S
C45 H49 0.930 . S
N46 C43 1.377 . S
N46 C45 1.344 . S
O47 Co39 2.055 . S
O47 C51 1.253 . S
H48 C44 0.931 . S
H49 C45 0.930 . S
O50 Co39 2.039 . S
O50 C40 1.265 . S
C51 O47 1.253 . S
C51 O52 1.227 . S
O52 C51 1.227 . S
N53 Co39 2.140 . S
N53 C56 1.346 . S
N53 C57 1.345 . S
C54 C55 1.387 . S
C54 C58 1.391 . S
C55 C54 1.387 . S
C55 C56 1.369 . S
C55 H64 0.929 . S
C56 N53 1.346 . S
C56 C55 1.369 . S
C56 H59 0.928 . S
C57 N53 1.345 . S
C57 C58 1.371 . S
C57 H60 0.931 . S
C58 C54 1.391 . S
C58 C57 1.371 . S
C58 H65 0.930 . S
H59 C56 0.928 . S
H60 C57 0.931 . S
H61 C37 0.930 . S
H62 C34 0.930 . S
H63 C43 0.930 . S
H64 C55 0.929 . S
H65 C58 0.930 . S
C66 C67 1.351 . S
C66 N69 1.368 . S
C66 H71 0.931 . S
C67 C66 1.351 . S
C67 N68 1.373 . S
C67 H95 0.930 . S
N68 C67 1.373 . S
N68 C70 1.340 . S
N69 C66 1.368 . S
N69 C70 1.321 . S
N69 Co72 2.135 . S
C70 N68 1.340 . S
C70 N69 1.321 . S
C70 H94 0.930 . S
H71 C66 0.931 . S
Co72 N69 2.135 . S
Co72 N75 2.121 . S
Co72 O80 2.055 . S
Co72 O83 2.039 . S
Co72 N86 2.140 . S
C73 O74 1.227 . S
C73 O83 1.265 . S
O74 C73 1.227 . S
N75 Co72 2.121 . S
N75 C77 1.375 . S
N75 C78 1.313 . S
C76 C77 1.338 . S
C76 N79 1.377 . S
C76 H96 0.930 . S
C77 N75 1.375 . S
C77 C76 1.338 . S
C77 H81 0.931 . S
C78 N75 1.313 . S
C78 N79 1.344 . S
C78 H82 0.930 . S
N79 C76 1.377 . S
N79 C78 1.344 . S
O80 Co72 2.055 . S
O80 C84 1.253 . S
H81 C77 0.931 . S
H82 C78 0.930 . S
O83 Co72 2.039 . S
O83 C73 1.265 . S
C84 O80 1.253 . S
C84 O85 1.227 . S
O85 C84 1.227 . S
N86 Co72 2.140 . S
N86 C89 1.346 . S
N86 C90 1.345 . S
C87 C88 1.387 . S
C87 C91 1.391 . S
C88 C87 1.387 . S
C88 C89 1.369 . S
C88 H97 0.929 . S
C89 N86 1.346 . S
C89 C88 1.369 . S
C89 H92 0.928 . S
C90 N86 1.345 . S
C90 C91 1.371 . S
C90 H93 0.931 . S
C91 C87 1.391 . S
C91 C90 1.371 . S
C91 H98 0.930 . S
H92 C89 0.928 . S
H93 C90 0.931 . S
H94 C70 0.930 . S
H95 C67 0.930 . S
H96 C76 0.930 . S
H97 C88 0.929 . S
H98 C91 0.930 . S
C99 C100 1.351 . S
C99 N102 1.368 . S
C99 H104 0.931 . S
C100 C99 1.351 . S
C100 N101 1.373 . S
C100 H128 0.930 . S
N101 C100 1.373 . S
N101 C103 1.340 . S
N102 C99 1.368 . S
N102 C103 1.321 . S
N102 Co105 2.135 . S
C103 N101 1.340 . S
C103 N102 1.321 . S
C103 H127 0.930 . S
H104 C99 0.931 . S
Co105 N102 2.135 . S
Co105 N108 2.121 . S
Co105 O113 2.055 . S
Co105 O116 2.039 . S
Co105 N119 2.140 . S
C106 O107 1.227 . S
C106 O116 1.265 . S
O107 C106 1.227 . S
N108 Co105 2.121 . S
N108 C110 1.375 . S
N108 C111 1.313 . S
C109 C110 1.338 . S
C109 N112 1.377 . S
C109 H129 0.930 . S
C110 N108 1.375 . S
C110 C109 1.338 . S
C110 H114 0.931 . S
C111 N108 1.313 . S
C111 N112 1.344 . S
C111 H115 0.930 . S
N112 C109 1.377 . S
N112 C111 1.344 . S
O113 Co105 2.055 . S
O113 C117 1.253 . S
H114 C110 0.931 . S
H115 C111 0.930 . S
O116 Co105 2.039 . S
O116 C106 1.265 . S
C117 O113 1.253 . S
C117 O118 1.227 . S
O118 C117 1.227 . S
N119 Co105 2.140 . S
N119 C122 1.346 . S
N119 C123 1.345 . S
C120 C121 1.387 . S
C120 C124 1.391 . S
C121 C120 1.387 . S
C121 C122 1.369 . S
C121 H130 0.929 . S
C122 N119 1.346 . S
C122 C121 1.369 . S
C122 H125 0.928 . S
C123 N119 1.345 . S
C123 C124 1.371 . S
C123 H126 0.931 . S
C124 C120 1.391 . S
C124 C123 1.371 . S
C124 H131 0.930 . S
H125 C122 0.928 . S
H126 C123 0.931 . S
H127 C103 0.930 . S
H128 C100 0.930 . S
H129 C109 0.930 . S
H130 C121 0.929 . S
H131 C124 0.930 . S
C132 C133 1.351 . S
C132 N135 1.368 . S
C132 H137 0.931 . S
C133 C132 1.351 . S
C133 N134 1.373 . S
C133 H161 0.930 . S
N134 C133 1.373 . S
N134 C136 1.340 . S
N135 C132 1.368 . S
N135 C136 1.321 . S
N135 Co138 2.135 . S
C136 N134 1.340 . S
C136 N135 1.321 . S
C136 H160 0.930 . S
H137 C132 0.931 . S
Co138 N135 2.135 . S
Co138 N141 2.121 . S
Co138 O146 2.055 . S
Co138 O149 2.039 . S
Co138 N152 2.140 . S
C139 O140 1.227 . S
C139 O149 1.265 . S
O140 C139 1.227 . S
N141 Co138 2.121 . S
N141 C143 1.375 . S
N141 C144 1.313 . S
C142 C143 1.338 . S
C142 N145 1.377 . S
C142 H162 0.930 . S
C143 N141 1.375 . S
C143 C142 1.338 . S
C143 H147 0.931 . S
C144 N141 1.313 . S
C144 N145 1.344 . S
C144 H148 0.930 . S
N145 C142 1.377 . S
N145 C144 1.344 . S
O146 Co138 2.055 . S
O146 C150 1.253 . S
H147 C143 0.931 . S
H148 C144 0.930 . S
O149 Co138 2.039 . S
O149 C139 1.265 . S
C150 O146 1.253 . S
C150 O151 1.227 . S
O151 C150 1.227 . S
N152 Co138 2.140 . S
N152 C155 1.346 . S
N152 C156 1.345 . S
C153 C154 1.387 . S
C153 C157 1.391 . S
C154 C153 1.387 . S
C154 C155 1.369 . S
C154 H163 0.929 . S
C155 N152 1.346 . S
C155 C154 1.369 . S
C155 H158 0.928 . S
C156 N152 1.345 . S
C156 C157 1.371 . S
C156 H159 0.931 . S
C157 C153 1.391 . S
C157 C156 1.371 . S
C157 H164 0.930 . S
H158 C155 0.928 . S
H159 C156 0.931 . S
H160 C136 0.930 . S
H161 C133 0.930 . S
H162 C142 0.930 . S
H163 C154 0.929 . S
H164 C157 0.930 . S
C165 C166 1.351 . S
C165 N168 1.368 . S
C165 H170 0.931 . S
C166 C165 1.351 . S
C166 N167 1.373 . S
C166 H194 0.930 . S
N167 C166 1.373 . S
N167 C169 1.340 . S
N168 C165 1.368 . S
N168 C169 1.321 . S
N168 Co171 2.135 . S
C169 N167 1.340 . S
C169 N168 1.321 . S
C169 H193 0.930 . S
H170 C165 0.931 . S
Co171 N168 2.135 . S
Co171 N174 2.121 . S
Co171 O179 2.055 . S
Co171 O182 2.039 . S
Co171 N185 2.140 . S
C172 O173 1.227 . S
C172 O182 1.265 . S
O173 C172 1.227 . S
N174 Co171 2.121 . S
N174 C176 1.375 . S
N174 C177 1.313 . S
C175 C176 1.338 . S
C175 N178 1.377 . S
C175 H195 0.930 . S
C176 N174 1.375 . S
C176 C175 1.338 . S
C176 H180 0.931 . S
C177 N174 1.313 . S
C177 N178 1.344 . S
C177 H181 0.930 . S
N178 C175 1.377 . S
N178 C177 1.344 . S
O179 Co171 2.055 . S
O179 C183 1.253 . S
H180 C176 0.931 . S
H181 C177 0.930 . S
O182 Co171 2.039 . S
O182 C172 1.265 . S
C183 O179 1.253 . S
C183 O184 1.227 . S
O184 C183 1.227 . S
N185 Co171 2.140 . S
N185 C188 1.346 . S
N185 C189 1.345 . S
C186 C187 1.387 . S
C186 C190 1.391 . S
C187 C186 1.387 . S
C187 C188 1.369 . S
C187 H196 0.929 . S
C188 N185 1.346 . S
C188 C187 1.369 . S
C188 H191 0.928 . S
C189 N185 1.345 . S
C189 C190 1.371 . S
C189 H192 0.931 . S
C190 C186 1.391 . S
C190 C189 1.371 . S
C190 H197 0.930 . S
H191 C188 0.928 . S
H192 C189 0.931 . S
H193 C169 0.930 . S
H194 C166 0.930 . S
H195 C175 0.930 . S
H196 C187 0.929 . S
H197 C190 0.930 . S
C198 C199 1.351 . S
C198 N201 1.368 . S
C198 H203 0.931 . S
C199 C198 1.351 . S
C199 N200 1.373 . S
C199 H227 0.930 . S
N200 C199 1.373 . S
N200 C202 1.340 . S
N201 C198 1.368 . S
N201 C202 1.321 . S
N201 Co204 2.135 . S
C202 N200 1.340 . S
C202 N201 1.321 . S
C202 H226 0.930 . S
H203 C198 0.931 . S
Co204 N201 2.135 . S
Co204 N207 2.121 . S
Co204 O212 2.055 . S
Co204 O215 2.039 . S
Co204 N218 2.140 . S
C205 O206 1.227 . S
C205 O215 1.265 . S
O206 C205 1.227 . S
N207 Co204 2.121 . S
N207 C209 1.375 . S
N207 C210 1.313 . S
C208 C209 1.338 . S
C208 N211 1.377 . S
C208 H228 0.930 . S
C209 N207 1.375 . S
C209 C208 1.338 . S
C209 H213 0.931 . S
C210 N207 1.313 . S
C210 N211 1.344 . S
C210 H214 0.930 . S
N211 C208 1.377 . S
N211 C210 1.344 . S
O212 Co204 2.055 . S
O212 C216 1.253 . S
H213 C209 0.931 . S
H214 C210 0.930 . S
O215 Co204 2.039 . S
O215 C205 1.265 . S
C216 O212 1.253 . S
C216 O217 1.227 . S
O217 C216 1.227 . S
N218 Co204 2.140 . S
N218 C221 1.346 . S
N218 C222 1.345 . S
C219 C220 1.387 . S
C219 C223 1.391 . S
C220 C219 1.387 . S
C220 C221 1.369 . S
C220 H229 0.929 . S
C221 N218 1.346 . S
C221 C220 1.369 . S
C221 H224 0.928 . S
C222 N218 1.345 . S
C222 C223 1.371 . S
C222 H225 0.931 . S
C223 C219 1.391 . S
C223 C222 1.371 . S
C223 H230 0.930 . S
H224 C221 0.928 . S
H225 C222 0.931 . S
H226 C202 0.930 . S
H227 C199 0.930 . S
H228 C208 0.930 . S
H229 C220 0.929 . S
H230 C223 0.930 . S
C231 C232 1.351 . S
C231 N234 1.368 . S
C231 H236 0.931 . S
C232 C231 1.351 . S
C232 N233 1.373 . S
C232 H260 0.930 . S
N233 C232 1.373 . S
N233 C235 1.340 . S
N234 C231 1.368 . S
N234 C235 1.321 . S
N234 Co237 2.135 . S
C235 N233 1.340 . S
C235 N234 1.321 . S
C235 H259 0.930 . S
H236 C231 0.931 . S
Co237 N234 2.135 . S
Co237 N240 2.121 . S
Co237 O245 2.055 . S
Co237 O248 2.039 . S
Co237 N251 2.140 . S
C238 O239 1.227 . S
C238 O248 1.265 . S
O239 C238 1.227 . S
N240 Co237 2.121 . S
N240 C242 1.375 . S
N240 C243 1.313 . S
C241 C242 1.338 . S
C241 N244 1.377 . S
C241 H261 0.930 . S
C242 N240 1.375 . S
C242 C241 1.338 . S
C242 H246 0.931 . S
C243 N240 1.313 . S
C243 N244 1.344 . S
C243 H247 0.930 . S
N244 C241 1.377 . S
N244 C243 1.344 . S
O245 Co237 2.055 . S
O245 C249 1.253 . S
H246 C242 0.931 . S
H247 C243 0.930 . S
O248 Co237 2.039 . S
O248 C238 1.265 . S
C249 O245 1.253 . S
C249 O250 1.227 . S
O250 C249 1.227 . S
N251 Co237 2.140 . S
N251 C254 1.346 . S
N251 C255 1.345 . S
C252 C253 1.387 . S
C252 C256 1.391 . S
C253 C252 1.387 . S
C253 C254 1.369 . S
C253 H262 0.929 . S
C254 N251 1.346 . S
C254 C253 1.369 . S
C254 H257 0.928 . S
C255 N251 1.345 . S
C255 C256 1.371 . S
C255 H258 0.931 . S
C256 C252 1.391 . S
C256 C255 1.371 . S
C256 H263 0.930 . S
H257 C254 0.928 . S
H258 C255 0.931 . S
H259 C235 0.930 . S
H260 C232 0.930 . S
H261 C241 0.930 . S
H262 C253 0.929 . S
H263 C256 0.930 . S
C264 C265 1.351 . S
C264 N267 1.368 . S
C264 H269 0.931 . S
C265 C264 1.351 . S
C265 N266 1.373 . S
C265 H293 0.930 . S
N266 C265 1.373 . S
N266 C268 1.340 . S
N267 C264 1.368 . S
N267 C268 1.321 . S
N267 Co270 2.135 . S
C268 N266 1.340 . S
C268 N267 1.321 . S
C268 H292 0.930 . S
H269 C264 0.931 . S
Co270 N267 2.135 . S
Co270 N273 2.121 . S
Co270 O278 2.055 . S
Co270 O281 2.039 . S
Co270 N284 2.140 . S
C271 O272 1.227 . S
C271 O281 1.265 . S
O272 C271 1.227 . S
N273 Co270 2.121 . S
N273 C275 1.375 . S
N273 C276 1.313 . S
C274 C275 1.338 . S
C274 N277 1.377 . S
C274 H294 0.930 . S
C275 N273 1.375 . S
C275 C274 1.338 . S
C275 H279 0.931 . S
C276 N273 1.313 . S
C276 N277 1.344 . S
C276 H280 0.930 . S
N277 C274 1.377 . S
N277 C276 1.344 . S
O278 Co270 2.055 . S
O278 C282 1.253 . S
H279 C275 0.931 . S
H280 C276 0.930 . S
O281 Co270 2.039 . S
O281 C271 1.265 . S
C282 O278 1.253 . S
C282 O283 1.227 . S
O283 C282 1.227 . S
N284 Co270 2.140 . S
N284 C287 1.346 . S
N284 C288 1.345 . S
C285 C286 1.387 . S
C285 C289 1.391 . S
C286 C285 1.387 . S
C286 C287 1.369 . S
C286 H295 0.929 . S
C287 N284 1.346 . S
C287 C286 1.369 . S
C287 H290 0.928 . S
C288 N284 1.345 . S
C288 C289 1.371 . S
C288 H291 0.931 . S
C289 C285 1.391 . S
C289 C288 1.371 . S
C289 H296 0.930 . S
H290 C287 0.928 . S
H291 C288 0.931 . S
H292 C268 0.930 . S
H293 C265 0.930 . S
H294 C274 0.930 . S
H295 C286 0.929 . S
H296 C289 0.930 . S
C297 C298 1.351 . S
C297 N300 1.368 . S
C297 H302 0.931 . S
C298 C297 1.351 . S
C298 N299 1.373 . S
C298 H326 0.930 . S
N299 C298 1.373 . S
N299 C301 1.340 . S
N300 C297 1.368 . S
N300 C301 1.321 . S
N300 Co303 2.135 . S
C301 N299 1.340 . S
C301 N300 1.321 . S
C301 H325 0.930 . S
H302 C297 0.931 . S
Co303 N300 2.135 . S
Co303 N306 2.121 . S
Co303 O311 2.055 . S
Co303 O314 2.039 . S
Co303 N317 2.140 . S
C304 O305 1.227 . S
C304 O314 1.265 . S
O305 C304 1.227 . S
N306 Co303 2.121 . S
N306 C308 1.375 . S
N306 C309 1.313 . S
C307 C308 1.338 . S
C307 N310 1.377 . S
C307 H327 0.930 . S
C308 N306 1.375 . S
C308 C307 1.338 . S
C308 H312 0.931 . S
C309 N306 1.313 . S
C309 N310 1.344 . S
C309 H313 0.930 . S
N310 C307 1.377 . S
N310 C309 1.344 . S
O311 Co303 2.055 . S
O311 C315 1.253 . S
H312 C308 0.931 . S
H313 C309 0.930 . S
O314 Co303 2.039 . S
O314 C304 1.265 . S
C315 O311 1.253 . S
C315 O316 1.227 . S
O316 C315 1.227 . S
N317 Co303 2.140 . S
N317 C320 1.346 . S
N317 C321 1.345 . S
C318 C319 1.387 . S
C318 C322 1.391 . S
C319 C318 1.387 . S
C319 C320 1.369 . S
C319 H328 0.929 . S
C320 N317 1.346 . S
C320 C319 1.369 . S
C320 H323 0.928 . S
C321 N317 1.345 . S
C321 C322 1.371 . S
C321 H324 0.931 . S
C322 C318 1.391 . S
C322 C321 1.371 . S
C322 H329 0.930 . S
H323 C320 0.928 . S
H324 C321 0.931 . S
H325 C301 0.930 . S
H326 C298 0.930 . S
H327 C307 0.930 . S
H328 C319 0.929 . S
H329 C322 0.930 . S
C330 C331 1.351 . S
C330 N333 1.368 . S
C330 H335 0.931 . S
C331 C330 1.351 . S
C331 N332 1.373 . S
C331 H359 0.930 . S
N332 C331 1.373 . S
N332 C334 1.340 . S
N333 C330 1.368 . S
N333 C334 1.321 . S
N333 Co336 2.135 . S
C334 N332 1.340 . S
C334 N333 1.321 . S
C334 H358 0.930 . S
H335 C330 0.931 . S
Co336 N333 2.135 . S
Co336 N339 2.121 . S
Co336 O344 2.055 . S
Co336 O347 2.039 . S
Co336 N350 2.140 . S
C337 O338 1.227 . S
C337 O347 1.265 . S
O338 C337 1.227 . S
N339 Co336 2.121 . S
N339 C341 1.375 . S
N339 C342 1.313 . S
C340 C341 1.338 . S
C340 N343 1.377 . S
C340 H360 0.930 . S
C341 N339 1.375 . S
C341 C340 1.338 . S
C341 H345 0.931 . S
C342 N339 1.313 . S
C342 N343 1.344 . S
C342 H346 0.930 . S
N343 C340 1.377 . S
N343 C342 1.344 . S
O344 Co336 2.055 . S
O344 C348 1.253 . S
H345 C341 0.931 . S
H346 C342 0.930 . S
O347 Co336 2.039 . S
O347 C337 1.265 . S
C348 O344 1.253 . S
C348 O349 1.227 . S
O349 C348 1.227 . S
N350 Co336 2.140 . S
N350 C353 1.346 . S
N350 C354 1.345 . S
C351 C352 1.387 . S
C351 C355 1.391 . S
C352 C351 1.387 . S
C352 C353 1.369 . S
C352 H361 0.929 . S
C353 N350 1.346 . S
C353 C352 1.369 . S
C353 H356 0.928 . S
C354 N350 1.345 . S
C354 C355 1.371 . S
C354 H357 0.931 . S
C355 C351 1.391 . S
C355 C354 1.371 . S
C355 H362 0.930 . S
H356 C353 0.928 . S
H357 C354 0.931 . S
H358 C334 0.930 . S
H359 C331 0.930 . S
H360 C340 0.930 . S
H361 C352 0.929 . S
H362 C355 0.930 . S
C363 C364 1.351 . S
C363 N366 1.368 . S
C363 H368 0.931 . S
C364 C363 1.351 . S
C364 N365 1.373 . S
C364 H392 0.930 . S
N365 C364 1.373 . S
N365 C367 1.340 . S
N366 C363 1.368 . S
N366 C367 1.321 . S
N366 Co369 2.135 . S
C367 N365 1.340 . S
C367 N366 1.321 . S
C367 H391 0.930 . S
H368 C363 0.931 . S
Co369 N366 2.135 . S
Co369 N372 2.121 . S
Co369 O377 2.055 . S
Co369 O380 2.039 . S
Co369 N383 2.140 . S
C370 O371 1.227 . S
C370 O380 1.265 . S
O371 C370 1.227 . S
N372 Co369 2.121 . S
N372 C374 1.375 . S
N372 C375 1.313 . S
C373 C374 1.338 . S
C373 N376 1.377 . S
C373 H393 0.930 . S
C374 N372 1.375 . S
C374 C373 1.338 . S
C374 H378 0.931 . S
C375 N372 1.313 . S
C375 N376 1.344 . S
C375 H379 0.930 . S
N376 C373 1.377 . S
N376 C375 1.344 . S
O377 Co369 2.055 . S
O377 C381 1.253 . S
H378 C374 0.931 . S
H379 C375 0.930 . S
O380 Co369 2.039 . S
O380 C370 1.265 . S
C381 O377 1.253 . S
C381 O382 1.227 . S
O382 C381 1.227 . S
N383 Co369 2.140 . S
N383 C386 1.346 . S
N383 C387 1.345 . S
C384 C385 1.387 . S
C384 C388 1.391 . S
C385 C384 1.387 . S
C385 C386 1.369 . S
C385 H394 0.929 . S
C386 N383 1.346 . S
C386 C385 1.369 . S
C386 H389 0.928 . S
C387 N383 1.345 . S
C387 C388 1.371 . S
C387 H390 0.931 . S
C388 C384 1.391 . S
C388 C387 1.371 . S
C388 H395 0.930 . S
H389 C386 0.928 . S
H390 C387 0.931 . S
H391 C367 0.930 . S
H392 C364 0.930 . S
H393 C373 0.930 . S
H394 C385 0.929 . S
H395 C388 0.930 . S
H396 C404 0.929 . S
H397 C406 0.930 . S
H398 C408 0.930 . S
H399 C411 0.929 . S
H400 C414 0.930 . S
H401 C416 0.960 . S
H402 C416 0.960 . S
H403 C416 0.960 . S
C404 H396 0.929 . S
C404 C405 1.377 . S
C404 C406 1.384 . S
C405 C404 1.377 . S
C405 C411 1.390 . S
C406 H397 0.930 . S
C406 C404 1.384 . S
C406 C407 1.372 . S
C407 C406 1.372 . S
C407 C408 1.400 . S
C407 C412 1.490 . S
C408 H398 0.930 . S
C408 C407 1.400 . S
C408 C411 1.386 . S
H409 C425 0.930 . S
H410 C426 0.931 . S
C411 H399 0.929 . S
C411 C405 1.390 . S
C411 C408 1.386 . S
C412 C407 1.490 . S
C412 C414 1.395 . S
C412 C415 1.403 . S
H413 C419 0.930 . S
C414 H400 0.930 . S
C414 C412 1.395 . S
C414 C417 1.403 . S
C415 C412 1.403 . S
C415 C416 1.524 . S
C415 C419 1.400 . S
C416 H401 0.960 . S
C416 H402 0.960 . S
C416 H403 0.960 . S
C416 C415 1.524 . S
C417 C414 1.403 . S
C417 C418 1.392 . S
C417 C421 1.495 . S
C418 C417 1.392 . S
C418 C419 1.385 . S
C418 C420 1.478 . S
C419 H413 0.930 . S
C419 C415 1.400 . S
C419 C418 1.385 . S
C420 C418 1.478 . S
C420 C422 1.381 . S
C420 C426 1.383 . S
C421 C417 1.495 . S
C421 H427 0.959 . S
C421 H428 0.961 . S
C421 H429 0.960 . S
C422 C420 1.381 . S
C422 C423 1.394 . S
C422 H430 0.930 . S
C423 C422 1.394 . S
C423 C424 1.383 . S
C423 H431 0.929 . S
C424 C423 1.383 . S
C424 C425 1.377 . S
C425 H409 0.930 . S
C425 C424 1.377 . S
C425 C426 1.379 . S
C426 H410 0.931 . S
C426 C420 1.383 . S
C426 C425 1.379 . S
H427 C421 0.959 . S
H428 C421 0.961 . S
H429 C421 0.960 . S
H430 C422 0.930 . S
H431 C423 0.929 . S
H432 C440 0.929 . S
H433 C442 0.930 . S
H434 C444 0.930 . S
H435 C447 0.929 . S
H436 C450 0.930 . S
H437 C452 0.960 . S
H438 C452 0.960 . S
H439 C452 0.960 . S
C440 H432 0.929 . S
C440 C441 1.377 . S
C440 C442 1.384 . S
C441 C440 1.377 . S
C441 C447 1.390 . S
C442 H433 0.930 . S
C442 C440 1.384 . S
C442 C443 1.372 . S
C443 C442 1.372 . S
C443 C444 1.400 . S
C443 C448 1.490 . S
C444 H434 0.930 . S
C444 C443 1.400 . S
C444 C447 1.386 . S
H445 C461 0.930 . S
H446 C462 0.931 . S
C447 H435 0.929 . S
C447 C441 1.390 . S
C447 C444 1.386 . S
C448 C443 1.490 . S
C448 C450 1.395 . S
C448 C451 1.403 . S
H449 C455 0.930 . S
C450 H436 0.930 . S
C450 C448 1.395 . S
C450 C453 1.403 . S
C451 C448 1.403 . S
C451 C452 1.524 . S
C451 C455 1.400 . S
C452 H437 0.960 . S
C452 H438 0.960 . S
C452 H439 0.960 . S
C452 C451 1.524 . S
C453 C450 1.403 . S
C453 C454 1.392 . S
C453 C457 1.495 . S
C454 C453 1.392 . S
C454 C455 1.385 . S
C454 C456 1.478 . S
C455 H449 0.930 . S
C455 C451 1.400 . S
C455 C454 1.385 . S
C456 C454 1.478 . S
C456 C458 1.381 . S
C456 C462 1.383 . S
C457 C453 1.495 . S
C457 H463 0.959 . S
C457 H464 0.961 . S
C457 H465 0.960 . S
C458 C456 1.381 . S
C458 C459 1.394 . S
C458 H466 0.930 . S
C459 C458 1.394 . S
C459 C460 1.383 . S
C459 H467 0.929 . S
C460 C459 1.383 . S
C460 C461 1.377 . S
C461 H445 0.930 . S
C461 C460 1.377 . S
C461 C462 1.379 . S
C462 H446 0.931 . S
C462 C456 1.383 . S
C462 C461 1.379 . S
H463 C457 0.959 . S
H464 C457 0.961 . S
H465 C457 0.960 . S
H466 C458 0.930 . S
H467 C459 0.929 . S
H468 C476 0.929 . S
H469 C478 0.930 . S
H470 C480 0.930 . S
H471 C483 0.929 . S
H472 C486 0.930 . S
H473 C488 0.960 . S
H474 C488 0.960 . S
H475 C488 0.960 . S
C476 H468 0.929 . S
C476 C477 1.377 . S
C476 C478 1.384 . S
C477 C476 1.377 . S
C477 C483 1.390 . S
C478 H469 0.930 . S
C478 C476 1.384 . S
C478 C479 1.372 . S
C479 C478 1.372 . S
C479 C480 1.400 . S
C479 C484 1.490 . S
C480 H470 0.930 . S
C480 C479 1.400 . S
C480 C483 1.386 . S
H481 C497 0.930 . S
H482 C498 0.931 . S
C483 H471 0.929 . S
C483 C477 1.390 . S
C483 C480 1.386 . S
C484 C479 1.490 . S
C484 C486 1.395 . S
C484 C487 1.403 . S
H485 C491 0.930 . S
C486 H472 0.930 . S
C486 C484 1.395 . S
C486 C489 1.403 . S
C487 C484 1.403 . S
C487 C488 1.524 . S
C487 C491 1.400 . S
C488 H473 0.960 . S
C488 H474 0.960 . S
C488 H475 0.960 . S
C488 C487 1.524 . S
C489 C486 1.403 . S
C489 C490 1.392 . S
C489 C493 1.495 . S
C490 C489 1.392 . S
C490 C491 1.385 . S
C490 C492 1.478 . S
C491 H485 0.930 . S
C491 C487 1.400 . S
C491 C490 1.385 . S
C492 C490 1.478 . S
C492 C494 1.381 . S
C492 C498 1.383 . S
C493 C489 1.495 . S
C493 H499 0.959 . S
C493 H500 0.961 . S
C493 H501 0.960 . S
C494 C492 1.381 . S
C494 C495 1.394 . S
C494 H502 0.930 . S
C495 C494 1.394 . S
C495 C496 1.383 . S
C495 H503 0.929 . S
C496 C495 1.383 . S
C496 C497 1.377 . S
C497 H481 0.930 . S
C497 C496 1.377 . S
C497 C498 1.379 . S
C498 H482 0.931 . S
C498 C492 1.383 . S
C498 C497 1.379 . S
H499 C493 0.959 . S
H500 C493 0.961 . S
H501 C493 0.960 . S
H502 C494 0.930 . S
H503 C495 0.929 . S
H504 C512 0.929 . S
H505 C514 0.930 . S
H506 C516 0.930 . S
H507 C519 0.929 . S
H508 C522 0.930 . S
H509 C524 0.960 . S
H510 C524 0.960 . S
H511 C524 0.960 . S
C512 H504 0.929 . S
C512 C513 1.377 . S
C512 C514 1.384 . S
C513 C512 1.377 . S
C513 C519 1.390 . S
C514 H505 0.930 . S
C514 C512 1.384 . S
C514 C515 1.372 . S
C515 C514 1.372 . S
C515 C516 1.400 . S
C515 C520 1.490 . S
C516 H506 0.930 . S
C516 C515 1.400 . S
C516 C519 1.386 . S
H517 C533 0.930 . S
H518 C534 0.931 . S
C519 H507 0.929 . S
C519 C513 1.390 . S
C519 C516 1.386 . S
C520 C515 1.490 . S
C520 C522 1.395 . S
C520 C523 1.403 . S
H521 C527 0.930 . S
C522 H508 0.930 . S
C522 C520 1.395 . S
C522 C525 1.403 . S
C523 C520 1.403 . S
C523 C524 1.524 . S
C523 C527 1.400 . S
C524 H509 0.960 . S
C524 H510 0.960 . S
C524 H511 0.960 . S
C524 C523 1.524 . S
C525 C522 1.403 . S
C525 C526 1.392 . S
C525 C529 1.495 . S
C526 C525 1.392 . S
C526 C527 1.385 . S
C526 C528 1.478 . S
C527 H521 0.930 . S
C527 C523 1.400 . S
C527 C526 1.385 . S
C528 C526 1.478 . S
C528 C530 1.381 . S
C528 C534 1.383 . S
C529 C525 1.495 . S
C529 H535 0.959 . S
C529 H536 0.961 . S
C529 H537 0.960 . S
C530 C528 1.381 . S
C530 C531 1.394 . S
C530 H538 0.930 . S
C531 C530 1.394 . S
C531 C532 1.383 . S
C531 H539 0.929 . S
C532 C531 1.383 . S
C532 C533 1.377 . S
C533 H517 0.930 . S
C533 C532 1.377 . S
C533 C534 1.379 . S
C534 H518 0.931 . S
C534 C528 1.383 . S
C534 C533 1.379 . S
H535 C529 0.959 . S
H536 C529 0.961 . S
H537 C529 0.960 . S
H538 C530 0.930 . S
H539 C531 0.929 . S
H540 C548 0.929 . S
H541 C550 0.930 . S
H542 C552 0.930 . S
H543 C555 0.929 . S
H544 C558 0.930 . S
H545 C560 0.960 . S
H546 C560 0.960 . S
H547 C560 0.960 . S
C548 H540 0.929 . S
C548 C549 1.377 . S
C548 C550 1.384 . S
C549 C548 1.377 . S
C549 C555 1.390 . S
C550 H541 0.930 . S
C550 C548 1.384 . S
C550 C551 1.372 . S
C551 C550 1.372 . S
C551 C552 1.400 . S
C551 C556 1.490 . S
C552 H542 0.930 . S
C552 C551 1.400 . S
C552 C555 1.386 . S
H553 C569 0.930 . S
H554 C570 0.931 . S
C555 H543 0.929 . S
C555 C549 1.390 . S
C555 C552 1.386 . S
C556 C551 1.490 . S
C556 C558 1.395 . S
C556 C559 1.403 . S
H557 C563 0.930 . S
C558 H544 0.930 . S
C558 C556 1.395 . S
C558 C561 1.403 . S
C559 C556 1.403 . S
C559 C560 1.524 . S
C559 C563 1.400 . S
C560 H545 0.960 . S
C560 H546 0.960 . S
C560 H547 0.960 . S
C560 C559 1.524 . S
C561 C558 1.403 . S
C561 C562 1.392 . S
C561 C565 1.495 . S
C562 C561 1.392 . S
C562 C563 1.385 . S
C562 C564 1.478 . S
C563 H557 0.930 . S
C563 C559 1.400 . S
C563 C562 1.385 . S
C564 C562 1.478 . S
C564 C566 1.381 . S
C564 C570 1.383 . S
C565 C561 1.495 . S
C565 H571 0.959 . S
C565 H572 0.961 . S
C565 H573 0.960 . S
C566 C564 1.381 . S
C566 C567 1.394 . S
C566 H574 0.930 . S
C567 C566 1.394 . S
C567 C568 1.383 . S
C567 H575 0.929 . S
C568 C567 1.383 . S
C568 C569 1.377 . S
C569 H553 0.930 . S
C569 C568 1.377 . S
C569 C570 1.379 . S
C570 H554 0.931 . S
C570 C564 1.383 . S
C570 C569 1.379 . S
H571 C565 0.959 . S
H572 C565 0.961 . S
H573 C565 0.960 . S
H574 C566 0.930 . S
H575 C567 0.929 . S
H576 C584 0.929 . S
H577 C586 0.930 . S
H578 C588 0.930 . S
H579 C591 0.929 . S
H580 C594 0.930 . S
H581 C596 0.960 . S
H582 C596 0.960 . S
H583 C596 0.960 . S
C584 H576 0.929 . S
C584 C585 1.377 . S
C584 C586 1.384 . S
C585 C584 1.377 . S
C585 C591 1.390 . S
C586 H577 0.930 . S
C586 C584 1.384 . S
C586 C587 1.372 . S
C587 C586 1.372 . S
C587 C588 1.400 . S
C587 C592 1.490 . S
C588 H578 0.930 . S
C588 C587 1.400 . S
C588 C591 1.386 . S
H589 C605 0.930 . S
H590 C606 0.931 . S
C591 H579 0.929 . S
C591 C585 1.390 . S
C591 C588 1.386 . S
C592 C587 1.490 . S
C592 C594 1.395 . S
C592 C595 1.403 . S
H593 C599 0.930 . S
C594 H580 0.930 . S
C594 C592 1.395 . S
C594 C597 1.403 . S
C595 C592 1.403 . S
C595 C596 1.524 . S
C595 C599 1.400 . S
C596 H581 0.960 . S
C596 H582 0.960 . S
C596 H583 0.960 . S
C596 C595 1.524 . S
C597 C594 1.403 . S
C597 C598 1.392 . S
C597 C601 1.495 . S
C598 C597 1.392 . S
C598 C599 1.385 . S
C598 C600 1.478 . S
C599 H593 0.930 . S
C599 C595 1.400 . S
C599 C598 1.385 . S
C600 C598 1.478 . S
C600 C602 1.381 . S
C600 C606 1.383 . S
C601 C597 1.495 . S
C601 H607 0.959 . S
C601 H608 0.961 . S
C601 H609 0.960 . S
C602 C600 1.381 . S
C602 C603 1.394 . S
C602 H610 0.930 . S
C603 C602 1.394 . S
C603 C604 1.383 . S
C603 H611 0.929 . S
C604 C603 1.383 . S
C604 C605 1.377 . S
C605 H589 0.930 . S
C605 C604 1.377 . S
C605 C606 1.379 . S
C606 H590 0.931 . S
C606 C600 1.383 . S
C606 C605 1.379 . S
H607 C601 0.959 . S
H608 C601 0.961 . S
H609 C601 0.960 . S
H610 C602 0.930 . S
H611 C603 0.929 . S
H612 C620 0.929 . S
H613 C622 0.930 . S
H614 C624 0.930 . S
H615 C627 0.929 . S
H616 C630 0.930 . S
H617 C632 0.960 . S
H618 C632 0.960 . S
H619 C632 0.960 . S
C620 H612 0.929 . S
C620 C621 1.377 . S
C620 C622 1.384 . S
C621 C620 1.377 . S
C621 C627 1.390 . S
C622 H613 0.930 . S
C622 C620 1.384 . S
C622 C623 1.372 . S
C623 C622 1.372 . S
C623 C624 1.400 . S
C623 C628 1.490 . S
C624 H614 0.930 . S
C624 C623 1.400 . S
C624 C627 1.386 . S
H625 C641 0.930 . S
H626 C642 0.931 . S
C627 H615 0.929 . S
C627 C621 1.390 . S
C627 C624 1.386 . S
C628 C623 1.490 . S
C628 C630 1.395 . S
C628 C631 1.403 . S
H629 C635 0.930 . S
C630 H616 0.930 . S
C630 C628 1.395 . S
C630 C633 1.403 . S
C631 C628 1.403 . S
C631 C632 1.524 . S
C631 C635 1.400 . S
C632 H617 0.960 . S
C632 H618 0.960 . S
C632 H619 0.960 . S
C632 C631 1.524 . S
C633 C630 1.403 . S
C633 C634 1.392 . S
C633 C637 1.495 . S
C634 C633 1.392 . S
C634 C635 1.385 . S
C634 C636 1.478 . S
C635 H629 0.930 . S
C635 C631 1.400 . S
C635 C634 1.385 . S
C636 C634 1.478 . S
C636 C638 1.381 . S
C636 C642 1.383 . S
C637 C633 1.495 . S
C637 H643 0.959 . S
C637 H644 0.961 . S
C637 H645 0.960 . S
C638 C636 1.381 . S
C638 C639 1.394 . S
C638 H646 0.930 . S
C639 C638 1.394 . S
C639 C640 1.383 . S
C639 H647 0.929 . S
C640 C639 1.383 . S
C640 C641 1.377 . S
C641 H625 0.930 . S
C641 C640 1.377 . S
C641 C642 1.379 . S
C642 H626 0.931 . S
C642 C636 1.383 . S
C642 C641 1.379 . S
H643 C637 0.959 . S
H644 C637 0.961 . S
H645 C637 0.960 . S
H646 C638 0.930 . S
H647 C639 0.929 . S
H648 C656 0.929 . S
H649 C658 0.930 . S
H650 C660 0.930 . S
H651 C663 0.929 . S
H652 C666 0.930 . S
H653 C668 0.960 . S
H654 C668 0.960 . S
H655 C668 0.960 . S
C656 H648 0.929 . S
C656 C657 1.377 . S
C656 C658 1.384 . S
C657 C656 1.377 . S
C657 C663 1.390 . S
C658 H649 0.930 . S
C658 C656 1.384 . S
C658 C659 1.372 . S
C659 C658 1.372 . S
C659 C660 1.400 . S
C659 C664 1.490 . S
C660 H650 0.930 . S
C660 C659 1.400 . S
C660 C663 1.386 . S
H661 C677 0.930 . S
H662 C678 0.931 . S
C663 H651 0.929 . S
C663 C657 1.390 . S
C663 C660 1.386 . S
C664 C659 1.490 . S
C664 C666 1.395 . S
C664 C667 1.403 . S
H665 C671 0.930 . S
C666 H652 0.930 . S
C666 C664 1.395 . S
C666 C669 1.403 . S
C667 C664 1.403 . S
C667 C668 1.524 . S
C667 C671 1.400 . S
C668 H653 0.960 . S
C668 H654 0.960 . S
C668 H655 0.960 . S
C668 C667 1.524 . S
C669 C666 1.403 . S
C669 C670 1.392 . S
C669 C673 1.495 . S
C670 C669 1.392 . S
C670 C671 1.385 . S
C670 C672 1.478 . S
C671 H665 0.930 . S
C671 C667 1.400 . S
C671 C670 1.385 . S
C672 C670 1.478 . S
C672 C674 1.381 . S
C672 C678 1.383 . S
C673 C669 1.495 . S
C673 H679 0.959 . S
C673 H680 0.961 . S
C673 H681 0.960 . S
C674 C672 1.381 . S
C674 C675 1.394 . S
C674 H682 0.930 . S
C675 C674 1.394 . S
C675 C676 1.383 . S
C675 H683 0.929 . S
C676 C675 1.383 . S
C676 C677 1.377 . S
C677 H661 0.930 . S
C677 C676 1.377 . S
C677 C678 1.379 . S
C678 H662 0.931 . S
C678 C672 1.383 . S
C678 C677 1.379 . S
H679 C673 0.959 . S
H680 C673 0.961 . S
H681 C673 0.960 . S
H682 C674 0.930 . S
H683 C675 0.929 . S
H684 C692 0.929 . S
H685 C694 0.930 . S
H686 C696 0.930 . S
H687 C699 0.929 . S
H688 C702 0.930 . S
H689 C704 0.960 . S
H690 C704 0.960 . S
H691 C704 0.960 . S
C692 H684 0.929 . S
C692 C693 1.377 . S
C692 C694 1.384 . S
C693 C692 1.377 . S
C693 C699 1.390 . S
C694 H685 0.930 . S
C694 C692 1.384 . S
C694 C695 1.372 . S
C695 C694 1.372 . S
C695 C696 1.400 . S
C695 C700 1.490 . S
C696 H686 0.930 . S
C696 C695 1.400 . S
C696 C699 1.386 . S
H697 C713 0.930 . S
H698 C714 0.931 . S
C699 H687 0.929 . S
C699 C693 1.390 . S
C699 C696 1.386 . S
C700 C695 1.490 . S
C700 C702 1.395 . S
C700 C703 1.403 . S
H701 C707 0.930 . S
C702 H688 0.930 . S
C702 C700 1.395 . S
C702 C705 1.403 . S
C703 C700 1.403 . S
C703 C704 1.524 . S
C703 C707 1.400 . S
C704 H689 0.960 . S
C704 H690 0.960 . S
C704 H691 0.960 . S
C704 C703 1.524 . S
C705 C702 1.403 . S
C705 C706 1.392 . S
C705 C709 1.495 . S
C706 C705 1.392 . S
C706 C707 1.385 . S
C706 C708 1.478 . S
C707 H701 0.930 . S
C707 C703 1.400 . S
C707 C706 1.385 . S
C708 C706 1.478 . S
C708 C710 1.381 . S
C708 C714 1.383 . S
C709 C705 1.495 . S
C709 H715 0.959 . S
C709 H716 0.961 . S
C709 H717 0.960 . S
C710 C708 1.381 . S
C710 C711 1.394 . S
C710 H718 0.930 . S
C711 C710 1.394 . S
C711 C712 1.383 . S
C711 H719 0.929 . S
C712 C711 1.383 . S
C712 C713 1.377 . S
C713 H697 0.930 . S
C713 C712 1.377 . S
C713 C714 1.379 . S
C714 H698 0.931 . S
C714 C708 1.383 . S
C714 C713 1.379 . S
H715 C709 0.959 . S
H716 C709 0.961 . S
H717 C709 0.960 . S
H718 C710 0.930 . S
H719 C711 0.929 . S
H720 C728 0.929 . S
H721 C730 0.930 . S
H722 C732 0.930 . S
H723 C735 0.929 . S
H724 C738 0.930 . S
H725 C740 0.960 . S
H726 C740 0.960 . S
H727 C740 0.960 . S
C728 H720 0.929 . S
C728 C729 1.377 . S
C728 C730 1.384 . S
C729 C728 1.377 . S
C729 C735 1.390 . S
C730 H721 0.930 . S
C730 C728 1.384 . S
C730 C731 1.372 . S
C731 C730 1.372 . S
C731 C732 1.400 . S
C731 C736 1.490 . S
C732 H722 0.930 . S
C732 C731 1.400 . S
C732 C735 1.386 . S
H733 C749 0.930 . S
H734 C750 0.931 . S
C735 H723 0.929 . S
C735 C729 1.390 . S
C735 C732 1.386 . S
C736 C731 1.490 . S
C736 C738 1.395 . S
C736 C739 1.403 . S
H737 C743 0.930 . S
C738 H724 0.930 . S
C738 C736 1.395 . S
C738 C741 1.403 . S
C739 C736 1.403 . S
C739 C740 1.524 . S
C739 C743 1.400 . S
C740 H725 0.960 . S
C740 H726 0.960 . S
C740 H727 0.960 . S
C740 C739 1.524 . S
C741 C738 1.403 . S
C741 C742 1.392 . S
C741 C745 1.495 . S
C742 C741 1.392 . S
C742 C743 1.385 . S
C742 C744 1.478 . S
C743 H737 0.930 . S
C743 C739 1.400 . S
C743 C742 1.385 . S
C744 C742 1.478 . S
C744 C746 1.381 . S
C744 C750 1.383 . S
C745 C741 1.495 . S
C745 H751 0.959 . S
C745 H752 0.961 . S
C745 H753 0.960 . S
C746 C744 1.381 . S
C746 C747 1.394 . S
C746 H754 0.930 . S
C747 C746 1.394 . S
C747 C748 1.383 . S
C747 H755 0.929 . S
C748 C747 1.383 . S
C748 C749 1.377 . S
C749 H733 0.930 . S
C749 C748 1.377 . S
C749 C750 1.379 . S
C750 H734 0.931 . S
C750 C744 1.383 . S
C750 C749 1.379 . S
H751 C745 0.959 . S
H752 C745 0.961 . S
H753 C745 0.960 . S
H754 C746 0.930 . S
H755 C747 0.929 . S
H756 C764 0.929 . S
H757 C766 0.930 . S
H758 C768 0.930 . S
H759 C771 0.929 . S
H760 C774 0.930 . S
H761 C776 0.960 . S
H762 C776 0.960 . S
H763 C776 0.960 . S
C764 H756 0.929 . S
C764 C765 1.377 . S
C764 C766 1.384 . S
C765 C764 1.377 . S
C765 C771 1.390 . S
C766 H757 0.930 . S
C766 C764 1.384 . S
C766 C767 1.372 . S
C767 C766 1.372 . S
C767 C768 1.400 . S
C767 C772 1.490 . S
C768 H758 0.930 . S
C768 C767 1.400 . S
C768 C771 1.386 . S
H769 C785 0.930 . S
H770 C786 0.931 . S
C771 H759 0.929 . S
C771 C765 1.390 . S
C771 C768 1.386 . S
C772 C767 1.490 . S
C772 C774 1.395 . S
C772 C775 1.403 . S
H773 C779 0.930 . S
C774 H760 0.930 . S
C774 C772 1.395 . S
C774 C777 1.403 . S
C775 C772 1.403 . S
C775 C776 1.524 . S
C775 C779 1.400 . S
C776 H761 0.960 . S
C776 H762 0.960 . S
C776 H763 0.960 . S
C776 C775 1.524 . S
C777 C774 1.403 . S
C777 C778 1.392 . S
C777 C781 1.495 . S
C778 C777 1.392 . S
C778 C779 1.385 . S
C778 C780 1.478 . S
C779 H773 0.930 . S
C779 C775 1.400 . S
C779 C778 1.385 . S
C780 C778 1.478 . S
C780 C782 1.381 . S
C780 C786 1.383 . S
C781 C777 1.495 . S
C781 H787 0.959 . S
C781 H788 0.961 . S
C781 H789 0.960 . S
C782 C780 1.381 . S
C782 C783 1.394 . S
C782 H790 0.930 . S
C783 C782 1.394 . S
C783 C784 1.383 . S
C783 H791 0.929 . S
C784 C783 1.383 . S
C784 C785 1.377 . S
C785 H769 0.930 . S
C785 C784 1.377 . S
C785 C786 1.379 . S
C786 H770 0.931 . S
C786 C780 1.383 . S
C786 C785 1.379 . S
H787 C781 0.959 . S
H788 C781 0.961 . S
H789 C781 0.960 . S
H790 C782 0.930 . S
H791 C783 0.929 . S
H792 C800 0.929 . S
H793 C802 0.930 . S
H794 C804 0.930 . S
H795 C807 0.929 . S
H796 C810 0.930 . S
H797 C812 0.960 . S
H798 C812 0.960 . S
H799 C812 0.960 . S
C800 H792 0.929 . S
C800 C801 1.377 . S
C800 C802 1.384 . S
C801 C800 1.377 . S
C801 C807 1.390 . S
C802 H793 0.930 . S
C802 C800 1.384 . S
C802 C803 1.372 . S
C803 C802 1.372 . S
C803 C804 1.400 . S
C803 C808 1.490 . S
C804 H794 0.930 . S
C804 C803 1.400 . S
C804 C807 1.386 . S
H805 C821 0.930 . S
H806 C822 0.931 . S
C807 H795 0.929 . S
C807 C801 1.390 . S
C807 C804 1.386 . S
C808 C803 1.490 . S
C808 C810 1.395 . S
C808 C811 1.403 . S
H809 C815 0.930 . S
C810 H796 0.930 . S
C810 C808 1.395 . S
C810 C813 1.403 . S
C811 C808 1.403 . S
C811 C812 1.524 . S
C811 C815 1.400 . S
C812 H797 0.960 . S
C812 H798 0.960 . S
C812 H799 0.960 . S
C812 C811 1.524 . S
C813 C810 1.403 . S
C813 C814 1.392 . S
C813 C817 1.495 . S
C814 C813 1.392 . S
C814 C815 1.385 . S
C814 C816 1.478 . S
C815 H809 0.930 . S
C815 C811 1.400 . S
C815 C814 1.385 . S
C816 C814 1.478 . S
C816 C818 1.381 . S
C816 C822 1.383 . S
C817 C813 1.495 . S
C817 H823 0.959 . S
C817 H824 0.961 . S
C817 H825 0.960 . S
C818 C816 1.381 . S
C818 C819 1.394 . S
C818 H826 0.930 . S
C819 C818 1.394 . S
C819 C820 1.383 . S
C819 H827 0.929 . S
C820 C819 1.383 . S
C820 C821 1.377 . S
C821 H805 0.930 . S
C821 C820 1.377 . S
C821 C822 1.379 . S
C822 H806 0.931 . S
C822 C816 1.383 . S
C822 C821 1.379 . S
H823 C817 0.959 . S
H824 C817 0.961 . S
H825 C817 0.960 . S
H826 C818 0.930 . S
H827 C819 0.929 . S
H828 C836 0.929 . S
H829 C838 0.930 . S
H830 C840 0.930 . S
H831 C843 0.929 . S
H832 C846 0.929 . S
H833 C848 0.960 . S
H834 C848 0.960 . S
H835 C848 0.960 . S
C836 H828 0.929 . S
C836 C837 1.377 . S
C836 C838 1.384 . S
C837 C836 1.377 . S
C837 C843 1.390 . S
C838 H829 0.930 . S
C838 C836 1.384 . S
C838 C839 1.372 . S
C839 C838 1.372 . S
C839 C840 1.400 . S
C839 C844 1.490 . S
C840 H830 0.930 . S
C840 C839 1.400 . S
C840 C843 1.386 . S
H841 C857 0.930 . S
H842 C858 0.931 . S
C843 H831 0.929 . S
C843 C837 1.390 . S
C843 C840 1.386 . S
C844 C839 1.490 . S
C844 C846 1.440 . S
C844 C847 1.403 . S
H845 C851 0.930 . S
C846 H832 0.929 . S
C846 C844 1.440 . S
C846 C849 1.360 1_554 S
C847 C844 1.403 . S
C847 C848 1.524 . S
C847 C851 1.400 . S
C848 H833 0.960 . S
C848 H834 0.960 . S
C848 H835 0.960 . S
C848 C847 1.524 . S
C849 C846 1.360 1_556 S
C849 C850 1.392 . S
C849 C853 1.495 . S
C850 C849 1.392 . S
C850 C851 1.385 1_556 S
C850 C852 1.478 . S
C851 H845 0.930 . S
C851 C847 1.400 . S
C851 C850 1.385 1_554 S
C852 C850 1.478 . S
C852 C854 1.381 . S
C852 C858 1.383 1_545 S
C853 C849 1.495 . S
C853 H859 0.959 . S
C853 H860 0.961 . S
C853 H861 0.960 . S
C854 C852 1.381 . S
C854 C855 1.394 1_545 S
C854 H862 0.930 . S
C855 C854 1.394 1_565 S
C855 C856 1.383 . S
C855 H863 0.929 . S
C856 C855 1.383 . S
C856 C857 1.377 . S
C857 H841 0.930 . S
C857 C856 1.377 . S
C857 C858 1.379 . S
C858 H842 0.931 . S
C858 C852 1.383 1_565 S
C858 C857 1.379 . S
H859 C853 0.959 . S
H860 C853 0.961 . S
H861 C853 0.960 . S
H862 C854 0.930 . S
H863 C855 0.929 . S
H864 C872 0.929 . S
H865 C874 0.930 . S
H866 C876 0.930 . S
H867 C879 0.929 . S
H868 C882 0.930 . S
H869 C884 0.960 . S
H870 C884 0.960 . S
H871 C884 0.960 . S
C872 H864 0.929 . S
C872 C873 1.377 . S
C872 C874 1.384 . S
C873 C872 1.377 . S
C873 C879 1.390 . S
C874 H865 0.930 . S
C874 C872 1.384 . S
C874 C875 1.372 . S
C875 C874 1.372 . S
C875 C876 1.400 . S
C875 C880 1.490 . S
C876 H866 0.930 . S
C876 C875 1.400 . S
C876 C879 1.386 . S
H877 C893 0.930 . S
H878 C894 0.931 1_655 S
C879 H867 0.929 . S
C879 C873 1.390 . S
C879 C876 1.386 . S
C880 C875 1.490 . S
C880 C882 1.395 . S
C880 C883 1.355 1_554 S
H881 C887 0.930 . S
C882 H868 0.930 . S
C882 C880 1.395 . S
C882 C885 1.403 . S
C883 C880 1.355 1_556 S
C883 C884 1.541 . S
C883 C887 1.433 . S
C884 H869 0.960 . S
C884 H870 0.960 . S
C884 H871 0.960 . S
C884 C883 1.541 . S
C885 C882 1.403 . S
C885 C886 1.392 1_554 S
C885 C889 1.495 1_655 S
C886 C885 1.392 1_556 S
C886 C887 1.385 . S
C886 C888 1.478 1_655 S
C887 H881 0.930 . S
C887 C883 1.433 . S
C887 C886 1.385 . S
C888 C886 1.478 1_455 S
C888 C890 1.381 . S
C888 C894 1.383 . S
C889 C885 1.495 1_455 S
C889 H895 0.959 . S
C889 H896 0.961 . S
C889 H897 0.960 . S
C890 C888 1.381 . S
C890 C891 1.394 . S
C890 H898 0.930 . S
C891 C890 1.394 . S
C891 C892 1.383 . S
C891 H899 0.929 . S
C892 C891 1.383 . S
C892 C893 1.377 . S
C893 H877 0.930 . S
C893 C892 1.377 . S
C893 C894 1.379 . S
C894 H878 0.931 1_455 S
C894 C888 1.383 . S
C894 C893 1.379 . S
H895 C889 0.959 . S
H896 C889 0.961 . S
H897 C889 0.960 . S
H898 C890 0.930 . S
H899 C891 0.929 . S
H900 C908 0.929 . S
H901 C910 0.930 . S
H902 C912 0.930 . S
H903 C915 0.929 . S
H904 C918 0.930 . S
H905 C920 0.960 1_556 S
H906 C920 0.957 1_556 S
H907 C920 0.960 . S
C908 H900 0.929 . S
C908 C909 1.377 . S
C908 C910 1.384 . S
C909 C908 1.377 . S
C909 C915 1.390 . S
C910 H901 0.930 . S
C910 C908 1.384 . S
C910 C911 1.372 . S
C911 C910 1.372 . S
C911 C912 1.400 . S
C911 C916 1.490 . S
C912 H902 0.930 . S
C912 C911 1.400 . S
C912 C915 1.386 . S
H913 C929 0.930 . S
H914 C930 0.931 . S
C915 H903 0.929 . S
C915 C909 1.390 . S
C915 C912 1.386 . S
C916 C911 1.490 . S
C916 C918 1.395 . S
C916 C919 1.403 . S
H917 C923 0.930 . S
C918 H904 0.930 . S
C918 C916 1.395 . S
C918 C921 1.403 . S
C919 C916 1.403 . S
C919 C920 1.524 . S
C919 C923 1.400 1_554 S
C920 H905 0.960 1_554 S
C920 H906 0.957 1_554 S
C920 H907 0.960 . S
C920 C919 1.524 . S
C921 C918 1.403 . S
C921 C922 1.392 1_554 S
C921 C925 1.495 . S
C922 C921 1.392 1_556 S
C922 C923 1.385 . S
C922 C924 1.478 . S
C923 H917 0.930 . S
C923 C919 1.400 1_556 S
C923 C922 1.385 . S
C924 C922 1.478 . S
C924 C926 1.381 . S
C924 C930 1.383 . S
C925 C921 1.495 . S
C925 H931 0.959 . S
C925 H932 0.961 . S
C925 H933 0.960 1_554 S
C926 C924 1.381 . S
C926 C927 1.394 . S
C926 H934 0.930 . S
C927 C926 1.394 . S
C927 C928 1.383 . S
C927 H935 0.929 . S
C928 C927 1.383 . S
C928 C929 1.377 . S
C929 H913 0.930 . S
C929 C928 1.377 . S
C929 C930 1.379 . S
C930 H914 0.931 . S
C930 C924 1.383 . S
C930 C929 1.379 . S
H931 C925 0.959 . S
H932 C925 0.961 . S
H933 C925 0.960 1_556 S
H934 C926 0.930 . S
H935 C927 0.929 . S
H936 C944 0.929 . S
H937 C946 0.930 . S
H938 C948 0.930 . S
H939 C951 0.929 . S
H940 C954 0.930 . S
H941 C956 0.962 1_455 S
H942 C956 0.960 . S
H943 C956 0.960 . S
C944 H936 0.929 . S
C944 C945 1.377 . S
C944 C946 1.384 1_655 S
C945 C944 1.377 . S
C945 C951 1.390 . S
C946 H937 0.930 . S
C946 C944 1.384 1_455 S
C946 C947 1.372 . S
C947 C946 1.372 . S
C947 C948 1.400 1_455 S
C947 C952 1.490 . S
C948 H938 0.930 . S
C948 C947 1.400 1_655 S
C948 C951 1.386 . S
H949 C965 0.930 . S
H950 C966 0.931 . S
C951 H939 0.929 . S
C951 C945 1.390 . S
C951 C948 1.386 . S
C952 C947 1.490 . S
C952 C954 1.395 . S
C952 C955 1.403 . S
H953 C959 0.930 . S
C954 H940 0.930 . S
C954 C952 1.395 . S
C954 C957 1.403 . S
C955 C952 1.403 . S
C955 C956 1.524 1_455 S
C955 C959 1.400 . S
C956 H941 0.962 1_655 S
C956 H942 0.960 . S
C956 H943 0.960 . S
C956 C955 1.524 1_655 S
C957 C954 1.403 . S
C957 C958 1.392 . S
C957 C961 1.495 . S
C958 C957 1.392 . S
C958 C959 1.385 . S
C958 C960 1.478 . S
C959 H953 0.930 . S
C959 C955 1.400 . S
C959 C958 1.385 . S
C960 C958 1.478 . S
C960 C962 1.381 . S
C960 C966 1.383 . S
C961 C957 1.495 . S
C961 H967 0.959 . S
C961 H968 0.961 . S
C961 H969 0.960 . S
C962 C960 1.381 . S
C962 C963 1.394 . S
C962 H970 0.930 . S
C963 C962 1.394 . S
C963 C964 1.383 . S
C963 H971 0.929 . S
C964 C963 1.383 . S
C964 C965 1.377 . S
C965 H949 0.930 . S
C965 C964 1.377 . S
C965 C966 1.379 . S
C966 H950 0.931 . S
C966 C960 1.383 . S
C966 C965 1.379 . S
H967 C961 0.959 . S
H968 C961 0.961 . S
H969 C961 0.960 . S
H970 C962 0.930 . S
H971 C963 0.929 . S
H972 C980 0.929 . S
H973 C982 0.930 . S
H974 C984 0.930 . S
H975 C987 0.929 . S
H976 C990 0.930 . S
H977 C992 0.960 . S
H978 C992 0.960 . S
H979 C992 0.960 . S
C980 H972 0.929 . S
C980 C981 1.377 . S
C980 C982 1.384 . S
C981 C980 1.377 . S
C981 C987 1.390 . S
C982 H973 0.930 . S
C982 C980 1.384 . S
C982 C983 1.372 . S
C983 C982 1.372 . S
C983 C984 1.400 . S
C983 C988 1.490 . S
C984 H974 0.930 . S
C984 C983 1.400 . S
C984 C987 1.386 . S
H985 C1001 0.930 . S
H986 C1002 0.931 . S
C987 H975 0.929 . S
C987 C981 1.390 . S
C987 C984 1.386 . S
C988 C983 1.490 . S
C988 C990 1.395 . S
C988 C991 1.403 . S
H989 C995 0.930 . S
C990 H976 0.930 . S
C990 C988 1.395 . S
C990 C993 1.403 . S
C991 C988 1.403 . S
C991 C992 1.524 . S
C991 C995 1.400 . S
C992 H977 0.960 . S
C992 H978 0.960 . S
C992 H979 0.960 . S
C992 C991 1.524 . S
C993 C990 1.403 . S
C993 C994 1.392 . S
C993 C997 1.495 . S
C994 C993 1.392 . S
C994 C995 1.385 . S
C994 C996 1.478 . S
C995 H989 0.930 . S
C995 C991 1.400 . S
C995 C994 1.385 . S
C996 C994 1.478 . S
C996 C998 1.381 . S
C996 C1002 1.383 . S
C997 C993 1.495 . S
C997 H1003 0.959 . S
C997 H1004 0.961 . S
C997 H1005 0.960 . S
C998 C996 1.381 . S
C998 C999 1.394 . S
C998 H1006 0.930 . S
C999 C998 1.394 . S
C999 C1000 1.383 . S
C999 H1007 0.929 . S
C1000 C999 1.383 . S
C1000 C1001 1.377 . S
C1001 H985 0.930 . S
C1001 C1000 1.377 . S
C1001 C1002 1.379 . S
C1002 H986 0.931 . S
C1002 C996 1.383 . S
C1002 C1001 1.379 . S
H1003 C997 0.959 . S
H1004 C997 0.961 . S
H1005 C997 0.960 . S
H1006 C998 0.930 . S
H1007 C999 0.929 . S
H1008 C1016 0.929 . S
H1009 C1018 0.930 1_565 S
H1010 C1020 0.930 . S
H1011 C1023 0.929 . S
H1012 C1026 0.930 . S
H1013 C1028 0.960 . S
H1014 C1028 0.960 . S
H1015 C1028 0.960 . S
C1016 H1008 0.929 . S
C1016 C1017 1.377 . S
C1016 C1018 1.385 . S
C1017 C1016 1.377 . S
C1017 C1023 1.390 . S
C1018 H1009 0.930 1_545 S
C1018 C1016 1.385 . S
C1018 C1019 1.371 1_545 S
C1019 C1018 1.371 1_565 S
C1019 C1020 1.400 1_565 S
C1019 C1024 1.490 . S
C1020 H1010 0.930 . S
C1020 C1019 1.400 1_545 S
C1020 C1023 1.386 . S
H1021 C1037 0.930 . S
H1022 C1038 0.931 . S
C1023 H1011 0.929 . S
C1023 C1017 1.390 . S
C1023 C1020 1.386 . S
C1024 C1019 1.490 . S
C1024 C1026 1.395 . S
C1024 C1027 1.403 . S
H1025 C1031 0.930 . S
C1026 H1012 0.930 . S
C1026 C1024 1.395 . S
C1026 C1029 1.403 . S
C1027 C1024 1.403 . S
C1027 C1028 1.524 . S
C1027 C1031 1.400 . S
C1028 H1013 0.960 . S
C1028 H1014 0.960 . S
C1028 H1015 0.960 . S
C1028 C1027 1.524 . S
C1029 C1026 1.403 . S
C1029 C1030 1.392 . S
C1029 C1033 1.495 . S
C1030 C1029 1.392 . S
C1030 C1031 1.385 . S
C1030 C1032 1.478 . S
C1031 H1025 0.930 . S
C1031 C1027 1.400 . S
C1031 C1030 1.385 . S
C1032 C1030 1.478 . S
C1032 C1034 1.381 . S
C1032 C1038 1.383 . S
C1033 C1029 1.495 . S
C1033 H1039 0.959 . S
C1033 H1040 0.961 . S
C1033 H1041 0.960 . S
C1034 C1032 1.381 . S
C1034 C1035 1.394 . S
C1034 H1042 0.930 . S
C1035 C1034 1.394 . S
C1035 C1036 1.383 . S
C1035 H1043 0.929 . S
C1036 C1035 1.383 . S
C1036 C1037 1.377 . S
C1037 H1021 0.930 . S
C1037 C1036 1.377 . S
C1037 C1038 1.379 . S
C1038 H1022 0.931 . S
C1038 C1032 1.383 . S
C1038 C1037 1.379 . S
H1039 C1033 0.959 . S
H1040 C1033 0.961 . S
H1041 C1033 0.960 . S
H1042 C1034 0.930 . S
H1043 C1035 0.929 . S
H1044 C1052 0.929 . S
H1045 C1054 0.930 . S
H1046 C1056 0.930 . S
H1047 C1059 0.929 . S
H1048 C1062 0.930 . S
H1049 C1064 0.960 . S
H1050 C1064 0.960 . S
H1051 C1064 0.960 1_545 S
C1052 H1044 0.929 . S
C1052 C1053 1.377 . S
C1052 C1054 1.384 1_545 S
C1053 C1052 1.377 . S
C1053 C1059 1.390 . S
C1054 H1045 0.930 . S
C1054 C1052 1.384 1_565 S
C1054 C1055 1.372 . S
C1055 C1054 1.372 . S
C1055 C1056 1.400 1_565 S
C1055 C1060 1.490 . S
C1056 H1046 0.930 . S
C1056 C1055 1.400 1_545 S
C1056 C1059 1.386 . S
H1057 C1073 0.930 . S
H1058 C1074 0.931 . S
C1059 H1047 0.929 . S
C1059 C1053 1.390 . S
C1059 C1056 1.386 . S
C1060 C1055 1.490 . S
C1060 C1062 1.395 . S
C1060 C1063 1.403 . S
H1061 C1067 0.930 . S
C1062 H1048 0.930 . S
C1062 C1060 1.395 . S
C1062 C1065 1.403 1_554 S
C1063 C1060 1.403 . S
C1063 C1064 1.524 . S
C1063 C1067 1.400 1_554 S
C1064 H1049 0.960 . S
C1064 H1050 0.960 . S
C1064 H1051 0.960 1_565 S
C1064 C1063 1.524 . S
C1065 C1062 1.403 1_556 S
C1065 C1066 1.392 . S
C1065 C1069 1.495 . S
C1066 C1065 1.392 . S
C1066 C1067 1.385 . S
C1066 C1068 1.478 . S
C1067 H1061 0.930 . S
C1067 C1063 1.400 1_556 S
C1067 C1066 1.385 . S
C1068 C1066 1.478 . S
C1068 C1070 1.381 . S
C1068 C1074 1.383 . S
C1069 C1065 1.495 . S
C1069 H1075 0.959 . S
C1069 H1076 0.961 . S
C1069 H1077 0.960 . S
C1070 C1068 1.381 . S
C1070 C1071 1.394 . S
C1070 H1078 0.930 . S
C1071 C1070 1.394 . S
C1071 C1072 1.383 . S
C1071 H1079 0.929 . S
C1072 C1071 1.383 . S
C1072 C1073 1.377 . S
C1073 H1057 0.930 . S
C1073 C1072 1.377 . S
C1073 C1074 1.379 . S
C1074 H1058 0.931 . S
C1074 C1068 1.383 . S
C1074 C1073 1.379 . S
H1075 C1069 0.959 . S
H1076 C1069 0.961 . S
H1077 C1069 0.960 . S
H1078 C1070 0.930 . S
H1079 C1071 0.929 . S
H1080 C1088 0.929 . S
H1081 C1090 0.930 . S
H1082 C1092 0.930 1_455 S
H1083 C1095 0.929 . S
H1084 C1098 0.930 1_655 S
H1085 C1100 0.960 . S
H1086 C1100 0.960 . S
H1087 C1100 0.960 . S
C1088 H1080 0.929 . S
C1088 C1089 1.377 . S
C1088 C1090 1.384 . S
C1089 C1088 1.377 . S
C1089 C1095 1.390 . S
C1090 H1081 0.930 . S
C1090 C1088 1.384 . S
C1090 C1091 1.372 1_655 S
C1091 C1090 1.372 1_455 S
C1091 C1092 1.400 1_455 S
C1091 C1096 1.490 . S
C1092 H1082 0.930 1_655 S
C1092 C1091 1.400 1_655 S
C1092 C1095 1.386 . S
H1093 C1109 0.930 . S
H1094 C1110 0.931 . S
C1095 H1083 0.929 . S
C1095 C1089 1.390 . S
C1095 C1092 1.386 . S
C1096 C1091 1.490 . S
C1096 C1098 1.395 1_554 S
C1096 C1099 1.403 . S
H1097 C1103 0.932 . S
C1098 H1084 0.930 1_455 S
C1098 C1096 1.395 1_556 S
C1098 C1101 1.403 . S
C1099 C1096 1.403 . S
C1099 C1100 1.524 . S
C1099 C1103 1.400 1_554 S
C1100 H1085 0.960 . S
C1100 H1086 0.960 . S
C1100 H1087 0.960 . S
C1100 C1099 1.524 . S
C1101 C1098 1.403 . S
C1101 C1102 1.392 . S
C1101 C1105 1.495 . S
C1102 C1101 1.392 . S
C1102 C1103 1.385 . S
C1102 C1104 1.478 . S
C1103 H1097 0.932 . S
C1103 C1099 1.400 1_556 S
C1103 C1102 1.385 . S
C1104 C1102 1.478 . S
C1104 C1106 1.381 . S
C1104 C1110 1.383 . S
C1105 C1101 1.495 . S
C1105 H1111 0.949 1_455 S
C1105 H1112 0.961 . S
C1105 H1113 0.960 . S
C1106 C1104 1.381 . S
C1106 C1107 1.394 . S
C1106 H1114 0.930 . S
C1107 C1106 1.394 . S
C1107 C1108 1.383 . S
C1107 H1115 0.929 . S
C1108 C1107 1.383 . S
C1108 C1109 1.377 . S
C1109 H1093 0.930 . S
C1109 C1108 1.377 . S
C1109 C1110 1.379 . S
C1110 H1094 0.931 . S
C1110 C1104 1.383 . S
C1110 C1109 1.379 . S
H1111 C1105 0.949 1_655 S
H1112 C1105 0.961 . S
H1113 C1105 0.960 . S
H1114 C1106 0.930 . S
H1115 C1107 0.929 . S
H1116 C1124 0.929 . S
H1117 C1126 0.930 . S
H1118 C1128 0.930 . S
H1119 C1131 0.929 . S
H1120 C1134 0.930 . S
H1121 C1136 0.960 . S
H1122 C1136 0.960 . S
H1123 C1136 0.960 . S
C1124 H1116 0.929 . S
C1124 C1125 1.377 . S
C1124 C1126 1.384 . S
C1125 C1124 1.377 . S
C1125 C1131 1.390 . S
C1126 H1117 0.930 . S
C1126 C1124 1.384 . S
C1126 C1127 1.372 . S
C1127 C1126 1.372 . S
C1127 C1128 1.400 . S
C1127 C1132 1.490 . S
C1128 H1118 0.930 . S
C1128 C1127 1.400 . S
C1128 C1131 1.386 . S
H1129 C1145 0.930 . S
H1130 C1146 0.931 . S
C1131 H1119 0.929 . S
C1131 C1125 1.390 . S
C1131 C1128 1.386 . S
C1132 C1127 1.490 . S
C1132 C1134 1.395 . S
C1132 C1135 1.403 . S
H1133 C1139 0.930 . S
C1134 H1120 0.930 . S
C1134 C1132 1.395 . S
C1134 C1137 1.403 1_556 S
C1135 C1132 1.403 . S
C1135 C1136 1.524 . S
C1135 C1139 1.400 . S
C1136 H1121 0.960 . S
C1136 H1122 0.960 . S
C1136 H1123 0.960 . S
C1136 C1135 1.524 . S
C1137 C1134 1.403 1_554 S
C1137 C1138 1.392 . S
C1137 C1141 1.495 . S
C1138 C1137 1.392 . S
C1138 C1139 1.385 1_554 S
C1138 C1140 1.478 . S
C1139 H1133 0.930 . S
C1139 C1135 1.400 . S
C1139 C1138 1.385 1_556 S
C1140 C1138 1.478 . S
C1140 C1142 1.381 . S
C1140 C1146 1.383 . S
C1141 C1137 1.495 . S
C1141 H1147 0.959 . S
C1141 H1148 0.961 . S
C1141 H1149 0.960 . S
C1142 C1140 1.381 . S
C1142 C1143 1.394 . S
C1142 H1150 0.930 . S
C1143 C1142 1.394 . S
C1143 C1144 1.383 . S
C1143 H1151 0.929 . S
C1144 C1143 1.383 . S
C1144 C1145 1.377 . S
C1145 H1129 0.930 . S
C1145 C1144 1.377 . S
C1145 C1146 1.379 . S
C1146 H1130 0.931 . S
C1146 C1140 1.383 . S
C1146 C1145 1.379 . S
H1147 C1141 0.959 . S
H1148 C1141 0.961 . S
H1149 C1141 0.960 . S
H1150 C1142 0.930 . S
H1151 C1143 0.929 . S
H1152 C1160 0.929 . S
H1153 C1162 0.930 . S
H1154 C1164 0.930 . S
H1155 C1167 0.929 . S
H1156 C1170 0.930 . S
H1157 C1172 0.960 . S
H1158 C1172 0.960 . S
H1159 C1172 0.960 . S
C1160 H1152 0.929 . S
C1160 C1161 1.377 . S
C1160 C1162 1.384 1_455 S
C1161 C1160 1.377 . S
C1161 C1167 1.390 . S
C1162 H1153 0.930 . S
C1162 C1160 1.384 1_655 S
C1162 C1163 1.372 . S
C1163 C1162 1.372 . S
C1163 C1164 1.400 1_655 S
C1163 C1168 1.490 . S
C1164 H1154 0.930 . S
C1164 C1163 1.400 1_455 S
C1164 C1167 1.386 . S
H1165 C1181 0.930 . S
H1166 C1182 0.931 . S
C1167 H1155 0.929 . S
C1167 C1161 1.390 . S
C1167 C1164 1.386 . S
C1168 C1163 1.490 . S
C1168 C1170 1.395 . S
C1168 C1171 1.403 . S
H1169 C1175 0.930 . S
C1170 H1156 0.930 . S
C1170 C1168 1.395 . S
C1170 C1173 1.403 . S
C1171 C1168 1.403 . S
C1171 C1172 1.524 . S
C1171 C1175 1.400 . S
C1172 H1157 0.960 . S
C1172 H1158 0.960 . S
C1172 H1159 0.960 . S
C1172 C1171 1.524 . S
C1173 C1170 1.403 . S
C1173 C1174 1.392 . S
C1173 C1177 1.495 . S
C1174 C1173 1.392 . S
C1174 C1175 1.385 . S
C1174 C1176 1.478 . S
C1175 H1169 0.930 . S
C1175 C1171 1.400 . S
C1175 C1174 1.385 . S
C1176 C1174 1.478 . S
C1176 C1178 1.381 . S
C1176 C1182 1.383 . S
C1177 C1173 1.495 . S
C1177 H1183 0.959 . S
C1177 H1184 0.961 . S
C1177 H1185 0.960 . S
C1178 C1176 1.381 . S
C1178 C1179 1.394 . S
C1178 H1186 0.930 . S
C1179 C1178 1.394 . S
C1179 C1180 1.383 . S
C1179 H1187 0.929 . S
C1180 C1179 1.383 . S
C1180 C1181 1.377 . S
C1181 H1165 0.930 . S
C1181 C1180 1.377 . S
C1181 C1182 1.379 . S
C1182 H1166 0.931 . S
C1182 C1176 1.383 . S
C1182 C1181 1.379 . S
H1183 C1177 0.959 . S
H1184 C1177 0.961 . S
H1185 C1177 0.960 . S
H1186 C1178 0.930 . S
H1187 C1179 0.929 . S
H1188 C1196 0.929 . S
H1189 C1198 0.930 . S
H1190 C1200 0.930 . S
H1191 C1203 0.929 . S
H1192 C1206 0.930 . S
H1193 C1208 0.960 . S
H1194 C1208 0.960 . S
H1195 C1208 0.960 . S
C1196 H1188 0.929 . S
C1196 C1197 1.377 . S
C1196 C1198 1.384 . S
C1197 C1196 1.377 . S
C1197 C1203 1.390 . S
C1198 H1189 0.930 . S
C1198 C1196 1.384 . S
C1198 C1199 1.372 . S
C1199 C1198 1.372 . S
C1199 C1200 1.400 . S
C1199 C1204 1.490 . S
C1200 H1190 0.930 . S
C1200 C1199 1.400 . S
C1200 C1203 1.386 . S
H1201 C1217 0.930 . S
H1202 C1218 0.931 . S
C1203 H1191 0.929 . S
C1203 C1197 1.390 . S
C1203 C1200 1.386 . S
C1204 C1199 1.490 . S
C1204 C1206 1.395 . S
C1204 C1207 1.403 . S
H1205 C1211 0.930 . S
C1206 H1192 0.930 . S
C1206 C1204 1.395 . S
C1206 C1209 1.403 . S
C1207 C1204 1.403 . S
C1207 C1208 1.524 . S
C1207 C1211 1.400 . S
C1208 H1193 0.960 . S
C1208 H1194 0.960 . S
C1208 H1195 0.960 . S
C1208 C1207 1.524 . S
C1209 C1206 1.403 . S
C1209 C1210 1.392 . S
C1209 C1213 1.495 . S
C1210 C1209 1.392 . S
C1210 C1211 1.385 . S
C1210 C1212 1.478 . S
C1211 H1205 0.930 . S
C1211 C1207 1.400 . S
C1211 C1210 1.385 . S
C1212 C1210 1.478 . S
C1212 C1214 1.381 . S
C1212 C1218 1.383 . S
C1213 C1209 1.495 . S
C1213 H1219 0.959 . S
C1213 H1220 0.961 . S
C1213 H1221 0.960 . S
C1214 C1212 1.381 . S
C1214 C1215 1.394 . S
C1214 H1222 0.930 . S
C1215 C1214 1.394 . S
C1215 C1216 1.383 . S
C1215 H1223 0.929 . S
C1216 C1215 1.383 . S
C1216 C1217 1.377 . S
C1217 H1201 0.930 . S
C1217 C1216 1.377 . S
C1217 C1218 1.379 . S
C1218 H1202 0.931 . S
C1218 C1212 1.383 . S
C1218 C1217 1.379 . S
H1219 C1213 0.959 . S
H1220 C1213 0.961 . S
H1221 C1213 0.960 . S
H1222 C1214 0.930 . S
H1223 C1215 0.929 . S
H1224 C1232 0.929 . S
H1225 C1234 0.930 . S
H1226 C1236 0.930 . S
H1227 C1239 0.929 . S
H1228 C1242 0.930 . S
H1229 C1244 0.960 . S
H1230 C1244 0.960 . S
H1231 C1244 0.960 . S
C1232 H1224 0.929 . S
C1232 C1233 1.377 . S
C1232 C1234 1.384 . S
C1233 C1232 1.377 . S
C1233 C1239 1.390 . S
C1234 H1225 0.930 . S
C1234 C1232 1.384 . S
C1234 C1235 1.372 . S
C1235 C1234 1.372 . S
C1235 C1236 1.400 . S
C1235 C1240 1.490 . S
C1236 H1226 0.930 . S
C1236 C1235 1.400 . S
C1236 C1239 1.386 . S
H1237 C1253 0.930 . S
H1238 C1254 0.931 . S
C1239 H1227 0.929 . S
C1239 C1233 1.390 . S
C1239 C1236 1.386 . S
C1240 C1235 1.490 . S
C1240 C1242 1.395 . S
C1240 C1243 1.403 . S
H1241 C1247 0.930 1_565 S
C1242 H1228 0.930 . S
C1242 C1240 1.395 . S
C1242 C1245 1.403 . S
C1243 C1240 1.403 . S
C1243 C1244 1.524 . S
C1243 C1247 1.400 . S
C1244 H1229 0.960 . S
C1244 H1230 0.960 . S
C1244 H1231 0.960 . S
C1244 C1243 1.524 . S
C1245 C1242 1.403 . S
C1245 C1246 1.392 . S
C1245 C1249 1.495 . S
C1246 C1245 1.392 . S
C1246 C1247 1.385 . S
C1246 C1248 1.478 . S
C1247 H1241 0.930 1_545 S
C1247 C1243 1.400 . S
C1247 C1246 1.385 . S
C1248 C1246 1.478 . S
C1248 C1250 1.381 . S
C1248 C1254 1.383 1_545 S
C1249 C1245 1.495 . S
C1249 H1255 0.959 . S
C1249 H1256 0.961 . S
C1249 H1257 0.960 . S
C1250 C1248 1.381 . S
C1250 C1251 1.394 1_545 S
C1250 H1258 0.930 . S
C1251 C1250 1.394 1_565 S
C1251 C1252 1.383 . S
C1251 H1259 0.929 . S
C1252 C1251 1.383 . S
C1252 C1253 1.377 . S
C1253 H1237 0.930 . S
C1253 C1252 1.377 . S
C1253 C1254 1.379 . S
C1254 H1238 0.931 . S
C1254 C1248 1.383 1_565 S
C1254 C1253 1.379 . S
H1255 C1249 0.959 . S
H1256 C1249 0.961 . S
H1257 C1249 0.960 . S
H1258 C1250 0.930 . S
H1259 C1251 0.929 . S
H1260 C1268 0.929 . S
H1261 C1270 0.930 . S
H1262 C1272 0.930 . S
H1263 C1275 0.929 . S
H1264 C1278 0.930 . S
H1265 C1280 0.960 . S
H1266 C1280 0.960 . S
H1267 C1280 0.960 . S
C1268 H1260 0.929 . S
C1268 C1269 1.377 . S
C1268 C1270 1.384 . S
C1269 C1268 1.377 . S
C1269 C1275 1.390 . S
C1270 H1261 0.930 . S
C1270 C1268 1.384 . S
C1270 C1271 1.372 . S
C1271 C1270 1.372 . S
C1271 C1272 1.400 . S
C1271 C1276 1.490 . S
C1272 H1262 0.930 . S
C1272 C1271 1.400 . S
C1272 C1275 1.386 . S
H1273 C1289 0.930 . S
H1274 C1290 0.931 . S
C1275 H1263 0.929 . S
C1275 C1269 1.390 . S
C1275 C1272 1.386 . S
C1276 C1271 1.490 . S
C1276 C1278 1.395 . S
C1276 C1279 1.403 . S
H1277 C1283 0.930 . S
C1278 H1264 0.930 . S
C1278 C1276 1.395 . S
C1278 C1281 1.403 . S
C1279 C1276 1.403 . S
C1279 C1280 1.524 . S
C1279 C1283 1.400 . S
C1280 H1265 0.960 . S
C1280 H1266 0.960 . S
C1280 H1267 0.960 . S
C1280 C1279 1.524 . S
C1281 C1278 1.403 . S
C1281 C1282 1.392 . S
C1281 C1285 1.495 . S
C1282 C1281 1.392 . S
C1282 C1283 1.385 . S
C1282 C1284 1.478 . S
C1283 H1277 0.930 . S
C1283 C1279 1.400 . S
C1283 C1282 1.385 . S
C1284 C1282 1.478 . S
C1284 C1286 1.381 . S
C1284 C1290 1.383 . S
C1285 C1281 1.495 . S
C1285 H1291 0.959 . S
C1285 H1292 0.961 . S
C1285 H1293 0.960 . S
C1286 C1284 1.381 . S
C1286 C1287 1.394 . S
C1286 H1294 0.930 . S
C1287 C1286 1.394 . S
C1287 C1288 1.383 . S
C1287 H1295 0.929 . S
C1288 C1287 1.383 . S
C1288 C1289 1.377 . S
C1289 H1273 0.930 . S
C1289 C1288 1.377 . S
C1289 C1290 1.379 . S
C1290 H1274 0.931 . S
C1290 C1284 1.383 . S
C1290 C1289 1.379 . S
H1291 C1285 0.959 . S
H1292 C1285 0.961 . S
H1293 C1285 0.960 . S
H1294 C1286 0.930 . S
H1295 C1287 0.929 . S
H1296 C1304 0.929 . S
H1297 C1306 0.930 . S
H1298 C1308 0.930 . S
H1299 C1311 0.929 . S
H1300 C1314 0.930 . S
H1301 C1316 0.960 . S
H1302 C1316 0.960 . S
H1303 C1316 0.960 . S
C1304 H1296 0.929 . S
C1304 C1305 1.377 . S
C1304 C1306 1.384 . S
C1305 C1304 1.377 . S
C1305 C1311 1.390 . S
C1306 H1297 0.930 . S
C1306 C1304 1.384 . S
C1306 C1307 1.372 . S
C1307 C1306 1.372 . S
C1307 C1308 1.400 . S
C1307 C1312 1.490 . S
C1308 H1298 0.930 . S
C1308 C1307 1.400 . S
C1308 C1311 1.386 . S
H1309 C1325 0.930 . S
H1310 C1326 0.931 . S
C1311 H1299 0.929 . S
C1311 C1305 1.390 . S
C1311 C1308 1.386 . S
C1312 C1307 1.490 . S
C1312 C1314 1.395 1_545 S
C1312 C1315 1.403 . S
H1313 C1319 0.930 . S
C1314 H1300 0.930 . S
C1314 C1312 1.395 1_565 S
C1314 C1317 1.403 . S
C1315 C1312 1.403 . S
C1315 C1316 1.524 . S
C1315 C1319 1.400 . S
C1316 H1301 0.960 . S
C1316 H1302 0.960 . S
C1316 H1303 0.960 . S
C1316 C1315 1.524 . S
C1317 C1314 1.403 . S
C1317 C1318 1.392 . S
C1317 C1321 1.495 . S
C1318 C1317 1.392 . S
C1318 C1319 1.385 1_565 S
C1318 C1320 1.478 . S
C1319 H1313 0.930 . S
C1319 C1315 1.400 . S
C1319 C1318 1.385 1_545 S
C1320 C1318 1.478 . S
C1320 C1322 1.381 . S
C1320 C1326 1.383 . S
C1321 C1317 1.495 . S
C1321 H1327 0.959 . S
C1321 H1328 0.961 . S
C1321 H1329 0.960 . S
C1322 C1320 1.381 . S
C1322 C1323 1.394 . S
C1322 H1330 0.930 . S
C1323 C1322 1.394 . S
C1323 C1324 1.383 . S
C1323 H1331 0.929 . S
C1324 C1323 1.383 . S
C1324 C1325 1.377 . S
C1325 H1309 0.930 . S
C1325 C1324 1.377 . S
C1325 C1326 1.379 . S
C1326 H1310 0.931 . S
C1326 C1320 1.383 . S
C1326 C1325 1.379 . S
H1327 C1321 0.959 . S
H1328 C1321 0.961 . S
H1329 C1321 0.960 . S
H1330 C1322 0.930 . S
H1331 C1323 0.929 . S
H1332 C1340 0.929 . S
H1333 C1342 0.930 . S
H1334 C1344 0.930 . S
H1335 C1347 0.929 . S
H1336 C1350 0.930 . S
H1337 C1352 0.960 . S
H1338 C1352 0.960 . S
H1339 C1352 0.960 . S
C1340 H1332 0.929 . S
C1340 C1341 1.377 . S
C1340 C1342 1.384 . S
C1341 C1340 1.377 . S
C1341 C1347 1.390 . S
C1342 H1333 0.930 . S
C1342 C1340 1.384 . S
C1342 C1343 1.372 . S
C1343 C1342 1.372 . S
C1343 C1344 1.400 . S
C1343 C1348 1.490 . S
C1344 H1334 0.930 . S
C1344 C1343 1.400 . S
C1344 C1347 1.386 . S
H1345 C1361 0.930 . S
H1346 C1362 0.931 . S
C1347 H1335 0.929 . S
C1347 C1341 1.390 . S
C1347 C1344 1.386 . S
C1348 C1343 1.490 . S
C1348 C1350 1.395 . S
C1348 C1351 1.403 . S
H1349 C1355 0.930 . S
C1350 H1336 0.930 . S
C1350 C1348 1.395 . S
C1350 C1353 1.403 1_655 S
C1351 C1348 1.403 . S
C1351 C1352 1.524 . S
C1351 C1355 1.400 1_655 S
C1352 H1337 0.960 . S
C1352 H1338 0.960 . S
C1352 H1339 0.960 . S
C1352 C1351 1.524 . S
C1353 C1350 1.403 1_455 S
C1353 C1354 1.392 . S
C1353 C1357 1.495 . S
C1354 C1353 1.392 . S
C1354 C1355 1.385 . S
C1354 C1356 1.478 . S
C1355 H1349 0.930 . S
C1355 C1351 1.400 1_455 S
C1355 C1354 1.385 . S
C1356 C1354 1.478 . S
C1356 C1358 1.381 . S
C1356 C1362 1.383 . S
C1357 C1353 1.495 . S
C1357 H1363 0.959 . S
C1357 H1364 0.961 . S
C1357 H1365 0.960 . S
C1358 C1356 1.381 . S
C1358 C1359 1.394 . S
C1358 H1366 0.930 . S
C1359 C1358 1.394 . S
C1359 C1360 1.383 . S
C1359 H1367 0.929 . S
C1360 C1359 1.383 . S
C1360 C1361 1.377 . S
C1361 H1345 0.930 . S
C1361 C1360 1.377 . S
C1361 C1362 1.379 . S
C1362 H1346 0.931 . S
C1362 C1356 1.383 . S
C1362 C1361 1.379 . S
H1363 C1357 0.959 . S
H1364 C1357 0.961 . S
H1365 C1357 0.960 . S
H1366 C1358 0.930 . S
H1367 C1359 0.929 . S
H1368 C1376 0.929 . S
H1369 C1378 0.930 . S
H1370 C1380 0.930 . S
H1371 C1383 0.929 . S
H1372 C1386 0.930 . S
H1373 C1388 0.960 . S
H1374 C1388 0.960 . S
H1375 C1388 0.960 . S
C1376 H1368 0.929 . S
C1376 C1377 1.377 . S
C1376 C1378 1.384 . S
C1377 C1376 1.377 . S
C1377 C1383 1.390 . S
C1378 H1369 0.930 . S
C1378 C1376 1.384 . S
C1378 C1379 1.372 . S
C1379 C1378 1.372 . S
C1379 C1380 1.400 . S
C1379 C1384 1.490 . S
C1380 H1370 0.930 . S
C1380 C1379 1.400 . S
C1380 C1383 1.386 . S
H1381 C1397 0.930 . S
H1382 C1398 0.931 . S
C1383 H1371 0.929 . S
C1383 C1377 1.390 . S
C1383 C1380 1.386 . S
C1384 C1379 1.490 . S
C1384 C1386 1.395 . S
C1384 C1387 1.403 . S
H1385 C1391 0.930 . S
C1386 H1372 0.930 . S
C1386 C1384 1.395 . S
C1386 C1389 1.403 . S
C1387 C1384 1.403 . S
C1387 C1388 1.524 . S
C1387 C1391 1.400 . S
C1388 H1373 0.960 . S
C1388 H1374 0.960 . S
C1388 H1375 0.960 . S
C1388 C1387 1.524 . S
C1389 C1386 1.403 . S
C1389 C1390 1.392 . S
C1389 C1393 1.495 . S
C1390 C1389 1.392 . S
C1390 C1391 1.385 . S
C1390 C1392 1.478 . S
C1391 H1385 0.930 . S
C1391 C1387 1.400 . S
C1391 C1390 1.385 . S
C1392 C1390 1.478 . S
C1392 C1394 1.381 . S
C1392 C1398 1.383 . S
C1393 C1389 1.495 . S
C1393 H1399 0.959 . S
C1393 H1400 0.961 . S
C1393 H1401 0.960 . S
C1394 C1392 1.381 . S
C1394 C1395 1.394 . S
C1394 H1402 0.930 . S
C1395 C1394 1.394 . S
C1395 C1396 1.383 . S
C1395 H1403 0.929 . S
C1396 C1395 1.383 . S
C1396 C1397 1.377 . S
C1397 H1381 0.930 . S
C1397 C1396 1.377 . S
C1397 C1398 1.379 . S
C1398 H1382 0.931 . S
C1398 C1392 1.383 . S
C1398 C1397 1.379 . S
H1399 C1393 0.959 . S
H1400 C1393 0.961 . S
H1401 C1393 0.960 . S
H1402 C1394 0.930 . S
H1403 C1395 0.929 . S
H1404 C1412 0.929 . S
H1405 C1414 0.930 . S
H1406 C1416 0.930 . S
H1407 C1419 0.929 . S
H1408 C1422 0.930 . S
H1409 C1424 0.960 . S
H1410 C1424 0.960 . S
H1411 C1424 0.960 . S
C1412 H1404 0.929 . S
C1412 C1413 1.377 . S
C1412 C1414 1.384 . S
C1413 C1412 1.377 . S
C1413 C1419 1.390 . S
C1414 H1405 0.930 . S
C1414 C1412 1.384 . S
C1414 C1415 1.372 . S
C1415 C1414 1.372 . S
C1415 C1416 1.400 . S
C1415 C1420 1.490 . S
C1416 H1406 0.930 . S
C1416 C1415 1.400 . S
C1416 C1419 1.386 . S
H1417 C1433 0.930 . S
H1418 C1434 0.931 . S
C1419 H1407 0.929 . S
C1419 C1413 1.390 . S
C1419 C1416 1.386 . S
C1420 C1415 1.490 . S
C1420 C1422 1.395 . S
C1420 C1423 1.403 1_565 S
H1421 C1427 0.930 . S
C1422 H1408 0.930 . S
C1422 C1420 1.395 . S
C1422 C1425 1.403 . S
C1423 C1420 1.403 1_545 S
C1423 C1424 1.524 . S
C1423 C1427 1.400 . S
C1424 H1409 0.960 . S
C1424 H1410 0.960 . S
C1424 H1411 0.960 . S
C1424 C1423 1.524 . S
C1425 C1422 1.403 . S
C1425 C1426 1.392 1_565 S
C1425 C1429 1.495 . S
C1426 C1425 1.392 1_545 S
C1426 C1427 1.385 . S
C1426 C1428 1.478 . S
C1427 H1421 0.930 . S
C1427 C1423 1.400 . S
C1427 C1426 1.385 . S
C1428 C1426 1.478 . S
C1428 C1430 1.381 . S
C1428 C1434 1.383 . S
C1429 C1425 1.495 . S
C1429 H1435 0.959 . S
C1429 H1436 0.961 . S
C1429 H1437 0.960 . S
C1430 C1428 1.381 . S
C1430 C1431 1.394 . S
C1430 H1438 0.930 . S
C1431 C1430 1.394 . S
C1431 C1432 1.383 . S
C1431 H1439 0.929 . S
C1432 C1431 1.383 . S
C1432 C1433 1.377 . S
C1433 H1417 0.930 . S
C1433 C1432 1.377 . S
C1433 C1434 1.379 . S
C1434 H1418 0.931 . S
C1434 C1428 1.383 . S
C1434 C1433 1.379 . S
H1435 C1429 0.959 . S
H1436 C1429 0.961 . S
H1437 C1429 0.960 . S
H1438 C1430 0.930 . S
H1439 C1431 0.929 . S
H1440 C1448 0.929 . S
H1441 C1450 0.930 . S
H1442 C1452 0.930 . S
H1443 C1455 0.929 . S
H1444 C1458 0.930 . S
H1445 C1460 0.960 . S
H1446 C1460 0.960 . S
H1447 C1460 0.960 . S
C1448 H1440 0.929 . S
C1448 C1449 1.377 . S
C1448 C1450 1.384 . S
C1449 C1448 1.377 . S
C1449 C1455 1.390 . S
C1450 H1441 0.930 . S
C1450 C1448 1.384 . S
C1450 C1451 1.372 . S
C1451 C1450 1.372 . S
C1451 C1452 1.400 . S
C1451 C1456 1.490 . S
C1452 H1442 0.930 . S
C1452 C1451 1.400 . S
C1452 C1455 1.386 . S
H1453 C1469 0.930 . S
H1454 C1470 0.931 . S
C1455 H1443 0.929 . S
C1455 C1449 1.390 . S
C1455 C1452 1.386 . S
C1456 C1451 1.490 . S
C1456 C1458 1.395 1_455 S
C1456 C1459 1.403 . S
H1457 C1463 0.930 . S
C1458 H1444 0.930 . S
C1458 C1456 1.395 1_655 S
C1458 C1461 1.403 . S
C1459 C1456 1.403 . S
C1459 C1460 1.524 . S
C1459 C1463 1.400 . S
C1460 H1445 0.960 . S
C1460 H1446 0.960 . S
C1460 H1447 0.960 . S
C1460 C1459 1.524 . S
C1461 C1458 1.403 . S
C1461 C1462 1.392 . S
C1461 C1465 1.495 . S
C1462 C1461 1.392 . S
C1462 C1463 1.385 1_655 S
C1462 C1464 1.478 . S
C1463 H1457 0.930 . S
C1463 C1459 1.400 . S
C1463 C1462 1.385 1_455 S
C1464 C1462 1.478 . S
C1464 C1466 1.381 . S
C1464 C1470 1.383 . S
C1465 C1461 1.495 . S
C1465 H1471 0.959 . S
C1465 H1472 0.961 . S
C1465 H1473 0.960 . S
C1466 C1464 1.381 . S
C1466 C1467 1.394 . S
C1466 H1474 0.930 . S
C1467 C1466 1.394 . S
C1467 C1468 1.383 . S
C1467 H1475 0.929 . S
C1468 C1467 1.383 . S
C1468 C1469 1.377 . S
C1469 H1453 0.930 . S
C1469 C1468 1.377 . S
C1469 C1470 1.379 . S
C1470 H1454 0.931 . S
C1470 C1464 1.383 . S
C1470 C1469 1.379 . S
H1471 C1465 0.959 . S
H1472 C1465 0.961 . S
H1473 C1465 0.960 . S
H1474 C1466 0.930 . S
H1475 C1467 0.929 . S
C405 C40 1.434 . S
C424 N2 1.385 . S
C441 N35 1.353 . S
C460 C73 1.447 . S
C477 N68 1.365 . S
C496 C7 1.457 . S
C513 N101 1.349 . S
C532 C172 1.425 . S
C549 N134 1.355 . S
C568 C106 1.406 . S
C585 C139 1.437 . S
C604 N167 1.324 . S
C621 C238 1.432 . S
C640 N200 1.314 . S
C657 C271 1.430 . S
C676 N233 1.330 . S
C693 C205 1.431 . S
C712 N266 1.355 . S
C729 N299 1.362 . S
C748 C370 1.419 . S
C765 C304 1.440 . S
C784 N332 1.394 . S
C801 N365 1.349 . S
C820 C337 1.418 . S
C837 C18 1.281 . S
C856 N244 1.240 . S
C873 C51 1.277 . S
C892 N277 1.246 . S
C909 C84 1.278 . S
C928 N211 1.227 . S
C945 N376 1.249 . S
C964 C117 1.276 . S
C981 C150 1.277 . S
C1000 N310 1.230 . S
C1017 N343 1.256 . S
C1036 C183 1.288 . S
C1053 N46 1.258 . S
C1072 C216 1.268 . S
C1089 N79 1.250 . S
C1108 C249 1.284 . S
C1125 C282 1.277 . S
C1144 N13 1.275 . S
C1161 N178 1.257 . S
C1180 C315 1.269 . S
C1197 C348 1.282 . S
C1216 N112 1.226 . S
C1233 C381 1.279 . S
C1252 N145 1.254 . S
C1269 C120 1.249 . S
C1288 C21 1.241 . S
C1305 C54 1.248 . S
C1324 C153 1.267 . S
C1341 C87 1.246 . S
C1360 C186 1.264 . S
C1377 C318 1.253 . S
C1396 C219 1.269 . S
C1413 C252 1.245 . S
C1432 C351 1.226 . S
C1449 C285 1.255 . S
C1468 C384 1.264 . S
