# Generated by pormake.
# Topology ecs, (8)-cn, num edge types: 1
# Building blocks:
#     Node 0, Type 0, BuildingBlock: TAGTUT_clean_sbu_1, # of connection points: 8
#     Node 1, Type 0, BuildingBlock: TAGTUT_clean_sbu_1, # of connection points: 8
#     Node 2, Type 0, BuildingBlock: TAGTUT_clean_sbu_1, # of connection points: 8
#     Node 3, Type 0, BuildingBlock: TAGTUT_clean_sbu_1, # of connection points: 8
#     Node 4, Type 0, BuildingBlock: TAGTUT_clean_sbu_1, # of connection points: 8
#     Node 5, Type 0, BuildingBlock: TAGTUT_clean_sbu_1, # of connection points: 8
#     Node 6, Type 0, BuildingBlock: TAGTUT_clean_sbu_1, # of connection points: 8
#     Node 7, Type 0, BuildingBlock: TAGTUT_clean_sbu_1, # of connection points: 8
#     Node 8, Type 0, BuildingBlock: TAGTUT_clean_sbu_1, # of connection points: 8
#     Node 9, Type 0, BuildingBlock: TAGTUT_clean_sbu_1, # of connection points: 8
#     Node 10, Type 0, BuildingBlock: TAGTUT_clean_sbu_1, # of connection points: 8
#     Node 11, Type 0, BuildingBlock: TAGTUT_clean_sbu_1, # of connection points: 8
#     Edge 12, Type (0, 0), None
#     Edge 13, Type (0, 0), None
#     Edge 14, Type (0, 0), None
#     Edge 15, Type (0, 0), None
#     Edge 16, Type (0, 0), None
#     Edge 17, Type (0, 0), None
#     Edge 18, Type (0, 0), None
#     Edge 19, Type (0, 0), None
#     Edge 20, Type (0, 0), None
#     Edge 21, Type (0, 0), None
#     Edge 22, Type (0, 0), None
#     Edge 23, Type (0, 0), None
#     Edge 24, Type (0, 0), None
#     Edge 25, Type (0, 0), None
#     Edge 26, Type (0, 0), None
#     Edge 27, Type (0, 0), None
#     Edge 28, Type (0, 0), None
#     Edge 29, Type (0, 0), None
#     Edge 30, Type (0, 0), None
#     Edge 31, Type (0, 0), None
#     Edge 32, Type (0, 0), None
#     Edge 33, Type (0, 0), None
#     Edge 34, Type (0, 0), None
#     Edge 35, Type (0, 0), None
#     Edge 36, Type (0, 0), None
#     Edge 37, Type (0, 0), None
#     Edge 38, Type (0, 0), None
#     Edge 39, Type (0, 0), None
#     Edge 40, Type (0, 0), None
#     Edge 41, Type (0, 0), None
#     Edge 42, Type (0, 0), None
#     Edge 43, Type (0, 0), None
#     Edge 44, Type (0, 0), None
#     Edge 45, Type (0, 0), None
#     Edge 46, Type (0, 0), None
#     Edge 47, Type (0, 0), None
#     Edge 48, Type (0, 0), None
#     Edge 49, Type (0, 0), None
#     Edge 50, Type (0, 0), None
#     Edge 51, Type (0, 0), None
#     Edge 52, Type (0, 0), None
#     Edge 53, Type (0, 0), None
#     Edge 54, Type (0, 0), None
#     Edge 55, Type (0, 0), None
#     Edge 56, Type (0, 0), None
#     Edge 57, Type (0, 0), None
#     Edge 58, Type (0, 0), None
#     Edge 59, Type (0, 0), None
# Relax obj value: 0.370
# Max RMSD: 0.278
# Mean RMSD: 0.278
data_MOF--net-ecs--node1-TAGTUT_clean_sbu_1--edge1-none
_symmetry_space_group_name_H-M    P1
_symmetry_Int_Tables_number       1
_symmetry_cell_setting            triclinic
loop_
_symmetry_equiv_pos_as_xyz
'x, y, z'
_cell_length_a     28.460903
_cell_length_b     28.460862
_cell_length_c     14.236778
_cell_angle_alpha  89.9958
_cell_angle_beta   90.008398
_cell_angle_gamma 119.99952
loop_
_atom_site_label
_atom_site_type_symbol
_atom_site_fract_x
_atom_site_fract_y
_atom_site_fract_z
_atom_type_partial_charge
C0 C 0.46727 0.48306 0.01306 0.0
C1 C 0.54386 0.42052 0.9367 0.0
C2 C 0.39637 0.23172 0.01621 0.0
Mg3 Mg 0.52609 0.45119 0.13428 0.0
O4 O 0.45548 0.38958 0.14314 0.0
Mg5 Mg 0.4159 0.35695 0.01924 0.0
Mg6 Mg 0.45849 0.32603 0.18763 0.0
O7 O 0.46382 0.26208 0.22659 0.0
Mg8 Mg 0.43051 0.18726 0.19731 0.0
Mg9 Mg 0.5156 0.28968 0.3322 0.0
C10 C 0.53516 0.41051 0.34354 0.0
C11 C 0.59378 0.37907 0.19419 0.0
O12 O 0.42122 0.43972 0.00364 0.0
O13 O 0.48872 0.49657 0.0945 0.0
O14 O 0.49271 0.38898 0.93669 0.0
O15 O 0.56892 0.44757 0.00957 0.0
O16 O 0.55041 0.44614 0.27747 0.0
O17 O 0.49575 0.36171 0.33324 0.0
C18 C 0.33498 0.31432 0.19488 0.0
O19 O 0.36804 0.30144 0.23556 0.0
O20 O 0.34073 0.32771 0.10837 0.0
O21 O 0.54014 0.22541 0.29415 0.0
O22 O 0.50514 0.1875 0.1559 0.0
O23 O 0.44607 0.2329 0.42141 0.0
C24 C 0.54522 0.20862 0.21254 0.0
O25 O 0.40142 0.15368 0.34473 0.0
O26 O 0.38582 0.19131 0.07099 0.0
C27 C 0.41182 0.18235 0.42037 0.0
O28 O 0.42126 0.28072 0.04828 0.0
O29 O 0.55351 0.37496 0.14639 0.0
O30 O 0.58665 0.34373 0.25398 0.0
C31 C 0.49358 0.97955 0.01307 0.0
C32 C 0.55611 0.11867 0.93671 0.0
C33 C 0.74491 0.16 0.01627 0.0
Mg34 Mg 0.52544 0.07023 0.13429 0.0
O35 O 0.58706 0.06124 0.14318 0.0
Mg36 Mg 0.61969 0.05429 0.01928 0.0
Mg37 Mg 0.65061 0.12781 0.18766 0.0
O38 O 0.71455 0.19709 0.22662 0.0
Mg39 Mg 0.78937 0.2386 0.19736 0.0
Mg40 Mg 0.68696 0.22127 0.33221 0.0
C41 C 0.56612 0.11999 0.34354 0.0
C42 C 0.59758 0.21007 0.19416 0.0
O43 O 0.53693 0.97685 0.00368 0.0
O44 O 0.48006 0.98749 0.0945 0.0
O45 O 0.58765 0.09907 0.93672 0.0
O46 O 0.52906 0.11668 0.00957 0.0
O47 O 0.53049 0.09961 0.27747 0.0
O48 O 0.61493 0.12938 0.33326 0.0
C49 C 0.66234 0.01602 0.19495 0.0
O50 O 0.67521 0.06195 0.23561 0.0
O51 O 0.64895 0.00838 0.10842 0.0
O52 O 0.75123 0.31008 0.29417 0.0
O53 O 0.78913 0.31299 0.15593 0.0
O54 O 0.74373 0.2085 0.42145 0.0
C55 C 0.76801 0.33195 0.21256 0.0
O56 O 0.82295 0.24309 0.34479 0.0
O57 O 0.78533 0.18987 0.07106 0.0
C58 C 0.79428 0.22481 0.42042 0.0
O59 O 0.69592 0.1359 0.04833 0.0
O60 O 0.60166 0.17388 0.1464 0.0
O61 O 0.63291 0.23829 0.25395 0.0
C62 C -0.00291 0.50937 0.01307 0.0
C63 C 0.85797 0.43278 0.93671 0.0
C64 C 0.81664 0.58027 0.01623 0.0
Mg65 Mg 0.90641 0.45056 0.1343 0.0
O66 O 0.91541 0.52117 0.14316 0.0
Mg67 Mg 0.92235 0.56074 0.01925 0.0
Mg68 Mg 0.84884 0.51815 0.18765 0.0
O69 O 0.77957 0.51283 0.22661 0.0
Mg70 Mg 0.73805 0.54612 0.19733 0.0
Mg71 Mg 0.7554 0.46105 0.33221 0.0
C72 C 0.85666 0.44149 0.34355 0.0
C73 C 0.76658 0.38287 0.19418 0.0
O74 O -0.00022 0.55541 0.00365 0.0
O75 O -0.01085 0.48792 0.09451 0.0
O76 O 0.87757 0.48393 0.9367 0.0
O77 O 0.85995 0.40772 0.00958 0.0
O78 O 0.87704 0.42624 0.27748 0.0
O79 O 0.84728 0.4809 0.33325 0.0
C80 C 0.96064 0.64167 0.19489 0.0
O81 O 0.91471 0.60861 0.23556 0.0
O82 O 0.96828 0.63592 0.10837 0.0
O83 O 0.66659 0.43651 0.29416 0.0
O84 O 0.66366 0.47149 0.1559 0.0
O85 O 0.76815 0.53059 0.42144 0.0
C86 C 0.64471 0.43142 0.21254 0.0
O87 O 0.73355 0.5752 0.34476 0.0
O88 O 0.78677 0.59081 0.071 0.0
C89 C 0.75182 0.56481 0.4204 0.0
O90 O 0.84075 0.55537 0.04831 0.0
O91 O 0.80276 0.42313 0.1464 0.0
O92 O 0.73838 0.38999 0.25398 0.0
C93 C 0.47838 0.47194 0.43512 0.0
C94 C 0.41584 0.54853 0.51147 0.0
C95 C 0.22704 0.40105 0.43194 0.0
Mg96 Mg 0.4465 0.53075 0.3139 0.0
O97 O 0.38488 0.46013 0.30502 0.0
Mg98 Mg 0.35226 0.42057 0.42893 0.0
Mg99 Mg 0.32134 0.46317 0.26053 0.0
O100 O 0.2574 0.46851 0.22158 0.0
Mg101 Mg 0.18258 0.4352 0.25084 0.0
Mg102 Mg 0.285 0.52028 0.11598 0.0
C103 C 0.40583 0.53984 0.10464 0.0
C104 C 0.37441 0.59846 0.254 0.0
O105 O 0.43504 0.4259 0.44454 0.0
O106 O 0.49189 0.49339 0.35368 0.0
O107 O 0.3843 0.49738 0.51147 0.0
O108 O 0.44289 0.57359 0.43861 0.0
O109 O 0.44146 0.55508 0.17072 0.0
O110 O 0.35702 0.50042 0.11493 0.0
C111 C 0.30956 0.33963 0.25332 0.0
O112 O 0.29672 0.3727 0.2126 0.0
O113 O 0.32299 0.34538 0.33982 0.0
O114 O 0.22074 0.54483 0.15403 0.0
O115 O 0.18282 0.50983 0.29226 0.0
O116 O 0.22822 0.45076 0.02675 0.0
C117 C 0.20394 0.54991 0.23563 0.0
O118 O 0.149 0.40611 0.10341 0.0
O119 O 0.18663 0.39051 0.37716 0.0
C120 C 0.17767 0.41651 0.02778 0.0
O121 O 0.27603 0.42594 0.39988 0.0
O122 O 0.37029 0.55819 0.30179 0.0
O123 O 0.33906 0.59134 0.19422 0.0
C124 C 0.5047 0.00177 0.43512 0.0
C125 C 0.42812 0.86264 0.51147 0.0
C126 C 0.57561 0.82132 0.43198 0.0
Mg127 Mg 0.44591 0.91109 0.31389 0.0
O128 O 0.51652 0.92009 0.30504 0.0
Mg129 Mg 0.55609 0.92703 0.42896 0.0
Mg130 Mg 0.5135 0.85352 0.26055 0.0
O131 O 0.50817 0.78425 0.22159 0.0
Mg132 Mg 0.54146 0.74272 0.25087 0.0
Mg133 Mg 0.45639 0.76007 0.11598 0.0
C134 C 0.43683 0.86134 0.10463 0.0
C135 C 0.3782 0.77128 0.25398 0.0
O136 O 0.55075 0.00447 0.44457 0.0
O137 O 0.48326 -0.00617 0.35367 0.0
O138 O 0.47927 0.88225 0.51149 0.0
O139 O 0.40307 0.86463 0.4386 0.0
O140 O 0.42158 0.88172 0.1707 0.0
O141 O 0.47625 0.85196 0.11493 0.0
C142 C 0.63703 0.96528 0.25337 0.0
O143 O 0.60396 0.91937 0.21265 0.0
O144 O 0.63128 0.97296 0.33987 0.0
O145 O 0.43183 0.67126 0.15403 0.0
O146 O 0.46683 0.66833 0.29228 0.0
O147 O 0.52591 0.77281 0.02676 0.0
C148 C 0.42675 0.64939 0.23564 0.0
O149 O 0.57054 0.73822 0.10345 0.0
O150 O 0.58615 0.79145 0.37721 0.0
C151 C 0.56014 0.75649 0.02781 0.0
O152 O 0.55072 0.84543 0.3999 0.0
O153 O 0.41848 0.80744 0.30179 0.0
O154 O 0.38534 0.74308 0.19419 0.0
C155 C 0.97488 0.49827 0.43511 0.0
C156 C 0.114 0.5608 0.51147 0.0
C157 C 0.15534 0.74961 0.43192 0.0
Mg158 Mg 0.06555 0.53015 0.31388 0.0
O159 O 0.05656 0.59177 0.305 0.0
Mg160 Mg 0.04963 0.62439 0.42891 0.0
Mg161 Mg 0.12314 0.65531 0.26052 0.0
O162 O 0.19241 0.71924 0.22156 0.0
Mg163 Mg 0.23393 0.79406 0.25082 0.0
Mg164 Mg 0.21658 0.69164 0.11597 0.0
C165 C 0.11531 0.57081 0.10463 0.0
C166 C 0.20538 0.60227 0.25401 0.0
O167 O 0.97219 0.54162 0.44454 0.0
O168 O 0.98281 0.48476 0.35367 0.0
O169 O 0.0944 0.59235 0.51146 0.0
O170 O 0.11201 0.53376 0.4386 0.0
O171 O 0.09492 0.53519 0.1707 0.0
O172 O 0.1247 0.61962 0.11492 0.0
C173 C 0.01138 0.66709 0.25331 0.0
O174 O 0.05729 0.67993 0.21259 0.0
O175 O 0.00371 0.65367 0.33982 0.0
O176 O 0.30539 0.7559 0.15402 0.0
O177 O 0.30833 0.79383 0.29226 0.0
O178 O 0.20383 0.74842 0.02672 0.0
C179 C 0.32727 0.7727 0.23563 0.0
O180 O 0.23843 0.82764 0.10338 0.0
O181 O 0.18521 0.79002 0.37714 0.0
C182 C 0.22016 0.79897 0.02775 0.0
O183 O 0.13123 0.70062 0.39985 0.0
O184 O 0.1692 0.60635 0.30177 0.0
O185 O 0.2336 0.6376 0.19422 0.0
C186 C 0.42684 0.77268 0.73629 0.0
C187 C 0.55985 0.79861 0.52795 0.0
C188 C 0.43632 0.57073 0.6048 0.0
Mg189 Mg 0.54154 0.7939 0.7511 0.0
O190 O 0.50799 0.71905 0.72203 0.0
Mg191 Mg 0.45609 0.69143 0.6166 0.0
Mg192 Mg 0.51335 0.65509 0.76078 0.0
O193 O 0.51638 0.5915 0.80489 0.0
Mg194 Mg 0.44574 0.52986 0.81362 0.0
Mg195 Mg 0.55599 0.624 0.92882 0.0
C196 C 0.57582 0.74929 0.93192 0.0
C197 C 0.63691 0.66691 0.75333 0.0
O198 O 0.43179 0.75583 0.65466 0.0
O199 O 0.467 0.79381 0.79278 0.0
O200 O 0.52546 0.7481 0.52706 0.0
O201 O 0.5705 0.82736 0.60353 0.0
O202 O 0.58647 0.78968 0.877 0.0
O203 O 0.55043 0.7002 0.90033 0.0
C204 C 0.37806 0.60213 0.75483 0.0
O205 O 0.41839 0.60612 0.80224 0.0
O206 O 0.38514 0.63758 0.69531 0.0
O207 O 0.55072 0.54122 0.9438 0.0
O208 O 0.48316 0.48444 0.85287 0.0
O209 O 0.47923 0.59185 0.01147 0.0
C210 C 0.50469 0.49787 0.93426 0.0
O211 O 0.40299 0.53336 0.93851 0.0
O212 O 0.42105 0.53499 0.67071 0.0
C213 C 0.42807 0.56036 0.01138 0.0
O214 O 0.47598 0.61939 0.61525 0.0
O215 O 0.60381 0.67977 0.71274 0.0
O216 O 0.63119 0.65348 0.83981 0.0
C217 C 0.20397 0.64948 0.73627 0.0
C218 C 0.17805 0.75657 0.52789 0.0
C219 C 0.40593 0.86092 0.60481 0.0
Mg220 Mg 0.18275 0.74296 0.75105 0.0
O221 O 0.25761 0.78426 0.72201 0.0
Mg222 Mg 0.28523 0.75998 0.61659 0.0
Mg223 Mg 0.32156 0.85358 0.76074 0.0
O224 O 0.38514 0.92021 0.80485 0.0
Mg225 Mg 0.44679 0.91121 0.81361 0.0
Mg226 Mg 0.35264 0.92731 0.92877 0.0
C227 C 0.22736 0.82185 0.93186 0.0
C228 C 0.30971 0.96531 0.75327 0.0
O229 O 0.22082 0.67128 0.65464 0.0
O230 O 0.18283 0.6685 0.79275 0.0
O231 O 0.22856 0.7727 0.52702 0.0
O232 O 0.1493 0.73846 0.60346 0.0
O233 O 0.18697 0.79211 0.87693 0.0
O234 O 0.27645 0.84555 0.90029 0.0
C235 C 0.37451 0.77124 0.75486 0.0
O236 O 0.37055 0.80761 0.80223 0.0
O237 O 0.33906 0.74286 0.69534 0.0
O238 O 0.43541 0.00482 0.94376 0.0
O239 O 0.4922 -0.00595 0.85287 0.0
O240 O 0.3848 0.88271 0.01144 0.0
C241 C 0.47877 0.00216 0.93425 0.0
O242 O 0.44329 0.86496 0.93851 0.0
O243 O 0.44166 0.88139 0.67071 0.0
C244 C 0.41629 0.86305 0.01138 0.0
O245 O 0.35726 0.85192 0.61523 0.0
O246 O 0.29687 0.91936 0.71268 0.0
O247 O 0.32314 0.97302 0.83975 0.0
C248 C 0.32715 0.5498 0.73628 0.0
C249 C 0.22008 0.41681 0.52792 0.0
C250 C 0.11571 0.54032 0.6048 0.0
Mg251 Mg 0.23368 0.43511 0.75108 0.0
O252 O 0.19237 0.46865 0.72202 0.0
Mg253 Mg 0.21664 0.52055 0.61659 0.0
Mg254 Mg 0.12305 0.46329 0.76076 0.0
O255 O 0.05643 0.46026 0.80487 0.0
Mg256 Mg 0.06543 0.5309 0.81361 0.0
Mg257 Mg 0.04934 0.42066 0.9288 0.0
C258 C 0.15479 0.40083 0.9319 0.0
C259 C 0.01131 0.33972 0.75332 0.0
O260 O 0.30534 0.54485 0.65465 0.0
O261 O 0.30813 0.50965 0.79278 0.0
O262 O 0.20393 0.45117 0.52703 0.0
O263 O 0.23819 0.40616 0.6035 0.0
O264 O 0.18454 0.39018 0.87698 0.0
O265 O 0.13109 0.42621 0.9003 0.0
C266 C 0.2054 0.59858 0.75484 0.0
O267 O 0.16903 0.55825 0.80223 0.0
O268 O 0.23376 0.5915 0.69531 0.0
O269 O 0.97183 0.42592 0.94379 0.0
O270 O 0.98259 0.49348 0.85286 0.0
O271 O 0.09394 0.49742 0.01146 0.0
C272 C 0.97449 0.47195 0.93426 0.0
O273 O 0.11168 0.57365 0.9385 0.0
O274 O 0.09524 0.55559 0.67069 0.0
C275 C 0.1136 0.54857 0.01138 0.0
O276 O 0.1247 0.50065 0.61524 0.0
O277 O 0.05726 0.37282 0.71273 0.0
O278 O 0.00361 0.34545 0.83981 0.0
C279 C 0.76801 0.4315 0.7119 0.0
C280 C 0.79393 0.56451 0.92026 0.0
C281 C 0.56605 0.44099 0.84337 0.0
Mg282 Mg 0.78923 0.5462 0.69711 0.0
O283 O 0.71437 0.51264 0.72615 0.0
Mg284 Mg 0.68675 0.46075 0.83158 0.0
Mg285 Mg 0.65042 0.51802 0.68742 0.0
O286 O 0.58684 0.52107 0.6433 0.0
Mg287 Mg 0.5252 0.45043 0.63456 0.0
Mg288 Mg 0.61934 0.56067 0.51937 0.0
C289 C 0.74462 0.58049 0.51628 0.0
C290 C 0.66231 0.64161 0.69483 0.0
O291 O 0.75115 0.43645 0.79352 0.0
O292 O 0.78914 0.47166 0.65542 0.0
O293 O 0.74342 0.53012 0.92113 0.0
O294 O 0.82269 0.57516 0.84469 0.0
O295 O 0.78501 0.59114 0.57121 0.0
O296 O 0.69553 0.5551 0.54786 0.0
C297 C 0.59744 0.38273 0.69334 0.0
O298 O 0.60143 0.42306 0.64594 0.0
O299 O 0.6329 0.3898 0.75285 0.0
O300 O 0.53655 0.5554 0.50438 0.0
O301 O 0.47977 0.48785 0.59531 0.0
O302 O 0.58718 0.48391 0.43672 0.0
C303 C 0.4932 0.50937 0.51391 0.0
O304 O 0.52869 0.40767 0.50967 0.0
O305 O 0.53032 0.42573 0.77747 0.0
C306 C 0.55569 0.43276 0.4368 0.0
O307 O 0.61472 0.48065 0.83293 0.0
O308 O 0.67513 0.6085 0.73546 0.0
O309 O 0.64885 0.63589 0.60836 0.0
C310 C 0.54512 0.33182 0.71188 0.0
C311 C 0.41212 0.22476 0.92024 0.0
C312 C 0.53562 0.12038 0.84338 0.0
Mg313 Mg 0.43042 0.23836 0.69707 0.0
O314 O 0.46396 0.19704 0.72614 0.0
Mg315 Mg 0.51586 0.22131 0.83158 0.0
Mg316 Mg 0.4586 0.12772 0.6874 0.0
O317 O 0.45556 0.0611 0.64329 0.0
Mg318 Mg 0.5262 0.07011 0.63457 0.0
Mg319 Mg 0.41596 0.054 0.51934 0.0
C320 C 0.39614 0.15947 0.51625 0.0
C321 C 0.33501 0.01602 0.69477 0.0
O322 O 0.54017 0.31001 0.79351 0.0
O323 O 0.50496 0.31281 0.65539 0.0
O324 O 0.44649 0.20862 0.92113 0.0
O325 O 0.40147 0.24287 0.84465 0.0
O326 O 0.38549 0.18921 0.57116 0.0
O327 O 0.42152 0.13576 0.54784 0.0
C328 C 0.59389 0.21004 0.69336 0.0
O329 O 0.55356 0.1737 0.64594 0.0
O330 O 0.58681 0.23841 0.75287 0.0
O331 O 0.42124 0.97649 0.50434 0.0
O332 O 0.48879 0.98727 0.59532 0.0
O333 O 0.49272 0.09861 0.4367 0.0
C334 C 0.46727 0.97916 0.51391 0.0
O335 O 0.56896 0.11636 0.50968 0.0
O336 O 0.55089 0.09992 0.77748 0.0
C337 C 0.54388 0.11828 0.4368 0.0
O338 O 0.49596 0.12938 0.83293 0.0
O339 O 0.36812 0.06194 0.73541 0.0
O340 O 0.34074 0.00828 0.60831 0.0
C341 C 0.6448 0.20864 0.7119 0.0
C342 C 0.75188 0.18271 0.92029 0.0
C343 C 0.85625 0.41059 0.84338 0.0
Mg344 Mg 0.73827 0.18741 0.69712 0.0
O345 O 0.77958 0.26227 0.72617 0.0
Mg346 Mg 0.75532 0.28989 0.83159 0.0
Mg347 Mg 0.84891 0.32622 0.68743 0.0
O348 O 0.91554 0.38979 0.64332 0.0
Mg349 Mg 0.90654 0.45144 0.63457 0.0
Mg350 Mg 0.92262 0.35729 0.51938 0.0
C351 C 0.81716 0.23201 0.51631 0.0
C352 C 0.9606 0.31431 0.69483 0.0
O353 O 0.66661 0.22549 0.79353 0.0
O354 O 0.66382 0.1875 0.65542 0.0
O355 O 0.76803 0.23322 0.92116 0.0
O356 O 0.73377 0.15396 0.84471 0.0
O357 O 0.78741 0.19162 0.57123 0.0
O358 O 0.84086 0.2811 0.54789 0.0
C359 C 0.76657 0.37917 0.69332 0.0
O360 O 0.80294 0.37521 0.64596 0.0
O361 O 0.7382 0.34373 0.75285 0.0
O362 O 0.00013 0.44007 0.50438 0.0
O363 O -0.01063 0.49686 0.59532 0.0
O364 O 0.87802 0.38945 0.43673 0.0
C365 C -0.00253 0.48344 0.51392 0.0
O366 O 0.86029 0.44795 0.50968 0.0
O367 O 0.87673 0.44632 0.77748 0.0
C368 C 0.85837 0.42095 0.4368 0.0
O369 O 0.84725 0.36192 0.83294 0.0
O370 O 0.91468 0.3015 0.73547 0.0
O371 O 0.96834 0.32778 0.60836 0.0
loop_
_geom_bond_atom_site_label_1
_geom_bond_atom_site_label_2
_geom_bond_distance
_geom_bond_site_symmetry_2
_ccdc_geom_bond_type
C0 O12 1.241 1_554 S
C0 O13 1.280 . S
C1 O14 1.277 . S
C1 O15 1.245 . S
C2 O26 1.247 1_556 S
C2 O28 1.289 1_556 S
Mg3 O4 1.926 . S
Mg3 O13 1.984 . S
Mg3 O15 1.988 1_554 S
Mg3 O16 2.061 . S
O4 Mg3 1.926 . S
O4 Mg5 1.986 1_554 S
O4 Mg6 1.917 . S
Mg5 O4 1.986 1_556 S
Mg5 O12 2.042 . S
Mg5 O14 2.041 . S
Mg5 O20 2.038 1_556 S
Mg5 O28 2.238 1_556 S
Mg6 O4 1.917 . S
Mg6 O7 1.917 . S
Mg6 O17 2.106 . S
Mg6 O19 2.079 . S
Mg6 O28 2.106 . S
Mg6 O29 2.079 . S
O7 Mg6 1.917 . S
O7 Mg8 1.926 . S
O7 Mg9 1.986 . S
Mg8 O7 1.926 . S
Mg8 O22 1.984 . S
Mg8 O25 1.988 . S
Mg8 O26 2.061 . S
Mg9 O7 1.986 . S
Mg9 O17 2.238 . S
Mg9 O21 2.042 . S
Mg9 O23 2.041 . S
Mg9 O30 2.038 . S
C10 O16 1.247 . S
C10 O17 1.289 . S
C11 O29 1.245 . S
C11 O30 1.274 . S
O12 C0 1.241 1_556 S
O12 Mg5 2.042 . S
O13 C0 1.280 . S
O13 Mg3 1.984 . S
O14 C1 1.277 . S
O14 Mg5 2.041 . S
O15 C1 1.245 . S
O15 Mg3 1.988 1_556 S
O16 Mg3 2.061 . S
O16 C10 1.247 . S
O17 Mg6 2.106 . S
O17 Mg9 2.238 . S
O17 C10 1.289 . S
C18 O19 1.245 . S
C18 O20 1.274 . S
O19 Mg6 2.079 . S
O19 C18 1.245 . S
O20 Mg5 2.038 1_554 S
O20 C18 1.274 . S
O21 Mg9 2.042 . S
O21 C24 1.241 . S
O22 Mg8 1.984 . S
O22 C24 1.280 . S
O23 Mg9 2.041 . S
O23 C27 1.277 . S
C24 O21 1.241 . S
C24 O22 1.280 . S
O25 Mg8 1.988 . S
O25 C27 1.245 . S
O26 C2 1.247 1_554 S
O26 Mg8 2.061 . S
C27 O23 1.277 . S
C27 O25 1.245 . S
O28 C2 1.289 1_554 S
O28 Mg5 2.238 1_554 S
O28 Mg6 2.106 . S
O29 Mg6 2.079 . S
O29 C11 1.245 . S
O30 Mg9 2.038 . S
O30 C11 1.274 . S
C31 O43 1.241 1_554 S
C31 O44 1.274 1_565 S
C32 O45 1.277 . S
C32 O46 1.245 . S
C33 O57 1.247 1_556 S
C33 O59 1.289 1_556 S
Mg34 O35 1.926 . S
Mg34 O44 1.991 . S
Mg34 O46 1.988 1_554 S
Mg34 O47 2.061 . S
O35 Mg34 1.926 . S
O35 Mg36 1.986 1_554 S
O35 Mg37 1.917 . S
Mg36 O35 1.986 1_556 S
Mg36 O43 2.042 1_545 S
Mg36 O45 2.041 . S
Mg36 O51 2.038 1_556 S
Mg36 O59 2.238 1_556 S
Mg37 O35 1.917 . S
Mg37 O38 1.917 . S
Mg37 O48 2.106 . S
Mg37 O50 2.079 . S
Mg37 O59 2.106 . S
Mg37 O60 2.079 . S
O38 Mg37 1.917 . S
O38 Mg39 1.926 . S
O38 Mg40 1.986 . S
Mg39 O38 1.926 . S
Mg39 O53 1.984 . S
Mg39 O56 1.988 . S
Mg39 O57 2.061 . S
Mg40 O38 1.986 . S
Mg40 O48 2.238 . S
Mg40 O52 2.042 . S
Mg40 O54 2.041 . S
Mg40 O61 2.038 . S
C41 O47 1.247 . S
C41 O48 1.289 . S
C42 O60 1.245 . S
C42 O61 1.274 . S
O43 C31 1.241 1_556 S
O43 Mg36 2.042 1_565 S
O44 C31 1.274 1_545 S
O44 Mg34 1.991 . S
O45 C32 1.277 . S
O45 Mg36 2.041 . S
O46 C32 1.245 . S
O46 Mg34 1.988 1_556 S
O47 Mg34 2.061 . S
O47 C41 1.247 . S
O48 Mg37 2.106 . S
O48 Mg40 2.238 . S
O48 C41 1.289 . S
C49 O50 1.245 . S
C49 O51 1.274 . S
O50 Mg37 2.079 . S
O50 C49 1.245 . S
O51 Mg36 2.038 1_554 S
O51 C49 1.274 . S
O52 Mg40 2.042 . S
O52 C55 1.241 . S
O53 Mg39 1.984 . S
O53 C55 1.280 . S
O54 Mg40 2.041 . S
O54 C58 1.277 . S
C55 O52 1.241 . S
C55 O53 1.280 . S
O56 Mg39 1.988 . S
O56 C58 1.245 . S
O57 C33 1.247 1_554 S
O57 Mg39 2.061 . S
C58 O54 1.277 . S
C58 O56 1.245 . S
O59 C33 1.289 1_554 S
O59 Mg36 2.238 1_554 S
O59 Mg37 2.106 . S
O60 Mg37 2.079 . S
O60 C42 1.245 . S
O61 Mg40 2.038 . S
O61 C42 1.274 . S
C62 O74 1.241 1_554 S
C62 O75 1.279 1_455 S
C63 O76 1.277 . S
C63 O77 1.245 . S
C64 O88 1.247 1_556 S
C64 O90 1.289 1_556 S
Mg65 O66 1.926 . S
Mg65 O75 1.990 . S
Mg65 O77 1.988 1_554 S
Mg65 O78 2.061 . S
O66 Mg65 1.926 . S
O66 Mg67 1.986 1_554 S
O66 Mg68 1.917 . S
Mg67 O66 1.986 1_556 S
Mg67 O74 2.042 1_655 S
Mg67 O76 2.041 . S
Mg67 O82 2.038 1_556 S
Mg67 O90 2.238 1_556 S
Mg68 O66 1.917 . S
Mg68 O69 1.917 . S
Mg68 O79 2.106 . S
Mg68 O81 2.079 . S
Mg68 O90 2.106 . S
Mg68 O91 2.079 . S
O69 Mg68 1.917 . S
O69 Mg70 1.926 . S
O69 Mg71 1.986 . S
Mg70 O69 1.926 . S
Mg70 O84 1.984 . S
Mg70 O87 1.988 . S
Mg70 O88 2.061 . S
Mg71 O69 1.986 . S
Mg71 O79 2.238 . S
Mg71 O83 2.042 . S
Mg71 O85 2.041 . S
Mg71 O92 2.038 . S
C72 O78 1.247 . S
C72 O79 1.289 . S
C73 O91 1.245 . S
C73 O92 1.274 . S
O74 C62 1.241 1_556 S
O74 Mg67 2.042 1_455 S
O75 C62 1.279 1_655 S
O75 Mg65 1.990 . S
O76 C63 1.277 . S
O76 Mg67 2.041 . S
O77 C63 1.245 . S
O77 Mg65 1.988 1_556 S
O78 Mg65 2.061 . S
O78 C72 1.247 . S
O79 Mg68 2.106 . S
O79 Mg71 2.238 . S
O79 C72 1.289 . S
C80 O81 1.245 . S
C80 O82 1.274 . S
O81 Mg68 2.079 . S
O81 C80 1.245 . S
O82 Mg67 2.038 1_554 S
O82 C80 1.274 . S
O83 Mg71 2.042 . S
O83 C86 1.241 . S
O84 Mg70 1.984 . S
O84 C86 1.280 . S
O85 Mg71 2.041 . S
O85 C89 1.277 . S
C86 O83 1.241 . S
C86 O84 1.280 . S
O87 Mg70 1.988 . S
O87 C89 1.245 . S
O88 C64 1.247 1_554 S
O88 Mg70 2.061 . S
C89 O85 1.277 . S
C89 O87 1.245 . S
O90 C64 1.289 1_554 S
O90 Mg67 2.238 1_554 S
O90 Mg68 2.106 . S
O91 Mg68 2.079 . S
O91 C73 1.245 . S
O92 Mg71 2.038 . S
O92 C73 1.274 . S
C93 O105 1.241 . S
C93 O106 1.280 . S
C94 O107 1.277 . S
C94 O108 1.245 . S
C95 O119 1.247 . S
C95 O121 1.289 . S
Mg96 O97 1.926 . S
Mg96 O106 1.984 . S
Mg96 O108 1.988 . S
Mg96 O109 2.061 . S
O97 Mg96 1.926 . S
O97 Mg98 1.986 . S
O97 Mg99 1.917 . S
Mg98 O97 1.986 . S
Mg98 O105 2.042 . S
Mg98 O107 2.041 . S
Mg98 O113 2.038 . S
Mg98 O121 2.238 . S
Mg99 O97 1.917 . S
Mg99 O100 1.917 . S
Mg99 O110 2.106 . S
Mg99 O112 2.079 . S
Mg99 O121 2.106 . S
Mg99 O122 2.079 . S
O100 Mg99 1.917 . S
O100 Mg101 1.926 . S
O100 Mg102 1.986 . S
Mg101 O100 1.926 . S
Mg101 O115 1.984 . S
Mg101 O118 1.988 . S
Mg101 O119 2.061 . S
Mg102 O100 1.986 . S
Mg102 O110 2.238 . S
Mg102 O114 2.042 . S
Mg102 O116 2.041 . S
Mg102 O123 2.038 . S
C103 O109 1.247 . S
C103 O110 1.289 . S
C104 O122 1.245 . S
C104 O123 1.274 . S
O105 C93 1.241 . S
O105 Mg98 2.042 . S
O106 C93 1.280 . S
O106 Mg96 1.984 . S
O107 C94 1.277 . S
O107 Mg98 2.041 . S
O108 C94 1.245 . S
O108 Mg96 1.988 . S
O109 Mg96 2.061 . S
O109 C103 1.247 . S
O110 Mg99 2.106 . S
O110 Mg102 2.238 . S
O110 C103 1.289 . S
C111 O112 1.245 . S
C111 O113 1.274 . S
O112 Mg99 2.079 . S
O112 C111 1.245 . S
O113 Mg98 2.038 . S
O113 C111 1.274 . S
O114 Mg102 2.042 . S
O114 C117 1.241 . S
O115 Mg101 1.984 . S
O115 C117 1.280 . S
O116 Mg102 2.041 . S
O116 C120 1.277 . S
C117 O114 1.241 . S
C117 O115 1.280 . S
O118 Mg101 1.988 . S
O118 C120 1.245 . S
O119 C95 1.247 . S
O119 Mg101 2.061 . S
C120 O116 1.277 . S
C120 O118 1.245 . S
O121 C95 1.289 . S
O121 Mg98 2.238 . S
O121 Mg99 2.106 . S
O122 Mg99 2.079 . S
O122 C104 1.245 . S
O123 Mg102 2.038 . S
O123 C104 1.274 . S
C124 O136 1.241 . S
C124 O137 1.279 1_545 S
C125 O138 1.277 . S
C125 O139 1.245 . S
C126 O150 1.247 . S
C126 O152 1.289 . S
Mg127 O128 1.926 . S
Mg127 O137 1.990 . S
Mg127 O139 1.988 . S
Mg127 O140 2.061 . S
O128 Mg127 1.926 . S
O128 Mg129 1.986 . S
O128 Mg130 1.917 . S
Mg129 O128 1.986 . S
Mg129 O136 2.042 1_565 S
Mg129 O138 2.041 . S
Mg129 O144 2.038 . S
Mg129 O152 2.238 . S
Mg130 O128 1.917 . S
Mg130 O131 1.917 . S
Mg130 O141 2.106 . S
Mg130 O143 2.079 . S
Mg130 O152 2.106 . S
Mg130 O153 2.079 . S
O131 Mg130 1.917 . S
O131 Mg132 1.926 . S
O131 Mg133 1.986 . S
Mg132 O131 1.926 . S
Mg132 O146 1.984 . S
Mg132 O149 1.988 . S
Mg132 O150 2.061 . S
Mg133 O131 1.986 . S
Mg133 O141 2.238 . S
Mg133 O145 2.042 . S
Mg133 O147 2.041 . S
Mg133 O154 2.038 . S
C134 O140 1.247 . S
C134 O141 1.289 . S
C135 O153 1.245 . S
C135 O154 1.274 . S
O136 C124 1.241 . S
O136 Mg129 2.042 1_545 S
O137 C124 1.279 1_565 S
O137 Mg127 1.990 . S
O138 C125 1.277 . S
O138 Mg129 2.041 . S
O139 C125 1.245 . S
O139 Mg127 1.988 . S
O140 Mg127 2.061 . S
O140 C134 1.247 . S
O141 Mg130 2.106 . S
O141 Mg133 2.238 . S
O141 C134 1.289 . S
C142 O143 1.245 . S
C142 O144 1.274 . S
O143 Mg130 2.079 . S
O143 C142 1.245 . S
O144 Mg129 2.038 . S
O144 C142 1.274 . S
O145 Mg133 2.042 . S
O145 C148 1.241 . S
O146 Mg132 1.984 . S
O146 C148 1.280 . S
O147 Mg133 2.041 . S
O147 C151 1.277 . S
C148 O145 1.241 . S
C148 O146 1.280 . S
O149 Mg132 1.988 . S
O149 C151 1.245 . S
O150 C126 1.247 . S
O150 Mg132 2.061 . S
C151 O147 1.277 . S
C151 O149 1.245 . S
O152 C126 1.289 . S
O152 Mg129 2.238 . S
O152 Mg130 2.106 . S
O153 Mg130 2.079 . S
O153 C135 1.245 . S
O154 Mg133 2.038 . S
O154 C135 1.274 . S
C155 O167 1.241 . S
C155 O168 1.274 1_655 S
C156 O169 1.277 . S
C156 O170 1.245 . S
C157 O181 1.247 . S
C157 O183 1.289 . S
Mg158 O159 1.926 . S
Mg158 O168 1.991 . S
Mg158 O170 1.988 . S
Mg158 O171 2.061 . S
O159 Mg158 1.926 . S
O159 Mg160 1.986 . S
O159 Mg161 1.917 . S
Mg160 O159 1.986 . S
Mg160 O167 2.042 1_455 S
Mg160 O169 2.041 . S
Mg160 O175 2.038 . S
Mg160 O183 2.238 . S
Mg161 O159 1.917 . S
Mg161 O162 1.917 . S
Mg161 O172 2.106 . S
Mg161 O174 2.079 . S
Mg161 O183 2.106 . S
Mg161 O184 2.079 . S
O162 Mg161 1.917 . S
O162 Mg163 1.926 . S
O162 Mg164 1.986 . S
Mg163 O162 1.926 . S
Mg163 O177 1.984 . S
Mg163 O180 1.988 . S
Mg163 O181 2.061 . S
Mg164 O162 1.986 . S
Mg164 O172 2.238 . S
Mg164 O176 2.042 . S
Mg164 O178 2.041 . S
Mg164 O185 2.038 . S
C165 O171 1.247 . S
C165 O172 1.289 . S
C166 O184 1.245 . S
C166 O185 1.274 . S
O167 C155 1.241 . S
O167 Mg160 2.042 1_655 S
O168 C155 1.274 1_455 S
O168 Mg158 1.991 . S
O169 C156 1.277 . S
O169 Mg160 2.041 . S
O170 C156 1.245 . S
O170 Mg158 1.988 . S
O171 Mg158 2.061 . S
O171 C165 1.247 . S
O172 Mg161 2.106 . S
O172 Mg164 2.238 . S
O172 C165 1.289 . S
C173 O174 1.245 . S
C173 O175 1.274 . S
O174 Mg161 2.079 . S
O174 C173 1.245 . S
O175 Mg160 2.038 . S
O175 C173 1.274 . S
O176 Mg164 2.042 . S
O176 C179 1.241 . S
O177 Mg163 1.984 . S
O177 C179 1.280 . S
O178 Mg164 2.041 . S
O178 C182 1.277 . S
C179 O176 1.241 . S
C179 O177 1.280 . S
O180 Mg163 1.988 . S
O180 C182 1.245 . S
O181 C157 1.247 . S
O181 Mg163 2.061 . S
C182 O178 1.277 . S
C182 O180 1.245 . S
O183 C157 1.289 . S
O183 Mg160 2.238 . S
O183 Mg161 2.106 . S
O184 Mg161 2.079 . S
O184 C166 1.245 . S
O185 Mg164 2.038 . S
O185 C166 1.274 . S
C186 O198 1.241 . S
C186 O199 1.280 . S
C187 O200 1.277 . S
C187 O201 1.245 . S
C188 O212 1.247 . S
C188 O214 1.289 . S
Mg189 O190 1.926 . S
Mg189 O199 1.984 . S
Mg189 O201 1.988 . S
Mg189 O202 2.061 . S
O190 Mg189 1.926 . S
O190 Mg191 1.986 . S
O190 Mg192 1.917 . S
Mg191 O190 1.986 . S
Mg191 O198 2.042 . S
Mg191 O200 2.041 . S
Mg191 O206 2.038 . S
Mg191 O214 2.238 . S
Mg192 O190 1.917 . S
Mg192 O193 1.917 . S
Mg192 O203 2.106 . S
Mg192 O205 2.079 . S
Mg192 O214 2.106 . S
Mg192 O215 2.079 . S
O193 Mg192 1.917 . S
O193 Mg194 1.926 . S
O193 Mg195 1.986 1_556 S
Mg194 O193 1.926 . S
Mg194 O208 1.984 . S
Mg194 O211 1.988 1_556 S
Mg194 O212 2.061 . S
Mg195 O193 1.986 1_554 S
Mg195 O203 2.238 1_554 S
Mg195 O207 2.042 . S
Mg195 O209 2.041 . S
Mg195 O216 2.038 1_554 S
C196 O202 1.247 1_554 S
C196 O203 1.289 1_554 S
C197 O215 1.245 . S
C197 O216 1.274 . S
O198 C186 1.241 . S
O198 Mg191 2.042 . S
O199 C186 1.280 . S
O199 Mg189 1.984 . S
O200 C187 1.277 . S
O200 Mg191 2.041 . S
O201 C187 1.245 . S
O201 Mg189 1.988 . S
O202 Mg189 2.061 . S
O202 C196 1.247 1_556 S
O203 Mg192 2.106 . S
O203 Mg195 2.238 1_556 S
O203 C196 1.289 1_556 S
C204 O205 1.245 . S
C204 O206 1.274 . S
O205 Mg192 2.079 . S
O205 C204 1.245 . S
O206 Mg191 2.038 . S
O206 C204 1.274 . S
O207 Mg195 2.042 . S
O207 C210 1.241 1_554 S
O208 Mg194 1.984 . S
O208 C210 1.280 . S
O209 Mg195 2.041 . S
O209 C213 1.277 . S
C210 O207 1.241 1_556 S
C210 O208 1.280 . S
O211 Mg194 1.988 1_554 S
O211 C213 1.245 . S
O212 C188 1.247 . S
O212 Mg194 2.061 . S
C213 O209 1.277 . S
C213 O211 1.245 . S
O214 C188 1.289 . S
O214 Mg191 2.238 . S
O214 Mg192 2.106 . S
O215 Mg192 2.079 . S
O215 C197 1.245 . S
O216 Mg195 2.038 1_556 S
O216 C197 1.274 . S
C217 O229 1.241 . S
C217 O230 1.280 . S
C218 O231 1.277 . S
C218 O232 1.245 . S
C219 O243 1.247 . S
C219 O245 1.289 . S
Mg220 O221 1.926 . S
Mg220 O230 1.984 . S
Mg220 O232 1.988 . S
Mg220 O233 2.061 . S
O221 Mg220 1.926 . S
O221 Mg222 1.986 . S
O221 Mg223 1.917 . S
Mg222 O221 1.986 . S
Mg222 O229 2.042 . S
Mg222 O231 2.041 . S
Mg222 O237 2.038 . S
Mg222 O245 2.238 . S
Mg223 O221 1.917 . S
Mg223 O224 1.917 . S
Mg223 O234 2.106 . S
Mg223 O236 2.079 . S
Mg223 O245 2.106 . S
Mg223 O246 2.079 . S
O224 Mg223 1.917 . S
O224 Mg225 1.926 . S
O224 Mg226 1.986 1_556 S
Mg225 O224 1.926 . S
Mg225 O239 1.991 . S
Mg225 O242 1.988 1_556 S
Mg225 O243 2.061 . S
Mg226 O224 1.986 1_554 S
Mg226 O234 2.238 1_554 S
Mg226 O238 2.042 1_565 S
Mg226 O240 2.041 . S
Mg226 O247 2.038 1_554 S
C227 O233 1.247 1_554 S
C227 O234 1.289 1_554 S
C228 O246 1.245 . S
C228 O247 1.274 . S
O229 C217 1.241 . S
O229 Mg222 2.042 . S
O230 C217 1.280 . S
O230 Mg220 1.984 . S
O231 C218 1.277 . S
O231 Mg222 2.041 . S
O232 C218 1.245 . S
O232 Mg220 1.988 . S
O233 Mg220 2.061 . S
O233 C227 1.247 1_556 S
O234 Mg223 2.106 . S
O234 Mg226 2.238 1_556 S
O234 C227 1.289 1_556 S
C235 O236 1.245 . S
C235 O237 1.274 . S
O236 Mg223 2.079 . S
O236 C235 1.245 . S
O237 Mg222 2.038 . S
O237 C235 1.274 . S
O238 Mg226 2.042 1_545 S
O238 C241 1.241 1_554 S
O239 Mg225 1.991 . S
O239 C241 1.274 1_565 S
O240 Mg226 2.041 . S
O240 C244 1.277 . S
C241 O238 1.241 1_556 S
C241 O239 1.274 1_545 S
O242 Mg225 1.988 1_554 S
O242 C244 1.245 . S
O243 C219 1.247 . S
O243 Mg225 2.061 . S
C244 O240 1.277 . S
C244 O242 1.245 . S
O245 C219 1.289 . S
O245 Mg222 2.238 . S
O245 Mg223 2.106 . S
O246 Mg223 2.079 . S
O246 C228 1.245 . S
O247 Mg226 2.038 1_556 S
O247 C228 1.274 . S
C248 O260 1.241 . S
C248 O261 1.280 . S
C249 O262 1.277 . S
C249 O263 1.245 . S
C250 O274 1.247 . S
C250 O276 1.289 . S
Mg251 O252 1.926 . S
Mg251 O261 1.984 . S
Mg251 O263 1.988 . S
Mg251 O264 2.061 . S
O252 Mg251 1.926 . S
O252 Mg253 1.986 . S
O252 Mg254 1.917 . S
Mg253 O252 1.986 . S
Mg253 O260 2.042 . S
Mg253 O262 2.041 . S
Mg253 O268 2.038 . S
Mg253 O276 2.238 . S
Mg254 O252 1.917 . S
Mg254 O255 1.917 . S
Mg254 O265 2.106 . S
Mg254 O267 2.079 . S
Mg254 O276 2.106 . S
Mg254 O277 2.079 . S
O255 Mg254 1.917 . S
O255 Mg256 1.926 . S
O255 Mg257 1.986 1_556 S
Mg256 O255 1.926 . S
Mg256 O270 1.990 . S
Mg256 O273 1.988 1_556 S
Mg256 O274 2.061 . S
Mg257 O255 1.986 1_554 S
Mg257 O265 2.238 1_554 S
Mg257 O269 2.042 1_455 S
Mg257 O271 2.041 . S
Mg257 O278 2.038 1_554 S
C258 O264 1.247 1_554 S
C258 O265 1.289 1_554 S
C259 O277 1.245 . S
C259 O278 1.274 . S
O260 C248 1.241 . S
O260 Mg253 2.042 . S
O261 C248 1.280 . S
O261 Mg251 1.984 . S
O262 C249 1.277 . S
O262 Mg253 2.041 . S
O263 C249 1.245 . S
O263 Mg251 1.988 . S
O264 Mg251 2.061 . S
O264 C258 1.247 1_556 S
O265 Mg254 2.106 . S
O265 Mg257 2.238 1_556 S
O265 C258 1.289 1_556 S
C266 O267 1.245 . S
C266 O268 1.274 . S
O267 Mg254 2.079 . S
O267 C266 1.245 . S
O268 Mg253 2.038 . S
O268 C266 1.274 . S
O269 Mg257 2.042 1_655 S
O269 C272 1.241 1_554 S
O270 Mg256 1.990 . S
O270 C272 1.279 1_455 S
O271 Mg257 2.041 . S
O271 C275 1.277 . S
C272 O269 1.241 1_556 S
C272 O270 1.279 1_655 S
O273 Mg256 1.988 1_554 S
O273 C275 1.245 . S
O274 C250 1.247 . S
O274 Mg256 2.061 . S
C275 O271 1.277 . S
C275 O273 1.245 . S
O276 C250 1.289 . S
O276 Mg253 2.238 . S
O276 Mg254 2.106 . S
O277 Mg254 2.079 . S
O277 C259 1.245 . S
O278 Mg257 2.038 1_556 S
O278 C259 1.274 . S
C279 O291 1.241 . S
C279 O292 1.280 . S
C280 O293 1.277 . S
C280 O294 1.245 . S
C281 O305 1.247 . S
C281 O307 1.289 . S
Mg282 O283 1.926 . S
Mg282 O292 1.984 . S
Mg282 O294 1.988 . S
Mg282 O295 2.061 . S
O283 Mg282 1.926 . S
O283 Mg284 1.986 . S
O283 Mg285 1.917 . S
Mg284 O283 1.986 . S
Mg284 O291 2.042 . S
Mg284 O293 2.041 . S
Mg284 O299 2.038 . S
Mg284 O307 2.238 . S
Mg285 O283 1.917 . S
Mg285 O286 1.917 . S
Mg285 O296 2.106 . S
Mg285 O298 2.079 . S
Mg285 O307 2.106 . S
Mg285 O308 2.079 . S
O286 Mg285 1.917 . S
O286 Mg287 1.926 . S
O286 Mg288 1.986 . S
Mg287 O286 1.926 . S
Mg287 O301 1.984 . S
Mg287 O304 1.988 . S
Mg287 O305 2.061 . S
Mg288 O286 1.986 . S
Mg288 O296 2.238 . S
Mg288 O300 2.042 . S
Mg288 O302 2.041 . S
Mg288 O309 2.038 . S
C289 O295 1.247 . S
C289 O296 1.289 . S
C290 O308 1.245 . S
C290 O309 1.274 . S
O291 C279 1.241 . S
O291 Mg284 2.042 . S
O292 C279 1.280 . S
O292 Mg282 1.984 . S
O293 C280 1.277 . S
O293 Mg284 2.041 . S
O294 C280 1.245 . S
O294 Mg282 1.988 . S
O295 Mg282 2.061 . S
O295 C289 1.247 . S
O296 Mg285 2.106 . S
O296 Mg288 2.238 . S
O296 C289 1.289 . S
C297 O298 1.245 . S
C297 O299 1.274 . S
O298 Mg285 2.079 . S
O298 C297 1.245 . S
O299 Mg284 2.038 . S
O299 C297 1.274 . S
O300 Mg288 2.042 . S
O300 C303 1.241 . S
O301 Mg287 1.984 . S
O301 C303 1.280 . S
O302 Mg288 2.041 . S
O302 C306 1.277 . S
C303 O300 1.241 . S
C303 O301 1.280 . S
O304 Mg287 1.988 . S
O304 C306 1.245 . S
O305 C281 1.247 . S
O305 Mg287 2.061 . S
C306 O302 1.277 . S
C306 O304 1.245 . S
O307 C281 1.289 . S
O307 Mg284 2.238 . S
O307 Mg285 2.106 . S
O308 Mg285 2.079 . S
O308 C290 1.245 . S
O309 Mg288 2.038 . S
O309 C290 1.274 . S
C310 O322 1.241 . S
C310 O323 1.280 . S
C311 O324 1.277 . S
C311 O325 1.245 . S
C312 O336 1.247 . S
C312 O338 1.289 . S
Mg313 O314 1.926 . S
Mg313 O323 1.984 . S
Mg313 O325 1.988 . S
Mg313 O326 2.061 . S
O314 Mg313 1.926 . S
O314 Mg315 1.986 . S
O314 Mg316 1.917 . S
Mg315 O314 1.986 . S
Mg315 O322 2.042 . S
Mg315 O324 2.041 . S
Mg315 O330 2.038 . S
Mg315 O338 2.238 . S
Mg316 O314 1.917 . S
Mg316 O317 1.917 . S
Mg316 O327 2.106 . S
Mg316 O329 2.079 . S
Mg316 O338 2.106 . S
Mg316 O339 2.079 . S
O317 Mg316 1.917 . S
O317 Mg318 1.926 . S
O317 Mg319 1.986 . S
Mg318 O317 1.926 . S
Mg318 O332 1.990 . S
Mg318 O335 1.988 . S
Mg318 O336 2.061 . S
Mg319 O317 1.986 . S
Mg319 O327 2.238 . S
Mg319 O331 2.042 1_545 S
Mg319 O333 2.041 . S
Mg319 O340 2.038 . S
C320 O326 1.247 . S
C320 O327 1.289 . S
C321 O339 1.245 . S
C321 O340 1.274 . S
O322 C310 1.241 . S
O322 Mg315 2.042 . S
O323 C310 1.280 . S
O323 Mg313 1.984 . S
O324 C311 1.277 . S
O324 Mg315 2.041 . S
O325 C311 1.245 . S
O325 Mg313 1.988 . S
O326 Mg313 2.061 . S
O326 C320 1.247 . S
O327 Mg316 2.106 . S
O327 Mg319 2.238 . S
O327 C320 1.289 . S
C328 O329 1.245 . S
C328 O330 1.274 . S
O329 Mg316 2.079 . S
O329 C328 1.245 . S
O330 Mg315 2.038 . S
O330 C328 1.274 . S
O331 Mg319 2.042 1_565 S
O331 C334 1.241 . S
O332 Mg318 1.990 . S
O332 C334 1.279 1_545 S
O333 Mg319 2.041 . S
O333 C337 1.277 . S
C334 O331 1.241 . S
C334 O332 1.279 1_565 S
O335 Mg318 1.988 . S
O335 C337 1.245 . S
O336 C312 1.247 . S
O336 Mg318 2.061 . S
C337 O333 1.277 . S
C337 O335 1.245 . S
O338 C312 1.289 . S
O338 Mg315 2.238 . S
O338 Mg316 2.106 . S
O339 Mg316 2.079 . S
O339 C321 1.245 . S
O340 Mg319 2.038 . S
O340 C321 1.274 . S
C341 O353 1.241 . S
C341 O354 1.280 . S
C342 O355 1.277 . S
C342 O356 1.245 . S
C343 O367 1.247 . S
C343 O369 1.289 . S
Mg344 O345 1.926 . S
Mg344 O354 1.984 . S
Mg344 O356 1.988 . S
Mg344 O357 2.061 . S
O345 Mg344 1.926 . S
O345 Mg346 1.986 . S
O345 Mg347 1.917 . S
Mg346 O345 1.986 . S
Mg346 O353 2.042 . S
Mg346 O355 2.041 . S
Mg346 O361 2.038 . S
Mg346 O369 2.238 . S
Mg347 O345 1.917 . S
Mg347 O348 1.917 . S
Mg347 O358 2.106 . S
Mg347 O360 2.079 . S
Mg347 O369 2.106 . S
Mg347 O370 2.079 . S
O348 Mg347 1.917 . S
O348 Mg349 1.926 . S
O348 Mg350 1.986 . S
Mg349 O348 1.926 . S
Mg349 O363 1.991 . S
Mg349 O366 1.988 . S
Mg349 O367 2.061 . S
Mg350 O348 1.986 . S
Mg350 O358 2.238 . S
Mg350 O362 2.042 1_655 S
Mg350 O364 2.041 . S
Mg350 O371 2.038 . S
C351 O357 1.247 . S
C351 O358 1.289 . S
C352 O370 1.245 . S
C352 O371 1.274 . S
O353 C341 1.241 . S
O353 Mg346 2.042 . S
O354 C341 1.280 . S
O354 Mg344 1.984 . S
O355 C342 1.277 . S
O355 Mg346 2.041 . S
O356 C342 1.245 . S
O356 Mg344 1.988 . S
O357 Mg344 2.061 . S
O357 C351 1.247 . S
O358 Mg347 2.106 . S
O358 Mg350 2.238 . S
O358 C351 1.289 . S
C359 O360 1.245 . S
C359 O361 1.274 . S
O360 Mg347 2.079 . S
O360 C359 1.245 . S
O361 Mg346 2.038 . S
O361 C359 1.274 . S
O362 Mg350 2.042 1_455 S
O362 C365 1.241 . S
O363 Mg349 1.991 . S
O363 C365 1.274 1_655 S
O364 Mg350 2.041 . S
O364 C368 1.277 . S
C365 O362 1.241 . S
C365 O363 1.274 1_455 S
O366 Mg349 1.988 . S
O366 C368 1.245 . S
O367 C343 1.247 . S
O367 Mg349 2.061 . S
C368 O364 1.277 . S
C368 O366 1.245 . S
O369 C343 1.289 . S
O369 Mg346 2.238 . S
O369 Mg347 2.106 . S
O370 Mg347 2.079 . S
O370 C352 1.245 . S
O371 Mg350 2.038 . S
O371 C352 1.274 . S
C24 C42 3.067 . S
C73 C55 3.067 . S
C86 C11 3.067 . S
C166 C117 3.067 . S
C104 C148 3.067 . S
C179 C135 3.067 . S
C186 C235 3.067 . S
C266 C217 3.067 . S
C248 C204 3.067 . S
C279 C359 3.067 . S
C297 C310 3.067 . S
C328 C341 3.067 . S
C210 C0 2.466 1_556 S
C31 C241 2.466 1_564 S
C62 C272 2.466 1_454 S
C93 C303 2.466 . S
C124 C334 2.466 1_545 S
C365 C155 2.466 1_455 S
C1 C281 1.229 . S
C32 C312 1.229 . S
C343 C63 1.229 . S
C188 C94 1.229 . S
C219 C125 1.229 . S
C250 C156 1.229 . S
C103 C213 1.229 . S
C244 C134 1.229 . S
C275 C165 1.229 . S
C10 C306 1.229 . S
C337 C41 1.229 . S
C72 C368 1.229 . S
C111 C18 3.606 . S
C142 C49 3.606 1_565 S
C173 C80 3.606 1_455 S
C197 C290 3.606 . S
C228 C321 3.606 1_565 S
C352 C259 3.606 1_655 S
C311 C2 1.791 . S
C33 C342 1.791 . S
C64 C280 1.791 . S
C95 C249 1.791 . S
C187 C126 1.791 . S
C218 C157 1.791 . S
C196 C151 1.791 . S
C227 C182 1.791 . S
C258 C120 1.791 . S
C89 C289 1.791 . S
C27 C320 1.791 . S
C58 C351 1.791 . S
