# Generated by pormake.
# Topology vby, (6)-cn, num edge types: 1
# Building blocks:
#     Node 0, Type 0, BuildingBlock: PAMTUU_clean_sbu_0, # of connection points: 6
#     Node 1, Type 0, BuildingBlock: PAMTUU_clean_sbu_0, # of connection points: 6
#     Node 2, Type 0, BuildingBlock: PAMTUU_clean_sbu_0, # of connection points: 6
#     Node 3, Type 0, BuildingBlock: PAMTUU_clean_sbu_0, # of connection points: 6
#     Node 4, Type 0, BuildingBlock: PAMTUU_clean_sbu_0, # of connection points: 6
#     Node 5, Type 0, BuildingBlock: PAMTUU_clean_sbu_0, # of connection points: 6
#     Node 6, Type 0, BuildingBlock: PAMTUU_clean_sbu_0, # of connection points: 6
#     Node 7, Type 0, BuildingBlock: PAMTUU_clean_sbu_0, # of connection points: 6
#     Edge 8, Type (0, 0), BuildingBlock: EZIPEK_clean_linker_0, # of connection points: 2
#     Edge 9, Type (0, 0), BuildingBlock: EZIPEK_clean_linker_0, # of connection points: 2
#     Edge 10, Type (0, 0), BuildingBlock: EZIPEK_clean_linker_0, # of connection points: 2
#     Edge 11, Type (0, 0), BuildingBlock: EZIPEK_clean_linker_0, # of connection points: 2
#     Edge 12, Type (0, 0), BuildingBlock: EZIPEK_clean_linker_0, # of connection points: 2
#     Edge 13, Type (0, 0), BuildingBlock: EZIPEK_clean_linker_0, # of connection points: 2
#     Edge 14, Type (0, 0), BuildingBlock: EZIPEK_clean_linker_0, # of connection points: 2
#     Edge 15, Type (0, 0), BuildingBlock: EZIPEK_clean_linker_0, # of connection points: 2
#     Edge 16, Type (0, 0), BuildingBlock: EZIPEK_clean_linker_0, # of connection points: 2
#     Edge 17, Type (0, 0), BuildingBlock: EZIPEK_clean_linker_0, # of connection points: 2
#     Edge 18, Type (0, 0), BuildingBlock: EZIPEK_clean_linker_0, # of connection points: 2
#     Edge 19, Type (0, 0), BuildingBlock: EZIPEK_clean_linker_0, # of connection points: 2
#     Edge 20, Type (0, 0), BuildingBlock: EZIPEK_clean_linker_0, # of connection points: 2
#     Edge 21, Type (0, 0), BuildingBlock: EZIPEK_clean_linker_0, # of connection points: 2
#     Edge 22, Type (0, 0), BuildingBlock: EZIPEK_clean_linker_0, # of connection points: 2
#     Edge 23, Type (0, 0), BuildingBlock: EZIPEK_clean_linker_0, # of connection points: 2
#     Edge 24, Type (0, 0), BuildingBlock: EZIPEK_clean_linker_0, # of connection points: 2
#     Edge 25, Type (0, 0), BuildingBlock: EZIPEK_clean_linker_0, # of connection points: 2
#     Edge 26, Type (0, 0), BuildingBlock: EZIPEK_clean_linker_0, # of connection points: 2
#     Edge 27, Type (0, 0), BuildingBlock: EZIPEK_clean_linker_0, # of connection points: 2
#     Edge 28, Type (0, 0), BuildingBlock: EZIPEK_clean_linker_0, # of connection points: 2
#     Edge 29, Type (0, 0), BuildingBlock: EZIPEK_clean_linker_0, # of connection points: 2
#     Edge 30, Type (0, 0), BuildingBlock: EZIPEK_clean_linker_0, # of connection points: 2
#     Edge 31, Type (0, 0), BuildingBlock: EZIPEK_clean_linker_0, # of connection points: 2
# Relax obj value: 0.145
# Max RMSD: 0.188
# Mean RMSD: 0.188
data_MOF--net-vby--node1-PAMTUU_clean_sbu_0--edge1-EZIPEK_clean_linker_0
_symmetry_space_group_name_H-M    P1
_symmetry_Int_Tables_number       1
_symmetry_cell_setting            triclinic
loop_
_symmetry_equiv_pos_as_xyz
'x, y, z'
_cell_length_a     11.234105
_cell_length_b     89.077185
_cell_length_c     21.899884
_cell_angle_alpha  89.829651
_cell_angle_beta   81.346408
_cell_angle_gamma 89.498537
loop_
_atom_site_label
_atom_site_type_symbol
_atom_site_fract_x
_atom_site_fract_y
_atom_site_fract_z
_atom_type_partial_charge
Tb0 Tb 0.1192 0.37138 0.00348 0.0
Tb1 Tb 0.11128 0.40893 0.01706 0.0
C2 C 0.09917 0.39212 0.8903 0.0
C3 C 0.16707 0.32858 0.00592 0.0
C4 C 0.23894 0.29844 0.01756 0.0
C5 C 0.27009 0.30609 0.96149 0.0
C6 C 0.23393 0.321 0.95562 0.0
C7 C 0.14107 0.32108 0.06295 0.0
C8 C 0.17661 0.3061 0.06865 0.0
C9 C 0.10848 0.3431 -0.00477 0.0
O10 O 0.30806 0.37654 -0.0058 0.0
O11 O 0.29432 0.40146 0.02365 0.0
O12 O 0.05807 0.40041 0.10907 0.0
O13 O 0.14055 0.37661 0.09849 0.0
O14 O 0.17764 0.42915 0.97541 0.0
O15 O 0.0774 0.42879 0.06796 0.0
O16 O 0.92176 0.40403 0.02453 0.0
O17 O 0.93301 0.37855 0.0021 0.0
O18 O 0.14688 0.37997 0.91022 0.0
O19 O 0.0701 0.40392 0.92533 0.0
C20 C 0.35648 0.3891 0.0089 0.0
O21 O 0.05631 0.35077 0.04261 0.0
O22 O 0.16267 0.35177 0.95203 0.0
C23 C 0.09174 0.38784 0.13252 0.0
C24 C 0.08922 0.45249 0.01566 0.0
C25 C 0.05433 0.48386 0.0135 0.0
C26 C 0.99955 0.47536 0.06386 0.0
C27 C 1.01756 0.45982 0.06515 0.0
C28 C 0.13758 0.46096 0.9636 0.0
C29 C 0.12028 0.47652 0.96257 0.0
C30 C 0.13397 0.43705 0.02388 0.0
C31 C 0.87203 0.3912 0.01348 0.0
H32 H 0.31751 0.30029 0.92152 0.0
H33 H 0.2534 0.32635 0.91079 0.0
H34 H 0.08856 0.32653 0.10237 0.0
H35 H 0.1519 0.30032 0.11224 0.0
H36 H 0.94821 0.48086 0.1035 0.0
H37 H 0.98084 0.45371 0.10643 0.0
H38 H 0.19451 0.4557 0.92513 0.0
H39 H 0.16242 0.48293 0.92315 0.0
Tb40 Tb 0.97497 0.62401 0.02008 0.0
Tb41 Tb 0.98133 0.66136 0.02005 0.0
C42 C 1.01185 0.64279 0.89973 0.0
C43 C 1.00089 0.58032 0.02134 0.0
C44 C 1.03242 0.5489 0.0229 0.0
C45 C 0.09015 0.55741 0.97331 0.0
C46 C 0.07386 0.57299 0.97232 0.0
C47 C 0.94909 0.57181 0.07259 0.0
C48 C 0.96472 0.55622 0.07333 0.0
C49 C 0.95811 0.59585 0.01305 0.0
O50 O 0.16747 0.62922 0.00771 0.0
O51 O 0.16447 0.6547 0.03033 0.0
O52 O 0.92885 0.65394 0.11573 0.0
O53 O 1.01882 0.63058 0.10931 0.0
O54 O 0.96917 0.68112 0.969 0.0
O55 O 1.00463 0.68206 0.063 0.0
O56 O 0.79843 0.65559 0.00669 0.0
O57 O 0.7887 0.63141 0.04466 0.0
O58 O 0.94699 0.63228 0.92995 0.0
O59 O 0.06032 0.65334 0.92909 0.0
C60 C 0.22144 0.64179 0.01941 0.0
O61 O 0.91056 0.60366 0.06112 0.0
O62 O 1.017 0.6042 0.96983 0.0
C63 C 0.97967 0.64259 0.14115 0.0
C64 C 0.92275 0.70431 0.02259 0.0
C65 C 0.84685 0.73461 0.02588 0.0
C66 C 0.90052 0.72856 0.07436 0.0
C67 C 0.93814 0.71355 0.07274 0.0
C68 C 0.86375 0.71026 0.9754 0.0
C69 C 0.82547 0.72527 0.97727 0.0
C70 C 0.98816 0.68977 0.01431 0.0
C71 C 0.73738 0.64348 0.02548 0.0
H72 H 0.1429 0.55191 0.93408 0.0
H73 H 0.1131 0.57914 0.93159 0.0
H74 H 0.89095 0.57708 0.11062 0.0
H75 H 0.92028 0.5498 0.11215 0.0
H76 H 0.91713 0.73562 0.11234 0.0
H77 H 0.98481 0.70938 0.10926 0.0
H78 H 0.85214 0.70355 0.93559 0.0
H79 H 0.78399 0.72978 0.93949 0.0
Tb80 Tb 0.11069 0.62388 0.50852 0.0
Tb81 Tb 0.10716 0.66162 0.50974 0.0
C82 C 0.07506 0.64237 0.63151 0.0
C83 C 0.0819 0.58026 0.51428 0.0
C84 C 0.04748 0.54898 0.52251 0.0
C85 C 0.07919 0.55693 0.57275 0.0
C86 C 0.09652 0.57246 0.56867 0.0
C87 C 0.04412 0.5723 0.46528 0.0
C88 C 1.02672 0.5568 0.46944 0.0
C89 C 0.13003 0.59558 0.50316 0.0
O90 O 0.9221 0.62953 0.50663 0.0
O91 O 0.91765 0.65538 0.5224 0.0
O92 O 0.0652 0.65442 0.42133 0.0
O93 O 0.15861 0.63147 0.41341 0.0
O94 O 0.05306 0.68233 0.55197 0.0
O95 O 0.15644 0.68125 0.4601 0.0
O96 O 0.29693 0.65556 0.49351 0.0
O97 O 0.29125 0.63047 0.52062 0.0
O98 O 1.03737 0.63093 0.60194 0.0
O99 O 0.12788 0.65404 0.60233 0.0
C100 C 0.8648 0.64252 0.51444 0.0
O101 O 0.09137 0.60384 0.46094 0.0
O102 O 0.15544 0.60355 0.54928 0.0
C103 C 0.10428 0.64258 0.38915 0.0
C104 C 0.16358 0.70437 0.51447 0.0
C105 C 0.23583 0.73455 0.51927 0.0
C106 C 0.2923 0.72501 0.47261 0.0
C107 C 0.25578 0.71007 0.46988 0.0
C108 C 0.11225 0.71377 0.56299 0.0
C109 C 0.14798 0.72873 0.56533 0.0
C110 C 0.10498 0.68995 0.50436 0.0
C111 C 0.3496 0.64303 0.50723 0.0
H112 H 0.09546 0.55101 0.61404 0.0
H113 H 0.12761 0.57819 0.60679 0.0
H114 H 1.0346 0.5779 0.42228 0.0
H115 H 1.00253 0.55079 0.43021 0.0
H116 H 0.36071 0.72932 0.43684 0.0
H117 H 0.29598 0.70324 0.43127 0.0
H118 H 1.04008 0.70978 0.59749 0.0
H119 H 0.10437 0.73591 0.60201 0.0
Tb120 Tb 0.98047 0.37118 0.52153 0.0
Tb121 Tb 0.97203 0.40937 0.51449 0.0
C122 C 0.98397 0.3922 0.64097 0.0
C123 C 0.93219 0.32796 0.52575 0.0
C124 C 0.85385 0.29797 0.52464 0.0
C125 C 0.9531 0.3017 0.55325 0.0
C126 C 0.99141 0.31655 0.55404 0.0
C127 C 0.83038 0.32435 0.4985 0.0
C128 C 0.79066 0.30945 0.49857 0.0
C129 C 0.99023 0.34279 0.51822 0.0
O130 O 0.79138 0.37693 0.52142 0.0
O131 O 0.78471 0.40299 0.52551 0.0
O132 O 0.949 0.4 0.42609 0.0
O133 O 0.05891 0.37848 0.42987 0.0
O134 O 0.90274 0.43042 0.5456 0.0
O135 O 1.03172 0.42837 0.46154 0.0
O136 O 0.16225 0.40331 0.51367 0.0
O137 O 0.16585 0.37721 0.52129 0.0
O138 O 0.98011 0.37877 0.61602 0.0
O139 O 0.97502 0.40488 0.61115 0.0
C140 C 0.73324 0.38986 0.52421 0.0
O141 O 0.97091 0.35122 0.47197 0.0
O142 O 1.00124 0.35061 0.56719 0.0
C143 C 1.01481 0.38914 0.39864 0.0
C144 C 1.00197 0.4529 0.50573 0.0
C145 C 1.03263 0.48403 0.51712 0.0
C146 C 1.02771 0.47767 0.45916 0.0
C147 C 1.01298 0.46224 0.45354 0.0
C148 C 1.01179 0.45914 0.56365 0.0
C149 C 1.02821 0.47465 0.56918 0.0
C150 C 0.96277 0.43737 0.49837 0.0
C151 C 0.21847 0.39033 0.51853 0.0
H152 H 1.00234 0.29304 0.57402 0.0
H153 H 0.07073 0.31904 0.57475 0.0
H154 H 0.78385 0.33292 0.47575 0.0
H155 H 0.71335 0.30677 0.47656 0.0
H156 H 1.03178 0.48472 0.41852 0.0
H157 H 1.00459 0.45767 0.40858 0.0
H158 H 1.0027 0.45217 0.60466 0.0
H159 H 1.03266 0.47941 0.61422 0.0
Tb160 Tb 0.61577 0.87114 0.00633 0.0
Tb161 Tb 0.61471 0.90888 0.01365 0.0
C162 C 0.60173 0.89164 0.89005 0.0
C163 C 0.65684 0.82807 0.00277 0.0
C164 C 0.73291 0.79814 0.01529 0.0
C165 C 0.69459 0.80299 0.96048 0.0
C166 C 0.65744 0.81781 0.95425 0.0
C167 C 0.69861 0.8234 0.05725 0.0
C168 C 0.73757 0.80852 0.06322 0.0
C169 C 0.60214 0.84296 -0.00431 0.0
O170 O 0.80219 0.87553 0.01338 0.0
O171 O 0.80196 0.90146 0.00457 0.0
O172 O 0.5547 0.90059 0.10606 0.0
O173 O 0.6359 0.87672 0.10048 0.0
O174 O 0.66367 0.92954 0.97087 0.0
O175 O 0.60034 0.92821 0.06924 0.0
O176 O 0.42607 0.90461 0.01075 0.0
O177 O 0.42727 0.87847 0.01385 0.0
O178 O 0.64799 0.8796 0.91215 0.0
O179 O 0.5739 0.90378 0.92289 0.0
C180 C 0.85688 0.88853 0.00938 0.0
O181 O 0.55478 0.85037 0.04479 0.0
O182 O 0.65643 0.85173 0.95286 0.0
C183 C 0.58792 0.88832 0.13212 0.0
C184 C 0.59571 0.95241 0.02286 0.0
C185 C 0.55388 0.98354 0.01871 0.0
C186 C 0.59445 0.97704 0.07019 0.0
C187 C 0.61451 0.96161 0.07235 0.0
C188 C 0.55101 0.95881 0.97199 0.0
C189 C 0.52884 0.97431 0.9703 0.0
C190 C 0.64084 0.93686 0.02285 0.0
C191 C 0.37166 0.89155 0.01217 0.0
H192 H 0.69151 0.7952 0.92284 0.0
H193 H 0.62559 0.82118 0.9119 0.0
H194 H 0.69884 0.83112 0.09538 0.0
H195 H 0.76784 0.80496 0.10571 0.0
H196 H 0.61314 0.98398 0.10813 0.0
H197 H 0.64994 0.95692 0.11174 0.0
H198 H 0.53689 0.95197 0.93295 0.0
H199 H 0.49671 0.97919 0.93038 0.0
Tb200 Tb 0.48652 0.12437 0.01995 0.0
Tb201 Tb 0.48451 0.16165 0.01723 0.0
C202 C 0.51522 0.14238 0.89778 0.0
C203 C 0.49752 0.07988 0.02026 0.0
C204 C 0.51533 0.04842 0.01858 0.0
C205 C 0.48161 0.05618 0.96792 0.0
C206 C 0.47426 0.07184 0.96843 0.0
C207 C 0.53046 0.07215 0.0711 0.0
C208 C 0.54117 0.05651 0.0699 0.0
C209 C 0.49343 0.09633 0.02011 0.0
O210 O 0.67592 0.13051 0.00274 0.0
O211 O 0.66834 0.15571 0.02841 0.0
O212 O 0.42924 0.15457 0.11319 0.0
O213 O 0.53124 0.13214 0.10748 0.0
O214 O 0.47168 0.18104 0.96374 0.0
O215 O 0.50335 0.18268 0.0583 0.0
O216 O 0.30211 0.1554 0.00588 0.0
O217 O 0.29642 0.13065 0.03882 0.0
O218 O 0.45661 0.13148 0.92872 0.0
O219 O 0.56096 0.15335 0.92619 0.0
C220 C 0.72814 0.14308 0.01521 0.0
O221 O 0.44232 0.1041 0.06753 0.0
O222 O 0.53831 0.10429 0.97224 0.0
C223 C 0.48376 0.14371 0.13947 0.0
C224 C 0.42524 0.20459 0.01321 0.0
C225 C 0.34644 0.23473 0.02017 0.0
C226 C 0.33698 0.22587 0.07388 0.0
C227 C 0.37702 0.2109 0.07054 0.0
C228 C 0.42952 0.21334 0.9595 0.0
C229 C 0.391 0.22828 0.96294 0.0
C230 C 0.48926 0.18999 0.00831 0.0
C231 C 0.2437 0.14293 0.02206 0.0
H232 H 0.46231 0.0501 0.92782 0.0
H233 H 0.4498 0.07767 0.92856 0.0
H234 H 0.55024 0.07822 0.11114 0.0
H235 H 0.5682 0.05069 0.10916 0.0
H236 H 0.30269 0.23072 0.11845 0.0
H237 H 0.37408 0.20449 0.11283 0.0
H238 H 0.46785 0.20881 0.9149 0.0
H239 H 0.39875 0.23494 0.92107 0.0
Tb240 Tb 0.60879 0.12419 0.5073 0.0
Tb241 Tb 0.6042 0.16195 0.50866 0.0
C242 C 0.57087 0.14273 0.63 0.0
C243 C 0.59731 0.0801 0.50587 0.0
C244 C 0.55919 0.04889 0.51637 0.0
C245 C 0.49504 0.0588 0.55968 0.0
C246 C 0.51526 0.07434 0.55496 0.0
C247 C 0.657 0.07022 0.46152 0.0
C248 C 0.63889 0.05478 0.4669 0.0
C249 C 0.63348 0.09597 0.50141 0.0
O250 O 0.42062 0.12972 0.50248 0.0
O251 O 0.41477 0.15542 0.52215 0.0
O252 O 0.55871 0.15464 0.42127 0.0
O253 O 0.65872 0.13215 0.41267 0.0
O254 O 0.54938 0.18266 0.55081 0.0
O255 O 0.65432 0.18166 0.45908 0.0
O256 O 0.79394 0.15569 0.48979 0.0
O257 O 0.78687 0.13107 0.52329 0.0
O258 O 0.53349 0.1313 0.60024 0.0
O259 O 0.62451 0.15439 0.60119 0.0
C260 C 0.36241 0.14263 0.51225 0.0
O261 O 0.60634 0.10419 0.4562 0.0
O262 O 0.63907 0.10372 0.55124 0.0
C263 C 0.60184 0.14305 0.38852 0.0
C264 C 0.64315 0.20539 0.5095 0.0
C265 C 0.72394 0.23508 0.51688 0.0
C266 C 0.61876 0.23211 0.49209 0.0
C267 C 0.5791 0.21741 0.4883 0.0
C268 C 0.74912 0.20822 0.53421 0.0
C269 C 0.78966 0.22305 0.53767 0.0
C270 C 0.59687 0.19022 0.50214 0.0
C271 C 0.84613 0.14343 0.50687 0.0
H272 H 0.43229 0.05445 0.59791 0.0
H273 H 0.46878 0.08177 0.58992 0.0
H274 H 0.72092 0.07444 0.42344 0.0
H275 H 0.68815 0.04738 0.43269 0.0
H276 H 0.56769 0.24119 0.47526 0.0
H277 H 0.49808 0.2154 0.46832 0.0
H278 H 0.80027 0.19905 0.55031 0.0
H279 H 0.87155 0.22516 0.55666 0.0
Tb280 Tb 0.48186 0.87072 0.52663 0.0
Tb281 Tb 0.47105 0.90871 0.51732 0.0
C282 C 0.48273 0.89191 0.64252 0.0
C283 C 0.42162 0.82811 0.52759 0.0
C284 C 0.346 0.79811 0.52108 0.0
C285 C 0.29327 0.80746 0.56939 0.0
C286 C 0.33164 0.8223 0.57299 0.0
C287 C 0.46854 0.81895 0.47731 0.0
C288 C 0.43126 0.80408 0.47417 0.0
C289 C 0.48201 0.84242 0.53784 0.0
O290 O 0.29243 0.87656 0.52535 0.0
O291 O 0.28757 0.90247 0.5141 0.0
O292 O 0.45803 0.90006 0.42588 0.0
O293 O 0.53333 0.87597 0.42993 0.0
O294 O 0.39741 0.92945 0.55008 0.0
O295 O 0.53526 0.92828 0.46969 0.0
O296 O 0.66043 0.90302 0.52025 0.0
O297 O 0.66829 0.87689 0.52234 0.0
O298 O 0.5213 0.87953 0.61349 0.0
O299 O 0.43528 0.90306 0.61501 0.0
C300 C 0.23545 0.88936 0.51957 0.0
O301 O 0.53617 0.84959 0.48974 0.0
O302 O 0.43027 0.85158 0.58032 0.0
C303 C 0.50458 0.88774 0.39915 0.0
C304 C 0.50093 0.95239 0.51916 0.0
C305 C 0.5307 0.98378 0.52438 0.0
C306 C 0.60559 0.97516 0.48047 0.0
C307 C 0.59001 0.95961 0.47747 0.0
C308 C 0.43148 0.96098 0.5655 0.0
C309 C 0.44607 0.97653 0.56797 0.0
C310 C 0.46295 0.93697 0.50638 0.0
C311 C 0.71934 0.89012 0.52026 0.0
H312 H 0.2269 0.80303 0.60586 0.0
H313 H 0.29484 0.82896 0.61278 0.0
H314 H 0.53874 0.82302 0.44192 0.0
H315 H 0.47204 0.79706 0.43625 0.0
H316 H 0.67169 0.98057 0.44656 0.0
H317 H 0.64338 0.95339 0.44048 0.0
H318 H 0.36099 0.95583 0.59778 0.0
H319 H 0.38825 0.98299 0.6025 0.0
C320 C 0.54305 0.37908 0.04636 0.0
C321 C 0.48854 0.38953 0.00968 0.0
C322 C 0.68527 0.40116 0.97521 0.0
C323 C 0.73974 0.39081 0.0125 0.0
N324 N 0.7188 0.37162 0.0914 0.0
N325 N 0.50785 0.40896 0.93186 0.0
C326 C 0.66844 0.38006 0.04943 0.0
C327 C 0.5594 0.40032 0.97289 0.0
N328 N 0.47465 0.36824 0.07885 0.0
N329 N 0.75407 0.41175 0.9414 0.0
H330 H 0.41772 0.40817 0.9261 0.0
H331 H 0.55501 0.41613 0.89953 0.0
H332 H 0.84762 0.4114 0.93328 0.0
H333 H 0.71917 0.42124 0.92247 0.0
H334 H 0.51043 0.35873 0.09727 0.0
H335 H 0.38091 0.36833 0.08566 0.0
H336 H 0.67084 0.36453 0.12384 0.0
H337 H 0.80804 0.37263 0.0982 0.0
C338 C 0.39802 0.64132 0.07806 0.0
C339 C 0.35398 0.64155 0.0205 0.0
C340 C 0.562 0.64261 0.96568 0.0
C341 C 0.60522 0.64315 0.02357 0.0
N342 N 0.56588 0.64499 0.13448 0.0
N343 N 0.39006 0.64205 0.90946 0.0
C344 C 0.52353 0.643 0.07966 0.0
C345 C 0.43514 0.64212 0.96418 0.0
N346 N 0.31997 0.63882 0.13114 0.0
N347 N 0.64298 0.64252 0.91234 0.0
H348 H 0.29811 0.64187 0.90715 0.0
H349 H 0.44147 0.64219 0.86591 0.0
H350 H 0.73568 0.64233 0.91199 0.0
H351 H 0.62083 0.64248 0.868 0.0
H352 H 0.34595 0.63711 0.17428 0.0
H353 H 0.22872 0.63705 0.13116 0.0
H354 H 0.51087 0.64674 0.17653 0.0
H355 H 0.65719 0.64607 0.13753 0.0
C356 C 0.68852 0.64784 0.45835 0.0
C357 C 0.73283 0.64281 0.51265 0.0
C358 C 0.52601 0.63868 0.56395 0.0
C359 C 0.48171 0.64302 0.50887 0.0
N360 N 0.51764 0.65159 0.40327 0.0
N361 N 0.69708 0.63153 0.61377 0.0
C362 C 0.56233 0.64759 0.45592 0.0
C363 C 0.65242 0.63761 0.56434 0.0
N364 N 0.76816 0.65224 0.40822 0.0
N365 N 0.44708 0.6366 0.61721 0.0
H366 H 0.78854 0.63138 0.61746 0.0
H367 H 0.64477 0.62574 0.64932 0.0
H368 H 0.35452 0.63819 0.61985 0.0
H369 H 0.47313 0.63479 0.66028 0.0
H370 H 0.74629 0.65508 0.36524 0.0
H371 H 0.85985 0.65284 0.4089 0.0
H372 H 0.56724 0.65644 0.3645 0.0
H373 H 0.4282 0.65002 0.39753 0.0
C374 C 0.55721 0.39419 0.46799 0.0
C375 C 0.60145 0.3898 0.52293 0.0
C376 C 0.39497 0.38534 0.5746 0.0
C377 C 0.35041 0.39025 0.52023 0.0
N378 N 0.38548 0.39935 0.41552 0.0
N379 N 0.56791 0.3805 0.62725 0.0
C380 C 0.43072 0.39474 0.46713 0.0
C381 C 0.52162 0.38517 0.57596 0.0
N382 N 0.63692 0.39697 0.41557 0.0
N383 N 0.31547 0.38121 0.62535 0.0
H384 H 0.65953 0.38083 0.6303 0.0
H385 H 0.51802 0.37594 0.66662 0.0
H386 H 0.22299 0.38072 0.6255 0.0
H387 H 0.33845 0.37863 0.66838 0.0
H388 H 0.61285 0.39891 0.37222 0.0
H389 H 0.72985 0.39639 0.41411 0.0
H390 H 0.43544 0.40462 0.37781 0.0
H391 H 0.2952 0.39821 0.41083 0.0
C392 C 1.03484 0.88631 0.06631 0.0
C393 C 0.98878 0.88889 0.01011 0.0
C394 C 0.19175 0.89458 0.95692 0.0
C395 C 0.23913 0.89135 0.01223 0.0
N396 N 0.20935 0.88515 0.12045 0.0
N397 N 1.02126 0.8937 0.90063 0.0
C398 C 0.16147 0.88739 0.06719 0.0
C399 C 0.0667 0.89261 0.95512 0.0
N400 N 0.95661 0.88307 0.11878 0.0
N401 N 0.26608 0.89988 0.90645 0.0
H402 H 0.93007 0.89245 0.89764 0.0
H403 H 0.07388 0.89471 0.85752 0.0
H404 H 0.35775 0.90138 0.90586 0.0
H405 H 0.23683 0.90387 0.86653 0.0
H406 H 0.98121 0.88097 0.16185 0.0
H407 H 0.86374 0.88253 0.11981 0.0
H408 H 0.16091 0.88201 0.16264 0.0
H409 H 0.30031 0.8867 0.1231 0.0
C410 C 0.06723 0.1367 0.96821 0.0
C411 C 0.11184 0.14271 0.02041 0.0
C412 C 0.90537 0.14767 0.07074 0.0
C413 C 0.86054 0.14285 0.01673 0.0
N414 N 0.89825 0.13419 0.91132 0.0
N415 N 0.07595 0.15591 0.1174 0.0
C416 C 0.94141 0.13763 0.96475 0.0
C417 C 1.03158 0.14885 0.07035 0.0
N418 N 0.14576 0.13029 0.92162 0.0
N419 N 0.82744 0.15016 0.12394 0.0
H420 H 0.16765 0.15638 0.12036 0.0
H421 H 1.02272 0.16226 0.15105 0.0
H422 H 0.7355 0.14839 0.12701 0.0
H423 H 0.8544 0.15229 0.1665 0.0
H424 H 0.12022 0.12457 0.88444 0.0
H425 H 0.23833 0.12999 0.92154 0.0
H426 H 0.95138 0.13089 0.8705 0.0
H427 H 0.80845 0.13572 0.90584 0.0
C428 C 0.18573 0.14581 0.45424 0.0
C429 C 0.23006 0.14293 0.51084 0.0
C430 C 1.02255 0.14148 0.56531 0.0
C431 C 0.97837 0.14347 0.5082 0.0
N432 N 1.01472 0.14665 0.39772 0.0
N433 N 0.19357 0.13672 0.61903 0.0
C434 C 0.05929 0.14544 0.45244 0.0
C435 C 0.14911 0.14037 0.56603 0.0
N436 N 0.26517 0.14892 0.40228 0.0
N437 N 0.94332 0.14144 0.61924 0.0
H438 H 0.2854 0.1365 0.62191 0.0
H439 H 0.14073 0.133 0.65925 0.0
H440 H 0.8507 0.14273 0.62066 0.0
H441 H 0.9688 0.14141 0.66298 0.0
H442 H 0.24217 0.1516 0.35935 0.0
H443 H 0.3571 0.14943 0.40246 0.0
H444 H 0.06672 0.14768 0.35453 0.0
H445 H 0.92329 0.14596 0.39451 0.0
C446 C 0.8992 0.89475 0.57338 0.0
C447 C 0.85181 0.89029 0.51965 0.0
C448 C 0.05599 0.88477 0.46637 0.0
C449 C 0.10322 0.88924 0.52006 0.0
N450 N 0.07462 0.89802 0.62519 0.0
N451 N 0.88116 0.88207 0.41375 0.0
C452 C 1.026 0.89422 0.57365 0.0
C453 C 0.92922 0.88543 0.46591 0.0
N454 N 0.82185 0.89928 0.62428 0.0
N455 N 0.13335 0.88002 0.41577 0.0
H456 H 0.78914 0.88269 0.41159 0.0
H457 H 0.93105 0.87928 0.37139 0.0
H458 H 0.22639 0.8807 0.41316 0.0
H459 H 0.10743 0.87518 0.37676 0.0
H460 H 0.84699 0.90348 0.66459 0.0
H461 H 0.7291 0.89891 0.62607 0.0
H462 H 1.02565 0.90142 0.66695 0.0
H463 H 0.16673 0.89747 0.62718 0.0
C464 C 0.11615 0.52438 0.05507 0.0
C465 C 1.0378 0.53222 0.02072 0.0
C466 C 0.97015 0.50839 0.98161 0.0
C467 C 0.04893 0.50054 0.01568 0.0
N468 N 0.19112 0.50046 0.08799 0.0
N469 N 0.89778 0.53229 0.9473 0.0
C470 C 0.1204 0.50839 0.05333 0.0
C471 C 0.96685 0.52437 0.98284 0.0
N472 N 0.19055 0.53233 0.0869 0.0
N473 N 0.89427 0.50046 0.9506 0.0
H474 H 0.8861 0.5439 0.95013 0.0
H475 H 0.85603 0.52756 0.91276 0.0
H476 H 0.89444 0.48876 0.94862 0.0
H477 H 0.82566 0.50524 0.92986 0.0
H478 H 0.25815 0.5276 0.10852 0.0
H479 H 0.18964 0.54403 0.08918 0.0
H480 H 0.23424 0.50512 0.12213 0.0
H481 H 0.20382 0.48887 0.08449 0.0
C482 C 0.14711 0.5081 0.50028 0.0
C483 C 1.03803 0.50064 0.52257 0.0
C484 C 0.93584 0.5249 0.54743 0.0
C485 C 0.04433 0.53231 0.5237 0.0
N486 N 0.24873 0.53155 0.47082 0.0
N487 N 0.83007 0.50134 0.57029 0.0
C488 C 0.14893 0.52406 0.49844 0.0
C489 C 0.93268 0.50889 0.54714 0.0
N490 N 0.24999 0.49985 0.48305 0.0
N491 N 0.83488 0.53327 0.56765 0.0
H492 H 0.82215 0.48972 0.56749 0.0
H493 H 0.75295 0.50633 0.59412 0.0
H494 H 0.83494 0.54498 0.56911 0.0
H495 H 0.74946 0.5289 0.58093 0.0
H496 H 0.33532 0.50445 0.47214 0.0
H497 H 0.25203 0.48814 0.48404 0.0
H498 H 0.32251 0.52636 0.4446 0.0
H499 H 0.2555 0.54322 0.47077 0.0
C500 C 0.62614 1.00866 0.97617 0.0
C501 C 0.54046 1.00013 0.01599 0.0
C502 C 0.43788 0.02323 0.0572 0.0
C503 C 0.52384 0.03177 0.01762 0.0
N504 N 0.70919 0.03316 0.94629 0.0
N505 N 0.35698 0.99871 0.08846 0.0
C506 C 0.61987 0.02462 0.97837 0.0
C507 C 0.4447 1.00727 0.05531 0.0
N508 N 0.71319 1.00146 0.93607 0.0
N509 N 0.35075 0.03043 0.09727 0.0
H510 H 0.35788 0.987 0.08735 0.0
H511 H 0.27858 1.00299 0.11393 0.0
H512 H 0.33548 0.04198 0.09626 0.0
H513 H 0.29623 0.02518 0.13352 0.0
H514 H 0.7683 1.00675 0.90013 0.0
H515 H 0.72723 0.98988 0.93642 0.0
H516 H 0.78822 0.02882 0.9216 0.0
H517 H 0.70915 0.04486 0.94767 0.0
C518 C 0.4886 0.02458 0.47685 0.0
C519 C 0.54458 0.03227 0.52153 0.0
C520 C 0.58971 1.00816 0.56888 0.0
C521 C 0.53628 1.0005 0.52322 0.0
N522 N 0.44536 1.00096 0.43014 0.0
N523 N 0.63921 0.03187 0.61337 0.0
C524 C 0.48866 1.0086 0.47618 0.0
C525 C 0.59212 0.02418 0.56868 0.0
N526 N 0.42965 0.03266 0.4371 0.0
N527 N 0.64454 1.00002 0.61007 0.0
H528 H 0.65203 0.04344 0.61208 0.0
H529 H 0.66125 0.02701 0.65346 0.0
H530 H 0.64591 0.98831 0.61098 0.0
H531 H 0.69528 1.00462 0.64117 0.0
H532 H 0.37677 0.02792 0.40725 0.0
H533 H 0.42498 0.04436 0.43726 0.0
H534 H 0.426 1.00595 0.38972 0.0
H535 H 0.43445 0.98935 0.43044 0.0
C536 C 0.18614 0.27179 -0.0032 0.0
C537 C 0.26325 0.28206 0.02106 0.0
C538 C 0.39274 0.26132 0.04606 0.0
C539 C 0.31426 0.25098 0.02337 0.0
N540 N 0.13477 0.24576 0.97963 0.0
N541 N 0.42927 0.28689 0.07596 0.0
C542 C 0.2103 0.25607 -0.00063 0.0
C543 C 0.3632 0.27689 0.04801 0.0
N544 N 0.08908 0.27718 0.97217 0.0
N545 N 0.49916 0.25632 0.06239 0.0
H546 H 0.41457 0.29847 0.07535 0.0
H547 H 0.49352 0.28375 0.10328 0.0
H548 H 0.52471 0.24504 0.06149 0.0
H549 H 0.5669 0.26338 0.07247 0.0
H550 H 1.03084 0.27066 0.95109 0.0
H551 H 0.0658 0.28854 0.97214 0.0
H552 H 0.05708 0.24835 0.96128 0.0
H553 H 0.14761 0.2342 0.98321 0.0
C554 C 0.68596 0.77233 0.05966 0.0
C555 C 0.76575 0.78202 0.02171 0.0
C556 C 0.8981 0.76066 0.98661 0.0
C557 C 0.81876 0.75097 0.02468 0.0
N558 N 0.63382 0.74682 0.09345 0.0
N559 N 0.95546 0.78618 0.95674 0.0
C560 C 0.7123 0.75663 0.06073 0.0
C561 C 0.87376 0.77637 0.98704 0.0
N562 N 0.58519 0.77821 0.09465 0.0
N563 N 0.99537 0.75474 0.94894 0.0
H564 H 0.94136 0.79777 0.95676 0.0
H565 H 1.04124 0.78313 0.93542 0.0
H566 H 1.02064 0.74346 0.94996 0.0
H567 H 0.04783 0.76072 0.91409 0.0
H568 H 0.52899 0.7723 0.12819 0.0
H569 H 0.55855 0.78939 0.09193 0.0
H570 H 0.54959 0.74974 0.11702 0.0
H571 H 0.65032 0.73529 0.09499 0.0
C572 C 0.22193 0.76061 0.47592 0.0
C573 C 0.26542 0.75081 0.51915 0.0
C574 C 0.36159 0.77199 0.5637 0.0
C575 C 0.31699 0.78181 0.52089 0.0
N576 N 0.19278 0.78621 0.44197 0.0
N577 N 0.38813 0.74639 0.59864 0.0
C578 C 0.2448 0.77629 0.47811 0.0
C579 C 0.33751 0.75632 0.56198 0.0
N580 N 0.16017 0.75484 0.43217 0.0
N581 N 0.42598 0.77771 0.60646 0.0
H582 H 0.37335 0.73485 0.59818 0.0
H583 H 0.45086 0.74924 0.62691 0.0
H584 H 0.45447 0.78882 0.60602 0.0
H585 H 0.44766 0.77174 0.64419 0.0
H586 H 0.14007 0.76085 0.39416 0.0
H587 H 0.13358 0.74366 0.43176 0.0
H588 H 0.12928 0.78329 0.41421 0.0
H589 H 0.20655 0.79777 0.44274 0.0
C590 C 0.84136 0.27392 0.46522 0.0
C591 C 0.81843 0.2819 0.52204 0.0
C592 C 0.74319 0.25886 0.5764 0.0
C593 C 0.76406 0.25095 0.51956 0.0
N594 N 0.84588 0.24998 0.41151 0.0
N595 N 0.73187 0.28286 0.6295 0.0
C596 C 0.8159 0.25826 0.46424 0.0
C597 C 0.76601 0.27456 0.57717 0.0
N598 N 0.88631 0.28141 0.41218 0.0
N599 N 0.70299 0.25127 0.62984 0.0
H600 H 0.7448 0.29442 0.63151 0.0
H601 H 0.68228 0.27867 0.66977 0.0
H602 H 0.67882 0.23999 0.63084 0.0
H603 H 0.70036 0.25579 0.67377 0.0
H604 H 0.89185 0.27695 0.36804 0.0
H605 H 0.91436 0.29254 0.41162 0.0
H606 H 0.89268 0.25408 0.3704 0.0
H607 H 0.83058 0.23847 0.40958 0.0
C608 C 0.99993 0.37661 0.23406 0.0
C609 C 0.0802 0.38701 0.2006 0.0
C610 C 0.11403 0.39908 0.29686 0.0
C611 C 1.03587 0.38853 0.33052 0.0
N612 N 0.8912 0.36866 0.33344 0.0
N613 N 0.23123 0.40612 0.19905 0.0
C614 C 0.97604 0.37754 0.29975 0.0
C615 C 0.14176 0.39773 0.23174 0.0
N616 N 0.94699 0.36587 0.20285 0.0
N617 N 0.15886 0.41067 0.32704 0.0
H618 H 0.25658 0.40512 0.15142 0.0
H619 H 0.28835 0.41304 0.21927 0.0
H620 H 0.14371 0.41181 0.37485 0.0
H621 H 0.2039 0.41979 0.30485 0.0
H622 H 0.89453 0.35718 0.22365 0.0
H623 H 0.95998 0.36512 0.1549 0.0
H624 H 0.83631 0.36119 0.31462 0.0
H625 H 0.86965 0.36934 0.38138 0.0
C626 C 0.95627 0.63198 0.24896 0.0
C627 C 1.00206 0.64341 0.20664 0.0
C628 C 0.12819 0.65262 0.28124 0.0
C629 C 0.07816 0.64171 0.32455 0.0
N630 N 0.93367 0.6221 0.35331 0.0
N631 N 0.12027 0.6659 0.18549 0.0
C632 C 0.98981 0.6316 0.30925 0.0
C633 C 0.08362 0.6542 0.22399 0.0
N634 N 0.8804 0.62144 0.23135 0.0
N635 N 0.22331 0.66098 0.29368 0.0
H636 H 0.09971 0.66685 0.14102 0.0
H637 H 0.16546 0.6752 0.19889 0.0
H638 H 0.25946 0.65992 0.33469 0.0
H639 H 0.27391 0.66789 0.26147 0.0
H640 H 0.85687 0.61163 0.25601 0.0
H641 H 0.84391 0.62222 0.19036 0.0
H642 H 0.85741 0.61594 0.34841 0.0
H643 H 0.95906 0.62096 0.39678 0.0
C644 C 0.96635 0.65346 0.79943 0.0
C645 C 1.02898 0.64276 0.83113 0.0
C646 C 0.11573 0.63114 0.73236 0.0
C647 C 0.05683 0.64223 0.70038 0.0
N648 N 0.92879 0.66414 0.70184 0.0
N649 N 0.16695 0.62191 0.83016 0.0
C650 C 0.98316 0.65347 0.73356 0.0
C651 C 0.10417 0.63166 0.79819 0.0
N652 N 0.88648 0.66316 0.83263 0.0
N653 N 0.18363 0.6202 0.69954 0.0
H654 H 0.16035 0.622 0.87815 0.0
H655 H 0.22995 0.6141 0.81006 0.0
H656 H 0.19979 0.6199 0.65148 0.0
H657 H 0.22213 0.61105 0.71899 0.0
H658 H 0.82716 0.67012 0.81347 0.0
H659 H 0.87366 0.66368 0.88072 0.0
H660 H 0.88701 0.67378 0.72181 0.0
H661 H 0.92847 0.66369 0.65431 0.0
C662 C 0.10188 0.40244 0.72134 0.0
C663 C 1.00856 0.39303 0.70583 0.0
C664 C 0.98583 0.38186 0.8093 0.0
C665 C 0.07069 0.39222 0.82645 0.0
N666 N 0.19989 0.41354 0.80134 0.0
N667 N 0.84311 0.37646 0.74013 0.0
C668 C 0.12452 0.40298 0.78343 0.0
C669 C 0.94562 0.38345 0.75121 0.0
N670 N 0.17556 0.41002 0.67635 0.0
N671 N 0.94304 0.37044 0.84811 0.0
H672 H 0.80703 0.37794 0.69938 0.0
H673 H 0.78638 0.37058 0.77377 0.0
H674 H 0.96299 0.36915 0.89263 0.0
H675 H 0.89453 0.36147 0.83427 0.0
H676 H 0.25308 0.41556 0.68411 0.0
H677 H 0.16886 0.4095 0.62966 0.0
H678 H 0.22762 0.42297 0.77491 0.0
H679 H 0.22966 0.41339 0.84419 0.0
C680 C 0.49255 0.87671 0.23185 0.0
C681 C 0.57005 0.88769 0.20038 0.0
C682 C 0.60812 0.89822 0.29898 0.0
C683 C 0.52998 0.88732 0.33073 0.0
N684 N 0.39785 0.86612 0.3295 0.0
N685 N 0.71585 0.90735 0.2016 0.0
C686 C 0.47346 0.87639 0.2977 0.0
C687 C 0.63089 0.89813 0.23331 0.0
N688 N 0.43681 0.86669 0.19842 0.0
N689 N 0.66143 0.9086 0.33186 0.0
H690 H 0.73747 0.90734 0.1536 0.0
H691 H 0.77203 0.9143 0.22221 0.0
H692 H 0.66024 0.90793 0.37948 0.0
H693 H 0.70451 0.91817 0.3127 0.0
H694 H 0.38601 0.85762 0.2168 0.0
H695 H 0.44158 0.86724 0.1506 0.0
H696 H 0.34594 0.85848 0.30963 0.0
H697 H 0.38382 0.86519 0.3774 0.0
C698 C 0.56949 0.15613 0.22706 0.0
C699 C 0.50036 0.14443 0.20596 0.0
C700 C 0.49794 0.13141 0.30569 0.0
C701 C 0.5777 0.14232 0.32356 0.0
N702 N 0.70688 0.16345 0.29687 0.0
N703 N 0.39928 0.12072 0.2248 0.0
C704 C 0.61759 0.15427 0.28311 0.0
C705 C 0.46516 0.13199 0.24524 0.0
N706 N 0.59104 0.16902 0.1935 0.0
N707 N 0.44794 0.12099 0.34758 0.0
H708 H 0.36142 0.12154 0.18423 0.0
H709 H 0.38536 0.11037 0.24682 0.0
H710 H 0.47076 0.12 0.39168 0.0
H711 H 0.37751 0.114 0.34055 0.0
H712 H 0.62646 0.17863 0.21058 0.0
H713 H 0.56673 0.17054 0.15009 0.0
H714 H 0.75029 0.17129 0.26609 0.0
H715 H 0.74664 0.16214 0.3367 0.0
C716 C 0.46369 0.15308 0.7987 0.0
C717 C 0.52866 0.14238 0.82926 0.0
C718 C 0.61688 0.13149 0.72938 0.0
C719 C 0.55356 0.14235 0.69867 0.0
N720 N 0.42135 0.16389 0.70204 0.0
N721 N 0.65457 0.12027 0.82599 0.0
C722 C 0.47831 0.15328 0.73284 0.0
C723 C 0.60155 0.13125 0.79518 0.0
N724 N 0.38249 0.16243 0.83301 0.0
N725 N 0.69703 0.12196 0.69542 0.0
H726 H 0.65161 0.12021 0.87376 0.0
H727 H 0.6964 0.11074 0.80515 0.0
H728 H 0.71018 0.12165 0.64733 0.0
H729 H 0.75705 0.11498 0.71404 0.0
H730 H 0.32304 0.16954 0.81467 0.0
H731 H 0.36814 0.16244 0.88115 0.0
H732 H 0.3774 0.17331 0.72272 0.0
H733 H 0.42133 0.16362 0.65444 0.0
C734 C 0.56657 0.90484 0.72919 0.0
C735 C 0.49745 0.89305 0.70876 0.0
C736 C 0.4897 0.88065 0.80978 0.0
C737 C 0.57226 0.89137 0.82638 0.0
N738 N 0.70716 0.91188 0.79749 0.0
N739 N 0.38961 0.86984 0.7299 0.0
C740 C 0.61485 0.90304 0.78506 0.0
C741 C 0.45838 0.88096 0.74922 0.0
N742 N 0.58793 0.91774 0.6955 0.0
N743 N 0.43568 0.87071 0.85283 0.0
H744 H 0.35042 0.87068 0.68974 0.0
H745 H 0.37408 0.8596 0.75263 0.0
H746 H 0.45465 0.87006 0.89781 0.0
H747 H 0.3644 0.86385 0.84592 0.0
H748 H 0.62439 0.92728 0.71264 0.0
H749 H 0.56253 0.91949 0.65234 0.0
H750 H 0.75172 0.91945 0.7658 0.0
H751 H 0.74816 0.91052 0.83688 0.0
loop_
_geom_bond_atom_site_label_1
_geom_bond_atom_site_label_2
_geom_bond_distance
_geom_bond_site_symmetry_2
_ccdc_geom_bond_type
Tb0 C9 2.764 . S
Tb0 O10 2.325 1_554 S
Tb0 O13 2.303 . S
Tb0 O17 2.322 1_455 S
Tb0 O18 2.349 1_554 S
Tb0 O21 2.415 . S
Tb0 O22 2.399 1_554 S
Tb1 O11 2.322 . S
Tb1 O12 2.349 . S
Tb1 O14 2.415 1_554 S
Tb1 O15 2.399 . S
Tb1 O16 2.325 1_455 S
Tb1 O19 2.303 1_554 S
Tb1 C30 2.764 1_455 S
C2 O18 1.261 . S
C2 O19 1.257 . S
C3 C6 1.358 1_554 S
C3 C7 1.332 . S
C3 C9 1.504 . S
C4 C5 1.373 1_554 S
C4 C8 1.308 . S
C5 C4 1.373 1_556 S
C5 C6 1.429 . S
C5 H32 0.932 . S
C6 C3 1.358 1_556 S
C6 C5 1.429 . S
C6 H33 0.930 . S
C7 C3 1.332 . S
C7 C8 1.394 . S
C7 H34 0.932 . S
C8 C4 1.308 . S
C8 C7 1.394 . S
C8 H35 0.929 . S
C9 Tb0 2.764 . S
C9 C3 1.504 . S
C9 O21 1.239 . S
C9 O22 1.263 1_554 S
O10 Tb0 2.325 1_556 S
O10 C20 1.236 1_556 S
O11 Tb1 2.322 . S
O11 C20 1.257 . S
O12 Tb1 2.349 . S
O12 C23 1.261 . S
O13 Tb0 2.303 . S
O13 C23 1.257 . S
O14 Tb1 2.415 1_556 S
O14 C30 1.239 1_456 S
O15 Tb1 2.399 . S
O15 C30 1.263 1_455 S
O16 Tb1 2.325 1_655 S
O16 C31 1.236 . S
O17 Tb0 2.322 1_655 S
O17 C31 1.257 . S
O18 Tb0 2.349 1_556 S
O18 C2 1.261 . S
O19 Tb1 2.303 1_556 S
O19 C2 1.257 . S
C20 O10 1.236 1_554 S
C20 O11 1.257 . S
O21 Tb0 2.415 . S
O21 C9 1.239 . S
O22 Tb0 2.399 1_556 S
O22 C9 1.263 1_556 S
C23 O12 1.261 . S
C23 O13 1.257 . S
C24 C27 1.358 . S
C24 C28 1.332 1_554 S
C24 C30 1.504 . S
C25 C26 1.366 1_556 S
C25 C29 1.313 . S
C26 C25 1.366 1_554 S
C26 C27 1.429 . S
C26 H36 0.932 . S
C27 C24 1.358 . S
C27 C26 1.429 . S
C27 H37 0.930 . S
C28 C24 1.332 1_556 S
C28 C29 1.394 . S
C28 H38 0.932 . S
C29 C25 1.313 . S
C29 C28 1.394 . S
C29 H39 0.929 . S
C30 Tb1 2.764 1_655 S
C30 O14 1.239 1_654 S
C30 O15 1.263 1_655 S
C30 C24 1.504 . S
C31 O16 1.236 . S
C31 O17 1.257 . S
H32 C5 0.932 . S
H33 C6 0.930 . S
H34 C7 0.932 . S
H35 C8 0.929 . S
H36 C26 0.932 . S
H37 C27 0.930 . S
H38 C28 0.932 . S
H39 C29 0.929 . S
Tb40 C49 2.764 1_655 S
Tb40 O50 2.325 1_655 S
Tb40 O53 2.303 . S
Tb40 O57 2.322 . S
Tb40 O58 2.349 1_554 S
Tb40 O61 2.415 . S
Tb40 O62 2.399 1_554 S
Tb41 O51 2.322 1_655 S
Tb41 O52 2.349 . S
Tb41 O54 2.415 1_554 S
Tb41 O55 2.399 . S
Tb41 O56 2.325 . S
Tb41 O59 2.303 1_554 S
Tb41 C70 2.764 . S
C42 O58 1.261 . S
C42 O59 1.257 . S
C43 C46 1.358 1_554 S
C43 C47 1.332 . S
C43 C49 1.504 . S
C44 C45 1.366 1_554 S
C44 C48 1.308 . S
C45 C44 1.366 1_556 S
C45 C46 1.431 . S
C45 H72 0.937 . S
C46 C43 1.358 1_556 S
C46 C45 1.431 . S
C46 H73 0.930 . S
C47 C43 1.332 . S
C47 C48 1.394 . S
C47 H74 0.932 . S
C48 C44 1.308 . S
C48 C47 1.394 . S
C48 H75 0.929 . S
C49 Tb40 2.764 1_455 S
C49 C43 1.504 . S
C49 O61 1.239 1_455 S
C49 O62 1.263 1_454 S
O50 Tb40 2.325 1_455 S
O50 C60 1.236 . S
O51 Tb41 2.322 1_455 S
O51 C60 1.257 . S
O52 Tb41 2.349 . S
O52 C63 1.261 . S
O53 Tb40 2.303 . S
O53 C63 1.257 . S
O54 Tb41 2.415 1_556 S
O54 C70 1.239 1_556 S
O55 Tb41 2.399 . S
O55 C70 1.263 . S
O56 Tb41 2.325 . S
O56 C71 1.236 . S
O57 Tb40 2.322 . S
O57 C71 1.257 . S
O58 Tb40 2.349 1_556 S
O58 C42 1.261 . S
O59 Tb41 2.303 1_556 S
O59 C42 1.257 . S
C60 O50 1.236 . S
C60 O51 1.257 . S
O61 Tb40 2.415 . S
O61 C49 1.239 1_655 S
O62 Tb40 2.399 1_556 S
O62 C49 1.263 1_656 S
C63 O52 1.261 . S
C63 O53 1.257 . S
C64 C67 1.358 . S
C64 C68 1.332 1_554 S
C64 C70 1.504 . S
C65 C66 1.373 . S
C65 C69 1.308 1_554 S
C66 C65 1.373 . S
C66 C67 1.429 . S
C66 H76 0.932 . S
C67 C64 1.358 . S
C67 C66 1.429 . S
C67 H77 0.930 . S
C68 C64 1.332 1_556 S
C68 C69 1.394 . S
C68 H78 0.932 . S
C69 C65 1.308 1_556 S
C69 C68 1.394 . S
C69 H79 0.929 . S
C70 Tb41 2.764 . S
C70 O54 1.239 1_554 S
C70 O55 1.263 . S
C70 C64 1.504 . S
C71 O56 1.236 . S
C71 O57 1.257 . S
H72 C45 0.937 . S
H73 C46 0.930 . S
H74 C47 0.932 . S
H75 C48 0.929 . S
H76 C66 0.932 . S
H77 C67 0.930 . S
H78 C68 0.932 . S
H79 C69 0.929 . S
Tb80 C89 2.764 1_455 S
Tb80 O90 2.325 1_455 S
Tb80 O93 2.303 . S
Tb80 O97 2.322 . S
Tb80 O98 2.349 . S
Tb80 O101 2.415 . S
Tb80 O102 2.399 . S
Tb81 O91 2.322 1_455 S
Tb81 O92 2.349 . S
Tb81 O94 2.415 . S
Tb81 O95 2.399 . S
Tb81 O96 2.325 . S
Tb81 O99 2.303 . S
Tb81 C110 2.764 . S
C82 O98 1.261 . S
C82 O99 1.257 . S
C83 C86 1.358 . S
C83 C87 1.332 . S
C83 C89 1.504 . S
C84 C85 1.373 . S
C84 C88 1.308 . S
C85 C84 1.373 . S
C85 C86 1.429 . S
C85 H112 0.932 . S
C86 C83 1.358 . S
C86 C85 1.429 . S
C86 H113 0.930 . S
C87 C83 1.332 . S
C87 C88 1.394 . S
C87 H114 0.932 . S
C88 C84 1.308 . S
C88 C87 1.394 . S
C88 H115 0.929 . S
C89 Tb80 2.764 1_655 S
C89 C83 1.504 . S
C89 O101 1.239 1_655 S
C89 O102 1.263 1_655 S
O90 Tb80 2.325 1_655 S
O90 C100 1.236 . S
O91 Tb81 2.322 1_655 S
O91 C100 1.257 . S
O92 Tb81 2.349 . S
O92 C103 1.261 . S
O93 Tb80 2.303 . S
O93 C103 1.257 . S
O94 Tb81 2.415 . S
O94 C110 1.239 . S
O95 Tb81 2.399 . S
O95 C110 1.263 . S
O96 Tb81 2.325 . S
O96 C111 1.236 . S
O97 Tb80 2.322 . S
O97 C111 1.257 . S
O98 Tb80 2.349 . S
O98 C82 1.261 . S
O99 Tb81 2.303 . S
O99 C82 1.257 . S
C100 O90 1.236 . S
C100 O91 1.257 . S
O101 Tb80 2.415 . S
O101 C89 1.239 1_455 S
O102 Tb80 2.399 . S
O102 C89 1.263 1_455 S
C103 O92 1.261 . S
C103 O93 1.257 . S
C104 C107 1.358 . S
C104 C108 1.332 . S
C104 C110 1.504 . S
C105 C106 1.373 . S
C105 C109 1.308 . S
C106 C105 1.373 . S
C106 C107 1.429 . S
C106 H116 0.932 . S
C107 C104 1.358 . S
C107 C106 1.429 . S
C107 H117 0.930 . S
C108 C104 1.332 . S
C108 C109 1.394 . S
C108 H118 0.932 . S
C109 C105 1.308 . S
C109 C108 1.394 . S
C109 H119 0.929 . S
C110 Tb81 2.764 . S
C110 O94 1.239 . S
C110 O95 1.263 . S
C110 C104 1.504 . S
C111 O96 1.236 . S
C111 O97 1.257 . S
H112 C85 0.932 . S
H113 C86 0.930 . S
H114 C87 0.932 . S
H115 C88 0.929 . S
H116 C106 0.932 . S
H117 C107 0.930 . S
H118 C108 0.932 . S
H119 C109 0.929 . S
Tb120 C129 2.764 . S
Tb120 O130 2.325 . S
Tb120 O133 2.303 . S
Tb120 O137 2.322 1_655 S
Tb120 O138 2.349 . S
Tb120 O141 2.415 . S
Tb120 O142 2.399 . S
Tb121 O131 2.322 . S
Tb121 O132 2.349 . S
Tb121 O134 2.415 . S
Tb121 O135 2.399 . S
Tb121 O136 2.325 1_655 S
Tb121 O139 2.303 . S
Tb121 C150 2.764 1_655 S
C122 O138 1.261 . S
C122 O139 1.257 . S
C123 C126 1.358 . S
C123 C127 1.332 . S
C123 C129 1.504 . S
C124 C125 1.373 . S
C124 C128 1.308 . S
C125 C124 1.373 . S
C125 C126 1.429 . S
C125 H152 0.932 . S
C126 C123 1.358 . S
C126 C125 1.429 . S
C126 H153 0.930 . S
C127 C123 1.332 . S
C127 C128 1.394 . S
C127 H154 0.932 . S
C128 C124 1.308 . S
C128 C127 1.394 . S
C128 H155 0.929 . S
C129 Tb120 2.764 . S
C129 C123 1.504 . S
C129 O141 1.239 . S
C129 O142 1.263 . S
O130 Tb120 2.325 . S
O130 C140 1.236 . S
O131 Tb121 2.322 . S
O131 C140 1.257 . S
O132 Tb121 2.349 . S
O132 C143 1.261 . S
O133 Tb120 2.303 . S
O133 C143 1.257 . S
O134 Tb121 2.415 . S
O134 C150 1.239 1_655 S
O135 Tb121 2.399 . S
O135 C150 1.263 1_655 S
O136 Tb121 2.325 1_455 S
O136 C151 1.236 . S
O137 Tb120 2.322 1_455 S
O137 C151 1.257 . S
O138 Tb120 2.349 . S
O138 C122 1.261 . S
O139 Tb121 2.303 . S
O139 C122 1.257 . S
C140 O130 1.236 . S
C140 O131 1.257 . S
O141 Tb120 2.415 . S
O141 C129 1.239 . S
O142 Tb120 2.399 . S
O142 C129 1.263 . S
C143 O132 1.261 . S
C143 O133 1.257 . S
C144 C147 1.358 . S
C144 C148 1.332 . S
C144 C150 1.504 . S
C145 C146 1.373 . S
C145 C149 1.308 . S
C146 C145 1.373 . S
C146 C147 1.429 . S
C146 H156 0.932 . S
C147 C144 1.358 . S
C147 C146 1.429 . S
C147 H157 0.930 . S
C148 C144 1.332 . S
C148 C149 1.394 . S
C148 H158 0.932 . S
C149 C145 1.308 . S
C149 C148 1.394 . S
C149 H159 0.929 . S
C150 Tb121 2.764 1_455 S
C150 O134 1.239 1_455 S
C150 O135 1.263 1_455 S
C150 C144 1.504 . S
C151 O136 1.236 . S
C151 O137 1.257 . S
H152 C125 0.932 . S
H153 C126 0.930 . S
H154 C127 0.932 . S
H155 C128 0.929 . S
H156 C146 0.932 . S
H157 C147 0.930 . S
H158 C148 0.932 . S
H159 C149 0.929 . S
Tb160 C169 2.764 . S
Tb160 O170 2.325 1_554 S
Tb160 O173 2.303 . S
Tb160 O177 2.322 . S
Tb160 O178 2.349 1_554 S
Tb160 O181 2.415 . S
Tb160 O182 2.399 1_554 S
Tb161 O171 2.322 . S
Tb161 O172 2.349 . S
Tb161 O174 2.415 1_554 S
Tb161 O175 2.399 . S
Tb161 O176 2.325 . S
Tb161 O179 2.303 1_554 S
Tb161 C190 2.764 . S
C162 O178 1.261 . S
C162 O179 1.257 . S
C163 C166 1.358 1_554 S
C163 C167 1.332 . S
C163 C169 1.504 . S
C164 C165 1.373 1_554 S
C164 C168 1.308 . S
C165 C164 1.373 1_556 S
C165 C166 1.429 . S
C165 H192 0.932 . S
C166 C163 1.358 1_556 S
C166 C165 1.429 . S
C166 H193 0.930 . S
C167 C163 1.332 . S
C167 C168 1.394 . S
C167 H194 0.932 . S
C168 C164 1.308 . S
C168 C167 1.394 . S
C168 H195 0.929 . S
C169 Tb160 2.764 . S
C169 C163 1.504 . S
C169 O181 1.239 . S
C169 O182 1.263 1_554 S
O170 Tb160 2.325 1_556 S
O170 C180 1.236 1_556 S
O171 Tb161 2.322 . S
O171 C180 1.257 . S
O172 Tb161 2.349 . S
O172 C183 1.261 . S
O173 Tb160 2.303 . S
O173 C183 1.257 . S
O174 Tb161 2.415 1_556 S
O174 C190 1.239 1_556 S
O175 Tb161 2.399 . S
O175 C190 1.263 . S
O176 Tb161 2.325 . S
O176 C191 1.236 . S
O177 Tb160 2.322 . S
O177 C191 1.257 . S
O178 Tb160 2.349 1_556 S
O178 C162 1.261 . S
O179 Tb161 2.303 1_556 S
O179 C162 1.257 . S
C180 O170 1.236 1_554 S
C180 O171 1.257 . S
O181 Tb160 2.415 . S
O181 C169 1.239 . S
O182 Tb160 2.399 1_556 S
O182 C169 1.263 1_556 S
C183 O172 1.261 . S
C183 O173 1.257 . S
C184 C187 1.358 . S
C184 C188 1.332 1_554 S
C184 C190 1.504 . S
C185 C186 1.366 1_556 S
C185 C189 1.313 . S
C186 C185 1.366 1_554 S
C186 C187 1.429 . S
C186 H196 0.932 . S
C187 C184 1.358 . S
C187 C186 1.429 . S
C187 H197 0.930 . S
C188 C184 1.332 1_556 S
C188 C189 1.394 . S
C188 H198 0.932 . S
C189 C185 1.313 . S
C189 C188 1.394 . S
C189 H199 0.929 . S
C190 Tb161 2.764 . S
C190 O174 1.239 1_554 S
C190 O175 1.263 . S
C190 C184 1.504 . S
C191 O176 1.236 . S
C191 O177 1.257 . S
H192 C165 0.932 . S
H193 C166 0.930 . S
H194 C167 0.932 . S
H195 C168 0.929 . S
H196 C186 0.932 . S
H197 C187 0.930 . S
H198 C188 0.932 . S
H199 C189 0.929 . S
Tb200 C209 2.764 . S
Tb200 O210 2.325 . S
Tb200 O213 2.303 . S
Tb200 O217 2.322 . S
Tb200 O218 2.349 1_554 S
Tb200 O221 2.415 . S
Tb200 O222 2.399 1_554 S
Tb201 O211 2.322 . S
Tb201 O212 2.349 . S
Tb201 O214 2.415 1_554 S
Tb201 O215 2.399 . S
Tb201 O216 2.325 . S
Tb201 O219 2.303 1_554 S
Tb201 C230 2.764 . S
C202 O218 1.261 . S
C202 O219 1.257 . S
C203 C206 1.358 1_554 S
C203 C207 1.332 . S
C203 C209 1.504 . S
C204 C205 1.367 1_554 S
C204 C208 1.308 . S
C205 C204 1.367 1_556 S
C205 C206 1.431 . S
C205 H232 0.937 . S
C206 C203 1.358 1_556 S
C206 C205 1.431 . S
C206 H233 0.930 . S
C207 C203 1.332 . S
C207 C208 1.394 . S
C207 H234 0.932 . S
C208 C204 1.308 . S
C208 C207 1.394 . S
C208 H235 0.929 . S
C209 Tb200 2.764 . S
C209 C203 1.504 . S
C209 O221 1.239 . S
C209 O222 1.263 1_554 S
O210 Tb200 2.325 . S
O210 C220 1.236 . S
O211 Tb201 2.322 . S
O211 C220 1.257 . S
O212 Tb201 2.349 . S
O212 C223 1.261 . S
O213 Tb200 2.303 . S
O213 C223 1.257 . S
O214 Tb201 2.415 1_556 S
O214 C230 1.239 1_556 S
O215 Tb201 2.399 . S
O215 C230 1.263 . S
O216 Tb201 2.325 . S
O216 C231 1.236 . S
O217 Tb200 2.322 . S
O217 C231 1.257 . S
O218 Tb200 2.349 1_556 S
O218 C202 1.261 . S
O219 Tb201 2.303 1_556 S
O219 C202 1.257 . S
C220 O210 1.236 . S
C220 O211 1.257 . S
O221 Tb200 2.415 . S
O221 C209 1.239 . S
O222 Tb200 2.399 1_556 S
O222 C209 1.263 1_556 S
C223 O212 1.261 . S
C223 O213 1.257 . S
C224 C227 1.358 . S
C224 C228 1.332 1_554 S
C224 C230 1.504 . S
C225 C226 1.373 . S
C225 C229 1.308 1_554 S
C226 C225 1.373 . S
C226 C227 1.429 . S
C226 H236 0.932 . S
C227 C224 1.358 . S
C227 C226 1.429 . S
C227 H237 0.930 . S
C228 C224 1.332 1_556 S
C228 C229 1.394 . S
C228 H238 0.932 . S
C229 C225 1.308 1_556 S
C229 C228 1.394 . S
C229 H239 0.929 . S
C230 Tb201 2.764 . S
C230 O214 1.239 1_554 S
C230 O215 1.263 . S
C230 C224 1.504 . S
C231 O216 1.236 . S
C231 O217 1.257 . S
H232 C205 0.937 . S
H233 C206 0.930 . S
H234 C207 0.932 . S
H235 C208 0.929 . S
H236 C226 0.932 . S
H237 C227 0.930 . S
H238 C228 0.932 . S
H239 C229 0.929 . S
Tb240 C249 2.764 . S
Tb240 O250 2.325 . S
Tb240 O253 2.303 . S
Tb240 O257 2.322 . S
Tb240 O258 2.349 . S
Tb240 O261 2.415 . S
Tb240 O262 2.399 . S
Tb241 O251 2.322 . S
Tb241 O252 2.349 . S
Tb241 O254 2.415 . S
Tb241 O255 2.399 . S
Tb241 O256 2.325 . S
Tb241 O259 2.303 . S
Tb241 C270 2.764 . S
C242 O258 1.261 . S
C242 O259 1.257 . S
C243 C246 1.358 . S
C243 C247 1.332 . S
C243 C249 1.504 . S
C244 C245 1.373 . S
C244 C248 1.308 . S
C245 C244 1.373 . S
C245 C246 1.429 . S
C245 H272 0.932 . S
C246 C243 1.358 . S
C246 C245 1.429 . S
C246 H273 0.930 . S
C247 C243 1.332 . S
C247 C248 1.394 . S
C247 H274 0.932 . S
C248 C244 1.308 . S
C248 C247 1.394 . S
C248 H275 0.929 . S
C249 Tb240 2.764 . S
C249 C243 1.504 . S
C249 O261 1.239 . S
C249 O262 1.263 . S
O250 Tb240 2.325 . S
O250 C260 1.236 . S
O251 Tb241 2.322 . S
O251 C260 1.257 . S
O252 Tb241 2.349 . S
O252 C263 1.261 . S
O253 Tb240 2.303 . S
O253 C263 1.257 . S
O254 Tb241 2.415 . S
O254 C270 1.239 . S
O255 Tb241 2.399 . S
O255 C270 1.263 . S
O256 Tb241 2.325 . S
O256 C271 1.236 . S
O257 Tb240 2.322 . S
O257 C271 1.257 . S
O258 Tb240 2.349 . S
O258 C242 1.261 . S
O259 Tb241 2.303 . S
O259 C242 1.257 . S
C260 O250 1.236 . S
C260 O251 1.257 . S
O261 Tb240 2.415 . S
O261 C249 1.239 . S
O262 Tb240 2.399 . S
O262 C249 1.263 . S
C263 O252 1.261 . S
C263 O253 1.257 . S
C264 C267 1.358 . S
C264 C268 1.332 . S
C264 C270 1.504 . S
C265 C266 1.373 . S
C265 C269 1.308 . S
C266 C265 1.373 . S
C266 C267 1.429 . S
C266 H276 0.932 . S
C267 C264 1.358 . S
C267 C266 1.429 . S
C267 H277 0.930 . S
C268 C264 1.332 . S
C268 C269 1.394 . S
C268 H278 0.932 . S
C269 C265 1.308 . S
C269 C268 1.394 . S
C269 H279 0.929 . S
C270 Tb241 2.764 . S
C270 O254 1.239 . S
C270 O255 1.263 . S
C270 C264 1.504 . S
C271 O256 1.236 . S
C271 O257 1.257 . S
H272 C245 0.932 . S
H273 C246 0.930 . S
H274 C247 0.932 . S
H275 C248 0.929 . S
H276 C266 0.932 . S
H277 C267 0.930 . S
H278 C268 0.932 . S
H279 C269 0.929 . S
Tb280 C289 2.764 . S
Tb280 O290 2.325 . S
Tb280 O293 2.303 . S
Tb280 O297 2.322 . S
Tb280 O298 2.349 . S
Tb280 O301 2.415 . S
Tb280 O302 2.399 . S
Tb281 O291 2.322 . S
Tb281 O292 2.349 . S
Tb281 O294 2.415 . S
Tb281 O295 2.399 . S
Tb281 O296 2.325 . S
Tb281 O299 2.303 . S
Tb281 C310 2.764 . S
C282 O298 1.261 . S
C282 O299 1.257 . S
C283 C286 1.358 . S
C283 C287 1.332 . S
C283 C289 1.504 . S
C284 C285 1.373 . S
C284 C288 1.308 . S
C285 C284 1.373 . S
C285 C286 1.429 . S
C285 H312 0.932 . S
C286 C283 1.358 . S
C286 C285 1.429 . S
C286 H313 0.930 . S
C287 C283 1.332 . S
C287 C288 1.394 . S
C287 H314 0.932 . S
C288 C284 1.308 . S
C288 C287 1.394 . S
C288 H315 0.929 . S
C289 Tb280 2.764 . S
C289 C283 1.504 . S
C289 O301 1.239 . S
C289 O302 1.263 . S
O290 Tb280 2.325 . S
O290 C300 1.236 . S
O291 Tb281 2.322 . S
O291 C300 1.257 . S
O292 Tb281 2.349 . S
O292 C303 1.261 . S
O293 Tb280 2.303 . S
O293 C303 1.257 . S
O294 Tb281 2.415 . S
O294 C310 1.239 . S
O295 Tb281 2.399 . S
O295 C310 1.263 . S
O296 Tb281 2.325 . S
O296 C311 1.236 . S
O297 Tb280 2.322 . S
O297 C311 1.257 . S
O298 Tb280 2.349 . S
O298 C282 1.261 . S
O299 Tb281 2.303 . S
O299 C282 1.257 . S
C300 O290 1.236 . S
C300 O291 1.257 . S
O301 Tb280 2.415 . S
O301 C289 1.239 . S
O302 Tb280 2.399 . S
O302 C289 1.263 . S
C303 O292 1.261 . S
C303 O293 1.257 . S
C304 C307 1.358 . S
C304 C308 1.332 . S
C304 C310 1.504 . S
C305 C306 1.373 . S
C305 C309 1.308 . S
C306 C305 1.373 . S
C306 C307 1.429 . S
C306 H316 0.932 . S
C307 C304 1.358 . S
C307 C306 1.429 . S
C307 H317 0.930 . S
C308 C304 1.332 . S
C308 C309 1.394 . S
C308 H318 0.932 . S
C309 C305 1.308 . S
C309 C308 1.394 . S
C309 H319 0.929 . S
C310 Tb281 2.764 . S
C310 O294 1.239 . S
C310 O295 1.263 . S
C310 C304 1.504 . S
C311 O296 1.236 . S
C311 O297 1.257 . S
H312 C285 0.932 . S
H313 C286 0.930 . S
H314 C287 0.932 . S
H315 C288 0.929 . S
H316 C306 0.932 . S
H317 C307 0.930 . S
H318 C308 0.932 . S
H319 C309 0.929 . S
C320 C321 1.363 . S
C320 C326 1.379 . S
C320 N328 1.356 . S
C321 C320 1.363 . S
C321 C327 1.363 . S
C322 C323 1.363 . S
C322 C327 1.379 . S
C322 N329 1.356 1_554 S
C323 C322 1.363 . S
C323 C326 1.363 . S
N324 C326 1.356 . S
N324 H336 0.984 . S
N324 H337 0.985 . S
N325 C327 1.356 1_556 S
N325 H330 0.984 . S
N325 H331 0.985 . S
C326 C320 1.379 . S
C326 C323 1.363 . S
C326 N324 1.356 . S
C327 C321 1.363 . S
C327 C322 1.379 . S
C327 N325 1.356 1_554 S
N328 C320 1.356 . S
N328 H334 0.984 . S
N328 H335 0.984 . S
N329 C322 1.356 1_556 S
N329 H332 0.984 1_556 S
N329 H333 0.985 . S
H330 N325 0.984 . S
H331 N325 0.985 . S
H332 N329 0.984 1_554 S
H333 N329 0.985 . S
H334 N328 0.984 . S
H335 N328 0.984 . S
H336 N324 0.984 . S
H337 N324 0.985 . S
C338 C339 1.363 . S
C338 C344 1.379 . S
C338 N346 1.356 . S
C339 C338 1.363 . S
C339 C345 1.363 1_554 S
C340 C341 1.363 1_556 S
C340 C345 1.379 . S
C340 N347 1.356 . S
C341 C340 1.363 1_554 S
C341 C344 1.363 . S
N342 C344 1.356 . S
N342 H354 0.984 . S
N342 H355 0.985 . S
N343 C345 1.356 . S
N343 H348 0.984 . S
N343 H349 0.985 . S
C344 C338 1.379 . S
C344 C341 1.363 . S
C344 N342 1.356 . S
C345 C339 1.363 1_556 S
C345 C340 1.379 . S
C345 N343 1.356 . S
N346 C338 1.356 . S
N346 H352 0.984 . S
N346 H353 0.984 . S
N347 C340 1.356 . S
N347 H350 0.984 . S
N347 H351 0.985 . S
H348 N343 0.984 . S
H349 N343 0.985 . S
H350 N347 0.984 . S
H351 N347 0.985 . S
H352 N346 0.984 . S
H353 N346 0.984 . S
H354 N342 0.984 . S
H355 N342 0.985 . S
C356 C357 1.363 . S
C356 C362 1.379 . S
C356 N364 1.356 . S
C357 C356 1.363 . S
C357 C363 1.363 . S
C358 C359 1.363 . S
C358 C363 1.379 . S
C358 N365 1.356 . S
C359 C358 1.363 . S
C359 C362 1.363 . S
N360 C362 1.356 . S
N360 H372 0.984 . S
N360 H373 0.985 . S
N361 C363 1.356 . S
N361 H366 0.984 . S
N361 H367 0.985 . S
C362 C356 1.379 . S
C362 C359 1.363 . S
C362 N360 1.356 . S
C363 C357 1.363 . S
C363 C358 1.379 . S
C363 N361 1.356 . S
N364 C356 1.356 . S
N364 H370 0.984 . S
N364 H371 0.984 . S
N365 C358 1.356 . S
N365 H368 0.984 . S
N365 H369 0.985 . S
H366 N361 0.984 . S
H367 N361 0.985 . S
H368 N365 0.984 . S
H369 N365 0.985 . S
H370 N364 0.984 . S
H371 N364 0.984 . S
H372 N360 0.984 . S
H373 N360 0.985 . S
C374 C375 1.363 . S
C374 C380 1.379 . S
C374 N382 1.356 . S
C375 C374 1.363 . S
C375 C381 1.363 . S
C376 C377 1.363 . S
C376 C381 1.379 . S
C376 N383 1.356 . S
C377 C376 1.363 . S
C377 C380 1.363 . S
N378 C380 1.356 . S
N378 H390 0.984 . S
N378 H391 0.985 . S
N379 C381 1.356 . S
N379 H384 0.984 . S
N379 H385 0.985 . S
C380 C374 1.379 . S
C380 C377 1.363 . S
C380 N378 1.356 . S
C381 C375 1.363 . S
C381 C376 1.379 . S
C381 N379 1.356 . S
N382 C374 1.356 . S
N382 H388 0.984 . S
N382 H389 0.984 . S
N383 C376 1.356 . S
N383 H386 0.984 . S
N383 H387 0.985 . S
H384 N379 0.984 . S
H385 N379 0.985 . S
H386 N383 0.984 . S
H387 N383 0.985 . S
H388 N382 0.984 . S
H389 N382 0.984 . S
H390 N378 0.984 . S
H391 N378 0.985 . S
C392 C393 1.363 . S
C392 C398 1.379 1_655 S
C392 N400 1.356 . S
C393 C392 1.363 . S
C393 C399 1.363 1_654 S
C394 C395 1.363 1_556 S
C394 C399 1.379 . S
C394 N401 1.356 . S
C395 C394 1.363 1_554 S
C395 C398 1.363 . S
N396 C398 1.356 . S
N396 H408 0.984 . S
N396 H409 0.985 . S
N397 C399 1.356 1_655 S
N397 H402 0.984 . S
N397 H403 0.985 . S
C398 C392 1.379 1_455 S
C398 C395 1.363 . S
C398 N396 1.356 . S
C399 C393 1.363 1_456 S
C399 C394 1.379 . S
C399 N397 1.356 1_455 S
N400 C392 1.356 . S
N400 H406 0.984 . S
N400 H407 0.984 . S
N401 C394 1.356 . S
N401 H404 0.984 . S
N401 H405 0.985 . S
H402 N397 0.984 . S
H403 N397 0.985 . S
H404 N401 0.984 . S
H405 N401 0.985 . S
H406 N400 0.984 . S
H407 N400 0.984 . S
H408 N396 0.984 . S
H409 N396 0.985 . S
C410 C411 1.363 1_556 S
C410 C416 1.379 1_455 S
C410 N418 1.356 . S
C411 C410 1.363 1_554 S
C411 C417 1.363 1_455 S
C412 C413 1.363 . S
C412 C417 1.379 . S
C412 N419 1.356 . S
C413 C412 1.363 . S
C413 C416 1.363 1_554 S
N414 C416 1.356 . S
N414 H426 0.984 . S
N414 H427 0.985 . S
N415 C417 1.356 1_455 S
N415 H420 0.984 . S
N415 H421 0.985 1_455 S
C416 C410 1.379 1_655 S
C416 C413 1.363 1_556 S
C416 N414 1.356 . S
C417 C411 1.363 1_655 S
C417 C412 1.379 . S
C417 N415 1.356 1_655 S
N418 C410 1.356 . S
N418 H424 0.984 . S
N418 H425 0.984 . S
N419 C412 1.356 . S
N419 H422 0.984 . S
N419 H423 0.985 . S
H420 N415 0.984 . S
H421 N415 0.985 1_655 S
H422 N419 0.984 . S
H423 N419 0.985 . S
H424 N418 0.984 . S
H425 N418 0.984 . S
H426 N414 0.984 . S
H427 N414 0.985 . S
C428 C429 1.363 . S
C428 C434 1.379 . S
C428 N436 1.356 . S
C429 C428 1.363 . S
C429 C435 1.363 . S
C430 C431 1.363 . S
C430 C435 1.379 1_655 S
C430 N437 1.356 . S
C431 C430 1.363 . S
C431 C434 1.363 1_655 S
N432 C434 1.356 1_655 S
N432 H444 0.984 1_655 S
N432 H445 0.985 . S
N433 C435 1.356 . S
N433 H438 0.984 . S
N433 H439 0.985 . S
C434 C428 1.379 . S
C434 C431 1.363 1_455 S
C434 N432 1.356 1_455 S
C435 C429 1.363 . S
C435 C430 1.379 1_455 S
C435 N433 1.356 . S
N436 C428 1.356 . S
N436 H442 0.984 . S
N436 H443 0.984 . S
N437 C430 1.356 . S
N437 H440 0.984 . S
N437 H441 0.985 . S
H438 N433 0.984 . S
H439 N433 0.985 . S
H440 N437 0.984 . S
H441 N437 0.985 . S
H442 N436 0.984 . S
H443 N436 0.984 . S
H444 N432 0.984 1_455 S
H445 N432 0.985 . S
C446 C447 1.363 . S
C446 C452 1.379 . S
C446 N454 1.356 . S
C447 C446 1.363 . S
C447 C453 1.363 . S
C448 C449 1.363 . S
C448 C453 1.379 1_455 S
C448 N455 1.356 . S
C449 C448 1.363 . S
C449 C452 1.363 1_455 S
N450 C452 1.356 1_455 S
N450 H462 0.984 . S
N450 H463 0.985 . S
N451 C453 1.356 . S
N451 H456 0.984 . S
N451 H457 0.985 . S
C452 C446 1.379 . S
C452 C449 1.363 1_655 S
C452 N450 1.356 1_655 S
C453 C447 1.363 . S
C453 C448 1.379 1_655 S
C453 N451 1.356 . S
N454 C446 1.356 . S
N454 H460 0.984 . S
N454 H461 0.984 . S
N455 C448 1.356 . S
N455 H458 0.984 . S
N455 H459 0.985 . S
H456 N451 0.984 . S
H457 N451 0.985 . S
H458 N455 0.984 . S
H459 N455 0.985 . S
H460 N454 0.984 . S
H461 N454 0.984 . S
H462 N450 0.984 . S
H463 N450 0.985 . S
C464 C465 1.363 . S
C464 C470 1.379 1_455 S
C464 N472 1.356 . S
C465 C464 1.363 . S
C465 C471 1.363 1_554 S
C466 C467 1.363 1_556 S
C466 C471 1.379 1_655 S
C466 N473 1.356 . S
C467 C466 1.363 1_554 S
C467 C470 1.363 . S
N468 C470 1.356 . S
N468 H480 0.984 . S
N468 H481 0.985 . S
N469 C471 1.356 . S
N469 H474 0.984 . S
N469 H475 0.985 . S
C470 C464 1.379 1_655 S
C470 C467 1.363 . S
C470 N468 1.356 . S
C471 C465 1.363 1_556 S
C471 C466 1.379 1_455 S
C471 N469 1.356 . S
N472 C464 1.356 . S
N472 H478 0.984 . S
N472 H479 0.984 . S
N473 C466 1.356 . S
N473 H476 0.984 . S
N473 H477 0.985 . S
H474 N469 0.984 . S
H475 N469 0.985 . S
H476 N473 0.984 . S
H477 N473 0.985 . S
H478 N472 0.984 . S
H479 N472 0.984 . S
H480 N468 0.984 . S
H481 N468 0.985 . S
C482 C483 1.363 . S
C482 C488 1.379 . S
C482 N490 1.356 . S
C483 C482 1.363 . S
C483 C489 1.363 1_455 S
C484 C485 1.363 . S
C484 C489 1.379 . S
C484 N491 1.356 . S
C485 C484 1.363 . S
C485 C488 1.363 1_655 S
N486 C488 1.356 . S
N486 H498 0.984 . S
N486 H499 0.985 1_455 S
N487 C489 1.356 . S
N487 H492 0.984 1_655 S
N487 H493 0.985 . S
C488 C482 1.379 . S
C488 C485 1.363 1_455 S
C488 N486 1.356 . S
C489 C483 1.363 1_655 S
C489 C484 1.379 . S
C489 N487 1.356 . S
N490 C482 1.356 . S
N490 H496 0.984 . S
N490 H497 0.984 . S
N491 C484 1.356 . S
N491 H494 0.984 . S
N491 H495 0.985 . S
H492 N487 0.984 1_455 S
H493 N487 0.985 . S
H494 N491 0.984 . S
H495 N491 0.985 . S
H496 N490 0.984 . S
H497 N490 0.984 . S
H498 N486 0.984 . S
H499 N486 0.985 1_655 S
C500 C501 1.363 1_556 S
C500 C506 1.379 1_565 S
C500 N508 1.356 . S
C501 C500 1.363 1_554 S
C501 C507 1.363 . S
C502 C503 1.363 . S
C502 C507 1.379 1_545 S
C502 N509 1.356 . S
C503 C502 1.363 . S
C503 C506 1.363 1_554 S
N504 C506 1.356 . S
N504 H516 0.984 . S
N504 H517 0.985 . S
N505 C507 1.356 . S
N505 H510 0.984 . S
N505 H511 0.985 . S
C506 C500 1.379 1_545 S
C506 C503 1.363 1_556 S
C506 N504 1.356 . S
C507 C501 1.363 . S
C507 C502 1.379 1_565 S
C507 N505 1.356 . S
N508 C500 1.356 . S
N508 H514 0.984 . S
N508 H515 0.984 . S
N509 C502 1.356 . S
N509 H512 0.984 . S
N509 H513 0.985 . S
H510 N505 0.984 . S
H511 N505 0.985 . S
H512 N509 0.984 . S
H513 N509 0.985 . S
H514 N508 0.984 . S
H515 N508 0.984 . S
H516 N504 0.984 . S
H517 N504 0.985 . S
C518 C519 1.368 1_565 S
C518 C524 1.374 . S
C518 N526 1.358 1_565 S
C519 C518 1.368 1_545 S
C519 C525 1.363 . S
C520 C521 1.368 1_545 S
C520 C525 1.374 . S
C520 N527 1.358 1_545 S
C521 C520 1.368 1_565 S
C521 C524 1.363 . S
N522 C524 1.356 . S
N522 H534 0.984 . S
N522 H535 0.985 . S
N523 C525 1.356 . S
N523 H528 0.984 . S
N523 H529 0.985 . S
C524 C518 1.374 . S
C524 C521 1.363 . S
C524 N522 1.356 . S
C525 C519 1.363 . S
C525 C520 1.374 . S
C525 N523 1.356 . S
N526 C518 1.358 1_545 S
N526 H532 0.984 1_545 S
N526 H533 0.984 . S
N527 C520 1.358 1_565 S
N527 H530 0.984 . S
N527 H531 0.985 1_565 S
H528 N523 0.984 . S
H529 N523 0.985 . S
H530 N527 0.984 . S
H531 N527 0.985 1_545 S
H532 N526 0.984 1_565 S
H533 N526 0.984 . S
H534 N522 0.984 . S
H535 N522 0.985 . S
C536 C537 1.363 1_556 S
C536 C542 1.379 . S
C536 N544 1.356 . S
C537 C536 1.363 1_554 S
C537 C543 1.363 . S
C538 C539 1.363 . S
C538 C543 1.379 . S
C538 N545 1.356 . S
C539 C538 1.363 . S
C539 C542 1.363 1_554 S
N540 C542 1.356 . S
N540 H552 0.984 . S
N540 H553 0.985 . S
N541 C543 1.356 . S
N541 H546 0.984 . S
N541 H547 0.985 . S
C542 C536 1.379 . S
C542 C539 1.363 1_556 S
C542 N540 1.356 . S
C543 C537 1.363 . S
C543 C538 1.379 . S
C543 N541 1.356 . S
N544 C536 1.356 . S
N544 H550 0.984 . S
N544 H551 0.984 . S
N545 C538 1.356 . S
N545 H548 0.984 . S
N545 H549 0.985 . S
H546 N541 0.984 . S
H547 N541 0.985 . S
H548 N545 0.984 . S
H549 N545 0.985 . S
H550 N544 0.984 . S
H551 N544 0.984 . S
H552 N540 0.984 . S
H553 N540 0.985 . S
C554 C555 1.363 . S
C554 C560 1.379 . S
C554 N562 1.356 . S
C555 C554 1.363 . S
C555 C561 1.363 1_554 S
C556 C557 1.363 1_556 S
C556 C561 1.379 . S
C556 N563 1.356 . S
C557 C556 1.363 1_554 S
C557 C560 1.363 . S
N558 C560 1.356 . S
N558 H570 0.984 . S
N558 H571 0.985 . S
N559 C561 1.356 . S
N559 H564 0.984 . S
N559 H565 0.985 . S
C560 C554 1.379 . S
C560 C557 1.363 . S
C560 N558 1.356 . S
C561 C555 1.363 1_556 S
C561 C556 1.379 . S
C561 N559 1.356 . S
N562 C554 1.356 . S
N562 H568 0.984 . S
N562 H569 0.984 . S
N563 C556 1.356 . S
N563 H566 0.984 . S
N563 H567 0.985 . S
H564 N559 0.984 . S
H565 N559 0.985 . S
H566 N563 0.984 . S
H567 N563 0.985 . S
H568 N562 0.984 . S
H569 N562 0.984 . S
H570 N558 0.984 . S
H571 N558 0.985 . S
C572 C573 1.363 . S
C572 C578 1.379 . S
C572 N580 1.356 . S
C573 C572 1.363 . S
C573 C579 1.363 . S
C574 C575 1.363 . S
C574 C579 1.379 . S
C574 N581 1.356 . S
C575 C574 1.363 . S
C575 C578 1.363 . S
N576 C578 1.356 . S
N576 H588 0.984 . S
N576 H589 0.985 . S
N577 C579 1.356 . S
N577 H582 0.984 . S
N577 H583 0.985 . S
C578 C572 1.379 . S
C578 C575 1.363 . S
C578 N576 1.356 . S
C579 C573 1.363 . S
C579 C574 1.379 . S
C579 N577 1.356 . S
N580 C572 1.356 . S
N580 H586 0.984 . S
N580 H587 0.984 . S
N581 C574 1.356 . S
N581 H584 0.984 . S
N581 H585 0.985 . S
H582 N577 0.984 . S
H583 N577 0.985 . S
H584 N581 0.984 . S
H585 N581 0.985 . S
H586 N580 0.984 . S
H587 N580 0.984 . S
H588 N576 0.984 . S
H589 N576 0.985 . S
C590 C591 1.363 . S
C590 C596 1.379 . S
C590 N598 1.356 . S
C591 C590 1.363 . S
C591 C597 1.363 . S
C592 C593 1.363 . S
C592 C597 1.379 . S
C592 N599 1.356 . S
C593 C592 1.363 . S
C593 C596 1.363 . S
N594 C596 1.356 . S
N594 H606 0.984 . S
N594 H607 0.985 . S
N595 C597 1.356 . S
N595 H600 0.984 . S
N595 H601 0.985 . S
C596 C590 1.379 . S
C596 C593 1.363 . S
C596 N594 1.356 . S
C597 C591 1.363 . S
C597 C592 1.379 . S
C597 N595 1.356 . S
N598 C590 1.356 . S
N598 H604 0.984 . S
N598 H605 0.984 . S
N599 C592 1.356 . S
N599 H602 0.984 . S
N599 H603 0.985 . S
H600 N595 0.984 . S
H601 N595 0.985 . S
H602 N599 0.984 . S
H603 N599 0.985 . S
H604 N598 0.984 . S
H605 N598 0.984 . S
H606 N594 0.984 . S
H607 N594 0.985 . S
C608 C609 1.363 1_655 S
C608 C614 1.379 . S
C608 N616 1.356 . S
C609 C608 1.363 1_455 S
C609 C615 1.363 . S
C610 C611 1.363 1_455 S
C610 C615 1.379 . S
C610 N617 1.356 . S
C611 C610 1.363 1_655 S
C611 C614 1.363 . S
N612 C614 1.356 . S
N612 H624 0.984 . S
N612 H625 0.985 . S
N613 C615 1.356 . S
N613 H618 0.984 . S
N613 H619 0.985 . S
C614 C608 1.379 . S
C614 C611 1.363 . S
C614 N612 1.356 . S
C615 C609 1.363 . S
C615 C610 1.379 . S
C615 N613 1.356 . S
N616 C608 1.356 . S
N616 H622 0.984 . S
N616 H623 0.984 . S
N617 C610 1.356 . S
N617 H620 0.984 . S
N617 H621 0.985 . S
H618 N613 0.984 . S
H619 N613 0.985 . S
H620 N617 0.984 . S
H621 N617 0.985 . S
H622 N616 0.984 . S
H623 N616 0.984 . S
H624 N612 0.984 . S
H625 N612 0.985 . S
C626 C627 1.363 . S
C626 C632 1.379 . S
C626 N634 1.356 . S
C627 C626 1.363 . S
C627 C633 1.363 1_655 S
C628 C629 1.363 . S
C628 C633 1.379 . S
C628 N635 1.356 . S
C629 C628 1.363 . S
C629 C632 1.363 1_455 S
N630 C632 1.356 . S
N630 H642 0.984 . S
N630 H643 0.985 . S
N631 C633 1.356 . S
N631 H636 0.984 . S
N631 H637 0.985 . S
C632 C626 1.379 . S
C632 C629 1.363 1_655 S
C632 N630 1.356 . S
C633 C627 1.363 1_455 S
C633 C628 1.379 . S
C633 N631 1.356 . S
N634 C626 1.356 . S
N634 H640 0.984 . S
N634 H641 0.984 . S
N635 C628 1.356 . S
N635 H638 0.984 . S
N635 H639 0.985 . S
H636 N631 0.984 . S
H637 N631 0.985 . S
H638 N635 0.984 . S
H639 N635 0.985 . S
H640 N634 0.984 . S
H641 N634 0.984 . S
H642 N630 0.984 . S
H643 N630 0.985 . S
C644 C645 1.363 . S
C644 C650 1.379 . S
C644 N652 1.356 . S
C645 C644 1.363 . S
C645 C651 1.363 1_655 S
C646 C647 1.363 . S
C646 C651 1.379 . S
C646 N653 1.356 . S
C647 C646 1.363 . S
C647 C650 1.363 1_455 S
N648 C650 1.356 . S
N648 H660 0.984 . S
N648 H661 0.985 . S
N649 C651 1.356 . S
N649 H654 0.984 . S
N649 H655 0.985 . S
C650 C644 1.379 . S
C650 C647 1.363 1_655 S
C650 N648 1.356 . S
C651 C645 1.363 1_455 S
C651 C646 1.379 . S
C651 N649 1.356 . S
N652 C644 1.356 . S
N652 H658 0.984 . S
N652 H659 0.984 . S
N653 C646 1.356 . S
N653 H656 0.984 . S
N653 H657 0.985 . S
H654 N649 0.984 . S
H655 N649 0.985 . S
H656 N653 0.984 . S
H657 N653 0.985 . S
H658 N652 0.984 . S
H659 N652 0.984 . S
H660 N648 0.984 . S
H661 N648 0.985 . S
C662 C663 1.363 1_455 S
C662 C668 1.379 . S
C662 N670 1.356 . S
C663 C662 1.363 1_655 S
C663 C669 1.363 . S
C664 C665 1.363 1_655 S
C664 C669 1.379 . S
C664 N671 1.356 . S
C665 C664 1.363 1_455 S
C665 C668 1.363 . S
N666 C668 1.356 . S
N666 H678 0.984 . S
N666 H679 0.985 . S
N667 C669 1.356 . S
N667 H672 0.984 . S
N667 H673 0.985 . S
C668 C662 1.379 . S
C668 C665 1.363 . S
C668 N666 1.356 . S
C669 C663 1.363 . S
C669 C664 1.379 . S
C669 N667 1.356 . S
N670 C662 1.356 . S
N670 H676 0.984 . S
N670 H677 0.984 . S
N671 C664 1.356 . S
N671 H674 0.984 . S
N671 H675 0.985 . S
H672 N667 0.984 . S
H673 N667 0.985 . S
H674 N671 0.984 . S
H675 N671 0.985 . S
H676 N670 0.984 . S
H677 N670 0.984 . S
H678 N666 0.984 . S
H679 N666 0.985 . S
C680 C681 1.363 . S
C680 C686 1.379 . S
C680 N688 1.356 . S
C681 C680 1.363 . S
C681 C687 1.363 . S
C682 C683 1.363 . S
C682 C687 1.379 . S
C682 N689 1.356 . S
C683 C682 1.363 . S
C683 C686 1.363 . S
N684 C686 1.356 . S
N684 H696 0.984 . S
N684 H697 0.985 . S
N685 C687 1.356 . S
N685 H690 0.984 . S
N685 H691 0.985 . S
C686 C680 1.379 . S
C686 C683 1.363 . S
C686 N684 1.356 . S
C687 C681 1.363 . S
C687 C682 1.379 . S
C687 N685 1.356 . S
N688 C680 1.356 . S
N688 H694 0.984 . S
N688 H695 0.984 . S
N689 C682 1.356 . S
N689 H692 0.984 . S
N689 H693 0.985 . S
H690 N685 0.984 . S
H691 N685 0.985 . S
H692 N689 0.984 . S
H693 N689 0.985 . S
H694 N688 0.984 . S
H695 N688 0.984 . S
H696 N684 0.984 . S
H697 N684 0.985 . S
C698 C699 1.363 . S
C698 C704 1.379 . S
C698 N706 1.356 . S
C699 C698 1.363 . S
C699 C705 1.363 . S
C700 C701 1.363 . S
C700 C705 1.379 . S
C700 N707 1.356 . S
C701 C700 1.363 . S
C701 C704 1.363 . S
N702 C704 1.356 . S
N702 H714 0.984 . S
N702 H715 0.985 . S
N703 C705 1.356 . S
N703 H708 0.984 . S
N703 H709 0.985 . S
C704 C698 1.379 . S
C704 C701 1.363 . S
C704 N702 1.356 . S
C705 C699 1.363 . S
C705 C700 1.379 . S
C705 N703 1.356 . S
N706 C698 1.356 . S
N706 H712 0.984 . S
N706 H713 0.984 . S
N707 C700 1.356 . S
N707 H710 0.984 . S
N707 H711 0.985 . S
H708 N703 0.984 . S
H709 N703 0.985 . S
H710 N707 0.984 . S
H711 N707 0.985 . S
H712 N706 0.984 . S
H713 N706 0.984 . S
H714 N702 0.984 . S
H715 N702 0.985 . S
C716 C717 1.363 . S
C716 C722 1.379 . S
C716 N724 1.356 . S
C717 C716 1.363 . S
C717 C723 1.363 . S
C718 C719 1.363 . S
C718 C723 1.379 . S
C718 N725 1.356 . S
C719 C718 1.363 . S
C719 C722 1.363 . S
N720 C722 1.356 . S
N720 H732 0.984 . S
N720 H733 0.985 . S
N721 C723 1.356 . S
N721 H726 0.984 . S
N721 H727 0.985 . S
C722 C716 1.379 . S
C722 C719 1.363 . S
C722 N720 1.356 . S
C723 C717 1.363 . S
C723 C718 1.379 . S
C723 N721 1.356 . S
N724 C716 1.356 . S
N724 H730 0.984 . S
N724 H731 0.984 . S
N725 C718 1.356 . S
N725 H728 0.984 . S
N725 H729 0.985 . S
H726 N721 0.984 . S
H727 N721 0.985 . S
H728 N725 0.984 . S
H729 N725 0.985 . S
H730 N724 0.984 . S
H731 N724 0.984 . S
H732 N720 0.984 . S
H733 N720 0.985 . S
C734 C735 1.363 . S
C734 C740 1.379 . S
C734 N742 1.356 . S
C735 C734 1.363 . S
C735 C741 1.363 . S
C736 C737 1.363 . S
C736 C741 1.379 . S
C736 N743 1.356 . S
C737 C736 1.363 . S
C737 C740 1.363 . S
N738 C740 1.356 . S
N738 H750 0.984 . S
N738 H751 0.985 . S
N739 C741 1.356 . S
N739 H744 0.984 . S
N739 H745 0.985 . S
C740 C734 1.379 . S
C740 C737 1.363 . S
C740 N738 1.356 . S
C741 C735 1.363 . S
C741 C736 1.379 . S
C741 N739 1.356 . S
N742 C734 1.356 . S
N742 H748 0.984 . S
N742 H749 0.984 . S
N743 C736 1.356 . S
N743 H746 0.984 . S
N743 H747 0.985 . S
H744 N739 0.984 . S
H745 N739 0.985 . S
H746 N743 0.984 . S
H747 N743 0.985 . S
H748 N742 0.984 . S
H749 N742 0.984 . S
H750 N738 0.984 . S
H751 N738 0.985 . S
C321 C20 2.098 . S
C323 C31 2.098 . S
C339 C60 2.098 . S
C341 C71 2.098 . S
C357 C100 2.098 . S
C359 C111 2.098 . S
C375 C140 2.098 . S
C377 C151 2.098 . S
C393 C180 2.098 . S
C395 C191 2.098 . S
C411 C231 2.098 . S
C413 C220 2.098 . S
C429 C260 2.098 . S
C431 C271 2.098 . S
C447 C311 2.098 . S
C449 C300 2.098 . S
C465 C44 2.654 . S
C467 C25 2.653 1_554 S
C483 C145 2.653 . S
C485 C84 2.653 . S
C501 C185 2.652 1_554 S
C503 C204 2.653 . S
C519 C244 2.654 . S
C521 C305 2.654 . S
C537 C4 1.883 . S
C539 C225 1.883 . S
C555 C164 1.883 . S
C557 C65 1.883 . S
C573 C105 1.884 . S
C575 C284 1.884 . S
C591 C124 1.884 . S
C593 C265 1.884 . S
C609 C23 1.441 . S
C611 C143 1.441 . S
C627 C63 1.652 . S
C629 C103 1.652 . S
C645 C42 1.441 . S
C647 C82 1.441 . S
C663 C122 1.652 . S
C665 C2 1.652 . S
C681 C183 1.440 . S
C683 C303 1.440 . S
C699 C223 1.652 . S
C701 C263 1.652 . S
C717 C202 1.440 . S
C719 C242 1.440 . S
C735 C282 1.653 . S
C737 C162 1.653 . S
