# Generated by pormake.
# Topology wje, (4)-cn, num edge types: 1
# Building blocks:
#     Node 0, Type 0, BuildingBlock: NAHDIM_clean_sbu_0, # of connection points: 4
#     Node 1, Type 0, BuildingBlock: NAHDIM_clean_sbu_0, # of connection points: 4
#     Node 2, Type 0, BuildingBlock: NAHDIM_clean_sbu_0, # of connection points: 4
#     Node 3, Type 0, BuildingBlock: NAHDIM_clean_sbu_0, # of connection points: 4
#     Node 4, Type 0, BuildingBlock: NAHDIM_clean_sbu_0, # of connection points: 4
#     Node 5, Type 0, BuildingBlock: NAHDIM_clean_sbu_0, # of connection points: 4
#     Node 6, Type 0, BuildingBlock: NAHDIM_clean_sbu_0, # of connection points: 4
#     Node 7, Type 0, BuildingBlock: NAHDIM_clean_sbu_0, # of connection points: 4
#     Node 8, Type 0, BuildingBlock: NAHDIM_clean_sbu_0, # of connection points: 4
#     Node 9, Type 0, BuildingBlock: NAHDIM_clean_sbu_0, # of connection points: 4
#     Node 10, Type 0, BuildingBlock: NAHDIM_clean_sbu_0, # of connection points: 4
#     Node 11, Type 0, BuildingBlock: NAHDIM_clean_sbu_0, # of connection points: 4
#     Edge 12, Type (0, 0), BuildingBlock: XIVTED_clean_linker_0, # of connection points: 2
#     Edge 13, Type (0, 0), BuildingBlock: XIVTED_clean_linker_0, # of connection points: 2
#     Edge 14, Type (0, 0), BuildingBlock: XIVTED_clean_linker_0, # of connection points: 2
#     Edge 15, Type (0, 0), BuildingBlock: XIVTED_clean_linker_0, # of connection points: 2
#     Edge 16, Type (0, 0), BuildingBlock: XIVTED_clean_linker_0, # of connection points: 2
#     Edge 17, Type (0, 0), BuildingBlock: XIVTED_clean_linker_0, # of connection points: 2
#     Edge 18, Type (0, 0), BuildingBlock: XIVTED_clean_linker_0, # of connection points: 2
#     Edge 19, Type (0, 0), BuildingBlock: XIVTED_clean_linker_0, # of connection points: 2
#     Edge 20, Type (0, 0), BuildingBlock: XIVTED_clean_linker_0, # of connection points: 2
#     Edge 21, Type (0, 0), BuildingBlock: XIVTED_clean_linker_0, # of connection points: 2
#     Edge 22, Type (0, 0), BuildingBlock: XIVTED_clean_linker_0, # of connection points: 2
#     Edge 23, Type (0, 0), BuildingBlock: XIVTED_clean_linker_0, # of connection points: 2
#     Edge 24, Type (0, 0), BuildingBlock: XIVTED_clean_linker_0, # of connection points: 2
#     Edge 25, Type (0, 0), BuildingBlock: XIVTED_clean_linker_0, # of connection points: 2
#     Edge 26, Type (0, 0), BuildingBlock: XIVTED_clean_linker_0, # of connection points: 2
#     Edge 27, Type (0, 0), BuildingBlock: XIVTED_clean_linker_0, # of connection points: 2
#     Edge 28, Type (0, 0), BuildingBlock: XIVTED_clean_linker_0, # of connection points: 2
#     Edge 29, Type (0, 0), BuildingBlock: XIVTED_clean_linker_0, # of connection points: 2
#     Edge 30, Type (0, 0), BuildingBlock: XIVTED_clean_linker_0, # of connection points: 2
#     Edge 31, Type (0, 0), BuildingBlock: XIVTED_clean_linker_0, # of connection points: 2
#     Edge 32, Type (0, 0), BuildingBlock: XIVTED_clean_linker_0, # of connection points: 2
#     Edge 33, Type (0, 0), BuildingBlock: XIVTED_clean_linker_0, # of connection points: 2
#     Edge 34, Type (0, 0), BuildingBlock: XIVTED_clean_linker_0, # of connection points: 2
#     Edge 35, Type (0, 0), BuildingBlock: XIVTED_clean_linker_0, # of connection points: 2
# Relax obj value: 0.167
# Max RMSD: 0.138
# Mean RMSD: 0.138
data_MOF--net-wje--node1-NAHDIM_clean_sbu_0--edge1-XIVTED_clean_linker_0
_symmetry_space_group_name_H-M    P1
_symmetry_Int_Tables_number       1
_symmetry_cell_setting            triclinic
loop_
_symmetry_equiv_pos_as_xyz
'x, y, z'
_cell_length_a     41.907969
_cell_length_b     41.772976
_cell_length_c     36.073557
_cell_angle_alpha  89.948944
_cell_angle_beta   90.186762
_cell_angle_gamma 120.06677
loop_
_atom_site_label
_atom_site_type_symbol
_atom_site_fract_x
_atom_site_fract_y
_atom_site_fract_z
_atom_type_partial_charge
C0 C 0.28837 0.03669 0.22299 0.0
O1 O 0.27782 0.00525 0.20572 0.0
O2 O 0.27964 0.9556 0.27094 0.0
Zn3 Zn 0.32063 0.00835 0.27515 0.0
O4 O 0.36837 0.01634 0.25453 0.0
C5 C 0.29934 0.0073 0.3496 0.0
O6 O 0.2673 -0.00461 0.33317 0.0
O7 O 0.3068 0.0436 0.25285 0.0
C8 C 0.37267 -0.00655 0.23509 0.0
O9 O 0.3437 0.962 0.22525 0.0
C10 C 0.28186 0.93294 0.29289 0.0
O11 O 0.31243 0.94401 0.3119 0.0
O12 O 0.32784 0.0175 0.32981 0.0
C13 C 0.27124 0.33627 0.5579 0.0
O14 O 0.29882 0.33614 0.5408 0.0
O15 O 0.30936 0.28504 0.60491 0.0
Zn16 Zn 0.31037 0.33182 0.62019 0.0
O17 O 0.35948 0.37739 0.60894 0.0
C18 C 0.31222 0.30907 0.6946 0.0
O19 O 0.33003 0.29485 0.67786 0.0
O20 O 0.27008 0.33484 0.59309 0.0
C21 C 0.38725 0.38675 0.62986 0.0
O22 O 0.3839 0.36632 0.65885 0.0
C23 C 0.33739 0.2824 0.59663 0.0
O24 O 0.3694 0.31265 0.59216 0.0
O25 O 0.30068 0.32703 0.67567 0.0
C26 C 0.91671 0.27962 0.87239 0.0
O27 O 0.94117 0.30401 0.84952 0.0
O28 O 0.01197 0.31421 0.91375 0.0
Zn29 Zn 0.9713 0.32431 0.92642 0.0
O30 O 0.98035 0.3736 0.90754 0.0
C31 C -0.00092 0.33403 0.00097 0.0
O32 O 0.02999 0.34405 0.98325 0.0
O33 O 0.92347 0.28303 0.90695 0.0
C34 C 0.00875 0.40331 0.91797 0.0
O35 O 0.03273 0.40137 0.93999 0.0
C36 C 0.04181 0.33494 0.89667 0.0
O37 O 0.04603 0.36454 0.87951 0.0
O38 O 0.96969 0.3245 0.9825 0.0
C39 C 0.65471 0.93006 0.23696 0.0
O40 O 0.64958 0.95216 0.21492 0.0
O41 O 0.71222 0.02653 0.28813 0.0
Zn42 Zn 0.66095 0.9825 0.29179 0.0
O43 O 0.62203 0.98953 0.266 0.0
C44 C 0.66306 0.00202 0.36826 0.0
O45 O 0.68456 0.03527 0.35482 0.0
O46 O 0.66041 0.9377 0.27126 0.0
C47 C 0.61391 0.01336 0.27731 0.0
O48 O 0.63213 0.03475 0.30543 0.0
C49 C 0.72067 0.0582 0.27554 0.0
O50 O 0.69543 0.06288 0.25884 0.0
O51 O 0.64909 0.97441 0.34636 0.0
C52 C 0.7476 0.68383 0.59386 0.0
O53 O 0.72187 0.68941 0.57968 0.0
O54 O 0.69163 0.70773 0.65286 0.0
Zn55 Zn 0.7 0.66464 0.65584 0.0
O56 O 0.65541 0.61856 0.63731 0.0
C57 C 0.67466 0.64934 0.7278 0.0
O58 O 0.64524 0.64272 0.70865 0.0
O59 O 0.74483 0.67355 0.62743 0.0
C60 C 0.63057 0.61879 0.61721 0.0
O61 O 0.63471 0.65053 0.60583 0.0
C62 C 0.71526 0.73763 0.6684 0.0
O63 O 0.74588 0.74033 0.68127 0.0
O64 O 0.70443 0.65848 0.71053 0.0
C65 C 0.01655 0.7318 0.8779 0.0
O66 O -0.00486 0.70149 0.85911 0.0
O67 O 0.92921 0.67261 0.94183 0.0
Zn68 Zn 0.98139 0.68371 0.93929 0.0
O69 O 0.98389 0.6414 0.91643 0.0
C70 C -0.01392 0.70505 0.01401 0.0
O71 O 0.97163 0.72372 -0.0007 0.0
O72 O 0.01469 0.73111 0.91303 0.0
C73 C 0.0148 0.6427 0.91536 0.0
O74 O 0.0443 0.67248 0.92759 0.0
C75 C 0.90857 0.64371 0.96055 0.0
O76 O 0.9211 0.62158 0.9698 0.0
O77 O -0.00402 0.68735 0.99278 0.0
C78 C 0.93377 0.67277 0.42938 0.0
O79 O 0.95584 0.66153 0.44235 0.0
O80 O 0.01562 0.70674 0.35776 0.0
Zn81 Zn 0.96322 0.66542 0.3606 0.0
O82 O 0.95966 0.61693 0.37413 0.0
C83 C 0.96496 0.65198 0.28624 0.0
O84 O -0.01208 0.64276 0.30104 0.0
O85 O 0.93247 0.67703 0.39463 0.0
C86 C 0.98511 0.6137 0.38977 0.0
O87 O 0.01553 0.64352 0.40013 0.0
C88 C 0.04057 0.72608 0.38119 0.0
O89 O 0.03394 0.7202 0.41684 0.0
O90 O 0.94704 0.66151 0.30757 0.0
C91 C 0.23352 0.93977 0.75248 0.0
O92 O 0.25759 0.9687 0.77154 0.0
O93 O 0.2951 0.02314 0.69601 0.0
Zn94 Zn 0.28808 0.97206 0.69489 0.0
O95 O 0.33097 0.97058 0.71785 0.0
C96 C 0.3126 0.96727 0.62133 0.0
O97 O 0.34459 0.97908 0.63779 0.0
O98 O 0.24082 0.93575 0.71927 0.0
C99 C 0.3301 0.93978 0.7196 0.0
O100 O 0.30056 0.90981 0.70777 0.0
C101 C 0.32528 0.04952 0.68377 0.0
O102 O 0.35224 0.04324 0.67592 0.0
O103 O 0.28454 0.9601 0.64072 0.0
C104 C 0.27564 0.24605 0.10562 0.0
O105 O 0.28657 0.27722 0.12358 0.0
O106 O 0.24579 0.30378 0.0401 0.0
Zn107 Zn 0.2866 0.29219 0.0426 0.0
O108 O 0.33208 0.3349 0.0642 0.0
C109 C 0.26883 0.27046 0.96764 0.0
O110 O 0.23545 0.25559 0.98151 0.0
O111 O 0.27259 0.24561 0.07057 0.0
C112 C 0.362 0.3342 0.06297 0.0
O113 O 0.36168 0.30501 0.04898 0.0
C114 C 0.2528 0.33136 0.01969 0.0
O115 O 0.28676 0.35271 0.00809 0.0
O116 O 0.29647 0.28613 0.98931 0.0
C117 C 0.06404 0.33359 0.41505 0.0
O118 O 0.03566 0.33185 0.43234 0.0
O119 O 0.97555 0.28178 0.36477 0.0
Zn120 Zn 0.02055 0.33115 0.3541 0.0
O121 O 0.01436 0.37372 0.37133 0.0
C122 C -0.00161 0.31622 0.27807 0.0
O123 O 0.96657 0.29485 0.29413 0.0
O124 O 0.06432 0.33375 0.37983 0.0
C125 C -0.00838 0.38072 0.35501 0.0
O126 O 0.9716 0.3594 0.32759 0.0
C127 C 0.94544 0.27739 0.37764 0.0
O128 O 0.94417 0.30611 0.39052 0.0
O129 O 0.02694 0.33479 0.29815 0.0
C130 C 0.69641 0.04964 0.77694 0.0
O131 O 0.67566 0.02211 0.79924 0.0
O132 O 0.66746 0.9585 0.7307 0.0
Zn133 Zn 0.65266 -0.00322 0.72086 0.0
O134 O 0.60234 0.98325 0.74038 0.0
C135 C 0.64534 0.97543 0.64408 0.0
O136 O 0.63889 0.94389 0.65858 0.0
O137 O 0.69116 0.04523 0.74219 0.0
C138 C 0.57364 0.95671 0.72573 0.0
O139 O 0.57734 0.93705 0.6995 0.0
C140 C 0.6469 0.92587 0.74272 0.0
O141 O 0.61327 0.91562 0.75362 0.0
O142 O 0.65206 0.00236 0.66538 0.0
C143 C 0.6464 0.70357 0.13273 0.0
O144 O 0.65783 0.68494 0.15275 0.0
O145 O 0.68993 0.65781 0.0864 0.0
Zn146 Zn 0.64043 0.65254 0.07619 0.0
O147 O 0.59869 0.6028 0.09129 0.0
C148 C 0.66829 0.67616 0.00312 0.0
O149 O 0.69868 0.69719 0.02187 0.0
O150 O 0.63686 0.69414 0.09927 0.0
C151 C 0.59477 0.5753 0.07256 0.0
O152 O 0.61844 0.58082 0.04606 0.0
C153 C 0.6967 0.63262 0.09624 0.0
O154 O 0.66965 0.6007 0.10779 0.0
O155 O 0.63856 0.65581 0.02065 0.0
H156 H 0.25594 0.03481 0.15624 0.0
H157 H 0.28745 0.23926 0.17918 0.0
H158 H 0.30283 0.10236 0.25389 0.0
H159 H 0.2529 0.17727 0.07688 0.0
H160 H 0.2852 0.18595 0.20966 0.0
H161 H 0.24696 0.0835 0.12934 0.0
C162 C 0.26414 0.05975 0.17212 0.0
C163 C 0.28051 0.06468 0.2072 0.0
C164 C 0.27786 0.18393 0.1806 0.0
C165 C 0.27029 0.12043 0.17663 0.0
C166 C 0.27905 0.21434 0.1632 0.0
C167 C 0.27073 0.21287 0.12533 0.0
C168 C 0.26826 0.1518 0.16 0.0
C169 C 0.25987 0.17976 0.10606 0.0
C170 C 0.25902 0.08755 0.15674 0.0
C171 C 0.29042 0.0975 0.2266 0.0
N172 N 0.25919 0.15062 0.12355 0.0
N173 N 0.28532 0.12418 0.21098 0.0
H174 H 0.26514 0.3389 0.48253 0.0
H175 H 0.07169 0.33374 0.49039 0.0
H176 H 0.20972 0.33571 0.58433 0.0
H177 H 0.12677 0.33671 0.38841 0.0
H178 H 0.12253 0.33545 0.52523 0.0
H179 H 0.21529 0.33919 0.44756 0.0
C180 C 0.24253 0.33832 0.49756 0.0
C181 C 0.24159 0.33721 0.53644 0.0
C182 C 0.12354 0.33577 0.49523 0.0
C183 C 0.18437 0.3375 0.49654 0.0
C184 C 0.09449 0.33479 0.47529 0.0
C185 C 0.09492 0.33503 0.43639 0.0
C186 C 0.1533 0.33698 0.47618 0.0
C187 C 0.12524 0.33644 0.41836 0.0
C188 C 0.21405 0.33848 0.47755 0.0
C189 C 0.21159 0.33654 0.55439 0.0
N190 N 0.15319 0.33732 0.43841 0.0
N191 N 0.18417 0.33664 0.53429 0.0
H192 H 0.71625 0.06847 0.84958 0.0
H193 H 0.89346 0.26344 0.80025 0.0
H194 H 0.74579 0.1109 0.73817 0.0
H195 H 0.86213 0.22262 0.91194 0.0
H196 H 0.8382 0.20875 0.77714 0.0
H197 H 0.76828 0.12578 0.87317 0.0
C198 C 0.73357 0.08988 0.83008 0.0
C199 C 0.72673 0.08479 0.79183 0.0
C200 C 0.84333 0.21183 0.80672 0.0
C201 C 0.78641 0.15043 0.81863 0.0
C202 C 0.8749 0.24307 0.81994 0.0
C203 C 0.88254 0.24756 0.85808 0.0
C204 C 0.81925 0.1848 0.83181 0.0
C205 C 0.85742 0.22028 0.8823 0.0
C206 C 0.76329 0.12261 0.84357 0.0
C207 C 0.75007 0.11354 0.76788 0.0
N208 N 0.827 0.19001 0.86874 0.0
N209 N 0.77893 0.14504 0.78167 0.0
H210 H 0.62823 0.75022 0.09737 0.0
H211 H 0.66646 0.87986 0.27449 0.0
H212 H 0.66408 0.73128 0.20336 0.0
H213 H 0.63969 0.90347 0.1659 0.0
H214 H 0.66354 0.82411 0.24963 0.0
H215 H 0.62977 0.80503 0.12283 0.0
C216 C 0.63633 0.75751 0.12606 0.0
C217 C 0.64611 0.73613 0.14827 0.0
C218 C 0.65833 0.84149 0.23124 0.0
C219 C 0.64799 0.79899 0.17758 0.0
C220 C 0.65998 0.87335 0.24541 0.0
C221 C 0.65333 0.8964 0.22222 0.0
C222 C 0.64986 0.83254 0.19363 0.0
C223 C 0.64506 0.88655 0.18478 0.0
C224 C 0.63727 0.78889 0.14056 0.0
C225 C 0.65638 0.74697 0.18522 0.0
N226 N 0.64353 0.85533 0.17167 0.0
N227 N 0.65707 0.77767 0.19872 0.0
H228 H 0.92846 0.66445 0.50478 0.0
H229 H 0.7603 0.70319 0.52064 0.0
H230 H 0.8834 0.69399 0.41173 0.0
H231 H 0.80367 0.67124 0.61331 0.0
H232 H 0.80797 0.70413 0.48117 0.0
H233 H 0.88569 0.67085 0.54572 0.0
C234 C 0.9097 0.67245 0.49295 0.0
C235 C 0.90938 0.67848 0.45471 0.0
C236 C 0.80719 0.69709 0.51017 0.0
C237 C 0.86026 0.6858 0.50146 0.0
C238 C 0.77997 0.69658 0.53276 0.0
C239 C 0.77783 0.6869 0.57031 0.0
C240 C 0.83245 0.6878 0.52518 0.0
C241 C 0.80417 0.67871 0.58449 0.0
C242 C 0.88526 0.6761 0.51637 0.0
C243 C 0.88452 0.68891 0.441 0.0
N244 N 0.83026 0.67917 0.56187 0.0
N245 N 0.86086 0.69208 0.46434 0.0
H246 H 0.17751 0.87794 0.71992 0.0
H247 H 0.06579 0.79864 0.90857 0.0
H248 H 0.21051 0.93666 0.82414 0.0
H249 H 0.03247 0.74102 0.80378 0.0
H250 H 0.11629 0.85152 0.8773 0.0
H251 H 0.12188 0.82955 0.74936 0.0
C252 C 0.173 0.88076 0.74899 0.0
C253 C 0.19887 0.9113 0.76968 0.0
C254 C 0.09779 0.82742 0.86109 0.0
C255 C 0.13514 0.85584 0.80361 0.0
C256 C 0.0689 0.7972 0.87892 0.0
C257 C 0.04503 0.76521 0.8588 0.0
C258 C 0.10295 0.82561 0.82288 0.0
C259 C 0.0503 0.76501 0.82043 0.0
C260 C 0.14117 0.85309 0.76578 0.0
C261 C 0.19141 0.91352 0.80718 0.0
N262 N 0.07886 0.79464 0.80377 0.0
N263 N 0.16032 0.88603 0.82301 0.0
H264 H 0.3935 0.9453 0.20769 0.0
H265 H 0.5969 0.06789 0.28604 0.0
H266 H 0.43779 0.05647 0.24951 0.0
H267 H 0.55908 0.96265 0.23215 0.0
H268 H 0.54093 0.06696 0.26583 0.0
H269 H 0.45565 0.95372 0.20883 0.0
C270 C 0.41634 0.97168 0.21649 0.0
C271 C 0.41034 -3e-05 0.2292 0.0
C272 C 0.54497 0.04422 0.258 0.0
C273 C 0.48133 0.00966 0.23087 0.0
C274 C 0.57693 0.04471 0.26965 0.0
C275 C 0.58237 0.01505 0.26123 0.0
C276 C 0.51793 0.01356 0.23825 0.0
C277 C 0.55581 0.98597 0.23948 0.0
C278 C 0.45181 0.97644 0.2172 0.0
C279 C 0.44099 0.03364 0.24007 0.0
N280 N 0.52441 0.98567 0.2292 0.0
N281 N 0.47503 0.03735 0.24113 0.0
H282 H 0.5684 0.60915 0.58152 0.0
H283 H 0.40358 0.43898 0.57564 0.0
H284 H 0.6124 0.54922 0.63957 0.0
H285 H 0.45247 0.41061 0.66613 0.0
H286 H 0.46285 0.49504 0.56503 0.0
H287 H 0.50845 0.55266 0.57876 0.0
C288 C 0.56562 0.58394 0.59306 0.0
C289 C 0.59544 0.584 0.61098 0.0
C290 C 0.46056 0.47685 0.58749 0.0
C291 C 0.52693 0.51894 0.60754 0.0
C292 C 0.42675 0.44463 0.59336 0.0
C293 C 0.42296 0.42029 0.62209 0.0
C294 C 0.49069 0.4847 0.61062 0.0
C295 C 0.45396 0.42873 0.6439 0.0
C296 C 0.53134 0.55151 0.59127 0.0
C297 C 0.59019 0.55057 0.62562 0.0
N298 N 0.48644 0.4602 0.63772 0.0
N299 N 0.55654 0.51956 0.62391 0.0
H300 H 0.95948 0.57716 0.88769 0.0
H301 H 0.06899 0.47147 0.9298 0.0
H302 H 0.07401 0.63211 0.92061 0.0
H303 H 0.95882 0.41803 0.88419 0.0
H304 H 0.07345 0.53139 0.92042 0.0
H305 H 0.96068 0.51975 0.87977 0.0
C306 C 0.98502 0.57727 0.89283 0.0
C307 C 0.01656 0.60935 0.90538 0.0
C308 C 0.04844 0.50661 0.91205 0.0
C309 C 0.01801 0.54364 0.89667 0.0
C310 C 0.04584 0.47235 0.91748 0.0
C311 C 0.01328 0.43968 0.90826 0.0
C312 C 0.0181 0.50823 0.89766 0.0
C313 C 0.98433 0.44252 0.89199 0.0
C314 C -0.01431 0.54446 0.88828 0.0
C315 C 0.04895 0.60795 0.91125 0.0
N316 N -0.01276 0.4762 0.88766 0.0
N317 N 0.0487 0.5755 0.90733 0.0
H318 H 0.92842 0.54743 0.3655 0.0
H319 H 0.03552 0.43688 0.40288 0.0
H320 H 0.03538 0.59636 0.41818 0.0
H321 H 0.93975 0.39775 0.33222 0.0
H322 H 0.03114 0.49184 0.41728 0.0
H323 H 0.92726 0.48858 0.36226 0.0
C324 C 0.95153 0.54574 0.37675 0.0
C325 C 0.98226 0.57702 0.39176 0.0
C326 C 0.01099 0.47108 0.39881 0.0
C327 C 0.98114 0.50965 0.38793 0.0
C328 C 0.01342 0.4397 0.39062 0.0
C329 C -0.01185 0.41288 0.36604 0.0
C330 C 0.98295 0.47547 0.38247 0.0
C331 C 0.96004 0.41789 0.35104 0.0
C332 C 0.95088 0.51211 0.37477 0.0
C333 C 0.01127 0.57304 0.4061 0.0
N334 N 0.95828 0.44863 0.35939 0.0
N335 N 0.01013 0.54001 0.40357 0.0
H336 H 0.55607 0.002 0.76485 0.0
H337 H 0.34147 0.88084 0.71565 0.0
H338 H 0.50698 0.8975 0.70697 0.0
H339 H 0.39505 -0.00405 0.74737 0.0
H340 H 0.39949 0.88154 0.72567 0.0
H341 H 0.49474 -0.00515 0.77182 0.0
C342 C 0.53236 0.9773 0.75411 0.0
C343 C 0.53665 0.95053 0.73483 0.0
C344 C 0.39842 0.90653 0.7308 0.0
C345 C 0.4666 0.94225 0.74269 0.0
C346 C 0.36529 0.90614 0.72518 0.0
C347 C 0.36355 0.93854 0.73017 0.0
C348 C 0.43 0.93949 0.74162 0.0
C349 C 0.39527 0.97045 0.74276 0.0
C350 C 0.49741 0.97331 0.75798 0.0
C351 C 0.50497 0.91904 0.72158 0.0
N352 N 0.42729 0.97021 0.74776 0.0
N353 N 0.47131 0.9159 0.72552 0.0
H354 H 0.37235 0.39766 0.09621 0.0
H355 H 0.58517 0.50978 0.04655 0.0
H356 H 0.43186 0.34659 0.05231 0.0
H357 H 0.53194 0.55585 0.1122 0.0
H358 H 0.52994 0.449 0.05134 0.0
H359 H 0.43085 0.45495 0.10558 0.0
C360 C 0.39774 0.39837 0.0889 0.0
C361 C 0.3972 0.36744 0.07301 0.0
C362 C 0.53043 0.47229 0.06506 0.0
C363 C 0.46417 0.43296 0.08338 0.0
C364 C 0.56193 0.50704 0.06223 0.0
C365 C 0.56296 0.53796 0.07865 0.0
C366 C 0.49951 0.46849 0.08402 0.0
C367 C 0.53222 0.53275 0.09896 0.0
C368 C 0.43114 0.43107 0.09432 0.0
C369 C 0.43095 0.36983 0.06437 0.0
N370 N 0.50151 0.49872 0.10066 0.0
N371 N 0.46303 0.40219 0.06923 0.0
H372 H 0.05836 0.75175 0.31048 0.0
H373 H 0.2715 0.8891 0.35311 0.0
H374 H 0.10561 0.76566 0.41995 0.0
H375 H 0.21552 0.8982 0.25645 0.0
H376 H 0.21336 0.83672 0.37426 0.0
H377 H 0.11811 0.79887 0.28717 0.0
C378 C 0.08133 0.76468 0.32968 0.0
C379 C 0.07692 0.75484 0.36735 0.0
C380 C 0.21392 0.85002 0.34829 0.0
C381 C 0.14559 0.80875 0.34056 0.0
C382 C 0.24713 0.87971 0.33599 0.0
C383 C 0.24831 0.89812 0.30297 0.0
C384 C 0.18178 0.83843 0.32723 0.0
C385 C 0.21582 0.88489 0.28211 0.0
C386 C 0.11544 0.79163 0.31628 0.0
C387 C 0.10773 0.77257 0.3908 0.0
N388 N 0.18383 0.85589 0.29465 0.0
N389 N 0.14087 0.79869 0.37699 0.0
H390 H 0.39403 0.26727 0.59476 0.0
H391 H 0.27125 0.06802 0.68658 0.0
H392 H 0.27663 0.21577 0.61251 0.0
H393 H 0.38455 0.11068 0.65406 0.0
H394 H 0.27379 0.1234 0.66131 0.0
H395 H 0.39164 0.21038 0.61569 0.0
C396 C 0.36766 0.24384 0.60243 0.0
C397 C 0.33554 0.24644 0.60216 0.0
C398 C 0.29814 0.1207 0.65973 0.0
C399 C 0.33277 0.18163 0.6268 0.0
C400 C 0.2968 0.08919 0.67445 0.0
C401 C 0.32774 0.08468 0.67242 0.0
C402 C 0.33069 0.14803 0.64297 0.0
C403 C 0.36004 0.11301 0.65623 0.0
C404 C 0.36637 0.21146 0.61462 0.0
C405 C 0.30216 0.21517 0.61247 0.0
N406 N 0.36067 0.14348 0.64208 0.0
N407 N 0.30173 0.18425 0.62473 0.0
H408 H 0.25765 0.38512 0.97275 0.0
H409 H 0.0419 0.27531 0.9272 0.0
H410 H 0.17875 0.2828 0.02521 0.0
H411 H 0.11519 0.38649 0.88882 0.0
H412 H 0.09408 0.27456 0.95611 0.0
H413 H 0.20746 0.38436 0.93724 0.0
C414 C 0.22974 0.36272 0.97713 0.0
C415 C 0.22237 0.33401 0.00207 0.0
C416 C 0.09887 0.29901 0.94108 0.0
C417 C 0.16505 0.33262 0.96099 0.0
C418 C 0.06912 0.29935 0.92425 0.0
C419 C 0.07412 0.33119 0.90594 0.0
C420 C 0.13394 0.33075 0.93965 0.0
C421 C 0.11006 0.3614 0.90277 0.0
C422 C 0.20117 0.3622 0.95666 0.0
C423 C 0.18572 0.30561 0.00646 0.0
N424 N 0.13861 0.36062 0.9199 0.0
N425 N 0.15848 0.30555 0.98597 0.0
H426 H 0.87542 0.26634 0.3747 0.0
H427 H 0.78276 0.05904 0.30041 0.0
H428 H 0.93735 0.21032 0.35877 0.0
H429 H 0.7379 0.13048 0.27923 0.0
H430 H 0.83714 0.11127 0.32854 0.0
H431 H 0.82098 0.21262 0.34877 0.0
C432 C 0.87741 0.24247 0.36644 0.0
C433 C 0.91101 0.24283 0.36877 0.0
C434 C 0.8155 0.11552 0.31744 0.0
C435 C 0.84901 0.18161 0.33868 0.0
C436 C 0.78457 0.08582 0.30126 0.0
C437 C 0.75583 0.09048 0.28738 0.0
C438 C 0.81738 0.14992 0.32031 0.0
C439 C 0.75952 0.12572 0.28933 0.0
C440 C 0.84644 0.21203 0.35123 0.0
C441 C 0.91201 0.21123 0.35733 0.0
N442 N 0.78958 0.15404 0.30587 0.0
N443 N 0.88147 0.18189 0.34267 0.0
H444 H 0.64757 0.73224 0.66465 0.0
H445 H 0.71665 0.93826 0.73146 0.0
H446 H 0.76113 0.80789 0.69377 0.0
H447 H 0.60335 0.85058 0.7399 0.0
H448 H 0.73406 0.89269 0.71325 0.0
H449 H 0.63131 0.77776 0.68585 0.0
C450 C 0.66917 0.75859 0.6751 0.0
C451 C 0.70579 0.76633 0.67743 0.0
C452 C 0.70547 0.88342 0.71947 0.0
C453 C 0.68728 0.81834 0.70197 0.0
C454 C 0.69551 0.90936 0.72993 0.0
C455 C 0.65848 0.89817 0.73716 0.0
C456 C 0.67811 0.84615 0.71561 0.0
C457 C 0.63223 0.86039 0.73473 0.0
C458 C 0.65979 0.78439 0.68753 0.0
C459 C 0.73256 0.80081 0.69152 0.0
N460 N 0.64249 0.83577 0.72373 0.0
N461 N 0.72279 0.82562 0.70319 0.0
H462 H 0.75782 0.6944 0.07083 0.0
H463 H 0.85809 0.58545 0.00186 0.0
H464 H 0.71545 0.57841 0.09308 0.0
H465 H 0.88475 0.69384 0.96299 0.0
H466 H 0.80889 0.58344 0.03984 0.0
H467 H 0.80963 0.69662 0.03818 0.0
C468 C 0.75971 0.6695 0.06941 0.0
C469 C 0.73195 0.63602 0.08432 0.0
C470 C 0.82539 0.60755 0.02282 0.0
C471 C 0.79103 0.63832 0.0464 0.0
C472 C 0.85331 0.60863 0.00095 0.0
C473 C 0.87551 0.63984 0.97915 0.0
C474 C 0.81987 0.63801 0.0231 0.0
C475 C 0.8682 0.66914 0.97919 0.0
C476 C 0.78918 0.67074 0.05046 0.0
C477 C 0.7361 0.60476 0.08187 0.0
N478 N 0.84115 0.66759 0.00102 0.0
N479 N 0.76492 0.60657 0.06285 0.0
H480 H 0.24266 0.98013 0.39936 0.0
H481 H 0.36876 0.99015 0.57111 0.0
H482 H 0.36008 0.02349 0.39173 0.0
H483 H 0.25162 0.94855 0.57869 0.0
H484 H 0.36575 1e-05 0.50474 0.0
H485 H 0.24535 0.96757 0.46501 0.0
C486 C 0.26908 0.98734 0.41155 0.0
C487 C 0.30121 0.00296 0.39002 0.0
C488 C 0.34067 0.98852 0.5209 0.0
C489 C 0.30441 0.98821 0.4651 0.0
C490 C 0.34233 0.98268 0.55877 0.0
C491 C 0.31044 0.9687 0.58055 0.0
C492 C 0.30688 0.98036 0.50472 0.0
C493 C 0.27695 0.95954 0.56303 0.0
C494 C 0.27056 0.97995 0.44902 0.0
C495 C 0.33463 0.01151 0.40729 0.0
N496 N 0.27611 0.96574 0.5262 0.0
N497 N 0.33534 0.00393 0.4438 0.0
H498 H 0.21908 0.26351 0.91474 0.0
H499 H 0.34991 0.2913 0.74409 0.0
H500 H 0.33078 0.28588 0.92857 0.0
H501 H 0.26131 0.31552 0.73687 0.0
H502 H 0.33909 0.28102 0.8106 0.0
H503 H 0.22966 0.27363 0.84801 0.0
C504 C 0.2457 0.27013 0.90368 0.0
C505 C 0.27411 0.27373 0.92715 0.0
C506 C 0.32211 0.28871 0.79448 0.0
C507 C 0.28628 0.2854 0.85105 0.0
C508 C 0.32816 0.29448 0.75653 0.0
C509 C 0.30643 0.30427 0.73497 0.0
C510 C 0.29373 0.29214 0.81096 0.0
C511 C 0.27876 0.30816 0.75256 0.0
C512 C 0.25177 0.27622 0.86569 0.0
C513 C 0.30817 0.28282 0.91142 0.0
N514 N 0.27298 0.30178 0.78959 0.0
N515 N 0.31327 0.28819 0.87427 0.0
H516 H 0.05925 0.35463 0.23359 0.0
H517 H 0.93936 0.30733 0.04722 0.0
H518 H 0.94067 0.28616 0.22963 0.0
H519 H 0.058 0.3582 0.04793 0.0
H520 H 0.93965 0.30395 0.11485 0.0
H521 H 0.05978 0.36042 0.16592 0.0
C522 C 0.03339 0.3408 0.21853 0.0
C523 C -0.0001 0.31982 0.23728 0.0
C524 C 0.96563 0.31588 0.10019 0.0
C525 C 0.00025 0.32652 0.16013 0.0
C526 C 0.96547 0.31791 0.06159 0.0
C527 C -0.00133 0.33294 0.0419 0.0
C528 C -0.00076 0.32915 0.11924 0.0
C529 C 0.03171 0.34624 0.06198 0.0
C530 C 0.03369 0.34411 0.17995 0.0
C531 C 0.96718 0.30253 0.21638 0.0
N532 N 0.03116 0.34403 0.09956 0.0
N533 N 0.96818 0.30634 0.179 0.0
H534 H 0.62787 0.93703 0.40733 0.0
H535 H 0.66373 0.03813 0.60414 0.0
H536 H 0.68344 0.05563 0.42099 0.0
H537 H 0.62614 0.92175 0.59147 0.0
H538 H 0.66479 0.04417 0.5367 0.0
H539 H 0.62052 0.93002 0.47462 0.0
C540 C 0.63833 0.96157 0.42444 0.0
C541 C 0.65652 -0.00303 0.40857 0.0
C542 C 0.65624 0.0173 0.54871 0.0
C543 C 0.64821 0.98917 0.48542 0.0
C544 C 0.65559 0.01383 0.58719 0.0
C545 C 0.64506 0.97943 0.60344 0.0
C546 C 0.64613 0.98613 0.52633 0.0
C547 C 0.63468 0.94886 0.58013 0.0
C548 C 0.63422 0.95756 0.46283 0.0
C549 C 0.66947 0.02781 0.43206 0.0
N550 N 0.63554 0.95294 0.54274 0.0
N551 N 0.66514 0.02319 0.4693 0.0
H552 H 0.72903 0.70765 0.95836 0.0
H553 H 0.61397 0.62287 0.77181 0.0
H554 H 0.61066 0.63732 0.95522 0.0
H555 H 0.73278 0.67781 0.7768 0.0
H556 H 0.61234 0.62913 0.83883 0.0
H557 H 0.73103 0.69929 0.89157 0.0
C558 C 0.70341 0.69065 0.9436 0.0
C559 C 0.66958 0.67322 0.96241 0.0
C560 C 0.63878 0.63963 0.82535 0.0
C561 C 0.67176 0.66335 0.88599 0.0
C562 C 0.63975 0.63604 0.78706 0.0
C563 C 0.67359 0.64993 0.76868 0.0
C564 C 0.67191 0.65755 0.84549 0.0
C565 C 0.70609 0.66663 0.78988 0.0
C566 C 0.70463 0.68572 0.9055 0.0
C567 C 0.63733 0.65133 0.94187 0.0
N568 N 0.70446 0.67022 0.82719 0.0
N569 N 0.63923 0.64705 0.90477 0.0
H570 H -0.00406 0.62901 0.23403 0.0
H571 H 0.95674 0.73007 0.0664 0.0
H572 H 0.93384 0.68534 0.24605 0.0
H573 H 0.01157 0.66654 0.05382 0.0
H574 H 0.94933 0.71536 0.13245 0.0
H575 H 0.00162 0.64242 0.16788 0.0
C576 C 0.98319 0.64394 0.22269 0.0
C577 C 0.9645 0.65621 0.24564 0.0
C578 C 0.96309 0.70475 0.11526 0.0
C579 C 0.97131 0.67205 0.16983 0.0
C580 C 0.96758 0.71334 0.07758 0.0
C581 C 0.98487 0.69955 0.05453 0.0
C582 C 0.97606 0.68227 0.13006 0.0
C583 C -0.00188 0.67781 0.07053 0.0
C584 C -0.01344 0.65169 0.18489 0.0
C585 C 0.94846 0.67532 0.22936 0.0
N586 N -0.00663 0.6698 0.10729 0.0
N587 N 0.95245 0.68289 0.19245 0.0
loop_
_geom_bond_atom_site_label_1
_geom_bond_atom_site_label_2
_geom_bond_distance
_geom_bond_site_symmetry_2
_ccdc_geom_bond_type
C0 O1 1.160 . S
C0 O7 1.185 . S
O1 C0 1.160 . S
O2 Zn3 1.899 1_565 S
O2 C10 1.284 . S
Zn3 O2 1.899 1_545 S
Zn3 O4 2.032 . S
Zn3 O7 2.086 . S
Zn3 O12 1.977 . S
O4 Zn3 2.032 . S
O4 C8 1.278 1_545 S
C5 O6 1.203 1_545 S
C5 O12 1.267 . S
O6 C5 1.203 1_565 S
O7 C0 1.185 . S
O7 Zn3 2.086 . S
C8 O4 1.278 1_565 S
C8 O9 1.211 . S
O9 C8 1.211 . S
C10 O2 1.284 . S
C10 O11 1.273 . S
O11 C10 1.273 . S
O12 Zn3 1.977 . S
O12 C5 1.267 . S
C13 O14 1.160 . S
C13 O20 1.185 . S
O14 C13 1.160 . S
O15 Zn16 1.899 . S
O15 C23 1.284 . S
Zn16 O15 1.899 . S
Zn16 O17 2.032 . S
Zn16 O20 2.086 . S
Zn16 O25 1.977 . S
O17 Zn16 2.032 . S
O17 C21 1.278 . S
C18 O19 1.203 . S
C18 O25 1.267 . S
O19 C18 1.203 . S
O20 C13 1.185 . S
O20 Zn16 2.086 . S
C21 O17 1.278 . S
C21 O22 1.211 . S
O22 C21 1.211 . S
C23 O15 1.284 . S
C23 O24 1.273 . S
O24 C23 1.273 . S
O25 Zn16 1.977 . S
O25 C18 1.267 . S
C26 O27 1.160 . S
C26 O33 1.185 . S
O27 C26 1.160 . S
O28 Zn29 1.899 1_455 S
O28 C36 1.284 . S
Zn29 O28 1.899 1_655 S
Zn29 O30 2.032 . S
Zn29 O33 2.086 . S
Zn29 O38 1.977 1_556 S
O30 Zn29 2.032 . S
O30 C34 1.278 1_655 S
C31 O32 1.203 1_655 S
C31 O38 1.267 . S
O32 C31 1.203 1_455 S
O33 C26 1.185 . S
O33 Zn29 2.086 . S
C34 O30 1.278 1_455 S
C34 O35 1.211 . S
O35 C34 1.211 . S
C36 O28 1.284 . S
C36 O37 1.273 . S
O37 C36 1.273 . S
O38 Zn29 1.977 1_554 S
O38 C31 1.267 . S
C39 O40 1.160 . S
C39 O46 1.185 . S
O40 C39 1.160 . S
O41 Zn42 1.899 1_545 S
O41 C49 1.284 . S
Zn42 O41 1.899 1_565 S
Zn42 O43 2.032 . S
Zn42 O46 2.086 . S
Zn42 O51 1.977 . S
O43 Zn42 2.032 . S
O43 C47 1.278 1_565 S
C44 O45 1.203 1_565 S
C44 O51 1.267 . S
O45 C44 1.203 1_545 S
O46 C39 1.185 . S
O46 Zn42 2.086 . S
C47 O43 1.278 1_545 S
C47 O48 1.211 . S
O48 C47 1.211 . S
C49 O41 1.284 . S
C49 O50 1.273 . S
O50 C49 1.273 . S
O51 Zn42 1.977 . S
O51 C44 1.267 . S
C52 O53 1.160 . S
C52 O59 1.185 . S
O53 C52 1.160 . S
O54 Zn55 1.899 . S
O54 C62 1.284 . S
Zn55 O54 1.899 . S
Zn55 O56 2.032 . S
Zn55 O59 2.086 . S
Zn55 O64 1.977 . S
O56 Zn55 2.032 . S
O56 C60 1.278 . S
C57 O58 1.203 . S
C57 O64 1.267 . S
O58 C57 1.203 . S
O59 C52 1.185 . S
O59 Zn55 2.086 . S
C60 O56 1.278 . S
C60 O61 1.211 . S
O61 C60 1.211 . S
C62 O54 1.284 . S
C62 O63 1.273 . S
O63 C62 1.273 . S
O64 Zn55 1.977 . S
O64 C57 1.267 . S
C65 O66 1.160 . S
C65 O72 1.185 . S
O66 C65 1.160 . S
O67 Zn68 1.899 1_655 S
O67 C75 1.284 . S
Zn68 O67 1.899 1_455 S
Zn68 O69 2.032 . S
Zn68 O72 2.086 . S
Zn68 O77 1.977 1_556 S
O69 Zn68 2.032 . S
O69 C73 1.278 1_455 S
C70 O71 1.203 1_455 S
C70 O77 1.267 . S
O71 C70 1.203 1_655 S
O72 C65 1.185 . S
O72 Zn68 2.086 . S
C73 O69 1.278 1_655 S
C73 O74 1.211 . S
O74 C73 1.211 . S
C75 O67 1.284 . S
C75 O76 1.273 . S
O76 C75 1.273 . S
O77 Zn68 1.977 1_554 S
O77 C70 1.267 . S
C78 O79 1.160 . S
C78 O85 1.185 . S
O79 C78 1.160 . S
O80 Zn81 1.899 1_455 S
O80 C88 1.284 . S
Zn81 O80 1.899 1_655 S
Zn81 O82 2.032 . S
Zn81 O85 2.086 . S
Zn81 O90 1.977 . S
O82 Zn81 2.032 . S
O82 C86 1.278 1_655 S
C83 O84 1.203 1_655 S
C83 O90 1.267 . S
O84 C83 1.203 1_455 S
O85 C78 1.185 . S
O85 Zn81 2.086 . S
C86 O82 1.278 1_455 S
C86 O87 1.211 . S
O87 C86 1.211 . S
C88 O80 1.284 . S
C88 O89 1.273 . S
O89 C88 1.273 . S
O90 Zn81 1.977 . S
O90 C83 1.267 . S
C91 O92 1.160 . S
C91 O98 1.185 . S
O92 C91 1.160 . S
O93 Zn94 1.899 1_545 S
O93 C101 1.284 . S
Zn94 O93 1.899 1_565 S
Zn94 O95 2.032 . S
Zn94 O98 2.086 . S
Zn94 O103 1.977 . S
O95 Zn94 2.032 . S
O95 C99 1.278 1_565 S
C96 O97 1.203 1_565 S
C96 O103 1.267 . S
O97 C96 1.203 1_545 S
O98 C91 1.185 . S
O98 Zn94 2.086 . S
C99 O95 1.278 1_545 S
C99 O100 1.211 . S
O100 C99 1.211 . S
C101 O93 1.284 . S
C101 O102 1.273 . S
O102 C101 1.273 . S
O103 Zn94 1.977 . S
O103 C96 1.267 . S
C104 O105 1.160 . S
C104 O111 1.185 . S
O105 C104 1.160 . S
O106 Zn107 1.899 . S
O106 C114 1.284 . S
Zn107 O106 1.899 . S
Zn107 O108 2.032 . S
Zn107 O111 2.086 . S
Zn107 O116 1.977 1_554 S
O108 Zn107 2.032 . S
O108 C112 1.278 . S
C109 O110 1.203 . S
C109 O116 1.267 . S
O110 C109 1.203 . S
O111 C104 1.185 . S
O111 Zn107 2.086 . S
C112 O108 1.278 . S
C112 O113 1.211 . S
O113 C112 1.211 . S
C114 O106 1.284 . S
C114 O115 1.273 . S
O115 C114 1.273 . S
O116 Zn107 1.977 1_556 S
O116 C109 1.267 . S
C117 O118 1.160 . S
C117 O124 1.185 . S
O118 C117 1.160 . S
O119 Zn120 1.899 1_655 S
O119 C127 1.284 . S
Zn120 O119 1.899 1_455 S
Zn120 O121 2.032 . S
Zn120 O124 2.086 . S
Zn120 O129 1.977 . S
O121 Zn120 2.032 . S
O121 C125 1.278 1_455 S
C122 O123 1.203 1_455 S
C122 O129 1.267 . S
O123 C122 1.203 1_655 S
O124 C117 1.185 . S
O124 Zn120 2.086 . S
C125 O121 1.278 1_655 S
C125 O126 1.211 . S
O126 C125 1.211 . S
C127 O119 1.284 . S
C127 O128 1.273 . S
O128 C127 1.273 . S
O129 Zn120 1.977 . S
O129 C122 1.267 . S
C130 O131 1.160 . S
C130 O137 1.185 . S
O131 C130 1.160 . S
O132 Zn133 1.899 1_565 S
O132 C140 1.284 . S
Zn133 O132 1.899 1_545 S
Zn133 O134 2.032 . S
Zn133 O137 2.086 . S
Zn133 O142 1.977 . S
O134 Zn133 2.032 . S
O134 C138 1.278 1_545 S
C135 O136 1.203 1_545 S
C135 O142 1.267 . S
O136 C135 1.203 1_565 S
O137 C130 1.185 . S
O137 Zn133 2.086 . S
C138 O134 1.278 1_565 S
C138 O139 1.211 . S
O139 C138 1.211 . S
C140 O132 1.284 . S
C140 O141 1.273 . S
O141 C140 1.273 . S
O142 Zn133 1.977 . S
O142 C135 1.267 . S
C143 O144 1.160 . S
C143 O150 1.185 . S
O144 C143 1.160 . S
O145 Zn146 1.899 . S
O145 C153 1.284 . S
Zn146 O145 1.899 . S
Zn146 O147 2.032 . S
Zn146 O150 2.086 . S
Zn146 O155 1.977 1_554 S
O147 Zn146 2.032 . S
O147 C151 1.278 . S
C148 O149 1.203 . S
C148 O155 1.267 . S
O149 C148 1.203 . S
O150 C143 1.185 . S
O150 Zn146 2.086 . S
C151 O147 1.278 . S
C151 O152 1.211 . S
O152 C151 1.211 . S
C153 O145 1.284 . S
C153 O154 1.273 . S
O154 C153 1.273 . S
O155 Zn146 1.977 1_556 S
O155 C148 1.267 . S
H156 C162 0.930 . S
H157 C166 0.930 . S
H158 C171 0.929 . S
H159 C169 0.929 . S
H160 C164 0.929 . S
H161 C170 0.929 . S
C162 H156 0.930 . S
C162 C163 1.367 . S
C162 C170 1.378 . S
C163 C162 1.367 . S
C163 C171 1.433 . S
C164 H160 0.929 . S
C164 C166 1.378 . S
C164 C168 1.350 . S
C165 C168 1.463 . S
C165 C170 1.350 . S
C165 N173 1.427 . S
C166 H157 0.930 . S
C166 C164 1.378 . S
C166 C167 1.367 . S
C167 C166 1.367 . S
C167 C169 1.433 . S
C168 C164 1.350 . S
C168 C165 1.463 . S
C168 N172 1.427 . S
C169 H159 0.929 . S
C169 C167 1.433 . S
C169 N172 1.384 . S
C170 H161 0.929 . S
C170 C162 1.378 . S
C170 C165 1.350 . S
C171 H158 0.929 . S
C171 C163 1.433 . S
C171 N173 1.384 . S
N172 C168 1.427 . S
N172 C169 1.384 . S
N173 C165 1.427 . S
N173 C171 1.384 . S
H174 C180 0.930 . S
H175 C184 0.930 . S
H176 C189 0.929 . S
H177 C187 0.929 . S
H178 C182 0.929 . S
H179 C188 0.929 . S
C180 H174 0.930 . S
C180 C181 1.367 . S
C180 C188 1.378 . S
C181 C180 1.367 . S
C181 C189 1.433 . S
C182 H178 0.929 . S
C182 C184 1.378 . S
C182 C186 1.350 . S
C183 C186 1.463 . S
C183 C188 1.350 . S
C183 N191 1.427 . S
C184 H175 0.930 . S
C184 C182 1.378 . S
C184 C185 1.367 . S
C185 C184 1.367 . S
C185 C187 1.433 . S
C186 C182 1.350 . S
C186 C183 1.463 . S
C186 N190 1.427 . S
C187 H177 0.929 . S
C187 C185 1.433 . S
C187 N190 1.384 . S
C188 H179 0.929 . S
C188 C180 1.378 . S
C188 C183 1.350 . S
C189 H176 0.929 . S
C189 C181 1.433 . S
C189 N191 1.384 . S
N190 C186 1.427 . S
N190 C187 1.384 . S
N191 C183 1.427 . S
N191 C189 1.384 . S
H192 C198 0.930 . S
H193 C202 0.930 . S
H194 C207 0.929 . S
H195 C205 0.929 . S
H196 C200 0.929 . S
H197 C206 0.929 . S
C198 H192 0.930 . S
C198 C199 1.367 . S
C198 C206 1.378 . S
C199 C198 1.367 . S
C199 C207 1.433 . S
C200 H196 0.929 . S
C200 C202 1.378 . S
C200 C204 1.350 . S
C201 C204 1.463 . S
C201 C206 1.350 . S
C201 N209 1.427 . S
C202 H193 0.930 . S
C202 C200 1.378 . S
C202 C203 1.367 . S
C203 C202 1.367 . S
C203 C205 1.433 . S
C204 C200 1.350 . S
C204 C201 1.463 . S
C204 N208 1.427 . S
C205 H195 0.929 . S
C205 C203 1.433 . S
C205 N208 1.384 . S
C206 H197 0.929 . S
C206 C198 1.378 . S
C206 C201 1.350 . S
C207 H194 0.929 . S
C207 C199 1.433 . S
C207 N209 1.384 . S
N208 C204 1.427 . S
N208 C205 1.384 . S
N209 C201 1.427 . S
N209 C207 1.384 . S
H210 C216 0.930 . S
H211 C220 0.930 . S
H212 C225 0.929 . S
H213 C223 0.929 . S
H214 C218 0.929 . S
H215 C224 0.929 . S
C216 H210 0.930 . S
C216 C217 1.367 . S
C216 C224 1.378 . S
C217 C216 1.367 . S
C217 C225 1.433 . S
C218 H214 0.929 . S
C218 C220 1.378 . S
C218 C222 1.350 . S
C219 C222 1.463 . S
C219 C224 1.350 . S
C219 N227 1.427 . S
C220 H211 0.930 . S
C220 C218 1.378 . S
C220 C221 1.367 . S
C221 C220 1.367 . S
C221 C223 1.433 . S
C222 C218 1.350 . S
C222 C219 1.463 . S
C222 N226 1.427 . S
C223 H213 0.929 . S
C223 C221 1.433 . S
C223 N226 1.384 . S
C224 H215 0.929 . S
C224 C216 1.378 . S
C224 C219 1.350 . S
C225 H212 0.929 . S
C225 C217 1.433 . S
C225 N227 1.384 . S
N226 C222 1.427 . S
N226 C223 1.384 . S
N227 C219 1.427 . S
N227 C225 1.384 . S
H228 C234 0.930 . S
H229 C238 0.930 . S
H230 C243 0.929 . S
H231 C241 0.929 . S
H232 C236 0.929 . S
H233 C242 0.929 . S
C234 H228 0.930 . S
C234 C235 1.367 . S
C234 C242 1.378 . S
C235 C234 1.367 . S
C235 C243 1.433 . S
C236 H232 0.929 . S
C236 C238 1.378 . S
C236 C240 1.350 . S
C237 C240 1.463 . S
C237 C242 1.350 . S
C237 N245 1.427 . S
C238 H229 0.930 . S
C238 C236 1.378 . S
C238 C239 1.367 . S
C239 C238 1.367 . S
C239 C241 1.433 . S
C240 C236 1.350 . S
C240 C237 1.463 . S
C240 N244 1.427 . S
C241 H231 0.929 . S
C241 C239 1.433 . S
C241 N244 1.384 . S
C242 H233 0.929 . S
C242 C234 1.378 . S
C242 C237 1.350 . S
C243 H230 0.929 . S
C243 C235 1.433 . S
C243 N245 1.384 . S
N244 C240 1.427 . S
N244 C241 1.384 . S
N245 C237 1.427 . S
N245 C243 1.384 . S
H246 C252 0.930 . S
H247 C256 0.930 . S
H248 C261 0.929 . S
H249 C259 0.929 . S
H250 C254 0.929 . S
H251 C260 0.929 . S
C252 H246 0.930 . S
C252 C253 1.367 . S
C252 C260 1.378 . S
C253 C252 1.367 . S
C253 C261 1.433 . S
C254 H250 0.929 . S
C254 C256 1.378 . S
C254 C258 1.350 . S
C255 C258 1.463 . S
C255 C260 1.350 . S
C255 N263 1.427 . S
C256 H247 0.930 . S
C256 C254 1.378 . S
C256 C257 1.367 . S
C257 C256 1.367 . S
C257 C259 1.433 . S
C258 C254 1.350 . S
C258 C255 1.463 . S
C258 N262 1.427 . S
C259 H249 0.929 . S
C259 C257 1.433 . S
C259 N262 1.384 . S
C260 H251 0.929 . S
C260 C252 1.378 . S
C260 C255 1.350 . S
C261 H248 0.929 . S
C261 C253 1.433 . S
C261 N263 1.384 . S
N262 C258 1.427 . S
N262 C259 1.384 . S
N263 C255 1.427 . S
N263 C261 1.384 . S
H264 C270 0.930 . S
H265 C274 0.930 . S
H266 C279 0.929 . S
H267 C277 0.929 . S
H268 C272 0.929 . S
H269 C278 0.929 . S
C270 H264 0.930 . S
C270 C271 1.367 . S
C270 C278 1.378 . S
C271 C270 1.367 . S
C271 C279 1.433 1_565 S
C272 H268 0.929 . S
C272 C274 1.378 . S
C272 C276 1.350 . S
C273 C276 1.463 1_565 S
C273 C278 1.350 . S
C273 N281 1.427 1_565 S
C274 H265 0.930 . S
C274 C272 1.378 . S
C274 C275 1.367 . S
C275 C274 1.367 . S
C275 C277 1.433 1_545 S
C276 C272 1.350 . S
C276 C273 1.463 1_545 S
C276 N280 1.427 1_545 S
C277 H267 0.929 . S
C277 C275 1.433 1_565 S
C277 N280 1.384 . S
C278 H269 0.929 . S
C278 C270 1.378 . S
C278 C273 1.350 . S
C279 H266 0.929 . S
C279 C271 1.433 1_545 S
C279 N281 1.384 . S
N280 C276 1.427 1_565 S
N280 C277 1.384 . S
N281 C273 1.427 1_545 S
N281 C279 1.384 . S
H282 C288 0.930 . S
H283 C292 0.930 . S
H284 C297 0.929 . S
H285 C295 0.929 . S
H286 C290 0.929 . S
H287 C296 0.929 . S
C288 H282 0.930 . S
C288 C289 1.367 . S
C288 C296 1.378 . S
C289 C288 1.367 . S
C289 C297 1.433 . S
C290 H286 0.929 . S
C290 C292 1.378 . S
C290 C294 1.350 . S
C291 C294 1.463 . S
C291 C296 1.350 . S
C291 N299 1.427 . S
C292 H283 0.930 . S
C292 C290 1.378 . S
C292 C293 1.367 . S
C293 C292 1.367 . S
C293 C295 1.433 . S
C294 C290 1.350 . S
C294 C291 1.463 . S
C294 N298 1.427 . S
C295 H285 0.929 . S
C295 C293 1.433 . S
C295 N298 1.384 . S
C296 H287 0.929 . S
C296 C288 1.378 . S
C296 C291 1.350 . S
C297 H284 0.929 . S
C297 C289 1.433 . S
C297 N299 1.384 . S
N298 C294 1.427 . S
N298 C295 1.384 . S
N299 C291 1.427 . S
N299 C297 1.384 . S
H300 C306 0.930 . S
H301 C310 0.930 . S
H302 C315 0.929 . S
H303 C313 0.929 . S
H304 C308 0.929 . S
H305 C314 0.929 . S
C306 H300 0.930 . S
C306 C307 1.367 . S
C306 C314 1.378 . S
C307 C306 1.367 . S
C307 C315 1.433 1_655 S
C308 H304 0.929 . S
C308 C310 1.378 . S
C308 C312 1.350 . S
C309 C312 1.463 1_655 S
C309 C314 1.350 . S
C309 N317 1.427 1_655 S
C310 H301 0.930 . S
C310 C308 1.378 . S
C310 C311 1.367 . S
C311 C310 1.367 . S
C311 C313 1.433 1_455 S
C312 C308 1.350 . S
C312 C309 1.463 1_455 S
C312 N316 1.427 1_455 S
C313 H303 0.929 . S
C313 C311 1.433 1_655 S
C313 N316 1.384 . S
C314 H305 0.929 . S
C314 C306 1.378 . S
C314 C309 1.350 . S
C315 H302 0.929 . S
C315 C307 1.433 1_455 S
C315 N317 1.384 . S
N316 C312 1.427 1_655 S
N316 C313 1.384 . S
N317 C309 1.427 1_455 S
N317 C315 1.384 . S
H318 C324 0.930 . S
H319 C328 0.930 . S
H320 C333 0.929 . S
H321 C331 0.929 . S
H322 C326 0.929 . S
H323 C332 0.929 . S
C324 H318 0.930 . S
C324 C325 1.367 1_655 S
C324 C332 1.378 . S
C325 C324 1.367 1_455 S
C325 C333 1.433 . S
C326 H322 0.929 . S
C326 C328 1.378 . S
C326 C330 1.356 . S
C327 C330 1.456 1_655 S
C327 C332 1.356 . S
C327 N335 1.424 1_655 S
C328 H319 0.930 . S
C328 C326 1.378 . S
C328 C329 1.367 1_455 S
C329 C328 1.367 1_655 S
C329 C331 1.433 . S
C330 C326 1.356 . S
C330 C327 1.456 1_455 S
C330 N334 1.424 1_455 S
C331 H321 0.929 . S
C331 C329 1.433 . S
C331 N334 1.384 . S
C332 H323 0.929 . S
C332 C324 1.378 . S
C332 C327 1.356 . S
C333 H320 0.929 . S
C333 C325 1.433 . S
C333 N335 1.384 . S
N334 C330 1.424 1_655 S
N334 C331 1.384 . S
N335 C327 1.424 1_455 S
N335 C333 1.384 . S
H336 C342 0.930 . S
H337 C346 0.930 . S
H338 C351 0.929 . S
H339 C349 0.929 . S
H340 C344 0.929 . S
H341 C350 0.929 . S
C342 H336 0.930 . S
C342 C343 1.367 1_545 S
C342 C350 1.378 . S
C343 C342 1.367 1_565 S
C343 C351 1.433 . S
C344 H340 0.929 . S
C344 C346 1.378 . S
C344 C348 1.350 . S
C345 C348 1.461 1_545 S
C345 C350 1.350 . S
C345 N353 1.428 1_545 S
C346 H337 0.930 . S
C346 C344 1.378 . S
C346 C347 1.367 1_565 S
C347 C346 1.367 1_545 S
C347 C349 1.433 . S
C348 C344 1.350 . S
C348 C345 1.461 1_565 S
C348 N352 1.428 1_565 S
C349 H339 0.929 . S
C349 C347 1.433 . S
C349 N352 1.384 . S
C350 H341 0.929 . S
C350 C342 1.378 . S
C350 C345 1.350 . S
C351 H338 0.929 . S
C351 C343 1.433 . S
C351 N353 1.384 . S
N352 C348 1.428 1_545 S
N352 C349 1.384 . S
N353 C345 1.428 1_565 S
N353 C351 1.384 . S
H354 C360 0.930 . S
H355 C364 0.930 1_556 S
H356 C369 0.929 1_556 S
H357 C367 0.929 . S
H358 C362 0.929 1_556 S
H359 C368 0.929 . S
C360 H354 0.930 . S
C360 C361 1.367 . S
C360 C368 1.378 . S
C361 C360 1.367 . S
C361 C369 1.433 . S
C362 H358 0.929 1_554 S
C362 C364 1.378 . S
C362 C366 1.350 . S
C363 C366 1.463 . S
C363 C368 1.350 . S
C363 N371 1.427 . S
C364 H355 0.930 1_554 S
C364 C362 1.378 . S
C364 C365 1.367 . S
C365 C364 1.367 . S
C365 C367 1.433 . S
C366 C362 1.350 . S
C366 C363 1.463 . S
C366 N370 1.427 . S
C367 H357 0.929 . S
C367 C365 1.433 . S
C367 N370 1.384 . S
C368 H359 0.929 . S
C368 C360 1.378 . S
C368 C363 1.350 . S
C369 H356 0.929 1_554 S
C369 C361 1.433 . S
C369 N371 1.384 . S
N370 C366 1.427 . S
N370 C367 1.384 . S
N371 C363 1.427 . S
N371 C369 1.384 . S
H372 C378 0.930 . S
H373 C382 0.930 . S
H374 C387 0.929 . S
H375 C385 0.929 . S
H376 C380 0.929 . S
H377 C386 0.929 . S
C378 H372 0.930 . S
C378 C379 1.367 . S
C378 C386 1.378 . S
C379 C378 1.367 . S
C379 C387 1.433 . S
C380 H376 0.929 . S
C380 C382 1.378 . S
C380 C384 1.350 . S
C381 C384 1.463 . S
C381 C386 1.350 . S
C381 N389 1.427 . S
C382 H373 0.930 . S
C382 C380 1.378 . S
C382 C383 1.367 . S
C383 C382 1.367 . S
C383 C385 1.433 . S
C384 C380 1.350 . S
C384 C381 1.463 . S
C384 N388 1.427 . S
C385 H375 0.929 . S
C385 C383 1.433 . S
C385 N388 1.384 . S
C386 H377 0.929 . S
C386 C378 1.378 . S
C386 C381 1.350 . S
C387 H374 0.929 . S
C387 C379 1.433 . S
C387 N389 1.384 . S
N388 C384 1.427 . S
N388 C385 1.384 . S
N389 C381 1.427 . S
N389 C387 1.384 . S
H390 C396 0.930 . S
H391 C400 0.930 . S
H392 C405 0.929 . S
H393 C403 0.929 . S
H394 C398 0.929 . S
H395 C404 0.929 . S
C396 H390 0.930 . S
C396 C397 1.367 . S
C396 C404 1.378 . S
C397 C396 1.367 . S
C397 C405 1.433 . S
C398 H394 0.929 . S
C398 C400 1.378 . S
C398 C402 1.350 . S
C399 C402 1.463 . S
C399 C404 1.350 . S
C399 N407 1.427 . S
C400 H391 0.930 . S
C400 C398 1.378 . S
C400 C401 1.367 . S
C401 C400 1.367 . S
C401 C403 1.433 . S
C402 C398 1.350 . S
C402 C399 1.463 . S
C402 N406 1.427 . S
C403 H393 0.929 . S
C403 C401 1.433 . S
C403 N406 1.384 . S
C404 H395 0.929 . S
C404 C396 1.378 . S
C404 C399 1.350 . S
C405 H392 0.929 . S
C405 C397 1.433 . S
C405 N407 1.384 . S
N406 C402 1.427 . S
N406 C403 1.384 . S
N407 C399 1.427 . S
N407 C405 1.384 . S
H408 C414 0.930 1_556 S
H409 C418 0.930 1_554 S
H410 C423 0.929 . S
H411 C421 0.929 . S
H412 C416 0.929 . S
H413 C422 0.929 . S
C414 H408 0.930 1_554 S
C414 C415 1.367 . S
C414 C422 1.378 1_554 S
C415 C414 1.367 . S
C415 C423 1.433 . S
C416 H412 0.929 . S
C416 C418 1.378 1_554 S
C416 C420 1.350 1_554 S
C417 C420 1.463 1_554 S
C417 C422 1.350 1_554 S
C417 N425 1.427 . S
C418 H409 0.930 1_556 S
C418 C416 1.378 1_556 S
C418 C419 1.367 . S
C419 C418 1.367 . S
C419 C421 1.433 . S
C420 C416 1.350 1_556 S
C420 C417 1.463 1_556 S
C420 N424 1.427 . S
C421 H411 0.929 . S
C421 C419 1.433 . S
C421 N424 1.384 . S
C422 H413 0.929 . S
C422 C414 1.378 1_556 S
C422 C417 1.350 1_556 S
C423 H410 0.929 . S
C423 C415 1.433 . S
C423 N425 1.384 . S
N424 C420 1.427 . S
N424 C421 1.384 . S
N425 C417 1.427 . S
N425 C423 1.384 . S
H426 C432 0.930 . S
H427 C436 0.930 . S
H428 C441 0.929 . S
H429 C439 0.929 . S
H430 C434 0.929 . S
H431 C440 0.929 . S
C432 H426 0.930 . S
C432 C433 1.367 . S
C432 C440 1.378 . S
C433 C432 1.367 . S
C433 C441 1.433 . S
C434 H430 0.929 . S
C434 C436 1.378 . S
C434 C438 1.350 . S
C435 C438 1.463 . S
C435 C440 1.350 . S
C435 N443 1.427 . S
C436 H427 0.930 . S
C436 C434 1.378 . S
C436 C437 1.367 . S
C437 C436 1.367 . S
C437 C439 1.433 . S
C438 C434 1.350 . S
C438 C435 1.463 . S
C438 N442 1.427 . S
C439 H429 0.929 . S
C439 C437 1.433 . S
C439 N442 1.384 . S
C440 H431 0.929 . S
C440 C432 1.378 . S
C440 C435 1.350 . S
C441 H428 0.929 . S
C441 C433 1.433 . S
C441 N443 1.384 . S
N442 C438 1.427 . S
N442 C439 1.384 . S
N443 C435 1.427 . S
N443 C441 1.384 . S
H444 C450 0.930 . S
H445 C454 0.930 . S
H446 C459 0.929 . S
H447 C457 0.929 . S
H448 C452 0.929 . S
H449 C458 0.929 . S
C450 H444 0.930 . S
C450 C451 1.367 . S
C450 C458 1.378 . S
C451 C450 1.367 . S
C451 C459 1.433 . S
C452 H448 0.929 . S
C452 C454 1.378 . S
C452 C456 1.350 . S
C453 C456 1.463 . S
C453 C458 1.350 . S
C453 N461 1.427 . S
C454 H445 0.930 . S
C454 C452 1.378 . S
C454 C455 1.367 . S
C455 C454 1.367 . S
C455 C457 1.433 . S
C456 C452 1.350 . S
C456 C453 1.463 . S
C456 N460 1.427 . S
C457 H447 0.929 . S
C457 C455 1.433 . S
C457 N460 1.384 . S
C458 H449 0.929 . S
C458 C450 1.378 . S
C458 C453 1.350 . S
C459 H446 0.929 . S
C459 C451 1.433 . S
C459 N461 1.384 . S
N460 C456 1.427 . S
N460 C457 1.384 . S
N461 C453 1.427 . S
N461 C459 1.384 . S
H462 C468 0.930 . S
H463 C472 0.930 . S
H464 C477 0.929 . S
H465 C475 0.929 . S
H466 C470 0.929 . S
H467 C476 0.929 . S
C468 H462 0.930 . S
C468 C469 1.367 . S
C468 C476 1.378 . S
C469 C468 1.367 . S
C469 C477 1.433 . S
C470 H466 0.929 . S
C470 C472 1.378 . S
C470 C474 1.350 . S
C471 C474 1.463 1_554 S
C471 C476 1.350 . S
C471 N479 1.427 1_554 S
C472 H463 0.930 . S
C472 C470 1.378 . S
C472 C473 1.367 . S
C473 C472 1.367 . S
C473 C475 1.433 . S
C474 C470 1.350 . S
C474 C471 1.463 1_556 S
C474 N478 1.427 1_556 S
C475 H465 0.929 . S
C475 C473 1.433 . S
C475 N478 1.384 1_556 S
C476 H467 0.929 . S
C476 C468 1.378 . S
C476 C471 1.350 . S
C477 H464 0.929 . S
C477 C469 1.433 . S
C477 N479 1.384 1_554 S
N478 C474 1.427 1_554 S
N478 C475 1.384 1_554 S
N479 C471 1.427 1_556 S
N479 C477 1.384 1_556 S
H480 C486 0.930 . S
H481 C490 0.930 . S
H482 C495 0.929 . S
H483 C493 0.929 . S
H484 C488 0.929 . S
H485 C494 0.929 . S
C486 H480 0.930 . S
C486 C487 1.367 1_565 S
C486 C494 1.378 . S
C487 C486 1.367 1_545 S
C487 C495 1.433 . S
C488 H484 0.929 . S
C488 C490 1.378 . S
C488 C492 1.350 1_545 S
C489 C492 1.463 1_545 S
C489 C494 1.350 1_545 S
C489 N497 1.427 . S
C490 H481 0.930 . S
C490 C488 1.378 . S
C490 C491 1.367 1_545 S
C491 C490 1.367 1_565 S
C491 C493 1.433 . S
C492 C488 1.350 1_565 S
C492 C489 1.463 1_565 S
C492 N496 1.427 . S
C493 H483 0.929 . S
C493 C491 1.433 . S
C493 N496 1.384 . S
C494 H485 0.929 . S
C494 C486 1.378 . S
C494 C489 1.350 1_565 S
C495 H482 0.929 . S
C495 C487 1.433 . S
C495 N497 1.384 . S
N496 C492 1.427 . S
N496 C493 1.384 . S
N497 C489 1.427 . S
N497 C495 1.384 . S
H498 C504 0.930 . S
H499 C508 0.930 . S
H500 C513 0.929 . S
H501 C511 0.929 . S
H502 C506 0.929 . S
H503 C512 0.929 . S
C504 H498 0.930 . S
C504 C505 1.367 . S
C504 C512 1.378 . S
C505 C504 1.367 . S
C505 C513 1.433 . S
C506 H502 0.929 . S
C506 C508 1.378 . S
C506 C510 1.350 . S
C507 C510 1.463 . S
C507 C512 1.350 . S
C507 N515 1.427 . S
C508 H499 0.930 . S
C508 C506 1.378 . S
C508 C509 1.367 . S
C509 C508 1.367 . S
C509 C511 1.433 . S
C510 C506 1.350 . S
C510 C507 1.463 . S
C510 N514 1.427 . S
C511 H501 0.929 . S
C511 C509 1.433 . S
C511 N514 1.384 . S
C512 H503 0.929 . S
C512 C504 1.378 . S
C512 C507 1.350 . S
C513 H500 0.929 . S
C513 C505 1.433 . S
C513 N515 1.384 . S
N514 C510 1.427 . S
N514 C511 1.384 . S
N515 C507 1.427 . S
N515 C513 1.384 . S
H516 C522 0.930 . S
H517 C526 0.930 . S
H518 C531 0.929 . S
H519 C529 0.929 . S
H520 C524 0.929 . S
H521 C530 0.929 . S
C522 H516 0.930 . S
C522 C523 1.367 . S
C522 C530 1.378 . S
C523 C522 1.367 . S
C523 C531 1.433 1_455 S
C524 H520 0.929 . S
C524 C526 1.378 . S
C524 C528 1.350 . S
C525 C528 1.463 1_455 S
C525 C530 1.350 . S
C525 N533 1.427 1_455 S
C526 H517 0.930 . S
C526 C524 1.378 . S
C526 C527 1.367 . S
C527 C526 1.367 . S
C527 C529 1.433 1_655 S
C528 C524 1.350 . S
C528 C525 1.463 1_655 S
C528 N532 1.427 1_655 S
C529 H519 0.929 . S
C529 C527 1.433 1_455 S
C529 N532 1.384 . S
C530 H521 0.929 . S
C530 C522 1.378 . S
C530 C525 1.350 . S
C531 H518 0.929 . S
C531 C523 1.433 1_655 S
C531 N533 1.384 . S
N532 C528 1.427 1_455 S
N532 C529 1.384 . S
N533 C525 1.427 1_655 S
N533 C531 1.384 . S
H534 C540 0.930 . S
H535 C544 0.930 . S
H536 C549 0.929 . S
H537 C547 0.929 . S
H538 C542 0.929 . S
H539 C548 0.929 . S
C540 H534 0.930 . S
C540 C541 1.367 . S
C540 C548 1.378 . S
C541 C540 1.367 . S
C541 C549 1.433 1_565 S
C542 H538 0.929 . S
C542 C544 1.378 . S
C542 C546 1.350 . S
C543 C546 1.463 1_565 S
C543 C548 1.350 . S
C543 N551 1.427 1_565 S
C544 H535 0.930 . S
C544 C542 1.378 . S
C544 C545 1.367 . S
C545 C544 1.367 . S
C545 C547 1.433 1_545 S
C546 C542 1.350 . S
C546 C543 1.463 1_545 S
C546 N550 1.427 1_545 S
C547 H537 0.929 . S
C547 C545 1.433 1_565 S
C547 N550 1.384 . S
C548 H539 0.929 . S
C548 C540 1.378 . S
C548 C543 1.350 . S
C549 H536 0.929 . S
C549 C541 1.433 1_545 S
C549 N551 1.384 . S
N550 C546 1.427 1_565 S
N550 C547 1.384 . S
N551 C543 1.427 1_545 S
N551 C549 1.384 . S
H552 C558 0.930 . S
H553 C562 0.930 . S
H554 C567 0.929 . S
H555 C565 0.929 . S
H556 C560 0.929 . S
H557 C566 0.929 . S
C558 H552 0.930 . S
C558 C559 1.367 . S
C558 C566 1.378 . S
C559 C558 1.367 . S
C559 C567 1.433 . S
C560 H556 0.929 . S
C560 C562 1.378 . S
C560 C564 1.350 . S
C561 C564 1.463 . S
C561 C566 1.350 . S
C561 N569 1.427 . S
C562 H553 0.930 . S
C562 C560 1.378 . S
C562 C563 1.367 . S
C563 C562 1.367 . S
C563 C565 1.433 . S
C564 C560 1.350 . S
C564 C561 1.463 . S
C564 N568 1.427 . S
C565 H555 0.929 . S
C565 C563 1.433 . S
C565 N568 1.384 . S
C566 H557 0.929 . S
C566 C558 1.378 . S
C566 C561 1.350 . S
C567 H554 0.929 . S
C567 C559 1.433 . S
C567 N569 1.384 . S
N568 C564 1.427 . S
N568 C565 1.384 . S
N569 C561 1.427 . S
N569 C567 1.384 . S
H570 C576 0.930 . S
H571 C580 0.930 . S
H572 C585 0.929 . S
H573 C583 0.929 . S
H574 C578 0.929 . S
H575 C584 0.929 . S
C576 H570 0.930 . S
C576 C577 1.367 1_455 S
C576 C584 1.378 . S
C577 C576 1.367 1_655 S
C577 C585 1.433 . S
C578 H574 0.929 . S
C578 C580 1.378 . S
C578 C582 1.350 1_655 S
C579 C582 1.463 1_655 S
C579 C584 1.350 1_655 S
C579 N587 1.427 . S
C580 H571 0.930 . S
C580 C578 1.378 . S
C580 C581 1.367 1_655 S
C581 C580 1.367 1_455 S
C581 C583 1.433 . S
C582 C578 1.350 1_455 S
C582 C579 1.463 1_455 S
C582 N586 1.427 . S
C583 H573 0.929 . S
C583 C581 1.433 . S
C583 N586 1.384 . S
C584 H575 0.929 . S
C584 C576 1.378 . S
C584 C579 1.350 1_455 S
C585 H572 0.929 . S
C585 C577 1.433 . S
C585 N587 1.384 . S
N586 C582 1.427 . S
N586 C583 1.384 . S
N587 C579 1.427 . S
N587 C585 1.384 . S
C163 C0 1.724 . S
C167 C104 1.716 . S
C181 C13 1.723 . S
C185 C117 1.716 . S
C199 C130 1.717 . S
C203 C26 1.721 . S
C217 C143 1.720 . S
C221 C39 1.722 . S
C235 C78 1.717 . S
C239 C52 1.722 . S
C253 C91 1.724 . S
C257 C65 1.717 . S
C271 C8 1.332 . S
C275 C47 1.338 . S
C289 C60 1.325 . S
C293 C21 1.343 . S
C307 C73 1.342 . S
C311 C34 1.326 . S
C325 C86 1.337 . S
C329 C125 1.328 . S
C343 C138 1.340 . S
C347 C99 1.326 . S
C361 C112 1.343 . S
C365 C151 1.325 . S
C379 C88 1.003 . S
C383 C10 0.995 . S
C397 C23 1.008 . S
C401 C101 1.010 . S
C415 C114 0.989 . S
C419 C36 0.993 . S
C433 C127 1.004 . S
C437 C49 1.010 . S
C451 C62 0.991 . S
C455 C140 0.990 . S
C469 C153 1.009 . S
C473 C75 1.002 . S
C487 C5 0.938 . S
C491 C96 0.938 . S
C505 C109 0.939 . S
C509 C18 0.938 . S
C523 C122 0.964 . S
C527 C31 0.963 . S
C541 C44 0.964 . S
C545 C135 0.962 . S
C559 C148 0.951 . S
C563 C57 0.948 . S
C577 C83 0.943 . S
C581 C70 0.941 . S
