# Generated by pormake.
# Topology umf, (4)-cn, num edge types: 1
# Building blocks:
#     Node 0, Type 0, BuildingBlock: ICAMEG_clean_sbu_1, # of connection points: 4
#     Node 1, Type 0, BuildingBlock: ICAMEG_clean_sbu_1, # of connection points: 4
#     Node 2, Type 0, BuildingBlock: ICAMEG_clean_sbu_1, # of connection points: 4
#     Node 3, Type 0, BuildingBlock: ICAMEG_clean_sbu_1, # of connection points: 4
#     Node 4, Type 0, BuildingBlock: ICAMEG_clean_sbu_1, # of connection points: 4
#     Node 5, Type 0, BuildingBlock: ICAMEG_clean_sbu_1, # of connection points: 4
#     Node 6, Type 0, BuildingBlock: ICAMEG_clean_sbu_1, # of connection points: 4
#     Node 7, Type 0, BuildingBlock: ICAMEG_clean_sbu_1, # of connection points: 4
#     Edge 8, Type (0, 0), BuildingBlock: OJICUG_clean_linker_0, # of connection points: 2
#     Edge 9, Type (0, 0), BuildingBlock: OJICUG_clean_linker_0, # of connection points: 2
#     Edge 10, Type (0, 0), BuildingBlock: OJICUG_clean_linker_0, # of connection points: 2
#     Edge 11, Type (0, 0), BuildingBlock: OJICUG_clean_linker_0, # of connection points: 2
#     Edge 12, Type (0, 0), BuildingBlock: OJICUG_clean_linker_0, # of connection points: 2
#     Edge 13, Type (0, 0), BuildingBlock: OJICUG_clean_linker_0, # of connection points: 2
#     Edge 14, Type (0, 0), BuildingBlock: OJICUG_clean_linker_0, # of connection points: 2
#     Edge 15, Type (0, 0), BuildingBlock: OJICUG_clean_linker_0, # of connection points: 2
#     Edge 16, Type (0, 0), BuildingBlock: OJICUG_clean_linker_0, # of connection points: 2
#     Edge 17, Type (0, 0), BuildingBlock: OJICUG_clean_linker_0, # of connection points: 2
#     Edge 18, Type (0, 0), BuildingBlock: OJICUG_clean_linker_0, # of connection points: 2
#     Edge 19, Type (0, 0), BuildingBlock: OJICUG_clean_linker_0, # of connection points: 2
#     Edge 20, Type (0, 0), BuildingBlock: OJICUG_clean_linker_0, # of connection points: 2
#     Edge 21, Type (0, 0), BuildingBlock: OJICUG_clean_linker_0, # of connection points: 2
#     Edge 22, Type (0, 0), BuildingBlock: OJICUG_clean_linker_0, # of connection points: 2
#     Edge 23, Type (0, 0), BuildingBlock: OJICUG_clean_linker_0, # of connection points: 2
# Relax obj value: 0.111
# Max RMSD: 0.200
# Mean RMSD: 0.200
data_MOF--net-umf--node1-ICAMEG_clean_sbu_1--edge1-OJICUG_clean_linker_0
_symmetry_space_group_name_H-M    P1
_symmetry_Int_Tables_number       1
_symmetry_cell_setting            triclinic
loop_
_symmetry_equiv_pos_as_xyz
'x, y, z'
_cell_length_a     22.342902
_cell_length_b     22.346532
_cell_length_c     42.019248
_cell_angle_alpha  89.996088
_cell_angle_beta   89.999338
_cell_angle_gamma 89.986127
loop_
_atom_site_label
_atom_site_type_symbol
_atom_site_fract_x
_atom_site_fract_y
_atom_site_fract_z
_atom_type_partial_charge
Co0 Co 0.10252 0.21767 0.13608 0.0
Co1 Co 0.98766 0.24294 0.18901 0.0
O2 O 0.03255 0.26216 0.15051 0.0
C3 C 0.02172 0.21852 0.08079 0.0
O4 O 0.97904 0.20387 0.10079 0.0
C5 C 0.02142 0.36902 0.19637 0.0
O6 O 0.07654 0.35125 0.19108 0.0
O7 O 0.06188 0.24133 0.21467 0.0
O8 O 0.13151 0.20642 0.18089 0.0
H9 H 0.9465 0.13316 0.29117 0.0
H10 H 0.07633 0.33663 0.10824 0.0
O11 O 0.07485 0.22688 0.09091 0.0
H12 H 0.27613 0.35574 0.15704 0.0
H13 H 0.27505 0.17587 0.06231 0.0
H14 H 0.16422 0.10691 0.15695 0.0
H15 H 0.22194 0.25961 0.15867 0.0
H16 H 0.18789 0.23253 0.08216 0.0
O17 O 0.97903 0.33087 0.19728 0.0
H18 H 0.00084 0.15464 0.24134 0.0
H19 H 0.87916 0.29491 0.21973 0.0
H20 H 0.25139 0.04916 0.1381 0.0
H21 H 0.12907 0.43353 0.10589 0.0
H22 H 0.30746 0.08361 0.09045 0.0
H23 H 0.22963 0.44355 0.13051 0.0
O24 O 0.05773 0.14132 0.13912 0.0
H25 H 0.84321 0.3278 0.10914 0.0
H26 H 0.8838 0.16037 0.1825 0.0
H27 H 0.79159 0.15963 0.15025 0.0
H28 H 0.77081 0.24382 0.11324 0.0
H29 H 0.93508 0.32654 0.1417 0.0
H30 H 0.82378 0.27528 0.26949 0.0
H31 H 0.85757 0.19411 0.30561 0.0
O32 O -0.00372 0.15475 0.18107 0.0
C33 C 0.11366 0.22022 0.20882 0.0
C34 C 0.93143 0.16877 0.27564 0.0
C35 C 0.86259 0.24859 0.26348 0.0
N36 N 0.94293 0.22571 0.22754 0.0
C37 C 0.96178 0.1809 0.24729 0.0
C38 C 0.89408 0.25947 0.23534 0.0
C39 C 0.8816 0.20303 0.28377 0.0
C40 C 0.12035 0.34051 0.1187 0.0
N41 N 0.14618 0.29248 0.13341 0.0
C42 C 0.14988 0.39554 0.11742 0.0
C43 C 0.20626 0.40116 0.13129 0.0
C44 C 0.23236 0.35191 0.14619 0.0
C45 C 0.20144 0.29763 0.14709 0.0
C46 C 0.25112 0.16053 0.08317 0.0
C47 C 0.18872 0.12245 0.13637 0.0
C48 C 0.20172 0.19238 0.09449 0.0
N49 N 0.17151 0.17342 0.12092 0.0
C50 C 0.23789 0.08945 0.12573 0.0
C51 C 0.26928 0.10876 0.09897 0.0
C52 C 0.02113 0.12188 0.15997 0.0
C53 C 0.85169 0.29095 0.12524 0.0
C54 C 0.87513 0.19709 0.1664 0.0
C55 C 0.82279 0.19649 0.14824 0.0
C56 C 0.81113 0.24377 0.12751 0.0
N57 N 0.91463 0.24359 0.16408 0.0
C58 C 0.90351 0.29012 0.14383 0.0
Co59 Co 0.77427 0.10203 0.63609 0.0
Co60 Co 0.74883 0.98706 0.68893 0.0
O61 O 0.72964 0.03221 0.65052 0.0
C62 C 0.77321 0.02126 0.58081 0.0
O63 O 0.78779 0.97854 0.60081 0.0
C64 C 0.62298 0.02157 0.69652 0.0
O65 O 0.64102 0.07658 0.69124 0.0
O66 O 0.75103 0.06113 0.7147 0.0
O67 O 0.78555 0.13095 0.68092 0.0
H68 H 0.85895 0.94458 0.79084 0.0
H69 H 0.65523 0.07612 0.60827 0.0
O70 O 0.765 0.07441 0.59092 0.0
H71 H 0.63645 0.27588 0.65712 0.0
H72 H 0.8164 0.27448 0.56235 0.0
H73 H 0.8851 0.16351 0.657 0.0
H74 H 0.73252 0.22152 0.65871 0.0
H75 H 0.75959 0.18744 0.58218 0.0
O76 O 0.6609 0.97895 0.69735 0.0
H77 H 0.83743 -0.00057 0.74118 0.0
H78 H 0.69649 0.87864 0.71951 0.0
H79 H 0.94302 0.25055 0.63817 0.0
H80 H 0.55839 0.12903 0.60597 0.0
H81 H 0.90869 0.30669 0.59051 0.0
H82 H 0.54853 0.22957 0.63062 0.0
O83 O 0.85058 0.0571 0.63912 0.0
H84 H 0.6625 0.84356 0.60905 0.0
H85 H 0.83087 0.88283 0.68201 0.0
H86 H 0.83085 0.79082 0.64961 0.0
H87 H 0.74618 0.7707 0.6128 0.0
H88 H 0.66453 0.93521 0.64175 0.0
H89 H 0.7162 0.82271 0.76908 0.0
H90 H 0.79771 0.85581 0.80516 0.0
O91 O 0.83702 0.99522 0.68087 0.0
C92 C 0.772 0.11296 0.70886 0.0
C93 C 0.82319 0.92981 0.77533 0.0
C94 C 0.74302 0.86145 0.76313 0.0
N95 N 0.76603 0.942 0.72736 0.0
C96 C 0.81103 0.96047 0.74708 0.0
C97 C 0.7321 0.89324 0.73509 0.0
C98 C 0.78877 0.88007 0.78339 0.0
C99 C 0.65143 0.12013 0.61873 0.0
N100 N 0.69951 0.14585 0.63343 0.0
C101 C 0.59643 0.14976 0.61749 0.0
C102 C 0.5909 0.20613 0.63137 0.0
C103 C 0.6402 0.23212 0.64626 0.0
C104 C 0.69446 0.2011 0.64713 0.0
C105 C 0.83169 0.25051 0.58321 0.0
C106 C 0.86962 0.18803 0.63641 0.0
C107 C 0.79975 0.20118 0.59452 0.0
N108 N 0.81864 0.17093 0.62095 0.0
C109 C 0.90272 0.23714 0.62579 0.0
C110 C 0.88347 0.26857 0.59902 0.0
C111 C 0.86994 0.02022 0.65985 0.0
C112 C 0.69955 0.85174 0.62506 0.0
C113 C 0.79393 0.87444 0.66601 0.0
C114 C 0.79412 0.82221 0.64776 0.0
C115 C 0.74657 0.81092 0.62714 0.0
N116 N 0.7476 0.91418 0.66388 0.0
C117 C 0.70082 0.90343 0.64374 0.0
Co118 Co 0.88937 0.77416 0.13598 0.0
Co119 Co 0.00378 0.74798 0.18905 0.0
O120 O 0.95887 0.72905 0.15052 0.0
C121 C 0.97036 0.77251 0.08079 0.0
O122 O 0.01308 0.78679 0.10084 0.0
C123 C 0.9693 0.62204 0.1964 0.0
O124 O 0.91426 0.63998 0.19105 0.0
O125 O 0.92947 0.7501 0.21463 0.0
O126 O 0.86035 0.78577 0.18078 0.0
H127 H 0.04528 0.85743 0.29126 0.0
H128 H 0.91449 0.65489 0.10825 0.0
O129 O 0.91711 0.76461 0.09084 0.0
H130 H 0.71428 0.6379 0.15681 0.0
H131 H 0.71762 0.81763 0.06198 0.0
H132 H 0.82865 0.88551 0.15676 0.0
H133 H 0.76946 0.73346 0.15848 0.0
H134 H 0.80407 0.76008 0.08197 0.0
O135 O 0.01181 0.66004 0.19736 0.0
H136 H 0.99097 0.83631 0.24139 0.0
H137 H 0.11192 0.69537 0.21984 0.0
H138 H 0.7422 0.94416 0.13776 0.0
H139 H 0.86075 0.55854 0.10587 0.0
H140 H 0.68604 0.91026 0.09003 0.0
H141 H 0.75997 0.54959 0.13036 0.0
O142 O 0.93486 0.85008 0.139 0.0
H143 H 0.14794 0.66189 0.10941 0.0
H144 H 0.10816 0.8299 0.18251 0.0
H145 H 0.2005 0.8299 0.15036 0.0
H146 H 0.22089 0.7454 0.11349 0.0
H147 H 0.05596 0.6639 0.14186 0.0
H148 H 0.16729 0.71467 0.26963 0.0
H149 H 0.13384 0.79599 0.30576 0.0
O150 O 0.99582 0.83624 0.1811 0.0
C151 C 0.87794 0.77175 0.20873 0.0
C152 C 0.0602 0.82175 0.27573 0.0
C153 C 0.12864 0.74158 0.26361 0.0
N154 N 0.04851 0.76493 0.22761 0.0
C155 C 0.02986 0.80982 0.24736 0.0
C156 C 0.09716 0.7309 0.23544 0.0
C157 C 0.10982 0.78721 0.28389 0.0
C158 C 0.87039 0.65147 0.11866 0.0
N159 N 0.84499 0.69978 0.13332 0.0
C160 C 0.84029 0.59675 0.11736 0.0
C161 C 0.78378 0.59174 0.13116 0.0
C162 C 0.75814 0.64126 0.14602 0.0
C163 C 0.78963 0.69522 0.14694 0.0
C164 C 0.74159 0.83275 0.08287 0.0
C165 C 0.8041 0.87021 0.13615 0.0
C166 C 0.79059 0.80038 0.09427 0.0
N167 N 0.82086 0.81905 0.12074 0.0
C168 C 0.75534 0.90372 0.12542 0.0
C169 C 0.72389 0.88471 0.09862 0.0
C170 C 0.97145 0.86927 0.15992 0.0
C171 C 0.13965 0.69886 0.12545 0.0
C172 C 0.11667 0.79305 0.16647 0.0
C173 C 0.16908 0.79323 0.14837 0.0
C174 C 0.18051 0.74579 0.12772 0.0
N175 N 0.07688 0.7468 0.16417 0.0
C176 C 0.08777 0.70011 0.14399 0.0
Co177 Co 0.21862 0.88987 0.63623 0.0
Co178 Co 0.24388 0.00505 0.68899 0.0
O179 O 0.26306 0.95987 0.65059 0.0
C180 C 0.21905 0.97067 0.58095 0.0
O181 O 0.20457 0.01334 0.601 0.0
C182 C 0.36974 0.97061 0.69656 0.0
O183 O 0.35172 0.91559 0.69129 0.0
O184 O 0.24173 0.93102 0.71481 0.0
O185 O 0.20767 0.86092 0.68107 0.0
H186 H 0.13396 0.04744 0.79097 0.0
H187 H 0.33739 0.91626 0.60822 0.0
O188 O 0.22752 0.91753 0.59104 0.0
H189 H 0.35728 0.71663 0.65711 0.0
H190 H 0.17685 0.71722 0.56259 0.0
H191 H 0.10812 0.82798 0.65729 0.0
H192 H 0.26098 0.77057 0.65881 0.0
H193 H 0.23339 0.80451 0.58231 0.0
O194 O 0.33181 0.01321 0.69739 0.0
H195 H 0.1553 0.99269 0.74126 0.0
H196 H 0.2962 0.1135 0.71952 0.0
H197 H 0.05048 0.74068 0.63856 0.0
H198 H 0.43446 0.86378 0.60581 0.0
H199 H 0.08482 0.68465 0.59087 0.0
H200 H 0.44487 0.7633 0.63048 0.0
O201 O 0.14217 0.93451 0.63936 0.0
H202 H 0.33005 0.1485 0.60903 0.0
H203 H 0.16177 0.10921 0.68205 0.0
H204 H 0.1617 0.20119 0.64961 0.0
H205 H 0.24633 0.22132 0.61278 0.0
H206 H 0.3281 0.05689 0.64177 0.0
H207 H 0.27668 0.16932 0.76915 0.0
H208 H 0.19529 0.13614 0.80529 0.0
O209 O 0.15568 -0.00318 0.68094 0.0
C210 C 0.22105 0.87907 0.709 0.0
C211 C 0.16968 0.06223 0.77544 0.0
C212 C 0.24982 0.1306 0.7632 0.0
N213 N 0.22668 0.05014 0.7274 0.0
C214 C 0.18173 0.03164 0.74716 0.0
C215 C 0.26063 0.09888 0.73513 0.0
C216 C 0.20415 0.11194 0.78349 0.0
C217 C 0.34144 0.87227 0.61869 0.0
N218 N 0.29354 0.84636 0.63347 0.0
C219 C 0.39657 0.84289 0.61738 0.0
C220 C 0.4024 0.78655 0.63128 0.0
C221 C 0.35328 0.76036 0.64624 0.0
C222 C 0.2989 0.79114 0.64717 0.0
C223 C 0.16155 0.74114 0.58346 0.0
C224 C 0.1236 0.80351 0.63669 0.0
C225 C 0.19334 0.79061 0.59471 0.0
N226 N 0.17445 0.8208 0.62115 0.0
C227 C 0.09066 0.75425 0.62612 0.0
C228 C 0.10992 0.72288 0.59934 0.0
C229 C 0.12278 0.97157 0.65999 0.0
C230 C 0.29302 0.14031 0.62506 0.0
C231 C 0.19869 0.11761 0.66603 0.0
C232 C 0.19846 0.16982 0.64777 0.0
C233 C 0.24598 0.18111 0.62713 0.0
N234 N 0.24504 0.07789 0.66391 0.0
C235 C 0.2918 0.08865 0.64375 0.0
Co236 Co 0.10248 0.77378 0.89073 0.0
Co237 Co 0.98768 0.74834 0.83778 0.0
O238 O 0.03269 0.72915 0.87624 0.0
C239 C 0.0215 0.77271 0.94594 0.0
O240 O 0.97886 0.78727 0.92589 0.0
C241 C 0.02216 0.62246 0.83026 0.0
O242 O 0.07717 0.64047 0.83558 0.0
O243 O 0.06186 0.75048 0.81209 0.0
O244 O 0.13154 0.78508 0.84593 0.0
H245 H 0.94564 0.85842 0.73581 0.0
H246 H 0.07649 0.65475 0.91853 0.0
O247 O 0.0747 0.7645 0.93588 0.0
H248 H 0.27644 0.63601 0.86984 0.0
H249 H 0.2747 0.8159 0.96462 0.0
H250 H 0.16401 0.88462 0.86988 0.0
H251 H 0.22206 0.73206 0.86821 0.0
H252 H 0.18773 0.75909 0.94471 0.0
O253 O 0.97956 0.66041 0.82938 0.0
H254 H 0.00029 0.83691 0.78553 0.0
H255 H 0.87935 0.69603 0.80709 0.0
H256 H 0.25099 0.94253 0.8888 0.0
H257 H 0.12942 0.55793 0.92087 0.0
H258 H 0.30699 0.9082 0.9365 0.0
H259 H 0.23005 0.5481 0.8963 0.0
O260 O 0.05754 0.85006 0.88767 0.0
H261 H 0.84378 0.66213 0.91751 0.0
H262 H 0.88345 0.83041 0.84457 0.0
H263 H 0.79128 0.83045 0.87686 0.0
H264 H 0.77095 0.74582 0.91365 0.0
H265 H 0.9356 0.66411 0.88492 0.0
H266 H 0.82364 0.71571 0.75744 0.0
H267 H 0.85691 0.7972 0.72139 0.0
O268 O 0.99584 0.83653 0.84583 0.0
C269 C 0.11366 0.77149 0.81797 0.0
C270 C 0.9308 0.82267 0.7513 0.0
C271 C 0.86236 0.74252 0.76344 0.0
N272 N 0.94277 0.76553 0.7993 0.0
C273 C 0.96134 0.81051 0.77959 0.0
C274 C 0.89403 0.73162 0.79152 0.0
C275 C 0.88108 0.78826 0.74319 0.0
C276 C 0.12054 0.65096 0.9081 0.0
N277 N 0.14631 0.69904 0.89342 0.0
C278 C 0.15018 0.59597 0.90937 0.0
C279 C 0.2066 0.59046 0.89553 0.0
C280 C 0.23264 0.63976 0.88066 0.0
C281 C 0.20161 0.694 0.87977 0.0
C282 C 0.2508 0.8312 0.94375 0.0
C283 C 0.18848 0.86913 0.89049 0.0
C284 C 0.20151 0.79925 0.93239 0.0
N285 N 0.17133 0.81814 0.90594 0.0
C286 C 0.23755 0.90223 0.90116 0.0
C287 C 0.2689 0.88298 0.92795 0.0
C288 C 0.02075 0.86944 0.86689 0.0
C289 C 0.85206 0.69916 0.9015 0.0
C290 C 0.87497 0.7935 0.86057 0.0
C291 C 0.82265 0.79371 0.87875 0.0
C292 C 0.81125 0.74619 0.89936 0.0
N293 N 0.91469 0.74716 0.86275 0.0
C294 C 0.90384 0.7004 0.88289 0.0
Co295 Co 0.21781 0.10204 0.39072 0.0
Co296 Co 0.24254 0.98645 0.33813 0.0
O297 O 0.26189 0.03175 0.37645 0.0
C298 C 0.21797 0.02141 0.44607 0.0
O299 O 0.20315 0.97878 0.42608 0.0
C300 C 0.36837 0.02065 0.33045 0.0
O301 O 0.3503 0.07568 0.33567 0.0
O302 O 0.24051 0.06034 0.31219 0.0
O303 O 0.20704 0.13088 0.34586 0.0
H304 H 0.13217 0.94364 0.23633 0.0
H305 H 0.33643 0.07504 0.41877 0.0
O306 O 0.22658 0.07448 0.43594 0.0
H307 H 0.35748 0.27431 0.36961 0.0
H308 H 0.17706 0.2753 0.46413 0.0
H309 H 0.10767 0.16453 0.36958 0.0
H310 H 0.26085 0.221 0.36801 0.0
H311 H 0.23303 0.18751 0.44455 0.0
O312 O 0.33046 0.97803 0.3297 0.0
H313 H 0.15387 -0.00125 0.28589 0.0
H314 H 0.29454 0.87767 0.30775 0.0
H315 H 0.0506 0.25235 0.38816 0.0
H316 H 0.43381 0.12689 0.42108 0.0
H317 H 0.08528 0.30839 0.43577 0.0
H318 H 0.44482 0.22718 0.39627 0.0
O319 O 0.14109 0.05783 0.38762 0.0
H320 H 0.32837 0.84326 0.41834 0.0
H321 H 0.16019 0.88255 0.34525 0.0
H322 H 0.15986 0.79083 0.37789 0.0
H323 H 0.24443 0.7707 0.41477 0.0
H324 H 0.32668 0.93463 0.38541 0.0
H325 H 0.27465 0.82149 0.25828 0.0
H326 H 0.1932 0.85461 0.22216 0.0
O327 O 0.1544 0.99503 0.34621 0.0
C328 C 0.22022 0.11248 0.31794 0.0
C329 C 0.16792 0.92887 0.25186 0.0
C330 C 0.24793 0.86035 0.26417 0.0
N331 N 0.22516 0.94119 0.2998 0.0
C332 C 0.18018 0.95966 0.28005 0.0
C333 C 0.25895 0.89229 0.29215 0.0
C334 C 0.20221 0.87898 0.24389 0.0
C335 C 0.34072 0.11895 0.40824 0.0
N336 N 0.29296 0.14512 0.39345 0.0
C337 C 0.39603 0.14798 0.4095 0.0
C338 C 0.4022 0.2042 0.39552 0.0
C339 C 0.35322 0.23066 0.38054 0.0
C340 C 0.29865 0.20023 0.37967 0.0
C341 C 0.16161 0.25138 0.4433 0.0
C342 C 0.12329 0.189 0.39015 0.0
C343 C 0.19308 0.20162 0.43212 0.0
N344 N 0.17401 0.17143 0.40572 0.0
C345 C 0.09068 0.23855 0.40063 0.0
C346 C 0.11012 0.26993 0.42737 0.0
C347 C 0.12157 0.02069 0.36706 0.0
C348 C 0.29136 0.85145 0.4023 0.0
C349 C 0.19709 0.87415 0.36128 0.0
C350 C 0.19671 0.82209 0.37966 0.0
C351 C 0.2442 0.8108 0.40032 0.0
N352 N 0.24355 0.91374 0.36332 0.0
C353 C 0.29029 0.90298 0.38349 0.0
Co354 Co 0.89035 0.21802 0.8906 0.0
Co355 Co 0.00542 0.24338 0.83779 0.0
O356 O 0.96028 0.26255 0.87621 0.0
C357 C 0.97111 0.21878 0.9459 0.0
O358 O 0.01383 0.20425 0.92589 0.0
C359 C 0.97104 0.36928 0.83026 0.0
O360 O 0.916 0.35129 0.83553 0.0
O361 O 0.93133 0.24131 0.81202 0.0
O362 O 0.86143 0.20689 0.84577 0.0
H363 H 0.0476 0.13358 0.73576 0.0
H364 H 0.91649 0.3369 0.91852 0.0
O365 O 0.91797 0.22711 0.93579 0.0
H366 H 0.71678 0.35623 0.86962 0.0
H367 H 0.71774 0.17607 0.96427 0.0
H368 H 0.82869 0.10735 0.86962 0.0
H369 H 0.77094 0.26006 0.86799 0.0
H370 H 0.80492 0.23275 0.9445 0.0
O371 O 0.01362 0.33131 0.82942 0.0
H372 H 0.99293 0.15489 0.78551 0.0
H373 H 0.11387 0.29568 0.80722 0.0
H374 H 0.7415 0.04958 0.8884 0.0
H375 H 0.86378 0.43385 0.92086 0.0
H376 H 0.68537 0.08392 0.93606 0.0
H377 H 0.76327 0.44397 0.89619 0.0
O378 O 0.93516 0.14166 0.88753 0.0
H379 H 0.14908 0.32936 0.9177 0.0
H380 H 0.10956 0.16122 0.84466 0.0
H381 H 0.20161 0.16107 0.87704 0.0
H382 H 0.22186 0.24562 0.91389 0.0
H383 H 0.05739 0.3275 0.88502 0.0
H384 H 0.1696 0.27619 0.75756 0.0
H385 H 0.13632 0.19487 0.72141 0.0
O386 O -0.00284 0.15518 0.84582 0.0
C387 C 0.87946 0.22042 0.81784 0.0
C388 C 0.06243 0.16926 0.7513 0.0
C389 C 0.13087 0.24935 0.76352 0.0
N390 N 0.05044 0.22621 0.79936 0.0
C391 C 0.03189 0.1813 0.7796 0.0
C392 C 0.0992 0.26014 0.79161 0.0
C393 C 0.11215 0.20371 0.74323 0.0
C394 C 0.87249 0.34083 0.90804 0.0
N395 N 0.84667 0.29284 0.8933 0.0
C396 C 0.84297 0.39588 0.90931 0.0
C397 C 0.78662 0.40156 0.89542 0.0
C398 C 0.76053 0.35236 0.88049 0.0
C399 C 0.79144 0.29804 0.8796 0.0
C400 C 0.7417 0.16078 0.94342 0.0
C401 C 0.80416 0.12284 0.89021 0.0
C402 C 0.79111 0.19265 0.93214 0.0
N403 N 0.82135 0.17375 0.90571 0.0
C404 C 0.75498 0.08982 0.90081 0.0
C405 C 0.72355 0.10907 0.92757 0.0
C406 C 0.97208 0.12228 0.86683 0.0
C407 C 0.14084 0.29236 0.90167 0.0
C408 C 0.11801 0.19811 0.86068 0.0
C409 C 0.17026 0.19783 0.87892 0.0
C410 C 0.18161 0.24531 0.89956 0.0
N411 N 0.07831 0.24447 0.86284 0.0
C412 C 0.08913 0.2912 0.883 0.0
Co413 Co 0.77326 0.89013 0.39055 0.0
Co414 Co 0.74741 0.00557 0.338 0.0
O415 O 0.72842 0.95996 0.37629 0.0
C416 C 0.77243 0.97069 0.44591 0.0
O417 O 0.78668 0.01348 0.4259 0.0
C418 C 0.62176 0.97042 0.3303 0.0
O419 O 0.64008 0.91546 0.33551 0.0
O420 O 0.75015 0.93176 0.31203 0.0
O421 O 0.78428 0.86148 0.34567 0.0
H422 H 0.85735 0.04959 0.23623 0.0
H423 H 0.65437 0.91578 0.41863 0.0
O424 O 0.76427 0.91754 0.43578 0.0
H425 H 0.63557 0.71626 0.36951 0.0
H426 H 0.81619 0.71736 0.46396 0.0
H427 H 0.88401 0.82886 0.36931 0.0
H428 H 0.73156 0.77073 0.36783 0.0
H429 H 0.75911 0.80445 0.44438 0.0
O430 O 0.65946 0.01322 0.32955 0.0
H431 H 0.83615 0.99419 0.28575 0.0
H432 H 0.69448 0.11401 0.30771 0.0
H433 H 0.94219 0.74177 0.38789 0.0
H434 H 0.55761 0.86277 0.42101 0.0
H435 H 0.90831 0.68537 0.43555 0.0
H436 H 0.54775 0.76234 0.39623 0.0
O437 O 0.8495 0.93514 0.38747 0.0
H438 H 0.6599 0.14771 0.41822 0.0
H439 H 0.82873 0.11024 0.3453 0.0
H440 H 0.82801 0.20192 0.37797 0.0
H441 H 0.7431 0.22113 0.41476 0.0
H442 H 0.66264 0.05642 0.38526 0.0
H443 H 0.7139 0.1705 0.25829 0.0
H444 H 0.79561 0.13815 0.22212 0.0
O445 O 0.83563 -0.00213 0.3461 0.0
C446 C 0.77093 0.8798 0.31776 0.0
C447 C 0.8215 0.06402 0.25177 0.0
C448 C 0.74094 0.13185 0.26414 0.0
N449 N 0.7644 0.0511 0.29971 0.0
C450 C 0.80952 0.03306 0.27995 0.0
C451 C 0.7302 0.09975 0.2921 0.0
C452 C 0.7868 0.11365 0.24384 0.0
C453 C 0.65056 0.87182 0.4081 0.0
N454 N 0.6986 0.84622 0.39328 0.0
C455 C 0.59561 0.84213 0.4094 0.0
C456 C 0.59009 0.78583 0.39544 0.0
C457 C 0.63933 0.75997 0.38043 0.0
C458 C 0.69354 0.79104 0.37951 0.0
C459 C 0.83129 0.74144 0.4431 0.0
C460 C 0.86873 0.80422 0.3899 0.0
C461 C 0.79919 0.79081 0.43193 0.0
N462 N 0.81784 0.82121 0.40551 0.0
C463 C 0.90197 0.75509 0.40039 0.0
C464 C 0.88297 0.72351 0.42715 0.0
C465 C 0.86867 0.97253 0.36696 0.0
C466 C 0.69705 0.13992 0.40222 0.0
C467 C 0.7917 0.11825 0.36129 0.0
C468 C 0.79147 0.17028 0.37969 0.0
C469 C 0.74379 0.18105 0.4003 0.0
N470 N 0.74562 0.07819 0.36325 0.0
C471 C 0.69871 0.08844 0.38339 0.0
C472 C 0.94848 0.45398 0.19905 0.0
C473 C 0.00802 0.43364 0.19874 0.0
H474 H 0.88955 0.52945 0.19851 0.0
C475 C 0.05467 0.4758 0.19918 0.0
H476 H 0.9115 0.42264 0.19864 0.0
C477 C 0.04209 0.53702 0.19931 0.0
C478 C 0.98257 0.55738 0.19875 0.0
H479 H 0.10103 0.46159 0.19895 0.0
H480 H 0.0791 0.56835 0.1991 0.0
C481 C 0.9359 0.51522 0.19894 0.0
C482 C 0.45502 0.04309 0.69938 0.0
C483 C 0.43443 0.98367 0.69895 0.0
H484 H 0.53072 0.10166 0.6989 0.0
C485 C 0.4764 0.93681 0.69929 0.0
H486 H 0.42384 0.08022 0.69905 0.0
C487 C 0.5377 0.94911 0.6994 0.0
C488 C 0.55829 0.00852 0.69893 0.0
H489 H 0.462 0.89053 0.69897 0.0
H490 H 0.56888 0.91198 0.69909 0.0
C491 C 0.51632 0.05538 0.69925 0.0
C492 C 0.93731 0.47595 0.8275 0.0
C493 C 0.98414 0.43395 0.82787 0.0
H494 H 0.91251 0.56842 0.82766 0.0
C495 C 0.04358 0.45451 0.82746 0.0
H496 H 0.89101 0.46157 0.82781 0.0
C497 C 0.05591 0.51579 0.82757 0.0
C498 C 0.00907 0.55779 0.82786 0.0
H499 H 0.0807 0.42331 0.82781 0.0
H500 H 0.10221 0.53017 0.82794 0.0
C501 C 0.94963 0.53723 0.82738 0.0
C502 C 0.47488 0.05466 0.32751 0.0
C503 C 0.43307 0.00769 0.328 0.0
H504 H 0.56725 0.07979 0.32755 0.0
C505 C 0.45385 0.94833 0.32768 0.0
H506 H 0.46033 0.10091 0.32774 0.0
C507 C 0.5152 0.93622 0.32776 0.0
C508 C 0.55701 0.98321 0.32793 0.0
H509 H 0.42278 0.91112 0.32813 0.0
H510 H 0.52977 0.88998 0.3282 0.0
C511 C 0.53621 0.04255 0.32736 0.0
C512 C 0.04343 0.22294 0.99138 0.0
C513 C 0.98404 0.22237 0.98038 0.0
H514 H 0.10195 0.22286 0.03172 0.0
C515 C 0.93714 0.22318 1.00268 0.0
H516 H 0.08056 0.22269 0.9748 0.0
C517 C 0.94939 0.22277 0.03531 0.0
C518 C 0.00879 0.22224 0.04632 0.0
H519 H 0.89087 0.22276 0.99497 0.0
H520 H 0.91227 0.22237 0.0519 0.0
C521 C 0.05568 0.22323 0.02401 0.0
C522 C 0.76814 0.0552 0.52403 0.0
C523 C 0.76935 0.00831 0.54634 0.0
H524 H 0.76838 0.08008 0.47482 0.0
C525 C 0.76888 0.94892 0.53533 0.0
H526 H 0.76845 0.10146 0.53174 0.0
C527 C 0.76833 0.93667 0.5027 0.0
C528 C 0.76894 0.98357 0.4804 0.0
H529 H 0.76943 0.9118 0.55192 0.0
H530 H 0.76881 0.89042 0.49499 0.0
C531 C 0.76829 0.04295 0.49141 0.0
C532 C 0.9366 0.76811 0.02396 0.0
C533 C 0.98341 0.7688 0.04632 0.0
H534 H 0.91193 0.76902 0.97472 0.0
C535 C 0.04284 0.76806 0.03538 0.0
H536 H 0.8903 0.76865 0.03162 0.0
C537 C 0.05523 0.76778 1.00276 0.0
C538 C 0.00843 0.76892 0.9804 0.0
H539 H 0.0799 0.76822 0.052 0.0
H540 H 0.10153 0.76805 0.9951 0.0
C541 C 0.94898 0.76851 0.99134 0.0
C542 C 0.22233 0.94904 0.49153 0.0
C543 C 0.22179 0.00844 0.48054 0.0
H544 H 0.22257 0.89049 0.53185 0.0
C545 C 0.22299 0.05531 0.50285 0.0
H546 H 0.22179 0.91195 0.47493 0.0
C547 C 0.22293 0.04302 0.53548 0.0
C548 C 0.22239 0.98362 0.54647 0.0
H549 H 0.22262 0.10158 0.49515 0.0
H550 H 0.22284 0.08012 0.55208 0.0
C551 C 0.22298 0.93676 0.52415 0.0
C552 C 0.13625 0.22323 0.26712 0.0
C553 C 0.15138 0.20356 0.23636 0.0
H554 H 0.14729 0.21082 0.31719 0.0
C555 C 0.1973 0.16109 0.23284 0.0
H556 H 0.10155 0.25645 0.27066 0.0
C557 C 0.22309 0.13441 0.25957 0.0
C558 C 0.20403 0.15023 0.29034 0.0
H559 H 0.21047 0.14528 0.20951 0.0
H560 H 0.25553 0.09898 0.25604 0.0
C561 C 0.1626 0.1971 0.29385 0.0
C562 C 0.79533 0.16194 0.79387 0.0
C563 C 0.84174 0.20384 0.79029 0.0
H564 H 0.73644 0.10035 0.77078 0.0
C565 C 0.85721 0.22304 0.75949 0.0
H566 H 0.78189 0.1465 0.81723 0.0
C567 C 0.83063 0.197 0.7328 0.0
C568 C 0.78862 0.15069 0.73639 0.0
H569 H 0.89229 0.25582 0.7559 0.0
H570 H 0.84616 0.21034 0.70945 0.0
C571 C 0.7693 0.13535 0.76719 0.0
C572 C 0.82873 0.79522 0.29371 0.0
C573 C 0.78741 0.84218 0.29014 0.0
H574 H 0.88971 0.73567 0.27062 0.0
C575 C 0.76863 0.85811 0.25933 0.0
H576 H 0.84382 0.78141 0.31707 0.0
C577 C 0.79451 0.83137 0.23264 0.0
C578 C 0.84024 0.78871 0.23623 0.0
H579 H 0.7363 0.89362 0.25574 0.0
H580 H 0.78152 0.84723 0.20929 0.0
C581 C 0.85515 0.76901 0.26702 0.0
C582 C 0.16285 0.79476 0.73298 0.0
C583 C 0.20455 0.84134 0.73656 0.0
H584 H 0.10141 0.73569 0.75607 0.0
C585 C 0.22361 0.85695 0.76737 0.0
H586 H 0.14753 0.7812 0.70962 0.0
C587 C 0.19759 0.83033 0.79405 0.0
C588 C 0.15145 0.78814 0.79046 0.0
H589 H 0.25624 0.89216 0.77096 0.0
H590 H 0.2108 0.84598 0.81741 0.0
C591 C 0.13628 0.76869 0.75967 0.0
C592 C 0.00166 0.02634 0.18888 0.0
C593 C 0.00778 0.05745 0.16002 0.0
H594 H 0.98704 0.94149 0.2114 0.0
C595 C 0.00261 0.0262 0.13118 0.0
H596 H 0.00594 0.0495 0.21142 0.0
C597 C 0.99044 0.96492 0.13116 0.0
C598 C 0.98518 0.93363 0.16 0.0
H599 H 0.00714 0.04935 0.10864 0.0
H600 H 0.98587 0.94182 0.10862 0.0
C601 C 0.99136 0.96467 0.18887 0.0
C602 C 0.02719 0.99103 0.68886 0.0
C603 C 0.05833 0.98488 0.66001 0.0
H604 H 0.94224 0.00535 0.71134 0.0
C605 C 0.02707 0.9898 0.63115 0.0
H606 H 0.05037 0.98694 0.7114 0.0
C607 C 0.96571 0.0017 0.63111 0.0
C608 C 0.93439 0.0069 0.65994 0.0
H609 H 0.05025 0.98523 0.60863 0.0
H610 H 0.94258 0.00606 0.60857 0.0
C611 C 0.96546 0.00103 0.68882 0.0
C612 C 0.99153 0.02672 0.83793 0.0
C613 C 0.9854 0.05782 0.86678 0.0
H614 H 0.00584 0.9418 0.81541 0.0
C615 C 0.99033 0.02652 0.89563 0.0
H616 H 0.98743 0.04991 0.81539 0.0
C617 C 0.00222 0.96518 0.89565 0.0
C618 C 0.00741 0.93388 0.86682 0.0
H619 H 0.98577 0.04968 0.91816 0.0
H620 H 0.00658 0.94203 0.91819 0.0
C621 C 0.00153 0.96499 0.83794 0.0
C622 C 0.96418 0.99221 0.33809 0.0
C623 C 0.93308 0.98602 0.36694 0.0
H624 H 0.04915 0.00635 0.31559 0.0
C625 C 0.96437 0.99086 0.39579 0.0
H626 H 0.94099 0.98819 0.31555 0.0
C627 C 0.02575 0.00264 0.39582 0.0
C628 C 0.05706 0.00776 0.36699 0.0
H629 H 0.9412 0.98626 0.41832 0.0
H630 H 0.04892 0.00688 0.41836 0.0
C631 C 0.02594 0.00207 0.33811 0.0
loop_
_geom_bond_atom_site_label_1
_geom_bond_atom_site_label_2
_geom_bond_distance
_geom_bond_site_symmetry_2
_ccdc_geom_bond_type
Co0 O2 2.143 . S
Co0 O8 2.074 . S
Co0 O11 2.093 . S
Co0 O24 2.097 . S
Co0 N41 2.151 . S
Co0 N49 2.214 . S
Co1 O2 2.160 . S
Co1 O7 2.058 . S
Co1 O17 2.057 1_455 S
Co1 O32 2.037 1_455 S
Co1 N36 2.145 1_455 S
Co1 N57 2.257 1_455 S
O2 Co0 2.143 . S
O2 Co1 2.160 . S
C3 O4 1.278 . S
C3 O11 1.224 . S
O4 C3 1.278 . S
C5 O6 1.245 . S
C5 O17 1.232 1_455 S
O6 C5 1.245 . S
O7 Co1 2.058 . S
O7 C33 1.269 . S
O8 Co0 2.074 . S
O8 C33 1.257 . S
H9 C34 0.930 . S
H10 C40 0.930 . S
O11 Co0 2.093 . S
O11 C3 1.224 . S
H12 C44 0.929 . S
H13 C46 0.930 . S
H14 C47 0.930 . S
H15 C45 0.929 . S
H16 C48 0.928 . S
O17 Co1 2.057 1_655 S
O17 C5 1.232 1_655 S
H18 C37 0.929 . S
H19 C38 0.929 . S
H20 C50 0.931 1_565 S
H21 C42 0.929 . S
H22 C51 0.930 1_565 S
H23 C43 0.931 . S
O24 Co0 2.097 . S
O24 C52 1.214 . S
H25 C53 0.929 . S
H26 C54 0.929 . S
H27 C55 0.930 . S
H28 C56 0.929 . S
H29 C58 0.930 . S
H30 C35 0.930 . S
H31 C39 0.930 . S
O32 Co1 2.037 1_655 S
O32 C52 1.234 1_655 S
C33 O7 1.269 . S
C33 O8 1.257 . S
C34 H9 0.930 . S
C34 C37 1.388 . S
C34 C39 1.418 . S
C35 H30 0.930 . S
C35 C38 1.404 . S
C35 C39 1.353 . S
N36 Co1 2.145 1_655 S
N36 C37 1.397 . S
N36 C38 1.334 . S
C37 H18 0.929 . S
C37 C34 1.388 . S
C37 N36 1.397 . S
C38 H19 0.929 . S
C38 C35 1.404 . S
C38 N36 1.334 . S
C39 H31 0.930 . S
C39 C34 1.418 . S
C39 C35 1.353 . S
C40 H10 0.930 . S
C40 N41 1.330 . S
C40 C42 1.446 . S
N41 Co0 2.151 . S
N41 C40 1.330 . S
N41 C45 1.418 . S
C42 H21 0.929 . S
C42 C40 1.446 . S
C42 C43 1.332 . S
C43 H23 0.931 . S
C43 C42 1.332 . S
C43 C44 1.267 . S
C44 H12 0.929 . S
C44 C43 1.267 . S
C44 C45 1.251 . S
C45 H15 0.929 . S
C45 N41 1.418 . S
C45 C44 1.251 . S
C46 H13 0.930 . S
C46 C48 1.406 . S
C46 C51 1.261 . S
C47 H14 0.930 . S
C47 N49 1.325 . S
C47 C50 1.357 . S
C48 H16 0.928 . S
C48 C46 1.406 . S
C48 N49 1.261 . S
N49 Co0 2.214 . S
N49 C47 1.325 . S
N49 C48 1.261 . S
C50 H20 0.931 1_545 S
C50 C47 1.357 . S
C50 C51 1.312 . S
C51 H22 0.930 1_545 S
C51 C46 1.261 . S
C51 C50 1.312 . S
C52 O24 1.214 . S
C52 O32 1.234 1_455 S
C53 H25 0.929 . S
C53 C56 1.391 . S
C53 C58 1.391 . S
C54 H26 0.929 . S
C54 C55 1.390 . S
C54 N57 1.391 . S
C55 H27 0.930 . S
C55 C54 1.390 . S
C55 C56 1.392 . S
C56 H28 0.929 . S
C56 C53 1.391 . S
C56 C55 1.392 . S
N57 Co1 2.257 1_655 S
N57 C54 1.391 . S
N57 C58 1.388 . S
C58 H29 0.930 . S
C58 C53 1.391 . S
C58 N57 1.388 . S
Co59 O61 2.143 . S
Co59 O67 2.074 . S
Co59 O70 2.093 . S
Co59 O83 2.097 . S
Co59 N100 2.151 . S
Co59 N108 2.214 . S
Co60 O61 2.160 . S
Co60 O66 2.058 . S
Co60 O76 2.057 1_545 S
Co60 O91 2.037 1_545 S
Co60 N95 2.145 1_545 S
Co60 N116 2.257 1_545 S
O61 Co59 2.143 . S
O61 Co60 2.160 . S
C62 O63 1.278 . S
C62 O70 1.224 . S
O63 C62 1.278 . S
C64 O65 1.245 . S
C64 O76 1.232 1_545 S
O65 C64 1.245 . S
O66 Co60 2.058 . S
O66 C92 1.269 . S
O67 Co59 2.074 . S
O67 C92 1.257 . S
H68 C93 0.930 . S
H69 C99 0.930 . S
O70 Co59 2.093 . S
O70 C62 1.224 . S
H71 C103 0.929 . S
H72 C105 0.930 . S
H73 C106 0.930 . S
H74 C104 0.929 . S
H75 C107 0.928 . S
O76 Co60 2.057 1_565 S
O76 C64 1.232 1_565 S
H77 C96 0.929 . S
H78 C97 0.929 . S
H79 C109 0.931 1_455 S
H80 C101 0.929 . S
H81 C110 0.930 1_455 S
H82 C102 0.931 . S
O83 Co59 2.097 . S
O83 C111 1.214 . S
H84 C112 0.929 . S
H85 C113 0.929 . S
H86 C114 0.930 . S
H87 C115 0.929 . S
H88 C117 0.930 . S
H89 C94 0.930 . S
H90 C98 0.930 . S
O91 Co60 2.037 1_565 S
O91 C111 1.234 1_565 S
C92 O66 1.269 . S
C92 O67 1.257 . S
C93 H68 0.930 . S
C93 C96 1.388 . S
C93 C98 1.418 . S
C94 H89 0.930 . S
C94 C97 1.404 . S
C94 C98 1.353 . S
N95 Co60 2.145 1_565 S
N95 C96 1.397 . S
N95 C97 1.334 . S
C96 H77 0.929 . S
C96 C93 1.388 . S
C96 N95 1.397 . S
C97 H78 0.929 . S
C97 C94 1.404 . S
C97 N95 1.334 . S
C98 H90 0.930 . S
C98 C93 1.418 . S
C98 C94 1.353 . S
C99 H69 0.930 . S
C99 N100 1.330 . S
C99 C101 1.446 . S
N100 Co59 2.151 . S
N100 C99 1.330 . S
N100 C104 1.418 . S
C101 H80 0.929 . S
C101 C99 1.446 . S
C101 C102 1.332 . S
C102 H82 0.931 . S
C102 C101 1.332 . S
C102 C103 1.267 . S
C103 H71 0.929 . S
C103 C102 1.267 . S
C103 C104 1.251 . S
C104 H74 0.929 . S
C104 N100 1.418 . S
C104 C103 1.251 . S
C105 H72 0.930 . S
C105 C107 1.406 . S
C105 C110 1.261 . S
C106 H73 0.930 . S
C106 N108 1.325 . S
C106 C109 1.357 . S
C107 H75 0.928 . S
C107 C105 1.406 . S
C107 N108 1.261 . S
N108 Co59 2.214 . S
N108 C106 1.325 . S
N108 C107 1.261 . S
C109 H79 0.931 1_655 S
C109 C106 1.357 . S
C109 C110 1.312 . S
C110 H81 0.930 1_655 S
C110 C105 1.261 . S
C110 C109 1.312 . S
C111 O83 1.214 . S
C111 O91 1.234 1_545 S
C112 H84 0.929 . S
C112 C115 1.391 . S
C112 C117 1.391 . S
C113 H85 0.929 . S
C113 C114 1.390 . S
C113 N116 1.391 . S
C114 H86 0.930 . S
C114 C113 1.390 . S
C114 C115 1.392 . S
C115 H87 0.929 . S
C115 C112 1.391 . S
C115 C114 1.392 . S
N116 Co60 2.257 1_565 S
N116 C113 1.391 . S
N116 C117 1.388 . S
C117 H88 0.930 . S
C117 C112 1.391 . S
C117 N116 1.388 . S
Co118 O120 2.143 . S
Co118 O126 2.074 . S
Co118 O129 2.093 . S
Co118 O142 2.097 . S
Co118 N159 2.151 . S
Co118 N167 2.214 . S
Co119 O120 2.160 . S
Co119 O125 2.058 . S
Co119 O135 2.057 1_655 S
Co119 O150 2.037 1_655 S
Co119 N154 2.145 1_655 S
Co119 N175 2.257 1_655 S
O120 Co118 2.143 . S
O120 Co119 2.160 . S
C121 O122 1.278 . S
C121 O129 1.224 . S
O122 C121 1.278 . S
C123 O124 1.245 . S
C123 O135 1.232 1_655 S
O124 C123 1.245 . S
O125 Co119 2.058 . S
O125 C151 1.269 . S
O126 Co118 2.074 . S
O126 C151 1.257 . S
H127 C152 0.930 . S
H128 C158 0.930 . S
O129 Co118 2.093 . S
O129 C121 1.224 . S
H130 C162 0.929 . S
H131 C164 0.930 . S
H132 C165 0.930 . S
H133 C163 0.929 . S
H134 C166 0.928 . S
O135 Co119 2.057 1_455 S
O135 C123 1.232 1_455 S
H136 C155 0.929 . S
H137 C156 0.929 . S
H138 C168 0.931 1_545 S
H139 C160 0.929 . S
H140 C169 0.930 1_545 S
H141 C161 0.931 . S
O142 Co118 2.097 . S
O142 C170 1.214 . S
H143 C171 0.929 . S
H144 C172 0.929 . S
H145 C173 0.930 . S
H146 C174 0.929 . S
H147 C176 0.930 . S
H148 C153 0.930 . S
H149 C157 0.930 . S
O150 Co119 2.037 1_455 S
O150 C170 1.234 1_455 S
C151 O125 1.269 . S
C151 O126 1.257 . S
C152 H127 0.930 . S
C152 C155 1.388 . S
C152 C157 1.418 . S
C153 H148 0.930 . S
C153 C156 1.404 . S
C153 C157 1.353 . S
N154 Co119 2.145 1_455 S
N154 C155 1.397 . S
N154 C156 1.334 . S
C155 H136 0.929 . S
C155 C152 1.388 . S
C155 N154 1.397 . S
C156 H137 0.929 . S
C156 C153 1.404 . S
C156 N154 1.334 . S
C157 H149 0.930 . S
C157 C152 1.418 . S
C157 C153 1.353 . S
C158 H128 0.930 . S
C158 N159 1.330 . S
C158 C160 1.446 . S
N159 Co118 2.151 . S
N159 C158 1.330 . S
N159 C163 1.418 . S
C160 H139 0.929 . S
C160 C158 1.446 . S
C160 C161 1.332 . S
C161 H141 0.931 . S
C161 C160 1.332 . S
C161 C162 1.267 . S
C162 H130 0.929 . S
C162 C161 1.267 . S
C162 C163 1.251 . S
C163 H133 0.929 . S
C163 N159 1.418 . S
C163 C162 1.251 . S
C164 H131 0.930 . S
C164 C166 1.406 . S
C164 C169 1.261 . S
C165 H132 0.930 . S
C165 N167 1.325 . S
C165 C168 1.357 . S
C166 H134 0.928 . S
C166 C164 1.406 . S
C166 N167 1.261 . S
N167 Co118 2.214 . S
N167 C165 1.325 . S
N167 C166 1.261 . S
C168 H138 0.931 1_565 S
C168 C165 1.357 . S
C168 C169 1.312 . S
C169 H140 0.930 1_565 S
C169 C164 1.261 . S
C169 C168 1.312 . S
C170 O142 1.214 . S
C170 O150 1.234 1_655 S
C171 H143 0.929 . S
C171 C174 1.391 . S
C171 C176 1.391 . S
C172 H144 0.929 . S
C172 C173 1.390 . S
C172 N175 1.391 . S
C173 H145 0.930 . S
C173 C172 1.390 . S
C173 C174 1.392 . S
C174 H146 0.929 . S
C174 C171 1.391 . S
C174 C173 1.392 . S
N175 Co119 2.257 1_455 S
N175 C172 1.391 . S
N175 C176 1.388 . S
C176 H147 0.930 . S
C176 C171 1.391 . S
C176 N175 1.388 . S
Co177 O179 2.143 . S
Co177 O185 2.074 . S
Co177 O188 2.093 . S
Co177 O201 2.097 . S
Co177 N218 2.151 . S
Co177 N226 2.214 . S
Co178 O179 2.160 . S
Co178 O184 2.058 . S
Co178 O194 2.057 1_565 S
Co178 O209 2.037 1_565 S
Co178 N213 2.145 1_565 S
Co178 N234 2.257 1_565 S
O179 Co177 2.143 . S
O179 Co178 2.160 . S
C180 O181 1.278 . S
C180 O188 1.224 . S
O181 C180 1.278 . S
C182 O183 1.245 . S
C182 O194 1.232 1_565 S
O183 C182 1.245 . S
O184 Co178 2.058 . S
O184 C210 1.269 . S
O185 Co177 2.074 . S
O185 C210 1.257 . S
H186 C211 0.930 . S
H187 C217 0.930 . S
O188 Co177 2.093 . S
O188 C180 1.224 . S
H189 C221 0.929 . S
H190 C223 0.930 . S
H191 C224 0.930 . S
H192 C222 0.929 . S
H193 C225 0.928 . S
O194 Co178 2.057 1_545 S
O194 C182 1.232 1_545 S
H195 C214 0.929 . S
H196 C215 0.929 . S
H197 C227 0.931 1_655 S
H198 C219 0.929 . S
H199 C228 0.930 1_655 S
H200 C220 0.931 . S
O201 Co177 2.097 . S
O201 C229 1.214 . S
H202 C230 0.929 . S
H203 C231 0.929 . S
H204 C232 0.930 . S
H205 C233 0.929 . S
H206 C235 0.930 . S
H207 C212 0.930 . S
H208 C216 0.930 . S
O209 Co178 2.037 1_545 S
O209 C229 1.234 1_545 S
C210 O184 1.269 . S
C210 O185 1.257 . S
C211 H186 0.930 . S
C211 C214 1.388 . S
C211 C216 1.418 . S
C212 H207 0.930 . S
C212 C215 1.404 . S
C212 C216 1.353 . S
N213 Co178 2.145 1_545 S
N213 C214 1.397 . S
N213 C215 1.334 . S
C214 H195 0.929 . S
C214 C211 1.388 . S
C214 N213 1.397 . S
C215 H196 0.929 . S
C215 C212 1.404 . S
C215 N213 1.334 . S
C216 H208 0.930 . S
C216 C211 1.418 . S
C216 C212 1.353 . S
C217 H187 0.930 . S
C217 N218 1.330 . S
C217 C219 1.446 . S
N218 Co177 2.151 . S
N218 C217 1.330 . S
N218 C222 1.418 . S
C219 H198 0.929 . S
C219 C217 1.446 . S
C219 C220 1.332 . S
C220 H200 0.931 . S
C220 C219 1.332 . S
C220 C221 1.267 . S
C221 H189 0.929 . S
C221 C220 1.267 . S
C221 C222 1.251 . S
C222 H192 0.929 . S
C222 N218 1.418 . S
C222 C221 1.251 . S
C223 H190 0.930 . S
C223 C225 1.406 . S
C223 C228 1.261 . S
C224 H191 0.930 . S
C224 N226 1.325 . S
C224 C227 1.357 . S
C225 H193 0.928 . S
C225 C223 1.406 . S
C225 N226 1.261 . S
N226 Co177 2.214 . S
N226 C224 1.325 . S
N226 C225 1.261 . S
C227 H197 0.931 1_455 S
C227 C224 1.357 . S
C227 C228 1.312 . S
C228 H199 0.930 1_455 S
C228 C223 1.261 . S
C228 C227 1.312 . S
C229 O201 1.214 . S
C229 O209 1.234 1_565 S
C230 H202 0.929 . S
C230 C233 1.391 . S
C230 C235 1.391 . S
C231 H203 0.929 . S
C231 C232 1.390 . S
C231 N234 1.391 . S
C232 H204 0.930 . S
C232 C231 1.390 . S
C232 C233 1.392 . S
C233 H205 0.929 . S
C233 C230 1.391 . S
C233 C232 1.392 . S
N234 Co178 2.257 1_545 S
N234 C231 1.391 . S
N234 C235 1.388 . S
C235 H206 0.930 . S
C235 C230 1.391 . S
C235 N234 1.388 . S
Co236 O238 2.143 . S
Co236 O244 2.074 . S
Co236 O247 2.093 . S
Co236 O260 2.097 . S
Co236 N277 2.151 . S
Co236 N285 2.214 . S
Co237 O238 2.160 . S
Co237 O243 2.058 . S
Co237 O253 2.057 1_455 S
Co237 O268 2.037 1_455 S
Co237 N272 2.145 1_455 S
Co237 N293 2.257 1_455 S
O238 Co236 2.143 . S
O238 Co237 2.160 . S
C239 O240 1.278 . S
C239 O247 1.224 . S
O240 C239 1.278 . S
C241 O242 1.245 . S
C241 O253 1.232 1_455 S
O242 C241 1.245 . S
O243 Co237 2.058 . S
O243 C269 1.269 . S
O244 Co236 2.074 . S
O244 C269 1.257 . S
H245 C270 0.930 . S
H246 C276 0.930 . S
O247 Co236 2.093 . S
O247 C239 1.224 . S
H248 C280 0.929 . S
H249 C282 0.930 . S
H250 C283 0.930 . S
H251 C281 0.929 . S
H252 C284 0.928 . S
O253 Co237 2.057 1_655 S
O253 C241 1.232 1_655 S
H254 C273 0.929 . S
H255 C274 0.929 . S
H256 C286 0.931 1_545 S
H257 C278 0.929 . S
H258 C287 0.930 1_545 S
H259 C279 0.931 . S
O260 Co236 2.097 . S
O260 C288 1.214 . S
H261 C289 0.929 . S
H262 C290 0.929 . S
H263 C291 0.930 . S
H264 C292 0.929 . S
H265 C294 0.930 . S
H266 C271 0.930 . S
H267 C275 0.930 . S
O268 Co237 2.037 1_655 S
O268 C288 1.234 1_655 S
C269 O243 1.269 . S
C269 O244 1.257 . S
C270 H245 0.930 . S
C270 C273 1.388 . S
C270 C275 1.418 . S
C271 H266 0.930 . S
C271 C274 1.404 . S
C271 C275 1.353 . S
N272 Co237 2.145 1_655 S
N272 C273 1.397 . S
N272 C274 1.334 . S
C273 H254 0.929 . S
C273 C270 1.388 . S
C273 N272 1.397 . S
C274 H255 0.929 . S
C274 C271 1.404 . S
C274 N272 1.334 . S
C275 H267 0.930 . S
C275 C270 1.418 . S
C275 C271 1.353 . S
C276 H246 0.930 . S
C276 N277 1.330 . S
C276 C278 1.446 . S
N277 Co236 2.151 . S
N277 C276 1.330 . S
N277 C281 1.418 . S
C278 H257 0.929 . S
C278 C276 1.446 . S
C278 C279 1.332 . S
C279 H259 0.931 . S
C279 C278 1.332 . S
C279 C280 1.267 . S
C280 H248 0.929 . S
C280 C279 1.267 . S
C280 C281 1.251 . S
C281 H251 0.929 . S
C281 N277 1.418 . S
C281 C280 1.251 . S
C282 H249 0.930 . S
C282 C284 1.406 . S
C282 C287 1.261 . S
C283 H250 0.930 . S
C283 N285 1.325 . S
C283 C286 1.357 . S
C284 H252 0.928 . S
C284 C282 1.406 . S
C284 N285 1.261 . S
N285 Co236 2.214 . S
N285 C283 1.325 . S
N285 C284 1.261 . S
C286 H256 0.931 1_565 S
C286 C283 1.357 . S
C286 C287 1.312 . S
C287 H258 0.930 1_565 S
C287 C282 1.261 . S
C287 C286 1.312 . S
C288 O260 1.214 . S
C288 O268 1.234 1_455 S
C289 H261 0.929 . S
C289 C292 1.391 . S
C289 C294 1.391 . S
C290 H262 0.929 . S
C290 C291 1.390 . S
C290 N293 1.391 . S
C291 H263 0.930 . S
C291 C290 1.390 . S
C291 C292 1.392 . S
C292 H264 0.929 . S
C292 C289 1.391 . S
C292 C291 1.392 . S
N293 Co237 2.257 1_655 S
N293 C290 1.391 . S
N293 C294 1.388 . S
C294 H265 0.930 . S
C294 C289 1.391 . S
C294 N293 1.388 . S
Co295 O297 2.143 . S
Co295 O303 2.074 . S
Co295 O306 2.093 . S
Co295 O319 2.097 . S
Co295 N336 2.151 . S
Co295 N344 2.214 . S
Co296 O297 2.160 . S
Co296 O302 2.058 . S
Co296 O312 2.057 1_545 S
Co296 O327 2.037 1_545 S
Co296 N331 2.145 1_545 S
Co296 N352 2.257 1_545 S
O297 Co295 2.143 . S
O297 Co296 2.160 . S
C298 O299 1.278 . S
C298 O306 1.224 . S
O299 C298 1.278 . S
C300 O301 1.245 . S
C300 O312 1.232 1_545 S
O301 C300 1.245 . S
O302 Co296 2.058 . S
O302 C328 1.269 . S
O303 Co295 2.074 . S
O303 C328 1.257 . S
H304 C329 0.930 . S
H305 C335 0.930 . S
O306 Co295 2.093 . S
O306 C298 1.224 . S
H307 C339 0.929 . S
H308 C341 0.930 . S
H309 C342 0.930 . S
H310 C340 0.929 . S
H311 C343 0.928 . S
O312 Co296 2.057 1_565 S
O312 C300 1.232 1_565 S
H313 C332 0.929 . S
H314 C333 0.929 . S
H315 C345 0.931 1_655 S
H316 C337 0.929 . S
H317 C346 0.930 1_655 S
H318 C338 0.931 . S
O319 Co295 2.097 . S
O319 C347 1.214 . S
H320 C348 0.929 . S
H321 C349 0.929 . S
H322 C350 0.930 . S
H323 C351 0.929 . S
H324 C353 0.930 . S
H325 C330 0.930 . S
H326 C334 0.930 . S
O327 Co296 2.037 1_565 S
O327 C347 1.234 1_565 S
C328 O302 1.269 . S
C328 O303 1.257 . S
C329 H304 0.930 . S
C329 C332 1.388 . S
C329 C334 1.418 . S
C330 H325 0.930 . S
C330 C333 1.404 . S
C330 C334 1.353 . S
N331 Co296 2.145 1_565 S
N331 C332 1.397 . S
N331 C333 1.334 . S
C332 H313 0.929 . S
C332 C329 1.388 . S
C332 N331 1.397 . S
C333 H314 0.929 . S
C333 C330 1.404 . S
C333 N331 1.334 . S
C334 H326 0.930 . S
C334 C329 1.418 . S
C334 C330 1.353 . S
C335 H305 0.930 . S
C335 N336 1.330 . S
C335 C337 1.446 . S
N336 Co295 2.151 . S
N336 C335 1.330 . S
N336 C340 1.418 . S
C337 H316 0.929 . S
C337 C335 1.446 . S
C337 C338 1.332 . S
C338 H318 0.931 . S
C338 C337 1.332 . S
C338 C339 1.267 . S
C339 H307 0.929 . S
C339 C338 1.267 . S
C339 C340 1.251 . S
C340 H310 0.929 . S
C340 N336 1.418 . S
C340 C339 1.251 . S
C341 H308 0.930 . S
C341 C343 1.406 . S
C341 C346 1.261 . S
C342 H309 0.930 . S
C342 N344 1.325 . S
C342 C345 1.357 . S
C343 H311 0.928 . S
C343 C341 1.406 . S
C343 N344 1.261 . S
N344 Co295 2.214 . S
N344 C342 1.325 . S
N344 C343 1.261 . S
C345 H315 0.931 1_455 S
C345 C342 1.357 . S
C345 C346 1.312 . S
C346 H317 0.930 1_455 S
C346 C341 1.261 . S
C346 C345 1.312 . S
C347 O319 1.214 . S
C347 O327 1.234 1_545 S
C348 H320 0.929 . S
C348 C351 1.391 . S
C348 C353 1.391 . S
C349 H321 0.929 . S
C349 C350 1.390 . S
C349 N352 1.391 . S
C350 H322 0.930 . S
C350 C349 1.390 . S
C350 C351 1.392 . S
C351 H323 0.929 . S
C351 C348 1.391 . S
C351 C350 1.392 . S
N352 Co296 2.257 1_565 S
N352 C349 1.391 . S
N352 C353 1.388 . S
C353 H324 0.930 . S
C353 C348 1.391 . S
C353 N352 1.388 . S
Co354 O356 2.143 . S
Co354 O362 2.074 . S
Co354 O365 2.093 . S
Co354 O378 2.097 . S
Co354 N395 2.151 . S
Co354 N403 2.214 . S
Co355 O356 2.160 . S
Co355 O361 2.058 . S
Co355 O371 2.057 1_655 S
Co355 O386 2.037 1_655 S
Co355 N390 2.145 1_655 S
Co355 N411 2.257 1_655 S
O356 Co354 2.143 . S
O356 Co355 2.160 . S
C357 O358 1.278 . S
C357 O365 1.224 . S
O358 C357 1.278 . S
C359 O360 1.245 . S
C359 O371 1.232 1_655 S
O360 C359 1.245 . S
O361 Co355 2.058 . S
O361 C387 1.269 . S
O362 Co354 2.074 . S
O362 C387 1.257 . S
H363 C388 0.930 . S
H364 C394 0.930 . S
O365 Co354 2.093 . S
O365 C357 1.224 . S
H366 C398 0.929 . S
H367 C400 0.930 . S
H368 C401 0.930 . S
H369 C399 0.929 . S
H370 C402 0.928 . S
O371 Co355 2.057 1_455 S
O371 C359 1.232 1_455 S
H372 C391 0.929 . S
H373 C392 0.929 . S
H374 C404 0.931 1_565 S
H375 C396 0.929 . S
H376 C405 0.930 1_565 S
H377 C397 0.931 . S
O378 Co354 2.097 . S
O378 C406 1.214 . S
H379 C407 0.929 . S
H380 C408 0.929 . S
H381 C409 0.930 . S
H382 C410 0.929 . S
H383 C412 0.930 . S
H384 C389 0.930 . S
H385 C393 0.930 . S
O386 Co355 2.037 1_455 S
O386 C406 1.234 1_455 S
C387 O361 1.269 . S
C387 O362 1.257 . S
C388 H363 0.930 . S
C388 C391 1.388 . S
C388 C393 1.418 . S
C389 H384 0.930 . S
C389 C392 1.404 . S
C389 C393 1.353 . S
N390 Co355 2.145 1_455 S
N390 C391 1.397 . S
N390 C392 1.334 . S
C391 H372 0.929 . S
C391 C388 1.388 . S
C391 N390 1.397 . S
C392 H373 0.929 . S
C392 C389 1.404 . S
C392 N390 1.334 . S
C393 H385 0.930 . S
C393 C388 1.418 . S
C393 C389 1.353 . S
C394 H364 0.930 . S
C394 N395 1.330 . S
C394 C396 1.446 . S
N395 Co354 2.151 . S
N395 C394 1.330 . S
N395 C399 1.418 . S
C396 H375 0.929 . S
C396 C394 1.446 . S
C396 C397 1.332 . S
C397 H377 0.931 . S
C397 C396 1.332 . S
C397 C398 1.267 . S
C398 H366 0.929 . S
C398 C397 1.267 . S
C398 C399 1.251 . S
C399 H369 0.929 . S
C399 N395 1.418 . S
C399 C398 1.251 . S
C400 H367 0.930 . S
C400 C402 1.406 . S
C400 C405 1.261 . S
C401 H368 0.930 . S
C401 N403 1.325 . S
C401 C404 1.357 . S
C402 H370 0.928 . S
C402 C400 1.406 . S
C402 N403 1.261 . S
N403 Co354 2.214 . S
N403 C401 1.325 . S
N403 C402 1.261 . S
C404 H374 0.931 1_545 S
C404 C401 1.357 . S
C404 C405 1.312 . S
C405 H376 0.930 1_545 S
C405 C400 1.261 . S
C405 C404 1.312 . S
C406 O378 1.214 . S
C406 O386 1.234 1_655 S
C407 H379 0.929 . S
C407 C410 1.391 . S
C407 C412 1.391 . S
C408 H380 0.929 . S
C408 C409 1.390 . S
C408 N411 1.391 . S
C409 H381 0.930 . S
C409 C408 1.390 . S
C409 C410 1.392 . S
C410 H382 0.929 . S
C410 C407 1.391 . S
C410 C409 1.392 . S
N411 Co355 2.257 1_455 S
N411 C408 1.391 . S
N411 C412 1.388 . S
C412 H383 0.930 . S
C412 C407 1.391 . S
C412 N411 1.388 . S
Co413 O415 2.143 . S
Co413 O421 2.074 . S
Co413 O424 2.093 . S
Co413 O437 2.097 . S
Co413 N454 2.151 . S
Co413 N462 2.214 . S
Co414 O415 2.160 . S
Co414 O420 2.058 . S
Co414 O430 2.057 1_565 S
Co414 O445 2.037 1_565 S
Co414 N449 2.145 1_565 S
Co414 N470 2.257 1_565 S
O415 Co413 2.143 . S
O415 Co414 2.160 . S
C416 O417 1.278 . S
C416 O424 1.224 . S
O417 C416 1.278 . S
C418 O419 1.245 . S
C418 O430 1.232 1_565 S
O419 C418 1.245 . S
O420 Co414 2.058 . S
O420 C446 1.269 . S
O421 Co413 2.074 . S
O421 C446 1.257 . S
H422 C447 0.930 . S
H423 C453 0.930 . S
O424 Co413 2.093 . S
O424 C416 1.224 . S
H425 C457 0.929 . S
H426 C459 0.930 . S
H427 C460 0.930 . S
H428 C458 0.929 . S
H429 C461 0.928 . S
O430 Co414 2.057 1_545 S
O430 C418 1.232 1_545 S
H431 C450 0.929 . S
H432 C451 0.929 . S
H433 C463 0.931 1_455 S
H434 C455 0.929 . S
H435 C464 0.930 1_455 S
H436 C456 0.931 . S
O437 Co413 2.097 . S
O437 C465 1.214 . S
H438 C466 0.929 . S
H439 C467 0.929 . S
H440 C468 0.930 . S
H441 C469 0.929 . S
H442 C471 0.930 . S
H443 C448 0.930 . S
H444 C452 0.930 . S
O445 Co414 2.037 1_545 S
O445 C465 1.234 1_545 S
C446 O420 1.269 . S
C446 O421 1.257 . S
C447 H422 0.930 . S
C447 C450 1.388 . S
C447 C452 1.418 . S
C448 H443 0.930 . S
C448 C451 1.404 . S
C448 C452 1.353 . S
N449 Co414 2.145 1_545 S
N449 C450 1.397 . S
N449 C451 1.334 . S
C450 H431 0.929 . S
C450 C447 1.388 . S
C450 N449 1.397 . S
C451 H432 0.929 . S
C451 C448 1.404 . S
C451 N449 1.334 . S
C452 H444 0.930 . S
C452 C447 1.418 . S
C452 C448 1.353 . S
C453 H423 0.930 . S
C453 N454 1.330 . S
C453 C455 1.446 . S
N454 Co413 2.151 . S
N454 C453 1.330 . S
N454 C458 1.418 . S
C455 H434 0.929 . S
C455 C453 1.446 . S
C455 C456 1.332 . S
C456 H436 0.931 . S
C456 C455 1.332 . S
C456 C457 1.267 . S
C457 H425 0.929 . S
C457 C456 1.267 . S
C457 C458 1.251 . S
C458 H428 0.929 . S
C458 N454 1.418 . S
C458 C457 1.251 . S
C459 H426 0.930 . S
C459 C461 1.406 . S
C459 C464 1.261 . S
C460 H427 0.930 . S
C460 N462 1.325 . S
C460 C463 1.357 . S
C461 H429 0.928 . S
C461 C459 1.406 . S
C461 N462 1.261 . S
N462 Co413 2.214 . S
N462 C460 1.325 . S
N462 C461 1.261 . S
C463 H433 0.931 1_655 S
C463 C460 1.357 . S
C463 C464 1.312 . S
C464 H435 0.930 1_655 S
C464 C459 1.261 . S
C464 C463 1.312 . S
C465 O437 1.214 . S
C465 O445 1.234 1_565 S
C466 H438 0.929 . S
C466 C469 1.391 . S
C466 C471 1.391 . S
C467 H439 0.929 . S
C467 C468 1.390 . S
C467 N470 1.391 . S
C468 H440 0.930 . S
C468 C467 1.390 . S
C468 C469 1.392 . S
C469 H441 0.929 . S
C469 C466 1.391 . S
C469 C468 1.392 . S
N470 Co414 2.257 1_545 S
N470 C467 1.391 . S
N470 C471 1.388 . S
C471 H442 0.930 . S
C471 C466 1.391 . S
C471 N470 1.388 . S
C472 C473 1.387 . S
C472 H476 0.950 . S
C472 C481 1.390 1_455 S
C473 C472 1.387 . S
C473 C475 1.387 . S
H474 C481 0.950 . S
C475 C473 1.387 . S
C475 C477 1.390 1_455 S
C475 H479 0.950 . S
H476 C472 0.950 . S
C477 C475 1.390 1_655 S
C477 C478 1.387 . S
C477 H480 0.950 . S
C478 C477 1.387 . S
C478 C481 1.387 . S
H479 C475 0.950 . S
H480 C477 0.950 . S
C481 C472 1.390 1_655 S
C481 H474 0.950 . S
C481 C478 1.387 . S
C482 C483 1.387 . S
C482 H486 0.950 . S
C482 C491 1.390 1_565 S
C483 C482 1.387 . S
C483 C485 1.387 . S
H484 C491 0.950 . S
C485 C483 1.387 . S
C485 C487 1.390 1_565 S
C485 H489 0.950 . S
H486 C482 0.950 . S
C487 C485 1.390 1_545 S
C487 C488 1.387 . S
C487 H490 0.950 . S
C488 C487 1.387 . S
C488 C491 1.387 . S
H489 C485 0.950 . S
H490 C487 0.950 . S
C491 C482 1.390 1_545 S
C491 H484 0.950 . S
C491 C488 1.387 . S
C492 C493 1.387 . S
C492 H496 0.950 . S
C492 C501 1.390 1_655 S
C493 C492 1.387 . S
C493 C495 1.387 . S
H494 C501 0.950 . S
C495 C493 1.387 . S
C495 C497 1.390 1_655 S
C495 H499 0.950 . S
H496 C492 0.950 . S
C497 C495 1.390 1_455 S
C497 C498 1.387 . S
C497 H500 0.950 . S
C498 C497 1.387 . S
C498 C501 1.387 . S
H499 C495 0.950 . S
H500 C497 0.950 . S
C501 C492 1.390 1_455 S
C501 H494 0.950 . S
C501 C498 1.387 . S
C502 C503 1.387 . S
C502 H506 0.950 . S
C502 C511 1.390 1_545 S
C503 C502 1.387 . S
C503 C505 1.387 . S
H504 C511 0.950 . S
C505 C503 1.387 . S
C505 C507 1.390 1_545 S
C505 H509 0.950 . S
H506 C502 0.950 . S
C507 C505 1.390 1_565 S
C507 C508 1.387 . S
C507 H510 0.950 . S
C508 C507 1.387 . S
C508 C511 1.387 . S
H509 C505 0.950 . S
H510 C507 0.950 . S
C511 C502 1.390 1_565 S
C511 H504 0.950 . S
C511 C508 1.387 . S
C512 C513 1.387 . S
C512 H516 0.950 . S
C512 C521 1.390 1_656 S
C513 C512 1.387 . S
C513 C515 1.387 . S
H514 C521 0.950 . S
C515 C513 1.387 . S
C515 C517 1.390 1_656 S
C515 H519 0.950 . S
H516 C512 0.950 . S
C517 C515 1.390 1_454 S
C517 C518 1.387 . S
C517 H520 0.950 . S
C518 C517 1.387 . S
C518 C521 1.387 . S
H519 C515 0.950 . S
H520 C517 0.950 . S
C521 C512 1.390 1_454 S
C521 H514 0.950 . S
C521 C518 1.387 . S
C522 C523 1.387 . S
C522 H526 0.950 . S
C522 C531 1.390 1_545 S
C523 C522 1.387 . S
C523 C525 1.387 . S
H524 C531 0.950 . S
C525 C523 1.387 . S
C525 C527 1.390 1_545 S
C525 H529 0.950 . S
H526 C522 0.950 . S
C527 C525 1.390 1_565 S
C527 C528 1.387 . S
C527 H530 0.950 . S
C528 C527 1.387 . S
C528 C531 1.387 . S
H529 C525 0.950 . S
H530 C527 0.950 . S
C531 C522 1.390 1_565 S
C531 H524 0.950 . S
C531 C528 1.387 . S
C532 C533 1.387 . S
C532 H536 0.950 . S
C532 C541 1.390 1_654 S
C533 C532 1.387 . S
C533 C535 1.387 . S
H534 C541 0.950 . S
C535 C533 1.387 . S
C535 C537 1.390 1_654 S
C535 H539 0.950 . S
H536 C532 0.950 . S
C537 C535 1.390 1_456 S
C537 C538 1.387 . S
C537 H540 0.950 . S
C538 C537 1.387 . S
C538 C541 1.387 . S
H539 C535 0.950 . S
H540 C537 0.950 . S
C541 C532 1.390 1_456 S
C541 H534 0.950 . S
C541 C538 1.387 . S
C542 C543 1.387 . S
C542 H546 0.950 . S
C542 C551 1.390 1_545 S
C543 C542 1.387 . S
C543 C545 1.387 . S
H544 C551 0.950 . S
C545 C543 1.387 . S
C545 C547 1.390 1_545 S
C545 H549 0.950 . S
H546 C542 0.950 . S
C547 C545 1.390 1_565 S
C547 C548 1.387 . S
C547 H550 0.950 . S
C548 C547 1.387 . S
C548 C551 1.387 . S
H549 C545 0.950 . S
H550 C547 0.950 . S
C551 C542 1.390 1_565 S
C551 H544 0.950 . S
C551 C548 1.387 . S
C552 C553 1.387 . S
C552 H556 0.950 . S
C552 C561 1.390 . S
C553 C552 1.387 . S
C553 C555 1.387 . S
H554 C561 0.950 . S
C555 C553 1.387 . S
C555 C557 1.390 . S
C555 H559 0.950 . S
H556 C552 0.950 . S
C557 C555 1.390 . S
C557 C558 1.387 . S
C557 H560 0.950 . S
C558 C557 1.387 . S
C558 C561 1.387 . S
H559 C555 0.950 . S
H560 C557 0.950 . S
C561 C552 1.390 . S
C561 H554 0.950 . S
C561 C558 1.387 . S
C562 C563 1.387 . S
C562 H566 0.950 . S
C562 C571 1.390 . S
C563 C562 1.387 . S
C563 C565 1.387 . S
H564 C571 0.950 . S
C565 C563 1.387 . S
C565 C567 1.390 . S
C565 H569 0.950 . S
H566 C562 0.950 . S
C567 C565 1.390 . S
C567 C568 1.387 . S
C567 H570 0.950 . S
C568 C567 1.387 . S
C568 C571 1.387 . S
H569 C565 0.950 . S
H570 C567 0.950 . S
C571 C562 1.390 . S
C571 H564 0.950 . S
C571 C568 1.387 . S
C572 C573 1.387 . S
C572 H576 0.950 . S
C572 C581 1.390 . S
C573 C572 1.387 . S
C573 C575 1.387 . S
H574 C581 0.950 . S
C575 C573 1.387 . S
C575 C577 1.390 . S
C575 H579 0.950 . S
H576 C572 0.950 . S
C577 C575 1.390 . S
C577 C578 1.387 . S
C577 H580 0.950 . S
C578 C577 1.387 . S
C578 C581 1.387 . S
H579 C575 0.950 . S
H580 C577 0.950 . S
C581 C572 1.390 . S
C581 H574 0.950 . S
C581 C578 1.387 . S
C582 C583 1.387 . S
C582 H586 0.950 . S
C582 C591 1.390 . S
C583 C582 1.387 . S
C583 C585 1.387 . S
H584 C591 0.950 . S
C585 C583 1.387 . S
C585 C587 1.390 . S
C585 H589 0.950 . S
H586 C582 0.950 . S
C587 C585 1.390 . S
C587 C588 1.387 . S
C587 H590 0.950 . S
C588 C587 1.387 . S
C588 C591 1.387 . S
H589 C585 0.950 . S
H590 C587 0.950 . S
C591 C582 1.390 . S
C591 H584 0.950 . S
C591 C588 1.387 . S
C592 C593 1.387 1_655 S
C592 H596 0.950 . S
C592 C601 1.390 1_545 S
C593 C592 1.387 1_455 S
C593 C595 1.387 . S
H594 C601 0.950 . S
C595 C593 1.387 . S
C595 C597 1.390 1_545 S
C595 H599 0.950 . S
H596 C592 0.950 . S
C597 C595 1.390 1_565 S
C597 C598 1.387 1_455 S
C597 H600 0.950 . S
C598 C597 1.387 1_655 S
C598 C601 1.387 . S
H599 C595 0.950 . S
H600 C597 0.950 . S
C601 C592 1.390 1_565 S
C601 H594 0.950 . S
C601 C598 1.387 . S
C602 C603 1.387 . S
C602 H606 0.950 . S
C602 C611 1.390 1_455 S
C603 C602 1.387 . S
C603 C605 1.387 1_565 S
H604 C611 0.950 1_545 S
C605 C603 1.387 1_545 S
C605 C607 1.390 1_455 S
C605 H609 0.950 1_545 S
H606 C602 0.950 . S
C607 C605 1.390 1_655 S
C607 C608 1.387 . S
C607 H610 0.950 . S
C608 C607 1.387 . S
C608 C611 1.387 1_545 S
H609 C605 0.950 1_565 S
H610 C607 0.950 . S
C611 C602 1.390 1_655 S
C611 H604 0.950 1_565 S
C611 C608 1.387 1_565 S
C612 C613 1.387 . S
C612 H616 0.950 . S
C612 C621 1.390 1_645 S
C613 C612 1.387 . S
C613 C615 1.387 . S
H614 C621 0.950 . S
C615 C613 1.387 . S
C615 C617 1.390 1_645 S
C615 H619 0.950 . S
H616 C612 0.950 . S
C617 C615 1.390 1_465 S
C617 C618 1.387 . S
C617 H620 0.950 . S
C618 C617 1.387 . S
C618 C621 1.387 . S
H619 C615 0.950 . S
H620 C617 0.950 . S
C621 C612 1.390 1_465 S
C621 H614 0.950 . S
C621 C618 1.387 . S
C622 C623 1.387 . S
C622 H626 0.950 . S
C622 C631 1.390 1_655 S
C623 C622 1.387 . S
C623 C625 1.387 1_565 S
H624 C631 0.950 . S
C625 C623 1.387 1_545 S
C625 C627 1.390 1_655 S
C625 H629 0.950 . S
H626 C622 0.950 . S
C627 C625 1.390 1_455 S
C627 C628 1.387 . S
C627 H630 0.950 . S
C628 C627 1.387 . S
C628 C631 1.388 1_545 S
H629 C625 0.950 . S
H630 C627 0.950 . S
C631 C622 1.390 1_455 S
C631 H624 0.950 . S
C631 C628 1.388 1_565 S
C473 C5 1.443 . S
C478 C123 1.443 . S
C483 C182 1.443 . S
C488 C64 1.443 . S
C493 C359 1.444 . S
C498 C241 1.444 . S
C503 C300 1.444 . S
C508 C418 1.444 . S
C513 C357 1.623 . S
C518 C3 1.623 . S
C523 C62 1.619 . S
C528 C416 1.619 . S
C533 C121 1.623 . S
C538 C239 1.623 . S
C543 C298 1.619 . S
C548 C180 1.619 . S
C553 C33 1.410 . S
C558 C328 1.409 . S
C563 C387 1.408 . S
C568 C92 1.410 . S
C573 C446 1.409 . S
C578 C151 1.410 . S
C583 C210 1.408 . S
C588 C269 1.410 . S
C593 C52 1.121 . S
C598 C170 1.120 . S
C603 C229 1.120 . S
C608 C111 1.121 . S
C613 C406 1.121 . S
C618 C288 1.120 . S
C623 C465 1.121 . S
C628 C347 1.120 . S
