# Generated by pormake.
# Topology sxb, (6)-cn, num edge types: 1
# Building blocks:
#     Node 0, Type 0, BuildingBlock: KUMBOL_clean_sbu_1, # of connection points: 6
#     Node 1, Type 0, BuildingBlock: KUMBOL_clean_sbu_1, # of connection points: 6
#     Node 2, Type 0, BuildingBlock: KUMBOL_clean_sbu_1, # of connection points: 6
#     Node 3, Type 0, BuildingBlock: KUMBOL_clean_sbu_1, # of connection points: 6
#     Edge 4, Type (0, 0), BuildingBlock: CIFDUS_clean_linker_0, # of connection points: 2
#     Edge 5, Type (0, 0), BuildingBlock: CIFDUS_clean_linker_0, # of connection points: 2
#     Edge 6, Type (0, 0), BuildingBlock: CIFDUS_clean_linker_0, # of connection points: 2
#     Edge 7, Type (0, 0), BuildingBlock: CIFDUS_clean_linker_0, # of connection points: 2
#     Edge 8, Type (0, 0), BuildingBlock: CIFDUS_clean_linker_0, # of connection points: 2
#     Edge 9, Type (0, 0), BuildingBlock: CIFDUS_clean_linker_0, # of connection points: 2
#     Edge 10, Type (0, 0), BuildingBlock: CIFDUS_clean_linker_0, # of connection points: 2
#     Edge 11, Type (0, 0), BuildingBlock: CIFDUS_clean_linker_0, # of connection points: 2
#     Edge 12, Type (0, 0), BuildingBlock: CIFDUS_clean_linker_0, # of connection points: 2
#     Edge 13, Type (0, 0), BuildingBlock: CIFDUS_clean_linker_0, # of connection points: 2
#     Edge 14, Type (0, 0), BuildingBlock: CIFDUS_clean_linker_0, # of connection points: 2
#     Edge 15, Type (0, 0), BuildingBlock: CIFDUS_clean_linker_0, # of connection points: 2
# Relax obj value: 0.018
# Max RMSD: 0.065
# Mean RMSD: 0.065
data_MOF--net-sxb--node1-KUMBOL_clean_sbu_1--edge1-CIFDUS_clean_linker_0
_symmetry_space_group_name_H-M    P1
_symmetry_Int_Tables_number       1
_symmetry_cell_setting            triclinic
loop_
_symmetry_equiv_pos_as_xyz
'x, y, z'
_cell_length_a     13.231613
_cell_length_b     44.796311
_cell_length_c     26.006804
_cell_angle_alpha  114.67255
_cell_angle_beta   90.001948
_cell_angle_gamma 90.102259
loop_
_atom_site_label
_atom_site_type_symbol
_atom_site_fract_x
_atom_site_fract_y
_atom_site_fract_z
_atom_type_partial_charge
C0 C 0.21741 0.09393 0.10704 0.0
C1 C 0.3276 0.11132 0.04957 0.0
C2 C 0.24095 0.09454 0.05513 0.0
C3 C 0.39304 0.12606 0.09582 0.0
C4 C 0.28165 0.10987 0.15402 0.0
C5 C 0.37068 0.12507 0.14767 0.0
N6 N 0.12837 0.08027 0.11288 0.0
C7 C 0.09456 0.08539 0.16565 0.0
C8 C 0.25195 0.1117 0.20688 0.0
C9 C 0.15709 0.09999 0.21289 0.0
Gd10 Gd 0.05446 0.95819 0.97081 0.0
Gd11 Gd 1.03088 0.05728 0.02966 0.0
N12 N 0.17707 0.07988 0.01064 0.0
C13 C 0.34431 0.11368 0.99815 0.0
C14 C 0.1904 0.0832 0.96113 0.0
C15 C 0.27466 0.09994 0.95401 0.0
H16 H 0.13643 0.07246 0.92703 0.0
H17 H 0.28611 0.10208 0.91448 0.0
H18 H 0.99928 0.9455 0.08601 0.0
H19 H 1.01827 0.07927 0.17233 0.0
H20 H 0.86722 0.91789 0.11739 0.0
H21 H 0.40981 0.12653 0.99244 0.0
H22 H 0.45963 0.1392 0.09253 0.0
H23 H 1.01044 0.93699 0.83159 0.0
H24 H 0.29927 0.12373 0.24389 0.0
H25 H 0.13074 0.10311 0.25424 0.0
H26 H 0.65328 0.86713 0.95461 0.0
H27 H 0.42078 0.13734 0.18331 0.0
H28 H 0.73952 0.88016 0.78629 0.0
H29 H 0.88146 0.90737 0.7609 0.0
N30 N 0.93611 0.93076 0.89914 0.0
C31 C 0.86299 0.91387 0.91289 0.0
C32 C 0.94585 0.92726 0.84465 0.0
C33 C 0.7946 0.89405 0.8182 0.0
C34 C 0.87415 0.90956 0.80379 0.0
C35 C 0.7892 0.89557 0.87299 0.0
H36 H 0.656 0.8649 0.85854 0.0
N37 N 0.93407 0.93267 0.00501 0.0
C38 C 0.86223 0.9147 0.96713 0.0
C39 C 0.78802 0.89944 0.03766 0.0
C40 C 0.78667 0.89785 0.98273 0.0
C41 C 0.93792 0.93332 0.05784 0.0
C42 C 0.86435 0.91709 0.07524 0.0
O43 O 0.17639 0.0306 0.9885 0.0
O44 O 0.18935 0.98883 0.0165 0.0
O45 O 0.11323 0.91567 0.98137 0.0
O46 O 0.15001 0.92315 0.90538 0.0
O47 O 0.9794 0.02575 0.94067 0.0
O48 O 0.08766 0.98144 0.90974 0.0
O49 O 0.89407 0.97849 0.98883 0.0
O50 O 0.87566 0.03522 0.02024 0.0
O51 O 0.97847 0.0903 0.99387 0.0
O52 O 0.96905 0.10523 0.08406 0.0
O53 O 0.08983 0.98909 0.06282 0.0
O54 O 0.98228 0.03341 0.08799 0.0
C55 C 0.232 0.0107 0.00225 0.0
C56 C 1.03278 1.00332 0.9007 0.0
C57 C 0.21648 0.87358 0.91018 0.0
C58 C 0.28055 0.82489 0.91989 0.0
C59 C 0.31197 0.83241 0.83385 0.0
C60 C 0.25917 0.86201 0.85594 0.0
C61 C 0.32304 0.81401 0.86551 0.0
C62 C 0.22677 0.85479 0.94186 0.0
C63 C 0.15754 0.90434 0.93228 0.0
C64 C 0.71212 0.88015 0.94331 0.0
C65 C 0.71349 0.87896 0.88862 0.0
H66 H 0.73116 0.88687 0.05128 0.0
C67 C 0.83899 0.00538 0.00472 0.0
C68 C 1.02909 0.01085 0.09934 0.0
C69 C 0.86228 0.13191 0.04295 0.0
C70 C 0.78648 0.18064 0.03897 0.0
C71 C 0.68057 0.13597 0.03874 0.0
C72 C 0.76616 0.11855 0.04157 0.0
C73 C 0.69028 0.16682 0.03766 0.0
C74 C 0.87229 0.16276 0.04149 0.0
C75 C 0.95393 0.11352 0.04232 0.0
H76 H 0.34485 0.82373 0.79202 0.0
H77 H 0.25126 0.87572 0.83034 0.0
H78 H 0.36635 0.7915 0.84765 0.0
H79 H 0.19183 0.86322 0.98321 0.0
H80 H 0.60651 0.12538 0.03695 0.0
H81 H 0.75753 0.0946 0.04201 0.0
H82 H 0.62243 0.17994 0.03628 0.0
H83 H 0.94729 0.17247 0.04107 0.0
C84 C 0.22459 0.911 0.38507 0.0
C85 C 0.3354 0.89312 0.44148 0.0
C86 C 0.25078 0.91097 0.43702 0.0
C87 C 0.39656 0.87677 0.39392 0.0
C88 C 0.28435 0.89351 0.33685 0.0
C89 C 0.3719 0.87731 0.34198 0.0
N90 N 0.13648 0.92543 0.38056 0.0
C91 C 0.09892 0.91988 0.32831 0.0
C92 C 0.2512 0.89106 0.28414 0.0
C93 C 0.15707 0.90371 0.27972 0.0
Gd94 Gd 0.06956 0.05042 0.52789 0.0
Gd95 Gd 0.04618 0.95109 0.46577 0.0
N96 N 0.19032 0.92686 0.48254 0.0
C97 C 0.35371 0.89111 0.49304 0.0
C98 C 0.2043 0.92359 0.53201 0.0
C99 C 0.28694 0.90599 0.53823 0.0
H100 H 0.15209 0.93495 0.56671 0.0
H101 H 0.29917 0.90397 0.5778 0.0
H102 H 1.01187 0.064 0.41397 0.0
H103 H 1.02325 0.92727 0.32334 0.0
H104 H 0.88073 0.09308 0.38515 0.0
H105 H 0.4178 0.8775 0.49796 0.0
H106 H 0.46096 0.86256 0.39624 0.0
H107 H 1.01626 0.06457 0.66389 0.0
H108 H 0.29508 0.87788 0.2462 0.0
H109 H 0.12808 0.9003 0.23871 0.0
H110 H 0.66726 0.14107 0.5485 0.0
H111 H 0.41853 0.86379 0.30537 0.0
H112 H 0.74695 0.12161 0.71147 0.0
H113 H 0.88555 0.09219 0.73424 0.0
N114 N 0.94681 0.07424 0.59848 0.0
C115 C 0.87485 0.0921 0.58625 0.0
C116 C 0.9533 0.07525 0.65159 0.0
C117 C 0.80288 0.10861 0.67954 0.0
C118 C 0.88049 0.09182 0.69242 0.0
C119 C 0.80003 0.10929 0.62625 0.0
H120 H 0.66742 0.14018 0.64237 0.0
N121 N 0.94714 0.0756 0.49473 0.0
C122 C 0.87533 0.09294 0.53313 0.0
C123 C 0.80214 0.11028 0.46492 0.0
C124 C 0.80034 0.11052 0.51895 0.0
C125 C 0.95094 0.07599 0.44264 0.0
C126 C 0.8779 0.093 0.42669 0.0
O127 O 0.19535 0.97616 0.50338 0.0
O128 O 0.20784 0.02132 0.48336 0.0
O129 O 0.12689 0.09356 0.51801 0.0
O130 O 0.15235 0.08778 0.59668 0.0
O131 O 1.00298 0.98363 0.55625 0.0
O132 O 0.11489 0.02665 0.58588 0.0
O133 O 0.91048 0.02896 0.50971 0.0
O134 O 0.89243 0.97198 0.46717 0.0
O135 O 0.98294 0.92136 0.50576 0.0
O136 O 0.98732 0.90233 0.41451 0.0
O137 O 0.1079 0.0216 0.43593 0.0
O138 O 1.00477 0.9756 0.40704 0.0
C139 C 0.24994 0.99747 0.49261 0.0
C140 C 0.06601 1.00344 0.59413 0.0
C141 C 0.21286 0.13846 0.5948 0.0
C142 C 0.27905 0.18712 0.58652 0.0
C143 C 0.2605 0.18664 0.67902 0.0
C144 C 0.22324 0.15459 0.65386 0.0
C145 C 0.28766 0.20294 0.64565 0.0
C146 C 0.24177 0.15478 0.56114 0.0
C147 C 0.16105 0.10645 0.56961 0.0
C148 C 0.72554 0.12745 0.5587 0.0
C149 C 0.72547 0.12687 0.61214 0.0
H150 H 0.74569 0.12345 0.4524 0.0
C151 C 0.85572 1.00192 0.48806 0.0
C152 C 0.05405 0.99837 0.39723 0.0
C153 C 0.87055 0.87833 0.4549 0.0
C154 C 0.78903 0.83025 0.45852 0.0
C155 C 0.68985 0.87142 0.44242 0.0
C156 C 0.7771 0.88956 0.44521 0.0
C157 C 0.69543 0.84188 0.44858 0.0
C158 C 0.8763 0.84902 0.46204 0.0
C159 C 0.96378 0.89654 0.45804 0.0
H160 H 0.26746 0.19899 0.72458 0.0
H161 H 0.19991 0.14278 0.68077 0.0
H162 H 0.31674 0.2278 0.66596 0.0
H163 H 0.23305 0.14276 0.51555 0.0
H164 H 0.61783 0.88033 0.43526 0.0
H165 H 0.77175 0.91221 0.43982 0.0
H166 H 0.6266 0.82802 0.4448 0.0
H167 H 0.94912 0.84109 0.47084 0.0
C168 C 0.68948 0.60481 0.12634 0.0
C169 C 0.8201 0.61466 0.06952 0.0
C170 C 0.72722 0.60027 0.07354 0.0
C171 C 0.87288 0.63432 0.11899 0.0
C172 C 0.74341 0.62409 0.17601 0.0
C173 C 0.83467 0.63902 0.17204 0.0
N174 N 0.60193 0.58957 0.12902 0.0
C175 C 0.5626 0.59345 0.17992 0.0
C176 C 0.70441 0.62759 0.22828 0.0
C177 C 0.61351 0.61224 0.23021 0.0
Gd178 Gd 0.53281 0.46295 0.96903 0.0
Gd179 Gd 0.51894 0.56152 0.04254 0.0
N180 N 0.6763 0.58018 0.02613 0.0
C181 C 0.85857 0.6082 0.01579 0.0
C182 C 0.71405 0.57362 0.97378 0.0
C183 C 0.80553 0.58743 0.96775 0.0
H184 H 0.6753 0.55735 0.93662 0.0
H185 H 0.83524 0.58195 0.926 0.0
H186 H 0.36191 0.46362 0.06482 0.0
H187 H 0.48993 0.58323 0.18205 0.0
H188 H 0.19799 0.43776 0.06603 0.0
H189 H 0.92981 0.6187 0.01095 0.0
H190 H 0.94418 0.64562 0.11665 0.0
H191 H 0.61543 0.42806 0.83519 0.0
H192 H 0.74359 0.64223 0.26736 0.0
H193 H 0.58182 0.61528 0.27046 0.0
H194 H 0.13094 0.36941 0.87045 0.0
H195 H 0.8769 0.65398 0.20977 0.0
H196 H 0.38314 0.36334 0.73415 0.0
H197 H 0.55207 0.38865 0.74181 0.0
N198 N 0.48138 0.42623 0.8787 0.0
C199 C 0.38975 0.41187 0.87588 0.0
C200 C 0.54072 0.41755 0.8318 0.0
C201 C 0.41004 0.38088 0.77498 0.0
C202 C 0.50547 0.39509 0.77911 0.0
C203 C 0.35149 0.38882 0.8238 0.0
H204 H 0.22642 0.35634 0.78253 0.0
N205 N 0.37372 0.44189 0.97524 0.0
C206 C 0.33526 0.41944 0.92556 0.0
C207 C 0.19183 0.41099 0.97536 0.0
C208 C 0.24209 0.40389 0.92425 0.0
C209 C 0.32757 0.44768 0.02542 0.0
C210 C 0.23514 0.43276 0.02621 0.0
O211 O 0.66471 0.53569 0.0486 0.0
O212 O 0.67928 0.48819 0.96666 0.0
O213 O 0.57184 0.43644 0.01975 0.0
O214 O 0.61217 0.41646 0.93096 0.0
O215 O 0.49207 0.53667 0.94859 0.0
O216 O 0.58073 0.48732 0.9119 0.0
O217 O 0.38246 0.48517 0.9609 0.0
O218 O 0.36756 0.53628 0.03607 0.0
O219 O 0.47027 0.59865 0.01198 0.0
O220 O 0.44599 0.60547 0.09947 0.0
O221 O 0.55314 0.49205 0.06345 0.0
O222 O 0.44688 0.53612 0.09096 0.0
C223 C 0.72011 0.51281 0.00975 0.0
C224 C 0.53643 0.51238 0.90662 0.0
C225 C 0.70155 0.39646 0.98859 0.0
C226 C 0.775 0.34934 0.99965 0.0
C227 C 0.88146 0.39461 0.0027 0.0
C228 C 0.79728 0.41074 0.99426 0.0
C229 C 0.87094 0.36407 0.00488 0.0
C230 C 0.69037 0.36611 0.99192 0.0
C231 C 0.61214 0.41195 0.97722 0.0
C232 C 0.20283 0.38144 0.87228 0.0
C233 C 0.25721 0.374 0.8222 0.0
H234 H 0.12094 0.39914 0.97604 0.0
C235 C 0.32798 0.51027 0.99479 0.0
C236 C 0.48916 0.51231 0.09977 0.0
C237 C 0.38568 0.64956 0.07813 0.0
C238 C 0.33861 0.69719 0.06015 0.0
C239 C 0.28883 0.69412 0.14789 0.0
C240 C 0.33682 0.66395 0.13086 0.0
C241 C 0.28906 0.71055 0.11285 0.0
C242 C 0.38651 0.6663 0.04268 0.0
C243 C 0.43609 0.61751 0.06225 0.0
H244 H 0.95523 0.40577 0.00718 0.0
H245 H 0.80681 0.43414 0.99181 0.0
H246 H 0.93832 0.35183 0.00978 0.0
H247 H 0.61535 0.35568 0.98848 0.0
H248 H 0.25076 0.70477 0.18838 0.0
H249 H 0.33503 0.6518 0.15918 0.0
H250 H 0.24894 0.73365 0.12695 0.0
H251 H 0.42545 0.65564 0.00239 0.0
C252 C 0.69193 0.40517 0.38174 0.0
C253 C 0.83058 0.40336 0.44163 0.0
C254 C 0.73422 0.41481 0.43531 0.0
C255 C 0.88397 0.38231 0.39354 0.0
C256 C 0.7447 0.38352 0.33347 0.0
C257 C 0.84115 0.3724 0.33965 0.0
N258 N 0.59824 0.41612 0.37691 0.0
C259 C 0.55089 0.40503 0.32551 0.0
C260 C 0.69828 0.37318 0.28042 0.0
C261 C 0.60063 0.38377 0.27651 0.0
Gd262 Gd 0.50367 0.55037 0.53057 0.0
Gd263 Gd 0.52129 0.45065 0.46224 0.0
N264 N 0.68163 0.43561 0.48119 0.0
C265 C 0.87051 0.41342 0.49618 0.0
C266 C 0.7189 0.44474 0.53449 0.0
C267 C 0.81417 0.43409 0.54281 0.0
H268 H 0.67611 0.46055 0.57055 0.0
H269 H 0.844 0.44179 0.58518 0.0
H270 H 0.32829 0.55 0.43916 0.0
H271 H 0.47399 0.41214 0.32216 0.0
H272 H 0.15841 0.5737 0.44121 0.0
H273 H 0.94441 0.40523 0.50276 0.0
H274 H 0.95827 0.37339 0.3976 0.0
H275 H 0.59729 0.5884 0.66163 0.0
H276 H 0.73636 0.35652 0.24239 0.0
H277 H 0.56319 0.3753 0.23586 0.0
H278 H 0.09041 0.63466 0.63949 0.0
H279 H 0.88289 0.35586 0.30302 0.0
H280 H 0.35824 0.64449 0.77009 0.0
H281 H 0.53498 0.62467 0.75738 0.0
N282 N 0.45495 0.58576 0.62229 0.0
C283 C 0.35904 0.59742 0.62779 0.0
C284 C 0.51918 0.5962 0.66744 0.0
C285 C 0.38459 0.62808 0.72836 0.0
C286 C 0.48448 0.61699 0.72138 0.0
C287 C 0.32118 0.61896 0.68105 0.0
H288 H 0.19214 0.64796 0.72563 0.0
N289 N 0.34073 0.56946 0.52842 0.0
C290 C 0.30104 0.58962 0.57932 0.0
C291 C 0.15257 0.59727 0.53235 0.0
C292 C 0.20471 0.60358 0.58274 0.0
C293 C 0.29305 0.56472 0.47912 0.0
C294 C 0.19736 0.57808 0.48032 0.0
O295 O 0.66572 0.47952 0.46335 0.0
O296 O 0.65447 0.52992 0.54057 0.0
O297 O 0.57433 0.57049 0.47633 0.0
O298 O 0.54218 0.60213 0.56381 0.0
O299 O 0.47091 0.48135 0.55171 0.0
O300 O 0.56368 0.52864 0.58899 0.0
O301 O 0.3566 0.52231 0.52505 0.0
O302 O 0.37197 0.4713 0.44997 0.0
O303 O 0.49446 0.41709 0.50224 0.0
O304 O 0.42702 0.40768 0.42127 0.0
O305 O 0.51302 0.52453 0.43526 0.0
O306 O 0.484 0.46795 0.39593 0.0
C307 C 0.70779 0.50632 0.50204 0.0
C308 C 0.52568 0.50242 0.59273 0.0
C309 C 0.66996 0.61945 0.51979 0.0
C310 C 0.74787 0.66818 0.51669 0.0
C311 C 0.84771 0.63018 0.54078 0.0
C312 C 0.76282 0.6105 0.53472 0.0
C313 C 0.84082 0.65873 0.53163 0.0
C314 C 0.66255 0.64815 0.51074 0.0
C315 C 0.57852 0.60024 0.51619 0.0
C316 C 0.16496 0.62401 0.63595 0.0
C317 C 0.22289 0.63157 0.68502 0.0
H318 H 0.0791 0.60778 0.53298 0.0
C319 C 0.31681 0.49523 0.48623 0.0
C320 C 0.50092 0.49581 0.39224 0.0
C321 C 0.46452 0.36124 0.43886 0.0
C322 C 0.4359 0.3092 0.44674 0.0
C323 C 0.51936 0.30995 0.36369 0.0
C324 C 0.51101 0.34397 0.38623 0.0
C325 C 0.48048 0.2926 0.39294 0.0
C326 C 0.42971 0.34387 0.46959 0.0
C327 C 0.44228 0.39665 0.45958 0.0
H328 H 0.91849 0.62361 0.55377 0.0
H329 H 0.76904 0.58866 0.54246 0.0
H330 H 0.90767 0.67382 0.53769 0.0
H331 H 0.59013 0.65484 0.49913 0.0
H332 H 0.55351 0.29684 0.32251 0.0
H333 H 0.53805 0.35644 0.36142 0.0
H334 H 0.4837 0.26609 0.37228 0.0
H335 H 0.39642 0.35758 0.51081 0.0
H336 H 0.35889 0.7631 0.0945 0.0
H337 H 0.31527 0.67314 0.9447 0.0
H338 H 0.29388 0.70473 0.8881 0.0
H339 H 0.27646 0.75805 0.88262 0.0
H340 H 0.31655 0.84774 0.03362 0.0
H341 H 0.34424 0.81597 0.08892 0.0
C342 C 0.34387 0.75031 0.04952 0.0
C343 C 0.33726 0.71576 0.02414 0.0
C344 C 0.32859 0.7686 0.01771 0.0
C345 C 0.32121 0.69966 0.96542 0.0
C346 C 0.30783 0.71774 0.93313 0.0
C347 C 0.29244 0.77069 0.9275 0.0
C348 C 0.29446 0.80534 0.95375 0.0
C349 C 0.30972 0.75225 0.95905 0.0
C350 C 0.31307 0.8212 0.01227 0.0
C351 C 0.33001 0.80303 0.0439 0.0
H352 H 0.88079 0.32466 0.06376 0.0
H353 H 0.64308 0.29952 0.93873 0.0
H354 H 0.62477 0.24591 0.94076 0.0
H355 H 0.67889 0.20535 0.97587 0.0
H356 H 0.91967 0.22989 0.0988 0.0
H357 H 0.93686 0.28384 0.09759 0.0
C358 C 0.8258 0.30739 0.0363 0.0
C359 C 0.76353 0.31648 0.00121 0.0
C360 C 0.81689 0.27618 0.03669 0.0
C361 C 0.69117 0.29373 0.96699 0.0
C362 C 0.68113 0.26282 0.96767 0.0
C363 C 0.73444 0.2226 0.00288 0.0
C364 C 0.79741 0.21347 0.03759 0.0
C365 C 0.74371 0.25374 0.00225 0.0
C366 C 0.87061 0.236 0.07127 0.0
C367 C 0.88011 0.267 0.07092 0.0
H368 H 0.21389 0.24615 0.59422 0.0
H369 H 0.41704 0.16667 0.50165 0.0
H370 H 0.48616 0.19797 0.45182 0.0
H371 H 0.49642 0.24901 0.44004 0.0
H372 H 0.27776 0.32594 0.52345 0.0
H373 H 0.21123 0.29519 0.57382 0.0
C374 C 0.27282 0.23571 0.56279 0.0
C375 C 0.31141 0.20442 0.55184 0.0
C376 C 0.31115 0.25365 0.5339 0.0
C377 C 0.38649 0.19076 0.51058 0.0
C378 C 0.42636 0.20872 0.48248 0.0
C379 C 0.43241 0.25899 0.46786 0.0
C380 C 0.39353 0.29022 0.47756 0.0
C381 C 0.39023 0.24038 0.49447 0.0
C382 C 0.31235 0.30261 0.51576 0.0
C383 C 0.27273 0.28476 0.54419 0.0
H384 H 0.65472 0.80501 0.50998 0.0
H385 H 0.93994 0.78404 0.42117 0.0
H386 H 0.95261 0.73272 0.43193 0.0
H387 H 0.88144 0.693 0.4646 0.0
H388 H 0.59497 0.71345 0.55184 0.0
H389 H 0.58234 0.76494 0.54128 0.0
C390 C 0.71907 0.78907 0.49221 0.0
C391 C 0.7961 0.79865 0.46481 0.0
C392 C 0.72524 0.75917 0.4976 0.0
C393 C 0.87998 0.77779 0.44328 0.0
C394 C 0.88704 0.74819 0.44896 0.0
C395 C 0.8166 0.70883 0.48174 0.0
C396 C 0.73944 0.69926 0.50904 0.0
C397 C 0.81008 0.7386 0.47597 0.0
C398 C 0.65502 0.71988 0.53 0.0
C399 C 0.64803 0.74951 0.52438 0.0
H400 H 0.37708 0.97913 0.03773 0.0
H401 H 0.34191 0.04146 0.95005 0.0
H402 H 0.52339 0.04845 0.94871 0.0
H403 H 0.69473 0.03579 0.97007 0.0
H404 H 0.73412 0.96762 0.04592 0.0
H405 H 0.5505 0.96252 0.05172 0.0
C406 C 0.40909 0.99416 0.01819 0.0
C407 C 0.34447 0.01148 0.99706 0.0
C408 C 0.5153 0.99631 0.0142 0.0
C409 C 0.38838 0.02986 0.97032 0.0
C410 C 0.49295 0.03328 0.96837 0.0
C411 C 0.66292 0.01989 0.98797 0.0
C412 C 0.7278 1.00198 0.00732 0.0
C413 C 0.55731 0.01675 0.99038 0.0
C414 C 0.68566 0.98116 0.02977 0.0
C415 C 0.58057 0.9785 0.03357 0.0
H416 H 0.39474 0.03112 0.4613 0.0
H417 H 0.35979 0.96286 0.53742 0.0
H418 H 0.54083 0.95537 0.53709 0.0
H419 H 0.71184 0.96932 0.51791 0.0
H420 H 0.7517 0.04203 0.45186 0.0
H421 H 0.56819 0.04815 0.44827 0.0
C422 C 0.42674 0.01469 0.47793 0.0
C423 C 0.36225 0.99604 0.49641 0.0
C424 C 0.53283 0.01201 0.4808 0.0
C425 C 0.40608 0.97569 0.51929 0.0
C426 C 0.51045 0.97194 0.5203 0.0
C427 C 0.68009 0.98639 0.50254 0.0
C428 C 0.7449 0.00547 0.48568 0.0
C429 C 0.57468 0.98986 0.501 0.0
C430 C 0.70311 0.02774 0.46641 0.0
C431 C 0.59813 0.03094 0.46376 0.0
H432 H 0.86487 0.47744 0.93254 0.0
H433 H 0.8299 0.5531 0.10172 0.0
H434 H 1.01199 0.56068 0.11077 0.0
H435 H 0.18329 0.54536 0.07166 0.0
H436 H 0.21947 0.46802 0.90412 0.0
H437 H 1.03681 0.46087 0.89452 0.0
C438 C 0.89697 0.49548 0.97151 0.0
C439 C 0.83254 0.5153 0.01574 0.0
C440 C 1.00299 0.49917 0.97717 0.0
C441 C 0.87649 0.53822 0.0661 0.0
C442 C 0.98127 0.5424 0.07163 0.0
C443 C 0.15131 0.52713 0.03283 0.0
C444 C 0.21582 0.50727 0.98876 0.0
C445 C 0.04546 0.5231 0.02741 0.0
C446 C 0.17233 0.48353 0.93905 0.0
C447 C 0.06742 0.47947 0.93335 0.0
H448 H 0.17424 0.53438 0.56024 0.0
H449 H 0.2038 0.44876 0.40214 0.0
H450 H 1.02001 0.44455 0.39283 0.0
H451 H 0.84999 0.46639 0.42762 0.0
H452 H 0.82193 0.55167 0.58656 0.0
H453 H 1.00518 0.55586 0.59539 0.0
C454 C 0.14094 0.51509 0.52322 0.0
C455 C 0.204 0.49235 0.48149 0.0
C456 C 1.03475 0.51304 0.51764 0.0
C457 C 0.15811 0.46686 0.43486 0.0
C458 C 0.05259 0.46447 0.42933 0.0
C459 C 0.88359 0.48566 0.46458 0.0
C460 C 0.82083 0.50857 0.50634 0.0
C461 C 0.98998 0.48758 0.47022 0.0
C462 C 0.86714 0.53371 0.55336 0.0
C463 C 0.97247 0.53605 0.55876 0.0
H464 H 0.90784 0.01265 0.33702 0.0
H465 H 0.21625 0.98037 0.32851 0.0
H466 H 0.2353 0.98042 0.23489 0.0
H467 H 0.16648 0.99167 0.15699 0.0
H468 H 0.86388 0.02941 0.16882 0.0
H469 H 0.84082 0.02619 0.25997 0.0
C470 C 0.97863 0.00534 0.31416 0.0
C471 C 0.0601 0.99589 0.33882 0.0
C472 C 0.99052 0.00705 0.26149 0.0
C473 C 0.15233 0.98726 0.30976 0.0
C474 C 0.16335 0.9875 0.25648 0.0
C475 C 0.09544 0.99917 0.17952 0.0
C476 C 1.01683 0.01065 0.15606 0.0
C477 C 0.08341 0.99771 0.2322 0.0
C478 C 0.9257 0.02065 0.18611 0.0
C479 C 0.91229 0.0186 0.23805 0.0
H480 H 0.18422 0.0048 0.83107 0.0
H481 H 0.8609 0.99743 0.84127 0.0
H482 H 0.8425 0.99417 0.74534 0.0
H483 H 0.91813 0.9951 0.65933 0.0
H484 H 0.23943 0.0088 0.65302 0.0
H485 H 0.25954 0.00796 0.74614 0.0
C486 C 0.11005 1.0023 0.81189 0.0
C487 C 1.02395 1.00108 0.84261 0.0
C488 C 0.0999 1.00168 0.75748 0.0
C489 C 0.92797 0.99845 0.81814 0.0
C490 C 0.91753 0.99652 0.76335 0.0
C491 C 0.99248 0.99756 0.67826 0.0
C492 C 0.07734 1.00164 0.64935 0.0
C493 C 1.00283 0.9983 0.73269 0.0
C494 C 0.17313 0.00558 0.67467 0.0
C495 C 0.18461 0.00509 0.72783 0.0
H496 H 0.3931 0.53104 0.34857 0.0
H497 H 0.62696 0.45812 0.30919 0.0
H498 H 0.64143 0.45532 0.21356 0.0
H499 H 0.59157 0.4753 0.14276 0.0
H500 H 0.35147 0.54655 0.18099 0.0
H501 H 0.33605 0.54864 0.27576 0.0
C502 C 0.44692 0.51458 0.31895 0.0
C503 C 0.50797 0.4945 0.33517 0.0
C504 C 0.45432 0.51306 0.26416 0.0
C505 C 0.57751 0.47314 0.29669 0.0
C506 C 0.58642 0.47178 0.24234 0.0
C507 C 0.53537 0.49111 0.17162 0.0
C508 C 0.47457 0.51134 0.1553 0.0
C509 C 0.52545 0.49175 0.22571 0.0
C510 C 0.40103 0.5313 0.19298 0.0
C511 C 0.39182 0.53247 0.24716 0.0
H512 H 0.55495 0.55006 0.69918 0.0
H513 H 0.50936 0.4459 0.60788 0.0
H514 H 0.51707 0.4392 0.696 0.0
H515 H 0.52951 0.46368 0.7995 0.0
H516 H 0.54178 0.56886 0.89096 0.0
H517 H 0.55158 0.57485 0.80243 0.0
C518 C 0.5459 0.52602 0.69828 0.0
C519 C 0.53189 0.49868 0.64663 0.0
C520 C 0.54437 0.52264 0.74944 0.0
C521 C 0.52039 0.46749 0.64684 0.0
C522 C 0.52471 0.46361 0.69732 0.0
C523 C 0.53661 0.48771 0.80021 0.0
C524 C 0.54048 0.51543 0.85205 0.0
C525 C 0.53602 0.4911 0.74898 0.0
C526 C 0.54279 0.54682 0.85182 0.0
C527 C 0.5477 0.55037 0.80113 0.0
loop_
_geom_bond_atom_site_label_1
_geom_bond_atom_site_label_2
_geom_bond_distance
_geom_bond_site_symmetry_2
_ccdc_geom_bond_type
C0 C2 1.422 . S
C0 C4 1.415 . S
C0 N6 1.369 . S
C1 C2 1.421 . S
C1 C3 1.417 . S
C1 C13 1.423 . S
C2 C0 1.422 . S
C2 C1 1.421 . S
C2 N12 1.359 . S
C3 C1 1.417 . S
C3 C5 1.329 . S
C3 H22 0.930 . S
C4 C0 1.415 . S
C4 C5 1.437 . S
C4 C8 1.413 . S
C5 C3 1.329 . S
C5 C4 1.437 . S
C5 H27 0.929 . S
N6 C0 1.369 . S
N6 C7 1.338 . S
N6 Gd11 2.622 . S
C7 N6 1.338 . S
C7 C9 1.378 . S
C7 H19 0.929 . S
C8 C4 1.413 . S
C8 C9 1.348 . S
C8 H24 0.931 . S
C9 C7 1.378 . S
C9 C8 1.348 . S
C9 H25 0.930 . S
Gd10 N30 2.622 . S
Gd10 N37 2.570 . S
Gd10 O44 2.353 1_655 S
Gd10 O45 2.468 1_655 S
Gd10 O46 2.427 1_655 S
Gd10 O48 2.388 1_655 S
Gd10 O49 2.386 . S
Gd10 O53 2.307 1_556 S
Gd10 C63 2.805 1_655 S
Gd11 N6 2.622 . S
Gd11 N12 2.570 . S
Gd11 O43 2.386 . S
Gd11 O47 2.307 1_554 S
Gd11 O50 2.353 1_455 S
Gd11 O51 2.468 1_455 S
Gd11 O52 2.427 1_455 S
Gd11 O54 2.388 1_455 S
Gd11 C75 2.805 1_455 S
N12 C2 1.359 . S
N12 Gd11 2.570 . S
N12 C14 1.343 1_554 S
C13 C1 1.423 . S
C13 C15 1.321 1_554 S
C13 H21 0.930 1_554 S
C14 N12 1.343 1_556 S
C14 C15 1.390 . S
C14 H16 0.931 . S
C15 C13 1.321 1_556 S
C15 C14 1.390 . S
C15 H17 0.930 . S
H16 C14 0.931 . S
H17 C15 0.930 . S
H18 C41 0.931 . S
H19 C7 0.929 . S
H20 C42 0.930 . S
H21 C13 0.930 1_556 S
H22 C3 0.930 . S
H23 C32 0.929 . S
H24 C8 0.931 . S
H25 C9 0.930 . S
H26 C64 0.930 . S
H27 C5 0.929 . S
H28 C33 0.931 . S
H29 C34 0.930 . S
N30 Gd10 2.622 . S
N30 C31 1.369 . S
N30 C32 1.338 . S
C31 N30 1.369 . S
C31 C35 1.415 . S
C31 C38 1.422 . S
C32 H23 0.929 . S
C32 N30 1.338 . S
C32 C34 1.378 . S
C33 H28 0.931 . S
C33 C34 1.348 . S
C33 C35 1.413 . S
C34 H29 0.930 . S
C34 C32 1.378 . S
C34 C33 1.348 . S
C35 C31 1.415 . S
C35 C33 1.413 . S
C35 C65 1.437 . S
H36 C65 0.929 . S
N37 Gd10 2.570 . S
N37 C38 1.359 . S
N37 C41 1.343 1_556 S
C38 C31 1.422 . S
C38 N37 1.359 . S
C38 C40 1.421 . S
C39 C40 1.423 1_554 S
C39 C42 1.321 . S
C39 H66 0.930 . S
C40 C38 1.421 . S
C40 C39 1.423 1_556 S
C40 C64 1.417 . S
C41 H18 0.931 . S
C41 N37 1.343 1_554 S
C41 C42 1.390 . S
C42 H20 0.930 . S
C42 C39 1.321 . S
C42 C41 1.390 . S
O43 Gd11 2.386 . S
O43 C55 1.265 1_545 S
O44 Gd10 2.353 1_455 S
O44 C55 1.242 1_556 S
O45 Gd10 2.468 1_455 S
O45 C63 1.263 . S
O46 Gd10 2.427 1_455 S
O46 C63 1.252 . S
O47 Gd11 2.307 1_556 S
O47 C56 1.261 1_545 S
O48 Gd10 2.388 1_455 S
O48 C56 1.252 . S
O49 Gd10 2.386 . S
O49 C67 1.265 1_565 S
O50 Gd11 2.353 1_655 S
O50 C67 1.242 1_554 S
O51 Gd11 2.468 1_655 S
O51 C75 1.263 . S
O52 Gd11 2.427 1_655 S
O52 C75 1.252 . S
O53 Gd10 2.307 1_554 S
O53 C68 1.261 1_565 S
O54 Gd11 2.388 1_655 S
O54 C68 1.252 . S
C55 O43 1.265 1_565 S
C55 O44 1.242 1_554 S
C56 O47 1.261 1_565 S
C56 O48 1.252 . S
C57 C60 1.394 . S
C57 C62 1.370 . S
C57 C63 1.500 . S
C58 C61 1.383 . S
C58 C62 1.395 . S
C59 C60 1.396 . S
C59 C61 1.365 . S
C59 H76 0.929 . S
C60 C57 1.394 . S
C60 C59 1.396 . S
C60 H77 0.930 . S
C61 C58 1.383 . S
C61 C59 1.365 . S
C61 H78 0.931 . S
C62 C57 1.370 . S
C62 C58 1.395 . S
C62 H79 0.930 1_556 S
C63 Gd10 2.805 1_455 S
C63 O45 1.263 . S
C63 O46 1.252 . S
C63 C57 1.500 . S
C64 H26 0.930 . S
C64 C40 1.417 . S
C64 C65 1.329 . S
C65 C35 1.437 . S
C65 H36 0.929 . S
C65 C64 1.329 . S
H66 C39 0.930 . S
C67 O49 1.265 1_545 S
C67 O50 1.242 1_556 S
C68 O53 1.261 1_545 S
C68 O54 1.252 . S
C69 C72 1.394 . S
C69 C74 1.370 . S
C69 C75 1.500 . S
C70 C73 1.383 . S
C70 C74 1.395 . S
C71 C72 1.396 . S
C71 C73 1.365 . S
C71 H80 0.929 . S
C72 C69 1.394 . S
C72 C71 1.396 . S
C72 H81 0.930 . S
C73 C70 1.383 . S
C73 C71 1.365 . S
C73 H82 0.931 . S
C74 C69 1.370 . S
C74 C70 1.395 . S
C74 H83 0.930 1_554 S
C75 Gd11 2.805 1_655 S
C75 O51 1.263 . S
C75 O52 1.252 . S
C75 C69 1.500 . S
H76 C59 0.929 . S
H77 C60 0.930 . S
H78 C61 0.931 . S
H79 C62 0.930 1_554 S
H80 C71 0.929 . S
H81 C72 0.930 . S
H82 C73 0.931 . S
H83 C74 0.930 1_556 S
C84 C86 1.422 . S
C84 C88 1.415 . S
C84 N90 1.369 . S
C85 C86 1.421 . S
C85 C87 1.417 . S
C85 C97 1.422 . S
C86 C84 1.422 . S
C86 C85 1.421 . S
C86 N96 1.359 . S
C87 C85 1.417 . S
C87 C89 1.329 . S
C87 H106 0.930 . S
C88 C84 1.415 . S
C88 C89 1.437 . S
C88 C92 1.413 . S
C89 C87 1.329 . S
C89 C88 1.437 . S
C89 H111 0.929 . S
N90 C84 1.369 . S
N90 C91 1.338 . S
N90 Gd95 2.622 . S
C91 N90 1.338 . S
C91 C93 1.378 . S
C91 H103 0.929 . S
C92 C88 1.413 . S
C92 C93 1.348 . S
C92 H108 0.931 . S
C93 C91 1.378 . S
C93 C92 1.348 . S
C93 H109 0.930 . S
Gd94 N114 2.622 . S
Gd94 N121 2.570 . S
Gd94 O128 2.353 1_655 S
Gd94 O129 2.468 1_655 S
Gd94 O130 2.427 1_655 S
Gd94 O132 2.388 1_655 S
Gd94 O133 2.386 . S
Gd94 O137 2.307 . S
Gd94 C147 2.805 1_655 S
Gd95 N90 2.622 . S
Gd95 N96 2.570 . S
Gd95 O127 2.386 . S
Gd95 O131 2.307 . S
Gd95 O134 2.353 1_455 S
Gd95 O135 2.468 1_455 S
Gd95 O136 2.427 1_455 S
Gd95 O138 2.388 1_455 S
Gd95 C159 2.805 1_455 S
N96 C86 1.359 . S
N96 Gd95 2.570 . S
N96 C98 1.343 . S
C97 C85 1.422 . S
C97 C99 1.321 . S
C97 H105 0.931 . S
C98 N96 1.343 . S
C98 C99 1.390 . S
C98 H100 0.931 . S
C99 C97 1.321 . S
C99 C98 1.390 . S
C99 H101 0.930 . S
H100 C98 0.931 . S
H101 C99 0.930 . S
H102 C125 0.931 . S
H103 C91 0.929 . S
H104 C126 0.930 . S
H105 C97 0.931 . S
H106 C87 0.930 . S
H107 C116 0.929 . S
H108 C92 0.931 . S
H109 C93 0.930 . S
H110 C148 0.930 . S
H111 C89 0.929 . S
H112 C117 0.931 . S
H113 C118 0.930 . S
N114 Gd94 2.622 . S
N114 C115 1.369 . S
N114 C116 1.338 . S
C115 N114 1.369 . S
C115 C119 1.415 . S
C115 C122 1.422 . S
C116 H107 0.929 . S
C116 N114 1.338 . S
C116 C118 1.378 . S
C117 H112 0.931 . S
C117 C118 1.348 . S
C117 C119 1.413 . S
C118 H113 0.930 . S
C118 C116 1.378 . S
C118 C117 1.348 . S
C119 C115 1.415 . S
C119 C117 1.413 . S
C119 C149 1.437 . S
H120 C149 0.929 . S
N121 Gd94 2.570 . S
N121 C122 1.359 . S
N121 C125 1.343 . S
C122 C115 1.422 . S
C122 N121 1.359 . S
C122 C124 1.421 . S
C123 C124 1.422 . S
C123 C126 1.321 . S
C123 H150 0.931 . S
C124 C122 1.421 . S
C124 C123 1.422 . S
C124 C148 1.417 . S
C125 H102 0.931 . S
C125 N121 1.343 . S
C125 C126 1.390 . S
C126 H104 0.930 . S
C126 C123 1.321 . S
C126 C125 1.390 . S
O127 Gd95 2.386 . S
O127 C139 1.265 1_565 S
O128 Gd94 2.353 1_455 S
O128 C139 1.242 . S
O129 Gd94 2.468 1_455 S
O129 C147 1.263 . S
O130 Gd94 2.427 1_455 S
O130 C147 1.252 . S
O131 Gd95 2.307 . S
O131 C140 1.261 1_565 S
O132 Gd94 2.388 1_455 S
O132 C140 1.252 . S
O133 Gd94 2.386 . S
O133 C151 1.265 1_545 S
O134 Gd95 2.353 1_655 S
O134 C151 1.242 . S
O135 Gd95 2.468 1_655 S
O135 C159 1.263 . S
O136 Gd95 2.427 1_655 S
O136 C159 1.252 . S
O137 Gd94 2.307 . S
O137 C152 1.261 1_545 S
O138 Gd95 2.388 1_655 S
O138 C152 1.252 . S
C139 O127 1.265 1_545 S
C139 O128 1.242 . S
C140 O131 1.261 1_545 S
C140 O132 1.252 . S
C141 C144 1.394 . S
C141 C146 1.370 . S
C141 C147 1.500 . S
C142 C145 1.383 . S
C142 C146 1.395 . S
C143 C144 1.396 . S
C143 C145 1.365 . S
C143 H160 0.929 . S
C144 C141 1.394 . S
C144 C143 1.396 . S
C144 H161 0.930 . S
C145 C142 1.383 . S
C145 C143 1.365 . S
C145 H162 0.931 . S
C146 C141 1.370 . S
C146 C142 1.395 . S
C146 H163 0.930 . S
C147 Gd94 2.805 1_455 S
C147 O129 1.263 . S
C147 O130 1.252 . S
C147 C141 1.500 . S
C148 H110 0.930 . S
C148 C124 1.417 . S
C148 C149 1.329 . S
C149 C119 1.437 . S
C149 H120 0.929 . S
C149 C148 1.329 . S
H150 C123 0.931 . S
C151 O133 1.265 1_565 S
C151 O134 1.242 . S
C152 O137 1.261 1_565 S
C152 O138 1.252 . S
C153 C156 1.394 . S
C153 C158 1.370 . S
C153 C159 1.500 . S
C154 C157 1.383 . S
C154 C158 1.395 . S
C155 C156 1.396 . S
C155 C157 1.365 . S
C155 H164 0.929 . S
C156 C153 1.394 . S
C156 C155 1.396 . S
C156 H165 0.930 . S
C157 C154 1.383 . S
C157 C155 1.365 . S
C157 H166 0.931 . S
C158 C153 1.370 . S
C158 C154 1.395 . S
C158 H167 0.930 . S
C159 Gd95 2.805 1_655 S
C159 O135 1.263 . S
C159 O136 1.252 . S
C159 C153 1.500 . S
H160 C143 0.929 . S
H161 C144 0.930 . S
H162 C145 0.931 . S
H163 C146 0.930 . S
H164 C155 0.929 . S
H165 C156 0.930 . S
H166 C157 0.931 . S
H167 C158 0.930 . S
C168 C170 1.422 . S
C168 C172 1.415 . S
C168 N174 1.369 . S
C169 C170 1.421 . S
C169 C171 1.417 . S
C169 C181 1.423 . S
C170 C168 1.422 . S
C170 C169 1.421 . S
C170 N180 1.359 . S
C171 C169 1.417 . S
C171 C173 1.329 . S
C171 H190 0.930 . S
C172 C168 1.415 . S
C172 C173 1.437 . S
C172 C176 1.413 . S
C173 C171 1.329 . S
C173 C172 1.437 . S
C173 H195 0.929 . S
N174 C168 1.369 . S
N174 C175 1.338 . S
N174 Gd179 2.622 . S
C175 N174 1.338 . S
C175 C177 1.378 . S
C175 H187 0.929 . S
C176 C172 1.413 . S
C176 C177 1.348 . S
C176 H192 0.931 . S
C177 C175 1.378 . S
C177 C176 1.348 . S
C177 H193 0.930 . S
Gd178 N198 2.622 . S
Gd178 N205 2.570 . S
Gd178 O212 2.353 . S
Gd178 O213 2.468 . S
Gd178 O214 2.427 . S
Gd178 O216 2.388 . S
Gd178 O217 2.386 . S
Gd178 O221 2.307 1_556 S
Gd178 C231 2.805 . S
Gd179 N174 2.622 . S
Gd179 N180 2.570 . S
Gd179 O211 2.386 . S
Gd179 O215 2.307 1_554 S
Gd179 O218 2.353 . S
Gd179 O219 2.468 . S
Gd179 O220 2.427 . S
Gd179 O222 2.388 . S
Gd179 C243 2.805 . S
N180 C170 1.359 . S
N180 Gd179 2.570 . S
N180 C182 1.343 1_554 S
C181 C169 1.423 . S
C181 C183 1.321 1_554 S
C181 H189 0.930 1_554 S
C182 N180 1.343 1_556 S
C182 C183 1.390 . S
C182 H184 0.931 . S
C183 C181 1.321 1_556 S
C183 C182 1.390 . S
C183 H185 0.930 . S
H184 C182 0.931 . S
H185 C183 0.930 . S
H186 C209 0.931 . S
H187 C175 0.929 . S
H188 C210 0.930 . S
H189 C181 0.930 1_556 S
H190 C171 0.930 . S
H191 C200 0.929 . S
H192 C176 0.931 . S
H193 C177 0.930 . S
H194 C232 0.930 . S
H195 C173 0.929 . S
H196 C201 0.931 . S
H197 C202 0.930 . S
N198 Gd178 2.622 . S
N198 C199 1.369 . S
N198 C200 1.338 . S
C199 N198 1.369 . S
C199 C203 1.415 . S
C199 C206 1.422 . S
C200 H191 0.929 . S
C200 N198 1.338 . S
C200 C202 1.378 . S
C201 H196 0.931 . S
C201 C202 1.348 . S
C201 C203 1.413 . S
C202 H197 0.930 . S
C202 C200 1.378 . S
C202 C201 1.348 . S
C203 C199 1.415 . S
C203 C201 1.413 . S
C203 C233 1.437 . S
H204 C233 0.929 . S
N205 Gd178 2.570 . S
N205 C206 1.359 . S
N205 C209 1.343 1_556 S
C206 C199 1.422 . S
C206 N205 1.359 . S
C206 C208 1.421 . S
C207 C208 1.423 1_554 S
C207 C210 1.321 . S
C207 H234 0.930 . S
C208 C206 1.421 . S
C208 C207 1.423 1_556 S
C208 C232 1.417 . S
C209 H186 0.931 . S
C209 N205 1.343 1_554 S
C209 C210 1.390 . S
C210 H188 0.930 . S
C210 C207 1.321 . S
C210 C209 1.390 . S
O211 Gd179 2.386 . S
O211 C223 1.265 . S
O212 Gd178 2.353 . S
O212 C223 1.242 1_556 S
O213 Gd178 2.468 . S
O213 C231 1.263 . S
O214 Gd178 2.427 . S
O214 C231 1.252 . S
O215 Gd179 2.307 1_556 S
O215 C224 1.261 . S
O216 Gd178 2.388 . S
O216 C224 1.252 . S
O217 Gd178 2.386 . S
O217 C235 1.265 . S
O218 Gd179 2.353 . S
O218 C235 1.242 1_554 S
O219 Gd179 2.468 . S
O219 C243 1.263 . S
O220 Gd179 2.427 . S
O220 C243 1.252 . S
O221 Gd178 2.307 1_554 S
O221 C236 1.261 . S
O222 Gd179 2.388 . S
O222 C236 1.252 . S
C223 O211 1.265 . S
C223 O212 1.242 1_554 S
C224 O215 1.261 . S
C224 O216 1.252 . S
C225 C228 1.394 . S
C225 C230 1.370 . S
C225 C231 1.500 . S
C226 C229 1.383 . S
C226 C230 1.395 . S
C227 C228 1.396 . S
C227 C229 1.365 . S
C227 H244 0.929 . S
C228 C225 1.394 . S
C228 C227 1.396 . S
C228 H245 0.930 . S
C229 C226 1.383 . S
C229 C227 1.365 . S
C229 H246 0.931 . S
C230 C225 1.370 . S
C230 C226 1.395 . S
C230 H247 0.930 1_556 S
C231 Gd178 2.805 . S
C231 O213 1.263 . S
C231 O214 1.252 . S
C231 C225 1.500 . S
C232 H194 0.930 . S
C232 C208 1.417 . S
C232 C233 1.329 . S
C233 C203 1.437 . S
C233 H204 0.929 . S
C233 C232 1.329 . S
H234 C207 0.930 . S
C235 O217 1.265 . S
C235 O218 1.242 1_556 S
C236 O221 1.261 . S
C236 O222 1.252 . S
C237 C240 1.394 . S
C237 C242 1.370 . S
C237 C243 1.500 . S
C238 C241 1.383 . S
C238 C242 1.395 . S
C239 C240 1.396 . S
C239 C241 1.365 . S
C239 H248 0.929 . S
C240 C237 1.394 . S
C240 C239 1.396 . S
C240 H249 0.930 . S
C241 C238 1.383 . S
C241 C239 1.365 . S
C241 H250 0.931 . S
C242 C237 1.370 . S
C242 C238 1.395 . S
C242 H251 0.930 1_554 S
C243 Gd179 2.805 . S
C243 O219 1.263 . S
C243 O220 1.252 . S
C243 C237 1.500 . S
H244 C227 0.929 . S
H245 C228 0.930 . S
H246 C229 0.931 . S
H247 C230 0.930 1_554 S
H248 C239 0.929 . S
H249 C240 0.930 . S
H250 C241 0.931 . S
H251 C242 0.930 1_556 S
C252 C254 1.422 . S
C252 C256 1.415 . S
C252 N258 1.369 . S
C253 C254 1.421 . S
C253 C255 1.417 . S
C253 C265 1.422 . S
C254 C252 1.422 . S
C254 C253 1.421 . S
C254 N264 1.359 . S
C255 C253 1.417 . S
C255 C257 1.329 . S
C255 H274 0.930 . S
C256 C252 1.415 . S
C256 C257 1.437 . S
C256 C260 1.413 . S
C257 C255 1.329 . S
C257 C256 1.437 . S
C257 H279 0.929 . S
N258 C252 1.369 . S
N258 C259 1.338 . S
N258 Gd263 2.622 . S
C259 N258 1.338 . S
C259 C261 1.378 . S
C259 H271 0.929 . S
C260 C256 1.413 . S
C260 C261 1.348 . S
C260 H276 0.931 . S
C261 C259 1.378 . S
C261 C260 1.348 . S
C261 H277 0.930 . S
Gd262 N282 2.622 . S
Gd262 N289 2.570 . S
Gd262 O296 2.353 . S
Gd262 O297 2.468 . S
Gd262 O298 2.427 . S
Gd262 O300 2.388 . S
Gd262 O301 2.386 . S
Gd262 O305 2.307 . S
Gd262 C315 2.805 . S
Gd263 N258 2.622 . S
Gd263 N264 2.570 . S
Gd263 O295 2.386 . S
Gd263 O299 2.307 . S
Gd263 O302 2.353 . S
Gd263 O303 2.468 . S
Gd263 O304 2.427 . S
Gd263 O306 2.388 . S
Gd263 C327 2.805 . S
N264 C254 1.359 . S
N264 Gd263 2.570 . S
N264 C266 1.343 . S
C265 C253 1.422 . S
C265 C267 1.321 . S
C265 H273 0.931 . S
C266 N264 1.343 . S
C266 C267 1.390 . S
C266 H268 0.931 . S
C267 C265 1.321 . S
C267 C266 1.390 . S
C267 H269 0.930 . S
H268 C266 0.931 . S
H269 C267 0.930 . S
H270 C293 0.931 . S
H271 C259 0.929 . S
H272 C294 0.930 . S
H273 C265 0.931 . S
H274 C255 0.930 . S
H275 C284 0.929 . S
H276 C260 0.931 . S
H277 C261 0.930 . S
H278 C316 0.930 . S
H279 C257 0.929 . S
H280 C285 0.931 . S
H281 C286 0.930 . S
N282 Gd262 2.622 . S
N282 C283 1.369 . S
N282 C284 1.338 . S
C283 N282 1.369 . S
C283 C287 1.415 . S
C283 C290 1.422 . S
C284 H275 0.929 . S
C284 N282 1.338 . S
C284 C286 1.378 . S
C285 H280 0.931 . S
C285 C286 1.348 . S
C285 C287 1.413 . S
C286 H281 0.930 . S
C286 C284 1.378 . S
C286 C285 1.348 . S
C287 C283 1.415 . S
C287 C285 1.413 . S
C287 C317 1.437 . S
H288 C317 0.929 . S
N289 Gd262 2.570 . S
N289 C290 1.359 . S
N289 C293 1.343 . S
C290 C283 1.422 . S
C290 N289 1.359 . S
C290 C292 1.421 . S
C291 C292 1.422 . S
C291 C294 1.321 . S
C291 H318 0.931 . S
C292 C290 1.421 . S
C292 C291 1.422 . S
C292 C316 1.417 . S
C293 H270 0.931 . S
C293 N289 1.343 . S
C293 C294 1.390 . S
C294 H272 0.930 . S
C294 C291 1.321 . S
C294 C293 1.390 . S
O295 Gd263 2.386 . S
O295 C307 1.265 . S
O296 Gd262 2.353 . S
O296 C307 1.242 . S
O297 Gd262 2.468 . S
O297 C315 1.263 . S
O298 Gd262 2.427 . S
O298 C315 1.252 . S
O299 Gd263 2.307 . S
O299 C308 1.261 . S
O300 Gd262 2.388 . S
O300 C308 1.252 . S
O301 Gd262 2.386 . S
O301 C319 1.265 . S
O302 Gd263 2.353 . S
O302 C319 1.242 . S
O303 Gd263 2.468 . S
O303 C327 1.263 . S
O304 Gd263 2.427 . S
O304 C327 1.252 . S
O305 Gd262 2.307 . S
O305 C320 1.261 . S
O306 Gd263 2.388 . S
O306 C320 1.252 . S
C307 O295 1.265 . S
C307 O296 1.242 . S
C308 O299 1.261 . S
C308 O300 1.252 . S
C309 C312 1.394 . S
C309 C314 1.370 . S
C309 C315 1.500 . S
C310 C313 1.383 . S
C310 C314 1.395 . S
C311 C312 1.396 . S
C311 C313 1.365 . S
C311 H328 0.929 . S
C312 C309 1.394 . S
C312 C311 1.396 . S
C312 H329 0.930 . S
C313 C310 1.383 . S
C313 C311 1.365 . S
C313 H330 0.931 . S
C314 C309 1.370 . S
C314 C310 1.395 . S
C314 H331 0.930 . S
C315 Gd262 2.805 . S
C315 O297 1.263 . S
C315 O298 1.252 . S
C315 C309 1.500 . S
C316 H278 0.930 . S
C316 C292 1.417 . S
C316 C317 1.329 . S
C317 C287 1.437 . S
C317 H288 0.929 . S
C317 C316 1.329 . S
H318 C291 0.931 . S
C319 O301 1.265 . S
C319 O302 1.242 . S
C320 O305 1.261 . S
C320 O306 1.252 . S
C321 C324 1.394 . S
C321 C326 1.370 . S
C321 C327 1.500 . S
C322 C325 1.383 . S
C322 C326 1.395 . S
C323 C324 1.396 . S
C323 C325 1.365 . S
C323 H332 0.929 . S
C324 C321 1.394 . S
C324 C323 1.396 . S
C324 H333 0.930 . S
C325 C322 1.383 . S
C325 C323 1.365 . S
C325 H334 0.931 . S
C326 C321 1.370 . S
C326 C322 1.395 . S
C326 H335 0.930 . S
C327 Gd263 2.805 . S
C327 O303 1.263 . S
C327 O304 1.252 . S
C327 C321 1.500 . S
H328 C311 0.929 . S
H329 C312 0.930 . S
H330 C313 0.931 . S
H331 C314 0.930 . S
H332 C323 0.929 . S
H333 C324 0.930 . S
H334 C325 0.931 . S
H335 C326 0.930 . S
H336 C342 0.930 . S
H337 C345 0.930 . S
H338 C346 0.930 . S
H339 C347 0.930 . S
H340 C350 0.930 . S
H341 C351 0.930 . S
C342 H336 0.930 . S
C342 C343 1.355 1_554 S
C342 C344 1.415 . S
C343 C342 1.355 1_556 S
C343 C345 1.419 . S
C344 C342 1.415 . S
C344 C349 1.425 1_554 S
C344 C351 1.409 . S
C345 H337 0.930 . S
C345 C343 1.419 . S
C345 C346 1.362 . S
C346 H338 0.930 . S
C346 C345 1.362 . S
C346 C349 1.409 . S
C347 H339 0.930 . S
C347 C348 1.355 1_556 S
C347 C349 1.415 . S
C348 C347 1.355 1_554 S
C348 C350 1.419 . S
C349 C344 1.425 1_556 S
C349 C346 1.409 . S
C349 C347 1.415 . S
C350 H340 0.930 . S
C350 C348 1.419 . S
C350 C351 1.362 . S
C351 H341 0.930 . S
C351 C344 1.409 . S
C351 C350 1.362 . S
H352 C358 0.930 . S
H353 C361 0.930 . S
H354 C362 0.930 . S
H355 C363 0.930 . S
H356 C366 0.930 . S
H357 C367 0.930 . S
C358 H352 0.930 . S
C358 C359 1.355 1_554 S
C358 C360 1.415 . S
C359 C358 1.355 1_556 S
C359 C361 1.419 . S
C360 C358 1.415 . S
C360 C365 1.425 1_554 S
C360 C367 1.409 . S
C361 H353 0.930 . S
C361 C359 1.419 . S
C361 C362 1.362 . S
C362 H354 0.930 . S
C362 C361 1.362 . S
C362 C365 1.409 . S
C363 H355 0.930 . S
C363 C364 1.355 1_556 S
C363 C365 1.415 . S
C364 C363 1.355 1_554 S
C364 C366 1.419 . S
C365 C360 1.425 1_556 S
C365 C362 1.409 . S
C365 C363 1.415 . S
C366 H356 0.930 . S
C366 C364 1.419 . S
C366 C367 1.362 . S
C367 H357 0.930 . S
C367 C360 1.409 . S
C367 C366 1.362 . S
H368 C374 0.930 . S
H369 C377 0.930 . S
H370 C378 0.930 . S
H371 C379 0.930 . S
H372 C382 0.930 . S
H373 C383 0.930 . S
C374 H368 0.930 . S
C374 C375 1.355 . S
C374 C376 1.415 . S
C375 C374 1.355 . S
C375 C377 1.419 . S
C376 C374 1.415 . S
C376 C381 1.425 . S
C376 C383 1.409 . S
C377 H369 0.930 . S
C377 C375 1.419 . S
C377 C378 1.362 . S
C378 H370 0.930 . S
C378 C377 1.362 . S
C378 C381 1.409 . S
C379 H371 0.930 . S
C379 C380 1.355 . S
C379 C381 1.415 . S
C380 C379 1.355 . S
C380 C382 1.419 . S
C381 C376 1.425 . S
C381 C378 1.409 . S
C381 C379 1.415 . S
C382 H372 0.930 . S
C382 C380 1.419 . S
C382 C383 1.362 . S
C383 H373 0.930 . S
C383 C376 1.409 . S
C383 C382 1.362 . S
H384 C390 0.930 . S
H385 C393 0.930 . S
H386 C394 0.930 . S
H387 C395 0.930 . S
H388 C398 0.930 . S
H389 C399 0.930 . S
C390 H384 0.930 . S
C390 C391 1.355 . S
C390 C392 1.415 . S
C391 C390 1.355 . S
C391 C393 1.419 . S
C392 C390 1.415 . S
C392 C397 1.425 . S
C392 C399 1.409 . S
C393 H385 0.930 . S
C393 C391 1.419 . S
C393 C394 1.362 . S
C394 H386 0.930 . S
C394 C393 1.362 . S
C394 C397 1.409 . S
C395 H387 0.930 . S
C395 C396 1.355 . S
C395 C397 1.415 . S
C396 C395 1.355 . S
C396 C398 1.419 . S
C397 C392 1.425 . S
C397 C394 1.409 . S
C397 C395 1.415 . S
C398 H388 0.930 . S
C398 C396 1.419 . S
C398 C399 1.362 . S
C399 H389 0.930 . S
C399 C392 1.409 . S
C399 C398 1.362 . S
H400 C406 0.930 . S
H401 C409 0.930 . S
H402 C410 0.930 . S
H403 C411 0.930 . S
H404 C414 0.930 . S
H405 C415 0.930 . S
C406 H400 0.930 . S
C406 C407 1.355 1_554 S
C406 C408 1.415 . S
C407 C406 1.355 1_556 S
C407 C409 1.419 1_565 S
C408 C406 1.415 . S
C408 C413 1.425 1_564 S
C408 C415 1.409 . S
C409 H401 0.930 . S
C409 C407 1.419 1_545 S
C409 C410 1.362 . S
C410 H402 0.930 . S
C410 C409 1.362 . S
C410 C413 1.409 . S
C411 H403 0.930 . S
C411 C412 1.355 1_556 S
C411 C413 1.415 . S
C412 C411 1.355 1_554 S
C412 C414 1.419 1_545 S
C413 C408 1.425 1_546 S
C413 C410 1.409 . S
C413 C411 1.415 . S
C414 H404 0.930 . S
C414 C412 1.419 1_565 S
C414 C415 1.362 . S
C415 H405 0.930 . S
C415 C408 1.409 . S
C415 C414 1.362 . S
H416 C422 0.930 . S
H417 C425 0.930 . S
H418 C426 0.930 . S
H419 C427 0.930 . S
H420 C430 0.930 . S
H421 C431 0.930 . S
C422 H416 0.930 . S
C422 C423 1.382 . S
C422 C424 1.415 . S
C423 C422 1.382 . S
C423 C425 1.382 1_545 S
C424 C422 1.415 . S
C424 C429 1.425 1_545 S
C424 C431 1.409 . S
C425 H417 0.930 . S
C425 C423 1.382 1_565 S
C425 C426 1.362 . S
C426 H418 0.930 . S
C426 C425 1.362 . S
C426 C429 1.409 . S
C427 H419 0.930 . S
C427 C428 1.376 . S
C427 C429 1.415 . S
C428 C427 1.376 . S
C428 C430 1.391 1_565 S
C429 C424 1.425 1_565 S
C429 C426 1.409 . S
C429 C427 1.415 . S
C430 H420 0.930 . S
C430 C428 1.391 1_545 S
C430 C431 1.362 . S
C431 H421 0.930 . S
C431 C424 1.409 . S
C431 C430 1.362 . S
H432 C438 0.930 . S
H433 C441 0.930 . S
H434 C442 0.930 . S
H435 C443 0.930 . S
H436 C446 0.930 . S
H437 C447 0.930 . S
C438 H432 0.930 . S
C438 C439 1.355 1_556 S
C438 C440 1.415 . S
C439 C438 1.355 1_554 S
C439 C441 1.419 . S
C440 C438 1.415 . S
C440 C445 1.425 1_656 S
C440 C447 1.409 1_655 S
C441 H433 0.930 . S
C441 C439 1.419 . S
C441 C442 1.362 . S
C442 H434 0.930 . S
C442 C441 1.362 . S
C442 C445 1.409 1_655 S
C443 H435 0.930 . S
C443 C444 1.355 1_554 S
C443 C445 1.415 . S
C444 C443 1.355 1_556 S
C444 C446 1.419 . S
C445 C440 1.425 1_454 S
C445 C442 1.409 1_455 S
C445 C443 1.415 . S
C446 H436 0.930 . S
C446 C444 1.419 . S
C446 C447 1.362 . S
C447 H437 0.930 . S
C447 C440 1.409 1_455 S
C447 C446 1.362 . S
H448 C454 0.930 . S
H449 C457 0.930 . S
H450 C458 0.930 . S
H451 C459 0.930 . S
H452 C462 0.930 . S
H453 C463 0.930 . S
C454 H448 0.930 . S
C454 C455 1.355 . S
C454 C456 1.415 . S
C455 C454 1.355 . S
C455 C457 1.419 . S
C456 C454 1.415 . S
C456 C461 1.425 1_455 S
C456 C463 1.409 1_455 S
C457 H449 0.930 . S
C457 C455 1.419 . S
C457 C458 1.362 . S
C458 H450 0.930 . S
C458 C457 1.362 . S
C458 C461 1.409 1_455 S
C459 H451 0.930 . S
C459 C460 1.355 . S
C459 C461 1.415 . S
C460 C459 1.355 . S
C460 C462 1.419 . S
C461 C456 1.425 1_655 S
C461 C458 1.409 1_655 S
C461 C459 1.415 . S
C462 H452 0.930 . S
C462 C460 1.419 . S
C462 C463 1.362 . S
C463 H453 0.930 . S
C463 C456 1.409 1_655 S
C463 C462 1.362 . S
H464 C470 0.930 . S
H465 C473 0.930 . S
H466 C474 0.930 . S
H467 C475 0.930 . S
H468 C478 0.930 . S
H469 C479 0.930 . S
C470 H464 0.930 . S
C470 C471 1.355 1_665 S
C470 C472 1.415 . S
C471 C470 1.355 1_445 S
C471 C473 1.436 . S
C472 C470 1.415 . S
C472 C477 1.425 1_665 S
C472 C479 1.409 . S
C473 H465 0.930 . S
C473 C471 1.436 . S
C473 C474 1.362 . S
C474 H466 0.930 . S
C474 C473 1.362 . S
C474 C477 1.409 . S
C475 H467 0.930 . S
C475 C476 1.355 1_445 S
C475 C477 1.415 . S
C476 C475 1.355 1_665 S
C476 C478 1.431 . S
C477 C472 1.425 1_445 S
C477 C474 1.409 . S
C477 C475 1.415 . S
C478 H468 0.930 . S
C478 C476 1.431 . S
C478 C479 1.362 . S
C479 H469 0.930 . S
C479 C472 1.409 . S
C479 C478 1.362 . S
H480 C486 0.930 . S
H481 C489 0.930 . S
H482 C490 0.930 . S
H483 C491 0.930 . S
H484 C494 0.930 . S
H485 C495 0.930 . S
C486 H480 0.930 . S
C486 C487 1.355 1_465 S
C486 C488 1.415 . S
C487 C486 1.355 1_645 S
C487 C489 1.419 . S
C488 C486 1.415 . S
C488 C493 1.425 1_465 S
C488 C495 1.409 . S
C489 H481 0.930 . S
C489 C487 1.419 . S
C489 C490 1.362 . S
C490 H482 0.930 . S
C490 C489 1.362 . S
C490 C493 1.409 . S
C491 H483 0.930 . S
C491 C492 1.355 1_645 S
C491 C493 1.415 . S
C492 C491 1.355 1_465 S
C492 C494 1.419 . S
C493 C488 1.425 1_645 S
C493 C490 1.409 . S
C493 C491 1.415 . S
C494 H484 0.930 . S
C494 C492 1.419 . S
C494 C495 1.362 . S
C495 H485 0.930 . S
C495 C488 1.409 . S
C495 C494 1.362 . S
H496 C502 0.930 . S
H497 C505 0.930 . S
H498 C506 0.930 . S
H499 C507 0.930 . S
H500 C510 0.930 . S
H501 C511 0.930 . S
C502 H496 0.930 . S
C502 C503 1.355 . S
C502 C504 1.415 . S
C503 C502 1.355 . S
C503 C505 1.419 . S
C504 C502 1.415 . S
C504 C509 1.425 . S
C504 C511 1.409 . S
C505 H497 0.930 . S
C505 C503 1.419 . S
C505 C506 1.362 . S
C506 H498 0.930 . S
C506 C505 1.362 . S
C506 C509 1.409 . S
C507 H499 0.930 . S
C507 C508 1.355 . S
C507 C509 1.415 . S
C508 C507 1.355 . S
C508 C510 1.419 . S
C509 C504 1.425 . S
C509 C506 1.409 . S
C509 C507 1.415 . S
C510 H500 0.930 . S
C510 C508 1.419 . S
C510 C511 1.362 . S
C511 H501 0.930 . S
C511 C504 1.409 . S
C511 C510 1.362 . S
H512 C518 0.930 . S
H513 C521 0.930 . S
H514 C522 0.930 . S
H515 C523 0.930 . S
H516 C526 0.930 . S
H517 C527 0.930 . S
C518 H512 0.930 . S
C518 C519 1.355 . S
C518 C520 1.415 . S
C519 C518 1.355 . S
C519 C521 1.419 . S
C520 C518 1.415 . S
C520 C525 1.425 . S
C520 C527 1.409 . S
C521 H513 0.930 . S
C521 C519 1.419 . S
C521 C522 1.362 . S
C522 H514 0.930 . S
C522 C521 1.362 . S
C522 C525 1.409 . S
C523 H515 0.930 . S
C523 C524 1.355 . S
C523 C525 1.415 . S
C524 C523 1.355 . S
C524 C526 1.419 . S
C525 C520 1.425 . S
C525 C522 1.409 . S
C525 C523 1.415 . S
C526 H516 0.930 . S
C526 C524 1.419 . S
C526 C527 1.362 . S
C527 H517 0.930 . S
C527 C520 1.409 . S
C527 C526 1.362 . S
C343 C238 1.432 1_556 S
C348 C58 1.435 1_554 S
C359 C226 1.364 . S
C364 C70 1.361 . S
C375 C142 1.439 . S
C380 C322 1.435 . S
C391 C154 1.448 . S
C396 C310 1.452 . S
C407 C55 1.980 1_556 S
C412 C67 1.980 1_554 S
C423 C139 1.981 . S
C428 C151 1.980 . S
C439 C223 1.974 . S
C444 C235 1.974 . S
C455 C319 1.990 . S
C460 C307 1.990 . S
C471 C152 1.472 1_445 S
C476 C68 1.444 1_565 S
C487 C56 1.494 1_645 S
C492 C140 1.489 1_565 S
C503 C320 1.453 . S
C508 C236 1.458 . S
C519 C308 1.490 . S
C524 C224 1.494 . S
