# Generated by pormake.
# Topology zfr, (5)-cn, num edge types: 1
# Building blocks:
#     Node 0, Type 0, BuildingBlock: XOMCOT_clean_sbu_1, # of connection points: 5
#     Node 1, Type 0, BuildingBlock: XOMCOT_clean_sbu_1, # of connection points: 5
#     Node 2, Type 0, BuildingBlock: XOMCOT_clean_sbu_1, # of connection points: 5
#     Node 3, Type 0, BuildingBlock: XOMCOT_clean_sbu_1, # of connection points: 5
#     Node 4, Type 0, BuildingBlock: XOMCOT_clean_sbu_1, # of connection points: 5
#     Node 5, Type 0, BuildingBlock: XOMCOT_clean_sbu_1, # of connection points: 5
#     Node 6, Type 0, BuildingBlock: XOMCOT_clean_sbu_1, # of connection points: 5
#     Node 7, Type 0, BuildingBlock: XOMCOT_clean_sbu_1, # of connection points: 5
#     Edge 8, Type (0, 0), BuildingBlock: XIVTED_clean_linker_0, # of connection points: 2
#     Edge 9, Type (0, 0), BuildingBlock: XIVTED_clean_linker_0, # of connection points: 2
#     Edge 10, Type (0, 0), BuildingBlock: XIVTED_clean_linker_0, # of connection points: 2
#     Edge 11, Type (0, 0), BuildingBlock: XIVTED_clean_linker_0, # of connection points: 2
#     Edge 12, Type (0, 0), BuildingBlock: XIVTED_clean_linker_0, # of connection points: 2
#     Edge 13, Type (0, 0), BuildingBlock: XIVTED_clean_linker_0, # of connection points: 2
#     Edge 14, Type (0, 0), BuildingBlock: XIVTED_clean_linker_0, # of connection points: 2
#     Edge 15, Type (0, 0), BuildingBlock: XIVTED_clean_linker_0, # of connection points: 2
#     Edge 16, Type (0, 0), BuildingBlock: XIVTED_clean_linker_0, # of connection points: 2
#     Edge 17, Type (0, 0), BuildingBlock: XIVTED_clean_linker_0, # of connection points: 2
#     Edge 18, Type (0, 0), BuildingBlock: XIVTED_clean_linker_0, # of connection points: 2
#     Edge 19, Type (0, 0), BuildingBlock: XIVTED_clean_linker_0, # of connection points: 2
#     Edge 20, Type (0, 0), BuildingBlock: XIVTED_clean_linker_0, # of connection points: 2
#     Edge 21, Type (0, 0), BuildingBlock: XIVTED_clean_linker_0, # of connection points: 2
#     Edge 22, Type (0, 0), BuildingBlock: XIVTED_clean_linker_0, # of connection points: 2
#     Edge 23, Type (0, 0), BuildingBlock: XIVTED_clean_linker_0, # of connection points: 2
#     Edge 24, Type (0, 0), BuildingBlock: XIVTED_clean_linker_0, # of connection points: 2
#     Edge 25, Type (0, 0), BuildingBlock: XIVTED_clean_linker_0, # of connection points: 2
#     Edge 26, Type (0, 0), BuildingBlock: XIVTED_clean_linker_0, # of connection points: 2
#     Edge 27, Type (0, 0), BuildingBlock: XIVTED_clean_linker_0, # of connection points: 2
# Relax obj value: 0.189
# Max RMSD: 0.175
# Mean RMSD: 0.175
data_MOF--net-zfr--node1-XOMCOT_clean_sbu_1--edge1-XIVTED_clean_linker_0
_symmetry_space_group_name_H-M    P1
_symmetry_Int_Tables_number       1
_symmetry_cell_setting            triclinic
loop_
_symmetry_equiv_pos_as_xyz
'x, y, z'
_cell_length_a     51.589472
_cell_length_b     51.58571
_cell_length_c     17.340468
_cell_angle_alpha  89.999254
_cell_angle_beta   90.010793
_cell_angle_gamma 89.980933
loop_
_atom_site_label
_atom_site_type_symbol
_atom_site_fract_x
_atom_site_fract_y
_atom_site_fract_z
_atom_type_partial_charge
C0 C 0.14921 0.34126 0.15151 0.0
C1 C 0.15416 0.34142 0.07328 0.0
N2 N 0.14068 0.32191 0.04075 0.0
N3 N 0.13254 0.32185 0.16757 0.0
C4 C 0.12837 0.31004 0.09944 0.0
H5 H 0.15607 0.35524 0.19326 0.0
Co6 Co 0.11591 0.31482 0.26059 0.0
C7 C 0.06182 0.30655 0.20571 0.0
O8 O 0.05328 0.32214 0.26004 0.0
N9 N 0.10042 0.30678 0.3557 0.0
C10 C 0.07974 0.28693 0.45177 0.0
C11 C 0.08088 0.29034 0.37323 0.0
C12 C 0.11179 0.31162 0.42442 0.0
N13 N 0.09928 0.30038 0.48395 0.0
O14 O 0.13222 0.28147 0.26428 0.0
H15 H 0.06928 0.27976 0.33212 0.0
H16 H 0.12969 0.32231 0.43019 0.0
O17 O 0.086 0.30101 0.20261 0.0
C18 C 0.15476 0.28436 0.29303 0.0
O19 O 0.16267 0.30805 0.30815 0.0
N20 N 0.10159 0.34902 0.25931 0.0
C21 C 0.08963 0.40215 0.25327 0.0
C22 C 0.0846 0.38587 0.19007 0.0
C23 C 0.09074 0.35946 0.1942 0.0
C24 C 0.10657 0.36468 0.3209 0.0
C25 C 0.10006 0.39088 0.32003 0.0
H26 H 0.08798 0.3477 0.14329 0.0
H27 H 0.11692 0.35755 0.37008 0.0
H28 H 0.11585 0.29345 0.09244 0.0
H29 H 0.1654 0.35575 0.04227 0.0
H30 H 0.06648 0.2743 0.48221 0.0
H31 H 0.07718 0.39357 0.13635 0.0
H32 H 0.10409 0.4023 0.37098 0.0
C33 C 0.66273 0.1483 0.43578 0.0
C34 C 0.66186 0.15206 0.35707 0.0
N35 N 0.67977 0.13653 0.32445 0.0
N36 N 0.68093 0.13033 0.45198 0.0
C37 C 0.69144 0.12422 0.38339 0.0
H38 H 0.65 0.15707 0.47788 0.0
Co39 Co 0.68765 0.11412 0.54492 0.0
C40 C 0.69671 0.05836 0.50113 0.0
O41 O 0.68465 0.05003 0.56313 0.0
N42 N 0.69498 0.09837 0.63981 0.0
C43 C 0.718 0.08139 0.73604 0.0
C44 C 0.71617 0.08411 0.65733 0.0
C45 C 0.68464 0.10448 0.70889 0.0
N46 N 0.69826 0.09454 0.76816 0.0
O47 O 0.72234 0.12755 0.5428 0.0
H48 H 0.73054 0.07779 0.61599 0.0
H49 H 0.66865 0.11762 0.71658 0.0
O50 O 0.69889 0.08275 0.48931 0.0
C51 C 0.72603 0.14601 0.59043 0.0
O52 O 0.70669 0.15355 0.63435 0.0
N53 N 0.65268 0.10322 0.54809 0.0
C54 C 0.59866 0.09812 0.54827 0.0
C55 C 0.61407 0.08224 0.50127 0.0
C56 C 0.64103 0.08551 0.50063 0.0
C57 C 0.63781 0.11917 0.59244 0.0
C58 C 0.61095 0.11662 0.59475 0.0
H59 H 0.65202 0.07493 0.45824 0.0
H60 H 0.64671 0.13518 0.62256 0.0
H61 H 0.707 0.11047 0.37643 0.0
H62 H 0.6481 0.16403 0.32616 0.0
H63 H 0.73378 0.07236 0.76723 0.0
H64 H 0.60529 0.0685 0.46193 0.0
H65 H 0.59986 0.12969 0.63081 0.0
C66 C 0.85058 0.65747 0.64576 0.0
C67 C 0.84482 0.65725 0.56821 0.0
N68 N 0.85654 0.67774 0.53453 0.0
N69 N 0.86613 0.6778 0.66084 0.0
C70 C 0.86864 0.69022 0.59285 0.0
H71 H 0.84488 0.64306 0.68778 0.0
Co72 Co 0.88286 0.68536 0.7534 0.0
C73 C 0.93664 0.69517 0.69502 0.0
O74 O 0.94665 0.6805 0.74939 0.0
N75 N 0.89827 0.69376 0.84848 0.0
C76 C 0.91848 0.71268 0.94728 0.0
C77 C 0.91803 0.70965 0.86826 0.0
C78 C 0.88627 0.68876 0.91609 0.0
N79 N 0.89846 0.69933 0.97722 0.0
O80 O 0.86606 0.71848 0.7563 0.0
H81 H 0.93041 0.71988 0.82841 0.0
H82 H 0.86793 0.67871 0.91993 0.0
O83 O 0.9122 0.69948 0.69391 0.0
C84 C 0.84323 0.71587 0.78324 0.0
O85 O 0.83499 0.69232 0.79871 0.0
N86 N 0.89787 0.65143 0.75278 0.0
C87 C 0.91049 0.59841 0.74745 0.0
C88 C 0.91538 0.61469 0.68411 0.0
C89 C 0.90895 0.64106 0.68795 0.0
C90 C 0.89314 0.6358 0.81463 0.0
C91 C 0.9 0.60969 0.81412 0.0
H92 H 0.91148 0.65276 0.63682 0.0
H93 H 0.88269 0.64284 0.86375 0.0
H94 H 0.87995 0.70763 0.58618 0.0
H95 H 0.83355 0.64256 0.53895 0.0
H96 H 0.93211 0.72431 0.97975 0.0
H97 H 0.92285 0.60702 0.63046 0.0
H98 H 0.89614 0.59832 0.86528 0.0
C99 C 0.34333 0.8496 0.94003 0.0
C100 C 0.34409 0.84494 0.86181 0.0
N101 N 0.32474 0.8584 0.82808 0.0
N102 N 0.32383 0.86621 0.95528 0.0
C103 C 0.31244 0.87055 0.88649 0.0
H104 H 0.35694 0.84244 0.98243 0.0
Co105 Co 0.31687 0.88285 0.04796 0.0
C106 C 0.308 0.93802 -0.00132 0.0
O107 O 0.32044 0.94696 0.05924 0.0
N108 N 0.30916 0.89898 0.14329 0.0
C109 C 0.28635 0.91759 0.23765 0.0
C110 C 0.2888 0.91463 0.15904 0.0
C111 C 0.31813 0.89211 0.21371 0.0
N112 N 0.30488 0.9033 0.27192 0.0
O113 O 0.28241 0.86888 0.04653 0.0
H114 H 0.27536 0.922 0.11653 0.0
H115 H 0.33212 0.87697 0.22324 0.0
O116 O 0.30516 0.91355 0.99005 0.0
C117 C 0.27845 0.85058 0.09448 0.0
O118 O 0.29758 0.84301 0.13916 0.0
N119 N 0.35167 0.89481 0.04994 0.0
C120 C 0.40531 0.90433 0.05082 0.0
C121 C 0.38915 0.91558 0.99471 0.0
C122 C 0.36252 0.91035 0.99472 0.0
C123 C 0.36731 0.88258 0.10169 0.0
C124 C 0.39379 0.88779 0.10525 0.0
H125 H 0.35109 0.91757 0.94727 0.0
H126 H 0.35965 0.86737 0.13747 0.0
H127 H 0.29614 0.88339 0.87899 0.0
H128 H 0.35836 0.83327 0.83202 0.0
H129 H 0.27135 0.9284 0.2671 0.0
H130 H 0.39706 0.92735 0.94875 0.0
H131 H 0.40511 0.87819 0.14933 0.0
C132 C 0.13969 0.65682 0.29489 0.0
C133 C 0.14422 0.65661 0.37335 0.0
N134 N 0.13045 0.67604 0.40528 0.0
N135 N 0.12299 0.67615 0.27826 0.0
C136 C 0.11844 0.68793 0.34613 0.0
H137 H 0.1467 0.64279 0.25347 0.0
Co138 Co 0.10627 0.68265 0.18576 0.0
C139 C 0.05173 0.69197 0.2375 0.0
O140 O 0.04302 0.67687 0.18219 0.0
N141 N 0.0905 0.68999 0.09055 0.0
C142 C 0.07098 0.7108 0.99397 0.0
C143 C 0.07249 0.70809 0.07275 0.0
C144 C 0.10049 0.6831 0.02156 0.0
N145 N 0.08882 0.69513 0.96201 0.0
O146 O 0.12169 0.71644 0.18309 0.0
H147 H 0.06254 0.72028 0.11382 0.0
H148 H 0.11742 0.67103 0.01515 0.0
O149 O 0.07609 0.69639 0.24278 0.0
C150 C 0.14168 0.71827 0.14035 0.0
O151 O 0.15004 0.69755 0.10405 0.0
N152 N 0.09247 0.6483 0.18843 0.0
C153 C 0.08055 0.59547 0.20105 0.0
C154 C 0.07366 0.61284 0.25961 0.0
C155 C 0.07996 0.63907 0.25253 0.0
C156 C 0.09972 0.63137 0.13188 0.0
C157 C 0.0934 0.60509 0.13606 0.0
H158 H 0.07606 0.65162 0.30099 0.0
H159 H 0.11206 0.63754 0.08568 0.0
H160 H 0.10571 0.70438 0.35268 0.0
H161 H 0.15523 0.64223 0.40487 0.0
H162 H 0.05907 0.72462 0.9631 0.0
H163 H 0.06429 0.60605 0.31174 0.0
H164 H 0.10011 0.59211 0.09116 0.0
C165 C 0.34259 0.15012 0.61799 0.0
C166 C 0.34378 0.15508 0.69594 0.0
N167 N 0.32496 0.14133 0.73111 0.0
N168 N 0.32335 0.13306 0.60429 0.0
C169 C 0.31258 0.12864 0.67388 0.0
H170 H 0.35558 0.15766 0.5745 0.0
Co171 Co 0.31588 0.11688 0.51106 0.0
C172 C 0.30555 0.06192 0.55823 0.0
O173 O 0.31798 0.05325 0.49728 0.0
N174 N 0.30774 0.10148 0.4157 0.0
C175 C 0.28416 0.084 0.32134 0.0
C176 C 0.28696 0.08642 0.39987 0.0
C177 C 0.31651 0.10874 0.34548 0.0
N178 N 0.30277 0.09818 0.28717 0.0
O179 O 0.28215 0.13238 0.51023 0.0
H180 H 0.27349 0.07913 0.44237 0.0
H181 H 0.33091 0.12355 0.33659 0.0
O182 O 0.30304 0.08638 0.56822 0.0
C183 C 0.28471 0.15463 0.47923 0.0
O184 O 0.3082 0.16226 0.46046 0.0
N185 N 0.35023 0.104 0.50917 0.0
C186 C 0.40404 0.09695 0.51221 0.0
C187 C 0.38795 0.08328 0.56319 0.0
C188 C 0.36112 0.08755 0.56201 0.0
C189 C 0.36578 0.11768 0.46046 0.0
C190 C 0.39251 0.11405 0.45968 0.0
H191 H 0.34964 0.07902 0.6073 0.0
H192 H 0.35776 0.13318 0.42639 0.0
H193 H 0.29659 0.11555 0.68278 0.0
H194 H 0.35785 0.1673 0.72451 0.0
H195 H 0.26883 0.07363 0.29197 0.0
H196 H 0.39616 0.07073 0.60694 0.0
H197 H 0.40417 0.12548 0.42043 0.0
C198 C 0.86129 0.34537 0.79241 0.0
C199 C 0.85615 0.34638 0.8703 0.0
N200 N 0.86835 0.32638 0.90508 0.0
N201 N 0.87691 0.32502 0.77808 0.0
C202 C 0.88003 0.31333 0.84709 0.0
H203 H 0.85535 0.35946 0.7497 0.0
Co204 Co 0.89414 0.31788 0.68605 0.0
C205 C 0.94829 0.30681 0.74332 0.0
O206 O 0.95895 0.31981 0.6864 0.0
N207 N 0.91043 0.31006 0.59101 0.0
C208 C 0.92991 0.2885 0.49559 0.0
C209 C 0.92775 0.29118 0.57442 0.0
C210 C 0.90164 0.31764 0.52097 0.0
N211 N 0.91338 0.30523 0.46201 0.0
O212 O 0.87857 0.28415 0.68408 0.0
H213 H 0.93682 0.27864 0.61637 0.0
H214 H 0.88495 0.32993 0.513 0.0
O215 O 0.92362 0.30426 0.74615 0.0
C216 C 0.85934 0.28169 0.63859 0.0
O217 O 0.85153 0.30192 0.59889 0.0
N218 N 0.90818 0.35208 0.68774 0.0
C219 C 0.92014 0.40495 0.69812 0.0
C220 C 0.92789 0.38769 0.75602 0.0
C221 C 0.92155 0.36141 0.75012 0.0
C222 C 0.90001 0.36891 0.63207 0.0
C223 C 0.90634 0.39521 0.63502 0.0
H224 H 0.92591 0.34905 0.7986 0.0
H225 H 0.88683 0.36263 0.58803 0.0
H226 H 0.89167 0.29617 0.85486 0.0
H227 H 0.84514 0.36137 0.89909 0.0
H228 H 0.94186 0.27449 0.46567 0.0
H229 H 0.93791 0.39459 0.80694 0.0
H230 H 0.8989 0.40811 0.59095 0.0
C231 C 0.65691 0.85676 0.09948 0.0
C232 C 0.6574 0.85092 0.17697 0.0
N233 N 0.67865 0.86191 0.2087 0.0
N234 N 0.67752 0.8717 0.08247 0.0
C235 C 0.69076 0.87379 0.14922 0.0
H236 H 0.64174 0.85175 0.05907 0.0
Co237 Co 0.68438 0.88853 0.98958 0.0
C238 C 0.69618 0.94207 0.0445 0.0
O239 O 0.68188 0.95198 0.9891 0.0
N240 N 0.69219 0.90406 0.89431 0.0
C241 C 0.71413 0.92227 0.7979 0.0
C242 C 0.71064 0.92165 0.87646 0.0
C243 C 0.68592 0.89336 0.82563 0.0
N244 N 0.69856 0.90433 0.76569 0.0
O245 O 0.71704 0.87096 0.983 0.0
H246 H 0.72271 0.93173 0.91752 0.0
H247 H 0.67375 0.87643 0.8206 0.0
O248 O 0.69973 0.91752 0.04789 0.0
C249 C 0.71353 0.84876 0.95255 0.0
O250 O 0.68964 0.84165 0.93682 0.0
N251 N 0.65091 0.90435 0.99436 0.0
C252 C 0.59851 0.91746 0.01037 0.0
C253 C 0.61609 0.92237 0.07007 0.0
C254 C 0.64218 0.91572 0.06094 0.0
C255 C 0.63385 0.89964 0.93578 0.0
C256 C 0.60777 0.90656 0.94188 0.0
H257 H 0.65495 0.91811 0.10979 0.0
H258 H 0.63969 0.88885 0.88588 0.0
H259 H 0.70862 0.88456 0.15403 0.0
H260 H 0.64236 0.84065 0.20782 0.0
H261 H 0.72849 0.93373 0.76786 0.0
H262 H 0.60953 0.9303 0.12453 0.0
H263 H 0.59459 0.90166 0.89546 0.0
H264 H 0.23267 0.14192 0.46401 0.0
H265 H 0.1422 0.23231 0.30901 0.0
H266 H 0.28636 0.20574 0.44647 0.0
H267 H 0.20564 0.28635 0.32951 0.0
H268 H 0.17069 0.19777 0.3576 0.0
H269 H 0.19796 0.17049 0.41688 0.0
C270 C 0.23707 0.16197 0.45093 0.0
C271 C 0.26247 0.17143 0.4589 0.0
C272 C 0.17839 0.21715 0.35171 0.0
C273 C 0.22314 0.20415 0.40368 0.0
C274 C 0.16214 0.23683 0.32317 0.0
C275 C 0.17152 0.26227 0.31534 0.0
C276 C 0.20415 0.22313 0.37225 0.0
C277 C 0.19742 0.26713 0.33491 0.0
C278 C 0.21729 0.17827 0.42319 0.0
C279 C 0.26717 0.19747 0.44074 0.0
N280 N 0.21266 0.24785 0.36233 0.0
N281 N 0.24781 0.21275 0.41407 0.0
H282 H 0.85186 0.24367 0.74708 0.0
H283 H 0.76039 0.15769 0.4748 0.0
H284 H 0.83494 0.26354 0.51078 0.0
H285 H 0.74799 0.16592 0.71947 0.0
H286 H 0.79798 0.18692 0.48493 0.0
H287 H 0.82365 0.20541 0.73446 0.0
C288 C 0.8426 0.2397 0.69226 0.0
C289 C 0.8454 0.25686 0.63015 0.0
C290 C 0.78724 0.1819 0.53646 0.0
C291 C 0.81367 0.21324 0.61505 0.0
C292 C 0.76597 0.16516 0.53077 0.0
C293 C 0.75104 0.15968 0.59629 0.0
C294 C 0.79382 0.19265 0.60837 0.0
C295 C 0.7589 0.16997 0.66748 0.0
C296 C 0.82649 0.218 0.68518 0.0
C297 C 0.83296 0.25093 0.56035 0.0
N298 N 0.77971 0.18602 0.67167 0.0
N299 N 0.81758 0.22964 0.55467 0.0
H300 H 0.85606 0.76787 0.7969 0.0
H301 H 0.7664 0.85865 0.95167 0.0
H302 H 0.79184 0.71461 0.81398 0.0
H303 H 0.70994 0.79928 0.90155 0.0
H304 H 0.80082 0.82916 0.90793 0.0
H305 H 0.82723 0.80314 0.83867 0.0
C306 C 0.83591 0.76365 0.80908 0.0
C307 C 0.82638 0.73823 0.80222 0.0
C308 C 0.78091 0.82267 0.90577 0.0
C309 C 0.7934 0.77821 0.85152 0.0
C310 C 0.76127 0.83945 0.93157 0.0
C311 C 0.73523 0.83146 0.93028 0.0
C312 C 0.7743 0.79778 0.87867 0.0
C313 C 0.72966 0.80642 0.90353 0.0
C314 C 0.81948 0.78374 0.83385 0.0
C315 C 0.80016 0.7338 0.81889 0.0
N316 N 0.74894 0.7906 0.87912 0.0
N317 N 0.78473 0.7535 0.84257 0.0
H318 H 0.14937 0.75645 0.24811 0.0
H319 H 0.244 0.83975 0.97837 0.0
H320 H 0.16689 0.73554 0.01305 0.0
H321 H 0.25607 0.83059 0.22292 0.0
H322 H 0.20563 0.81152 0.9877 0.0
H323 H 0.17873 0.79388 0.236 0.0
C324 C 0.15898 0.76007 0.19361 0.0
C325 C 0.15602 0.74284 0.13174 0.0
C326 C 0.2165 0.81611 0.03938 0.0
C327 C 0.18906 0.78548 0.11722 0.0
C328 C 0.23823 0.83226 0.03414 0.0
C329 C 0.25326 0.8372 0.09985 0.0
C330 C 0.20956 0.80543 0.11105 0.0
C331 C 0.24511 0.82694 0.17078 0.0
C332 C 0.17574 0.78128 0.18684 0.0
C333 C 0.16896 0.74825 0.06239 0.0
N334 N 0.22383 0.81149 0.17455 0.0
N335 N 0.18496 0.76907 0.05698 0.0
H336 H 0.06719 0.293 0.60574 0.0
H337 H 0.17412 0.32998 0.92195 0.0
H338 H 0.14645 0.31135 0.54735 0.0
H339 H 0.09647 0.30479 0.97464 0.0
H340 H 0.16488 0.32364 0.78415 0.0
H341 H 0.07812 0.29697 0.74172 0.0
C342 C 0.08695 0.29765 0.62137 0.0
C343 C 0.10586 0.3019 0.56465 0.0
C344 C 0.14997 0.3193 0.82613 0.0
C345 C 0.11852 0.30688 0.72087 0.0
C346 C 0.15522 0.323 0.90454 0.0
C347 C 0.13616 0.31755 0.95986 0.0
C348 C 0.12539 0.31035 0.80321 0.0
C349 C 0.11196 0.30855 0.93438 0.0
C350 C 0.09318 0.30007 0.6992 0.0
C351 C 0.13109 0.30831 0.58873 0.0
N352 N 0.10727 0.30531 0.85812 0.0
N353 N 0.13667 0.31067 0.66503 0.0
H354 H 0.69473 0.09075 0.26244 0.0
H355 H 0.67941 0.13929 0.82842 0.0
H356 H 0.67109 0.1684 0.2024 0.0
H357 H 0.71048 0.0645 0.89081 0.0
H358 H 0.6747 0.14982 0.96456 0.0
H359 H 0.69961 0.08058 0.12665 0.0
C360 C 0.69096 0.10584 0.22071 0.0
C361 C 0.68292 0.13065 0.24396 0.0
C362 C 0.6825 0.13108 0.94858 0.0
C363 C 0.68782 0.11886 0.08756 0.0
C364 C 0.68496 0.12493 0.87078 0.0
C365 C 0.69511 0.10081 0.84833 0.0
C366 C 0.69019 0.11299 0.00442 0.0
C367 C 0.70266 0.0833 0.90581 0.0
C368 C 0.69352 0.09991 0.14294 0.0
C369 C 0.67733 0.14907 0.18692 0.0
N370 N 0.69999 0.08971 0.98133 0.0
N371 N 0.67992 0.1428 0.11116 0.0
H372 H 0.87157 0.66001 0.0429 0.0
H373 H 0.87398 0.72215 0.46543 0.0
H374 H 0.90826 0.73313 0.0946 0.0
H375 H 0.84625 0.64494 0.41472 0.0
H376 H 0.88338 0.72825 0.329 0.0
H377 H 0.85889 0.65605 0.17766 0.0
C378 C 0.8768 0.67537 0.08244 0.0
C379 C 0.89096 0.69699 0.05709 0.0
C380 C 0.87511 0.71004 0.34788 0.0
C381 C 0.87668 0.69242 0.2124 0.0
C382 C 0.86976 0.70644 0.42614 0.0
C383 C 0.85949 0.68281 0.45285 0.0
C384 C 0.87003 0.68996 0.29544 0.0
C385 C 0.85401 0.66353 0.39785 0.0
C386 C 0.86967 0.67301 0.15965 0.0
C387 C 0.89759 0.71603 0.11158 0.0
N388 N 0.85945 0.66751 0.32212 0.0
N389 N 0.89037 0.71331 0.18666 0.0
H390 H 0.34888 0.88864 0.34525 0.0
H391 H 0.2802 0.87348 0.75684 0.0
H392 H 0.26791 0.90503 0.38421 0.0
H393 H 0.36028 0.85425 0.71285 0.0
H394 H 0.27511 0.88515 0.62113 0.0
H395 H 0.35332 0.8764 0.48043 0.0
C396 C 0.332 0.88963 0.3822 0.0
C397 C 0.30794 0.89774 0.35299 0.0
C398 C 0.29376 0.87825 0.64115 0.0
C399 C 0.31293 0.88386 0.50852 0.0
C400 C 0.2967 0.87161 0.71875 0.0
C401 C 0.32074 0.86289 0.74674 0.0
C402 C 0.31501 0.87622 0.59092 0.0
C403 C 0.34131 0.86055 0.69413 0.0
C404 C 0.33457 0.88269 0.45955 0.0
C405 C 0.28687 0.89911 0.40414 0.0
N406 N 0.338 0.86729 0.61902 0.0
N407 N 0.28983 0.89216 0.47932 0.0
H408 H 0.13612 0.68334 0.90174 0.0
H409 H 0.0853 0.69214 0.46788 0.0
H410 H 0.05765 0.70327 0.83875 0.0
H411 H 0.16287 0.6681 0.52658 0.0
H412 H 0.07575 0.69829 0.60359 0.0
H413 H 0.147 0.67919 0.76551 0.0
C414 C 0.12109 0.68667 0.85939 0.0
C415 C 0.0958 0.69342 0.88182 0.0
C416 C 0.09494 0.69183 0.58714 0.0
C417 C 0.10832 0.68908 0.72556 0.0
C418 C 0.10051 0.6886 0.50936 0.0
C419 C 0.12508 0.68006 0.48576 0.0
C420 C 0.11405 0.68638 0.6423 0.0
C421 C 0.1437 0.67475 0.54249 0.0
C422 C 0.12741 0.68447 0.7815 0.0
C423 C 0.07739 0.69819 0.82409 0.0
N424 N 0.13782 0.67803 0.61835 0.0
N425 N 0.084 0.69585 0.74865 0.0
H426 H 0.26537 0.09649 0.17625 0.0
H427 H 0.36079 0.14702 0.84487 0.0
H428 H 0.34638 0.11347 0.21255 0.0
H429 H 0.28085 0.12636 0.80455 0.0
H430 H 0.35517 0.13689 0.98109 0.0
H431 H 0.27029 0.10816 0.04064 0.0
C432 C 0.28424 0.10246 0.15576 0.0
C433 C 0.30549 0.10402 0.2062 0.0
C434 C 0.33881 0.13465 0.94251 0.0
C435 C 0.31116 0.11783 0.0509 0.0
C436 C 0.34195 0.14069 0.86465 0.0
C437 C 0.32128 0.13751 0.8128 0.0
C438 C 0.31483 0.12537 0.96904 0.0
C439 C 0.29743 0.12877 0.84203 0.0
C440 C 0.28699 0.10932 0.0783 0.0
C441 C 0.32938 0.11231 0.17621 0.0
N442 N 0.29488 0.12295 0.91809 0.0
N443 N 0.33155 0.11891 0.10066 0.0
H444 H 0.91902 0.26877 0.3491 0.0
H445 H 0.8618 0.36173 0.02055 0.0
H446 H 0.89316 0.34717 0.38925 0.0
H447 H 0.88479 0.28245 0.97849 0.0
H448 H 0.87231 0.35614 0.15608 0.0
H449 H 0.9069 0.27321 0.2133 0.0
C450 C 0.91096 0.28697 0.32946 0.0
C451 C 0.90706 0.30761 0.38108 0.0
C452 C 0.87497 0.33991 0.11729 0.0
C453 C 0.89284 0.31272 0.22551 0.0
C454 C 0.86872 0.34301 0.0395 0.0
C455 C 0.87238 0.32256 0.98698 0.0
C456 C 0.88507 0.31621 0.14346 0.0
C457 C 0.88192 0.29892 0.01602 0.0
C458 C 0.90386 0.28942 0.2519 0.0
C459 C 0.89619 0.33061 0.35209 0.0
N460 N 0.88801 0.29644 0.09207 0.0
N461 N 0.8895 0.33253 0.27649 0.0
H462 H 0.65699 0.83557 0.32972 0.0
H463 H 0.71622 0.93163 0.64182 0.0
H464 H 0.71438 0.89396 0.27665 0.0
H465 H 0.67817 0.8599 0.70358 0.0
H466 H 0.71395 0.91898 0.50688 0.0
H467 H 0.66316 0.84462 0.46646 0.0
C468 C 0.67083 0.8503 0.34608 0.0
C469 C 0.68452 0.86452 0.29008 0.0
C470 C 0.70624 0.90596 0.55017 0.0
C471 C 0.69171 0.87488 0.44751 0.0
C472 C 0.70758 0.91314 0.62761 0.0
C473 C 0.69743 0.8969 0.68527 0.0
C474 C 0.69441 0.88246 0.52959 0.0
C475 C 0.68601 0.87336 0.66203 0.0
C476 C 0.67442 0.85536 0.42454 0.0
C477 C 0.70278 0.88282 0.31623 0.0
N478 N 0.68471 0.86694 0.5861 0.0
N479 N 0.70555 0.88767 0.39271 0.0
H480 H 0.0734 0.28032 0.07146 0.0
H481 H 0.93236 0.30086 0.89287 0.0
H482 H 0.0098 0.3159 0.19346 0.0
H483 H 0.00085 0.29823 0.75068 0.0
H484 H 0.95908 0.29497 0.00674 0.0
H485 H 0.04558 0.27598 0.95747 0.0
C486 C 0.05362 0.28711 0.07455 0.0
C487 C 0.04423 0.29926 0.14149 0.0
C488 C 0.96826 0.2953 0.95056 0.0
C489 C 0.01208 0.29348 0.01234 0.0
C490 C 0.95291 0.29837 0.88508 0.0
C491 C 0.96423 0.29989 0.81161 0.0
C492 C 0.99525 0.29354 0.94296 0.0
C493 C 0.99128 0.29723 0.80616 0.0
C494 C 0.03775 0.28453 0.00954 0.0
C495 C 0.01808 0.3068 0.14289 0.0
N496 N 0.00592 0.29426 0.87103 0.0
N497 N 0.00299 0.3039 0.07925 0.0
H498 H 0.70479 0.99449 0.04579 0.0
H499 H 0.68846 0.00584 0.4978 0.0
H500 H 0.70235 0.92773 0.19461 0.0
H501 H 0.72013 0.06824 0.36167 0.0
H502 H 0.69364 0.9768 0.38762 0.0
H503 H 0.71023 0.02224 0.15958 0.0
C504 C 0.70591 0.98561 0.10231 0.0
C505 C 0.7034 0.95868 0.11078 0.0
C506 C 0.69962 0.99683 0.38201 0.0
C507 C 0.70903 0.99027 0.24113 0.0
C508 C 0.69667 0.01346 0.44499 0.0
C509 C 0.7032 0.0398 0.43852 0.0
C510 C 0.70885 0.00664 0.31159 0.0
C511 C 0.71401 0.04838 0.36866 0.0
C512 C 0.70902 0.00144 0.16718 0.0
C513 C 0.70476 0.94824 0.18536 0.0
N514 N 0.71609 0.03198 0.30753 0.0
N515 N 0.70712 0.96403 0.24769 0.0
H516 H 0.06341 0.71798 0.37179 0.0
H517 H 0.92103 0.70422 0.54628 0.0
H518 H 0.99929 0.68431 0.24744 0.0
H519 H 0.98944 0.70104 0.68885 0.0
H520 H 0.94833 0.70918 0.43275 0.0
H521 H 0.03521 0.72354 0.48427 0.0
C522 C 0.04344 0.71185 0.36786 0.0
C523 C 0.034 0.69986 0.30076 0.0
C524 C 0.95734 0.7078 0.48903 0.0
C525 C 0.0014 0.70713 0.42817 0.0
C526 C 0.94172 0.70522 0.55423 0.0
C527 C 0.95286 0.70224 0.62757 0.0
C528 C 0.98439 0.70772 0.49705 0.0
C529 C 0.98001 0.70318 0.63343 0.0
C530 C 0.02734 0.71516 0.432 0.0
C531 C 0.0076 0.69324 0.29823 0.0
N532 N 0.99488 0.70576 0.56898 0.0
N533 N 0.99227 0.69686 0.36109 0.0
H534 H 0.29651 0.92591 0.84817 0.0
H535 H 0.29044 0.07317 0.70693 0.0
H536 H 0.30512 0.9911 0.00185 0.0
H537 H 0.30651 0.00881 0.55537 0.0
H538 H 0.28655 0.04303 0.81463 0.0
H539 H 0.29092 0.95573 0.74058 0.0
C540 C 0.29682 0.94645 0.85977 0.0
C541 C 0.30144 0.9559 0.93448 0.0
C542 C 0.2907 0.03551 0.75764 0.0
C543 C 0.2951 0.99033 0.81079 0.0
C544 C 0.29287 0.05274 0.69583 0.0
C545 C 0.29922 0.04367 0.6218 0.0
C546 C 0.29457 0.0089 0.74535 0.0
C547 C 0.30186 0.01678 0.61143 0.0
C548 C 0.29377 0.96352 0.79797 0.0
C549 C 0.30179 0.98289 0.94526 0.0
N550 N 0.29966 1.00038 0.67251 0.0
N551 N 0.29877 0.99916 0.88409 0.0
H552 H 0.11862 0.44031 0.32286 0.0
H553 H 0.06096 0.55985 0.09876 0.0
H554 H 0.05305 0.43011 0.17044 0.0
H555 H 0.09394 0.56664 0.32643 0.0
H556 H 0.06059 0.51241 0.11361 0.0
H557 H 0.11292 0.48686 0.31472 0.0
C558 C 0.10271 0.44767 0.2886 0.0
C559 C 0.08603 0.43087 0.2483 0.0
C560 C 0.06756 0.52437 0.16055 0.0
C561 C 0.08017 0.48477 0.23647 0.0
C562 C 0.06785 0.55134 0.15208 0.0
C563 C 0.07743 0.56713 0.21158 0.0
C564 C 0.07752 0.51321 0.22818 0.0
C565 C 0.08615 0.5552 0.2795 0.0
C566 C 0.09964 0.47441 0.28359 0.0
C567 C 0.06655 0.4421 0.20215 0.0
N568 N 0.0863 0.52896 0.28554 0.0
N569 N 0.06427 0.46836 0.19704 0.0
H570 H 0.56526 0.13908 0.54212 0.0
H571 H 0.43532 0.05403 0.53164 0.0
H572 H 0.5665 0.05543 0.54254 0.0
H573 H 0.43811 0.13731 0.50957 0.0
H574 H 0.4829 0.05337 0.54134 0.0
H575 H 0.51824 0.13807 0.5356 0.0
C576 C 0.55561 0.12044 0.54157 0.0
C577 C 0.56989 0.09729 0.54376 0.0
C578 C 0.47303 0.07174 0.5341 0.0
C579 C 0.51568 0.09597 0.53501 0.0
C580 C 0.44592 0.07213 0.52889 0.0
C581 C 0.43274 0.09572 0.5188 0.0
C582 C 0.48694 0.09513 0.52997 0.0
C583 C 0.44741 0.11861 0.51558 0.0
C584 C 0.52868 0.11986 0.53724 0.0
C585 C 0.55624 0.07373 0.54079 0.0
N586 N 0.47361 0.11771 0.52115 0.0
N587 N 0.52986 0.07365 0.53682 0.0
H588 H 0.88206 0.56012 0.81865 0.0
H589 H 0.93843 0.44046 0.59337 0.0
H590 H 0.94688 0.57047 0.66354 0.0
H591 H 0.90808 0.43399 0.82428 0.0
H592 H 0.93877 0.48795 0.60735 0.0
H593 H 0.88802 0.51361 0.81105 0.0
C594 C 0.89788 0.55283 0.78391 0.0
C595 C 0.91427 0.56968 0.74274 0.0
C596 C 0.9324 0.47604 0.65516 0.0
C597 C 0.92038 0.51577 0.73145 0.0
C598 C 0.93213 0.44905 0.6472 0.0
C599 C 0.92329 0.43334 0.70789 0.0
C600 C 0.92313 0.48731 0.7235 0.0
C601 C 0.91529 0.44537 0.77641 0.0
C602 C 0.90108 0.52609 0.77921 0.0
C603 C 0.93359 0.55847 0.69597 0.0
N604 N 0.91507 0.47163 0.78197 0.0
N605 N 0.93599 0.5322 0.69113 0.0
H606 H 0.56302 0.94278 0.91972 0.0
H607 H 0.44371 0.87021 0.09588 0.0
H608 H 0.56983 0.89728 0.12729 0.0
H609 H 0.43327 0.94705 0.00077 0.0
H610 H 0.49026 0.87679 0.09369 0.0
H611 H 0.51552 0.94208 0.9341 0.0
C612 C 0.55448 0.93297 0.96876 0.0
C613 C 0.57024 0.92018 0.02267 0.0
C614 C 0.4777 0.89225 0.07387 0.0
C615 C 0.51635 0.91871 0.03811 0.0
C616 C 0.45095 0.88866 0.0756 0.0
C617 C 0.43407 0.90823 0.04945 0.0
C618 C 0.48796 0.91526 0.04382 0.0
C619 C 0.44526 0.93121 0.02073 0.0
C620 C 0.52751 0.93261 0.97695 0.0
C621 C 0.55834 0.90759 0.08498 0.0
N622 N 0.4715 0.93399 0.018 0.0
N623 N 0.53208 0.90683 0.09036 0.0
loop_
_geom_bond_atom_site_label_1
_geom_bond_atom_site_label_2
_geom_bond_distance
_geom_bond_site_symmetry_2
_ccdc_geom_bond_type
C0 C1 1.351 1_554 S
C0 N3 1.368 . S
C0 H5 0.931 . S
C1 C0 1.351 1_556 S
C1 N2 1.373 . S
C1 H29 0.930 . S
N2 C1 1.373 . S
N2 C4 1.340 1_556 S
N3 C0 1.368 . S
N3 C4 1.321 . S
N3 Co6 2.135 . S
C4 N2 1.340 1_554 S
C4 N3 1.321 . S
C4 H28 0.930 . S
H5 C0 0.931 . S
Co6 N3 2.135 . S
Co6 N9 2.121 . S
Co6 O14 2.055 . S
Co6 O17 2.039 . S
Co6 N20 2.140 . S
C7 O8 1.227 . S
C7 O17 1.265 . S
O8 C7 1.227 . S
N9 Co6 2.121 . S
N9 C11 1.375 . S
N9 C12 1.313 . S
C10 C11 1.338 . S
C10 N13 1.377 . S
C10 H30 0.930 . S
C11 N9 1.375 . S
C11 C10 1.338 . S
C11 H15 0.931 . S
C12 N9 1.313 . S
C12 N13 1.344 . S
C12 H16 0.930 . S
N13 C10 1.377 . S
N13 C12 1.344 . S
O14 Co6 2.055 . S
O14 C18 1.253 . S
H15 C11 0.931 . S
H16 C12 0.930 . S
O17 Co6 2.039 . S
O17 C7 1.265 . S
C18 O14 1.253 . S
C18 O19 1.227 . S
O19 C18 1.227 . S
N20 Co6 2.140 . S
N20 C23 1.346 . S
N20 C24 1.345 . S
C21 C22 1.387 . S
C21 C25 1.391 . S
C22 C21 1.387 . S
C22 C23 1.369 . S
C22 H31 0.929 . S
C23 N20 1.346 . S
C23 C22 1.369 . S
C23 H26 0.928 . S
C24 N20 1.345 . S
C24 C25 1.371 . S
C24 H27 0.931 . S
C25 C21 1.391 . S
C25 C24 1.371 . S
C25 H32 0.930 . S
H26 C23 0.928 . S
H27 C24 0.931 . S
H28 C4 0.930 . S
H29 C1 0.930 . S
H30 C10 0.930 . S
H31 C22 0.929 . S
H32 C25 0.930 . S
C33 C34 1.351 . S
C33 N36 1.368 . S
C33 H38 0.931 . S
C34 C33 1.351 . S
C34 N35 1.373 . S
C34 H62 0.930 . S
N35 C34 1.373 . S
N35 C37 1.340 . S
N36 C33 1.368 . S
N36 C37 1.321 . S
N36 Co39 2.135 . S
C37 N35 1.340 . S
C37 N36 1.321 . S
C37 H61 0.930 . S
H38 C33 0.931 . S
Co39 N36 2.135 . S
Co39 N42 2.121 . S
Co39 O47 2.055 . S
Co39 O50 2.039 . S
Co39 N53 2.140 . S
C40 O41 1.227 . S
C40 O50 1.265 . S
O41 C40 1.227 . S
N42 Co39 2.121 . S
N42 C44 1.375 . S
N42 C45 1.313 . S
C43 C44 1.338 . S
C43 N46 1.377 . S
C43 H63 0.930 . S
C44 N42 1.375 . S
C44 C43 1.338 . S
C44 H48 0.931 . S
C45 N42 1.313 . S
C45 N46 1.344 . S
C45 H49 0.930 . S
N46 C43 1.377 . S
N46 C45 1.344 . S
O47 Co39 2.055 . S
O47 C51 1.253 . S
H48 C44 0.931 . S
H49 C45 0.930 . S
O50 Co39 2.039 . S
O50 C40 1.265 . S
C51 O47 1.253 . S
C51 O52 1.227 . S
O52 C51 1.227 . S
N53 Co39 2.140 . S
N53 C56 1.346 . S
N53 C57 1.345 . S
C54 C55 1.387 . S
C54 C58 1.391 . S
C55 C54 1.387 . S
C55 C56 1.369 . S
C55 H64 0.929 . S
C56 N53 1.346 . S
C56 C55 1.369 . S
C56 H59 0.928 . S
C57 N53 1.345 . S
C57 C58 1.371 . S
C57 H60 0.931 . S
C58 C54 1.391 . S
C58 C57 1.371 . S
C58 H65 0.930 . S
H59 C56 0.928 . S
H60 C57 0.931 . S
H61 C37 0.930 . S
H62 C34 0.930 . S
H63 C43 0.930 . S
H64 C55 0.929 . S
H65 C58 0.930 . S
C66 C67 1.351 . S
C66 N69 1.368 . S
C66 H71 0.931 . S
C67 C66 1.351 . S
C67 N68 1.373 . S
C67 H95 0.930 . S
N68 C67 1.373 . S
N68 C70 1.340 . S
N69 C66 1.368 . S
N69 C70 1.321 . S
N69 Co72 2.135 . S
C70 N68 1.340 . S
C70 N69 1.321 . S
C70 H94 0.930 . S
H71 C66 0.931 . S
Co72 N69 2.135 . S
Co72 N75 2.121 . S
Co72 O80 2.055 . S
Co72 O83 2.039 . S
Co72 N86 2.140 . S
C73 O74 1.227 . S
C73 O83 1.265 . S
O74 C73 1.227 . S
N75 Co72 2.121 . S
N75 C77 1.375 . S
N75 C78 1.313 . S
C76 C77 1.338 . S
C76 N79 1.377 . S
C76 H96 0.930 . S
C77 N75 1.375 . S
C77 C76 1.338 . S
C77 H81 0.931 . S
C78 N75 1.313 . S
C78 N79 1.344 . S
C78 H82 0.930 . S
N79 C76 1.377 . S
N79 C78 1.344 . S
O80 Co72 2.055 . S
O80 C84 1.253 . S
H81 C77 0.931 . S
H82 C78 0.930 . S
O83 Co72 2.039 . S
O83 C73 1.265 . S
C84 O80 1.253 . S
C84 O85 1.227 . S
O85 C84 1.227 . S
N86 Co72 2.140 . S
N86 C89 1.346 . S
N86 C90 1.345 . S
C87 C88 1.387 . S
C87 C91 1.391 . S
C88 C87 1.387 . S
C88 C89 1.369 . S
C88 H97 0.929 . S
C89 N86 1.346 . S
C89 C88 1.369 . S
C89 H92 0.928 . S
C90 N86 1.345 . S
C90 C91 1.371 . S
C90 H93 0.931 . S
C91 C87 1.391 . S
C91 C90 1.371 . S
C91 H98 0.930 . S
H92 C89 0.928 . S
H93 C90 0.931 . S
H94 C70 0.930 . S
H95 C67 0.930 . S
H96 C76 0.930 . S
H97 C88 0.929 . S
H98 C91 0.930 . S
C99 C100 1.351 . S
C99 N102 1.368 . S
C99 H104 0.931 . S
C100 C99 1.351 . S
C100 N101 1.373 . S
C100 H128 0.930 . S
N101 C100 1.373 . S
N101 C103 1.340 . S
N102 C99 1.368 . S
N102 C103 1.321 . S
N102 Co105 2.135 . S
C103 N101 1.340 . S
C103 N102 1.321 . S
C103 H127 0.930 . S
H104 C99 0.931 . S
Co105 N102 2.135 . S
Co105 N108 2.121 1_556 S
Co105 O113 2.055 . S
Co105 O116 2.039 . S
Co105 N119 2.140 . S
C106 O107 1.227 . S
C106 O116 1.265 . S
O107 C106 1.227 . S
N108 Co105 2.121 1_554 S
N108 C110 1.375 . S
N108 C111 1.313 . S
C109 C110 1.338 . S
C109 N112 1.377 . S
C109 H129 0.930 . S
C110 N108 1.375 . S
C110 C109 1.338 . S
C110 H114 0.931 . S
C111 N108 1.313 . S
C111 N112 1.344 . S
C111 H115 0.930 . S
N112 C109 1.377 . S
N112 C111 1.344 . S
O113 Co105 2.055 . S
O113 C117 1.253 . S
H114 C110 0.931 . S
H115 C111 0.930 . S
O116 Co105 2.039 . S
O116 C106 1.265 . S
C117 O113 1.253 . S
C117 O118 1.227 1_556 S
O118 C117 1.227 1_554 S
N119 Co105 2.140 . S
N119 C122 1.346 . S
N119 C123 1.345 1_556 S
C120 C121 1.387 . S
C120 C124 1.391 1_556 S
C121 C120 1.387 . S
C121 C122 1.369 . S
C121 H130 0.929 . S
C122 N119 1.346 . S
C122 C121 1.369 . S
C122 H125 0.928 . S
C123 N119 1.345 1_554 S
C123 C124 1.371 . S
C123 H126 0.931 . S
C124 C120 1.391 1_554 S
C124 C123 1.371 . S
C124 H131 0.930 . S
H125 C122 0.928 . S
H126 C123 0.931 . S
H127 C103 0.930 . S
H128 C100 0.930 . S
H129 C109 0.930 . S
H130 C121 0.929 . S
H131 C124 0.930 . S
C132 C133 1.351 . S
C132 N135 1.368 . S
C132 H137 0.931 . S
C133 C132 1.351 . S
C133 N134 1.373 . S
C133 H161 0.930 . S
N134 C133 1.373 . S
N134 C136 1.340 . S
N135 C132 1.368 . S
N135 C136 1.321 . S
N135 Co138 2.135 . S
C136 N134 1.340 . S
C136 N135 1.321 . S
C136 H160 0.930 . S
H137 C132 0.931 . S
Co138 N135 2.135 . S
Co138 N141 2.121 . S
Co138 O146 2.055 . S
Co138 O149 2.039 . S
Co138 N152 2.140 . S
C139 O140 1.227 . S
C139 O149 1.265 . S
O140 C139 1.227 . S
N141 Co138 2.121 . S
N141 C143 1.375 . S
N141 C144 1.313 . S
C142 C143 1.338 . S
C142 N145 1.377 . S
C142 H162 0.930 . S
C143 N141 1.375 . S
C143 C142 1.338 . S
C143 H147 0.931 . S
C144 N141 1.313 . S
C144 N145 1.344 . S
C144 H148 0.930 . S
N145 C142 1.377 . S
N145 C144 1.344 . S
O146 Co138 2.055 . S
O146 C150 1.253 . S
H147 C143 0.931 . S
H148 C144 0.930 . S
O149 Co138 2.039 . S
O149 C139 1.265 . S
C150 O146 1.253 . S
C150 O151 1.227 . S
O151 C150 1.227 . S
N152 Co138 2.140 . S
N152 C155 1.346 . S
N152 C156 1.345 . S
C153 C154 1.387 . S
C153 C157 1.391 . S
C154 C153 1.387 . S
C154 C155 1.369 . S
C154 H163 0.929 . S
C155 N152 1.346 . S
C155 C154 1.369 . S
C155 H158 0.928 . S
C156 N152 1.345 . S
C156 C157 1.371 . S
C156 H159 0.931 . S
C157 C153 1.391 . S
C157 C156 1.371 . S
C157 H164 0.930 . S
H158 C155 0.928 . S
H159 C156 0.931 . S
H160 C136 0.930 . S
H161 C133 0.930 . S
H162 C142 0.930 . S
H163 C154 0.929 . S
H164 C157 0.930 . S
C165 C166 1.351 . S
C165 N168 1.368 . S
C165 H170 0.931 . S
C166 C165 1.351 . S
C166 N167 1.373 . S
C166 H194 0.930 . S
N167 C166 1.373 . S
N167 C169 1.340 . S
N168 C165 1.368 . S
N168 C169 1.321 . S
N168 Co171 2.135 . S
C169 N167 1.340 . S
C169 N168 1.321 . S
C169 H193 0.930 . S
H170 C165 0.931 . S
Co171 N168 2.135 . S
Co171 N174 2.121 . S
Co171 O179 2.055 . S
Co171 O182 2.039 . S
Co171 N185 2.140 . S
C172 O173 1.227 . S
C172 O182 1.265 . S
O173 C172 1.227 . S
N174 Co171 2.121 . S
N174 C176 1.375 . S
N174 C177 1.313 . S
C175 C176 1.338 . S
C175 N178 1.377 . S
C175 H195 0.930 . S
C176 N174 1.375 . S
C176 C175 1.338 . S
C176 H180 0.931 . S
C177 N174 1.313 . S
C177 N178 1.344 . S
C177 H181 0.930 . S
N178 C175 1.377 . S
N178 C177 1.344 . S
O179 Co171 2.055 . S
O179 C183 1.253 . S
H180 C176 0.931 . S
H181 C177 0.930 . S
O182 Co171 2.039 . S
O182 C172 1.265 . S
C183 O179 1.253 . S
C183 O184 1.227 . S
O184 C183 1.227 . S
N185 Co171 2.140 . S
N185 C188 1.346 . S
N185 C189 1.345 . S
C186 C187 1.387 . S
C186 C190 1.391 . S
C187 C186 1.387 . S
C187 C188 1.369 . S
C187 H196 0.929 . S
C188 N185 1.346 . S
C188 C187 1.369 . S
C188 H191 0.928 . S
C189 N185 1.345 . S
C189 C190 1.371 . S
C189 H192 0.931 . S
C190 C186 1.391 . S
C190 C189 1.371 . S
C190 H197 0.930 . S
H191 C188 0.928 . S
H192 C189 0.931 . S
H193 C169 0.930 . S
H194 C166 0.930 . S
H195 C175 0.930 . S
H196 C187 0.929 . S
H197 C190 0.930 . S
C198 C199 1.351 1_556 S
C198 N201 1.368 . S
C198 H203 0.931 . S
C199 C198 1.351 1_554 S
C199 N200 1.373 . S
C199 H227 0.930 . S
N200 C199 1.373 . S
N200 C202 1.340 1_554 S
N201 C198 1.368 . S
N201 C202 1.321 . S
N201 Co204 2.135 . S
C202 N200 1.340 1_556 S
C202 N201 1.321 . S
C202 H226 0.930 . S
H203 C198 0.931 . S
Co204 N201 2.135 . S
Co204 N207 2.121 . S
Co204 O212 2.055 . S
Co204 O215 2.039 . S
Co204 N218 2.140 . S
C205 O206 1.227 . S
C205 O215 1.265 . S
O206 C205 1.227 . S
N207 Co204 2.121 . S
N207 C209 1.375 . S
N207 C210 1.313 . S
C208 C209 1.338 . S
C208 N211 1.377 . S
C208 H228 0.930 . S
C209 N207 1.375 . S
C209 C208 1.338 . S
C209 H213 0.931 . S
C210 N207 1.313 . S
C210 N211 1.344 . S
C210 H214 0.930 . S
N211 C208 1.377 . S
N211 C210 1.344 . S
O212 Co204 2.055 . S
O212 C216 1.253 . S
H213 C209 0.931 . S
H214 C210 0.930 . S
O215 Co204 2.039 . S
O215 C205 1.265 . S
C216 O212 1.253 . S
C216 O217 1.227 . S
O217 C216 1.227 . S
N218 Co204 2.140 . S
N218 C221 1.346 . S
N218 C222 1.345 . S
C219 C220 1.387 . S
C219 C223 1.391 . S
C220 C219 1.387 . S
C220 C221 1.369 . S
C220 H229 0.929 . S
C221 N218 1.346 . S
C221 C220 1.369 . S
C221 H224 0.928 . S
C222 N218 1.345 . S
C222 C223 1.371 . S
C222 H225 0.931 . S
C223 C219 1.391 . S
C223 C222 1.371 . S
C223 H230 0.930 . S
H224 C221 0.928 . S
H225 C222 0.931 . S
H226 C202 0.930 . S
H227 C199 0.930 . S
H228 C208 0.930 . S
H229 C220 0.929 . S
H230 C223 0.930 . S
C231 C232 1.351 . S
C231 N234 1.368 . S
C231 H236 0.931 . S
C232 C231 1.351 . S
C232 N233 1.373 . S
C232 H260 0.930 . S
N233 C232 1.373 . S
N233 C235 1.340 . S
N234 C231 1.368 . S
N234 C235 1.321 . S
N234 Co237 2.135 . S
C235 N233 1.340 . S
C235 N234 1.321 . S
C235 H259 0.930 . S
H236 C231 0.931 . S
Co237 N234 2.135 . S
Co237 N240 2.121 1_554 S
Co237 O245 2.055 . S
Co237 O248 2.039 . S
Co237 N251 2.140 . S
C238 O239 1.227 . S
C238 O248 1.265 . S
O239 C238 1.227 . S
N240 Co237 2.121 1_556 S
N240 C242 1.375 . S
N240 C243 1.313 . S
C241 C242 1.338 . S
C241 N244 1.377 . S
C241 H261 0.930 . S
C242 N240 1.375 . S
C242 C241 1.338 . S
C242 H246 0.931 . S
C243 N240 1.313 . S
C243 N244 1.344 . S
C243 H247 0.930 . S
N244 C241 1.377 . S
N244 C243 1.344 . S
O245 Co237 2.055 . S
O245 C249 1.253 . S
H246 C242 0.931 . S
H247 C243 0.930 . S
O248 Co237 2.039 . S
O248 C238 1.265 . S
C249 O245 1.253 . S
C249 O250 1.227 1_554 S
O250 C249 1.227 1_556 S
N251 Co237 2.140 . S
N251 C254 1.346 . S
N251 C255 1.345 1_554 S
C252 C253 1.387 . S
C252 C256 1.391 1_554 S
C253 C252 1.387 . S
C253 C254 1.369 . S
C253 H262 0.929 . S
C254 N251 1.346 . S
C254 C253 1.369 . S
C254 H257 0.928 . S
C255 N251 1.345 1_556 S
C255 C256 1.371 . S
C255 H258 0.931 . S
C256 C252 1.391 1_556 S
C256 C255 1.371 . S
C256 H263 0.930 . S
H257 C254 0.928 . S
H258 C255 0.931 . S
H259 C235 0.930 . S
H260 C232 0.930 . S
H261 C241 0.930 . S
H262 C253 0.929 . S
H263 C256 0.930 . S
H264 C270 0.930 . S
H265 C274 0.930 . S
H266 C279 0.929 . S
H267 C277 0.929 . S
H268 C272 0.929 . S
H269 C278 0.929 . S
C270 H264 0.930 . S
C270 C271 1.367 . S
C270 C278 1.378 . S
C271 C270 1.367 . S
C271 C279 1.433 . S
C272 H268 0.929 . S
C272 C274 1.378 . S
C272 C276 1.350 . S
C273 C276 1.463 . S
C273 C278 1.350 . S
C273 N281 1.427 . S
C274 H265 0.930 . S
C274 C272 1.378 . S
C274 C275 1.367 . S
C275 C274 1.367 . S
C275 C277 1.433 . S
C276 C272 1.350 . S
C276 C273 1.463 . S
C276 N280 1.427 . S
C277 H267 0.929 . S
C277 C275 1.433 . S
C277 N280 1.384 . S
C278 H269 0.929 . S
C278 C270 1.378 . S
C278 C273 1.350 . S
C279 H266 0.929 . S
C279 C271 1.433 . S
C279 N281 1.384 . S
N280 C276 1.427 . S
N280 C277 1.384 . S
N281 C273 1.427 . S
N281 C279 1.384 . S
H282 C288 0.930 . S
H283 C292 0.930 . S
H284 C297 0.929 . S
H285 C295 0.929 . S
H286 C290 0.929 . S
H287 C296 0.929 . S
C288 H282 0.930 . S
C288 C289 1.367 . S
C288 C296 1.378 . S
C289 C288 1.367 . S
C289 C297 1.433 . S
C290 H286 0.929 . S
C290 C292 1.378 . S
C290 C294 1.350 . S
C291 C294 1.463 . S
C291 C296 1.350 . S
C291 N299 1.427 . S
C292 H283 0.930 . S
C292 C290 1.378 . S
C292 C293 1.367 . S
C293 C292 1.367 . S
C293 C295 1.433 . S
C294 C290 1.350 . S
C294 C291 1.463 . S
C294 N298 1.427 . S
C295 H285 0.929 . S
C295 C293 1.433 . S
C295 N298 1.384 . S
C296 H287 0.929 . S
C296 C288 1.378 . S
C296 C291 1.350 . S
C297 H284 0.929 . S
C297 C289 1.433 . S
C297 N299 1.384 . S
N298 C294 1.427 . S
N298 C295 1.384 . S
N299 C291 1.427 . S
N299 C297 1.384 . S
H300 C306 0.930 . S
H301 C310 0.930 . S
H302 C315 0.929 . S
H303 C313 0.929 . S
H304 C308 0.929 . S
H305 C314 0.929 . S
C306 H300 0.930 . S
C306 C307 1.367 . S
C306 C314 1.378 . S
C307 C306 1.367 . S
C307 C315 1.433 . S
C308 H304 0.929 . S
C308 C310 1.378 . S
C308 C312 1.350 . S
C309 C312 1.463 . S
C309 C314 1.350 . S
C309 N317 1.427 . S
C310 H301 0.930 . S
C310 C308 1.378 . S
C310 C311 1.367 . S
C311 C310 1.367 . S
C311 C313 1.433 . S
C312 C308 1.350 . S
C312 C309 1.463 . S
C312 N316 1.427 . S
C313 H303 0.929 . S
C313 C311 1.433 . S
C313 N316 1.384 . S
C314 H305 0.929 . S
C314 C306 1.378 . S
C314 C309 1.350 . S
C315 H302 0.929 . S
C315 C307 1.433 . S
C315 N317 1.384 . S
N316 C312 1.427 . S
N316 C313 1.384 . S
N317 C309 1.427 . S
N317 C315 1.384 . S
H318 C324 0.930 . S
H319 C328 0.919 1_556 S
H320 C333 0.929 . S
H321 C331 0.929 . S
H322 C326 0.929 . S
H323 C332 0.929 . S
C324 H318 0.930 . S
C324 C325 1.367 . S
C324 C332 1.378 . S
C325 C324 1.367 . S
C325 C333 1.433 . S
C326 H322 0.929 . S
C326 C328 1.386 . S
C326 C330 1.350 . S
C327 C330 1.463 . S
C327 C332 1.350 . S
C327 N335 1.427 . S
C328 H319 0.919 1_554 S
C328 C326 1.386 . S
C328 C329 1.370 . S
C329 C328 1.370 . S
C329 C331 1.433 . S
C330 C326 1.350 . S
C330 C327 1.463 . S
C330 N334 1.427 . S
C331 H321 0.929 . S
C331 C329 1.433 . S
C331 N334 1.384 . S
C332 H323 0.929 . S
C332 C324 1.378 . S
C332 C327 1.350 . S
C333 H320 0.929 . S
C333 C325 1.433 . S
C333 N335 1.384 . S
N334 C330 1.427 . S
N334 C331 1.384 . S
N335 C327 1.427 . S
N335 C333 1.384 . S
H336 C342 0.930 . S
H337 C346 0.930 . S
H338 C351 0.929 . S
H339 C349 0.929 . S
H340 C344 0.929 . S
H341 C350 0.929 . S
C342 H336 0.930 . S
C342 C343 1.367 . S
C342 C350 1.378 . S
C343 C342 1.367 . S
C343 C351 1.433 . S
C344 H340 0.929 . S
C344 C346 1.378 . S
C344 C348 1.350 . S
C345 C348 1.463 . S
C345 C350 1.350 . S
C345 N353 1.427 . S
C346 H337 0.930 . S
C346 C344 1.378 . S
C346 C347 1.367 . S
C347 C346 1.367 . S
C347 C349 1.433 . S
C348 C344 1.350 . S
C348 C345 1.463 . S
C348 N352 1.427 . S
C349 H339 0.929 . S
C349 C347 1.433 . S
C349 N352 1.384 . S
C350 H341 0.929 . S
C350 C342 1.378 . S
C350 C345 1.350 . S
C351 H338 0.929 . S
C351 C343 1.433 . S
C351 N353 1.384 . S
N352 C348 1.427 . S
N352 C349 1.384 . S
N353 C345 1.427 . S
N353 C351 1.384 . S
H354 C360 0.930 . S
H355 C364 0.930 . S
H356 C369 0.929 . S
H357 C367 0.929 . S
H358 C362 0.929 . S
H359 C368 0.929 . S
C360 H354 0.930 . S
C360 C361 1.367 . S
C360 C368 1.378 . S
C361 C360 1.367 . S
C361 C369 1.433 . S
C362 H358 0.929 . S
C362 C364 1.378 . S
C362 C366 1.350 . S
C363 C366 1.463 . S
C363 C368 1.350 1_556 S
C363 N371 1.427 1_556 S
C364 H355 0.930 . S
C364 C362 1.378 . S
C364 C365 1.367 . S
C365 C364 1.367 . S
C365 C367 1.433 . S
C366 C362 1.350 . S
C366 C363 1.463 . S
C366 N370 1.427 . S
C367 H357 0.929 . S
C367 C365 1.433 . S
C367 N370 1.384 . S
C368 H359 0.929 . S
C368 C360 1.378 . S
C368 C363 1.350 1_554 S
C369 H356 0.929 . S
C369 C361 1.433 . S
C369 N371 1.384 . S
N370 C366 1.427 . S
N370 C367 1.384 . S
N371 C363 1.427 1_554 S
N371 C369 1.384 . S
H372 C378 0.930 . S
H373 C382 0.930 . S
H374 C387 0.929 . S
H375 C385 0.929 . S
H376 C380 0.929 . S
H377 C386 0.929 . S
C378 H372 0.930 . S
C378 C379 1.369 . S
C378 C386 1.378 . S
C379 C378 1.369 . S
C379 C387 1.436 . S
C380 H376 0.929 . S
C380 C382 1.378 . S
C380 C384 1.350 . S
C381 C384 1.463 . S
C381 C386 1.350 . S
C381 N389 1.427 . S
C382 H373 0.930 . S
C382 C380 1.378 . S
C382 C383 1.367 . S
C383 C382 1.367 . S
C383 C385 1.433 . S
C384 C380 1.350 . S
C384 C381 1.463 . S
C384 N388 1.427 . S
C385 H375 0.929 . S
C385 C383 1.433 . S
C385 N388 1.384 . S
C386 H377 0.929 . S
C386 C378 1.378 . S
C386 C381 1.350 . S
C387 H374 0.929 . S
C387 C379 1.436 . S
C387 N389 1.384 . S
N388 C384 1.427 . S
N388 C385 1.384 . S
N389 C381 1.427 . S
N389 C387 1.384 . S
H390 C396 0.930 . S
H391 C400 0.930 . S
H392 C405 0.929 . S
H393 C403 0.929 . S
H394 C398 0.929 . S
H395 C404 0.929 . S
C396 H390 0.930 . S
C396 C397 1.367 . S
C396 C404 1.378 . S
C397 C396 1.367 . S
C397 C405 1.433 . S
C398 H394 0.929 . S
C398 C400 1.378 . S
C398 C402 1.350 . S
C399 C402 1.463 . S
C399 C404 1.350 . S
C399 N407 1.427 . S
C400 H391 0.930 . S
C400 C398 1.378 . S
C400 C401 1.367 . S
C401 C400 1.367 . S
C401 C403 1.433 . S
C402 C398 1.350 . S
C402 C399 1.463 . S
C402 N406 1.427 . S
C403 H393 0.929 . S
C403 C401 1.433 . S
C403 N406 1.384 . S
C404 H395 0.929 . S
C404 C396 1.378 . S
C404 C399 1.350 . S
C405 H392 0.929 . S
C405 C397 1.433 . S
C405 N407 1.384 . S
N406 C402 1.427 . S
N406 C403 1.384 . S
N407 C399 1.427 . S
N407 C405 1.384 . S
H408 C414 0.930 . S
H409 C418 0.930 . S
H410 C423 0.929 . S
H411 C421 0.929 . S
H412 C416 0.929 . S
H413 C422 0.929 . S
C414 H408 0.930 . S
C414 C415 1.369 . S
C414 C422 1.378 . S
C415 C414 1.369 . S
C415 C423 1.436 . S
C416 H412 0.929 . S
C416 C418 1.378 . S
C416 C420 1.350 . S
C417 C420 1.463 . S
C417 C422 1.350 . S
C417 N425 1.427 . S
C418 H409 0.930 . S
C418 C416 1.378 . S
C418 C419 1.367 . S
C419 C418 1.367 . S
C419 C421 1.433 . S
C420 C416 1.350 . S
C420 C417 1.463 . S
C420 N424 1.427 . S
C421 H411 0.929 . S
C421 C419 1.433 . S
C421 N424 1.384 . S
C422 H413 0.929 . S
C422 C414 1.378 . S
C422 C417 1.350 . S
C423 H410 0.929 . S
C423 C415 1.436 . S
C423 N425 1.384 . S
N424 C420 1.427 . S
N424 C421 1.384 . S
N425 C417 1.427 . S
N425 C423 1.384 . S
H426 C432 0.930 . S
H427 C436 0.930 . S
H428 C441 0.929 . S
H429 C439 0.929 . S
H430 C434 0.929 1_554 S
H431 C440 0.929 . S
C432 H426 0.930 . S
C432 C433 1.367 . S
C432 C440 1.378 . S
C433 C432 1.367 . S
C433 C441 1.433 . S
C434 H430 0.929 1_556 S
C434 C436 1.378 . S
C434 C438 1.350 1_556 S
C435 C438 1.463 . S
C435 C440 1.350 . S
C435 N443 1.427 . S
C436 H427 0.930 . S
C436 C434 1.378 . S
C436 C437 1.367 . S
C437 C436 1.367 . S
C437 C439 1.433 . S
C438 C434 1.350 1_554 S
C438 C435 1.463 . S
C438 N442 1.427 1_554 S
C439 H429 0.929 . S
C439 C437 1.433 . S
C439 N442 1.384 . S
C440 H431 0.929 . S
C440 C432 1.378 . S
C440 C435 1.350 . S
C441 H428 0.929 . S
C441 C433 1.433 . S
C441 N443 1.384 . S
N442 C438 1.427 1_556 S
N442 C439 1.384 . S
N443 C435 1.427 . S
N443 C441 1.384 . S
H444 C450 0.930 . S
H445 C454 0.930 . S
H446 C459 0.929 . S
H447 C457 0.929 . S
H448 C452 0.929 . S
H449 C458 0.929 . S
C450 H444 0.930 . S
C450 C451 1.367 . S
C450 C458 1.378 . S
C451 C450 1.367 . S
C451 C459 1.433 . S
C452 H448 0.929 . S
C452 C454 1.378 . S
C452 C456 1.350 . S
C453 C456 1.463 . S
C453 C458 1.350 . S
C453 N461 1.427 . S
C454 H445 0.930 . S
C454 C452 1.378 . S
C454 C455 1.367 . S
C455 C454 1.367 . S
C455 C457 1.433 . S
C456 C452 1.350 . S
C456 C453 1.463 . S
C456 N460 1.427 . S
C457 H447 0.929 . S
C457 C455 1.433 . S
C457 N460 1.384 . S
C458 H449 0.929 . S
C458 C450 1.378 . S
C458 C453 1.350 . S
C459 H446 0.929 . S
C459 C451 1.433 . S
C459 N461 1.384 . S
N460 C456 1.427 . S
N460 C457 1.384 . S
N461 C453 1.427 . S
N461 C459 1.384 . S
H462 C468 0.930 . S
H463 C472 0.930 . S
H464 C477 0.929 . S
H465 C475 0.929 . S
H466 C470 0.929 . S
H467 C476 0.929 . S
C468 H462 0.930 . S
C468 C469 1.367 . S
C468 C476 1.378 . S
C469 C468 1.367 . S
C469 C477 1.433 . S
C470 H466 0.929 . S
C470 C472 1.378 . S
C470 C474 1.350 . S
C471 C474 1.463 . S
C471 C476 1.350 . S
C471 N479 1.427 . S
C472 H463 0.930 . S
C472 C470 1.378 . S
C472 C473 1.367 . S
C473 C472 1.367 . S
C473 C475 1.433 . S
C474 C470 1.350 . S
C474 C471 1.463 . S
C474 N478 1.427 . S
C475 H465 0.929 . S
C475 C473 1.433 . S
C475 N478 1.384 . S
C476 H467 0.929 . S
C476 C468 1.378 . S
C476 C471 1.350 . S
C477 H464 0.929 . S
C477 C469 1.433 . S
C477 N479 1.384 . S
N478 C474 1.427 . S
N478 C475 1.384 . S
N479 C471 1.427 . S
N479 C477 1.384 . S
H480 C486 0.930 . S
H481 C490 0.930 . S
H482 C495 0.929 . S
H483 C493 0.929 . S
H484 C488 0.929 . S
H485 C494 0.929 . S
C486 H480 0.930 . S
C486 C487 1.367 . S
C486 C494 1.378 1_554 S
C487 C486 1.367 . S
C487 C495 1.433 . S
C488 H484 0.929 . S
C488 C490 1.378 1_554 S
C488 C492 1.350 1_554 S
C489 C492 1.463 1_454 S
C489 C494 1.350 1_554 S
C489 N497 1.427 . S
C490 H481 0.930 . S
C490 C488 1.378 1_556 S
C490 C491 1.367 . S
C491 C490 1.367 . S
C491 C493 1.433 . S
C492 C488 1.350 1_556 S
C492 C489 1.463 1_656 S
C492 N496 1.427 . S
C493 H483 0.929 . S
C493 C491 1.433 . S
C493 N496 1.384 . S
C494 H485 0.929 . S
C494 C486 1.378 1_556 S
C494 C489 1.350 1_556 S
C495 H482 0.929 . S
C495 C487 1.433 . S
C495 N497 1.384 . S
N496 C492 1.427 . S
N496 C493 1.384 . S
N497 C489 1.427 . S
N497 C495 1.384 . S
H498 C504 0.930 . S
H499 C508 0.930 . S
H500 C513 0.929 . S
H501 C511 0.929 . S
H502 C506 0.929 1_565 S
H503 C512 0.929 1_545 S
C504 H498 0.930 . S
C504 C505 1.367 . S
C504 C512 1.378 . S
C505 C504 1.367 . S
C505 C513 1.433 . S
C506 H502 0.929 1_545 S
C506 C508 1.378 . S
C506 C510 1.350 . S
C507 C510 1.463 1_565 S
C507 C512 1.350 . S
C507 N515 1.427 . S
C508 H499 0.930 . S
C508 C506 1.378 . S
C508 C509 1.367 . S
C509 C508 1.367 . S
C509 C511 1.433 . S
C510 C506 1.350 . S
C510 C507 1.463 1_545 S
C510 N514 1.427 . S
C511 H501 0.929 . S
C511 C509 1.433 . S
C511 N514 1.384 . S
C512 H503 0.929 1_565 S
C512 C504 1.378 . S
C512 C507 1.350 . S
C513 H500 0.929 . S
C513 C505 1.433 . S
C513 N515 1.384 . S
N514 C510 1.427 . S
N514 C511 1.384 . S
N515 C507 1.427 . S
N515 C513 1.384 . S
H516 C522 0.930 . S
H517 C526 0.930 . S
H518 C531 0.929 . S
H519 C529 0.929 . S
H520 C524 0.929 . S
H521 C530 0.929 . S
C522 H516 0.930 . S
C522 C523 1.367 . S
C522 C530 1.378 . S
C523 C522 1.367 . S
C523 C531 1.433 . S
C524 H520 0.929 . S
C524 C526 1.378 . S
C524 C528 1.350 . S
C525 C528 1.463 1_455 S
C525 C530 1.350 . S
C525 N533 1.427 . S
C526 H517 0.930 . S
C526 C524 1.378 . S
C526 C527 1.367 . S
C527 C526 1.367 . S
C527 C529 1.433 . S
C528 C524 1.350 . S
C528 C525 1.463 1_655 S
C528 N532 1.427 . S
C529 H519 0.929 . S
C529 C527 1.433 . S
C529 N532 1.384 . S
C530 H521 0.929 . S
C530 C522 1.378 . S
C530 C525 1.350 . S
C531 H518 0.929 . S
C531 C523 1.433 . S
C531 N533 1.384 . S
N532 C528 1.427 . S
N532 C529 1.384 . S
N533 C525 1.427 . S
N533 C531 1.384 . S
H534 C540 0.930 . S
H535 C544 0.930 . S
H536 C549 0.929 . S
H537 C547 0.929 . S
H538 C542 0.929 . S
H539 C548 0.929 . S
C540 H534 0.930 . S
C540 C541 1.367 . S
C540 C548 1.378 . S
C541 C540 1.367 . S
C541 C549 1.433 . S
C542 H538 0.929 . S
C542 C544 1.378 . S
C542 C546 1.350 . S
C543 C546 1.463 1_565 S
C543 C548 1.350 . S
C543 N551 1.427 . S
C544 H535 0.930 . S
C544 C542 1.378 . S
C544 C545 1.367 . S
C545 C544 1.367 . S
C545 C547 1.433 . S
C546 C542 1.350 . S
C546 C543 1.463 1_545 S
C546 N550 1.427 . S
C547 H537 0.929 . S
C547 C545 1.433 . S
C547 N550 1.384 . S
C548 H539 0.929 . S
C548 C540 1.378 . S
C548 C543 1.350 . S
C549 H536 0.929 . S
C549 C541 1.433 . S
C549 N551 1.384 . S
N550 C546 1.427 . S
N550 C547 1.384 . S
N551 C543 1.427 . S
N551 C549 1.384 . S
H552 C558 0.930 . S
H553 C562 0.930 . S
H554 C567 0.929 . S
H555 C565 0.929 . S
H556 C560 0.929 . S
H557 C566 0.929 . S
C558 H552 0.930 . S
C558 C559 1.367 . S
C558 C566 1.378 . S
C559 C558 1.367 . S
C559 C567 1.433 . S
C560 H556 0.929 . S
C560 C562 1.378 . S
C560 C564 1.350 . S
C561 C564 1.463 . S
C561 C566 1.350 . S
C561 N569 1.427 . S
C562 H553 0.930 . S
C562 C560 1.378 . S
C562 C563 1.367 . S
C563 C562 1.367 . S
C563 C565 1.433 . S
C564 C560 1.350 . S
C564 C561 1.463 . S
C564 N568 1.427 . S
C565 H555 0.929 . S
C565 C563 1.433 . S
C565 N568 1.384 . S
C566 H557 0.929 . S
C566 C558 1.378 . S
C566 C561 1.350 . S
C567 H554 0.929 . S
C567 C559 1.433 . S
C567 N569 1.384 . S
N568 C564 1.427 . S
N568 C565 1.384 . S
N569 C561 1.427 . S
N569 C567 1.384 . S
H570 C576 0.930 . S
H571 C580 0.930 . S
H572 C585 0.929 . S
H573 C583 0.929 . S
H574 C578 0.929 . S
H575 C584 0.929 . S
C576 H570 0.930 . S
C576 C577 1.367 . S
C576 C584 1.378 . S
C577 C576 1.367 . S
C577 C585 1.433 . S
C578 H574 0.929 . S
C578 C580 1.378 . S
C578 C582 1.350 . S
C579 C582 1.463 . S
C579 C584 1.350 . S
C579 N587 1.427 . S
C580 H571 0.930 . S
C580 C578 1.378 . S
C580 C581 1.367 . S
C581 C580 1.367 . S
C581 C583 1.433 . S
C582 C578 1.350 . S
C582 C579 1.463 . S
C582 N586 1.427 . S
C583 H573 0.929 . S
C583 C581 1.433 . S
C583 N586 1.384 . S
C584 H575 0.929 . S
C584 C576 1.378 . S
C584 C579 1.350 . S
C585 H572 0.929 . S
C585 C577 1.433 . S
C585 N587 1.384 . S
N586 C582 1.427 . S
N586 C583 1.384 . S
N587 C579 1.427 . S
N587 C585 1.384 . S
H588 C594 0.930 . S
H589 C598 0.930 . S
H590 C603 0.929 . S
H591 C601 0.929 . S
H592 C596 0.929 . S
H593 C602 0.929 . S
C594 H588 0.930 . S
C594 C595 1.367 . S
C594 C602 1.378 . S
C595 C594 1.367 . S
C595 C603 1.433 . S
C596 H592 0.929 . S
C596 C598 1.378 . S
C596 C600 1.350 . S
C597 C600 1.463 . S
C597 C602 1.350 . S
C597 N605 1.427 . S
C598 H589 0.930 . S
C598 C596 1.378 . S
C598 C599 1.367 . S
C599 C598 1.367 . S
C599 C601 1.433 . S
C600 C596 1.350 . S
C600 C597 1.463 . S
C600 N604 1.427 . S
C601 H591 0.929 . S
C601 C599 1.433 . S
C601 N604 1.384 . S
C602 H593 0.929 . S
C602 C594 1.378 . S
C602 C597 1.350 . S
C603 H590 0.929 . S
C603 C595 1.433 . S
C603 N605 1.384 . S
N604 C600 1.427 . S
N604 C601 1.384 . S
N605 C597 1.427 . S
N605 C603 1.384 . S
H606 C612 0.930 . S
H607 C616 0.930 . S
H608 C621 0.929 . S
H609 C619 0.929 . S
H610 C614 0.929 . S
H611 C620 0.929 . S
C612 H606 0.930 . S
C612 C613 1.367 1_556 S
C612 C620 1.378 . S
C613 C612 1.367 1_554 S
C613 C621 1.433 . S
C614 H610 0.929 . S
C614 C616 1.378 . S
C614 C618 1.350 1_554 S
C615 C618 1.463 1_554 S
C615 C620 1.350 1_554 S
C615 N623 1.427 . S
C616 H607 0.930 . S
C616 C614 1.378 . S
C616 C617 1.367 1_554 S
C617 C616 1.367 1_556 S
C617 C619 1.433 . S
C618 C614 1.350 1_556 S
C618 C615 1.463 1_556 S
C618 N622 1.427 . S
C619 H609 0.929 . S
C619 C617 1.433 . S
C619 N622 1.384 . S
C620 H611 0.929 . S
C620 C612 1.378 . S
C620 C615 1.350 1_556 S
C621 H608 0.929 . S
C621 C613 1.433 . S
C621 N623 1.384 . S
N622 C618 1.427 . S
N622 C619 1.384 . S
N623 C615 1.427 . S
N623 C621 1.384 . S
C271 C183 1.244 . S
C275 C18 1.244 . S
C289 C216 1.248 . S
C293 C51 1.248 . S
C307 C84 1.242 . S
C311 C249 1.242 1_556 S
C325 C150 1.246 . S
C329 C117 1.246 1_554 S
C343 N13 1.112 . S
C347 N2 1.111 . S
C361 N35 1.120 . S
C365 N46 1.120 . S
C379 N79 1.115 1_554 S
C383 N68 1.120 . S
C397 N112 1.113 . S
C401 N101 1.112 . S
C415 N145 1.115 1_556 S
C419 N134 1.120 . S
C433 N178 1.117 . S
C437 N167 1.116 . S
C451 N211 1.121 . S
C455 N200 1.120 . S
C469 N233 1.112 . S
C473 N244 1.113 . S
C487 C7 1.395 . S
C491 C205 1.401 . S
C505 C238 1.410 . S
C509 C40 1.410 . S
C523 C139 1.396 . S
C527 C73 1.405 . S
C541 C106 1.405 . S
C545 C172 1.396 . S
C559 C21 1.549 . S
C563 C153 1.546 . S
C577 C54 1.552 . S
C581 C186 1.547 . S
C595 C87 1.550 . S
C599 C219 1.546 . S
C613 C252 1.546 . S
C617 C120 1.549 . S
