# Generated by pormake.
# Topology npo, (4)-cn, num edge types: 1
# Building blocks:
#     Node 0, Type 0, BuildingBlock: CEKHIL_clean_sbu_0, # of connection points: 4
#     Node 1, Type 0, BuildingBlock: CEKHIL_clean_sbu_0, # of connection points: 4
#     Node 2, Type 0, BuildingBlock: CEKHIL_clean_sbu_0, # of connection points: 4
#     Node 3, Type 0, BuildingBlock: CEKHIL_clean_sbu_0, # of connection points: 4
#     Node 4, Type 0, BuildingBlock: CEKHIL_clean_sbu_0, # of connection points: 4
#     Node 5, Type 0, BuildingBlock: CEKHIL_clean_sbu_0, # of connection points: 4
#     Edge 6, Type (0, 0), BuildingBlock: FUNLAD_clean_linker_0, # of connection points: 2
#     Edge 7, Type (0, 0), BuildingBlock: FUNLAD_clean_linker_0, # of connection points: 2
#     Edge 8, Type (0, 0), BuildingBlock: FUNLAD_clean_linker_0, # of connection points: 2
#     Edge 9, Type (0, 0), BuildingBlock: FUNLAD_clean_linker_0, # of connection points: 2
#     Edge 10, Type (0, 0), BuildingBlock: FUNLAD_clean_linker_0, # of connection points: 2
#     Edge 11, Type (0, 0), BuildingBlock: FUNLAD_clean_linker_0, # of connection points: 2
#     Edge 12, Type (0, 0), BuildingBlock: FUNLAD_clean_linker_0, # of connection points: 2
#     Edge 13, Type (0, 0), BuildingBlock: FUNLAD_clean_linker_0, # of connection points: 2
#     Edge 14, Type (0, 0), BuildingBlock: FUNLAD_clean_linker_0, # of connection points: 2
#     Edge 15, Type (0, 0), BuildingBlock: FUNLAD_clean_linker_0, # of connection points: 2
#     Edge 16, Type (0, 0), BuildingBlock: FUNLAD_clean_linker_0, # of connection points: 2
#     Edge 17, Type (0, 0), BuildingBlock: FUNLAD_clean_linker_0, # of connection points: 2
# Relax obj value: 0.296
# Max RMSD: 0.248
# Mean RMSD: 0.243
data_MOF--net-npo--node1-CEKHIL_clean_sbu_0--edge1-FUNLAD_clean_linker_0
_symmetry_space_group_name_H-M    P1
_symmetry_Int_Tables_number       1
_symmetry_cell_setting            triclinic
loop_
_symmetry_equiv_pos_as_xyz
'x, y, z'
_cell_length_a     51.738821
_cell_length_b     51.07166
_cell_length_c     27.402878
_cell_angle_alpha  91.131398
_cell_angle_beta   89.931095
_cell_angle_gamma 120.47257
loop_
_atom_site_label
_atom_site_type_symbol
_atom_site_fract_x
_atom_site_fract_y
_atom_site_fract_z
_atom_type_partial_charge
Co0 Co 0.53666 0.09564 0.26096 0.0
O1 O 0.50265 0.05921 0.28464 0.0
O2 O 0.54995 0.0773 0.30749 0.0
C3 C 0.51705 0.12591 0.26826 0.0
O4 O 0.57723 0.13273 0.24793 0.0
Co5 Co 0.5345 0.12832 0.16789 0.0
O6 O 0.57137 0.16312 0.19663 0.0
C7 C 0.54346 0.07554 0.1591 0.0
C8 C 0.52179 0.05707 0.31253 0.0
C9 C 0.587 0.15835 0.22712 0.0
O10 O 0.54227 0.07254 0.20568 0.0
O11 O 0.53987 0.09546 0.13738 0.0
O12 O 0.52817 0.12008 0.30618 0.0
O13 O 0.51504 0.11067 0.22882 0.0
Co14 Co 0.43996 0.55363 0.74141 0.0
O15 O 0.47301 0.55493 0.70697 0.0
O16 O 0.42643 0.51576 0.70666 0.0
C17 C 0.44823 0.59918 0.71859 0.0
O18 O 0.39958 0.54436 0.76842 0.0
Co19 Co 0.44887 0.60035 0.82392 0.0
O20 O 0.40541 0.5842 0.81375 0.0
C21 C 0.45699 0.5485 0.84571 0.0
C22 C 0.45362 0.52795 0.69027 0.0
C23 C 0.38885 0.55883 0.79167 0.0
O24 O 0.4494 0.53772 0.80179 0.0
O25 O 0.45947 0.5736 0.86048 0.0
O26 O 0.43447 0.57576 0.68919 0.0
O27 O 0.45919 0.59502 0.75803 0.0
Co28 Co 0.87563 0.43105 0.25334 0.0
O29 O 0.90703 0.42503 0.2776 0.0
O30 O 0.90193 0.46466 0.29585 0.0
C31 C 0.83756 0.38424 0.26869 0.0
O32 O 0.8452 0.44408 0.2386 0.0
Co33 Co 0.83543 0.39311 0.16485 0.0
O34 O 0.81043 0.41036 0.18569 0.0
C35 C 0.89624 0.44503 0.14784 0.0
C36 C 0.91602 0.44998 0.30291 0.0
C37 C 0.82015 0.43309 0.21513 0.0
O38 O 0.90013 0.45204 0.19377 0.0
O39 O 0.87292 0.42169 0.12995 0.0
O40 O 0.84878 0.4048 0.30331 0.0
O41 O 0.85157 0.39156 0.22766 0.0
Co42 Co 0.42789 0.8819 0.74612 0.0
O43 O 0.43176 0.91889 0.72171 0.0
O44 O 0.46049 0.89972 0.70132 0.0
C45 C 0.37789 0.8528 0.73754 0.0
O46 O 0.43048 0.84449 0.75927 0.0
Co47 Co 0.39164 0.8484 0.83756 0.0
O48 O 0.39421 0.81355 0.81001 0.0
C49 C 0.4527 0.90226 0.8489 0.0
C50 C 0.45362 0.92064 0.69567 0.0
C51 C 0.41488 0.81876 0.77974 0.0
O52 O 0.45586 0.90445 0.80233 0.0
O53 O 0.4285 0.88259 0.86951 0.0
O54 O 0.39517 0.85807 0.70007 0.0
O55 O 0.39105 0.86745 0.77736 0.0
Co56 Co 0.54033 0.41736 0.23735 0.0
O57 O 0.50879 0.41471 0.19679 0.0
O58 O 0.55612 0.45227 0.19612 0.0
C59 C 0.52851 0.36907 0.22347 0.0
O60 O 0.5794 0.42741 0.27088 0.0
Co61 Co 0.52808 0.37719 0.32779 0.0
O62 O 0.57191 0.39291 0.32707 0.0
C63 C 0.51561 0.42763 0.3303 0.0
C64 C 0.52919 0.43984 0.1777 0.0
C65 C 0.5893 0.41585 0.30177 0.0
O66 O 0.53051 0.43857 0.29087 0.0
O67 O 0.50958 0.402 0.34738 0.0
O68 O 0.54499 0.38984 0.19252 0.0
O69 O 0.51853 0.37766 0.25975 0.0
Co70 Co 0.10914 0.55412 0.75356 0.0
O71 O 0.0801 0.56018 0.78847 0.0
O72 O 0.09199 0.52526 0.80499 0.0
C73 C 0.1451 0.60345 0.75208 0.0
O74 O 0.13876 0.54174 0.72959 0.0
Co75 Co 0.13484 0.58162 0.65226 0.0
O76 O 0.16484 0.56948 0.66576 0.0
C77 C 0.07377 0.52809 0.65961 0.0
C78 C 0.07678 0.53835 0.81627 0.0
C79 C 0.16028 0.5505 0.69888 0.0
O80 O 0.07724 0.52544 0.70542 0.0
O81 O 0.09308 0.54969 0.63358 0.0
O82 O 0.14153 0.5877 0.79082 0.0
O83 O 0.12571 0.58967 0.71744 0.0
C84 C 0.50129 0.1585 0.22658 0.0
C85 C 0.51582 0.154 0.26597 0.0
C86 C 0.50395 0.18678 0.22001 0.0
C87 C 0.52145 0.2111 0.25257 0.0
C88 C 0.53542 0.20639 0.29249 0.0
C89 C 0.53235 0.17797 0.29951 0.0
C90 C 0.52681 0.24196 0.24439 0.0
C91 C 0.50606 0.24699 0.22451 0.0
C92 C 0.51143 0.27807 0.22027 0.0
C93 C 0.48941 0.28433 0.23634 0.0
C94 C 0.495 0.31405 0.23675 0.0
C95 C 0.5223 0.33774 0.21947 0.0
H96 H 0.5557 0.29712 0.18879 0.0
C97 C 0.54381 0.3313 0.20102 0.0
C98 C 0.53856 0.30164 0.20197 0.0
H99 H 0.56502 0.34931 0.18762 0.0
H100 H 0.48865 0.14042 0.19998 0.0
H101 H 0.49336 0.18987 0.18835 0.0
H102 H 0.54908 0.22486 0.31793 0.0
H103 H 0.54412 0.17524 0.32985 0.0
H104 H 0.54781 0.26115 0.25785 0.0
H105 H 0.48377 0.22808 0.21586 0.0
H106 H 0.46833 0.26642 0.25035 0.0
H107 H 0.47804 0.31857 0.25087 0.0
C108 C 0.33791 0.52489 0.7546 0.0
C109 C 0.35608 0.54649 0.79054 0.0
C110 C 0.30774 0.51638 0.74946 0.0
C111 C 0.2952 0.52922 0.7804 0.0
C112 C 0.31281 0.54913 0.81835 0.0
C113 C 0.343 0.55792 0.82314 0.0
C114 C 0.26463 0.52411 0.77239 0.0
C115 C 0.2527 0.52074 0.72742 0.0
C116 C 0.22635 0.52421 0.71822 0.0
C117 C 0.22522 0.53778 0.67489 0.0
C118 C 0.20314 0.54541 0.6678 0.0
C119 C 0.18143 0.53919 0.70368 0.0
H120 H 0.20327 0.50489 0.78595 0.0
C121 C 0.18135 0.52366 0.74559 0.0
C122 C 0.2036 0.51626 0.75283 0.0
H123 H 0.16474 0.51817 0.7737 0.0
H124 H 0.34725 0.51548 0.72912 0.0
H125 H 0.2945 0.50027 0.72069 0.0
H126 H 0.30358 0.5591 0.84297 0.0
H127 H 0.35629 0.57431 0.8516 0.0
H128 H 0.25383 0.52792 0.80352 0.0
H129 H 0.26505 0.52004 0.69581 0.0
H130 H 0.2423 0.54383 0.64741 0.0
H131 H 0.20363 0.55695 0.63477 0.0
C132 C 0.62637 0.21325 0.23043 0.0
C133 C 0.61796 0.18281 0.23757 0.0
C134 C 0.65588 0.23638 0.23911 0.0
C135 C 0.67754 0.2294 0.25472 0.0
C136 C 0.66915 0.19901 0.26179 0.0
C137 C 0.63951 0.1759 0.25391 0.0
C138 C 0.70936 0.25327 0.26043 0.0
C139 C 0.7178 0.28158 0.27614 0.0
C140 C 0.74943 0.3064 0.27641 0.0
C141 C 0.75917 0.32996 0.31146 0.0
C142 C 0.78834 0.3548 0.31018 0.0
C143 C 0.80794 0.35675 0.27305 0.0
H144 H 0.76219 0.29063 0.21155 0.0
C145 C 0.79828 0.33309 0.23818 0.0
C146 C 0.76931 0.30805 0.23992 0.0
H147 H 0.81294 0.33419 0.20902 0.0
H148 H 0.61017 0.2192 0.21799 0.0
H149 H 0.66186 0.25957 0.23215 0.0
H150 H 0.68558 0.19315 0.27333 0.0
H151 H 0.63365 0.15259 0.25945 0.0
H152 H 0.72622 0.24722 0.25189 0.0
H153 H 0.70108 0.28679 0.28948 0.0
H154 H 0.7441 0.32927 0.33957 0.0
H155 H 0.79517 0.37292 0.33725 0.0
C156 C 0.40118 0.76417 0.77677 0.0
C157 C 0.422 0.79482 0.76814 0.0
C158 C 0.40807 0.74169 0.76482 0.0
C159 C 0.436 0.7496 0.74435 0.0
C160 C 0.45687 0.78022 0.73634 0.0
C161 C 0.44986 0.8026 0.74762 0.0
C162 C 0.44481 0.72671 0.73416 0.0
C163 C 0.42501 0.6978 0.72103 0.0
C164 C 0.43358 0.67429 0.71625 0.0
C165 C 0.41688 0.649 0.68515 0.0
C166 C 0.42275 0.62514 0.6836 0.0
C167 C 0.44507 0.62604 0.7139 0.0
H168 H 0.4694 0.69427 0.77076 0.0
C169 C 0.46227 0.65166 0.74406 0.0
C170 C 0.45661 0.67556 0.74529 0.0
H171 H 0.47947 0.6528 0.76803 0.0
H172 H 0.37955 0.75753 0.79251 0.0
H173 H 0.39182 0.71831 0.77275 0.0
H174 H 0.47865 0.78685 0.72119 0.0
H175 H 0.46647 0.82607 0.74081 0.0
H176 H 0.46853 0.73419 0.73675 0.0
H177 H 0.40182 0.69107 0.71346 0.0
H178 H 0.39887 0.64742 0.66277 0.0
H179 H 0.40893 0.60545 0.66039 0.0
C180 C 0.64193 0.4537 0.27769 0.0
C181 C 0.62217 0.42887 0.30607 0.0
C182 C 0.67255 0.46367 0.27712 0.0
C183 C 0.68405 0.44885 0.30472 0.0
C184 C 0.66472 0.42555 0.33574 0.0
C185 C 0.63408 0.41555 0.3363 0.0
C186 C 0.71527 0.45523 0.29909 0.0
C187 C 0.72987 0.46387 0.25637 0.0
C188 C 0.75636 0.46094 0.24536 0.0
C189 C 0.75895 0.45158 0.19806 0.0
C190 C 0.78064 0.44382 0.18772 0.0
C191 C 0.8007 0.446 0.22423 0.0
H192 H 0.77659 0.47284 0.31777 0.0
C193 C 0.79972 0.45768 0.27062 0.0
C194 C 0.77756 0.46492 0.28126 0.0
H195 H 0.81499 0.45965 0.29939 0.0
H196 H 0.63367 0.46494 0.25467 0.0
H197 H 0.68697 0.48248 0.25417 0.0
H198 H 0.67306 0.41398 0.35781 0.0
H199 H 0.61963 0.39664 0.35911 0.0
H200 H 0.72439 0.44797 0.32808 0.0
H201 H 0.7194 0.46827 0.22575 0.0
H202 H 0.74306 0.4486 0.16965 0.0
H203 H 0.78111 0.4352 0.15149 0.0
C204 C 0.33637 0.80454 0.70069 0.0
C205 C 0.34715 0.8265 0.73858 0.0
C206 C 0.30901 0.77749 0.70528 0.0
C207 C 0.29175 0.7721 0.74773 0.0
C208 C 0.30213 0.79464 0.78468 0.0
C209 C 0.32949 0.82158 0.78016 0.0
C210 C 0.26411 0.7426 0.7566 0.0
C211 C 0.24805 0.72222 0.72104 0.0
C212 C 0.22146 0.69215 0.73089 0.0
C213 C 0.19966 0.67769 0.69409 0.0
C214 C 0.17471 0.64902 0.70134 0.0
C215 C 0.17123 0.63404 0.74545 0.0
H216 H 0.23491 0.68707 0.8037 0.0
C217 C 0.1931 0.64832 0.78227 0.0
C218 C 0.21807 0.6771 0.77506 0.0
H219 H 0.19111 0.63716 0.81644 0.0
H220 H 0.34968 0.80761 0.66845 0.0
H221 H 0.30232 0.76049 0.67639 0.0
H222 H 0.28937 0.7911 0.81777 0.0
H223 H 0.33725 0.83814 0.80998 0.0
H224 H 0.25653 0.7378 0.79407 0.0
H225 H 0.25373 0.72795 0.68309 0.0
H226 H 0.20188 0.68864 0.6596 0.0
H227 H 0.15825 0.63855 0.67217 0.0
C228 C 0.47773 0.91783 0.93061 0.0
C229 C 0.47797 0.92368 0.8807 0.0
C230 C 0.4997 0.93929 0.96208 0.0
C231 C 0.52253 0.96716 0.94428 0.0
C232 C 0.52369 0.9723 0.89396 0.0
C233 C 0.50174 0.95068 0.86232 0.0
C234 C 0.54157 -0.00695 0.9778 0.0
C235 C 0.54596 -0.01025 0.02523 0.0
C236 C 0.55203 0.01365 0.06262 0.0
C237 C 0.54057 0.00458 0.10973 0.0
C238 C 0.53915 0.02512 0.1425 0.0
C239 C 0.54904 0.05497 0.1284 0.0
H240 H 0.57542 0.05276 0.01587 0.0
C241 C 0.56307 0.06477 0.08312 0.0
C242 C 0.56494 0.04444 0.05075 0.0
H243 H 0.57187 0.08803 0.07209 0.0
H244 H 0.45992 0.89708 0.94587 0.0
H245 H 0.49734 0.93456 0.00063 0.0
H246 H 0.54085 -0.0063 0.87937 0.0
H247 H 0.50265 0.95578 0.82396 0.0
H248 H 0.54824 0.01535 0.96406 0.0
H249 H 0.53976 0.9674 0.03832 0.0
H250 H 0.53082 0.98108 0.12007 0.0
H251 H 0.52866 0.01714 0.17757 0.0
C252 C 0.47927 0.43051 0.38563 0.0
C253 C 0.50634 0.44563 0.36016 0.0
C254 C 0.47295 0.4455 0.4225 0.0
C255 C 0.49398 0.47581 0.43548 0.0
C256 C 0.51983 0.49174 0.40704 0.0
C257 C 0.526 0.47674 0.3695 0.0
C258 C 0.49012 0.49067 0.47976 0.0
C259 C 0.47531 0.47471 0.51923 0.0
C260 C 0.47128 0.48856 0.56442 0.0
C261 C 0.44584 0.47106 0.59285 0.0
C262 C 0.44061 0.48348 0.6349 0.0
C263 C 0.46106 0.5135 0.64984 0.0
H264 H 0.51269 0.53205 0.56016 0.0
C265 C 0.48728 0.53058 0.62273 0.0
C266 C 0.49233 0.51827 0.58028 0.0
H267 H 0.50348 0.55381 0.63341 0.0
H268 H 0.46347 0.40663 0.37834 0.0
H269 H 0.45198 0.43293 0.44167 0.0
H270 H 0.53608 0.51531 0.41566 0.0
H271 H 0.54703 0.48886 0.35024 0.0
H272 H 0.50078 0.51527 0.48048 0.0
H273 H 0.46503 0.45015 0.51855 0.0
H274 H 0.42951 0.44795 0.58174 0.0
H275 H 0.42024 0.46976 0.65511 0.0
C276 C 0.04346 0.54588 0.8741 0.0
C277 C 0.0582 0.53015 0.86061 0.0
C278 C 0.02709 0.53907 0.91731 0.0
C279 C 0.02498 0.51619 0.94778 0.0
C280 C 0.04006 0.50079 0.93452 0.0
C281 C 0.05638 0.50757 0.89132 0.0
C282 C 0.00701 0.50743 0.9932 0.0
C283 C 0.98287 0.51052 -0.00075 0.0
C284 C 0.96173 0.49657 0.04011 0.0
C285 C 0.9311 0.48448 0.03071 0.0
C286 C 0.91004 0.46846 0.06641 0.0
C287 C 0.91918 0.46484 0.11278 0.0
H288 H -0.00529 0.50384 0.0958 0.0
C289 C 0.94994 0.47852 0.12345 0.0
C290 C 0.97113 0.49408 0.08717 0.0
H291 H 0.95751 0.47612 0.15904 0.0
H292 H 0.04484 0.56373 0.85157 0.0
H293 H 0.01655 0.55209 0.92692 0.0
H294 H 0.03894 0.48317 0.95738 0.0
H295 H 0.06774 0.49524 0.88221 0.0
H296 H 0.01195 0.49519 0.02014 0.0
H297 H 0.97605 0.52 0.97027 0.0
H298 H 0.92333 0.48635 0.99495 0.0
H299 H 0.88645 0.45846 0.05744 0.0
C300 C 0.53302 0.03392 0.38264 0.0
C301 C 0.51182 0.03543 0.35276 0.0
C302 C 0.5242 0.0176 0.4257 0.0
C303 C 0.49396 0.00272 0.43999 0.0
C304 C 0.47256 0.00257 0.40833 0.0
C305 C 0.48137 0.01879 0.36514 0.0
C306 C 0.48379 0.98766 0.48769 0.0
C307 C 0.5022 -0.00679 0.52614 0.0
C308 C 0.49091 0.97761 0.57284 0.0
C309 C 0.50757 0.96725 0.59765 0.0
C310 C 0.496 0.94978 0.63918 0.0
C311 C 0.46796 0.94316 0.65728 0.0
H312 H 0.4507 0.98088 0.57461 0.0
C313 C 0.45228 0.95541 0.63454 0.0
C314 C 0.46357 0.97235 0.59236 0.0
H315 H 0.43061 0.95062 0.64782 0.0
H316 H 0.55662 0.04618 0.37363 0.0
H317 H 0.54131 0.0172 0.4477 0.0
H318 H 0.44905 -0.00914 0.41794 0.0
H319 H 0.46448 0.01941 0.34269 0.0
H320 H 0.4599 0.97188 0.49172 0.0
H321 H 0.5262 0.0084 0.52333 0.0
H322 H 0.52889 0.97145 0.58356 0.0
H323 H 0.50859 0.94072 0.65632 0.0
C324 C 0.47635 0.5147 0.87215 0.0
C325 C 0.46129 0.53051 0.88269 0.0
C326 C 0.48177 0.49951 0.90925 0.0
C327 C 0.47148 0.49941 0.95689 0.0
C328 C 0.45539 0.51417 0.96659 0.0
C329 C 0.45072 0.52992 0.9301 0.0
C330 C 0.47688 0.48414 -0.00248 0.0
C331 C 0.50301 0.4849 0.00396 0.0
C332 C 0.50939 0.47302 0.04853 0.0
C333 C 0.53887 0.48699 0.06679 0.0
C334 C 0.5453 0.4768 0.10957 0.0
C335 C 0.52236 0.45217 0.13448 0.0
H336 H 0.46367 0.4363 0.05949 0.0
C337 C 0.49294 0.43796 0.11582 0.0
C338 C 0.48651 0.4482 0.07327 0.0
H339 H 0.47484 0.41863 0.13376 0.0
H340 H 0.48459 0.51479 0.83575 0.0
H341 H 0.49375 0.48775 0.90068 0.0
H342 H 0.44705 0.51416 0.00289 0.0
H343 H 0.43871 0.54163 0.93898 0.0
H344 H 0.46003 0.47503 0.02585 0.0
H345 H 0.52108 0.49694 0.97824 0.0
H346 H 0.55691 0.50605 0.04823 0.0
H347 H 0.56827 0.48797 0.12275 0.0
C348 C 0.04794 0.48722 0.59768 0.0
C349 C 0.04622 0.50585 0.63417 0.0
C350 C 0.02585 0.47398 0.56137 0.0
C351 C 0.00209 0.47992 0.56039 0.0
C352 C -0.00114 0.496 0.59987 0.0
C353 C 0.0209 0.50904 0.63647 0.0
C354 C 0.9821 0.47235 0.51707 0.0
C355 C -0.0094 0.46979 0.47151 0.0
C356 C 0.97244 0.46628 0.42752 0.0
C357 C 0.97303 0.44904 0.38753 0.0
C358 C 0.95563 0.44477 0.34592 0.0
C359 C 0.93792 0.45835 0.34312 0.0
H360 H 0.95553 0.49515 0.45362 0.0
C361 C 0.9386 0.47698 0.38209 0.0
C362 C 0.95559 0.48081 0.42405 0.0
H363 H 0.92511 0.48767 0.381 0.0
H364 H 0.06747 0.48467 0.59529 0.0
H365 H 0.02838 0.46047 0.53296 0.0
H366 H 0.98053 0.5005 0.60043 0.0
H367 H 0.01948 0.52377 0.66401 0.0
H368 H 0.96083 0.47143 0.52229 0.0
H369 H 0.01171 0.47059 0.4655 0.0
H370 H 0.98628 0.4381 0.38906 0.0
H371 H 0.95554 0.4303 0.3164 0.0
loop_
_geom_bond_atom_site_label_1
_geom_bond_atom_site_label_2
_geom_bond_distance
_geom_bond_site_symmetry_2
_ccdc_geom_bond_type
Co0 O1 2.216 . S
Co0 O2 2.091 . S
Co0 O4 2.004 . S
Co0 O10 2.021 . S
Co0 O12 2.137 . S
Co0 O13 2.244 . S
O1 Co0 2.216 . S
O1 C8 1.247 . S
O2 Co0 2.091 . S
O2 C8 1.261 . S
C3 O12 1.247 . S
C3 O13 1.272 . S
O4 Co0 2.004 . S
O4 C9 1.259 . S
Co5 O6 2.061 . S
Co5 O11 2.052 . S
Co5 O13 2.135 . S
O6 Co5 2.061 . S
O6 C9 1.235 . S
C7 O10 1.238 . S
C7 O11 1.241 . S
C8 O1 1.247 . S
C8 O2 1.261 . S
C9 O4 1.259 . S
C9 O6 1.235 . S
O10 Co0 2.021 . S
O10 C7 1.238 . S
O11 Co5 2.052 . S
O11 C7 1.241 . S
O12 Co0 2.137 . S
O12 C3 1.247 . S
O13 Co0 2.244 . S
O13 C3 1.272 . S
O13 Co5 2.135 . S
Co14 O15 2.216 . S
Co14 O16 2.091 . S
Co14 O18 2.004 . S
Co14 O24 2.021 . S
Co14 O26 2.137 . S
Co14 O27 2.244 . S
O15 Co14 2.216 . S
O15 C22 1.247 . S
O16 Co14 2.091 . S
O16 C22 1.261 . S
C17 O26 1.247 . S
C17 O27 1.272 . S
O18 Co14 2.004 . S
O18 C23 1.259 . S
Co19 O20 2.061 . S
Co19 O25 2.052 . S
Co19 O27 2.135 . S
O20 Co19 2.061 . S
O20 C23 1.235 . S
C21 O24 1.238 . S
C21 O25 1.241 . S
C22 O15 1.247 . S
C22 O16 1.261 . S
C23 O18 1.259 . S
C23 O20 1.235 . S
O24 Co14 2.021 . S
O24 C21 1.238 . S
O25 Co19 2.052 . S
O25 C21 1.241 . S
O26 Co14 2.137 . S
O26 C17 1.247 . S
O27 Co14 2.244 . S
O27 C17 1.272 . S
O27 Co19 2.135 . S
Co28 O29 2.216 . S
Co28 O30 2.091 . S
Co28 O32 2.004 . S
Co28 O38 2.021 . S
Co28 O40 2.137 . S
Co28 O41 2.244 . S
O29 Co28 2.216 . S
O29 C36 1.247 . S
O30 Co28 2.091 . S
O30 C36 1.261 . S
C31 O40 1.247 . S
C31 O41 1.272 . S
O32 Co28 2.004 . S
O32 C37 1.259 . S
Co33 O34 2.061 . S
Co33 O39 2.052 . S
Co33 O41 2.135 . S
O34 Co33 2.061 . S
O34 C37 1.235 . S
C35 O38 1.238 . S
C35 O39 1.241 . S
C36 O29 1.247 . S
C36 O30 1.261 . S
C37 O32 1.259 . S
C37 O34 1.235 . S
O38 Co28 2.021 . S
O38 C35 1.238 . S
O39 Co33 2.052 . S
O39 C35 1.241 . S
O40 Co28 2.137 . S
O40 C31 1.247 . S
O41 Co28 2.244 . S
O41 C31 1.272 . S
O41 Co33 2.135 . S
Co42 O43 2.216 . S
Co42 O44 2.091 . S
Co42 O46 2.004 . S
Co42 O52 2.021 . S
Co42 O54 2.137 . S
Co42 O55 2.244 . S
O43 Co42 2.216 . S
O43 C50 1.247 . S
O44 Co42 2.091 . S
O44 C50 1.261 . S
C45 O54 1.247 . S
C45 O55 1.272 . S
O46 Co42 2.004 . S
O46 C51 1.259 . S
Co47 O48 2.061 . S
Co47 O53 2.052 . S
Co47 O55 2.135 . S
O48 Co47 2.061 . S
O48 C51 1.235 . S
C49 O52 1.238 . S
C49 O53 1.241 . S
C50 O43 1.247 . S
C50 O44 1.261 . S
C51 O46 1.259 . S
C51 O48 1.235 . S
O52 Co42 2.021 . S
O52 C49 1.238 . S
O53 Co47 2.052 . S
O53 C49 1.241 . S
O54 Co42 2.137 . S
O54 C45 1.247 . S
O55 Co42 2.244 . S
O55 C45 1.272 . S
O55 Co47 2.135 . S
Co56 O57 2.216 . S
Co56 O58 2.091 . S
Co56 O60 2.004 . S
Co56 O66 2.021 . S
Co56 O68 2.137 . S
Co56 O69 2.244 . S
O57 Co56 2.216 . S
O57 C64 1.247 . S
O58 Co56 2.091 . S
O58 C64 1.261 . S
C59 O68 1.247 . S
C59 O69 1.272 . S
O60 Co56 2.004 . S
O60 C65 1.259 . S
Co61 O62 2.061 . S
Co61 O67 2.052 . S
Co61 O69 2.135 . S
O62 Co61 2.061 . S
O62 C65 1.235 . S
C63 O66 1.238 . S
C63 O67 1.241 . S
C64 O57 1.247 . S
C64 O58 1.261 . S
C65 O60 1.259 . S
C65 O62 1.235 . S
O66 Co56 2.021 . S
O66 C63 1.238 . S
O67 Co61 2.052 . S
O67 C63 1.241 . S
O68 Co56 2.137 . S
O68 C59 1.247 . S
O69 Co56 2.244 . S
O69 C59 1.272 . S
O69 Co61 2.135 . S
Co70 O71 2.216 . S
Co70 O72 2.091 . S
Co70 O74 2.004 . S
Co70 O80 2.021 . S
Co70 O82 2.137 . S
Co70 O83 2.244 . S
O71 Co70 2.216 . S
O71 C78 1.247 . S
O72 Co70 2.091 . S
O72 C78 1.261 . S
C73 O82 1.247 . S
C73 O83 1.272 . S
O74 Co70 2.004 . S
O74 C79 1.259 . S
Co75 O76 2.061 . S
Co75 O81 2.052 . S
Co75 O83 2.135 . S
O76 Co75 2.061 . S
O76 C79 1.235 . S
C77 O80 1.238 . S
C77 O81 1.241 . S
C78 O71 1.247 . S
C78 O72 1.261 . S
C79 O74 1.259 . S
C79 O76 1.235 . S
O80 Co70 2.021 . S
O80 C77 1.238 . S
O81 Co75 2.052 . S
O81 C77 1.241 . S
O82 Co70 2.137 . S
O82 C73 1.247 . S
O83 Co70 2.244 . S
O83 C73 1.272 . S
O83 Co75 2.135 . S
C84 C85 1.386 . S
C84 C86 1.383 . S
C84 H100 0.951 . S
C85 C84 1.386 . S
C85 C89 1.383 . S
C86 C84 1.383 . S
C86 C87 1.402 . S
C86 H101 0.951 . S
C87 C86 1.402 . S
C87 C88 1.375 . S
C87 C90 1.481 . S
C88 C87 1.375 . S
C88 C89 1.367 . S
C88 H102 0.951 . S
C89 C85 1.383 . S
C89 C88 1.367 . S
C89 H103 0.950 . S
C90 C87 1.481 . S
C90 C91 1.297 . S
C90 H104 0.950 . S
C91 C90 1.297 . S
C91 C92 1.479 . S
C91 H105 0.950 . S
C92 C91 1.479 . S
C92 C93 1.375 . S
C92 C98 1.404 . S
C93 C92 1.375 . S
C93 C94 1.369 . S
C93 H106 0.950 . S
C94 C93 1.369 . S
C94 C95 1.392 . S
C94 H107 0.951 . S
C95 C94 1.392 . S
C95 C97 1.384 . S
H96 C98 0.949 . S
C97 C95 1.384 . S
C97 C98 1.385 . S
C97 H99 0.950 . S
C98 C92 1.404 . S
C98 H96 0.949 . S
C98 C97 1.385 . S
H99 C97 0.950 . S
H100 C84 0.951 . S
H101 C86 0.951 . S
H102 C88 0.951 . S
H103 C89 0.950 . S
H104 C90 0.950 . S
H105 C91 0.950 . S
H106 C93 0.950 . S
H107 C94 0.951 . S
C108 C109 1.386 . S
C108 C110 1.383 . S
C108 H124 0.951 . S
C109 C108 1.386 . S
C109 C113 1.383 . S
C110 C108 1.383 . S
C110 C111 1.402 . S
C110 H125 0.951 . S
C111 C110 1.402 . S
C111 C112 1.375 . S
C111 C114 1.481 . S
C112 C111 1.375 . S
C112 C113 1.367 . S
C112 H126 0.951 . S
C113 C109 1.383 . S
C113 C112 1.367 . S
C113 H127 0.950 . S
C114 C111 1.481 . S
C114 C115 1.297 . S
C114 H128 0.950 . S
C115 C114 1.297 . S
C115 C116 1.479 . S
C115 H129 0.950 . S
C116 C115 1.479 . S
C116 C117 1.375 . S
C116 C122 1.404 . S
C117 C116 1.375 . S
C117 C118 1.369 . S
C117 H130 0.950 . S
C118 C117 1.369 . S
C118 C119 1.392 . S
C118 H131 0.951 . S
C119 C118 1.392 . S
C119 C121 1.384 . S
H120 C122 0.949 . S
C121 C119 1.384 . S
C121 C122 1.385 . S
C121 H123 0.950 . S
C122 C116 1.404 . S
C122 H120 0.949 . S
C122 C121 1.385 . S
H123 C121 0.950 . S
H124 C108 0.951 . S
H125 C110 0.951 . S
H126 C112 0.951 . S
H127 C113 0.950 . S
H128 C114 0.950 . S
H129 C115 0.950 . S
H130 C117 0.950 . S
H131 C118 0.951 . S
C132 C133 1.386 . S
C132 C134 1.383 . S
C132 H148 0.951 . S
C133 C132 1.386 . S
C133 C137 1.383 . S
C134 C132 1.383 . S
C134 C135 1.402 . S
C134 H149 0.951 . S
C135 C134 1.402 . S
C135 C136 1.375 . S
C135 C138 1.481 . S
C136 C135 1.375 . S
C136 C137 1.367 . S
C136 H150 0.951 . S
C137 C133 1.383 . S
C137 C136 1.367 . S
C137 H151 0.950 . S
C138 C135 1.481 . S
C138 C139 1.297 . S
C138 H152 0.950 . S
C139 C138 1.297 . S
C139 C140 1.479 . S
C139 H153 0.950 . S
C140 C139 1.479 . S
C140 C141 1.375 . S
C140 C146 1.404 . S
C141 C140 1.375 . S
C141 C142 1.369 . S
C141 H154 0.950 . S
C142 C141 1.369 . S
C142 C143 1.392 . S
C142 H155 0.951 . S
C143 C142 1.392 . S
C143 C145 1.384 . S
H144 C146 0.949 . S
C145 C143 1.384 . S
C145 C146 1.385 . S
C145 H147 0.950 . S
C146 C140 1.404 . S
C146 H144 0.949 . S
C146 C145 1.385 . S
H147 C145 0.950 . S
H148 C132 0.951 . S
H149 C134 0.951 . S
H150 C136 0.951 . S
H151 C137 0.950 . S
H152 C138 0.950 . S
H153 C139 0.950 . S
H154 C141 0.950 . S
H155 C142 0.951 . S
C156 C157 1.386 . S
C156 C158 1.383 . S
C156 H172 0.951 . S
C157 C156 1.386 . S
C157 C161 1.383 . S
C158 C156 1.383 . S
C158 C159 1.402 . S
C158 H173 0.951 . S
C159 C158 1.402 . S
C159 C160 1.375 . S
C159 C162 1.481 . S
C160 C159 1.375 . S
C160 C161 1.367 . S
C160 H174 0.951 . S
C161 C157 1.383 . S
C161 C160 1.367 . S
C161 H175 0.950 . S
C162 C159 1.481 . S
C162 C163 1.297 . S
C162 H176 0.950 . S
C163 C162 1.297 . S
C163 C164 1.479 . S
C163 H177 0.950 . S
C164 C163 1.479 . S
C164 C165 1.375 . S
C164 C170 1.404 . S
C165 C164 1.375 . S
C165 C166 1.369 . S
C165 H178 0.950 . S
C166 C165 1.369 . S
C166 C167 1.392 . S
C166 H179 0.951 . S
C167 C166 1.392 . S
C167 C169 1.384 . S
H168 C170 0.949 . S
C169 C167 1.384 . S
C169 C170 1.385 . S
C169 H171 0.950 . S
C170 C164 1.404 . S
C170 H168 0.949 . S
C170 C169 1.385 . S
H171 C169 0.950 . S
H172 C156 0.951 . S
H173 C158 0.951 . S
H174 C160 0.951 . S
H175 C161 0.950 . S
H176 C162 0.950 . S
H177 C163 0.950 . S
H178 C165 0.950 . S
H179 C166 0.951 . S
C180 C181 1.386 . S
C180 C182 1.383 . S
C180 H196 0.951 . S
C181 C180 1.386 . S
C181 C185 1.383 . S
C182 C180 1.383 . S
C182 C183 1.402 . S
C182 H197 0.951 . S
C183 C182 1.402 . S
C183 C184 1.375 . S
C183 C186 1.481 . S
C184 C183 1.375 . S
C184 C185 1.367 . S
C184 H198 0.951 . S
C185 C181 1.383 . S
C185 C184 1.367 . S
C185 H199 0.950 . S
C186 C183 1.481 . S
C186 C187 1.297 . S
C186 H200 0.950 . S
C187 C186 1.297 . S
C187 C188 1.479 . S
C187 H201 0.950 . S
C188 C187 1.479 . S
C188 C189 1.375 . S
C188 C194 1.404 . S
C189 C188 1.375 . S
C189 C190 1.369 . S
C189 H202 0.950 . S
C190 C189 1.369 . S
C190 C191 1.392 . S
C190 H203 0.951 . S
C191 C190 1.392 . S
C191 C193 1.384 . S
H192 C194 0.949 . S
C193 C191 1.384 . S
C193 C194 1.385 . S
C193 H195 0.950 . S
C194 C188 1.404 . S
C194 H192 0.949 . S
C194 C193 1.385 . S
H195 C193 0.950 . S
H196 C180 0.951 . S
H197 C182 0.951 . S
H198 C184 0.951 . S
H199 C185 0.950 . S
H200 C186 0.950 . S
H201 C187 0.950 . S
H202 C189 0.950 . S
H203 C190 0.951 . S
C204 C205 1.386 . S
C204 C206 1.383 . S
C204 H220 0.951 . S
C205 C204 1.386 . S
C205 C209 1.383 . S
C206 C204 1.383 . S
C206 C207 1.402 . S
C206 H221 0.951 . S
C207 C206 1.402 . S
C207 C208 1.375 . S
C207 C210 1.481 . S
C208 C207 1.375 . S
C208 C209 1.367 . S
C208 H222 0.951 . S
C209 C205 1.383 . S
C209 C208 1.367 . S
C209 H223 0.950 . S
C210 C207 1.481 . S
C210 C211 1.297 . S
C210 H224 0.950 . S
C211 C210 1.297 . S
C211 C212 1.479 . S
C211 H225 0.950 . S
C212 C211 1.479 . S
C212 C213 1.375 . S
C212 C218 1.404 . S
C213 C212 1.375 . S
C213 C214 1.369 . S
C213 H226 0.950 . S
C214 C213 1.369 . S
C214 C215 1.392 . S
C214 H227 0.951 . S
C215 C214 1.392 . S
C215 C217 1.384 . S
H216 C218 0.949 . S
C217 C215 1.384 . S
C217 C218 1.385 . S
C217 H219 0.950 . S
C218 C212 1.404 . S
C218 H216 0.949 . S
C218 C217 1.385 . S
H219 C217 0.950 . S
H220 C204 0.951 . S
H221 C206 0.951 . S
H222 C208 0.951 . S
H223 C209 0.950 . S
H224 C210 0.950 . S
H225 C211 0.950 . S
H226 C213 0.950 . S
H227 C214 0.951 . S
C228 C229 1.386 . S
C228 C230 1.383 . S
C228 H244 0.951 . S
C229 C228 1.386 . S
C229 C233 1.383 . S
C230 C228 1.383 . S
C230 C231 1.402 . S
C230 H245 0.951 . S
C231 C230 1.402 . S
C231 C232 1.375 . S
C231 C234 1.481 1_565 S
C232 C231 1.375 . S
C232 C233 1.367 . S
C232 H246 0.951 1_565 S
C233 C229 1.383 . S
C233 C232 1.367 . S
C233 H247 0.950 . S
C234 C231 1.481 1_545 S
C234 C235 1.297 1_556 S
C234 H248 0.950 . S
C235 C234 1.297 1_554 S
C235 C236 1.479 . S
C235 H249 0.950 1_545 S
C236 C235 1.479 . S
C236 C237 1.375 . S
C236 C242 1.404 . S
C237 C236 1.375 . S
C237 C238 1.369 . S
C237 H250 0.927 1_545 S
C238 C237 1.369 . S
C238 C239 1.392 . S
C238 H251 0.951 . S
C239 C238 1.392 . S
C239 C241 1.384 . S
H240 C242 0.949 . S
C241 C239 1.384 . S
C241 C242 1.385 . S
C241 H243 0.950 . S
C242 C236 1.404 . S
C242 H240 0.949 . S
C242 C241 1.385 . S
H243 C241 0.950 . S
H244 C228 0.951 . S
H245 C230 0.951 . S
H246 C232 0.951 1_545 S
H247 C233 0.950 . S
H248 C234 0.950 . S
H249 C235 0.950 1_565 S
H250 C237 0.927 1_565 S
H251 C238 0.951 . S
C252 C253 1.386 . S
C252 C254 1.383 . S
C252 H268 0.951 . S
C253 C252 1.386 . S
C253 C257 1.383 . S
C254 C252 1.383 . S
C254 C255 1.402 . S
C254 H269 0.951 . S
C255 C254 1.402 . S
C255 C256 1.375 . S
C255 C258 1.481 . S
C256 C255 1.375 . S
C256 C257 1.367 . S
C256 H270 0.951 . S
C257 C253 1.383 . S
C257 C256 1.367 . S
C257 H271 0.950 . S
C258 C255 1.481 . S
C258 C259 1.297 . S
C258 H272 0.950 . S
C259 C258 1.297 . S
C259 C260 1.479 . S
C259 H273 0.950 . S
C260 C259 1.479 . S
C260 C261 1.375 . S
C260 C266 1.404 . S
C261 C260 1.375 . S
C261 C262 1.369 . S
C261 H274 0.950 . S
C262 C261 1.369 . S
C262 C263 1.392 . S
C262 H275 0.951 . S
C263 C262 1.392 . S
C263 C265 1.384 . S
H264 C266 0.949 . S
C265 C263 1.384 . S
C265 C266 1.385 . S
C265 H267 0.950 . S
C266 C260 1.404 . S
C266 H264 0.949 . S
C266 C265 1.385 . S
H267 C265 0.950 . S
H268 C252 0.951 . S
H269 C254 0.951 . S
H270 C256 0.951 . S
H271 C257 0.950 . S
H272 C258 0.950 . S
H273 C259 0.950 . S
H274 C261 0.950 . S
H275 C262 0.951 . S
C276 C277 1.386 . S
C276 C278 1.383 . S
C276 H292 0.951 . S
C277 C276 1.386 . S
C277 C281 1.383 . S
C278 C276 1.383 . S
C278 C279 1.402 . S
C278 H293 0.951 1_455 S
C279 C278 1.402 . S
C279 C280 1.375 . S
C279 C282 1.481 1_556 S
C280 C279 1.375 . S
C280 C281 1.367 . S
C280 H294 0.966 . S
C281 C277 1.383 . S
C281 C280 1.367 . S
C281 H295 0.950 . S
C282 C279 1.481 1_554 S
C282 C283 1.297 1_455 S
C282 H296 0.950 . S
C283 C282 1.297 1_655 S
C283 C284 1.479 . S
C283 H297 0.950 1_554 S
C284 C283 1.479 . S
C284 C285 1.375 . S
C284 C290 1.404 . S
C285 C284 1.375 . S
C285 C286 1.369 . S
C285 H298 0.950 . S
C286 C285 1.369 . S
C286 C287 1.392 . S
C286 H299 0.951 . S
C287 C286 1.392 . S
C287 C289 1.384 . S
H288 C290 0.949 1_455 S
C289 C287 1.384 . S
C289 C290 1.385 . S
C289 H291 0.950 . S
C290 C284 1.404 . S
C290 H288 0.949 1_655 S
C290 C289 1.385 . S
H291 C289 0.950 . S
H292 C276 0.951 . S
H293 C278 0.951 1_655 S
H294 C280 0.966 . S
H295 C281 0.950 . S
H296 C282 0.950 . S
H297 C283 0.950 1_556 S
H298 C285 0.950 . S
H299 C286 0.951 . S
C300 C301 1.386 . S
C300 C302 1.383 . S
C300 H316 0.951 . S
C301 C300 1.386 . S
C301 C305 1.383 . S
C302 C300 1.383 . S
C302 C303 1.402 . S
C302 H317 0.951 . S
C303 C302 1.402 . S
C303 C304 1.375 . S
C303 C306 1.481 . S
C304 C303 1.375 . S
C304 C305 1.367 . S
C304 H318 0.951 . S
C305 C301 1.383 . S
C305 C304 1.367 . S
C305 H319 0.950 . S
C306 C303 1.481 . S
C306 C307 1.297 . S
C306 H320 0.950 . S
C307 C306 1.297 . S
C307 C308 1.479 1_545 S
C307 H321 0.950 . S
C308 C307 1.479 1_565 S
C308 C309 1.375 . S
C308 C314 1.404 . S
C309 C308 1.375 . S
C309 C310 1.369 . S
C309 H322 0.950 . S
C310 C309 1.369 . S
C310 C311 1.392 . S
C310 H323 0.951 . S
C311 C310 1.392 . S
C311 C313 1.384 . S
H312 C314 0.949 . S
C313 C311 1.384 . S
C313 C314 1.385 . S
C313 H315 0.950 . S
C314 C308 1.404 . S
C314 H312 0.949 . S
C314 C313 1.385 . S
H315 C313 0.950 . S
H316 C300 0.951 . S
H317 C302 0.951 . S
H318 C304 0.951 . S
H319 C305 0.950 . S
H320 C306 0.950 . S
H321 C307 0.950 . S
H322 C309 0.950 . S
H323 C310 0.951 . S
C324 C325 1.386 . S
C324 C326 1.383 . S
C324 H340 0.951 . S
C325 C324 1.386 . S
C325 C329 1.383 . S
C326 C324 1.383 . S
C326 C327 1.402 . S
C326 H341 0.951 . S
C327 C326 1.402 . S
C327 C328 1.375 . S
C327 C330 1.481 . S
C328 C327 1.375 . S
C328 C329 1.367 . S
C328 H342 0.951 . S
C329 C325 1.383 . S
C329 C328 1.367 . S
C329 H343 0.950 . S
C330 C327 1.481 . S
C330 C331 1.297 . S
C330 H344 0.950 1_556 S
C331 C330 1.297 . S
C331 C332 1.479 1_556 S
C331 H345 0.950 . S
C332 C331 1.479 1_554 S
C332 C333 1.375 . S
C332 C338 1.404 . S
C333 C332 1.375 . S
C333 C334 1.369 . S
C333 H346 0.949 1_554 S
C334 C333 1.369 . S
C334 C335 1.392 . S
C334 H347 0.951 . S
C335 C334 1.392 . S
C335 C337 1.384 . S
H336 C338 0.949 . S
C337 C335 1.384 . S
C337 C338 1.385 . S
C337 H339 0.950 . S
C338 C332 1.404 . S
C338 H336 0.949 . S
C338 C337 1.385 . S
H339 C337 0.950 . S
H340 C324 0.951 . S
H341 C326 0.951 . S
H342 C328 0.951 . S
H343 C329 0.950 . S
H344 C330 0.950 1_554 S
H345 C331 0.950 . S
H346 C333 0.949 1_556 S
H347 C334 0.951 . S
C348 C349 1.386 . S
C348 C350 1.383 . S
C348 H364 0.951 . S
C349 C348 1.386 . S
C349 C353 1.383 . S
C350 C348 1.383 . S
C350 C351 1.402 . S
C350 H365 0.951 . S
C351 C350 1.402 . S
C351 C352 1.375 . S
C351 C354 1.481 1_455 S
C352 C351 1.375 . S
C352 C353 1.367 . S
C352 H366 0.951 1_455 S
C353 C349 1.383 . S
C353 C352 1.367 . S
C353 H367 0.950 . S
C354 C351 1.481 1_655 S
C354 C355 1.297 1_655 S
C354 H368 0.950 . S
C355 C354 1.297 1_455 S
C355 C356 1.479 1_455 S
C355 H369 0.950 . S
C356 C355 1.479 1_655 S
C356 C357 1.375 . S
C356 C362 1.404 . S
C357 C356 1.375 . S
C357 C358 1.369 . S
C357 H370 0.950 1_655 S
C358 C357 1.369 . S
C358 C359 1.392 . S
C358 H371 0.951 . S
C359 C358 1.392 . S
C359 C361 1.384 . S
H360 C362 0.949 . S
C361 C359 1.384 . S
C361 C362 1.385 . S
C361 H363 0.950 . S
C362 C356 1.404 . S
C362 H360 0.949 . S
C362 C361 1.385 . S
H363 C361 0.950 . S
H364 C348 0.951 . S
H365 C350 0.951 . S
H366 C352 0.951 1_655 S
H367 C353 0.950 . S
H368 C354 0.950 . S
H369 C355 0.950 . S
H370 C357 0.950 1_455 S
H371 C358 0.951 . S
C85 C3 0.970 . S
C95 C59 0.956 . S
C109 C23 0.934 . S
C119 C79 0.979 . S
C133 C9 0.964 . S
C143 C31 0.955 . S
C157 C51 0.981 . S
C167 C17 0.977 . S
C181 C65 0.955 . S
C191 C37 0.999 . S
C205 C45 0.959 . S
C215 C73 0.936 . S
C229 C49 1.368 . S
C239 C7 1.338 . S
C253 C63 1.305 . S
C263 C22 1.358 . S
C277 C78 1.353 . S
C287 C35 1.305 . S
C301 C8 1.393 . S
C311 C50 1.401 . S
C325 C21 1.311 . S
C335 C64 1.340 . S
C349 C77 1.361 . S
C359 C36 1.375 . S
