# Generated by pormake.
# Topology snv-x, (7)-cn, num edge types: 1
# Building blocks:
#     Node 0, Type 0, BuildingBlock: OLANEW_clean_sbu_3, # of connection points: 7
#     Node 1, Type 0, BuildingBlock: OLANEW_clean_sbu_3, # of connection points: 7
#     Node 2, Type 0, BuildingBlock: OLANEW_clean_sbu_3, # of connection points: 7
#     Node 3, Type 0, BuildingBlock: OLANEW_clean_sbu_3, # of connection points: 7
#     Node 4, Type 0, BuildingBlock: OLANEW_clean_sbu_3, # of connection points: 7
#     Node 5, Type 0, BuildingBlock: OLANEW_clean_sbu_3, # of connection points: 7
#     Node 6, Type 0, BuildingBlock: OLANEW_clean_sbu_3, # of connection points: 7
#     Node 7, Type 0, BuildingBlock: OLANEW_clean_sbu_3, # of connection points: 7
#     Node 8, Type 0, BuildingBlock: OLANEW_clean_sbu_3, # of connection points: 7
#     Node 9, Type 0, BuildingBlock: OLANEW_clean_sbu_3, # of connection points: 7
#     Node 10, Type 0, BuildingBlock: OLANEW_clean_sbu_3, # of connection points: 7
#     Node 11, Type 0, BuildingBlock: OLANEW_clean_sbu_3, # of connection points: 7
#     Node 12, Type 0, BuildingBlock: OLANEW_clean_sbu_3, # of connection points: 7
#     Node 13, Type 0, BuildingBlock: OLANEW_clean_sbu_3, # of connection points: 7
#     Node 14, Type 0, BuildingBlock: OLANEW_clean_sbu_3, # of connection points: 7
#     Node 15, Type 0, BuildingBlock: OLANEW_clean_sbu_3, # of connection points: 7
#     Node 16, Type 0, BuildingBlock: OLANEW_clean_sbu_3, # of connection points: 7
#     Node 17, Type 0, BuildingBlock: OLANEW_clean_sbu_3, # of connection points: 7
#     Node 18, Type 0, BuildingBlock: OLANEW_clean_sbu_3, # of connection points: 7
#     Node 19, Type 0, BuildingBlock: OLANEW_clean_sbu_3, # of connection points: 7
#     Node 20, Type 0, BuildingBlock: OLANEW_clean_sbu_3, # of connection points: 7
#     Node 21, Type 0, BuildingBlock: OLANEW_clean_sbu_3, # of connection points: 7
#     Node 22, Type 0, BuildingBlock: OLANEW_clean_sbu_3, # of connection points: 7
#     Node 23, Type 0, BuildingBlock: OLANEW_clean_sbu_3, # of connection points: 7
#     Edge 24, Type (0, 0), BuildingBlock: OJICUG_clean_linker_0, # of connection points: 2
#     Edge 25, Type (0, 0), BuildingBlock: OJICUG_clean_linker_0, # of connection points: 2
#     Edge 26, Type (0, 0), BuildingBlock: OJICUG_clean_linker_0, # of connection points: 2
#     Edge 27, Type (0, 0), BuildingBlock: OJICUG_clean_linker_0, # of connection points: 2
#     Edge 28, Type (0, 0), BuildingBlock: OJICUG_clean_linker_0, # of connection points: 2
#     Edge 29, Type (0, 0), BuildingBlock: OJICUG_clean_linker_0, # of connection points: 2
#     Edge 30, Type (0, 0), BuildingBlock: OJICUG_clean_linker_0, # of connection points: 2
#     Edge 31, Type (0, 0), BuildingBlock: OJICUG_clean_linker_0, # of connection points: 2
#     Edge 32, Type (0, 0), BuildingBlock: OJICUG_clean_linker_0, # of connection points: 2
#     Edge 33, Type (0, 0), BuildingBlock: OJICUG_clean_linker_0, # of connection points: 2
#     Edge 34, Type (0, 0), BuildingBlock: OJICUG_clean_linker_0, # of connection points: 2
#     Edge 35, Type (0, 0), BuildingBlock: OJICUG_clean_linker_0, # of connection points: 2
#     Edge 36, Type (0, 0), BuildingBlock: OJICUG_clean_linker_0, # of connection points: 2
#     Edge 37, Type (0, 0), BuildingBlock: OJICUG_clean_linker_0, # of connection points: 2
#     Edge 38, Type (0, 0), BuildingBlock: OJICUG_clean_linker_0, # of connection points: 2
#     Edge 39, Type (0, 0), BuildingBlock: OJICUG_clean_linker_0, # of connection points: 2
#     Edge 40, Type (0, 0), BuildingBlock: OJICUG_clean_linker_0, # of connection points: 2
#     Edge 41, Type (0, 0), BuildingBlock: OJICUG_clean_linker_0, # of connection points: 2
#     Edge 42, Type (0, 0), BuildingBlock: OJICUG_clean_linker_0, # of connection points: 2
#     Edge 43, Type (0, 0), BuildingBlock: OJICUG_clean_linker_0, # of connection points: 2
#     Edge 44, Type (0, 0), BuildingBlock: OJICUG_clean_linker_0, # of connection points: 2
#     Edge 45, Type (0, 0), BuildingBlock: OJICUG_clean_linker_0, # of connection points: 2
#     Edge 46, Type (0, 0), BuildingBlock: OJICUG_clean_linker_0, # of connection points: 2
#     Edge 47, Type (0, 0), BuildingBlock: OJICUG_clean_linker_0, # of connection points: 2
#     Edge 48, Type (0, 0), BuildingBlock: OJICUG_clean_linker_0, # of connection points: 2
#     Edge 49, Type (0, 0), BuildingBlock: OJICUG_clean_linker_0, # of connection points: 2
#     Edge 50, Type (0, 0), BuildingBlock: OJICUG_clean_linker_0, # of connection points: 2
#     Edge 51, Type (0, 0), BuildingBlock: OJICUG_clean_linker_0, # of connection points: 2
#     Edge 52, Type (0, 0), BuildingBlock: OJICUG_clean_linker_0, # of connection points: 2
#     Edge 53, Type (0, 0), BuildingBlock: OJICUG_clean_linker_0, # of connection points: 2
#     Edge 54, Type (0, 0), BuildingBlock: OJICUG_clean_linker_0, # of connection points: 2
#     Edge 55, Type (0, 0), BuildingBlock: OJICUG_clean_linker_0, # of connection points: 2
#     Edge 56, Type (0, 0), BuildingBlock: OJICUG_clean_linker_0, # of connection points: 2
#     Edge 57, Type (0, 0), BuildingBlock: OJICUG_clean_linker_0, # of connection points: 2
#     Edge 58, Type (0, 0), BuildingBlock: OJICUG_clean_linker_0, # of connection points: 2
#     Edge 59, Type (0, 0), BuildingBlock: OJICUG_clean_linker_0, # of connection points: 2
#     Edge 60, Type (0, 0), BuildingBlock: OJICUG_clean_linker_0, # of connection points: 2
#     Edge 61, Type (0, 0), BuildingBlock: OJICUG_clean_linker_0, # of connection points: 2
#     Edge 62, Type (0, 0), BuildingBlock: OJICUG_clean_linker_0, # of connection points: 2
#     Edge 63, Type (0, 0), BuildingBlock: OJICUG_clean_linker_0, # of connection points: 2
#     Edge 64, Type (0, 0), BuildingBlock: OJICUG_clean_linker_0, # of connection points: 2
#     Edge 65, Type (0, 0), BuildingBlock: OJICUG_clean_linker_0, # of connection points: 2
#     Edge 66, Type (0, 0), BuildingBlock: OJICUG_clean_linker_0, # of connection points: 2
#     Edge 67, Type (0, 0), BuildingBlock: OJICUG_clean_linker_0, # of connection points: 2
#     Edge 68, Type (0, 0), BuildingBlock: OJICUG_clean_linker_0, # of connection points: 2
#     Edge 69, Type (0, 0), BuildingBlock: OJICUG_clean_linker_0, # of connection points: 2
#     Edge 70, Type (0, 0), BuildingBlock: OJICUG_clean_linker_0, # of connection points: 2
#     Edge 71, Type (0, 0), BuildingBlock: OJICUG_clean_linker_0, # of connection points: 2
#     Edge 72, Type (0, 0), BuildingBlock: OJICUG_clean_linker_0, # of connection points: 2
#     Edge 73, Type (0, 0), BuildingBlock: OJICUG_clean_linker_0, # of connection points: 2
#     Edge 74, Type (0, 0), BuildingBlock: OJICUG_clean_linker_0, # of connection points: 2
#     Edge 75, Type (0, 0), BuildingBlock: OJICUG_clean_linker_0, # of connection points: 2
#     Edge 76, Type (0, 0), BuildingBlock: OJICUG_clean_linker_0, # of connection points: 2
#     Edge 77, Type (0, 0), BuildingBlock: OJICUG_clean_linker_0, # of connection points: 2
#     Edge 78, Type (0, 0), BuildingBlock: OJICUG_clean_linker_0, # of connection points: 2
#     Edge 79, Type (0, 0), BuildingBlock: OJICUG_clean_linker_0, # of connection points: 2
#     Edge 80, Type (0, 0), BuildingBlock: OJICUG_clean_linker_0, # of connection points: 2
#     Edge 81, Type (0, 0), BuildingBlock: OJICUG_clean_linker_0, # of connection points: 2
#     Edge 82, Type (0, 0), BuildingBlock: OJICUG_clean_linker_0, # of connection points: 2
#     Edge 83, Type (0, 0), BuildingBlock: OJICUG_clean_linker_0, # of connection points: 2
#     Edge 84, Type (0, 0), BuildingBlock: OJICUG_clean_linker_0, # of connection points: 2
#     Edge 85, Type (0, 0), BuildingBlock: OJICUG_clean_linker_0, # of connection points: 2
#     Edge 86, Type (0, 0), BuildingBlock: OJICUG_clean_linker_0, # of connection points: 2
#     Edge 87, Type (0, 0), BuildingBlock: OJICUG_clean_linker_0, # of connection points: 2
#     Edge 88, Type (0, 0), BuildingBlock: OJICUG_clean_linker_0, # of connection points: 2
#     Edge 89, Type (0, 0), BuildingBlock: OJICUG_clean_linker_0, # of connection points: 2
#     Edge 90, Type (0, 0), BuildingBlock: OJICUG_clean_linker_0, # of connection points: 2
#     Edge 91, Type (0, 0), BuildingBlock: OJICUG_clean_linker_0, # of connection points: 2
#     Edge 92, Type (0, 0), BuildingBlock: OJICUG_clean_linker_0, # of connection points: 2
#     Edge 93, Type (0, 0), BuildingBlock: OJICUG_clean_linker_0, # of connection points: 2
#     Edge 94, Type (0, 0), BuildingBlock: OJICUG_clean_linker_0, # of connection points: 2
#     Edge 95, Type (0, 0), BuildingBlock: OJICUG_clean_linker_0, # of connection points: 2
#     Edge 96, Type (0, 0), BuildingBlock: OJICUG_clean_linker_0, # of connection points: 2
#     Edge 97, Type (0, 0), BuildingBlock: OJICUG_clean_linker_0, # of connection points: 2
#     Edge 98, Type (0, 0), BuildingBlock: OJICUG_clean_linker_0, # of connection points: 2
#     Edge 99, Type (0, 0), BuildingBlock: OJICUG_clean_linker_0, # of connection points: 2
#     Edge 100, Type (0, 0), BuildingBlock: OJICUG_clean_linker_0, # of connection points: 2
#     Edge 101, Type (0, 0), BuildingBlock: OJICUG_clean_linker_0, # of connection points: 2
#     Edge 102, Type (0, 0), BuildingBlock: OJICUG_clean_linker_0, # of connection points: 2
#     Edge 103, Type (0, 0), BuildingBlock: OJICUG_clean_linker_0, # of connection points: 2
#     Edge 104, Type (0, 0), BuildingBlock: OJICUG_clean_linker_0, # of connection points: 2
#     Edge 105, Type (0, 0), BuildingBlock: OJICUG_clean_linker_0, # of connection points: 2
#     Edge 106, Type (0, 0), BuildingBlock: OJICUG_clean_linker_0, # of connection points: 2
#     Edge 107, Type (0, 0), BuildingBlock: OJICUG_clean_linker_0, # of connection points: 2
# Relax obj value: 0.243
# Max RMSD: 0.259
# Mean RMSD: 0.259
data_MOF--net-snv-x--node1-OLANEW_clean_sbu_3--edge1-OJICUG_clean_linker_0
_symmetry_space_group_name_H-M    P1
_symmetry_Int_Tables_number       1
_symmetry_cell_setting            triclinic
loop_
_symmetry_equiv_pos_as_xyz
'x, y, z'
_cell_length_a     53.064408
_cell_length_b     53.151766
_cell_length_c     53.330024
_cell_angle_alpha  90.140092
_cell_angle_beta   89.781274
_cell_angle_gamma 89.833806
loop_
_atom_site_label
_atom_site_type_symbol
_atom_site_fract_x
_atom_site_fract_y
_atom_site_fract_z
_atom_type_partial_charge
C0 C 0.2182 0.45053 0.34403 0.0
C1 C 0.22225 0.47252 0.35789 0.0
C2 C 0.20115 0.48412 0.36951 0.0
C3 C 0.17685 0.4734 0.36753 0.0
C4 C 0.1742 0.45145 0.3533 0.0
N5 N 0.19465 0.4419 0.34215 0.0
C6 C 0.15155 0.43569 0.34963 0.0
C7 C 0.13588 0.39686 0.32902 0.0
C8 C 0.12425 0.38342 0.34851 0.0
C9 C 0.10635 0.36499 0.34309 0.0
C10 C 0.09983 0.35995 0.31824 0.0
C11 C 0.1111 0.37344 0.29878 0.0
C12 C 0.12902 0.39189 0.30413 0.0
Cd13 Cd 0.09774 0.47075 0.36053 0.0
Cd14 Cd 0.1145 0.54653 0.32941 0.0
C15 C 0.24149 0.38866 0.31923 0.0
C16 C 0.26071 0.36423 0.28599 0.0
C17 C 0.25797 0.34255 0.30077 0.0
C18 C 0.2486 0.34414 0.32531 0.0
C19 C 0.2419 0.36766 0.33487 0.0
C20 C 0.25158 0.38725 0.29503 0.0
Co21 Co 0.19101 0.4102 0.32902 0.0
N22 N 0.19196 0.39363 0.36157 0.0
N23 N 0.18729 0.37843 0.31597 0.0
C24 C 0.18474 0.35976 0.33245 0.0
C25 C 0.1822 0.33523 0.32329 0.0
C26 C 0.18229 0.33167 0.29697 0.0
C27 C 0.18484 0.35239 0.2805 0.0
C28 C 0.18741 0.37638 0.29104 0.0
N29 N 0.19017 0.4214 0.29409 0.0
N30 N 0.15506 0.4151 0.33428 0.0
N31 N 0.22719 0.41004 0.32664 0.0
O32 O 0.07557 0.53807 0.30953 0.0
O33 O 0.08212 0.50373 0.33117 0.0
C34 C 0.05347 0.44141 0.38099 0.0
O35 O 0.06683 0.43288 0.36286 0.0
O36 O 0.05932 0.46353 0.3881 0.0
C37 C 0.121 0.51584 0.38486 0.0
O38 O 0.11673 0.49565 0.39667 0.0
O39 O 0.11183 0.51745 0.3633 0.0
C40 C 0.18673 0.36852 0.35863 0.0
O41 O 0.18605 0.35289 0.3777 0.0
O42 O 0.12802 0.48316 0.32242 0.0
O43 O 0.13912 0.51971 0.30456 0.0
C44 C 0.18935 0.40098 0.27841 0.0
O45 O 0.18745 0.40332 0.25396 0.0
C46 C 0.18601 0.44665 0.28571 0.0
C47 C 0.16364 0.45797 0.29273 0.0
C48 C 0.16022 0.48355 0.29016 0.0
C49 C 0.17762 0.4974 0.27542 0.0
C50 C 0.19964 0.48593 0.26515 0.0
C51 C 0.204 0.46025 0.27152 0.0
C52 C 0.06788 0.51693 0.31741 0.0
O53 O 0.13068 0.43859 0.36394 0.0
C54 C 0.14042 0.49587 0.30566 0.0
C55 C 0.19575 0.40506 0.38572 0.0
C56 C 0.2193 0.41475 0.39242 0.0
C57 C 0.22322 0.42435 0.41647 0.0
C58 C 0.204 0.42351 0.43439 0.0
C59 C 0.18074 0.41248 0.42847 0.0
C60 C 0.17653 0.40419 0.40375 0.0
C61 C 0.23697 0.43261 0.33398 0.0
O62 O 0.26138 0.43651 0.33533 0.0
H63 H 0.24102 0.47996 0.36048 0.0
H64 H 0.20374 0.50097 0.38062 0.0
H65 H 0.16095 0.48171 0.37714 0.0
H66 H 0.1292 0.38692 0.36782 0.0
H67 H 0.086 0.34566 0.31407 0.0
H68 H 0.13739 0.40229 0.28886 0.0
H69 H 0.26554 0.32476 0.29414 0.0
H70 H 0.23588 0.36949 0.35416 0.0
H71 H 0.25242 0.40396 0.28345 0.0
H72 H 0.18055 0.31938 0.33589 0.0
H73 H 0.18044 0.31289 0.28934 0.0
H74 H 0.18473 0.3497 0.26038 0.0
H75 H 0.14915 0.44691 0.30148 0.0
H76 H 0.17381 0.51709 0.27214 0.0
H77 H 0.22127 0.45086 0.266 0.0
H78 H 0.23499 0.41406 0.37956 0.0
H79 H 0.20798 0.43004 0.45319 0.0
H80 H 0.15862 0.396 0.39872 0.0
C81 C 0.57862 0.2174 0.34419 0.0
C82 C 0.55647 0.22138 0.35796 0.0
C83 C 0.5451 0.20035 0.36961 0.0
C84 C 0.55614 0.17615 0.36767 0.0
C85 C 0.57821 0.17354 0.35351 0.0
N86 N 0.58766 0.19396 0.34248 0.0
C87 C 0.59425 0.15098 0.34987 0.0
C88 C 0.6335 0.13547 0.32959 0.0
C89 C 0.64669 0.1238 0.34918 0.0
C90 C 0.6652 0.10579 0.34387 0.0
C91 C 0.67059 0.09924 0.31904 0.0
C92 C 0.65739 0.11061 0.29948 0.0
C93 C 0.63887 0.12863 0.30471 0.0
Cd94 Cd 0.55968 0.09677 0.35995 0.0
Cd95 Cd 0.48397 0.11642 0.33053 0.0
C96 C 0.64063 0.24123 0.32039 0.0
C97 C 0.66424 0.26229 0.28784 0.0
C98 C 0.68626 0.25888 0.30197 0.0
C99 C 0.6852 0.24836 0.32598 0.0
C100 C 0.66191 0.24114 0.33565 0.0
C101 C 0.64142 0.25263 0.29679 0.0
Co102 Co 0.61968 0.1905 0.32981 0.0
N103 N 0.63581 0.19139 0.36264 0.0
N104 N 0.65173 0.18692 0.31718 0.0
C105 C 0.67017 0.18413 0.33389 0.0
C106 C 0.69488 0.18148 0.32501 0.0
C107 C 0.69883 0.1817 0.29873 0.0
C108 C 0.67833 0.18445 0.28202 0.0
C109 C 0.65416 0.18712 0.29227 0.0
N110 N 0.60903 0.18966 0.29474 0.0
N111 N 0.61503 0.15458 0.33477 0.0
N112 N 0.61942 0.22668 0.32762 0.0
O113 O 0.49012 0.07694 0.31084 0.0
O114 O 0.52545 0.08213 0.33128 0.0
C115 C 0.58926 0.05182 0.37915 0.0
O116 O 0.59897 0.06747 0.36378 0.0
O117 O 0.56604 0.05575 0.38396 0.0
C118 C 0.51549 0.12063 0.38544 0.0
O119 O 0.53556 0.11546 0.39712 0.0
O120 O 0.51392 0.11252 0.36344 0.0
C121 C 0.661 0.18599 0.35999 0.0
O122 O 0.67639 0.18526 0.37924 0.0
O123 O 0.5479 0.12708 0.32159 0.0
O124 O 0.51113 0.13916 0.30464 0.0
C125 C 0.62972 0.18904 0.27933 0.0
O126 O 0.62775 0.18723 0.25482 0.0
C127 C 0.58396 0.18535 0.28595 0.0
C128 C 0.5729 0.1628 0.29236 0.0
C129 C 0.54737 0.15921 0.28942 0.0
C130 C 0.53346 0.17664 0.27474 0.0
C131 C 0.54477 0.19889 0.26503 0.0
C132 C 0.57028 0.20338 0.27197 0.0
C133 C 0.51133 0.06849 0.31783 0.0
O134 O 0.59132 0.13011 0.36399 0.0
C135 C 0.53506 0.13964 0.30504 0.0
C136 C 0.62392 0.19557 0.38659 0.0
C137 C 0.61294 0.21889 0.39239 0.0
C138 C 0.60144 0.22293 0.41564 0.0
C139 C 0.60179 0.20414 0.43382 0.0
C140 C 0.61454 0.1815 0.42908 0.0
C141 C 0.625 0.17703 0.40521 0.0
C142 C 0.59644 0.23624 0.33436 0.0
O143 O 0.59214 0.26057 0.33572 0.0
H144 H 0.54878 0.2401 0.36054 0.0
H145 H 0.52818 0.2029 0.38073 0.0
H146 H 0.54802 0.16031 0.37732 0.0
H147 H 0.64291 0.12883 0.36849 0.0
H148 H 0.68493 0.08531 0.31496 0.0
H149 H 0.62869 0.13707 0.28936 0.0
H150 H 0.7039 0.26676 0.29534 0.0
H151 H 0.66049 0.23453 0.35472 0.0
H152 H 0.62447 0.254 0.28561 0.0
H153 H 0.71057 0.17964 0.33779 0.0
H154 H 0.71776 0.17976 0.29134 0.0
H155 H 0.68132 0.18438 0.26193 0.0
H156 H 0.58405 0.14841 0.30116 0.0
H157 H 0.51384 0.17271 0.27123 0.0
H158 H 0.57954 0.2208 0.26709 0.0
H159 H 0.61398 0.23437 0.37947 0.0
H160 H 0.59382 0.20805 0.45214 0.0
H161 H 0.63495 0.15958 0.4015 0.0
C162 C 0.81076 0.58256 0.34556 0.0
C163 C 0.8061 0.56054 0.3591 0.0
C164 C 0.8268 0.54849 0.37074 0.0
C165 C 0.85135 0.55869 0.36898 0.0
C166 C 0.85463 0.58066 0.35501 0.0
N167 N 0.83447 0.59077 0.34397 0.0
C168 C 0.87767 0.59594 0.35153 0.0
C169 C 0.89421 0.63471 0.33169 0.0
C170 C 0.90539 0.64828 0.35132 0.0
C171 C 0.92389 0.66621 0.34615 0.0
C172 C 0.93141 0.67064 0.32142 0.0
C173 C 0.92053 0.65704 0.30184 0.0
C174 C 0.90204 0.63908 0.30693 0.0
Cd175 Cd 0.93186 0.56007 0.36144 0.0
Cd176 Cd 0.91164 0.48505 0.33004 0.0
C177 C 0.7898 0.64275 0.31545 0.0
C178 C 0.77486 0.65869 0.27571 0.0
C179 C 0.7801 0.68306 0.28444 0.0
C180 C 0.78322 0.68748 0.3102 0.0
C181 C 0.78852 0.66701 0.32574 0.0
C182 C 0.78149 0.63836 0.29095 0.0
Co183 Co 0.83883 0.62249 0.33125 0.0
N184 N 0.83726 0.63887 0.36398 0.0
N185 N 0.84348 0.65425 0.31863 0.0
C186 C 0.84545 0.67284 0.33536 0.0
C187 C 0.84905 0.69732 0.32648 0.0
C188 C 0.85037 0.70093 0.3002 0.0
C189 C 0.84818 0.68031 0.28348 0.0
C190 C 0.84461 0.65637 0.29372 0.0
N191 N 0.84019 0.61144 0.29617 0.0
N192 N 0.8746 0.61688 0.33672 0.0
N193 N 0.80269 0.62343 0.32858 0.0
O194 O 0.95249 0.48982 0.31375 0.0
O195 O 0.95004 0.52568 0.33454 0.0
C196 C 0.97587 0.58923 0.38316 0.0
O197 O 0.96495 0.59651 0.36309 0.0
O198 O 0.96757 0.56854 0.39187 0.0
C199 C 0.90672 0.51582 0.38468 0.0
O200 O 0.91211 0.53526 0.39728 0.0
O201 O 0.91446 0.51524 0.36249 0.0
C202 C 0.84211 0.66405 0.36138 0.0
O203 O 0.84228 0.67955 0.38063 0.0
O204 O 0.90197 0.54882 0.32249 0.0
O205 O 0.89046 0.51277 0.30373 0.0
C206 C 0.84247 0.6319 0.28078 0.0
O207 O 0.84502 0.62964 0.25635 0.0
C208 C 0.84397 0.58618 0.28747 0.0
C209 C 0.86643 0.57477 0.29379 0.0
C210 C 0.87003 0.54935 0.29014 0.0
C211 C 0.8525 0.53582 0.27527 0.0
C212 C 0.83011 0.5473 0.26601 0.0
C213 C 0.8258 0.57284 0.27324 0.0
C214 C 0.96255 0.51007 0.32133 0.0
O215 O 0.89857 0.59225 0.36548 0.0
C216 C 0.88971 0.53661 0.30524 0.0
C217 C 0.83268 0.6271 0.38782 0.0
C218 C 0.80898 0.61696 0.3935 0.0
C219 C 0.80469 0.60514 0.41645 0.0
C220 C 0.82363 0.60432 0.43447 0.0
C221 C 0.8467 0.61624 0.42991 0.0
C222 C 0.85136 0.62712 0.40633 0.0
C223 C 0.79253 0.60081 0.33531 0.0
O224 O 0.76817 0.59653 0.33454 0.0
H225 H 0.78715 0.55343 0.36146 0.0
H226 H 0.82373 0.53164 0.38168 0.0
H227 H 0.86696 0.55 0.37858 0.0
H228 H 0.89963 0.64521 0.37052 0.0
H229 H 0.9457 0.68454 0.31744 0.0
H230 H 0.89399 0.6286 0.29156 0.0
H231 H 0.7765 0.69907 0.27243 0.0
H232 H 0.79171 0.66977 0.34559 0.0
H233 H 0.77967 0.61926 0.28405 0.0
H234 H 0.8505 0.71311 0.33925 0.0
H235 H 0.85302 0.71967 0.29281 0.0
H236 H 0.84925 0.68304 0.26341 0.0
H237 H 0.88086 0.58559 0.30288 0.0
H238 H 0.85648 0.5163 0.27126 0.0
H239 H 0.80846 0.58233 0.26834 0.0
H240 H 0.79351 0.61876 0.38062 0.0
H241 H 0.81957 0.59609 0.45259 0.0
H242 H 0.86911 0.63648 0.40277 0.0
C243 C 0.45479 0.81311 0.34453 0.0
C244 C 0.47685 0.80982 0.35845 0.0
C245 C 0.48752 0.83126 0.37003 0.0
C246 C 0.4759 0.85514 0.36785 0.0
C247 C 0.45405 0.85707 0.35347 0.0
N248 N 0.44525 0.83632 0.34253 0.0
C249 C 0.43756 0.87921 0.34955 0.0
C250 C 0.39802 0.89342 0.32911 0.0
C251 C 0.38404 0.90468 0.34855 0.0
C252 C 0.36465 0.92161 0.343 0.0
C253 C 0.35919 0.92749 0.31809 0.0
C254 C 0.37321 0.91656 0.29869 0.0
C255 C 0.3926 0.89963 0.30416 0.0
Cd256 Cd 0.47343 0.9321 0.36128 0.0
Cd257 Cd 0.54919 0.91337 0.32923 0.0
C258 C 0.39315 0.78755 0.32228 0.0
C259 C 0.36828 0.7676 0.29012 0.0
C260 C 0.34684 0.77049 0.30535 0.0
C261 C 0.34883 0.78034 0.32961 0.0
C262 C 0.37245 0.78725 0.33853 0.0
C263 C 0.39144 0.77681 0.2984 0.0
Co264 Co 0.41316 0.83887 0.33011 0.0
N265 N 0.39707 0.83834 0.36315 0.0
N266 N 0.38103 0.84144 0.31772 0.0
C267 C 0.36254 0.84414 0.33456 0.0
C268 C 0.3378 0.84626 0.32585 0.0
C269 C 0.33383 0.84551 0.29961 0.0
C270 C 0.35436 0.8428 0.28276 0.0
C271 C 0.37858 0.84077 0.29284 0.0
N272 N 0.42377 0.83935 0.2949 0.0
N273 N 0.41699 0.87494 0.33449 0.0
N274 N 0.41423 0.80266 0.32849 0.0
O275 O 0.5433 0.95443 0.31381 0.0
O276 O 0.50773 0.95022 0.33474 0.0
C277 C 0.443 0.97505 0.38378 0.0
O278 O 0.43841 0.96685 0.3617 0.0
O279 O 0.46188 0.96471 0.39427 0.0
C280 C 0.51882 0.90743 0.38442 0.0
O281 O 0.49905 0.91252 0.39682 0.0
O282 O 0.51946 0.91517 0.36228 0.0
C283 C 0.37175 0.84298 0.36062 0.0
O284 O 0.35634 0.84363 0.37998 0.0
O285 O 0.48501 0.90211 0.32215 0.0
O286 O 0.52145 0.89148 0.30323 0.0
C287 C 0.40305 0.83919 0.27968 0.0
O288 O 0.40492 0.84059 0.25514 0.0
C289 C 0.44877 0.84402 0.28581 0.0
C290 C 0.45979 0.86658 0.2925 0.0
C291 C 0.48533 0.87035 0.28937 0.0
C292 C 0.49931 0.853 0.27447 0.0
C293 C 0.4879 0.83112 0.26425 0.0
C294 C 0.46241 0.82639 0.27109 0.0
C295 C 0.52263 0.96359 0.32174 0.0
O296 O 0.44001 0.90036 0.36337 0.0
C297 C 0.4976 0.89008 0.30486 0.0
C298 C 0.40906 0.8346 0.38702 0.0
C299 C 0.42037 0.81146 0.3927 0.0
C300 C 0.43241 0.8078 0.41559 0.0
C301 C 0.43232 0.82681 0.4336 0.0
C302 C 0.4193 0.84931 0.42912 0.0
C303 C 0.40802 0.85337 0.40564 0.0
C304 C 0.43741 0.79371 0.33511 0.0
O305 O 0.44215 0.7695 0.33695 0.0
H306 H 0.4849 0.79133 0.36128 0.0
H307 H 0.5043 0.82925 0.38132 0.0
H308 H 0.48336 0.87123 0.37754 0.0
H309 H 0.3878 0.90006 0.36791 0.0
H310 H 0.34416 0.94056 0.31383 0.0
H311 H 0.40334 0.89144 0.28892 0.0
H312 H 0.32889 0.76306 0.29913 0.0
H313 H 0.37445 0.79372 0.35763 0.0
H314 H 0.4079 0.77595 0.28633 0.0
H315 H 0.32209 0.84811 0.33873 0.0
H316 H 0.31488 0.84702 0.29235 0.0
H317 H 0.35136 0.84247 0.2627 0.0
H318 H 0.44861 0.88091 0.30147 0.0
H319 H 0.51928 0.85603 0.27163 0.0
H320 H 0.45307 0.80939 0.26499 0.0
H321 H 0.41923 0.79582 0.37993 0.0
H322 H 0.44073 0.82317 0.45171 0.0
H323 H 0.39763 0.87058 0.40223 0.0
C324 C 0.21932 0.57912 0.68227 0.0
C325 C 0.22319 0.55739 0.6679 0.0
C326 C 0.20206 0.54649 0.65602 0.0
C327 C 0.17788 0.55753 0.6584 0.0
C328 C 0.17532 0.57902 0.67333 0.0
N329 N 0.19584 0.58811 0.68446 0.0
C330 C 0.15282 0.59513 0.67729 0.0
C331 C 0.13771 0.63443 0.69766 0.0
C332 C 0.12627 0.64786 0.6781 0.0
C333 C 0.10861 0.66669 0.68347 0.0
C334 C 0.10219 0.67216 0.70832 0.0
C335 C 0.11334 0.65872 0.72784 0.0
C336 C 0.13101 0.63989 0.72255 0.0
Cd337 Cd 0.09884 0.5606 0.66658 0.0
Cd338 Cd 0.11924 0.48531 0.69727 0.0
C339 C 0.24327 0.64063 0.70669 0.0
C340 C 0.26192 0.66397 0.74075 0.0
C341 C 0.25929 0.68612 0.72661 0.0
C342 C 0.25 0.68534 0.70206 0.0
C343 C 0.24356 0.66211 0.69176 0.0
C344 C 0.2531 0.64125 0.73092 0.0
Co345 Co 0.19261 0.62015 0.69698 0.0
N346 N 0.19336 0.63613 0.664 0.0
N347 N 0.18929 0.65222 0.70945 0.0
C348 C 0.1866 0.67059 0.69266 0.0
C349 C 0.18418 0.69532 0.70143 0.0
C350 C 0.18454 0.69935 0.72769 0.0
C351 C 0.18721 0.67893 0.74449 0.0
C352 C 0.18961 0.65474 0.73434 0.0
N353 N 0.19198 0.60964 0.73213 0.0
N354 N 0.15662 0.61576 0.69242 0.0
N355 N 0.2288 0.61971 0.6988 0.0
O356 O 0.07739 0.4891 0.7117 0.0
O357 O 0.08141 0.52519 0.69197 0.0
C358 C 0.05565 0.59015 0.64387 0.0
O359 O 0.06374 0.59538 0.66584 0.0
O360 O 0.06623 0.57115 0.63371 0.0
C361 C 0.12453 0.51653 0.64287 0.0
O362 O 0.1187 0.53596 0.63052 0.0
O363 O 0.11751 0.51602 0.66527 0.0
C364 C 0.18834 0.66136 0.66658 0.0
O365 O 0.18775 0.67667 0.64726 0.0
O366 O 0.12826 0.54937 0.70613 0.0
O367 O 0.13898 0.51298 0.72473 0.0
C368 C 0.19147 0.63038 0.74741 0.0
O369 O 0.18976 0.62854 0.77194 0.0
C370 C 0.18722 0.58475 0.74115 0.0
C371 C 0.16424 0.57424 0.73525 0.0
C372 C 0.1599 0.54896 0.73886 0.0
C373 C 0.17716 0.53485 0.75357 0.0
C374 C 0.20001 0.54556 0.76254 0.0
C375 C 0.20511 0.57079 0.75508 0.0
C376 C 0.06803 0.5097 0.70414 0.0
O377 O 0.13184 0.5925 0.66331 0.0
C378 C 0.14004 0.53682 0.72349 0.0
C379 C 0.1975 0.62417 0.64007 0.0
C380 C 0.22093 0.61334 0.6343 0.0
C381 C 0.22493 0.6014 0.6113 0.0
C382 C 0.20599 0.60117 0.59329 0.0
C383 C 0.18324 0.61382 0.59786 0.0
C384 C 0.17883 0.62489 0.62148 0.0
C385 C 0.2383 0.5968 0.69197 0.0
O386 O 0.26265 0.59243 0.69052 0.0
H387 H 0.24192 0.54983 0.66488 0.0
H388 H 0.20456 0.53002 0.64427 0.0
H389 H 0.16208 0.55 0.64832 0.0
H390 H 0.13124 0.64406 0.65878 0.0
H391 H 0.08854 0.68675 0.71245 0.0
H392 H 0.13932 0.62958 0.73789 0.0
H393 H 0.26662 0.70371 0.73384 0.0
H394 H 0.23736 0.66087 0.67254 0.0
H395 H 0.25377 0.6242 0.74201 0.0
H396 H 0.18243 0.71095 0.68858 0.0
H397 H 0.18281 0.71829 0.735 0.0
H398 H 0.18729 0.68199 0.76456 0.0
H399 H 0.15003 0.58554 0.72636 0.0
H400 H 0.1727 0.51547 0.75759 0.0
H401 H 0.22289 0.57961 0.75953 0.0
H402 H 0.23649 0.61476 0.64709 0.0
H403 H 0.20988 0.59284 0.57512 0.0
H404 H 0.16136 0.6349 0.625 0.0
C405 C 0.45267 0.21888 0.68267 0.0
C406 C 0.47473 0.22275 0.66876 0.0
C407 C 0.48631 0.20158 0.65735 0.0
C408 C 0.47557 0.17735 0.65966 0.0
C409 C 0.45363 0.17483 0.674 0.0
N410 N 0.44396 0.1954 0.68478 0.0
C411 C 0.43774 0.15228 0.67777 0.0
C412 C 0.39829 0.13707 0.69767 0.0
C413 C 0.38548 0.12518 0.67794 0.0
C414 C 0.36682 0.1074 0.68305 0.0
C415 C 0.36091 0.10128 0.70783 0.0
C416 C 0.37373 0.11285 0.72753 0.0
C417 C 0.3924 0.13064 0.7225 0.0
Cd418 Cd 0.47178 0.09725 0.66901 0.0
Cd419 Cd 0.54709 0.1171 0.69955 0.0
C420 C 0.39019 0.24252 0.70579 0.0
C421 C 0.36475 0.26082 0.73878 0.0
C422 C 0.34341 0.25813 0.7235 0.0
C423 C 0.34565 0.2491 0.69889 0.0
C424 C 0.3695 0.24282 0.68971 0.0
C425 C 0.38811 0.25222 0.73006 0.0
Co426 Co 0.41189 0.19202 0.69725 0.0
N427 N 0.39592 0.19242 0.66426 0.0
N428 N 0.37977 0.18858 0.70971 0.0
C429 C 0.36141 0.1858 0.69293 0.0
C430 C 0.33665 0.18339 0.70167 0.0
C431 C 0.33254 0.18393 0.72792 0.0
C432 C 0.35294 0.18679 0.74473 0.0
C433 C 0.37717 0.18917 0.7346 0.0
N434 N 0.42234 0.1918 0.7325 0.0
N435 N 0.41681 0.15605 0.69267 0.0
N436 N 0.41173 0.22816 0.69895 0.0
O437 O 0.54183 0.07667 0.71748 0.0
O438 O 0.5067 0.08336 0.69721 0.0
C439 C 0.44246 0.05238 0.64939 0.0
O440 O 0.43285 0.06754 0.66543 0.0
O441 O 0.46549 0.0567 0.64417 0.0
C442 C 0.51603 0.12154 0.64382 0.0
O443 O 0.49616 0.11578 0.63209 0.0
O444 O 0.51733 0.11446 0.66614 0.0
C445 C 0.37069 0.18738 0.66688 0.0
O446 O 0.35535 0.18654 0.64759 0.0
O447 O 0.48281 0.12699 0.7081 0.0
O448 O 0.51927 0.13849 0.72604 0.0
C449 C 0.40149 0.19131 0.74771 0.0
O450 O 0.40324 0.18971 0.77224 0.0
C451 C 0.44721 0.18695 0.74174 0.0
C452 C 0.45777 0.16383 0.73601 0.0
C453 C 0.48294 0.15904 0.74043 0.0
C454 C 0.49671 0.17599 0.75577 0.0
C455 C 0.48565 0.19864 0.76456 0.0
C456 C 0.46086 0.20448 0.75647 0.0
C457 C 0.52064 0.06883 0.70985 0.0
O458 O 0.44088 0.13123 0.66383 0.0
C459 C 0.49536 0.13916 0.72516 0.0
C460 C 0.40781 0.19573 0.64018 0.0
C461 C 0.4189 0.21872 0.6337 0.0
C462 C 0.4297 0.22209 0.61004 0.0
C463 C 0.42855 0.20296 0.59214 0.0
C464 C 0.41576 0.18057 0.59759 0.0
C465 C 0.40614 0.17678 0.62191 0.0
C466 C 0.43455 0.23779 0.69209 0.0
O467 O 0.4385 0.26213 0.69037 0.0
H468 H 0.48214 0.24147 0.66585 0.0
H469 H 0.50311 0.20405 0.64608 0.0
H470 H 0.48377 0.16143 0.65007 0.0
H471 H 0.38965 0.12984 0.65866 0.0
H472 H 0.34645 0.08754 0.71176 0.0
H473 H 0.40225 0.13924 0.73797 0.0
H474 H 0.32535 0.2653 0.72992 0.0
H475 H 0.37178 0.23684 0.67045 0.0
H476 H 0.40454 0.25296 0.74205 0.0
H477 H 0.32104 0.18152 0.68881 0.0
H478 H 0.31357 0.1822 0.73521 0.0
H479 H 0.34982 0.18704 0.76479 0.0
H480 H 0.44659 0.14979 0.72679 0.0
H481 H 0.51626 0.17211 0.76012 0.0
H482 H 0.45219 0.2222 0.76175 0.0
H483 H 0.41841 0.23449 0.64638 0.0
H484 H 0.43606 0.20643 0.57357 0.0
H485 H 0.39634 0.15951 0.62631 0.0
C486 C 0.81317 0.44958 0.68406 0.0
C487 C 0.80883 0.47156 0.67034 0.0
C488 C 0.82969 0.48301 0.65835 0.0
C489 C 0.85403 0.47221 0.65994 0.0
C490 C 0.857 0.45036 0.67414 0.0
N491 N 0.83675 0.44082 0.68545 0.0
C492 C 0.87976 0.43461 0.67756 0.0
C493 C 0.89586 0.39572 0.69773 0.0
C494 C 0.90738 0.38239 0.678 0.0
C495 C 0.9254 0.36388 0.68309 0.0
C496 C 0.93211 0.35866 0.70783 0.0
C497 C 0.9209 0.37201 0.72753 0.0
C498 C 0.90287 0.39052 0.72252 0.0
Cd499 Cd 0.93206 0.47044 0.6648 0.0
Cd500 Cd 0.9122 0.5458 0.69565 0.0
C501 C 0.79043 0.38744 0.70787 0.0
C502 C 0.77089 0.36321 0.7408 0.0
C503 C 0.77367 0.34151 0.72593 0.0
C504 C 0.78321 0.34303 0.70147 0.0
C505 C 0.79014 0.36648 0.69212 0.0
C506 C 0.78017 0.38614 0.73197 0.0
Co507 Co 0.84073 0.409 0.69806 0.0
N508 N 0.84004 0.39261 0.66518 0.0
N509 N 0.84471 0.37714 0.7107 0.0
C510 C 0.84732 0.35857 0.694 0.0
C511 C 0.84986 0.33396 0.70291 0.0
C512 C 0.8497 0.33024 0.7292 0.0
C513 C 0.84709 0.35086 0.7459 0.0
C514 C 0.8445 0.37492 0.73562 0.0
N515 N 0.84152 0.41996 0.73313 0.0
N516 N 0.87656 0.41401 0.69282 0.0
N517 N 0.80456 0.40882 0.70054 0.0
O518 O 0.95388 0.5414 0.71049 0.0
O519 O 0.9496 0.5055 0.69038 0.0
C520 C 0.97481 0.44019 0.6426 0.0
O521 O 0.96773 0.43666 0.66527 0.0
O522 O 0.96346 0.45803 0.63143 0.0
C523 C 0.90652 0.51454 0.64125 0.0
O524 O 0.91192 0.49492 0.62887 0.0
O525 O 0.91423 0.51535 0.66335 0.0
C526 C 0.84535 0.36747 0.66789 0.0
O527 O 0.84605 0.35193 0.64868 0.0
O528 O 0.90283 0.48153 0.70438 0.0
O529 O 0.89178 0.51804 0.72278 0.0
C530 C 0.84242 0.39943 0.74855 0.0
O531 O 0.8443 0.40159 0.77303 0.0
C532 C 0.84579 0.44512 0.74181 0.0
C533 C 0.86827 0.45624 0.73499 0.0
C534 C 0.87173 0.48179 0.73773 0.0
C535 C 0.85436 0.49572 0.7526 0.0
C536 C 0.8322 0.48448 0.7626 0.0
C537 C 0.82777 0.45887 0.756 0.0
C538 C 0.96306 0.5207 0.70278 0.0
O539 O 0.90034 0.43742 0.66294 0.0
C540 C 0.89097 0.49416 0.72172 0.0
C541 C 0.83624 0.40434 0.64117 0.0
C542 C 0.8131 0.41573 0.63553 0.0
C543 C 0.80935 0.4274 0.61246 0.0
C544 C 0.82825 0.42689 0.59428 0.0
C545 C 0.85075 0.41384 0.59876 0.0
C546 C 0.8549 0.40292 0.62239 0.0
C547 C 0.7946 0.43158 0.69401 0.0
O548 O 0.77016 0.4355 0.69294 0.0
H549 H 0.78999 0.47902 0.66801 0.0
H550 H 0.82687 0.49977 0.64722 0.0
H551 H 0.8697 0.4803 0.64998 0.0
H552 H 0.90222 0.38601 0.65876 0.0
H553 H 0.94604 0.34432 0.71175 0.0
H554 H 0.89451 0.40078 0.73797 0.0
H555 H 0.7659 0.32381 0.73238 0.0
H556 H 0.79625 0.3683 0.67287 0.0
H557 H 0.77921 0.40288 0.74359 0.0
H558 H 0.85156 0.31818 0.69015 0.0
H559 H 0.85156 0.3114 0.73662 0.0
H560 H 0.84712 0.34804 0.76598 0.0
H561 H 0.88273 0.44515 0.72609 0.0
H562 H 0.85825 0.51535 0.75602 0.0
H563 H 0.8104 0.44966 0.7613 0.0
H564 H 0.79754 0.41489 0.64847 0.0
H565 H 0.82451 0.43503 0.57607 0.0
H566 H 0.87209 0.39246 0.62578 0.0
C567 C 0.57857 0.81399 0.683 0.0
C568 C 0.55662 0.81042 0.66899 0.0
C569 C 0.54575 0.83167 0.65724 0.0
C570 C 0.55708 0.85564 0.65932 0.0
C571 C 0.57884 0.85785 0.67379 0.0
N572 N 0.58782 0.83727 0.68489 0.0
C573 C 0.59504 0.88014 0.6777 0.0
C574 C 0.63415 0.89488 0.69844 0.0
C575 C 0.6481 0.90613 0.67907 0.0
C576 C 0.66703 0.92345 0.68471 0.0
C577 C 0.67205 0.92974 0.70964 0.0
C578 C 0.65807 0.91881 0.72897 0.0
C579 C 0.63914 0.90148 0.72341 0.0
Cd580 Cd 0.559 0.93265 0.66435 0.0
Cd581 Cd 0.48303 0.91342 0.69543 0.0
C582 C 0.64019 0.78908 0.70646 0.0
C583 C 0.6636 0.76797 0.73899 0.0
C584 C 0.6857 0.77116 0.7248 0.0
C585 C 0.68479 0.78165 0.70077 0.0
C586 C 0.66155 0.78899 0.69112 0.0
C587 C 0.64085 0.77773 0.73007 0.0
Co588 Co 0.61975 0.84018 0.69758 0.0
N589 N 0.63609 0.83939 0.6647 0.0
N590 N 0.65173 0.84316 0.7102 0.0
C591 C 0.67031 0.84584 0.69349 0.0
C592 C 0.69497 0.84809 0.70239 0.0
C593 C 0.69872 0.84761 0.72867 0.0
C594 C 0.67807 0.84502 0.74537 0.0
C595 C 0.65395 0.84276 0.73511 0.0
N596 N 0.6088 0.84096 0.73263 0.0
N597 N 0.61551 0.87617 0.69297 0.0
N598 N 0.61914 0.80399 0.69944 0.0
O599 O 0.48789 0.95489 0.71006 0.0
O600 O 0.52405 0.95133 0.68983 0.0
C601 C 0.58992 0.97514 0.64171 0.0
O602 O 0.5917 0.96967 0.66499 0.0
O603 O 0.57363 0.96224 0.6299 0.0
C604 C 0.5141 0.90751 0.64103 0.0
O605 O 0.53377 0.9127 0.62862 0.0
O606 O 0.51338 0.91534 0.66315 0.0
C607 C 0.66131 0.84436 0.66736 0.0
O608 O 0.67681 0.84501 0.64808 0.0
O609 O 0.54746 0.90283 0.70373 0.0
O610 O 0.51075 0.89221 0.72204 0.0
C611 C 0.62937 0.84116 0.74805 0.0
O612 O 0.62722 0.84282 0.77256 0.0
C613 C 0.58361 0.84551 0.74133 0.0
C614 C 0.57247 0.86796 0.73446 0.0
C615 C 0.54681 0.87145 0.73682 0.0
C616 C 0.53271 0.85411 0.75149 0.0
C617 C 0.54404 0.8321 0.76176 0.0
C618 C 0.56976 0.82763 0.75534 0.0
C619 C 0.50844 0.96439 0.70244 0.0
O620 O 0.59263 0.90102 0.66357 0.0
C621 C 0.53465 0.89094 0.72089 0.0
C622 C 0.62422 0.83527 0.64084 0.0
C623 C 0.61334 0.81193 0.63527 0.0
C624 C 0.60104 0.80804 0.61255 0.0
C625 C 0.60048 0.82699 0.59459 0.0
C626 C 0.61317 0.84965 0.5989 0.0
C627 C 0.62465 0.85397 0.62226 0.0
C628 C 0.59611 0.79482 0.69271 0.0
O629 O 0.59161 0.77056 0.69114 0.0
H630 H 0.54879 0.79184 0.66625 0.0
H631 H 0.52904 0.82943 0.64589 0.0
H632 H 0.54946 0.87159 0.64953 0.0
H633 H 0.64466 0.90122 0.6597 0.0
H634 H 0.68673 0.94312 0.71397 0.0
H635 H 0.6284 0.89331 0.73858 0.0
H636 H 0.70332 0.76326 0.73144 0.0
H637 H 0.66028 0.79568 0.67208 0.0
H638 H 0.62385 0.77656 0.74133 0.0
H639 H 0.71077 0.84984 0.68962 0.0
H640 H 0.7176 0.84925 0.73608 0.0
H641 H 0.68091 0.84491 0.76546 0.0
H642 H 0.58367 0.88238 0.72582 0.0
H643 H 0.51294 0.85789 0.75459 0.0
H644 H 0.57903 0.81029 0.76062 0.0
H645 H 0.61494 0.79638 0.64804 0.0
H646 H 0.59192 0.82316 0.57658 0.0
H647 H 0.63473 0.87134 0.62558 0.0
C648 C 0.34626 0.21685 0.45022 0.0
C649 C 0.3594 0.22031 0.47266 0.0
C650 C 0.37088 0.19899 0.48375 0.0
C651 C 0.36943 0.17503 0.47218 0.0
C652 C 0.35597 0.173 0.44979 0.0
N653 N 0.34502 0.19364 0.44067 0.0
C654 C 0.35259 0.15079 0.43335 0.0
C655 C 0.33215 0.13602 0.39423 0.0
C656 C 0.35169 0.12483 0.38027 0.0
C657 C 0.34617 0.10727 0.36155 0.0
C658 C 0.32118 0.10067 0.35676 0.0
C659 C 0.30168 0.11155 0.37075 0.0
C660 C 0.30713 0.12912 0.38947 0.0
Cd661 Cd 0.36154 0.09708 0.46741 0.0
Cd662 Cd 0.32465 0.10764 0.54244 0.0
C663 C 0.3233 0.24169 0.38863 0.0
C664 C 0.2903 0.26082 0.36403 0.0
C665 C 0.30559 0.25831 0.34262 0.0
C666 C 0.33026 0.24917 0.34446 0.0
C667 C 0.33948 0.24239 0.36793 0.0
C668 C 0.29898 0.25171 0.38702 0.0
Co669 Co 0.3325 0.19077 0.40881 0.0
N670 N 0.36555 0.19194 0.39278 0.0
N671 N 0.32 0.18777 0.3769 0.0
C672 C 0.33693 0.1854 0.35848 0.0
C673 C 0.32815 0.18307 0.33388 0.0
C674 C 0.30175 0.18318 0.33002 0.0
C675 C 0.28481 0.18548 0.35051 0.0
C676 C 0.29498 0.1878 0.37457 0.0
N677 N 0.29729 0.18976 0.41948 0.0
N678 N 0.33751 0.1548 0.4128 0.0
N679 N 0.33016 0.2269 0.40968 0.0
O680 O 0.30588 0.06965 0.52748 0.0
O681 O 0.32703 0.0854 0.49633 0.0
C682 C 0.38277 0.05207 0.43969 0.0
O683 O 0.36525 0.0656 0.43027 0.0
O684 O 0.38868 0.05792 0.46211 0.0
C685 C 0.38397 0.11704 0.51586 0.0
O686 O 0.39597 0.11406 0.49546 0.0
O687 O 0.36211 0.10795 0.51672 0.0
C688 C 0.36311 0.18715 0.36761 0.0
O689 O 0.38259 0.18677 0.3523 0.0
O690 O 0.32381 0.12721 0.48125 0.0
O691 O 0.30284 0.13608 0.51681 0.0
C692 C 0.28185 0.18928 0.39898 0.0
O693 O 0.25723 0.18748 0.40105 0.0
C694 C 0.28859 0.18578 0.44457 0.0
C695 C 0.29532 0.16343 0.45585 0.0
C696 C 0.29226 0.16007 0.48132 0.0
C697 C 0.27772 0.17775 0.49513 0.0
C698 C 0.2681 0.19995 0.48374 0.0
C699 C 0.27473 0.20408 0.45818 0.0
C700 C 0.31638 0.06668 0.50626 0.0
O701 O 0.36679 0.12984 0.43585 0.0
C702 C 0.30637 0.13935 0.49345 0.0
C703 C 0.38936 0.19606 0.40487 0.0
C704 C 0.39471 0.21925 0.4162 0.0
C705 C 0.41745 0.22299 0.42867 0.0
C706 C 0.43565 0.20404 0.42897 0.0
C707 C 0.43148 0.18157 0.41588 0.0
C708 C 0.40808 0.17738 0.40434 0.0
C709 C 0.33649 0.23604 0.43277 0.0
O710 O 0.33753 0.26028 0.43753 0.0
H711 H 0.36155 0.23883 0.48084 0.0
H712 H 0.38141 0.20114 0.50095 0.0
H713 H 0.37877 0.15892 0.48027 0.0
H714 H 0.3711 0.12994 0.38359 0.0
H715 H 0.31693 0.0871 0.34225 0.0
H716 H 0.29183 0.13721 0.40025 0.0
H717 H 0.29917 0.26579 0.32484 0.0
H718 H 0.35886 0.23642 0.36986 0.0
H719 H 0.28696 0.25233 0.40349 0.0
H720 H 0.34109 0.18154 0.31821 0.0
H721 H 0.29443 0.18149 0.31119 0.0
H722 H 0.26465 0.18533 0.34759 0.0
H723 H 0.30405 0.14883 0.44481 0.0
H724 H 0.27405 0.17396 0.51468 0.0
H725 H 0.26971 0.22142 0.44884 0.0
H726 H 0.38177 0.23479 0.41484 0.0
H727 H 0.45366 0.20773 0.4377 0.0
H728 H 0.40482 0.16006 0.39411 0.0
C729 C 0.81203 0.34554 0.44914 0.0
C730 C 0.80777 0.36037 0.47045 0.0
C731 C 0.82864 0.37277 0.48126 0.0
C732 C 0.85293 0.37037 0.47054 0.0
C733 C 0.85598 0.35465 0.44973 0.0
N734 N 0.83566 0.34323 0.44057 0.0
C735 C 0.8787 0.35071 0.43401 0.0
C736 C 0.89438 0.33038 0.39492 0.0
C737 C 0.90611 0.35019 0.38202 0.0
C738 C 0.92387 0.34508 0.36326 0.0
C739 C 0.93013 0.32022 0.35731 0.0
C740 C 0.91868 0.30044 0.37017 0.0
C741 C 0.90092 0.30547 0.38894 0.0
Cd742 Cd 0.93294 0.36153 0.46794 0.0
Cd743 Cd 0.90419 0.33262 0.53937 0.0
C744 C 0.78886 0.32186 0.38727 0.0
C745 C 0.76961 0.28887 0.36287 0.0
C746 C 0.77246 0.30375 0.34131 0.0
C747 C 0.78198 0.32824 0.34295 0.0
C748 C 0.78868 0.33767 0.3664 0.0
C749 C 0.77861 0.29776 0.38582 0.0
Co750 Co 0.83934 0.33068 0.40868 0.0
N751 N 0.83883 0.36372 0.39264 0.0
N752 N 0.84303 0.3181 0.37679 0.0
C753 C 0.84583 0.33488 0.35843 0.0
C754 C 0.84819 0.326 0.33381 0.0
C755 C 0.84762 0.29965 0.32986 0.0
C756 C 0.84479 0.28287 0.35026 0.0
C757 C 0.84242 0.29313 0.37434 0.0
N758 N 0.83983 0.29545 0.4193 0.0
N759 N 0.87529 0.33537 0.41346 0.0
N760 N 0.80314 0.32888 0.40859 0.0
O761 O 0.9475 0.33174 0.54347 0.0
O762 O 0.95604 0.34602 0.50497 0.0
C763 C 0.9752 0.38429 0.4374 0.0
O764 O 0.96789 0.36178 0.43306 0.0
O765 O 0.9638 0.3951 0.45546 0.0
C766 C 0.9047 0.38373 0.50986 0.0
O767 O 0.91373 0.39774 0.49299 0.0
O768 O 0.9072 0.36053 0.50658 0.0
C769 C 0.84413 0.36107 0.36756 0.0
O770 O 0.84488 0.3804 0.35225 0.0
O771 O 0.90581 0.31923 0.47839 0.0
O772 O 0.8971 0.29795 0.51367 0.0
C773 C 0.84032 0.28009 0.39864 0.0
O774 O 0.84205 0.25549 0.40051 0.0
C775 C 0.84524 0.2863 0.44396 0.0
C776 C 0.86895 0.29122 0.45353 0.0
C777 C 0.87481 0.28573 0.47814 0.0
C778 C 0.85771 0.27078 0.49236 0.0
C779 C 0.8341 0.2634 0.48243 0.0
C780 C 0.82769 0.27215 0.45817 0.0
C781 C 0.96293 0.33769 0.52628 0.0
O782 O 0.89941 0.3651 0.43679 0.0
C783 C 0.8955 0.3003 0.49005 0.0
C784 C 0.83443 0.38775 0.40441 0.0
C785 C 0.8108 0.39352 0.41479 0.0
C786 C 0.80654 0.41664 0.4265 0.0
C787 C 0.82541 0.43478 0.42693 0.0
C788 C 0.84836 0.43022 0.41466 0.0
C789 C 0.85305 0.40647 0.40388 0.0
C790 C 0.79331 0.3358 0.43127 0.0
O791 O 0.7689 0.33763 0.43514 0.0
H792 H 0.78891 0.36351 0.47763 0.0
H793 H 0.82582 0.38506 0.49723 0.0
H794 H 0.86837 0.38133 0.47753 0.0
H795 H 0.90126 0.36953 0.38615 0.0
H796 H 0.94385 0.3163 0.34277 0.0
H797 H 0.89238 0.28989 0.39875 0.0
H798 H 0.76496 0.2972 0.32358 0.0
H799 H 0.79489 0.35692 0.36825 0.0
H800 H 0.77764 0.28608 0.40242 0.0
H801 H 0.85002 0.33883 0.31819 0.0
H802 H 0.84931 0.29224 0.31101 0.0
H803 H 0.84451 0.26272 0.34727 0.0
H804 H 0.88276 0.30051 0.44208 0.0
H805 H 0.86214 0.26587 0.51155 0.0
H806 H 0.80947 0.2677 0.45023 0.0
H807 H 0.79529 0.38065 0.41317 0.0
H808 H 0.82132 0.45305 0.43503 0.0
H809 H 0.87067 0.40295 0.39416 0.0
C810 C 0.69189 0.81095 0.45004 0.0
C811 C 0.67833 0.80602 0.47205 0.0
C812 C 0.66565 0.82634 0.48388 0.0
C813 C 0.66632 0.85078 0.47343 0.0
C814 C 0.68037 0.85441 0.45153 0.0
N815 N 0.69241 0.83463 0.44165 0.0
C816 C 0.68268 0.87735 0.43595 0.0
C817 C 0.70208 0.89432 0.3971 0.0
C818 C 0.68178 0.90519 0.38417 0.0
C819 C 0.68614 0.92331 0.36573 0.0
C820 C 0.71072 0.93083 0.36018 0.0
C821 C 0.73097 0.92037 0.37319 0.0
C822 C 0.72668 0.90225 0.39164 0.0
Cd823 Cd 0.66692 0.93157 0.46938 0.0
Cd824 Cd 0.6941 0.90826 0.54435 0.0
C825 C 0.7109 0.78938 0.38603 0.0
C826 C 0.73782 0.778 0.35103 0.0
C827 C 0.71971 0.78914 0.33548 0.0
C828 C 0.69472 0.78913 0.34388 0.0
C829 C 0.69034 0.78911 0.36972 0.0
C830 C 0.73455 0.7812 0.37709 0.0
Co831 Co 0.70454 0.83919 0.40981 0.0
N832 N 0.67124 0.83742 0.39406 0.0
N833 N 0.71677 0.84379 0.37797 0.0
C834 C 0.69968 0.84672 0.35993 0.0
C835 C 0.70821 0.85156 0.33557 0.0
C836 C 0.73455 0.85316 0.33153 0.0
C837 C 0.75166 0.85011 0.35163 0.0
C838 C 0.74175 0.8453 0.37548 0.0
N839 N 0.73972 0.84155 0.4203 0.0
N840 N 0.69794 0.87477 0.4152 0.0
N841 N 0.70864 0.803 0.40899 0.0
O842 O 0.70417 0.95096 0.54435 0.0
O843 O 0.68782 0.95238 0.50606 0.0
C844 C 0.64444 0.97306 0.43696 0.0
O845 O 0.66822 0.96892 0.43696 0.0
O846 O 0.63202 0.95897 0.45171 0.0
C847 C 0.64282 0.90529 0.51174 0.0
O848 O 0.62991 0.91193 0.49304 0.0
O849 O 0.66555 0.91134 0.51149 0.0
C850 C 0.6736 0.8435 0.36913 0.0
O851 O 0.65414 0.84419 0.35395 0.0
O852 O 0.70776 0.90291 0.48049 0.0
O853 O 0.72461 0.89161 0.51746 0.0
C854 C 0.75502 0.84351 0.39969 0.0
O855 O 0.77945 0.84702 0.40163 0.0
C856 C 0.74816 0.84659 0.44531 0.0
C857 C 0.74069 0.86908 0.4562 0.0
C858 C 0.7421 0.87252 0.48182 0.0
C859 C 0.75629 0.85503 0.49624 0.0
C860 C 0.76747 0.83332 0.48511 0.0
C861 C 0.7622 0.82892 0.45934 0.0
C862 C 0.69842 0.96298 0.52465 0.0
O863 O 0.66688 0.89714 0.43876 0.0
C864 C 0.72491 0.89135 0.49364 0.0
C865 C 0.64714 0.83405 0.4063 0.0
C866 C 0.64167 0.81177 0.41923 0.0
C867 C 0.61865 0.80874 0.43155 0.0
C868 C 0.60025 0.82744 0.43024 0.0
C869 C 0.60446 0.84892 0.41569 0.0
C870 C 0.62812 0.85241 0.40418 0.0
C871 C 0.70198 0.79271 0.43151 0.0
O872 O 0.69993 0.76826 0.43454 0.0
H873 H 0.67657 0.78708 0.47921 0.0
H874 H 0.65462 0.82299 0.50065 0.0
H875 H 0.65577 0.86599 0.48181 0.0
H876 H 0.66266 0.89944 0.38804 0.0
H877 H 0.71407 0.94482 0.34588 0.0
H878 H 0.74259 0.89452 0.40161 0.0
H879 H 0.7235 0.79017 0.31552 0.0
H880 H 0.67128 0.79036 0.37686 0.0
H881 H 0.74956 0.777 0.39011 0.0
H882 H 0.69513 0.85383 0.32021 0.0
H883 H 0.74169 0.85687 0.31287 0.0
H884 H 0.77177 0.85179 0.34863 0.0
H885 H 0.73192 0.88333 0.44489 0.0
H886 H 0.75762 0.85772 0.5163 0.0
H887 H 0.76886 0.81206 0.45001 0.0
H888 H 0.6547 0.79626 0.41925 0.0
H889 H 0.58213 0.82424 0.43907 0.0
H890 H 0.63136 0.86899 0.3929 0.0
C891 C 0.21859 0.68384 0.44854 0.0
C892 C 0.22275 0.66964 0.4702 0.0
C893 C 0.20177 0.65779 0.48153 0.0
C894 C 0.17746 0.65999 0.47095 0.0
C895 C 0.17465 0.67467 0.44944 0.0
N896 N 0.19503 0.68587 0.43999 0.0
C897 C 0.15195 0.67844 0.43382 0.0
C898 C 0.13626 0.69869 0.395 0.0
C899 C 0.12471 0.67897 0.38182 0.0
C900 C 0.10674 0.6842 0.36345 0.0
C901 C 0.10011 0.70908 0.35821 0.0
C902 C 0.11137 0.72877 0.3714 0.0
C903 C 0.12935 0.72362 0.38977 0.0
Cd904 Cd 0.0984 0.66738 0.46952 0.0
Cd905 Cd 0.12041 0.69754 0.54429 0.0
C906 C 0.24195 0.70857 0.38701 0.0
C907 C 0.26282 0.74221 0.36497 0.0
C908 C 0.25925 0.72907 0.34236 0.0
C909 C 0.24862 0.70498 0.34228 0.0
C910 C 0.24157 0.69427 0.36507 0.0
C911 C 0.25329 0.73223 0.38727 0.0
Co912 Co 0.19139 0.69843 0.40818 0.0
N913 N 0.19212 0.66537 0.39211 0.0
N914 N 0.18761 0.71089 0.37633 0.0
C915 C 0.18456 0.69399 0.35804 0.0
C916 C 0.18165 0.70272 0.33349 0.0
C917 C 0.18186 0.72906 0.32953 0.0
C918 C 0.18488 0.74597 0.34987 0.0
C919 C 0.1878 0.73586 0.37388 0.0
N920 N 0.19076 0.73378 0.41879 0.0
N921 N 0.15544 0.6936 0.41322 0.0
N922 N 0.22761 0.70042 0.40796 0.0
O923 O 0.07924 0.71286 0.54098 0.0
O924 O 0.07955 0.69324 0.50431 0.0
C925 C 0.05482 0.64536 0.43992 0.0
O926 O 0.06454 0.66648 0.43382 0.0
O927 O 0.06409 0.63567 0.45967 0.0
C928 C 0.12405 0.64366 0.51303 0.0
O929 O 0.1183 0.63106 0.49375 0.0
O930 O 0.11657 0.666 0.51365 0.0
C931 C 0.18651 0.66786 0.36713 0.0
O932 O 0.18577 0.64844 0.35183 0.0
O933 O 0.12832 0.70684 0.4804 0.0
O934 O 0.14033 0.72485 0.5166 0.0
C935 C 0.18997 0.74904 0.39816 0.0
O936 O 0.18815 0.77365 0.40007 0.0
C937 C 0.18632 0.74291 0.44374 0.0
C938 C 0.16376 0.73636 0.45488 0.0
C939 C 0.15991 0.73981 0.48021 0.0
C940 C 0.17706 0.75507 0.49382 0.0
C941 C 0.1993 0.76488 0.4825 0.0
C942 C 0.20406 0.75762 0.45715 0.0
C943 C 0.0682 0.70618 0.521 0.0
O944 O 0.13104 0.66434 0.43691 0.0
C945 C 0.1406 0.724 0.4928 0.0
C946 C 0.19693 0.64145 0.40375 0.0
C947 C 0.22078 0.63585 0.4135 0.0
C948 C 0.22548 0.61264 0.42475 0.0
C949 C 0.20678 0.59428 0.42536 0.0
C950 C 0.18354 0.5988 0.41383 0.0
C951 C 0.17846 0.62262 0.40355 0.0
C952 C 0.23734 0.69366 0.43064 0.0
O953 O 0.26174 0.69242 0.43464 0.0
H954 H 0.24156 0.6668 0.47744 0.0
H955 H 0.20446 0.64626 0.498 0.0
H956 H 0.16171 0.65002 0.47889 0.0
H957 H 0.12984 0.65962 0.38545 0.0
H958 H 0.08622 0.71311 0.34399 0.0
H959 H 0.13774 0.73907 0.39992 0.0
H960 H 0.26707 0.73647 0.32507 0.0
H961 H 0.2348 0.67516 0.36564 0.0
H962 H 0.2548 0.74265 0.40469 0.0
H963 H 0.17961 0.68979 0.31793 0.0
H964 H 0.17972 0.73635 0.31073 0.0
H965 H 0.18479 0.7661 0.34687 0.0
H966 H 0.14949 0.72717 0.44397 0.0
H967 H 0.17292 0.75898 0.51329 0.0
H968 H 0.22145 0.76284 0.4479 0.0
H969 H 0.23613 0.64891 0.41169 0.0
H970 H 0.21117 0.57598 0.4331 0.0
H971 H 0.16059 0.62612 0.39443 0.0
C972 C 0.3436 0.81275 0.57551 0.0
C973 C 0.35804 0.80852 0.55389 0.0
C974 C 0.37084 0.82925 0.54325 0.0
C975 C 0.36926 0.85336 0.55442 0.0
C976 C 0.35408 0.85636 0.57567 0.0
N977 N 0.34217 0.83619 0.58458 0.0
C978 C 0.35071 0.87889 0.59174 0.0
C979 C 0.33045 0.89435 0.63095 0.0
C980 C 0.35029 0.90511 0.64459 0.0
C981 C 0.34523 0.92271 0.66347 0.0
C982 C 0.3204 0.92977 0.66878 0.0
C983 C 0.3006 0.91932 0.65513 0.0
C984 C 0.30558 0.90171 0.63625 0.0
Cd985 Cd 0.36506 0.9331 0.55767 0.0
Cd986 Cd 0.3387 0.90738 0.48339 0.0
C987 C 0.3199 0.78902 0.63717 0.0
C988 C 0.28761 0.77031 0.66311 0.0
C989 C 0.30404 0.77163 0.68362 0.0
C990 C 0.32888 0.77974 0.68053 0.0
C991 C 0.33712 0.78706 0.65683 0.0
C992 C 0.29537 0.77987 0.63994 0.0
Co993 Co 0.32946 0.83964 0.61643 0.0
N994 N 0.3624 0.83759 0.63262 0.0
N995 N 0.3167 0.84304 0.6483 0.0
C996 C 0.33344 0.84446 0.66685 0.0
C997 C 0.32441 0.84649 0.69145 0.0
C998 C 0.29798 0.84703 0.69521 0.0
C999 C 0.28125 0.84556 0.67462 0.0
C1000 C 0.29166 0.84345 0.65056 0.0
N1001 N 0.29438 0.8417 0.60564 0.0
N1002 N 0.33533 0.87544 0.61229 0.0
N1003 N 0.32634 0.80358 0.61583 0.0
O1004 O 0.33335 0.95079 0.48046 0.0
O1005 O 0.34842 0.9547 0.51911 0.0
C1006 C 0.38739 0.97431 0.59051 0.0
O1007 O 0.36357 0.97056 0.59016 0.0
O1008 O 0.39987 0.96 0.57589 0.0
C1009 C 0.38912 0.90555 0.51617 0.0
O1010 O 0.40221 0.91297 0.53447 0.0
O1011 O 0.36611 0.9106 0.51702 0.0
C1012 C 0.35967 0.84206 0.65785 0.0
O1013 O 0.37894 0.84182 0.67328 0.0
O1014 O 0.32383 0.9047 0.54634 0.0
O1015 O 0.30622 0.89391 0.50954 0.0
C1016 C 0.27877 0.84245 0.62611 0.0
O1017 O 0.25423 0.84507 0.62402 0.0
C1018 C 0.28591 0.84686 0.58072 0.0
C1019 C 0.29245 0.86978 0.57042 0.0
C1020 C 0.28977 0.8741 0.54507 0.0
C1021 C 0.27533 0.85681 0.53054 0.0
C1022 C 0.26566 0.83414 0.54107 0.0
C1023 C 0.2723 0.8291 0.56642 0.0
C1024 C 0.33985 0.96437 0.49896 0.0
O1025 O 0.36548 0.89938 0.58921 0.0
C1026 C 0.30631 0.89347 0.53336 0.0
C1027 C 0.3865 0.83372 0.62069 0.0
C1028 C 0.39218 0.81079 0.60891 0.0
C1029 C 0.41529 0.80721 0.59684 0.0
C1030 C 0.43348 0.82605 0.59734 0.0
C1031 C 0.42898 0.84826 0.61085 0.0
C1032 C 0.40527 0.85224 0.62211 0.0
C1033 C 0.33326 0.79399 0.59305 0.0
O1034 O 0.3346 0.76965 0.58883 0.0
H1035 H 0.36046 0.78978 0.54627 0.0
H1036 H 0.38273 0.82644 0.52694 0.0
H1037 H 0.38021 0.86874 0.54727 0.0
H1038 H 0.36959 0.89967 0.6409 0.0
H1039 H 0.31651 0.94337 0.68341 0.0
H1040 H 0.29003 0.89396 0.62578 0.0
H1041 H 0.2984 0.76375 0.70153 0.0
H1042 H 0.3566 0.79226 0.65397 0.0
H1043 H 0.2826 0.77999 0.62413 0.0
H1044 H 0.33719 0.84731 0.7072 0.0
H1045 H 0.29046 0.84851 0.71404 0.0
H1046 H 0.26105 0.84609 0.67746 0.0
H1047 H 0.30137 0.88378 0.58194 0.0
H1048 H 0.27219 0.86098 0.51099 0.0
H1049 H 0.26756 0.81136 0.57511 0.0
H1050 H 0.37919 0.7953 0.60959 0.0
H1051 H 0.45169 0.82248 0.5888 0.0
H1052 H 0.40178 0.8693 0.63271 0.0
C1053 C 0.2169 0.34581 0.57497 0.0
C1054 C 0.22019 0.35881 0.55242 0.0
C1055 C 0.19872 0.37009 0.54137 0.0
C1056 C 0.17478 0.36858 0.55308 0.0
C1057 C 0.17293 0.35529 0.5756 0.0
N1058 N 0.19371 0.34459 0.58471 0.0
C1059 C 0.15077 0.35179 0.59214 0.0
C1060 C 0.13623 0.33174 0.63154 0.0
C1061 C 0.12502 0.35143 0.64525 0.0
C1062 C 0.10739 0.34616 0.66404 0.0
C1063 C 0.10077 0.32127 0.66918 0.0
C1064 C 0.11168 0.30163 0.65545 0.0
C1065 C 0.12931 0.30683 0.63665 0.0
Cd1066 Cd 0.0965 0.35995 0.55861 0.0
Cd1067 Cd 0.10452 0.32188 0.48434 0.0
C1068 C 0.24223 0.32275 0.63633 0.0
C1069 C 0.26216 0.28979 0.66029 0.0
C1070 C 0.25992 0.30483 0.68187 0.0
C1071 C 0.25052 0.3294 0.6804 0.0
C1072 C 0.24314 0.33875 0.65715 0.0
C1073 C 0.25256 0.29857 0.63755 0.0
Co1074 Co 0.19102 0.33193 0.61656 0.0
N1075 N 0.19224 0.3648 0.63273 0.0
N1076 N 0.18821 0.31926 0.64843 0.0
C1077 C 0.18596 0.33604 0.66695 0.0
C1078 C 0.18377 0.32712 0.69152 0.0
C1079 C 0.18389 0.30074 0.69524 0.0
C1080 C 0.18606 0.28396 0.67466 0.0
C1081 C 0.18826 0.29426 0.65064 0.0
N1082 N 0.18999 0.29686 0.60573 0.0
N1083 N 0.15494 0.33688 0.61277 0.0
N1084 N 0.22722 0.3297 0.61545 0.0
O1085 O 0.06669 0.30325 0.50074 0.0
O1086 O 0.08344 0.32598 0.53011 0.0
C1087 C 0.05189 0.38054 0.58695 0.0
O1088 O 0.06625 0.36381 0.59651 0.0
O1089 O 0.05693 0.38607 0.56423 0.0
C1090 C 0.11522 0.38212 0.5095 0.0
O1091 O 0.11287 0.39399 0.53005 0.0
O1092 O 0.10625 0.36022 0.50891 0.0
C1093 C 0.18764 0.36222 0.65793 0.0
O1094 O 0.18739 0.38157 0.67334 0.0
O1095 O 0.12618 0.32226 0.54462 0.0
O1096 O 0.13395 0.30042 0.5094 0.0
C1097 C 0.1896 0.28132 0.62616 0.0
O1098 O 0.18774 0.25676 0.62398 0.0
C1099 C 0.18581 0.28827 0.58065 0.0
C1100 C 0.16314 0.29458 0.56972 0.0
C1101 C 0.15931 0.2911 0.54436 0.0
C1102 C 0.17702 0.27675 0.53037 0.0
C1103 C 0.19965 0.2677 0.54143 0.0
C1104 C 0.20412 0.27465 0.56683 0.0
C1105 C 0.06458 0.31429 0.52176 0.0
O1106 O 0.12968 0.36578 0.58959 0.0
C1107 C 0.13802 0.3046 0.53252 0.0
C1108 C 0.19628 0.38863 0.62073 0.0
C1109 C 0.2194 0.39403 0.60917 0.0
C1110 C 0.22308 0.41688 0.59692 0.0
C1111 C 0.20417 0.43511 0.59709 0.0
C1112 C 0.18181 0.43085 0.61044 0.0
C1113 C 0.17765 0.40734 0.62171 0.0
C1114 C 0.23622 0.33604 0.59228 0.0
O1115 O 0.26047 0.33706 0.58731 0.0
H1116 H 0.23868 0.36095 0.54407 0.0
H1117 H 0.20073 0.3805 0.52406 0.0
H1118 H 0.15853 0.37771 0.54498 0.0
H1119 H 0.13011 0.37076 0.64164 0.0
H1120 H 0.08715 0.31722 0.68374 0.0
H1121 H 0.13739 0.29142 0.62605 0.0
H1122 H 0.26774 0.29831 0.69948 0.0
H1123 H 0.23698 0.35806 0.65552 0.0
H1124 H 0.25305 0.28674 0.62098 0.0
H1125 H 0.18233 0.33994 0.70726 0.0
H1126 H 0.1823 0.29331 0.71405 0.0
H1127 H 0.18591 0.26381 0.67747 0.0
H1128 H 0.14859 0.3032 0.58095 0.0
H1129 H 0.17293 0.2728 0.51094 0.0
H1130 H 0.22171 0.27003 0.57592 0.0
H1131 H 0.23496 0.38108 0.61024 0.0
H1132 H 0.20784 0.45321 0.58857 0.0
H1133 H 0.16043 0.40403 0.63217 0.0
C1134 C 0.68456 0.21794 0.57469 0.0
C1135 C 0.67073 0.22141 0.55268 0.0
C1136 C 0.65939 0.20004 0.5416 0.0
C1137 C 0.66166 0.17603 0.55279 0.0
C1138 C 0.67586 0.17393 0.5747 0.0
N1139 N 0.68663 0.19464 0.58385 0.0
C1140 C 0.67967 0.15169 0.59094 0.0
C1141 C 0.70006 0.13708 0.63013 0.0
C1142 C 0.68044 0.1255 0.64352 0.0
C1143 C 0.6859 0.10807 0.66232 0.0
C1144 C 0.7109 0.10199 0.66779 0.0
C1145 C 0.73049 0.11326 0.65438 0.0
C1146 C 0.72511 0.13069 0.63557 0.0
Cd1147 Cd 0.67039 0.09714 0.55733 0.0
Cd1148 Cd 0.70387 0.1119 0.482 0.0
C1149 C 0.70706 0.24268 0.63648 0.0
C1150 C 0.74 0.26103 0.66162 0.0
C1151 C 0.72467 0.25822 0.68293 0.0
C1152 C 0.70002 0.24918 0.68083 0.0
C1153 C 0.69083 0.24299 0.65716 0.0
C1154 C 0.73135 0.25251 0.6384 0.0
Co1155 Co 0.69908 0.19181 0.61575 0.0
N1156 N 0.6659 0.19239 0.63172 0.0
N1157 N 0.7115 0.18889 0.6477 0.0
C1158 C 0.69457 0.18613 0.66604 0.0
C1159 C 0.7033 0.18376 0.69064 0.0
C1160 C 0.72967 0.18432 0.69461 0.0
C1161 C 0.74662 0.1871 0.67422 0.0
C1162 C 0.73651 0.1894 0.65014 0.0
N1163 N 0.73449 0.19145 0.60517 0.0
N1164 N 0.69474 0.15578 0.6115 0.0
N1165 N 0.70054 0.22796 0.61526 0.0
O1166 O 0.72284 0.07219 0.49151 0.0
O1167 O 0.70081 0.08296 0.52442 0.0
C1168 C 0.64925 0.05285 0.5865 0.0
O1169 O 0.66684 0.06654 0.59547 0.0
O1170 O 0.64291 0.05843 0.56418 0.0
C1171 C 0.64629 0.11987 0.51147 0.0
O1172 O 0.63448 0.11563 0.53171 0.0
O1173 O 0.66823 0.11117 0.50993 0.0
C1174 C 0.6684 0.18753 0.65686 0.0
O1175 O 0.64891 0.18672 0.67214 0.0
O1176 O 0.70914 0.1271 0.54494 0.0
O1177 O 0.72838 0.13691 0.50868 0.0
C1178 C 0.74975 0.19122 0.62582 0.0
O1179 O 0.77441 0.18965 0.62396 0.0
C1180 C 0.74367 0.18669 0.58029 0.0
C1181 C 0.73744 0.16385 0.56957 0.0
C1182 C 0.74135 0.15936 0.54434 0.0
C1183 C 0.75669 0.17631 0.53049 0.0
C1184 C 0.76608 0.19861 0.54166 0.0
C1185 C 0.75843 0.20418 0.56661 0.0
C1186 C 0.71349 0.0665 0.51268 0.0
O1187 O 0.66563 0.1307 0.58843 0.0
C1188 C 0.72641 0.13905 0.53234 0.0
C1189 C 0.6419 0.19575 0.61968 0.0
C1190 C 0.63576 0.21863 0.60817 0.0
C1191 C 0.61269 0.22174 0.59611 0.0
C1192 C 0.59492 0.20249 0.59647 0.0
C1193 C 0.59984 0.18039 0.60984 0.0
C1194 C 0.62361 0.17679 0.62085 0.0
C1195 C 0.69385 0.23717 0.59236 0.0
O1196 O 0.69194 0.26144 0.58802 0.0
H1197 H 0.66783 0.23998 0.54492 0.0
H1198 H 0.64822 0.20221 0.5248 0.0
H1199 H 0.65219 0.15995 0.5449 0.0
H1200 H 0.661 0.13019 0.63972 0.0
H1201 H 0.7151 0.08852 0.68236 0.0
H1202 H 0.7405 0.13908 0.62525 0.0
H1203 H 0.73109 0.26528 0.7009 0.0
H1204 H 0.67151 0.237 0.65504 0.0
H1205 H 0.74344 0.2533 0.622 0.0
H1206 H 0.69034 0.18187 0.70623 0.0
H1207 H 0.73696 0.18262 0.71345 0.0
H1208 H 0.76678 0.1873 0.67723 0.0
H1209 H 0.7284 0.14972 0.58077 0.0
H1210 H 0.76077 0.1726 0.51091 0.0
H1211 H 0.76409 0.22166 0.57539 0.0
H1212 H 0.6483 0.23446 0.60915 0.0
H1213 H 0.57663 0.20575 0.58811 0.0
H1214 H 0.62742 0.15977 0.63132 0.0
C1215 C 0.81389 0.68544 0.57775 0.0
C1216 C 0.80973 0.67155 0.55583 0.0
C1217 C 0.83067 0.65947 0.54443 0.0
C1218 C 0.85493 0.66105 0.55524 0.0
C1219 C 0.85769 0.67529 0.57711 0.0
N1220 N 0.8374 0.68686 0.58652 0.0
C1221 C 0.88031 0.67866 0.59293 0.0
C1222 C 0.89606 0.6991 0.63168 0.0
C1223 C 0.90727 0.67937 0.64514 0.0
C1224 C 0.92515 0.68457 0.6636 0.0
C1225 C 0.93202 0.70942 0.66865 0.0
C1226 C 0.9211 0.7291 0.65516 0.0
C1227 C 0.90322 0.72397 0.63669 0.0
Cd1228 Cd 0.93351 0.6678 0.55743 0.0
Cd1229 Cd 0.9179 0.69983 0.48197 0.0
C1230 C 0.79046 0.70955 0.63968 0.0
C1231 C 0.77053 0.74246 0.664 0.0
C1232 C 0.77331 0.7276 0.68558 0.0
C1233 C 0.78302 0.70313 0.68397 0.0
C1234 C 0.79004 0.69373 0.66053 0.0
C1235 C 0.77999 0.73365 0.6411 0.0
Co1236 Co 0.84105 0.69964 0.61828 0.0
N1237 N 0.83979 0.66675 0.63444 0.0
N1238 N 0.84477 0.71231 0.65011 0.0
C1239 C 0.84715 0.69552 0.66852 0.0
C1240 C 0.84948 0.70442 0.69311 0.0
C1241 C 0.84937 0.7308 0.69697 0.0
C1242 C 0.84704 0.74758 0.67651 0.0
C1243 C 0.84468 0.73731 0.65246 0.0
N1244 N 0.84228 0.73485 0.60754 0.0
N1245 N 0.87692 0.69408 0.61344 0.0
N1246 N 0.80487 0.70237 0.61833 0.0
O1247 O 0.95634 0.72062 0.49171 0.0
O1248 O 0.94832 0.69814 0.52502 0.0
C1249 C 0.978 0.64728 0.58641 0.0
O1250 O 0.965 0.66581 0.59472 0.0
O1251 O 0.97174 0.63979 0.56458 0.0
C1252 C 0.91069 0.64366 0.51204 0.0
O1253 O 0.9146 0.63178 0.53222 0.0
O1254 O 0.92034 0.6651 0.51039 0.0
C1255 C 0.84505 0.66934 0.65948 0.0
O1256 O 0.84531 0.65003 0.67485 0.0
O1257 O 0.90272 0.70544 0.54445 0.0
O1258 O 0.89161 0.72379 0.50825 0.0
C1259 C 0.84294 0.75032 0.62809 0.0
O1260 O 0.84476 0.77489 0.62609 0.0
C1261 C 0.84617 0.74353 0.58239 0.0
C1262 C 0.86779 0.73547 0.57027 0.0
C1263 C 0.87034 0.73762 0.54456 0.0
C1264 C 0.85265 0.75248 0.53118 0.0
C1265 C 0.83213 0.7642 0.54369 0.0
C1266 C 0.82859 0.75886 0.56953 0.0
C1267 C 0.96322 0.71214 0.51283 0.0
O1268 O 0.90109 0.66423 0.58993 0.0
C1269 C 0.89002 0.72216 0.53197 0.0
C1270 C 0.83481 0.64288 0.62272 0.0
C1271 C 0.81101 0.63773 0.61265 0.0
C1272 C 0.80621 0.61473 0.60101 0.0
C1273 C 0.82476 0.59614 0.60027 0.0
C1274 C 0.84793 0.6002 0.61207 0.0
C1275 C 0.85312 0.62378 0.62284 0.0
C1276 C 0.79515 0.69566 0.5956 0.0
O1277 O 0.77075 0.69451 0.59161 0.0
H1278 H 0.79095 0.66922 0.54835 0.0
H1279 H 0.82798 0.6483 0.52767 0.0
H1280 H 0.87071 0.65111 0.54706 0.0
H1281 H 0.90193 0.66006 0.64166 0.0
H1282 H 0.94583 0.71341 0.68295 0.0
H1283 H 0.89509 0.7394 0.62628 0.0
H1284 H 0.76551 0.73409 0.70328 0.0
H1285 H 0.79617 0.67443 0.65868 0.0
H1286 H 0.77907 0.74531 0.62448 0.0
H1287 H 0.85094 0.6916 0.70877 0.0
H1288 H 0.85103 0.73822 0.71581 0.0
H1289 H 0.84712 0.76773 0.67945 0.0
H1290 H 0.88238 0.7264 0.58088 0.0
H1291 H 0.85482 0.75501 0.51114 0.0
H1292 H 0.81217 0.76605 0.57935 0.0
H1293 H 0.79577 0.65101 0.61448 0.0
H1294 H 0.82028 0.57797 0.59224 0.0
H1295 H 0.8709 0.62689 0.63224 0.0
C1296 C 0.45253 0.34621 0.21416 0.0
C1297 C 0.47463 0.36007 0.21764 0.0
C1298 C 0.4857 0.37156 0.19637 0.0
C1299 C 0.47442 0.36942 0.17246 0.0
C1300 C 0.4524 0.35523 0.17038 0.0
N1301 N 0.44329 0.3443 0.19097 0.0
C1302 C 0.4362 0.35121 0.1482 0.0
C1303 C 0.39728 0.33015 0.13349 0.0
C1304 C 0.38328 0.34945 0.12214 0.0
C1305 C 0.36463 0.34362 0.10465 0.0
C1306 C 0.35993 0.31856 0.09829 0.0
C1307 C 0.37395 0.2993 0.10934 0.0
C1308 C 0.39261 0.30506 0.12684 0.0
Cd1309 Cd 0.4713 0.36188 0.09521 0.0
Cd1310 Cd 0.54716 0.32749 0.10803 0.0
C1311 C 0.39088 0.3224 0.23893 0.0
C1312 C 0.36761 0.28956 0.25984 0.0
C1313 C 0.3454 0.30357 0.25652 0.0
C1314 C 0.34616 0.32768 0.24605 0.0
C1315 C 0.36937 0.33757 0.23885 0.0
C1316 C 0.39034 0.29872 0.25023 0.0
Co1317 Co 0.41144 0.33135 0.18808 0.0
N1318 N 0.39496 0.3642 0.18876 0.0
N1319 N 0.37955 0.31848 0.18506 0.0
C1320 C 0.36092 0.33513 0.18217 0.0
C1321 C 0.33633 0.32606 0.17968 0.0
C1322 C 0.33272 0.29967 0.18011 0.0
C1323 C 0.35343 0.28303 0.18288 0.0
C1324 C 0.37746 0.29347 0.18538 0.0
N1325 N 0.42258 0.29626 0.1875 0.0
N1326 N 0.41577 0.33584 0.15221 0.0
N1327 N 0.41195 0.32961 0.22414 0.0
O1328 O 0.53583 0.30852 0.0691 0.0
O1329 O 0.50335 0.3312 0.08025 0.0
C1330 C 0.44233 0.38441 0.05191 0.0
O1331 O 0.43644 0.36288 0.06083 0.0
O1332 O 0.46198 0.39412 0.06152 0.0
C1333 C 0.51833 0.38511 0.11721 0.0
O1334 O 0.49793 0.397 0.11373 0.0
O1335 O 0.51967 0.36345 0.10792 0.0
C1336 C 0.3698 0.36141 0.18364 0.0
O1337 O 0.35421 0.38067 0.18288 0.0
O1338 O 0.48441 0.3239 0.12543 0.0
O1339 O 0.52071 0.30423 0.13466 0.0
C1340 C 0.40211 0.28065 0.18714 0.0
O1341 O 0.40442 0.25607 0.18554 0.0
C1342 C 0.4479 0.28772 0.18338 0.0
C1343 C 0.45927 0.29453 0.16111 0.0
C1344 C 0.48493 0.29195 0.15775 0.0
C1345 C 0.49887 0.27741 0.17523 0.0
C1346 C 0.48734 0.26732 0.19718 0.0
C1347 C 0.46157 0.2738 0.2014 0.0
C1348 C 0.5145 0.31794 0.06392 0.0
O1349 O 0.43861 0.36523 0.12729 0.0
C1350 C 0.49704 0.30676 0.13744 0.0
C1351 C 0.40667 0.38817 0.19317 0.0
C1352 C 0.41715 0.39377 0.21661 0.0
C1353 C 0.4292 0.41667 0.22075 0.0
C1354 C 0.42988 0.43479 0.20193 0.0
C1355 C 0.41755 0.43039 0.17917 0.0
C1356 C 0.40643 0.40683 0.1746 0.0
C1357 C 0.43496 0.33644 0.23328 0.0
O1358 O 0.43945 0.33799 0.25746 0.0
H1359 H 0.4825 0.36279 0.23613 0.0
H1360 H 0.5026 0.38269 0.19853 0.0
H1361 H 0.48237 0.37887 0.15642 0.0
H1362 H 0.3865 0.36892 0.12707 0.0
H1363 H 0.34547 0.31407 0.08478 0.0
H1364 H 0.40341 0.28994 0.13507 0.0
H1365 H 0.3278 0.29676 0.26435 0.0
H1366 H 0.37053 0.35668 0.23216 0.0
H1367 H 0.40743 0.28759 0.25152 0.0
H1368 H 0.32049 0.33877 0.17776 0.0
H1369 H 0.3139 0.29212 0.17828 0.0
H1370 H 0.35069 0.26286 0.18292 0.0
H1371 H 0.44815 0.30304 0.14659 0.0
H1372 H 0.51862 0.27411 0.17149 0.0
H1373 H 0.45212 0.26859 0.21862 0.0
H1374 H 0.4154 0.38089 0.23204 0.0
H1375 H 0.43823 0.45292 0.20592 0.0
H1376 H 0.39674 0.4034 0.15709 0.0
C1377 C 0.4526 0.6832 0.8123 0.0
C1378 C 0.47436 0.66867 0.80876 0.0
C1379 C 0.48528 0.65721 0.83004 0.0
C1380 C 0.4742 0.66014 0.85403 0.0
C1381 C 0.45271 0.6752 0.85625 0.0
N1382 N 0.44361 0.68595 0.83561 0.0
C1383 C 0.43661 0.67965 0.87856 0.0
C1384 C 0.39735 0.70047 0.89332 0.0
C1385 C 0.3842 0.6811 0.90552 0.0
C1386 C 0.36559 0.68688 0.92325 0.0
C1387 C 0.36006 0.71195 0.92899 0.0
C1388 C 0.3732 0.73129 0.91707 0.0
C1389 C 0.39181 0.7256 0.89934 0.0
Cd1390 Cd 0.47198 0.66831 0.93175 0.0
Cd1391 Cd 0.54693 0.69814 0.90876 0.0
C1392 C 0.39056 0.70531 0.78753 0.0
C1393 C 0.36722 0.73604 0.76389 0.0
C1394 C 0.3451 0.72233 0.76827 0.0
C1395 C 0.34603 0.69916 0.78068 0.0
C1396 C 0.36924 0.69001 0.78867 0.0
C1397 C 0.38993 0.72789 0.77424 0.0
Co1398 Co 0.41145 0.69844 0.83856 0.0
N1399 N 0.39567 0.66532 0.8389 0.0
N1400 N 0.37928 0.71084 0.84162 0.0
C1401 C 0.36108 0.69399 0.84547 0.0
C1402 C 0.33634 0.70271 0.84832 0.0
C1403 C 0.33211 0.72901 0.84725 0.0
C1404 C 0.35238 0.7459 0.8435 0.0
C1405 C 0.3766 0.73578 0.84066 0.0
N1406 N 0.42179 0.73377 0.83824 0.0
N1407 N 0.41595 0.69478 0.87451 0.0
N1408 N 0.41181 0.69923 0.80244 0.0
O1409 O 0.54507 0.71121 0.95073 0.0
O1410 O 0.50798 0.69224 0.95033 0.0
C1411 C 0.44129 0.64572 0.97423 0.0
O1412 O 0.43893 0.66899 0.96858 0.0
O1413 O 0.45791 0.63404 0.96146 0.0
C1414 C 0.51578 0.6444 0.90601 0.0
O1415 O 0.49673 0.63175 0.91252 0.0
O1416 O 0.51575 0.66712 0.91216 0.0
C1417 C 0.37054 0.66784 0.84461 0.0
O1418 O 0.35539 0.64838 0.84618 0.0
O1419 O 0.4824 0.70796 0.90167 0.0
O1420 O 0.51887 0.72616 0.8902 0.0
C1421 C 0.40092 0.74898 0.83829 0.0
O1422 O 0.40261 0.77362 0.8395 0.0
C1423 C 0.44665 0.74306 0.84297 0.0
C1424 C 0.45728 0.7373 0.86587 0.0
C1425 C 0.48266 0.74076 0.86997 0.0
C1426 C 0.4967 0.75547 0.85262 0.0
C1427 C 0.48578 0.76456 0.83 0.0
C1428 C 0.46052 0.75705 0.82507 0.0
C1429 C 0.52514 0.70417 0.96186 0.0
O1430 O 0.43925 0.66596 0.89966 0.0
C1431 C 0.49496 0.72519 0.88961 0.0
C1432 C 0.40763 0.64143 0.83429 0.0
C1433 C 0.41731 0.63559 0.81048 0.0
C1434 C 0.42908 0.61252 0.80599 0.0
C1435 C 0.43023 0.59449 0.82486 0.0
C1436 C 0.41864 0.59916 0.84805 0.0
C1437 C 0.40793 0.6229 0.85296 0.0
C1438 C 0.43486 0.69235 0.79319 0.0
O1439 O 0.43914 0.68984 0.76902 0.0
H1440 H 0.48191 0.6652 0.79019 0.0
H1441 H 0.50175 0.64535 0.82782 0.0
H1442 H 0.48167 0.65032 0.86997 0.0
H1443 H 0.38804 0.6616 0.90107 0.0
H1444 H 0.34565 0.71639 0.9427 0.0
H1445 H 0.40191 0.7408 0.89046 0.0
H1446 H 0.32753 0.72855 0.75995 0.0
H1447 H 0.37056 0.67135 0.79646 0.0
H1448 H 0.40691 0.73896 0.77204 0.0
H1449 H 0.32084 0.68981 0.85104 0.0
H1450 H 0.31316 0.73631 0.84939 0.0
H1451 H 0.3492 0.76601 0.84307 0.0
H1452 H 0.44604 0.72864 0.88021 0.0
H1453 H 0.51618 0.75943 0.85684 0.0
H1454 H 0.45163 0.76149 0.80741 0.0
H1455 H 0.41503 0.64832 0.79501 0.0
H1456 H 0.43825 0.5762 0.82062 0.0
H1457 H 0.39873 0.62651 0.87079 0.0
C1458 C 0.346 0.45087 0.81191 0.0
C1459 C 0.3598 0.47285 0.80765 0.0
C1460 C 0.37155 0.48448 0.82845 0.0
C1461 C 0.36971 0.47385 0.85269 0.0
C1462 C 0.35554 0.45192 0.85557 0.0
N1463 N 0.3444 0.44224 0.83536 0.0
C1464 C 0.35183 0.43632 0.87824 0.0
C1465 C 0.33114 0.39773 0.89425 0.0
C1466 C 0.35078 0.38444 0.90589 0.0
C1467 C 0.34538 0.36628 0.92401 0.0
C1468 C 0.32041 0.36134 0.93071 0.0
C1469 C 0.30081 0.37464 0.91936 0.0
C1470 C 0.30614 0.39281 0.90123 0.0
Cd1471 Cd 0.363 0.47128 0.93167 0.0
Cd1472 Cd 0.33286 0.54704 0.91363 0.0
C1473 C 0.32171 0.38879 0.78891 0.0
C1474 C 0.28944 0.36587 0.76668 0.0
C1475 C 0.30319 0.34359 0.77046 0.0
C1476 C 0.32698 0.34414 0.78167 0.0
C1477 C 0.33672 0.3672 0.78939 0.0
C1478 C 0.29841 0.38848 0.77672 0.0
Co1479 Co 0.33137 0.41058 0.83927 0.0
N1480 N 0.36423 0.39396 0.83866 0.0
N1481 N 0.31839 0.37889 0.84329 0.0
C1482 C 0.33501 0.36027 0.84633 0.0
C1483 C 0.32584 0.33579 0.84925 0.0
C1484 C 0.29939 0.33229 0.84908 0.0
C1485 C 0.28279 0.35299 0.8461 0.0
C1486 C 0.29333 0.3769 0.84312 0.0
N1487 N 0.29625 0.42189 0.83998 0.0
N1488 N 0.3364 0.41581 0.87499 0.0
N1489 N 0.32915 0.41014 0.80319 0.0
O1490 O 0.3132 0.54035 0.95307 0.0
O1491 O 0.33442 0.50536 0.94738 0.0
C1492 C 0.38399 0.44206 0.97559 0.0
O1493 O 0.36533 0.43375 0.96296 0.0
O1494 O 0.39135 0.46393 0.96921 0.0
C1495 C 0.38813 0.51538 0.90811 0.0
O1496 O 0.3999 0.49518 0.91268 0.0
O1497 O 0.36614 0.51704 0.91656 0.0
C1498 C 0.36135 0.36898 0.84443 0.0
O1499 O 0.38058 0.35335 0.84542 0.0
O1500 O 0.32472 0.48359 0.90137 0.0
O1501 O 0.30727 0.52036 0.88998 0.0
C1502 C 0.28056 0.40151 0.84091 0.0
O1503 O 0.25596 0.40393 0.84275 0.0
C1504 C 0.28779 0.44723 0.84397 0.0
C1505 C 0.29465 0.45861 0.86621 0.0
C1506 C 0.29241 0.48428 0.86936 0.0
C1507 C 0.27802 0.49826 0.85181 0.0
C1508 C 0.26782 0.4868 0.82993 0.0
C1509 C 0.27398 0.46097 0.82586 0.0
C1510 C 0.32084 0.51929 0.96126 0.0
O1511 O 0.3663 0.43918 0.89883 0.0
C1512 C 0.30806 0.49648 0.88895 0.0
C1513 C 0.38832 0.40552 0.83422 0.0
C1514 C 0.39394 0.416 0.81078 0.0
C1515 C 0.41697 0.42783 0.80655 0.0
C1516 C 0.43516 0.42831 0.82529 0.0
C1517 C 0.4307 0.41607 0.8481 0.0
C1518 C 0.40707 0.40509 0.85273 0.0
C1519 C 0.33597 0.43286 0.79338 0.0
O1520 O 0.33727 0.43674 0.76908 0.0
H1521 H 0.36228 0.48024 0.78891 0.0
H1522 H 0.38264 0.5013 0.82568 0.0
H1523 H 0.37935 0.48223 0.86838 0.0
H1524 H 0.37019 0.38785 0.90073 0.0
H1525 H 0.31626 0.34726 0.94472 0.0
H1526 H 0.29075 0.40308 0.8928 0.0
H1527 H 0.29658 0.32616 0.7622 0.0
H1528 H 0.35574 0.36826 0.79635 0.0
H1529 H 0.28753 0.40566 0.77492 0.0
H1530 H 0.33853 0.31996 0.8513 0.0
H1531 H 0.29177 0.31356 0.85126 0.0
H1532 H 0.26258 0.35034 0.84622 0.0
H1533 H 0.30316 0.44752 0.88076 0.0
H1534 H 0.27499 0.51805 0.85537 0.0
H1535 H 0.26862 0.45155 0.80868 0.0
H1536 H 0.38098 0.41439 0.7954 0.0
H1537 H 0.4534 0.43646 0.82123 0.0
H1538 H 0.40368 0.39531 0.87021 0.0
C1539 C 0.57855 0.34668 0.8109 0.0
C1540 C 0.55726 0.36185 0.80741 0.0
C1541 C 0.54678 0.37399 0.82865 0.0
C1542 C 0.55777 0.37101 0.85256 0.0
C1543 C 0.5786 0.35507 0.85482 0.0
N1544 N 0.58741 0.34383 0.83418 0.0
C1545 C 0.59466 0.35066 0.87702 0.0
C1546 C 0.63405 0.33 0.89139 0.0
C1547 C 0.64736 0.34956 0.90308 0.0
C1548 C 0.66635 0.34407 0.92033 0.0
C1549 C 0.6721 0.31909 0.9261 0.0
C1550 C 0.6588 0.29956 0.91469 0.0
C1551 C 0.63981 0.30497 0.89744 0.0
Cd1552 Cd 0.55969 0.36145 0.93105 0.0
Cd1553 Cd 0.4853 0.33291 0.90591 0.0
C1554 C 0.64 0.3225 0.78599 0.0
C1555 C 0.66316 0.28917 0.76546 0.0
C1556 C 0.68541 0.30306 0.76865 0.0
C1557 C 0.68469 0.32731 0.77895 0.0
C1558 C 0.66152 0.33749 0.78603 0.0
C1559 C 0.64047 0.29867 0.77495 0.0
Co1560 Co 0.61955 0.33121 0.83689 0.0
N1561 N 0.63559 0.36428 0.8367 0.0
N1562 N 0.65171 0.31867 0.83965 0.0
C1563 C 0.6701 0.33546 0.84265 0.0
C1564 C 0.69486 0.32664 0.84485 0.0
C1565 C 0.69892 0.3003 0.84393 0.0
C1566 C 0.67848 0.28349 0.84094 0.0
C1567 C 0.65426 0.29371 0.83877 0.0
N1568 N 0.60906 0.29589 0.83693 0.0
N1569 N 0.61525 0.33538 0.87284 0.0
N1570 N 0.61905 0.32993 0.80083 0.0
O1571 O 0.4843 0.32206 0.94833 0.0
O1572 O 0.52209 0.3397 0.94955 0.0
C1573 C 0.59037 0.38366 0.97353 0.0
O1574 O 0.59377 0.36083 0.96663 0.0
O1575 O 0.57271 0.39497 0.96205 0.0
C1576 C 0.51724 0.38532 0.90431 0.0
O1577 O 0.53575 0.39825 0.91168 0.0
O1578 O 0.51778 0.36239 0.90943 0.0
C1579 C 0.66084 0.36164 0.84156 0.0
O1580 O 0.67616 0.38101 0.84249 0.0
O1581 O 0.54941 0.32081 0.90211 0.0
O1582 O 0.51298 0.30264 0.89061 0.0
C1583 C 0.62988 0.2806 0.83685 0.0
O1584 O 0.62812 0.25598 0.83824 0.0
C1585 C 0.58432 0.28659 0.84227 0.0
C1586 C 0.57428 0.292 0.86566 0.0
C1587 C 0.54923 0.28743 0.87095 0.0
C1588 C 0.53517 0.27215 0.85415 0.0
C1589 C 0.54566 0.26383 0.8311 0.0
C1590 C 0.57027 0.27217 0.82486 0.0
C1591 C 0.50373 0.3288 0.96037 0.0
O1592 O 0.59198 0.36441 0.89818 0.0
C1593 C 0.53691 0.30324 0.89049 0.0
C1594 C 0.62367 0.38833 0.83307 0.0
C1595 C 0.61335 0.39459 0.80975 0.0
C1596 C 0.60179 0.41788 0.80609 0.0
C1597 C 0.60139 0.43564 0.82533 0.0
C1598 C 0.6134 0.43048 0.8481 0.0
C1599 C 0.62413 0.40663 0.85211 0.0
C1600 C 0.59617 0.33714 0.7917 0.0
O1601 O 0.59187 0.33923 0.76753 0.0
H1602 H 0.54989 0.36542 0.78885 0.0
H1603 H 0.53083 0.38652 0.82643 0.0
H1604 H 0.55094 0.38164 0.86834 0.0
H1605 H 0.64337 0.36899 0.89861 0.0
H1606 H 0.68681 0.31487 0.93942 0.0
H1607 H 0.62963 0.28961 0.88892 0.0
H1608 H 0.703 0.29599 0.76092 0.0
H1609 H 0.66041 0.35663 0.79279 0.0
H1610 H 0.62335 0.28767 0.7738 0.0
H1611 H 0.71049 0.3395 0.84687 0.0
H1612 H 0.71787 0.29294 0.84552 0.0
H1613 H 0.68155 0.26336 0.84047 0.0
H1614 H 0.58565 0.30125 0.87949 0.0
H1615 H 0.51569 0.26775 0.85833 0.0
H1616 H 0.57854 0.26728 0.80689 0.0
H1617 H 0.61494 0.38197 0.79401 0.0
H1618 H 0.59347 0.45408 0.82172 0.0
H1619 H 0.63387 0.40275 0.86949 0.0
C1620 C 0.68632 0.57784 0.81257 0.0
C1621 C 0.67216 0.55591 0.80934 0.0
C1622 C 0.66044 0.54534 0.83074 0.0
C1623 C 0.66277 0.5569 0.85454 0.0
C1624 C 0.67749 0.57855 0.85645 0.0
N1625 N 0.68843 0.58732 0.83571 0.0
C1626 C 0.68164 0.59494 0.87854 0.0
C1627 C 0.70164 0.6347 0.89248 0.0
C1628 C 0.68188 0.64839 0.90365 0.0
C1629 C 0.68713 0.6677 0.92065 0.0
C1630 C 0.71207 0.67337 0.92671 0.0
C1631 C 0.73179 0.65967 0.91585 0.0
C1632 C 0.72662 0.64035 0.89883 0.0
Cd1633 Cd 0.6679 0.55904 0.9317 0.0
Cd1634 Cd 0.69568 0.48443 0.90634 0.0
C1635 C 0.70904 0.63934 0.78706 0.0
C1636 C 0.74145 0.66414 0.76713 0.0
C1637 C 0.72599 0.68548 0.76961 0.0
C1638 C 0.70149 0.68349 0.77919 0.0
C1639 C 0.69261 0.65992 0.78639 0.0
C1640 C 0.73315 0.64109 0.7766 0.0
Co1641 Co 0.70094 0.61936 0.83817 0.0
N1642 N 0.6678 0.63537 0.83742 0.0
N1643 N 0.7134 0.65143 0.84066 0.0
C1644 C 0.69648 0.66991 0.84304 0.0
C1645 C 0.70525 0.69464 0.84482 0.0
C1646 C 0.73163 0.69857 0.84413 0.0
C1647 C 0.74856 0.67803 0.8418 0.0
C1648 C 0.73841 0.65383 0.84005 0.0
N1649 N 0.7362 0.60872 0.8388 0.0
N1650 N 0.69652 0.61562 0.87412 0.0
N1651 N 0.70267 0.61828 0.80211 0.0
O1652 O 0.69685 0.48344 0.9501 0.0
O1653 O 0.6967 0.52479 0.94818 0.0
C1654 C 0.64538 0.59097 0.97348 0.0
O1655 O 0.66872 0.58489 0.9738 0.0
O1656 O 0.63332 0.58228 0.9549 0.0
C1657 C 0.64421 0.51589 0.90623 0.0
O1658 O 0.63088 0.53373 0.91455 0.0
O1659 O 0.66733 0.51731 0.91028 0.0
C1660 C 0.67029 0.66069 0.84184 0.0
O1661 O 0.65081 0.67604 0.84228 0.0
O1662 O 0.7081 0.54932 0.90197 0.0
O1663 O 0.72653 0.5124 0.89188 0.0
C1664 C 0.75157 0.62936 0.83868 0.0
O1665 O 0.77621 0.62742 0.84025 0.0
C1666 C 0.74512 0.58379 0.84385 0.0
C1667 C 0.73908 0.57349 0.86686 0.0
C1668 C 0.74174 0.548 0.87102 0.0
C1669 C 0.756 0.53342 0.8536 0.0
C1670 C 0.76535 0.54395 0.83087 0.0
C1671 C 0.75852 0.56938 0.82588 0.0
C1672 C 0.69356 0.50463 0.9607 0.0
O1673 O 0.66803 0.59243 0.89982 0.0
C1674 C 0.72562 0.53628 0.89065 0.0
C1675 C 0.64387 0.62329 0.83366 0.0
C1676 C 0.63811 0.61213 0.81055 0.0
C1677 C 0.61517 0.59992 0.80701 0.0
C1678 C 0.59719 0.59973 0.8261 0.0
C1679 C 0.60174 0.61271 0.84851 0.0
C1680 C 0.62532 0.62402 0.85247 0.0
C1681 C 0.69586 0.59518 0.7932 0.0
O1682 O 0.69397 0.59046 0.76908 0.0
H1683 H 0.66921 0.54791 0.79091 0.0
H1684 H 0.64889 0.52872 0.82874 0.0
H1685 H 0.65284 0.54965 0.87057 0.0
H1686 H 0.6625 0.64442 0.89894 0.0
H1687 H 0.7161 0.68834 0.93985 0.0
H1688 H 0.7421 0.62985 0.89072 0.0
H1689 H 0.73214 0.70331 0.76189 0.0
H1690 H 0.67336 0.65787 0.79269 0.0
H1691 H 0.74533 0.6247 0.77598 0.0
H1692 H 0.69231 0.71035 0.84634 0.0
H1693 H 0.73895 0.71751 0.84538 0.0
H1694 H 0.76872 0.68102 0.8415 0.0
H1695 H 0.7306 0.5851 0.88114 0.0
H1696 H 0.75931 0.51382 0.85779 0.0
H1697 H 0.763 0.57802 0.80808 0.0
H1698 H 0.65085 0.61349 0.79488 0.0
H1699 H 0.57901 0.59126 0.82256 0.0
H1700 H 0.62881 0.63431 0.86966 0.0
C1701 C 0.57947 0.68162 0.21348 0.0
C1702 C 0.55731 0.66785 0.21695 0.0
C1703 C 0.54602 0.65688 0.19558 0.0
C1704 C 0.55721 0.65942 0.17162 0.0
C1705 C 0.57927 0.67356 0.16958 0.0
N1706 N 0.58856 0.68407 0.19024 0.0
C1707 C 0.59528 0.6779 0.14731 0.0
C1708 C 0.63426 0.69898 0.13243 0.0
C1709 C 0.64776 0.67967 0.12031 0.0
C1710 C 0.66649 0.68553 0.1028 0.0
C1711 C 0.67177 0.71063 0.09719 0.0
C1712 C 0.65826 0.72991 0.10901 0.0
C1713 C 0.63953 0.72412 0.12654 0.0
Cd1714 Cd 0.55872 0.66737 0.09561 0.0
Cd1715 Cd 0.48348 0.70021 0.11256 0.0
C1716 C 0.6416 0.7023 0.23854 0.0
C1717 C 0.66381 0.72943 0.26694 0.0
C1718 C 0.68562 0.71473 0.26377 0.0
C1719 C 0.68492 0.69299 0.24887 0.0
C1720 C 0.66234 0.68603 0.23776 0.0
C1721 C 0.64209 0.72374 0.25358 0.0
Co1722 Co 0.62047 0.69689 0.18721 0.0
N1723 N 0.63675 0.66398 0.1864 0.0
N1724 N 0.65244 0.70964 0.1842 0.0
C1725 C 0.67087 0.69299 0.18011 0.0
C1726 C 0.69545 0.70195 0.1771 0.0
C1727 C 0.69929 0.72827 0.17833 0.0
C1728 C 0.6788 0.74495 0.18238 0.0
C1729 C 0.65475 0.7346 0.18533 0.0
N1730 N 0.6096 0.73223 0.18786 0.0
N1731 N 0.61578 0.69324 0.15126 0.0
N1732 N 0.62025 0.69748 0.22333 0.0
O1733 O 0.4919 0.71917 0.0729 0.0
O1734 O 0.52552 0.69698 0.08118 0.0
C1735 C 0.58874 0.64793 0.05146 0.0
O1736 O 0.59707 0.66533 0.0657 0.0
O1737 O 0.56628 0.64095 0.05624 0.0
C1738 C 0.51332 0.64325 0.1192 0.0
O1739 O 0.53345 0.63121 0.11452 0.0
O1740 O 0.51191 0.66513 0.11059 0.0
C1741 C 0.66182 0.66677 0.18062 0.0
O1742 O 0.67733 0.64748 0.17916 0.0
O1743 O 0.5468 0.70547 0.12641 0.0
O1744 O 0.51058 0.72454 0.1374 0.0
C1745 C 0.63027 0.7476 0.18789 0.0
O1746 O 0.62825 0.77224 0.18693 0.0
C1747 C 0.58446 0.74136 0.1839 0.0
C1748 C 0.57268 0.73444 0.16186 0.0
C1749 C 0.54697 0.73743 0.15888 0.0
C1750 C 0.53344 0.75224 0.17663 0.0
C1751 C 0.54573 0.76285 0.19765 0.0
C1752 C 0.57139 0.75652 0.20159 0.0
C1753 C 0.51307 0.71035 0.06603 0.0
O1754 O 0.59257 0.66408 0.12626 0.0
C1755 C 0.53439 0.7225 0.13898 0.0
C1756 C 0.62567 0.64001 0.19209 0.0
C1757 C 0.61804 0.63444 0.21666 0.0
C1758 C 0.60907 0.61063 0.22277 0.0
C1759 C 0.60842 0.59179 0.20463 0.0
C1760 C 0.61716 0.59662 0.18028 0.0
C1761 C 0.62522 0.62092 0.17385 0.0
C1762 C 0.59719 0.69072 0.23256 0.0
O1763 O 0.59293 0.68816 0.25673 0.0
H1764 H 0.54954 0.66479 0.23548 0.0
H1765 H 0.52905 0.64582 0.19767 0.0
H1766 H 0.54921 0.65029 0.1555 0.0
H1767 H 0.64413 0.66015 0.12471 0.0
H1768 H 0.68628 0.71513 0.08365 0.0
H1769 H 0.62913 0.73926 0.1354 0.0
H1770 H 0.70264 0.71946 0.27389 0.0
H1771 H 0.66117 0.66811 0.22842 0.0
H1772 H 0.62547 0.73556 0.25522 0.0
H1773 H 0.71111 0.68919 0.17408 0.0
H1774 H 0.71811 0.73574 0.17605 0.0
H1775 H 0.68168 0.76509 0.1829 0.0
H1776 H 0.58348 0.72567 0.14717 0.0
H1777 H 0.51343 0.75546 0.17422 0.0
H1778 H 0.58097 0.76295 0.21831 0.0
H1779 H 0.62008 0.64788 0.23159 0.0
H1780 H 0.60231 0.57312 0.20995 0.0
H1781 H 0.63255 0.62461 0.15523 0.0
C1782 C 0.3433 0.5796 0.21634 0.0
C1783 C 0.35676 0.55749 0.22125 0.0
C1784 C 0.36901 0.54535 0.2009 0.0
C1785 C 0.36799 0.55559 0.17644 0.0
C1786 C 0.35411 0.57768 0.1729 0.0
N1787 N 0.3425 0.58787 0.19271 0.0
C1788 C 0.35139 0.59308 0.14994 0.0
C1789 C 0.33195 0.63198 0.13303 0.0
C1790 C 0.35221 0.64464 0.12174 0.0
C1791 C 0.34776 0.66273 0.10329 0.0
C1792 C 0.32312 0.66822 0.09593 0.0
C1793 C 0.30291 0.65554 0.10692 0.0
C1794 C 0.30728 0.63744 0.12536 0.0
Cd1795 Cd 0.36309 0.55902 0.09571 0.0
Cd1796 Cd 0.33337 0.48362 0.11505 0.0
C1797 C 0.31937 0.64261 0.23754 0.0
C1798 C 0.28655 0.66838 0.25598 0.0
C1799 C 0.30234 0.68942 0.25363 0.0
C1800 C 0.32717 0.68683 0.24499 0.0
C1801 C 0.33593 0.66296 0.23834 0.0
C1802 C 0.29488 0.64503 0.24696 0.0
Co1803 Co 0.32998 0.61969 0.18807 0.0
N1804 N 0.36293 0.63582 0.18961 0.0
N1805 N 0.31742 0.65152 0.18337 0.0
C1806 C 0.33429 0.66995 0.18111 0.0
C1807 C 0.32543 0.69456 0.17808 0.0
C1808 C 0.29902 0.69843 0.17739 0.0
C1809 C 0.28215 0.67794 0.17971 0.0
C1810 C 0.29239 0.65388 0.18284 0.0
N1811 N 0.29484 0.6089 0.18646 0.0
N1812 N 0.33623 0.61398 0.15258 0.0
N1813 N 0.32647 0.62066 0.22396 0.0
O1814 O 0.31556 0.48881 0.07498 0.0
O1815 O 0.33578 0.52463 0.07888 0.0
C1816 C 0.3834 0.58922 0.0519 0.0
O1817 O 0.36637 0.59818 0.06642 0.0
O1818 O 0.38949 0.5665 0.05653 0.0
C1819 C 0.38781 0.5153 0.12009 0.0
O1820 O 0.39996 0.53509 0.11497 0.0
O1821 O 0.36574 0.5141 0.11201 0.0
C1822 C 0.36045 0.66088 0.18394 0.0
O1823 O 0.37982 0.67625 0.18358 0.0
O1824 O 0.32366 0.54751 0.12496 0.0
O1825 O 0.3063 0.51081 0.13652 0.0
C1826 C 0.27935 0.62946 0.18483 0.0
O1827 O 0.25482 0.62735 0.18228 0.0
C1828 C 0.28634 0.58371 0.18224 0.0
C1829 C 0.29303 0.57259 0.15977 0.0
C1830 C 0.29056 0.54699 0.15634 0.0
C1831 C 0.27608 0.53299 0.17385 0.0
C1832 C 0.26628 0.5442 0.19615 0.0
C1833 C 0.27275 0.56988 0.20045 0.0
C1834 C 0.32248 0.50972 0.06591 0.0
O1835 O 0.36658 0.58975 0.1298 0.0
C1836 C 0.30666 0.5347 0.13703 0.0
C1837 C 0.38684 0.6239 0.19426 0.0
C1838 C 0.39206 0.61314 0.21765 0.0
C1839 C 0.41512 0.60126 0.222 0.0
C1840 C 0.43371 0.60099 0.20346 0.0
C1841 C 0.42958 0.61351 0.18075 0.0
C1842 C 0.40591 0.62441 0.17599 0.0
C1843 C 0.33291 0.59809 0.23435 0.0
O1844 O 0.33356 0.5947 0.25874 0.0
H1845 H 0.35863 0.55039 0.24016 0.0
H1846 H 0.37988 0.52843 0.20419 0.0
H1847 H 0.37805 0.54682 0.16111 0.0
H1848 H 0.37137 0.6408 0.12736 0.0
H1849 H 0.31971 0.68224 0.08168 0.0
H1850 H 0.29142 0.62767 0.1335 0.0
H1851 H 0.29631 0.7074 0.26123 0.0
H1852 H 0.3554 0.66034 0.23294 0.0
H1853 H 0.28261 0.62878 0.24762 0.0
H1854 H 0.33831 0.71025 0.17662 0.0
H1855 H 0.29163 0.71728 0.17512 0.0
H1856 H 0.26198 0.68087 0.17904 0.0
H1857 H 0.30185 0.58371 0.14539 0.0
H1858 H 0.27292 0.51332 0.16998 0.0
H1859 H 0.26786 0.57918 0.21786 0.0
H1860 H 0.3788 0.61456 0.2329 0.0
H1861 H 0.45189 0.59271 0.2076 0.0
H1862 H 0.4027 0.63421 0.15851 0.0
C1863 C 0.68367 0.45266 0.21513 0.0
C1864 C 0.66879 0.47416 0.21863 0.0
C1865 C 0.65667 0.48455 0.19741 0.0
C1866 C 0.6593 0.47324 0.17347 0.0
C1867 C 0.67465 0.45195 0.17132 0.0
N1868 N 0.68601 0.4434 0.19191 0.0
C1869 C 0.67921 0.43574 0.14914 0.0
C1870 C 0.70104 0.39704 0.1346 0.0
C1871 C 0.68189 0.38266 0.12352 0.0
C1872 C 0.68794 0.36388 0.10611 0.0
C1873 C 0.71307 0.35943 0.09956 0.0
C1874 C 0.73218 0.37384 0.11032 0.0
C1875 C 0.7262 0.39263 0.12774 0.0
Cd1876 Cd 0.66973 0.46919 0.09461 0.0
Cd1877 Cd 0.70148 0.54642 0.10687 0.0
C1878 C 0.70851 0.39157 0.23993 0.0
C1879 C 0.74131 0.36694 0.25947 0.0
C1880 C 0.72618 0.34546 0.25696 0.0
C1881 C 0.70164 0.34727 0.24762 0.0
C1882 C 0.69241 0.37081 0.24063 0.0
C1883 C 0.73268 0.38996 0.25016 0.0
Co1884 Co 0.6999 0.41189 0.18912 0.0
N1885 N 0.66751 0.39472 0.19017 0.0
N1886 N 0.7137 0.38034 0.18621 0.0
C1887 C 0.69756 0.36129 0.1838 0.0
C1888 C 0.70733 0.33692 0.18157 0.0
C1889 C 0.73387 0.33394 0.18178 0.0
C1890 C 0.74995 0.35506 0.18409 0.0
C1891 C 0.7388 0.37885 0.18635 0.0
N1892 N 0.73469 0.42385 0.18829 0.0
N1893 N 0.69512 0.4157 0.15321 0.0
N1894 N 0.70175 0.41273 0.22514 0.0
O1895 O 0.7227 0.53369 0.069 0.0
O1896 O 0.70075 0.50115 0.08053 0.0
C1897 C 0.64885 0.43994 0.05067 0.0
O1898 O 0.66766 0.43165 0.06314 0.0
O1899 O 0.64121 0.4617 0.05732 0.0
C1900 C 0.64383 0.51665 0.11348 0.0
O1901 O 0.63361 0.4953 0.11099 0.0
O1902 O 0.66567 0.51907 0.10471 0.0
C1903 C 0.671 0.36957 0.18541 0.0
O1904 O 0.65216 0.35357 0.18497 0.0
O1905 O 0.70612 0.48447 0.12568 0.0
O1906 O 0.72422 0.52134 0.13531 0.0
C1907 C 0.75093 0.40378 0.18786 0.0
O1908 O 0.77546 0.40666 0.18611 0.0
C1909 C 0.74244 0.44934 0.18435 0.0
C1910 C 0.73527 0.46049 0.16217 0.0
C1911 C 0.73716 0.48615 0.15887 0.0
C1912 C 0.75125 0.50048 0.17645 0.0
C1913 C 0.76174 0.48924 0.19834 0.0
C1914 C 0.75597 0.46336 0.20243 0.0
C1915 C 0.71334 0.51237 0.06376 0.0
O1916 O 0.6654 0.4379 0.12802 0.0
C1917 C 0.72241 0.49768 0.1382 0.0
C1918 C 0.64317 0.40595 0.19442 0.0
C1919 C 0.63693 0.41638 0.2178 0.0
C1920 C 0.61348 0.4277 0.2217 0.0
C1921 C 0.59553 0.4277 0.20269 0.0
C1922 C 0.60071 0.41546 0.17994 0.0
C1923 C 0.62482 0.40522 0.17563 0.0
C1924 C 0.69398 0.4355 0.23428 0.0
O1925 O 0.69197 0.43998 0.25845 0.0
H1926 H 0.66567 0.482 0.23713 0.0
H1927 H 0.64465 0.50088 0.19966 0.0
H1928 H 0.6493 0.48055 0.15745 0.0
H1929 H 0.66237 0.38569 0.12858 0.0
H1930 H 0.71773 0.34488 0.0861 0.0
H1931 H 0.74119 0.40375 0.13574 0.0
H1932 H 0.73257 0.32765 0.26457 0.0
H1933 H 0.6731 0.37271 0.23458 0.0
H1934 H 0.74459 0.40647 0.25082 0.0
H1935 H 0.69505 0.32078 0.18001 0.0
H1936 H 0.74196 0.3153 0.18014 0.0
H1937 H 0.77022 0.3528 0.18401 0.0
H1938 H 0.72706 0.4491 0.14765 0.0
H1939 H 0.75397 0.52027 0.17281 0.0
H1940 H 0.76145 0.45404 0.21957 0.0
H1941 H 0.64974 0.41522 0.23335 0.0
H1942 H 0.57705 0.43554 0.20648 0.0
H1943 H 0.62897 0.3958 0.15806 0.0
C1944 C 0.15753 0.42276 0.46876 0.0
C1945 C 0.16231 0.40633 0.44852 0.0
H1946 H 0.13864 0.42809 0.50414 0.0
C1947 C 0.15064 0.38267 0.44827 0.0
H1948 H 0.16621 0.44116 0.46944 0.0
C1949 C 0.13482 0.37546 0.46771 0.0
C1950 C 0.13038 0.39149 0.48823 0.0
H1951 H 0.1544 0.3692 0.43344 0.0
H1952 H 0.12667 0.35689 0.46686 0.0
C1953 C 0.14169 0.41536 0.48852 0.0
C1954 C 0.64711 0.16295 0.45602 0.0
C1955 C 0.62154 0.16517 0.45016 0.0
H1956 H 0.67458 0.14789 0.48064 0.0
C1957 C 0.60345 0.15332 0.46538 0.0
H1958 H 0.66129 0.1726 0.445 0.0
C1959 C 0.61112 0.13871 0.48591 0.0
C1960 C 0.63687 0.13611 0.49128 0.0
H1961 H 0.58356 0.15518 0.46124 0.0
H1962 H 0.5971 0.12917 0.4972 0.0
C1963 C 0.65466 0.14877 0.47642 0.0
C1964 C 0.86579 0.64726 0.4582 0.0
C1965 C 0.86339 0.62206 0.45107 0.0
H1966 H 0.88133 0.67336 0.48398 0.0
C1967 C 0.87541 0.60321 0.46515 0.0
H1968 H 0.856 0.66199 0.44809 0.0
C1969 C 0.89055 0.6098 0.48569 0.0
C1970 C 0.89343 0.63523 0.49225 0.0
H1971 H 0.87336 0.58359 0.46005 0.0
H1972 H 0.90036 0.59525 0.49599 0.0
C1973 C 0.88039 0.65372 0.47869 0.0
C1974 C 0.38868 0.86132 0.4615 0.0
C1975 C 0.41238 0.86511 0.4507 0.0
H1976 H 0.36376 0.86988 0.49161 0.0
C1977 C 0.42959 0.8815 0.46226 0.0
H1978 H 0.37547 0.84818 0.45326 0.0
C1979 C 0.42266 0.89456 0.4842 0.0
C1980 C 0.39866 0.89091 0.4947 0.0
H1981 H 0.4482 0.88417 0.45432 0.0
H1982 H 0.43573 0.90769 0.49261 0.0
C1983 C 0.38205 0.87377 0.48342 0.0
C1984 C 0.15305 0.60234 0.56333 0.0
C1985 C 0.16717 0.62041 0.57646 0.0
H1986 H 0.12782 0.59552 0.53243 0.0
C1987 C 0.16811 0.64513 0.56769 0.0
H1988 H 0.1526 0.583 0.56966 0.0
C1989 C 0.15493 0.65194 0.54635 0.0
C1990 C 0.13986 0.63438 0.53365 0.0
H1991 H 0.17956 0.65912 0.57708 0.0
H1992 H 0.15669 0.67108 0.53969 0.0
C1993 C 0.13925 0.60936 0.542 0.0
C1994 C 0.42643 0.15452 0.55932 0.0
C1995 C 0.40876 0.16318 0.57712 0.0
H1996 H 0.43251 0.1327 0.52576 0.0
C1997 C 0.38336 0.15669 0.57439 0.0
H1998 H 0.44613 0.15951 0.56097 0.0
C1999 C 0.37567 0.14179 0.55447 0.0
C2000 C 0.39316 0.13274 0.53676 0.0
H2001 H 0.36921 0.16378 0.58733 0.0
H2002 H 0.3558 0.13788 0.55272 0.0
C2003 C 0.41867 0.1393 0.53924 0.0
C2004 C 0.88404 0.42294 0.56618 0.0
C2005 C 0.86643 0.40653 0.57713 0.0
H2006 H 0.91053 0.42853 0.53591 0.0
C2007 C 0.8613 0.38347 0.56565 0.0
H2008 H 0.8878 0.44107 0.57466 0.0
C2009 C 0.87336 0.37684 0.54346 0.0
C2010 C 0.89148 0.39273 0.53257 0.0
H2011 H 0.84728 0.3709 0.57346 0.0
H2012 H 0.86809 0.35929 0.53458 0.0
C2013 C 0.8967 0.41596 0.544 0.0
C2014 C 0.64388 0.86214 0.56697 0.0
C2015 C 0.61982 0.86528 0.57722 0.0
H2016 H 0.66902 0.87093 0.53721 0.0
C2017 C 0.60216 0.88074 0.56504 0.0
H2018 H 0.65746 0.84967 0.57568 0.0
C2019 C 0.609 0.89361 0.54304 0.0
C2020 C 0.63336 0.89063 0.5331 0.0
H2021 H 0.58329 0.88288 0.57256 0.0
H2022 H 0.59558 0.90608 0.53416 0.0
C2023 C 0.65043 0.87434 0.54499 0.0
C2024 C 0.46147 0.16583 0.38447 0.0
C2025 C 0.45311 0.16554 0.40933 0.0
H2026 H 0.4887 0.15304 0.35807 0.0
C2027 C 0.46649 0.15166 0.42735 0.0
H2028 H 0.45185 0.17706 0.37048 0.0
C2029 C 0.48763 0.13735 0.42012 0.0
C2030 C 0.49544 0.13721 0.39495 0.0
H2031 H 0.46041 0.15164 0.44676 0.0
H2032 H 0.49736 0.12602 0.4339 0.0
C2033 C 0.48253 0.15207 0.37742 0.0
C2034 C 0.87765 0.46561 0.42613 0.0
C2035 C 0.86437 0.45172 0.40803 0.0
H2036 H 0.902 0.49731 0.43293 0.0
C2037 C 0.86409 0.45986 0.38315 0.0
H2038 H 0.87758 0.45976 0.44557 0.0
C2039 C 0.87704 0.48136 0.37624 0.0
C2040 C 0.89124 0.49487 0.39389 0.0
H2041 H 0.85325 0.44988 0.36911 0.0
H2042 H 0.87572 0.48754 0.35697 0.0
C2043 C 0.89124 0.48711 0.41903 0.0
C2044 C 0.56787 0.87734 0.42667 0.0
C2045 C 0.58291 0.86493 0.40866 0.0
H2046 H 0.5354 0.90102 0.43315 0.0
C2047 C 0.576 0.86576 0.38341 0.0
H2048 H 0.57275 0.87652 0.44635 0.0
C2049 C 0.55463 0.87886 0.37612 0.0
C2050 C 0.53996 0.89211 0.39376 0.0
H2051 H 0.58679 0.85562 0.36933 0.0
H2052 H 0.54942 0.87827 0.35654 0.0
C2053 C 0.5465 0.89106 0.41921 0.0
C2054 C 0.15475 0.56324 0.42606 0.0
C2055 C 0.16721 0.57742 0.40759 0.0
H2056 H 0.12981 0.5321 0.43335 0.0
C2057 C 0.1656 0.57021 0.38244 0.0
H2058 H 0.15619 0.5684 0.44566 0.0
C2059 C 0.15136 0.54951 0.37561 0.0
C2060 C 0.13788 0.53583 0.3937 0.0
H2061 H 0.17574 0.58044 0.36803 0.0
H2062 H 0.151 0.54417 0.35603 0.0
C2063 C 0.13997 0.54248 0.4191 0.0
C2064 C 0.48597 0.8912 0.60655 0.0
C2065 C 0.49319 0.89191 0.63183 0.0
H2066 H 0.45924 0.87673 0.57983 0.0
C2067 C 0.47929 0.87815 0.64958 0.0
H2068 H 0.49646 0.90159 0.59255 0.0
C2069 C 0.45798 0.8649 0.64259 0.0
C2070 C 0.45039 0.86443 0.61754 0.0
H2071 H 0.48505 0.87734 0.669 0.0
H2072 H 0.44774 0.85441 0.65673 0.0
C2073 C 0.46467 0.87731 0.59938 0.0
C2074 C 0.16646 0.45992 0.64278 0.0
C2075 C 0.16608 0.45242 0.61766 0.0
H2076 H 0.15505 0.48702 0.66978 0.0
C2077 C 0.15283 0.46685 0.59999 0.0
H2078 H 0.17727 0.44949 0.65652 0.0
C2079 C 0.1394 0.48832 0.60774 0.0
C2080 C 0.13954 0.49545 0.63309 0.0
H2081 H 0.15279 0.46144 0.5804 0.0
H2082 H 0.12871 0.49901 0.59416 0.0
C2083 C 0.15365 0.48136 0.65033 0.0
C2084 C 0.56392 0.15112 0.59991 0.0
C2085 C 0.57866 0.16433 0.61739 0.0
H2086 H 0.53202 0.12664 0.59461 0.0
C2087 C 0.57185 0.16429 0.64272 0.0
H2088 H 0.56877 0.15137 0.58017 0.0
C2089 C 0.5509 0.15104 0.65068 0.0
C2090 C 0.53653 0.13699 0.63362 0.0
H2091 H 0.58247 0.17505 0.65635 0.0
H2092 H 0.54586 0.15201 0.67035 0.0
C2093 C 0.54291 0.1373 0.60806 0.0
C2094 C 0.87768 0.56512 0.60026 0.0
C2095 C 0.86366 0.57841 0.6184 0.0
H2096 H 0.90276 0.53384 0.59327 0.0
C2097 C 0.86276 0.56971 0.64307 0.0
H2098 H 0.87818 0.57151 0.581 0.0
C2099 C 0.87596 0.54826 0.64979 0.0
C2100 C 0.89079 0.53529 0.63211 0.0
H2101 H 0.85145 0.57933 0.65713 0.0
H2102 H 0.87451 0.54181 0.66899 0.0
C2103 C 0.89138 0.54358 0.60715 0.0
C2104 C 0.42938 0.46546 0.14973 0.0
C2105 C 0.4111 0.45195 0.16327 0.0
H2106 H 0.43634 0.4967 0.12491 0.0
C2107 C 0.38616 0.4604 0.16371 0.0
H2108 H 0.44886 0.45933 0.14965 0.0
C2109 C 0.37931 0.48175 0.15053 0.0
C2110 C 0.39711 0.49483 0.13604 0.0
H2111 H 0.37199 0.4507 0.17471 0.0
H2112 H 0.35993 0.48806 0.15173 0.0
C2113 C 0.42235 0.48685 0.13596 0.0
C2114 C 0.43021 0.56402 0.87746 0.0
C2115 C 0.41205 0.57775 0.86404 0.0
H2116 H 0.43684 0.53287 0.90246 0.0
C2117 C 0.38697 0.56982 0.864 0.0
H2118 H 0.44977 0.56977 0.87725 0.0
C2119 C 0.37987 0.54881 0.87754 0.0
C2120 C 0.39757 0.53551 0.89187 0.0
H2121 H 0.37288 0.57973 0.85311 0.0
H2122 H 0.36035 0.54295 0.87677 0.0
C2123 C 0.42293 0.54292 0.89151 0.0
C2124 C 0.46258 0.38518 0.86032 0.0
C2125 C 0.45238 0.40921 0.86365 0.0
H2126 H 0.49201 0.35969 0.8694 0.0
C2127 C 0.46436 0.4265 0.87961 0.0
H2128 H 0.45398 0.37187 0.84753 0.0
C2129 C 0.48614 0.41933 0.89274 0.0
C2130 C 0.49598 0.39498 0.88963 0.0
H2131 H 0.45684 0.44533 0.88194 0.0
H2132 H 0.49491 0.43248 0.90553 0.0
C2133 C 0.48429 0.37827 0.8729 0.0
C2134 C 0.64411 0.46234 0.86056 0.0
C2135 C 0.62039 0.45167 0.86431 0.0
H2136 H 0.66932 0.49184 0.86985 0.0
C2137 C 0.60347 0.46269 0.88149 0.0
H2138 H 0.65712 0.45446 0.84689 0.0
C2139 C 0.61067 0.48409 0.89524 0.0
C2140 C 0.6347 0.49448 0.8916 0.0
H2141 H 0.58487 0.45479 0.88421 0.0
H2142 H 0.59775 0.49222 0.9088 0.0
C2143 C 0.65106 0.48365 0.8738 0.0
C2144 C 0.57134 0.64448 0.86266 0.0
C2145 C 0.5802 0.61978 0.86439 0.0
H2146 H 0.54303 0.67081 0.87308 0.0
C2147 C 0.56702 0.60219 0.87904 0.0
H2148 H 0.5808 0.65807 0.8508 0.0
C2149 C 0.54544 0.60968 0.89251 0.0
C2150 C 0.53695 0.63467 0.891 0.0
H2151 H 0.57346 0.58287 0.88012 0.0
H2152 H 0.53574 0.59622 0.90428 0.0
C2153 C 0.54979 0.65173 0.87551 0.0
C2154 C 0.60964 0.57284 0.14031 0.0
C2155 C 0.62216 0.57537 0.16332 0.0
H2156 H 0.60625 0.55111 0.10635 0.0
C2157 C 0.64066 0.55784 0.17012 0.0
H2158 H 0.59553 0.58646 0.13472 0.0
C2159 C 0.64701 0.5383 0.15395 0.0
C2160 C 0.63436 0.53543 0.13115 0.0
H2161 H 0.65082 0.5598 0.18761 0.0
H2162 H 0.66233 0.52579 0.15895 0.0
C2163 C 0.61558 0.55269 0.12432 0.0
C2164 C 0.46603 0.60148 0.15267 0.0
C2165 C 0.45118 0.61991 0.16467 0.0
H2166 H 0.49785 0.5944 0.12833 0.0
C2167 C 0.45784 0.64525 0.16275 0.0
H2168 H 0.46128 0.58175 0.15432 0.0
C2169 C 0.47864 0.65228 0.14869 0.0
C2170 C 0.49304 0.63421 0.13572 0.0
H2171 H 0.4471 0.65966 0.17251 0.0
H2172 H 0.48348 0.67203 0.1481 0.0
C2173 C 0.48692 0.60864 0.13809 0.0
C2174 C 0.57535 0.38341 0.15844 0.0
C2175 C 0.57987 0.4089 0.16304 0.0
H2176 H 0.55173 0.3562 0.14164 0.0
C2177 C 0.5634 0.42712 0.15318 0.0
H2178 H 0.58726 0.369 0.16658 0.0
C2179 C 0.54295 0.41973 0.13826 0.0
C2180 C 0.53885 0.39409 0.13338 0.0
H2181 H 0.56644 0.44692 0.15691 0.0
H2182 H 0.53062 0.43391 0.1304 0.0
C2183 C 0.55499 0.37611 0.14403 0.0
C2184 C 0.21899 0.52738 0.2492 0.0
C2185 C 0.21781 0.50078 0.24846 0.0
H2186 H 0.23352 0.56144 0.23373 0.0
C2187 C 0.23376 0.4887 0.2309 0.0
H2188 H 0.20796 0.53799 0.26265 0.0
C2189 C 0.24973 0.50245 0.21474 0.0
C2190 C 0.25019 0.52912 0.21477 0.0
H2191 H 0.23375 0.46842 0.22913 0.0
H2192 H 0.2617 0.49169 0.20227 0.0
C2193 C 0.23445 0.54115 0.23261 0.0
C2194 C 0.5423 0.23436 0.2323 0.0
C2195 C 0.52998 0.21729 0.24849 0.0
H2196 H 0.53958 0.26363 0.20509 0.0
C2197 C 0.50329 0.21776 0.24807 0.0
H2198 H 0.56264 0.23496 0.23133 0.0
C2199 C 0.48976 0.23374 0.23179 0.0
C2200 C 0.50208 0.25065 0.21545 0.0
H2201 H 0.4924 0.20582 0.26034 0.0
H2202 H 0.46943 0.23234 0.23191 0.0
C2203 C 0.52875 0.25079 0.21647 0.0
C2204 C 0.79531 0.49218 0.23295 0.0
C2205 C 0.77823 0.50428 0.21662 0.0
H2206 H 0.82319 0.49505 0.26145 0.0
C2207 C 0.77784 0.53093 0.21769 0.0
H2208 H 0.79697 0.47191 0.23309 0.0
C2209 C 0.7942 0.54465 0.23353 0.0
C2210 C 0.81152 0.53251 0.2496 0.0
H2211 H 0.76486 0.5416 0.20631 0.0
H2212 H 0.79338 0.56496 0.23268 0.0
C2213 C 0.81119 0.50585 0.24919 0.0
C2214 C 0.51263 0.77071 0.23147 0.0
C2215 C 0.53155 0.77999 0.2154 0.0
H2216 H 0.48469 0.77888 0.25966 0.0
C2217 C 0.53595 0.80608 0.21549 0.0
H2218 H 0.5087 0.75073 0.23187 0.0
C2219 C 0.52183 0.82241 0.23106 0.0
C2220 C 0.5029 0.81327 0.24741 0.0
H2221 H 0.55006 0.81395 0.20307 0.0
H2222 H 0.52555 0.84239 0.2299 0.0
C2223 C 0.49866 0.78701 0.2473 0.0
C2224 C 0.23617 0.54228 0.79449 0.0
C2225 C 0.21835 0.53037 0.77884 0.0
H2226 H 0.26588 0.53888 0.82118 0.0
C2227 C 0.21803 0.50372 0.77954 0.0
H2228 H 0.23746 0.56256 0.79516 0.0
C2229 C 0.23392 0.48985 0.79566 0.0
C2230 C 0.25145 0.5018 0.81159 0.0
H2231 H 0.20553 0.49311 0.76761 0.0
H2232 H 0.23195 0.46961 0.79582 0.0
C2233 C 0.25245 0.52838 0.81018 0.0
C2234 C 0.50943 0.23943 0.77333 0.0
C2235 C 0.50041 0.21592 0.78159 0.0
H2236 H 0.5312 0.27261 0.78199 0.0
C2237 C 0.50665 0.20836 0.8061 0.0
H2238 H 0.50517 0.2458 0.75453 0.0
C2239 C 0.52108 0.22392 0.82199 0.0
C2240 C 0.53045 0.24727 0.81369 0.0
H2241 H 0.50021 0.19036 0.81307 0.0
H2242 H 0.52523 0.2175 0.8408 0.0
C2243 C 0.5245 0.25473 0.78902 0.0
C2244 C 0.79755 0.54025 0.79492 0.0
C2245 C 0.78142 0.52851 0.81245 0.0
H2246 H 0.82438 0.53666 0.76527 0.0
C2247 C 0.78148 0.50185 0.81238 0.0
H2248 H 0.79876 0.56053 0.79397 0.0
C2249 C 0.7975 0.48779 0.79635 0.0
C2250 C 0.81391 0.4996 0.77911 0.0
H2251 H 0.76916 0.49143 0.82471 0.0
H2252 H 0.79719 0.46751 0.79796 0.0
C2253 C 0.81306 0.52621 0.77849 0.0
C2254 C 0.48866 0.79707 0.79435 0.0
C2255 C 0.50078 0.78101 0.81166 0.0
H2256 H 0.49174 0.82416 0.76498 0.0
C2257 C 0.52747 0.78146 0.81147 0.0
H2258 H 0.46832 0.79795 0.79353 0.0
C2259 C 0.5412 0.79765 0.79551 0.0
C2260 C 0.52907 0.8139 0.7784 0.0
H2261 H 0.5382 0.76925 0.82361 0.0
H2262 H 0.56151 0.79755 0.7971 0.0
C2263 C 0.50241 0.81284 0.77799 0.0
C2264 C 0.23547 0.23524 0.53867 0.0
C2265 C 0.21827 0.25145 0.52656 0.0
H2266 H 0.26495 0.20805 0.53566 0.0
C2267 C 0.21874 0.25126 0.50001 0.0
H2268 H 0.23608 0.23418 0.5589 0.0
C2269 C 0.23475 0.23495 0.48636 0.0
C2270 C 0.25166 0.21847 0.4985 0.0
H2271 H 0.20674 0.26368 0.48936 0.0
H2272 H 0.23333 0.23512 0.46615 0.0
C2273 C 0.25197 0.21946 0.52502 0.0
C2274 C 0.80773 0.20752 0.51992 0.0
C2275 C 0.78346 0.21575 0.52704 0.0
H2276 H 0.84261 0.21604 0.50095 0.0
C2277 C 0.77589 0.23997 0.51928 0.0
H2278 H 0.81422 0.18901 0.52546 0.0
C2279 C 0.79196 0.25524 0.5045 0.0
C2280 C 0.81638 0.24706 0.49764 0.0
H2281 H 0.75733 0.24692 0.52428 0.0
H2282 H 0.78541 0.27364 0.49871 0.0
C2283 C 0.82403 0.22303 0.50582 0.0
C2284 C 0.80087 0.77284 0.50862 0.0
C2285 C 0.81452 0.78143 0.52954 0.0
H2286 H 0.77494 0.78148 0.4791 0.0
C2287 C 0.81231 0.80704 0.53595 0.0
H2288 H 0.80204 0.75324 0.50314 0.0
C2289 C 0.79732 0.82363 0.52165 0.0
C2290 C 0.78346 0.81518 0.50061 0.0
H2291 H 0.82283 0.81446 0.55168 0.0
H2292 H 0.7971 0.8433 0.52692 0.0
C2293 C 0.78544 0.7893 0.4946 0.0
C2294 C 0.2337 0.79904 0.48535 0.0
C2295 C 0.21736 0.78181 0.49732 0.0
H2296 H 0.26174 0.82772 0.48868 0.0
C2297 C 0.21805 0.78157 0.52385 0.0
H2298 H 0.23411 0.80038 0.46512 0.0
C2299 C 0.23339 0.79823 0.53765 0.0
C2300 C 0.24952 0.8157 0.52578 0.0
H2301 H 0.20676 0.76842 0.53442 0.0
H2302 H 0.23206 0.79746 0.55786 0.0
C2303 C 0.2495 0.81539 0.49919 0.0
C2304 C 1.00168 0.50919 0.29651 0.0
C2305 C 0.98939 0.51245 0.31956 0.0
H2306 H 0.03749 0.50845 0.27771 0.0
C2307 C 1.00296 0.51544 0.34175 0.0
H2308 H 0.99109 0.50651 0.27938 0.0
C2309 C 0.02895 0.51516 0.34096 0.0
C2310 C 0.0413 0.51264 0.31789 0.0
H2311 H 0.99347 0.51747 0.35969 0.0
H2312 H 0.03941 0.51782 0.35819 0.0
C2313 C 0.02783 0.5099 0.2956 0.0
C2314 C 0.50945 1.00323 0.34071 0.0
C2315 C 0.51829 0.99018 0.31964 0.0
H2316 H 0.50132 0.03924 0.35652 0.0
C2317 C 0.52522 1.00297 0.29774 0.0
H2318 H 0.5045 0.9935 0.35788 0.0
C2319 C 0.52306 0.02898 0.29689 0.0
C2320 C 0.51477 0.04187 0.31821 0.0
H2321 H 0.53224 0.99286 0.28147 0.0
H2322 H 0.528 0.03899 0.2799 0.0
C2323 C 0.50797 0.02913 0.34007 0.0
C2324 C 1.00234 0.51811 0.72673 0.0
C2325 C 0.98968 0.51678 0.70383 0.0
H2326 H 0.03834 0.51617 0.74474 0.0
C2327 C 1.00272 0.51335 0.68126 0.0
H2328 H 0.99212 0.52092 0.74415 0.0
C2329 C 0.02866 0.51171 0.68152 0.0
C2330 C 0.04133 0.51278 0.70439 0.0
H2331 H 0.9929 0.51264 0.66348 0.0
H2332 H 0.03882 0.50928 0.66398 0.0
C2333 C 0.02836 0.51558 0.72706 0.0
C2334 C 0.50803 1.00277 0.72812 0.0
C2335 C 0.51235 0.9909 0.70505 0.0
H2336 H 0.50791 0.03797 0.74784 0.0
C2337 C 0.51881 1.00469 0.68371 0.0
H2338 H 0.5029 0.99202 0.7446 0.0
C2339 C 0.52064 0.03052 0.68535 0.0
C2340 C 0.51664 0.04236 0.70845 0.0
H2341 H 0.52181 0.99556 0.66573 0.0
H2342 H 0.52555 0.04124 0.66876 0.0
C2343 C 0.51067 0.02867 0.72994 0.0
C2344 C 0.35075 1.00696 0.5131 0.0
C2345 C 0.33655 0.99134 0.49746 0.0
H2346 H 0.35535 0.04413 0.52746 0.0
C2347 C 0.31793 1.00151 0.48176 0.0
H2348 H 0.36545 0.99943 0.52501 0.0
C2349 C 0.31212 0.02694 0.48332 0.0
C2350 C 0.32525 0.04198 0.50022 0.0
H2351 H 0.30688 0.98963 0.4695 0.0
H2352 H 0.29665 0.03453 0.47247 0.0
C2353 C 0.34515 0.03232 0.51438 0.0
C2354 C 0.99701 0.30887 0.53708 0.0
C2355 C 0.9892 0.33315 0.53051 0.0
H2356 H 0.02836 0.28357 0.53918 0.0
C2357 C 1.00666 0.35206 0.5254 0.0
H2358 H 0.98339 0.29418 0.54083 0.0
C2359 C 0.03209 0.34624 0.5254 0.0
C2360 C 0.0398 0.32143 0.52986 0.0
H2361 H 1.00058 0.37084 0.52027 0.0
H2362 H 0.04552 0.3605 0.51972 0.0
C2363 C 0.02242 0.30287 0.5363 0.0
C2364 C 0.68315 1.00595 0.52824 0.0
C2365 C 0.70308 0.98939 0.52373 0.0
H2366 H 0.67133 0.04423 0.5282 0.0
C2367 C 0.72712 0.9981 0.51753 0.0
H2368 H 0.66447 0.99907 0.53282 0.0
C2369 C 0.73105 0.02375 0.51499 0.0
C2370 C 0.71101 0.0404 0.51919 0.0
H2371 H 0.74248 0.98508 0.51393 0.0
H2372 H 0.7494 0.03055 0.50919 0.0
C2373 C 0.68716 0.03152 0.52607 0.0
C2374 C 1.00107 0.68872 0.52328 0.0
C2375 C 0.98962 0.71198 0.51863 0.0
H2376 H 0.03585 0.6688 0.52657 0.0
C2377 C 1.00406 0.73372 0.51529 0.0
H2378 H 0.99003 0.6717 0.52521 0.0
C2379 C 0.03015 0.73208 0.51644 0.0
C2380 C 0.04142 0.70858 0.51993 0.0
H2381 H 0.9952 0.75165 0.5113 0.0
H2382 H 0.04147 0.74883 0.5139 0.0
C2383 C 0.02701 0.68697 0.5236 0.0
C2384 C 0.50829 0.34715 1.00184 0.0
C2385 C 0.50414 0.32591 0.987 0.0
H2386 H 0.51371 0.36094 0.03897 0.0
C2387 C 0.50093 0.30211 0.99764 0.0
H2388 H 0.51068 0.36559 0.99353 0.0
C2389 C 0.5033 0.29934 0.02338 0.0
C2390 C 0.50777 0.32059 0.03815 0.0
H2391 H 0.49774 0.28569 0.986 0.0
H2392 H 0.50226 0.28078 0.03167 0.0
C2393 C 0.50971 0.34454 0.02753 0.0
C2394 C 0.52038 0.73002 0.99963 0.0
C2395 C 0.52363 0.70643 0.98848 0.0
H2396 H 0.51404 0.7497 0.03419 0.0
C2397 C 0.52529 0.68456 1.00282 0.0
H2398 H 0.51915 0.74691 0.98836 0.0
C2399 C 0.52337 0.68622 0.02859 0.0
C2400 C 0.51916 0.70969 0.03983 0.0
H2401 H 0.52785 0.66629 0.99405 0.0
H2402 H 0.52391 0.66912 0.03961 0.0
C2403 C 0.51766 0.73161 0.02547 0.0
C2404 C 0.29771 0.51695 1.00123 0.0
C2405 C 0.32031 0.51499 0.98776 0.0
H2406 H 0.28073 0.51624 0.03779 0.0
C2407 C 0.34336 0.512 1.00002 0.0
H2408 H 0.27992 0.51965 0.99167 0.0
C2409 C 0.34391 0.51136 0.02586 0.0
C2410 C 0.32136 0.51298 0.03935 0.0
H2411 H 0.36096 0.51104 0.98965 0.0
H2412 H 0.36184 0.50915 0.03532 0.0
C2413 C 0.29818 0.51535 0.02721 0.0
C2414 C 0.72347 0.51093 0.99492 0.0
C2415 C 0.69901 0.50524 0.98701 0.0
H2416 H 0.74754 0.51683 0.02647 0.0
C2417 C 0.68026 0.49882 1.0042 0.0
H2418 H 0.73817 0.51534 0.98147 0.0
C2419 C 0.68566 0.49934 0.02959 0.0
C2420 C 0.70984 0.506 0.03769 0.0
H2421 H 0.66138 0.49421 0.99802 0.0
H2422 H 0.67055 0.49628 0.04288 0.0
C2423 C 0.72888 0.51138 0.02033 0.0
C2424 C 0.27021 0.30077 0.37565 0.0
C2425 C 0.26853 0.2779 0.36258 0.0
H2426 H 0.2653 0.34055 0.3735 0.0
C2427 C 0.25238 0.27615 0.34187 0.0
H2428 H 0.28238 0.3025 0.39184 0.0
C2429 C 0.24263 0.29802 0.33125 0.0
C2430 C 0.24892 0.32158 0.34142 0.0
H2431 H 0.25052 0.25854 0.33176 0.0
H2432 H 0.23282 0.29671 0.31351 0.0
C2433 C 0.26058 0.32266 0.36498 0.0
C2434 C 0.73135 0.24161 0.3308 0.0
C2435 C 0.70804 0.24812 0.34162 0.0
H2436 H 0.7709 0.24908 0.33038 0.0
C2437 C 0.70752 0.25977 0.36525 0.0
H2438 H 0.73216 0.23187 0.31295 0.0
C2439 C 0.72971 0.26927 0.37537 0.0
C2440 C 0.75228 0.26739 0.36167 0.0
H2441 H 0.68979 0.26462 0.3742 0.0
H2442 H 0.72836 0.28148 0.39163 0.0
C2443 C 0.75352 0.25115 0.34092 0.0
C2444 C 0.75256 0.72209 0.31012 0.0
C2445 C 0.77437 0.71187 0.32063 0.0
H2446 H 0.72429 0.74913 0.31102 0.0
C2447 C 0.78516 0.72394 0.34157 0.0
H2448 H 0.74262 0.71271 0.29509 0.0
C2449 C 0.77429 0.74623 0.35126 0.0
C2450 C 0.75249 0.75649 0.34016 0.0
H2451 H 0.80164 0.71606 0.35055 0.0
H2452 H 0.78261 0.75505 0.36755 0.0
C2453 C 0.74194 0.74368 0.31953 0.0
C2454 C 0.30385 0.75863 0.3783 0.0
C2455 C 0.28128 0.76277 0.36525 0.0
H2456 H 0.34402 0.76123 0.37664 0.0
C2457 C 0.28077 0.78054 0.34586 0.0
H2458 H 0.30463 0.74518 0.39352 0.0
C2459 C 0.30335 0.78946 0.336 0.0
C2460 C 0.32635 0.78096 0.34584 0.0
H2461 H 0.26343 0.78431 0.33585 0.0
H2462 H 0.3029 0.80031 0.31884 0.0
C2463 C 0.32647 0.76765 0.3685 0.0
C2464 C 0.24309 0.73166 0.69795 0.0
C2465 C 0.24944 0.7085 0.68679 0.0
H2466 H 0.24947 0.77135 0.69773 0.0
C2467 C 0.25947 0.70829 0.66238 0.0
H2468 H 0.23437 0.73232 0.71635 0.0
C2469 C 0.26748 0.73069 0.65148 0.0
C2470 C 0.266 0.7532 0.66521 0.0
H2471 H 0.26414 0.69077 0.65304 0.0
H2472 H 0.27855 0.72963 0.63439 0.0
C2473 C 0.2512 0.75403 0.68707 0.0
C2474 C 0.29973 0.2421 0.69228 0.0
C2475 C 0.32332 0.24906 0.68246 0.0
H2476 H 0.26008 0.24928 0.69156 0.0
C2477 C 0.32444 0.26111 0.6591 0.0
H2478 H 0.29843 0.23199 0.70985 0.0
C2479 C 0.30243 0.2705 0.64838 0.0
C2480 C 0.27945 0.26818 0.66125 0.0
H2481 H 0.34236 0.2663 0.65086 0.0
H2482 H 0.3041 0.283 0.63244 0.0
C2483 C 0.27777 0.25161 0.68162 0.0
C2484 C 0.76078 0.30064 0.65068 0.0
C2485 C 0.76196 0.27766 0.66352 0.0
H2486 H 0.76659 0.34023 0.65323 0.0
C2487 C 0.77802 0.27533 0.68423 0.0
H2488 H 0.74867 0.30281 0.6345 0.0
C2489 C 0.7883 0.29684 0.69505 0.0
C2490 C 0.78255 0.32061 0.68511 0.0
H2491 H 0.77949 0.25761 0.69414 0.0
H2492 H 0.79806 0.29516 0.71278 0.0
C2493 C 0.77092 0.32217 0.66157 0.0
C2494 C 0.70779 0.77049 0.66158 0.0
C2495 C 0.70782 0.78209 0.68523 0.0
H2496 H 0.72938 0.74924 0.63515 0.0
C2497 C 0.73088 0.78892 0.69612 0.0
H2498 H 0.69025 0.7654 0.65259 0.0
C2499 C 0.75337 0.77987 0.68597 0.0
C2500 C 0.75272 0.76369 0.66515 0.0
H2501 H 0.73131 0.79861 0.71402 0.0
H2502 H 0.77061 0.78222 0.69654 0.0
C2503 C 0.7303 0.76142 0.65145 0.0
C2504 C 0.37974 0.27231 0.30073 0.0
C2505 C 0.36703 0.26877 0.27795 0.0
H2506 H 0.37749 0.26868 0.34057 0.0
C2507 C 0.34726 0.25134 0.27675 0.0
H2508 H 0.39515 0.28558 0.30204 0.0
C2509 C 0.33702 0.24181 0.29884 0.0
C2510 C 0.34668 0.24953 0.3221 0.0
H2511 H 0.33743 0.24814 0.25926 0.0
H2512 H 0.31978 0.23098 0.29787 0.0
C2513 C 0.36948 0.26279 0.32285 0.0
C2514 C 0.77912 0.34476 0.27517 0.0
C2515 C 0.7628 0.36553 0.27673 0.0
H2516 H 0.79854 0.31633 0.29586 0.0
C2517 C 0.76065 0.37868 0.2995 0.0
H2518 H 0.78132 0.33459 0.25765 0.0
C2519 C 0.77006 0.36802 0.32142 0.0
C2520 C 0.78192 0.3444 0.32047 0.0
H2521 H 0.74831 0.39489 0.3011 0.0
H2522 H 0.76503 0.37657 0.33921 0.0
C2523 C 0.78862 0.33415 0.29705 0.0
C2524 C 0.65891 0.74066 0.31133 0.0
C2525 C 0.66297 0.74848 0.28663 0.0
H2526 H 0.66455 0.74901 0.34991 0.0
C2527 C 0.66969 0.77339 0.2816 0.0
H2528 H 0.65351 0.72143 0.31533 0.0
C2529 C 0.67558 0.78948 0.30144 0.0
C2530 C 0.67545 0.78031 0.32618 0.0
H2531 H 0.67257 0.77962 0.26248 0.0
H2532 H 0.68358 0.80774 0.29729 0.0
C2533 C 0.66479 0.75666 0.33109 0.0
C2534 C 0.25021 0.69217 0.27342 0.0
C2535 C 0.2651 0.67027 0.2735 0.0
H2536 H 0.23313 0.7208 0.2961 0.0
C2537 C 0.2663 0.65576 0.29542 0.0
H2538 H 0.24855 0.70336 0.25655 0.0
C2539 C 0.25788 0.66587 0.31808 0.0
C2540 C 0.24784 0.69032 0.31873 0.0
H2541 H 0.27736 0.63859 0.29592 0.0
H2542 H 0.26231 0.65595 0.33522 0.0
C2543 C 0.24178 0.70231 0.29608 0.0
C2544 C 0.33885 0.78605 0.72546 0.0
C2545 C 0.34635 0.77731 0.7017 0.0
H2546 H 0.34056 0.77966 0.76501 0.0
C2547 C 0.36691 0.76079 0.69962 0.0
H2548 H 0.32315 0.79901 0.72735 0.0
C2549 C 0.37706 0.75002 0.72115 0.0
C2550 C 0.36657 0.75568 0.7447 0.0
H2551 H 0.37292 0.75378 0.68146 0.0
H2552 H 0.39055 0.73479 0.71909 0.0
C2553 C 0.34888 0.77517 0.74695 0.0
C2554 C 0.24266 0.33581 0.72597 0.0
C2555 C 0.25103 0.34551 0.70294 0.0
H2556 H 0.24777 0.33606 0.76572 0.0
C2557 C 0.26485 0.36796 0.7026 0.0
H2558 H 0.23153 0.31876 0.7266 0.0
C2559 C 0.27396 0.37796 0.725 0.0
C2560 C 0.26939 0.36541 0.74771 0.0
H2561 H 0.27131 0.37589 0.68503 0.0
H2562 H 0.28756 0.39311 0.72408 0.0
C2563 C 0.25168 0.34586 0.74834 0.0
C2564 C 0.69356 0.24124 0.72635 0.0
C2565 C 0.68363 0.24897 0.70322 0.0
H2566 H 0.69353 0.24768 0.76592 0.0
C2567 C 0.66057 0.26191 0.70274 0.0
H2568 H 0.71096 0.23055 0.72712 0.0
C2569 C 0.65041 0.27137 0.72499 0.0
C2570 C 0.66353 0.26812 0.74757 0.0
H2571 H 0.65229 0.26772 0.68513 0.0
H2572 H 0.6348 0.2845 0.72385 0.0
C2573 C 0.68344 0.25075 0.74856 0.0
C2574 C 0.78899 0.69714 0.72989 0.0
C2575 C 0.78272 0.68692 0.70641 0.0
H2576 H 0.7811 0.69664 0.76923 0.0
C2577 C 0.77101 0.6633 0.70533 0.0
H2578 H 0.79879 0.71496 0.73117 0.0
C2579 C 0.76136 0.65259 0.72716 0.0
C2580 C 0.7631 0.66569 0.74996 0.0
H2581 H 0.76631 0.65478 0.68749 0.0
H2582 H 0.74917 0.63636 0.72546 0.0
C2583 C 0.77923 0.68649 0.75169 0.0
C2584 C 0.29994 0.33201 0.23923 0.0
C2585 C 0.32302 0.34313 0.24568 0.0
H2586 H 0.26031 0.33132 0.24649 0.0
C2587 C 0.32302 0.36697 0.25703 0.0
H2588 H 0.2995 0.314 0.22969 0.0
C2589 C 0.30056 0.37703 0.26633 0.0
C2590 C 0.27822 0.36306 0.26455 0.0
H2591 H 0.34055 0.37618 0.2618 0.0
H2592 H 0.30154 0.39348 0.27832 0.0
C2593 C 0.2775 0.34208 0.24853 0.0
C2594 C 0.3009 0.65002 0.76122 0.0
C2595 C 0.27869 0.6644 0.76266 0.0
H2596 H 0.34081 0.65039 0.76616 0.0
C2597 C 0.27773 0.68516 0.77896 0.0
H2598 H 0.30199 0.63363 0.74915 0.0
C2599 C 0.30006 0.69494 0.78848 0.0
C2600 C 0.32314 0.68363 0.78205 0.0
H2601 H 0.26057 0.69611 0.78087 0.0
H2602 H 0.29961 0.71303 0.7979 0.0
C2603 C 0.32323 0.65974 0.77083 0.0
C2604 C 0.37687 0.29979 0.76041 0.0
C2605 C 0.36285 0.27744 0.76082 0.0
H2606 H 0.37598 0.33939 0.7669 0.0
C2607 C 0.34153 0.2759 0.77639 0.0
H2608 H 0.39358 0.30136 0.74878 0.0
C2609 C 0.33135 0.29777 0.78677 0.0
C2610 C 0.34259 0.32112 0.78164 0.0
H2611 H 0.33074 0.25864 0.77738 0.0
H2612 H 0.31314 0.29685 0.79597 0.0
C2613 C 0.36667 0.32169 0.7707 0.0
C2614 C 0.73079 0.33125 0.78646 0.0
C2615 C 0.70787 0.34251 0.77958 0.0
H2616 H 0.77058 0.33043 0.78021 0.0
C2617 C 0.70808 0.36636 0.76838 0.0
H2618 H 0.73103 0.31321 0.79589 0.0
C2619 C 0.73073 0.37633 0.75971 0.0
C2620 C 0.75304 0.36226 0.76194 0.0
H2621 H 0.69066 0.37567 0.76329 0.0
H2622 H 0.73002 0.3928 0.74779 0.0
C2623 C 0.75343 0.34126 0.77784 0.0
C2624 C 0.66202 0.70489 0.76597 0.0
C2625 C 0.68493 0.7058 0.77898 0.0
H2626 H 0.63612 0.72557 0.74338 0.0
C2627 C 0.69456 0.72921 0.78651 0.0
H2628 H 0.65406 0.68704 0.76026 0.0
C2629 C 0.68416 0.75129 0.77702 0.0
C2630 C 0.66428 0.74993 0.75981 0.0
H2631 H 0.71189 0.7303 0.79713 0.0
H2632 H 0.69398 0.76888 0.78005 0.0
C2633 C 0.65162 0.72701 0.75648 0.0
C2634 C 0.72884 0.68602 0.23395 0.0
C2635 C 0.7074 0.67696 0.24636 0.0
H2636 H 0.76894 0.68407 0.23099 0.0
C2637 C 0.70886 0.65439 0.25975 0.0
H2638 H 0.72787 0.70308 0.22293 0.0
C2639 C 0.7324 0.64382 0.26479 0.0
C2640 C 0.75447 0.65625 0.25689 0.0
H2641 H 0.69229 0.64673 0.26884 0.0
H2642 H 0.73323 0.62875 0.2784 0.0
C2643 C 0.75227 0.67489 0.23831 0.0
C2644 C 0.36732 0.70612 0.25931 0.0
C2645 C 0.34436 0.70859 0.24654 0.0
H2646 H 0.39405 0.72448 0.28288 0.0
C2647 C 0.3354 0.73276 0.24064 0.0
H2648 H 0.37485 0.68774 0.26386 0.0
C2649 C 0.3464 0.75382 0.25163 0.0
C2650 C 0.36648 0.75072 0.26838 0.0
H2651 H 0.31812 0.73513 0.23013 0.0
H2652 H 0.33707 0.7719 0.24991 0.0
C2653 C 0.37846 0.72723 0.27009 0.0
C2654 C 0.66242 0.32561 0.26115 0.0
C2655 C 0.68535 0.32483 0.248 0.0
H2656 H 0.63662 0.30479 0.2838 0.0
C2657 C 0.69525 0.30146 0.24042 0.0
H2658 H 0.65425 0.34341 0.26693 0.0
C2659 C 0.68504 0.27932 0.24993 0.0
C2660 C 0.66504 0.28055 0.26718 0.0
H2661 H 0.7126 0.30047 0.22968 0.0
H2662 H 0.69502 0.26177 0.2468 0.0
C2663 C 0.65219 0.30343 0.27064 0.0
C2664 C 1.00028 0.42376 0.42729 0.0
C2665 C 0.99533 0.39814 0.42227 0.0
H2666 H 0.02145 0.45701 0.41857 0.0
C2667 C 1.00959 0.38679 0.40279 0.0
H2668 H 0.98991 0.43348 0.44193 0.0
C2669 C 0.02807 0.4006 0.3891 0.0
C2670 C 0.03293 0.42629 0.39431 0.0
H2671 H 1.00659 0.36718 0.39818 0.0
H2672 H 0.03874 0.39103 0.37458 0.0
C2673 C 0.01853 0.43745 0.41368 0.0
C2674 C 0.64409 1.01164 0.40705 0.0
C2675 C 0.63117 0.99287 0.42081 0.0
H2676 H 0.64156 0.04456 0.38329 0.0
C2677 C 0.60457 0.99327 0.41932 0.0
H2678 H 0.66448 1.01224 0.40748 0.0
C2679 C 0.59144 1.01175 0.40543 0.0
C2680 C 0.60414 0.03086 0.39213 0.0
H2681 H 0.59364 0.97922 0.42918 0.0
H2682 H 0.57104 1.01116 0.40534 0.0
C2683 C 0.63084 0.03025 0.393 0.0
C2684 C 1.00525 0.6279 0.38867 0.0
C2685 C 0.99648 0.60407 0.39672 0.0
H2686 H 0.03002 0.65957 0.39543 0.0
C2687 C 1.00718 0.59455 0.41899 0.0
H2688 H 0.99764 0.63619 0.37177 0.0
C2689 C 0.02559 0.60801 0.43262 0.0
C2690 C 0.03441 0.63179 0.4248 0.0
H2691 H 1.00122 0.57646 0.42614 0.0
H2692 H 0.033 0.59955 0.44952 0.0
C2693 C 0.02388 0.64147 0.4024 0.0
C2694 C 0.432 1.0009 0.42277 0.0
C2695 C 0.42699 0.99483 0.39746 0.0
H2696 H 0.4224 0.02266 0.45549 0.0
C2697 C 0.40638 1.00747 0.38624 0.0
H2698 H 0.4474 0.99173 0.43242 0.0
C2699 C 0.39178 0.02559 0.39974 0.0
C2700 C 0.39704 0.03166 0.42508 0.0
H2701 H 0.40158 1.00346 0.36693 0.0
H2702 H 0.37645 0.035 0.39021 0.0
C2703 C 0.41741 0.01876 0.43621 0.0
C2704 C 1.01231 0.61383 0.5907 0.0
C2705 C 0.99851 0.63387 0.6015 0.0
H2706 H 0.04027 0.58487 0.59503 0.0
C2707 C 1.00389 0.63965 0.62689 0.0
H2708 H 1.00904 0.60853 0.57137 0.0
C2709 C 0.02218 0.62579 0.64076 0.0
C2710 C 0.03572 0.60549 0.62985 0.0
H2711 H 0.99375 0.65475 0.63618 0.0
H2712 H 0.02559 0.63089 0.66012 0.0
C2713 C 0.03037 0.60003 0.60449 0.0
C2714 C 0.42727 0.99522 0.60709 0.0
C2715 C 0.40066 0.99399 0.60684 0.0
H2716 H 0.46077 1.01359 0.6203 0.0
C2717 C 0.38774 1.01172 0.6221 0.0
H2718 H 0.43823 0.98201 0.59603 0.0
C2719 C 0.40098 0.03012 0.63644 0.0
C2720 C 0.42767 0.03156 0.63609 0.0
H2721 H 0.36735 1.01162 0.62272 0.0
H2722 H 0.39023 0.0436 0.6474 0.0
C2723 C 0.44038 1.0135 0.62125 0.0
C2724 C 0.99757 0.42631 0.6028 0.0
C2725 C 0.99442 0.42407 0.62901 0.0
H2726 H 0.01714 0.41455 0.5694 0.0
C2727 C 1.00986 0.40623 0.64128 0.0
H2728 H 0.98604 0.43943 0.59236 0.0
C2729 C 0.02805 0.3917 0.62785 0.0
C2730 C 0.03134 0.39434 0.60162 0.0
H2731 H 1.00813 0.40368 0.66135 0.0
H2732 H 0.03982 0.37866 0.63812 0.0
C2733 C 1.01551 0.4118 0.58945 0.0
C2734 C 0.62222 1.01183 0.64097 0.0
C2735 C 0.60611 0.99486 0.62829 0.0
H2736 H 0.64832 0.04303 0.63829 0.0
C2737 C 0.6056 0.99673 0.60186 0.0
H2738 H 0.62344 1.01123 0.66122 0.0
C2739 C 0.61992 1.01489 0.58872 0.0
C2740 C 0.63565 0.03219 0.60123 0.0
H2741 H 0.59391 0.98404 0.59109 0.0
H2742 H 0.61849 0.01544 0.56847 0.0
C2743 C 0.6367 0.03012 0.62771 0.0
C2744 C 0.39223 0.40144 1.00118 0.0
C2745 C 0.39773 0.42694 0.99578 0.0
H2746 H 0.40149 0.36808 0.0226 0.0
C2747 C 0.41783 0.43782 1.00923 0.0
H2748 H 0.3771 0.39208 0.99132 0.0
C2749 C 0.43197 0.42399 0.02693 0.0
C2750 C 0.42677 0.3985 0.03228 0.0
H2751 H 0.4229 0.45726 1.00595 0.0
H2752 H 0.44713 0.4335 0.0366 0.0
C2753 C 0.4064 0.38753 0.01915 0.0
C2754 C 0.40891 0.64446 1.01094 0.0
C2755 C 0.42542 0.63205 0.99399 0.0
H2756 H 0.38284 0.64123 0.04216 0.0
C2757 C 0.42675 0.60557 0.99591 0.0
H2758 H 0.40709 0.66474 1.01027 0.0
C2759 C 0.41279 0.5921 0.01407 0.0
C2760 C 0.39666 0.60433 0.03134 0.0
H2761 H 0.4388 0.59499 0.98327 0.0
H2762 H 0.41486 0.57184 0.01464 0.0
C2763 C 0.39483 0.63086 0.02928 0.0
C2764 C 0.60256 0.42332 0.99749 0.0
C2765 C 0.60622 0.39731 0.99323 0.0
H2766 H 0.61277 0.45664 0.0179 0.0
C2767 C 0.62516 0.38542 1.00767 0.0
H2768 H 0.58854 0.43352 0.98684 0.0
C2769 C 0.63942 0.39902 0.02583 0.0
C2770 C 0.63533 0.42503 0.0302 0.0
H2771 H 0.62885 0.36553 1.00512 0.0
H2772 H 0.6534 0.38902 0.03673 0.0
C2773 C 0.61669 0.43678 0.01546 0.0
C2774 C 0.64253 0.61189 0.01727 0.0
C2775 C 0.6322 0.60714 0.99332 0.0
H2776 H 0.6373 0.6284 0.05409 0.0
C2777 C 0.60809 0.61747 0.98854 0.0
H2778 H 0.66086 0.60429 0.02199 0.0
C2779 C 0.59449 0.63108 1.00702 0.0
C2780 C 0.60451 0.63539 0.03106 0.0
H2781 H 0.59942 0.61477 0.97038 0.0
H2782 H 0.57591 0.63819 1.00248 0.0
C2783 C 0.62897 0.62585 0.03575 0.0
loop_
_geom_bond_atom_site_label_1
_geom_bond_atom_site_label_2
_geom_bond_distance
_geom_bond_site_symmetry_2
_ccdc_geom_bond_type
C0 C1 1.359 . S
C0 N5 1.330 . S
C0 C61 1.504 . S
C1 C0 1.359 . S
C1 C2 1.366 . S
C1 H63 0.929 . S
C2 C1 1.366 . S
C2 C3 1.415 . S
C2 H64 0.932 . S
C3 C2 1.415 . S
C3 C4 1.366 . S
C3 H65 0.931 . S
C4 C3 1.366 . S
C4 N5 1.325 . S
C4 C6 1.516 . S
N5 C0 1.330 . S
N5 C4 1.325 . S
N5 Co21 1.869 . S
C6 C4 1.516 . S
C6 N30 1.316 . S
C6 O53 1.263 . S
C7 C8 1.421 . S
C7 C12 1.360 . S
C7 N30 1.436 . S
C8 C7 1.421 . S
C8 C9 1.379 . S
C8 H66 0.929 . S
C9 C8 1.379 . S
C9 C10 1.417 . S
C10 C9 1.417 . S
C10 C11 1.352 . S
C10 H67 0.929 . S
C11 C10 1.352 . S
C11 C12 1.393 . S
C12 C7 1.360 . S
C12 C11 1.393 . S
C12 H68 0.931 . S
Cd13 O33 2.329 . S
Cd13 O35 2.350 . S
Cd13 O36 2.277 . S
Cd13 O38 2.173 . S
Cd13 O42 2.263 . S
Cd13 O53 2.366 . S
Cd14 O32 2.352 . S
Cd14 O39 2.250 . S
Cd14 O43 2.308 . S
C15 C19 1.403 . S
C15 C20 1.370 . S
C15 N31 1.423 . S
C16 C17 1.389 . S
C16 C20 1.389 . S
C17 C16 1.389 . S
C17 C18 1.379 . S
C17 H69 0.929 . S
C18 C17 1.379 . S
C18 C19 1.405 . S
C19 C15 1.403 . S
C19 C18 1.405 . S
C19 H70 0.932 . S
C20 C15 1.370 . S
C20 C16 1.389 . S
C20 H71 0.931 . S
Co21 N5 1.869 . S
Co21 N22 1.955 . S
Co21 N23 1.864 . S
Co21 N29 1.958 . S
Co21 N30 1.953 . S
Co21 N31 1.974 . S
N22 Co21 1.955 . S
N22 C40 1.329 . S
N22 C55 1.432 . S
N23 Co21 1.864 . S
N23 C24 1.327 . S
N23 C28 1.342 . S
C24 N23 1.327 . S
C24 C25 1.407 . S
C24 C40 1.481 . S
C25 C24 1.407 . S
C25 C26 1.364 . S
C25 H72 0.930 . S
C26 C25 1.364 . S
C26 C27 1.390 . S
C26 H73 0.931 . S
C27 C26 1.390 . S
C27 C28 1.346 . S
C27 H74 0.930 . S
C28 N23 1.342 . S
C28 C27 1.346 . S
C28 C44 1.516 . S
N29 Co21 1.958 . S
N29 C44 1.324 . S
N29 C46 1.427 . S
N30 C6 1.316 . S
N30 C7 1.436 . S
N30 Co21 1.953 . S
N31 C15 1.423 . S
N31 Co21 1.974 . S
N31 C61 1.309 . S
O32 Cd14 2.352 . S
O32 C52 1.235 . S
O33 Cd13 2.329 . S
O33 C52 1.270 . S
C34 O35 1.270 . S
C34 O36 1.248 . S
O35 Cd13 2.350 . S
O35 C34 1.270 . S
O36 Cd13 2.277 . S
O36 C34 1.248 . S
C37 O38 1.277 . S
C37 O39 1.230 . S
O38 Cd13 2.173 . S
O38 C37 1.277 . S
O39 Cd14 2.250 . S
O39 C37 1.230 . S
C40 N22 1.329 . S
C40 C24 1.481 . S
C40 O41 1.246 . S
O41 C40 1.246 . S
O42 Cd13 2.263 . S
O42 C54 1.258 . S
O43 Cd14 2.308 . S
O43 C54 1.274 . S
C44 C28 1.516 . S
C44 N29 1.324 . S
C44 O45 1.238 . S
O45 C44 1.238 . S
C46 N29 1.427 . S
C46 C47 1.394 . S
C46 C51 1.395 . S
C47 C46 1.394 . S
C47 C48 1.380 . S
C47 H75 0.929 . S
C48 C47 1.380 . S
C48 C49 1.384 . S
C48 C54 1.495 . S
C49 C48 1.384 . S
C49 C50 1.382 . S
C49 H76 0.930 . S
C50 C49 1.382 . S
C50 C51 1.398 . S
C51 C46 1.395 . S
C51 C50 1.398 . S
C51 H77 0.930 . S
C52 O32 1.235 . S
C52 O33 1.270 . S
O53 C6 1.263 . S
O53 Cd13 2.366 . S
C54 O42 1.258 . S
C54 O43 1.274 . S
C54 C48 1.495 . S
C55 N22 1.432 . S
C55 C56 1.381 . S
C55 C60 1.385 . S
C56 C55 1.381 . S
C56 C57 1.371 . S
C56 H78 0.932 . S
C57 C56 1.371 . S
C57 C58 1.400 . S
C58 C57 1.400 . S
C58 C59 1.351 . S
C58 H79 0.930 . S
C59 C58 1.351 . S
C59 C60 1.388 . S
C60 C55 1.385 . S
C60 C59 1.388 . S
C60 H80 0.929 . S
C61 C0 1.504 . S
C61 N31 1.309 . S
C61 O62 1.258 . S
O62 C61 1.258 . S
H63 C1 0.929 . S
H64 C2 0.932 . S
H65 C3 0.931 . S
H66 C8 0.929 . S
H67 C10 0.929 . S
H68 C12 0.931 . S
H69 C17 0.929 . S
H70 C19 0.932 . S
H71 C20 0.931 . S
H72 C25 0.930 . S
H73 C26 0.931 . S
H74 C27 0.930 . S
H75 C47 0.929 . S
H76 C49 0.930 . S
H77 C51 0.930 . S
H78 C56 0.932 . S
H79 C58 0.930 . S
H80 C60 0.929 . S
C81 C82 1.359 . S
C81 N86 1.330 . S
C81 C142 1.504 . S
C82 C81 1.359 . S
C82 C83 1.366 . S
C82 H144 0.929 . S
C83 C82 1.366 . S
C83 C84 1.415 . S
C83 H145 0.932 . S
C84 C83 1.415 . S
C84 C85 1.366 . S
C84 H146 0.931 . S
C85 C84 1.366 . S
C85 N86 1.325 . S
C85 C87 1.516 . S
N86 C81 1.330 . S
N86 C85 1.325 . S
N86 Co102 1.869 . S
C87 C85 1.516 . S
C87 N111 1.316 . S
C87 O134 1.263 . S
C88 C89 1.421 . S
C88 C93 1.360 . S
C88 N111 1.436 . S
C89 C88 1.421 . S
C89 C90 1.379 . S
C89 H147 0.929 . S
C90 C89 1.379 . S
C90 C91 1.417 . S
C91 C90 1.417 . S
C91 C92 1.352 . S
C91 H148 0.929 . S
C92 C91 1.352 . S
C92 C93 1.393 . S
C93 C88 1.360 . S
C93 C92 1.393 . S
C93 H149 0.931 . S
Cd94 O114 2.329 . S
Cd94 O116 2.350 . S
Cd94 O117 2.277 . S
Cd94 O119 2.173 . S
Cd94 O123 2.263 . S
Cd94 O134 2.366 . S
Cd95 O113 2.352 . S
Cd95 O120 2.250 . S
Cd95 O124 2.308 . S
C96 C100 1.403 . S
C96 C101 1.370 . S
C96 N112 1.423 . S
C97 C98 1.389 . S
C97 C101 1.389 . S
C98 C97 1.389 . S
C98 C99 1.379 . S
C98 H150 0.929 . S
C99 C98 1.379 . S
C99 C100 1.405 . S
C100 C96 1.403 . S
C100 C99 1.405 . S
C100 H151 0.932 . S
C101 C96 1.370 . S
C101 C97 1.389 . S
C101 H152 0.931 . S
Co102 N86 1.869 . S
Co102 N103 1.955 . S
Co102 N104 1.864 . S
Co102 N110 1.958 . S
Co102 N111 1.953 . S
Co102 N112 1.974 . S
N103 Co102 1.955 . S
N103 C121 1.329 . S
N103 C136 1.432 . S
N104 Co102 1.864 . S
N104 C105 1.327 . S
N104 C109 1.342 . S
C105 N104 1.327 . S
C105 C106 1.407 . S
C105 C121 1.481 . S
C106 C105 1.407 . S
C106 C107 1.364 . S
C106 H153 0.930 . S
C107 C106 1.364 . S
C107 C108 1.390 . S
C107 H154 0.931 . S
C108 C107 1.390 . S
C108 C109 1.346 . S
C108 H155 0.930 . S
C109 N104 1.342 . S
C109 C108 1.346 . S
C109 C125 1.516 . S
N110 Co102 1.958 . S
N110 C125 1.324 . S
N110 C127 1.427 . S
N111 C87 1.316 . S
N111 C88 1.436 . S
N111 Co102 1.953 . S
N112 C96 1.423 . S
N112 Co102 1.974 . S
N112 C142 1.309 . S
O113 Cd95 2.352 . S
O113 C133 1.235 . S
O114 Cd94 2.329 . S
O114 C133 1.270 . S
C115 O116 1.270 . S
C115 O117 1.248 . S
O116 Cd94 2.350 . S
O116 C115 1.270 . S
O117 Cd94 2.277 . S
O117 C115 1.248 . S
C118 O119 1.277 . S
C118 O120 1.230 . S
O119 Cd94 2.173 . S
O119 C118 1.277 . S
O120 Cd95 2.250 . S
O120 C118 1.230 . S
C121 N103 1.329 . S
C121 C105 1.481 . S
C121 O122 1.246 . S
O122 C121 1.246 . S
O123 Cd94 2.263 . S
O123 C135 1.258 . S
O124 Cd95 2.308 . S
O124 C135 1.274 . S
C125 C109 1.516 . S
C125 N110 1.324 . S
C125 O126 1.238 . S
O126 C125 1.238 . S
C127 N110 1.427 . S
C127 C128 1.394 . S
C127 C132 1.395 . S
C128 C127 1.394 . S
C128 C129 1.380 . S
C128 H156 0.929 . S
C129 C128 1.380 . S
C129 C130 1.384 . S
C129 C135 1.495 . S
C130 C129 1.384 . S
C130 C131 1.382 . S
C130 H157 0.930 . S
C131 C130 1.382 . S
C131 C132 1.398 . S
C132 C127 1.395 . S
C132 C131 1.398 . S
C132 H158 0.930 . S
C133 O113 1.235 . S
C133 O114 1.270 . S
O134 C87 1.263 . S
O134 Cd94 2.366 . S
C135 O123 1.258 . S
C135 O124 1.274 . S
C135 C129 1.495 . S
C136 N103 1.432 . S
C136 C137 1.381 . S
C136 C141 1.385 . S
C137 C136 1.381 . S
C137 C138 1.371 . S
C137 H159 0.932 . S
C138 C137 1.371 . S
C138 C139 1.400 . S
C139 C138 1.400 . S
C139 C140 1.351 . S
C139 H160 0.930 . S
C140 C139 1.351 . S
C140 C141 1.388 . S
C141 C136 1.385 . S
C141 C140 1.388 . S
C141 H161 0.929 . S
C142 C81 1.504 . S
C142 N112 1.309 . S
C142 O143 1.258 . S
O143 C142 1.258 . S
H144 C82 0.929 . S
H145 C83 0.932 . S
H146 C84 0.931 . S
H147 C89 0.929 . S
H148 C91 0.929 . S
H149 C93 0.931 . S
H150 C98 0.929 . S
H151 C100 0.932 . S
H152 C101 0.931 . S
H153 C106 0.930 . S
H154 C107 0.931 . S
H155 C108 0.930 . S
H156 C128 0.929 . S
H157 C130 0.930 . S
H158 C132 0.930 . S
H159 C137 0.932 . S
H160 C139 0.930 . S
H161 C141 0.929 . S
C162 C163 1.359 . S
C162 N167 1.330 . S
C162 C223 1.504 . S
C163 C162 1.359 . S
C163 C164 1.366 . S
C163 H225 0.929 . S
C164 C163 1.366 . S
C164 C165 1.415 . S
C164 H226 0.932 . S
C165 C164 1.415 . S
C165 C166 1.366 . S
C165 H227 0.931 . S
C166 C165 1.366 . S
C166 N167 1.325 . S
C166 C168 1.516 . S
N167 C162 1.330 . S
N167 C166 1.325 . S
N167 Co183 1.869 . S
C168 C166 1.516 . S
C168 N192 1.316 . S
C168 O215 1.263 . S
C169 C170 1.421 . S
C169 C174 1.360 . S
C169 N192 1.436 . S
C170 C169 1.421 . S
C170 C171 1.379 . S
C170 H228 0.929 . S
C171 C170 1.379 . S
C171 C172 1.417 . S
C172 C171 1.417 . S
C172 C173 1.352 . S
C172 H229 0.929 . S
C173 C172 1.352 . S
C173 C174 1.393 . S
C174 C169 1.360 . S
C174 C173 1.393 . S
C174 H230 0.931 . S
Cd175 O195 2.329 . S
Cd175 O197 2.350 . S
Cd175 O198 2.277 . S
Cd175 O200 2.173 . S
Cd175 O204 2.263 . S
Cd175 O215 2.366 . S
Cd176 O194 2.352 . S
Cd176 O201 2.250 . S
Cd176 O205 2.308 . S
C177 C181 1.403 . S
C177 C182 1.370 . S
C177 N193 1.423 . S
C178 C179 1.389 . S
C178 C182 1.389 . S
C179 C178 1.389 . S
C179 C180 1.379 . S
C179 H231 0.929 . S
C180 C179 1.379 . S
C180 C181 1.405 . S
C181 C177 1.403 . S
C181 C180 1.405 . S
C181 H232 0.932 . S
C182 C177 1.370 . S
C182 C178 1.389 . S
C182 H233 0.931 . S
Co183 N167 1.869 . S
Co183 N184 1.955 . S
Co183 N185 1.864 . S
Co183 N191 1.958 . S
Co183 N192 1.953 . S
Co183 N193 1.974 . S
N184 Co183 1.955 . S
N184 C202 1.329 . S
N184 C217 1.432 . S
N185 Co183 1.864 . S
N185 C186 1.327 . S
N185 C190 1.342 . S
C186 N185 1.327 . S
C186 C187 1.407 . S
C186 C202 1.481 . S
C187 C186 1.407 . S
C187 C188 1.364 . S
C187 H234 0.930 . S
C188 C187 1.364 . S
C188 C189 1.390 . S
C188 H235 0.931 . S
C189 C188 1.390 . S
C189 C190 1.346 . S
C189 H236 0.930 . S
C190 N185 1.342 . S
C190 C189 1.346 . S
C190 C206 1.516 . S
N191 Co183 1.958 . S
N191 C206 1.324 . S
N191 C208 1.427 . S
N192 C168 1.316 . S
N192 C169 1.436 . S
N192 Co183 1.953 . S
N193 C177 1.423 . S
N193 Co183 1.974 . S
N193 C223 1.309 . S
O194 Cd176 2.352 . S
O194 C214 1.235 . S
O195 Cd175 2.329 . S
O195 C214 1.270 . S
C196 O197 1.270 . S
C196 O198 1.248 . S
O197 Cd175 2.350 . S
O197 C196 1.270 . S
O198 Cd175 2.277 . S
O198 C196 1.248 . S
C199 O200 1.277 . S
C199 O201 1.230 . S
O200 Cd175 2.173 . S
O200 C199 1.277 . S
O201 Cd176 2.250 . S
O201 C199 1.230 . S
C202 N184 1.329 . S
C202 C186 1.481 . S
C202 O203 1.246 . S
O203 C202 1.246 . S
O204 Cd175 2.263 . S
O204 C216 1.258 . S
O205 Cd176 2.308 . S
O205 C216 1.274 . S
C206 C190 1.516 . S
C206 N191 1.324 . S
C206 O207 1.238 . S
O207 C206 1.238 . S
C208 N191 1.427 . S
C208 C209 1.394 . S
C208 C213 1.395 . S
C209 C208 1.394 . S
C209 C210 1.380 . S
C209 H237 0.929 . S
C210 C209 1.380 . S
C210 C211 1.384 . S
C210 C216 1.495 . S
C211 C210 1.384 . S
C211 C212 1.382 . S
C211 H238 0.930 . S
C212 C211 1.382 . S
C212 C213 1.398 . S
C213 C208 1.395 . S
C213 C212 1.398 . S
C213 H239 0.930 . S
C214 O194 1.235 . S
C214 O195 1.270 . S
O215 C168 1.263 . S
O215 Cd175 2.366 . S
C216 O204 1.258 . S
C216 O205 1.274 . S
C216 C210 1.495 . S
C217 N184 1.432 . S
C217 C218 1.381 . S
C217 C222 1.385 . S
C218 C217 1.381 . S
C218 C219 1.371 . S
C218 H240 0.932 . S
C219 C218 1.371 . S
C219 C220 1.400 . S
C220 C219 1.400 . S
C220 C221 1.351 . S
C220 H241 0.930 . S
C221 C220 1.351 . S
C221 C222 1.388 . S
C222 C217 1.385 . S
C222 C221 1.388 . S
C222 H242 0.929 . S
C223 C162 1.504 . S
C223 N193 1.309 . S
C223 O224 1.258 . S
O224 C223 1.258 . S
H225 C163 0.929 . S
H226 C164 0.932 . S
H227 C165 0.931 . S
H228 C170 0.929 . S
H229 C172 0.929 . S
H230 C174 0.931 . S
H231 C179 0.929 . S
H232 C181 0.932 . S
H233 C182 0.931 . S
H234 C187 0.930 . S
H235 C188 0.931 . S
H236 C189 0.930 . S
H237 C209 0.929 . S
H238 C211 0.930 . S
H239 C213 0.930 . S
H240 C218 0.932 . S
H241 C220 0.930 . S
H242 C222 0.929 . S
C243 C244 1.359 . S
C243 N248 1.330 . S
C243 C304 1.504 . S
C244 C243 1.359 . S
C244 C245 1.366 . S
C244 H306 0.929 . S
C245 C244 1.366 . S
C245 C246 1.415 . S
C245 H307 0.932 . S
C246 C245 1.415 . S
C246 C247 1.366 . S
C246 H308 0.931 . S
C247 C246 1.366 . S
C247 N248 1.325 . S
C247 C249 1.516 . S
N248 C243 1.330 . S
N248 C247 1.325 . S
N248 Co264 1.869 . S
C249 C247 1.516 . S
C249 N273 1.316 . S
C249 O296 1.263 . S
C250 C251 1.421 . S
C250 C255 1.360 . S
C250 N273 1.436 . S
C251 C250 1.421 . S
C251 C252 1.379 . S
C251 H309 0.929 . S
C252 C251 1.379 . S
C252 C253 1.417 . S
C253 C252 1.417 . S
C253 C254 1.352 . S
C253 H310 0.929 . S
C254 C253 1.352 . S
C254 C255 1.393 . S
C255 C250 1.360 . S
C255 C254 1.393 . S
C255 H311 0.931 . S
Cd256 O276 2.329 . S
Cd256 O278 2.350 . S
Cd256 O279 2.277 . S
Cd256 O281 2.173 . S
Cd256 O285 2.263 . S
Cd256 O296 2.366 . S
Cd257 O275 2.352 . S
Cd257 O282 2.250 . S
Cd257 O286 2.308 . S
C258 C262 1.403 . S
C258 C263 1.370 . S
C258 N274 1.423 . S
C259 C260 1.389 . S
C259 C263 1.389 . S
C260 C259 1.389 . S
C260 C261 1.379 . S
C260 H312 0.929 . S
C261 C260 1.379 . S
C261 C262 1.405 . S
C262 C258 1.403 . S
C262 C261 1.405 . S
C262 H313 0.932 . S
C263 C258 1.370 . S
C263 C259 1.389 . S
C263 H314 0.931 . S
Co264 N248 1.869 . S
Co264 N265 1.955 . S
Co264 N266 1.864 . S
Co264 N272 1.958 . S
Co264 N273 1.953 . S
Co264 N274 1.974 . S
N265 Co264 1.955 . S
N265 C283 1.329 . S
N265 C298 1.432 . S
N266 Co264 1.864 . S
N266 C267 1.327 . S
N266 C271 1.342 . S
C267 N266 1.327 . S
C267 C268 1.407 . S
C267 C283 1.481 . S
C268 C267 1.407 . S
C268 C269 1.364 . S
C268 H315 0.930 . S
C269 C268 1.364 . S
C269 C270 1.390 . S
C269 H316 0.931 . S
C270 C269 1.390 . S
C270 C271 1.346 . S
C270 H317 0.930 . S
C271 N266 1.342 . S
C271 C270 1.346 . S
C271 C287 1.516 . S
N272 Co264 1.958 . S
N272 C287 1.324 . S
N272 C289 1.427 . S
N273 C249 1.316 . S
N273 C250 1.436 . S
N273 Co264 1.953 . S
N274 C258 1.423 . S
N274 Co264 1.974 . S
N274 C304 1.309 . S
O275 Cd257 2.352 . S
O275 C295 1.235 . S
O276 Cd256 2.329 . S
O276 C295 1.270 . S
C277 O278 1.270 . S
C277 O279 1.248 . S
O278 Cd256 2.350 . S
O278 C277 1.270 . S
O279 Cd256 2.277 . S
O279 C277 1.248 . S
C280 O281 1.277 . S
C280 O282 1.230 . S
O281 Cd256 2.173 . S
O281 C280 1.277 . S
O282 Cd257 2.250 . S
O282 C280 1.230 . S
C283 N265 1.329 . S
C283 C267 1.481 . S
C283 O284 1.246 . S
O284 C283 1.246 . S
O285 Cd256 2.263 . S
O285 C297 1.258 . S
O286 Cd257 2.308 . S
O286 C297 1.274 . S
C287 C271 1.516 . S
C287 N272 1.324 . S
C287 O288 1.238 . S
O288 C287 1.238 . S
C289 N272 1.427 . S
C289 C290 1.394 . S
C289 C294 1.395 . S
C290 C289 1.394 . S
C290 C291 1.380 . S
C290 H318 0.929 . S
C291 C290 1.380 . S
C291 C292 1.384 . S
C291 C297 1.495 . S
C292 C291 1.384 . S
C292 C293 1.382 . S
C292 H319 0.930 . S
C293 C292 1.382 . S
C293 C294 1.398 . S
C294 C289 1.395 . S
C294 C293 1.398 . S
C294 H320 0.930 . S
C295 O275 1.235 . S
C295 O276 1.270 . S
O296 C249 1.263 . S
O296 Cd256 2.366 . S
C297 O285 1.258 . S
C297 O286 1.274 . S
C297 C291 1.495 . S
C298 N265 1.432 . S
C298 C299 1.381 . S
C298 C303 1.385 . S
C299 C298 1.381 . S
C299 C300 1.371 . S
C299 H321 0.932 . S
C300 C299 1.371 . S
C300 C301 1.400 . S
C301 C300 1.400 . S
C301 C302 1.351 . S
C301 H322 0.930 . S
C302 C301 1.351 . S
C302 C303 1.388 . S
C303 C298 1.385 . S
C303 C302 1.388 . S
C303 H323 0.929 . S
C304 C243 1.504 . S
C304 N274 1.309 . S
C304 O305 1.258 . S
O305 C304 1.258 . S
H306 C244 0.929 . S
H307 C245 0.932 . S
H308 C246 0.931 . S
H309 C251 0.929 . S
H310 C253 0.929 . S
H311 C255 0.931 . S
H312 C260 0.929 . S
H313 C262 0.932 . S
H314 C263 0.931 . S
H315 C268 0.930 . S
H316 C269 0.931 . S
H317 C270 0.930 . S
H318 C290 0.929 . S
H319 C292 0.930 . S
H320 C294 0.930 . S
H321 C299 0.932 . S
H322 C301 0.930 . S
H323 C303 0.929 . S
C324 C325 1.359 . S
C324 N329 1.330 . S
C324 C385 1.504 . S
C325 C324 1.359 . S
C325 C326 1.366 . S
C325 H387 0.929 . S
C326 C325 1.366 . S
C326 C327 1.415 . S
C326 H388 0.932 . S
C327 C326 1.415 . S
C327 C328 1.366 . S
C327 H389 0.931 . S
C328 C327 1.366 . S
C328 N329 1.325 . S
C328 C330 1.516 . S
N329 C324 1.330 . S
N329 C328 1.325 . S
N329 Co345 1.869 . S
C330 C328 1.516 . S
C330 N354 1.316 . S
C330 O377 1.263 . S
C331 C332 1.421 . S
C331 C336 1.360 . S
C331 N354 1.436 . S
C332 C331 1.421 . S
C332 C333 1.379 . S
C332 H390 0.929 . S
C333 C332 1.379 . S
C333 C334 1.417 . S
C334 C333 1.417 . S
C334 C335 1.352 . S
C334 H391 0.929 . S
C335 C334 1.352 . S
C335 C336 1.393 . S
C336 C331 1.360 . S
C336 C335 1.393 . S
C336 H392 0.931 . S
Cd337 O357 2.329 . S
Cd337 O359 2.350 . S
Cd337 O360 2.277 . S
Cd337 O362 2.173 . S
Cd337 O366 2.263 . S
Cd337 O377 2.366 . S
Cd338 O356 2.352 . S
Cd338 O363 2.250 . S
Cd338 O367 2.308 . S
C339 C343 1.403 . S
C339 C344 1.370 . S
C339 N355 1.423 . S
C340 C341 1.389 . S
C340 C344 1.389 . S
C341 C340 1.389 . S
C341 C342 1.379 . S
C341 H393 0.929 . S
C342 C341 1.379 . S
C342 C343 1.405 . S
C343 C339 1.403 . S
C343 C342 1.405 . S
C343 H394 0.932 . S
C344 C339 1.370 . S
C344 C340 1.389 . S
C344 H395 0.931 . S
Co345 N329 1.869 . S
Co345 N346 1.955 . S
Co345 N347 1.864 . S
Co345 N353 1.958 . S
Co345 N354 1.953 . S
Co345 N355 1.974 . S
N346 Co345 1.955 . S
N346 C364 1.329 . S
N346 C379 1.432 . S
N347 Co345 1.864 . S
N347 C348 1.327 . S
N347 C352 1.342 . S
C348 N347 1.327 . S
C348 C349 1.407 . S
C348 C364 1.481 . S
C349 C348 1.407 . S
C349 C350 1.364 . S
C349 H396 0.930 . S
C350 C349 1.364 . S
C350 C351 1.390 . S
C350 H397 0.931 . S
C351 C350 1.390 . S
C351 C352 1.346 . S
C351 H398 0.930 . S
C352 N347 1.342 . S
C352 C351 1.346 . S
C352 C368 1.516 . S
N353 Co345 1.958 . S
N353 C368 1.324 . S
N353 C370 1.427 . S
N354 C330 1.316 . S
N354 C331 1.436 . S
N354 Co345 1.953 . S
N355 C339 1.423 . S
N355 Co345 1.974 . S
N355 C385 1.309 . S
O356 Cd338 2.352 . S
O356 C376 1.235 . S
O357 Cd337 2.329 . S
O357 C376 1.270 . S
C358 O359 1.270 . S
C358 O360 1.248 . S
O359 Cd337 2.350 . S
O359 C358 1.270 . S
O360 Cd337 2.277 . S
O360 C358 1.248 . S
C361 O362 1.277 . S
C361 O363 1.230 . S
O362 Cd337 2.173 . S
O362 C361 1.277 . S
O363 Cd338 2.250 . S
O363 C361 1.230 . S
C364 N346 1.329 . S
C364 C348 1.481 . S
C364 O365 1.246 . S
O365 C364 1.246 . S
O366 Cd337 2.263 . S
O366 C378 1.258 . S
O367 Cd338 2.308 . S
O367 C378 1.274 . S
C368 C352 1.516 . S
C368 N353 1.324 . S
C368 O369 1.238 . S
O369 C368 1.238 . S
C370 N353 1.427 . S
C370 C371 1.394 . S
C370 C375 1.395 . S
C371 C370 1.394 . S
C371 C372 1.380 . S
C371 H399 0.929 . S
C372 C371 1.380 . S
C372 C373 1.384 . S
C372 C378 1.495 . S
C373 C372 1.384 . S
C373 C374 1.382 . S
C373 H400 0.930 . S
C374 C373 1.382 . S
C374 C375 1.398 . S
C375 C370 1.395 . S
C375 C374 1.398 . S
C375 H401 0.930 . S
C376 O356 1.235 . S
C376 O357 1.270 . S
O377 C330 1.263 . S
O377 Cd337 2.366 . S
C378 O366 1.258 . S
C378 O367 1.274 . S
C378 C372 1.495 . S
C379 N346 1.432 . S
C379 C380 1.381 . S
C379 C384 1.385 . S
C380 C379 1.381 . S
C380 C381 1.371 . S
C380 H402 0.932 . S
C381 C380 1.371 . S
C381 C382 1.400 . S
C382 C381 1.400 . S
C382 C383 1.351 . S
C382 H403 0.930 . S
C383 C382 1.351 . S
C383 C384 1.388 . S
C384 C379 1.385 . S
C384 C383 1.388 . S
C384 H404 0.929 . S
C385 C324 1.504 . S
C385 N355 1.309 . S
C385 O386 1.258 . S
O386 C385 1.258 . S
H387 C325 0.929 . S
H388 C326 0.932 . S
H389 C327 0.931 . S
H390 C332 0.929 . S
H391 C334 0.929 . S
H392 C336 0.931 . S
H393 C341 0.929 . S
H394 C343 0.932 . S
H395 C344 0.931 . S
H396 C349 0.930 . S
H397 C350 0.931 . S
H398 C351 0.930 . S
H399 C371 0.929 . S
H400 C373 0.930 . S
H401 C375 0.930 . S
H402 C380 0.932 . S
H403 C382 0.930 . S
H404 C384 0.929 . S
C405 C406 1.359 . S
C405 N410 1.330 . S
C405 C466 1.504 . S
C406 C405 1.359 . S
C406 C407 1.366 . S
C406 H468 0.929 . S
C407 C406 1.366 . S
C407 C408 1.415 . S
C407 H469 0.932 . S
C408 C407 1.415 . S
C408 C409 1.366 . S
C408 H470 0.931 . S
C409 C408 1.366 . S
C409 N410 1.325 . S
C409 C411 1.516 . S
N410 C405 1.330 . S
N410 C409 1.325 . S
N410 Co426 1.869 . S
C411 C409 1.516 . S
C411 N435 1.316 . S
C411 O458 1.263 . S
C412 C413 1.421 . S
C412 C417 1.360 . S
C412 N435 1.436 . S
C413 C412 1.421 . S
C413 C414 1.379 . S
C413 H471 0.929 . S
C414 C413 1.379 . S
C414 C415 1.417 . S
C415 C414 1.417 . S
C415 C416 1.352 . S
C415 H472 0.929 . S
C416 C415 1.352 . S
C416 C417 1.393 . S
C417 C412 1.360 . S
C417 C416 1.393 . S
C417 H473 0.931 . S
Cd418 O438 2.329 . S
Cd418 O440 2.350 . S
Cd418 O441 2.277 . S
Cd418 O443 2.173 . S
Cd418 O447 2.263 . S
Cd418 O458 2.366 . S
Cd419 O437 2.352 . S
Cd419 O444 2.250 . S
Cd419 O448 2.308 . S
C420 C424 1.403 . S
C420 C425 1.370 . S
C420 N436 1.423 . S
C421 C422 1.389 . S
C421 C425 1.389 . S
C422 C421 1.389 . S
C422 C423 1.379 . S
C422 H474 0.929 . S
C423 C422 1.379 . S
C423 C424 1.405 . S
C424 C420 1.403 . S
C424 C423 1.405 . S
C424 H475 0.932 . S
C425 C420 1.370 . S
C425 C421 1.389 . S
C425 H476 0.931 . S
Co426 N410 1.869 . S
Co426 N427 1.955 . S
Co426 N428 1.864 . S
Co426 N434 1.958 . S
Co426 N435 1.953 . S
Co426 N436 1.974 . S
N427 Co426 1.955 . S
N427 C445 1.329 . S
N427 C460 1.432 . S
N428 Co426 1.864 . S
N428 C429 1.327 . S
N428 C433 1.342 . S
C429 N428 1.327 . S
C429 C430 1.407 . S
C429 C445 1.481 . S
C430 C429 1.407 . S
C430 C431 1.364 . S
C430 H477 0.930 . S
C431 C430 1.364 . S
C431 C432 1.390 . S
C431 H478 0.931 . S
C432 C431 1.390 . S
C432 C433 1.346 . S
C432 H479 0.930 . S
C433 N428 1.342 . S
C433 C432 1.346 . S
C433 C449 1.516 . S
N434 Co426 1.958 . S
N434 C449 1.324 . S
N434 C451 1.427 . S
N435 C411 1.316 . S
N435 C412 1.436 . S
N435 Co426 1.953 . S
N436 C420 1.423 . S
N436 Co426 1.974 . S
N436 C466 1.309 . S
O437 Cd419 2.352 . S
O437 C457 1.235 . S
O438 Cd418 2.329 . S
O438 C457 1.270 . S
C439 O440 1.270 . S
C439 O441 1.248 . S
O440 Cd418 2.350 . S
O440 C439 1.270 . S
O441 Cd418 2.277 . S
O441 C439 1.248 . S
C442 O443 1.277 . S
C442 O444 1.230 . S
O443 Cd418 2.173 . S
O443 C442 1.277 . S
O444 Cd419 2.250 . S
O444 C442 1.230 . S
C445 N427 1.329 . S
C445 C429 1.481 . S
C445 O446 1.246 . S
O446 C445 1.246 . S
O447 Cd418 2.263 . S
O447 C459 1.258 . S
O448 Cd419 2.308 . S
O448 C459 1.274 . S
C449 C433 1.516 . S
C449 N434 1.324 . S
C449 O450 1.238 . S
O450 C449 1.238 . S
C451 N434 1.427 . S
C451 C452 1.394 . S
C451 C456 1.395 . S
C452 C451 1.394 . S
C452 C453 1.380 . S
C452 H480 0.929 . S
C453 C452 1.380 . S
C453 C454 1.384 . S
C453 C459 1.495 . S
C454 C453 1.384 . S
C454 C455 1.382 . S
C454 H481 0.930 . S
C455 C454 1.382 . S
C455 C456 1.398 . S
C456 C451 1.395 . S
C456 C455 1.398 . S
C456 H482 0.930 . S
C457 O437 1.235 . S
C457 O438 1.270 . S
O458 C411 1.263 . S
O458 Cd418 2.366 . S
C459 O447 1.258 . S
C459 O448 1.274 . S
C459 C453 1.495 . S
C460 N427 1.432 . S
C460 C461 1.381 . S
C460 C465 1.385 . S
C461 C460 1.381 . S
C461 C462 1.371 . S
C461 H483 0.932 . S
C462 C461 1.371 . S
C462 C463 1.400 . S
C463 C462 1.400 . S
C463 C464 1.351 . S
C463 H484 0.930 . S
C464 C463 1.351 . S
C464 C465 1.388 . S
C465 C460 1.385 . S
C465 C464 1.388 . S
C465 H485 0.929 . S
C466 C405 1.504 . S
C466 N436 1.309 . S
C466 O467 1.258 . S
O467 C466 1.258 . S
H468 C406 0.929 . S
H469 C407 0.932 . S
H470 C408 0.931 . S
H471 C413 0.929 . S
H472 C415 0.929 . S
H473 C417 0.931 . S
H474 C422 0.929 . S
H475 C424 0.932 . S
H476 C425 0.931 . S
H477 C430 0.930 . S
H478 C431 0.931 . S
H479 C432 0.930 . S
H480 C452 0.929 . S
H481 C454 0.930 . S
H482 C456 0.930 . S
H483 C461 0.932 . S
H484 C463 0.930 . S
H485 C465 0.929 . S
C486 C487 1.359 . S
C486 N491 1.330 . S
C486 C547 1.504 . S
C487 C486 1.359 . S
C487 C488 1.366 . S
C487 H549 0.929 . S
C488 C487 1.366 . S
C488 C489 1.415 . S
C488 H550 0.932 . S
C489 C488 1.415 . S
C489 C490 1.366 . S
C489 H551 0.931 . S
C490 C489 1.366 . S
C490 N491 1.325 . S
C490 C492 1.516 . S
N491 C486 1.330 . S
N491 C490 1.325 . S
N491 Co507 1.869 . S
C492 C490 1.516 . S
C492 N516 1.316 . S
C492 O539 1.263 . S
C493 C494 1.421 . S
C493 C498 1.360 . S
C493 N516 1.436 . S
C494 C493 1.421 . S
C494 C495 1.379 . S
C494 H552 0.929 . S
C495 C494 1.379 . S
C495 C496 1.417 . S
C496 C495 1.417 . S
C496 C497 1.352 . S
C496 H553 0.929 . S
C497 C496 1.352 . S
C497 C498 1.393 . S
C498 C493 1.360 . S
C498 C497 1.393 . S
C498 H554 0.931 . S
Cd499 O519 2.329 . S
Cd499 O521 2.350 . S
Cd499 O522 2.277 . S
Cd499 O524 2.173 . S
Cd499 O528 2.263 . S
Cd499 O539 2.366 . S
Cd500 O518 2.352 . S
Cd500 O525 2.250 . S
Cd500 O529 2.308 . S
C501 C505 1.403 . S
C501 C506 1.370 . S
C501 N517 1.423 . S
C502 C503 1.389 . S
C502 C506 1.389 . S
C503 C502 1.389 . S
C503 C504 1.379 . S
C503 H555 0.929 . S
C504 C503 1.379 . S
C504 C505 1.405 . S
C505 C501 1.403 . S
C505 C504 1.405 . S
C505 H556 0.932 . S
C506 C501 1.370 . S
C506 C502 1.389 . S
C506 H557 0.931 . S
Co507 N491 1.869 . S
Co507 N508 1.955 . S
Co507 N509 1.864 . S
Co507 N515 1.958 . S
Co507 N516 1.953 . S
Co507 N517 1.974 . S
N508 Co507 1.955 . S
N508 C526 1.329 . S
N508 C541 1.432 . S
N509 Co507 1.864 . S
N509 C510 1.327 . S
N509 C514 1.342 . S
C510 N509 1.327 . S
C510 C511 1.407 . S
C510 C526 1.481 . S
C511 C510 1.407 . S
C511 C512 1.364 . S
C511 H558 0.930 . S
C512 C511 1.364 . S
C512 C513 1.390 . S
C512 H559 0.931 . S
C513 C512 1.390 . S
C513 C514 1.346 . S
C513 H560 0.930 . S
C514 N509 1.342 . S
C514 C513 1.346 . S
C514 C530 1.516 . S
N515 Co507 1.958 . S
N515 C530 1.324 . S
N515 C532 1.427 . S
N516 C492 1.316 . S
N516 C493 1.436 . S
N516 Co507 1.953 . S
N517 C501 1.423 . S
N517 Co507 1.974 . S
N517 C547 1.309 . S
O518 Cd500 2.352 . S
O518 C538 1.235 . S
O519 Cd499 2.329 . S
O519 C538 1.270 . S
C520 O521 1.270 . S
C520 O522 1.248 . S
O521 Cd499 2.350 . S
O521 C520 1.270 . S
O522 Cd499 2.277 . S
O522 C520 1.248 . S
C523 O524 1.277 . S
C523 O525 1.230 . S
O524 Cd499 2.173 . S
O524 C523 1.277 . S
O525 Cd500 2.250 . S
O525 C523 1.230 . S
C526 N508 1.329 . S
C526 C510 1.481 . S
C526 O527 1.246 . S
O527 C526 1.246 . S
O528 Cd499 2.263 . S
O528 C540 1.258 . S
O529 Cd500 2.308 . S
O529 C540 1.274 . S
C530 C514 1.516 . S
C530 N515 1.324 . S
C530 O531 1.238 . S
O531 C530 1.238 . S
C532 N515 1.427 . S
C532 C533 1.394 . S
C532 C537 1.395 . S
C533 C532 1.394 . S
C533 C534 1.380 . S
C533 H561 0.929 . S
C534 C533 1.380 . S
C534 C535 1.384 . S
C534 C540 1.495 . S
C535 C534 1.384 . S
C535 C536 1.382 . S
C535 H562 0.930 . S
C536 C535 1.382 . S
C536 C537 1.398 . S
C537 C532 1.395 . S
C537 C536 1.398 . S
C537 H563 0.930 . S
C538 O518 1.235 . S
C538 O519 1.270 . S
O539 C492 1.263 . S
O539 Cd499 2.366 . S
C540 O528 1.258 . S
C540 O529 1.274 . S
C540 C534 1.495 . S
C541 N508 1.432 . S
C541 C542 1.381 . S
C541 C546 1.385 . S
C542 C541 1.381 . S
C542 C543 1.371 . S
C542 H564 0.932 . S
C543 C542 1.371 . S
C543 C544 1.400 . S
C544 C543 1.400 . S
C544 C545 1.351 . S
C544 H565 0.930 . S
C545 C544 1.351 . S
C545 C546 1.388 . S
C546 C541 1.385 . S
C546 C545 1.388 . S
C546 H566 0.929 . S
C547 C486 1.504 . S
C547 N517 1.309 . S
C547 O548 1.258 . S
O548 C547 1.258 . S
H549 C487 0.929 . S
H550 C488 0.932 . S
H551 C489 0.931 . S
H552 C494 0.929 . S
H553 C496 0.929 . S
H554 C498 0.931 . S
H555 C503 0.929 . S
H556 C505 0.932 . S
H557 C506 0.931 . S
H558 C511 0.930 . S
H559 C512 0.931 . S
H560 C513 0.930 . S
H561 C533 0.929 . S
H562 C535 0.930 . S
H563 C537 0.930 . S
H564 C542 0.932 . S
H565 C544 0.930 . S
H566 C546 0.929 . S
C567 C568 1.359 . S
C567 N572 1.330 . S
C567 C628 1.504 . S
C568 C567 1.359 . S
C568 C569 1.366 . S
C568 H630 0.929 . S
C569 C568 1.366 . S
C569 C570 1.415 . S
C569 H631 0.932 . S
C570 C569 1.415 . S
C570 C571 1.366 . S
C570 H632 0.931 . S
C571 C570 1.366 . S
C571 N572 1.325 . S
C571 C573 1.516 . S
N572 C567 1.330 . S
N572 C571 1.325 . S
N572 Co588 1.869 . S
C573 C571 1.516 . S
C573 N597 1.316 . S
C573 O620 1.263 . S
C574 C575 1.421 . S
C574 C579 1.360 . S
C574 N597 1.436 . S
C575 C574 1.421 . S
C575 C576 1.379 . S
C575 H633 0.929 . S
C576 C575 1.379 . S
C576 C577 1.417 . S
C577 C576 1.417 . S
C577 C578 1.352 . S
C577 H634 0.929 . S
C578 C577 1.352 . S
C578 C579 1.393 . S
C579 C574 1.360 . S
C579 C578 1.393 . S
C579 H635 0.931 . S
Cd580 O600 2.329 . S
Cd580 O602 2.350 . S
Cd580 O603 2.277 . S
Cd580 O605 2.173 . S
Cd580 O609 2.263 . S
Cd580 O620 2.366 . S
Cd581 O599 2.352 . S
Cd581 O606 2.250 . S
Cd581 O610 2.308 . S
C582 C586 1.403 . S
C582 C587 1.370 . S
C582 N598 1.423 . S
C583 C584 1.389 . S
C583 C587 1.389 . S
C584 C583 1.389 . S
C584 C585 1.379 . S
C584 H636 0.929 . S
C585 C584 1.379 . S
C585 C586 1.405 . S
C586 C582 1.403 . S
C586 C585 1.405 . S
C586 H637 0.932 . S
C587 C582 1.370 . S
C587 C583 1.389 . S
C587 H638 0.931 . S
Co588 N572 1.869 . S
Co588 N589 1.955 . S
Co588 N590 1.864 . S
Co588 N596 1.958 . S
Co588 N597 1.953 . S
Co588 N598 1.974 . S
N589 Co588 1.955 . S
N589 C607 1.329 . S
N589 C622 1.432 . S
N590 Co588 1.864 . S
N590 C591 1.327 . S
N590 C595 1.342 . S
C591 N590 1.327 . S
C591 C592 1.407 . S
C591 C607 1.481 . S
C592 C591 1.407 . S
C592 C593 1.364 . S
C592 H639 0.930 . S
C593 C592 1.364 . S
C593 C594 1.390 . S
C593 H640 0.931 . S
C594 C593 1.390 . S
C594 C595 1.346 . S
C594 H641 0.930 . S
C595 N590 1.342 . S
C595 C594 1.346 . S
C595 C611 1.516 . S
N596 Co588 1.958 . S
N596 C611 1.324 . S
N596 C613 1.427 . S
N597 C573 1.316 . S
N597 C574 1.436 . S
N597 Co588 1.953 . S
N598 C582 1.423 . S
N598 Co588 1.974 . S
N598 C628 1.309 . S
O599 Cd581 2.352 . S
O599 C619 1.235 . S
O600 Cd580 2.329 . S
O600 C619 1.270 . S
C601 O602 1.270 . S
C601 O603 1.248 . S
O602 Cd580 2.350 . S
O602 C601 1.270 . S
O603 Cd580 2.277 . S
O603 C601 1.248 . S
C604 O605 1.277 . S
C604 O606 1.230 . S
O605 Cd580 2.173 . S
O605 C604 1.277 . S
O606 Cd581 2.250 . S
O606 C604 1.230 . S
C607 N589 1.329 . S
C607 C591 1.481 . S
C607 O608 1.246 . S
O608 C607 1.246 . S
O609 Cd580 2.263 . S
O609 C621 1.258 . S
O610 Cd581 2.308 . S
O610 C621 1.274 . S
C611 C595 1.516 . S
C611 N596 1.324 . S
C611 O612 1.238 . S
O612 C611 1.238 . S
C613 N596 1.427 . S
C613 C614 1.394 . S
C613 C618 1.395 . S
C614 C613 1.394 . S
C614 C615 1.380 . S
C614 H642 0.929 . S
C615 C614 1.380 . S
C615 C616 1.384 . S
C615 C621 1.495 . S
C616 C615 1.384 . S
C616 C617 1.382 . S
C616 H643 0.930 . S
C617 C616 1.382 . S
C617 C618 1.398 . S
C618 C613 1.395 . S
C618 C617 1.398 . S
C618 H644 0.930 . S
C619 O599 1.235 . S
C619 O600 1.270 . S
O620 C573 1.263 . S
O620 Cd580 2.366 . S
C621 O609 1.258 . S
C621 O610 1.274 . S
C621 C615 1.495 . S
C622 N589 1.432 . S
C622 C623 1.381 . S
C622 C627 1.385 . S
C623 C622 1.381 . S
C623 C624 1.371 . S
C623 H645 0.932 . S
C624 C623 1.371 . S
C624 C625 1.400 . S
C625 C624 1.400 . S
C625 C626 1.351 . S
C625 H646 0.930 . S
C626 C625 1.351 . S
C626 C627 1.388 . S
C627 C622 1.385 . S
C627 C626 1.388 . S
C627 H647 0.929 . S
C628 C567 1.504 . S
C628 N598 1.309 . S
C628 O629 1.258 . S
O629 C628 1.258 . S
H630 C568 0.929 . S
H631 C569 0.932 . S
H632 C570 0.931 . S
H633 C575 0.929 . S
H634 C577 0.929 . S
H635 C579 0.931 . S
H636 C584 0.929 . S
H637 C586 0.932 . S
H638 C587 0.931 . S
H639 C592 0.930 . S
H640 C593 0.931 . S
H641 C594 0.930 . S
H642 C614 0.929 . S
H643 C616 0.930 . S
H644 C618 0.930 . S
H645 C623 0.932 . S
H646 C625 0.930 . S
H647 C627 0.929 . S
C648 C649 1.359 . S
C648 N653 1.330 . S
C648 C709 1.504 . S
C649 C648 1.359 . S
C649 C650 1.366 . S
C649 H711 0.929 . S
C650 C649 1.366 . S
C650 C651 1.415 . S
C650 H712 0.932 . S
C651 C650 1.415 . S
C651 C652 1.366 . S
C651 H713 0.931 . S
C652 C651 1.366 . S
C652 N653 1.325 . S
C652 C654 1.516 . S
N653 C648 1.330 . S
N653 C652 1.325 . S
N653 Co669 1.869 . S
C654 C652 1.516 . S
C654 N678 1.316 . S
C654 O701 1.263 . S
C655 C656 1.421 . S
C655 C660 1.360 . S
C655 N678 1.436 . S
C656 C655 1.421 . S
C656 C657 1.379 . S
C656 H714 0.929 . S
C657 C656 1.379 . S
C657 C658 1.417 . S
C658 C657 1.417 . S
C658 C659 1.352 . S
C658 H715 0.929 . S
C659 C658 1.352 . S
C659 C660 1.393 . S
C660 C655 1.360 . S
C660 C659 1.393 . S
C660 H716 0.931 . S
Cd661 O681 2.329 . S
Cd661 O683 2.350 . S
Cd661 O684 2.277 . S
Cd661 O686 2.173 . S
Cd661 O690 2.263 . S
Cd661 O701 2.366 . S
Cd662 O680 2.352 . S
Cd662 O687 2.250 . S
Cd662 O691 2.308 . S
C663 C667 1.403 . S
C663 C668 1.370 . S
C663 N679 1.423 . S
C664 C665 1.389 . S
C664 C668 1.389 . S
C665 C664 1.389 . S
C665 C666 1.379 . S
C665 H717 0.929 . S
C666 C665 1.379 . S
C666 C667 1.405 . S
C667 C663 1.403 . S
C667 C666 1.405 . S
C667 H718 0.932 . S
C668 C663 1.370 . S
C668 C664 1.389 . S
C668 H719 0.931 . S
Co669 N653 1.869 . S
Co669 N670 1.955 . S
Co669 N671 1.864 . S
Co669 N677 1.958 . S
Co669 N678 1.953 . S
Co669 N679 1.974 . S
N670 Co669 1.955 . S
N670 C688 1.329 . S
N670 C703 1.432 . S
N671 Co669 1.864 . S
N671 C672 1.327 . S
N671 C676 1.342 . S
C672 N671 1.327 . S
C672 C673 1.407 . S
C672 C688 1.481 . S
C673 C672 1.407 . S
C673 C674 1.364 . S
C673 H720 0.930 . S
C674 C673 1.364 . S
C674 C675 1.390 . S
C674 H721 0.931 . S
C675 C674 1.390 . S
C675 C676 1.346 . S
C675 H722 0.930 . S
C676 N671 1.342 . S
C676 C675 1.346 . S
C676 C692 1.516 . S
N677 Co669 1.958 . S
N677 C692 1.324 . S
N677 C694 1.427 . S
N678 C654 1.316 . S
N678 C655 1.436 . S
N678 Co669 1.953 . S
N679 C663 1.423 . S
N679 Co669 1.974 . S
N679 C709 1.309 . S
O680 Cd662 2.352 . S
O680 C700 1.235 . S
O681 Cd661 2.329 . S
O681 C700 1.270 . S
C682 O683 1.270 . S
C682 O684 1.248 . S
O683 Cd661 2.350 . S
O683 C682 1.270 . S
O684 Cd661 2.277 . S
O684 C682 1.248 . S
C685 O686 1.277 . S
C685 O687 1.230 . S
O686 Cd661 2.173 . S
O686 C685 1.277 . S
O687 Cd662 2.250 . S
O687 C685 1.230 . S
C688 N670 1.329 . S
C688 C672 1.481 . S
C688 O689 1.246 . S
O689 C688 1.246 . S
O690 Cd661 2.263 . S
O690 C702 1.258 . S
O691 Cd662 2.308 . S
O691 C702 1.274 . S
C692 C676 1.516 . S
C692 N677 1.324 . S
C692 O693 1.238 . S
O693 C692 1.238 . S
C694 N677 1.427 . S
C694 C695 1.394 . S
C694 C699 1.395 . S
C695 C694 1.394 . S
C695 C696 1.380 . S
C695 H723 0.929 . S
C696 C695 1.380 . S
C696 C697 1.384 . S
C696 C702 1.495 . S
C697 C696 1.384 . S
C697 C698 1.382 . S
C697 H724 0.930 . S
C698 C697 1.382 . S
C698 C699 1.398 . S
C699 C694 1.395 . S
C699 C698 1.398 . S
C699 H725 0.930 . S
C700 O680 1.235 . S
C700 O681 1.270 . S
O701 C654 1.263 . S
O701 Cd661 2.366 . S
C702 O690 1.258 . S
C702 O691 1.274 . S
C702 C696 1.495 . S
C703 N670 1.432 . S
C703 C704 1.381 . S
C703 C708 1.385 . S
C704 C703 1.381 . S
C704 C705 1.371 . S
C704 H726 0.932 . S
C705 C704 1.371 . S
C705 C706 1.400 . S
C706 C705 1.400 . S
C706 C707 1.351 . S
C706 H727 0.930 . S
C707 C706 1.351 . S
C707 C708 1.388 . S
C708 C703 1.385 . S
C708 C707 1.388 . S
C708 H728 0.929 . S
C709 C648 1.504 . S
C709 N679 1.309 . S
C709 O710 1.258 . S
O710 C709 1.258 . S
H711 C649 0.929 . S
H712 C650 0.932 . S
H713 C651 0.931 . S
H714 C656 0.929 . S
H715 C658 0.929 . S
H716 C660 0.931 . S
H717 C665 0.929 . S
H718 C667 0.932 . S
H719 C668 0.931 . S
H720 C673 0.930 . S
H721 C674 0.931 . S
H722 C675 0.930 . S
H723 C695 0.929 . S
H724 C697 0.930 . S
H725 C699 0.930 . S
H726 C704 0.932 . S
H727 C706 0.930 . S
H728 C708 0.929 . S
C729 C730 1.359 . S
C729 N734 1.330 . S
C729 C790 1.504 . S
C730 C729 1.359 . S
C730 C731 1.366 . S
C730 H792 0.929 . S
C731 C730 1.366 . S
C731 C732 1.415 . S
C731 H793 0.932 . S
C732 C731 1.415 . S
C732 C733 1.366 . S
C732 H794 0.931 . S
C733 C732 1.366 . S
C733 N734 1.325 . S
C733 C735 1.516 . S
N734 C729 1.330 . S
N734 C733 1.325 . S
N734 Co750 1.869 . S
C735 C733 1.516 . S
C735 N759 1.316 . S
C735 O782 1.263 . S
C736 C737 1.421 . S
C736 C741 1.360 . S
C736 N759 1.436 . S
C737 C736 1.421 . S
C737 C738 1.379 . S
C737 H795 0.929 . S
C738 C737 1.379 . S
C738 C739 1.417 . S
C739 C738 1.417 . S
C739 C740 1.352 . S
C739 H796 0.929 . S
C740 C739 1.352 . S
C740 C741 1.393 . S
C741 C736 1.360 . S
C741 C740 1.393 . S
C741 H797 0.931 . S
Cd742 O762 2.329 . S
Cd742 O764 2.350 . S
Cd742 O765 2.277 . S
Cd742 O767 2.173 . S
Cd742 O771 2.263 . S
Cd742 O782 2.366 . S
Cd743 O761 2.352 . S
Cd743 O768 2.250 . S
Cd743 O772 2.308 . S
C744 C748 1.403 . S
C744 C749 1.370 . S
C744 N760 1.423 . S
C745 C746 1.389 . S
C745 C749 1.389 . S
C746 C745 1.389 . S
C746 C747 1.379 . S
C746 H798 0.929 . S
C747 C746 1.379 . S
C747 C748 1.405 . S
C748 C744 1.403 . S
C748 C747 1.405 . S
C748 H799 0.932 . S
C749 C744 1.370 . S
C749 C745 1.389 . S
C749 H800 0.931 . S
Co750 N734 1.869 . S
Co750 N751 1.955 . S
Co750 N752 1.864 . S
Co750 N758 1.958 . S
Co750 N759 1.953 . S
Co750 N760 1.974 . S
N751 Co750 1.955 . S
N751 C769 1.329 . S
N751 C784 1.432 . S
N752 Co750 1.864 . S
N752 C753 1.327 . S
N752 C757 1.342 . S
C753 N752 1.327 . S
C753 C754 1.407 . S
C753 C769 1.481 . S
C754 C753 1.407 . S
C754 C755 1.364 . S
C754 H801 0.930 . S
C755 C754 1.364 . S
C755 C756 1.390 . S
C755 H802 0.931 . S
C756 C755 1.390 . S
C756 C757 1.346 . S
C756 H803 0.930 . S
C757 N752 1.342 . S
C757 C756 1.346 . S
C757 C773 1.516 . S
N758 Co750 1.958 . S
N758 C773 1.324 . S
N758 C775 1.427 . S
N759 C735 1.316 . S
N759 C736 1.436 . S
N759 Co750 1.953 . S
N760 C744 1.423 . S
N760 Co750 1.974 . S
N760 C790 1.309 . S
O761 Cd743 2.352 . S
O761 C781 1.235 . S
O762 Cd742 2.329 . S
O762 C781 1.270 . S
C763 O764 1.270 . S
C763 O765 1.248 . S
O764 Cd742 2.350 . S
O764 C763 1.270 . S
O765 Cd742 2.277 . S
O765 C763 1.248 . S
C766 O767 1.277 . S
C766 O768 1.230 . S
O767 Cd742 2.173 . S
O767 C766 1.277 . S
O768 Cd743 2.250 . S
O768 C766 1.230 . S
C769 N751 1.329 . S
C769 C753 1.481 . S
C769 O770 1.246 . S
O770 C769 1.246 . S
O771 Cd742 2.263 . S
O771 C783 1.258 . S
O772 Cd743 2.308 . S
O772 C783 1.274 . S
C773 C757 1.516 . S
C773 N758 1.324 . S
C773 O774 1.238 . S
O774 C773 1.238 . S
C775 N758 1.427 . S
C775 C776 1.394 . S
C775 C780 1.395 . S
C776 C775 1.394 . S
C776 C777 1.380 . S
C776 H804 0.929 . S
C777 C776 1.380 . S
C777 C778 1.384 . S
C777 C783 1.495 . S
C778 C777 1.384 . S
C778 C779 1.382 . S
C778 H805 0.930 . S
C779 C778 1.382 . S
C779 C780 1.398 . S
C780 C775 1.395 . S
C780 C779 1.398 . S
C780 H806 0.930 . S
C781 O761 1.235 . S
C781 O762 1.270 . S
O782 C735 1.263 . S
O782 Cd742 2.366 . S
C783 O771 1.258 . S
C783 O772 1.274 . S
C783 C777 1.495 . S
C784 N751 1.432 . S
C784 C785 1.381 . S
C784 C789 1.385 . S
C785 C784 1.381 . S
C785 C786 1.371 . S
C785 H807 0.932 . S
C786 C785 1.371 . S
C786 C787 1.400 . S
C787 C786 1.400 . S
C787 C788 1.351 . S
C787 H808 0.930 . S
C788 C787 1.351 . S
C788 C789 1.388 . S
C789 C784 1.385 . S
C789 C788 1.388 . S
C789 H809 0.929 . S
C790 C729 1.504 . S
C790 N760 1.309 . S
C790 O791 1.258 . S
O791 C790 1.258 . S
H792 C730 0.929 . S
H793 C731 0.932 . S
H794 C732 0.931 . S
H795 C737 0.929 . S
H796 C739 0.929 . S
H797 C741 0.931 . S
H798 C746 0.929 . S
H799 C748 0.932 . S
H800 C749 0.931 . S
H801 C754 0.930 . S
H802 C755 0.931 . S
H803 C756 0.930 . S
H804 C776 0.929 . S
H805 C778 0.930 . S
H806 C780 0.930 . S
H807 C785 0.932 . S
H808 C787 0.930 . S
H809 C789 0.929 . S
C810 C811 1.359 . S
C810 N815 1.330 . S
C810 C871 1.504 . S
C811 C810 1.359 . S
C811 C812 1.366 . S
C811 H873 0.929 . S
C812 C811 1.366 . S
C812 C813 1.415 . S
C812 H874 0.932 . S
C813 C812 1.415 . S
C813 C814 1.366 . S
C813 H875 0.931 . S
C814 C813 1.366 . S
C814 N815 1.325 . S
C814 C816 1.516 . S
N815 C810 1.330 . S
N815 C814 1.325 . S
N815 Co831 1.869 . S
C816 C814 1.516 . S
C816 N840 1.316 . S
C816 O863 1.263 . S
C817 C818 1.421 . S
C817 C822 1.360 . S
C817 N840 1.436 . S
C818 C817 1.421 . S
C818 C819 1.379 . S
C818 H876 0.929 . S
C819 C818 1.379 . S
C819 C820 1.417 . S
C820 C819 1.417 . S
C820 C821 1.352 . S
C820 H877 0.929 . S
C821 C820 1.352 . S
C821 C822 1.393 . S
C822 C817 1.360 . S
C822 C821 1.393 . S
C822 H878 0.931 . S
Cd823 O843 2.329 . S
Cd823 O845 2.350 . S
Cd823 O846 2.277 . S
Cd823 O848 2.173 . S
Cd823 O852 2.263 . S
Cd823 O863 2.366 . S
Cd824 O842 2.352 . S
Cd824 O849 2.250 . S
Cd824 O853 2.308 . S
C825 C829 1.403 . S
C825 C830 1.370 . S
C825 N841 1.423 . S
C826 C827 1.389 . S
C826 C830 1.389 . S
C827 C826 1.389 . S
C827 C828 1.379 . S
C827 H879 0.929 . S
C828 C827 1.379 . S
C828 C829 1.405 . S
C829 C825 1.403 . S
C829 C828 1.405 . S
C829 H880 0.932 . S
C830 C825 1.370 . S
C830 C826 1.389 . S
C830 H881 0.931 . S
Co831 N815 1.869 . S
Co831 N832 1.955 . S
Co831 N833 1.864 . S
Co831 N839 1.958 . S
Co831 N840 1.953 . S
Co831 N841 1.974 . S
N832 Co831 1.955 . S
N832 C850 1.329 . S
N832 C865 1.432 . S
N833 Co831 1.864 . S
N833 C834 1.327 . S
N833 C838 1.342 . S
C834 N833 1.327 . S
C834 C835 1.407 . S
C834 C850 1.481 . S
C835 C834 1.407 . S
C835 C836 1.364 . S
C835 H882 0.930 . S
C836 C835 1.364 . S
C836 C837 1.390 . S
C836 H883 0.931 . S
C837 C836 1.390 . S
C837 C838 1.346 . S
C837 H884 0.930 . S
C838 N833 1.342 . S
C838 C837 1.346 . S
C838 C854 1.516 . S
N839 Co831 1.958 . S
N839 C854 1.324 . S
N839 C856 1.427 . S
N840 C816 1.316 . S
N840 C817 1.436 . S
N840 Co831 1.953 . S
N841 C825 1.423 . S
N841 Co831 1.974 . S
N841 C871 1.309 . S
O842 Cd824 2.352 . S
O842 C862 1.235 . S
O843 Cd823 2.329 . S
O843 C862 1.270 . S
C844 O845 1.270 . S
C844 O846 1.248 . S
O845 Cd823 2.350 . S
O845 C844 1.270 . S
O846 Cd823 2.277 . S
O846 C844 1.248 . S
C847 O848 1.277 . S
C847 O849 1.230 . S
O848 Cd823 2.173 . S
O848 C847 1.277 . S
O849 Cd824 2.250 . S
O849 C847 1.230 . S
C850 N832 1.329 . S
C850 C834 1.481 . S
C850 O851 1.246 . S
O851 C850 1.246 . S
O852 Cd823 2.263 . S
O852 C864 1.258 . S
O853 Cd824 2.308 . S
O853 C864 1.274 . S
C854 C838 1.516 . S
C854 N839 1.324 . S
C854 O855 1.238 . S
O855 C854 1.238 . S
C856 N839 1.427 . S
C856 C857 1.394 . S
C856 C861 1.395 . S
C857 C856 1.394 . S
C857 C858 1.380 . S
C857 H885 0.929 . S
C858 C857 1.380 . S
C858 C859 1.384 . S
C858 C864 1.495 . S
C859 C858 1.384 . S
C859 C860 1.382 . S
C859 H886 0.930 . S
C860 C859 1.382 . S
C860 C861 1.398 . S
C861 C856 1.395 . S
C861 C860 1.398 . S
C861 H887 0.930 . S
C862 O842 1.235 . S
C862 O843 1.270 . S
O863 C816 1.263 . S
O863 Cd823 2.366 . S
C864 O852 1.258 . S
C864 O853 1.274 . S
C864 C858 1.495 . S
C865 N832 1.432 . S
C865 C866 1.381 . S
C865 C870 1.385 . S
C866 C865 1.381 . S
C866 C867 1.371 . S
C866 H888 0.932 . S
C867 C866 1.371 . S
C867 C868 1.400 . S
C868 C867 1.400 . S
C868 C869 1.351 . S
C868 H889 0.930 . S
C869 C868 1.351 . S
C869 C870 1.388 . S
C870 C865 1.385 . S
C870 C869 1.388 . S
C870 H890 0.929 . S
C871 C810 1.504 . S
C871 N841 1.309 . S
C871 O872 1.258 . S
O872 C871 1.258 . S
H873 C811 0.929 . S
H874 C812 0.932 . S
H875 C813 0.931 . S
H876 C818 0.929 . S
H877 C820 0.929 . S
H878 C822 0.931 . S
H879 C827 0.929 . S
H880 C829 0.932 . S
H881 C830 0.931 . S
H882 C835 0.930 . S
H883 C836 0.931 . S
H884 C837 0.930 . S
H885 C857 0.929 . S
H886 C859 0.930 . S
H887 C861 0.930 . S
H888 C866 0.932 . S
H889 C868 0.930 . S
H890 C870 0.929 . S
C891 C892 1.359 . S
C891 N896 1.330 . S
C891 C952 1.504 . S
C892 C891 1.359 . S
C892 C893 1.366 . S
C892 H954 0.929 . S
C893 C892 1.366 . S
C893 C894 1.415 . S
C893 H955 0.932 . S
C894 C893 1.415 . S
C894 C895 1.366 . S
C894 H956 0.931 . S
C895 C894 1.366 . S
C895 N896 1.325 . S
C895 C897 1.516 . S
N896 C891 1.330 . S
N896 C895 1.325 . S
N896 Co912 1.869 . S
C897 C895 1.516 . S
C897 N921 1.316 . S
C897 O944 1.263 . S
C898 C899 1.421 . S
C898 C903 1.360 . S
C898 N921 1.436 . S
C899 C898 1.421 . S
C899 C900 1.379 . S
C899 H957 0.929 . S
C900 C899 1.379 . S
C900 C901 1.417 . S
C901 C900 1.417 . S
C901 C902 1.352 . S
C901 H958 0.929 . S
C902 C901 1.352 . S
C902 C903 1.393 . S
C903 C898 1.360 . S
C903 C902 1.393 . S
C903 H959 0.931 . S
Cd904 O924 2.329 . S
Cd904 O926 2.350 . S
Cd904 O927 2.277 . S
Cd904 O929 2.173 . S
Cd904 O933 2.263 . S
Cd904 O944 2.366 . S
Cd905 O923 2.352 . S
Cd905 O930 2.250 . S
Cd905 O934 2.308 . S
C906 C910 1.403 . S
C906 C911 1.370 . S
C906 N922 1.423 . S
C907 C908 1.389 . S
C907 C911 1.389 . S
C908 C907 1.389 . S
C908 C909 1.379 . S
C908 H960 0.929 . S
C909 C908 1.379 . S
C909 C910 1.405 . S
C910 C906 1.403 . S
C910 C909 1.405 . S
C910 H961 0.932 . S
C911 C906 1.370 . S
C911 C907 1.389 . S
C911 H962 0.931 . S
Co912 N896 1.869 . S
Co912 N913 1.955 . S
Co912 N914 1.864 . S
Co912 N920 1.958 . S
Co912 N921 1.953 . S
Co912 N922 1.974 . S
N913 Co912 1.955 . S
N913 C931 1.329 . S
N913 C946 1.432 . S
N914 Co912 1.864 . S
N914 C915 1.327 . S
N914 C919 1.342 . S
C915 N914 1.327 . S
C915 C916 1.407 . S
C915 C931 1.481 . S
C916 C915 1.407 . S
C916 C917 1.364 . S
C916 H963 0.930 . S
C917 C916 1.364 . S
C917 C918 1.390 . S
C917 H964 0.931 . S
C918 C917 1.390 . S
C918 C919 1.346 . S
C918 H965 0.930 . S
C919 N914 1.342 . S
C919 C918 1.346 . S
C919 C935 1.516 . S
N920 Co912 1.958 . S
N920 C935 1.324 . S
N920 C937 1.427 . S
N921 C897 1.316 . S
N921 C898 1.436 . S
N921 Co912 1.953 . S
N922 C906 1.423 . S
N922 Co912 1.974 . S
N922 C952 1.309 . S
O923 Cd905 2.352 . S
O923 C943 1.235 . S
O924 Cd904 2.329 . S
O924 C943 1.270 . S
C925 O926 1.270 . S
C925 O927 1.248 . S
O926 Cd904 2.350 . S
O926 C925 1.270 . S
O927 Cd904 2.277 . S
O927 C925 1.248 . S
C928 O929 1.277 . S
C928 O930 1.230 . S
O929 Cd904 2.173 . S
O929 C928 1.277 . S
O930 Cd905 2.250 . S
O930 C928 1.230 . S
C931 N913 1.329 . S
C931 C915 1.481 . S
C931 O932 1.246 . S
O932 C931 1.246 . S
O933 Cd904 2.263 . S
O933 C945 1.258 . S
O934 Cd905 2.308 . S
O934 C945 1.274 . S
C935 C919 1.516 . S
C935 N920 1.324 . S
C935 O936 1.238 . S
O936 C935 1.238 . S
C937 N920 1.427 . S
C937 C938 1.394 . S
C937 C942 1.395 . S
C938 C937 1.394 . S
C938 C939 1.380 . S
C938 H966 0.929 . S
C939 C938 1.380 . S
C939 C940 1.384 . S
C939 C945 1.495 . S
C940 C939 1.384 . S
C940 C941 1.382 . S
C940 H967 0.930 . S
C941 C940 1.382 . S
C941 C942 1.398 . S
C942 C937 1.395 . S
C942 C941 1.398 . S
C942 H968 0.930 . S
C943 O923 1.235 . S
C943 O924 1.270 . S
O944 C897 1.263 . S
O944 Cd904 2.366 . S
C945 O933 1.258 . S
C945 O934 1.274 . S
C945 C939 1.495 . S
C946 N913 1.432 . S
C946 C947 1.381 . S
C946 C951 1.385 . S
C947 C946 1.381 . S
C947 C948 1.371 . S
C947 H969 0.932 . S
C948 C947 1.371 . S
C948 C949 1.400 . S
C949 C948 1.400 . S
C949 C950 1.351 . S
C949 H970 0.930 . S
C950 C949 1.351 . S
C950 C951 1.388 . S
C951 C946 1.385 . S
C951 C950 1.388 . S
C951 H971 0.929 . S
C952 C891 1.504 . S
C952 N922 1.309 . S
C952 O953 1.258 . S
O953 C952 1.258 . S
H954 C892 0.929 . S
H955 C893 0.932 . S
H956 C894 0.931 . S
H957 C899 0.929 . S
H958 C901 0.929 . S
H959 C903 0.931 . S
H960 C908 0.929 . S
H961 C910 0.932 . S
H962 C911 0.931 . S
H963 C916 0.930 . S
H964 C917 0.931 . S
H965 C918 0.930 . S
H966 C938 0.929 . S
H967 C940 0.930 . S
H968 C942 0.930 . S
H969 C947 0.932 . S
H970 C949 0.930 . S
H971 C951 0.929 . S
C972 C973 1.359 . S
C972 N977 1.330 . S
C972 C1033 1.504 . S
C973 C972 1.359 . S
C973 C974 1.366 . S
C973 H1035 0.929 . S
C974 C973 1.366 . S
C974 C975 1.415 . S
C974 H1036 0.932 . S
C975 C974 1.415 . S
C975 C976 1.366 . S
C975 H1037 0.931 . S
C976 C975 1.366 . S
C976 N977 1.325 . S
C976 C978 1.516 . S
N977 C972 1.330 . S
N977 C976 1.325 . S
N977 Co993 1.869 . S
C978 C976 1.516 . S
C978 N1002 1.316 . S
C978 O1025 1.263 . S
C979 C980 1.421 . S
C979 C984 1.360 . S
C979 N1002 1.436 . S
C980 C979 1.421 . S
C980 C981 1.379 . S
C980 H1038 0.929 . S
C981 C980 1.379 . S
C981 C982 1.417 . S
C982 C981 1.417 . S
C982 C983 1.352 . S
C982 H1039 0.929 . S
C983 C982 1.352 . S
C983 C984 1.393 . S
C984 C979 1.360 . S
C984 C983 1.393 . S
C984 H1040 0.931 . S
Cd985 O1005 2.329 . S
Cd985 O1007 2.350 . S
Cd985 O1008 2.277 . S
Cd985 O1010 2.173 . S
Cd985 O1014 2.263 . S
Cd985 O1025 2.366 . S
Cd986 O1004 2.352 . S
Cd986 O1011 2.250 . S
Cd986 O1015 2.308 . S
C987 C991 1.403 . S
C987 C992 1.370 . S
C987 N1003 1.423 . S
C988 C989 1.389 . S
C988 C992 1.389 . S
C989 C988 1.389 . S
C989 C990 1.379 . S
C989 H1041 0.929 . S
C990 C989 1.379 . S
C990 C991 1.405 . S
C991 C987 1.403 . S
C991 C990 1.405 . S
C991 H1042 0.932 . S
C992 C987 1.370 . S
C992 C988 1.389 . S
C992 H1043 0.931 . S
Co993 N977 1.869 . S
Co993 N994 1.955 . S
Co993 N995 1.864 . S
Co993 N1001 1.958 . S
Co993 N1002 1.953 . S
Co993 N1003 1.974 . S
N994 Co993 1.955 . S
N994 C1012 1.329 . S
N994 C1027 1.432 . S
N995 Co993 1.864 . S
N995 C996 1.327 . S
N995 C1000 1.342 . S
C996 N995 1.327 . S
C996 C997 1.407 . S
C996 C1012 1.481 . S
C997 C996 1.407 . S
C997 C998 1.364 . S
C997 H1044 0.930 . S
C998 C997 1.364 . S
C998 C999 1.390 . S
C998 H1045 0.931 . S
C999 C998 1.390 . S
C999 C1000 1.346 . S
C999 H1046 0.930 . S
C1000 N995 1.342 . S
C1000 C999 1.346 . S
C1000 C1016 1.516 . S
N1001 Co993 1.958 . S
N1001 C1016 1.324 . S
N1001 C1018 1.427 . S
N1002 C978 1.316 . S
N1002 C979 1.436 . S
N1002 Co993 1.953 . S
N1003 C987 1.423 . S
N1003 Co993 1.974 . S
N1003 C1033 1.309 . S
O1004 Cd986 2.352 . S
O1004 C1024 1.235 . S
O1005 Cd985 2.329 . S
O1005 C1024 1.270 . S
C1006 O1007 1.270 . S
C1006 O1008 1.248 . S
O1007 Cd985 2.350 . S
O1007 C1006 1.270 . S
O1008 Cd985 2.277 . S
O1008 C1006 1.248 . S
C1009 O1010 1.277 . S
C1009 O1011 1.230 . S
O1010 Cd985 2.173 . S
O1010 C1009 1.277 . S
O1011 Cd986 2.250 . S
O1011 C1009 1.230 . S
C1012 N994 1.329 . S
C1012 C996 1.481 . S
C1012 O1013 1.246 . S
O1013 C1012 1.246 . S
O1014 Cd985 2.263 . S
O1014 C1026 1.258 . S
O1015 Cd986 2.308 . S
O1015 C1026 1.274 . S
C1016 C1000 1.516 . S
C1016 N1001 1.324 . S
C1016 O1017 1.238 . S
O1017 C1016 1.238 . S
C1018 N1001 1.427 . S
C1018 C1019 1.394 . S
C1018 C1023 1.395 . S
C1019 C1018 1.394 . S
C1019 C1020 1.380 . S
C1019 H1047 0.929 . S
C1020 C1019 1.380 . S
C1020 C1021 1.384 . S
C1020 C1026 1.495 . S
C1021 C1020 1.384 . S
C1021 C1022 1.382 . S
C1021 H1048 0.930 . S
C1022 C1021 1.382 . S
C1022 C1023 1.398 . S
C1023 C1018 1.395 . S
C1023 C1022 1.398 . S
C1023 H1049 0.930 . S
C1024 O1004 1.235 . S
C1024 O1005 1.270 . S
O1025 C978 1.263 . S
O1025 Cd985 2.366 . S
C1026 O1014 1.258 . S
C1026 O1015 1.274 . S
C1026 C1020 1.495 . S
C1027 N994 1.432 . S
C1027 C1028 1.381 . S
C1027 C1032 1.385 . S
C1028 C1027 1.381 . S
C1028 C1029 1.371 . S
C1028 H1050 0.932 . S
C1029 C1028 1.371 . S
C1029 C1030 1.400 . S
C1030 C1029 1.400 . S
C1030 C1031 1.351 . S
C1030 H1051 0.930 . S
C1031 C1030 1.351 . S
C1031 C1032 1.388 . S
C1032 C1027 1.385 . S
C1032 C1031 1.388 . S
C1032 H1052 0.929 . S
C1033 C972 1.504 . S
C1033 N1003 1.309 . S
C1033 O1034 1.258 . S
O1034 C1033 1.258 . S
H1035 C973 0.929 . S
H1036 C974 0.932 . S
H1037 C975 0.931 . S
H1038 C980 0.929 . S
H1039 C982 0.929 . S
H1040 C984 0.931 . S
H1041 C989 0.929 . S
H1042 C991 0.932 . S
H1043 C992 0.931 . S
H1044 C997 0.930 . S
H1045 C998 0.931 . S
H1046 C999 0.930 . S
H1047 C1019 0.929 . S
H1048 C1021 0.930 . S
H1049 C1023 0.930 . S
H1050 C1028 0.932 . S
H1051 C1030 0.930 . S
H1052 C1032 0.929 . S
C1053 C1054 1.359 . S
C1053 N1058 1.330 . S
C1053 C1114 1.504 . S
C1054 C1053 1.359 . S
C1054 C1055 1.366 . S
C1054 H1116 0.929 . S
C1055 C1054 1.366 . S
C1055 C1056 1.415 . S
C1055 H1117 0.932 . S
C1056 C1055 1.415 . S
C1056 C1057 1.366 . S
C1056 H1118 0.931 . S
C1057 C1056 1.366 . S
C1057 N1058 1.325 . S
C1057 C1059 1.516 . S
N1058 C1053 1.330 . S
N1058 C1057 1.325 . S
N1058 Co1074 1.869 . S
C1059 C1057 1.516 . S
C1059 N1083 1.316 . S
C1059 O1106 1.263 . S
C1060 C1061 1.421 . S
C1060 C1065 1.360 . S
C1060 N1083 1.436 . S
C1061 C1060 1.421 . S
C1061 C1062 1.379 . S
C1061 H1119 0.929 . S
C1062 C1061 1.379 . S
C1062 C1063 1.417 . S
C1063 C1062 1.417 . S
C1063 C1064 1.352 . S
C1063 H1120 0.929 . S
C1064 C1063 1.352 . S
C1064 C1065 1.393 . S
C1065 C1060 1.360 . S
C1065 C1064 1.393 . S
C1065 H1121 0.931 . S
Cd1066 O1086 2.329 . S
Cd1066 O1088 2.350 . S
Cd1066 O1089 2.277 . S
Cd1066 O1091 2.173 . S
Cd1066 O1095 2.263 . S
Cd1066 O1106 2.366 . S
Cd1067 O1085 2.352 . S
Cd1067 O1092 2.250 . S
Cd1067 O1096 2.308 . S
C1068 C1072 1.403 . S
C1068 C1073 1.370 . S
C1068 N1084 1.423 . S
C1069 C1070 1.389 . S
C1069 C1073 1.389 . S
C1070 C1069 1.389 . S
C1070 C1071 1.379 . S
C1070 H1122 0.929 . S
C1071 C1070 1.379 . S
C1071 C1072 1.405 . S
C1072 C1068 1.403 . S
C1072 C1071 1.405 . S
C1072 H1123 0.932 . S
C1073 C1068 1.370 . S
C1073 C1069 1.389 . S
C1073 H1124 0.931 . S
Co1074 N1058 1.869 . S
Co1074 N1075 1.955 . S
Co1074 N1076 1.864 . S
Co1074 N1082 1.958 . S
Co1074 N1083 1.953 . S
Co1074 N1084 1.974 . S
N1075 Co1074 1.955 . S
N1075 C1093 1.329 . S
N1075 C1108 1.432 . S
N1076 Co1074 1.864 . S
N1076 C1077 1.327 . S
N1076 C1081 1.342 . S
C1077 N1076 1.327 . S
C1077 C1078 1.407 . S
C1077 C1093 1.481 . S
C1078 C1077 1.407 . S
C1078 C1079 1.364 . S
C1078 H1125 0.930 . S
C1079 C1078 1.364 . S
C1079 C1080 1.390 . S
C1079 H1126 0.931 . S
C1080 C1079 1.390 . S
C1080 C1081 1.346 . S
C1080 H1127 0.930 . S
C1081 N1076 1.342 . S
C1081 C1080 1.346 . S
C1081 C1097 1.516 . S
N1082 Co1074 1.958 . S
N1082 C1097 1.324 . S
N1082 C1099 1.427 . S
N1083 C1059 1.316 . S
N1083 C1060 1.436 . S
N1083 Co1074 1.953 . S
N1084 C1068 1.423 . S
N1084 Co1074 1.974 . S
N1084 C1114 1.309 . S
O1085 Cd1067 2.352 . S
O1085 C1105 1.235 . S
O1086 Cd1066 2.329 . S
O1086 C1105 1.270 . S
C1087 O1088 1.270 . S
C1087 O1089 1.248 . S
O1088 Cd1066 2.350 . S
O1088 C1087 1.270 . S
O1089 Cd1066 2.277 . S
O1089 C1087 1.248 . S
C1090 O1091 1.277 . S
C1090 O1092 1.230 . S
O1091 Cd1066 2.173 . S
O1091 C1090 1.277 . S
O1092 Cd1067 2.250 . S
O1092 C1090 1.230 . S
C1093 N1075 1.329 . S
C1093 C1077 1.481 . S
C1093 O1094 1.246 . S
O1094 C1093 1.246 . S
O1095 Cd1066 2.263 . S
O1095 C1107 1.258 . S
O1096 Cd1067 2.308 . S
O1096 C1107 1.274 . S
C1097 C1081 1.516 . S
C1097 N1082 1.324 . S
C1097 O1098 1.238 . S
O1098 C1097 1.238 . S
C1099 N1082 1.427 . S
C1099 C1100 1.394 . S
C1099 C1104 1.395 . S
C1100 C1099 1.394 . S
C1100 C1101 1.380 . S
C1100 H1128 0.929 . S
C1101 C1100 1.380 . S
C1101 C1102 1.384 . S
C1101 C1107 1.495 . S
C1102 C1101 1.384 . S
C1102 C1103 1.382 . S
C1102 H1129 0.930 . S
C1103 C1102 1.382 . S
C1103 C1104 1.398 . S
C1104 C1099 1.395 . S
C1104 C1103 1.398 . S
C1104 H1130 0.930 . S
C1105 O1085 1.235 . S
C1105 O1086 1.270 . S
O1106 C1059 1.263 . S
O1106 Cd1066 2.366 . S
C1107 O1095 1.258 . S
C1107 O1096 1.274 . S
C1107 C1101 1.495 . S
C1108 N1075 1.432 . S
C1108 C1109 1.381 . S
C1108 C1113 1.385 . S
C1109 C1108 1.381 . S
C1109 C1110 1.371 . S
C1109 H1131 0.932 . S
C1110 C1109 1.371 . S
C1110 C1111 1.400 . S
C1111 C1110 1.400 . S
C1111 C1112 1.351 . S
C1111 H1132 0.930 . S
C1112 C1111 1.351 . S
C1112 C1113 1.388 . S
C1113 C1108 1.385 . S
C1113 C1112 1.388 . S
C1113 H1133 0.929 . S
C1114 C1053 1.504 . S
C1114 N1084 1.309 . S
C1114 O1115 1.258 . S
O1115 C1114 1.258 . S
H1116 C1054 0.929 . S
H1117 C1055 0.932 . S
H1118 C1056 0.931 . S
H1119 C1061 0.929 . S
H1120 C1063 0.929 . S
H1121 C1065 0.931 . S
H1122 C1070 0.929 . S
H1123 C1072 0.932 . S
H1124 C1073 0.931 . S
H1125 C1078 0.930 . S
H1126 C1079 0.931 . S
H1127 C1080 0.930 . S
H1128 C1100 0.929 . S
H1129 C1102 0.930 . S
H1130 C1104 0.930 . S
H1131 C1109 0.932 . S
H1132 C1111 0.930 . S
H1133 C1113 0.929 . S
C1134 C1135 1.359 . S
C1134 N1139 1.330 . S
C1134 C1195 1.504 . S
C1135 C1134 1.359 . S
C1135 C1136 1.366 . S
C1135 H1197 0.929 . S
C1136 C1135 1.366 . S
C1136 C1137 1.415 . S
C1136 H1198 0.932 . S
C1137 C1136 1.415 . S
C1137 C1138 1.366 . S
C1137 H1199 0.931 . S
C1138 C1137 1.366 . S
C1138 N1139 1.325 . S
C1138 C1140 1.516 . S
N1139 C1134 1.330 . S
N1139 C1138 1.325 . S
N1139 Co1155 1.869 . S
C1140 C1138 1.516 . S
C1140 N1164 1.316 . S
C1140 O1187 1.263 . S
C1141 C1142 1.421 . S
C1141 C1146 1.360 . S
C1141 N1164 1.436 . S
C1142 C1141 1.421 . S
C1142 C1143 1.379 . S
C1142 H1200 0.929 . S
C1143 C1142 1.379 . S
C1143 C1144 1.417 . S
C1144 C1143 1.417 . S
C1144 C1145 1.352 . S
C1144 H1201 0.929 . S
C1145 C1144 1.352 . S
C1145 C1146 1.393 . S
C1146 C1141 1.360 . S
C1146 C1145 1.393 . S
C1146 H1202 0.931 . S
Cd1147 O1167 2.329 . S
Cd1147 O1169 2.350 . S
Cd1147 O1170 2.277 . S
Cd1147 O1172 2.173 . S
Cd1147 O1176 2.263 . S
Cd1147 O1187 2.366 . S
Cd1148 O1166 2.352 . S
Cd1148 O1173 2.250 . S
Cd1148 O1177 2.308 . S
C1149 C1153 1.403 . S
C1149 C1154 1.370 . S
C1149 N1165 1.423 . S
C1150 C1151 1.389 . S
C1150 C1154 1.389 . S
C1151 C1150 1.389 . S
C1151 C1152 1.379 . S
C1151 H1203 0.929 . S
C1152 C1151 1.379 . S
C1152 C1153 1.405 . S
C1153 C1149 1.403 . S
C1153 C1152 1.405 . S
C1153 H1204 0.932 . S
C1154 C1149 1.370 . S
C1154 C1150 1.389 . S
C1154 H1205 0.931 . S
Co1155 N1139 1.869 . S
Co1155 N1156 1.955 . S
Co1155 N1157 1.864 . S
Co1155 N1163 1.958 . S
Co1155 N1164 1.953 . S
Co1155 N1165 1.974 . S
N1156 Co1155 1.955 . S
N1156 C1174 1.329 . S
N1156 C1189 1.432 . S
N1157 Co1155 1.864 . S
N1157 C1158 1.327 . S
N1157 C1162 1.342 . S
C1158 N1157 1.327 . S
C1158 C1159 1.407 . S
C1158 C1174 1.481 . S
C1159 C1158 1.407 . S
C1159 C1160 1.364 . S
C1159 H1206 0.930 . S
C1160 C1159 1.364 . S
C1160 C1161 1.390 . S
C1160 H1207 0.931 . S
C1161 C1160 1.390 . S
C1161 C1162 1.346 . S
C1161 H1208 0.930 . S
C1162 N1157 1.342 . S
C1162 C1161 1.346 . S
C1162 C1178 1.516 . S
N1163 Co1155 1.958 . S
N1163 C1178 1.324 . S
N1163 C1180 1.427 . S
N1164 C1140 1.316 . S
N1164 C1141 1.436 . S
N1164 Co1155 1.953 . S
N1165 C1149 1.423 . S
N1165 Co1155 1.974 . S
N1165 C1195 1.309 . S
O1166 Cd1148 2.352 . S
O1166 C1186 1.235 . S
O1167 Cd1147 2.329 . S
O1167 C1186 1.270 . S
C1168 O1169 1.270 . S
C1168 O1170 1.248 . S
O1169 Cd1147 2.350 . S
O1169 C1168 1.270 . S
O1170 Cd1147 2.277 . S
O1170 C1168 1.248 . S
C1171 O1172 1.277 . S
C1171 O1173 1.230 . S
O1172 Cd1147 2.173 . S
O1172 C1171 1.277 . S
O1173 Cd1148 2.250 . S
O1173 C1171 1.230 . S
C1174 N1156 1.329 . S
C1174 C1158 1.481 . S
C1174 O1175 1.246 . S
O1175 C1174 1.246 . S
O1176 Cd1147 2.263 . S
O1176 C1188 1.258 . S
O1177 Cd1148 2.308 . S
O1177 C1188 1.274 . S
C1178 C1162 1.516 . S
C1178 N1163 1.324 . S
C1178 O1179 1.238 . S
O1179 C1178 1.238 . S
C1180 N1163 1.427 . S
C1180 C1181 1.394 . S
C1180 C1185 1.395 . S
C1181 C1180 1.394 . S
C1181 C1182 1.380 . S
C1181 H1209 0.929 . S
C1182 C1181 1.380 . S
C1182 C1183 1.384 . S
C1182 C1188 1.495 . S
C1183 C1182 1.384 . S
C1183 C1184 1.382 . S
C1183 H1210 0.930 . S
C1184 C1183 1.382 . S
C1184 C1185 1.398 . S
C1185 C1180 1.395 . S
C1185 C1184 1.398 . S
C1185 H1211 0.930 . S
C1186 O1166 1.235 . S
C1186 O1167 1.270 . S
O1187 C1140 1.263 . S
O1187 Cd1147 2.366 . S
C1188 O1176 1.258 . S
C1188 O1177 1.274 . S
C1188 C1182 1.495 . S
C1189 N1156 1.432 . S
C1189 C1190 1.381 . S
C1189 C1194 1.385 . S
C1190 C1189 1.381 . S
C1190 C1191 1.371 . S
C1190 H1212 0.932 . S
C1191 C1190 1.371 . S
C1191 C1192 1.400 . S
C1192 C1191 1.400 . S
C1192 C1193 1.351 . S
C1192 H1213 0.930 . S
C1193 C1192 1.351 . S
C1193 C1194 1.388 . S
C1194 C1189 1.385 . S
C1194 C1193 1.388 . S
C1194 H1214 0.929 . S
C1195 C1134 1.504 . S
C1195 N1165 1.309 . S
C1195 O1196 1.258 . S
O1196 C1195 1.258 . S
H1197 C1135 0.929 . S
H1198 C1136 0.932 . S
H1199 C1137 0.931 . S
H1200 C1142 0.929 . S
H1201 C1144 0.929 . S
H1202 C1146 0.931 . S
H1203 C1151 0.929 . S
H1204 C1153 0.932 . S
H1205 C1154 0.931 . S
H1206 C1159 0.930 . S
H1207 C1160 0.931 . S
H1208 C1161 0.930 . S
H1209 C1181 0.929 . S
H1210 C1183 0.930 . S
H1211 C1185 0.930 . S
H1212 C1190 0.932 . S
H1213 C1192 0.930 . S
H1214 C1194 0.929 . S
C1215 C1216 1.359 . S
C1215 N1220 1.330 . S
C1215 C1276 1.504 . S
C1216 C1215 1.359 . S
C1216 C1217 1.366 . S
C1216 H1278 0.929 . S
C1217 C1216 1.366 . S
C1217 C1218 1.415 . S
C1217 H1279 0.932 . S
C1218 C1217 1.415 . S
C1218 C1219 1.366 . S
C1218 H1280 0.931 . S
C1219 C1218 1.366 . S
C1219 N1220 1.325 . S
C1219 C1221 1.516 . S
N1220 C1215 1.330 . S
N1220 C1219 1.325 . S
N1220 Co1236 1.869 . S
C1221 C1219 1.516 . S
C1221 N1245 1.316 . S
C1221 O1268 1.263 . S
C1222 C1223 1.421 . S
C1222 C1227 1.360 . S
C1222 N1245 1.436 . S
C1223 C1222 1.421 . S
C1223 C1224 1.379 . S
C1223 H1281 0.929 . S
C1224 C1223 1.379 . S
C1224 C1225 1.417 . S
C1225 C1224 1.417 . S
C1225 C1226 1.352 . S
C1225 H1282 0.929 . S
C1226 C1225 1.352 . S
C1226 C1227 1.393 . S
C1227 C1222 1.360 . S
C1227 C1226 1.393 . S
C1227 H1283 0.931 . S
Cd1228 O1248 2.329 . S
Cd1228 O1250 2.350 . S
Cd1228 O1251 2.277 . S
Cd1228 O1253 2.173 . S
Cd1228 O1257 2.263 . S
Cd1228 O1268 2.366 . S
Cd1229 O1247 2.352 . S
Cd1229 O1254 2.250 . S
Cd1229 O1258 2.308 . S
C1230 C1234 1.403 . S
C1230 C1235 1.370 . S
C1230 N1246 1.423 . S
C1231 C1232 1.389 . S
C1231 C1235 1.389 . S
C1232 C1231 1.389 . S
C1232 C1233 1.379 . S
C1232 H1284 0.929 . S
C1233 C1232 1.379 . S
C1233 C1234 1.405 . S
C1234 C1230 1.403 . S
C1234 C1233 1.405 . S
C1234 H1285 0.932 . S
C1235 C1230 1.370 . S
C1235 C1231 1.389 . S
C1235 H1286 0.931 . S
Co1236 N1220 1.869 . S
Co1236 N1237 1.955 . S
Co1236 N1238 1.864 . S
Co1236 N1244 1.958 . S
Co1236 N1245 1.953 . S
Co1236 N1246 1.974 . S
N1237 Co1236 1.955 . S
N1237 C1255 1.329 . S
N1237 C1270 1.432 . S
N1238 Co1236 1.864 . S
N1238 C1239 1.327 . S
N1238 C1243 1.342 . S
C1239 N1238 1.327 . S
C1239 C1240 1.407 . S
C1239 C1255 1.481 . S
C1240 C1239 1.407 . S
C1240 C1241 1.364 . S
C1240 H1287 0.930 . S
C1241 C1240 1.364 . S
C1241 C1242 1.390 . S
C1241 H1288 0.931 . S
C1242 C1241 1.390 . S
C1242 C1243 1.346 . S
C1242 H1289 0.930 . S
C1243 N1238 1.342 . S
C1243 C1242 1.346 . S
C1243 C1259 1.516 . S
N1244 Co1236 1.958 . S
N1244 C1259 1.324 . S
N1244 C1261 1.427 . S
N1245 C1221 1.316 . S
N1245 C1222 1.436 . S
N1245 Co1236 1.953 . S
N1246 C1230 1.423 . S
N1246 Co1236 1.974 . S
N1246 C1276 1.309 . S
O1247 Cd1229 2.352 . S
O1247 C1267 1.235 . S
O1248 Cd1228 2.329 . S
O1248 C1267 1.270 . S
C1249 O1250 1.270 . S
C1249 O1251 1.248 . S
O1250 Cd1228 2.350 . S
O1250 C1249 1.270 . S
O1251 Cd1228 2.277 . S
O1251 C1249 1.248 . S
C1252 O1253 1.277 . S
C1252 O1254 1.230 . S
O1253 Cd1228 2.173 . S
O1253 C1252 1.277 . S
O1254 Cd1229 2.250 . S
O1254 C1252 1.230 . S
C1255 N1237 1.329 . S
C1255 C1239 1.481 . S
C1255 O1256 1.246 . S
O1256 C1255 1.246 . S
O1257 Cd1228 2.263 . S
O1257 C1269 1.258 . S
O1258 Cd1229 2.308 . S
O1258 C1269 1.274 . S
C1259 C1243 1.516 . S
C1259 N1244 1.324 . S
C1259 O1260 1.238 . S
O1260 C1259 1.238 . S
C1261 N1244 1.427 . S
C1261 C1262 1.394 . S
C1261 C1266 1.395 . S
C1262 C1261 1.394 . S
C1262 C1263 1.380 . S
C1262 H1290 0.929 . S
C1263 C1262 1.380 . S
C1263 C1264 1.384 . S
C1263 C1269 1.495 . S
C1264 C1263 1.384 . S
C1264 C1265 1.382 . S
C1264 H1291 0.930 . S
C1265 C1264 1.382 . S
C1265 C1266 1.398 . S
C1266 C1261 1.395 . S
C1266 C1265 1.398 . S
C1266 H1292 0.930 . S
C1267 O1247 1.235 . S
C1267 O1248 1.270 . S
O1268 C1221 1.263 . S
O1268 Cd1228 2.366 . S
C1269 O1257 1.258 . S
C1269 O1258 1.274 . S
C1269 C1263 1.495 . S
C1270 N1237 1.432 . S
C1270 C1271 1.381 . S
C1270 C1275 1.385 . S
C1271 C1270 1.381 . S
C1271 C1272 1.371 . S
C1271 H1293 0.932 . S
C1272 C1271 1.371 . S
C1272 C1273 1.400 . S
C1273 C1272 1.400 . S
C1273 C1274 1.351 . S
C1273 H1294 0.930 . S
C1274 C1273 1.351 . S
C1274 C1275 1.388 . S
C1275 C1270 1.385 . S
C1275 C1274 1.388 . S
C1275 H1295 0.929 . S
C1276 C1215 1.504 . S
C1276 N1246 1.309 . S
C1276 O1277 1.258 . S
O1277 C1276 1.258 . S
H1278 C1216 0.929 . S
H1279 C1217 0.932 . S
H1280 C1218 0.931 . S
H1281 C1223 0.929 . S
H1282 C1225 0.929 . S
H1283 C1227 0.931 . S
H1284 C1232 0.929 . S
H1285 C1234 0.932 . S
H1286 C1235 0.931 . S
H1287 C1240 0.930 . S
H1288 C1241 0.931 . S
H1289 C1242 0.930 . S
H1290 C1262 0.929 . S
H1291 C1264 0.930 . S
H1292 C1266 0.930 . S
H1293 C1271 0.932 . S
H1294 C1273 0.930 . S
H1295 C1275 0.929 . S
C1296 C1297 1.359 . S
C1296 N1301 1.330 . S
C1296 C1357 1.504 . S
C1297 C1296 1.359 . S
C1297 C1298 1.366 . S
C1297 H1359 0.929 . S
C1298 C1297 1.366 . S
C1298 C1299 1.415 . S
C1298 H1360 0.932 . S
C1299 C1298 1.415 . S
C1299 C1300 1.366 . S
C1299 H1361 0.931 . S
C1300 C1299 1.366 . S
C1300 N1301 1.325 . S
C1300 C1302 1.516 . S
N1301 C1296 1.330 . S
N1301 C1300 1.325 . S
N1301 Co1317 1.869 . S
C1302 C1300 1.516 . S
C1302 N1326 1.316 . S
C1302 O1349 1.263 . S
C1303 C1304 1.421 . S
C1303 C1308 1.360 . S
C1303 N1326 1.436 . S
C1304 C1303 1.421 . S
C1304 C1305 1.379 . S
C1304 H1362 0.929 . S
C1305 C1304 1.379 . S
C1305 C1306 1.417 . S
C1306 C1305 1.417 . S
C1306 C1307 1.352 . S
C1306 H1363 0.929 . S
C1307 C1306 1.352 . S
C1307 C1308 1.393 . S
C1308 C1303 1.360 . S
C1308 C1307 1.393 . S
C1308 H1364 0.931 . S
Cd1309 O1329 2.329 . S
Cd1309 O1331 2.350 . S
Cd1309 O1332 2.277 . S
Cd1309 O1334 2.173 . S
Cd1309 O1338 2.263 . S
Cd1309 O1349 2.366 . S
Cd1310 O1328 2.352 . S
Cd1310 O1335 2.250 . S
Cd1310 O1339 2.308 . S
C1311 C1315 1.403 . S
C1311 C1316 1.370 . S
C1311 N1327 1.423 . S
C1312 C1313 1.389 . S
C1312 C1316 1.389 . S
C1313 C1312 1.389 . S
C1313 C1314 1.379 . S
C1313 H1365 0.929 . S
C1314 C1313 1.379 . S
C1314 C1315 1.405 . S
C1315 C1311 1.403 . S
C1315 C1314 1.405 . S
C1315 H1366 0.932 . S
C1316 C1311 1.370 . S
C1316 C1312 1.389 . S
C1316 H1367 0.931 . S
Co1317 N1301 1.869 . S
Co1317 N1318 1.955 . S
Co1317 N1319 1.864 . S
Co1317 N1325 1.958 . S
Co1317 N1326 1.953 . S
Co1317 N1327 1.974 . S
N1318 Co1317 1.955 . S
N1318 C1336 1.329 . S
N1318 C1351 1.432 . S
N1319 Co1317 1.864 . S
N1319 C1320 1.327 . S
N1319 C1324 1.342 . S
C1320 N1319 1.327 . S
C1320 C1321 1.407 . S
C1320 C1336 1.481 . S
C1321 C1320 1.407 . S
C1321 C1322 1.364 . S
C1321 H1368 0.930 . S
C1322 C1321 1.364 . S
C1322 C1323 1.390 . S
C1322 H1369 0.931 . S
C1323 C1322 1.390 . S
C1323 C1324 1.346 . S
C1323 H1370 0.930 . S
C1324 N1319 1.342 . S
C1324 C1323 1.346 . S
C1324 C1340 1.516 . S
N1325 Co1317 1.958 . S
N1325 C1340 1.324 . S
N1325 C1342 1.427 . S
N1326 C1302 1.316 . S
N1326 C1303 1.436 . S
N1326 Co1317 1.953 . S
N1327 C1311 1.423 . S
N1327 Co1317 1.974 . S
N1327 C1357 1.309 . S
O1328 Cd1310 2.352 . S
O1328 C1348 1.235 . S
O1329 Cd1309 2.329 . S
O1329 C1348 1.270 . S
C1330 O1331 1.270 . S
C1330 O1332 1.248 . S
O1331 Cd1309 2.350 . S
O1331 C1330 1.270 . S
O1332 Cd1309 2.277 . S
O1332 C1330 1.248 . S
C1333 O1334 1.277 . S
C1333 O1335 1.230 . S
O1334 Cd1309 2.173 . S
O1334 C1333 1.277 . S
O1335 Cd1310 2.250 . S
O1335 C1333 1.230 . S
C1336 N1318 1.329 . S
C1336 C1320 1.481 . S
C1336 O1337 1.246 . S
O1337 C1336 1.246 . S
O1338 Cd1309 2.263 . S
O1338 C1350 1.258 . S
O1339 Cd1310 2.308 . S
O1339 C1350 1.274 . S
C1340 C1324 1.516 . S
C1340 N1325 1.324 . S
C1340 O1341 1.238 . S
O1341 C1340 1.238 . S
C1342 N1325 1.427 . S
C1342 C1343 1.394 . S
C1342 C1347 1.395 . S
C1343 C1342 1.394 . S
C1343 C1344 1.380 . S
C1343 H1371 0.929 . S
C1344 C1343 1.380 . S
C1344 C1345 1.384 . S
C1344 C1350 1.495 . S
C1345 C1344 1.384 . S
C1345 C1346 1.382 . S
C1345 H1372 0.930 . S
C1346 C1345 1.382 . S
C1346 C1347 1.398 . S
C1347 C1342 1.395 . S
C1347 C1346 1.398 . S
C1347 H1373 0.930 . S
C1348 O1328 1.235 . S
C1348 O1329 1.270 . S
O1349 C1302 1.263 . S
O1349 Cd1309 2.366 . S
C1350 O1338 1.258 . S
C1350 O1339 1.274 . S
C1350 C1344 1.495 . S
C1351 N1318 1.432 . S
C1351 C1352 1.381 . S
C1351 C1356 1.385 . S
C1352 C1351 1.381 . S
C1352 C1353 1.371 . S
C1352 H1374 0.932 . S
C1353 C1352 1.371 . S
C1353 C1354 1.400 . S
C1354 C1353 1.400 . S
C1354 C1355 1.351 . S
C1354 H1375 0.930 . S
C1355 C1354 1.351 . S
C1355 C1356 1.388 . S
C1356 C1351 1.385 . S
C1356 C1355 1.388 . S
C1356 H1376 0.929 . S
C1357 C1296 1.504 . S
C1357 N1327 1.309 . S
C1357 O1358 1.258 . S
O1358 C1357 1.258 . S
H1359 C1297 0.929 . S
H1360 C1298 0.932 . S
H1361 C1299 0.931 . S
H1362 C1304 0.929 . S
H1363 C1306 0.929 . S
H1364 C1308 0.931 . S
H1365 C1313 0.929 . S
H1366 C1315 0.932 . S
H1367 C1316 0.931 . S
H1368 C1321 0.930 . S
H1369 C1322 0.931 . S
H1370 C1323 0.930 . S
H1371 C1343 0.929 . S
H1372 C1345 0.930 . S
H1373 C1347 0.930 . S
H1374 C1352 0.932 . S
H1375 C1354 0.930 . S
H1376 C1356 0.929 . S
C1377 C1378 1.359 . S
C1377 N1382 1.330 . S
C1377 C1438 1.504 . S
C1378 C1377 1.359 . S
C1378 C1379 1.366 . S
C1378 H1440 0.929 . S
C1379 C1378 1.366 . S
C1379 C1380 1.415 . S
C1379 H1441 0.932 . S
C1380 C1379 1.415 . S
C1380 C1381 1.366 . S
C1380 H1442 0.931 . S
C1381 C1380 1.366 . S
C1381 N1382 1.325 . S
C1381 C1383 1.516 . S
N1382 C1377 1.330 . S
N1382 C1381 1.325 . S
N1382 Co1398 1.869 . S
C1383 C1381 1.516 . S
C1383 N1407 1.316 . S
C1383 O1430 1.263 . S
C1384 C1385 1.421 . S
C1384 C1389 1.360 . S
C1384 N1407 1.436 . S
C1385 C1384 1.421 . S
C1385 C1386 1.379 . S
C1385 H1443 0.929 . S
C1386 C1385 1.379 . S
C1386 C1387 1.417 . S
C1387 C1386 1.417 . S
C1387 C1388 1.352 . S
C1387 H1444 0.929 . S
C1388 C1387 1.352 . S
C1388 C1389 1.393 . S
C1389 C1384 1.360 . S
C1389 C1388 1.393 . S
C1389 H1445 0.931 . S
Cd1390 O1410 2.329 . S
Cd1390 O1412 2.350 . S
Cd1390 O1413 2.277 . S
Cd1390 O1415 2.173 . S
Cd1390 O1419 2.263 . S
Cd1390 O1430 2.366 . S
Cd1391 O1409 2.352 . S
Cd1391 O1416 2.250 . S
Cd1391 O1420 2.308 . S
C1392 C1396 1.403 . S
C1392 C1397 1.370 . S
C1392 N1408 1.423 . S
C1393 C1394 1.389 . S
C1393 C1397 1.389 . S
C1394 C1393 1.389 . S
C1394 C1395 1.379 . S
C1394 H1446 0.929 . S
C1395 C1394 1.379 . S
C1395 C1396 1.405 . S
C1396 C1392 1.403 . S
C1396 C1395 1.405 . S
C1396 H1447 0.932 . S
C1397 C1392 1.370 . S
C1397 C1393 1.389 . S
C1397 H1448 0.931 . S
Co1398 N1382 1.869 . S
Co1398 N1399 1.955 . S
Co1398 N1400 1.864 . S
Co1398 N1406 1.958 . S
Co1398 N1407 1.953 . S
Co1398 N1408 1.974 . S
N1399 Co1398 1.955 . S
N1399 C1417 1.329 . S
N1399 C1432 1.432 . S
N1400 Co1398 1.864 . S
N1400 C1401 1.327 . S
N1400 C1405 1.342 . S
C1401 N1400 1.327 . S
C1401 C1402 1.407 . S
C1401 C1417 1.481 . S
C1402 C1401 1.407 . S
C1402 C1403 1.364 . S
C1402 H1449 0.930 . S
C1403 C1402 1.364 . S
C1403 C1404 1.390 . S
C1403 H1450 0.931 . S
C1404 C1403 1.390 . S
C1404 C1405 1.346 . S
C1404 H1451 0.930 . S
C1405 N1400 1.342 . S
C1405 C1404 1.346 . S
C1405 C1421 1.516 . S
N1406 Co1398 1.958 . S
N1406 C1421 1.324 . S
N1406 C1423 1.427 . S
N1407 C1383 1.316 . S
N1407 C1384 1.436 . S
N1407 Co1398 1.953 . S
N1408 C1392 1.423 . S
N1408 Co1398 1.974 . S
N1408 C1438 1.309 . S
O1409 Cd1391 2.352 . S
O1409 C1429 1.235 . S
O1410 Cd1390 2.329 . S
O1410 C1429 1.270 . S
C1411 O1412 1.270 . S
C1411 O1413 1.248 . S
O1412 Cd1390 2.350 . S
O1412 C1411 1.270 . S
O1413 Cd1390 2.277 . S
O1413 C1411 1.248 . S
C1414 O1415 1.277 . S
C1414 O1416 1.230 . S
O1415 Cd1390 2.173 . S
O1415 C1414 1.277 . S
O1416 Cd1391 2.250 . S
O1416 C1414 1.230 . S
C1417 N1399 1.329 . S
C1417 C1401 1.481 . S
C1417 O1418 1.246 . S
O1418 C1417 1.246 . S
O1419 Cd1390 2.263 . S
O1419 C1431 1.258 . S
O1420 Cd1391 2.308 . S
O1420 C1431 1.274 . S
C1421 C1405 1.516 . S
C1421 N1406 1.324 . S
C1421 O1422 1.238 . S
O1422 C1421 1.238 . S
C1423 N1406 1.427 . S
C1423 C1424 1.394 . S
C1423 C1428 1.395 . S
C1424 C1423 1.394 . S
C1424 C1425 1.380 . S
C1424 H1452 0.929 . S
C1425 C1424 1.380 . S
C1425 C1426 1.384 . S
C1425 C1431 1.495 . S
C1426 C1425 1.384 . S
C1426 C1427 1.382 . S
C1426 H1453 0.930 . S
C1427 C1426 1.382 . S
C1427 C1428 1.398 . S
C1428 C1423 1.395 . S
C1428 C1427 1.398 . S
C1428 H1454 0.930 . S
C1429 O1409 1.235 . S
C1429 O1410 1.270 . S
O1430 C1383 1.263 . S
O1430 Cd1390 2.366 . S
C1431 O1419 1.258 . S
C1431 O1420 1.274 . S
C1431 C1425 1.495 . S
C1432 N1399 1.432 . S
C1432 C1433 1.381 . S
C1432 C1437 1.385 . S
C1433 C1432 1.381 . S
C1433 C1434 1.371 . S
C1433 H1455 0.932 . S
C1434 C1433 1.371 . S
C1434 C1435 1.400 . S
C1435 C1434 1.400 . S
C1435 C1436 1.351 . S
C1435 H1456 0.930 . S
C1436 C1435 1.351 . S
C1436 C1437 1.388 . S
C1437 C1432 1.385 . S
C1437 C1436 1.388 . S
C1437 H1457 0.929 . S
C1438 C1377 1.504 . S
C1438 N1408 1.309 . S
C1438 O1439 1.258 . S
O1439 C1438 1.258 . S
H1440 C1378 0.929 . S
H1441 C1379 0.932 . S
H1442 C1380 0.931 . S
H1443 C1385 0.929 . S
H1444 C1387 0.929 . S
H1445 C1389 0.931 . S
H1446 C1394 0.929 . S
H1447 C1396 0.932 . S
H1448 C1397 0.931 . S
H1449 C1402 0.930 . S
H1450 C1403 0.931 . S
H1451 C1404 0.930 . S
H1452 C1424 0.929 . S
H1453 C1426 0.930 . S
H1454 C1428 0.930 . S
H1455 C1433 0.932 . S
H1456 C1435 0.930 . S
H1457 C1437 0.929 . S
C1458 C1459 1.359 . S
C1458 N1463 1.330 . S
C1458 C1519 1.504 . S
C1459 C1458 1.359 . S
C1459 C1460 1.366 . S
C1459 H1521 0.929 . S
C1460 C1459 1.366 . S
C1460 C1461 1.415 . S
C1460 H1522 0.932 . S
C1461 C1460 1.415 . S
C1461 C1462 1.366 . S
C1461 H1523 0.931 . S
C1462 C1461 1.366 . S
C1462 N1463 1.325 . S
C1462 C1464 1.516 . S
N1463 C1458 1.330 . S
N1463 C1462 1.325 . S
N1463 Co1479 1.869 . S
C1464 C1462 1.516 . S
C1464 N1488 1.316 . S
C1464 O1511 1.263 . S
C1465 C1466 1.421 . S
C1465 C1470 1.360 . S
C1465 N1488 1.436 . S
C1466 C1465 1.421 . S
C1466 C1467 1.379 . S
C1466 H1524 0.929 . S
C1467 C1466 1.379 . S
C1467 C1468 1.417 . S
C1468 C1467 1.417 . S
C1468 C1469 1.352 . S
C1468 H1525 0.929 . S
C1469 C1468 1.352 . S
C1469 C1470 1.393 . S
C1470 C1465 1.360 . S
C1470 C1469 1.393 . S
C1470 H1526 0.931 . S
Cd1471 O1491 2.329 . S
Cd1471 O1493 2.350 . S
Cd1471 O1494 2.277 . S
Cd1471 O1496 2.173 . S
Cd1471 O1500 2.263 . S
Cd1471 O1511 2.366 . S
Cd1472 O1490 2.352 . S
Cd1472 O1497 2.250 . S
Cd1472 O1501 2.308 . S
C1473 C1477 1.403 . S
C1473 C1478 1.370 . S
C1473 N1489 1.423 . S
C1474 C1475 1.389 . S
C1474 C1478 1.389 . S
C1475 C1474 1.389 . S
C1475 C1476 1.379 . S
C1475 H1527 0.929 . S
C1476 C1475 1.379 . S
C1476 C1477 1.405 . S
C1477 C1473 1.403 . S
C1477 C1476 1.405 . S
C1477 H1528 0.932 . S
C1478 C1473 1.370 . S
C1478 C1474 1.389 . S
C1478 H1529 0.931 . S
Co1479 N1463 1.869 . S
Co1479 N1480 1.955 . S
Co1479 N1481 1.864 . S
Co1479 N1487 1.958 . S
Co1479 N1488 1.953 . S
Co1479 N1489 1.974 . S
N1480 Co1479 1.955 . S
N1480 C1498 1.329 . S
N1480 C1513 1.432 . S
N1481 Co1479 1.864 . S
N1481 C1482 1.327 . S
N1481 C1486 1.342 . S
C1482 N1481 1.327 . S
C1482 C1483 1.407 . S
C1482 C1498 1.481 . S
C1483 C1482 1.407 . S
C1483 C1484 1.364 . S
C1483 H1530 0.930 . S
C1484 C1483 1.364 . S
C1484 C1485 1.390 . S
C1484 H1531 0.931 . S
C1485 C1484 1.390 . S
C1485 C1486 1.346 . S
C1485 H1532 0.930 . S
C1486 N1481 1.342 . S
C1486 C1485 1.346 . S
C1486 C1502 1.516 . S
N1487 Co1479 1.958 . S
N1487 C1502 1.324 . S
N1487 C1504 1.427 . S
N1488 C1464 1.316 . S
N1488 C1465 1.436 . S
N1488 Co1479 1.953 . S
N1489 C1473 1.423 . S
N1489 Co1479 1.974 . S
N1489 C1519 1.309 . S
O1490 Cd1472 2.352 . S
O1490 C1510 1.235 . S
O1491 Cd1471 2.329 . S
O1491 C1510 1.270 . S
C1492 O1493 1.270 . S
C1492 O1494 1.248 . S
O1493 Cd1471 2.350 . S
O1493 C1492 1.270 . S
O1494 Cd1471 2.277 . S
O1494 C1492 1.248 . S
C1495 O1496 1.277 . S
C1495 O1497 1.230 . S
O1496 Cd1471 2.173 . S
O1496 C1495 1.277 . S
O1497 Cd1472 2.250 . S
O1497 C1495 1.230 . S
C1498 N1480 1.329 . S
C1498 C1482 1.481 . S
C1498 O1499 1.246 . S
O1499 C1498 1.246 . S
O1500 Cd1471 2.263 . S
O1500 C1512 1.258 . S
O1501 Cd1472 2.308 . S
O1501 C1512 1.274 . S
C1502 C1486 1.516 . S
C1502 N1487 1.324 . S
C1502 O1503 1.238 . S
O1503 C1502 1.238 . S
C1504 N1487 1.427 . S
C1504 C1505 1.394 . S
C1504 C1509 1.395 . S
C1505 C1504 1.394 . S
C1505 C1506 1.380 . S
C1505 H1533 0.929 . S
C1506 C1505 1.380 . S
C1506 C1507 1.384 . S
C1506 C1512 1.495 . S
C1507 C1506 1.384 . S
C1507 C1508 1.382 . S
C1507 H1534 0.930 . S
C1508 C1507 1.382 . S
C1508 C1509 1.398 . S
C1509 C1504 1.395 . S
C1509 C1508 1.398 . S
C1509 H1535 0.930 . S
C1510 O1490 1.235 . S
C1510 O1491 1.270 . S
O1511 C1464 1.263 . S
O1511 Cd1471 2.366 . S
C1512 O1500 1.258 . S
C1512 O1501 1.274 . S
C1512 C1506 1.495 . S
C1513 N1480 1.432 . S
C1513 C1514 1.381 . S
C1513 C1518 1.385 . S
C1514 C1513 1.381 . S
C1514 C1515 1.371 . S
C1514 H1536 0.932 . S
C1515 C1514 1.371 . S
C1515 C1516 1.400 . S
C1516 C1515 1.400 . S
C1516 C1517 1.351 . S
C1516 H1537 0.930 . S
C1517 C1516 1.351 . S
C1517 C1518 1.388 . S
C1518 C1513 1.385 . S
C1518 C1517 1.388 . S
C1518 H1538 0.929 . S
C1519 C1458 1.504 . S
C1519 N1489 1.309 . S
C1519 O1520 1.258 . S
O1520 C1519 1.258 . S
H1521 C1459 0.929 . S
H1522 C1460 0.932 . S
H1523 C1461 0.931 . S
H1524 C1466 0.929 . S
H1525 C1468 0.929 . S
H1526 C1470 0.931 . S
H1527 C1475 0.929 . S
H1528 C1477 0.932 . S
H1529 C1478 0.931 . S
H1530 C1483 0.930 . S
H1531 C1484 0.931 . S
H1532 C1485 0.930 . S
H1533 C1505 0.929 . S
H1534 C1507 0.930 . S
H1535 C1509 0.930 . S
H1536 C1514 0.932 . S
H1537 C1516 0.930 . S
H1538 C1518 0.929 . S
C1539 C1540 1.359 . S
C1539 N1544 1.330 . S
C1539 C1600 1.504 . S
C1540 C1539 1.359 . S
C1540 C1541 1.366 . S
C1540 H1602 0.929 . S
C1541 C1540 1.366 . S
C1541 C1542 1.415 . S
C1541 H1603 0.932 . S
C1542 C1541 1.415 . S
C1542 C1543 1.366 . S
C1542 H1604 0.931 . S
C1543 C1542 1.366 . S
C1543 N1544 1.325 . S
C1543 C1545 1.516 . S
N1544 C1539 1.330 . S
N1544 C1543 1.325 . S
N1544 Co1560 1.869 . S
C1545 C1543 1.516 . S
C1545 N1569 1.316 . S
C1545 O1592 1.263 . S
C1546 C1547 1.421 . S
C1546 C1551 1.360 . S
C1546 N1569 1.436 . S
C1547 C1546 1.421 . S
C1547 C1548 1.379 . S
C1547 H1605 0.929 . S
C1548 C1547 1.379 . S
C1548 C1549 1.417 . S
C1549 C1548 1.417 . S
C1549 C1550 1.352 . S
C1549 H1606 0.929 . S
C1550 C1549 1.352 . S
C1550 C1551 1.393 . S
C1551 C1546 1.360 . S
C1551 C1550 1.393 . S
C1551 H1607 0.931 . S
Cd1552 O1572 2.329 . S
Cd1552 O1574 2.350 . S
Cd1552 O1575 2.277 . S
Cd1552 O1577 2.173 . S
Cd1552 O1581 2.263 . S
Cd1552 O1592 2.366 . S
Cd1553 O1571 2.352 . S
Cd1553 O1578 2.250 . S
Cd1553 O1582 2.308 . S
C1554 C1558 1.403 . S
C1554 C1559 1.370 . S
C1554 N1570 1.423 . S
C1555 C1556 1.389 . S
C1555 C1559 1.389 . S
C1556 C1555 1.389 . S
C1556 C1557 1.379 . S
C1556 H1608 0.929 . S
C1557 C1556 1.379 . S
C1557 C1558 1.405 . S
C1558 C1554 1.403 . S
C1558 C1557 1.405 . S
C1558 H1609 0.932 . S
C1559 C1554 1.370 . S
C1559 C1555 1.389 . S
C1559 H1610 0.931 . S
Co1560 N1544 1.869 . S
Co1560 N1561 1.955 . S
Co1560 N1562 1.864 . S
Co1560 N1568 1.958 . S
Co1560 N1569 1.953 . S
Co1560 N1570 1.974 . S
N1561 Co1560 1.955 . S
N1561 C1579 1.329 . S
N1561 C1594 1.432 . S
N1562 Co1560 1.864 . S
N1562 C1563 1.327 . S
N1562 C1567 1.342 . S
C1563 N1562 1.327 . S
C1563 C1564 1.407 . S
C1563 C1579 1.481 . S
C1564 C1563 1.407 . S
C1564 C1565 1.364 . S
C1564 H1611 0.930 . S
C1565 C1564 1.364 . S
C1565 C1566 1.390 . S
C1565 H1612 0.931 . S
C1566 C1565 1.390 . S
C1566 C1567 1.346 . S
C1566 H1613 0.930 . S
C1567 N1562 1.342 . S
C1567 C1566 1.346 . S
C1567 C1583 1.516 . S
N1568 Co1560 1.958 . S
N1568 C1583 1.324 . S
N1568 C1585 1.427 . S
N1569 C1545 1.316 . S
N1569 C1546 1.436 . S
N1569 Co1560 1.953 . S
N1570 C1554 1.423 . S
N1570 Co1560 1.974 . S
N1570 C1600 1.309 . S
O1571 Cd1553 2.352 . S
O1571 C1591 1.235 . S
O1572 Cd1552 2.329 . S
O1572 C1591 1.270 . S
C1573 O1574 1.270 . S
C1573 O1575 1.248 . S
O1574 Cd1552 2.350 . S
O1574 C1573 1.270 . S
O1575 Cd1552 2.277 . S
O1575 C1573 1.248 . S
C1576 O1577 1.277 . S
C1576 O1578 1.230 . S
O1577 Cd1552 2.173 . S
O1577 C1576 1.277 . S
O1578 Cd1553 2.250 . S
O1578 C1576 1.230 . S
C1579 N1561 1.329 . S
C1579 C1563 1.481 . S
C1579 O1580 1.246 . S
O1580 C1579 1.246 . S
O1581 Cd1552 2.263 . S
O1581 C1593 1.258 . S
O1582 Cd1553 2.308 . S
O1582 C1593 1.274 . S
C1583 C1567 1.516 . S
C1583 N1568 1.324 . S
C1583 O1584 1.238 . S
O1584 C1583 1.238 . S
C1585 N1568 1.427 . S
C1585 C1586 1.394 . S
C1585 C1590 1.395 . S
C1586 C1585 1.394 . S
C1586 C1587 1.380 . S
C1586 H1614 0.929 . S
C1587 C1586 1.380 . S
C1587 C1588 1.384 . S
C1587 C1593 1.495 . S
C1588 C1587 1.384 . S
C1588 C1589 1.382 . S
C1588 H1615 0.930 . S
C1589 C1588 1.382 . S
C1589 C1590 1.398 . S
C1590 C1585 1.395 . S
C1590 C1589 1.398 . S
C1590 H1616 0.930 . S
C1591 O1571 1.235 . S
C1591 O1572 1.270 . S
O1592 C1545 1.263 . S
O1592 Cd1552 2.366 . S
C1593 O1581 1.258 . S
C1593 O1582 1.274 . S
C1593 C1587 1.495 . S
C1594 N1561 1.432 . S
C1594 C1595 1.381 . S
C1594 C1599 1.385 . S
C1595 C1594 1.381 . S
C1595 C1596 1.371 . S
C1595 H1617 0.932 . S
C1596 C1595 1.371 . S
C1596 C1597 1.400 . S
C1597 C1596 1.400 . S
C1597 C1598 1.351 . S
C1597 H1618 0.930 . S
C1598 C1597 1.351 . S
C1598 C1599 1.388 . S
C1599 C1594 1.385 . S
C1599 C1598 1.388 . S
C1599 H1619 0.929 . S
C1600 C1539 1.504 . S
C1600 N1570 1.309 . S
C1600 O1601 1.258 . S
O1601 C1600 1.258 . S
H1602 C1540 0.929 . S
H1603 C1541 0.932 . S
H1604 C1542 0.931 . S
H1605 C1547 0.929 . S
H1606 C1549 0.929 . S
H1607 C1551 0.931 . S
H1608 C1556 0.929 . S
H1609 C1558 0.932 . S
H1610 C1559 0.931 . S
H1611 C1564 0.930 . S
H1612 C1565 0.931 . S
H1613 C1566 0.930 . S
H1614 C1586 0.929 . S
H1615 C1588 0.930 . S
H1616 C1590 0.930 . S
H1617 C1595 0.932 . S
H1618 C1597 0.930 . S
H1619 C1599 0.929 . S
C1620 C1621 1.359 . S
C1620 N1625 1.330 . S
C1620 C1681 1.504 . S
C1621 C1620 1.359 . S
C1621 C1622 1.366 . S
C1621 H1683 0.929 . S
C1622 C1621 1.366 . S
C1622 C1623 1.415 . S
C1622 H1684 0.932 . S
C1623 C1622 1.415 . S
C1623 C1624 1.366 . S
C1623 H1685 0.931 . S
C1624 C1623 1.366 . S
C1624 N1625 1.325 . S
C1624 C1626 1.516 . S
N1625 C1620 1.330 . S
N1625 C1624 1.325 . S
N1625 Co1641 1.869 . S
C1626 C1624 1.516 . S
C1626 N1650 1.316 . S
C1626 O1673 1.263 . S
C1627 C1628 1.421 . S
C1627 C1632 1.360 . S
C1627 N1650 1.436 . S
C1628 C1627 1.421 . S
C1628 C1629 1.379 . S
C1628 H1686 0.929 . S
C1629 C1628 1.379 . S
C1629 C1630 1.417 . S
C1630 C1629 1.417 . S
C1630 C1631 1.352 . S
C1630 H1687 0.929 . S
C1631 C1630 1.352 . S
C1631 C1632 1.393 . S
C1632 C1627 1.360 . S
C1632 C1631 1.393 . S
C1632 H1688 0.931 . S
Cd1633 O1653 2.329 . S
Cd1633 O1655 2.350 . S
Cd1633 O1656 2.277 . S
Cd1633 O1658 2.173 . S
Cd1633 O1662 2.263 . S
Cd1633 O1673 2.366 . S
Cd1634 O1652 2.352 . S
Cd1634 O1659 2.250 . S
Cd1634 O1663 2.308 . S
C1635 C1639 1.403 . S
C1635 C1640 1.370 . S
C1635 N1651 1.423 . S
C1636 C1637 1.389 . S
C1636 C1640 1.389 . S
C1637 C1636 1.389 . S
C1637 C1638 1.379 . S
C1637 H1689 0.929 . S
C1638 C1637 1.379 . S
C1638 C1639 1.405 . S
C1639 C1635 1.403 . S
C1639 C1638 1.405 . S
C1639 H1690 0.932 . S
C1640 C1635 1.370 . S
C1640 C1636 1.389 . S
C1640 H1691 0.931 . S
Co1641 N1625 1.869 . S
Co1641 N1642 1.955 . S
Co1641 N1643 1.864 . S
Co1641 N1649 1.958 . S
Co1641 N1650 1.953 . S
Co1641 N1651 1.974 . S
N1642 Co1641 1.955 . S
N1642 C1660 1.329 . S
N1642 C1675 1.432 . S
N1643 Co1641 1.864 . S
N1643 C1644 1.327 . S
N1643 C1648 1.342 . S
C1644 N1643 1.327 . S
C1644 C1645 1.407 . S
C1644 C1660 1.481 . S
C1645 C1644 1.407 . S
C1645 C1646 1.364 . S
C1645 H1692 0.930 . S
C1646 C1645 1.364 . S
C1646 C1647 1.390 . S
C1646 H1693 0.931 . S
C1647 C1646 1.390 . S
C1647 C1648 1.346 . S
C1647 H1694 0.930 . S
C1648 N1643 1.342 . S
C1648 C1647 1.346 . S
C1648 C1664 1.516 . S
N1649 Co1641 1.958 . S
N1649 C1664 1.324 . S
N1649 C1666 1.427 . S
N1650 C1626 1.316 . S
N1650 C1627 1.436 . S
N1650 Co1641 1.953 . S
N1651 C1635 1.423 . S
N1651 Co1641 1.974 . S
N1651 C1681 1.309 . S
O1652 Cd1634 2.352 . S
O1652 C1672 1.235 . S
O1653 Cd1633 2.329 . S
O1653 C1672 1.270 . S
C1654 O1655 1.270 . S
C1654 O1656 1.248 . S
O1655 Cd1633 2.350 . S
O1655 C1654 1.270 . S
O1656 Cd1633 2.277 . S
O1656 C1654 1.248 . S
C1657 O1658 1.277 . S
C1657 O1659 1.230 . S
O1658 Cd1633 2.173 . S
O1658 C1657 1.277 . S
O1659 Cd1634 2.250 . S
O1659 C1657 1.230 . S
C1660 N1642 1.329 . S
C1660 C1644 1.481 . S
C1660 O1661 1.246 . S
O1661 C1660 1.246 . S
O1662 Cd1633 2.263 . S
O1662 C1674 1.258 . S
O1663 Cd1634 2.308 . S
O1663 C1674 1.274 . S
C1664 C1648 1.516 . S
C1664 N1649 1.324 . S
C1664 O1665 1.238 . S
O1665 C1664 1.238 . S
C1666 N1649 1.427 . S
C1666 C1667 1.394 . S
C1666 C1671 1.395 . S
C1667 C1666 1.394 . S
C1667 C1668 1.380 . S
C1667 H1695 0.929 . S
C1668 C1667 1.380 . S
C1668 C1669 1.384 . S
C1668 C1674 1.495 . S
C1669 C1668 1.384 . S
C1669 C1670 1.382 . S
C1669 H1696 0.930 . S
C1670 C1669 1.382 . S
C1670 C1671 1.398 . S
C1671 C1666 1.395 . S
C1671 C1670 1.398 . S
C1671 H1697 0.930 . S
C1672 O1652 1.235 . S
C1672 O1653 1.270 . S
O1673 C1626 1.263 . S
O1673 Cd1633 2.366 . S
C1674 O1662 1.258 . S
C1674 O1663 1.274 . S
C1674 C1668 1.495 . S
C1675 N1642 1.432 . S
C1675 C1676 1.381 . S
C1675 C1680 1.385 . S
C1676 C1675 1.381 . S
C1676 C1677 1.371 . S
C1676 H1698 0.932 . S
C1677 C1676 1.371 . S
C1677 C1678 1.400 . S
C1678 C1677 1.400 . S
C1678 C1679 1.351 . S
C1678 H1699 0.930 . S
C1679 C1678 1.351 . S
C1679 C1680 1.388 . S
C1680 C1675 1.385 . S
C1680 C1679 1.388 . S
C1680 H1700 0.929 . S
C1681 C1620 1.504 . S
C1681 N1651 1.309 . S
C1681 O1682 1.258 . S
O1682 C1681 1.258 . S
H1683 C1621 0.929 . S
H1684 C1622 0.932 . S
H1685 C1623 0.931 . S
H1686 C1628 0.929 . S
H1687 C1630 0.929 . S
H1688 C1632 0.931 . S
H1689 C1637 0.929 . S
H1690 C1639 0.932 . S
H1691 C1640 0.931 . S
H1692 C1645 0.930 . S
H1693 C1646 0.931 . S
H1694 C1647 0.930 . S
H1695 C1667 0.929 . S
H1696 C1669 0.930 . S
H1697 C1671 0.930 . S
H1698 C1676 0.932 . S
H1699 C1678 0.930 . S
H1700 C1680 0.929 . S
C1701 C1702 1.359 . S
C1701 N1706 1.330 . S
C1701 C1762 1.504 . S
C1702 C1701 1.359 . S
C1702 C1703 1.366 . S
C1702 H1764 0.929 . S
C1703 C1702 1.366 . S
C1703 C1704 1.415 . S
C1703 H1765 0.932 . S
C1704 C1703 1.415 . S
C1704 C1705 1.366 . S
C1704 H1766 0.931 . S
C1705 C1704 1.366 . S
C1705 N1706 1.325 . S
C1705 C1707 1.516 . S
N1706 C1701 1.330 . S
N1706 C1705 1.325 . S
N1706 Co1722 1.869 . S
C1707 C1705 1.516 . S
C1707 N1731 1.316 . S
C1707 O1754 1.263 . S
C1708 C1709 1.421 . S
C1708 C1713 1.360 . S
C1708 N1731 1.436 . S
C1709 C1708 1.421 . S
C1709 C1710 1.379 . S
C1709 H1767 0.929 . S
C1710 C1709 1.379 . S
C1710 C1711 1.417 . S
C1711 C1710 1.417 . S
C1711 C1712 1.352 . S
C1711 H1768 0.929 . S
C1712 C1711 1.352 . S
C1712 C1713 1.393 . S
C1713 C1708 1.360 . S
C1713 C1712 1.393 . S
C1713 H1769 0.931 . S
Cd1714 O1734 2.329 . S
Cd1714 O1736 2.350 . S
Cd1714 O1737 2.277 . S
Cd1714 O1739 2.173 . S
Cd1714 O1743 2.263 . S
Cd1714 O1754 2.366 . S
Cd1715 O1733 2.352 . S
Cd1715 O1740 2.250 . S
Cd1715 O1744 2.308 . S
C1716 C1720 1.403 . S
C1716 C1721 1.370 . S
C1716 N1732 1.423 . S
C1717 C1718 1.389 . S
C1717 C1721 1.389 . S
C1718 C1717 1.389 . S
C1718 C1719 1.379 . S
C1718 H1770 0.929 . S
C1719 C1718 1.379 . S
C1719 C1720 1.405 . S
C1720 C1716 1.403 . S
C1720 C1719 1.405 . S
C1720 H1771 0.932 . S
C1721 C1716 1.370 . S
C1721 C1717 1.389 . S
C1721 H1772 0.931 . S
Co1722 N1706 1.869 . S
Co1722 N1723 1.955 . S
Co1722 N1724 1.864 . S
Co1722 N1730 1.958 . S
Co1722 N1731 1.953 . S
Co1722 N1732 1.974 . S
N1723 Co1722 1.955 . S
N1723 C1741 1.329 . S
N1723 C1756 1.432 . S
N1724 Co1722 1.864 . S
N1724 C1725 1.327 . S
N1724 C1729 1.342 . S
C1725 N1724 1.327 . S
C1725 C1726 1.407 . S
C1725 C1741 1.481 . S
C1726 C1725 1.407 . S
C1726 C1727 1.364 . S
C1726 H1773 0.930 . S
C1727 C1726 1.364 . S
C1727 C1728 1.390 . S
C1727 H1774 0.931 . S
C1728 C1727 1.390 . S
C1728 C1729 1.346 . S
C1728 H1775 0.930 . S
C1729 N1724 1.342 . S
C1729 C1728 1.346 . S
C1729 C1745 1.516 . S
N1730 Co1722 1.958 . S
N1730 C1745 1.324 . S
N1730 C1747 1.427 . S
N1731 C1707 1.316 . S
N1731 C1708 1.436 . S
N1731 Co1722 1.953 . S
N1732 C1716 1.423 . S
N1732 Co1722 1.974 . S
N1732 C1762 1.309 . S
O1733 Cd1715 2.352 . S
O1733 C1753 1.235 . S
O1734 Cd1714 2.329 . S
O1734 C1753 1.270 . S
C1735 O1736 1.270 . S
C1735 O1737 1.248 . S
O1736 Cd1714 2.350 . S
O1736 C1735 1.270 . S
O1737 Cd1714 2.277 . S
O1737 C1735 1.248 . S
C1738 O1739 1.277 . S
C1738 O1740 1.230 . S
O1739 Cd1714 2.173 . S
O1739 C1738 1.277 . S
O1740 Cd1715 2.250 . S
O1740 C1738 1.230 . S
C1741 N1723 1.329 . S
C1741 C1725 1.481 . S
C1741 O1742 1.246 . S
O1742 C1741 1.246 . S
O1743 Cd1714 2.263 . S
O1743 C1755 1.258 . S
O1744 Cd1715 2.308 . S
O1744 C1755 1.274 . S
C1745 C1729 1.516 . S
C1745 N1730 1.324 . S
C1745 O1746 1.238 . S
O1746 C1745 1.238 . S
C1747 N1730 1.427 . S
C1747 C1748 1.394 . S
C1747 C1752 1.395 . S
C1748 C1747 1.394 . S
C1748 C1749 1.380 . S
C1748 H1776 0.929 . S
C1749 C1748 1.380 . S
C1749 C1750 1.384 . S
C1749 C1755 1.495 . S
C1750 C1749 1.384 . S
C1750 C1751 1.382 . S
C1750 H1777 0.930 . S
C1751 C1750 1.382 . S
C1751 C1752 1.398 . S
C1752 C1747 1.395 . S
C1752 C1751 1.398 . S
C1752 H1778 0.930 . S
C1753 O1733 1.235 . S
C1753 O1734 1.270 . S
O1754 C1707 1.263 . S
O1754 Cd1714 2.366 . S
C1755 O1743 1.258 . S
C1755 O1744 1.274 . S
C1755 C1749 1.495 . S
C1756 N1723 1.432 . S
C1756 C1757 1.381 . S
C1756 C1761 1.385 . S
C1757 C1756 1.381 . S
C1757 C1758 1.371 . S
C1757 H1779 0.932 . S
C1758 C1757 1.371 . S
C1758 C1759 1.400 . S
C1759 C1758 1.400 . S
C1759 C1760 1.351 . S
C1759 H1780 0.930 . S
C1760 C1759 1.351 . S
C1760 C1761 1.388 . S
C1761 C1756 1.385 . S
C1761 C1760 1.388 . S
C1761 H1781 0.929 . S
C1762 C1701 1.504 . S
C1762 N1732 1.309 . S
C1762 O1763 1.258 . S
O1763 C1762 1.258 . S
H1764 C1702 0.929 . S
H1765 C1703 0.932 . S
H1766 C1704 0.931 . S
H1767 C1709 0.929 . S
H1768 C1711 0.929 . S
H1769 C1713 0.931 . S
H1770 C1718 0.929 . S
H1771 C1720 0.932 . S
H1772 C1721 0.931 . S
H1773 C1726 0.930 . S
H1774 C1727 0.931 . S
H1775 C1728 0.930 . S
H1776 C1748 0.929 . S
H1777 C1750 0.930 . S
H1778 C1752 0.930 . S
H1779 C1757 0.932 . S
H1780 C1759 0.930 . S
H1781 C1761 0.929 . S
C1782 C1783 1.359 . S
C1782 N1787 1.330 . S
C1782 C1843 1.504 . S
C1783 C1782 1.359 . S
C1783 C1784 1.366 . S
C1783 H1845 0.929 . S
C1784 C1783 1.366 . S
C1784 C1785 1.415 . S
C1784 H1846 0.932 . S
C1785 C1784 1.415 . S
C1785 C1786 1.366 . S
C1785 H1847 0.931 . S
C1786 C1785 1.366 . S
C1786 N1787 1.325 . S
C1786 C1788 1.516 . S
N1787 C1782 1.330 . S
N1787 C1786 1.325 . S
N1787 Co1803 1.869 . S
C1788 C1786 1.516 . S
C1788 N1812 1.316 . S
C1788 O1835 1.263 . S
C1789 C1790 1.421 . S
C1789 C1794 1.360 . S
C1789 N1812 1.436 . S
C1790 C1789 1.421 . S
C1790 C1791 1.379 . S
C1790 H1848 0.929 . S
C1791 C1790 1.379 . S
C1791 C1792 1.417 . S
C1792 C1791 1.417 . S
C1792 C1793 1.352 . S
C1792 H1849 0.929 . S
C1793 C1792 1.352 . S
C1793 C1794 1.393 . S
C1794 C1789 1.360 . S
C1794 C1793 1.393 . S
C1794 H1850 0.931 . S
Cd1795 O1815 2.329 . S
Cd1795 O1817 2.350 . S
Cd1795 O1818 2.277 . S
Cd1795 O1820 2.173 . S
Cd1795 O1824 2.263 . S
Cd1795 O1835 2.366 . S
Cd1796 O1814 2.352 . S
Cd1796 O1821 2.250 . S
Cd1796 O1825 2.308 . S
C1797 C1801 1.403 . S
C1797 C1802 1.370 . S
C1797 N1813 1.423 . S
C1798 C1799 1.389 . S
C1798 C1802 1.389 . S
C1799 C1798 1.389 . S
C1799 C1800 1.379 . S
C1799 H1851 0.929 . S
C1800 C1799 1.379 . S
C1800 C1801 1.405 . S
C1801 C1797 1.403 . S
C1801 C1800 1.405 . S
C1801 H1852 0.932 . S
C1802 C1797 1.370 . S
C1802 C1798 1.389 . S
C1802 H1853 0.931 . S
Co1803 N1787 1.869 . S
Co1803 N1804 1.955 . S
Co1803 N1805 1.864 . S
Co1803 N1811 1.958 . S
Co1803 N1812 1.953 . S
Co1803 N1813 1.974 . S
N1804 Co1803 1.955 . S
N1804 C1822 1.329 . S
N1804 C1837 1.432 . S
N1805 Co1803 1.864 . S
N1805 C1806 1.327 . S
N1805 C1810 1.342 . S
C1806 N1805 1.327 . S
C1806 C1807 1.407 . S
C1806 C1822 1.481 . S
C1807 C1806 1.407 . S
C1807 C1808 1.364 . S
C1807 H1854 0.930 . S
C1808 C1807 1.364 . S
C1808 C1809 1.390 . S
C1808 H1855 0.931 . S
C1809 C1808 1.390 . S
C1809 C1810 1.346 . S
C1809 H1856 0.930 . S
C1810 N1805 1.342 . S
C1810 C1809 1.346 . S
C1810 C1826 1.516 . S
N1811 Co1803 1.958 . S
N1811 C1826 1.324 . S
N1811 C1828 1.427 . S
N1812 C1788 1.316 . S
N1812 C1789 1.436 . S
N1812 Co1803 1.953 . S
N1813 C1797 1.423 . S
N1813 Co1803 1.974 . S
N1813 C1843 1.309 . S
O1814 Cd1796 2.352 . S
O1814 C1834 1.235 . S
O1815 Cd1795 2.329 . S
O1815 C1834 1.270 . S
C1816 O1817 1.270 . S
C1816 O1818 1.248 . S
O1817 Cd1795 2.350 . S
O1817 C1816 1.270 . S
O1818 Cd1795 2.277 . S
O1818 C1816 1.248 . S
C1819 O1820 1.277 . S
C1819 O1821 1.230 . S
O1820 Cd1795 2.173 . S
O1820 C1819 1.277 . S
O1821 Cd1796 2.250 . S
O1821 C1819 1.230 . S
C1822 N1804 1.329 . S
C1822 C1806 1.481 . S
C1822 O1823 1.246 . S
O1823 C1822 1.246 . S
O1824 Cd1795 2.263 . S
O1824 C1836 1.258 . S
O1825 Cd1796 2.308 . S
O1825 C1836 1.274 . S
C1826 C1810 1.516 . S
C1826 N1811 1.324 . S
C1826 O1827 1.238 . S
O1827 C1826 1.238 . S
C1828 N1811 1.427 . S
C1828 C1829 1.394 . S
C1828 C1833 1.395 . S
C1829 C1828 1.394 . S
C1829 C1830 1.380 . S
C1829 H1857 0.929 . S
C1830 C1829 1.380 . S
C1830 C1831 1.384 . S
C1830 C1836 1.495 . S
C1831 C1830 1.384 . S
C1831 C1832 1.382 . S
C1831 H1858 0.930 . S
C1832 C1831 1.382 . S
C1832 C1833 1.398 . S
C1833 C1828 1.395 . S
C1833 C1832 1.398 . S
C1833 H1859 0.930 . S
C1834 O1814 1.235 . S
C1834 O1815 1.270 . S
O1835 C1788 1.263 . S
O1835 Cd1795 2.366 . S
C1836 O1824 1.258 . S
C1836 O1825 1.274 . S
C1836 C1830 1.495 . S
C1837 N1804 1.432 . S
C1837 C1838 1.381 . S
C1837 C1842 1.385 . S
C1838 C1837 1.381 . S
C1838 C1839 1.371 . S
C1838 H1860 0.932 . S
C1839 C1838 1.371 . S
C1839 C1840 1.400 . S
C1840 C1839 1.400 . S
C1840 C1841 1.351 . S
C1840 H1861 0.930 . S
C1841 C1840 1.351 . S
C1841 C1842 1.388 . S
C1842 C1837 1.385 . S
C1842 C1841 1.388 . S
C1842 H1862 0.929 . S
C1843 C1782 1.504 . S
C1843 N1813 1.309 . S
C1843 O1844 1.258 . S
O1844 C1843 1.258 . S
H1845 C1783 0.929 . S
H1846 C1784 0.932 . S
H1847 C1785 0.931 . S
H1848 C1790 0.929 . S
H1849 C1792 0.929 . S
H1850 C1794 0.931 . S
H1851 C1799 0.929 . S
H1852 C1801 0.932 . S
H1853 C1802 0.931 . S
H1854 C1807 0.930 . S
H1855 C1808 0.931 . S
H1856 C1809 0.930 . S
H1857 C1829 0.929 . S
H1858 C1831 0.930 . S
H1859 C1833 0.930 . S
H1860 C1838 0.932 . S
H1861 C1840 0.930 . S
H1862 C1842 0.929 . S
C1863 C1864 1.359 . S
C1863 N1868 1.330 . S
C1863 C1924 1.504 . S
C1864 C1863 1.359 . S
C1864 C1865 1.366 . S
C1864 H1926 0.929 . S
C1865 C1864 1.366 . S
C1865 C1866 1.415 . S
C1865 H1927 0.932 . S
C1866 C1865 1.415 . S
C1866 C1867 1.366 . S
C1866 H1928 0.931 . S
C1867 C1866 1.366 . S
C1867 N1868 1.325 . S
C1867 C1869 1.516 . S
N1868 C1863 1.330 . S
N1868 C1867 1.325 . S
N1868 Co1884 1.869 . S
C1869 C1867 1.516 . S
C1869 N1893 1.316 . S
C1869 O1916 1.263 . S
C1870 C1871 1.421 . S
C1870 C1875 1.360 . S
C1870 N1893 1.436 . S
C1871 C1870 1.421 . S
C1871 C1872 1.379 . S
C1871 H1929 0.929 . S
C1872 C1871 1.379 . S
C1872 C1873 1.417 . S
C1873 C1872 1.417 . S
C1873 C1874 1.352 . S
C1873 H1930 0.929 . S
C1874 C1873 1.352 . S
C1874 C1875 1.393 . S
C1875 C1870 1.360 . S
C1875 C1874 1.393 . S
C1875 H1931 0.931 . S
Cd1876 O1896 2.329 . S
Cd1876 O1898 2.350 . S
Cd1876 O1899 2.277 . S
Cd1876 O1901 2.173 . S
Cd1876 O1905 2.263 . S
Cd1876 O1916 2.366 . S
Cd1877 O1895 2.352 . S
Cd1877 O1902 2.250 . S
Cd1877 O1906 2.308 . S
C1878 C1882 1.403 . S
C1878 C1883 1.370 . S
C1878 N1894 1.423 . S
C1879 C1880 1.389 . S
C1879 C1883 1.389 . S
C1880 C1879 1.389 . S
C1880 C1881 1.379 . S
C1880 H1932 0.929 . S
C1881 C1880 1.379 . S
C1881 C1882 1.405 . S
C1882 C1878 1.403 . S
C1882 C1881 1.405 . S
C1882 H1933 0.932 . S
C1883 C1878 1.370 . S
C1883 C1879 1.389 . S
C1883 H1934 0.931 . S
Co1884 N1868 1.869 . S
Co1884 N1885 1.955 . S
Co1884 N1886 1.864 . S
Co1884 N1892 1.958 . S
Co1884 N1893 1.953 . S
Co1884 N1894 1.974 . S
N1885 Co1884 1.955 . S
N1885 C1903 1.329 . S
N1885 C1918 1.432 . S
N1886 Co1884 1.864 . S
N1886 C1887 1.327 . S
N1886 C1891 1.342 . S
C1887 N1886 1.327 . S
C1887 C1888 1.407 . S
C1887 C1903 1.481 . S
C1888 C1887 1.407 . S
C1888 C1889 1.364 . S
C1888 H1935 0.930 . S
C1889 C1888 1.364 . S
C1889 C1890 1.390 . S
C1889 H1936 0.931 . S
C1890 C1889 1.390 . S
C1890 C1891 1.346 . S
C1890 H1937 0.930 . S
C1891 N1886 1.342 . S
C1891 C1890 1.346 . S
C1891 C1907 1.516 . S
N1892 Co1884 1.958 . S
N1892 C1907 1.324 . S
N1892 C1909 1.427 . S
N1893 C1869 1.316 . S
N1893 C1870 1.436 . S
N1893 Co1884 1.953 . S
N1894 C1878 1.423 . S
N1894 Co1884 1.974 . S
N1894 C1924 1.309 . S
O1895 Cd1877 2.352 . S
O1895 C1915 1.235 . S
O1896 Cd1876 2.329 . S
O1896 C1915 1.270 . S
C1897 O1898 1.270 . S
C1897 O1899 1.248 . S
O1898 Cd1876 2.350 . S
O1898 C1897 1.270 . S
O1899 Cd1876 2.277 . S
O1899 C1897 1.248 . S
C1900 O1901 1.277 . S
C1900 O1902 1.230 . S
O1901 Cd1876 2.173 . S
O1901 C1900 1.277 . S
O1902 Cd1877 2.250 . S
O1902 C1900 1.230 . S
C1903 N1885 1.329 . S
C1903 C1887 1.481 . S
C1903 O1904 1.246 . S
O1904 C1903 1.246 . S
O1905 Cd1876 2.263 . S
O1905 C1917 1.258 . S
O1906 Cd1877 2.308 . S
O1906 C1917 1.274 . S
C1907 C1891 1.516 . S
C1907 N1892 1.324 . S
C1907 O1908 1.238 . S
O1908 C1907 1.238 . S
C1909 N1892 1.427 . S
C1909 C1910 1.394 . S
C1909 C1914 1.395 . S
C1910 C1909 1.394 . S
C1910 C1911 1.380 . S
C1910 H1938 0.929 . S
C1911 C1910 1.380 . S
C1911 C1912 1.384 . S
C1911 C1917 1.495 . S
C1912 C1911 1.384 . S
C1912 C1913 1.382 . S
C1912 H1939 0.930 . S
C1913 C1912 1.382 . S
C1913 C1914 1.398 . S
C1914 C1909 1.395 . S
C1914 C1913 1.398 . S
C1914 H1940 0.930 . S
C1915 O1895 1.235 . S
C1915 O1896 1.270 . S
O1916 C1869 1.263 . S
O1916 Cd1876 2.366 . S
C1917 O1905 1.258 . S
C1917 O1906 1.274 . S
C1917 C1911 1.495 . S
C1918 N1885 1.432 . S
C1918 C1919 1.381 . S
C1918 C1923 1.385 . S
C1919 C1918 1.381 . S
C1919 C1920 1.371 . S
C1919 H1941 0.932 . S
C1920 C1919 1.371 . S
C1920 C1921 1.400 . S
C1921 C1920 1.400 . S
C1921 C1922 1.351 . S
C1921 H1942 0.930 . S
C1922 C1921 1.351 . S
C1922 C1923 1.388 . S
C1923 C1918 1.385 . S
C1923 C1922 1.388 . S
C1923 H1943 0.929 . S
C1924 C1863 1.504 . S
C1924 N1894 1.309 . S
C1924 O1925 1.258 . S
O1925 C1924 1.258 . S
H1926 C1864 0.929 . S
H1927 C1865 0.932 . S
H1928 C1866 0.931 . S
H1929 C1871 0.929 . S
H1930 C1873 0.929 . S
H1931 C1875 0.931 . S
H1932 C1880 0.929 . S
H1933 C1882 0.932 . S
H1934 C1883 0.931 . S
H1935 C1888 0.930 . S
H1936 C1889 0.931 . S
H1937 C1890 0.930 . S
H1938 C1910 0.929 . S
H1939 C1912 0.930 . S
H1940 C1914 0.930 . S
H1941 C1919 0.932 . S
H1942 C1921 0.930 . S
H1943 C1923 0.929 . S
C1944 C1945 1.387 . S
C1944 H1948 0.950 . S
C1944 C1953 1.390 . S
C1945 C1944 1.387 . S
C1945 C1947 1.387 . S
H1946 C1953 0.950 . S
C1947 C1945 1.387 . S
C1947 C1949 1.390 . S
C1947 H1951 0.950 . S
H1948 C1944 0.950 . S
C1949 C1947 1.390 . S
C1949 C1950 1.387 . S
C1949 H1952 0.950 . S
C1950 C1949 1.387 . S
C1950 C1953 1.387 . S
H1951 C1947 0.950 . S
H1952 C1949 0.950 . S
C1953 C1944 1.390 . S
C1953 H1946 0.950 . S
C1953 C1950 1.387 . S
C1954 C1955 1.387 . S
C1954 H1958 0.950 . S
C1954 C1963 1.390 . S
C1955 C1954 1.387 . S
C1955 C1957 1.387 . S
H1956 C1963 0.950 . S
C1957 C1955 1.387 . S
C1957 C1959 1.390 . S
C1957 H1961 0.950 . S
H1958 C1954 0.950 . S
C1959 C1957 1.390 . S
C1959 C1960 1.387 . S
C1959 H1962 0.950 . S
C1960 C1959 1.387 . S
C1960 C1963 1.387 . S
H1961 C1957 0.950 . S
H1962 C1959 0.950 . S
C1963 C1954 1.390 . S
C1963 H1956 0.950 . S
C1963 C1960 1.387 . S
C1964 C1965 1.387 . S
C1964 H1968 0.950 . S
C1964 C1973 1.390 . S
C1965 C1964 1.387 . S
C1965 C1967 1.387 . S
H1966 C1973 0.950 . S
C1967 C1965 1.387 . S
C1967 C1969 1.390 . S
C1967 H1971 0.950 . S
H1968 C1964 0.950 . S
C1969 C1967 1.390 . S
C1969 C1970 1.387 . S
C1969 H1972 0.950 . S
C1970 C1969 1.387 . S
C1970 C1973 1.387 . S
H1971 C1967 0.950 . S
H1972 C1969 0.950 . S
C1973 C1964 1.390 . S
C1973 H1966 0.950 . S
C1973 C1970 1.387 . S
C1974 C1975 1.387 . S
C1974 H1978 0.950 . S
C1974 C1983 1.390 . S
C1975 C1974 1.387 . S
C1975 C1977 1.387 . S
H1976 C1983 0.950 . S
C1977 C1975 1.387 . S
C1977 C1979 1.390 . S
C1977 H1981 0.950 . S
H1978 C1974 0.950 . S
C1979 C1977 1.390 . S
C1979 C1980 1.387 . S
C1979 H1982 0.950 . S
C1980 C1979 1.387 . S
C1980 C1983 1.387 . S
H1981 C1977 0.950 . S
H1982 C1979 0.950 . S
C1983 C1974 1.390 . S
C1983 H1976 0.950 . S
C1983 C1980 1.387 . S
C1984 C1985 1.387 . S
C1984 H1988 0.950 . S
C1984 C1993 1.390 . S
C1985 C1984 1.387 . S
C1985 C1987 1.387 . S
H1986 C1993 0.950 . S
C1987 C1985 1.387 . S
C1987 C1989 1.390 . S
C1987 H1991 0.950 . S
H1988 C1984 0.950 . S
C1989 C1987 1.390 . S
C1989 C1990 1.387 . S
C1989 H1992 0.950 . S
C1990 C1989 1.387 . S
C1990 C1993 1.387 . S
H1991 C1987 0.950 . S
H1992 C1989 0.950 . S
C1993 C1984 1.390 . S
C1993 H1986 0.950 . S
C1993 C1990 1.387 . S
C1994 C1995 1.387 . S
C1994 H1998 0.950 . S
C1994 C2003 1.390 . S
C1995 C1994 1.387 . S
C1995 C1997 1.387 . S
H1996 C2003 0.950 . S
C1997 C1995 1.387 . S
C1997 C1999 1.390 . S
C1997 H2001 0.950 . S
H1998 C1994 0.950 . S
C1999 C1997 1.390 . S
C1999 C2000 1.387 . S
C1999 H2002 0.950 . S
C2000 C1999 1.387 . S
C2000 C2003 1.387 . S
H2001 C1997 0.950 . S
H2002 C1999 0.950 . S
C2003 C1994 1.390 . S
C2003 H1996 0.950 . S
C2003 C2000 1.387 . S
C2004 C2005 1.387 . S
C2004 H2008 0.950 . S
C2004 C2013 1.390 . S
C2005 C2004 1.387 . S
C2005 C2007 1.387 . S
H2006 C2013 0.950 . S
C2007 C2005 1.387 . S
C2007 C2009 1.390 . S
C2007 H2011 0.950 . S
H2008 C2004 0.950 . S
C2009 C2007 1.390 . S
C2009 C2010 1.387 . S
C2009 H2012 0.950 . S
C2010 C2009 1.387 . S
C2010 C2013 1.387 . S
H2011 C2007 0.950 . S
H2012 C2009 0.950 . S
C2013 C2004 1.390 . S
C2013 H2006 0.950 . S
C2013 C2010 1.387 . S
C2014 C2015 1.387 . S
C2014 H2018 0.950 . S
C2014 C2023 1.390 . S
C2015 C2014 1.387 . S
C2015 C2017 1.387 . S
H2016 C2023 0.950 . S
C2017 C2015 1.387 . S
C2017 C2019 1.390 . S
C2017 H2021 0.950 . S
H2018 C2014 0.950 . S
C2019 C2017 1.390 . S
C2019 C2020 1.387 . S
C2019 H2022 0.950 . S
C2020 C2019 1.387 . S
C2020 C2023 1.387 . S
H2021 C2017 0.950 . S
H2022 C2019 0.950 . S
C2023 C2014 1.390 . S
C2023 H2016 0.950 . S
C2023 C2020 1.387 . S
C2024 C2025 1.387 . S
C2024 H2028 0.950 . S
C2024 C2033 1.390 . S
C2025 C2024 1.387 . S
C2025 C2027 1.387 . S
H2026 C2033 0.950 . S
C2027 C2025 1.387 . S
C2027 C2029 1.390 . S
C2027 H2031 0.950 . S
H2028 C2024 0.950 . S
C2029 C2027 1.390 . S
C2029 C2030 1.387 . S
C2029 H2032 0.950 . S
C2030 C2029 1.387 . S
C2030 C2033 1.387 . S
H2031 C2027 0.950 . S
H2032 C2029 0.950 . S
C2033 C2024 1.390 . S
C2033 H2026 0.950 . S
C2033 C2030 1.387 . S
C2034 C2035 1.387 . S
C2034 H2038 0.950 . S
C2034 C2043 1.390 . S
C2035 C2034 1.387 . S
C2035 C2037 1.387 . S
H2036 C2043 0.950 . S
C2037 C2035 1.387 . S
C2037 C2039 1.390 . S
C2037 H2041 0.950 . S
H2038 C2034 0.950 . S
C2039 C2037 1.390 . S
C2039 C2040 1.387 . S
C2039 H2042 0.950 . S
C2040 C2039 1.387 . S
C2040 C2043 1.387 . S
H2041 C2037 0.950 . S
H2042 C2039 0.950 . S
C2043 C2034 1.390 . S
C2043 H2036 0.950 . S
C2043 C2040 1.387 . S
C2044 C2045 1.387 . S
C2044 H2048 0.950 . S
C2044 C2053 1.390 . S
C2045 C2044 1.387 . S
C2045 C2047 1.387 . S
H2046 C2053 0.950 . S
C2047 C2045 1.387 . S
C2047 C2049 1.390 . S
C2047 H2051 0.950 . S
H2048 C2044 0.950 . S
C2049 C2047 1.390 . S
C2049 C2050 1.387 . S
C2049 H2052 0.950 . S
C2050 C2049 1.387 . S
C2050 C2053 1.387 . S
H2051 C2047 0.950 . S
H2052 C2049 0.950 . S
C2053 C2044 1.390 . S
C2053 H2046 0.950 . S
C2053 C2050 1.387 . S
C2054 C2055 1.387 . S
C2054 H2058 0.950 . S
C2054 C2063 1.390 . S
C2055 C2054 1.387 . S
C2055 C2057 1.387 . S
H2056 C2063 0.950 . S
C2057 C2055 1.387 . S
C2057 C2059 1.390 . S
C2057 H2061 0.950 . S
H2058 C2054 0.950 . S
C2059 C2057 1.390 . S
C2059 C2060 1.387 . S
C2059 H2062 0.950 . S
C2060 C2059 1.387 . S
C2060 C2063 1.387 . S
H2061 C2057 0.950 . S
H2062 C2059 0.950 . S
C2063 C2054 1.390 . S
C2063 H2056 0.950 . S
C2063 C2060 1.387 . S
C2064 C2065 1.387 . S
C2064 H2068 0.950 . S
C2064 C2073 1.390 . S
C2065 C2064 1.387 . S
C2065 C2067 1.387 . S
H2066 C2073 0.950 . S
C2067 C2065 1.387 . S
C2067 C2069 1.390 . S
C2067 H2071 0.950 . S
H2068 C2064 0.950 . S
C2069 C2067 1.390 . S
C2069 C2070 1.387 . S
C2069 H2072 0.950 . S
C2070 C2069 1.387 . S
C2070 C2073 1.387 . S
H2071 C2067 0.950 . S
H2072 C2069 0.950 . S
C2073 C2064 1.390 . S
C2073 H2066 0.950 . S
C2073 C2070 1.387 . S
C2074 C2075 1.387 . S
C2074 H2078 0.950 . S
C2074 C2083 1.390 . S
C2075 C2074 1.387 . S
C2075 C2077 1.387 . S
H2076 C2083 0.950 . S
C2077 C2075 1.387 . S
C2077 C2079 1.390 . S
C2077 H2081 0.950 . S
H2078 C2074 0.950 . S
C2079 C2077 1.390 . S
C2079 C2080 1.387 . S
C2079 H2082 0.950 . S
C2080 C2079 1.387 . S
C2080 C2083 1.387 . S
H2081 C2077 0.950 . S
H2082 C2079 0.950 . S
C2083 C2074 1.390 . S
C2083 H2076 0.950 . S
C2083 C2080 1.387 . S
C2084 C2085 1.387 . S
C2084 H2088 0.950 . S
C2084 C2093 1.390 . S
C2085 C2084 1.387 . S
C2085 C2087 1.387 . S
H2086 C2093 0.950 . S
C2087 C2085 1.387 . S
C2087 C2089 1.390 . S
C2087 H2091 0.950 . S
H2088 C2084 0.950 . S
C2089 C2087 1.390 . S
C2089 C2090 1.387 . S
C2089 H2092 0.950 . S
C2090 C2089 1.387 . S
C2090 C2093 1.387 . S
H2091 C2087 0.950 . S
H2092 C2089 0.950 . S
C2093 C2084 1.390 . S
C2093 H2086 0.950 . S
C2093 C2090 1.387 . S
C2094 C2095 1.387 . S
C2094 H2098 0.950 . S
C2094 C2103 1.390 . S
C2095 C2094 1.387 . S
C2095 C2097 1.387 . S
H2096 C2103 0.950 . S
C2097 C2095 1.387 . S
C2097 C2099 1.390 . S
C2097 H2101 0.950 . S
H2098 C2094 0.950 . S
C2099 C2097 1.390 . S
C2099 C2100 1.387 . S
C2099 H2102 0.950 . S
C2100 C2099 1.387 . S
C2100 C2103 1.387 . S
H2101 C2097 0.950 . S
H2102 C2099 0.950 . S
C2103 C2094 1.390 . S
C2103 H2096 0.950 . S
C2103 C2100 1.387 . S
C2104 C2105 1.387 . S
C2104 H2108 0.950 . S
C2104 C2113 1.390 . S
C2105 C2104 1.387 . S
C2105 C2107 1.387 . S
H2106 C2113 0.950 . S
C2107 C2105 1.387 . S
C2107 C2109 1.390 . S
C2107 H2111 0.950 . S
H2108 C2104 0.950 . S
C2109 C2107 1.390 . S
C2109 C2110 1.387 . S
C2109 H2112 0.950 . S
C2110 C2109 1.387 . S
C2110 C2113 1.387 . S
H2111 C2107 0.950 . S
H2112 C2109 0.950 . S
C2113 C2104 1.390 . S
C2113 H2106 0.950 . S
C2113 C2110 1.387 . S
C2114 C2115 1.387 . S
C2114 H2118 0.950 . S
C2114 C2123 1.390 . S
C2115 C2114 1.387 . S
C2115 C2117 1.387 . S
H2116 C2123 0.950 . S
C2117 C2115 1.387 . S
C2117 C2119 1.390 . S
C2117 H2121 0.950 . S
H2118 C2114 0.950 . S
C2119 C2117 1.390 . S
C2119 C2120 1.387 . S
C2119 H2122 0.950 . S
C2120 C2119 1.387 . S
C2120 C2123 1.387 . S
H2121 C2117 0.950 . S
H2122 C2119 0.950 . S
C2123 C2114 1.390 . S
C2123 H2116 0.950 . S
C2123 C2120 1.387 . S
C2124 C2125 1.387 . S
C2124 H2128 0.950 . S
C2124 C2133 1.390 . S
C2125 C2124 1.387 . S
C2125 C2127 1.387 . S
H2126 C2133 0.950 . S
C2127 C2125 1.387 . S
C2127 C2129 1.390 . S
C2127 H2131 0.950 . S
H2128 C2124 0.950 . S
C2129 C2127 1.390 . S
C2129 C2130 1.387 . S
C2129 H2132 0.950 . S
C2130 C2129 1.387 . S
C2130 C2133 1.387 . S
H2131 C2127 0.950 . S
H2132 C2129 0.950 . S
C2133 C2124 1.390 . S
C2133 H2126 0.950 . S
C2133 C2130 1.387 . S
C2134 C2135 1.387 . S
C2134 H2138 0.950 . S
C2134 C2143 1.390 . S
C2135 C2134 1.387 . S
C2135 C2137 1.387 . S
H2136 C2143 0.950 . S
C2137 C2135 1.387 . S
C2137 C2139 1.390 . S
C2137 H2141 0.950 . S
H2138 C2134 0.950 . S
C2139 C2137 1.390 . S
C2139 C2140 1.387 . S
C2139 H2142 0.950 . S
C2140 C2139 1.387 . S
C2140 C2143 1.387 . S
H2141 C2137 0.950 . S
H2142 C2139 0.950 . S
C2143 C2134 1.390 . S
C2143 H2136 0.950 . S
C2143 C2140 1.387 . S
C2144 C2145 1.387 . S
C2144 H2148 0.950 . S
C2144 C2153 1.390 . S
C2145 C2144 1.387 . S
C2145 C2147 1.387 . S
H2146 C2153 0.950 . S
C2147 C2145 1.387 . S
C2147 C2149 1.390 . S
C2147 H2151 0.950 . S
H2148 C2144 0.950 . S
C2149 C2147 1.390 . S
C2149 C2150 1.387 . S
C2149 H2152 0.950 . S
C2150 C2149 1.387 . S
C2150 C2153 1.387 . S
H2151 C2147 0.950 . S
H2152 C2149 0.950 . S
C2153 C2144 1.390 . S
C2153 H2146 0.950 . S
C2153 C2150 1.387 . S
C2154 C2155 1.387 . S
C2154 H2158 0.950 . S
C2154 C2163 1.390 . S
C2155 C2154 1.387 . S
C2155 C2157 1.387 . S
H2156 C2163 0.950 . S
C2157 C2155 1.387 . S
C2157 C2159 1.390 . S
C2157 H2161 0.950 . S
H2158 C2154 0.950 . S
C2159 C2157 1.390 . S
C2159 C2160 1.387 . S
C2159 H2162 0.950 . S
C2160 C2159 1.387 . S
C2160 C2163 1.387 . S
H2161 C2157 0.950 . S
H2162 C2159 0.950 . S
C2163 C2154 1.390 . S
C2163 H2156 0.950 . S
C2163 C2160 1.387 . S
C2164 C2165 1.387 . S
C2164 H2168 0.950 . S
C2164 C2173 1.390 . S
C2165 C2164 1.387 . S
C2165 C2167 1.387 . S
H2166 C2173 0.950 . S
C2167 C2165 1.387 . S
C2167 C2169 1.390 . S
C2167 H2171 0.950 . S
H2168 C2164 0.950 . S
C2169 C2167 1.390 . S
C2169 C2170 1.387 . S
C2169 H2172 0.950 . S
C2170 C2169 1.387 . S
C2170 C2173 1.387 . S
H2171 C2167 0.950 . S
H2172 C2169 0.950 . S
C2173 C2164 1.390 . S
C2173 H2166 0.950 . S
C2173 C2170 1.387 . S
C2174 C2175 1.387 . S
C2174 H2178 0.950 . S
C2174 C2183 1.390 . S
C2175 C2174 1.387 . S
C2175 C2177 1.387 . S
H2176 C2183 0.950 . S
C2177 C2175 1.387 . S
C2177 C2179 1.390 . S
C2177 H2181 0.950 . S
H2178 C2174 0.950 . S
C2179 C2177 1.390 . S
C2179 C2180 1.387 . S
C2179 H2182 0.950 . S
C2180 C2179 1.387 . S
C2180 C2183 1.387 . S
H2181 C2177 0.950 . S
H2182 C2179 0.950 . S
C2183 C2174 1.390 . S
C2183 H2176 0.950 . S
C2183 C2180 1.387 . S
C2184 C2185 1.387 . S
C2184 H2188 0.950 . S
C2184 C2193 1.390 . S
C2185 C2184 1.387 . S
C2185 C2187 1.387 . S
H2186 C2193 0.950 . S
C2187 C2185 1.387 . S
C2187 C2189 1.390 . S
C2187 H2191 0.950 . S
H2188 C2184 0.950 . S
C2189 C2187 1.390 . S
C2189 C2190 1.387 . S
C2189 H2192 0.950 . S
C2190 C2189 1.387 . S
C2190 C2193 1.387 . S
H2191 C2187 0.950 . S
H2192 C2189 0.950 . S
C2193 C2184 1.390 . S
C2193 H2186 0.950 . S
C2193 C2190 1.387 . S
C2194 C2195 1.387 . S
C2194 H2198 0.950 . S
C2194 C2203 1.390 . S
C2195 C2194 1.387 . S
C2195 C2197 1.387 . S
H2196 C2203 0.950 . S
C2197 C2195 1.387 . S
C2197 C2199 1.390 . S
C2197 H2201 0.950 . S
H2198 C2194 0.950 . S
C2199 C2197 1.390 . S
C2199 C2200 1.387 . S
C2199 H2202 0.950 . S
C2200 C2199 1.387 . S
C2200 C2203 1.387 . S
H2201 C2197 0.950 . S
H2202 C2199 0.950 . S
C2203 C2194 1.390 . S
C2203 H2196 0.950 . S
C2203 C2200 1.387 . S
C2204 C2205 1.387 . S
C2204 H2208 0.950 . S
C2204 C2213 1.390 . S
C2205 C2204 1.387 . S
C2205 C2207 1.387 . S
H2206 C2213 0.950 . S
C2207 C2205 1.387 . S
C2207 C2209 1.390 . S
C2207 H2211 0.950 . S
H2208 C2204 0.950 . S
C2209 C2207 1.390 . S
C2209 C2210 1.387 . S
C2209 H2212 0.950 . S
C2210 C2209 1.387 . S
C2210 C2213 1.387 . S
H2211 C2207 0.950 . S
H2212 C2209 0.950 . S
C2213 C2204 1.390 . S
C2213 H2206 0.950 . S
C2213 C2210 1.387 . S
C2214 C2215 1.387 . S
C2214 H2218 0.950 . S
C2214 C2223 1.390 . S
C2215 C2214 1.387 . S
C2215 C2217 1.387 . S
H2216 C2223 0.950 . S
C2217 C2215 1.387 . S
C2217 C2219 1.390 . S
C2217 H2221 0.950 . S
H2218 C2214 0.950 . S
C2219 C2217 1.390 . S
C2219 C2220 1.387 . S
C2219 H2222 0.950 . S
C2220 C2219 1.387 . S
C2220 C2223 1.387 . S
H2221 C2217 0.950 . S
H2222 C2219 0.950 . S
C2223 C2214 1.390 . S
C2223 H2216 0.950 . S
C2223 C2220 1.387 . S
C2224 C2225 1.387 . S
C2224 H2228 0.950 . S
C2224 C2233 1.390 . S
C2225 C2224 1.387 . S
C2225 C2227 1.387 . S
H2226 C2233 0.950 . S
C2227 C2225 1.387 . S
C2227 C2229 1.390 . S
C2227 H2231 0.950 . S
H2228 C2224 0.950 . S
C2229 C2227 1.390 . S
C2229 C2230 1.387 . S
C2229 H2232 0.950 . S
C2230 C2229 1.387 . S
C2230 C2233 1.387 . S
H2231 C2227 0.950 . S
H2232 C2229 0.950 . S
C2233 C2224 1.390 . S
C2233 H2226 0.950 . S
C2233 C2230 1.387 . S
C2234 C2235 1.387 . S
C2234 H2238 0.950 . S
C2234 C2243 1.390 . S
C2235 C2234 1.387 . S
C2235 C2237 1.387 . S
H2236 C2243 0.950 . S
C2237 C2235 1.387 . S
C2237 C2239 1.390 . S
C2237 H2241 0.950 . S
H2238 C2234 0.950 . S
C2239 C2237 1.390 . S
C2239 C2240 1.387 . S
C2239 H2242 0.950 . S
C2240 C2239 1.387 . S
C2240 C2243 1.387 . S
H2241 C2237 0.950 . S
H2242 C2239 0.950 . S
C2243 C2234 1.390 . S
C2243 H2236 0.950 . S
C2243 C2240 1.387 . S
C2244 C2245 1.387 . S
C2244 H2248 0.950 . S
C2244 C2253 1.390 . S
C2245 C2244 1.387 . S
C2245 C2247 1.387 . S
H2246 C2253 0.950 . S
C2247 C2245 1.387 . S
C2247 C2249 1.390 . S
C2247 H2251 0.950 . S
H2248 C2244 0.950 . S
C2249 C2247 1.390 . S
C2249 C2250 1.387 . S
C2249 H2252 0.950 . S
C2250 C2249 1.387 . S
C2250 C2253 1.387 . S
H2251 C2247 0.950 . S
H2252 C2249 0.950 . S
C2253 C2244 1.390 . S
C2253 H2246 0.950 . S
C2253 C2250 1.387 . S
C2254 C2255 1.387 . S
C2254 H2258 0.950 . S
C2254 C2263 1.390 . S
C2255 C2254 1.387 . S
C2255 C2257 1.387 . S
H2256 C2263 0.950 . S
C2257 C2255 1.387 . S
C2257 C2259 1.390 . S
C2257 H2261 0.950 . S
H2258 C2254 0.950 . S
C2259 C2257 1.390 . S
C2259 C2260 1.387 . S
C2259 H2262 0.950 . S
C2260 C2259 1.387 . S
C2260 C2263 1.387 . S
H2261 C2257 0.950 . S
H2262 C2259 0.950 . S
C2263 C2254 1.390 . S
C2263 H2256 0.950 . S
C2263 C2260 1.387 . S
C2264 C2265 1.387 . S
C2264 H2268 0.950 . S
C2264 C2273 1.390 . S
C2265 C2264 1.387 . S
C2265 C2267 1.387 . S
H2266 C2273 0.950 . S
C2267 C2265 1.387 . S
C2267 C2269 1.390 . S
C2267 H2271 0.950 . S
H2268 C2264 0.950 . S
C2269 C2267 1.390 . S
C2269 C2270 1.387 . S
C2269 H2272 0.950 . S
C2270 C2269 1.387 . S
C2270 C2273 1.387 . S
H2271 C2267 0.950 . S
H2272 C2269 0.950 . S
C2273 C2264 1.390 . S
C2273 H2266 0.950 . S
C2273 C2270 1.387 . S
C2274 C2275 1.387 . S
C2274 H2278 0.950 . S
C2274 C2283 1.390 . S
C2275 C2274 1.387 . S
C2275 C2277 1.387 . S
H2276 C2283 0.950 . S
C2277 C2275 1.387 . S
C2277 C2279 1.390 . S
C2277 H2281 0.950 . S
H2278 C2274 0.950 . S
C2279 C2277 1.390 . S
C2279 C2280 1.387 . S
C2279 H2282 0.950 . S
C2280 C2279 1.387 . S
C2280 C2283 1.387 . S
H2281 C2277 0.950 . S
H2282 C2279 0.950 . S
C2283 C2274 1.390 . S
C2283 H2276 0.950 . S
C2283 C2280 1.387 . S
C2284 C2285 1.387 . S
C2284 H2288 0.950 . S
C2284 C2293 1.390 . S
C2285 C2284 1.387 . S
C2285 C2287 1.387 . S
H2286 C2293 0.950 . S
C2287 C2285 1.387 . S
C2287 C2289 1.390 . S
C2287 H2291 0.950 . S
H2288 C2284 0.950 . S
C2289 C2287 1.390 . S
C2289 C2290 1.387 . S
C2289 H2292 0.950 . S
C2290 C2289 1.387 . S
C2290 C2293 1.387 . S
H2291 C2287 0.950 . S
H2292 C2289 0.950 . S
C2293 C2284 1.390 . S
C2293 H2286 0.950 . S
C2293 C2290 1.387 . S
C2294 C2295 1.387 . S
C2294 H2298 0.950 . S
C2294 C2303 1.390 . S
C2295 C2294 1.387 . S
C2295 C2297 1.387 . S
H2296 C2303 0.950 . S
C2297 C2295 1.387 . S
C2297 C2299 1.390 . S
C2297 H2301 0.950 . S
H2298 C2294 0.950 . S
C2299 C2297 1.390 . S
C2299 C2300 1.387 . S
C2299 H2302 0.950 . S
C2300 C2299 1.387 . S
C2300 C2303 1.387 . S
H2301 C2297 0.950 . S
H2302 C2299 0.950 . S
C2303 C2294 1.390 . S
C2303 H2296 0.950 . S
C2303 C2300 1.387 . S
C2304 C2305 1.387 . S
C2304 H2308 0.950 . S
C2304 C2313 1.390 1_655 S
C2305 C2304 1.387 . S
C2305 C2307 1.387 . S
H2306 C2313 0.950 . S
C2307 C2305 1.387 . S
C2307 C2309 1.390 1_655 S
C2307 H2311 0.950 . S
H2308 C2304 0.950 . S
C2309 C2307 1.390 1_455 S
C2309 C2310 1.387 . S
C2309 H2312 0.950 . S
C2310 C2309 1.387 . S
C2310 C2313 1.387 . S
H2311 C2307 0.950 . S
H2312 C2309 0.950 . S
C2313 C2304 1.390 1_455 S
C2313 H2306 0.950 . S
C2313 C2310 1.387 . S
C2314 C2315 1.387 . S
C2314 H2318 0.950 . S
C2314 C2323 1.390 1_565 S
C2315 C2314 1.387 . S
C2315 C2317 1.387 . S
H2316 C2323 0.950 . S
C2317 C2315 1.387 . S
C2317 C2319 1.390 1_565 S
C2317 H2321 0.950 . S
H2318 C2314 0.950 . S
C2319 C2317 1.390 1_545 S
C2319 C2320 1.387 . S
C2319 H2322 0.950 . S
C2320 C2319 1.387 . S
C2320 C2323 1.387 . S
H2321 C2317 0.950 . S
H2322 C2319 0.950 . S
C2323 C2314 1.390 1_545 S
C2323 H2316 0.950 . S
C2323 C2320 1.387 . S
C2324 C2325 1.387 . S
C2324 H2328 0.950 . S
C2324 C2333 1.390 1_655 S
C2325 C2324 1.387 . S
C2325 C2327 1.387 . S
H2326 C2333 0.950 . S
C2327 C2325 1.387 . S
C2327 C2329 1.390 1_655 S
C2327 H2331 0.950 . S
H2328 C2324 0.950 . S
C2329 C2327 1.390 1_455 S
C2329 C2330 1.387 . S
C2329 H2332 0.950 . S
C2330 C2329 1.387 . S
C2330 C2333 1.387 . S
H2331 C2327 0.950 . S
H2332 C2329 0.950 . S
C2333 C2324 1.390 1_455 S
C2333 H2326 0.950 . S
C2333 C2330 1.387 . S
C2334 C2335 1.387 . S
C2334 H2338 0.950 . S
C2334 C2343 1.390 1_565 S
C2335 C2334 1.387 . S
C2335 C2337 1.387 . S
H2336 C2343 0.950 . S
C2337 C2335 1.387 . S
C2337 C2339 1.390 1_565 S
C2337 H2341 0.950 . S
H2338 C2334 0.950 . S
C2339 C2337 1.390 1_545 S
C2339 C2340 1.387 . S
C2339 H2342 0.950 . S
C2340 C2339 1.387 . S
C2340 C2343 1.387 . S
H2341 C2337 0.950 . S
H2342 C2339 0.950 . S
C2343 C2334 1.390 1_545 S
C2343 H2336 0.950 . S
C2343 C2340 1.387 . S
C2344 C2345 1.387 . S
C2344 H2348 0.950 . S
C2344 C2353 1.390 1_565 S
C2345 C2344 1.387 . S
C2345 C2347 1.387 . S
H2346 C2353 0.950 . S
C2347 C2345 1.387 . S
C2347 C2349 1.390 1_565 S
C2347 H2351 0.950 . S
H2348 C2344 0.950 . S
C2349 C2347 1.390 1_545 S
C2349 C2350 1.387 . S
C2349 H2352 0.950 . S
C2350 C2349 1.387 . S
C2350 C2353 1.387 . S
H2351 C2347 0.950 . S
H2352 C2349 0.950 . S
C2353 C2344 1.390 1_545 S
C2353 H2346 0.950 . S
C2353 C2350 1.387 . S
C2354 C2355 1.387 . S
C2354 H2358 0.950 . S
C2354 C2363 1.390 1_655 S
C2355 C2354 1.387 . S
C2355 C2357 1.387 . S
H2356 C2363 0.950 . S
C2357 C2355 1.387 . S
C2357 C2359 1.390 1_655 S
C2357 H2361 0.950 . S
H2358 C2354 0.950 . S
C2359 C2357 1.390 1_455 S
C2359 C2360 1.387 . S
C2359 H2362 0.950 . S
C2360 C2359 1.387 . S
C2360 C2363 1.387 . S
H2361 C2357 0.950 . S
H2362 C2359 0.950 . S
C2363 C2354 1.390 1_455 S
C2363 H2356 0.950 . S
C2363 C2360 1.387 . S
C2364 C2365 1.387 . S
C2364 H2368 0.950 . S
C2364 C2373 1.390 1_565 S
C2365 C2364 1.387 . S
C2365 C2367 1.387 . S
H2366 C2373 0.950 . S
C2367 C2365 1.387 . S
C2367 C2369 1.390 1_565 S
C2367 H2371 0.950 . S
H2368 C2364 0.950 . S
C2369 C2367 1.390 1_545 S
C2369 C2370 1.387 . S
C2369 H2372 0.950 . S
C2370 C2369 1.387 . S
C2370 C2373 1.387 . S
H2371 C2367 0.950 . S
H2372 C2369 0.950 . S
C2373 C2364 1.390 1_545 S
C2373 H2366 0.950 . S
C2373 C2370 1.387 . S
C2374 C2375 1.387 . S
C2374 H2378 0.950 . S
C2374 C2383 1.390 1_655 S
C2375 C2374 1.387 . S
C2375 C2377 1.387 . S
H2376 C2383 0.950 . S
C2377 C2375 1.387 . S
C2377 C2379 1.390 1_655 S
C2377 H2381 0.950 . S
H2378 C2374 0.950 . S
C2379 C2377 1.390 1_455 S
C2379 C2380 1.387 . S
C2379 H2382 0.950 . S
C2380 C2379 1.387 . S
C2380 C2383 1.387 . S
H2381 C2377 0.950 . S
H2382 C2379 0.950 . S
C2383 C2374 1.390 1_455 S
C2383 H2376 0.950 . S
C2383 C2380 1.387 . S
C2384 C2385 1.387 . S
C2384 H2388 0.950 . S
C2384 C2393 1.390 1_556 S
C2385 C2384 1.387 . S
C2385 C2387 1.387 . S
H2386 C2393 0.950 . S
C2387 C2385 1.387 . S
C2387 C2389 1.390 1_556 S
C2387 H2391 0.950 . S
H2388 C2384 0.950 . S
C2389 C2387 1.390 1_554 S
C2389 C2390 1.387 . S
C2389 H2392 0.950 . S
C2390 C2389 1.387 . S
C2390 C2393 1.387 . S
H2391 C2387 0.950 . S
H2392 C2389 0.950 . S
C2393 C2384 1.390 1_554 S
C2393 H2386 0.950 . S
C2393 C2390 1.387 . S
C2394 C2395 1.387 . S
C2394 H2398 0.950 . S
C2394 C2403 1.390 1_556 S
C2395 C2394 1.387 . S
C2395 C2397 1.387 . S
H2396 C2403 0.950 . S
C2397 C2395 1.387 . S
C2397 C2399 1.390 1_556 S
C2397 H2401 0.950 . S
H2398 C2394 0.950 . S
C2399 C2397 1.390 1_554 S
C2399 C2400 1.387 . S
C2399 H2402 0.950 . S
C2400 C2399 1.387 . S
C2400 C2403 1.387 . S
H2401 C2397 0.950 . S
H2402 C2399 0.950 . S
C2403 C2394 1.390 1_554 S
C2403 H2396 0.950 . S
C2403 C2400 1.387 . S
C2404 C2405 1.387 . S
C2404 H2408 0.950 . S
C2404 C2413 1.390 1_556 S
C2405 C2404 1.387 . S
C2405 C2407 1.387 . S
H2406 C2413 0.950 . S
C2407 C2405 1.387 . S
C2407 C2409 1.390 1_556 S
C2407 H2411 0.950 . S
H2408 C2404 0.950 . S
C2409 C2407 1.390 1_554 S
C2409 C2410 1.387 . S
C2409 H2412 0.950 . S
C2410 C2409 1.387 . S
C2410 C2413 1.387 . S
H2411 C2407 0.950 . S
H2412 C2409 0.950 . S
C2413 C2404 1.390 1_554 S
C2413 H2406 0.950 . S
C2413 C2410 1.387 . S
C2414 C2415 1.387 . S
C2414 H2418 0.950 . S
C2414 C2423 1.390 1_556 S
C2415 C2414 1.387 . S
C2415 C2417 1.387 . S
H2416 C2423 0.950 . S
C2417 C2415 1.387 . S
C2417 C2419 1.390 1_556 S
C2417 H2421 0.950 . S
H2418 C2414 0.950 . S
C2419 C2417 1.390 1_554 S
C2419 C2420 1.387 . S
C2419 H2422 0.950 . S
C2420 C2419 1.387 . S
C2420 C2423 1.387 . S
H2421 C2417 0.950 . S
H2422 C2419 0.950 . S
C2423 C2414 1.390 1_554 S
C2423 H2416 0.950 . S
C2423 C2420 1.387 . S
C2424 C2425 1.387 . S
C2424 H2428 0.950 . S
C2424 C2433 1.390 . S
C2425 C2424 1.387 . S
C2425 C2427 1.387 . S
H2426 C2433 0.950 . S
C2427 C2425 1.387 . S
C2427 C2429 1.390 . S
C2427 H2431 0.950 . S
H2428 C2424 0.950 . S
C2429 C2427 1.390 . S
C2429 C2430 1.387 . S
C2429 H2432 0.950 . S
C2430 C2429 1.387 . S
C2430 C2433 1.387 . S
H2431 C2427 0.950 . S
H2432 C2429 0.950 . S
C2433 C2424 1.390 . S
C2433 H2426 0.950 . S
C2433 C2430 1.387 . S
C2434 C2435 1.387 . S
C2434 H2438 0.950 . S
C2434 C2443 1.390 . S
C2435 C2434 1.387 . S
C2435 C2437 1.387 . S
H2436 C2443 0.950 . S
C2437 C2435 1.387 . S
C2437 C2439 1.390 . S
C2437 H2441 0.950 . S
H2438 C2434 0.950 . S
C2439 C2437 1.390 . S
C2439 C2440 1.387 . S
C2439 H2442 0.950 . S
C2440 C2439 1.387 . S
C2440 C2443 1.387 . S
H2441 C2437 0.950 . S
H2442 C2439 0.950 . S
C2443 C2434 1.390 . S
C2443 H2436 0.950 . S
C2443 C2440 1.387 . S
C2444 C2445 1.387 . S
C2444 H2448 0.950 . S
C2444 C2453 1.390 . S
C2445 C2444 1.387 . S
C2445 C2447 1.387 . S
H2446 C2453 0.950 . S
C2447 C2445 1.387 . S
C2447 C2449 1.390 . S
C2447 H2451 0.950 . S
H2448 C2444 0.950 . S
C2449 C2447 1.390 . S
C2449 C2450 1.387 . S
C2449 H2452 0.950 . S
C2450 C2449 1.387 . S
C2450 C2453 1.387 . S
H2451 C2447 0.950 . S
H2452 C2449 0.950 . S
C2453 C2444 1.390 . S
C2453 H2446 0.950 . S
C2453 C2450 1.387 . S
C2454 C2455 1.387 . S
C2454 H2458 0.950 . S
C2454 C2463 1.390 . S
C2455 C2454 1.387 . S
C2455 C2457 1.387 . S
H2456 C2463 0.950 . S
C2457 C2455 1.387 . S
C2457 C2459 1.390 . S
C2457 H2461 0.950 . S
H2458 C2454 0.950 . S
C2459 C2457 1.390 . S
C2459 C2460 1.387 . S
C2459 H2462 0.950 . S
C2460 C2459 1.387 . S
C2460 C2463 1.387 . S
H2461 C2457 0.950 . S
H2462 C2459 0.950 . S
C2463 C2454 1.390 . S
C2463 H2456 0.950 . S
C2463 C2460 1.387 . S
C2464 C2465 1.387 . S
C2464 H2468 0.950 . S
C2464 C2473 1.390 . S
C2465 C2464 1.387 . S
C2465 C2467 1.387 . S
H2466 C2473 0.950 . S
C2467 C2465 1.387 . S
C2467 C2469 1.390 . S
C2467 H2471 0.950 . S
H2468 C2464 0.950 . S
C2469 C2467 1.390 . S
C2469 C2470 1.387 . S
C2469 H2472 0.950 . S
C2470 C2469 1.387 . S
C2470 C2473 1.387 . S
H2471 C2467 0.950 . S
H2472 C2469 0.950 . S
C2473 C2464 1.390 . S
C2473 H2466 0.950 . S
C2473 C2470 1.387 . S
C2474 C2475 1.387 . S
C2474 H2478 0.950 . S
C2474 C2483 1.390 . S
C2475 C2474 1.387 . S
C2475 C2477 1.387 . S
H2476 C2483 0.950 . S
C2477 C2475 1.387 . S
C2477 C2479 1.390 . S
C2477 H2481 0.950 . S
H2478 C2474 0.950 . S
C2479 C2477 1.390 . S
C2479 C2480 1.387 . S
C2479 H2482 0.950 . S
C2480 C2479 1.387 . S
C2480 C2483 1.387 . S
H2481 C2477 0.950 . S
H2482 C2479 0.950 . S
C2483 C2474 1.390 . S
C2483 H2476 0.950 . S
C2483 C2480 1.387 . S
C2484 C2485 1.387 . S
C2484 H2488 0.950 . S
C2484 C2493 1.390 . S
C2485 C2484 1.387 . S
C2485 C2487 1.387 . S
H2486 C2493 0.950 . S
C2487 C2485 1.387 . S
C2487 C2489 1.390 . S
C2487 H2491 0.950 . S
H2488 C2484 0.950 . S
C2489 C2487 1.390 . S
C2489 C2490 1.387 . S
C2489 H2492 0.950 . S
C2490 C2489 1.387 . S
C2490 C2493 1.387 . S
H2491 C2487 0.950 . S
H2492 C2489 0.950 . S
C2493 C2484 1.390 . S
C2493 H2486 0.950 . S
C2493 C2490 1.387 . S
C2494 C2495 1.387 . S
C2494 H2498 0.950 . S
C2494 C2503 1.390 . S
C2495 C2494 1.387 . S
C2495 C2497 1.387 . S
H2496 C2503 0.950 . S
C2497 C2495 1.387 . S
C2497 C2499 1.390 . S
C2497 H2501 0.950 . S
H2498 C2494 0.950 . S
C2499 C2497 1.390 . S
C2499 C2500 1.387 . S
C2499 H2502 0.950 . S
C2500 C2499 1.387 . S
C2500 C2503 1.387 . S
H2501 C2497 0.950 . S
H2502 C2499 0.950 . S
C2503 C2494 1.390 . S
C2503 H2496 0.950 . S
C2503 C2500 1.387 . S
C2504 C2505 1.387 . S
C2504 H2508 0.950 . S
C2504 C2513 1.390 . S
C2505 C2504 1.387 . S
C2505 C2507 1.387 . S
H2506 C2513 0.950 . S
C2507 C2505 1.387 . S
C2507 C2509 1.390 . S
C2507 H2511 0.950 . S
H2508 C2504 0.950 . S
C2509 C2507 1.390 . S
C2509 C2510 1.387 . S
C2509 H2512 0.950 . S
C2510 C2509 1.387 . S
C2510 C2513 1.387 . S
H2511 C2507 0.950 . S
H2512 C2509 0.950 . S
C2513 C2504 1.390 . S
C2513 H2506 0.950 . S
C2513 C2510 1.387 . S
C2514 C2515 1.387 . S
C2514 H2518 0.950 . S
C2514 C2523 1.390 . S
C2515 C2514 1.387 . S
C2515 C2517 1.387 . S
H2516 C2523 0.950 . S
C2517 C2515 1.387 . S
C2517 C2519 1.390 . S
C2517 H2521 0.950 . S
H2518 C2514 0.950 . S
C2519 C2517 1.390 . S
C2519 C2520 1.387 . S
C2519 H2522 0.950 . S
C2520 C2519 1.387 . S
C2520 C2523 1.387 . S
H2521 C2517 0.950 . S
H2522 C2519 0.950 . S
C2523 C2514 1.390 . S
C2523 H2516 0.950 . S
C2523 C2520 1.387 . S
C2524 C2525 1.387 . S
C2524 H2528 0.950 . S
C2524 C2533 1.390 . S
C2525 C2524 1.387 . S
C2525 C2527 1.387 . S
H2526 C2533 0.950 . S
C2527 C2525 1.387 . S
C2527 C2529 1.390 . S
C2527 H2531 0.950 . S
H2528 C2524 0.950 . S
C2529 C2527 1.390 . S
C2529 C2530 1.387 . S
C2529 H2532 0.950 . S
C2530 C2529 1.387 . S
C2530 C2533 1.387 . S
H2531 C2527 0.950 . S
H2532 C2529 0.950 . S
C2533 C2524 1.390 . S
C2533 H2526 0.950 . S
C2533 C2530 1.387 . S
C2534 C2535 1.387 . S
C2534 H2538 0.950 . S
C2534 C2543 1.390 . S
C2535 C2534 1.387 . S
C2535 C2537 1.387 . S
H2536 C2543 0.950 . S
C2537 C2535 1.387 . S
C2537 C2539 1.390 . S
C2537 H2541 0.950 . S
H2538 C2534 0.950 . S
C2539 C2537 1.390 . S
C2539 C2540 1.387 . S
C2539 H2542 0.950 . S
C2540 C2539 1.387 . S
C2540 C2543 1.387 . S
H2541 C2537 0.950 . S
H2542 C2539 0.950 . S
C2543 C2534 1.390 . S
C2543 H2536 0.950 . S
C2543 C2540 1.387 . S
C2544 C2545 1.387 . S
C2544 H2548 0.950 . S
C2544 C2553 1.390 . S
C2545 C2544 1.387 . S
C2545 C2547 1.387 . S
H2546 C2553 0.950 . S
C2547 C2545 1.387 . S
C2547 C2549 1.390 . S
C2547 H2551 0.950 . S
H2548 C2544 0.950 . S
C2549 C2547 1.390 . S
C2549 C2550 1.387 . S
C2549 H2552 0.950 . S
C2550 C2549 1.387 . S
C2550 C2553 1.387 . S
H2551 C2547 0.950 . S
H2552 C2549 0.950 . S
C2553 C2544 1.390 . S
C2553 H2546 0.950 . S
C2553 C2550 1.387 . S
C2554 C2555 1.387 . S
C2554 H2558 0.950 . S
C2554 C2563 1.390 . S
C2555 C2554 1.387 . S
C2555 C2557 1.387 . S
H2556 C2563 0.950 . S
C2557 C2555 1.387 . S
C2557 C2559 1.390 . S
C2557 H2561 0.950 . S
H2558 C2554 0.950 . S
C2559 C2557 1.390 . S
C2559 C2560 1.387 . S
C2559 H2562 0.950 . S
C2560 C2559 1.387 . S
C2560 C2563 1.387 . S
H2561 C2557 0.950 . S
H2562 C2559 0.950 . S
C2563 C2554 1.390 . S
C2563 H2556 0.950 . S
C2563 C2560 1.387 . S
C2564 C2565 1.387 . S
C2564 H2568 0.950 . S
C2564 C2573 1.390 . S
C2565 C2564 1.387 . S
C2565 C2567 1.387 . S
H2566 C2573 0.950 . S
C2567 C2565 1.387 . S
C2567 C2569 1.390 . S
C2567 H2571 0.950 . S
H2568 C2564 0.950 . S
C2569 C2567 1.390 . S
C2569 C2570 1.387 . S
C2569 H2572 0.950 . S
C2570 C2569 1.387 . S
C2570 C2573 1.387 . S
H2571 C2567 0.950 . S
H2572 C2569 0.950 . S
C2573 C2564 1.390 . S
C2573 H2566 0.950 . S
C2573 C2570 1.387 . S
C2574 C2575 1.387 . S
C2574 H2578 0.950 . S
C2574 C2583 1.390 . S
C2575 C2574 1.387 . S
C2575 C2577 1.387 . S
H2576 C2583 0.950 . S
C2577 C2575 1.387 . S
C2577 C2579 1.390 . S
C2577 H2581 0.950 . S
H2578 C2574 0.950 . S
C2579 C2577 1.390 . S
C2579 C2580 1.387 . S
C2579 H2582 0.950 . S
C2580 C2579 1.387 . S
C2580 C2583 1.387 . S
H2581 C2577 0.950 . S
H2582 C2579 0.950 . S
C2583 C2574 1.390 . S
C2583 H2576 0.950 . S
C2583 C2580 1.387 . S
C2584 C2585 1.387 . S
C2584 H2588 0.950 . S
C2584 C2593 1.390 . S
C2585 C2584 1.387 . S
C2585 C2587 1.387 . S
H2586 C2593 0.950 . S
C2587 C2585 1.387 . S
C2587 C2589 1.390 . S
C2587 H2591 0.950 . S
H2588 C2584 0.950 . S
C2589 C2587 1.390 . S
C2589 C2590 1.387 . S
C2589 H2592 0.950 . S
C2590 C2589 1.387 . S
C2590 C2593 1.387 . S
H2591 C2587 0.950 . S
H2592 C2589 0.950 . S
C2593 C2584 1.390 . S
C2593 H2586 0.950 . S
C2593 C2590 1.387 . S
C2594 C2595 1.387 . S
C2594 H2598 0.950 . S
C2594 C2603 1.390 . S
C2595 C2594 1.387 . S
C2595 C2597 1.387 . S
H2596 C2603 0.950 . S
C2597 C2595 1.387 . S
C2597 C2599 1.390 . S
C2597 H2601 0.950 . S
H2598 C2594 0.950 . S
C2599 C2597 1.390 . S
C2599 C2600 1.387 . S
C2599 H2602 0.950 . S
C2600 C2599 1.387 . S
C2600 C2603 1.387 . S
H2601 C2597 0.950 . S
H2602 C2599 0.950 . S
C2603 C2594 1.390 . S
C2603 H2596 0.950 . S
C2603 C2600 1.387 . S
C2604 C2605 1.387 . S
C2604 H2608 0.950 . S
C2604 C2613 1.390 . S
C2605 C2604 1.387 . S
C2605 C2607 1.387 . S
H2606 C2613 0.950 . S
C2607 C2605 1.387 . S
C2607 C2609 1.390 . S
C2607 H2611 0.950 . S
H2608 C2604 0.950 . S
C2609 C2607 1.390 . S
C2609 C2610 1.387 . S
C2609 H2612 0.950 . S
C2610 C2609 1.387 . S
C2610 C2613 1.387 . S
H2611 C2607 0.950 . S
H2612 C2609 0.950 . S
C2613 C2604 1.390 . S
C2613 H2606 0.950 . S
C2613 C2610 1.387 . S
C2614 C2615 1.387 . S
C2614 H2618 0.950 . S
C2614 C2623 1.390 . S
C2615 C2614 1.387 . S
C2615 C2617 1.387 . S
H2616 C2623 0.950 . S
C2617 C2615 1.387 . S
C2617 C2619 1.390 . S
C2617 H2621 0.950 . S
H2618 C2614 0.950 . S
C2619 C2617 1.390 . S
C2619 C2620 1.387 . S
C2619 H2622 0.950 . S
C2620 C2619 1.387 . S
C2620 C2623 1.387 . S
H2621 C2617 0.950 . S
H2622 C2619 0.950 . S
C2623 C2614 1.390 . S
C2623 H2616 0.950 . S
C2623 C2620 1.387 . S
C2624 C2625 1.387 . S
C2624 H2628 0.950 . S
C2624 C2633 1.390 . S
C2625 C2624 1.387 . S
C2625 C2627 1.387 . S
H2626 C2633 0.950 . S
C2627 C2625 1.387 . S
C2627 C2629 1.390 . S
C2627 H2631 0.950 . S
H2628 C2624 0.950 . S
C2629 C2627 1.390 . S
C2629 C2630 1.387 . S
C2629 H2632 0.950 . S
C2630 C2629 1.387 . S
C2630 C2633 1.387 . S
H2631 C2627 0.950 . S
H2632 C2629 0.950 . S
C2633 C2624 1.390 . S
C2633 H2626 0.950 . S
C2633 C2630 1.387 . S
C2634 C2635 1.387 . S
C2634 H2638 0.950 . S
C2634 C2643 1.390 . S
C2635 C2634 1.387 . S
C2635 C2637 1.387 . S
H2636 C2643 0.950 . S
C2637 C2635 1.387 . S
C2637 C2639 1.390 . S
C2637 H2641 0.950 . S
H2638 C2634 0.950 . S
C2639 C2637 1.390 . S
C2639 C2640 1.387 . S
C2639 H2642 0.950 . S
C2640 C2639 1.387 . S
C2640 C2643 1.387 . S
H2641 C2637 0.950 . S
H2642 C2639 0.950 . S
C2643 C2634 1.390 . S
C2643 H2636 0.950 . S
C2643 C2640 1.387 . S
C2644 C2645 1.387 . S
C2644 H2648 0.950 . S
C2644 C2653 1.390 . S
C2645 C2644 1.387 . S
C2645 C2647 1.387 . S
H2646 C2653 0.950 . S
C2647 C2645 1.387 . S
C2647 C2649 1.390 . S
C2647 H2651 0.950 . S
H2648 C2644 0.950 . S
C2649 C2647 1.390 . S
C2649 C2650 1.387 . S
C2649 H2652 0.950 . S
C2650 C2649 1.387 . S
C2650 C2653 1.387 . S
H2651 C2647 0.950 . S
H2652 C2649 0.950 . S
C2653 C2644 1.390 . S
C2653 H2646 0.950 . S
C2653 C2650 1.387 . S
C2654 C2655 1.387 . S
C2654 H2658 0.950 . S
C2654 C2663 1.390 . S
C2655 C2654 1.387 . S
C2655 C2657 1.387 . S
H2656 C2663 0.950 . S
C2657 C2655 1.387 . S
C2657 C2659 1.390 . S
C2657 H2661 0.950 . S
H2658 C2654 0.950 . S
C2659 C2657 1.390 . S
C2659 C2660 1.387 . S
C2659 H2662 0.950 . S
C2660 C2659 1.387 . S
C2660 C2663 1.387 . S
H2661 C2657 0.950 . S
H2662 C2659 0.950 . S
C2663 C2654 1.390 . S
C2663 H2656 0.950 . S
C2663 C2660 1.387 . S
C2664 C2665 1.387 . S
C2664 H2668 0.950 . S
C2664 C2673 1.409 . S
C2665 C2664 1.387 . S
C2665 C2667 1.368 1_655 S
H2666 C2673 0.949 . S
C2667 C2665 1.368 1_455 S
C2667 C2669 1.409 . S
C2667 H2671 0.949 . S
H2668 C2664 0.950 . S
C2669 C2667 1.409 . S
C2669 C2670 1.387 . S
C2669 H2672 0.950 . S
C2670 C2669 1.387 . S
C2670 C2673 1.368 1_455 S
H2671 C2667 0.949 . S
H2672 C2669 0.950 . S
C2673 C2664 1.409 . S
C2673 H2666 0.949 . S
C2673 C2670 1.368 1_655 S
C2674 C2675 1.387 1_545 S
C2674 H2678 0.950 . S
C2674 C2683 1.390 . S
C2675 C2674 1.387 1_565 S
C2675 C2677 1.387 . S
H2676 C2683 0.950 . S
C2677 C2675 1.387 . S
C2677 C2679 1.390 . S
C2677 H2681 0.950 . S
H2678 C2674 0.950 . S
C2679 C2677 1.390 . S
C2679 C2680 1.387 1_565 S
C2679 H2682 0.950 . S
C2680 C2679 1.387 1_545 S
C2680 C2683 1.387 . S
H2681 C2677 0.950 . S
H2682 C2679 0.950 . S
C2683 C2674 1.390 . S
C2683 H2676 0.950 . S
C2683 C2680 1.387 . S
C2684 C2685 1.387 . S
C2684 H2688 0.950 . S
C2684 C2693 1.390 1_655 S
C2685 C2684 1.387 . S
C2685 C2687 1.387 . S
H2686 C2693 0.950 . S
C2687 C2685 1.387 . S
C2687 C2689 1.390 1_655 S
C2687 H2691 0.950 . S
H2688 C2684 0.950 . S
C2689 C2687 1.390 1_455 S
C2689 C2690 1.387 . S
C2689 H2692 0.950 . S
C2690 C2689 1.387 . S
C2690 C2693 1.387 . S
H2691 C2687 0.950 . S
H2692 C2689 0.950 . S
C2693 C2684 1.390 1_455 S
C2693 H2686 0.950 . S
C2693 C2690 1.387 . S
C2694 C2695 1.387 . S
C2694 H2698 0.950 . S
C2694 C2703 1.390 1_565 S
C2695 C2694 1.387 . S
C2695 C2697 1.387 . S
H2696 C2703 0.950 . S
C2697 C2695 1.387 . S
C2697 C2699 1.390 1_565 S
C2697 H2701 0.950 . S
H2698 C2694 0.950 . S
C2699 C2697 1.390 1_545 S
C2699 C2700 1.387 . S
C2699 H2702 0.950 . S
C2700 C2699 1.387 . S
C2700 C2703 1.387 . S
H2701 C2697 0.950 . S
H2702 C2699 0.950 . S
C2703 C2694 1.390 1_545 S
C2703 H2696 0.950 . S
C2703 C2700 1.387 . S
C2704 C2705 1.387 . S
C2704 H2708 0.950 . S
C2704 C2713 1.390 1_655 S
C2705 C2704 1.387 . S
C2705 C2707 1.387 . S
H2706 C2713 0.950 . S
C2707 C2705 1.387 . S
C2707 C2709 1.390 1_655 S
C2707 H2711 0.950 . S
H2708 C2704 0.950 . S
C2709 C2707 1.390 1_455 S
C2709 C2710 1.387 . S
C2709 H2712 0.950 . S
C2710 C2709 1.387 . S
C2710 C2713 1.387 . S
H2711 C2707 0.950 . S
H2712 C2709 0.950 . S
C2713 C2704 1.390 1_455 S
C2713 H2706 0.950 . S
C2713 C2710 1.387 . S
C2714 C2715 1.387 . S
C2714 H2718 0.950 . S
C2714 C2723 1.390 . S
C2715 C2714 1.387 . S
C2715 C2717 1.387 1_565 S
H2716 C2723 0.950 . S
C2717 C2715 1.387 1_545 S
C2717 C2719 1.390 . S
C2717 H2721 0.950 . S
H2718 C2714 0.950 . S
C2719 C2717 1.390 . S
C2719 C2720 1.387 . S
C2719 H2722 0.950 . S
C2720 C2719 1.387 . S
C2720 C2723 1.387 1_545 S
H2721 C2717 0.950 . S
H2722 C2719 0.950 . S
C2723 C2714 1.390 . S
C2723 H2716 0.950 . S
C2723 C2720 1.387 1_565 S
C2724 C2725 1.387 . S
C2724 H2728 0.950 . S
C2724 C2733 1.390 . S
C2725 C2724 1.387 . S
C2725 C2727 1.387 1_655 S
H2726 C2733 0.950 . S
C2727 C2725 1.387 1_455 S
C2727 C2729 1.390 . S
C2727 H2731 0.950 . S
H2728 C2724 0.950 . S
C2729 C2727 1.390 . S
C2729 C2730 1.387 . S
C2729 H2732 0.950 . S
C2730 C2729 1.387 . S
C2730 C2733 1.387 1_455 S
H2731 C2727 0.950 . S
H2732 C2729 0.950 . S
C2733 C2724 1.390 . S
C2733 H2726 0.950 . S
C2733 C2730 1.387 1_655 S
C2734 C2735 1.387 1_545 S
C2734 H2738 0.950 . S
C2734 C2743 1.390 . S
C2735 C2734 1.387 1_565 S
C2735 C2737 1.387 . S
H2736 C2743 0.950 . S
C2737 C2735 1.387 . S
C2737 C2739 1.390 . S
C2737 H2741 0.950 . S
H2738 C2734 0.950 . S
C2739 C2737 1.390 . S
C2739 C2740 1.387 1_565 S
C2739 H2742 0.950 . S
C2740 C2739 1.387 1_545 S
C2740 C2743 1.387 . S
H2741 C2737 0.950 . S
H2742 C2739 0.950 . S
C2743 C2734 1.390 . S
C2743 H2736 0.950 . S
C2743 C2740 1.387 . S
C2744 C2745 1.387 . S
C2744 H2748 0.950 . S
C2744 C2753 1.370 1_556 S
C2745 C2744 1.387 . S
C2745 C2747 1.407 . S
H2746 C2753 0.951 . S
C2747 C2745 1.407 . S
C2747 C2749 1.370 1_556 S
C2747 H2751 0.951 . S
H2748 C2744 0.950 . S
C2749 C2747 1.370 1_554 S
C2749 C2750 1.387 . S
C2749 H2752 0.950 . S
C2750 C2749 1.387 . S
C2750 C2753 1.407 . S
H2751 C2747 0.951 . S
H2752 C2749 0.950 . S
C2753 C2744 1.370 1_554 S
C2753 H2746 0.951 . S
C2753 C2750 1.407 . S
C2754 C2755 1.387 1_554 S
C2754 H2758 0.950 . S
C2754 C2763 1.390 . S
C2755 C2754 1.387 1_556 S
C2755 C2757 1.387 . S
H2756 C2763 0.950 . S
C2757 C2755 1.387 . S
C2757 C2759 1.390 . S
C2757 H2761 0.950 . S
H2758 C2754 0.950 . S
C2759 C2757 1.390 . S
C2759 C2760 1.387 1_556 S
C2759 H2762 0.950 . S
C2760 C2759 1.387 1_554 S
C2760 C2763 1.387 . S
H2761 C2757 0.950 . S
H2762 C2759 0.950 . S
C2763 C2754 1.390 . S
C2763 H2756 0.950 . S
C2763 C2760 1.387 . S
C2764 C2765 1.387 . S
C2764 H2768 0.950 . S
C2764 C2773 1.404 . S
C2765 C2764 1.387 . S
C2765 C2767 1.373 1_556 S
H2766 C2773 0.950 . S
C2767 C2765 1.373 1_554 S
C2767 C2769 1.404 . S
C2767 H2771 0.950 . S
H2768 C2764 0.950 . S
C2769 C2767 1.404 . S
C2769 C2770 1.387 . S
C2769 H2772 0.950 . S
C2770 C2769 1.387 . S
C2770 C2773 1.373 1_554 S
H2771 C2767 0.950 . S
H2772 C2769 0.950 . S
C2773 C2764 1.404 . S
C2773 H2766 0.950 . S
C2773 C2770 1.373 1_556 S
C2774 C2775 1.387 1_554 S
C2774 H2778 0.950 . S
C2774 C2783 1.390 . S
C2775 C2774 1.387 1_556 S
C2775 C2777 1.387 . S
H2776 C2783 0.950 . S
C2777 C2775 1.387 . S
C2777 C2779 1.390 . S
C2777 H2781 0.950 . S
H2778 C2774 0.950 . S
C2779 C2777 1.390 . S
C2779 C2780 1.387 1_556 S
C2779 H2782 0.950 . S
C2780 C2779 1.387 1_554 S
C2780 C2783 1.387 . S
H2781 C2777 0.950 . S
H2782 C2779 0.950 . S
C2783 C2774 1.390 . S
C2783 H2776 0.950 . S
C2783 C2780 1.387 . S
C1945 C59 1.504 . S
C1950 C1090 1.401 . S
C1955 C140 1.507 . S
C1960 C1171 1.403 . S
C1965 C221 1.507 . S
C1970 C1252 1.402 . S
C1975 C302 1.507 . S
C1980 C1009 1.403 . S
C1985 C383 1.504 . S
C1990 C928 1.400 . S
C1995 C464 1.504 . S
C2000 C685 1.400 . S
C2005 C545 1.504 . S
C2010 C766 1.400 . S
C2015 C626 1.507 . S
C2020 C847 1.403 . S
C2025 C707 1.507 . S
C2030 C118 1.403 . S
C2035 C788 1.504 . S
C2040 C199 1.400 . S
C2045 C869 1.504 . S
C2050 C280 1.400 . S
C2055 C950 1.504 . S
C2060 C37 1.400 . S
C2065 C604 1.400 . S
C2070 C1031 1.504 . S
C2075 C1112 1.507 . S
C2080 C361 1.403 . S
C2085 C1193 1.504 . S
C2090 C442 1.399 . S
C2095 C1274 1.504 . S
C2100 C523 1.399 . S
C2105 C1355 1.504 . S
C2110 C1819 1.400 . S
C2115 C1436 1.504 . S
C2120 C1495 1.399 . S
C2125 C1517 1.507 . S
C2130 C1576 1.403 . S
C2135 C1598 1.507 . S
C2140 C1657 1.402 . S
C2145 C1679 1.507 . S
C2150 C1414 1.403 . S
C2155 C1760 1.504 . S
C2160 C1900 1.399 . S
C2165 C1841 1.504 . S
C2170 C1738 1.400 . S
C2175 C1922 1.507 . S
C2180 C1333 1.402 . S
C2185 C50 2.855 . S
C2190 C1832 2.856 . S
C2195 C131 2.856 . S
C2200 C1346 2.856 . S
C2205 C1913 2.856 . S
C2210 C212 2.856 . S
C2215 C1751 2.855 . S
C2220 C293 2.856 . S
C2225 C374 2.856 . S
C2230 C1508 2.856 . S
C2235 C455 2.856 . S
C2240 C1589 2.856 . S
C2245 C1670 2.856 . S
C2250 C536 2.856 . S
C2255 C1427 2.856 . S
C2260 C617 2.856 . S
C2265 C1103 2.856 . S
C2270 C698 2.856 . S
C2275 C1184 2.857 . S
C2280 C779 2.857 . S
C2285 C1265 2.855 . S
C2290 C860 2.856 . S
C2295 C941 2.857 . S
C2300 C1022 2.856 . S
C2305 C214 1.062 . S
C2310 C52 1.062 . S
C2315 C295 1.064 . S
C2320 C133 1.064 . S
C2325 C538 1.062 . S
C2330 C376 1.062 . S
C2335 C619 1.062 . S
C2340 C457 1.062 . S
C2345 C1024 1.064 . S
C2350 C700 1.064 . S
C2355 C781 1.062 . S
C2360 C1105 1.062 . S
C2365 C862 1.064 . S
C2370 C1186 1.064 . S
C2375 C1267 1.064 . S
C2380 C943 1.064 . S
C2385 C1591 1.064 . S
C2390 C1348 1.064 . S
C2395 C1429 1.062 . S
C2400 C1753 1.062 . S
C2405 C1510 1.062 . S
C2410 C1834 1.062 . S
C2415 C1672 1.062 . S
C2420 C1915 1.062 . S
C2425 C664 1.502 . S
C2430 C18 1.698 . S
C2435 C99 1.696 . S
C2440 C745 1.497 . S
C2445 C180 1.695 . S
C2450 C826 1.496 . S
C2455 C907 1.502 . S
C2460 C261 1.697 . S
C2465 C342 1.696 . S
C2470 C988 1.497 . S
C2475 C423 1.696 . S
C2480 C1069 1.496 . S
C2485 C1150 1.502 . S
C2490 C504 1.698 . S
C2495 C585 1.697 . S
C2500 C1231 1.501 . S
C2505 C1312 1.499 . S
C2510 C666 1.695 . S
C2515 C1879 1.496 . S
C2520 C747 1.696 . S
C2525 C1717 1.496 . S
C2530 C828 1.694 . S
C2535 C1798 1.496 . S
C2540 C909 1.695 . S
C2545 C990 1.699 . S
C2550 C1393 1.502 . S
C2555 C1071 1.699 . S
C2560 C1474 1.501 . S
C2565 C1152 1.696 . S
C2570 C1555 1.497 . S
C2575 C1233 1.695 . S
C2580 C1636 1.496 . S
C2585 C1314 1.696 . S
C2590 C16 1.496 . S
C2595 C340 1.502 . S
C2600 C1395 1.698 . S
C2605 C421 1.502 . S
C2610 C1476 1.698 . S
C2615 C1557 1.696 . S
C2620 C502 1.497 . S
C2625 C1638 1.696 . S
C2630 C583 1.500 . S
C2635 C1719 1.696 . S
C2640 C178 1.497 . S
C2645 C1800 1.699 . S
C2650 C259 1.502 . S
C2655 C1881 1.696 . S
C2660 C97 1.500 . S
C2665 C763 2.819 . S
C2670 C34 2.818 . S
C2675 C844 2.817 . S
C2680 C115 2.819 . S
C2685 C196 2.818 . S
C2690 C925 2.818 . S
C2695 C277 2.819 . S
C2700 C682 2.818 . S
C2705 C1249 2.818 . S
C2710 C358 2.819 . S
C2715 C1006 2.819 . S
C2720 C439 2.818 . S
C2725 C520 2.819 . S
C2730 C1087 2.818 . S
C2735 C601 2.817 . S
C2740 C1168 2.819 . S
C2745 C1492 2.819 . S
C2750 C1330 2.818 . S
C2755 C1411 2.818 . S
C2760 C1816 2.819 . S
C2765 C1573 2.819 . S
C2770 C1897 2.818 . S
C2775 C1654 2.817 . S
C2780 C1735 2.819 . S
