# Generated by pormake.
# Topology ulh, (4)-cn, num edge types: 1
# Building blocks:
#     Node 0, Type 0, BuildingBlock: NAWXER_clean_sbu_0, # of connection points: 4
#     Node 1, Type 0, BuildingBlock: NAWXER_clean_sbu_0, # of connection points: 4
#     Node 2, Type 0, BuildingBlock: NAWXER_clean_sbu_0, # of connection points: 4
#     Node 3, Type 0, BuildingBlock: NAWXER_clean_sbu_0, # of connection points: 4
#     Node 4, Type 0, BuildingBlock: NAWXER_clean_sbu_0, # of connection points: 4
#     Node 5, Type 0, BuildingBlock: NAWXER_clean_sbu_0, # of connection points: 4
#     Node 6, Type 0, BuildingBlock: NAWXER_clean_sbu_0, # of connection points: 4
#     Node 7, Type 0, BuildingBlock: NAWXER_clean_sbu_0, # of connection points: 4
#     Node 8, Type 0, BuildingBlock: NAWXER_clean_sbu_0, # of connection points: 4
#     Node 9, Type 0, BuildingBlock: NAWXER_clean_sbu_0, # of connection points: 4
#     Node 10, Type 0, BuildingBlock: NAWXER_clean_sbu_0, # of connection points: 4
#     Node 11, Type 0, BuildingBlock: NAWXER_clean_sbu_0, # of connection points: 4
#     Node 12, Type 0, BuildingBlock: NAWXER_clean_sbu_0, # of connection points: 4
#     Node 13, Type 0, BuildingBlock: NAWXER_clean_sbu_0, # of connection points: 4
#     Node 14, Type 0, BuildingBlock: NAWXER_clean_sbu_0, # of connection points: 4
#     Node 15, Type 0, BuildingBlock: NAWXER_clean_sbu_0, # of connection points: 4
#     Node 16, Type 0, BuildingBlock: NAWXER_clean_sbu_0, # of connection points: 4
#     Node 17, Type 0, BuildingBlock: NAWXER_clean_sbu_0, # of connection points: 4
#     Node 18, Type 0, BuildingBlock: NAWXER_clean_sbu_0, # of connection points: 4
#     Node 19, Type 0, BuildingBlock: NAWXER_clean_sbu_0, # of connection points: 4
#     Node 20, Type 0, BuildingBlock: NAWXER_clean_sbu_0, # of connection points: 4
#     Node 21, Type 0, BuildingBlock: NAWXER_clean_sbu_0, # of connection points: 4
#     Node 22, Type 0, BuildingBlock: NAWXER_clean_sbu_0, # of connection points: 4
#     Node 23, Type 0, BuildingBlock: NAWXER_clean_sbu_0, # of connection points: 4
#     Node 24, Type 0, BuildingBlock: NAWXER_clean_sbu_0, # of connection points: 4
#     Node 25, Type 0, BuildingBlock: NAWXER_clean_sbu_0, # of connection points: 4
#     Node 26, Type 0, BuildingBlock: NAWXER_clean_sbu_0, # of connection points: 4
#     Node 27, Type 0, BuildingBlock: NAWXER_clean_sbu_0, # of connection points: 4
#     Node 28, Type 0, BuildingBlock: NAWXER_clean_sbu_0, # of connection points: 4
#     Node 29, Type 0, BuildingBlock: NAWXER_clean_sbu_0, # of connection points: 4
#     Node 30, Type 0, BuildingBlock: NAWXER_clean_sbu_0, # of connection points: 4
#     Node 31, Type 0, BuildingBlock: NAWXER_clean_sbu_0, # of connection points: 4
#     Node 32, Type 0, BuildingBlock: NAWXER_clean_sbu_0, # of connection points: 4
#     Node 33, Type 0, BuildingBlock: NAWXER_clean_sbu_0, # of connection points: 4
#     Node 34, Type 0, BuildingBlock: NAWXER_clean_sbu_0, # of connection points: 4
#     Node 35, Type 0, BuildingBlock: NAWXER_clean_sbu_0, # of connection points: 4
#     Node 36, Type 0, BuildingBlock: NAWXER_clean_sbu_0, # of connection points: 4
#     Node 37, Type 0, BuildingBlock: NAWXER_clean_sbu_0, # of connection points: 4
#     Node 38, Type 0, BuildingBlock: NAWXER_clean_sbu_0, # of connection points: 4
#     Node 39, Type 0, BuildingBlock: NAWXER_clean_sbu_0, # of connection points: 4
#     Node 40, Type 0, BuildingBlock: NAWXER_clean_sbu_0, # of connection points: 4
#     Node 41, Type 0, BuildingBlock: NAWXER_clean_sbu_0, # of connection points: 4
#     Node 42, Type 0, BuildingBlock: NAWXER_clean_sbu_0, # of connection points: 4
#     Node 43, Type 0, BuildingBlock: NAWXER_clean_sbu_0, # of connection points: 4
#     Node 44, Type 0, BuildingBlock: NAWXER_clean_sbu_0, # of connection points: 4
#     Node 45, Type 0, BuildingBlock: NAWXER_clean_sbu_0, # of connection points: 4
#     Node 46, Type 0, BuildingBlock: NAWXER_clean_sbu_0, # of connection points: 4
#     Node 47, Type 0, BuildingBlock: NAWXER_clean_sbu_0, # of connection points: 4
#     Node 48, Type 0, BuildingBlock: NAWXER_clean_sbu_0, # of connection points: 4
#     Node 49, Type 0, BuildingBlock: NAWXER_clean_sbu_0, # of connection points: 4
#     Node 50, Type 0, BuildingBlock: NAWXER_clean_sbu_0, # of connection points: 4
#     Node 51, Type 0, BuildingBlock: NAWXER_clean_sbu_0, # of connection points: 4
#     Node 52, Type 0, BuildingBlock: NAWXER_clean_sbu_0, # of connection points: 4
#     Node 53, Type 0, BuildingBlock: NAWXER_clean_sbu_0, # of connection points: 4
#     Node 54, Type 0, BuildingBlock: NAWXER_clean_sbu_0, # of connection points: 4
#     Node 55, Type 0, BuildingBlock: NAWXER_clean_sbu_0, # of connection points: 4
#     Node 56, Type 0, BuildingBlock: NAWXER_clean_sbu_0, # of connection points: 4
#     Node 57, Type 0, BuildingBlock: NAWXER_clean_sbu_0, # of connection points: 4
#     Node 58, Type 0, BuildingBlock: NAWXER_clean_sbu_0, # of connection points: 4
#     Node 59, Type 0, BuildingBlock: NAWXER_clean_sbu_0, # of connection points: 4
#     Node 60, Type 0, BuildingBlock: NAWXER_clean_sbu_0, # of connection points: 4
#     Node 61, Type 0, BuildingBlock: NAWXER_clean_sbu_0, # of connection points: 4
#     Node 62, Type 0, BuildingBlock: NAWXER_clean_sbu_0, # of connection points: 4
#     Node 63, Type 0, BuildingBlock: NAWXER_clean_sbu_0, # of connection points: 4
#     Node 64, Type 0, BuildingBlock: NAWXER_clean_sbu_0, # of connection points: 4
#     Node 65, Type 0, BuildingBlock: NAWXER_clean_sbu_0, # of connection points: 4
#     Node 66, Type 0, BuildingBlock: NAWXER_clean_sbu_0, # of connection points: 4
#     Node 67, Type 0, BuildingBlock: NAWXER_clean_sbu_0, # of connection points: 4
#     Node 68, Type 0, BuildingBlock: NAWXER_clean_sbu_0, # of connection points: 4
#     Node 69, Type 0, BuildingBlock: NAWXER_clean_sbu_0, # of connection points: 4
#     Node 70, Type 0, BuildingBlock: NAWXER_clean_sbu_0, # of connection points: 4
#     Node 71, Type 0, BuildingBlock: NAWXER_clean_sbu_0, # of connection points: 4
#     Node 72, Type 0, BuildingBlock: NAWXER_clean_sbu_0, # of connection points: 4
#     Node 73, Type 0, BuildingBlock: NAWXER_clean_sbu_0, # of connection points: 4
#     Node 74, Type 0, BuildingBlock: NAWXER_clean_sbu_0, # of connection points: 4
#     Node 75, Type 0, BuildingBlock: NAWXER_clean_sbu_0, # of connection points: 4
#     Node 76, Type 0, BuildingBlock: NAWXER_clean_sbu_0, # of connection points: 4
#     Node 77, Type 0, BuildingBlock: NAWXER_clean_sbu_0, # of connection points: 4
#     Node 78, Type 0, BuildingBlock: NAWXER_clean_sbu_0, # of connection points: 4
#     Node 79, Type 0, BuildingBlock: NAWXER_clean_sbu_0, # of connection points: 4
#     Node 80, Type 0, BuildingBlock: NAWXER_clean_sbu_0, # of connection points: 4
#     Node 81, Type 0, BuildingBlock: NAWXER_clean_sbu_0, # of connection points: 4
#     Node 82, Type 0, BuildingBlock: NAWXER_clean_sbu_0, # of connection points: 4
#     Node 83, Type 0, BuildingBlock: NAWXER_clean_sbu_0, # of connection points: 4
#     Node 84, Type 0, BuildingBlock: NAWXER_clean_sbu_0, # of connection points: 4
#     Node 85, Type 0, BuildingBlock: NAWXER_clean_sbu_0, # of connection points: 4
#     Node 86, Type 0, BuildingBlock: NAWXER_clean_sbu_0, # of connection points: 4
#     Node 87, Type 0, BuildingBlock: NAWXER_clean_sbu_0, # of connection points: 4
#     Node 88, Type 0, BuildingBlock: NAWXER_clean_sbu_0, # of connection points: 4
#     Node 89, Type 0, BuildingBlock: NAWXER_clean_sbu_0, # of connection points: 4
#     Node 90, Type 0, BuildingBlock: NAWXER_clean_sbu_0, # of connection points: 4
#     Node 91, Type 0, BuildingBlock: NAWXER_clean_sbu_0, # of connection points: 4
#     Node 92, Type 0, BuildingBlock: NAWXER_clean_sbu_0, # of connection points: 4
#     Node 93, Type 0, BuildingBlock: NAWXER_clean_sbu_0, # of connection points: 4
#     Node 94, Type 0, BuildingBlock: NAWXER_clean_sbu_0, # of connection points: 4
#     Node 95, Type 0, BuildingBlock: NAWXER_clean_sbu_0, # of connection points: 4
#     Edge 96, Type (0, 0), BuildingBlock: AJUNOK_clean_linker_0, # of connection points: 2
#     Edge 97, Type (0, 0), BuildingBlock: AJUNOK_clean_linker_0, # of connection points: 2
#     Edge 98, Type (0, 0), BuildingBlock: AJUNOK_clean_linker_0, # of connection points: 2
#     Edge 99, Type (0, 0), BuildingBlock: AJUNOK_clean_linker_0, # of connection points: 2
#     Edge 100, Type (0, 0), BuildingBlock: AJUNOK_clean_linker_0, # of connection points: 2
#     Edge 101, Type (0, 0), BuildingBlock: AJUNOK_clean_linker_0, # of connection points: 2
#     Edge 102, Type (0, 0), BuildingBlock: AJUNOK_clean_linker_0, # of connection points: 2
#     Edge 103, Type (0, 0), BuildingBlock: AJUNOK_clean_linker_0, # of connection points: 2
#     Edge 104, Type (0, 0), BuildingBlock: AJUNOK_clean_linker_0, # of connection points: 2
#     Edge 105, Type (0, 0), BuildingBlock: AJUNOK_clean_linker_0, # of connection points: 2
#     Edge 106, Type (0, 0), BuildingBlock: AJUNOK_clean_linker_0, # of connection points: 2
#     Edge 107, Type (0, 0), BuildingBlock: AJUNOK_clean_linker_0, # of connection points: 2
#     Edge 108, Type (0, 0), BuildingBlock: AJUNOK_clean_linker_0, # of connection points: 2
#     Edge 109, Type (0, 0), BuildingBlock: AJUNOK_clean_linker_0, # of connection points: 2
#     Edge 110, Type (0, 0), BuildingBlock: AJUNOK_clean_linker_0, # of connection points: 2
#     Edge 111, Type (0, 0), BuildingBlock: AJUNOK_clean_linker_0, # of connection points: 2
#     Edge 112, Type (0, 0), BuildingBlock: AJUNOK_clean_linker_0, # of connection points: 2
#     Edge 113, Type (0, 0), BuildingBlock: AJUNOK_clean_linker_0, # of connection points: 2
#     Edge 114, Type (0, 0), BuildingBlock: AJUNOK_clean_linker_0, # of connection points: 2
#     Edge 115, Type (0, 0), BuildingBlock: AJUNOK_clean_linker_0, # of connection points: 2
#     Edge 116, Type (0, 0), BuildingBlock: AJUNOK_clean_linker_0, # of connection points: 2
#     Edge 117, Type (0, 0), BuildingBlock: AJUNOK_clean_linker_0, # of connection points: 2
#     Edge 118, Type (0, 0), BuildingBlock: AJUNOK_clean_linker_0, # of connection points: 2
#     Edge 119, Type (0, 0), BuildingBlock: AJUNOK_clean_linker_0, # of connection points: 2
#     Edge 120, Type (0, 0), BuildingBlock: AJUNOK_clean_linker_0, # of connection points: 2
#     Edge 121, Type (0, 0), BuildingBlock: AJUNOK_clean_linker_0, # of connection points: 2
#     Edge 122, Type (0, 0), BuildingBlock: AJUNOK_clean_linker_0, # of connection points: 2
#     Edge 123, Type (0, 0), BuildingBlock: AJUNOK_clean_linker_0, # of connection points: 2
#     Edge 124, Type (0, 0), BuildingBlock: AJUNOK_clean_linker_0, # of connection points: 2
#     Edge 125, Type (0, 0), BuildingBlock: AJUNOK_clean_linker_0, # of connection points: 2
#     Edge 126, Type (0, 0), BuildingBlock: AJUNOK_clean_linker_0, # of connection points: 2
#     Edge 127, Type (0, 0), BuildingBlock: AJUNOK_clean_linker_0, # of connection points: 2
#     Edge 128, Type (0, 0), BuildingBlock: AJUNOK_clean_linker_0, # of connection points: 2
#     Edge 129, Type (0, 0), BuildingBlock: AJUNOK_clean_linker_0, # of connection points: 2
#     Edge 130, Type (0, 0), BuildingBlock: AJUNOK_clean_linker_0, # of connection points: 2
#     Edge 131, Type (0, 0), BuildingBlock: AJUNOK_clean_linker_0, # of connection points: 2
#     Edge 132, Type (0, 0), BuildingBlock: AJUNOK_clean_linker_0, # of connection points: 2
#     Edge 133, Type (0, 0), BuildingBlock: AJUNOK_clean_linker_0, # of connection points: 2
#     Edge 134, Type (0, 0), BuildingBlock: AJUNOK_clean_linker_0, # of connection points: 2
#     Edge 135, Type (0, 0), BuildingBlock: AJUNOK_clean_linker_0, # of connection points: 2
#     Edge 136, Type (0, 0), BuildingBlock: AJUNOK_clean_linker_0, # of connection points: 2
#     Edge 137, Type (0, 0), BuildingBlock: AJUNOK_clean_linker_0, # of connection points: 2
#     Edge 138, Type (0, 0), BuildingBlock: AJUNOK_clean_linker_0, # of connection points: 2
#     Edge 139, Type (0, 0), BuildingBlock: AJUNOK_clean_linker_0, # of connection points: 2
#     Edge 140, Type (0, 0), BuildingBlock: AJUNOK_clean_linker_0, # of connection points: 2
#     Edge 141, Type (0, 0), BuildingBlock: AJUNOK_clean_linker_0, # of connection points: 2
#     Edge 142, Type (0, 0), BuildingBlock: AJUNOK_clean_linker_0, # of connection points: 2
#     Edge 143, Type (0, 0), BuildingBlock: AJUNOK_clean_linker_0, # of connection points: 2
#     Edge 144, Type (0, 0), BuildingBlock: AJUNOK_clean_linker_0, # of connection points: 2
#     Edge 145, Type (0, 0), BuildingBlock: AJUNOK_clean_linker_0, # of connection points: 2
#     Edge 146, Type (0, 0), BuildingBlock: AJUNOK_clean_linker_0, # of connection points: 2
#     Edge 147, Type (0, 0), BuildingBlock: AJUNOK_clean_linker_0, # of connection points: 2
#     Edge 148, Type (0, 0), BuildingBlock: AJUNOK_clean_linker_0, # of connection points: 2
#     Edge 149, Type (0, 0), BuildingBlock: AJUNOK_clean_linker_0, # of connection points: 2
#     Edge 150, Type (0, 0), BuildingBlock: AJUNOK_clean_linker_0, # of connection points: 2
#     Edge 151, Type (0, 0), BuildingBlock: AJUNOK_clean_linker_0, # of connection points: 2
#     Edge 152, Type (0, 0), BuildingBlock: AJUNOK_clean_linker_0, # of connection points: 2
#     Edge 153, Type (0, 0), BuildingBlock: AJUNOK_clean_linker_0, # of connection points: 2
#     Edge 154, Type (0, 0), BuildingBlock: AJUNOK_clean_linker_0, # of connection points: 2
#     Edge 155, Type (0, 0), BuildingBlock: AJUNOK_clean_linker_0, # of connection points: 2
#     Edge 156, Type (0, 0), BuildingBlock: AJUNOK_clean_linker_0, # of connection points: 2
#     Edge 157, Type (0, 0), BuildingBlock: AJUNOK_clean_linker_0, # of connection points: 2
#     Edge 158, Type (0, 0), BuildingBlock: AJUNOK_clean_linker_0, # of connection points: 2
#     Edge 159, Type (0, 0), BuildingBlock: AJUNOK_clean_linker_0, # of connection points: 2
#     Edge 160, Type (0, 0), BuildingBlock: AJUNOK_clean_linker_0, # of connection points: 2
#     Edge 161, Type (0, 0), BuildingBlock: AJUNOK_clean_linker_0, # of connection points: 2
#     Edge 162, Type (0, 0), BuildingBlock: AJUNOK_clean_linker_0, # of connection points: 2
#     Edge 163, Type (0, 0), BuildingBlock: AJUNOK_clean_linker_0, # of connection points: 2
#     Edge 164, Type (0, 0), BuildingBlock: AJUNOK_clean_linker_0, # of connection points: 2
#     Edge 165, Type (0, 0), BuildingBlock: AJUNOK_clean_linker_0, # of connection points: 2
#     Edge 166, Type (0, 0), BuildingBlock: AJUNOK_clean_linker_0, # of connection points: 2
#     Edge 167, Type (0, 0), BuildingBlock: AJUNOK_clean_linker_0, # of connection points: 2
#     Edge 168, Type (0, 0), BuildingBlock: AJUNOK_clean_linker_0, # of connection points: 2
#     Edge 169, Type (0, 0), BuildingBlock: AJUNOK_clean_linker_0, # of connection points: 2
#     Edge 170, Type (0, 0), BuildingBlock: AJUNOK_clean_linker_0, # of connection points: 2
#     Edge 171, Type (0, 0), BuildingBlock: AJUNOK_clean_linker_0, # of connection points: 2
#     Edge 172, Type (0, 0), BuildingBlock: AJUNOK_clean_linker_0, # of connection points: 2
#     Edge 173, Type (0, 0), BuildingBlock: AJUNOK_clean_linker_0, # of connection points: 2
#     Edge 174, Type (0, 0), BuildingBlock: AJUNOK_clean_linker_0, # of connection points: 2
#     Edge 175, Type (0, 0), BuildingBlock: AJUNOK_clean_linker_0, # of connection points: 2
#     Edge 176, Type (0, 0), BuildingBlock: AJUNOK_clean_linker_0, # of connection points: 2
#     Edge 177, Type (0, 0), BuildingBlock: AJUNOK_clean_linker_0, # of connection points: 2
#     Edge 178, Type (0, 0), BuildingBlock: AJUNOK_clean_linker_0, # of connection points: 2
#     Edge 179, Type (0, 0), BuildingBlock: AJUNOK_clean_linker_0, # of connection points: 2
#     Edge 180, Type (0, 0), BuildingBlock: AJUNOK_clean_linker_0, # of connection points: 2
#     Edge 181, Type (0, 0), BuildingBlock: AJUNOK_clean_linker_0, # of connection points: 2
#     Edge 182, Type (0, 0), BuildingBlock: AJUNOK_clean_linker_0, # of connection points: 2
#     Edge 183, Type (0, 0), BuildingBlock: AJUNOK_clean_linker_0, # of connection points: 2
#     Edge 184, Type (0, 0), BuildingBlock: AJUNOK_clean_linker_0, # of connection points: 2
#     Edge 185, Type (0, 0), BuildingBlock: AJUNOK_clean_linker_0, # of connection points: 2
#     Edge 186, Type (0, 0), BuildingBlock: AJUNOK_clean_linker_0, # of connection points: 2
#     Edge 187, Type (0, 0), BuildingBlock: AJUNOK_clean_linker_0, # of connection points: 2
#     Edge 188, Type (0, 0), BuildingBlock: AJUNOK_clean_linker_0, # of connection points: 2
#     Edge 189, Type (0, 0), BuildingBlock: AJUNOK_clean_linker_0, # of connection points: 2
#     Edge 190, Type (0, 0), BuildingBlock: AJUNOK_clean_linker_0, # of connection points: 2
#     Edge 191, Type (0, 0), BuildingBlock: AJUNOK_clean_linker_0, # of connection points: 2
#     Edge 192, Type (0, 0), BuildingBlock: AJUNOK_clean_linker_0, # of connection points: 2
#     Edge 193, Type (0, 0), BuildingBlock: AJUNOK_clean_linker_0, # of connection points: 2
#     Edge 194, Type (0, 0), BuildingBlock: AJUNOK_clean_linker_0, # of connection points: 2
#     Edge 195, Type (0, 0), BuildingBlock: AJUNOK_clean_linker_0, # of connection points: 2
#     Edge 196, Type (0, 0), BuildingBlock: AJUNOK_clean_linker_0, # of connection points: 2
#     Edge 197, Type (0, 0), BuildingBlock: AJUNOK_clean_linker_0, # of connection points: 2
#     Edge 198, Type (0, 0), BuildingBlock: AJUNOK_clean_linker_0, # of connection points: 2
#     Edge 199, Type (0, 0), BuildingBlock: AJUNOK_clean_linker_0, # of connection points: 2
#     Edge 200, Type (0, 0), BuildingBlock: AJUNOK_clean_linker_0, # of connection points: 2
#     Edge 201, Type (0, 0), BuildingBlock: AJUNOK_clean_linker_0, # of connection points: 2
#     Edge 202, Type (0, 0), BuildingBlock: AJUNOK_clean_linker_0, # of connection points: 2
#     Edge 203, Type (0, 0), BuildingBlock: AJUNOK_clean_linker_0, # of connection points: 2
#     Edge 204, Type (0, 0), BuildingBlock: AJUNOK_clean_linker_0, # of connection points: 2
#     Edge 205, Type (0, 0), BuildingBlock: AJUNOK_clean_linker_0, # of connection points: 2
#     Edge 206, Type (0, 0), BuildingBlock: AJUNOK_clean_linker_0, # of connection points: 2
#     Edge 207, Type (0, 0), BuildingBlock: AJUNOK_clean_linker_0, # of connection points: 2
#     Edge 208, Type (0, 0), BuildingBlock: AJUNOK_clean_linker_0, # of connection points: 2
#     Edge 209, Type (0, 0), BuildingBlock: AJUNOK_clean_linker_0, # of connection points: 2
#     Edge 210, Type (0, 0), BuildingBlock: AJUNOK_clean_linker_0, # of connection points: 2
#     Edge 211, Type (0, 0), BuildingBlock: AJUNOK_clean_linker_0, # of connection points: 2
#     Edge 212, Type (0, 0), BuildingBlock: AJUNOK_clean_linker_0, # of connection points: 2
#     Edge 213, Type (0, 0), BuildingBlock: AJUNOK_clean_linker_0, # of connection points: 2
#     Edge 214, Type (0, 0), BuildingBlock: AJUNOK_clean_linker_0, # of connection points: 2
#     Edge 215, Type (0, 0), BuildingBlock: AJUNOK_clean_linker_0, # of connection points: 2
#     Edge 216, Type (0, 0), BuildingBlock: AJUNOK_clean_linker_0, # of connection points: 2
#     Edge 217, Type (0, 0), BuildingBlock: AJUNOK_clean_linker_0, # of connection points: 2
#     Edge 218, Type (0, 0), BuildingBlock: AJUNOK_clean_linker_0, # of connection points: 2
#     Edge 219, Type (0, 0), BuildingBlock: AJUNOK_clean_linker_0, # of connection points: 2
#     Edge 220, Type (0, 0), BuildingBlock: AJUNOK_clean_linker_0, # of connection points: 2
#     Edge 221, Type (0, 0), BuildingBlock: AJUNOK_clean_linker_0, # of connection points: 2
#     Edge 222, Type (0, 0), BuildingBlock: AJUNOK_clean_linker_0, # of connection points: 2
#     Edge 223, Type (0, 0), BuildingBlock: AJUNOK_clean_linker_0, # of connection points: 2
#     Edge 224, Type (0, 0), BuildingBlock: AJUNOK_clean_linker_0, # of connection points: 2
#     Edge 225, Type (0, 0), BuildingBlock: AJUNOK_clean_linker_0, # of connection points: 2
#     Edge 226, Type (0, 0), BuildingBlock: AJUNOK_clean_linker_0, # of connection points: 2
#     Edge 227, Type (0, 0), BuildingBlock: AJUNOK_clean_linker_0, # of connection points: 2
#     Edge 228, Type (0, 0), BuildingBlock: AJUNOK_clean_linker_0, # of connection points: 2
#     Edge 229, Type (0, 0), BuildingBlock: AJUNOK_clean_linker_0, # of connection points: 2
#     Edge 230, Type (0, 0), BuildingBlock: AJUNOK_clean_linker_0, # of connection points: 2
#     Edge 231, Type (0, 0), BuildingBlock: AJUNOK_clean_linker_0, # of connection points: 2
#     Edge 232, Type (0, 0), BuildingBlock: AJUNOK_clean_linker_0, # of connection points: 2
#     Edge 233, Type (0, 0), BuildingBlock: AJUNOK_clean_linker_0, # of connection points: 2
#     Edge 234, Type (0, 0), BuildingBlock: AJUNOK_clean_linker_0, # of connection points: 2
#     Edge 235, Type (0, 0), BuildingBlock: AJUNOK_clean_linker_0, # of connection points: 2
#     Edge 236, Type (0, 0), BuildingBlock: AJUNOK_clean_linker_0, # of connection points: 2
#     Edge 237, Type (0, 0), BuildingBlock: AJUNOK_clean_linker_0, # of connection points: 2
#     Edge 238, Type (0, 0), BuildingBlock: AJUNOK_clean_linker_0, # of connection points: 2
#     Edge 239, Type (0, 0), BuildingBlock: AJUNOK_clean_linker_0, # of connection points: 2
#     Edge 240, Type (0, 0), BuildingBlock: AJUNOK_clean_linker_0, # of connection points: 2
#     Edge 241, Type (0, 0), BuildingBlock: AJUNOK_clean_linker_0, # of connection points: 2
#     Edge 242, Type (0, 0), BuildingBlock: AJUNOK_clean_linker_0, # of connection points: 2
#     Edge 243, Type (0, 0), BuildingBlock: AJUNOK_clean_linker_0, # of connection points: 2
#     Edge 244, Type (0, 0), BuildingBlock: AJUNOK_clean_linker_0, # of connection points: 2
#     Edge 245, Type (0, 0), BuildingBlock: AJUNOK_clean_linker_0, # of connection points: 2
#     Edge 246, Type (0, 0), BuildingBlock: AJUNOK_clean_linker_0, # of connection points: 2
#     Edge 247, Type (0, 0), BuildingBlock: AJUNOK_clean_linker_0, # of connection points: 2
#     Edge 248, Type (0, 0), BuildingBlock: AJUNOK_clean_linker_0, # of connection points: 2
#     Edge 249, Type (0, 0), BuildingBlock: AJUNOK_clean_linker_0, # of connection points: 2
#     Edge 250, Type (0, 0), BuildingBlock: AJUNOK_clean_linker_0, # of connection points: 2
#     Edge 251, Type (0, 0), BuildingBlock: AJUNOK_clean_linker_0, # of connection points: 2
#     Edge 252, Type (0, 0), BuildingBlock: AJUNOK_clean_linker_0, # of connection points: 2
#     Edge 253, Type (0, 0), BuildingBlock: AJUNOK_clean_linker_0, # of connection points: 2
#     Edge 254, Type (0, 0), BuildingBlock: AJUNOK_clean_linker_0, # of connection points: 2
#     Edge 255, Type (0, 0), BuildingBlock: AJUNOK_clean_linker_0, # of connection points: 2
#     Edge 256, Type (0, 0), BuildingBlock: AJUNOK_clean_linker_0, # of connection points: 2
#     Edge 257, Type (0, 0), BuildingBlock: AJUNOK_clean_linker_0, # of connection points: 2
#     Edge 258, Type (0, 0), BuildingBlock: AJUNOK_clean_linker_0, # of connection points: 2
#     Edge 259, Type (0, 0), BuildingBlock: AJUNOK_clean_linker_0, # of connection points: 2
#     Edge 260, Type (0, 0), BuildingBlock: AJUNOK_clean_linker_0, # of connection points: 2
#     Edge 261, Type (0, 0), BuildingBlock: AJUNOK_clean_linker_0, # of connection points: 2
#     Edge 262, Type (0, 0), BuildingBlock: AJUNOK_clean_linker_0, # of connection points: 2
#     Edge 263, Type (0, 0), BuildingBlock: AJUNOK_clean_linker_0, # of connection points: 2
#     Edge 264, Type (0, 0), BuildingBlock: AJUNOK_clean_linker_0, # of connection points: 2
#     Edge 265, Type (0, 0), BuildingBlock: AJUNOK_clean_linker_0, # of connection points: 2
#     Edge 266, Type (0, 0), BuildingBlock: AJUNOK_clean_linker_0, # of connection points: 2
#     Edge 267, Type (0, 0), BuildingBlock: AJUNOK_clean_linker_0, # of connection points: 2
#     Edge 268, Type (0, 0), BuildingBlock: AJUNOK_clean_linker_0, # of connection points: 2
#     Edge 269, Type (0, 0), BuildingBlock: AJUNOK_clean_linker_0, # of connection points: 2
#     Edge 270, Type (0, 0), BuildingBlock: AJUNOK_clean_linker_0, # of connection points: 2
#     Edge 271, Type (0, 0), BuildingBlock: AJUNOK_clean_linker_0, # of connection points: 2
#     Edge 272, Type (0, 0), BuildingBlock: AJUNOK_clean_linker_0, # of connection points: 2
#     Edge 273, Type (0, 0), BuildingBlock: AJUNOK_clean_linker_0, # of connection points: 2
#     Edge 274, Type (0, 0), BuildingBlock: AJUNOK_clean_linker_0, # of connection points: 2
#     Edge 275, Type (0, 0), BuildingBlock: AJUNOK_clean_linker_0, # of connection points: 2
#     Edge 276, Type (0, 0), BuildingBlock: AJUNOK_clean_linker_0, # of connection points: 2
#     Edge 277, Type (0, 0), BuildingBlock: AJUNOK_clean_linker_0, # of connection points: 2
#     Edge 278, Type (0, 0), BuildingBlock: AJUNOK_clean_linker_0, # of connection points: 2
#     Edge 279, Type (0, 0), BuildingBlock: AJUNOK_clean_linker_0, # of connection points: 2
#     Edge 280, Type (0, 0), BuildingBlock: AJUNOK_clean_linker_0, # of connection points: 2
#     Edge 281, Type (0, 0), BuildingBlock: AJUNOK_clean_linker_0, # of connection points: 2
#     Edge 282, Type (0, 0), BuildingBlock: AJUNOK_clean_linker_0, # of connection points: 2
#     Edge 283, Type (0, 0), BuildingBlock: AJUNOK_clean_linker_0, # of connection points: 2
#     Edge 284, Type (0, 0), BuildingBlock: AJUNOK_clean_linker_0, # of connection points: 2
#     Edge 285, Type (0, 0), BuildingBlock: AJUNOK_clean_linker_0, # of connection points: 2
#     Edge 286, Type (0, 0), BuildingBlock: AJUNOK_clean_linker_0, # of connection points: 2
#     Edge 287, Type (0, 0), BuildingBlock: AJUNOK_clean_linker_0, # of connection points: 2
# Relax obj value: 0.146
# Max RMSD: 0.291
# Mean RMSD: 0.291
data_MOF--net-ulh--node1-NAWXER_clean_sbu_0--edge1-AJUNOK_clean_linker_0
_symmetry_space_group_name_H-M    P1
_symmetry_Int_Tables_number       1
_symmetry_cell_setting            triclinic
loop_
_symmetry_equiv_pos_as_xyz
'x, y, z'
_cell_length_a     61.150633
_cell_length_b     61.156709
_cell_length_c     61.157068
_cell_angle_alpha  90.005457
_cell_angle_beta   90.003152
_cell_angle_gamma 90.028786
loop_
_atom_site_label
_atom_site_type_symbol
_atom_site_fract_x
_atom_site_fract_y
_atom_site_fract_z
_atom_type_partial_charge
C0 C 0.01234 0.31498 0.04173 0.0
C1 C 0.03083 0.35258 0.10848 0.0
O2 O 0.0284 0.30528 0.05119 0.0
Zn3 Zn 0.0453 0.30896 0.08244 0.0
O4 O 0.00311 0.3311 0.05089 0.0
Zn5 Zn 0.0211 0.3321 0.076 0.0
O6 O 0.05348 0.33931 0.06308 0.0
O7 O 0.07508 0.31212 0.07309 0.0
O8 O 0.0156 0.35602 0.09489 0.0
O9 O 0.04303 0.33563 0.10606 0.0
O10 O 0.03805 0.28268 0.09843 0.0
O11 O 0.00988 0.3045 0.09386 0.0
C12 C 0.07248 0.33032 0.06342 0.0
C13 C 0.0179 0.28663 0.10123 0.0
C14 C 0.93004 0.26018 0.29236 0.0
C15 C 0.892 0.28013 0.35845 0.0
O16 O 0.93961 0.27646 0.30158 0.0
Zn17 Zn 0.93583 0.29392 0.33249 0.0
O18 O 0.91401 0.25094 0.30168 0.0
Zn19 Zn 0.91274 0.26946 0.32644 0.0
O20 O 0.90576 0.30146 0.31259 0.0
O21 O 0.93268 0.32351 0.3226 0.0
O22 O 0.88846 0.26457 0.34523 0.0
O23 O 0.90906 0.29214 0.35588 0.0
O24 O 0.96199 0.28714 0.34874 0.0
O25 O 0.94026 0.25878 0.34475 0.0
C26 C 0.91475 0.32046 0.31254 0.0
C27 C 0.95807 0.26705 0.352 0.0
C28 C 0.97779 0.20418 0.60284 0.0
C29 C 0.92267 0.16263 0.56352 0.0
O30 O 0.98527 0.18613 0.59539 0.0
Zn31 Zn 0.97374 0.15934 0.57664 0.0
O32 O 0.95802 0.2093 0.59921 0.0
Zn33 Zn 0.95022 0.18332 0.58287 0.0
O34 O 0.95162 0.15653 0.60651 0.0
O35 O 0.97828 0.13509 0.59531 0.0
O36 O 0.92046 0.18091 0.57315 0.0
O37 O 0.94142 0.15315 0.56336 0.0
O38 O 0.9923 0.16024 0.55198 0.0
O39 O 0.96788 0.18686 0.55208 0.0
C40 C 0.96322 0.13915 0.60893 0.0
C41 C 0.98393 0.17687 0.54293 0.0
C42 C 0.08159 0.1729 0.8133 0.0
C43 C 0.03771 0.22826 0.84974 0.0
O44 O 0.09074 0.19181 0.81317 0.0
Zn45 Zn 0.08391 0.2241 0.82609 0.0
O46 O 0.0635 0.17018 0.82317 0.0
Zn47 Zn 0.06034 0.2001 0.83244 0.0
O48 O 0.0575 0.21694 0.80096 0.0
O49 O 0.08374 0.24187 0.80087 0.0
O50 O 0.03372 0.20799 0.84785 0.0
O51 O 0.05586 0.2358 0.84261 0.0
O52 O 0.1074 0.22943 0.84561 0.0
O53 O 0.08649 0.20227 0.85649 0.0
C54 C 0.06762 0.23277 0.79153 0.0
C55 C 0.10351 0.21432 0.85921 0.0
C56 C 0.01058 0.6758 0.95304 0.0
C57 C 0.03122 0.64038 0.88574 0.0
O58 O 0.02647 0.6862 0.94402 0.0
Zn59 Zn 0.04413 0.68362 0.913 0.0
O60 O 0.00223 0.65931 0.94366 0.0
Zn61 Zn 0.02053 0.65951 0.91881 0.0
O62 O 0.05272 0.6533 0.9322 0.0
O63 O 0.07389 0.68108 0.92271 0.0
O64 O 0.01601 0.63596 0.89909 0.0
O65 O 0.04282 0.65764 0.88877 0.0
O66 O 0.03619 0.71008 0.8976 0.0
O67 O 0.00864 0.68744 0.90214 0.0
C68 C 0.07143 0.66286 0.93238 0.0
C69 C 0.01604 0.70575 0.89525 0.0
C70 C 0.56506 0.26128 0.20293 0.0
C71 C 0.60331 0.28165 0.13716 0.0
O72 O 0.55529 0.2775 0.19385 0.0
Zn73 Zn 0.55914 0.29516 0.16307 0.0
O74 O 0.58158 0.25273 0.19386 0.0
Zn75 Zn 0.58279 0.27135 0.16929 0.0
O76 O 0.58938 0.30357 0.18261 0.0
O77 O 0.56187 0.32487 0.17285 0.0
O78 O 0.60706 0.26651 0.15077 0.0
O79 O 0.58605 0.29347 0.13949 0.0
O80 O 0.53306 0.28775 0.14664 0.0
O81 O 0.55596 0.26025 0.15037 0.0
C82 C 0.58012 0.32244 0.18247 0.0
C83 C 0.53801 0.26797 0.14291 0.0
C84 C 0.9815 0.8138 0.45249 0.0
C85 C 0.96332 0.85163 0.38586 0.0
O86 O 0.96536 0.80423 0.44301 0.0
Zn87 Zn 0.94864 0.80791 0.41161 0.0
O88 O 0.99107 0.82967 0.44323 0.0
Zn89 Zn 0.97312 0.83084 0.41814 0.0
O90 O 0.94093 0.83806 0.43134 0.0
O91 O 0.91882 0.81133 0.42096 0.0
O92 O 0.97866 0.85489 0.39937 0.0
O93 O 0.95106 0.8347 0.38819 0.0
O94 O 0.95581 0.78155 0.39558 0.0
O95 O 0.98408 0.80323 0.4003 0.0
C96 C 0.92186 0.82922 0.4311 0.0
C97 C 0.976 0.78541 0.39288 0.0
C98 C 0.42758 0.23227 0.70424 0.0
C99 C 0.39183 0.21362 0.63649 0.0
O100 O 0.43776 0.21643 0.69488 0.0
Zn101 Zn 0.43498 0.19953 0.66336 0.0
O102 O 0.41132 0.24114 0.69495 0.0
Zn103 Zn 0.41135 0.2234 0.6697 0.0
O104 O 0.40459 0.19105 0.68252 0.0
O105 O 0.43193 0.16957 0.67249 0.0
O106 O 0.38791 0.22871 0.6501 0.0
O107 O 0.40886 0.20162 0.63921 0.0
O108 O 0.46164 0.20749 0.64806 0.0
O109 O 0.43951 0.23528 0.65341 0.0
C110 C 0.4138 0.17218 0.68231 0.0
C111 C 0.4577 0.22779 0.64633 0.0
C112 C 0.10002 0.01803 0.28669 0.0
C113 C 0.06273 0.07197 0.3314 0.0
O114 O 0.09362 0.00994 0.30491 0.0
Zn115 Zn 0.07659 0.02094 0.33322 0.0
O116 O 0.09653 0.03807 0.28273 0.0
Zn117 Zn 0.08137 0.04499 0.30953 0.0
O118 O 0.10613 0.04373 0.33522 0.0
O119 O 0.09665 0.01626 0.35646 0.0
O120 O 0.07139 0.07451 0.31269 0.0
O121 O 0.06323 0.05309 0.34064 0.0
O122 O 0.05193 0.00223 0.33345 0.0
O123 O 0.05058 0.02698 0.30716 0.0
C124 C 0.10961 0.03187 0.35222 0.0
C125 C 0.04201 0.01073 0.31738 0.0
C126 C 0.23388 0.29151 0.5667 0.0
C127 C 0.21471 0.35891 0.60271 0.0
O128 O 0.21806 0.30085 0.55649 0.0
Zn129 Zn 0.20094 0.33221 0.55936 0.0
O130 O 0.24273 0.30083 0.58297 0.0
Zn131 Zn 0.22479 0.32591 0.58305 0.0
O132 O 0.19255 0.31272 0.58957 0.0
O133 O 0.17104 0.32275 0.56225 0.0
O134 O 0.22986 0.34537 0.60662 0.0
O135 O 0.20278 0.35621 0.58562 0.0
O136 O 0.20892 0.34771 0.53283 0.0
O137 O 0.23661 0.34249 0.5551 0.0
C138 C 0.17371 0.31278 0.58028 0.0
C139 C 0.22917 0.34963 0.53693 0.0
C140 C 0.89396 0.47617 0.78735 0.0
C141 C 0.93179 0.4219 0.83122 0.0
O142 O 0.90123 0.48424 0.80524 0.0
Zn143 Zn 0.91907 0.47321 0.83292 0.0
O144 O 0.89682 0.45603 0.78343 0.0
Zn145 Zn 0.91288 0.44898 0.80974 0.0
O146 O 0.88925 0.45103 0.83647 0.0
O147 O 0.90014 0.47861 0.85685 0.0
O148 O 0.92238 0.41929 0.81288 0.0
O149 O 0.93202 0.4409 0.84021 0.0
O150 O 0.94401 0.49138 0.83198 0.0
O151 O 0.94396 0.46623 0.80602 0.0
C152 C 0.88677 0.46317 0.85346 0.0
C153 C 0.95318 0.48245 0.8157 0.0
C154 C 0.76031 0.20261 0.06725 0.0
C155 C 0.78043 0.13584 0.10392 0.0
O156 O 0.77665 0.19375 0.05745 0.0
Zn157 Zn 0.79431 0.16279 0.06067 0.0
O158 O 0.75136 0.193 0.08327 0.0
Zn159 Zn 0.76996 0.16836 0.08389 0.0
O160 O 0.802 0.18203 0.09116 0.0
O161 O 0.82393 0.17261 0.06397 0.0
O162 O 0.76494 0.14906 0.10762 0.0
O163 O 0.79252 0.13874 0.08696 0.0
O164 O 0.78748 0.14697 0.03417 0.0
O165 O 0.7592 0.15057 0.05604 0.0
C166 C 0.82099 0.18224 0.08213 0.0
C167 C 0.76741 0.14361 0.03809 0.0
C168 C 0.06047 0.92502 0.66285 0.0
C169 C 0.10029 0.97756 0.70716 0.0
O170 O 0.06071 0.94418 0.65424 0.0
Zn171 Zn 0.07473 0.97591 0.6618 0.0
O172 O 0.07049 0.92156 0.68073 0.0
Zn173 Zn 0.08072 0.95101 0.68447 0.0
O174 O 0.04995 0.96862 0.68869 0.0
O175 O 0.05005 0.9945 0.66345 0.0
O176 O 0.09709 0.95741 0.7108 0.0
O177 O 0.09301 0.98604 0.68947 0.0
O178 O 0.09364 0.98114 0.6377 0.0
O179 O 0.1041 0.9531 0.65766 0.0
C180 C 0.04082 0.98515 0.67948 0.0
C181 C 0.10674 0.96541 0.64082 0.0
C182 C 0.26186 0.29162 0.93116 0.0
C183 C 0.28336 0.35712 0.89303 0.0
O184 O 0.27818 0.30058 0.94089 0.0
Zn185 Zn 0.29609 0.33119 0.93733 0.0
O186 O 0.25296 0.30106 0.91503 0.0
Zn187 Zn 0.27201 0.3254 0.91366 0.0
O188 O 0.30386 0.31119 0.90729 0.0
O189 O 0.32569 0.3209 0.93448 0.0
O190 O 0.26787 0.3439 0.88917 0.0
O191 O 0.29498 0.35458 0.91038 0.0
O192 O 0.28878 0.34776 0.96339 0.0
O193 O 0.26136 0.34478 0.94026 0.0
C194 C 0.32274 0.31089 0.9165 0.0
C195 C 0.26917 0.35209 0.95823 0.0
C196 C 0.89272 0.51747 0.20814 0.0
C197 C 0.9298 0.57237 0.16445 0.0
O198 O 0.89937 0.50975 0.18986 0.0
Zn199 Zn 0.91639 0.52127 0.16189 0.0
O200 O 0.89587 0.5375 0.21242 0.0
Zn201 Zn 0.91113 0.54503 0.1858 0.0
O202 O 0.88665 0.54378 0.15986 0.0
O203 O 0.89662 0.51659 0.13849 0.0
O204 O 0.92082 0.57471 0.18304 0.0
O205 O 0.92957 0.55358 0.15502 0.0
O206 O 0.94116 0.50284 0.16162 0.0
O207 O 0.94216 0.52743 0.1881 0.0
C208 C 0.88347 0.53202 0.14272 0.0
C209 C 0.95093 0.51137 0.17776 0.0
C210 C 0.73229 0.20085 0.42876 0.0
C211 C 0.7124 0.13395 0.39209 0.0
O212 O 0.71606 0.19176 0.43854 0.0
Zn213 Zn 0.69859 0.16078 0.43536 0.0
O214 O 0.74148 0.19132 0.41283 0.0
Zn215 Zn 0.72304 0.1665 0.41205 0.0
O216 O 0.6911 0.18008 0.40485 0.0
O217 O 0.66895 0.17062 0.43188 0.0
O218 O 0.72793 0.14714 0.38827 0.0
O219 O 0.70041 0.13687 0.40909 0.0
O220 O 0.70565 0.14501 0.46187 0.0
O221 O 0.73379 0.14889 0.43985 0.0
C222 C 0.67208 0.18031 0.41376 0.0
C223 C 0.72574 0.14188 0.45784 0.0
C224 C 0.28854 0.1006 0.01593 0.0
C225 C 0.3303 0.06289 0.07217 0.0
O226 O 0.30669 0.09302 0.00888 0.0
Zn227 Zn 0.3339 0.07559 0.02107 0.0
O228 O 0.28376 0.09833 0.03599 0.0
Zn229 Zn 0.30986 0.08234 0.04454 0.0
O230 O 0.33647 0.10596 0.04289 0.0
O231 O 0.35795 0.0946 0.01638 0.0
O232 O 0.31232 0.07306 0.07456 0.0
O233 O 0.33978 0.0626 0.05344 0.0
O234 O 0.33346 0.05041 0.00321 0.0
O235 O 0.30674 0.05099 0.0276 0.0
C236 C 0.35384 0.10835 0.0313 0.0
C237 C 0.31697 0.04139 0.01195 0.0
C238 C 0.85268 0.88486 0.46338 0.0
C239 C 0.81661 0.95242 0.48181 0.0
O240 O 0.83558 0.88746 0.45143 0.0
Zn241 Zn 0.8093 0.91136 0.44933 0.0
O242 O 0.85655 0.89847 0.47849 0.0
Zn243 Zn 0.83294 0.91786 0.47322 0.0
O244 O 0.80499 0.90129 0.48512 0.0
O245 O 0.78273 0.89589 0.45747 0.0
O246 O 0.8328 0.94317 0.49086 0.0
O247 O 0.80645 0.9429 0.46606 0.0
O248 O 0.81238 0.92049 0.41932 0.0
O249 O 0.83965 0.93063 0.44085 0.0
C250 C 0.78683 0.89406 0.47773 0.0
C251 C 0.83048 0.93038 0.42196 0.0
C252 C 0.35111 0.03651 0.72802 0.0
C253 C 0.31319 0.08039 0.67381 0.0
O254 O 0.34412 0.0545 0.73611 0.0
Zn255 Zn 0.32641 0.08228 0.72503 0.0
O256 O 0.34788 0.03252 0.70795 0.0
Zn257 Zn 0.33208 0.05893 0.70091 0.0
O258 O 0.35609 0.08536 0.70257 0.0
O259 O 0.34567 0.106 0.73012 0.0
O260 O 0.32239 0.06194 0.67127 0.0
O261 O 0.31323 0.08954 0.69275 0.0
O262 O 0.30159 0.0818 0.74342 0.0
O263 O 0.30105 0.05575 0.71838 0.0
C264 C 0.3589 0.10236 0.71462 0.0
C265 C 0.29207 0.06566 0.7346 0.0
C266 C 0.16351 0.56295 0.92268 0.0
C267 C 0.20805 0.60139 0.9761 0.0
O268 O 0.15483 0.56292 0.94181 0.0
Zn269 Zn 0.16248 0.57631 0.97386 0.0
O270 O 0.18151 0.57286 0.91947 0.0
Zn271 Zn 0.18524 0.58239 0.94916 0.0
O272 O 0.18881 0.55114 0.96616 0.0
O273 O 0.16358 0.55141 0.99206 0.0
O274 O 0.21174 0.59834 0.95593 0.0
O275 O 0.19027 0.59417 0.98443 0.0
O276 O 0.13866 0.59526 0.97946 0.0
O277 O 0.15868 0.60604 0.95158 0.0
C278 C 0.17929 0.54191 0.98246 0.0
C279 C 0.14189 0.60861 0.96397 0.0
C280 C 0.14211 0.95852 0.22551 0.0
C281 C 0.18059 0.91529 0.17105 0.0
O282 O 0.14925 0.9405 0.23339 0.0
Zn283 Zn 0.1672 0.91299 0.22218 0.0
O284 O 0.14529 0.96276 0.20547 0.0
Zn285 Zn 0.16132 0.93651 0.19812 0.0
O286 O 0.13761 0.90994 0.19966 0.0
O287 O 0.14815 0.88893 0.22694 0.0
O288 O 0.17103 0.93354 0.16839 0.0
O289 O 0.18063 0.90615 0.18998 0.0
O290 O 0.19201 0.91372 0.2406 0.0
O291 O 0.19231 0.93979 0.21556 0.0
C292 C 0.13491 0.89277 0.21147 0.0
C293 C 0.20143 0.92988 0.23169 0.0
C294 C 0.67768 0.95089 0.01225 0.0
C295 C 0.63949 0.88477 0.03201 0.0
O296 O 0.68745 0.94143 0.02826 0.0
Zn297 Zn 0.68375 0.91046 0.04542 0.0
O298 O 0.66137 0.94183 0.00325 0.0
Zn299 Zn 0.66013 0.91685 0.02151 0.0
O300 O 0.65356 0.92995 0.05382 0.0
O301 O 0.681 0.92006 0.07519 0.0
O302 O 0.63579 0.89827 0.01674 0.0
O303 O 0.65678 0.88708 0.04375 0.0
O304 O 0.70978 0.89412 0.03782 0.0
O305 O 0.68698 0.8981 0.01027 0.0
C306 C 0.66277 0.92972 0.07271 0.0
C307 C 0.7049 0.89059 0.01797 0.0
C308 C 0.31435 0.41138 0.82193 0.0
C309 C 0.35021 0.45397 0.76524 0.0
O310 O 0.3139 0.40181 0.80322 0.0
Zn311 Zn 0.32627 0.40801 0.77057 0.0
O312 O 0.32383 0.42977 0.82388 0.0
Zn313 Zn 0.33291 0.43209 0.7939 0.0
O314 O 0.30152 0.43503 0.77698 0.0
O315 O 0.30094 0.40796 0.75297 0.0
O316 O 0.34855 0.45833 0.78545 0.0
O317 O 0.3429 0.43573 0.75811 0.0
O318 O 0.34554 0.38428 0.76551 0.0
O319 O 0.35669 0.4056 0.79224 0.0
C320 C 0.29201 0.42466 0.76137 0.0
C321 C 0.35917 0.38829 0.78056 0.0
C322 C 0.68157 0.07902 0.32149 0.0
C323 C 0.64517 0.03599 0.26551 0.0
O324 O 0.68166 0.08857 0.30277 0.0
Zn325 Zn 0.66893 0.08215 0.27029 0.0
O326 O 0.67237 0.0605 0.32358 0.0
Zn327 Zn 0.66299 0.05797 0.29373 0.0
O328 O 0.69416 0.05543 0.27643 0.0
O329 O 0.69403 0.08238 0.2523 0.0
O330 O 0.64751 0.03156 0.28563 0.0
O331 O 0.65215 0.0543 0.2582 0.0
O332 O 0.64927 0.10568 0.26553 0.0
O333 O 0.63873 0.084 0.29226 0.0
C334 C 0.70334 0.06587 0.26067 0.0
C335 C 0.6358 0.10127 0.28065 0.0
C336 C 0.00699 0.81665 0.54182 0.0
C337 C 0.02749 0.8562 0.60695 0.0
O338 O 0.02319 0.80717 0.55125 0.0
Zn339 Zn 0.04075 0.81157 0.58193 0.0
O340 O -0.00182 0.83324 0.55055 0.0
Zn341 Zn 0.01676 0.8351 0.57522 0.0
O342 O 0.04882 0.84126 0.5615 0.0
O343 O 0.07048 0.81427 0.57204 0.0
O344 O 0.01224 0.85984 0.5934 0.0
O345 O 0.03915 0.83883 0.60483 0.0
O346 O 0.03329 0.78592 0.59893 0.0
O347 O 0.00573 0.80863 0.59461 0.0
C348 C 0.06771 0.83208 0.56169 0.0
C349 C 0.01346 0.79088 0.60248 0.0
C350 C 0.95739 0.76827 0.8545 0.0
C351 C 0.91725 0.82472 0.81613 0.0
O352 O 0.93936 0.76116 0.84668 0.0
Zn353 Zn 0.9129 0.7735 0.82811 0.0
O354 O 0.96272 0.78809 0.85155 0.0
Zn355 Zn 0.93694 0.79662 0.83531 0.0
O356 O 0.90992 0.79471 0.8587 0.0
O357 O 0.8884 0.76871 0.84623 0.0
O358 O 0.935 0.8268 0.8267 0.0
O359 O 0.90757 0.80609 0.81522 0.0
O360 O 0.91368 0.75551 0.80316 0.0
O361 O 0.94046 0.77982 0.80376 0.0
C362 C 0.89243 0.78314 0.8605 0.0
C363 C 0.9303 0.76405 0.79425 0.0
C364 C 0.98175 0.67739 0.0416 0.0
C365 C 0.96134 0.64221 0.10898 0.0
O366 O 0.96577 0.68771 0.0505 0.0
Zn367 Zn 0.94833 0.68538 0.08155 0.0
O368 O 0.99052 0.6614 0.0514 0.0
Zn369 Zn 0.97216 0.66155 0.07623 0.0
O370 O 0.93982 0.65462 0.06304 0.0
O371 O 0.91861 0.68254 0.07188 0.0
O372 O 0.9768 0.63801 0.09585 0.0
O373 O 0.94961 0.65936 0.10588 0.0
O374 O 0.95588 0.71193 0.0969 0.0
O375 O 0.98367 0.68944 0.09348 0.0
C376 C 0.921 0.66398 0.06284 0.0
C377 C 0.9759 0.70767 0.10017 0.0
C378 C 0.06483 0.73378 0.29041 0.0
C379 C 0.10286 0.71393 0.35655 0.0
O380 O 0.0555 0.71727 0.29947 0.0
Zn381 Zn 0.05939 0.69962 0.33021 0.0
O382 O 0.08067 0.74324 0.29986 0.0
Zn383 Zn 0.08213 0.72456 0.32449 0.0
O384 O 0.08982 0.69286 0.31045 0.0
O385 O 0.06327 0.67017 0.31997 0.0
O386 O 0.1061 0.72973 0.34355 0.0
O387 O 0.08601 0.70166 0.35375 0.0
O388 O 0.03293 0.706 0.3464 0.0
O389 O 0.05436 0.73461 0.34263 0.0
C390 C 0.08124 0.67368 0.31011 0.0
C391 C 0.0366 0.72613 0.34976 0.0
C392 C 0.01246 0.17833 0.45443 0.0
C393 C 0.03215 0.14193 0.3874 0.0
O394 O 0.02849 0.18837 0.44528 0.0
Zn395 Zn 0.04569 0.18542 0.41418 0.0
O396 O 0.00352 0.16224 0.44494 0.0
Zn397 Zn 0.02173 0.16181 0.41997 0.0
O398 O 0.05412 0.15482 0.43293 0.0
O399 O 0.07542 0.18253 0.42364 0.0
O400 O 0.01679 0.13795 0.40073 0.0
O401 O 0.04399 0.15909 0.39018 0.0
O402 O 0.03837 0.21178 0.3985 0.0
O403 O 0.01041 0.18951 0.40231 0.0
C404 C 0.073 0.16407 0.43285 0.0
C405 C 0.01832 0.2076 0.39533 0.0
C406 C 0.56471 0.76203 0.70151 0.0
C407 C 0.60148 0.78023 0.63423 0.0
O408 O 0.55418 0.77727 0.69156 0.0
Zn409 Zn 0.55704 0.79331 0.65961 0.0
O410 O 0.58129 0.75337 0.69264 0.0
Zn411 Zn 0.58139 0.77058 0.66704 0.0
O412 O 0.58653 0.8036 0.67908 0.0
O413 O 0.55855 0.82359 0.66779 0.0
O414 O 0.60569 0.76578 0.64844 0.0
O415 O 0.5839 0.7916 0.63615 0.0
O416 O 0.53126 0.78407 0.64378 0.0
O417 O 0.55451 0.75735 0.64962 0.0
C418 C 0.57659 0.82208 0.67798 0.0
C419 C 0.53632 0.76407 0.64182 0.0
C420 C 0.97698 0.28705 0.89287 0.0
C421 C 0.92328 0.32894 0.93365 0.0
O422 O 0.98476 0.3051 0.90003 0.0
Zn423 Zn 0.97402 0.33187 0.91921 0.0
O424 O 0.95737 0.28189 0.89724 0.0
Zn425 Zn 0.95008 0.30802 0.91365 0.0
O426 O 0.95115 0.33474 0.88997 0.0
O427 O 0.97811 0.35623 0.9005 0.0
O428 O 0.92047 0.31082 0.92388 0.0
O429 O 0.94212 0.33824 0.93332 0.0
O430 O 0.99314 0.33078 0.94348 0.0
O431 O 0.96819 0.30464 0.94418 0.0
C432 C 0.96269 0.35211 0.88727 0.0
C433 C 0.98457 0.31448 0.95294 0.0
C434 C 0.3934 0.7075 0.13843 0.0
C435 C 0.42867 0.72942 0.20532 0.0
O436 O 0.41101 0.69641 0.14136 0.0
Zn437 Zn 0.43725 0.69583 0.16562 0.0
O438 O 0.3886 0.7226 0.15179 0.0
Zn439 Zn 0.41257 0.71891 0.17099 0.0
O440 O 0.43936 0.73081 0.15259 0.0
O441 O 0.46346 0.70426 0.14981 0.0
O442 O 0.41241 0.73766 0.19551 0.0
O443 O 0.43932 0.71357 0.19655 0.0
O444 O 0.43511 0.66595 0.17528 0.0
O445 O 0.40688 0.68664 0.18448 0.0
C446 C 0.45776 0.72375 0.14563 0.0
C447 C 0.41672 0.66809 0.18471 0.0
C448 C 0.10227 0.51622 0.78808 0.0
C449 C 0.06271 0.57098 0.8298 0.0
O450 O 0.09473 0.50858 0.80603 0.0
Zn451 Zn 0.07581 0.51986 0.83277 0.0
O452 O 0.09863 0.53601 0.78309 0.0
Zn453 Zn 0.08217 0.54363 0.80905 0.0
O454 O 0.10554 0.54215 0.83609 0.0
O455 O 0.0943 0.51523 0.85719 0.0
O456 O 0.07246 0.57338 0.8116 0.0
O457 O 0.06252 0.55215 0.83913 0.0
O458 O 0.05102 0.5014 0.83159 0.0
O459 O 0.05124 0.52626 0.80539 0.0
C460 C 0.10783 0.53046 0.85343 0.0
C461 C 0.0419 0.51022 0.81523 0.0
C462 C 0.23643 0.7908 0.06966 0.0
C463 C 0.21362 0.85862 0.1029 0.0
O464 O 0.22046 0.79909 0.05879 0.0
Zn465 Zn 0.2021 0.8297 0.0602 0.0
O466 O 0.24432 0.80106 0.08582 0.0
Zn467 Zn 0.22544 0.82556 0.08462 0.0
O468 O 0.19311 0.81203 0.09128 0.0
O469 O 0.17259 0.81956 0.06249 0.0
O470 O 0.22924 0.8459 0.10776 0.0
O471 O 0.20231 0.8548 0.0856 0.0
O472 O 0.2095 0.84464 0.03353 0.0
O473 O 0.23708 0.84259 0.05647 0.0
C474 C 0.17455 0.81127 0.08142 0.0
C475 C 0.22933 0.84867 0.03798 0.0
C476 C 0.89426 0.97583 0.28653 0.0
C477 C 0.93216 0.92181 0.33069 0.0
O478 O 0.90118 0.9839 0.30455 0.0
Zn479 Zn 0.91858 0.9729 0.3325 0.0
O480 O 0.89736 0.95571 0.28262 0.0
Zn481 Zn 0.91292 0.94861 0.30923 0.0
O482 O 0.8888 0.95037 0.33548 0.0
O483 O 0.89915 0.97795 0.35612 0.0
O484 O 0.92254 0.91892 0.3125 0.0
O485 O 0.932 0.94077 0.33975 0.0
O486 O 0.94345 0.99128 0.3321 0.0
O487 O 0.94413 0.96591 0.30635 0.0
C488 C 0.8859 0.96246 0.35244 0.0
C489 C 0.95316 0.9821 0.31628 0.0
C490 C 0.75907 0.70275 0.56662 0.0
C491 C 0.78035 0.63752 0.60557 0.0
O492 O 0.77557 0.69377 0.55722 0.0
Zn493 Zn 0.79372 0.66343 0.56146 0.0
O494 O 0.75031 0.69371 0.58307 0.0
Zn495 Zn 0.76936 0.66938 0.58486 0.0
O496 O 0.80106 0.68361 0.59162 0.0
O497 O 0.82328 0.6739 0.56478 0.0
O498 O 0.76488 0.65079 0.60928 0.0
O499 O 0.79216 0.64008 0.58836 0.0
O500 O 0.78672 0.64663 0.53542 0.0
O501 O 0.75896 0.65008 0.55807 0.0
C502 C 0.82008 0.68392 0.58272 0.0
C503 C 0.76695 0.6426 0.54026 0.0
C504 C 0.06183 0.42349 0.16254 0.0
C505 C 0.09917 0.48026 0.2038 0.0
O506 O 0.06121 0.44216 0.15295 0.0
Zn507 Zn 0.07386 0.47474 0.15861 0.0
O508 O 0.07211 0.42137 0.18048 0.0
Zn509 Zn 0.08102 0.45149 0.18271 0.0
O510 O 0.04958 0.46818 0.18606 0.0
O511 O 0.04852 0.49236 0.15918 0.0
O512 O 0.0971 0.46019 0.20862 0.0
O513 O 0.09143 0.48723 0.18568 0.0
O514 O 0.09265 0.47955 0.13441 0.0
O515 O 0.1045 0.45337 0.15603 0.0
C516 C 0.03976 0.4837 0.17584 0.0
C517 C 0.10666 0.46488 0.13858 0.0
C518 C 0.25866 0.79054 0.42749 0.0
C519 C 0.27868 0.85784 0.3917 0.0
O520 O 0.27428 0.79988 0.438 0.0
Zn521 Zn 0.29147 0.83114 0.43539 0.0
O522 O 0.25041 0.79968 0.41083 0.0
Zn523 Zn 0.26828 0.82485 0.41105 0.0
O524 O 0.30086 0.81217 0.40509 0.0
O525 O 0.32143 0.82188 0.4332 0.0
O526 O 0.26366 0.84426 0.38729 0.0
O527 O 0.29014 0.85515 0.40911 0.0
O528 O 0.28294 0.84673 0.46164 0.0
O529 O 0.25579 0.84169 0.43866 0.0
C530 C 0.3195 0.81243 0.41479 0.0
C531 C 0.26283 0.84885 0.457 0.0
C532 C 0.93067 0.06999 0.66436 0.0
C533 C 0.88943 0.01605 0.70544 0.0
O534 O 0.93116 0.051 0.6554 0.0
Zn535 Zn 0.91762 0.01883 0.66183 0.0
O536 O 0.92002 0.0729 0.68197 0.0
Zn537 Zn 0.91052 0.04309 0.6849 0.0
O538 O 0.94156 0.02622 0.6896 0.0
O539 O 0.94242 0.00051 0.66424 0.0
O540 O 0.89324 0.03581 0.71044 0.0
O541 O 0.89755 0.00809 0.6879 0.0
O542 O 0.90004 0.01382 0.63682 0.0
O543 O 0.88802 0.04091 0.65728 0.0
C544 C 0.95124 0.01002 0.68039 0.0
C545 C 0.88631 0.02899 0.64004 0.0
C546 C 0.73312 0.70188 0.92867 0.0
C547 C 0.71218 0.63613 0.89058 0.0
O548 O 0.71682 0.6928 0.93835 0.0
Zn549 Zn 0.69895 0.66218 0.9346 0.0
O550 O 0.74201 0.6926 0.91243 0.0
Zn551 Zn 0.72311 0.66814 0.91103 0.0
O552 O 0.69124 0.6822 0.90448 0.0
O553 O 0.66931 0.67235 0.93152 0.0
O554 O 0.72753 0.64951 0.88665 0.0
O555 O 0.70045 0.6387 0.90783 0.0
O556 O 0.70619 0.64566 0.96068 0.0
O557 O 0.7338 0.64905 0.93786 0.0
C558 C 0.67231 0.6824 0.91358 0.0
C559 C 0.72594 0.64165 0.95576 0.0
C560 C 0.31455 0.53984 0.50904 0.0
C561 C 0.35004 0.60694 0.53023 0.0
O562 O 0.30438 0.54848 0.52527 0.0
Zn563 Zn 0.30694 0.57924 0.54318 0.0
O564 O 0.33069 0.54962 0.50051 0.0
Zn565 Zn 0.33074 0.5742 0.51922 0.0
O566 O 0.33783 0.56073 0.55133 0.0
O567 O 0.30994 0.56918 0.57273 0.0
O568 O 0.35423 0.59393 0.51465 0.0
O569 O 0.33293 0.60367 0.54201 0.0
O570 O 0.28035 0.59474 0.53597 0.0
O571 O 0.30287 0.59164 0.50814 0.0
C572 C 0.32854 0.56028 0.57018 0.0
C573 C 0.28466 0.59828 0.516 0.0
C574 C 0.81642 0.45154 0.98394 0.0
C575 C 0.85379 0.38494 0.96461 0.0
O576 O 0.80682 0.44249 0.96757 0.0
Zn577 Zn 0.81047 0.41143 0.95012 0.0
O578 O 0.83249 0.44218 0.99303 0.0
Zn579 Zn 0.83344 0.41744 0.9746 0.0
O580 O 0.84082 0.43099 0.94255 0.0
O581 O 0.8139 0.4211 0.92048 0.0
O582 O 0.85724 0.39836 0.98 0.0
O583 O 0.83692 0.38758 0.95234 0.0
O584 O 0.78398 0.39554 0.95687 0.0
O585 O 0.80556 0.39969 0.9853 0.0
C586 C 0.83193 0.43099 0.9235 0.0
C587 C 0.78771 0.39254 0.97704 0.0
C588 C 0.35178 0.53235 0.22551 0.0
C589 C 0.3154 0.57691 0.17075 0.0
O590 O 0.34461 0.5503 0.23351 0.0
Zn591 Zn 0.3273 0.57821 0.2223 0.0
O592 O 0.34904 0.52846 0.20534 0.0
Zn593 Zn 0.33365 0.55513 0.19806 0.0
O594 O 0.35784 0.58131 0.20098 0.0
O595 O 0.34648 0.60174 0.22831 0.0
O596 O 0.32491 0.55862 0.16816 0.0
O597 O 0.31492 0.58582 0.18979 0.0
O598 O 0.30202 0.57761 0.23998 0.0
O599 O 0.30194 0.5521 0.21437 0.0
C600 C 0.36036 0.59811 0.21339 0.0
C601 C 0.29252 0.5619 0.23041 0.0
C602 C 0.16583 0.06282 0.4218 0.0
C603 C 0.2079 0.1013 0.47725 0.0
O604 O 0.15646 0.06254 0.44061 0.0
Zn605 Zn 0.16289 0.07541 0.47308 0.0
O606 O 0.18419 0.07229 0.41955 0.0
Zn607 Zn 0.1869 0.08155 0.4495 0.0
O608 O 0.18989 0.0504 0.4665 0.0
O609 O 0.16362 0.05047 0.49131 0.0
O610 O 0.2131 0.09756 0.45753 0.0
O611 O 0.18976 0.094 0.48467 0.0
O612 O 0.1387 0.09418 0.47776 0.0
O613 O 0.16032 0.10536 0.45118 0.0
C614 C 0.17981 0.04112 0.48243 0.0
C615 C 0.14294 0.10783 0.46275 0.0
C616 C 0.14509 0.45597 0.72838 0.0
C617 C 0.18259 0.41389 0.67233 0.0
O618 O 0.1522 0.43765 0.73547 0.0
Zn619 Zn 0.16915 0.41011 0.72326 0.0
O620 O 0.14741 0.46063 0.70829 0.0
Zn621 Zn 0.16311 0.43436 0.69985 0.0
O622 O 0.13919 0.40803 0.70087 0.0
O623 O 0.14973 0.38632 0.72756 0.0
O624 O 0.17275 0.43204 0.66996 0.0
O625 O 0.18252 0.40425 0.69099 0.0
O626 O 0.19408 0.40994 0.74143 0.0
O627 O 0.19429 0.43687 0.71727 0.0
C628 C 0.13639 0.39064 0.71231 0.0
C629 C 0.20349 0.42636 0.73298 0.0
C630 C 0.67647 0.45214 0.50824 0.0
C631 C 0.64017 0.38516 0.52891 0.0
O632 O 0.68645 0.44324 0.52444 0.0
Zn633 Zn 0.68358 0.41231 0.54205 0.0
O634 O 0.66042 0.44246 0.4994 0.0
Zn635 Zn 0.66008 0.41767 0.51797 0.0
O636 O 0.65299 0.43117 0.55019 0.0
O637 O 0.68072 0.42226 0.57159 0.0
O638 O 0.63634 0.39821 0.51329 0.0
O639 O 0.65727 0.38819 0.54078 0.0
O640 O 0.71002 0.39662 0.53502 0.0
O641 O 0.68791 0.39996 0.5069 0.0
C642 C 0.66226 0.43144 0.56906 0.0
C643 C 0.70597 0.39315 0.515 0.0
C644 C 0.31006 0.91338 0.32182 0.0
C645 C 0.34995 0.95491 0.26711 0.0
O646 O 0.30986 0.90401 0.30301 0.0
Zn647 Zn 0.32327 0.91029 0.27076 0.0
O648 O 0.3198 0.93159 0.32416 0.0
Zn649 Zn 0.32966 0.93404 0.29445 0.0
O650 O 0.29894 0.93801 0.27669 0.0
O651 O 0.29867 0.91151 0.25213 0.0
O652 O 0.34636 0.95989 0.28692 0.0
O653 O 0.34232 0.937 0.25947 0.0
O654 O 0.34168 0.88586 0.26615 0.0
O655 O 0.35301 0.90695 0.29303 0.0
C656 C 0.28975 0.92819 0.26054 0.0
C657 C 0.35524 0.8896 0.28135 0.0
C658 C 0.68189 0.58075 0.8201 0.0
C659 C 0.6428 0.53935 0.76477 0.0
O660 O 0.68214 0.59025 0.80136 0.0
Zn661 Zn 0.66911 0.58411 0.76892 0.0
O662 O 0.67236 0.56241 0.82225 0.0
Zn663 Zn 0.66284 0.56006 0.79244 0.0
O664 O 0.69379 0.5567 0.77518 0.0
O665 O 0.69402 0.58318 0.75061 0.0
O666 O 0.64648 0.53416 0.78451 0.0
O667 O 0.65026 0.55741 0.75731 0.0
O668 O 0.65055 0.60856 0.76453 0.0
O669 O 0.63939 0.58693 0.79112 0.0
C670 C 0.7031 0.56669 0.75924 0.0
C671 C 0.63703 0.60442 0.77969 0.0
C672 C 0.51079 0.31354 0.54354 0.0
C673 C 0.53132 0.35242 0.60888 0.0
O674 O 0.52736 0.30421 0.55247 0.0
Zn675 Zn 0.54518 0.30833 0.58313 0.0
O676 O 0.50175 0.32968 0.55283 0.0
Zn677 Zn 0.52075 0.33147 0.5771 0.0
O678 O 0.55254 0.33839 0.56293 0.0
O679 O 0.57478 0.31167 0.57293 0.0
O680 O 0.51593 0.35585 0.59546 0.0
O681 O 0.54338 0.33535 0.6065 0.0
O682 O 0.53828 0.28218 0.59977 0.0
O683 O 0.51044 0.30474 0.5965 0.0
C684 C 0.57158 0.32951 0.56277 0.0
C685 C 0.51853 0.28696 0.60392 0.0
C686 C 0.41377 0.31895 0.81417 0.0
C687 C 0.45744 0.26514 0.85279 0.0
O688 O 0.40469 0.29999 0.81431 0.0
Zn689 Zn 0.4117 0.26794 0.82802 0.0
O690 O 0.43178 0.32193 0.82411 0.0
Zn691 Zn 0.43495 0.29227 0.83387 0.0
O692 O 0.43815 0.2749 0.80278 0.0
O693 O 0.41239 0.24952 0.80316 0.0
O694 O 0.46139 0.28524 0.84965 0.0
O695 O 0.43949 0.25701 0.84574 0.0
O696 O 0.38785 0.26299 0.84727 0.0
O697 O 0.40859 0.29045 0.85778 0.0
C698 C 0.42831 0.25874 0.79362 0.0
C699 C 0.39158 0.27841 0.86058 0.0
C700 C 0.47835 0.20704 0.1011 0.0
C701 C 0.42283 0.16393 0.06393 0.0
O702 O 0.48558 0.18866 0.09428 0.0
Zn703 Zn 0.47367 0.16072 0.07781 0.0
O704 O 0.4582 0.21147 0.0988 0.0
Zn705 Zn 0.44999 0.1849 0.08345 0.0
O706 O 0.45102 0.15895 0.10768 0.0
O707 O 0.47795 0.13727 0.09772 0.0
O708 O 0.4202 0.18217 0.07355 0.0
O709 O 0.44157 0.15446 0.06431 0.0
O710 O 0.49193 0.16039 0.05287 0.0
O711 O 0.46756 0.18714 0.05239 0.0
C712 C 0.46255 0.14168 0.11086 0.0
C713 C 0.48335 0.17666 0.04331 0.0
C714 C 0.56537 0.23194 0.29096 0.0
C715 C 0.6036 0.21173 0.35684 0.0
O716 O 0.55547 0.21594 0.30032 0.0
Zn717 Zn 0.55928 0.19846 0.33113 0.0
O718 O 0.58196 0.24051 0.2999 0.0
Zn719 Zn 0.58321 0.22204 0.32463 0.0
O720 O 0.58936 0.18972 0.31145 0.0
O721 O 0.56176 0.16865 0.3215 0.0
O722 O 0.60763 0.22668 0.34307 0.0
O723 O 0.58621 0.20011 0.35459 0.0
O724 O 0.53346 0.20625 0.34772 0.0
O725 O 0.55668 0.23347 0.34374 0.0
C726 C 0.57995 0.17093 0.31174 0.0
C727 C 0.53872 0.22598 0.35141 0.0
C728 C 0.50987 0.67922 0.45151 0.0
C729 C 0.53241 0.64293 0.38534 0.0
O730 O 0.52632 0.68926 0.44313 0.0
Zn731 Zn 0.54474 0.68652 0.41269 0.0
O732 O 0.50142 0.6631 0.44163 0.0
Zn733 Zn 0.52084 0.66253 0.41761 0.0
O734 O 0.55258 0.65604 0.43207 0.0
O735 O 0.57426 0.68363 0.42324 0.0
O736 O 0.51693 0.63857 0.39842 0.0
O737 O 0.54394 0.66024 0.38845 0.0
O738 O 0.53745 0.713 0.39678 0.0
O739 O 0.51016 0.6896 0.39885 0.0
C740 C 0.57138 0.6654 0.4328 0.0
C741 C 0.51791 0.70782 0.39214 0.0
C742 C 0.06866 0.25969 0.70245 0.0
C743 C 0.10447 0.27934 0.63507 0.0
O744 O 0.05823 0.27536 0.69311 0.0
Zn745 Zn 0.06089 0.29245 0.66178 0.0
O746 O 0.08522 0.25129 0.69329 0.0
Zn747 Zn 0.08502 0.26909 0.66809 0.0
O748 O 0.09124 0.30164 0.68072 0.0
O749 O 0.06325 0.32239 0.67105 0.0
O750 O 0.10863 0.26425 0.64862 0.0
O751 O 0.08718 0.29098 0.63776 0.0
O752 O 0.03455 0.28404 0.64627 0.0
O753 O 0.05728 0.25673 0.65144 0.0
C754 C 0.08166 0.32034 0.68048 0.0
C755 C 0.03899 0.26388 0.64429 0.0
C756 C 0.48464 0.81581 0.95377 0.0
C757 C 0.46415 0.85248 0.88701 0.0
O758 O 0.46849 0.80587 0.94474 0.0
Zn759 Zn 0.45092 0.80898 0.91389 0.0
O760 O 0.4934 0.83206 0.94436 0.0
Zn761 Zn 0.47491 0.83266 0.91952 0.0
O762 O 0.44266 0.83956 0.93281 0.0
O763 O 0.4213 0.81185 0.92367 0.0
O764 O 0.47957 0.85659 0.90025 0.0
O765 O 0.4524 0.8353 0.88992 0.0
O766 O 0.4581 0.78272 0.89799 0.0
O767 O 0.48603 0.80509 0.90151 0.0
C768 C 0.42379 0.83029 0.93291 0.0
C769 C 0.47808 0.78703 0.89452 0.0
C770 C 0.92916 0.23314 0.20336 0.0
C771 C 0.8912 0.21391 0.13709 0.0
O772 O 0.93886 0.21695 0.19412 0.0
Zn773 Zn 0.93504 0.19975 0.16301 0.0
O774 O 0.91288 0.24206 0.19421 0.0
Zn775 Zn 0.91193 0.22389 0.16927 0.0
O776 O 0.9047 0.19148 0.18227 0.0
O777 O 0.9321 0.17007 0.17247 0.0
O778 O 0.88791 0.22932 0.1505 0.0
O779 O 0.9082 0.20175 0.13947 0.0
O780 O 0.96125 0.20673 0.14688 0.0
O781 O 0.93957 0.23502 0.15126 0.0
C782 C 0.9138 0.17253 0.18197 0.0
C783 C 0.9574 0.22687 0.14395 0.0
C784 C 0.56338 0.07014 0.83219 0.0
C785 C 0.60275 0.01683 0.78864 0.0
O786 O 0.56328 0.05108 0.84103 0.0
Zn787 Zn 0.57694 0.01907 0.83381 0.0
O788 O 0.57351 0.07325 0.81432 0.0
Zn789 Zn 0.5832 0.04362 0.81095 0.0
O790 O 0.55215 0.02625 0.8069 0.0
O791 O 0.55223 0.00061 0.83238 0.0
O792 O 0.59955 0.03693 0.78475 0.0
O793 O 0.59534 0.00852 0.80635 0.0
O794 O 0.5956 0.01373 0.85796 0.0
O795 O 0.60663 0.0414 0.83778 0.0
C796 C 0.54299 0.00984 0.81631 0.0
C797 C 0.60903 0.02915 0.8547 0.0
C798 C 0.73292 0.29176 0.0667 0.0
C799 C 0.71304 0.35916 0.10251 0.0
O800 O 0.71681 0.30082 0.05669 0.0
Zn801 Zn 0.69948 0.33192 0.0594 0.0
O802 O 0.74204 0.30145 0.08259 0.0
Zn803 Zn 0.72371 0.32638 0.08293 0.0
O804 O 0.69159 0.313 0.09003 0.0
O805 O 0.66974 0.32229 0.06271 0.0
O806 O 0.7285 0.34597 0.10657 0.0
O807 O 0.70116 0.3561 0.08545 0.0
O808 O 0.70677 0.34739 0.0328 0.0
O809 O 0.73478 0.34373 0.05502 0.0
C810 C 0.67264 0.31278 0.08096 0.0
C811 C 0.72684 0.35056 0.0369 0.0
C812 C 0.39592 0.47342 0.28572 0.0
C813 C 0.4354 0.42115 0.3306 0.0
O814 O 0.40235 0.48177 0.3038 0.0
Zn815 Zn 0.42013 0.47171 0.33186 0.0
O816 O 0.40007 0.45351 0.2817 0.0
Zn817 Zn 0.41565 0.44714 0.30849 0.0
O818 O 0.39103 0.44843 0.33423 0.0
O819 O 0.40024 0.47616 0.35527 0.0
O820 O 0.42626 0.41782 0.31223 0.0
O821 O 0.43446 0.44016 0.33949 0.0
O822 O 0.44428 0.49103 0.33141 0.0
O823 O 0.44606 0.46569 0.3057 0.0
C824 C 0.38744 0.4604 0.35113 0.0
C825 C 0.45433 0.48232 0.31553 0.0
C826 C 0.2617 0.20276 0.56726 0.0
C827 C 0.28207 0.13606 0.60384 0.0
O828 O 0.27761 0.19356 0.55706 0.0
Zn829 Zn 0.29508 0.16247 0.56008 0.0
O830 O 0.2532 0.19358 0.58378 0.0
Zn831 Zn 0.27141 0.16869 0.58403 0.0
O832 O 0.30364 0.18208 0.5902 0.0
O833 O 0.32496 0.17211 0.56272 0.0
O834 O 0.26683 0.14947 0.60797 0.0
O835 O 0.29367 0.13873 0.58653 0.0
O836 O 0.28702 0.14656 0.53383 0.0
O837 O 0.25951 0.15149 0.5564 0.0
C838 C 0.32242 0.18205 0.58079 0.0
C839 C 0.26686 0.14427 0.53821 0.0
C840 C 0.60087 0.97594 0.20681 0.0
C841 C 0.55977 0.92209 0.16541 0.0
O842 O 0.59375 0.98361 0.18871 0.0
Zn843 Zn 0.57455 0.9727 0.162 0.0
O844 O 0.59638 0.9564 0.21211 0.0
Zn845 Zn 0.57997 0.94897 0.18606 0.0
O846 O 0.60376 0.94973 0.15947 0.0
O847 O 0.59339 0.97649 0.13769 0.0
O848 O 0.56956 0.91941 0.18354 0.0
O849 O 0.56024 0.94082 0.15591 0.0
O850 O 0.55038 0.99195 0.16287 0.0
O851 O 0.54953 0.96725 0.18924 0.0
C852 C 0.6066 0.96112 0.14203 0.0
C853 C 0.54085 0.98356 0.17924 0.0
C854 C 0.76617 0.3492 0.45585 0.0
C855 C 0.82087 0.31081 0.41297 0.0
O856 O 0.75824 0.34194 0.43789 0.0
Zn857 Zn 0.7696 0.32377 0.41047 0.0
O858 O 0.7862 0.34601 0.46009 0.0
Zn859 Zn 0.79348 0.32983 0.43399 0.0
O860 O 0.79191 0.35348 0.40727 0.0
O861 O 0.76464 0.34263 0.38643 0.0
O862 O 0.82316 0.3202 0.43135 0.0
O863 O 0.80202 0.31065 0.40364 0.0
O864 O 0.75125 0.29894 0.41119 0.0
O865 O 0.77602 0.29887 0.43751 0.0
C866 C 0.78003 0.356 0.39009 0.0
C867 C 0.7599 0.28973 0.42759 0.0
C868 C 0.4305 0.56922 0.66257 0.0
C869 C 0.39108 0.51494 0.70504 0.0
O870 O 0.43038 0.55034 0.65339 0.0
Zn871 Zn 0.41682 0.51826 0.65994 0.0
O872 O 0.42064 0.57207 0.68065 0.0
Zn873 Zn 0.4109 0.5423 0.68367 0.0
O874 O 0.44186 0.52505 0.6868 0.0
O875 O 0.44167 0.49981 0.66094 0.0
O876 O 0.39492 0.53472 0.70996 0.0
O877 O 0.39825 0.50721 0.68699 0.0
O878 O 0.39792 0.51381 0.63571 0.0
O879 O 0.38717 0.54071 0.65714 0.0
C880 C 0.45111 0.50898 0.67695 0.0
C881 C 0.38452 0.52908 0.63983 0.0
C882 C 0.2136 0.1373 0.89048 0.0
C883 C 0.23378 0.20304 0.92904 0.0
O884 O 0.20197 0.13945 0.90787 0.0
Zn885 Zn 0.20032 0.16266 0.9349 0.0
O886 O 0.2286 0.15106 0.88663 0.0
Zn887 Zn 0.22397 0.16949 0.91111 0.0
O888 O 0.23559 0.15087 0.93787 0.0
O889 O 0.20826 0.146 0.96071 0.0
O890 O 0.24232 0.19428 0.91232 0.0
O891 O 0.21779 0.1936 0.93889 0.0
O892 O 0.17045 0.17228 0.93242 0.0
O893 O 0.19178 0.18295 0.90522 0.0
C894 C 0.22819 0.14302 0.95578 0.0
C895 C 0.17299 0.18264 0.91459 0.0
C896 C 0.78659 0.09975 0.5175 0.0
C897 C 0.83095 0.06055 0.57024 0.0
O898 O 0.80466 0.0932 0.50924 0.0
Zn899 Zn 0.83273 0.07566 0.51963 0.0
O900 O 0.78266 0.09608 0.53752 0.0
Zn901 Zn 0.80932 0.08046 0.54408 0.0
O902 O 0.83541 0.10471 0.54303 0.0
O903 O 0.85631 0.09539 0.51524 0.0
O904 O 0.81265 0.06988 0.5734 0.0
O905 O 0.84001 0.06137 0.5513 0.0
O906 O 0.83233 0.05133 0.50053 0.0
O907 O 0.80647 0.04995 0.52576 0.0
C908 C 0.8524 0.1081 0.53113 0.0
C909 C 0.81636 0.04145 0.50928 0.0
C910 C 0.31705 0.95245 0.98463 0.0
C911 C 0.35393 0.88593 0.96409 0.0
O912 O 0.30712 0.94346 0.96845 0.0
Zn913 Zn 0.31035 0.91262 0.95086 0.0
O914 O 0.33334 0.94307 0.99332 0.0
Zn915 Zn 0.334 0.91832 0.9748 0.0
O916 O 0.3409 0.93162 0.94251 0.0
O917 O 0.3132 0.92238 0.9212 0.0
O918 O 0.35798 0.8992 0.9795 0.0
O919 O 0.33674 0.88875 0.95234 0.0
O920 O 0.28417 0.89655 0.9581 0.0
O921 O 0.30653 0.90012 0.98599 0.0
C922 C 0.33164 0.93165 0.92364 0.0
C923 C 0.28851 0.89303 0.97806 0.0
C924 C 0.85157 0.0359 0.22635 0.0
C925 C 0.81263 0.07968 0.17274 0.0
O926 O 0.84453 0.05384 0.23448 0.0
Zn927 Zn 0.8266 0.08153 0.22372 0.0
O928 O 0.84828 0.0319 0.20628 0.0
Zn929 Zn 0.83232 0.0583 0.19929 0.0
O930 O 0.85604 0.0848 0.201 0.0
O931 O 0.8457 0.10556 0.22855 0.0
O932 O 0.82244 0.06163 0.16965 0.0
O933 O 0.81283 0.08864 0.19175 0.0
O934 O 0.80184 0.08065 0.24222 0.0
O935 O 0.80134 0.055 0.21675 0.0
C936 C 0.85884 0.10186 0.21296 0.0
C937 C 0.79227 0.06475 0.23301 0.0
C938 C 0.70636 0.60051 0.48038 0.0
C939 C 0.66336 0.56561 0.42334 0.0
O940 O 0.68814 0.59316 0.48753 0.0
Zn941 Zn 0.6603 0.57677 0.47495 0.0
O942 O 0.71061 0.59901 0.46014 0.0
Zn943 Zn 0.68419 0.58371 0.45151 0.0
O944 O 0.65779 0.60755 0.45366 0.0
O945 O 0.63658 0.59607 0.48034 0.0
O946 O 0.68168 0.57524 0.42136 0.0
O947 O 0.6539 0.56488 0.4421 0.0
O948 O 0.66023 0.55098 0.492 0.0
O949 O 0.68681 0.55178 0.46747 0.0
C950 C 0.64054 0.6099 0.46545 0.0
C951 C 0.67647 0.5419 0.48287 0.0
C952 C 0.64434 0.95641 0.72816 0.0
C953 C 0.67889 0.91114 0.67285 0.0
O954 O 0.64951 0.93759 0.73566 0.0
Zn955 Zn 0.66397 0.90857 0.72353 0.0
O956 O 0.64799 0.96068 0.70822 0.0
Zn957 Zn 0.66122 0.9331 0.70023 0.0
O958 O 0.63489 0.90881 0.7001 0.0
O959 O 0.64246 0.88688 0.72758 0.0
O960 O 0.67115 0.93028 0.67051 0.0
O961 O 0.67731 0.90134 0.69137 0.0
O962 O 0.68836 0.90484 0.74159 0.0
O963 O 0.6925 0.93195 0.71804 0.0
C964 C 0.63022 0.89187 0.71166 0.0
C965 C 0.70015 0.91974 0.73336 0.0
C966 C 0.17719 0.95237 0.50986 0.0
C967 C 0.13762 0.88728 0.53019 0.0
O968 O 0.18656 0.94313 0.52622 0.0
Zn969 Zn 0.18203 0.91251 0.54396 0.0
O970 O 0.16067 0.94354 0.50102 0.0
Zn971 Zn 0.15873 0.91905 0.51977 0.0
O972 O 0.15221 0.93297 0.55173 0.0
O973 O 0.17906 0.92256 0.57361 0.0
O974 O 0.13412 0.90087 0.51496 0.0
O975 O 0.15482 0.88944 0.5421 0.0
O976 O 0.20787 0.8956 0.53681 0.0
O977 O 0.18533 0.89961 0.50905 0.0
C978 C 0.16126 0.93288 0.57069 0.0
C979 C 0.20305 0.89186 0.51698 0.0
C980 C 0.85166 0.45595 0.2679 0.0
C981 C 0.8129 0.41144 0.32092 0.0
O982 O 0.84465 0.43809 0.25954 0.0
Zn983 Zn 0.82697 0.41012 0.26998 0.0
O984 O 0.84852 0.4596 0.28807 0.0
Zn985 Zn 0.83267 0.43306 0.29463 0.0
O986 O 0.85654 0.40668 0.29258 0.0
O987 O 0.84621 0.38639 0.26473 0.0
O988 O 0.8227 0.42947 0.32415 0.0
O989 O 0.81314 0.40262 0.30184 0.0
O990 O 0.80236 0.41106 0.25138 0.0
O991 O 0.80177 0.43661 0.27696 0.0
C992 C 0.85938 0.38984 0.28032 0.0
C993 C 0.79287 0.42705 0.2605 0.0
C994 C 0.18203 0.08093 0.82147 0.0
C995 C 0.14349 0.03693 0.76767 0.0
O996 O 0.18201 0.08977 0.80241 0.0
Zn997 Zn 0.16856 0.0825 0.77037 0.0
O998 O 0.17214 0.06291 0.82457 0.0
Zn999 Zn 0.16245 0.05943 0.79487 0.0
O1000 O 0.19357 0.0559 0.7777 0.0
O1001 O 0.19352 0.08145 0.75212 0.0
O1002 O 0.14645 0.03301 0.78781 0.0
O1003 O 0.15073 0.05481 0.75958 0.0
O1004 O 0.14948 0.10642 0.7652 0.0
O1005 O 0.13883 0.08601 0.79284 0.0
C1006 C 0.20287 0.06551 0.76149 0.0
C1007 C 0.1362 0.10297 0.78071 0.0
C1008 C 0.52809 0.85208 0.11047 0.0
C1009 C 0.51033 0.81489 0.04329 0.0
O1010 O 0.54036 0.83519 0.10804 0.0
Zn1011 Zn 0.54289 0.80865 0.08444 0.0
O1012 O 0.51284 0.85546 0.09689 0.0
Zn1013 Zn 0.51851 0.83169 0.07778 0.0
O1014 O 0.50727 0.80373 0.0948 0.0
O1015 O 0.53545 0.78215 0.10023 0.0
O1016 O 0.50083 0.83085 0.05247 0.0
O1017 O 0.52631 0.80518 0.0529 0.0
O1018 O 0.57277 0.81212 0.07521 0.0
O1019 O 0.55076 0.8389 0.06484 0.0
C1020 C 0.51513 0.78583 0.1022 0.0
C1021 C 0.56981 0.83005 0.06511 0.0
C1022 C 0.39014 0.78066 0.36049 0.0
C1023 C 0.4258 0.75972 0.29336 0.0
O1024 O 0.40712 0.7926 0.35721 0.0
Zn1025 Zn 0.43307 0.794 0.33295 0.0
O1026 O 0.38617 0.76498 0.34755 0.0
Zn1027 Zn 0.40946 0.76974 0.32755 0.0
O1028 O 0.43787 0.75862 0.3439 0.0
O1029 O 0.45985 0.78672 0.3484 0.0
O1030 O 0.40947 0.75119 0.30286 0.0
O1031 O 0.43589 0.77594 0.30216 0.0
O1032 O 0.42967 0.82359 0.32274 0.0
O1033 O 0.40235 0.80159 0.31384 0.0
C1034 C 0.45608 0.76644 0.35059 0.0
C1035 C 0.41139 0.82054 0.31332 0.0
C1036 C 0.47635 0.70329 0.5998 0.0
C1037 C 0.42025 0.66191 0.56172 0.0
O1038 O 0.48363 0.68533 0.59196 0.0
Zn1039 Zn 0.47157 0.65847 0.57367 0.0
O1040 O 0.45639 0.70821 0.59706 0.0
Zn1041 Zn 0.44818 0.6824 0.5807 0.0
O1042 O 0.45015 0.65556 0.60412 0.0
O1043 O 0.47653 0.63417 0.59224 0.0
O1044 O 0.41819 0.68005 0.57163 0.0
O1045 O 0.43899 0.65244 0.56107 0.0
O1046 O 0.48943 0.65944 0.54848 0.0
O1047 O 0.46512 0.68616 0.54952 0.0
C1048 C 0.46179 0.63819 0.60623 0.0
C1049 C 0.48081 0.67614 0.53979 0.0
C1050 C 0.56662 0.73542 0.79074 0.0
C1051 C 0.60365 0.71505 0.85747 0.0
O1052 O 0.55684 0.71913 0.79971 0.0
Zn1053 Zn 0.56028 0.70138 0.83049 0.0
O1054 O 0.58287 0.74419 0.80014 0.0
Zn1055 Zn 0.58365 0.72558 0.8249 0.0
O1056 O 0.59091 0.69341 0.8115 0.0
O1057 O 0.56334 0.67186 0.82057 0.0
O1058 O 0.60745 0.73053 0.84424 0.0
O1059 O 0.58662 0.70305 0.85454 0.0
O1060 O 0.53394 0.70811 0.84642 0.0
O1061 O 0.55589 0.73636 0.84291 0.0
C1062 C 0.58177 0.67447 0.81135 0.0
C1063 C 0.53794 0.72815 0.84989 0.0
C1064 C 0.51764 0.20519 0.89553 0.0
C1065 C 0.57211 0.16142 0.93315 0.0
O1066 O 0.50963 0.18718 0.90257 0.0
Zn1067 Zn 0.52083 0.1594 0.92022 0.0
O1068 O 0.53774 0.20922 0.89862 0.0
Zn1069 Zn 0.54488 0.18282 0.91438 0.0
O1070 O 0.54303 0.15642 0.89039 0.0
O1071 O 0.51561 0.13568 0.90102 0.0
O1072 O 0.57457 0.17985 0.9239 0.0
O1073 O 0.55319 0.15223 0.93323 0.0
O1074 O 0.50257 0.15987 0.94509 0.0
O1075 O 0.52755 0.18601 0.94545 0.0
C1076 C 0.53099 0.13939 0.88767 0.0
C1077 C 0.5114 0.17607 0.9545 0.0
C1078 C 0.03671 0.76762 0.14225 0.0
C1079 C 0.08003 0.82207 0.18043 0.0
O1080 O 0.05461 0.75953 0.14946 0.0
Zn1081 Zn 0.08224 0.77077 0.16747 0.0
O1082 O 0.03276 0.78773 0.1453 0.0
Zn1083 Zn 0.05893 0.79479 0.16142 0.0
O1084 O 0.08573 0.7931 0.13785 0.0
O1085 O 0.10633 0.76563 0.14868 0.0
O1086 O 0.06169 0.82445 0.17099 0.0
O1087 O 0.08926 0.80317 0.18063 0.0
O1088 O 0.0815 0.75249 0.19229 0.0
O1089 O 0.05533 0.77739 0.19243 0.0
C1090 C 0.10282 0.78111 0.13538 0.0
C1091 C 0.06518 0.76123 0.20155 0.0
C1092 C 0.484 0.31482 0.45461 0.0
C1093 C 0.4664 0.35239 0.3876 0.0
O1094 O 0.46837 0.30484 0.4447 0.0
Zn1095 Zn 0.452 0.30846 0.41315 0.0
O1096 O 0.49296 0.33133 0.44588 0.0
Zn1097 Zn 0.47562 0.33208 0.42035 0.0
O1098 O 0.4429 0.33863 0.43239 0.0
O1099 O 0.42196 0.31111 0.42183 0.0
O1100 O 0.48122 0.35612 0.40157 0.0
O1101 O 0.45448 0.33518 0.38967 0.0
O1102 O 0.46009 0.28236 0.3972 0.0
O1103 O 0.48771 0.30461 0.403 0.0
C1104 C 0.42406 0.32934 0.43157 0.0
C1105 C 0.48031 0.28661 0.39533 0.0
C1106 C 0.92656 0.73546 0.70604 0.0
C1107 C 0.88858 0.71588 0.6396 0.0
O1108 O 0.93675 0.71995 0.69619 0.0
Zn1109 Zn 0.93297 0.70282 0.66507 0.0
O1110 O 0.90955 0.74371 0.69756 0.0
Zn1111 Zn 0.90881 0.72591 0.67226 0.0
O1112 O 0.90319 0.69325 0.68486 0.0
O1113 O 0.93109 0.67288 0.67429 0.0
O1114 O 0.88449 0.73063 0.65354 0.0
O1115 O 0.90607 0.70442 0.64171 0.0
O1116 O 0.9587 0.7113 0.64872 0.0
O1117 O 0.93585 0.73842 0.65444 0.0
C1118 C 0.91293 0.67464 0.68421 0.0
C1119 C 0.95393 0.73138 0.64665 0.0
C1120 C 0.56336 0.57341 0.32924 0.0
C1121 C 0.60272 0.51825 0.28788 0.0
O1122 O 0.56341 0.55472 0.33884 0.0
Zn1123 Zn 0.57679 0.52243 0.33281 0.0
O1124 O 0.57272 0.57561 0.31082 0.0
Zn1125 Zn 0.58253 0.54586 0.30855 0.0
O1126 O 0.5517 0.52817 0.30568 0.0
O1127 O 0.5521 0.50377 0.33232 0.0
O1128 O 0.59876 0.53788 0.28254 0.0
O1129 O 0.59549 0.51087 0.30606 0.0
O1130 O 0.5957 0.51843 0.35703 0.0
O1131 O 0.60628 0.54509 0.33523 0.0
C1132 C 0.54266 0.51223 0.31595 0.0
C1133 C 0.60898 0.53377 0.35274 0.0
C1134 C 0.71131 0.85684 0.60253 0.0
C1135 C 0.73137 0.79137 0.56378 0.0
O1136 O 0.69952 0.85479 0.58523 0.0
Zn1137 Zn 0.698 0.83174 0.5579 0.0
O1138 O 0.72668 0.84339 0.60592 0.0
Zn1139 Zn 0.72199 0.82525 0.58135 0.0
O1140 O 0.73315 0.84438 0.55479 0.0
O1141 O 0.70567 0.8484 0.53195 0.0
O1142 O 0.74046 0.80058 0.57995 0.0
O1143 O 0.71522 0.80067 0.55409 0.0
O1144 O 0.66817 0.82203 0.56063 0.0
O1145 O 0.68982 0.81163 0.58769 0.0
C1146 C 0.72548 0.85203 0.53692 0.0
C1147 C 0.67092 0.8118 0.57851 0.0
C1148 C 0.43282 0.92215 0.83114 0.0
C1149 C 0.39454 0.97646 0.78768 0.0
O1150 O 0.4328 0.94106 0.84033 0.0
Zn1151 Zn 0.41955 0.97333 0.83333 0.0
O1152 O 0.42347 0.91961 0.81276 0.0
Zn1153 Zn 0.41374 0.94926 0.80981 0.0
O1154 O 0.4447 0.96666 0.80659 0.0
O1155 O 0.4445 0.99168 0.83266 0.0
O1156 O 0.39784 0.95643 0.78352 0.0
O1157 O 0.4016 0.98446 0.80569 0.0
O1158 O 0.40036 0.97812 0.85731 0.0
O1159 O 0.38989 0.95085 0.83625 0.0
C1160 C 0.45391 0.98273 0.81652 0.0
C1161 C 0.3871 0.96267 0.85339 0.0
C1162 C 0.26897 0.64323 0.03606 0.0
C1163 C 0.32443 0.67825 0.08075 0.0
O1164 O 0.26126 0.64968 0.05442 0.0
Zn1165 Zn 0.27295 0.66612 0.08269 0.0
O1166 O 0.28904 0.64627 0.03189 0.0
Zn1167 Zn 0.29683 0.66088 0.05881 0.0
O1168 O 0.29508 0.63611 0.08432 0.0
O1169 O 0.26799 0.64598 0.10587 0.0
O1170 O 0.32678 0.66957 0.06201 0.0
O1171 O 0.30555 0.67839 0.09 0.0
O1172 O 0.2552 0.6915 0.0833 0.0
O1173 O 0.28034 0.69249 0.05733 0.0
C1174 C 0.28335 0.63279 0.10143 0.0
C1175 C 0.26449 0.70152 0.06774 0.0
C1176 C 0.56244 0.4231 0.66314 0.0
C1177 C 0.59967 0.47973 0.70458 0.0
O1178 O 0.56202 0.44174 0.65348 0.0
Zn1179 Zn 0.57487 0.47428 0.65912 0.0
O1180 O 0.57253 0.42095 0.68119 0.0
Zn1181 Zn 0.58162 0.45099 0.68331 0.0
O1182 O 0.55021 0.4678 0.68628 0.0
O1183 O 0.54959 0.49198 0.65937 0.0
O1184 O 0.59759 0.45963 0.70926 0.0
O1185 O 0.59218 0.48678 0.68638 0.0
O1186 O 0.59381 0.47878 0.63492 0.0
O1187 O 0.60506 0.45237 0.65663 0.0
C1188 C 0.54062 0.48339 0.67596 0.0
C1189 C 0.60742 0.46375 0.63913 0.0
C1190 C 0.76523 0.84908 0.9575 0.0
C1191 C 0.82205 0.81229 0.91603 0.0
O1192 O 0.75823 0.8416 0.93928 0.0
Zn1193 Zn 0.77086 0.82455 0.91196 0.0
O1194 O 0.78537 0.84727 0.96212 0.0
Zn1195 Zn 0.79406 0.83132 0.93614 0.0
O1196 O 0.79283 0.85477 0.90935 0.0
O1197 O 0.76626 0.84345 0.88786 0.0
O1198 O 0.82411 0.82228 0.93414 0.0
O1199 O 0.80342 0.8118 0.90633 0.0
O1200 O 0.75313 0.79937 0.91198 0.0
O1201 O 0.77705 0.7999 0.93913 0.0
C1202 C 0.78138 0.85703 0.89188 0.0
C1203 C 0.76145 0.79041 0.92869 0.0
C1204 C 0.39309 0.01494 0.20728 0.0
C1205 C 0.4299 0.07175 0.16547 0.0
O1206 O 0.40063 0.00795 0.18909 0.0
Zn1207 Zn 0.41782 0.02045 0.16179 0.0
O1208 O 0.3951 0.03505 0.21198 0.0
Zn1209 Zn 0.41097 0.04374 0.18591 0.0
O1210 O 0.38732 0.04208 0.15929 0.0
O1211 O 0.39878 0.01559 0.13784 0.0
O1212 O 0.42008 0.07378 0.18368 0.0
O1213 O 0.43038 0.05306 0.15589 0.0
O1214 O 0.44318 0.00284 0.16203 0.0
O1215 O 0.44243 0.02703 0.18892 0.0
C1216 C 0.38498 0.03046 0.14192 0.0
C1217 C 0.45212 0.01151 0.17859 0.0
C1218 C 0.23212 0.70141 0.42791 0.0
C1219 C 0.214 0.63535 0.38901 0.0
O1220 O 0.21575 0.69195 0.43709 0.0
Zn1221 Zn 0.19879 0.66079 0.4327 0.0
O1222 O 0.24182 0.6923 0.41204 0.0
Zn1223 Zn 0.22364 0.66739 0.41026 0.0
O1224 O 0.19163 0.68093 0.40267 0.0
O1225 O 0.16917 0.6704 0.42901 0.0
O1226 O 0.22945 0.64884 0.38611 0.0
O1227 O 0.20148 0.63759 0.40575 0.0
O1228 O 0.20527 0.64442 0.45895 0.0
O1229 O 0.23398 0.64911 0.43786 0.0
C1230 C 0.17245 0.68071 0.41127 0.0
C1231 C 0.22549 0.64156 0.45544 0.0
C1232 C 0.81601 0.5404 0.01178 0.0
C1233 C 0.85129 0.60809 0.0315 0.0
O1234 O 0.80537 0.54979 0.02729 0.0
Zn1235 Zn 0.80768 0.58121 0.04424 0.0
O1236 O 0.83247 0.54973 0.00333 0.0
Zn1237 Zn 0.83204 0.57502 0.02107 0.0
O1238 O 0.83805 0.56251 0.05373 0.0
O1239 O 0.80987 0.57214 0.07425 0.0
O1240 O 0.85573 0.59456 0.01645 0.0
O1241 O 0.83387 0.60533 0.04293 0.0
O1242 O 0.78135 0.59661 0.03566 0.0
O1243 O 0.80435 0.59166 0.00851 0.0
C1244 C 0.82834 0.56281 0.07236 0.0
C1245 C 0.78597 0.59873 0.01555 0.0
C1246 C 0.35336 0.38475 0.46117 0.0
C1247 C 0.31581 0.45119 0.48071 0.0
O1248 O 0.33605 0.38715 0.44948 0.0
Zn1249 Zn 0.30936 0.41078 0.44762 0.0
O1250 O 0.35741 0.39841 0.47623 0.0
Zn1251 Zn 0.3332 0.41712 0.4714 0.0
O1252 O 0.30632 0.39848 0.48274 0.0
O1253 O 0.28321 0.39461 0.45542 0.0
O1254 O 0.33213 0.44209 0.48962 0.0
O1255 O 0.30593 0.4418 0.46473 0.0
O1256 O 0.31224 0.42017 0.41775 0.0
O1257 O 0.33976 0.43001 0.43905 0.0
C1258 C 0.28829 0.39103 0.47521 0.0
C1259 C 0.33054 0.42972 0.42017 0.0
C1260 C 0.85191 0.53678 0.72734 0.0
C1261 C 0.81334 0.58138 0.6741 0.0
O1262 O 0.84478 0.55461 0.73563 0.0
Zn1263 Zn 0.82705 0.58246 0.72516 0.0
O1264 O 0.84889 0.53306 0.70717 0.0
Zn1265 Zn 0.83302 0.55959 0.70037 0.0
O1266 O 0.85668 0.58605 0.70263 0.0
O1267 O 0.84622 0.60635 0.73046 0.0
O1268 O 0.82323 0.5634 0.67075 0.0
O1269 O 0.8135 0.59003 0.69324 0.0
O1270 O 0.80205 0.58124 0.74337 0.0
O1271 O 0.80192 0.55603 0.71745 0.0
C1272 C 0.85944 0.60289 0.71488 0.0
C1273 C 0.79262 0.5655 0.73373 0.0
C1274 C 0.67941 0.03995 0.98519 0.0
C1275 C 0.64246 0.10633 0.96445 0.0
O1276 O 0.68923 0.0488 0.96886 0.0
Zn1277 Zn 0.68606 0.07968 0.95119 0.0
O1278 O 0.66338 0.04955 0.99412 0.0
Zn1279 Zn 0.66264 0.07414 0.97544 0.0
O1280 O 0.65567 0.06034 0.94344 0.0
O1281 O 0.68294 0.06973 0.92158 0.0
O1282 O 0.63862 0.09324 0.98005 0.0
O1283 O 0.65959 0.10348 0.95261 0.0
O1284 O 0.7124 0.09571 0.95822 0.0
O1285 O 0.6902 0.09227 0.98627 0.0
C1286 C 0.66478 0.06007 0.92451 0.0
C1287 C 0.7082 0.09926 0.97821 0.0
C1288 C 0.68179 0.41437 0.17267 0.0
C1289 C 0.64558 0.45736 0.22887 0.0
O1290 O 0.68193 0.40484 0.19139 0.0
Zn1291 Zn 0.66928 0.41123 0.22392 0.0
O1292 O 0.67248 0.43283 0.17054 0.0
Zn1293 Zn 0.66321 0.43538 0.20046 0.0
O1294 O 0.69453 0.4378 0.21746 0.0
O1295 O 0.69451 0.41099 0.24174 0.0
O1296 O 0.64784 0.46182 0.20873 0.0
O1297 O 0.6526 0.43905 0.2361 0.0
O1298 O 0.64966 0.38765 0.22872 0.0
O1299 O 0.63901 0.40931 0.20202 0.0
C1300 C 0.70388 0.42733 0.2331 0.0
C1301 C 0.63616 0.39203 0.21363 0.0
C1302 C 0.17771 0.45282 0.00955 0.0
C1303 C 0.14206 0.38572 0.03086 0.0
O1304 O 0.18782 0.44401 0.02574 0.0
Zn1305 Zn 0.18511 0.41328 0.04381 0.0
O1306 O 0.16144 0.44324 0.00097 0.0
Zn1307 Zn 0.16138 0.41857 0.0196 0.0
O1308 O 0.15448 0.43248 0.0514 0.0
O1309 O 0.18184 0.42361 0.07337 0.0
O1310 O 0.13791 0.39861 0.01517 0.0
O1311 O 0.15915 0.38906 0.04262 0.0
O1312 O 0.2118 0.39777 0.03647 0.0
O1313 O 0.18963 0.40196 0.00849 0.0
C1314 C 0.1636 0.4331 0.0703 0.0
C1315 C 0.20786 0.39528 0.01625 0.0
C1316 C 0.81299 0.91074 0.82065 0.0
C1317 C 0.84566 0.95553 0.76382 0.0
O1318 O 0.81458 0.90048 0.80238 0.0
Zn1319 Zn 0.82735 0.90725 0.76993 0.0
O1320 O 0.81999 0.93024 0.8222 0.0
Zn1321 Zn 0.82975 0.93249 0.7924 0.0
O1322 O 0.79854 0.93041 0.77436 0.0
O1323 O 0.80316 0.90247 0.75203 0.0
O1324 O 0.84237 0.96019 0.78375 0.0
O1325 O 0.84089 0.93638 0.7569 0.0
O1326 O 0.84933 0.88617 0.76599 0.0
O1327 O 0.8569 0.90899 0.79272 0.0
C1328 C 0.79109 0.91753 0.75946 0.0
C1329 C 0.86186 0.89198 0.78137 0.0
C1330 C 0.18351 0.58112 0.3179 0.0
C1331 C 0.14305 0.54017 0.26324 0.0
O1332 O 0.18371 0.59054 0.29913 0.0
Zn1333 Zn 0.17006 0.58462 0.26696 0.0
O1334 O 0.17325 0.56322 0.32039 0.0
Zn1335 Zn 0.16339 0.56084 0.29066 0.0
O1336 O 0.19403 0.5566 0.27289 0.0
O1337 O 0.19475 0.58312 0.24835 0.0
O1338 O 0.14649 0.53518 0.28307 0.0
O1339 O 0.15087 0.55802 0.25563 0.0
O1340 O 0.15171 0.60928 0.26256 0.0
O1341 O 0.14028 0.58796 0.28922 0.0
C1342 C 0.20343 0.56632 0.2568 0.0
C1343 C 0.13808 0.6054 0.27767 0.0
C1344 C 0.98342 0.30844 0.01399 0.0
C1345 C 0.00577 0.3092 0.01938 0.0
C1346 C 0.9766 0.30794 0.99213 0.0
C1347 C 0.99195 0.30889 0.97508 0.0
H1348 H 0.97115 0.30931 0.02674 0.0
H1349 H 0.95925 0.30862 0.98858 0.0
S1350 S 0.05229 0.30924 0.98063 0.0
N1351 N 0.04318 0.30894 0.00606 0.0
N1352 N 0.03034 0.30893 0.96487 0.0
C1353 C 0.01432 0.3084 0.98026 0.0
C1354 C 0.02125 0.3083 0.0025 0.0
C1355 C 0.93615 0.22471 0.24241 0.0
C1356 C 0.93514 0.2402 0.22551 0.0
C1357 C 0.93601 0.23136 0.26434 0.0
C1358 C 0.93557 0.25367 0.26992 0.0
H1359 H 0.93524 0.2074 0.23873 0.0
H1360 H 0.93515 0.219 0.27701 0.0
S1361 S 0.93555 0.3005 0.23153 0.0
N1362 N 0.9354 0.27867 0.21561 0.0
N1363 N 0.93611 0.29118 0.25688 0.0
C1364 C 0.93645 0.26928 0.25314 0.0
C1365 C 0.93597 0.26252 0.23086 0.0
C1366 C 0.97622 0.18414 0.50381 0.0
C1367 C 0.99142 0.18295 0.52096 0.0
C1368 C 0.98324 0.18415 0.48201 0.0
C1369 C 0.00564 0.18366 0.47681 0.0
H1370 H 0.95884 0.18328 0.5072 0.0
H1371 H 0.97109 0.18344 0.46913 0.0
S1372 S 0.05181 0.18322 0.51598 0.0
N1373 N 0.02972 0.18302 0.53153 0.0
N1374 N 0.04293 0.18396 0.49048 0.0
C1375 C 0.02097 0.18435 0.49385 0.0
C1376 C 0.01383 0.18373 0.51601 0.0
C1377 C 0.06183 0.26147 0.76343 0.0
C1378 C 0.06235 0.23917 0.76902 0.0
C1379 C 0.06178 0.26809 0.7415 0.0
C1380 C 0.06296 0.25258 0.72463 0.0
H1381 H 0.06251 0.27385 0.77609 0.0
H1382 H 0.06255 0.2854 0.73779 0.0
S1383 S 0.06282 0.19229 0.7307 0.0
N1384 N 0.06207 0.20164 0.75604 0.0
N1385 N 0.06299 0.2141 0.71475 0.0
C1386 C 0.06227 0.23026 0.72999 0.0
C1387 C 0.06168 0.22353 0.75227 0.0
C1388 C 0.0112 0.68224 0.01407 0.0
C1389 C 0.98877 0.68234 0.01919 0.0
C1390 C 0.01829 0.68215 0.9923 0.0
C1391 C 0.00312 0.68148 0.9751 0.0
H1392 H 0.02329 0.68122 0.02699 0.0
H1393 H 0.03566 0.68093 0.98896 0.0
S1394 S 0.94275 0.68315 0.97984 0.0
N1395 N 0.95154 0.68356 0.00538 0.0
N1396 N 0.96489 0.68248 0.96437 0.0
C1397 C 0.98072 0.68272 0.97997 0.0
C1398 C 0.97352 0.68341 0.0021 0.0
C1399 C 0.55884 0.26887 0.24222 0.0
C1400 C 0.55897 0.25382 0.2249 0.0
C1401 C 0.55931 0.26161 0.26394 0.0
C1402 C 0.55927 0.23915 0.26889 0.0
H1403 H 0.56024 0.28623 0.23898 0.0
H1404 H 0.5609 0.27359 0.2769 0.0
S1405 S 0.55676 0.19344 0.22927 0.0
N1406 N 0.5572 0.21569 0.21395 0.0
N1407 N 0.55717 0.20205 0.25488 0.0
C1408 C 0.55741 0.22405 0.25174 0.0
C1409 C 0.55753 0.23141 0.22965 0.0
C1410 C 0.0159 0.80845 0.50316 0.0
C1411 C 0.00012 0.81022 0.51974 0.0
C1412 C 0.00965 0.80797 0.48113 0.0
C1413 C 0.98746 0.80855 0.47514 0.0
H1414 H 0.03316 0.80923 0.50712 0.0
H1415 H 0.02226 0.80832 0.46868 0.0
S1416 S 0.93995 0.81034 0.51265 0.0
N1417 N 0.96149 0.81076 0.52896 0.0
N1418 N 0.94971 0.80886 0.4875 0.0
C1419 C 0.97154 0.80839 0.49165 0.0
C1420 C 0.9779 0.80951 0.51403 0.0
C1421 C 0.43345 0.22345 0.74337 0.0
C1422 C 0.43314 0.23907 0.72657 0.0
C1423 C 0.4333 0.22996 0.76534 0.0
C1424 C 0.43352 0.25224 0.77108 0.0
H1425 H 0.43211 0.20619 0.73955 0.0
H1426 H 0.432 0.21754 0.77791 0.0
S1427 S 0.43521 0.29928 0.73296 0.0
N1428 N 0.43456 0.27756 0.7169 0.0
N1429 N 0.43525 0.2898 0.75826 0.0
C1430 C 0.43496 0.26792 0.75439 0.0
C1431 C 0.43449 0.26132 0.73207 0.0
C1432 C 0.98091 0.01115 0.31017 0.0
C1433 C 0.97567 0.98878 0.31124 0.0
C1434 C 0.00274 0.01817 0.31019 0.0
C1435 C 0.01988 0.00301 0.31204 0.0
H1436 H 0.96803 0.02332 0.31029 0.0
H1437 H 0.00613 0.03556 0.31042 0.0
S1438 S 0.01477 0.94264 0.31372 0.0
N1439 N 0.9893 0.95151 0.31236 0.0
N1440 N 0.03036 0.96471 0.31339 0.0
C1441 C 0.01488 0.98059 0.31201 0.0
C1442 C 0.99271 0.97345 0.31134 0.0
C1443 C 0.26304 0.2638 0.56138 0.0
C1444 C 0.24067 0.26914 0.56126 0.0
C1445 C 0.2699 0.24195 0.56118 0.0
C1446 C 0.25454 0.2249 0.56152 0.0
H1447 H 0.27526 0.27657 0.56271 0.0
H1448 H 0.28721 0.23841 0.56251 0.0
S1449 S 0.19423 0.2303 0.55949 0.0
N1450 N 0.20331 0.25575 0.55949 0.0
N1451 N 0.2162 0.21459 0.56011 0.0
C1452 C 0.2322 0.23002 0.56018 0.0
C1453 C 0.22525 0.25223 0.55976 0.0
C1454 C 0.99234 0.47418 0.80934 0.0
C1455 C 0.97531 0.48954 0.80971 0.0
C1456 C 0.01421 0.48103 0.80957 0.0
C1457 C 0.0196 0.5034 0.8095 0.0
H1458 H 0.98879 0.45687 0.81069 0.0
H1459 H 0.02696 0.46881 0.81095 0.0
S1460 S 0.98082 0.54985 0.80765 0.0
N1461 N 0.96508 0.52788 0.80821 0.0
N1462 N 0.00625 0.54076 0.80773 0.0
C1463 C 0.00271 0.51882 0.80795 0.0
C1464 C 0.98048 0.51187 0.80831 0.0
C1465 C 0.7686 0.24184 0.0611 0.0
C1466 C 0.75316 0.22486 0.06177 0.0
C1467 C 0.76188 0.26375 0.06136 0.0
C1468 C 0.73955 0.26925 0.06159 0.0
H1469 H 0.78592 0.23821 0.06207 0.0
H1470 H 0.7742 0.27645 0.06235 0.0
S1471 S 0.69284 0.23068 0.06106 0.0
N1472 N 0.71471 0.21484 0.06124 0.0
N1473 N 0.70208 0.25607 0.06075 0.0
C1474 C 0.724 0.25241 0.06055 0.0
C1475 C 0.73083 0.23015 0.06091 0.0
C1476 C 0.002 0.97586 0.68659 0.0
C1477 C 0.01852 0.99177 0.68545 0.0
C1478 C 0.97991 0.98196 0.6866 0.0
C1479 C 0.97379 0.00411 0.68618 0.0
H1480 H 0.00608 0.95864 0.68566 0.0
H1481 H 0.96756 0.96928 0.68577 0.0
S1482 S 0.01104 0.05189 0.68598 0.0
N1483 N 0.02749 0.03047 0.68569 0.0
N1484 N 0.98593 0.04194 0.68669 0.0
C1485 C 0.9902 0.02013 0.68698 0.0
C1486 C 0.01264 0.01394 0.68634 0.0
C1487 C 0.2257 0.24207 0.93632 0.0
C1488 C 0.24102 0.22501 0.93539 0.0
C1489 C 0.23262 0.26392 0.93654 0.0
C1490 C 0.255 0.26924 0.93652 0.0
H1491 H 0.20837 0.23859 0.93507 0.0
H1492 H 0.22042 0.27673 0.93558 0.0
S1493 S 0.30136 0.23029 0.93679 0.0
N1494 N 0.27935 0.21464 0.93612 0.0
N1495 N 0.29234 0.25574 0.93751 0.0
C1496 C 0.27039 0.25227 0.93748 0.0
C1497 C 0.26338 0.23008 0.93663 0.0
C1498 C 0.01212 0.51266 0.18244 0.0
C1499 C 0.0175 0.49032 0.18184 0.0
C1500 C 0.99026 0.51947 0.18329 0.0
C1501 C 0.97322 0.50409 0.18283 0.0
H1502 H 0.02485 0.52493 0.18122 0.0
H1503 H 0.98668 0.5368 0.18256 0.0
S1504 S 0.97881 0.44376 0.18299 0.0
N1505 N 0.00423 0.4529 0.18276 0.0
N1506 N 0.96304 0.46569 0.18332 0.0
C1507 C 0.97842 0.48173 0.18341 0.0
C1508 C 0.00066 0.47483 0.1832 0.0
C1509 C 0.76123 0.22876 0.43464 0.0
C1510 C 0.7389 0.22331 0.43405 0.0
C1511 C 0.76802 0.25065 0.43471 0.0
C1512 C 0.75263 0.26763 0.43348 0.0
H1513 H 0.77353 0.21602 0.43398 0.0
H1514 H 0.78536 0.25424 0.43396 0.0
S1515 S 0.69229 0.26195 0.43339 0.0
N1516 N 0.70146 0.23656 0.43418 0.0
N1517 N 0.71422 0.27775 0.43332 0.0
C1518 C 0.73027 0.26241 0.43411 0.0
C1519 C 0.72338 0.24018 0.43468 0.0
C1520 C 0.3108 0.99161 0.97632 0.0
C1521 C 0.31142 0.97465 0.99177 0.0
C1522 C 0.31111 0.01351 0.98303 0.0
C1523 C 0.31134 0.01901 0.00536 0.0
H1524 H 0.31184 0.98797 0.95901 0.0
H1525 H 0.31226 0.0262 0.97072 0.0
S1526 S 0.31027 0.9805 0.05207 0.0
N1527 N 0.31058 0.96463 0.0302 0.0
N1528 N 0.31011 0.00588 0.04282 0.0
C1529 C 0.31007 0.00221 0.0209 0.0
C1530 C 0.31041 0.97994 0.01409 0.0
C1531 C 0.81021 0.00222 0.51736 0.0
C1532 C 0.81113 0.0192 0.50194 0.0
C1533 C 0.81058 0.98034 0.51063 0.0
C1534 C 0.81117 0.97486 0.48831 0.0
H1535 H 0.8109 0.00583 0.5347 0.0
H1536 H 0.81143 0.96763 0.52295 0.0
S1537 S 0.81115 0.01341 0.44163 0.0
N1538 N 0.81107 0.02926 0.46351 0.0
N1539 N 0.81076 0.98802 0.45085 0.0
C1540 C 0.81031 0.99168 0.47276 0.0
C1541 C 0.81057 0.01394 0.4796 0.0
C1542 C 0.25294 0.05892 0.72623 0.0
C1543 C 0.26982 0.06012 0.74175 0.0
C1544 C 0.23099 0.05924 0.73283 0.0
C1545 C 0.22537 0.06004 0.75511 0.0
H1546 H 0.25666 0.05947 0.70892 0.0
H1547 H 0.21835 0.05989 0.72043 0.0
S1548 S 0.26365 0.06079 0.80203 0.0
N1549 N 0.27963 0.06052 0.78024 0.0
N1550 N 0.23832 0.06014 0.79266 0.0
C1551 C 0.24211 0.05943 0.77077 0.0
C1552 C 0.26441 0.05973 0.76406 0.0
C1553 C 0.18521 0.49183 0.01765 0.0
C1554 C 0.18333 0.47496 0.0022 0.0
C1555 C 0.18543 0.51375 0.01101 0.0
C1556 C 0.18448 0.51934 0.98873 0.0
H1557 H 0.18482 0.48816 0.03499 0.0
H1558 H 0.18527 0.52642 0.0234 0.0
S1559 S 0.18211 0.481 0.94192 0.0
N1560 N 0.18219 0.46506 0.96374 0.0
N1561 N 0.18354 0.50632 0.95122 0.0
C1562 C 0.18441 0.50256 0.9731 0.0
C1563 C 0.18356 0.48029 0.97987 0.0
C1564 C 0.25066 0.9358 0.26811 0.0
C1565 C 0.26787 0.9345 0.25298 0.0
C1566 C 0.22888 0.93587 0.261 0.0
C1567 C 0.22376 0.93534 0.23859 0.0
H1568 H 0.25398 0.93493 0.2855 0.0
H1569 H 0.21595 0.93519 0.2731 0.0
S1570 S 0.26311 0.9347 0.19258 0.0
N1571 N 0.27858 0.93449 0.21473 0.0
N1572 N 0.23757 0.93555 0.20136 0.0
C1573 C 0.24086 0.93597 0.22333 0.0
C1574 C 0.263 0.93529 0.23056 0.0
C1575 C 0.6835 0.97877 0.98328 0.0
C1576 C 0.6836 0.9732 0.00559 0.0
C1577 C 0.68436 0.00067 0.97662 0.0
C1578 C 0.68466 0.01759 0.99213 0.0
H1579 H 0.68172 0.96617 0.97095 0.0
H1580 H 0.68301 0.00441 0.95934 0.0
S1581 S 0.68684 0.01154 0.05236 0.0
N1582 N 0.68596 0.98619 0.04306 0.0
N1583 N 0.68664 0.02747 0.03054 0.0
C1584 C 0.68598 0.01221 0.0144 0.0
C1585 C 0.68571 0.98992 0.02115 0.0
C1586 C 0.25284 0.43105 0.76941 0.0
C1587 C 0.26997 0.43068 0.75416 0.0
C1588 C 0.23103 0.43116 0.7624 0.0
C1589 C 0.22583 0.4316 0.74 0.0
H1590 H 0.25626 0.4295 0.78673 0.0
H1591 H 0.21816 0.42982 0.77451 0.0
S1592 S 0.265 0.43353 0.69386 0.0
N1593 N 0.28055 0.43247 0.71593 0.0
N1594 N 0.23949 0.43369 0.70276 0.0
C1595 C 0.24286 0.43311 0.72471 0.0
C1596 C 0.26502 0.43236 0.73182 0.0
C1597 C 0.74248 0.05899 0.26874 0.0
C1598 C 0.72548 0.06023 0.25336 0.0
C1599 C 0.76436 0.05899 0.26195 0.0
C1600 C 0.76979 0.05951 0.23961 0.0
H1601 H 0.73891 0.05973 0.28608 0.0
H1602 H 0.77712 0.05963 0.27423 0.0
S1603 S 0.73107 0.06017 0.19304 0.0
N1604 N 0.7153 0.06034 0.21497 0.0
N1605 N 0.75648 0.05934 0.20218 0.0
C1606 C 0.7529 0.05893 0.2241 0.0
C1607 C 0.73067 0.05956 0.23101 0.0
C1608 C 0.93415 0.77231 0.75484 0.0
C1609 C 0.93588 0.75716 0.77198 0.0
C1610 C 0.93253 0.76518 0.73312 0.0
C1611 C 0.93325 0.74278 0.72793 0.0
H1612 H 0.93216 0.78956 0.75834 0.0
H1613 H 0.92961 0.77718 0.72041 0.0
S1614 S 0.94041 0.69698 0.76687 0.0
N1615 N 0.93999 0.71908 0.78241 0.0
N1616 N 0.93795 0.70572 0.74143 0.0
C1617 C 0.93693 0.72767 0.74478 0.0
C1618 C 0.93798 0.73487 0.76691 0.0
C1619 C 0.05845 0.76265 0.26254 0.0
C1620 C 0.05925 0.74033 0.26801 0.0
C1621 C 0.05815 0.7694 0.24064 0.0
C1622 C 0.05935 0.75399 0.22367 0.0
H1623 H 0.05915 0.77497 0.27526 0.0
H1624 H 0.05879 0.78673 0.23704 0.0
S1625 S 0.05992 0.69367 0.22941 0.0
N1626 N 0.05929 0.70287 0.25479 0.0
N1627 N 0.05966 0.71557 0.21359 0.0
C1628 C 0.05888 0.73164 0.22892 0.0
C1629 C 0.05858 0.72478 0.25116 0.0
C1630 C 0.55829 0.73369 0.72984 0.0
C1631 C 0.55941 0.75593 0.72411 0.0
C1632 C 0.55856 0.72717 0.7518 0.0
C1633 C 0.56073 0.7427 0.76859 0.0
H1634 H 0.55829 0.72124 0.71723 0.0
H1635 H 0.55882 0.70986 0.75556 0.0
S1636 S 0.56253 0.80294 0.76211 0.0
N1637 N 0.56085 0.79349 0.73686 0.0
N1638 N 0.56231 0.78123 0.7782 0.0
C1639 C 0.56066 0.765 0.7631 0.0
C1640 C 0.55975 0.77164 0.74078 0.0
C1641 C 0.433 0.75936 0.23237 0.0
C1642 C 0.43348 0.73685 0.22763 0.0
C1643 C 0.43249 0.76682 0.25402 0.0
C1644 C 0.43175 0.75194 0.27147 0.0
H1645 H 0.43198 0.77121 0.21924 0.0
H1646 H 0.431 0.78422 0.25704 0.0
S1647 S 0.43437 0.69153 0.26777 0.0
N1648 N 0.43505 0.6999 0.24209 0.0
N1649 N 0.43314 0.71391 0.28285 0.0
C1650 C 0.43337 0.72948 0.26699 0.0
C1651 C 0.43452 0.72192 0.24499 0.0
C1652 C 0.2364 0.72986 0.06009 0.0
C1653 C 0.25843 0.72434 0.06356 0.0
C1654 C 0.22959 0.75176 0.06033 0.0
C1655 C 0.24453 0.76864 0.06483 0.0
H1656 H 0.22425 0.71713 0.058 0.0
H1657 H 0.21234 0.75533 0.05848 0.0
S1658 S 0.30419 0.7626 0.07393 0.0
N1659 N 0.29533 0.73735 0.0702 0.0
N1660 N 0.28248 0.77849 0.07156 0.0
C1661 C 0.26674 0.76333 0.06744 0.0
C1662 C 0.27373 0.74113 0.06658 0.0
C1663 C 0.76703 0.74163 0.55836 0.0
C1664 C 0.75167 0.72466 0.56017 0.0
C1665 C 0.76022 0.76349 0.55783 0.0
C1666 C 0.73789 0.76891 0.55838 0.0
H1667 H 0.78438 0.73812 0.55917 0.0
H1668 H 0.77251 0.77627 0.55818 0.0
S1669 S 0.69133 0.73021 0.56019 0.0
N1670 N 0.71327 0.71446 0.56066 0.0
N1671 N 0.70046 0.7556 0.55867 0.0
C1672 C 0.72239 0.75201 0.55823 0.0
C1673 C 0.72931 0.7298 0.55941 0.0
C1674 C 0.26046 0.72963 0.43496 0.0
C1675 C 0.23822 0.72391 0.43362 0.0
C1676 C 0.26697 0.75159 0.4351 0.0
C1677 C 0.25144 0.76837 0.43318 0.0
H1678 H 0.27292 0.71703 0.43479 0.0
H1679 H 0.28429 0.75539 0.43495 0.0
S1680 S 0.19121 0.76197 0.43105 0.0
N1681 N 0.20064 0.73669 0.43234 0.0
N1682 N 0.21294 0.77804 0.43164 0.0
C1683 C 0.22914 0.7629 0.4331 0.0
C1684 C 0.22249 0.74058 0.43358 0.0
C1685 C 0.76251 0.72936 0.93437 0.0
C1686 C 0.7401 0.72413 0.93441 0.0
C1687 C 0.7695 0.75118 0.93475 0.0
C1688 C 0.75424 0.76831 0.93453 0.0
H1689 H 0.77465 0.71654 0.93293 0.0
H1690 H 0.78684 0.75465 0.93343 0.0
S1691 S 0.6939 0.76322 0.93631 0.0
N1692 N 0.70282 0.73772 0.93615 0.0
N1693 N 0.71598 0.7788 0.93593 0.0
C1694 C 0.73188 0.76329 0.93582 0.0
C1695 C 0.72478 0.74111 0.93603 0.0
C1696 C 0.30873 0.5005 0.51685 0.0
C1697 C 0.30932 0.51764 0.5016 0.0
C1698 C 0.30941 0.47869 0.50988 0.0
C1699 C 0.30998 0.47345 0.4875 0.0
H1700 H 0.3095 0.50396 0.53421 0.0
H1701 H 0.31053 0.46587 0.52206 0.0
S1702 S 0.30906 0.51248 0.44123 0.0
N1703 N 0.30882 0.5281 0.46328 0.0
N1704 N 0.30916 0.48699 0.45018 0.0
C1705 C 0.30873 0.49042 0.47213 0.0
C1706 C 0.30866 0.5126 0.47921 0.0
C1707 C 0.81099 0.49081 0.9756 0.0
C1708 C 0.81068 0.47376 0.99095 0.0
C1709 C 0.8113 0.51267 0.98248 0.0
C1710 C 0.81067 0.51803 0.00484 0.0
H1711 H 0.81272 0.48726 0.95833 0.0
H1712 H 0.81308 0.52541 0.9703 0.0
S1713 S 0.80723 0.47924 0.05119 0.0
N1714 N 0.80815 0.46351 0.02924 0.0
N1715 N 0.80783 0.50468 0.04213 0.0
C1716 C 0.80858 0.50115 0.0202 0.0
C1717 C 0.80885 0.47892 0.01324 0.0
C1718 C 0.26392 0.55566 0.25851 0.0
C1719 C 0.26976 0.55709 0.23632 0.0
C1720 C 0.24196 0.55659 0.26498 0.0
C1721 C 0.22533 0.55969 0.24946 0.0
H1722 H 0.27648 0.55497 0.27099 0.0
H1723 H 0.23816 0.55664 0.28229 0.0
S1724 S 0.23203 0.56256 0.1893 0.0
N1725 N 0.25718 0.55978 0.19876 0.0
N1726 N 0.21588 0.56241 0.21096 0.0
C1727 C 0.23087 0.55987 0.22717 0.0
C1728 C 0.25316 0.55832 0.22057 0.0
C1729 C 0.18485 0.99129 0.51812 0.0
C1730 C 0.18368 0.97434 0.5027 0.0
C1731 C 0.18519 0.01318 0.51137 0.0
C1732 C 0.18505 0.01865 0.48904 0.0
H1733 H 0.18369 0.98771 0.53544 0.0
H1734 H 0.18441 0.02591 0.52367 0.0
S1735 S 0.18479 0.98005 0.44239 0.0
N1736 N 0.18415 0.96423 0.46428 0.0
N1737 N 0.1857 0.00544 0.45159 0.0
C1738 C 0.18578 0.00179 0.47352 0.0
C1739 C 0.18483 0.97955 0.48037 0.0
C1740 C 0.6828 0.51323 0.51091 0.0
C1741 C 0.68173 0.51924 0.48875 0.0
C1742 C 0.68315 0.49117 0.51711 0.0
C1743 C 0.68169 0.47455 0.50132 0.0
H1744 H 0.6824 0.52565 0.52354 0.0
H1745 H 0.68287 0.48715 0.53437 0.0
S1746 S 0.68017 0.48183 0.44118 0.0
N1747 N 0.68099 0.50699 0.451 0.0
N1748 N 0.6807 0.46545 0.46266 0.0
C1749 C 0.68173 0.48036 0.4791 0.0
C1750 C 0.682 0.50279 0.47279 0.0
C1751 C 0.74196 0.55931 0.76813 0.0
C1752 C 0.72535 0.5609 0.75236 0.0
C1753 C 0.764 0.55935 0.7619 0.0
C1754 C 0.76998 0.56025 0.73972 0.0
H1755 H 0.73796 0.55978 0.78539 0.0
H1756 H 0.77645 0.55973 0.7745 0.0
S1757 S 0.73246 0.56192 0.6922 0.0
N1758 N 0.71614 0.56175 0.71373 0.0
N1759 N 0.75762 0.5608 0.70197 0.0
C1760 C 0.75348 0.56 0.72378 0.0
C1761 C 0.73109 0.5606 0.73014 0.0
C1762 C 0.5194 0.30775 0.50441 0.0
C1763 C 0.50385 0.30781 0.5213 0.0
C1764 C 0.51279 0.30852 0.4825 0.0
C1765 C 0.49049 0.3087 0.47689 0.0
H1766 H 0.53668 0.30898 0.50816 0.0
H1767 H 0.52516 0.3101 0.46991 0.0
S1768 S 0.4436 0.30623 0.51511 0.0
N1769 N 0.46539 0.3063 0.53109 0.0
N1770 N 0.45297 0.30682 0.48978 0.0
C1771 C 0.47486 0.30684 0.49357 0.0
C1772 C 0.48157 0.30665 0.51587 0.0
C1773 C 0.51957 0.18185 0.99377 0.0
C1774 C 0.50425 0.18169 0.97669 0.0
C1775 C 0.51267 0.18157 0.01561 0.0
C1776 C 0.49029 0.18182 0.02092 0.0
H1777 H 0.53689 0.18048 0.99025 0.0
H1778 H 0.52485 0.18017 0.02841 0.0
S1779 S 0.44393 0.18398 0.98202 0.0
N1780 N 0.46593 0.18332 0.96634 0.0
N1781 N 0.45297 0.18383 0.00747 0.0
C1782 C 0.47491 0.18345 0.00399 0.0
C1783 C 0.48191 0.1831 0.98179 0.0
C1784 C 0.51742 0.6841 0.49098 0.0
C1785 C 0.50231 0.68426 0.47371 0.0
C1786 C 0.51026 0.6829 0.51271 0.0
C1787 C 0.48783 0.6825 0.51774 0.0
H1788 H 0.5348 0.6831 0.48765 0.0
H1789 H 0.52232 0.68121 0.52558 0.0
S1790 S 0.4419 0.68524 0.47839 0.0
N1791 N 0.46409 0.6856 0.46296 0.0
N1792 N 0.45063 0.68428 0.50394 0.0
C1793 C 0.47262 0.68449 0.50071 0.0
C1794 C 0.47988 0.68511 0.47858 0.0
C1795 C 0.47592 0.80847 0.99269 0.0
C1796 C 0.49164 0.8102 0.97605 0.0
C1797 C 0.4822 0.8085 0.01472 0.0
C1798 C 0.50439 0.80953 0.02066 0.0
H1799 H 0.45864 0.8088 0.98875 0.0
H1800 H 0.46962 0.80877 0.02719 0.0
S1801 S 0.55182 0.81152 0.98308 0.0
N1802 N 0.53026 0.81129 0.96679 0.0
N1803 N 0.54211 0.81031 0.00825 0.0
C1804 C 0.52029 0.80942 0.00414 0.0
C1805 C 0.51389 0.81004 0.98176 0.0
C1806 C 0.48186 0.01187 0.81168 0.0
C1807 C 0.47628 0.98956 0.81097 0.0
C1808 C 0.50377 0.01857 0.81116 0.0
C1809 C 0.5207 0.00308 0.81055 0.0
H1810 H 0.46925 0.02414 0.8137 0.0
H1811 H 0.5075 0.0358 0.81302 0.0
S1812 S 0.51468 0.94293 0.8067 0.0
N1813 N 0.48932 0.95218 0.80767 0.0
N1814 N 0.53059 0.96475 0.8076 0.0
C1815 C 0.51532 0.98085 0.80859 0.0
C1816 C 0.49303 0.97408 0.80853 0.0
C1817 C 0.51556 0.48245 0.3105 0.0
C1818 C 0.52044 0.50492 0.31048 0.0
C1819 C 0.49386 0.4751 0.31006 0.0
C1820 C 0.47645 0.49006 0.31027 0.0
H1821 H 0.52858 0.47051 0.31188 0.0
H1822 H 0.49069 0.4577 0.31125 0.0
S1823 S 0.48062 0.55048 0.30859 0.0
N1824 N 0.50626 0.54198 0.30883 0.0
N1825 N 0.46537 0.52817 0.30893 0.0
C1826 C 0.48113 0.51251 0.30911 0.0
C1827 C 0.5032 0.51996 0.30895 0.0
C1828 C 0.50162 0.97569 0.18562 0.0
C1829 C 0.51871 0.99101 0.1847 0.0
C1830 C 0.47978 0.98255 0.18508 0.0
C1831 C 0.47446 0.0049 0.18431 0.0
H1832 H 0.50513 0.95833 0.18499 0.0
H1833 H 0.46699 0.9703 0.1842 0.0
S1834 S 0.51329 0.05135 0.1842 0.0
N1835 N 0.52901 0.02938 0.18457 0.0
N1836 N 0.48784 0.04228 0.1845 0.0
C1837 C 0.49137 0.02036 0.18518 0.0
C1838 C 0.51358 0.01338 0.18512 0.0
C1839 C 0.50165 0.47422 0.68218 0.0
C1840 C 0.5183 0.49001 0.68165 0.0
C1841 C 0.47962 0.4805 0.68207 0.0
C1842 C 0.47369 0.50271 0.68213 0.0
H1843 H 0.50564 0.45699 0.68095 0.0
H1844 H 0.46716 0.46794 0.68092 0.0
S1845 S 0.51136 0.55016 0.68321 0.0
N1846 N 0.52762 0.5286 0.68267 0.0
N1847 N 0.48616 0.54042 0.68348 0.0
C1848 C 0.49023 0.51858 0.68337 0.0
C1849 C 0.51261 0.51221 0.68284 0.0
C1850 C 0.7343 0.9391 0.74559 0.0
C1851 C 0.7235 0.91995 0.73891 0.0
C1852 C 0.75629 0.93839 0.7524 0.0
C1853 C 0.7681 0.91861 0.75211 0.0
H1854 H 0.72556 0.9545 0.74611 0.0
H1855 H 0.76409 0.95335 0.75781 0.0
S1856 S 0.74698 0.86422 0.735 0.0
N1857 N 0.7261 0.88098 0.73186 0.0
N1858 N 0.76719 0.87955 0.74418 0.0
C1859 C 0.75741 0.89952 0.74492 0.0
C1860 C 0.73515 0.90022 0.73842 0.0
C1861 C 0.75365 0.43261 0.26895 0.0
C1862 C 0.77063 0.43266 0.25351 0.0
C1863 C 0.73176 0.43227 0.2622 0.0
C1864 C 0.72629 0.43264 0.23987 0.0
H1865 H 0.75729 0.4311 0.28623 0.0
H1866 H 0.71907 0.4307 0.27447 0.0
S1867 S 0.76485 0.43535 0.19326 0.0
N1868 N 0.78069 0.43466 0.21514 0.0
N1869 N 0.73945 0.43494 0.20247 0.0
C1870 C 0.7431 0.43447 0.22438 0.0
C1871 C 0.76536 0.43422 0.23122 0.0
C1872 C 0.98184 0.27725 0.11762 0.0
C1873 C 0.0033 0.27084 0.11238 0.0
C1874 C 0.96724 0.26284 0.12762 0.0
C1875 C 0.97336 0.24128 0.13277 0.0
H1876 H 0.97616 0.29364 0.11403 0.0
H1877 H 0.95095 0.26875 0.1313 0.0
S1878 S 0.02767 0.21615 0.12244 0.0
N1879 N 0.03003 0.24136 0.11306 0.0
N1880 N 0.00246 0.21413 0.1319 0.0
C1881 C 0.99476 0.23453 0.1276 0.0
C1882 C 0.00976 0.24933 0.11745 0.0
C1883 C 0.96769 0.23134 0.36892 0.0
C1884 C 0.97393 0.25279 0.36346 0.0
C1885 C 0.98223 0.21698 0.37906 0.0
C1886 C 0.00373 0.22337 0.38416 0.0
H1887 H 0.95137 0.22544 0.36534 0.0
H1888 H 0.97646 0.20067 0.38286 0.0
S1889 S 0.02837 0.27783 0.3734 0.0
N1890 N 0.00315 0.27984 0.36395 0.0
N1891 N 0.03061 0.25274 0.38309 0.0
C1892 C 0.01029 0.2448 0.37885 0.0
C1893 C 0.99536 0.25953 0.36853 0.0
C1894 C 0.9888 0.24174 0.61489 0.0
C1895 C 0.9926 0.21907 0.61476 0.0
C1896 C 0.00383 0.25618 0.62453 0.0
C1897 C 0.02311 0.24843 0.63445 0.0
H1898 H 0.97444 0.24845 0.607 0.0
H1899 H 0.00041 0.27355 0.62393 0.0
S1900 S 0.03938 0.19013 0.6404 0.0
N1901 N 0.01616 0.18936 0.6267 0.0
N1902 N 0.04428 0.21627 0.64484 0.0
C1903 C 0.02666 0.22566 0.63502 0.0
C1904 C 0.01144 0.21104 0.62518 0.0
C1905 C 0.98831 0.24949 0.88107 0.0
C1906 C 0.99131 0.27227 0.88028 0.0
C1907 C 0.00323 0.23527 0.87096 0.0
C1908 C 0.02158 0.24339 0.85964 0.0
H1909 H 0.97476 0.24256 0.89014 0.0
H1910 H 0.00058 0.21782 0.87239 0.0
S1911 S 0.03504 0.30201 0.85052 0.0
N1912 N 0.01279 0.30239 0.86575 0.0
N1913 N 0.04068 0.27592 0.84667 0.0
C1914 C 0.02415 0.26624 0.85799 0.0
C1915 C 0.00906 0.28062 0.86832 0.0
C1916 C 0.00889 0.74131 0.87609 0.0
C1917 C 0.00085 0.72185 0.88543 0.0
C1918 C 0.9947 0.75665 0.86666 0.0
C1919 C 0.97201 0.75301 0.86613 0.0
H1920 H 0.02629 0.74464 0.87585 0.0
H1921 H 0.00162 0.77118 0.85924 0.0
S1922 S 0.94236 0.70576 0.89009 0.0
N1923 N 0.96841 0.70058 0.89477 0.0
N1924 N 0.94196 0.72933 0.877 0.0
C1925 C 0.96369 0.73395 0.87591 0.0
C1926 C 0.97806 0.71839 0.88556 0.0
C1927 C 0.50037 0.25704 0.13092 0.0
C1928 C 0.52308 0.25338 0.13079 0.0
C1929 C 0.48593 0.24208 0.12118 0.0
C1930 C 0.49374 0.223 0.1109 0.0
H1931 H 0.49366 0.27122 0.13915 0.0
H1932 H 0.46855 0.24532 0.12203 0.0
S1933 S 0.55211 0.20734 0.10398 0.0
N1934 N 0.55284 0.23031 0.11809 0.0
N1935 N 0.52595 0.20231 0.09975 0.0
C1936 C 0.51653 0.21966 0.10999 0.0
C1937 C 0.53113 0.23481 0.11993 0.0
C1938 C 0.01225 0.77589 0.37713 0.0
C1939 C 0.99061 0.76962 0.38173 0.0
C1940 C 0.02687 0.76157 0.36708 0.0
C1941 C 0.02059 0.74025 0.36119 0.0
H1942 H 0.01809 0.7921 0.38126 0.0
H1943 H 0.0433 0.76741 0.36391 0.0
S1944 S 0.9658 0.71549 0.36974 0.0
N1945 N 0.96354 0.74047 0.37975 0.0
N1946 N 0.99118 0.71341 0.36075 0.0
C1947 C -0.00097 0.73359 0.36577 0.0
C1948 C 0.984 0.74831 0.376 0.0
C1949 C 0.5072 0.24927 0.6153 0.0
C1950 C 0.50435 0.27204 0.61651 0.0
C1951 C 0.49221 0.23496 0.62521 0.0
C1952 C 0.47395 0.24299 0.63673 0.0
H1953 H 0.52065 0.24244 0.606 0.0
H1954 H 0.4947 0.21752 0.62341 0.0
S1955 S 0.46105 0.3015 0.64711 0.0
N1956 N 0.48322 0.30203 0.63175 0.0
N1957 N 0.45522 0.27538 0.65049 0.0
C1958 C 0.47159 0.26581 0.63887 0.0
C1959 C 0.48675 0.28028 0.62874 0.0
C1960 C 0.11601 0.98204 0.27642 0.0
C1961 C 0.11085 0.00364 0.27046 0.0
C1962 C 0.12583 0.96769 0.26166 0.0
C1963 C 0.13091 0.97421 0.24019 0.0
H1964 H 0.11251 0.97604 0.29272 0.0
H1965 H 0.12948 0.95128 0.26725 0.0
S1966 S 0.12059 0.029 0.21614 0.0
N1967 N 0.1114 0.03091 0.24145 0.0
N1968 N 0.12994 0.0038 0.21359 0.0
C1969 C 0.12575 0.99574 0.23386 0.0
C1970 C 0.11575 0.01048 0.24902 0.0
C1971 C 0.23642 0.36971 0.50182 0.0
C1972 C 0.24441 0.35937 0.52078 0.0
C1973 C 0.25071 0.37934 0.48665 0.0
C1974 C 0.27346 0.37903 0.49 0.0
H1975 H 0.21899 0.37067 0.4988 0.0
H1976 H 0.24387 0.38761 0.47256 0.0
S1977 S 0.30295 0.35204 0.53565 0.0
N1978 N 0.27683 0.348 0.54105 0.0
N1979 N 0.30345 0.36613 0.51266 0.0
C1980 C 0.2817 0.36813 0.50846 0.0
C1981 C 0.26724 0.3583 0.52382 0.0
C1982 C 0.86836 0.52698 0.76319 0.0
C1983 C 0.86298 0.52075 0.74171 0.0
C1984 C 0.87814 0.51235 0.77769 0.0
C1985 C 0.88296 0.49075 0.77145 0.0
H1986 H 0.86503 0.54338 0.76899 0.0
H1987 H 0.88192 0.51815 0.794 0.0
S1988 S 0.87219 0.46606 0.71702 0.0
N1989 N 0.86318 0.49141 0.71481 0.0
N1990 N 0.88166 0.46376 0.7422 0.0
C1991 C 0.87768 0.48418 0.75001 0.0
C1992 C 0.86773 0.49921 0.73511 0.0
C1993 C 0.73155 0.12704 0.0283 0.0
C1994 C 0.75312 0.13217 0.0222 0.0
C1995 C 0.71728 0.11663 0.01386 0.0
C1996 C 0.72386 0.1109 0.99258 0.0
H1997 H 0.7255 0.13104 0.04446 0.0
H1998 H 0.70088 0.11307 0.01955 0.0
S1999 S 0.77864 0.12076 0.96828 0.0
N2000 N 0.78045 0.13082 0.99327 0.0
N2001 N 0.7535 0.11116 0.966 0.0
C2002 C 0.74537 0.11598 0.98612 0.0
C2003 C 0.76003 0.12659 0.00094 0.0
C2004 C 0.12723 0.02754 0.73161 0.0
C2005 C 0.13228 0.02113 0.75312 0.0
C2006 C 0.11717 0.01321 0.71701 0.0
C2007 C 0.11172 0.99173 0.72315 0.0
H2008 H 0.13102 0.04387 0.72588 0.0
H2009 H 0.11365 0.01915 0.70069 0.0
S2010 S 0.12149 0.96661 0.77755 0.0
N2011 N 0.13115 0.99172 0.77991 0.0
N2012 N 0.11213 0.96462 0.7523 0.0
C2013 C 0.11671 0.98495 0.74459 0.0
C2014 C 0.12696 -0.00031 0.7596 0.0
C2015 C 0.24223 0.37375 0.00974 0.0
C2016 C 0.22422 0.3854 0.00137 0.0
C2017 C 0.25733 0.36363 0.99571 0.0
C2018 C 0.25484 0.36479 0.97288 0.0
H2019 H 0.24443 0.37201 0.02723 0.0
H2020 H 0.27058 0.35425 0.00278 0.0
S2021 S 0.21234 0.39575 0.94264 0.0
N2022 N 0.20613 0.39926 0.96865 0.0
N2023 N 0.23433 0.38015 0.94251 0.0
C2024 C 0.23749 0.37715 0.96433 0.0
C2025 C 0.22222 0.38748 0.97851 0.0
C2026 C 0.87723 0.48108 0.21756 0.0
C2027 C 0.88207 0.50261 0.22402 0.0
C2028 C 0.86769 0.46622 0.232 0.0
C2029 C 0.86258 0.47216 0.25362 0.0
H2030 H 0.88079 0.47551 0.20113 0.0
H2031 H 0.8643 0.44989 0.22602 0.0
S2032 S 0.87202 0.52655 0.27892 0.0
N2033 N 0.88113 0.52921 0.25364 0.0
N2034 N 0.8631 0.50114 0.28091 0.0
C2035 C 0.86738 0.49362 0.26044 0.0
C2036 C 0.8771 0.50888 0.24562 0.0
C2037 C 0.77665 0.11635 0.48178 0.0
C2038 C 0.77047 0.11083 0.50323 0.0
C2039 C 0.76195 0.12613 0.46738 0.0
C2040 C 0.74035 0.13085 0.47369 0.0
H2041 H 0.79304 0.1131 0.47592 0.0
H2042 H 0.76772 0.13001 0.45108 0.0
S2043 S 0.71578 0.11968 0.52807 0.0
N2044 N 0.74117 0.11076 0.53019 0.0
N2045 N 0.7134 0.12929 0.50295 0.0
C2046 C 0.73382 0.12543 0.49509 0.0
C2047 C 0.74892 0.11545 0.5099 0.0
C2048 C 0.23778 0.12829 0.99286 0.0
C2049 C 0.24324 0.13135 0.97072 0.0
C2050 C 0.25252 0.11846 0.00746 0.0
C2051 C 0.27322 0.11125 0.00042 0.0
H2052 H 0.22215 0.13385 -0.00092 0.0
H2053 H 0.24763 0.11656 0.02437 0.0
S2054 S 0.29499 0.11452 0.9437 0.0
N2055 N 0.27048 0.12564 0.94227 0.0
N2056 N 0.29811 0.10737 0.9695 0.0
C2057 C 0.27871 0.11394 0.97819 0.0
C2058 C 0.26375 0.12393 0.96341 0.0
C2059 C 0.73662 0.86421 0.49938 0.0
C2060 C 0.74015 0.86425 0.52211 0.0
C2061 C 0.75169 0.87399 0.48507 0.0
C2062 C 0.77074 0.88423 0.49301 0.0
H2063 H 0.72247 0.85602 0.49255 0.0
H2064 H 0.74853 0.87321 0.46766 0.0
S2065 S 0.78611 0.89087 0.5515 0.0
N2066 N 0.7631 0.8768 0.55204 0.0
N2067 N 0.79129 0.89521 0.5254 0.0
C2068 C 0.77396 0.88505 0.51583 0.0
C2069 C 0.7587 0.87506 0.5303 0.0
C2070 C 0.36752 0.0268 0.76398 0.0
C2071 C 0.36237 0.02062 0.74243 0.0
C2072 C 0.37771 0.01232 0.77837 0.0
C2073 C 0.38317 0.99093 0.77192 0.0
H2074 H 0.3637 0.04305 0.76991 0.0
H2075 H 0.3813 0.01805 0.79474 0.0
S2076 S 0.37317 0.96642 0.71726 0.0
N2077 N 0.36345 0.99153 0.71528 0.0
N2078 N 0.38266 0.96418 0.74244 0.0
C2079 C 0.37809 0.98441 0.75043 0.0
C2080 C 0.36772 -0.00073 0.73566 0.0
C2081 C 0.21788 0.61807 0.01187 0.0
C2082 C 0.22407 0.61262 0.9904 0.0
C2083 C 0.23256 0.62787 0.02633 0.0
C2084 C 0.25416 0.63264 0.02005 0.0
H2085 H 0.20149 0.61471 0.01771 0.0
H2086 H 0.22681 0.63163 0.04266 0.0
S2087 S 0.27868 0.6219 0.96553 0.0
N2088 N 0.25331 0.61288 0.9634 0.0
N2089 N 0.28105 0.63139 0.9907 0.0
C2090 C 0.26065 0.62742 -0.00143 0.0
C2091 C 0.24557 0.61743 0.98373 0.0
C2092 C 0.74261 0.87875 0.00728 0.0
C2093 C 0.71996 0.8787 0.00333 0.0
C2094 C 0.7572 0.86913 0.99242 0.0
C2095 C 0.74962 0.85901 0.97316 0.0
H2096 H 0.74917 0.88679 0.02164 0.0
H2097 H 0.77454 0.86986 0.99595 0.0
S2098 S 0.69145 0.85254 0.95656 0.0
N2099 N 0.69046 0.8664 0.97967 0.0
N2100 N 0.71765 0.84825 0.95185 0.0
C2101 C 0.72688 0.85826 0.96945 0.0
C2102 C 0.71211 0.86811 0.98451 0.0
C2103 C 0.37066 0.48872 0.75742 0.0
C2104 C 0.35979 0.46992 0.74972 0.0
C2105 C 0.38015 0.50372 0.74287 0.0
C2106 C 0.37918 0.50037 0.72015 0.0
H2107 H 0.37216 0.49172 0.77481 0.0
H2108 H 0.38885 0.51767 0.74949 0.0
S2109 S 0.35052 0.45523 0.69143 0.0
N2110 N 0.34712 0.44989 0.71764 0.0
N2111 N 0.36505 0.47795 0.69052 0.0
C2112 C 0.36773 0.4821 0.71221 0.0
C2113 C 0.35802 0.46691 0.72693 0.0
C2114 C 0.61335 0.98695 0.24423 0.0
C2115 C 0.61359 0.99028 0.22148 0.0
C2116 C 0.62377 0.00168 0.25842 0.0
C2117 C 0.63486 0.02017 0.25033 0.0
H2118 H 0.60452 0.97325 0.25117 0.0
H2119 H 0.62277 -0.00127 0.27586 0.0
S2120 S 0.64248 0.03463 0.19176 0.0
N2121 N 0.62731 0.01232 0.19137 0.0
N2122 N 0.64695 0.03986 0.21783 0.0
C2123 C 0.63591 0.02314 0.2275 0.0
C2124 C 0.62527 0.00823 0.21314 0.0
C2125 C 0.00348 0.75364 0.61632 0.0
C2126 C -0.00111 0.77612 0.61489 0.0
C2127 C 0.98888 0.73924 0.62661 0.0
C2128 C 0.96923 0.74683 0.63592 0.0
H2129 H 0.01819 0.74702 0.60901 0.0
H2130 H 0.99297 0.72201 0.62707 0.0
S2131 S 0.95062 0.80469 0.6381 0.0
N2132 N 0.97402 0.80555 0.62474 0.0
N2133 N 0.94665 0.77868 0.64402 0.0
C2134 C 0.96479 0.76943 0.63507 0.0
C2135 C 0.9796 0.78402 0.62458 0.0
C2136 C 0.0267 0.7315 0.12632 0.0
C2137 C 0.02072 0.75318 0.13114 0.0
C2138 C 0.01201 0.71704 0.11649 0.0
C2139 C 0.99062 0.72354 0.11109 0.0
H2140 H 0.04292 0.72552 0.13016 0.0
H2141 H 0.01759 0.70056 0.11317 0.0
S2142 S 0.96664 0.77857 0.12021 0.0
N2143 N 0.99183 0.78053 0.12973 0.0
N2144 N 0.96413 0.75324 0.1112 0.0
C2145 C 0.98432 0.74518 0.11579 0.0
C2146 C -0.00062 0.76002 0.12579 0.0
C2147 C 0.48559 0.74028 0.61485 0.0
C2148 C 0.4915 0.71835 0.61119 0.0
C2149 C 0.50021 0.75502 0.6246 0.0
C2150 C 0.52124 0.74835 0.63118 0.0
H2151 H 0.46967 0.74622 0.60986 0.0
H2152 H 0.49493 0.77175 0.627 0.0
S2153 S 0.54442 0.69238 0.62596 0.0
N2154 N 0.51965 0.69052 0.61548 0.0
N2155 N 0.54705 0.71809 0.63366 0.0
C2156 C 0.52724 0.72636 0.62783 0.0
C2157 C 0.5124 0.71141 0.61789 0.0
C2158 C 0.495 0.73593 0.13352 0.0
C2159 C 0.47217 0.73869 0.13327 0.0
C2160 C 0.50886 0.75115 0.12333 0.0
C2161 C 0.50033 0.76958 0.11246 0.0
H2162 H 0.50225 0.72226 0.14214 0.0
H2163 H 0.52636 0.7486 0.12428 0.0
S2164 S 0.44142 0.78276 0.10508 0.0
N2165 N 0.44156 0.76022 0.11987 0.0
N2166 N 0.46737 0.78868 0.10071 0.0
C2167 C 0.47744 0.77202 0.11147 0.0
C2168 C 0.46342 0.75661 0.12187 0.0
C2169 C 0.115 0.50571 0.75058 0.0
C2170 C 0.11443 0.5016 0.7732 0.0
C2171 C 0.125 0.49094 0.73613 0.0
C2172 C 0.13485 0.4716 0.74382 0.0
H2173 H 0.1072 0.52015 0.74391 0.0
H2174 H 0.12475 0.4946 0.7188 0.0
S2175 S 0.13963 0.4545 0.80201 0.0
N2176 N 0.12584 0.47766 0.80281 0.0
N2177 N 0.14463 0.45001 0.77589 0.0
C2178 C 0.13495 0.46772 0.76655 0.0
C2179 C 0.12475 0.48269 0.78117 0.0
C2180 C 0.26498 0.86597 0.02853 0.0
C2181 C 0.24374 0.85996 0.0221 0.0
C2182 C 0.27924 0.87644 0.01409 0.0
C2183 C 0.27294 0.88135 0.99251 0.0
H2184 H 0.27076 0.86265 0.04494 0.0
H2185 H 0.29537 0.88074 0.02002 0.0
S2186 S 0.21912 0.86885 0.96728 0.0
N2187 N 0.21707 0.85951 0.99252 0.0
N2188 N 0.24396 0.87924 0.96529 0.0
C2189 C 0.25177 0.87534 0.98573 0.0
C2190 C 0.23715 0.86468 0.00053 0.0
C2191 C 0.87829 0.01192 0.2767 0.0
C2192 C 0.88324 0.99032 0.27054 0.0
C2193 C 0.86831 0.02641 0.26218 0.0
C2194 C 0.86286 0.02003 0.24077 0.0
H2195 H 0.88208 0.01782 0.29297 0.0
H2196 H 0.86486 0.0428 0.26792 0.0
S2197 S 0.87243 0.9653 0.21627 0.0
N2198 N 0.88204 0.9632 0.24142 0.0
N2199 N 0.8632 0.99057 0.21399 0.0
C2200 C 0.86778 -0.0015 0.23424 0.0
C2201 C 0.87793 0.98362 0.24916 0.0
C2202 C 0.75621 0.63052 0.50259 0.0
C2203 C 0.75259 0.63021 0.52529 0.0
C2204 C 0.7413 0.62074 0.48811 0.0
C2205 C 0.72232 0.61022 0.49587 0.0
H2206 H 0.77028 0.63897 0.4959 0.0
H2207 H 0.74452 0.62177 0.47073 0.0
S2208 S 0.70682 0.60276 0.55421 0.0
N2209 N 0.72967 0.61707 0.55499 0.0
N2210 N 0.70178 0.59865 0.52803 0.0
C2211 C 0.71904 0.6091 0.51866 0.0
C2212 C 0.73414 0.61909 0.5333 0.0
C2213 C 0.11849 0.48848 0.23909 0.0
C2214 C 0.10992 0.49581 0.21901 0.0
C2215 C 0.12872 0.503 0.25362 0.0
C2216 C 0.13085 0.52533 0.24855 0.0
H2217 H 0.11743 0.47139 0.2436 0.0
H2218 H 0.13539 0.49656 0.26872 0.0
S2219 S 0.10998 0.55318 0.19879 0.0
N2220 N 0.10346 0.52725 0.19534 0.0
N2221 N 0.1226 0.55432 0.22259 0.0
C2222 C 0.12197 0.53296 0.22876 0.0
C2223 C 0.11154 0.51825 0.21402 0.0
C2224 C 0.24059 0.8792 0.50657 0.0
C2225 C 0.21794 0.87945 0.50259 0.0
C2226 C 0.25505 0.86917 0.49183 0.0
C2227 C 0.24734 0.85897 0.47267 0.0
H2228 H 0.24726 0.88733 0.52082 0.0
H2229 H 0.2724 0.86973 0.49535 0.0
S2230 S 0.18909 0.85308 0.45615 0.0
N2231 N 0.18829 0.86725 0.47908 0.0
N2232 N 0.21524 0.84836 0.45151 0.0
C2233 C 0.22459 0.85846 0.46899 0.0
C2234 C 0.20996 0.8687 0.48391 0.0
C2235 C 0.8652 0.99088 0.75668 0.0
C2236 C 0.85518 0.97177 0.74861 0.0
C2237 C 0.8756 0.00567 0.74255 0.0
C2238 C 0.87639 0.00178 0.7199 0.0
H2239 H 0.86553 0.99418 0.77408 0.0
H2240 H 0.88371 0.01981 0.7495 0.0
S2241 S 0.85012 0.95584 0.69018 0.0
N2242 N 0.84489 0.951 0.71619 0.0
N2243 N 0.86449 0.97867 0.68981 0.0
C2244 C 0.86558 0.9833 0.71154 0.0
C2245 C 0.85497 0.96833 0.72584 0.0
C2246 C 0.7512 0.61917 0.00781 0.0
C2247 C 0.77025 0.60878 7e-05 0.0
C2248 C 0.73646 0.62919 0.99335 0.0
C2249 C 0.74032 0.62926 0.97068 0.0
H2250 H 0.74779 0.61988 0.02517 0.0
H2251 H 0.7223 0.63747 3e-05 0.0
S2252 S 0.78641 0.60235 0.9418 0.0
N2253 N 0.79116 0.5978 0.96795 0.0
N2254 N 0.76357 0.61666 0.941 0.0
C2255 C 0.75887 0.61831 0.96268 0.0
C2256 C 0.77381 0.60808 0.97731 0.0
C2257 C 0.26132 0.62522 0.46551 0.0
C2258 C 0.23966 0.63016 0.47143 0.0
C2259 C 0.27559 0.6151 0.48013 0.0
C2260 C 0.26892 0.60949 0.50141 0.0
H2261 H 0.26745 0.62918 0.44937 0.0
H2262 H 0.29207 0.61171 0.47458 0.0
S2263 S 0.21384 0.6188 0.5252 0.0
N2264 N 0.2121 0.62865 0.50012 0.0
N2265 N 0.23907 0.60954 0.52775 0.0
C2266 C 0.24729 0.6143 0.50766 0.0
C2267 C 0.23263 0.62461 0.49264 0.0
C2268 C 0.77762 0.37659 0.01305 0.0
C2269 C 0.77162 0.38151 0.9914 0.0
C2270 C 0.76293 0.3668 0.02749 0.0
C2271 C 0.7415 0.36152 0.02102 0.0
H2272 H 0.79388 0.3803 0.01903 0.0
H2273 H 0.76854 0.36339 0.04394 0.0
S2274 S 0.71742 0.37101 0.9661 0.0
N2275 N 0.74266 0.3804 0.9641 0.0
N2276 N 0.71491 0.36191 0.99139 0.0
C2277 C 0.73515 0.36635 -0.00058 0.0
C2278 C 0.75024 0.37632 0.98459 0.0
C2279 C 0.36716 0.52264 0.26187 0.0
C2280 C 0.36295 0.51655 0.24009 0.0
C2281 C 0.37755 0.50844 0.27636 0.0
C2282 C 0.3842 0.48742 0.26981 0.0
H2283 H 0.36249 0.53862 0.26791 0.0
H2284 H 0.38041 0.51412 0.2929 0.0
S2285 S 0.37683 0.46321 0.21462 0.0
N2286 N 0.36605 0.48788 0.21264 0.0
N2287 N 0.38569 0.46104 0.24004 0.0
C2288 C 0.37997 0.48093 0.24813 0.0
C2289 C 0.36937 0.49553 0.23324 0.0
C2290 C 0.24539 0.11347 0.48854 0.0
C2291 C 0.22266 0.11346 0.49202 0.0
C2292 C 0.25965 0.12351 0.50348 0.0
C2293 C 0.25163 0.13399 0.52237 0.0
H2294 H 0.25228 0.10518 0.47448 0.0
H2295 H 0.27706 0.1228 0.50033 0.0
S2296 S 0.19311 0.14054 0.53759 0.0
N2297 N 0.19265 0.12614 0.51479 0.0
N2298 N 0.2192 0.14506 0.54274 0.0
C2299 C 0.22882 0.13469 0.52558 0.0
C2300 C 0.2144 0.12442 0.51045 0.0
C2301 C 0.7302 0.36593 0.46498 0.0
C2302 C 0.75164 0.3607 0.47146 0.0
C2303 C 0.71568 0.37627 0.47924 0.0
C2304 C 0.72188 0.38178 0.50069 0.0
H2305 H 0.72445 0.36204 0.44868 0.0
H2306 H 0.69939 0.37989 0.4733 0.0
S2307 S 0.77621 0.3717 0.5259 0.0
N2308 N 0.77845 0.36184 0.50087 0.0
N2309 N 0.75106 0.38131 0.52779 0.0
C2310 C 0.74328 0.37667 0.50749 0.0
C2311 C 0.75818 0.36616 0.49285 0.0
C2312 C 0.37342 0.00686 0.24243 0.0
C2313 C 0.38267 -0.00062 0.2227 0.0
C2314 C 0.36337 0.99232 0.25707 0.0
C2315 C 0.3621 0.96982 0.25247 0.0
H2316 H 0.37375 0.02408 0.24653 0.0
H2317 H 0.3561 -0.00115 0.27185 0.0
S2318 S 0.38527 0.94155 0.20399 0.0
N2319 N 0.39092 0.96762 0.20004 0.0
N2320 N 0.37206 0.94053 0.22748 0.0
C2321 C 0.37175 0.96205 0.2331 0.0
C2322 C 0.38201 0.97677 0.21825 0.0
C2323 C 0.61994 0.48749 0.73942 0.0
C2324 C 0.61009 0.49519 0.72009 0.0
C2325 C 0.63001 0.50191 0.75417 0.0
C2326 C 0.63068 0.52452 0.75004 0.0
H2327 H 0.6201 0.47017 0.74313 0.0
H2328 H 0.63776 0.49522 0.76862 0.0
S2329 S 0.60564 0.55335 0.70286 0.0
N2330 N 0.6005 0.52726 0.69841 0.0
N2331 N 0.61944 0.55414 0.72602 0.0
C2332 C 0.62041 0.53251 0.73109 0.0
C2333 C 0.61012 0.5179 0.71615 0.0
C2334 C 0.46704 0.22927 0.86939 0.0
C2335 C 0.47335 0.25071 0.86398 0.0
C2336 C 0.48155 0.2148 0.8794 0.0
C2337 C 0.50311 0.22106 0.88441 0.0
H2338 H 0.45066 0.22347 0.8659 0.0
H2339 H 0.47571 0.19851 0.88319 0.0
S2340 S 0.52798 0.27542 0.87367 0.0
N2341 N 0.50273 0.2776 0.86438 0.0
N2342 N 0.53015 0.25028 0.88327 0.0
C2343 C 0.50976 0.24247 0.87911 0.0
C2344 C 0.49485 0.25732 0.86893 0.0
C2345 C 0.50153 0.23687 0.36462 0.0
C2346 C 0.52418 0.24069 0.36384 0.0
C2347 C 0.4874 0.25174 0.37489 0.0
C2348 C 0.49547 0.27089 0.38484 0.0
H2349 H 0.49458 0.22259 0.35676 0.0
H2350 H 0.47003 0.2483 0.37478 0.0
S2351 S 0.55392 0.28721 0.38912 0.0
N2352 N 0.55425 0.26415 0.37514 0.0
N2353 N 0.52792 0.29201 0.39444 0.0
C2354 C 0.51824 0.27448 0.38474 0.0
C2355 C 0.53254 0.25941 0.37425 0.0
C2356 C 0.49037 0.75971 0.37221 0.0
C2357 C 0.47264 0.7515 0.36001 0.0
C2358 C 0.50562 0.74554 0.38192 0.0
C2359 C 0.50356 0.72274 0.37977 0.0
H2360 H 0.49221 0.77715 0.37472 0.0
H2361 H 0.51861 0.75245 0.39178 0.0
S2362 S 0.46206 0.69306 0.34694 0.0
N2363 N 0.45539 0.71907 0.34447 0.0
N2364 N 0.48384 0.69267 0.36284 0.0
C2365 C 0.48653 0.71439 0.36682 0.0
C2366 C 0.47112 0.72872 0.35691 0.0
C2367 C 0.52831 0.76382 0.8669 0.0
C2368 C 0.52212 0.74235 0.86147 0.0
C2369 C 0.51387 0.77802 0.87741 0.0
C2370 C 0.49253 0.77144 0.88291 0.0
H2371 H 0.54452 0.76984 0.86306 0.0
H2372 H 0.5196 0.79435 0.8812 0.0
S2373 S 0.46803 0.71689 0.87229 0.0
N2374 N 0.49307 0.71511 0.86235 0.0
N2375 N 0.46582 0.74191 0.88217 0.0
C2376 C 0.486 0.75002 0.87757 0.0
C2377 C 0.50082 0.73544 0.86688 0.0
C2378 C 0.62962 0.96662 0.76467 0.0
C2379 C 0.63426 0.9727 0.74298 0.0
C2380 C 0.61983 0.98118 0.77923 0.0
C2381 C 0.61426 0.00255 0.77284 0.0
H2382 H 0.63339 0.95035 0.77055 0.0
H2383 H 0.6165 0.97546 0.79567 0.0
S2384 S 0.62343 0.027 0.71803 0.0
N2385 N 0.63295 0.00183 0.71586 0.0
N2386 N 0.61446 0.02932 0.74339 0.0
C2387 C 0.61909 0.00908 0.7513 0.0
C2388 C 0.62907 0.99414 0.73634 0.0
C2389 C 0.62532 0.49231 0.23621 0.0
C2390 C 0.63543 0.4732 0.24415 0.0
C2391 C 0.61529 0.50722 0.25048 0.0
C2392 C 0.61494 0.50349 0.27316 0.0
H2393 H 0.62487 0.49565 0.21882 0.0
H2394 H 0.60728 0.52145 0.24362 0.0
S2395 S 0.64094 0.4572 0.30257 0.0
N2396 N 0.64575 0.45229 0.27649 0.0
N2397 N 0.62689 0.48021 0.30309 0.0
C2398 C 0.62555 0.48484 0.28138 0.0
C2399 C 0.63579 0.46973 0.26693 0.0
C2400 C 0.08745 0.35715 0.03671 0.0
C2401 C 0.09125 0.34187 0.05344 0.0
C2402 C 0.10434 0.37029 0.02863 0.0
C2403 C 0.12569 0.36896 0.03719 0.0
H2404 H 0.07115 0.35936 0.03013 0.0
H2405 H 0.10031 0.3823 0.01625 0.0
S2406 S 0.14461 0.33019 0.07989 0.0
N2407 N 0.11825 0.32493 0.07723 0.0
N2408 N 0.15002 0.34991 0.06226 0.0
C2409 C 0.12996 0.353 0.05322 0.0
C2410 C 0.11274 0.33938 0.06127 0.0
C2411 C 0.90362 0.35972 0.31173 0.0
C2412 C 0.90336 0.3389 0.30201 0.0
C2413 C 0.89014 0.37654 0.30392 0.0
C2414 C 0.87615 0.3732 0.28591 0.0
H2415 H 0.91342 0.3627 0.32619 0.0
H2416 H 0.89009 0.39197 0.31261 0.0
S2417 S 0.87237 0.32243 0.25261 0.0
N2418 N 0.88996 0.31643 0.27217 0.0
N2419 N 0.865 0.34801 0.25703 0.0
C2420 C 0.87705 0.35284 0.27509 0.0
C2421 C 0.89053 0.33568 0.28327 0.0
C2422 C 0.89021 0.12318 0.52875 0.0
C2423 C 0.86893 0.12469 0.53744 0.0
C2424 C 0.90726 0.13615 0.53676 0.0
C2425 C 0.9037 0.15145 0.55352 0.0
H2426 H 0.89407 0.11116 0.51633 0.0
H2427 H 0.92351 0.13376 0.5301 0.0
S2428 S 0.85063 0.16355 0.58032 0.0
N2429 N 0.84492 0.1439 0.56269 0.0
N2430 N 0.87701 0.16859 0.57751 0.0
C2431 C 0.88228 0.15413 0.56148 0.0
C2432 C 0.8649 0.14066 0.55352 0.0
C2433 C 0.10566 0.11654 0.80451 0.0
C2434 C 0.1196 0.11976 0.78644 0.0
C2435 C 0.09238 0.13349 0.81245 0.0
C2436 C 0.09282 0.15433 0.80278 0.0
H2437 H 0.10559 0.10109 0.81316 0.0
H2438 H 0.08261 0.13058 0.82693 0.0
S2439 S 0.12377 0.17058 0.75327 0.0
N2440 N 0.13087 0.14491 0.75758 0.0
N2441 N 0.10635 0.17671 0.77293 0.0
C2442 C 0.10562 0.15744 0.78399 0.0
C2443 C 0.11887 0.14016 0.77568 0.0
C2444 C 0.11092 0.65255 0.93296 0.0
C2445 C 0.09016 0.65185 0.94278 0.0
C2446 C 0.12801 0.63932 0.94063 0.0
C2447 C 0.125 0.62518 0.95858 0.0
H2448 H 0.11364 0.66246 0.91853 0.0
H2449 H 0.1434 0.63957 0.93187 0.0
S2450 S 0.07443 0.62032 0.99206 0.0
N2451 N 0.06806 0.63794 0.97265 0.0
N2452 N 0.10013 0.61343 0.98749 0.0
C2453 C 0.10468 0.62568 0.9695 0.0
C2454 C 0.08726 0.6389 0.96147 0.0
C2455 C 0.60722 0.33756 0.20877 0.0
C2456 C 0.59162 0.34129 0.19234 0.0
C2457 C 0.62058 0.35444 0.21647 0.0
C2458 C 0.61915 0.37573 0.20779 0.0
H2459 H 0.60958 0.32128 0.21536 0.0
H2460 H 0.63284 0.35043 0.22861 0.0
S2461 S 0.57949 0.39452 0.16586 0.0
N2462 N 0.57421 0.3682 0.16878 0.0
N2463 N 0.5996 0.39999 0.18303 0.0
C2464 C 0.60282 0.37997 0.19212 0.0
C2465 C 0.58898 0.36275 0.18447 0.0
C2466 C 0.8658 0.85398 0.43979 0.0
C2467 C 0.86919 0.86794 0.45781 0.0
C2468 C 0.88258 0.84046 0.43192 0.0
C2469 C 0.90342 0.84067 0.44162 0.0
H2470 H 0.85036 0.85411 0.4311 0.0
H2471 H 0.87956 0.8307 0.41745 0.0
S2472 S 0.91999 0.87149 0.4911 0.0
N2473 N 0.89442 0.87892 0.48672 0.0
N2474 N 0.92593 0.85395 0.47148 0.0
C2475 C 0.90667 0.85345 0.46039 0.0
C2476 C 0.88955 0.86695 0.46863 0.0
C2477 C 0.38919 0.11595 0.69047 0.0
C2478 C 0.37565 0.11901 0.70887 0.0
C2479 C 0.40255 0.13289 0.68261 0.0
C2480 C 0.4026 0.15353 0.6927 0.0
H2481 H 0.38884 0.10068 0.68152 0.0
H2482 H 0.41199 0.13015 0.66787 0.0
S2483 S 0.3729 0.16923 0.74311 0.0
N2484 N 0.36532 0.14375 0.73844 0.0
N2485 N 0.39004 0.1755 0.72324 0.0
C2486 C 0.39024 0.15644 0.71179 0.0
C2487 C 0.37689 0.13919 0.72001 0.0
C2488 C 0.02982 0.10392 0.37282 0.0
C2489 C 0.03798 0.12536 0.37069 0.0
C2490 C 0.03741 0.08695 0.35951 0.0
C2491 C 0.05318 0.09075 0.34326 0.0
H2492 H 0.01816 0.0999 0.38554 0.0
H2493 H 0.03119 0.07059 0.36233 0.0
S2494 S 0.07832 0.14426 0.32947 0.0
N2495 N 0.0617 0.14973 0.35004 0.0
N2496 N 0.07572 0.11781 0.32472 0.0
C2497 C 0.06062 0.1123 0.34007 0.0
C2498 C 0.0531 0.1296 0.35387 0.0
C2499 C 0.13442 0.31191 0.59148 0.0
C2500 C 0.15516 0.30203 0.59131 0.0
C2501 C 0.1176 0.30374 0.6048 0.0
C2502 C 0.12089 0.28525 0.61816 0.0
H2503 H 0.13153 0.32673 0.58222 0.0
H2504 H 0.10226 0.31257 0.60531 0.0
S2505 S 0.17137 0.25138 0.62032 0.0
N2506 N 0.17743 0.27154 0.60345 0.0
N2507 N 0.14586 0.25573 0.62801 0.0
C2508 C 0.14113 0.27428 0.6167 0.0
C2509 C 0.15827 0.28282 0.60342 0.0
C2510 C 0.9574 0.40691 0.85905 0.0
C2511 C 0.94138 0.40311 0.84303 0.0
C2512 C 0.965 0.39001 0.87243 0.0
C2513 C 0.95664 0.36863 0.87059 0.0
H2514 H 0.96381 0.42323 0.86165 0.0
H2515 H 0.97687 0.39405 0.88494 0.0
S2516 S 0.9157 0.34967 0.82997 0.0
N2517 N 0.91843 0.37606 0.82498 0.0
N2518 N 0.93251 0.34425 0.85039 0.0
C2519 C 0.94129 0.36435 0.85397 0.0
C2520 C 0.93373 0.38159 0.84012 0.0
C2521 C 0.86043 0.18308 0.09278 0.0
C2522 C 0.83951 0.19255 0.09367 0.0
C2523 C 0.87745 0.19075 0.10613 0.0
C2524 C 0.87422 0.20838 0.12061 0.0
H2525 H 0.86339 0.16893 0.08253 0.0
H2526 H 0.89298 0.18227 0.10565 0.0
S2527 S 0.82309 0.24085 0.12635 0.0
N2528 N 0.81698 0.22173 0.10832 0.0
N2529 N 0.84888 0.23657 0.13308 0.0
C2530 C 0.85369 0.21892 0.12043 0.0
C2531 C 0.83634 0.21088 0.10708 0.0
C2532 C 0.05065 0.86908 0.63822 0.0
C2533 C 0.03332 0.87295 0.62354 0.0
C2534 C 0.05862 0.88573 0.65185 0.0
C2535 C 0.04972 0.90689 0.65107 0.0
H2536 H 0.05868 0.85331 0.63868 0.0
H2537 H 0.07255 0.88226 0.66223 0.0
S2538 S 0.00227 0.92493 0.61795 0.0
N2539 N 0.00599 0.89913 0.61096 0.0
N2540 N 0.0213 0.93034 0.63631 0.0
C2541 C 0.03164 0.91069 0.63747 0.0
C2542 C 0.02333 0.89373 0.62379 0.0
C2543 C 0.36199 0.30983 0.90526 0.0
C2544 C 0.34114 0.30017 0.90519 0.0
C2545 C 0.37866 0.30199 0.89157 0.0
C2546 C 0.37512 0.28404 0.87756 0.0
H2547 H 0.3651 0.32429 0.91502 0.0
H2548 H 0.39411 0.31065 0.89136 0.0
S2549 S 0.32419 0.25089 0.87426 0.0
N2550 N 0.31845 0.27042 0.89196 0.0
N2551 N 0.34972 0.25525 0.86663 0.0
C2552 C 0.35474 0.27326 0.87867 0.0
C2553 C 0.33775 0.28146 0.89236 0.0
C2554 C 0.96395 0.60453 0.12429 0.0
C2555 C 0.95526 0.62581 0.12578 0.0
C2556 C 0.95612 0.58757 0.13747 0.0
C2557 C 0.93957 0.59123 0.15294 0.0
H2558 H 0.97622 0.60059 0.11215 0.0
H2559 H 0.96276 0.57131 0.13512 0.0
S2560 S 0.91279 0.64432 0.16499 0.0
N2561 N 0.93019 0.64992 0.14511 0.0
N2562 N 0.91573 0.61798 0.17019 0.0
C2563 C 0.9316 0.61265 0.15558 0.0
C2564 C 0.93937 0.62994 0.14191 0.0
C2565 C 0.63299 0.18087 0.402 0.0
C2566 C 0.65377 0.19068 0.40203 0.0
C2567 C 0.61642 0.18845 0.38806 0.0
C2568 C 0.62 0.20627 0.3739 0.0
H2569 H 0.62988 0.16652 0.41191 0.0
H2570 H 0.60102 0.17971 0.38781 0.0
S2571 S 0.67071 0.23975 0.37078 0.0
N2572 N 0.67641 0.22044 0.38874 0.0
N2573 N 0.6453 0.23513 0.36293 0.0
C2574 C 0.6403 0.21719 0.37508 0.0
C2575 C 0.65719 0.20926 0.38903 0.0
C2576 C 0.34123 0.06244 0.11155 0.0
C2577 C 0.34114 0.05232 0.09092 0.0
C2578 C 0.35459 0.05454 0.12847 0.0
C2579 C 0.36807 0.03611 0.1254 0.0
H2580 H 0.33191 0.07725 0.11425 0.0
H2581 H 0.35504 0.06356 0.14371 0.0
S2582 S 0.37047 0.00165 0.07533 0.0
N2583 N 0.35349 0.02163 0.06902 0.0
N2584 N 0.3781 0.00635 0.10079 0.0
C2585 C 0.36668 0.02488 0.1053 0.0
C2586 C 0.35336 0.03313 0.08805 0.0
C2587 C 0.8554 0.93845 0.36584 0.0
C2588 C 0.86901 0.95679 0.36898 0.0
C2589 C 0.84188 0.93065 0.38269 0.0
C2590 C 0.84176 0.94075 0.40333 0.0
H2591 H 0.8558 0.92947 0.35058 0.0
H2592 H 0.8324 0.91595 0.37991 0.0
S2593 S 0.87162 0.99106 0.41918 0.0
N2594 N 0.8793 0.98635 0.39374 0.0
N2595 N 0.85437 0.97125 0.42536 0.0
C2596 C 0.8542 0.9598 0.4063 0.0
C2597 C 0.86768 0.96796 0.38913 0.0
C2598 C 0.28755 0.10819 0.6588 0.0
C2599 C 0.30349 0.0921 0.65501 0.0
C2600 C 0.27985 0.12143 0.64183 0.0
C2601 C 0.28802 0.11938 0.62039 0.0
H2602 H 0.2813 0.11096 0.67515 0.0
H2603 H 0.26807 0.13403 0.64585 0.0
S2604 S 0.32866 0.07848 0.60148 0.0
N2605 N 0.32613 0.07373 0.62794 0.0
N2606 N 0.31187 0.0989 0.59601 0.0
C2607 C 0.30327 0.10268 0.61615 0.0
C2608 C 0.31093 0.08896 0.63345 0.0
C2609 C 0.13861 0.55415 0.86667 0.0
C2610 C 0.12448 0.53627 0.87015 0.0
C2611 C 0.15215 0.56203 0.88344 0.0
C2612 C 0.15181 0.5525 0.90435 0.0
H2613 H 0.13867 0.56266 0.85114 0.0
H2614 H 0.16211 0.57635 0.88032 0.0
S2615 S 0.12034 0.50354 0.92126 0.0
N2616 N 0.11303 0.50777 0.89562 0.0
N2617 N 0.13809 0.52301 0.92709 0.0
C2618 C 0.13877 0.53393 0.90773 0.0
C2619 C 0.12523 0.52568 0.89063 0.0
C2620 C 0.20837 0.88962 0.15622 0.0
C2621 C 0.19067 0.90372 0.1524 0.0
C2622 C 0.2165 0.87612 0.13966 0.0
C2623 C 0.20701 0.87587 0.11866 0.0
H2624 H 0.21567 0.88858 0.17234 0.0
H2625 H 0.22972 0.86507 0.14374 0.0
S2626 S 0.16128 0.91111 0.09986 0.0
N2627 N 0.16479 0.91788 0.12577 0.0
N2628 N 0.17983 0.89221 0.09459 0.0
C2629 C 0.18994 0.89071 0.11432 0.0
C2630 C 0.18184 0.90471 0.1312 0.0
C2631 C 0.62221 0.96372 0.10447 0.0
C2632 C 0.62349 0.95502 0.12575 0.0
C2633 C 0.63568 0.95605 0.08768 0.0
C2634 C 0.65121 0.93958 0.0915 0.0
H2635 H 0.61004 0.97593 0.10039 0.0
H2636 H 0.63347 0.9627 0.0714 0.0
S2637 S 0.66294 0.91299 0.14477 0.0
N2638 N 0.64282 0.93019 0.15011 0.0
N2639 N 0.66838 0.91593 0.11848 0.0
C2640 C 0.65368 0.93164 0.11295 0.0
C2641 C 0.63974 0.9393 0.13008 0.0
C2642 C 0.28065 0.37159 0.85503 0.0
C2643 C 0.28943 0.37353 0.87624 0.0
C2644 C 0.28828 0.38452 0.83781 0.0
C2645 C 0.30476 0.40019 0.84109 0.0
H2646 H 0.26842 0.35931 0.85138 0.0
H2647 H 0.28154 0.38183 0.82164 0.0
S2648 S 0.33165 0.41345 0.89385 0.0
N2649 N 0.31445 0.39352 0.89988 0.0
N2650 N 0.32859 0.41811 0.86743 0.0
C2651 C 0.31283 0.40327 0.86242 0.0
C2652 C 0.30523 0.38985 0.88 0.0
C2653 C 0.71529 0.11911 0.35424 0.0
C2654 C 0.70656 0.11729 0.37547 0.0
C2655 C 0.70765 0.10604 0.33711 0.0
C2656 C 0.69122 0.09035 0.34054 0.0
H2657 H 0.72745 0.13143 0.35048 0.0
H2658 H 0.71432 0.10865 0.3209 0.0
S2659 S 0.6645 0.07736 0.39344 0.0
N2660 N 0.68166 0.09738 0.3993 0.0
N2661 N 0.66752 0.07252 0.36705 0.0
C2662 C 0.68324 0.08737 0.3619 0.0
C2663 C 0.69083 0.10093 0.37937 0.0
C2664 C 0.12401 0.85639 0.5535 0.0
C2665 C 0.12081 0.87061 0.53564 0.0
C2666 C 0.1071 0.84287 0.56108 0.0
C2667 C 0.08633 0.84328 0.55124 0.0
H2668 H 0.1394 0.85631 0.56226 0.0
H2669 H 0.10996 0.83294 0.57547 0.0
S2670 S 0.07024 0.87487 0.5021 0.0
N2671 N 0.09582 0.88214 0.50676 0.0
N2672 N 0.0641 0.85703 0.52139 0.0
C2673 C 0.08328 0.85631 0.53261 0.0
C2674 C 0.10051 0.86987 0.5247 0.0
C2675 C 0.90346 0.86311 0.81713 0.0
C2676 C 0.90704 0.84365 0.80544 0.0
C2677 C 0.88999 0.87962 0.80857 0.0
C2678 C 0.87994 0.87722 0.78796 0.0
H2679 H 0.90991 0.86496 0.83353 0.0
H2680 H 0.88643 0.8937 0.81871 0.0
S2681 S 0.88817 0.83093 0.74937 0.0
N2682 N 0.90211 0.82399 0.7714 0.0
N2683 N 0.87752 0.85512 0.75481 0.0
C2684 C 0.88522 0.85861 0.77538 0.0
C2685 C 0.89855 0.84175 0.78428 0.0
C2686 C 0.88893 0.62363 0.02876 0.0
C2687 C 0.86764 0.62501 0.03749 0.0
C2688 C 0.90585 0.63692 0.03652 0.0
C2689 C 0.90215 0.6524 0.05306 0.0
H2690 H 0.8929 0.61149 0.01649 0.0
H2691 H 0.92211 0.63465 0.02984 0.0
S2692 S 0.84904 0.66426 0.07989 0.0
N2693 N 0.8435 0.64431 0.06255 0.0
N2694 N 0.87535 0.66957 0.0769 0.0
C2695 C 0.88073 0.65496 0.06105 0.0
C2696 C 0.86347 0.64118 0.05333 0.0
C2697 C 0.09292 0.63457 0.30878 0.0
C2698 C 0.09318 0.65559 0.29952 0.0
C2699 C 0.1068 0.61807 0.30096 0.0
C2700 C 0.12124 0.62193 0.28342 0.0
H2701 H 0.08275 0.63115 0.32288 0.0
H2702 H 0.10674 0.60243 0.30928 0.0
S2703 S 0.12538 0.67347 0.25138 0.0
N2704 N 0.10716 0.67884 0.27054 0.0
N2705 N 0.13294 0.64788 0.25547 0.0
C2706 C 0.12045 0.64253 0.27307 0.0
C2707 C 0.10652 0.65936 0.28123 0.0
C2708 C 0.10528 0.12313 0.46594 0.0
C2709 C 0.1265 0.12474 0.45711 0.0
C2710 C 0.08831 0.13656 0.45857 0.0
C2711 C 0.09191 0.15239 0.44233 0.0
H2712 H 0.10139 0.11074 0.47797 0.0
H2713 H 0.0721 0.13412 0.4653 0.0
S2714 S 0.14488 0.16494 0.4155 0.0
N2715 N 0.15052 0.14463 0.43237 0.0
N2716 N 0.11858 0.17012 0.41873 0.0
C2717 C 0.11329 0.15515 0.43428 0.0
C2718 C 0.13058 0.14125 0.4416 0.0
C2719 C 0.61159 0.85588 0.71569 0.0
C2720 C 0.613 0.87618 0.70485 0.0
C2721 C 0.59895 0.8388 0.70732 0.0
C2722 C 0.58681 0.84143 0.68805 0.0
H2723 H 0.62123 0.85263 0.73019 0.0
H2724 H 0.59921 0.82317 0.71568 0.0
S2725 S 0.58246 0.89193 0.65481 0.0
N2726 N 0.59949 0.89845 0.67473 0.0
N2727 N 0.57525 0.86629 0.65929 0.0
C2728 C 0.58666 0.86204 0.67787 0.0
C2729 C 0.59987 0.87944 0.68621 0.0
C2730 C 0.88394 0.33993 0.93421 0.0
C2731 C 0.90473 0.34035 0.94401 0.0
C2732 C 0.86712 0.35365 0.94166 0.0
C2733 C 0.87043 0.36804 0.95935 0.0
H2734 H 0.88101 0.32985 0.91994 0.0
H2735 H 0.85172 0.35356 0.93291 0.0
S2736 S 0.92115 0.37249 0.99269 0.0
N2737 N 0.92713 0.35437 0.97361 0.0
N2738 N 0.89559 0.37981 0.98802 0.0
C2739 C 0.89076 0.36732 0.97026 0.0
C2740 C 0.9079 0.35359 0.96246 0.0
C2741 C 0.40546 0.62886 0.1837 0.0
C2742 C 0.4056 0.64911 0.19455 0.0
C2743 C 0.39161 0.61189 0.19061 0.0
C2744 C 0.37766 0.61454 0.20876 0.0
H2745 H 0.4151 0.62655 0.16902 0.0
H2746 H 0.39116 0.59699 0.18104 0.0
S2747 S 0.37514 0.66344 0.24489 0.0
N2748 N 0.39278 0.67015 0.22561 0.0
N2749 N 0.36723 0.63828 0.2391 0.0
C2750 C 0.3791 0.63422 0.22075 0.0
C2751 C 0.39292 0.65152 0.21348 0.0
C2752 C 0.03605 0.58609 0.8565 0.0
C2753 C 0.05273 0.58983 0.84116 0.0
C2754 C 0.0283 0.60293 0.86987 0.0
C2755 C 0.03715 0.62417 0.86869 0.0
H2756 H 0.02932 0.56984 0.85866 0.0
H2757 H 0.01597 0.59891 0.88193 0.0
S2758 S 0.07965 0.64299 0.82964 0.0
N2759 N 0.07665 0.61671 0.82419 0.0
N2760 N 0.06227 0.64842 0.84958 0.0
C2761 C 0.05303 0.62843 0.85258 0.0
C2762 C 0.06075 0.61126 0.83873 0.0
C2763 C 0.15863 0.78609 0.10914 0.0
C2764 C 0.15539 0.80187 0.09278 0.0
C2765 C 0.14122 0.7786 0.12193 0.0
C2766 C 0.1199 0.78689 0.11918 0.0
H2767 H 0.17486 0.77978 0.11242 0.0
H2768 H 0.14479 0.76691 0.13474 0.0
S2769 S 0.1025 0.82742 0.07752 0.0
N2770 N 0.12906 0.82463 0.07351 0.0
N2771 N 0.09631 0.81081 0.0979 0.0
C2772 C 0.11626 0.80206 0.10228 0.0
C2773 C 0.134 0.80947 0.08899 0.0
C2774 C 0.94034 0.86538 0.3548 0.0
C2775 C 0.95798 0.86857 0.36928 0.0
C2776 C 0.93278 0.88239 0.34138 0.0
C2777 C 0.94239 0.90326 0.34222 0.0
H2778 H 0.93175 0.8499 0.35436 0.0
H2779 H 0.91861 0.87948 0.33115 0.0
S2780 S 0.99084 0.91948 0.3748 0.0
N2781 N 0.98638 0.89375 0.38162 0.0
N2782 N 0.97173 0.92566 0.35679 0.0
C2783 C 0.96075 0.90636 0.35562 0.0
C2784 C 0.96868 0.88902 0.36902 0.0
C2785 C 0.85932 0.68514 0.59415 0.0
C2786 C 0.83836 0.69454 0.59439 0.0
C2787 C 0.87588 0.69282 0.60808 0.0
C2788 C 0.87213 0.71036 0.62255 0.0
H2789 H 0.86263 0.67098 0.58402 0.0
H2790 H 0.89144 0.68437 0.60808 0.0
S2791 S 0.82083 0.74277 0.62663 0.0
N2792 N 0.81534 0.72369 0.60836 0.0
N2793 N 0.84637 0.7385 0.63421 0.0
C2794 C 0.85162 0.72089 0.6217 0.0
C2795 C 0.83475 0.71287 0.60773 0.0
C2796 C 0.05467 0.36685 0.13869 0.0
C2797 C 0.03615 0.36939 0.1252 0.0
C2798 C 0.0622 0.38406 0.15189 0.0
C2799 C 0.05164 0.40445 0.15182 0.0
H2800 H 0.06401 0.35181 0.13837 0.0
H2801 H 0.07709 0.38176 0.16122 0.0
S2802 S 0.00062 0.41867 0.12241 0.0
N2803 N 0.00586 0.39326 0.11498 0.0
N2804 N 0.02047 0.42557 0.13933 0.0
C2805 C 0.03238 0.4068 0.13959 0.0
C2806 C 0.02449 0.38926 0.12643 0.0
C2807 C 0.33533 0.78557 0.38872 0.0
C2808 C 0.33863 0.8026 0.40376 0.0
C2809 C 0.35248 0.77768 0.37583 0.0
C2810 C 0.37361 0.78678 0.37717 0.0
H2811 H 0.31919 0.7786 0.38645 0.0
H2812 H 0.3488 0.76504 0.36399 0.0
S2813 S 0.39123 0.83053 0.4154 0.0
N2814 N 0.36491 0.8273 0.42054 0.0
N2815 N 0.39721 0.81273 0.396 0.0
C2816 C 0.3774 0.80313 0.39293 0.0
C2817 C 0.35991 0.81097 0.40631 0.0
C2818 C 0.93917 0.12597 0.63943 0.0
C2819 C 0.95749 0.12269 0.62585 0.0
C2820 C 0.93128 0.10921 0.65298 0.0
C2821 C 0.94129 0.08853 0.65318 0.0
H2822 H 0.93025 0.14126 0.63896 0.0
H2823 H 0.91656 0.11209 0.66239 0.0
S2824 S 0.99164 0.07242 0.62359 0.0
N2825 N 0.98702 0.09783 0.61577 0.0
N2826 N 0.97176 0.06635 0.64079 0.0
C2827 C 0.96036 0.08544 0.64083 0.0
C2828 C 0.9686 0.10253 0.6273 0.0
C2829 C 0.61654 0.69112 0.88821 0.0
C2830 C 0.62003 0.70931 0.87449 0.0
C2831 C 0.63316 0.68323 0.90194 0.0
C2832 C 0.65393 0.69308 0.9022 0.0
H2833 H 0.60117 0.68233 0.88774 0.0
H2834 H 0.6301 0.66861 0.91147 0.0
S2835 S 0.67068 0.74297 0.87217 0.0
N2836 N 0.64526 0.73848 0.86423 0.0
N2837 N 0.67645 0.72323 0.88963 0.0
C2838 C 0.65726 0.712 0.88967 0.0
C2839 C 0.64031 0.72025 0.87594 0.0
C2840 C 0.35652 0.53471 0.58496 0.0
C2841 C 0.34029 0.55048 0.58891 0.0
C2842 C 0.36986 0.527 0.60185 0.0
C2843 C 0.36778 0.53501 0.62334 0.0
H2844 H 0.35932 0.52863 0.56856 0.0
H2845 H 0.38257 0.51538 0.59772 0.0
S2846 S 0.32653 0.57512 0.64264 0.0
N2847 N 0.32176 0.57275 0.61616 0.0
N2848 N 0.34711 0.55847 0.64794 0.0
C2849 C 0.35094 0.55006 0.62773 0.0
C2850 C 0.33711 0.55772 0.61052 0.0
C2851 C 0.84271 0.43188 0.88411 0.0
C2852 C 0.84342 0.4414 0.90502 0.0
C2853 C 0.85601 0.43971 0.86713 0.0
C2854 C 0.87026 0.45753 0.87038 0.0
H2855 H 0.83264 0.41761 0.88113 0.0
H2856 H 0.85567 0.43119 0.8516 0.0
S2857 S 0.87541 0.49018 0.92146 0.0
N2858 N 0.85762 0.47083 0.92755 0.0
N2859 N 0.88228 0.48594 0.8957 0.0
C2860 C 0.86989 0.46811 0.89089 0.0
C2861 C 0.85659 0.45992 0.9082 0.0
C2862 C 0.28039 0.6165 0.13874 0.0
C2863 C 0.28951 0.61576 0.11759 0.0
C2864 C 0.2884 0.6033 0.1556 0.0
C2865 C 0.30561 0.58854 0.15197 0.0
H2866 H 0.2676 0.62811 0.14267 0.0
H2867 H 0.28136 0.60505 0.17177 0.0
S2868 S 0.33374 0.57847 0.09916 0.0
N2869 N 0.31571 0.59778 0.09361 0.0
N2870 N 0.33052 0.57269 0.12534 0.0
C2871 C 0.31402 0.58659 0.13065 0.0
C2872 C 0.30604 0.60027 0.11346 0.0
C2873 C 0.13947 0.03601 0.40629 0.0
C2874 C 0.15436 0.05315 0.40284 0.0
C2875 C 0.12606 0.02839 0.3894 0.0
C2876 C 0.1267 0.03786 0.3684 0.0
H2877 H 0.13773 0.02876 0.42237 0.0
H2878 H 0.11438 0.01563 0.39322 0.0
S2879 S 0.16427 0.08205 0.35043 0.0
N2880 N 0.17023 0.07837 0.37651 0.0
N2881 N 0.14474 0.06429 0.34472 0.0
C2882 C 0.14231 0.05432 0.36443 0.0
C2883 C 0.15622 0.0619 0.38164 0.0
C2884 C 0.19078 0.38944 0.6161 0.0
C2885 C 0.20917 0.3759 0.61918 0.0
C2886 C 0.18297 0.40288 0.63299 0.0
C2887 C 0.19312 0.40299 0.6536 0.0
H2888 H 0.18173 0.38898 0.60087 0.0
H2889 H 0.16818 0.41224 0.63029 0.0
S2890 S 0.24366 0.37349 0.66923 0.0
N2891 N 0.23891 0.36581 0.6438 0.0
N2892 N 0.22376 0.39058 0.67552 0.0
C2893 C 0.21226 0.39071 0.65649 0.0
C2894 C 0.22043 0.37731 0.63927 0.0
C2895 C 0.63449 0.45723 0.5839 0.0
C2896 C 0.65075 0.44148 0.58781 0.0
C2897 C 0.62148 0.46526 0.60089 0.0
C2898 C 0.62394 0.45763 0.62248 0.0
H2899 H 0.63141 0.46305 0.56745 0.0
H2900 H 0.60871 0.47683 0.59679 0.0
S2901 S 0.66548 0.41779 0.64172 0.0
N2902 N 0.66976 0.41967 0.61513 0.0
N2903 N 0.64502 0.43457 0.6471 0.0
C2904 C 0.64083 0.44262 0.62682 0.0
C2905 C 0.65431 0.43462 0.60949 0.0
C2906 C 0.2759 0.87323 0.35404 0.0
C2907 C 0.28459 0.87474 0.37533 0.0
C2908 C 0.28364 0.88647 0.33709 0.0
C2909 C 0.30012 0.90205 0.34074 0.0
H2910 H 0.26371 0.86099 0.35008 0.0
H2911 H 0.27703 0.88404 0.32082 0.0
S2912 S 0.32666 0.91438 0.39392 0.0
N2913 N 0.30942 0.89434 0.39948 0.0
N2914 N 0.32375 0.91952 0.36757 0.0
C2915 C 0.30801 0.90477 0.36219 0.0
C2916 C 0.30031 0.89104 0.37948 0.0
C2917 C 0.70781 0.60793 0.8357 0.0
C2918 C 0.69151 0.59211 0.83915 0.0
C2919 C 0.71523 0.62119 0.85277 0.0
C2920 C 0.70642 0.61942 0.87398 0.0
H2921 H 0.71451 0.61053 0.8195 0.0
H2922 H 0.7273 0.6336 0.84899 0.0
S2923 S 0.66472 0.57915 0.89204 0.0
N2924 N 0.66789 0.5742 0.86568 0.0
N2925 N 0.68166 0.59937 0.89784 0.0
C2926 C 0.69086 0.60291 0.87793 0.0
C2927 C 0.68347 0.58918 0.86051 0.0
C2928 C 0.6274 0.35455 0.5531 0.0
C2929 C 0.62371 0.36832 0.53499 0.0
C2930 C 0.61079 0.34099 0.5613 0.0
C2931 C 0.58983 0.34094 0.55187 0.0
H2932 H 0.64296 0.35484 0.56156 0.0
H2933 H 0.61406 0.33137 0.57582 0.0
S2934 S 0.57241 0.37132 0.50242 0.0
N2935 N 0.59799 0.37897 0.50641 0.0
N2936 N 0.56685 0.35383 0.52221 0.0
C2937 C 0.58626 0.35356 0.53305 0.0
C2938 C 0.60319 0.36713 0.52449 0.0
C2939 C 0.40285 0.35828 0.81287 0.0
C2940 C 0.40256 0.33735 0.80337 0.0
C2941 C 0.38963 0.37512 0.80465 0.0
C2942 C 0.37589 0.3717 0.78646 0.0
H2943 H 0.41246 0.36134 0.82744 0.0
H2944 H 0.38953 0.39064 0.8132 0.0
S2945 S 0.37234 0.32063 0.75358 0.0
N2946 N 0.38952 0.31469 0.77352 0.0
N2947 N 0.36509 0.34632 0.75762 0.0
C2948 C 0.37683 0.35123 0.77586 0.0
C2949 C 0.39003 0.33405 0.78446 0.0
C2950 C 0.38353 0.1528 0.06298 0.0
C2951 C 0.40433 0.15277 0.05324 0.0
C2952 C 0.3668 0.13921 0.05506 0.0
C2953 C 0.37026 0.12534 0.03696 0.0
H2954 H 0.38051 0.16243 0.07754 0.0
H2955 H 0.35139 0.13891 0.06378 0.0
S2956 S 0.421 0.12238 0.00355 0.0
N2957 N 0.42687 0.13985 0.02326 0.0
N2958 N 0.39548 0.11474 0.00793 0.0
C2959 C 0.39058 0.12656 0.0261 0.0
C2960 C 0.40762 0.14014 0.03438 0.0
C2961 C 0.60649 0.15556 0.28505 0.0
C2962 C 0.59125 0.15198 0.30186 0.0
C2963 C 0.61983 0.13865 0.27739 0.0
C2964 C 0.61874 0.1175 0.28647 0.0
H2965 H 0.6086 0.17174 0.27814 0.0
H2966 H 0.63181 0.14255 0.26495 0.0
S2967 S 0.58 0.09913 0.32946 0.0
N2968 N 0.57448 0.12536 0.32619 0.0
N2969 N 0.59982 0.09352 0.312 0.0
C2970 C 0.60272 0.1134 0.3025 0.0
C2971 C 0.5889 0.13064 0.31013 0.0
C2972 C 0.61079 0.65467 0.43429 0.0
C2973 C 0.58977 0.65409 0.44357 0.0
C2974 C 0.62756 0.64115 0.44222 0.0
C2975 C 0.62397 0.62681 0.4599 0.0
H2976 H 0.61398 0.66471 0.42004 0.0
H2977 H 0.64315 0.64132 0.43382 0.0
S2978 S 0.57255 0.62214 0.49208 0.0
N2979 N 0.56683 0.64005 0.47273 0.0
N2980 N 0.59827 0.61501 0.48805 0.0
C2981 C 0.60339 0.62741 0.47032 0.0
C2982 C 0.5863 0.64093 0.46202 0.0
C2983 C 0.12111 0.35295 0.715 0.0
C2984 C 0.11967 0.37416 0.70616 0.0
C2985 C 0.1081 0.33589 0.70713 0.0
C2986 C 0.09283 0.33937 0.69033 0.0
H2987 H 0.13311 0.34912 0.72746 0.0
H2988 H 0.11044 0.31968 0.71391 0.0
S2989 S 0.08082 0.39226 0.66317 0.0
N2990 N 0.10049 0.39805 0.68075 0.0
N2991 N 0.07572 0.36591 0.66617 0.0
C2992 C 0.09017 0.36073 0.68223 0.0
C2993 C 0.10368 0.37814 0.69007 0.0
C2994 C 0.3918 0.87105 0.96653 0.0
C2995 C 0.37043 0.8692 0.95815 0.0
C2996 C 0.40875 0.85779 0.95882 0.0
C2997 C 0.40498 0.84189 0.94268 0.0
H2998 H 0.3958 0.88351 0.97847 0.0
H2999 H 0.42507 0.86041 0.96521 0.0
S3000 S 0.35159 0.82881 0.91693 0.0
N3001 N 0.3461 0.84908 0.9339 0.0
N3002 N 0.378 0.82389 0.91962 0.0
C3003 C 0.38347 0.83893 0.93505 0.0
C3004 C 0.36619 0.85266 0.94271 0.0
C3005 C 0.88611 0.15715 0.20759 0.0
C3006 C 0.90221 0.15358 0.1916 0.0
C3007 C 0.87306 0.14001 0.21527 0.0
C3008 C 0.87532 0.11863 0.20703 0.0
H3009 H 0.88319 0.17345 0.2139 0.0
H3010 H 0.86043 0.14385 0.22709 0.0
S3011 S 0.9163 0.10026 0.16622 0.0
N3012 N 0.92079 0.12677 0.16881 0.0
N3013 N 0.89598 0.09454 0.18305 0.0
C3014 C 0.89201 0.11461 0.19171 0.0
C3015 C 0.90554 0.13208 0.18407 0.0
C3016 C 0.55471 0.12617 0.85695 0.0
C3017 C 0.53665 0.1228 0.87086 0.0
C3018 C 0.56258 0.10937 0.84346 0.0
C3019 C 0.55286 0.08855 0.84364 0.0
H3020 H 0.56341 0.14161 0.85708 0.0
H3021 H 0.57708 0.11238 0.83373 0.0
S3022 S 0.50333 0.072 0.87438 0.0
N3023 N 0.50773 0.09757 0.88184 0.0
N3024 N 0.52294 0.06606 0.85683 0.0
C3025 C 0.53407 0.08531 0.85638 0.0
C3026 C 0.52583 0.10243 0.86987 0.0
C3027 C 0.61665 0.30503 0.10618 0.0
C3028 C 0.61992 0.28711 0.12029 0.0
C3029 C 0.63344 0.31255 0.09245 0.0
C3030 C 0.65414 0.30259 0.09259 0.0
H3031 H 0.60131 0.31388 0.10631 0.0
H3032 H 0.63054 0.32695 0.08255 0.0
S3033 S 0.67038 0.25331 0.12385 0.0
N3034 N 0.64492 0.25807 0.13143 0.0
N3035 N 0.67641 0.27265 0.10603 0.0
C3036 C 0.65728 0.28396 0.10557 0.0
C3037 C 0.64017 0.27608 0.1193 0.0
C3038 C 0.44433 0.36518 0.35548 0.0
C3039 C 0.46123 0.36903 0.37067 0.0
C3040 C 0.43685 0.38183 0.34159 0.0
C3041 C 0.44579 0.40298 0.3426 0.0
H3042 H 0.43623 0.34944 0.35485 0.0
H3043 H 0.4232 0.3784 0.33082 0.0
S3044 S 0.49227 0.42097 0.3771 0.0
N3045 N 0.48828 0.39518 0.38399 0.0
N3046 N 0.47382 0.42639 0.35818 0.0
C3047 C 0.46347 0.40675 0.35673 0.0
C3048 C 0.47132 0.38978 0.37066 0.0
C3049 C 0.36167 0.1822 0.59215 0.0
C3050 C 0.34112 0.19246 0.59191 0.0
C3051 C 0.37851 0.18987 0.60576 0.0
C3052 C 0.37543 0.20821 0.61937 0.0
H3053 H 0.36437 0.16744 0.58274 0.0
H3054 H 0.39368 0.18075 0.60629 0.0
S3055 S 0.32554 0.24294 0.62154 0.0
N3056 N 0.31929 0.22318 0.60426 0.0
N3057 N 0.35088 0.23801 0.62943 0.0
C3058 C 0.3554 0.21957 0.61786 0.0
C3059 C 0.33824 0.21156 0.60427 0.0
C3060 C 0.55101 0.86561 0.14169 0.0
C3061 C 0.53339 0.86888 0.12721 0.0
C3062 C 0.55868 0.88258 0.1551 0.0
C3063 C 0.54918 0.90349 0.15428 0.0
H3064 H 0.55956 0.85011 0.14206 0.0
H3065 H 0.57289 0.87964 0.16525 0.0
S3066 S 0.50072 0.9199 0.12183 0.0
N3067 N 0.50505 0.89416 0.11497 0.0
N3068 N 0.51987 0.92599 0.13984 0.0
C3069 C 0.53076 0.90664 0.14098 0.0
C3070 C 0.52274 0.88935 0.12755 0.0
C3071 C 0.83643 0.28541 0.38519 0.0
C3072 C 0.8399 0.3012 0.40151 0.0
C3073 C 0.85368 0.27781 0.37223 0.0
C3074 C 0.87507 0.28596 0.3748 0.0
H3075 H 0.82014 0.27919 0.38202 0.0
H3076 H 0.84992 0.26616 0.35942 0.0
S3077 S 0.89319 0.32621 0.41646 0.0
N3078 N 0.86663 0.32366 0.42064 0.0
N3079 N 0.89904 0.3096 0.39599 0.0
C3080 C 0.87897 0.30106 0.39171 0.0
C3081 C 0.8614 0.30861 0.40515 0.0
C3082 C 0.43858 0.62514 0.63743 0.0
C3083 C 0.45647 0.62175 0.6233 0.0
C3084 C 0.43102 0.60844 0.65122 0.0
C3085 C 0.44092 0.58771 0.65115 0.0
H3086 H 0.42974 0.64048 0.63721 0.0
H3087 H 0.41659 0.6114 0.66106 0.0
S3088 S 0.49027 0.5713 0.62007 0.0
N3089 N 0.48555 0.59672 0.61235 0.0
N3090 N 0.47089 0.56536 0.63788 0.0
C3091 C 0.4596 0.58451 0.63824 0.0
C3092 C 0.46752 0.60153 0.62443 0.0
C3093 C 0.11685 0.19054 0.88986 0.0
C3094 C 0.11991 0.20893 0.87631 0.0
C3095 C 0.13371 0.18285 0.9034 0.0
C3096 C 0.15427 0.19313 0.90364 0.0
H3097 H 0.10169 0.1814 0.88932 0.0
H3098 H 0.13104 0.16804 0.91274 0.0
S3099 S 0.16974 0.24379 0.87422 0.0
N3100 N 0.1444 0.23883 0.86634 0.0
N3101 N 0.17604 0.22397 0.8914 0.0
C3102 C 0.1571 0.2123 0.89138 0.0
C3103 C 0.13992 0.22034 0.87784 0.0
C3104 C 0.85461 0.05119 0.62661 0.0
C3105 C 0.86995 0.0344 0.62295 0.0
C3106 C 0.8411 0.05879 0.60973 0.0
C3107 C 0.84266 0.05007 0.58852 0.0
H3108 H 0.85352 0.05907 0.64243 0.0
H3109 H 0.83017 0.07232 0.61305 0.0
S3110 S 0.87784 0.00401 0.57086 0.0
N3111 N 0.88409 0.00775 0.59685 0.0
N3112 N 0.85894 0.0224 0.56519 0.0
C3113 C 0.85697 0.03252 0.58489 0.0
C3114 C 0.87053 0.02456 0.6021 0.0
C3115 C 0.35922 0.95745 0.90841 0.0
C3116 C 0.34325 0.94135 0.90475 0.0
C3117 C 0.37242 0.96513 0.89138 0.0
C3118 C 0.37044 0.95675 0.87001 0.0
H3119 H 0.36194 0.96385 0.92471 0.0
H3120 H 0.38493 0.97704 0.8953 0.0
S3121 S 0.32988 0.91556 0.85144 0.0
N3122 N 0.32508 0.9183 0.87787 0.0
N3123 N 0.35016 0.93249 0.84584 0.0
C3124 C 0.35386 0.94132 0.8659 0.0
C3125 C 0.34018 0.9337 0.88326 0.0
C3126 C 0.81185 0.09122 0.13357 0.0
C3127 C 0.80212 0.09125 0.15439 0.0
C3128 C 0.80405 0.10492 0.1169 0.0
C3129 C 0.78607 0.11889 0.12039 0.0
H3130 H 0.8263 0.08145 0.13049 0.0
H3131 H 0.81275 0.10516 0.10147 0.0
S3132 S 0.75278 0.12211 0.17121 0.0
N3133 N 0.77231 0.10443 0.177 0.0
N3134 N 0.7572 0.12976 0.14571 0.0
C3135 C 0.77524 0.11776 0.14074 0.0
C3136 C 0.78341 0.10407 0.15774 0.0
C3137 C 0.62449 0.5308 0.39033 0.0
C3138 C 0.62557 0.54008 0.36928 0.0
C3139 C 0.63741 0.53866 0.40746 0.0
C3140 C 0.65222 0.55592 0.40422 0.0
H3141 H 0.61286 0.51793 0.39397 0.0
H3142 H 0.63539 0.53148 0.42353 0.0
S3143 S 0.66318 0.58447 0.35183 0.0
N3144 N 0.64395 0.56648 0.3458 0.0
N3145 N 0.66852 0.58106 0.37808 0.0
C3146 C 0.65452 0.56452 0.38301 0.0
C3147 C 0.64112 0.55667 0.36554 0.0
C3148 C 0.68025 0.90105 0.63326 0.0
C3149 C 0.68923 0.89968 0.65436 0.0
C3150 C 0.68813 0.88783 0.61623 0.0
C3151 C 0.70547 0.87305 0.61966 0.0
H3152 H 0.66637 0.9116 0.63016 0.0
H3153 H 0.68006 0.88869 0.60048 0.0
S3154 S 0.73654 0.86595 0.67149 0.0
N3155 N 0.71757 0.88418 0.67739 0.0
N3156 N 0.7328 0.8597 0.6455 0.0
C3157 C 0.71549 0.8727 0.64045 0.0
C3158 C 0.70723 0.8859 0.65778 0.0
C3159 C 0.13751 0.94198 0.62715 0.0
C3160 C 0.12319 0.95972 0.62385 0.0
C3161 C 0.1508 0.93411 0.61018 0.0
C3162 C 0.15002 0.94352 0.58922 0.0
H3163 H 0.1379 0.93354 0.64272 0.0
H3164 H 0.16087 0.91986 0.6132 0.0
S3165 S 0.11779 0.99208 0.57263 0.0
N3166 N 0.111 0.98793 0.59842 0.0
N3167 N 0.13566 0.97279 0.5666 0.0
C3168 C 0.1368 0.96199 0.586 0.0
C3169 C 0.12349 0.9702 0.6033 0.0
C3170 C 0.80361 0.38688 0.37697 0.0
C3171 C 0.78585 0.37263 0.37338 0.0
C3172 C 0.81159 0.40036 0.36021 0.0
C3173 C 0.80229 0.39982 0.3392 0.0
H3174 H 0.81196 0.38709 0.39259 0.0
H3175 H 0.82582 0.41041 0.36342 0.0
S3176 S 0.75374 0.36791 0.32193 0.0
N3177 N 0.75773 0.3608 0.34765 0.0
N3178 N 0.77312 0.3858 0.31622 0.0
C3179 C 0.78383 0.38666 0.33569 0.0
C3180 C 0.77548 0.37318 0.35278 0.0
C3181 C 0.18262 0.09246 0.86065 0.0
C3182 C 0.19238 0.09262 0.83985 0.0
C3183 C 0.19024 0.10623 0.87735 0.0
C3184 C 0.20807 0.12043 0.8739 0.0
H3185 H 0.16828 0.0825 0.8637 0.0
H3186 H 0.18154 0.10632 0.89277 0.0
S3187 S 0.24143 0.12406 0.82316 0.0
N3188 N 0.22211 0.10616 0.81731 0.0
N3189 N 0.23686 0.13167 0.84865 0.0
C3190 C 0.21893 0.11946 0.85356 0.0
C3191 C 0.21095 0.10567 0.83654 0.0
C3192 C 0.6092 0.84093 0.06394 0.0
C3193 C 0.58825 0.84142 0.0545 0.0
C3194 C 0.62609 0.85421 0.05588 0.0
C3195 C 0.62269 0.86823 0.0379 0.0
H3196 H 0.61226 0.83107 0.07834 0.0
H3197 H 0.64164 0.85408 0.06435 0.0
S3198 S 0.57151 0.87262 0.00532 0.0
N3199 N 0.56556 0.85512 0.02496 0.0
N3200 N 0.59725 0.87967 0.00938 0.0
C3201 C 0.60217 0.86758 0.02738 0.0
C3202 C 0.58495 0.85432 0.03581 0.0
C3203 C 0.38658 0.87657 0.30444 0.0
C3204 C 0.37195 0.8729 0.28701 0.0
C3205 C 0.40031 0.85987 0.31214 0.0
C3206 C 0.39968 0.83885 0.30286 0.0
H3207 H 0.38689 0.89221 0.31275 0.0
H3208 H 0.41064 0.86313 0.32616 0.0
S3209 S 0.3667 0.82135 0.25512 0.0
N3210 N 0.35958 0.84705 0.25923 0.0
N3211 N 0.38507 0.81577 0.27407 0.0
C3212 C 0.38611 0.83527 0.28472 0.0
C3213 C 0.37235 0.85227 0.27667 0.0
C3214 C 0.38736 0.62302 0.52683 0.0
C3215 C 0.36638 0.62382 0.53631 0.0
C3216 C 0.40441 0.63611 0.5346 0.0
C3217 C 0.40114 0.65082 0.55192 0.0
H3218 H 0.39104 0.61144 0.51394 0.0
H3219 H 0.42047 0.63425 0.52734 0.0
S3220 S 0.34883 0.66114 0.58086 0.0
N3221 N 0.34289 0.64188 0.56289 0.0
N3222 N 0.375 0.66679 0.57727 0.0
C3223 C 0.37997 0.65289 0.56066 0.0
C3224 C 0.36258 0.6393 0.55292 0.0
C3225 C 0.60973 0.65959 0.78579 0.0
C3226 C 0.59345 0.65571 0.80152 0.0
C3227 C 0.62287 0.64261 0.77794 0.0
C3228 C 0.62051 0.62107 0.78577 0.0
H3229 H 0.61272 0.676 0.77981 0.0
H3230 H 0.63563 0.64667 0.76635 0.0
S3231 S 0.57903 0.60194 0.82574 0.0
N3232 N 0.57458 0.62848 0.82358 0.0
N3233 N 0.59955 0.59654 0.80905 0.0
C3234 C 0.60363 0.61677 0.8008 0.0
C3235 C 0.59002 0.63408 0.8086 0.0
C3236 C 0.58732 0.1338 0.95888 0.0
C3237 C 0.59099 0.14981 0.94282 0.0
C3238 C 0.60438 0.12072 0.96664 0.0
C3239 C 0.62579 0.12284 0.95839 0.0
H3240 H 0.571 0.13099 0.9652 0.0
H3241 H 0.60047 0.10817 0.97852 0.0
S3242 S 0.64437 0.16353 0.91738 0.0
N3243 N 0.6179 0.16816 0.91995 0.0
N3244 N 0.64999 0.14327 0.93431 0.0
C3245 C 0.6299 0.13944 0.943 0.0
C3246 C 0.6125 0.15301 0.93529 0.0
C3247 C 0.12047 0.8547 0.21396 0.0
C3248 C 0.11841 0.87602 0.2055 0.0
C3249 C 0.10744 0.83754 0.20627 0.0
C3250 C 0.09155 0.84104 0.19006 0.0
H3251 H 0.13293 0.85091 0.22596 0.0
H3252 H 0.11021 0.82129 0.21274 0.0
S3253 S 0.07802 0.89416 0.16398 0.0
N3254 N 0.09815 0.89996 0.18102 0.0
N3255 N 0.07338 0.86771 0.16679 0.0
C3256 C 0.0884 0.86248 0.1823 0.0
C3257 C 0.10191 0.87997 0.18995 0.0
C3258 C 0.39099 0.3695 0.46482 0.0
C3259 C 0.36993 0.36795 0.4556 0.0
C3260 C 0.40813 0.35627 0.45753 0.0
C3261 C 0.40491 0.34072 0.44093 0.0
H3262 H 0.39461 0.3817 0.47714 0.0
H3263 H 0.42421 0.35868 0.46458 0.0
S3264 S 0.35245 0.32835 0.41303 0.0
N3265 N 0.34643 0.34835 0.43014 0.0
N3266 N 0.37872 0.32324 0.41661 0.0
C3267 C 0.38368 0.33798 0.43248 0.0
C3268 C 0.36619 0.35167 0.43975 0.0
C3269 C 0.87384 0.64091 0.71817 0.0
C3270 C 0.87589 0.6198 0.70921 0.0
C3271 C 0.88656 0.65833 0.71057 0.0
C3272 C 0.90212 0.65531 0.69394 0.0
H3273 H 0.86155 0.64436 0.73046 0.0
H3274 H 0.88374 0.67444 0.71739 0.0
S3275 S 0.91581 0.60281 0.66676 0.0
N3276 N 0.89603 0.59649 0.68403 0.0
N3277 N 0.92022 0.62926 0.66994 0.0
C3278 C 0.9054 0.63405 0.68579 0.0
C3279 C 0.89221 0.61629 0.69336 0.0
C3280 C 0.52914 0.60564 0.36918 0.0
C3281 C 0.53844 0.62671 0.36834 0.0
C3282 C 0.53669 0.58879 0.35573 0.0
C3283 C 0.5536 0.59235 0.34061 0.0
H3284 H 0.51656 0.60175 0.38102 0.0
H3285 H 0.52961 0.57265 0.35763 0.0
S3286 S 0.5819 0.64498 0.33009 0.0
N3287 N 0.56438 0.6506 0.34985 0.0
N3288 N 0.57836 0.61884 0.32428 0.0
C3289 C 0.56214 0.61361 0.33854 0.0
C3290 C 0.55463 0.6308 0.35249 0.0
C3291 C 0.63159 0.81126 0.58961 0.0
C3292 C 0.65231 0.80133 0.58975 0.0
C3293 C 0.61476 0.80362 0.60322 0.0
C3294 C 0.618 0.78562 0.61724 0.0
H3295 H 0.62873 0.82578 0.57986 0.0
H3296 H 0.59944 0.8125 0.60342 0.0
S3297 S 0.66839 0.75171 0.62057 0.0
N3298 N 0.6745 0.77123 0.60297 0.0
N3299 N 0.6429 0.75642 0.62812 0.0
C3300 C 0.63822 0.77456 0.61615 0.0
C3301 C 0.65537 0.78255 0.60254 0.0
C3302 C 0.45893 0.90716 0.85852 0.0
C3303 C 0.44263 0.90337 0.84278 0.0
C3304 C 0.46667 0.89026 0.87183 0.0
C3305 C 0.45817 0.86891 0.8702 0.0
H3306 H 0.46541 0.92347 0.86097 0.0
H3307 H 0.47872 0.89429 0.88417 0.0
S3308 S 0.41656 0.85 0.83024 0.0
N3309 N 0.41932 0.87637 0.82513 0.0
N3310 N 0.43367 0.84457 0.85041 0.0
C3311 C 0.44259 0.86464 0.8538 0.0
C3312 C 0.43489 0.88187 0.84001 0.0
C3313 C 0.3404 0.70521 0.10653 0.0
C3314 C 0.34336 0.68717 0.09269 0.0
C3315 C 0.35717 0.71237 0.12031 0.0
C3316 C 0.37748 0.70151 0.12111 0.0
H3317 H 0.32479 0.71358 0.1071 0.0
H3318 H 0.35377 0.72604 0.13106 0.0
S3319 S 0.3937 0.65386 0.08713 0.0
N3320 N 0.36831 0.65916 0.07962 0.0
N3321 N 0.39988 0.67233 0.10584 0.0
C3322 C 0.38094 0.68392 0.10664 0.0
C3323 C 0.36387 0.67682 0.09235 0.0
C3324 C 0.55527 0.3666 0.63904 0.0
C3325 C 0.53678 0.36924 0.62553 0.0
C3326 C 0.5628 0.38372 0.65234 0.0
C3327 C 0.55225 0.40412 0.65236 0.0
H3328 H 0.56457 0.35153 0.63869 0.0
H3329 H 0.57766 0.38136 0.66169 0.0
S3330 S 0.50137 0.41861 0.62285 0.0
N3331 N 0.50659 0.39324 0.6153 0.0
N3332 N 0.52116 0.42537 0.63991 0.0
C3333 C 0.53304 0.40658 0.64009 0.0
C3334 C 0.52517 0.38913 0.6268 0.0
C3335 C 0.86129 0.81352 0.90481 0.0
C3336 C 0.84113 0.80248 0.9051 0.0
C3337 C 0.87836 0.80649 0.89117 0.0
C3338 C 0.87588 0.78806 0.87757 0.0
H3339 H 0.86344 0.82841 0.91418 0.0
H3340 H 0.89318 0.81618 0.89058 0.0
S3341 S 0.82736 0.75138 0.87564 0.0
N3342 N 0.82041 0.77094 0.89289 0.0
N3343 N 0.85246 0.75728 0.86766 0.0
C3344 C 0.8563 0.77593 0.87916 0.0
C3345 C 0.83892 0.78328 0.8928 0.0
C3346 C 0.45735 0.08732 0.13987 0.0
C3347 C 0.44001 0.09078 0.15452 0.0
C3348 C 0.46543 0.1043 0.12688 0.0
C3349 C 0.45626 0.12541 0.12773 0.0
H3350 H 0.46438 0.07117 0.13796 0.0
H3351 H 0.47829 0.10047 0.11532 0.0
S3352 S 0.41191 0.14348 0.16505 0.0
N3353 N 0.41506 0.11723 0.17057 0.0
N3354 N 0.43002 0.14923 0.14587 0.0
C3355 C 0.43968 0.1294 0.14321 0.0
C3356 C 0.43162 0.11207 0.15669 0.0
C3357 C 0.13311 0.68211 0.4004 0.0
C3358 C 0.15413 0.69139 0.39977 0.0
C3359 C 0.11625 0.69019 0.38714 0.0
C3360 C 0.11972 0.70806 0.37301 0.0
H3361 H 0.12995 0.66781 0.41038 0.0
H3362 H 0.10062 0.68185 0.38742 0.0
S3363 S 0.17115 0.74018 0.3681 0.0
N3364 N 0.17701 0.72065 0.38577 0.0
N3365 N 0.14535 0.73626 0.36118 0.0
C3366 C 0.14033 0.71841 0.37346 0.0
C3367 C 0.15754 0.70995 0.38673 0.0
C3368 C 0.8673 0.52829 0.10547 0.0
C3369 C 0.86655 0.53797 0.12637 0.0
C3370 C 0.85417 0.53589 0.08838 0.0
C3371 C 0.83946 0.55321 0.09153 0.0
H3372 H 0.87886 0.51537 0.10189 0.0
H3373 H 0.856 0.52848 0.07238 0.0
S3374 S 0.8293 0.58272 0.14354 0.0
N3375 N 0.84856 0.5648 0.14963 0.0
N3376 N 0.82357 0.57884 0.11744 0.0
C3377 C 0.83744 0.56217 0.11261 0.0
C3378 C 0.85107 0.55462 0.13004 0.0
C3379 C 0.35724 0.45634 0.40497 0.0
C3380 C 0.34218 0.43938 0.40133 0.0
C3381 C 0.37087 0.46385 0.38822 0.0
C3382 C 0.37025 0.45447 0.3672 0.0
H3383 H 0.35896 0.4635 0.42109 0.0
H3384 H 0.38267 0.47646 0.39218 0.0
S3385 S 0.33226 0.41086 0.34871 0.0
N3386 N 0.32617 0.41448 0.37477 0.0
N3387 N 0.35206 0.4284 0.34324 0.0
C3388 C 0.35447 0.43822 0.36302 0.0
C3389 C 0.34035 0.43075 0.38009 0.0
C3390 C 0.81196 0.59286 0.63493 0.0
C3391 C 0.80268 0.59314 0.65595 0.0
C3392 C 0.80397 0.60655 0.61835 0.0
C3393 C 0.78624 0.62078 0.62214 0.0
H3394 H 0.82618 0.58285 0.63158 0.0
H3395 H 0.81229 0.60653 0.60272 0.0
S3396 S 0.75416 0.62483 0.67366 0.0
N3397 N 0.77355 0.6069 0.67913 0.0
N3398 N 0.75814 0.63227 0.64802 0.0
C3399 C 0.77588 0.61997 0.64274 0.0
C3400 C 0.78423 0.60626 0.65964 0.0
C3401 C 0.6539 0.05947 0.88515 0.0
C3402 C 0.6532 0.04982 0.906 0.0
C3403 C 0.64028 0.05202 0.86825 0.0
C3404 C 0.62572 0.03446 0.87154 0.0
H3405 H 0.66417 0.0736 0.88219 0.0
H3406 H 0.64063 0.06062 0.85278 0.0
S3407 S 0.62044 0.00156 0.92244 0.0
N3408 N 0.63867 0.02052 0.92847 0.0
N3409 N 0.6134 0.00611 0.89678 0.0
C3410 C 0.6261 0.02372 0.89196 0.0
C3411 C 0.63973 0.03153 0.90918 0.0
C3412 C 0.70831 0.38774 0.15717 0.0
C3413 C 0.69157 0.40308 0.15367 0.0
C3414 C 0.71605 0.3746 0.14014 0.0
C3415 C 0.70712 0.37599 0.11895 0.0
H3416 H 0.71513 0.38545 0.17336 0.0
H3417 H 0.72844 0.36254 0.14396 0.0
S3418 S 0.66431 0.41501 0.10081 0.0
N3419 N 0.66743 0.4202 0.12713 0.0
N3420 N 0.68175 0.39522 0.09506 0.0
C3421 C 0.69112 0.39206 0.11496 0.0
C3422 C 0.68342 0.40568 0.13232 0.0
C3423 C 0.13825 0.44193 0.12603 0.0
C3424 C 0.12379 0.45948 0.12224 0.0
C3425 C 0.15219 0.43425 0.1095 0.0
C3426 C 0.15196 0.44369 0.08856 0.0
H3427 H 0.13819 0.43345 0.14158 0.0
H3428 H 0.16229 0.42009 0.11279 0.0
S3429 S 0.1199 0.492 0.071 0.0
N3430 N 0.11225 0.4877 0.09652 0.0
N3431 N 0.13813 0.47289 0.06553 0.0
C3432 C 0.13869 0.46204 0.08493 0.0
C3433 C 0.12471 0.47006 0.10176 0.0
C3434 C 0.77982 0.8703 0.85342 0.0
C3435 C 0.78753 0.87323 0.87493 0.0
C3436 C 0.78773 0.88298 0.83615 0.0
C3437 C 0.80337 0.89941 0.83968 0.0
H3438 H 0.76824 0.85743 0.84961 0.0
H3439 H 0.78182 0.87958 0.81979 0.0
S3440 S 0.82747 0.91519 0.89307 0.0
N3441 N 0.81079 0.89478 0.89898 0.0
N3442 N 0.82535 0.91901 0.86641 0.0
C3443 C 0.8104 0.90341 0.86121 0.0
C3444 C 0.80257 0.89021 0.87885 0.0
C3445 C 0.19124 0.60437 0.37472 0.0
C3446 C 0.20891 0.61889 0.37189 0.0
C3447 C 0.18388 0.59112 0.35749 0.0
C3448 C 0.19375 0.59214 0.33676 0.0
H3449 H 0.18244 0.60382 0.39008 0.0
H3450 H 0.16963 0.58092 0.36011 0.0
S3451 S 0.24244 0.62484 0.32148 0.0
N3452 N 0.23765 0.63144 0.34721 0.0
N3453 N 0.22343 0.60685 0.3149 0.0
C3454 C 0.2122 0.60551 0.33404 0.0
C3455 C 0.2199 0.61877 0.3516 0.0
loop_
_geom_bond_atom_site_label_1
_geom_bond_atom_site_label_2
_geom_bond_distance
_geom_bond_site_symmetry_2
_ccdc_geom_bond_type
C0 O2 1.247 . S
C0 O4 1.258 . S
C1 O8 1.247 . S
C1 O9 1.258 . S
O2 C0 1.247 . S
O2 Zn3 2.028 . S
Zn3 O2 2.028 . S
Zn3 O7 2.035 . S
Zn3 O9 2.035 . S
Zn3 O10 2.028 . S
O4 C0 1.258 . S
O4 Zn5 2.035 . S
Zn5 O4 2.035 . S
Zn5 O6 2.028 . S
Zn5 O8 2.028 . S
Zn5 O11 2.035 . S
O6 Zn5 2.028 . S
O6 C12 1.247 . S
O7 Zn3 2.035 . S
O7 C12 1.258 . S
O8 C1 1.247 . S
O8 Zn5 2.028 . S
O9 C1 1.258 . S
O9 Zn3 2.035 . S
O10 Zn3 2.028 . S
O10 C13 1.247 . S
O11 Zn5 2.035 . S
O11 C13 1.258 . S
C12 O6 1.247 . S
C12 O7 1.258 . S
C13 O10 1.247 . S
C13 O11 1.258 . S
C14 O16 1.247 . S
C14 O18 1.258 . S
C15 O22 1.247 . S
C15 O23 1.258 . S
O16 C14 1.247 . S
O16 Zn17 2.028 . S
Zn17 O16 2.028 . S
Zn17 O21 2.035 . S
Zn17 O23 2.035 . S
Zn17 O24 2.028 . S
O18 C14 1.258 . S
O18 Zn19 2.035 . S
Zn19 O18 2.035 . S
Zn19 O20 2.028 . S
Zn19 O22 2.028 . S
Zn19 O25 2.035 . S
O20 Zn19 2.028 . S
O20 C26 1.247 . S
O21 Zn17 2.035 . S
O21 C26 1.258 . S
O22 C15 1.247 . S
O22 Zn19 2.028 . S
O23 C15 1.258 . S
O23 Zn17 2.035 . S
O24 Zn17 2.028 . S
O24 C27 1.247 . S
O25 Zn19 2.035 . S
O25 C27 1.258 . S
C26 O20 1.247 . S
C26 O21 1.258 . S
C27 O24 1.247 . S
C27 O25 1.258 . S
C28 O30 1.247 . S
C28 O32 1.258 . S
C29 O36 1.247 . S
C29 O37 1.258 . S
O30 C28 1.247 . S
O30 Zn31 2.028 . S
Zn31 O30 2.028 . S
Zn31 O35 2.035 . S
Zn31 O37 2.035 . S
Zn31 O38 2.028 . S
O32 C28 1.258 . S
O32 Zn33 2.035 . S
Zn33 O32 2.035 . S
Zn33 O34 2.028 . S
Zn33 O36 2.028 . S
Zn33 O39 2.035 . S
O34 Zn33 2.028 . S
O34 C40 1.247 . S
O35 Zn31 2.035 . S
O35 C40 1.258 . S
O36 C29 1.247 . S
O36 Zn33 2.028 . S
O37 C29 1.258 . S
O37 Zn31 2.035 . S
O38 Zn31 2.028 . S
O38 C41 1.247 . S
O39 Zn33 2.035 . S
O39 C41 1.258 . S
C40 O34 1.247 . S
C40 O35 1.258 . S
C41 O38 1.247 . S
C41 O39 1.258 . S
C42 O44 1.247 . S
C42 O46 1.258 . S
C43 O50 1.247 . S
C43 O51 1.258 . S
O44 C42 1.247 . S
O44 Zn45 2.028 . S
Zn45 O44 2.028 . S
Zn45 O49 2.035 . S
Zn45 O51 2.035 . S
Zn45 O52 2.028 . S
O46 C42 1.258 . S
O46 Zn47 2.035 . S
Zn47 O46 2.035 . S
Zn47 O48 2.028 . S
Zn47 O50 2.028 . S
Zn47 O53 2.035 . S
O48 Zn47 2.028 . S
O48 C54 1.247 . S
O49 Zn45 2.035 . S
O49 C54 1.258 . S
O50 C43 1.247 . S
O50 Zn47 2.028 . S
O51 C43 1.258 . S
O51 Zn45 2.035 . S
O52 Zn45 2.028 . S
O52 C55 1.247 . S
O53 Zn47 2.035 . S
O53 C55 1.258 . S
C54 O48 1.247 . S
C54 O49 1.258 . S
C55 O52 1.247 . S
C55 O53 1.258 . S
C56 O58 1.247 . S
C56 O60 1.258 . S
C57 O64 1.247 . S
C57 O65 1.258 . S
O58 C56 1.247 . S
O58 Zn59 2.028 . S
Zn59 O58 2.028 . S
Zn59 O63 2.035 . S
Zn59 O65 2.035 . S
Zn59 O66 2.028 . S
O60 C56 1.258 . S
O60 Zn61 2.035 . S
Zn61 O60 2.035 . S
Zn61 O62 2.028 . S
Zn61 O64 2.028 . S
Zn61 O67 2.035 . S
O62 Zn61 2.028 . S
O62 C68 1.247 . S
O63 Zn59 2.035 . S
O63 C68 1.258 . S
O64 C57 1.247 . S
O64 Zn61 2.028 . S
O65 C57 1.258 . S
O65 Zn59 2.035 . S
O66 Zn59 2.028 . S
O66 C69 1.247 . S
O67 Zn61 2.035 . S
O67 C69 1.258 . S
C68 O62 1.247 . S
C68 O63 1.258 . S
C69 O66 1.247 . S
C69 O67 1.258 . S
C70 O72 1.247 . S
C70 O74 1.258 . S
C71 O78 1.247 . S
C71 O79 1.258 . S
O72 C70 1.247 . S
O72 Zn73 2.028 . S
Zn73 O72 2.028 . S
Zn73 O77 2.035 . S
Zn73 O79 2.035 . S
Zn73 O80 2.028 . S
O74 C70 1.258 . S
O74 Zn75 2.035 . S
Zn75 O74 2.035 . S
Zn75 O76 2.028 . S
Zn75 O78 2.028 . S
Zn75 O81 2.035 . S
O76 Zn75 2.028 . S
O76 C82 1.247 . S
O77 Zn73 2.035 . S
O77 C82 1.258 . S
O78 C71 1.247 . S
O78 Zn75 2.028 . S
O79 C71 1.258 . S
O79 Zn73 2.035 . S
O80 Zn73 2.028 . S
O80 C83 1.247 . S
O81 Zn75 2.035 . S
O81 C83 1.258 . S
C82 O76 1.247 . S
C82 O77 1.258 . S
C83 O80 1.247 . S
C83 O81 1.258 . S
C84 O86 1.247 . S
C84 O88 1.258 . S
C85 O92 1.247 . S
C85 O93 1.258 . S
O86 C84 1.247 . S
O86 Zn87 2.028 . S
Zn87 O86 2.028 . S
Zn87 O91 2.035 . S
Zn87 O93 2.035 . S
Zn87 O94 2.028 . S
O88 C84 1.258 . S
O88 Zn89 2.035 . S
Zn89 O88 2.035 . S
Zn89 O90 2.028 . S
Zn89 O92 2.028 . S
Zn89 O95 2.035 . S
O90 Zn89 2.028 . S
O90 C96 1.247 . S
O91 Zn87 2.035 . S
O91 C96 1.258 . S
O92 C85 1.247 . S
O92 Zn89 2.028 . S
O93 C85 1.258 . S
O93 Zn87 2.035 . S
O94 Zn87 2.028 . S
O94 C97 1.247 . S
O95 Zn89 2.035 . S
O95 C97 1.258 . S
C96 O90 1.247 . S
C96 O91 1.258 . S
C97 O94 1.247 . S
C97 O95 1.258 . S
C98 O100 1.247 . S
C98 O102 1.258 . S
C99 O106 1.247 . S
C99 O107 1.258 . S
O100 C98 1.247 . S
O100 Zn101 2.028 . S
Zn101 O100 2.028 . S
Zn101 O105 2.035 . S
Zn101 O107 2.035 . S
Zn101 O108 2.028 . S
O102 C98 1.258 . S
O102 Zn103 2.035 . S
Zn103 O102 2.035 . S
Zn103 O104 2.028 . S
Zn103 O106 2.028 . S
Zn103 O109 2.035 . S
O104 Zn103 2.028 . S
O104 C110 1.247 . S
O105 Zn101 2.035 . S
O105 C110 1.258 . S
O106 C99 1.247 . S
O106 Zn103 2.028 . S
O107 C99 1.258 . S
O107 Zn101 2.035 . S
O108 Zn101 2.028 . S
O108 C111 1.247 . S
O109 Zn103 2.035 . S
O109 C111 1.258 . S
C110 O104 1.247 . S
C110 O105 1.258 . S
C111 O108 1.247 . S
C111 O109 1.258 . S
C112 O114 1.247 . S
C112 O116 1.258 . S
C113 O120 1.247 . S
C113 O121 1.258 . S
O114 C112 1.247 . S
O114 Zn115 2.028 . S
Zn115 O114 2.028 . S
Zn115 O119 2.035 . S
Zn115 O121 2.035 . S
Zn115 O122 2.028 . S
O116 C112 1.258 . S
O116 Zn117 2.035 . S
Zn117 O116 2.035 . S
Zn117 O118 2.028 . S
Zn117 O120 2.028 . S
Zn117 O123 2.035 . S
O118 Zn117 2.028 . S
O118 C124 1.247 . S
O119 Zn115 2.035 . S
O119 C124 1.258 . S
O120 C113 1.247 . S
O120 Zn117 2.028 . S
O121 C113 1.258 . S
O121 Zn115 2.035 . S
O122 Zn115 2.028 . S
O122 C125 1.247 . S
O123 Zn117 2.035 . S
O123 C125 1.258 . S
C124 O118 1.247 . S
C124 O119 1.258 . S
C125 O122 1.247 . S
C125 O123 1.258 . S
C126 O128 1.247 . S
C126 O130 1.258 . S
C127 O134 1.247 . S
C127 O135 1.258 . S
O128 C126 1.247 . S
O128 Zn129 2.028 . S
Zn129 O128 2.028 . S
Zn129 O133 2.035 . S
Zn129 O135 2.035 . S
Zn129 O136 2.028 . S
O130 C126 1.258 . S
O130 Zn131 2.035 . S
Zn131 O130 2.035 . S
Zn131 O132 2.028 . S
Zn131 O134 2.028 . S
Zn131 O137 2.035 . S
O132 Zn131 2.028 . S
O132 C138 1.247 . S
O133 Zn129 2.035 . S
O133 C138 1.258 . S
O134 C127 1.247 . S
O134 Zn131 2.028 . S
O135 C127 1.258 . S
O135 Zn129 2.035 . S
O136 Zn129 2.028 . S
O136 C139 1.247 . S
O137 Zn131 2.035 . S
O137 C139 1.258 . S
C138 O132 1.247 . S
C138 O133 1.258 . S
C139 O136 1.247 . S
C139 O137 1.258 . S
C140 O142 1.247 . S
C140 O144 1.258 . S
C141 O148 1.247 . S
C141 O149 1.258 . S
O142 C140 1.247 . S
O142 Zn143 2.028 . S
Zn143 O142 2.028 . S
Zn143 O147 2.035 . S
Zn143 O149 2.035 . S
Zn143 O150 2.028 . S
O144 C140 1.258 . S
O144 Zn145 2.035 . S
Zn145 O144 2.035 . S
Zn145 O146 2.028 . S
Zn145 O148 2.028 . S
Zn145 O151 2.035 . S
O146 Zn145 2.028 . S
O146 C152 1.247 . S
O147 Zn143 2.035 . S
O147 C152 1.258 . S
O148 C141 1.247 . S
O148 Zn145 2.028 . S
O149 C141 1.258 . S
O149 Zn143 2.035 . S
O150 Zn143 2.028 . S
O150 C153 1.247 . S
O151 Zn145 2.035 . S
O151 C153 1.258 . S
C152 O146 1.247 . S
C152 O147 1.258 . S
C153 O150 1.247 . S
C153 O151 1.258 . S
C154 O156 1.247 . S
C154 O158 1.258 . S
C155 O162 1.247 . S
C155 O163 1.258 . S
O156 C154 1.247 . S
O156 Zn157 2.028 . S
Zn157 O156 2.028 . S
Zn157 O161 2.035 . S
Zn157 O163 2.035 . S
Zn157 O164 2.028 . S
O158 C154 1.258 . S
O158 Zn159 2.035 . S
Zn159 O158 2.035 . S
Zn159 O160 2.028 . S
Zn159 O162 2.028 . S
Zn159 O165 2.035 . S
O160 Zn159 2.028 . S
O160 C166 1.247 . S
O161 Zn157 2.035 . S
O161 C166 1.258 . S
O162 C155 1.247 . S
O162 Zn159 2.028 . S
O163 C155 1.258 . S
O163 Zn157 2.035 . S
O164 Zn157 2.028 . S
O164 C167 1.247 . S
O165 Zn159 2.035 . S
O165 C167 1.258 . S
C166 O160 1.247 . S
C166 O161 1.258 . S
C167 O164 1.247 . S
C167 O165 1.258 . S
C168 O170 1.247 . S
C168 O172 1.258 . S
C169 O176 1.247 . S
C169 O177 1.258 . S
O170 C168 1.247 . S
O170 Zn171 2.028 . S
Zn171 O170 2.028 . S
Zn171 O175 2.035 . S
Zn171 O177 2.035 . S
Zn171 O178 2.028 . S
O172 C168 1.258 . S
O172 Zn173 2.035 . S
Zn173 O172 2.035 . S
Zn173 O174 2.028 . S
Zn173 O176 2.028 . S
Zn173 O179 2.035 . S
O174 Zn173 2.028 . S
O174 C180 1.247 . S
O175 Zn171 2.035 . S
O175 C180 1.258 . S
O176 C169 1.247 . S
O176 Zn173 2.028 . S
O177 C169 1.258 . S
O177 Zn171 2.035 . S
O178 Zn171 2.028 . S
O178 C181 1.247 . S
O179 Zn173 2.035 . S
O179 C181 1.258 . S
C180 O174 1.247 . S
C180 O175 1.258 . S
C181 O178 1.247 . S
C181 O179 1.258 . S
C182 O184 1.247 . S
C182 O186 1.258 . S
C183 O190 1.247 . S
C183 O191 1.258 . S
O184 C182 1.247 . S
O184 Zn185 2.028 . S
Zn185 O184 2.028 . S
Zn185 O189 2.035 . S
Zn185 O191 2.035 . S
Zn185 O192 2.028 . S
O186 C182 1.258 . S
O186 Zn187 2.035 . S
Zn187 O186 2.035 . S
Zn187 O188 2.028 . S
Zn187 O190 2.028 . S
Zn187 O193 2.035 . S
O188 Zn187 2.028 . S
O188 C194 1.247 . S
O189 Zn185 2.035 . S
O189 C194 1.258 . S
O190 C183 1.247 . S
O190 Zn187 2.028 . S
O191 C183 1.258 . S
O191 Zn185 2.035 . S
O192 Zn185 2.028 . S
O192 C195 1.247 . S
O193 Zn187 2.035 . S
O193 C195 1.258 . S
C194 O188 1.247 . S
C194 O189 1.258 . S
C195 O192 1.247 . S
C195 O193 1.258 . S
C196 O198 1.247 . S
C196 O200 1.258 . S
C197 O204 1.247 . S
C197 O205 1.258 . S
O198 C196 1.247 . S
O198 Zn199 2.028 . S
Zn199 O198 2.028 . S
Zn199 O203 2.035 . S
Zn199 O205 2.035 . S
Zn199 O206 2.028 . S
O200 C196 1.258 . S
O200 Zn201 2.035 . S
Zn201 O200 2.035 . S
Zn201 O202 2.028 . S
Zn201 O204 2.028 . S
Zn201 O207 2.035 . S
O202 Zn201 2.028 . S
O202 C208 1.247 . S
O203 Zn199 2.035 . S
O203 C208 1.258 . S
O204 C197 1.247 . S
O204 Zn201 2.028 . S
O205 C197 1.258 . S
O205 Zn199 2.035 . S
O206 Zn199 2.028 . S
O206 C209 1.247 . S
O207 Zn201 2.035 . S
O207 C209 1.258 . S
C208 O202 1.247 . S
C208 O203 1.258 . S
C209 O206 1.247 . S
C209 O207 1.258 . S
C210 O212 1.247 . S
C210 O214 1.258 . S
C211 O218 1.247 . S
C211 O219 1.258 . S
O212 C210 1.247 . S
O212 Zn213 2.028 . S
Zn213 O212 2.028 . S
Zn213 O217 2.035 . S
Zn213 O219 2.035 . S
Zn213 O220 2.028 . S
O214 C210 1.258 . S
O214 Zn215 2.035 . S
Zn215 O214 2.035 . S
Zn215 O216 2.028 . S
Zn215 O218 2.028 . S
Zn215 O221 2.035 . S
O216 Zn215 2.028 . S
O216 C222 1.247 . S
O217 Zn213 2.035 . S
O217 C222 1.258 . S
O218 C211 1.247 . S
O218 Zn215 2.028 . S
O219 C211 1.258 . S
O219 Zn213 2.035 . S
O220 Zn213 2.028 . S
O220 C223 1.247 . S
O221 Zn215 2.035 . S
O221 C223 1.258 . S
C222 O216 1.247 . S
C222 O217 1.258 . S
C223 O220 1.247 . S
C223 O221 1.258 . S
C224 O226 1.247 . S
C224 O228 1.258 . S
C225 O232 1.247 . S
C225 O233 1.258 . S
O226 C224 1.247 . S
O226 Zn227 2.028 . S
Zn227 O226 2.028 . S
Zn227 O231 2.035 . S
Zn227 O233 2.035 . S
Zn227 O234 2.028 . S
O228 C224 1.258 . S
O228 Zn229 2.035 . S
Zn229 O228 2.035 . S
Zn229 O230 2.028 . S
Zn229 O232 2.028 . S
Zn229 O235 2.035 . S
O230 Zn229 2.028 . S
O230 C236 1.247 . S
O231 Zn227 2.035 . S
O231 C236 1.258 . S
O232 C225 1.247 . S
O232 Zn229 2.028 . S
O233 C225 1.258 . S
O233 Zn227 2.035 . S
O234 Zn227 2.028 . S
O234 C237 1.247 . S
O235 Zn229 2.035 . S
O235 C237 1.258 . S
C236 O230 1.247 . S
C236 O231 1.258 . S
C237 O234 1.247 . S
C237 O235 1.258 . S
C238 O240 1.247 . S
C238 O242 1.258 . S
C239 O246 1.247 . S
C239 O247 1.258 . S
O240 C238 1.247 . S
O240 Zn241 2.028 . S
Zn241 O240 2.028 . S
Zn241 O245 2.035 . S
Zn241 O247 2.035 . S
Zn241 O248 2.028 . S
O242 C238 1.258 . S
O242 Zn243 2.035 . S
Zn243 O242 2.035 . S
Zn243 O244 2.028 . S
Zn243 O246 2.028 . S
Zn243 O249 2.035 . S
O244 Zn243 2.028 . S
O244 C250 1.247 . S
O245 Zn241 2.035 . S
O245 C250 1.258 . S
O246 C239 1.247 . S
O246 Zn243 2.028 . S
O247 C239 1.258 . S
O247 Zn241 2.035 . S
O248 Zn241 2.028 . S
O248 C251 1.247 . S
O249 Zn243 2.035 . S
O249 C251 1.258 . S
C250 O244 1.247 . S
C250 O245 1.258 . S
C251 O248 1.247 . S
C251 O249 1.258 . S
C252 O254 1.247 . S
C252 O256 1.258 . S
C253 O260 1.247 . S
C253 O261 1.258 . S
O254 C252 1.247 . S
O254 Zn255 2.028 . S
Zn255 O254 2.028 . S
Zn255 O259 2.035 . S
Zn255 O261 2.035 . S
Zn255 O262 2.028 . S
O256 C252 1.258 . S
O256 Zn257 2.035 . S
Zn257 O256 2.035 . S
Zn257 O258 2.028 . S
Zn257 O260 2.028 . S
Zn257 O263 2.035 . S
O258 Zn257 2.028 . S
O258 C264 1.247 . S
O259 Zn255 2.035 . S
O259 C264 1.258 . S
O260 C253 1.247 . S
O260 Zn257 2.028 . S
O261 C253 1.258 . S
O261 Zn255 2.035 . S
O262 Zn255 2.028 . S
O262 C265 1.247 . S
O263 Zn257 2.035 . S
O263 C265 1.258 . S
C264 O258 1.247 . S
C264 O259 1.258 . S
C265 O262 1.247 . S
C265 O263 1.258 . S
C266 O268 1.247 . S
C266 O270 1.258 . S
C267 O274 1.247 . S
C267 O275 1.258 . S
O268 C266 1.247 . S
O268 Zn269 2.028 . S
Zn269 O268 2.028 . S
Zn269 O273 2.035 . S
Zn269 O275 2.035 . S
Zn269 O276 2.028 . S
O270 C266 1.258 . S
O270 Zn271 2.035 . S
Zn271 O270 2.035 . S
Zn271 O272 2.028 . S
Zn271 O274 2.028 . S
Zn271 O277 2.035 . S
O272 Zn271 2.028 . S
O272 C278 1.247 . S
O273 Zn269 2.035 . S
O273 C278 1.258 . S
O274 C267 1.247 . S
O274 Zn271 2.028 . S
O275 C267 1.258 . S
O275 Zn269 2.035 . S
O276 Zn269 2.028 . S
O276 C279 1.247 . S
O277 Zn271 2.035 . S
O277 C279 1.258 . S
C278 O272 1.247 . S
C278 O273 1.258 . S
C279 O276 1.247 . S
C279 O277 1.258 . S
C280 O282 1.247 . S
C280 O284 1.258 . S
C281 O288 1.247 . S
C281 O289 1.258 . S
O282 C280 1.247 . S
O282 Zn283 2.028 . S
Zn283 O282 2.028 . S
Zn283 O287 2.035 . S
Zn283 O289 2.035 . S
Zn283 O290 2.028 . S
O284 C280 1.258 . S
O284 Zn285 2.035 . S
Zn285 O284 2.035 . S
Zn285 O286 2.028 . S
Zn285 O288 2.028 . S
Zn285 O291 2.035 . S
O286 Zn285 2.028 . S
O286 C292 1.247 . S
O287 Zn283 2.035 . S
O287 C292 1.258 . S
O288 C281 1.247 . S
O288 Zn285 2.028 . S
O289 C281 1.258 . S
O289 Zn283 2.035 . S
O290 Zn283 2.028 . S
O290 C293 1.247 . S
O291 Zn285 2.035 . S
O291 C293 1.258 . S
C292 O286 1.247 . S
C292 O287 1.258 . S
C293 O290 1.247 . S
C293 O291 1.258 . S
C294 O296 1.247 . S
C294 O298 1.258 . S
C295 O302 1.247 . S
C295 O303 1.258 . S
O296 C294 1.247 . S
O296 Zn297 2.028 . S
Zn297 O296 2.028 . S
Zn297 O301 2.035 . S
Zn297 O303 2.035 . S
Zn297 O304 2.028 . S
O298 C294 1.258 . S
O298 Zn299 2.035 . S
Zn299 O298 2.035 . S
Zn299 O300 2.028 . S
Zn299 O302 2.028 . S
Zn299 O305 2.035 . S
O300 Zn299 2.028 . S
O300 C306 1.247 . S
O301 Zn297 2.035 . S
O301 C306 1.258 . S
O302 C295 1.247 . S
O302 Zn299 2.028 . S
O303 C295 1.258 . S
O303 Zn297 2.035 . S
O304 Zn297 2.028 . S
O304 C307 1.247 . S
O305 Zn299 2.035 . S
O305 C307 1.258 . S
C306 O300 1.247 . S
C306 O301 1.258 . S
C307 O304 1.247 . S
C307 O305 1.258 . S
C308 O310 1.247 . S
C308 O312 1.258 . S
C309 O316 1.247 . S
C309 O317 1.258 . S
O310 C308 1.247 . S
O310 Zn311 2.028 . S
Zn311 O310 2.028 . S
Zn311 O315 2.035 . S
Zn311 O317 2.035 . S
Zn311 O318 2.028 . S
O312 C308 1.258 . S
O312 Zn313 2.035 . S
Zn313 O312 2.035 . S
Zn313 O314 2.028 . S
Zn313 O316 2.028 . S
Zn313 O319 2.035 . S
O314 Zn313 2.028 . S
O314 C320 1.247 . S
O315 Zn311 2.035 . S
O315 C320 1.258 . S
O316 C309 1.247 . S
O316 Zn313 2.028 . S
O317 C309 1.258 . S
O317 Zn311 2.035 . S
O318 Zn311 2.028 . S
O318 C321 1.247 . S
O319 Zn313 2.035 . S
O319 C321 1.258 . S
C320 O314 1.247 . S
C320 O315 1.258 . S
C321 O318 1.247 . S
C321 O319 1.258 . S
C322 O324 1.247 . S
C322 O326 1.258 . S
C323 O330 1.247 . S
C323 O331 1.258 . S
O324 C322 1.247 . S
O324 Zn325 2.028 . S
Zn325 O324 2.028 . S
Zn325 O329 2.035 . S
Zn325 O331 2.035 . S
Zn325 O332 2.028 . S
O326 C322 1.258 . S
O326 Zn327 2.035 . S
Zn327 O326 2.035 . S
Zn327 O328 2.028 . S
Zn327 O330 2.028 . S
Zn327 O333 2.035 . S
O328 Zn327 2.028 . S
O328 C334 1.247 . S
O329 Zn325 2.035 . S
O329 C334 1.258 . S
O330 C323 1.247 . S
O330 Zn327 2.028 . S
O331 C323 1.258 . S
O331 Zn325 2.035 . S
O332 Zn325 2.028 . S
O332 C335 1.247 . S
O333 Zn327 2.035 . S
O333 C335 1.258 . S
C334 O328 1.247 . S
C334 O329 1.258 . S
C335 O332 1.247 . S
C335 O333 1.258 . S
C336 O338 1.247 . S
C336 O340 1.258 . S
C337 O344 1.247 . S
C337 O345 1.258 . S
O338 C336 1.247 . S
O338 Zn339 2.028 . S
Zn339 O338 2.028 . S
Zn339 O343 2.035 . S
Zn339 O345 2.035 . S
Zn339 O346 2.028 . S
O340 C336 1.258 . S
O340 Zn341 2.035 . S
Zn341 O340 2.035 . S
Zn341 O342 2.028 . S
Zn341 O344 2.028 . S
Zn341 O347 2.035 . S
O342 Zn341 2.028 . S
O342 C348 1.247 . S
O343 Zn339 2.035 . S
O343 C348 1.258 . S
O344 C337 1.247 . S
O344 Zn341 2.028 . S
O345 C337 1.258 . S
O345 Zn339 2.035 . S
O346 Zn339 2.028 . S
O346 C349 1.247 . S
O347 Zn341 2.035 . S
O347 C349 1.258 . S
C348 O342 1.247 . S
C348 O343 1.258 . S
C349 O346 1.247 . S
C349 O347 1.258 . S
C350 O352 1.247 . S
C350 O354 1.258 . S
C351 O358 1.247 . S
C351 O359 1.258 . S
O352 C350 1.247 . S
O352 Zn353 2.028 . S
Zn353 O352 2.028 . S
Zn353 O357 2.035 . S
Zn353 O359 2.035 . S
Zn353 O360 2.028 . S
O354 C350 1.258 . S
O354 Zn355 2.035 . S
Zn355 O354 2.035 . S
Zn355 O356 2.028 . S
Zn355 O358 2.028 . S
Zn355 O361 2.035 . S
O356 Zn355 2.028 . S
O356 C362 1.247 . S
O357 Zn353 2.035 . S
O357 C362 1.258 . S
O358 C351 1.247 . S
O358 Zn355 2.028 . S
O359 C351 1.258 . S
O359 Zn353 2.035 . S
O360 Zn353 2.028 . S
O360 C363 1.247 . S
O361 Zn355 2.035 . S
O361 C363 1.258 . S
C362 O356 1.247 . S
C362 O357 1.258 . S
C363 O360 1.247 . S
C363 O361 1.258 . S
C364 O366 1.247 . S
C364 O368 1.258 . S
C365 O372 1.247 . S
C365 O373 1.258 . S
O366 C364 1.247 . S
O366 Zn367 2.028 . S
Zn367 O366 2.028 . S
Zn367 O371 2.035 . S
Zn367 O373 2.035 . S
Zn367 O374 2.028 . S
O368 C364 1.258 . S
O368 Zn369 2.035 . S
Zn369 O368 2.035 . S
Zn369 O370 2.028 . S
Zn369 O372 2.028 . S
Zn369 O375 2.035 . S
O370 Zn369 2.028 . S
O370 C376 1.247 . S
O371 Zn367 2.035 . S
O371 C376 1.258 . S
O372 C365 1.247 . S
O372 Zn369 2.028 . S
O373 C365 1.258 . S
O373 Zn367 2.035 . S
O374 Zn367 2.028 . S
O374 C377 1.247 . S
O375 Zn369 2.035 . S
O375 C377 1.258 . S
C376 O370 1.247 . S
C376 O371 1.258 . S
C377 O374 1.247 . S
C377 O375 1.258 . S
C378 O380 1.247 . S
C378 O382 1.258 . S
C379 O386 1.247 . S
C379 O387 1.258 . S
O380 C378 1.247 . S
O380 Zn381 2.028 . S
Zn381 O380 2.028 . S
Zn381 O385 2.035 . S
Zn381 O387 2.035 . S
Zn381 O388 2.028 . S
O382 C378 1.258 . S
O382 Zn383 2.035 . S
Zn383 O382 2.035 . S
Zn383 O384 2.028 . S
Zn383 O386 2.028 . S
Zn383 O389 2.035 . S
O384 Zn383 2.028 . S
O384 C390 1.247 . S
O385 Zn381 2.035 . S
O385 C390 1.258 . S
O386 C379 1.247 . S
O386 Zn383 2.028 . S
O387 C379 1.258 . S
O387 Zn381 2.035 . S
O388 Zn381 2.028 . S
O388 C391 1.247 . S
O389 Zn383 2.035 . S
O389 C391 1.258 . S
C390 O384 1.247 . S
C390 O385 1.258 . S
C391 O388 1.247 . S
C391 O389 1.258 . S
C392 O394 1.247 . S
C392 O396 1.258 . S
C393 O400 1.247 . S
C393 O401 1.258 . S
O394 C392 1.247 . S
O394 Zn395 2.028 . S
Zn395 O394 2.028 . S
Zn395 O399 2.035 . S
Zn395 O401 2.035 . S
Zn395 O402 2.028 . S
O396 C392 1.258 . S
O396 Zn397 2.035 . S
Zn397 O396 2.035 . S
Zn397 O398 2.028 . S
Zn397 O400 2.028 . S
Zn397 O403 2.035 . S
O398 Zn397 2.028 . S
O398 C404 1.247 . S
O399 Zn395 2.035 . S
O399 C404 1.258 . S
O400 C393 1.247 . S
O400 Zn397 2.028 . S
O401 C393 1.258 . S
O401 Zn395 2.035 . S
O402 Zn395 2.028 . S
O402 C405 1.247 . S
O403 Zn397 2.035 . S
O403 C405 1.258 . S
C404 O398 1.247 . S
C404 O399 1.258 . S
C405 O402 1.247 . S
C405 O403 1.258 . S
C406 O408 1.247 . S
C406 O410 1.258 . S
C407 O414 1.247 . S
C407 O415 1.258 . S
O408 C406 1.247 . S
O408 Zn409 2.028 . S
Zn409 O408 2.028 . S
Zn409 O413 2.035 . S
Zn409 O415 2.035 . S
Zn409 O416 2.028 . S
O410 C406 1.258 . S
O410 Zn411 2.035 . S
Zn411 O410 2.035 . S
Zn411 O412 2.028 . S
Zn411 O414 2.028 . S
Zn411 O417 2.035 . S
O412 Zn411 2.028 . S
O412 C418 1.247 . S
O413 Zn409 2.035 . S
O413 C418 1.258 . S
O414 C407 1.247 . S
O414 Zn411 2.028 . S
O415 C407 1.258 . S
O415 Zn409 2.035 . S
O416 Zn409 2.028 . S
O416 C419 1.247 . S
O417 Zn411 2.035 . S
O417 C419 1.258 . S
C418 O412 1.247 . S
C418 O413 1.258 . S
C419 O416 1.247 . S
C419 O417 1.258 . S
C420 O422 1.247 . S
C420 O424 1.258 . S
C421 O428 1.247 . S
C421 O429 1.258 . S
O422 C420 1.247 . S
O422 Zn423 2.028 . S
Zn423 O422 2.028 . S
Zn423 O427 2.035 . S
Zn423 O429 2.035 . S
Zn423 O430 2.028 . S
O424 C420 1.258 . S
O424 Zn425 2.035 . S
Zn425 O424 2.035 . S
Zn425 O426 2.028 . S
Zn425 O428 2.028 . S
Zn425 O431 2.035 . S
O426 Zn425 2.028 . S
O426 C432 1.247 . S
O427 Zn423 2.035 . S
O427 C432 1.258 . S
O428 C421 1.247 . S
O428 Zn425 2.028 . S
O429 C421 1.258 . S
O429 Zn423 2.035 . S
O430 Zn423 2.028 . S
O430 C433 1.247 . S
O431 Zn425 2.035 . S
O431 C433 1.258 . S
C432 O426 1.247 . S
C432 O427 1.258 . S
C433 O430 1.247 . S
C433 O431 1.258 . S
C434 O436 1.247 . S
C434 O438 1.258 . S
C435 O442 1.247 . S
C435 O443 1.258 . S
O436 C434 1.247 . S
O436 Zn437 2.028 . S
Zn437 O436 2.028 . S
Zn437 O441 2.035 . S
Zn437 O443 2.035 . S
Zn437 O444 2.028 . S
O438 C434 1.258 . S
O438 Zn439 2.035 . S
Zn439 O438 2.035 . S
Zn439 O440 2.028 . S
Zn439 O442 2.028 . S
Zn439 O445 2.035 . S
O440 Zn439 2.028 . S
O440 C446 1.247 . S
O441 Zn437 2.035 . S
O441 C446 1.258 . S
O442 C435 1.247 . S
O442 Zn439 2.028 . S
O443 C435 1.258 . S
O443 Zn437 2.035 . S
O444 Zn437 2.028 . S
O444 C447 1.247 . S
O445 Zn439 2.035 . S
O445 C447 1.258 . S
C446 O440 1.247 . S
C446 O441 1.258 . S
C447 O444 1.247 . S
C447 O445 1.258 . S
C448 O450 1.247 . S
C448 O452 1.258 . S
C449 O456 1.247 . S
C449 O457 1.258 . S
O450 C448 1.247 . S
O450 Zn451 2.028 . S
Zn451 O450 2.028 . S
Zn451 O455 2.035 . S
Zn451 O457 2.035 . S
Zn451 O458 2.028 . S
O452 C448 1.258 . S
O452 Zn453 2.035 . S
Zn453 O452 2.035 . S
Zn453 O454 2.028 . S
Zn453 O456 2.028 . S
Zn453 O459 2.035 . S
O454 Zn453 2.028 . S
O454 C460 1.247 . S
O455 Zn451 2.035 . S
O455 C460 1.258 . S
O456 C449 1.247 . S
O456 Zn453 2.028 . S
O457 C449 1.258 . S
O457 Zn451 2.035 . S
O458 Zn451 2.028 . S
O458 C461 1.247 . S
O459 Zn453 2.035 . S
O459 C461 1.258 . S
C460 O454 1.247 . S
C460 O455 1.258 . S
C461 O458 1.247 . S
C461 O459 1.258 . S
C462 O464 1.247 . S
C462 O466 1.258 . S
C463 O470 1.247 . S
C463 O471 1.258 . S
O464 C462 1.247 . S
O464 Zn465 2.028 . S
Zn465 O464 2.028 . S
Zn465 O469 2.035 . S
Zn465 O471 2.035 . S
Zn465 O472 2.028 . S
O466 C462 1.258 . S
O466 Zn467 2.035 . S
Zn467 O466 2.035 . S
Zn467 O468 2.028 . S
Zn467 O470 2.028 . S
Zn467 O473 2.035 . S
O468 Zn467 2.028 . S
O468 C474 1.247 . S
O469 Zn465 2.035 . S
O469 C474 1.258 . S
O470 C463 1.247 . S
O470 Zn467 2.028 . S
O471 C463 1.258 . S
O471 Zn465 2.035 . S
O472 Zn465 2.028 . S
O472 C475 1.247 . S
O473 Zn467 2.035 . S
O473 C475 1.258 . S
C474 O468 1.247 . S
C474 O469 1.258 . S
C475 O472 1.247 . S
C475 O473 1.258 . S
C476 O478 1.247 . S
C476 O480 1.258 . S
C477 O484 1.247 . S
C477 O485 1.258 . S
O478 C476 1.247 . S
O478 Zn479 2.028 . S
Zn479 O478 2.028 . S
Zn479 O483 2.035 . S
Zn479 O485 2.035 . S
Zn479 O486 2.028 . S
O480 C476 1.258 . S
O480 Zn481 2.035 . S
Zn481 O480 2.035 . S
Zn481 O482 2.028 . S
Zn481 O484 2.028 . S
Zn481 O487 2.035 . S
O482 Zn481 2.028 . S
O482 C488 1.247 . S
O483 Zn479 2.035 . S
O483 C488 1.258 . S
O484 C477 1.247 . S
O484 Zn481 2.028 . S
O485 C477 1.258 . S
O485 Zn479 2.035 . S
O486 Zn479 2.028 . S
O486 C489 1.247 . S
O487 Zn481 2.035 . S
O487 C489 1.258 . S
C488 O482 1.247 . S
C488 O483 1.258 . S
C489 O486 1.247 . S
C489 O487 1.258 . S
C490 O492 1.247 . S
C490 O494 1.258 . S
C491 O498 1.247 . S
C491 O499 1.258 . S
O492 C490 1.247 . S
O492 Zn493 2.028 . S
Zn493 O492 2.028 . S
Zn493 O497 2.035 . S
Zn493 O499 2.035 . S
Zn493 O500 2.028 . S
O494 C490 1.258 . S
O494 Zn495 2.035 . S
Zn495 O494 2.035 . S
Zn495 O496 2.028 . S
Zn495 O498 2.028 . S
Zn495 O501 2.035 . S
O496 Zn495 2.028 . S
O496 C502 1.247 . S
O497 Zn493 2.035 . S
O497 C502 1.258 . S
O498 C491 1.247 . S
O498 Zn495 2.028 . S
O499 C491 1.258 . S
O499 Zn493 2.035 . S
O500 Zn493 2.028 . S
O500 C503 1.247 . S
O501 Zn495 2.035 . S
O501 C503 1.258 . S
C502 O496 1.247 . S
C502 O497 1.258 . S
C503 O500 1.247 . S
C503 O501 1.258 . S
C504 O506 1.247 . S
C504 O508 1.258 . S
C505 O512 1.247 . S
C505 O513 1.258 . S
O506 C504 1.247 . S
O506 Zn507 2.028 . S
Zn507 O506 2.028 . S
Zn507 O511 2.035 . S
Zn507 O513 2.035 . S
Zn507 O514 2.028 . S
O508 C504 1.258 . S
O508 Zn509 2.035 . S
Zn509 O508 2.035 . S
Zn509 O510 2.028 . S
Zn509 O512 2.028 . S
Zn509 O515 2.035 . S
O510 Zn509 2.028 . S
O510 C516 1.247 . S
O511 Zn507 2.035 . S
O511 C516 1.258 . S
O512 C505 1.247 . S
O512 Zn509 2.028 . S
O513 C505 1.258 . S
O513 Zn507 2.035 . S
O514 Zn507 2.028 . S
O514 C517 1.247 . S
O515 Zn509 2.035 . S
O515 C517 1.258 . S
C516 O510 1.247 . S
C516 O511 1.258 . S
C517 O514 1.247 . S
C517 O515 1.258 . S
C518 O520 1.247 . S
C518 O522 1.258 . S
C519 O526 1.247 . S
C519 O527 1.258 . S
O520 C518 1.247 . S
O520 Zn521 2.028 . S
Zn521 O520 2.028 . S
Zn521 O525 2.035 . S
Zn521 O527 2.035 . S
Zn521 O528 2.028 . S
O522 C518 1.258 . S
O522 Zn523 2.035 . S
Zn523 O522 2.035 . S
Zn523 O524 2.028 . S
Zn523 O526 2.028 . S
Zn523 O529 2.035 . S
O524 Zn523 2.028 . S
O524 C530 1.247 . S
O525 Zn521 2.035 . S
O525 C530 1.258 . S
O526 C519 1.247 . S
O526 Zn523 2.028 . S
O527 C519 1.258 . S
O527 Zn521 2.035 . S
O528 Zn521 2.028 . S
O528 C531 1.247 . S
O529 Zn523 2.035 . S
O529 C531 1.258 . S
C530 O524 1.247 . S
C530 O525 1.258 . S
C531 O528 1.247 . S
C531 O529 1.258 . S
C532 O534 1.247 . S
C532 O536 1.258 . S
C533 O540 1.247 . S
C533 O541 1.258 . S
O534 C532 1.247 . S
O534 Zn535 2.028 . S
Zn535 O534 2.028 . S
Zn535 O539 2.035 . S
Zn535 O541 2.035 . S
Zn535 O542 2.028 . S
O536 C532 1.258 . S
O536 Zn537 2.035 . S
Zn537 O536 2.035 . S
Zn537 O538 2.028 . S
Zn537 O540 2.028 . S
Zn537 O543 2.035 . S
O538 Zn537 2.028 . S
O538 C544 1.247 . S
O539 Zn535 2.035 . S
O539 C544 1.258 . S
O540 C533 1.247 . S
O540 Zn537 2.028 . S
O541 C533 1.258 . S
O541 Zn535 2.035 . S
O542 Zn535 2.028 . S
O542 C545 1.247 . S
O543 Zn537 2.035 . S
O543 C545 1.258 . S
C544 O538 1.247 . S
C544 O539 1.258 . S
C545 O542 1.247 . S
C545 O543 1.258 . S
C546 O548 1.247 . S
C546 O550 1.258 . S
C547 O554 1.247 . S
C547 O555 1.258 . S
O548 C546 1.247 . S
O548 Zn549 2.028 . S
Zn549 O548 2.028 . S
Zn549 O553 2.035 . S
Zn549 O555 2.035 . S
Zn549 O556 2.028 . S
O550 C546 1.258 . S
O550 Zn551 2.035 . S
Zn551 O550 2.035 . S
Zn551 O552 2.028 . S
Zn551 O554 2.028 . S
Zn551 O557 2.035 . S
O552 Zn551 2.028 . S
O552 C558 1.247 . S
O553 Zn549 2.035 . S
O553 C558 1.258 . S
O554 C547 1.247 . S
O554 Zn551 2.028 . S
O555 C547 1.258 . S
O555 Zn549 2.035 . S
O556 Zn549 2.028 . S
O556 C559 1.247 . S
O557 Zn551 2.035 . S
O557 C559 1.258 . S
C558 O552 1.247 . S
C558 O553 1.258 . S
C559 O556 1.247 . S
C559 O557 1.258 . S
C560 O562 1.247 . S
C560 O564 1.258 . S
C561 O568 1.247 . S
C561 O569 1.258 . S
O562 C560 1.247 . S
O562 Zn563 2.028 . S
Zn563 O562 2.028 . S
Zn563 O567 2.035 . S
Zn563 O569 2.035 . S
Zn563 O570 2.028 . S
O564 C560 1.258 . S
O564 Zn565 2.035 . S
Zn565 O564 2.035 . S
Zn565 O566 2.028 . S
Zn565 O568 2.028 . S
Zn565 O571 2.035 . S
O566 Zn565 2.028 . S
O566 C572 1.247 . S
O567 Zn563 2.035 . S
O567 C572 1.258 . S
O568 C561 1.247 . S
O568 Zn565 2.028 . S
O569 C561 1.258 . S
O569 Zn563 2.035 . S
O570 Zn563 2.028 . S
O570 C573 1.247 . S
O571 Zn565 2.035 . S
O571 C573 1.258 . S
C572 O566 1.247 . S
C572 O567 1.258 . S
C573 O570 1.247 . S
C573 O571 1.258 . S
C574 O576 1.247 . S
C574 O578 1.258 . S
C575 O582 1.247 . S
C575 O583 1.258 . S
O576 C574 1.247 . S
O576 Zn577 2.028 . S
Zn577 O576 2.028 . S
Zn577 O581 2.035 . S
Zn577 O583 2.035 . S
Zn577 O584 2.028 . S
O578 C574 1.258 . S
O578 Zn579 2.035 . S
Zn579 O578 2.035 . S
Zn579 O580 2.028 . S
Zn579 O582 2.028 . S
Zn579 O585 2.035 . S
O580 Zn579 2.028 . S
O580 C586 1.247 . S
O581 Zn577 2.035 . S
O581 C586 1.258 . S
O582 C575 1.247 . S
O582 Zn579 2.028 . S
O583 C575 1.258 . S
O583 Zn577 2.035 . S
O584 Zn577 2.028 . S
O584 C587 1.247 . S
O585 Zn579 2.035 . S
O585 C587 1.258 . S
C586 O580 1.247 . S
C586 O581 1.258 . S
C587 O584 1.247 . S
C587 O585 1.258 . S
C588 O590 1.247 . S
C588 O592 1.258 . S
C589 O596 1.247 . S
C589 O597 1.258 . S
O590 C588 1.247 . S
O590 Zn591 2.028 . S
Zn591 O590 2.028 . S
Zn591 O595 2.035 . S
Zn591 O597 2.035 . S
Zn591 O598 2.028 . S
O592 C588 1.258 . S
O592 Zn593 2.035 . S
Zn593 O592 2.035 . S
Zn593 O594 2.028 . S
Zn593 O596 2.028 . S
Zn593 O599 2.035 . S
O594 Zn593 2.028 . S
O594 C600 1.247 . S
O595 Zn591 2.035 . S
O595 C600 1.258 . S
O596 C589 1.247 . S
O596 Zn593 2.028 . S
O597 C589 1.258 . S
O597 Zn591 2.035 . S
O598 Zn591 2.028 . S
O598 C601 1.247 . S
O599 Zn593 2.035 . S
O599 C601 1.258 . S
C600 O594 1.247 . S
C600 O595 1.258 . S
C601 O598 1.247 . S
C601 O599 1.258 . S
C602 O604 1.247 . S
C602 O606 1.258 . S
C603 O610 1.247 . S
C603 O611 1.258 . S
O604 C602 1.247 . S
O604 Zn605 2.028 . S
Zn605 O604 2.028 . S
Zn605 O609 2.035 . S
Zn605 O611 2.035 . S
Zn605 O612 2.028 . S
O606 C602 1.258 . S
O606 Zn607 2.035 . S
Zn607 O606 2.035 . S
Zn607 O608 2.028 . S
Zn607 O610 2.028 . S
Zn607 O613 2.035 . S
O608 Zn607 2.028 . S
O608 C614 1.247 . S
O609 Zn605 2.035 . S
O609 C614 1.258 . S
O610 C603 1.247 . S
O610 Zn607 2.028 . S
O611 C603 1.258 . S
O611 Zn605 2.035 . S
O612 Zn605 2.028 . S
O612 C615 1.247 . S
O613 Zn607 2.035 . S
O613 C615 1.258 . S
C614 O608 1.247 . S
C614 O609 1.258 . S
C615 O612 1.247 . S
C615 O613 1.258 . S
C616 O618 1.247 . S
C616 O620 1.258 . S
C617 O624 1.247 . S
C617 O625 1.258 . S
O618 C616 1.247 . S
O618 Zn619 2.028 . S
Zn619 O618 2.028 . S
Zn619 O623 2.035 . S
Zn619 O625 2.035 . S
Zn619 O626 2.028 . S
O620 C616 1.258 . S
O620 Zn621 2.035 . S
Zn621 O620 2.035 . S
Zn621 O622 2.028 . S
Zn621 O624 2.028 . S
Zn621 O627 2.035 . S
O622 Zn621 2.028 . S
O622 C628 1.247 . S
O623 Zn619 2.035 . S
O623 C628 1.258 . S
O624 C617 1.247 . S
O624 Zn621 2.028 . S
O625 C617 1.258 . S
O625 Zn619 2.035 . S
O626 Zn619 2.028 . S
O626 C629 1.247 . S
O627 Zn621 2.035 . S
O627 C629 1.258 . S
C628 O622 1.247 . S
C628 O623 1.258 . S
C629 O626 1.247 . S
C629 O627 1.258 . S
C630 O632 1.247 . S
C630 O634 1.258 . S
C631 O638 1.247 . S
C631 O639 1.258 . S
O632 C630 1.247 . S
O632 Zn633 2.028 . S
Zn633 O632 2.028 . S
Zn633 O637 2.035 . S
Zn633 O639 2.035 . S
Zn633 O640 2.028 . S
O634 C630 1.258 . S
O634 Zn635 2.035 . S
Zn635 O634 2.035 . S
Zn635 O636 2.028 . S
Zn635 O638 2.028 . S
Zn635 O641 2.035 . S
O636 Zn635 2.028 . S
O636 C642 1.247 . S
O637 Zn633 2.035 . S
O637 C642 1.258 . S
O638 C631 1.247 . S
O638 Zn635 2.028 . S
O639 C631 1.258 . S
O639 Zn633 2.035 . S
O640 Zn633 2.028 . S
O640 C643 1.247 . S
O641 Zn635 2.035 . S
O641 C643 1.258 . S
C642 O636 1.247 . S
C642 O637 1.258 . S
C643 O640 1.247 . S
C643 O641 1.258 . S
C644 O646 1.247 . S
C644 O648 1.258 . S
C645 O652 1.247 . S
C645 O653 1.258 . S
O646 C644 1.247 . S
O646 Zn647 2.028 . S
Zn647 O646 2.028 . S
Zn647 O651 2.035 . S
Zn647 O653 2.035 . S
Zn647 O654 2.028 . S
O648 C644 1.258 . S
O648 Zn649 2.035 . S
Zn649 O648 2.035 . S
Zn649 O650 2.028 . S
Zn649 O652 2.028 . S
Zn649 O655 2.035 . S
O650 Zn649 2.028 . S
O650 C656 1.247 . S
O651 Zn647 2.035 . S
O651 C656 1.258 . S
O652 C645 1.247 . S
O652 Zn649 2.028 . S
O653 C645 1.258 . S
O653 Zn647 2.035 . S
O654 Zn647 2.028 . S
O654 C657 1.247 . S
O655 Zn649 2.035 . S
O655 C657 1.258 . S
C656 O650 1.247 . S
C656 O651 1.258 . S
C657 O654 1.247 . S
C657 O655 1.258 . S
C658 O660 1.247 . S
C658 O662 1.258 . S
C659 O666 1.247 . S
C659 O667 1.258 . S
O660 C658 1.247 . S
O660 Zn661 2.028 . S
Zn661 O660 2.028 . S
Zn661 O665 2.035 . S
Zn661 O667 2.035 . S
Zn661 O668 2.028 . S
O662 C658 1.258 . S
O662 Zn663 2.035 . S
Zn663 O662 2.035 . S
Zn663 O664 2.028 . S
Zn663 O666 2.028 . S
Zn663 O669 2.035 . S
O664 Zn663 2.028 . S
O664 C670 1.247 . S
O665 Zn661 2.035 . S
O665 C670 1.258 . S
O666 C659 1.247 . S
O666 Zn663 2.028 . S
O667 C659 1.258 . S
O667 Zn661 2.035 . S
O668 Zn661 2.028 . S
O668 C671 1.247 . S
O669 Zn663 2.035 . S
O669 C671 1.258 . S
C670 O664 1.247 . S
C670 O665 1.258 . S
C671 O668 1.247 . S
C671 O669 1.258 . S
C672 O674 1.247 . S
C672 O676 1.258 . S
C673 O680 1.247 . S
C673 O681 1.258 . S
O674 C672 1.247 . S
O674 Zn675 2.028 . S
Zn675 O674 2.028 . S
Zn675 O679 2.035 . S
Zn675 O681 2.035 . S
Zn675 O682 2.028 . S
O676 C672 1.258 . S
O676 Zn677 2.035 . S
Zn677 O676 2.035 . S
Zn677 O678 2.028 . S
Zn677 O680 2.028 . S
Zn677 O683 2.035 . S
O678 Zn677 2.028 . S
O678 C684 1.247 . S
O679 Zn675 2.035 . S
O679 C684 1.258 . S
O680 C673 1.247 . S
O680 Zn677 2.028 . S
O681 C673 1.258 . S
O681 Zn675 2.035 . S
O682 Zn675 2.028 . S
O682 C685 1.247 . S
O683 Zn677 2.035 . S
O683 C685 1.258 . S
C684 O678 1.247 . S
C684 O679 1.258 . S
C685 O682 1.247 . S
C685 O683 1.258 . S
C686 O688 1.247 . S
C686 O690 1.258 . S
C687 O694 1.247 . S
C687 O695 1.258 . S
O688 C686 1.247 . S
O688 Zn689 2.028 . S
Zn689 O688 2.028 . S
Zn689 O693 2.035 . S
Zn689 O695 2.035 . S
Zn689 O696 2.028 . S
O690 C686 1.258 . S
O690 Zn691 2.035 . S
Zn691 O690 2.035 . S
Zn691 O692 2.028 . S
Zn691 O694 2.028 . S
Zn691 O697 2.035 . S
O692 Zn691 2.028 . S
O692 C698 1.247 . S
O693 Zn689 2.035 . S
O693 C698 1.258 . S
O694 C687 1.247 . S
O694 Zn691 2.028 . S
O695 C687 1.258 . S
O695 Zn689 2.035 . S
O696 Zn689 2.028 . S
O696 C699 1.247 . S
O697 Zn691 2.035 . S
O697 C699 1.258 . S
C698 O692 1.247 . S
C698 O693 1.258 . S
C699 O696 1.247 . S
C699 O697 1.258 . S
C700 O702 1.247 . S
C700 O704 1.258 . S
C701 O708 1.247 . S
C701 O709 1.258 . S
O702 C700 1.247 . S
O702 Zn703 2.028 . S
Zn703 O702 2.028 . S
Zn703 O707 2.035 . S
Zn703 O709 2.035 . S
Zn703 O710 2.028 . S
O704 C700 1.258 . S
O704 Zn705 2.035 . S
Zn705 O704 2.035 . S
Zn705 O706 2.028 . S
Zn705 O708 2.028 . S
Zn705 O711 2.035 . S
O706 Zn705 2.028 . S
O706 C712 1.247 . S
O707 Zn703 2.035 . S
O707 C712 1.258 . S
O708 C701 1.247 . S
O708 Zn705 2.028 . S
O709 C701 1.258 . S
O709 Zn703 2.035 . S
O710 Zn703 2.028 . S
O710 C713 1.247 . S
O711 Zn705 2.035 . S
O711 C713 1.258 . S
C712 O706 1.247 . S
C712 O707 1.258 . S
C713 O710 1.247 . S
C713 O711 1.258 . S
C714 O716 1.247 . S
C714 O718 1.258 . S
C715 O722 1.247 . S
C715 O723 1.258 . S
O716 C714 1.247 . S
O716 Zn717 2.028 . S
Zn717 O716 2.028 . S
Zn717 O721 2.035 . S
Zn717 O723 2.035 . S
Zn717 O724 2.028 . S
O718 C714 1.258 . S
O718 Zn719 2.035 . S
Zn719 O718 2.035 . S
Zn719 O720 2.028 . S
Zn719 O722 2.028 . S
Zn719 O725 2.035 . S
O720 Zn719 2.028 . S
O720 C726 1.247 . S
O721 Zn717 2.035 . S
O721 C726 1.258 . S
O722 C715 1.247 . S
O722 Zn719 2.028 . S
O723 C715 1.258 . S
O723 Zn717 2.035 . S
O724 Zn717 2.028 . S
O724 C727 1.247 . S
O725 Zn719 2.035 . S
O725 C727 1.258 . S
C726 O720 1.247 . S
C726 O721 1.258 . S
C727 O724 1.247 . S
C727 O725 1.258 . S
C728 O730 1.247 . S
C728 O732 1.258 . S
C729 O736 1.247 . S
C729 O737 1.258 . S
O730 C728 1.247 . S
O730 Zn731 2.028 . S
Zn731 O730 2.028 . S
Zn731 O735 2.035 . S
Zn731 O737 2.035 . S
Zn731 O738 2.028 . S
O732 C728 1.258 . S
O732 Zn733 2.035 . S
Zn733 O732 2.035 . S
Zn733 O734 2.028 . S
Zn733 O736 2.028 . S
Zn733 O739 2.035 . S
O734 Zn733 2.028 . S
O734 C740 1.247 . S
O735 Zn731 2.035 . S
O735 C740 1.258 . S
O736 C729 1.247 . S
O736 Zn733 2.028 . S
O737 C729 1.258 . S
O737 Zn731 2.035 . S
O738 Zn731 2.028 . S
O738 C741 1.247 . S
O739 Zn733 2.035 . S
O739 C741 1.258 . S
C740 O734 1.247 . S
C740 O735 1.258 . S
C741 O738 1.247 . S
C741 O739 1.258 . S
C742 O744 1.247 . S
C742 O746 1.258 . S
C743 O750 1.247 . S
C743 O751 1.258 . S
O744 C742 1.247 . S
O744 Zn745 2.028 . S
Zn745 O744 2.028 . S
Zn745 O749 2.035 . S
Zn745 O751 2.035 . S
Zn745 O752 2.028 . S
O746 C742 1.258 . S
O746 Zn747 2.035 . S
Zn747 O746 2.035 . S
Zn747 O748 2.028 . S
Zn747 O750 2.028 . S
Zn747 O753 2.035 . S
O748 Zn747 2.028 . S
O748 C754 1.247 . S
O749 Zn745 2.035 . S
O749 C754 1.258 . S
O750 C743 1.247 . S
O750 Zn747 2.028 . S
O751 C743 1.258 . S
O751 Zn745 2.035 . S
O752 Zn745 2.028 . S
O752 C755 1.247 . S
O753 Zn747 2.035 . S
O753 C755 1.258 . S
C754 O748 1.247 . S
C754 O749 1.258 . S
C755 O752 1.247 . S
C755 O753 1.258 . S
C756 O758 1.247 . S
C756 O760 1.258 . S
C757 O764 1.247 . S
C757 O765 1.258 . S
O758 C756 1.247 . S
O758 Zn759 2.028 . S
Zn759 O758 2.028 . S
Zn759 O763 2.035 . S
Zn759 O765 2.035 . S
Zn759 O766 2.028 . S
O760 C756 1.258 . S
O760 Zn761 2.035 . S
Zn761 O760 2.035 . S
Zn761 O762 2.028 . S
Zn761 O764 2.028 . S
Zn761 O767 2.035 . S
O762 Zn761 2.028 . S
O762 C768 1.247 . S
O763 Zn759 2.035 . S
O763 C768 1.258 . S
O764 C757 1.247 . S
O764 Zn761 2.028 . S
O765 C757 1.258 . S
O765 Zn759 2.035 . S
O766 Zn759 2.028 . S
O766 C769 1.247 . S
O767 Zn761 2.035 . S
O767 C769 1.258 . S
C768 O762 1.247 . S
C768 O763 1.258 . S
C769 O766 1.247 . S
C769 O767 1.258 . S
C770 O772 1.247 . S
C770 O774 1.258 . S
C771 O778 1.247 . S
C771 O779 1.258 . S
O772 C770 1.247 . S
O772 Zn773 2.028 . S
Zn773 O772 2.028 . S
Zn773 O777 2.035 . S
Zn773 O779 2.035 . S
Zn773 O780 2.028 . S
O774 C770 1.258 . S
O774 Zn775 2.035 . S
Zn775 O774 2.035 . S
Zn775 O776 2.028 . S
Zn775 O778 2.028 . S
Zn775 O781 2.035 . S
O776 Zn775 2.028 . S
O776 C782 1.247 . S
O777 Zn773 2.035 . S
O777 C782 1.258 . S
O778 C771 1.247 . S
O778 Zn775 2.028 . S
O779 C771 1.258 . S
O779 Zn773 2.035 . S
O780 Zn773 2.028 . S
O780 C783 1.247 . S
O781 Zn775 2.035 . S
O781 C783 1.258 . S
C782 O776 1.247 . S
C782 O777 1.258 . S
C783 O780 1.247 . S
C783 O781 1.258 . S
C784 O786 1.247 . S
C784 O788 1.258 . S
C785 O792 1.247 . S
C785 O793 1.258 . S
O786 C784 1.247 . S
O786 Zn787 2.028 . S
Zn787 O786 2.028 . S
Zn787 O791 2.035 . S
Zn787 O793 2.035 . S
Zn787 O794 2.028 . S
O788 C784 1.258 . S
O788 Zn789 2.035 . S
Zn789 O788 2.035 . S
Zn789 O790 2.028 . S
Zn789 O792 2.028 . S
Zn789 O795 2.035 . S
O790 Zn789 2.028 . S
O790 C796 1.247 . S
O791 Zn787 2.035 . S
O791 C796 1.258 . S
O792 C785 1.247 . S
O792 Zn789 2.028 . S
O793 C785 1.258 . S
O793 Zn787 2.035 . S
O794 Zn787 2.028 . S
O794 C797 1.247 . S
O795 Zn789 2.035 . S
O795 C797 1.258 . S
C796 O790 1.247 . S
C796 O791 1.258 . S
C797 O794 1.247 . S
C797 O795 1.258 . S
C798 O800 1.247 . S
C798 O802 1.258 . S
C799 O806 1.247 . S
C799 O807 1.258 . S
O800 C798 1.247 . S
O800 Zn801 2.028 . S
Zn801 O800 2.028 . S
Zn801 O805 2.035 . S
Zn801 O807 2.035 . S
Zn801 O808 2.028 . S
O802 C798 1.258 . S
O802 Zn803 2.035 . S
Zn803 O802 2.035 . S
Zn803 O804 2.028 . S
Zn803 O806 2.028 . S
Zn803 O809 2.035 . S
O804 Zn803 2.028 . S
O804 C810 1.247 . S
O805 Zn801 2.035 . S
O805 C810 1.258 . S
O806 C799 1.247 . S
O806 Zn803 2.028 . S
O807 C799 1.258 . S
O807 Zn801 2.035 . S
O808 Zn801 2.028 . S
O808 C811 1.247 . S
O809 Zn803 2.035 . S
O809 C811 1.258 . S
C810 O804 1.247 . S
C810 O805 1.258 . S
C811 O808 1.247 . S
C811 O809 1.258 . S
C812 O814 1.247 . S
C812 O816 1.258 . S
C813 O820 1.247 . S
C813 O821 1.258 . S
O814 C812 1.247 . S
O814 Zn815 2.028 . S
Zn815 O814 2.028 . S
Zn815 O819 2.035 . S
Zn815 O821 2.035 . S
Zn815 O822 2.028 . S
O816 C812 1.258 . S
O816 Zn817 2.035 . S
Zn817 O816 2.035 . S
Zn817 O818 2.028 . S
Zn817 O820 2.028 . S
Zn817 O823 2.035 . S
O818 Zn817 2.028 . S
O818 C824 1.247 . S
O819 Zn815 2.035 . S
O819 C824 1.258 . S
O820 C813 1.247 . S
O820 Zn817 2.028 . S
O821 C813 1.258 . S
O821 Zn815 2.035 . S
O822 Zn815 2.028 . S
O822 C825 1.247 . S
O823 Zn817 2.035 . S
O823 C825 1.258 . S
C824 O818 1.247 . S
C824 O819 1.258 . S
C825 O822 1.247 . S
C825 O823 1.258 . S
C826 O828 1.247 . S
C826 O830 1.258 . S
C827 O834 1.247 . S
C827 O835 1.258 . S
O828 C826 1.247 . S
O828 Zn829 2.028 . S
Zn829 O828 2.028 . S
Zn829 O833 2.035 . S
Zn829 O835 2.035 . S
Zn829 O836 2.028 . S
O830 C826 1.258 . S
O830 Zn831 2.035 . S
Zn831 O830 2.035 . S
Zn831 O832 2.028 . S
Zn831 O834 2.028 . S
Zn831 O837 2.035 . S
O832 Zn831 2.028 . S
O832 C838 1.247 . S
O833 Zn829 2.035 . S
O833 C838 1.258 . S
O834 C827 1.247 . S
O834 Zn831 2.028 . S
O835 C827 1.258 . S
O835 Zn829 2.035 . S
O836 Zn829 2.028 . S
O836 C839 1.247 . S
O837 Zn831 2.035 . S
O837 C839 1.258 . S
C838 O832 1.247 . S
C838 O833 1.258 . S
C839 O836 1.247 . S
C839 O837 1.258 . S
C840 O842 1.247 . S
C840 O844 1.258 . S
C841 O848 1.247 . S
C841 O849 1.258 . S
O842 C840 1.247 . S
O842 Zn843 2.028 . S
Zn843 O842 2.028 . S
Zn843 O847 2.035 . S
Zn843 O849 2.035 . S
Zn843 O850 2.028 . S
O844 C840 1.258 . S
O844 Zn845 2.035 . S
Zn845 O844 2.035 . S
Zn845 O846 2.028 . S
Zn845 O848 2.028 . S
Zn845 O851 2.035 . S
O846 Zn845 2.028 . S
O846 C852 1.247 . S
O847 Zn843 2.035 . S
O847 C852 1.258 . S
O848 C841 1.247 . S
O848 Zn845 2.028 . S
O849 C841 1.258 . S
O849 Zn843 2.035 . S
O850 Zn843 2.028 . S
O850 C853 1.247 . S
O851 Zn845 2.035 . S
O851 C853 1.258 . S
C852 O846 1.247 . S
C852 O847 1.258 . S
C853 O850 1.247 . S
C853 O851 1.258 . S
C854 O856 1.247 . S
C854 O858 1.258 . S
C855 O862 1.247 . S
C855 O863 1.258 . S
O856 C854 1.247 . S
O856 Zn857 2.028 . S
Zn857 O856 2.028 . S
Zn857 O861 2.035 . S
Zn857 O863 2.035 . S
Zn857 O864 2.028 . S
O858 C854 1.258 . S
O858 Zn859 2.035 . S
Zn859 O858 2.035 . S
Zn859 O860 2.028 . S
Zn859 O862 2.028 . S
Zn859 O865 2.035 . S
O860 Zn859 2.028 . S
O860 C866 1.247 . S
O861 Zn857 2.035 . S
O861 C866 1.258 . S
O862 C855 1.247 . S
O862 Zn859 2.028 . S
O863 C855 1.258 . S
O863 Zn857 2.035 . S
O864 Zn857 2.028 . S
O864 C867 1.247 . S
O865 Zn859 2.035 . S
O865 C867 1.258 . S
C866 O860 1.247 . S
C866 O861 1.258 . S
C867 O864 1.247 . S
C867 O865 1.258 . S
C868 O870 1.247 . S
C868 O872 1.258 . S
C869 O876 1.247 . S
C869 O877 1.258 . S
O870 C868 1.247 . S
O870 Zn871 2.028 . S
Zn871 O870 2.028 . S
Zn871 O875 2.035 . S
Zn871 O877 2.035 . S
Zn871 O878 2.028 . S
O872 C868 1.258 . S
O872 Zn873 2.035 . S
Zn873 O872 2.035 . S
Zn873 O874 2.028 . S
Zn873 O876 2.028 . S
Zn873 O879 2.035 . S
O874 Zn873 2.028 . S
O874 C880 1.247 . S
O875 Zn871 2.035 . S
O875 C880 1.258 . S
O876 C869 1.247 . S
O876 Zn873 2.028 . S
O877 C869 1.258 . S
O877 Zn871 2.035 . S
O878 Zn871 2.028 . S
O878 C881 1.247 . S
O879 Zn873 2.035 . S
O879 C881 1.258 . S
C880 O874 1.247 . S
C880 O875 1.258 . S
C881 O878 1.247 . S
C881 O879 1.258 . S
C882 O884 1.247 . S
C882 O886 1.258 . S
C883 O890 1.247 . S
C883 O891 1.258 . S
O884 C882 1.247 . S
O884 Zn885 2.028 . S
Zn885 O884 2.028 . S
Zn885 O889 2.035 . S
Zn885 O891 2.035 . S
Zn885 O892 2.028 . S
O886 C882 1.258 . S
O886 Zn887 2.035 . S
Zn887 O886 2.035 . S
Zn887 O888 2.028 . S
Zn887 O890 2.028 . S
Zn887 O893 2.035 . S
O888 Zn887 2.028 . S
O888 C894 1.247 . S
O889 Zn885 2.035 . S
O889 C894 1.258 . S
O890 C883 1.247 . S
O890 Zn887 2.028 . S
O891 C883 1.258 . S
O891 Zn885 2.035 . S
O892 Zn885 2.028 . S
O892 C895 1.247 . S
O893 Zn887 2.035 . S
O893 C895 1.258 . S
C894 O888 1.247 . S
C894 O889 1.258 . S
C895 O892 1.247 . S
C895 O893 1.258 . S
C896 O898 1.247 . S
C896 O900 1.258 . S
C897 O904 1.247 . S
C897 O905 1.258 . S
O898 C896 1.247 . S
O898 Zn899 2.028 . S
Zn899 O898 2.028 . S
Zn899 O903 2.035 . S
Zn899 O905 2.035 . S
Zn899 O906 2.028 . S
O900 C896 1.258 . S
O900 Zn901 2.035 . S
Zn901 O900 2.035 . S
Zn901 O902 2.028 . S
Zn901 O904 2.028 . S
Zn901 O907 2.035 . S
O902 Zn901 2.028 . S
O902 C908 1.247 . S
O903 Zn899 2.035 . S
O903 C908 1.258 . S
O904 C897 1.247 . S
O904 Zn901 2.028 . S
O905 C897 1.258 . S
O905 Zn899 2.035 . S
O906 Zn899 2.028 . S
O906 C909 1.247 . S
O907 Zn901 2.035 . S
O907 C909 1.258 . S
C908 O902 1.247 . S
C908 O903 1.258 . S
C909 O906 1.247 . S
C909 O907 1.258 . S
C910 O912 1.247 . S
C910 O914 1.258 . S
C911 O918 1.247 . S
C911 O919 1.258 . S
O912 C910 1.247 . S
O912 Zn913 2.028 . S
Zn913 O912 2.028 . S
Zn913 O917 2.035 . S
Zn913 O919 2.035 . S
Zn913 O920 2.028 . S
O914 C910 1.258 . S
O914 Zn915 2.035 . S
Zn915 O914 2.035 . S
Zn915 O916 2.028 . S
Zn915 O918 2.028 . S
Zn915 O921 2.035 . S
O916 Zn915 2.028 . S
O916 C922 1.247 . S
O917 Zn913 2.035 . S
O917 C922 1.258 . S
O918 C911 1.247 . S
O918 Zn915 2.028 . S
O919 C911 1.258 . S
O919 Zn913 2.035 . S
O920 Zn913 2.028 . S
O920 C923 1.247 . S
O921 Zn915 2.035 . S
O921 C923 1.258 . S
C922 O916 1.247 . S
C922 O917 1.258 . S
C923 O920 1.247 . S
C923 O921 1.258 . S
C924 O926 1.247 . S
C924 O928 1.258 . S
C925 O932 1.247 . S
C925 O933 1.258 . S
O926 C924 1.247 . S
O926 Zn927 2.028 . S
Zn927 O926 2.028 . S
Zn927 O931 2.035 . S
Zn927 O933 2.035 . S
Zn927 O934 2.028 . S
O928 C924 1.258 . S
O928 Zn929 2.035 . S
Zn929 O928 2.035 . S
Zn929 O930 2.028 . S
Zn929 O932 2.028 . S
Zn929 O935 2.035 . S
O930 Zn929 2.028 . S
O930 C936 1.247 . S
O931 Zn927 2.035 . S
O931 C936 1.258 . S
O932 C925 1.247 . S
O932 Zn929 2.028 . S
O933 C925 1.258 . S
O933 Zn927 2.035 . S
O934 Zn927 2.028 . S
O934 C937 1.247 . S
O935 Zn929 2.035 . S
O935 C937 1.258 . S
C936 O930 1.247 . S
C936 O931 1.258 . S
C937 O934 1.247 . S
C937 O935 1.258 . S
C938 O940 1.247 . S
C938 O942 1.258 . S
C939 O946 1.247 . S
C939 O947 1.258 . S
O940 C938 1.247 . S
O940 Zn941 2.028 . S
Zn941 O940 2.028 . S
Zn941 O945 2.035 . S
Zn941 O947 2.035 . S
Zn941 O948 2.028 . S
O942 C938 1.258 . S
O942 Zn943 2.035 . S
Zn943 O942 2.035 . S
Zn943 O944 2.028 . S
Zn943 O946 2.028 . S
Zn943 O949 2.035 . S
O944 Zn943 2.028 . S
O944 C950 1.247 . S
O945 Zn941 2.035 . S
O945 C950 1.258 . S
O946 C939 1.247 . S
O946 Zn943 2.028 . S
O947 C939 1.258 . S
O947 Zn941 2.035 . S
O948 Zn941 2.028 . S
O948 C951 1.247 . S
O949 Zn943 2.035 . S
O949 C951 1.258 . S
C950 O944 1.247 . S
C950 O945 1.258 . S
C951 O948 1.247 . S
C951 O949 1.258 . S
C952 O954 1.247 . S
C952 O956 1.258 . S
C953 O960 1.247 . S
C953 O961 1.258 . S
O954 C952 1.247 . S
O954 Zn955 2.028 . S
Zn955 O954 2.028 . S
Zn955 O959 2.035 . S
Zn955 O961 2.035 . S
Zn955 O962 2.028 . S
O956 C952 1.258 . S
O956 Zn957 2.035 . S
Zn957 O956 2.035 . S
Zn957 O958 2.028 . S
Zn957 O960 2.028 . S
Zn957 O963 2.035 . S
O958 Zn957 2.028 . S
O958 C964 1.247 . S
O959 Zn955 2.035 . S
O959 C964 1.258 . S
O960 C953 1.247 . S
O960 Zn957 2.028 . S
O961 C953 1.258 . S
O961 Zn955 2.035 . S
O962 Zn955 2.028 . S
O962 C965 1.247 . S
O963 Zn957 2.035 . S
O963 C965 1.258 . S
C964 O958 1.247 . S
C964 O959 1.258 . S
C965 O962 1.247 . S
C965 O963 1.258 . S
C966 O968 1.247 . S
C966 O970 1.258 . S
C967 O974 1.247 . S
C967 O975 1.258 . S
O968 C966 1.247 . S
O968 Zn969 2.028 . S
Zn969 O968 2.028 . S
Zn969 O973 2.035 . S
Zn969 O975 2.035 . S
Zn969 O976 2.028 . S
O970 C966 1.258 . S
O970 Zn971 2.035 . S
Zn971 O970 2.035 . S
Zn971 O972 2.028 . S
Zn971 O974 2.028 . S
Zn971 O977 2.035 . S
O972 Zn971 2.028 . S
O972 C978 1.247 . S
O973 Zn969 2.035 . S
O973 C978 1.258 . S
O974 C967 1.247 . S
O974 Zn971 2.028 . S
O975 C967 1.258 . S
O975 Zn969 2.035 . S
O976 Zn969 2.028 . S
O976 C979 1.247 . S
O977 Zn971 2.035 . S
O977 C979 1.258 . S
C978 O972 1.247 . S
C978 O973 1.258 . S
C979 O976 1.247 . S
C979 O977 1.258 . S
C980 O982 1.247 . S
C980 O984 1.258 . S
C981 O988 1.247 . S
C981 O989 1.258 . S
O982 C980 1.247 . S
O982 Zn983 2.028 . S
Zn983 O982 2.028 . S
Zn983 O987 2.035 . S
Zn983 O989 2.035 . S
Zn983 O990 2.028 . S
O984 C980 1.258 . S
O984 Zn985 2.035 . S
Zn985 O984 2.035 . S
Zn985 O986 2.028 . S
Zn985 O988 2.028 . S
Zn985 O991 2.035 . S
O986 Zn985 2.028 . S
O986 C992 1.247 . S
O987 Zn983 2.035 . S
O987 C992 1.258 . S
O988 C981 1.247 . S
O988 Zn985 2.028 . S
O989 C981 1.258 . S
O989 Zn983 2.035 . S
O990 Zn983 2.028 . S
O990 C993 1.247 . S
O991 Zn985 2.035 . S
O991 C993 1.258 . S
C992 O986 1.247 . S
C992 O987 1.258 . S
C993 O990 1.247 . S
C993 O991 1.258 . S
C994 O996 1.247 . S
C994 O998 1.258 . S
C995 O1002 1.247 . S
C995 O1003 1.258 . S
O996 C994 1.247 . S
O996 Zn997 2.028 . S
Zn997 O996 2.028 . S
Zn997 O1001 2.035 . S
Zn997 O1003 2.035 . S
Zn997 O1004 2.028 . S
O998 C994 1.258 . S
O998 Zn999 2.035 . S
Zn999 O998 2.035 . S
Zn999 O1000 2.028 . S
Zn999 O1002 2.028 . S
Zn999 O1005 2.035 . S
O1000 Zn999 2.028 . S
O1000 C1006 1.247 . S
O1001 Zn997 2.035 . S
O1001 C1006 1.258 . S
O1002 C995 1.247 . S
O1002 Zn999 2.028 . S
O1003 C995 1.258 . S
O1003 Zn997 2.035 . S
O1004 Zn997 2.028 . S
O1004 C1007 1.247 . S
O1005 Zn999 2.035 . S
O1005 C1007 1.258 . S
C1006 O1000 1.247 . S
C1006 O1001 1.258 . S
C1007 O1004 1.247 . S
C1007 O1005 1.258 . S
C1008 O1010 1.247 . S
C1008 O1012 1.258 . S
C1009 O1016 1.247 . S
C1009 O1017 1.258 . S
O1010 C1008 1.247 . S
O1010 Zn1011 2.028 . S
Zn1011 O1010 2.028 . S
Zn1011 O1015 2.035 . S
Zn1011 O1017 2.035 . S
Zn1011 O1018 2.028 . S
O1012 C1008 1.258 . S
O1012 Zn1013 2.035 . S
Zn1013 O1012 2.035 . S
Zn1013 O1014 2.028 . S
Zn1013 O1016 2.028 . S
Zn1013 O1019 2.035 . S
O1014 Zn1013 2.028 . S
O1014 C1020 1.247 . S
O1015 Zn1011 2.035 . S
O1015 C1020 1.258 . S
O1016 C1009 1.247 . S
O1016 Zn1013 2.028 . S
O1017 C1009 1.258 . S
O1017 Zn1011 2.035 . S
O1018 Zn1011 2.028 . S
O1018 C1021 1.247 . S
O1019 Zn1013 2.035 . S
O1019 C1021 1.258 . S
C1020 O1014 1.247 . S
C1020 O1015 1.258 . S
C1021 O1018 1.247 . S
C1021 O1019 1.258 . S
C1022 O1024 1.247 . S
C1022 O1026 1.258 . S
C1023 O1030 1.247 . S
C1023 O1031 1.258 . S
O1024 C1022 1.247 . S
O1024 Zn1025 2.028 . S
Zn1025 O1024 2.028 . S
Zn1025 O1029 2.035 . S
Zn1025 O1031 2.035 . S
Zn1025 O1032 2.028 . S
O1026 C1022 1.258 . S
O1026 Zn1027 2.035 . S
Zn1027 O1026 2.035 . S
Zn1027 O1028 2.028 . S
Zn1027 O1030 2.028 . S
Zn1027 O1033 2.035 . S
O1028 Zn1027 2.028 . S
O1028 C1034 1.247 . S
O1029 Zn1025 2.035 . S
O1029 C1034 1.258 . S
O1030 C1023 1.247 . S
O1030 Zn1027 2.028 . S
O1031 C1023 1.258 . S
O1031 Zn1025 2.035 . S
O1032 Zn1025 2.028 . S
O1032 C1035 1.247 . S
O1033 Zn1027 2.035 . S
O1033 C1035 1.258 . S
C1034 O1028 1.247 . S
C1034 O1029 1.258 . S
C1035 O1032 1.247 . S
C1035 O1033 1.258 . S
C1036 O1038 1.247 . S
C1036 O1040 1.258 . S
C1037 O1044 1.247 . S
C1037 O1045 1.258 . S
O1038 C1036 1.247 . S
O1038 Zn1039 2.028 . S
Zn1039 O1038 2.028 . S
Zn1039 O1043 2.035 . S
Zn1039 O1045 2.035 . S
Zn1039 O1046 2.028 . S
O1040 C1036 1.258 . S
O1040 Zn1041 2.035 . S
Zn1041 O1040 2.035 . S
Zn1041 O1042 2.028 . S
Zn1041 O1044 2.028 . S
Zn1041 O1047 2.035 . S
O1042 Zn1041 2.028 . S
O1042 C1048 1.247 . S
O1043 Zn1039 2.035 . S
O1043 C1048 1.258 . S
O1044 C1037 1.247 . S
O1044 Zn1041 2.028 . S
O1045 C1037 1.258 . S
O1045 Zn1039 2.035 . S
O1046 Zn1039 2.028 . S
O1046 C1049 1.247 . S
O1047 Zn1041 2.035 . S
O1047 C1049 1.258 . S
C1048 O1042 1.247 . S
C1048 O1043 1.258 . S
C1049 O1046 1.247 . S
C1049 O1047 1.258 . S
C1050 O1052 1.247 . S
C1050 O1054 1.258 . S
C1051 O1058 1.247 . S
C1051 O1059 1.258 . S
O1052 C1050 1.247 . S
O1052 Zn1053 2.028 . S
Zn1053 O1052 2.028 . S
Zn1053 O1057 2.035 . S
Zn1053 O1059 2.035 . S
Zn1053 O1060 2.028 . S
O1054 C1050 1.258 . S
O1054 Zn1055 2.035 . S
Zn1055 O1054 2.035 . S
Zn1055 O1056 2.028 . S
Zn1055 O1058 2.028 . S
Zn1055 O1061 2.035 . S
O1056 Zn1055 2.028 . S
O1056 C1062 1.247 . S
O1057 Zn1053 2.035 . S
O1057 C1062 1.258 . S
O1058 C1051 1.247 . S
O1058 Zn1055 2.028 . S
O1059 C1051 1.258 . S
O1059 Zn1053 2.035 . S
O1060 Zn1053 2.028 . S
O1060 C1063 1.247 . S
O1061 Zn1055 2.035 . S
O1061 C1063 1.258 . S
C1062 O1056 1.247 . S
C1062 O1057 1.258 . S
C1063 O1060 1.247 . S
C1063 O1061 1.258 . S
C1064 O1066 1.247 . S
C1064 O1068 1.258 . S
C1065 O1072 1.247 . S
C1065 O1073 1.258 . S
O1066 C1064 1.247 . S
O1066 Zn1067 2.028 . S
Zn1067 O1066 2.028 . S
Zn1067 O1071 2.035 . S
Zn1067 O1073 2.035 . S
Zn1067 O1074 2.028 . S
O1068 C1064 1.258 . S
O1068 Zn1069 2.035 . S
Zn1069 O1068 2.035 . S
Zn1069 O1070 2.028 . S
Zn1069 O1072 2.028 . S
Zn1069 O1075 2.035 . S
O1070 Zn1069 2.028 . S
O1070 C1076 1.247 . S
O1071 Zn1067 2.035 . S
O1071 C1076 1.258 . S
O1072 C1065 1.247 . S
O1072 Zn1069 2.028 . S
O1073 C1065 1.258 . S
O1073 Zn1067 2.035 . S
O1074 Zn1067 2.028 . S
O1074 C1077 1.247 . S
O1075 Zn1069 2.035 . S
O1075 C1077 1.258 . S
C1076 O1070 1.247 . S
C1076 O1071 1.258 . S
C1077 O1074 1.247 . S
C1077 O1075 1.258 . S
C1078 O1080 1.247 . S
C1078 O1082 1.258 . S
C1079 O1086 1.247 . S
C1079 O1087 1.258 . S
O1080 C1078 1.247 . S
O1080 Zn1081 2.028 . S
Zn1081 O1080 2.028 . S
Zn1081 O1085 2.035 . S
Zn1081 O1087 2.035 . S
Zn1081 O1088 2.028 . S
O1082 C1078 1.258 . S
O1082 Zn1083 2.035 . S
Zn1083 O1082 2.035 . S
Zn1083 O1084 2.028 . S
Zn1083 O1086 2.028 . S
Zn1083 O1089 2.035 . S
O1084 Zn1083 2.028 . S
O1084 C1090 1.247 . S
O1085 Zn1081 2.035 . S
O1085 C1090 1.258 . S
O1086 C1079 1.247 . S
O1086 Zn1083 2.028 . S
O1087 C1079 1.258 . S
O1087 Zn1081 2.035 . S
O1088 Zn1081 2.028 . S
O1088 C1091 1.247 . S
O1089 Zn1083 2.035 . S
O1089 C1091 1.258 . S
C1090 O1084 1.247 . S
C1090 O1085 1.258 . S
C1091 O1088 1.247 . S
C1091 O1089 1.258 . S
C1092 O1094 1.247 . S
C1092 O1096 1.258 . S
C1093 O1100 1.247 . S
C1093 O1101 1.258 . S
O1094 C1092 1.247 . S
O1094 Zn1095 2.028 . S
Zn1095 O1094 2.028 . S
Zn1095 O1099 2.035 . S
Zn1095 O1101 2.035 . S
Zn1095 O1102 2.028 . S
O1096 C1092 1.258 . S
O1096 Zn1097 2.035 . S
Zn1097 O1096 2.035 . S
Zn1097 O1098 2.028 . S
Zn1097 O1100 2.028 . S
Zn1097 O1103 2.035 . S
O1098 Zn1097 2.028 . S
O1098 C1104 1.247 . S
O1099 Zn1095 2.035 . S
O1099 C1104 1.258 . S
O1100 C1093 1.247 . S
O1100 Zn1097 2.028 . S
O1101 C1093 1.258 . S
O1101 Zn1095 2.035 . S
O1102 Zn1095 2.028 . S
O1102 C1105 1.247 . S
O1103 Zn1097 2.035 . S
O1103 C1105 1.258 . S
C1104 O1098 1.247 . S
C1104 O1099 1.258 . S
C1105 O1102 1.247 . S
C1105 O1103 1.258 . S
C1106 O1108 1.247 . S
C1106 O1110 1.258 . S
C1107 O1114 1.247 . S
C1107 O1115 1.258 . S
O1108 C1106 1.247 . S
O1108 Zn1109 2.028 . S
Zn1109 O1108 2.028 . S
Zn1109 O1113 2.035 . S
Zn1109 O1115 2.035 . S
Zn1109 O1116 2.028 . S
O1110 C1106 1.258 . S
O1110 Zn1111 2.035 . S
Zn1111 O1110 2.035 . S
Zn1111 O1112 2.028 . S
Zn1111 O1114 2.028 . S
Zn1111 O1117 2.035 . S
O1112 Zn1111 2.028 . S
O1112 C1118 1.247 . S
O1113 Zn1109 2.035 . S
O1113 C1118 1.258 . S
O1114 C1107 1.247 . S
O1114 Zn1111 2.028 . S
O1115 C1107 1.258 . S
O1115 Zn1109 2.035 . S
O1116 Zn1109 2.028 . S
O1116 C1119 1.247 . S
O1117 Zn1111 2.035 . S
O1117 C1119 1.258 . S
C1118 O1112 1.247 . S
C1118 O1113 1.258 . S
C1119 O1116 1.247 . S
C1119 O1117 1.258 . S
C1120 O1122 1.247 . S
C1120 O1124 1.258 . S
C1121 O1128 1.247 . S
C1121 O1129 1.258 . S
O1122 C1120 1.247 . S
O1122 Zn1123 2.028 . S
Zn1123 O1122 2.028 . S
Zn1123 O1127 2.035 . S
Zn1123 O1129 2.035 . S
Zn1123 O1130 2.028 . S
O1124 C1120 1.258 . S
O1124 Zn1125 2.035 . S
Zn1125 O1124 2.035 . S
Zn1125 O1126 2.028 . S
Zn1125 O1128 2.028 . S
Zn1125 O1131 2.035 . S
O1126 Zn1125 2.028 . S
O1126 C1132 1.247 . S
O1127 Zn1123 2.035 . S
O1127 C1132 1.258 . S
O1128 C1121 1.247 . S
O1128 Zn1125 2.028 . S
O1129 C1121 1.258 . S
O1129 Zn1123 2.035 . S
O1130 Zn1123 2.028 . S
O1130 C1133 1.247 . S
O1131 Zn1125 2.035 . S
O1131 C1133 1.258 . S
C1132 O1126 1.247 . S
C1132 O1127 1.258 . S
C1133 O1130 1.247 . S
C1133 O1131 1.258 . S
C1134 O1136 1.247 . S
C1134 O1138 1.258 . S
C1135 O1142 1.247 . S
C1135 O1143 1.258 . S
O1136 C1134 1.247 . S
O1136 Zn1137 2.028 . S
Zn1137 O1136 2.028 . S
Zn1137 O1141 2.035 . S
Zn1137 O1143 2.035 . S
Zn1137 O1144 2.028 . S
O1138 C1134 1.258 . S
O1138 Zn1139 2.035 . S
Zn1139 O1138 2.035 . S
Zn1139 O1140 2.028 . S
Zn1139 O1142 2.028 . S
Zn1139 O1145 2.035 . S
O1140 Zn1139 2.028 . S
O1140 C1146 1.247 . S
O1141 Zn1137 2.035 . S
O1141 C1146 1.258 . S
O1142 C1135 1.247 . S
O1142 Zn1139 2.028 . S
O1143 C1135 1.258 . S
O1143 Zn1137 2.035 . S
O1144 Zn1137 2.028 . S
O1144 C1147 1.247 . S
O1145 Zn1139 2.035 . S
O1145 C1147 1.258 . S
C1146 O1140 1.247 . S
C1146 O1141 1.258 . S
C1147 O1144 1.247 . S
C1147 O1145 1.258 . S
C1148 O1150 1.247 . S
C1148 O1152 1.258 . S
C1149 O1156 1.247 . S
C1149 O1157 1.258 . S
O1150 C1148 1.247 . S
O1150 Zn1151 2.028 . S
Zn1151 O1150 2.028 . S
Zn1151 O1155 2.035 . S
Zn1151 O1157 2.035 . S
Zn1151 O1158 2.028 . S
O1152 C1148 1.258 . S
O1152 Zn1153 2.035 . S
Zn1153 O1152 2.035 . S
Zn1153 O1154 2.028 . S
Zn1153 O1156 2.028 . S
Zn1153 O1159 2.035 . S
O1154 Zn1153 2.028 . S
O1154 C1160 1.247 . S
O1155 Zn1151 2.035 . S
O1155 C1160 1.258 . S
O1156 C1149 1.247 . S
O1156 Zn1153 2.028 . S
O1157 C1149 1.258 . S
O1157 Zn1151 2.035 . S
O1158 Zn1151 2.028 . S
O1158 C1161 1.247 . S
O1159 Zn1153 2.035 . S
O1159 C1161 1.258 . S
C1160 O1154 1.247 . S
C1160 O1155 1.258 . S
C1161 O1158 1.247 . S
C1161 O1159 1.258 . S
C1162 O1164 1.247 . S
C1162 O1166 1.258 . S
C1163 O1170 1.247 . S
C1163 O1171 1.258 . S
O1164 C1162 1.247 . S
O1164 Zn1165 2.028 . S
Zn1165 O1164 2.028 . S
Zn1165 O1169 2.035 . S
Zn1165 O1171 2.035 . S
Zn1165 O1172 2.028 . S
O1166 C1162 1.258 . S
O1166 Zn1167 2.035 . S
Zn1167 O1166 2.035 . S
Zn1167 O1168 2.028 . S
Zn1167 O1170 2.028 . S
Zn1167 O1173 2.035 . S
O1168 Zn1167 2.028 . S
O1168 C1174 1.247 . S
O1169 Zn1165 2.035 . S
O1169 C1174 1.258 . S
O1170 C1163 1.247 . S
O1170 Zn1167 2.028 . S
O1171 C1163 1.258 . S
O1171 Zn1165 2.035 . S
O1172 Zn1165 2.028 . S
O1172 C1175 1.247 . S
O1173 Zn1167 2.035 . S
O1173 C1175 1.258 . S
C1174 O1168 1.247 . S
C1174 O1169 1.258 . S
C1175 O1172 1.247 . S
C1175 O1173 1.258 . S
C1176 O1178 1.247 . S
C1176 O1180 1.258 . S
C1177 O1184 1.247 . S
C1177 O1185 1.258 . S
O1178 C1176 1.247 . S
O1178 Zn1179 2.028 . S
Zn1179 O1178 2.028 . S
Zn1179 O1183 2.035 . S
Zn1179 O1185 2.035 . S
Zn1179 O1186 2.028 . S
O1180 C1176 1.258 . S
O1180 Zn1181 2.035 . S
Zn1181 O1180 2.035 . S
Zn1181 O1182 2.028 . S
Zn1181 O1184 2.028 . S
Zn1181 O1187 2.035 . S
O1182 Zn1181 2.028 . S
O1182 C1188 1.247 . S
O1183 Zn1179 2.035 . S
O1183 C1188 1.258 . S
O1184 C1177 1.247 . S
O1184 Zn1181 2.028 . S
O1185 C1177 1.258 . S
O1185 Zn1179 2.035 . S
O1186 Zn1179 2.028 . S
O1186 C1189 1.247 . S
O1187 Zn1181 2.035 . S
O1187 C1189 1.258 . S
C1188 O1182 1.247 . S
C1188 O1183 1.258 . S
C1189 O1186 1.247 . S
C1189 O1187 1.258 . S
C1190 O1192 1.247 . S
C1190 O1194 1.258 . S
C1191 O1198 1.247 . S
C1191 O1199 1.258 . S
O1192 C1190 1.247 . S
O1192 Zn1193 2.028 . S
Zn1193 O1192 2.028 . S
Zn1193 O1197 2.035 . S
Zn1193 O1199 2.035 . S
Zn1193 O1200 2.028 . S
O1194 C1190 1.258 . S
O1194 Zn1195 2.035 . S
Zn1195 O1194 2.035 . S
Zn1195 O1196 2.028 . S
Zn1195 O1198 2.028 . S
Zn1195 O1201 2.035 . S
O1196 Zn1195 2.028 . S
O1196 C1202 1.247 . S
O1197 Zn1193 2.035 . S
O1197 C1202 1.258 . S
O1198 C1191 1.247 . S
O1198 Zn1195 2.028 . S
O1199 C1191 1.258 . S
O1199 Zn1193 2.035 . S
O1200 Zn1193 2.028 . S
O1200 C1203 1.247 . S
O1201 Zn1195 2.035 . S
O1201 C1203 1.258 . S
C1202 O1196 1.247 . S
C1202 O1197 1.258 . S
C1203 O1200 1.247 . S
C1203 O1201 1.258 . S
C1204 O1206 1.247 . S
C1204 O1208 1.258 . S
C1205 O1212 1.247 . S
C1205 O1213 1.258 . S
O1206 C1204 1.247 . S
O1206 Zn1207 2.028 . S
Zn1207 O1206 2.028 . S
Zn1207 O1211 2.035 . S
Zn1207 O1213 2.035 . S
Zn1207 O1214 2.028 . S
O1208 C1204 1.258 . S
O1208 Zn1209 2.035 . S
Zn1209 O1208 2.035 . S
Zn1209 O1210 2.028 . S
Zn1209 O1212 2.028 . S
Zn1209 O1215 2.035 . S
O1210 Zn1209 2.028 . S
O1210 C1216 1.247 . S
O1211 Zn1207 2.035 . S
O1211 C1216 1.258 . S
O1212 C1205 1.247 . S
O1212 Zn1209 2.028 . S
O1213 C1205 1.258 . S
O1213 Zn1207 2.035 . S
O1214 Zn1207 2.028 . S
O1214 C1217 1.247 . S
O1215 Zn1209 2.035 . S
O1215 C1217 1.258 . S
C1216 O1210 1.247 . S
C1216 O1211 1.258 . S
C1217 O1214 1.247 . S
C1217 O1215 1.258 . S
C1218 O1220 1.247 . S
C1218 O1222 1.258 . S
C1219 O1226 1.247 . S
C1219 O1227 1.258 . S
O1220 C1218 1.247 . S
O1220 Zn1221 2.028 . S
Zn1221 O1220 2.028 . S
Zn1221 O1225 2.035 . S
Zn1221 O1227 2.035 . S
Zn1221 O1228 2.028 . S
O1222 C1218 1.258 . S
O1222 Zn1223 2.035 . S
Zn1223 O1222 2.035 . S
Zn1223 O1224 2.028 . S
Zn1223 O1226 2.028 . S
Zn1223 O1229 2.035 . S
O1224 Zn1223 2.028 . S
O1224 C1230 1.247 . S
O1225 Zn1221 2.035 . S
O1225 C1230 1.258 . S
O1226 C1219 1.247 . S
O1226 Zn1223 2.028 . S
O1227 C1219 1.258 . S
O1227 Zn1221 2.035 . S
O1228 Zn1221 2.028 . S
O1228 C1231 1.247 . S
O1229 Zn1223 2.035 . S
O1229 C1231 1.258 . S
C1230 O1224 1.247 . S
C1230 O1225 1.258 . S
C1231 O1228 1.247 . S
C1231 O1229 1.258 . S
C1232 O1234 1.247 . S
C1232 O1236 1.258 . S
C1233 O1240 1.247 . S
C1233 O1241 1.258 . S
O1234 C1232 1.247 . S
O1234 Zn1235 2.028 . S
Zn1235 O1234 2.028 . S
Zn1235 O1239 2.035 . S
Zn1235 O1241 2.035 . S
Zn1235 O1242 2.028 . S
O1236 C1232 1.258 . S
O1236 Zn1237 2.035 . S
Zn1237 O1236 2.035 . S
Zn1237 O1238 2.028 . S
Zn1237 O1240 2.028 . S
Zn1237 O1243 2.035 . S
O1238 Zn1237 2.028 . S
O1238 C1244 1.247 . S
O1239 Zn1235 2.035 . S
O1239 C1244 1.258 . S
O1240 C1233 1.247 . S
O1240 Zn1237 2.028 . S
O1241 C1233 1.258 . S
O1241 Zn1235 2.035 . S
O1242 Zn1235 2.028 . S
O1242 C1245 1.247 . S
O1243 Zn1237 2.035 . S
O1243 C1245 1.258 . S
C1244 O1238 1.247 . S
C1244 O1239 1.258 . S
C1245 O1242 1.247 . S
C1245 O1243 1.258 . S
C1246 O1248 1.247 . S
C1246 O1250 1.258 . S
C1247 O1254 1.247 . S
C1247 O1255 1.258 . S
O1248 C1246 1.247 . S
O1248 Zn1249 2.028 . S
Zn1249 O1248 2.028 . S
Zn1249 O1253 2.035 . S
Zn1249 O1255 2.035 . S
Zn1249 O1256 2.028 . S
O1250 C1246 1.258 . S
O1250 Zn1251 2.035 . S
Zn1251 O1250 2.035 . S
Zn1251 O1252 2.028 . S
Zn1251 O1254 2.028 . S
Zn1251 O1257 2.035 . S
O1252 Zn1251 2.028 . S
O1252 C1258 1.247 . S
O1253 Zn1249 2.035 . S
O1253 C1258 1.258 . S
O1254 C1247 1.247 . S
O1254 Zn1251 2.028 . S
O1255 C1247 1.258 . S
O1255 Zn1249 2.035 . S
O1256 Zn1249 2.028 . S
O1256 C1259 1.247 . S
O1257 Zn1251 2.035 . S
O1257 C1259 1.258 . S
C1258 O1252 1.247 . S
C1258 O1253 1.258 . S
C1259 O1256 1.247 . S
C1259 O1257 1.258 . S
C1260 O1262 1.247 . S
C1260 O1264 1.258 . S
C1261 O1268 1.247 . S
C1261 O1269 1.258 . S
O1262 C1260 1.247 . S
O1262 Zn1263 2.028 . S
Zn1263 O1262 2.028 . S
Zn1263 O1267 2.035 . S
Zn1263 O1269 2.035 . S
Zn1263 O1270 2.028 . S
O1264 C1260 1.258 . S
O1264 Zn1265 2.035 . S
Zn1265 O1264 2.035 . S
Zn1265 O1266 2.028 . S
Zn1265 O1268 2.028 . S
Zn1265 O1271 2.035 . S
O1266 Zn1265 2.028 . S
O1266 C1272 1.247 . S
O1267 Zn1263 2.035 . S
O1267 C1272 1.258 . S
O1268 C1261 1.247 . S
O1268 Zn1265 2.028 . S
O1269 C1261 1.258 . S
O1269 Zn1263 2.035 . S
O1270 Zn1263 2.028 . S
O1270 C1273 1.247 . S
O1271 Zn1265 2.035 . S
O1271 C1273 1.258 . S
C1272 O1266 1.247 . S
C1272 O1267 1.258 . S
C1273 O1270 1.247 . S
C1273 O1271 1.258 . S
C1274 O1276 1.247 . S
C1274 O1278 1.258 . S
C1275 O1282 1.247 . S
C1275 O1283 1.258 . S
O1276 C1274 1.247 . S
O1276 Zn1277 2.028 . S
Zn1277 O1276 2.028 . S
Zn1277 O1281 2.035 . S
Zn1277 O1283 2.035 . S
Zn1277 O1284 2.028 . S
O1278 C1274 1.258 . S
O1278 Zn1279 2.035 . S
Zn1279 O1278 2.035 . S
Zn1279 O1280 2.028 . S
Zn1279 O1282 2.028 . S
Zn1279 O1285 2.035 . S
O1280 Zn1279 2.028 . S
O1280 C1286 1.247 . S
O1281 Zn1277 2.035 . S
O1281 C1286 1.258 . S
O1282 C1275 1.247 . S
O1282 Zn1279 2.028 . S
O1283 C1275 1.258 . S
O1283 Zn1277 2.035 . S
O1284 Zn1277 2.028 . S
O1284 C1287 1.247 . S
O1285 Zn1279 2.035 . S
O1285 C1287 1.258 . S
C1286 O1280 1.247 . S
C1286 O1281 1.258 . S
C1287 O1284 1.247 . S
C1287 O1285 1.258 . S
C1288 O1290 1.247 . S
C1288 O1292 1.258 . S
C1289 O1296 1.247 . S
C1289 O1297 1.258 . S
O1290 C1288 1.247 . S
O1290 Zn1291 2.028 . S
Zn1291 O1290 2.028 . S
Zn1291 O1295 2.035 . S
Zn1291 O1297 2.035 . S
Zn1291 O1298 2.028 . S
O1292 C1288 1.258 . S
O1292 Zn1293 2.035 . S
Zn1293 O1292 2.035 . S
Zn1293 O1294 2.028 . S
Zn1293 O1296 2.028 . S
Zn1293 O1299 2.035 . S
O1294 Zn1293 2.028 . S
O1294 C1300 1.247 . S
O1295 Zn1291 2.035 . S
O1295 C1300 1.258 . S
O1296 C1289 1.247 . S
O1296 Zn1293 2.028 . S
O1297 C1289 1.258 . S
O1297 Zn1291 2.035 . S
O1298 Zn1291 2.028 . S
O1298 C1301 1.247 . S
O1299 Zn1293 2.035 . S
O1299 C1301 1.258 . S
C1300 O1294 1.247 . S
C1300 O1295 1.258 . S
C1301 O1298 1.247 . S
C1301 O1299 1.258 . S
C1302 O1304 1.247 . S
C1302 O1306 1.258 . S
C1303 O1310 1.247 . S
C1303 O1311 1.258 . S
O1304 C1302 1.247 . S
O1304 Zn1305 2.028 . S
Zn1305 O1304 2.028 . S
Zn1305 O1309 2.035 . S
Zn1305 O1311 2.035 . S
Zn1305 O1312 2.028 . S
O1306 C1302 1.258 . S
O1306 Zn1307 2.035 . S
Zn1307 O1306 2.035 . S
Zn1307 O1308 2.028 . S
Zn1307 O1310 2.028 . S
Zn1307 O1313 2.035 . S
O1308 Zn1307 2.028 . S
O1308 C1314 1.247 . S
O1309 Zn1305 2.035 . S
O1309 C1314 1.258 . S
O1310 C1303 1.247 . S
O1310 Zn1307 2.028 . S
O1311 C1303 1.258 . S
O1311 Zn1305 2.035 . S
O1312 Zn1305 2.028 . S
O1312 C1315 1.247 . S
O1313 Zn1307 2.035 . S
O1313 C1315 1.258 . S
C1314 O1308 1.247 . S
C1314 O1309 1.258 . S
C1315 O1312 1.247 . S
C1315 O1313 1.258 . S
C1316 O1318 1.247 . S
C1316 O1320 1.258 . S
C1317 O1324 1.247 . S
C1317 O1325 1.258 . S
O1318 C1316 1.247 . S
O1318 Zn1319 2.028 . S
Zn1319 O1318 2.028 . S
Zn1319 O1323 2.035 . S
Zn1319 O1325 2.035 . S
Zn1319 O1326 2.028 . S
O1320 C1316 1.258 . S
O1320 Zn1321 2.035 . S
Zn1321 O1320 2.035 . S
Zn1321 O1322 2.028 . S
Zn1321 O1324 2.028 . S
Zn1321 O1327 2.035 . S
O1322 Zn1321 2.028 . S
O1322 C1328 1.247 . S
O1323 Zn1319 2.035 . S
O1323 C1328 1.258 . S
O1324 C1317 1.247 . S
O1324 Zn1321 2.028 . S
O1325 C1317 1.258 . S
O1325 Zn1319 2.035 . S
O1326 Zn1319 2.028 . S
O1326 C1329 1.247 . S
O1327 Zn1321 2.035 . S
O1327 C1329 1.258 . S
C1328 O1322 1.247 . S
C1328 O1323 1.258 . S
C1329 O1326 1.247 . S
C1329 O1327 1.258 . S
C1330 O1332 1.247 . S
C1330 O1334 1.258 . S
C1331 O1338 1.247 . S
C1331 O1339 1.258 . S
O1332 C1330 1.247 . S
O1332 Zn1333 2.028 . S
Zn1333 O1332 2.028 . S
Zn1333 O1337 2.035 . S
Zn1333 O1339 2.035 . S
Zn1333 O1340 2.028 . S
O1334 C1330 1.258 . S
O1334 Zn1335 2.035 . S
Zn1335 O1334 2.035 . S
Zn1335 O1336 2.028 . S
Zn1335 O1338 2.028 . S
Zn1335 O1341 2.035 . S
O1336 Zn1335 2.028 . S
O1336 C1342 1.247 . S
O1337 Zn1333 2.035 . S
O1337 C1342 1.258 . S
O1338 C1331 1.247 . S
O1338 Zn1335 2.028 . S
O1339 C1331 1.258 . S
O1339 Zn1333 2.035 . S
O1340 Zn1333 2.028 . S
O1340 C1343 1.247 . S
O1341 Zn1335 2.035 . S
O1341 C1343 1.258 . S
C1342 O1336 1.247 . S
C1342 O1337 1.258 . S
C1343 O1340 1.247 . S
C1343 O1341 1.258 . S
C1344 C1345 1.369 1_655 S
C1344 C1346 1.419 . S
C1344 H1348 0.930 . S
C1345 C1344 1.369 1_455 S
C1345 C1354 1.429 1_554 S
C1346 C1344 1.419 . S
C1346 C1347 1.363 1_554 S
C1346 H1349 0.929 . S
C1347 C1346 1.363 1_556 S
C1347 C1353 1.428 1_655 S
H1348 C1344 0.930 . S
H1349 C1346 0.929 . S
S1350 N1351 1.613 . S
S1350 N1352 1.610 . S
N1351 S1350 1.613 . S
N1351 C1354 1.350 . S
N1352 S1350 1.610 . S
N1352 C1353 1.351 . S
C1353 C1347 1.428 1_455 S
C1353 N1352 1.351 . S
C1353 C1354 1.434 . S
C1354 C1345 1.429 1_556 S
C1354 N1351 1.350 . S
C1354 C1353 1.434 . S
C1355 C1356 1.369 . S
C1355 C1357 1.419 . S
C1355 H1359 0.930 . S
C1356 C1355 1.369 . S
C1356 C1365 1.429 . S
C1357 C1355 1.419 . S
C1357 C1358 1.363 . S
C1357 H1360 0.929 . S
C1358 C1357 1.363 . S
C1358 C1364 1.428 . S
H1359 C1355 0.930 . S
H1360 C1357 0.929 . S
S1361 N1362 1.613 . S
S1361 N1363 1.610 . S
N1362 S1361 1.613 . S
N1362 C1365 1.350 . S
N1363 S1361 1.610 . S
N1363 C1364 1.351 . S
C1364 C1358 1.428 . S
C1364 N1363 1.351 . S
C1364 C1365 1.434 . S
C1365 C1356 1.429 . S
C1365 N1362 1.350 . S
C1365 C1364 1.434 . S
C1366 C1367 1.369 . S
C1366 C1368 1.419 . S
C1366 H1370 0.930 . S
C1367 C1366 1.369 . S
C1367 C1376 1.429 1_655 S
C1368 C1366 1.419 . S
C1368 C1369 1.363 1_655 S
C1368 H1371 0.929 . S
C1369 C1368 1.363 1_455 S
C1369 C1375 1.428 . S
H1370 C1366 0.930 . S
H1371 C1368 0.929 . S
S1372 N1373 1.613 . S
S1372 N1374 1.610 . S
N1373 S1372 1.613 . S
N1373 C1376 1.350 . S
N1374 S1372 1.610 . S
N1374 C1375 1.351 . S
C1375 C1369 1.428 . S
C1375 N1374 1.351 . S
C1375 C1376 1.434 . S
C1376 C1367 1.429 1_455 S
C1376 N1373 1.350 . S
C1376 C1375 1.434 . S
C1377 C1378 1.369 . S
C1377 C1379 1.419 . S
C1377 H1381 0.930 . S
C1378 C1377 1.369 . S
C1378 C1387 1.429 . S
C1379 C1377 1.419 . S
C1379 C1380 1.363 . S
C1379 H1382 0.929 . S
C1380 C1379 1.363 . S
C1380 C1386 1.428 . S
H1381 C1377 0.930 . S
H1382 C1379 0.929 . S
S1383 N1384 1.613 1_655 S
S1383 N1385 1.610 1_655 S
N1384 S1383 1.613 1_455 S
N1384 C1387 1.350 . S
N1385 S1383 1.610 1_455 S
N1385 C1386 1.351 . S
C1386 C1380 1.428 . S
C1386 N1385 1.351 . S
C1386 C1387 1.434 . S
C1387 C1378 1.429 . S
C1387 N1384 1.350 . S
C1387 C1386 1.434 . S
C1388 C1389 1.369 . S
C1388 C1390 1.419 1_654 S
C1388 H1392 0.930 . S
C1389 C1388 1.369 . S
C1389 C1398 1.429 . S
C1390 C1388 1.419 1_456 S
C1390 C1391 1.363 . S
C1390 H1393 0.929 . S
C1391 C1390 1.363 . S
C1391 C1397 1.428 . S
H1392 C1388 0.930 . S
H1393 C1390 0.929 . S
S1394 N1395 1.613 1_556 S
S1394 N1396 1.610 1_655 S
N1395 S1394 1.613 1_554 S
N1395 C1398 1.350 . S
N1396 S1394 1.610 1_455 S
N1396 C1397 1.351 . S
C1397 C1391 1.428 . S
C1397 N1396 1.351 . S
C1397 C1398 1.434 1_456 S
C1398 C1389 1.429 . S
C1398 N1395 1.350 . S
C1398 C1397 1.434 1_654 S
C1399 C1400 1.369 . S
C1399 C1401 1.419 . S
C1399 H1403 0.930 . S
C1400 C1399 1.369 . S
C1400 C1409 1.429 . S
C1401 C1399 1.419 . S
C1401 C1402 1.363 . S
C1401 H1404 0.929 . S
C1402 C1401 1.363 . S
C1402 C1408 1.428 . S
H1403 C1399 0.930 . S
H1404 C1401 0.929 . S
S1405 N1406 1.613 . S
S1405 N1407 1.610 . S
N1406 S1405 1.613 . S
N1406 C1409 1.350 . S
N1407 S1405 1.610 . S
N1407 C1408 1.351 . S
C1408 C1402 1.428 . S
C1408 N1407 1.351 . S
C1408 C1409 1.434 . S
C1409 C1400 1.429 . S
C1409 N1406 1.350 . S
C1409 C1408 1.434 . S
C1410 C1411 1.369 . S
C1410 C1412 1.419 . S
C1410 H1414 0.930 . S
C1411 C1410 1.369 . S
C1411 C1420 1.429 1_455 S
C1412 C1410 1.419 . S
C1412 C1413 1.363 1_455 S
C1412 H1415 0.929 . S
C1413 C1412 1.363 1_655 S
C1413 C1419 1.428 . S
H1414 C1410 0.930 . S
H1415 C1412 0.929 . S
S1416 N1417 1.613 . S
S1416 N1418 1.610 . S
N1417 S1416 1.613 . S
N1417 C1420 1.350 . S
N1418 S1416 1.610 . S
N1418 C1419 1.351 . S
C1419 C1413 1.428 . S
C1419 N1418 1.351 . S
C1419 C1420 1.434 . S
C1420 C1411 1.429 1_655 S
C1420 N1417 1.350 . S
C1420 C1419 1.434 . S
C1421 C1422 1.369 . S
C1421 C1423 1.419 . S
C1421 H1425 0.930 . S
C1422 C1421 1.369 . S
C1422 C1431 1.429 . S
C1423 C1421 1.419 . S
C1423 C1424 1.363 . S
C1423 H1426 0.929 . S
C1424 C1423 1.363 . S
C1424 C1430 1.428 . S
H1425 C1421 0.930 . S
H1426 C1423 0.929 . S
S1427 N1428 1.613 . S
S1427 N1429 1.610 . S
N1428 S1427 1.613 . S
N1428 C1431 1.350 . S
N1429 S1427 1.610 . S
N1429 C1430 1.351 . S
C1430 C1424 1.428 . S
C1430 N1429 1.351 . S
C1430 C1431 1.434 . S
C1431 C1422 1.429 . S
C1431 N1428 1.350 . S
C1431 C1430 1.434 . S
C1432 C1433 1.369 1_545 S
C1432 C1434 1.419 . S
C1432 H1436 0.930 . S
C1433 C1432 1.369 1_565 S
C1433 C1442 1.429 1_655 S
C1434 C1432 1.419 . S
C1434 C1435 1.363 1_655 S
C1434 H1437 0.929 . S
C1435 C1434 1.363 1_455 S
C1435 C1441 1.428 1_545 S
H1436 C1432 0.930 . S
H1437 C1434 0.929 . S
S1438 N1439 1.613 . S
S1438 N1440 1.610 . S
N1439 S1438 1.613 . S
N1439 C1442 1.350 . S
N1440 S1438 1.610 . S
N1440 C1441 1.351 . S
C1441 C1435 1.428 1_565 S
C1441 N1440 1.351 . S
C1441 C1442 1.434 . S
C1442 C1433 1.429 1_455 S
C1442 N1439 1.350 . S
C1442 C1441 1.434 . S
C1443 C1444 1.369 . S
C1443 C1445 1.419 . S
C1443 H1447 0.930 . S
C1444 C1443 1.369 . S
C1444 C1453 1.429 . S
C1445 C1443 1.419 . S
C1445 C1446 1.363 . S
C1445 H1448 0.929 . S
C1446 C1445 1.363 . S
C1446 C1452 1.428 . S
H1447 C1443 0.930 . S
H1448 C1445 0.929 . S
S1449 N1450 1.613 . S
S1449 N1451 1.610 . S
N1450 S1449 1.613 . S
N1450 C1453 1.350 . S
N1451 S1449 1.610 . S
N1451 C1452 1.351 . S
C1452 C1446 1.428 . S
C1452 N1451 1.351 . S
C1452 C1453 1.434 . S
C1453 C1444 1.429 . S
C1453 N1450 1.350 . S
C1453 C1452 1.434 . S
C1454 C1455 1.369 1_455 S
C1454 C1456 1.419 . S
C1454 H1458 0.930 . S
C1455 C1454 1.369 1_655 S
C1455 C1464 1.429 . S
C1456 C1454 1.419 . S
C1456 C1457 1.363 . S
C1456 H1459 0.929 . S
C1457 C1456 1.363 . S
C1457 C1463 1.428 1_455 S
H1458 C1454 0.930 . S
H1459 C1456 0.929 . S
S1460 N1461 1.613 . S
S1460 N1462 1.610 . S
N1461 S1460 1.613 . S
N1461 C1464 1.350 . S
N1462 S1460 1.610 . S
N1462 C1463 1.351 . S
C1463 C1457 1.428 1_655 S
C1463 N1462 1.351 . S
C1463 C1464 1.434 . S
C1464 C1455 1.429 . S
C1464 N1461 1.350 . S
C1464 C1463 1.434 . S
C1465 C1466 1.369 . S
C1465 C1467 1.419 . S
C1465 H1469 0.930 . S
C1466 C1465 1.369 . S
C1466 C1475 1.429 . S
C1467 C1465 1.419 . S
C1467 C1468 1.363 . S
C1467 H1470 0.929 . S
C1468 C1467 1.363 . S
C1468 C1474 1.428 . S
H1469 C1465 0.930 . S
H1470 C1467 0.929 . S
S1471 N1472 1.613 1_556 S
S1471 N1473 1.610 1_556 S
N1472 S1471 1.613 1_554 S
N1472 C1475 1.350 . S
N1473 S1471 1.610 1_554 S
N1473 C1474 1.351 . S
C1474 C1468 1.428 . S
C1474 N1473 1.351 . S
C1474 C1475 1.434 . S
C1475 C1466 1.429 . S
C1475 N1472 1.350 . S
C1475 C1474 1.434 . S
C1476 C1477 1.369 1_655 S
C1476 C1478 1.419 . S
C1476 H1480 0.930 . S
C1477 C1476 1.369 1_455 S
C1477 C1486 1.429 1_565 S
C1478 C1476 1.419 . S
C1478 C1479 1.363 1_565 S
C1478 H1481 0.929 . S
C1479 C1478 1.363 1_545 S
C1479 C1485 1.428 1_655 S
H1480 C1476 0.930 . S
H1481 C1478 0.929 . S
S1482 N1483 1.613 . S
S1482 N1484 1.610 . S
N1483 S1482 1.613 . S
N1483 C1486 1.350 . S
N1484 S1482 1.610 . S
N1484 C1485 1.351 . S
C1485 C1479 1.428 1_455 S
C1485 N1484 1.351 . S
C1485 C1486 1.434 . S
C1486 C1477 1.429 1_545 S
C1486 N1483 1.350 . S
C1486 C1485 1.434 . S
C1487 C1488 1.369 . S
C1487 C1489 1.419 . S
C1487 H1491 0.930 . S
C1488 C1487 1.369 . S
C1488 C1497 1.429 . S
C1489 C1487 1.419 . S
C1489 C1490 1.363 . S
C1489 H1492 0.929 . S
C1490 C1489 1.363 . S
C1490 C1496 1.428 . S
H1491 C1487 0.930 . S
H1492 C1489 0.929 . S
S1493 N1494 1.613 . S
S1493 N1495 1.610 . S
N1494 S1493 1.613 . S
N1494 C1497 1.350 . S
N1495 S1493 1.610 . S
N1495 C1496 1.351 . S
C1496 C1490 1.428 . S
C1496 N1495 1.351 . S
C1496 C1497 1.434 . S
C1497 C1488 1.429 . S
C1497 N1494 1.350 . S
C1497 C1496 1.434 . S
C1498 C1499 1.369 . S
C1498 C1500 1.419 1_455 S
C1498 H1502 0.930 . S
C1499 C1498 1.369 . S
C1499 C1508 1.429 . S
C1500 C1498 1.419 1_655 S
C1500 C1501 1.363 . S
C1500 H1503 0.929 . S
C1501 C1500 1.363 . S
C1501 C1507 1.428 . S
H1502 C1498 0.930 . S
H1503 C1500 0.929 . S
S1504 N1505 1.613 1_655 S
S1504 N1506 1.610 . S
N1505 S1504 1.613 1_455 S
N1505 C1508 1.350 . S
N1506 S1504 1.610 . S
N1506 C1507 1.351 . S
C1507 C1501 1.428 . S
C1507 N1506 1.351 . S
C1507 C1508 1.434 1_655 S
C1508 C1499 1.429 . S
C1508 N1505 1.350 . S
C1508 C1507 1.434 1_455 S
C1509 C1510 1.369 . S
C1509 C1511 1.419 . S
C1509 H1513 0.930 . S
C1510 C1509 1.369 . S
C1510 C1519 1.429 . S
C1511 C1509 1.419 . S
C1511 C1512 1.363 . S
C1511 H1514 0.929 . S
C1512 C1511 1.363 . S
C1512 C1518 1.428 . S
H1513 C1509 0.930 . S
H1514 C1511 0.929 . S
S1515 N1516 1.613 . S
S1515 N1517 1.610 . S
N1516 S1515 1.613 . S
N1516 C1519 1.350 . S
N1517 S1515 1.610 . S
N1517 C1518 1.351 . S
C1518 C1512 1.428 . S
C1518 N1517 1.351 . S
C1518 C1519 1.434 . S
C1519 C1510 1.429 . S
C1519 N1516 1.350 . S
C1519 C1518 1.434 . S
C1520 C1521 1.369 1_545 S
C1520 C1522 1.419 . S
C1520 H1524 0.930 . S
C1521 C1520 1.369 1_565 S
C1521 C1530 1.429 1_556 S
C1522 C1520 1.419 . S
C1522 C1523 1.363 1_556 S
C1522 H1525 0.929 . S
C1523 C1522 1.363 1_554 S
C1523 C1529 1.428 1_545 S
H1524 C1520 0.930 . S
H1525 C1522 0.929 . S
S1526 N1527 1.613 . S
S1526 N1528 1.610 . S
N1527 S1526 1.613 . S
N1527 C1530 1.350 . S
N1528 S1526 1.610 . S
N1528 C1529 1.351 . S
C1529 C1523 1.428 1_565 S
C1529 N1528 1.351 . S
C1529 C1530 1.434 . S
C1530 C1521 1.429 1_554 S
C1530 N1527 1.350 . S
C1530 C1529 1.434 . S
C1531 C1532 1.369 1_565 S
C1531 C1533 1.419 . S
C1531 H1535 0.930 . S
C1532 C1531 1.369 1_545 S
C1532 C1541 1.429 . S
C1533 C1531 1.419 . S
C1533 C1534 1.363 . S
C1533 H1536 0.929 . S
C1534 C1533 1.363 . S
C1534 C1540 1.428 1_565 S
H1535 C1531 0.930 . S
H1536 C1533 0.929 . S
S1537 N1538 1.613 . S
S1537 N1539 1.610 . S
N1538 S1537 1.613 . S
N1538 C1541 1.350 . S
N1539 S1537 1.610 . S
N1539 C1540 1.351 . S
C1540 C1534 1.428 1_545 S
C1540 N1539 1.351 . S
C1540 C1541 1.434 . S
C1541 C1532 1.429 . S
C1541 N1538 1.350 . S
C1541 C1540 1.434 . S
C1542 C1543 1.369 . S
C1542 C1544 1.419 . S
C1542 H1546 0.930 . S
C1543 C1542 1.369 . S
C1543 C1552 1.429 . S
C1544 C1542 1.419 . S
C1544 C1545 1.363 . S
C1544 H1547 0.929 . S
C1545 C1544 1.363 . S
C1545 C1551 1.428 . S
H1546 C1542 0.930 . S
H1547 C1544 0.929 . S
S1548 N1549 1.613 1_565 S
S1548 N1550 1.610 1_565 S
N1549 S1548 1.613 1_545 S
N1549 C1552 1.350 . S
N1550 S1548 1.610 1_545 S
N1550 C1551 1.351 . S
C1551 C1545 1.428 . S
C1551 N1550 1.351 . S
C1551 C1552 1.434 . S
C1552 C1543 1.429 . S
C1552 N1549 1.350 . S
C1552 C1551 1.434 . S
C1553 C1554 1.369 . S
C1553 C1555 1.419 . S
C1553 H1557 0.930 . S
C1554 C1553 1.369 . S
C1554 C1563 1.429 1_554 S
C1555 C1553 1.419 . S
C1555 C1556 1.363 1_554 S
C1555 H1558 0.929 . S
C1556 C1555 1.363 1_556 S
C1556 C1562 1.428 . S
H1557 C1553 0.930 . S
H1558 C1555 0.929 . S
S1559 N1560 1.613 . S
S1559 N1561 1.610 . S
N1560 S1559 1.613 . S
N1560 C1563 1.350 . S
N1561 S1559 1.610 . S
N1561 C1562 1.351 . S
C1562 C1556 1.428 . S
C1562 N1561 1.351 . S
C1562 C1563 1.434 . S
C1563 C1554 1.429 1_556 S
C1563 N1560 1.350 . S
C1563 C1562 1.434 . S
C1564 C1565 1.369 . S
C1564 C1566 1.419 . S
C1564 H1568 0.930 . S
C1565 C1564 1.369 . S
C1565 C1574 1.429 . S
C1566 C1564 1.419 . S
C1566 C1567 1.363 . S
C1566 H1569 0.929 . S
C1567 C1566 1.363 . S
C1567 C1573 1.428 . S
H1568 C1564 0.930 . S
H1569 C1566 0.929 . S
S1570 N1571 1.613 . S
S1570 N1572 1.610 . S
N1571 S1570 1.613 . S
N1571 C1574 1.350 . S
N1572 S1570 1.610 . S
N1572 C1573 1.351 . S
C1573 C1567 1.428 . S
C1573 N1572 1.351 . S
C1573 C1574 1.434 . S
C1574 C1565 1.429 . S
C1574 N1571 1.350 . S
C1574 C1573 1.434 . S
C1575 C1576 1.369 . S
C1575 C1577 1.419 1_564 S
C1575 H1579 0.930 . S
C1576 C1575 1.369 . S
C1576 C1585 1.429 . S
C1577 C1575 1.419 1_546 S
C1577 C1578 1.363 . S
C1577 H1580 0.929 . S
C1578 C1577 1.363 . S
C1578 C1584 1.428 . S
H1579 C1575 0.930 . S
H1580 C1577 0.929 . S
S1581 N1582 1.613 1_545 S
S1581 N1583 1.610 1_554 S
N1582 S1581 1.613 1_565 S
N1582 C1585 1.350 . S
N1583 S1581 1.610 1_556 S
N1583 C1584 1.351 . S
C1584 C1578 1.428 . S
C1584 N1583 1.351 . S
C1584 C1585 1.434 1_546 S
C1585 C1576 1.429 . S
C1585 N1582 1.350 . S
C1585 C1584 1.434 1_564 S
C1586 C1587 1.369 . S
C1586 C1588 1.419 . S
C1586 H1590 0.930 . S
C1587 C1586 1.369 . S
C1587 C1596 1.429 . S
C1588 C1586 1.419 . S
C1588 C1589 1.363 . S
C1588 H1591 0.929 . S
C1589 C1588 1.363 . S
C1589 C1595 1.428 . S
H1590 C1586 0.930 . S
H1591 C1588 0.929 . S
S1592 N1593 1.613 . S
S1592 N1594 1.610 . S
N1593 S1592 1.613 . S
N1593 C1596 1.350 . S
N1594 S1592 1.610 . S
N1594 C1595 1.351 . S
C1595 C1589 1.428 . S
C1595 N1594 1.351 . S
C1595 C1596 1.434 . S
C1596 C1587 1.429 . S
C1596 N1593 1.350 . S
C1596 C1595 1.434 . S
C1597 C1598 1.369 . S
C1597 C1599 1.419 . S
C1597 H1601 0.930 . S
C1598 C1597 1.369 . S
C1598 C1607 1.429 . S
C1599 C1597 1.419 . S
C1599 C1600 1.363 . S
C1599 H1602 0.929 . S
C1600 C1599 1.363 . S
C1600 C1606 1.428 . S
H1601 C1597 0.930 . S
H1602 C1599 0.929 . S
S1603 N1604 1.631 . S
S1603 N1605 1.627 . S
N1604 S1603 1.631 . S
N1604 C1607 1.324 1_565 S
N1605 S1603 1.627 . S
N1605 C1606 1.328 1_565 S
C1606 C1600 1.428 . S
C1606 N1605 1.328 1_545 S
C1606 C1607 1.434 . S
C1607 C1598 1.429 . S
C1607 N1604 1.324 1_545 S
C1607 C1606 1.434 . S
C1608 C1609 1.369 . S
C1608 C1610 1.419 . S
C1608 H1612 0.930 . S
C1609 C1608 1.369 . S
C1609 C1618 1.429 . S
C1610 C1608 1.419 . S
C1610 C1611 1.363 . S
C1610 H1613 0.929 . S
C1611 C1610 1.363 . S
C1611 C1617 1.428 . S
H1612 C1608 0.930 . S
H1613 C1610 0.929 . S
S1614 N1615 1.613 . S
S1614 N1616 1.610 . S
N1615 S1614 1.613 . S
N1615 C1618 1.350 . S
N1616 S1614 1.610 . S
N1616 C1617 1.351 . S
C1617 C1611 1.428 . S
C1617 N1616 1.351 . S
C1617 C1618 1.434 . S
C1618 C1609 1.429 . S
C1618 N1615 1.350 . S
C1618 C1617 1.434 . S
C1619 C1620 1.369 . S
C1619 C1621 1.419 . S
C1619 H1623 0.930 . S
C1620 C1619 1.369 . S
C1620 C1629 1.429 . S
C1621 C1619 1.419 . S
C1621 C1622 1.363 . S
C1621 H1624 0.929 . S
C1622 C1621 1.363 . S
C1622 C1628 1.428 . S
H1623 C1619 0.930 . S
H1624 C1621 0.929 . S
S1625 N1626 1.613 . S
S1625 N1627 1.610 . S
N1626 S1625 1.613 . S
N1626 C1629 1.350 . S
N1627 S1625 1.610 . S
N1627 C1628 1.351 . S
C1628 C1622 1.428 . S
C1628 N1627 1.351 . S
C1628 C1629 1.434 . S
C1629 C1620 1.429 . S
C1629 N1626 1.350 . S
C1629 C1628 1.434 . S
C1630 C1631 1.369 . S
C1630 C1632 1.419 . S
C1630 H1634 0.930 . S
C1631 C1630 1.369 . S
C1631 C1640 1.429 . S
C1632 C1630 1.419 . S
C1632 C1633 1.363 . S
C1632 H1635 0.929 . S
C1633 C1632 1.363 . S
C1633 C1639 1.428 . S
H1634 C1630 0.930 . S
H1635 C1632 0.929 . S
S1636 N1637 1.613 . S
S1636 N1638 1.610 . S
N1637 S1636 1.613 . S
N1637 C1640 1.350 . S
N1638 S1636 1.610 . S
N1638 C1639 1.351 . S
C1639 C1633 1.428 . S
C1639 N1638 1.351 . S
C1639 C1640 1.434 . S
C1640 C1631 1.429 . S
C1640 N1637 1.350 . S
C1640 C1639 1.434 . S
C1641 C1642 1.369 . S
C1641 C1643 1.419 . S
C1641 H1645 0.930 . S
C1642 C1641 1.369 . S
C1642 C1651 1.429 . S
C1643 C1641 1.419 . S
C1643 C1644 1.363 . S
C1643 H1646 0.929 . S
C1644 C1643 1.363 . S
C1644 C1650 1.428 . S
H1645 C1641 0.930 . S
H1646 C1643 0.929 . S
S1647 N1648 1.613 . S
S1647 N1649 1.610 . S
N1648 S1647 1.613 . S
N1648 C1651 1.350 . S
N1649 S1647 1.610 . S
N1649 C1650 1.351 . S
C1650 C1644 1.428 . S
C1650 N1649 1.351 . S
C1650 C1651 1.434 . S
C1651 C1642 1.429 . S
C1651 N1648 1.350 . S
C1651 C1650 1.434 . S
C1652 C1653 1.369 . S
C1652 C1654 1.419 . S
C1652 H1656 0.930 . S
C1653 C1652 1.369 . S
C1653 C1662 1.429 . S
C1654 C1652 1.419 . S
C1654 C1655 1.363 . S
C1654 H1657 0.929 . S
C1655 C1654 1.363 . S
C1655 C1661 1.428 . S
H1656 C1652 0.930 . S
H1657 C1654 0.929 . S
S1658 N1659 1.613 . S
S1658 N1660 1.610 . S
N1659 S1658 1.613 . S
N1659 C1662 1.350 . S
N1660 S1658 1.610 . S
N1660 C1661 1.351 . S
C1661 C1655 1.428 . S
C1661 N1660 1.351 . S
C1661 C1662 1.434 . S
C1662 C1653 1.429 . S
C1662 N1659 1.350 . S
C1662 C1661 1.434 . S
C1663 C1664 1.369 . S
C1663 C1665 1.419 . S
C1663 H1667 0.930 . S
C1664 C1663 1.369 . S
C1664 C1673 1.429 . S
C1665 C1663 1.419 . S
C1665 C1666 1.363 . S
C1665 H1668 0.929 . S
C1666 C1665 1.363 . S
C1666 C1672 1.428 . S
H1667 C1663 0.930 . S
H1668 C1665 0.929 . S
S1669 N1670 1.613 . S
S1669 N1671 1.610 . S
N1670 S1669 1.613 . S
N1670 C1673 1.350 . S
N1671 S1669 1.610 . S
N1671 C1672 1.351 . S
C1672 C1666 1.428 . S
C1672 N1671 1.351 . S
C1672 C1673 1.434 . S
C1673 C1664 1.429 . S
C1673 N1670 1.350 . S
C1673 C1672 1.434 . S
C1674 C1675 1.369 . S
C1674 C1676 1.419 . S
C1674 H1678 0.930 . S
C1675 C1674 1.369 . S
C1675 C1684 1.429 . S
C1676 C1674 1.419 . S
C1676 C1677 1.363 . S
C1676 H1679 0.929 . S
C1677 C1676 1.363 . S
C1677 C1683 1.428 . S
H1678 C1674 0.930 . S
H1679 C1676 0.929 . S
S1680 N1681 1.613 . S
S1680 N1682 1.610 . S
N1681 S1680 1.613 . S
N1681 C1684 1.350 . S
N1682 S1680 1.610 . S
N1682 C1683 1.351 . S
C1683 C1677 1.428 . S
C1683 N1682 1.351 . S
C1683 C1684 1.434 . S
C1684 C1675 1.429 . S
C1684 N1681 1.350 . S
C1684 C1683 1.434 . S
C1685 C1686 1.369 . S
C1685 C1687 1.419 . S
C1685 H1689 0.930 . S
C1686 C1685 1.369 . S
C1686 C1695 1.429 . S
C1687 C1685 1.419 . S
C1687 C1688 1.363 . S
C1687 H1690 0.929 . S
C1688 C1687 1.363 . S
C1688 C1694 1.428 . S
H1689 C1685 0.930 . S
H1690 C1687 0.929 . S
S1691 N1692 1.613 . S
S1691 N1693 1.610 . S
N1692 S1691 1.613 . S
N1692 C1695 1.350 . S
N1693 S1691 1.610 . S
N1693 C1694 1.351 . S
C1694 C1688 1.428 . S
C1694 N1693 1.351 . S
C1694 C1695 1.434 . S
C1695 C1686 1.429 . S
C1695 N1692 1.350 . S
C1695 C1694 1.434 . S
C1696 C1697 1.369 . S
C1696 C1698 1.419 . S
C1696 H1700 0.930 . S
C1697 C1696 1.369 . S
C1697 C1706 1.429 . S
C1698 C1696 1.419 . S
C1698 C1699 1.363 . S
C1698 H1701 0.929 . S
C1699 C1698 1.363 . S
C1699 C1705 1.428 . S
H1700 C1696 0.930 . S
H1701 C1698 0.929 . S
S1702 N1703 1.613 . S
S1702 N1704 1.610 . S
N1703 S1702 1.613 . S
N1703 C1706 1.350 . S
N1704 S1702 1.610 . S
N1704 C1705 1.351 . S
C1705 C1699 1.428 . S
C1705 N1704 1.351 . S
C1705 C1706 1.434 . S
C1706 C1697 1.429 . S
C1706 N1703 1.350 . S
C1706 C1705 1.434 . S
C1707 C1708 1.369 . S
C1707 C1709 1.419 . S
C1707 H1711 0.930 . S
C1708 C1707 1.369 . S
C1708 C1717 1.429 1_556 S
C1709 C1707 1.419 . S
C1709 C1710 1.363 1_556 S
C1709 H1712 0.929 . S
C1710 C1709 1.363 1_554 S
C1710 C1716 1.428 . S
H1711 C1707 0.930 . S
H1712 C1709 0.929 . S
S1713 N1714 1.613 . S
S1713 N1715 1.610 . S
N1714 S1713 1.613 . S
N1714 C1717 1.350 . S
N1715 S1713 1.610 . S
N1715 C1716 1.351 . S
C1716 C1710 1.428 . S
C1716 N1715 1.351 . S
C1716 C1717 1.434 . S
C1717 C1708 1.429 1_554 S
C1717 N1714 1.350 . S
C1717 C1716 1.434 . S
C1718 C1719 1.369 . S
C1718 C1720 1.419 . S
C1718 H1722 0.930 . S
C1719 C1718 1.369 . S
C1719 C1728 1.429 . S
C1720 C1718 1.419 . S
C1720 C1721 1.363 . S
C1720 H1723 0.929 . S
C1721 C1720 1.363 . S
C1721 C1727 1.428 . S
H1722 C1718 0.930 . S
H1723 C1720 0.929 . S
S1724 N1725 1.613 . S
S1724 N1726 1.610 . S
N1725 S1724 1.613 . S
N1725 C1728 1.350 . S
N1726 S1724 1.610 . S
N1726 C1727 1.351 . S
C1727 C1721 1.428 . S
C1727 N1726 1.351 . S
C1727 C1728 1.434 . S
C1728 C1719 1.429 . S
C1728 N1725 1.350 . S
C1728 C1727 1.434 . S
C1729 C1730 1.369 1_545 S
C1729 C1731 1.419 . S
C1729 H1733 0.930 . S
C1730 C1729 1.369 1_565 S
C1730 C1739 1.429 . S
C1731 C1729 1.419 . S
C1731 C1732 1.363 . S
C1731 H1734 0.929 . S
C1732 C1731 1.363 . S
C1732 C1738 1.428 1_545 S
H1733 C1729 0.930 . S
H1734 C1731 0.929 . S
S1735 N1736 1.613 . S
S1735 N1737 1.610 . S
N1736 S1735 1.613 . S
N1736 C1739 1.350 . S
N1737 S1735 1.610 . S
N1737 C1738 1.351 . S
C1738 C1732 1.428 1_565 S
C1738 N1737 1.351 . S
C1738 C1739 1.434 . S
C1739 C1730 1.429 . S
C1739 N1736 1.350 . S
C1739 C1738 1.434 . S
C1740 C1741 1.369 . S
C1740 C1742 1.419 . S
C1740 H1744 0.930 . S
C1741 C1740 1.369 . S
C1741 C1750 1.429 . S
C1742 C1740 1.419 . S
C1742 C1743 1.363 . S
C1742 H1745 0.929 . S
C1743 C1742 1.363 . S
C1743 C1749 1.428 . S
H1744 C1740 0.930 . S
H1745 C1742 0.929 . S
S1746 N1747 1.613 . S
S1746 N1748 1.610 . S
N1747 S1746 1.613 . S
N1747 C1750 1.350 . S
N1748 S1746 1.610 . S
N1748 C1749 1.351 . S
C1749 C1743 1.428 . S
C1749 N1748 1.351 . S
C1749 C1750 1.434 . S
C1750 C1741 1.429 . S
C1750 N1747 1.350 . S
C1750 C1749 1.434 . S
C1751 C1752 1.369 . S
C1751 C1753 1.419 . S
C1751 H1755 0.930 . S
C1752 C1751 1.369 . S
C1752 C1761 1.429 . S
C1753 C1751 1.419 . S
C1753 C1754 1.363 . S
C1753 H1756 0.929 . S
C1754 C1753 1.363 . S
C1754 C1760 1.428 . S
H1755 C1751 0.930 . S
H1756 C1753 0.929 . S
S1757 N1758 1.613 . S
S1757 N1759 1.610 . S
N1758 S1757 1.613 . S
N1758 C1761 1.350 . S
N1759 S1757 1.610 . S
N1759 C1760 1.351 . S
C1760 C1754 1.428 . S
C1760 N1759 1.351 . S
C1760 C1761 1.434 . S
C1761 C1752 1.429 . S
C1761 N1758 1.350 . S
C1761 C1760 1.434 . S
C1762 C1763 1.369 . S
C1762 C1764 1.419 . S
C1762 H1766 0.930 . S
C1763 C1762 1.369 . S
C1763 C1772 1.429 . S
C1764 C1762 1.419 . S
C1764 C1765 1.363 . S
C1764 H1767 0.929 . S
C1765 C1764 1.363 . S
C1765 C1771 1.428 . S
H1766 C1762 0.930 . S
H1767 C1764 0.929 . S
S1768 N1769 1.613 . S
S1768 N1770 1.610 . S
N1769 S1768 1.613 . S
N1769 C1772 1.350 . S
N1770 S1768 1.610 . S
N1770 C1771 1.351 . S
C1771 C1765 1.428 . S
C1771 N1770 1.351 . S
C1771 C1772 1.434 . S
C1772 C1763 1.429 . S
C1772 N1769 1.350 . S
C1772 C1771 1.434 . S
C1773 C1774 1.369 . S
C1773 C1775 1.419 1_556 S
C1773 H1777 0.930 . S
C1774 C1773 1.369 . S
C1774 C1783 1.429 . S
C1775 C1773 1.419 1_554 S
C1775 C1776 1.363 . S
C1775 H1778 0.929 . S
C1776 C1775 1.363 . S
C1776 C1782 1.428 . S
H1777 C1773 0.930 . S
H1778 C1775 0.929 . S
S1779 N1780 1.613 . S
S1779 N1781 1.610 1_556 S
N1780 S1779 1.613 . S
N1780 C1783 1.350 . S
N1781 S1779 1.610 1_554 S
N1781 C1782 1.351 . S
C1782 C1776 1.428 . S
C1782 N1781 1.351 . S
C1782 C1783 1.434 1_554 S
C1783 C1774 1.429 . S
C1783 N1780 1.350 . S
C1783 C1782 1.434 1_556 S
C1784 C1785 1.369 . S
C1784 C1786 1.419 . S
C1784 H1788 0.930 . S
C1785 C1784 1.369 . S
C1785 C1794 1.429 . S
C1786 C1784 1.419 . S
C1786 C1787 1.363 . S
C1786 H1789 0.929 . S
C1787 C1786 1.363 . S
C1787 C1793 1.428 . S
H1788 C1784 0.930 . S
H1789 C1786 0.929 . S
S1790 N1791 1.613 . S
S1790 N1792 1.610 . S
N1791 S1790 1.613 . S
N1791 C1794 1.350 . S
N1792 S1790 1.610 . S
N1792 C1793 1.351 . S
C1793 C1787 1.428 . S
C1793 N1792 1.351 . S
C1793 C1794 1.434 . S
C1794 C1785 1.429 . S
C1794 N1791 1.350 . S
C1794 C1793 1.434 . S
C1795 C1796 1.398 . S
C1795 C1797 1.391 1_556 S
C1795 H1799 0.930 . S
C1796 C1795 1.398 . S
C1796 C1805 1.429 . S
C1797 C1795 1.391 1_554 S
C1797 C1798 1.363 . S
C1797 H1800 0.929 . S
C1798 C1797 1.363 . S
C1798 C1804 1.430 1_554 S
H1799 C1795 0.930 . S
H1800 C1797 0.929 . S
S1801 N1802 1.613 . S
S1801 N1803 1.610 . S
N1802 S1801 1.613 . S
N1802 C1805 1.350 . S
N1803 S1801 1.610 . S
N1803 C1804 1.351 . S
C1804 C1798 1.430 1_556 S
C1804 N1803 1.351 . S
C1804 C1805 1.433 . S
C1805 C1796 1.429 . S
C1805 N1802 1.350 . S
C1805 C1804 1.433 . S
C1806 C1807 1.369 1_545 S
C1806 C1808 1.419 . S
C1806 H1810 0.930 . S
C1807 C1806 1.369 1_565 S
C1807 C1816 1.429 . S
C1808 C1806 1.419 . S
C1808 C1809 1.363 . S
C1808 H1811 0.929 . S
C1809 C1808 1.363 . S
C1809 C1815 1.428 1_545 S
H1810 C1806 0.930 . S
H1811 C1808 0.929 . S
S1812 N1813 1.613 . S
S1812 N1814 1.610 . S
N1813 S1812 1.613 . S
N1813 C1816 1.350 . S
N1814 S1812 1.610 . S
N1814 C1815 1.351 . S
C1815 C1809 1.428 1_565 S
C1815 N1814 1.351 . S
C1815 C1816 1.434 . S
C1816 C1807 1.429 . S
C1816 N1813 1.350 . S
C1816 C1815 1.434 . S
C1817 C1818 1.369 . S
C1817 C1819 1.419 . S
C1817 H1821 0.930 . S
C1818 C1817 1.369 . S
C1818 C1827 1.429 . S
C1819 C1817 1.419 . S
C1819 C1820 1.363 . S
C1819 H1822 0.929 . S
C1820 C1819 1.363 . S
C1820 C1826 1.428 . S
H1821 C1817 0.930 . S
H1822 C1819 0.929 . S
S1823 N1824 1.613 . S
S1823 N1825 1.610 . S
N1824 S1823 1.613 . S
N1824 C1827 1.350 . S
N1825 S1823 1.610 . S
N1825 C1826 1.351 . S
C1826 C1820 1.428 . S
C1826 N1825 1.351 . S
C1826 C1827 1.434 . S
C1827 C1818 1.429 . S
C1827 N1824 1.350 . S
C1827 C1826 1.434 . S
C1828 C1829 1.369 . S
C1828 C1830 1.419 . S
C1828 H1832 0.930 . S
C1829 C1828 1.369 . S
C1829 C1838 1.429 1_565 S
C1830 C1828 1.419 . S
C1830 C1831 1.363 1_565 S
C1830 H1833 0.929 . S
C1831 C1830 1.363 1_545 S
C1831 C1837 1.428 . S
H1832 C1828 0.930 . S
H1833 C1830 0.929 . S
S1834 N1835 1.613 . S
S1834 N1836 1.610 . S
N1835 S1834 1.613 . S
N1835 C1838 1.350 . S
N1836 S1834 1.610 . S
N1836 C1837 1.351 . S
C1837 C1831 1.428 . S
C1837 N1836 1.351 . S
C1837 C1838 1.434 . S
C1838 C1829 1.429 1_545 S
C1838 N1835 1.350 . S
C1838 C1837 1.434 . S
C1839 C1840 1.369 . S
C1839 C1841 1.419 . S
C1839 H1843 0.930 . S
C1840 C1839 1.369 . S
C1840 C1849 1.429 . S
C1841 C1839 1.419 . S
C1841 C1842 1.363 . S
C1841 H1844 0.929 . S
C1842 C1841 1.363 . S
C1842 C1848 1.428 . S
H1843 C1839 0.930 . S
H1844 C1841 0.929 . S
S1845 N1846 1.613 . S
S1845 N1847 1.610 . S
N1846 S1845 1.613 . S
N1846 C1849 1.350 . S
N1847 S1845 1.610 . S
N1847 C1848 1.351 . S
C1848 C1842 1.428 . S
C1848 N1847 1.351 . S
C1848 C1849 1.434 . S
C1849 C1840 1.429 . S
C1849 N1846 1.350 . S
C1849 C1848 1.434 . S
C1850 C1851 1.369 . S
C1850 C1852 1.419 . S
C1850 H1854 0.930 . S
C1851 C1850 1.369 . S
C1851 C1860 1.429 . S
C1852 C1850 1.419 . S
C1852 C1853 1.363 . S
C1852 H1855 0.929 . S
C1853 C1852 1.363 . S
C1853 C1859 1.428 . S
H1854 C1850 0.930 . S
H1855 C1852 0.929 . S
S1856 N1857 1.613 . S
S1856 N1858 1.610 . S
N1857 S1856 1.613 . S
N1857 C1860 1.350 . S
N1858 S1856 1.610 . S
N1858 C1859 1.351 . S
C1859 C1853 1.428 . S
C1859 N1858 1.351 . S
C1859 C1860 1.434 . S
C1860 C1851 1.429 . S
C1860 N1857 1.350 . S
C1860 C1859 1.434 . S
C1861 C1862 1.369 . S
C1861 C1863 1.419 . S
C1861 H1865 0.930 . S
C1862 C1861 1.369 . S
C1862 C1871 1.429 . S
C1863 C1861 1.419 . S
C1863 C1864 1.363 . S
C1863 H1866 0.929 . S
C1864 C1863 1.363 . S
C1864 C1870 1.428 . S
H1865 C1861 0.930 . S
H1866 C1863 0.929 . S
S1867 N1868 1.613 . S
S1867 N1869 1.610 . S
N1868 S1867 1.613 . S
N1868 C1871 1.350 . S
N1869 S1867 1.610 . S
N1869 C1870 1.351 . S
C1870 C1864 1.428 . S
C1870 N1869 1.351 . S
C1870 C1871 1.434 . S
C1871 C1862 1.429 . S
C1871 N1868 1.350 . S
C1871 C1870 1.434 . S
C1872 C1873 1.369 1_655 S
C1872 C1874 1.419 . S
C1872 H1876 0.930 . S
C1873 C1872 1.369 1_455 S
C1873 C1882 1.429 . S
C1874 C1872 1.419 . S
C1874 C1875 1.363 . S
C1874 H1877 0.929 . S
C1875 C1874 1.363 . S
C1875 C1881 1.428 . S
H1876 C1872 0.930 . S
H1877 C1874 0.929 . S
S1878 N1879 1.613 . S
S1878 N1880 1.624 . S
N1879 S1878 1.613 . S
N1879 C1882 1.350 . S
N1880 S1878 1.624 . S
N1880 C1881 1.347 1_455 S
C1881 C1875 1.428 . S
C1881 N1880 1.347 1_655 S
C1881 C1882 1.434 1_655 S
C1882 C1873 1.429 . S
C1882 N1879 1.350 . S
C1882 C1881 1.434 1_455 S
C1883 C1884 1.369 . S
C1883 C1885 1.419 . S
C1883 H1887 0.930 . S
C1884 C1883 1.369 . S
C1884 C1893 1.428 1_655 S
C1885 C1883 1.419 . S
C1885 C1886 1.363 1_655 S
C1885 H1888 0.929 . S
C1886 C1885 1.363 1_455 S
C1886 C1892 1.428 . S
H1887 C1883 0.930 . S
H1888 C1885 0.929 . S
S1889 N1890 1.613 . S
S1889 N1891 1.610 . S
N1890 S1889 1.613 . S
N1890 C1893 1.350 . S
N1891 S1889 1.610 . S
N1891 C1892 1.351 . S
C1892 C1886 1.428 . S
C1892 N1891 1.351 . S
C1892 C1893 1.434 . S
C1893 C1884 1.428 1_455 S
C1893 N1890 1.350 . S
C1893 C1892 1.434 . S
C1894 C1895 1.369 . S
C1894 C1896 1.419 1_655 S
C1894 H1898 0.930 . S
C1895 C1894 1.369 . S
C1895 C1904 1.429 1_655 S
C1896 C1894 1.419 1_455 S
C1896 C1897 1.363 . S
C1896 H1899 0.929 . S
C1897 C1896 1.363 . S
C1897 C1903 1.428 . S
H1898 C1894 0.930 . S
H1899 C1896 0.929 . S
S1900 N1901 1.613 . S
S1900 N1902 1.610 . S
N1901 S1900 1.613 . S
N1901 C1904 1.350 . S
N1902 S1900 1.610 . S
N1902 C1903 1.351 . S
C1903 C1897 1.428 . S
C1903 N1902 1.351 . S
C1903 C1904 1.434 . S
C1904 C1895 1.429 1_455 S
C1904 N1901 1.350 . S
C1904 C1903 1.434 . S
C1905 C1906 1.369 1_455 S
C1905 C1907 1.419 . S
C1905 H1909 0.930 . S
C1906 C1905 1.369 1_655 S
C1906 C1915 1.429 . S
C1907 C1905 1.419 . S
C1907 C1908 1.363 . S
C1907 H1910 0.929 . S
C1908 C1907 1.363 . S
C1908 C1914 1.428 . S
H1909 C1905 0.930 . S
H1910 C1907 0.929 . S
S1911 N1912 1.613 . S
S1911 N1913 1.610 1_655 S
N1912 S1911 1.613 . S
N1912 C1915 1.350 . S
N1913 S1911 1.610 1_455 S
N1913 C1914 1.351 . S
C1914 C1908 1.428 . S
C1914 N1913 1.351 . S
C1914 C1915 1.434 1_455 S
C1915 C1906 1.429 . S
C1915 N1912 1.350 . S
C1915 C1914 1.434 1_655 S
C1916 C1917 1.369 . S
C1916 C1918 1.406 1_455 S
C1916 H1920 0.930 . S
C1917 C1916 1.369 . S
C1917 C1926 1.429 1_455 S
C1918 C1916 1.406 1_655 S
C1918 C1919 1.385 . S
C1918 H1921 0.920 1_655 S
C1919 C1918 1.385 . S
C1919 C1925 1.428 . S
H1920 C1916 0.930 . S
H1921 C1918 0.920 1_455 S
S1922 N1923 1.613 . S
S1922 N1924 1.610 . S
N1923 S1922 1.613 . S
N1923 C1926 1.350 . S
N1924 S1922 1.610 . S
N1924 C1925 1.351 . S
C1925 C1919 1.428 . S
C1925 N1924 1.351 . S
C1925 C1926 1.434 . S
C1926 C1917 1.429 1_655 S
C1926 N1923 1.350 . S
C1926 C1925 1.434 . S
C1927 C1928 1.369 . S
C1927 C1929 1.419 . S
C1927 H1931 0.930 . S
C1928 C1927 1.369 . S
C1928 C1937 1.429 . S
C1929 C1927 1.419 . S
C1929 C1930 1.363 . S
C1929 H1932 0.929 . S
C1930 C1929 1.363 . S
C1930 C1936 1.428 . S
H1931 C1927 0.930 . S
H1932 C1929 0.929 . S
S1933 N1934 1.613 . S
S1933 N1935 1.610 . S
N1934 S1933 1.613 . S
N1934 C1937 1.350 . S
N1935 S1933 1.610 . S
N1935 C1936 1.351 . S
C1936 C1930 1.428 . S
C1936 N1935 1.351 . S
C1936 C1937 1.434 . S
C1937 C1928 1.429 . S
C1937 N1934 1.350 . S
C1937 C1936 1.434 . S
C1938 C1939 1.369 1_455 S
C1938 C1940 1.419 . S
C1938 H1942 0.930 . S
C1939 C1938 1.369 1_655 S
C1939 C1948 1.429 . S
C1940 C1938 1.419 . S
C1940 C1941 1.363 . S
C1940 H1943 0.929 . S
C1941 C1940 1.363 . S
C1941 C1947 1.428 . S
H1942 C1938 0.930 . S
H1943 C1940 0.929 . S
S1944 N1945 1.621 . S
S1944 N1946 1.600 1_655 S
N1945 S1944 1.621 . S
N1945 C1948 1.350 . S
N1946 S1944 1.600 1_455 S
N1946 C1947 1.351 . S
C1947 C1941 1.428 . S
C1947 N1946 1.351 . S
C1947 C1948 1.434 1_455 S
C1948 C1939 1.429 . S
C1948 N1945 1.350 . S
C1948 C1947 1.434 1_655 S
C1949 C1950 1.369 . S
C1949 C1951 1.419 . S
C1949 H1953 0.930 . S
C1950 C1949 1.369 . S
C1950 C1959 1.429 . S
C1951 C1949 1.419 . S
C1951 C1952 1.363 . S
C1951 H1954 0.929 . S
C1952 C1951 1.363 . S
C1952 C1958 1.428 . S
H1953 C1949 0.930 . S
H1954 C1951 0.929 . S
S1955 N1956 1.613 . S
S1955 N1957 1.610 . S
N1956 S1955 1.613 . S
N1956 C1959 1.350 . S
N1957 S1955 1.610 . S
N1957 C1958 1.351 . S
C1958 C1952 1.428 . S
C1958 N1957 1.351 . S
C1958 C1959 1.434 . S
C1959 C1950 1.429 . S
C1959 N1956 1.350 . S
C1959 C1958 1.434 . S
C1960 C1961 1.369 . S
C1960 C1962 1.419 1_545 S
C1960 H1964 0.930 . S
C1961 C1960 1.369 . S
C1961 C1970 1.429 1_545 S
C1962 C1960 1.419 1_565 S
C1962 C1963 1.363 . S
C1962 H1965 0.929 . S
C1963 C1962 1.363 . S
C1963 C1969 1.428 . S
H1964 C1960 0.930 . S
H1965 C1962 0.929 . S
S1966 N1967 1.613 . S
S1966 N1968 1.610 . S
N1967 S1966 1.613 . S
N1967 C1970 1.350 . S
N1968 S1966 1.610 . S
N1968 C1969 1.351 . S
C1969 C1963 1.428 . S
C1969 N1968 1.351 . S
C1969 C1970 1.434 . S
C1970 C1961 1.429 1_565 S
C1970 N1967 1.350 . S
C1970 C1969 1.434 . S
C1971 C1972 1.369 . S
C1971 C1973 1.419 . S
C1971 H1975 0.930 . S
C1972 C1971 1.369 . S
C1972 C1981 1.429 . S
C1973 C1971 1.419 . S
C1973 C1974 1.363 . S
C1973 H1976 0.929 . S
C1974 C1973 1.363 . S
C1974 C1980 1.428 . S
H1975 C1971 0.930 . S
H1976 C1973 0.929 . S
S1977 N1978 1.613 . S
S1977 N1979 1.610 . S
N1978 S1977 1.613 . S
N1978 C1981 1.350 . S
N1979 S1977 1.610 . S
N1979 C1980 1.351 . S
C1980 C1974 1.428 . S
C1980 N1979 1.351 . S
C1980 C1981 1.434 . S
C1981 C1972 1.429 . S
C1981 N1978 1.350 . S
C1981 C1980 1.434 . S
C1982 C1983 1.369 . S
C1982 C1984 1.419 . S
C1982 H1986 0.930 . S
C1983 C1982 1.369 . S
C1983 C1992 1.429 . S
C1984 C1982 1.419 . S
C1984 C1985 1.363 . S
C1984 H1987 0.929 . S
C1985 C1984 1.363 . S
C1985 C1991 1.428 . S
H1986 C1982 0.930 . S
H1987 C1984 0.929 . S
S1988 N1989 1.613 . S
S1988 N1990 1.610 . S
N1989 S1988 1.613 . S
N1989 C1992 1.350 . S
N1990 S1988 1.610 . S
N1990 C1991 1.351 . S
C1991 C1985 1.428 . S
C1991 N1990 1.351 . S
C1991 C1992 1.434 . S
C1992 C1983 1.429 . S
C1992 N1989 1.350 . S
C1992 C1991 1.434 . S
C1993 C1994 1.369 . S
C1993 C1995 1.419 . S
C1993 H1997 0.930 . S
C1994 C1993 1.369 . S
C1994 C2003 1.429 . S
C1995 C1993 1.419 . S
C1995 C1996 1.363 1_554 S
C1995 H1998 0.929 . S
C1996 C1995 1.363 1_556 S
C1996 C2002 1.428 . S
H1997 C1993 0.930 . S
H1998 C1995 0.929 . S
S1999 N2000 1.613 1_556 S
S1999 N2001 1.610 . S
N2000 S1999 1.613 1_554 S
N2000 C2003 1.350 . S
N2001 S1999 1.610 . S
N2001 C2002 1.351 . S
C2002 C1996 1.428 . S
C2002 N2001 1.351 . S
C2002 C2003 1.434 1_556 S
C2003 C1994 1.429 . S
C2003 N2000 1.350 . S
C2003 C2002 1.434 1_554 S
C2004 C2005 1.369 . S
C2004 C2006 1.419 . S
C2004 H2008 0.930 . S
C2005 C2004 1.369 . S
C2005 C2014 1.429 . S
C2006 C2004 1.419 . S
C2006 C2007 1.363 1_545 S
C2006 H2009 0.929 . S
C2007 C2006 1.363 1_565 S
C2007 C2013 1.428 . S
H2008 C2004 0.930 . S
H2009 C2006 0.929 . S
S2010 N2011 1.615 . S
S2010 N2012 1.610 . S
N2011 S2010 1.615 . S
N2011 C2014 1.349 1_565 S
N2012 S2010 1.610 . S
N2012 C2013 1.351 . S
C2013 C2007 1.428 . S
C2013 N2012 1.351 . S
C2013 C2014 1.434 1_565 S
C2014 C2005 1.429 . S
C2014 N2011 1.349 1_545 S
C2014 C2013 1.434 1_545 S
C2015 C2016 1.369 . S
C2015 C2017 1.419 1_554 S
C2015 H2019 0.930 . S
C2016 C2015 1.369 . S
C2016 C2025 1.429 1_554 S
C2017 C2015 1.419 1_556 S
C2017 C2018 1.363 . S
C2017 H2020 0.929 1_556 S
C2018 C2017 1.363 . S
C2018 C2024 1.428 . S
H2019 C2015 0.930 . S
H2020 C2017 0.929 1_554 S
S2021 N2022 1.613 . S
S2021 N2023 1.610 . S
N2022 S2021 1.613 . S
N2022 C2025 1.350 . S
N2023 S2021 1.610 . S
N2023 C2024 1.351 . S
C2024 C2018 1.428 . S
C2024 N2023 1.351 . S
C2024 C2025 1.434 . S
C2025 C2016 1.429 1_556 S
C2025 N2022 1.350 . S
C2025 C2024 1.434 . S
C2026 C2027 1.369 . S
C2026 C2028 1.419 . S
C2026 H2030 0.930 . S
C2027 C2026 1.369 . S
C2027 C2036 1.429 . S
C2028 C2026 1.419 . S
C2028 C2029 1.363 . S
C2028 H2031 0.929 . S
C2029 C2028 1.363 . S
C2029 C2035 1.428 . S
H2030 C2026 0.930 . S
H2031 C2028 0.929 . S
S2032 N2033 1.613 . S
S2032 N2034 1.610 . S
N2033 S2032 1.613 . S
N2033 C2036 1.350 . S
N2034 S2032 1.610 . S
N2034 C2035 1.351 . S
C2035 C2029 1.428 . S
C2035 N2034 1.351 . S
C2035 C2036 1.434 . S
C2036 C2027 1.429 . S
C2036 N2033 1.350 . S
C2036 C2035 1.434 . S
C2037 C2038 1.369 . S
C2037 C2039 1.419 . S
C2037 H2041 0.930 . S
C2038 C2037 1.369 . S
C2038 C2047 1.429 . S
C2039 C2037 1.419 . S
C2039 C2040 1.363 . S
C2039 H2042 0.929 . S
C2040 C2039 1.363 . S
C2040 C2046 1.428 . S
H2041 C2037 0.930 . S
H2042 C2039 0.929 . S
S2043 N2044 1.613 . S
S2043 N2045 1.610 . S
N2044 S2043 1.613 . S
N2044 C2047 1.350 . S
N2045 S2043 1.610 . S
N2045 C2046 1.351 . S
C2046 C2040 1.428 . S
C2046 N2045 1.351 . S
C2046 C2047 1.434 . S
C2047 C2038 1.429 . S
C2047 N2044 1.350 . S
C2047 C2046 1.434 . S
C2048 C2049 1.369 . S
C2048 C2050 1.419 1_556 S
C2048 H2052 0.930 1_556 S
C2049 C2048 1.369 . S
C2049 C2058 1.429 . S
C2050 C2048 1.419 1_554 S
C2050 C2051 1.363 . S
C2050 H2053 0.929 . S
C2051 C2050 1.363 . S
C2051 C2057 1.428 1_554 S
H2052 C2048 0.930 1_554 S
H2053 C2050 0.929 . S
S2054 N2055 1.613 . S
S2054 N2056 1.610 . S
N2055 S2054 1.613 . S
N2055 C2058 1.350 . S
N2056 S2054 1.610 . S
N2056 C2057 1.351 . S
C2057 C2051 1.428 1_556 S
C2057 N2056 1.351 . S
C2057 C2058 1.434 . S
C2058 C2049 1.429 . S
C2058 N2055 1.350 . S
C2058 C2057 1.434 . S
C2059 C2060 1.369 . S
C2059 C2061 1.419 . S
C2059 H2063 0.930 . S
C2060 C2059 1.369 . S
C2060 C2069 1.429 . S
C2061 C2059 1.419 . S
C2061 C2062 1.363 . S
C2061 H2064 0.929 . S
C2062 C2061 1.363 . S
C2062 C2068 1.428 . S
H2063 C2059 0.930 . S
H2064 C2061 0.929 . S
S2065 N2066 1.613 . S
S2065 N2067 1.610 . S
N2066 S2065 1.613 . S
N2066 C2069 1.350 . S
N2067 S2065 1.610 . S
N2067 C2068 1.351 . S
C2068 C2062 1.428 . S
C2068 N2067 1.351 . S
C2068 C2069 1.434 . S
C2069 C2060 1.429 . S
C2069 N2066 1.350 . S
C2069 C2068 1.434 . S
C2070 C2071 1.369 . S
C2070 C2072 1.419 1_545 S
C2070 H2074 0.930 . S
C2071 C2070 1.369 . S
C2071 C2080 1.429 . S
C2072 C2070 1.419 1_565 S
C2072 C2073 1.363 . S
C2072 H2075 0.929 . S
C2073 C2072 1.363 . S
C2073 C2079 1.428 1_565 S
H2074 C2070 0.930 . S
H2075 C2072 0.929 . S
S2076 N2077 1.613 . S
S2076 N2078 1.610 . S
N2077 S2076 1.613 . S
N2077 C2080 1.350 . S
N2078 S2076 1.610 . S
N2078 C2079 1.351 . S
C2079 C2073 1.428 1_545 S
C2079 N2078 1.351 . S
C2079 C2080 1.434 . S
C2080 C2071 1.429 . S
C2080 N2077 1.350 . S
C2080 C2079 1.434 . S
C2081 C2082 1.369 1_554 S
C2081 C2083 1.419 . S
C2081 H2085 0.930 . S
C2082 C2081 1.369 1_556 S
C2082 C2091 1.429 . S
C2083 C2081 1.419 . S
C2083 C2084 1.363 . S
C2083 H2086 0.929 . S
C2084 C2083 1.363 . S
C2084 C2090 1.428 . S
H2085 C2081 0.930 . S
H2086 C2083 0.929 . S
S2087 N2088 1.613 . S
S2087 N2089 1.645 . S
N2088 S2087 1.613 . S
N2088 C2091 1.350 . S
N2089 S2087 1.645 . S
N2089 C2090 1.340 1_556 S
C2090 C2084 1.428 . S
C2090 N2089 1.340 1_554 S
C2090 C2091 1.434 1_554 S
C2091 C2082 1.429 . S
C2091 N2088 1.350 . S
C2091 C2090 1.434 1_556 S
C2092 C2093 1.369 1_556 S
C2092 C2094 1.419 . S
C2092 H2096 0.930 . S
C2093 C2092 1.369 1_554 S
C2093 C2102 1.429 . S
C2094 C2092 1.419 . S
C2094 C2095 1.363 . S
C2094 H2097 0.929 . S
C2095 C2094 1.363 . S
C2095 C2101 1.428 . S
H2096 C2092 0.930 . S
H2097 C2094 0.929 . S
S2098 N2099 1.613 . S
S2098 N2100 1.610 1_554 S
N2099 S2098 1.613 . S
N2099 C2102 1.350 . S
N2100 S2098 1.610 1_556 S
N2100 C2101 1.351 . S
C2101 C2095 1.428 . S
C2101 N2100 1.351 . S
C2101 C2102 1.434 1_556 S
C2102 C2093 1.429 . S
C2102 N2099 1.350 . S
C2102 C2101 1.434 1_554 S
C2103 C2104 1.369 . S
C2103 C2105 1.419 . S
C2103 H2107 0.930 . S
C2104 C2103 1.369 . S
C2104 C2113 1.429 . S
C2105 C2103 1.419 . S
C2105 C2106 1.363 . S
C2105 H2108 0.929 . S
C2106 C2105 1.363 . S
C2106 C2112 1.428 . S
H2107 C2103 0.930 . S
H2108 C2105 0.929 . S
S2109 N2110 1.613 . S
S2109 N2111 1.610 . S
N2110 S2109 1.613 . S
N2110 C2113 1.350 . S
N2111 S2109 1.610 . S
N2111 C2112 1.351 . S
C2112 C2106 1.428 . S
C2112 N2111 1.351 . S
C2112 C2113 1.434 . S
C2113 C2104 1.429 . S
C2113 N2110 1.350 . S
C2113 C2112 1.434 . S
C2114 C2115 1.369 1_545 S
C2114 C2116 1.419 . S
C2114 H2118 0.930 . S
C2115 C2114 1.369 1_565 S
C2115 C2124 1.429 . S
C2116 C2114 1.419 . S
C2116 C2117 1.363 . S
C2116 H2119 0.929 . S
C2117 C2116 1.363 . S
C2117 C2123 1.428 . S
H2118 C2114 0.930 . S
H2119 C2116 0.929 . S
S2120 N2121 1.613 . S
S2120 N2122 1.610 1_565 S
N2121 S2120 1.613 . S
N2121 C2124 1.350 . S
N2122 S2120 1.610 1_545 S
N2122 C2123 1.351 . S
C2123 C2117 1.428 . S
C2123 N2122 1.351 . S
C2123 C2124 1.434 1_545 S
C2124 C2115 1.429 . S
C2124 N2121 1.350 . S
C2124 C2123 1.434 1_565 S
C2125 C2126 1.369 . S
C2125 C2127 1.419 1_455 S
C2125 H2129 0.930 . S
C2126 C2125 1.369 . S
C2126 C2135 1.429 1_455 S
C2127 C2125 1.419 1_655 S
C2127 C2128 1.363 . S
C2127 H2130 0.929 . S
C2128 C2127 1.363 . S
C2128 C2134 1.428 . S
H2129 C2125 0.930 . S
H2130 C2127 0.929 . S
S2131 N2132 1.613 . S
S2131 N2133 1.610 . S
N2132 S2131 1.613 . S
N2132 C2135 1.350 . S
N2133 S2131 1.610 . S
N2133 C2134 1.351 . S
C2134 C2128 1.428 . S
C2134 N2133 1.351 . S
C2134 C2135 1.434 . S
C2135 C2126 1.429 1_655 S
C2135 N2132 1.350 . S
C2135 C2134 1.434 . S
C2136 C2137 1.369 . S
C2136 C2138 1.419 . S
C2136 H2140 0.930 . S
C2137 C2136 1.369 . S
C2137 C2146 1.429 . S
C2138 C2136 1.419 . S
C2138 C2139 1.363 1_455 S
C2138 H2141 0.929 . S
C2139 C2138 1.363 1_655 S
C2139 C2145 1.428 . S
H2140 C2136 0.930 . S
H2141 C2138 0.929 . S
S2142 N2143 1.613 1_655 S
S2142 N2144 1.610 . S
N2143 S2142 1.613 1_455 S
N2143 C2146 1.350 . S
N2144 S2142 1.610 . S
N2144 C2145 1.351 . S
C2145 C2139 1.428 . S
C2145 N2144 1.351 . S
C2145 C2146 1.434 1_655 S
C2146 C2137 1.429 . S
C2146 N2143 1.350 . S
C2146 C2145 1.434 1_455 S
C2147 C2148 1.369 . S
C2147 C2149 1.419 . S
C2147 H2151 0.930 . S
C2148 C2147 1.369 . S
C2148 C2157 1.429 . S
C2149 C2147 1.419 . S
C2149 C2150 1.363 . S
C2149 H2152 0.929 . S
C2150 C2149 1.363 . S
C2150 C2156 1.428 . S
H2151 C2147 0.930 . S
H2152 C2149 0.929 . S
S2153 N2154 1.613 . S
S2153 N2155 1.610 . S
N2154 S2153 1.613 . S
N2154 C2157 1.350 . S
N2155 S2153 1.610 . S
N2155 C2156 1.351 . S
C2156 C2150 1.428 . S
C2156 N2155 1.351 . S
C2156 C2157 1.434 . S
C2157 C2148 1.429 . S
C2157 N2154 1.350 . S
C2157 C2156 1.434 . S
C2158 C2159 1.369 . S
C2158 C2160 1.419 . S
C2158 H2162 0.930 . S
C2159 C2158 1.369 . S
C2159 C2168 1.429 . S
C2160 C2158 1.419 . S
C2160 C2161 1.363 . S
C2160 H2163 0.929 . S
C2161 C2160 1.363 . S
C2161 C2167 1.428 . S
H2162 C2158 0.930 . S
H2163 C2160 0.929 . S
S2164 N2165 1.613 . S
S2164 N2166 1.610 . S
N2165 S2164 1.613 . S
N2165 C2168 1.350 . S
N2166 S2164 1.610 . S
N2166 C2167 1.351 . S
C2167 C2161 1.428 . S
C2167 N2166 1.351 . S
C2167 C2168 1.434 . S
C2168 C2159 1.429 . S
C2168 N2165 1.350 . S
C2168 C2167 1.434 . S
C2169 C2170 1.369 . S
C2169 C2171 1.419 . S
C2169 H2173 0.930 . S
C2170 C2169 1.369 . S
C2170 C2179 1.429 . S
C2171 C2169 1.419 . S
C2171 C2172 1.363 . S
C2171 H2174 0.929 . S
C2172 C2171 1.363 . S
C2172 C2178 1.428 . S
H2173 C2169 0.930 . S
H2174 C2171 0.929 . S
S2175 N2176 1.613 . S
S2175 N2177 1.610 . S
N2176 S2175 1.613 . S
N2176 C2179 1.350 . S
N2177 S2175 1.610 . S
N2177 C2178 1.351 . S
C2178 C2172 1.428 . S
C2178 N2177 1.351 . S
C2178 C2179 1.434 . S
C2179 C2170 1.429 . S
C2179 N2176 1.350 . S
C2179 C2178 1.434 . S
C2180 C2181 1.369 . S
C2180 C2182 1.419 . S
C2180 H2184 0.930 . S
C2181 C2180 1.369 . S
C2181 C2190 1.429 1_554 S
C2182 C2180 1.419 . S
C2182 C2183 1.363 1_554 S
C2182 H2185 0.929 . S
C2183 C2182 1.363 1_556 S
C2183 C2189 1.428 . S
H2184 C2180 0.930 . S
H2185 C2182 0.929 . S
S2186 N2187 1.613 . S
S2186 N2188 1.610 . S
N2187 S2186 1.613 . S
N2187 C2190 1.350 . S
N2188 S2186 1.610 . S
N2188 C2189 1.351 . S
C2189 C2183 1.428 . S
C2189 N2188 1.351 . S
C2189 C2190 1.434 . S
C2190 C2181 1.429 1_556 S
C2190 N2187 1.350 . S
C2190 C2189 1.434 . S
C2191 C2192 1.369 1_545 S
C2191 C2193 1.419 . S
C2191 H2195 0.930 . S
C2192 C2191 1.369 1_565 S
C2192 C2201 1.429 . S
C2193 C2191 1.419 . S
C2193 C2194 1.363 . S
C2193 H2196 0.929 . S
C2194 C2193 1.363 . S
C2194 C2200 1.428 1_545 S
H2195 C2191 0.930 . S
H2196 C2193 0.929 . S
S2197 N2198 1.613 . S
S2197 N2199 1.610 . S
N2198 S2197 1.613 . S
N2198 C2201 1.350 . S
N2199 S2197 1.610 . S
N2199 C2200 1.351 . S
C2200 C2194 1.428 1_565 S
C2200 N2199 1.351 . S
C2200 C2201 1.434 . S
C2201 C2192 1.429 . S
C2201 N2198 1.350 . S
C2201 C2200 1.434 . S
C2202 C2203 1.369 . S
C2202 C2204 1.419 . S
C2202 H2206 0.930 . S
C2203 C2202 1.369 . S
C2203 C2212 1.429 . S
C2204 C2202 1.419 . S
C2204 C2205 1.363 . S
C2204 H2207 0.929 . S
C2205 C2204 1.363 . S
C2205 C2211 1.428 . S
H2206 C2202 0.930 . S
H2207 C2204 0.929 . S
S2208 N2209 1.613 . S
S2208 N2210 1.610 . S
N2209 S2208 1.613 . S
N2209 C2212 1.350 . S
N2210 S2208 1.610 . S
N2210 C2211 1.351 . S
C2211 C2205 1.428 . S
C2211 N2210 1.351 . S
C2211 C2212 1.434 . S
C2212 C2203 1.429 . S
C2212 N2209 1.350 . S
C2212 C2211 1.434 . S
C2213 C2214 1.369 . S
C2213 C2215 1.419 . S
C2213 H2217 0.930 . S
C2214 C2213 1.369 . S
C2214 C2223 1.429 . S
C2215 C2213 1.419 . S
C2215 C2216 1.363 . S
C2215 H2218 0.929 . S
C2216 C2215 1.363 . S
C2216 C2222 1.428 . S
H2217 C2213 0.930 . S
H2218 C2215 0.929 . S
S2219 N2220 1.613 . S
S2219 N2221 1.610 . S
N2220 S2219 1.613 . S
N2220 C2223 1.350 . S
N2221 S2219 1.610 . S
N2221 C2222 1.351 . S
C2222 C2216 1.428 . S
C2222 N2221 1.351 . S
C2222 C2223 1.434 . S
C2223 C2214 1.429 . S
C2223 N2220 1.350 . S
C2223 C2222 1.434 . S
C2224 C2225 1.369 . S
C2224 C2226 1.419 . S
C2224 H2228 0.930 . S
C2225 C2224 1.369 . S
C2225 C2234 1.429 . S
C2226 C2224 1.419 . S
C2226 C2227 1.363 . S
C2226 H2229 0.929 . S
C2227 C2226 1.363 . S
C2227 C2233 1.428 . S
H2228 C2224 0.930 . S
H2229 C2226 0.929 . S
S2230 N2231 1.613 . S
S2230 N2232 1.610 . S
N2231 S2230 1.613 . S
N2231 C2234 1.350 . S
N2232 S2230 1.610 . S
N2232 C2233 1.351 . S
C2233 C2227 1.428 . S
C2233 N2232 1.351 . S
C2233 C2234 1.434 . S
C2234 C2225 1.429 . S
C2234 N2231 1.350 . S
C2234 C2233 1.434 . S
C2235 C2236 1.369 . S
C2235 C2237 1.419 1_565 S
C2235 H2239 0.918 1_565 S
C2236 C2235 1.369 . S
C2236 C2245 1.429 . S
C2237 C2235 1.419 1_545 S
C2237 C2238 1.363 . S
C2237 H2240 0.929 . S
C2238 C2237 1.363 . S
C2238 C2244 1.428 1_545 S
H2239 C2235 0.918 1_545 S
H2240 C2237 0.929 . S
S2241 N2242 1.613 . S
S2241 N2243 1.610 . S
N2242 S2241 1.613 . S
N2242 C2245 1.350 . S
N2243 S2241 1.610 . S
N2243 C2244 1.351 . S
C2244 C2238 1.428 1_565 S
C2244 N2243 1.351 . S
C2244 C2245 1.434 . S
C2245 C2236 1.429 . S
C2245 N2242 1.350 . S
C2245 C2244 1.434 . S
C2246 C2247 1.369 . S
C2246 C2248 1.419 1_554 S
C2246 H2250 0.930 . S
C2247 C2246 1.369 . S
C2247 C2256 1.429 1_554 S
C2248 C2246 1.419 1_556 S
C2248 C2249 1.363 . S
C2248 H2251 0.929 1_556 S
C2249 C2248 1.363 . S
C2249 C2255 1.428 . S
H2250 C2246 0.930 . S
H2251 C2248 0.929 1_554 S
S2252 N2253 1.613 . S
S2252 N2254 1.610 . S
N2253 S2252 1.613 . S
N2253 C2256 1.350 . S
N2254 S2252 1.610 . S
N2254 C2255 1.351 . S
C2255 C2249 1.428 . S
C2255 N2254 1.351 . S
C2255 C2256 1.434 . S
C2256 C2247 1.429 1_556 S
C2256 N2253 1.350 . S
C2256 C2255 1.434 . S
C2257 C2258 1.369 . S
C2257 C2259 1.419 . S
C2257 H2261 0.930 . S
C2258 C2257 1.369 . S
C2258 C2267 1.429 . S
C2259 C2257 1.419 . S
C2259 C2260 1.363 . S
C2259 H2262 0.929 . S
C2260 C2259 1.363 . S
C2260 C2266 1.428 . S
H2261 C2257 0.930 . S
H2262 C2259 0.929 . S
S2263 N2264 1.613 . S
S2263 N2265 1.610 . S
N2264 S2263 1.613 . S
N2264 C2267 1.350 . S
N2265 S2263 1.610 . S
N2265 C2266 1.351 . S
C2266 C2260 1.428 . S
C2266 N2265 1.351 . S
C2266 C2267 1.434 . S
C2267 C2258 1.429 . S
C2267 N2264 1.350 . S
C2267 C2266 1.434 . S
C2268 C2269 1.369 1_554 S
C2268 C2270 1.419 . S
C2268 H2272 0.930 . S
C2269 C2268 1.369 1_556 S
C2269 C2278 1.429 . S
C2270 C2268 1.419 . S
C2270 C2271 1.363 . S
C2270 H2273 0.929 . S
C2271 C2270 1.363 . S
C2271 C2277 1.420 1_554 S
H2272 C2268 0.930 . S
H2273 C2270 0.929 . S
S2274 N2275 1.613 . S
S2274 N2276 1.610 . S
N2275 S2274 1.613 . S
N2275 C2278 1.350 . S
N2276 S2274 1.610 . S
N2276 C2277 1.355 . S
C2277 C2271 1.420 1_556 S
C2277 N2276 1.355 . S
C2277 C2278 1.439 . S
C2278 C2269 1.429 . S
C2278 N2275 1.350 . S
C2278 C2277 1.439 . S
C2279 C2280 1.369 . S
C2279 C2281 1.419 . S
C2279 H2283 0.930 . S
C2280 C2279 1.369 . S
C2280 C2289 1.429 . S
C2281 C2279 1.419 . S
C2281 C2282 1.363 . S
C2281 H2284 0.929 . S
C2282 C2281 1.363 . S
C2282 C2288 1.428 . S
H2283 C2279 0.930 . S
H2284 C2281 0.929 . S
S2285 N2286 1.613 . S
S2285 N2287 1.610 . S
N2286 S2285 1.613 . S
N2286 C2289 1.350 . S
N2287 S2285 1.610 . S
N2287 C2288 1.351 . S
C2288 C2282 1.428 . S
C2288 N2287 1.351 . S
C2288 C2289 1.434 . S
C2289 C2280 1.429 . S
C2289 N2286 1.350 . S
C2289 C2288 1.434 . S
C2290 C2291 1.369 . S
C2290 C2292 1.419 . S
C2290 H2294 0.930 . S
C2291 C2290 1.369 . S
C2291 C2300 1.429 . S
C2292 C2290 1.419 . S
C2292 C2293 1.363 . S
C2292 H2295 0.929 . S
C2293 C2292 1.363 . S
C2293 C2299 1.428 . S
H2294 C2290 0.930 . S
H2295 C2292 0.929 . S
S2296 N2297 1.613 . S
S2296 N2298 1.610 . S
N2297 S2296 1.613 . S
N2297 C2300 1.350 . S
N2298 S2296 1.610 . S
N2298 C2299 1.351 . S
C2299 C2293 1.428 . S
C2299 N2298 1.351 . S
C2299 C2300 1.434 . S
C2300 C2291 1.429 . S
C2300 N2297 1.350 . S
C2300 C2299 1.434 . S
C2301 C2302 1.369 . S
C2301 C2303 1.419 . S
C2301 H2305 0.930 . S
C2302 C2301 1.369 . S
C2302 C2311 1.429 . S
C2303 C2301 1.419 . S
C2303 C2304 1.363 . S
C2303 H2306 0.929 . S
C2304 C2303 1.363 . S
C2304 C2310 1.428 . S
H2305 C2301 0.930 . S
H2306 C2303 0.929 . S
S2307 N2308 1.613 . S
S2307 N2309 1.610 . S
N2308 S2307 1.613 . S
N2308 C2311 1.350 . S
N2309 S2307 1.610 . S
N2309 C2310 1.351 . S
C2310 C2304 1.428 . S
C2310 N2309 1.351 . S
C2310 C2311 1.434 . S
C2311 C2302 1.429 . S
C2311 N2308 1.350 . S
C2311 C2310 1.434 . S
C2312 C2313 1.369 . S
C2312 C2314 1.419 1_545 S
C2312 H2316 0.930 . S
C2313 C2312 1.369 . S
C2313 C2322 1.429 1_545 S
C2314 C2312 1.419 1_565 S
C2314 C2315 1.363 . S
C2314 H2317 0.929 . S
C2315 C2314 1.363 . S
C2315 C2321 1.428 . S
H2316 C2312 0.930 . S
H2317 C2314 0.929 . S
S2318 N2319 1.613 . S
S2318 N2320 1.610 . S
N2319 S2318 1.613 . S
N2319 C2322 1.350 . S
N2320 S2318 1.610 . S
N2320 C2321 1.351 . S
C2321 C2315 1.428 . S
C2321 N2320 1.351 . S
C2321 C2322 1.434 . S
C2322 C2313 1.429 1_565 S
C2322 N2319 1.350 . S
C2322 C2321 1.434 . S
C2323 C2324 1.369 . S
C2323 C2325 1.419 . S
C2323 H2327 0.930 . S
C2324 C2323 1.369 . S
C2324 C2333 1.429 . S
C2325 C2323 1.419 . S
C2325 C2326 1.363 . S
C2325 H2328 0.929 . S
C2326 C2325 1.363 . S
C2326 C2332 1.428 . S
H2327 C2323 0.930 . S
H2328 C2325 0.929 . S
S2329 N2330 1.613 . S
S2329 N2331 1.610 . S
N2330 S2329 1.613 . S
N2330 C2333 1.350 . S
N2331 S2329 1.610 . S
N2331 C2332 1.351 . S
C2332 C2326 1.428 . S
C2332 N2331 1.351 . S
C2332 C2333 1.434 . S
C2333 C2324 1.429 . S
C2333 N2330 1.350 . S
C2333 C2332 1.434 . S
C2334 C2335 1.369 . S
C2334 C2336 1.419 . S
C2334 H2338 0.930 . S
C2335 C2334 1.369 . S
C2335 C2344 1.429 . S
C2336 C2334 1.419 . S
C2336 C2337 1.363 . S
C2336 H2339 0.929 . S
C2337 C2336 1.363 . S
C2337 C2343 1.428 . S
H2338 C2334 0.930 . S
H2339 C2336 0.929 . S
S2340 N2341 1.613 . S
S2340 N2342 1.610 . S
N2341 S2340 1.613 . S
N2341 C2344 1.350 . S
N2342 S2340 1.610 . S
N2342 C2343 1.351 . S
C2343 C2337 1.428 . S
C2343 N2342 1.351 . S
C2343 C2344 1.434 . S
C2344 C2335 1.429 . S
C2344 N2341 1.350 . S
C2344 C2343 1.434 . S
C2345 C2346 1.369 . S
C2345 C2347 1.419 . S
C2345 H2349 0.930 . S
C2346 C2345 1.369 . S
C2346 C2355 1.429 . S
C2347 C2345 1.419 . S
C2347 C2348 1.363 . S
C2347 H2350 0.929 . S
C2348 C2347 1.363 . S
C2348 C2354 1.428 . S
H2349 C2345 0.930 . S
H2350 C2347 0.929 . S
S2351 N2352 1.613 . S
S2351 N2353 1.610 . S
N2352 S2351 1.613 . S
N2352 C2355 1.350 . S
N2353 S2351 1.610 . S
N2353 C2354 1.351 . S
C2354 C2348 1.428 . S
C2354 N2353 1.351 . S
C2354 C2355 1.434 . S
C2355 C2346 1.429 . S
C2355 N2352 1.350 . S
C2355 C2354 1.434 . S
C2356 C2357 1.369 . S
C2356 C2358 1.419 . S
C2356 H2360 0.930 . S
C2357 C2356 1.369 . S
C2357 C2366 1.429 . S
C2358 C2356 1.419 . S
C2358 C2359 1.363 . S
C2358 H2361 0.929 . S
C2359 C2358 1.363 . S
C2359 C2365 1.428 . S
H2360 C2356 0.930 . S
H2361 C2358 0.929 . S
S2362 N2363 1.613 . S
S2362 N2364 1.610 . S
N2363 S2362 1.613 . S
N2363 C2366 1.350 . S
N2364 S2362 1.610 . S
N2364 C2365 1.351 . S
C2365 C2359 1.428 . S
C2365 N2364 1.351 . S
C2365 C2366 1.434 . S
C2366 C2357 1.429 . S
C2366 N2363 1.350 . S
C2366 C2365 1.434 . S
C2367 C2368 1.369 . S
C2367 C2369 1.419 . S
C2367 H2371 0.930 . S
C2368 C2367 1.369 . S
C2368 C2377 1.429 . S
C2369 C2367 1.419 . S
C2369 C2370 1.363 . S
C2369 H2372 0.929 . S
C2370 C2369 1.363 . S
C2370 C2376 1.428 . S
H2371 C2367 0.930 . S
H2372 C2369 0.929 . S
S2373 N2374 1.613 . S
S2373 N2375 1.610 . S
N2374 S2373 1.613 . S
N2374 C2377 1.350 . S
N2375 S2373 1.610 . S
N2375 C2376 1.351 . S
C2376 C2370 1.428 . S
C2376 N2375 1.351 . S
C2376 C2377 1.434 . S
C2377 C2368 1.429 . S
C2377 N2374 1.350 . S
C2377 C2376 1.434 . S
C2378 C2379 1.369 . S
C2378 C2380 1.419 . S
C2378 H2382 0.930 . S
C2379 C2378 1.369 . S
C2379 C2388 1.429 . S
C2380 C2378 1.419 . S
C2380 C2381 1.363 1_565 S
C2380 H2383 0.929 . S
C2381 C2380 1.363 1_545 S
C2381 C2387 1.428 . S
H2382 C2378 0.930 . S
H2383 C2380 0.929 . S
S2384 N2385 1.577 1_545 S
S2384 N2386 1.610 . S
N2385 S2384 1.577 1_565 S
N2385 C2388 1.360 . S
N2386 S2384 1.610 . S
N2386 C2387 1.351 . S
C2387 C2381 1.428 . S
C2387 N2386 1.351 . S
C2387 C2388 1.434 1_545 S
C2388 C2379 1.429 . S
C2388 N2385 1.360 . S
C2388 C2387 1.434 1_565 S
C2389 C2390 1.369 . S
C2389 C2391 1.419 . S
C2389 H2393 0.930 . S
C2390 C2389 1.369 . S
C2390 C2399 1.429 . S
C2391 C2389 1.419 . S
C2391 C2392 1.363 . S
C2391 H2394 0.929 . S
C2392 C2391 1.363 . S
C2392 C2398 1.428 . S
H2393 C2389 0.930 . S
H2394 C2391 0.929 . S
S2395 N2396 1.613 . S
S2395 N2397 1.610 . S
N2396 S2395 1.613 . S
N2396 C2399 1.350 . S
N2397 S2395 1.610 . S
N2397 C2398 1.351 . S
C2398 C2392 1.428 . S
C2398 N2397 1.351 . S
C2398 C2399 1.434 . S
C2399 C2390 1.429 . S
C2399 N2396 1.350 . S
C2399 C2398 1.434 . S
C2400 C2401 1.369 . S
C2400 C2402 1.419 . S
C2400 H2404 0.930 . S
C2401 C2400 1.369 . S
C2401 C2410 1.429 . S
C2402 C2400 1.419 . S
C2402 C2403 1.363 . S
C2402 H2405 0.929 . S
C2403 C2402 1.363 . S
C2403 C2409 1.428 . S
H2404 C2400 0.930 . S
H2405 C2402 0.929 . S
S2406 N2407 1.613 . S
S2406 N2408 1.610 . S
N2407 S2406 1.613 . S
N2407 C2410 1.350 . S
N2408 S2406 1.610 . S
N2408 C2409 1.351 . S
C2409 C2403 1.428 . S
C2409 N2408 1.351 . S
C2409 C2410 1.434 . S
C2410 C2401 1.429 . S
C2410 N2407 1.350 . S
C2410 C2409 1.434 . S
C2411 C2412 1.369 . S
C2411 C2413 1.419 . S
C2411 H2415 0.930 . S
C2412 C2411 1.369 . S
C2412 C2421 1.429 . S
C2413 C2411 1.419 . S
C2413 C2414 1.363 . S
C2413 H2416 0.929 . S
C2414 C2413 1.363 . S
C2414 C2420 1.428 . S
H2415 C2411 0.930 . S
H2416 C2413 0.929 . S
S2417 N2418 1.613 . S
S2417 N2419 1.610 . S
N2418 S2417 1.613 . S
N2418 C2421 1.350 . S
N2419 S2417 1.610 . S
N2419 C2420 1.351 . S
C2420 C2414 1.428 . S
C2420 N2419 1.351 . S
C2420 C2421 1.434 . S
C2421 C2412 1.429 . S
C2421 N2418 1.350 . S
C2421 C2420 1.434 . S
C2422 C2423 1.369 . S
C2422 C2424 1.419 . S
C2422 H2426 0.930 . S
C2423 C2422 1.369 . S
C2423 C2432 1.429 . S
C2424 C2422 1.419 . S
C2424 C2425 1.363 . S
C2424 H2427 0.929 . S
C2425 C2424 1.363 . S
C2425 C2431 1.428 . S
H2426 C2422 0.930 . S
H2427 C2424 0.929 . S
S2428 N2429 1.613 . S
S2428 N2430 1.610 . S
N2429 S2428 1.613 . S
N2429 C2432 1.350 . S
N2430 S2428 1.610 . S
N2430 C2431 1.351 . S
C2431 C2425 1.428 . S
C2431 N2430 1.351 . S
C2431 C2432 1.434 . S
C2432 C2423 1.429 . S
C2432 N2429 1.350 . S
C2432 C2431 1.434 . S
C2433 C2434 1.369 . S
C2433 C2435 1.419 . S
C2433 H2437 0.930 . S
C2434 C2433 1.369 . S
C2434 C2443 1.429 . S
C2435 C2433 1.419 . S
C2435 C2436 1.363 . S
C2435 H2438 0.929 . S
C2436 C2435 1.363 . S
C2436 C2442 1.428 . S
H2437 C2433 0.930 . S
H2438 C2435 0.929 . S
S2439 N2440 1.613 . S
S2439 N2441 1.610 . S
N2440 S2439 1.613 . S
N2440 C2443 1.350 . S
N2441 S2439 1.610 . S
N2441 C2442 1.351 . S
C2442 C2436 1.428 . S
C2442 N2441 1.351 . S
C2442 C2443 1.434 . S
C2443 C2434 1.429 . S
C2443 N2440 1.350 . S
C2443 C2442 1.434 . S
C2444 C2445 1.369 . S
C2444 C2446 1.419 . S
C2444 H2448 0.930 . S
C2445 C2444 1.369 . S
C2445 C2454 1.429 . S
C2446 C2444 1.419 . S
C2446 C2447 1.363 . S
C2446 H2449 0.929 . S
C2447 C2446 1.363 . S
C2447 C2453 1.428 . S
H2448 C2444 0.930 . S
H2449 C2446 0.929 . S
S2450 N2451 1.613 . S
S2450 N2452 1.610 . S
N2451 S2450 1.613 . S
N2451 C2454 1.350 . S
N2452 S2450 1.610 . S
N2452 C2453 1.351 . S
C2453 C2447 1.428 . S
C2453 N2452 1.351 . S
C2453 C2454 1.434 . S
C2454 C2445 1.429 . S
C2454 N2451 1.350 . S
C2454 C2453 1.434 . S
C2455 C2456 1.369 . S
C2455 C2457 1.419 . S
C2455 H2459 0.930 . S
C2456 C2455 1.369 . S
C2456 C2465 1.429 . S
C2457 C2455 1.419 . S
C2457 C2458 1.363 . S
C2457 H2460 0.929 . S
C2458 C2457 1.363 . S
C2458 C2464 1.428 . S
H2459 C2455 0.930 . S
H2460 C2457 0.929 . S
S2461 N2462 1.613 . S
S2461 N2463 1.610 . S
N2462 S2461 1.613 . S
N2462 C2465 1.350 . S
N2463 S2461 1.610 . S
N2463 C2464 1.351 . S
C2464 C2458 1.428 . S
C2464 N2463 1.351 . S
C2464 C2465 1.434 . S
C2465 C2456 1.429 . S
C2465 N2462 1.350 . S
C2465 C2464 1.434 . S
C2466 C2467 1.369 . S
C2466 C2468 1.419 . S
C2466 H2470 0.930 . S
C2467 C2466 1.369 . S
C2467 C2476 1.429 . S
C2468 C2466 1.419 . S
C2468 C2469 1.363 . S
C2468 H2471 0.929 . S
C2469 C2468 1.363 . S
C2469 C2475 1.428 . S
H2470 C2466 0.930 . S
H2471 C2468 0.929 . S
S2472 N2473 1.613 . S
S2472 N2474 1.610 . S
N2473 S2472 1.613 . S
N2473 C2476 1.350 . S
N2474 S2472 1.610 . S
N2474 C2475 1.351 . S
C2475 C2469 1.428 . S
C2475 N2474 1.351 . S
C2475 C2476 1.434 . S
C2476 C2467 1.429 . S
C2476 N2473 1.350 . S
C2476 C2475 1.434 . S
C2477 C2478 1.369 . S
C2477 C2479 1.419 . S
C2477 H2481 0.930 . S
C2478 C2477 1.369 . S
C2478 C2487 1.429 . S
C2479 C2477 1.419 . S
C2479 C2480 1.363 . S
C2479 H2482 0.929 . S
C2480 C2479 1.363 . S
C2480 C2486 1.428 . S
H2481 C2477 0.930 . S
H2482 C2479 0.929 . S
S2483 N2484 1.613 . S
S2483 N2485 1.610 . S
N2484 S2483 1.613 . S
N2484 C2487 1.350 . S
N2485 S2483 1.610 . S
N2485 C2486 1.351 . S
C2486 C2480 1.428 . S
C2486 N2485 1.351 . S
C2486 C2487 1.434 . S
C2487 C2478 1.429 . S
C2487 N2484 1.350 . S
C2487 C2486 1.434 . S
C2488 C2489 1.369 . S
C2488 C2490 1.419 . S
C2488 H2492 0.930 . S
C2489 C2488 1.369 . S
C2489 C2498 1.429 . S
C2490 C2488 1.419 . S
C2490 C2491 1.363 . S
C2490 H2493 0.929 . S
C2491 C2490 1.363 . S
C2491 C2497 1.428 . S
H2492 C2488 0.930 . S
H2493 C2490 0.929 . S
S2494 N2495 1.613 . S
S2494 N2496 1.610 . S
N2495 S2494 1.613 . S
N2495 C2498 1.350 . S
N2496 S2494 1.610 . S
N2496 C2497 1.351 . S
C2497 C2491 1.428 . S
C2497 N2496 1.351 . S
C2497 C2498 1.434 . S
C2498 C2489 1.429 . S
C2498 N2495 1.350 . S
C2498 C2497 1.434 . S
C2499 C2500 1.369 . S
C2499 C2501 1.419 . S
C2499 H2503 0.930 . S
C2500 C2499 1.369 . S
C2500 C2509 1.429 . S
C2501 C2499 1.419 . S
C2501 C2502 1.363 . S
C2501 H2504 0.929 . S
C2502 C2501 1.363 . S
C2502 C2508 1.428 . S
H2503 C2499 0.930 . S
H2504 C2501 0.929 . S
S2505 N2506 1.613 . S
S2505 N2507 1.610 . S
N2506 S2505 1.613 . S
N2506 C2509 1.350 . S
N2507 S2505 1.610 . S
N2507 C2508 1.351 . S
C2508 C2502 1.428 . S
C2508 N2507 1.351 . S
C2508 C2509 1.434 . S
C2509 C2500 1.429 . S
C2509 N2506 1.350 . S
C2509 C2508 1.434 . S
C2510 C2511 1.369 . S
C2510 C2512 1.419 . S
C2510 H2514 0.930 . S
C2511 C2510 1.369 . S
C2511 C2520 1.429 . S
C2512 C2510 1.419 . S
C2512 C2513 1.363 . S
C2512 H2515 0.929 . S
C2513 C2512 1.363 . S
C2513 C2519 1.428 . S
H2514 C2510 0.930 . S
H2515 C2512 0.929 . S
S2516 N2517 1.613 . S
S2516 N2518 1.610 . S
N2517 S2516 1.613 . S
N2517 C2520 1.350 . S
N2518 S2516 1.610 . S
N2518 C2519 1.351 . S
C2519 C2513 1.428 . S
C2519 N2518 1.351 . S
C2519 C2520 1.434 . S
C2520 C2511 1.429 . S
C2520 N2517 1.350 . S
C2520 C2519 1.434 . S
C2521 C2522 1.369 . S
C2521 C2523 1.419 . S
C2521 H2525 0.930 . S
C2522 C2521 1.369 . S
C2522 C2531 1.429 . S
C2523 C2521 1.419 . S
C2523 C2524 1.363 . S
C2523 H2526 0.929 . S
C2524 C2523 1.363 . S
C2524 C2530 1.428 . S
H2525 C2521 0.930 . S
H2526 C2523 0.929 . S
S2527 N2528 1.613 . S
S2527 N2529 1.610 . S
N2528 S2527 1.613 . S
N2528 C2531 1.350 . S
N2529 S2527 1.610 . S
N2529 C2530 1.351 . S
C2530 C2524 1.428 . S
C2530 N2529 1.351 . S
C2530 C2531 1.434 . S
C2531 C2522 1.429 . S
C2531 N2528 1.350 . S
C2531 C2530 1.434 . S
C2532 C2533 1.369 . S
C2532 C2534 1.419 . S
C2532 H2536 0.930 . S
C2533 C2532 1.369 . S
C2533 C2542 1.429 . S
C2534 C2532 1.419 . S
C2534 C2535 1.363 . S
C2534 H2537 0.929 . S
C2535 C2534 1.363 . S
C2535 C2541 1.428 . S
H2536 C2532 0.930 . S
H2537 C2534 0.929 . S
S2538 N2539 1.613 . S
S2538 N2540 1.610 . S
N2539 S2538 1.613 . S
N2539 C2542 1.350 . S
N2540 S2538 1.610 . S
N2540 C2541 1.351 . S
C2541 C2535 1.428 . S
C2541 N2540 1.351 . S
C2541 C2542 1.434 . S
C2542 C2533 1.429 . S
C2542 N2539 1.350 . S
C2542 C2541 1.434 . S
C2543 C2544 1.369 . S
C2543 C2545 1.419 . S
C2543 H2547 0.930 . S
C2544 C2543 1.369 . S
C2544 C2553 1.429 . S
C2545 C2543 1.419 . S
C2545 C2546 1.363 . S
C2545 H2548 0.929 . S
C2546 C2545 1.363 . S
C2546 C2552 1.428 . S
H2547 C2543 0.930 . S
H2548 C2545 0.929 . S
S2549 N2550 1.613 . S
S2549 N2551 1.610 . S
N2550 S2549 1.613 . S
N2550 C2553 1.350 . S
N2551 S2549 1.610 . S
N2551 C2552 1.351 . S
C2552 C2546 1.428 . S
C2552 N2551 1.351 . S
C2552 C2553 1.434 . S
C2553 C2544 1.429 . S
C2553 N2550 1.350 . S
C2553 C2552 1.434 . S
C2554 C2555 1.369 . S
C2554 C2556 1.419 . S
C2554 H2558 0.930 . S
C2555 C2554 1.369 . S
C2555 C2564 1.429 . S
C2556 C2554 1.419 . S
C2556 C2557 1.363 . S
C2556 H2559 0.929 . S
C2557 C2556 1.363 . S
C2557 C2563 1.428 . S
H2558 C2554 0.930 . S
H2559 C2556 0.929 . S
S2560 N2561 1.613 . S
S2560 N2562 1.610 . S
N2561 S2560 1.613 . S
N2561 C2564 1.350 . S
N2562 S2560 1.610 . S
N2562 C2563 1.351 . S
C2563 C2557 1.428 . S
C2563 N2562 1.351 . S
C2563 C2564 1.434 . S
C2564 C2555 1.429 . S
C2564 N2561 1.350 . S
C2564 C2563 1.434 . S
C2565 C2566 1.369 . S
C2565 C2567 1.419 . S
C2565 H2569 0.930 . S
C2566 C2565 1.369 . S
C2566 C2575 1.429 . S
C2567 C2565 1.419 . S
C2567 C2568 1.363 . S
C2567 H2570 0.929 . S
C2568 C2567 1.363 . S
C2568 C2574 1.428 . S
H2569 C2565 0.930 . S
H2570 C2567 0.929 . S
S2571 N2572 1.613 . S
S2571 N2573 1.610 . S
N2572 S2571 1.613 . S
N2572 C2575 1.350 . S
N2573 S2571 1.610 . S
N2573 C2574 1.351 . S
C2574 C2568 1.428 . S
C2574 N2573 1.351 . S
C2574 C2575 1.434 . S
C2575 C2566 1.429 . S
C2575 N2572 1.350 . S
C2575 C2574 1.434 . S
C2576 C2577 1.369 . S
C2576 C2578 1.419 . S
C2576 H2580 0.930 . S
C2577 C2576 1.369 . S
C2577 C2586 1.429 . S
C2578 C2576 1.419 . S
C2578 C2579 1.363 . S
C2578 H2581 0.929 . S
C2579 C2578 1.363 . S
C2579 C2585 1.428 . S
H2580 C2576 0.930 . S
H2581 C2578 0.929 . S
S2582 N2583 1.613 . S
S2582 N2584 1.610 . S
N2583 S2582 1.613 . S
N2583 C2586 1.350 . S
N2584 S2582 1.610 . S
N2584 C2585 1.351 . S
C2585 C2579 1.428 . S
C2585 N2584 1.351 . S
C2585 C2586 1.434 . S
C2586 C2577 1.429 . S
C2586 N2583 1.350 . S
C2586 C2585 1.434 . S
C2587 C2588 1.369 . S
C2587 C2589 1.419 . S
C2587 H2591 0.930 . S
C2588 C2587 1.369 . S
C2588 C2597 1.429 . S
C2589 C2587 1.419 . S
C2589 C2590 1.363 . S
C2589 H2592 0.929 . S
C2590 C2589 1.363 . S
C2590 C2596 1.428 . S
H2591 C2587 0.930 . S
H2592 C2589 0.929 . S
S2593 N2594 1.613 . S
S2593 N2595 1.610 . S
N2594 S2593 1.613 . S
N2594 C2597 1.350 . S
N2595 S2593 1.610 . S
N2595 C2596 1.351 . S
C2596 C2590 1.428 . S
C2596 N2595 1.351 . S
C2596 C2597 1.434 . S
C2597 C2588 1.429 . S
C2597 N2594 1.350 . S
C2597 C2596 1.434 . S
C2598 C2599 1.369 . S
C2598 C2600 1.419 . S
C2598 H2602 0.930 . S
C2599 C2598 1.369 . S
C2599 C2608 1.429 . S
C2600 C2598 1.419 . S
C2600 C2601 1.363 . S
C2600 H2603 0.929 . S
C2601 C2600 1.363 . S
C2601 C2607 1.428 . S
H2602 C2598 0.930 . S
H2603 C2600 0.929 . S
S2604 N2605 1.613 . S
S2604 N2606 1.610 . S
N2605 S2604 1.613 . S
N2605 C2608 1.350 . S
N2606 S2604 1.610 . S
N2606 C2607 1.351 . S
C2607 C2601 1.428 . S
C2607 N2606 1.351 . S
C2607 C2608 1.434 . S
C2608 C2599 1.429 . S
C2608 N2605 1.350 . S
C2608 C2607 1.434 . S
C2609 C2610 1.369 . S
C2609 C2611 1.419 . S
C2609 H2613 0.930 . S
C2610 C2609 1.369 . S
C2610 C2619 1.429 . S
C2611 C2609 1.419 . S
C2611 C2612 1.363 . S
C2611 H2614 0.929 . S
C2612 C2611 1.363 . S
C2612 C2618 1.428 . S
H2613 C2609 0.930 . S
H2614 C2611 0.929 . S
S2615 N2616 1.613 . S
S2615 N2617 1.610 . S
N2616 S2615 1.613 . S
N2616 C2619 1.350 . S
N2617 S2615 1.610 . S
N2617 C2618 1.351 . S
C2618 C2612 1.428 . S
C2618 N2617 1.351 . S
C2618 C2619 1.434 . S
C2619 C2610 1.429 . S
C2619 N2616 1.350 . S
C2619 C2618 1.434 . S
C2620 C2621 1.369 . S
C2620 C2622 1.419 . S
C2620 H2624 0.930 . S
C2621 C2620 1.369 . S
C2621 C2630 1.429 . S
C2622 C2620 1.419 . S
C2622 C2623 1.363 . S
C2622 H2625 0.929 . S
C2623 C2622 1.363 . S
C2623 C2629 1.428 . S
H2624 C2620 0.930 . S
H2625 C2622 0.929 . S
S2626 N2627 1.613 . S
S2626 N2628 1.610 . S
N2627 S2626 1.613 . S
N2627 C2630 1.350 . S
N2628 S2626 1.610 . S
N2628 C2629 1.351 . S
C2629 C2623 1.428 . S
C2629 N2628 1.351 . S
C2629 C2630 1.434 . S
C2630 C2621 1.429 . S
C2630 N2627 1.350 . S
C2630 C2629 1.434 . S
C2631 C2632 1.369 . S
C2631 C2633 1.419 . S
C2631 H2635 0.930 . S
C2632 C2631 1.369 . S
C2632 C2641 1.429 . S
C2633 C2631 1.419 . S
C2633 C2634 1.363 . S
C2633 H2636 0.929 . S
C2634 C2633 1.363 . S
C2634 C2640 1.428 . S
H2635 C2631 0.930 . S
H2636 C2633 0.929 . S
S2637 N2638 1.613 . S
S2637 N2639 1.610 . S
N2638 S2637 1.613 . S
N2638 C2641 1.350 . S
N2639 S2637 1.610 . S
N2639 C2640 1.351 . S
C2640 C2634 1.428 . S
C2640 N2639 1.351 . S
C2640 C2641 1.434 . S
C2641 C2632 1.429 . S
C2641 N2638 1.350 . S
C2641 C2640 1.434 . S
C2642 C2643 1.369 . S
C2642 C2644 1.419 . S
C2642 H2646 0.930 . S
C2643 C2642 1.369 . S
C2643 C2652 1.429 . S
C2644 C2642 1.419 . S
C2644 C2645 1.363 . S
C2644 H2647 0.929 . S
C2645 C2644 1.363 . S
C2645 C2651 1.428 . S
H2646 C2642 0.930 . S
H2647 C2644 0.929 . S
S2648 N2649 1.613 . S
S2648 N2650 1.610 . S
N2649 S2648 1.613 . S
N2649 C2652 1.350 . S
N2650 S2648 1.610 . S
N2650 C2651 1.351 . S
C2651 C2645 1.428 . S
C2651 N2650 1.351 . S
C2651 C2652 1.434 . S
C2652 C2643 1.429 . S
C2652 N2649 1.350 . S
C2652 C2651 1.434 . S
C2653 C2654 1.369 . S
C2653 C2655 1.419 . S
C2653 H2657 0.930 . S
C2654 C2653 1.369 . S
C2654 C2663 1.429 . S
C2655 C2653 1.419 . S
C2655 C2656 1.363 . S
C2655 H2658 0.929 . S
C2656 C2655 1.363 . S
C2656 C2662 1.428 . S
H2657 C2653 0.930 . S
H2658 C2655 0.929 . S
S2659 N2660 1.613 . S
S2659 N2661 1.610 . S
N2660 S2659 1.613 . S
N2660 C2663 1.350 . S
N2661 S2659 1.610 . S
N2661 C2662 1.351 . S
C2662 C2656 1.428 . S
C2662 N2661 1.351 . S
C2662 C2663 1.434 . S
C2663 C2654 1.429 . S
C2663 N2660 1.350 . S
C2663 C2662 1.434 . S
C2664 C2665 1.369 . S
C2664 C2666 1.419 . S
C2664 H2668 0.930 . S
C2665 C2664 1.369 . S
C2665 C2674 1.429 . S
C2666 C2664 1.419 . S
C2666 C2667 1.363 . S
C2666 H2669 0.929 . S
C2667 C2666 1.363 . S
C2667 C2673 1.428 . S
H2668 C2664 0.930 . S
H2669 C2666 0.929 . S
S2670 N2671 1.613 . S
S2670 N2672 1.610 . S
N2671 S2670 1.613 . S
N2671 C2674 1.350 . S
N2672 S2670 1.610 . S
N2672 C2673 1.351 . S
C2673 C2667 1.428 . S
C2673 N2672 1.351 . S
C2673 C2674 1.434 . S
C2674 C2665 1.429 . S
C2674 N2671 1.350 . S
C2674 C2673 1.434 . S
C2675 C2676 1.369 . S
C2675 C2677 1.419 . S
C2675 H2679 0.930 . S
C2676 C2675 1.369 . S
C2676 C2685 1.429 . S
C2677 C2675 1.419 . S
C2677 C2678 1.363 . S
C2677 H2680 0.929 . S
C2678 C2677 1.363 . S
C2678 C2684 1.428 . S
H2679 C2675 0.930 . S
H2680 C2677 0.929 . S
S2681 N2682 1.613 . S
S2681 N2683 1.610 . S
N2682 S2681 1.613 . S
N2682 C2685 1.350 . S
N2683 S2681 1.610 . S
N2683 C2684 1.351 . S
C2684 C2678 1.428 . S
C2684 N2683 1.351 . S
C2684 C2685 1.434 . S
C2685 C2676 1.429 . S
C2685 N2682 1.350 . S
C2685 C2684 1.434 . S
C2686 C2687 1.369 . S
C2686 C2688 1.419 . S
C2686 H2690 0.930 . S
C2687 C2686 1.369 . S
C2687 C2696 1.429 . S
C2688 C2686 1.419 . S
C2688 C2689 1.363 . S
C2688 H2691 0.929 . S
C2689 C2688 1.363 . S
C2689 C2695 1.428 . S
H2690 C2686 0.930 . S
H2691 C2688 0.929 . S
S2692 N2693 1.613 . S
S2692 N2694 1.610 . S
N2693 S2692 1.613 . S
N2693 C2696 1.350 . S
N2694 S2692 1.610 . S
N2694 C2695 1.351 . S
C2695 C2689 1.428 . S
C2695 N2694 1.351 . S
C2695 C2696 1.434 . S
C2696 C2687 1.429 . S
C2696 N2693 1.350 . S
C2696 C2695 1.434 . S
C2697 C2698 1.369 . S
C2697 C2699 1.419 . S
C2697 H2701 0.930 . S
C2698 C2697 1.369 . S
C2698 C2707 1.429 . S
C2699 C2697 1.419 . S
C2699 C2700 1.363 . S
C2699 H2702 0.929 . S
C2700 C2699 1.363 . S
C2700 C2706 1.428 . S
H2701 C2697 0.930 . S
H2702 C2699 0.929 . S
S2703 N2704 1.613 . S
S2703 N2705 1.610 . S
N2704 S2703 1.613 . S
N2704 C2707 1.350 . S
N2705 S2703 1.610 . S
N2705 C2706 1.351 . S
C2706 C2700 1.428 . S
C2706 N2705 1.351 . S
C2706 C2707 1.434 . S
C2707 C2698 1.429 . S
C2707 N2704 1.350 . S
C2707 C2706 1.434 . S
C2708 C2709 1.369 . S
C2708 C2710 1.419 . S
C2708 H2712 0.930 . S
C2709 C2708 1.369 . S
C2709 C2718 1.429 . S
C2710 C2708 1.419 . S
C2710 C2711 1.363 . S
C2710 H2713 0.929 . S
C2711 C2710 1.363 . S
C2711 C2717 1.428 . S
H2712 C2708 0.930 . S
H2713 C2710 0.929 . S
S2714 N2715 1.613 . S
S2714 N2716 1.610 . S
N2715 S2714 1.613 . S
N2715 C2718 1.350 . S
N2716 S2714 1.610 . S
N2716 C2717 1.351 . S
C2717 C2711 1.428 . S
C2717 N2716 1.351 . S
C2717 C2718 1.434 . S
C2718 C2709 1.429 . S
C2718 N2715 1.350 . S
C2718 C2717 1.434 . S
C2719 C2720 1.369 . S
C2719 C2721 1.419 . S
C2719 H2723 0.930 . S
C2720 C2719 1.369 . S
C2720 C2729 1.429 . S
C2721 C2719 1.419 . S
C2721 C2722 1.363 . S
C2721 H2724 0.929 . S
C2722 C2721 1.363 . S
C2722 C2728 1.428 . S
H2723 C2719 0.930 . S
H2724 C2721 0.929 . S
S2725 N2726 1.613 . S
S2725 N2727 1.610 . S
N2726 S2725 1.613 . S
N2726 C2729 1.350 . S
N2727 S2725 1.610 . S
N2727 C2728 1.351 . S
C2728 C2722 1.428 . S
C2728 N2727 1.351 . S
C2728 C2729 1.434 . S
C2729 C2720 1.429 . S
C2729 N2726 1.350 . S
C2729 C2728 1.434 . S
C2730 C2731 1.369 . S
C2730 C2732 1.419 . S
C2730 H2734 0.930 . S
C2731 C2730 1.369 . S
C2731 C2740 1.429 . S
C2732 C2730 1.419 . S
C2732 C2733 1.363 . S
C2732 H2735 0.929 . S
C2733 C2732 1.363 . S
C2733 C2739 1.428 . S
H2734 C2730 0.930 . S
H2735 C2732 0.929 . S
S2736 N2737 1.613 . S
S2736 N2738 1.610 . S
N2737 S2736 1.613 . S
N2737 C2740 1.350 . S
N2738 S2736 1.610 . S
N2738 C2739 1.351 . S
C2739 C2733 1.428 . S
C2739 N2738 1.351 . S
C2739 C2740 1.434 . S
C2740 C2731 1.429 . S
C2740 N2737 1.350 . S
C2740 C2739 1.434 . S
C2741 C2742 1.369 . S
C2741 C2743 1.419 . S
C2741 H2745 0.930 . S
C2742 C2741 1.369 . S
C2742 C2751 1.429 . S
C2743 C2741 1.419 . S
C2743 C2744 1.363 . S
C2743 H2746 0.929 . S
C2744 C2743 1.363 . S
C2744 C2750 1.428 . S
H2745 C2741 0.930 . S
H2746 C2743 0.929 . S
S2747 N2748 1.613 . S
S2747 N2749 1.610 . S
N2748 S2747 1.613 . S
N2748 C2751 1.350 . S
N2749 S2747 1.610 . S
N2749 C2750 1.351 . S
C2750 C2744 1.428 . S
C2750 N2749 1.351 . S
C2750 C2751 1.434 . S
C2751 C2742 1.429 . S
C2751 N2748 1.350 . S
C2751 C2750 1.434 . S
C2752 C2753 1.369 . S
C2752 C2754 1.419 . S
C2752 H2756 0.930 . S
C2753 C2752 1.369 . S
C2753 C2762 1.429 . S
C2754 C2752 1.419 . S
C2754 C2755 1.363 . S
C2754 H2757 0.929 . S
C2755 C2754 1.363 . S
C2755 C2761 1.428 . S
H2756 C2752 0.930 . S
H2757 C2754 0.929 . S
S2758 N2759 1.613 . S
S2758 N2760 1.610 . S
N2759 S2758 1.613 . S
N2759 C2762 1.350 . S
N2760 S2758 1.610 . S
N2760 C2761 1.351 . S
C2761 C2755 1.428 . S
C2761 N2760 1.351 . S
C2761 C2762 1.434 . S
C2762 C2753 1.429 . S
C2762 N2759 1.350 . S
C2762 C2761 1.434 . S
C2763 C2764 1.369 . S
C2763 C2765 1.419 . S
C2763 H2767 0.930 . S
C2764 C2763 1.369 . S
C2764 C2773 1.429 . S
C2765 C2763 1.419 . S
C2765 C2766 1.363 . S
C2765 H2768 0.929 . S
C2766 C2765 1.363 . S
C2766 C2772 1.428 . S
H2767 C2763 0.930 . S
H2768 C2765 0.929 . S
S2769 N2770 1.613 . S
S2769 N2771 1.610 . S
N2770 S2769 1.613 . S
N2770 C2773 1.350 . S
N2771 S2769 1.610 . S
N2771 C2772 1.351 . S
C2772 C2766 1.428 . S
C2772 N2771 1.351 . S
C2772 C2773 1.434 . S
C2773 C2764 1.429 . S
C2773 N2770 1.350 . S
C2773 C2772 1.434 . S
C2774 C2775 1.369 . S
C2774 C2776 1.419 . S
C2774 H2778 0.930 . S
C2775 C2774 1.369 . S
C2775 C2784 1.429 . S
C2776 C2774 1.419 . S
C2776 C2777 1.363 . S
C2776 H2779 0.929 . S
C2777 C2776 1.363 . S
C2777 C2783 1.428 . S
H2778 C2774 0.930 . S
H2779 C2776 0.929 . S
S2780 N2781 1.613 . S
S2780 N2782 1.610 . S
N2781 S2780 1.613 . S
N2781 C2784 1.350 . S
N2782 S2780 1.610 . S
N2782 C2783 1.351 . S
C2783 C2777 1.428 . S
C2783 N2782 1.351 . S
C2783 C2784 1.434 . S
C2784 C2775 1.429 . S
C2784 N2781 1.350 . S
C2784 C2783 1.434 . S
C2785 C2786 1.369 . S
C2785 C2787 1.419 . S
C2785 H2789 0.930 . S
C2786 C2785 1.369 . S
C2786 C2795 1.429 . S
C2787 C2785 1.419 . S
C2787 C2788 1.363 . S
C2787 H2790 0.929 . S
C2788 C2787 1.363 . S
C2788 C2794 1.428 . S
H2789 C2785 0.930 . S
H2790 C2787 0.929 . S
S2791 N2792 1.613 . S
S2791 N2793 1.610 . S
N2792 S2791 1.613 . S
N2792 C2795 1.350 . S
N2793 S2791 1.610 . S
N2793 C2794 1.351 . S
C2794 C2788 1.428 . S
C2794 N2793 1.351 . S
C2794 C2795 1.434 . S
C2795 C2786 1.429 . S
C2795 N2792 1.350 . S
C2795 C2794 1.434 . S
C2796 C2797 1.369 . S
C2796 C2798 1.419 . S
C2796 H2800 0.930 . S
C2797 C2796 1.369 . S
C2797 C2806 1.429 . S
C2798 C2796 1.419 . S
C2798 C2799 1.363 . S
C2798 H2801 0.929 . S
C2799 C2798 1.363 . S
C2799 C2805 1.428 . S
H2800 C2796 0.930 . S
H2801 C2798 0.929 . S
S2802 N2803 1.613 . S
S2802 N2804 1.610 . S
N2803 S2802 1.613 . S
N2803 C2806 1.350 . S
N2804 S2802 1.610 . S
N2804 C2805 1.351 . S
C2805 C2799 1.428 . S
C2805 N2804 1.351 . S
C2805 C2806 1.434 . S
C2806 C2797 1.429 . S
C2806 N2803 1.350 . S
C2806 C2805 1.434 . S
C2807 C2808 1.369 . S
C2807 C2809 1.419 . S
C2807 H2811 0.930 . S
C2808 C2807 1.369 . S
C2808 C2817 1.429 . S
C2809 C2807 1.419 . S
C2809 C2810 1.363 . S
C2809 H2812 0.929 . S
C2810 C2809 1.363 . S
C2810 C2816 1.428 . S
H2811 C2807 0.930 . S
H2812 C2809 0.929 . S
S2813 N2814 1.613 . S
S2813 N2815 1.610 . S
N2814 S2813 1.613 . S
N2814 C2817 1.350 . S
N2815 S2813 1.610 . S
N2815 C2816 1.351 . S
C2816 C2810 1.428 . S
C2816 N2815 1.351 . S
C2816 C2817 1.434 . S
C2817 C2808 1.429 . S
C2817 N2814 1.350 . S
C2817 C2816 1.434 . S
C2818 C2819 1.369 . S
C2818 C2820 1.419 . S
C2818 H2822 0.930 . S
C2819 C2818 1.369 . S
C2819 C2828 1.429 . S
C2820 C2818 1.419 . S
C2820 C2821 1.363 . S
C2820 H2823 0.929 . S
C2821 C2820 1.363 . S
C2821 C2827 1.428 . S
H2822 C2818 0.930 . S
H2823 C2820 0.929 . S
S2824 N2825 1.613 . S
S2824 N2826 1.610 . S
N2825 S2824 1.613 . S
N2825 C2828 1.350 . S
N2826 S2824 1.610 . S
N2826 C2827 1.351 . S
C2827 C2821 1.428 . S
C2827 N2826 1.351 . S
C2827 C2828 1.434 . S
C2828 C2819 1.429 . S
C2828 N2825 1.350 . S
C2828 C2827 1.434 . S
C2829 C2830 1.369 . S
C2829 C2831 1.419 . S
C2829 H2833 0.930 . S
C2830 C2829 1.369 . S
C2830 C2839 1.429 . S
C2831 C2829 1.419 . S
C2831 C2832 1.363 . S
C2831 H2834 0.929 . S
C2832 C2831 1.363 . S
C2832 C2838 1.428 . S
H2833 C2829 0.930 . S
H2834 C2831 0.929 . S
S2835 N2836 1.613 . S
S2835 N2837 1.610 . S
N2836 S2835 1.613 . S
N2836 C2839 1.350 . S
N2837 S2835 1.610 . S
N2837 C2838 1.351 . S
C2838 C2832 1.428 . S
C2838 N2837 1.351 . S
C2838 C2839 1.434 . S
C2839 C2830 1.429 . S
C2839 N2836 1.350 . S
C2839 C2838 1.434 . S
C2840 C2841 1.369 . S
C2840 C2842 1.419 . S
C2840 H2844 0.930 . S
C2841 C2840 1.369 . S
C2841 C2850 1.429 . S
C2842 C2840 1.419 . S
C2842 C2843 1.363 . S
C2842 H2845 0.929 . S
C2843 C2842 1.363 . S
C2843 C2849 1.428 . S
H2844 C2840 0.930 . S
H2845 C2842 0.929 . S
S2846 N2847 1.613 . S
S2846 N2848 1.610 . S
N2847 S2846 1.613 . S
N2847 C2850 1.350 . S
N2848 S2846 1.610 . S
N2848 C2849 1.351 . S
C2849 C2843 1.428 . S
C2849 N2848 1.351 . S
C2849 C2850 1.434 . S
C2850 C2841 1.429 . S
C2850 N2847 1.350 . S
C2850 C2849 1.434 . S
C2851 C2852 1.369 . S
C2851 C2853 1.419 . S
C2851 H2855 0.930 . S
C2852 C2851 1.369 . S
C2852 C2861 1.429 . S
C2853 C2851 1.419 . S
C2853 C2854 1.363 . S
C2853 H2856 0.929 . S
C2854 C2853 1.363 . S
C2854 C2860 1.428 . S
H2855 C2851 0.930 . S
H2856 C2853 0.929 . S
S2857 N2858 1.613 . S
S2857 N2859 1.610 . S
N2858 S2857 1.613 . S
N2858 C2861 1.350 . S
N2859 S2857 1.610 . S
N2859 C2860 1.351 . S
C2860 C2854 1.428 . S
C2860 N2859 1.351 . S
C2860 C2861 1.434 . S
C2861 C2852 1.429 . S
C2861 N2858 1.350 . S
C2861 C2860 1.434 . S
C2862 C2863 1.369 . S
C2862 C2864 1.419 . S
C2862 H2866 0.930 . S
C2863 C2862 1.369 . S
C2863 C2872 1.429 . S
C2864 C2862 1.419 . S
C2864 C2865 1.363 . S
C2864 H2867 0.929 . S
C2865 C2864 1.363 . S
C2865 C2871 1.428 . S
H2866 C2862 0.930 . S
H2867 C2864 0.929 . S
S2868 N2869 1.613 . S
S2868 N2870 1.610 . S
N2869 S2868 1.613 . S
N2869 C2872 1.350 . S
N2870 S2868 1.610 . S
N2870 C2871 1.351 . S
C2871 C2865 1.428 . S
C2871 N2870 1.351 . S
C2871 C2872 1.434 . S
C2872 C2863 1.429 . S
C2872 N2869 1.350 . S
C2872 C2871 1.434 . S
C2873 C2874 1.369 . S
C2873 C2875 1.419 . S
C2873 H2877 0.930 . S
C2874 C2873 1.369 . S
C2874 C2883 1.429 . S
C2875 C2873 1.419 . S
C2875 C2876 1.363 . S
C2875 H2878 0.929 . S
C2876 C2875 1.363 . S
C2876 C2882 1.428 . S
H2877 C2873 0.930 . S
H2878 C2875 0.929 . S
S2879 N2880 1.613 . S
S2879 N2881 1.610 . S
N2880 S2879 1.613 . S
N2880 C2883 1.350 . S
N2881 S2879 1.610 . S
N2881 C2882 1.351 . S
C2882 C2876 1.428 . S
C2882 N2881 1.351 . S
C2882 C2883 1.434 . S
C2883 C2874 1.429 . S
C2883 N2880 1.350 . S
C2883 C2882 1.434 . S
C2884 C2885 1.369 . S
C2884 C2886 1.419 . S
C2884 H2888 0.930 . S
C2885 C2884 1.369 . S
C2885 C2894 1.429 . S
C2886 C2884 1.419 . S
C2886 C2887 1.363 . S
C2886 H2889 0.929 . S
C2887 C2886 1.363 . S
C2887 C2893 1.428 . S
H2888 C2884 0.930 . S
H2889 C2886 0.929 . S
S2890 N2891 1.613 . S
S2890 N2892 1.610 . S
N2891 S2890 1.613 . S
N2891 C2894 1.350 . S
N2892 S2890 1.610 . S
N2892 C2893 1.351 . S
C2893 C2887 1.428 . S
C2893 N2892 1.351 . S
C2893 C2894 1.434 . S
C2894 C2885 1.429 . S
C2894 N2891 1.350 . S
C2894 C2893 1.434 . S
C2895 C2896 1.369 . S
C2895 C2897 1.419 . S
C2895 H2899 0.930 . S
C2896 C2895 1.369 . S
C2896 C2905 1.429 . S
C2897 C2895 1.419 . S
C2897 C2898 1.363 . S
C2897 H2900 0.929 . S
C2898 C2897 1.363 . S
C2898 C2904 1.428 . S
H2899 C2895 0.930 . S
H2900 C2897 0.929 . S
S2901 N2902 1.613 . S
S2901 N2903 1.610 . S
N2902 S2901 1.613 . S
N2902 C2905 1.350 . S
N2903 S2901 1.610 . S
N2903 C2904 1.351 . S
C2904 C2898 1.428 . S
C2904 N2903 1.351 . S
C2904 C2905 1.434 . S
C2905 C2896 1.429 . S
C2905 N2902 1.350 . S
C2905 C2904 1.434 . S
C2906 C2907 1.369 . S
C2906 C2908 1.419 . S
C2906 H2910 0.930 . S
C2907 C2906 1.369 . S
C2907 C2916 1.429 . S
C2908 C2906 1.419 . S
C2908 C2909 1.363 . S
C2908 H2911 0.929 . S
C2909 C2908 1.363 . S
C2909 C2915 1.428 . S
H2910 C2906 0.930 . S
H2911 C2908 0.929 . S
S2912 N2913 1.613 . S
S2912 N2914 1.610 . S
N2913 S2912 1.613 . S
N2913 C2916 1.350 . S
N2914 S2912 1.610 . S
N2914 C2915 1.351 . S
C2915 C2909 1.428 . S
C2915 N2914 1.351 . S
C2915 C2916 1.434 . S
C2916 C2907 1.429 . S
C2916 N2913 1.350 . S
C2916 C2915 1.434 . S
C2917 C2918 1.369 . S
C2917 C2919 1.419 . S
C2917 H2921 0.930 . S
C2918 C2917 1.369 . S
C2918 C2927 1.429 . S
C2919 C2917 1.419 . S
C2919 C2920 1.363 . S
C2919 H2922 0.929 . S
C2920 C2919 1.363 . S
C2920 C2926 1.428 . S
H2921 C2917 0.930 . S
H2922 C2919 0.929 . S
S2923 N2924 1.613 . S
S2923 N2925 1.610 . S
N2924 S2923 1.613 . S
N2924 C2927 1.350 . S
N2925 S2923 1.610 . S
N2925 C2926 1.351 . S
C2926 C2920 1.428 . S
C2926 N2925 1.351 . S
C2926 C2927 1.434 . S
C2927 C2918 1.429 . S
C2927 N2924 1.350 . S
C2927 C2926 1.434 . S
C2928 C2929 1.369 . S
C2928 C2930 1.419 . S
C2928 H2932 0.930 . S
C2929 C2928 1.369 . S
C2929 C2938 1.429 . S
C2930 C2928 1.419 . S
C2930 C2931 1.363 . S
C2930 H2933 0.929 . S
C2931 C2930 1.363 . S
C2931 C2937 1.428 . S
H2932 C2928 0.930 . S
H2933 C2930 0.929 . S
S2934 N2935 1.613 . S
S2934 N2936 1.610 . S
N2935 S2934 1.613 . S
N2935 C2938 1.350 . S
N2936 S2934 1.610 . S
N2936 C2937 1.351 . S
C2937 C2931 1.428 . S
C2937 N2936 1.351 . S
C2937 C2938 1.434 . S
C2938 C2929 1.429 . S
C2938 N2935 1.350 . S
C2938 C2937 1.434 . S
C2939 C2940 1.369 . S
C2939 C2941 1.419 . S
C2939 H2943 0.930 . S
C2940 C2939 1.369 . S
C2940 C2949 1.429 . S
C2941 C2939 1.419 . S
C2941 C2942 1.363 . S
C2941 H2944 0.929 . S
C2942 C2941 1.363 . S
C2942 C2948 1.428 . S
H2943 C2939 0.930 . S
H2944 C2941 0.929 . S
S2945 N2946 1.613 . S
S2945 N2947 1.610 . S
N2946 S2945 1.613 . S
N2946 C2949 1.350 . S
N2947 S2945 1.610 . S
N2947 C2948 1.351 . S
C2948 C2942 1.428 . S
C2948 N2947 1.351 . S
C2948 C2949 1.434 . S
C2949 C2940 1.429 . S
C2949 N2946 1.350 . S
C2949 C2948 1.434 . S
C2950 C2951 1.369 . S
C2950 C2952 1.419 . S
C2950 H2954 0.930 . S
C2951 C2950 1.369 . S
C2951 C2960 1.429 . S
C2952 C2950 1.419 . S
C2952 C2953 1.363 . S
C2952 H2955 0.929 . S
C2953 C2952 1.363 . S
C2953 C2959 1.428 . S
H2954 C2950 0.930 . S
H2955 C2952 0.929 . S
S2956 N2957 1.613 . S
S2956 N2958 1.610 . S
N2957 S2956 1.613 . S
N2957 C2960 1.350 . S
N2958 S2956 1.610 . S
N2958 C2959 1.351 . S
C2959 C2953 1.428 . S
C2959 N2958 1.351 . S
C2959 C2960 1.434 . S
C2960 C2951 1.429 . S
C2960 N2957 1.350 . S
C2960 C2959 1.434 . S
C2961 C2962 1.369 . S
C2961 C2963 1.419 . S
C2961 H2965 0.930 . S
C2962 C2961 1.369 . S
C2962 C2971 1.429 . S
C2963 C2961 1.419 . S
C2963 C2964 1.363 . S
C2963 H2966 0.929 . S
C2964 C2963 1.363 . S
C2964 C2970 1.428 . S
H2965 C2961 0.930 . S
H2966 C2963 0.929 . S
S2967 N2968 1.613 . S
S2967 N2969 1.610 . S
N2968 S2967 1.613 . S
N2968 C2971 1.350 . S
N2969 S2967 1.610 . S
N2969 C2970 1.351 . S
C2970 C2964 1.428 . S
C2970 N2969 1.351 . S
C2970 C2971 1.434 . S
C2971 C2962 1.429 . S
C2971 N2968 1.350 . S
C2971 C2970 1.434 . S
C2972 C2973 1.369 . S
C2972 C2974 1.419 . S
C2972 H2976 0.930 . S
C2973 C2972 1.369 . S
C2973 C2982 1.429 . S
C2974 C2972 1.419 . S
C2974 C2975 1.363 . S
C2974 H2977 0.929 . S
C2975 C2974 1.363 . S
C2975 C2981 1.428 . S
H2976 C2972 0.930 . S
H2977 C2974 0.929 . S
S2978 N2979 1.613 . S
S2978 N2980 1.610 . S
N2979 S2978 1.613 . S
N2979 C2982 1.350 . S
N2980 S2978 1.610 . S
N2980 C2981 1.351 . S
C2981 C2975 1.428 . S
C2981 N2980 1.351 . S
C2981 C2982 1.434 . S
C2982 C2973 1.429 . S
C2982 N2979 1.350 . S
C2982 C2981 1.434 . S
C2983 C2984 1.369 . S
C2983 C2985 1.419 . S
C2983 H2987 0.930 . S
C2984 C2983 1.369 . S
C2984 C2993 1.429 . S
C2985 C2983 1.419 . S
C2985 C2986 1.363 . S
C2985 H2988 0.929 . S
C2986 C2985 1.363 . S
C2986 C2992 1.428 . S
H2987 C2983 0.930 . S
H2988 C2985 0.929 . S
S2989 N2990 1.613 . S
S2989 N2991 1.610 . S
N2990 S2989 1.613 . S
N2990 C2993 1.350 . S
N2991 S2989 1.610 . S
N2991 C2992 1.351 . S
C2992 C2986 1.428 . S
C2992 N2991 1.351 . S
C2992 C2993 1.434 . S
C2993 C2984 1.429 . S
C2993 N2990 1.350 . S
C2993 C2992 1.434 . S
C2994 C2995 1.369 . S
C2994 C2996 1.419 . S
C2994 H2998 0.930 . S
C2995 C2994 1.369 . S
C2995 C3004 1.429 . S
C2996 C2994 1.419 . S
C2996 C2997 1.363 . S
C2996 H2999 0.929 . S
C2997 C2996 1.363 . S
C2997 C3003 1.428 . S
H2998 C2994 0.930 . S
H2999 C2996 0.929 . S
S3000 N3001 1.613 . S
S3000 N3002 1.610 . S
N3001 S3000 1.613 . S
N3001 C3004 1.350 . S
N3002 S3000 1.610 . S
N3002 C3003 1.351 . S
C3003 C2997 1.428 . S
C3003 N3002 1.351 . S
C3003 C3004 1.434 . S
C3004 C2995 1.429 . S
C3004 N3001 1.350 . S
C3004 C3003 1.434 . S
C3005 C3006 1.369 . S
C3005 C3007 1.419 . S
C3005 H3009 0.930 . S
C3006 C3005 1.369 . S
C3006 C3015 1.429 . S
C3007 C3005 1.419 . S
C3007 C3008 1.363 . S
C3007 H3010 0.929 . S
C3008 C3007 1.363 . S
C3008 C3014 1.428 . S
H3009 C3005 0.930 . S
H3010 C3007 0.929 . S
S3011 N3012 1.613 . S
S3011 N3013 1.610 . S
N3012 S3011 1.613 . S
N3012 C3015 1.350 . S
N3013 S3011 1.610 . S
N3013 C3014 1.351 . S
C3014 C3008 1.428 . S
C3014 N3013 1.351 . S
C3014 C3015 1.434 . S
C3015 C3006 1.429 . S
C3015 N3012 1.350 . S
C3015 C3014 1.434 . S
C3016 C3017 1.369 . S
C3016 C3018 1.419 . S
C3016 H3020 0.930 . S
C3017 C3016 1.369 . S
C3017 C3026 1.429 . S
C3018 C3016 1.419 . S
C3018 C3019 1.363 . S
C3018 H3021 0.929 . S
C3019 C3018 1.363 . S
C3019 C3025 1.428 . S
H3020 C3016 0.930 . S
H3021 C3018 0.929 . S
S3022 N3023 1.613 . S
S3022 N3024 1.610 . S
N3023 S3022 1.613 . S
N3023 C3026 1.350 . S
N3024 S3022 1.610 . S
N3024 C3025 1.351 . S
C3025 C3019 1.428 . S
C3025 N3024 1.351 . S
C3025 C3026 1.434 . S
C3026 C3017 1.429 . S
C3026 N3023 1.350 . S
C3026 C3025 1.434 . S
C3027 C3028 1.369 . S
C3027 C3029 1.419 . S
C3027 H3031 0.930 . S
C3028 C3027 1.369 . S
C3028 C3037 1.429 . S
C3029 C3027 1.419 . S
C3029 C3030 1.363 . S
C3029 H3032 0.929 . S
C3030 C3029 1.363 . S
C3030 C3036 1.428 . S
H3031 C3027 0.930 . S
H3032 C3029 0.929 . S
S3033 N3034 1.613 . S
S3033 N3035 1.610 . S
N3034 S3033 1.613 . S
N3034 C3037 1.350 . S
N3035 S3033 1.610 . S
N3035 C3036 1.351 . S
C3036 C3030 1.428 . S
C3036 N3035 1.351 . S
C3036 C3037 1.434 . S
C3037 C3028 1.429 . S
C3037 N3034 1.350 . S
C3037 C3036 1.434 . S
C3038 C3039 1.369 . S
C3038 C3040 1.419 . S
C3038 H3042 0.930 . S
C3039 C3038 1.369 . S
C3039 C3048 1.429 . S
C3040 C3038 1.419 . S
C3040 C3041 1.363 . S
C3040 H3043 0.929 . S
C3041 C3040 1.363 . S
C3041 C3047 1.428 . S
H3042 C3038 0.930 . S
H3043 C3040 0.929 . S
S3044 N3045 1.613 . S
S3044 N3046 1.610 . S
N3045 S3044 1.613 . S
N3045 C3048 1.350 . S
N3046 S3044 1.610 . S
N3046 C3047 1.351 . S
C3047 C3041 1.428 . S
C3047 N3046 1.351 . S
C3047 C3048 1.434 . S
C3048 C3039 1.429 . S
C3048 N3045 1.350 . S
C3048 C3047 1.434 . S
C3049 C3050 1.369 . S
C3049 C3051 1.419 . S
C3049 H3053 0.930 . S
C3050 C3049 1.369 . S
C3050 C3059 1.429 . S
C3051 C3049 1.419 . S
C3051 C3052 1.363 . S
C3051 H3054 0.929 . S
C3052 C3051 1.363 . S
C3052 C3058 1.428 . S
H3053 C3049 0.930 . S
H3054 C3051 0.929 . S
S3055 N3056 1.613 . S
S3055 N3057 1.610 . S
N3056 S3055 1.613 . S
N3056 C3059 1.350 . S
N3057 S3055 1.610 . S
N3057 C3058 1.351 . S
C3058 C3052 1.428 . S
C3058 N3057 1.351 . S
C3058 C3059 1.434 . S
C3059 C3050 1.429 . S
C3059 N3056 1.350 . S
C3059 C3058 1.434 . S
C3060 C3061 1.369 . S
C3060 C3062 1.419 . S
C3060 H3064 0.930 . S
C3061 C3060 1.369 . S
C3061 C3070 1.429 . S
C3062 C3060 1.419 . S
C3062 C3063 1.363 . S
C3062 H3065 0.929 . S
C3063 C3062 1.363 . S
C3063 C3069 1.428 . S
H3064 C3060 0.930 . S
H3065 C3062 0.929 . S
S3066 N3067 1.613 . S
S3066 N3068 1.610 . S
N3067 S3066 1.613 . S
N3067 C3070 1.350 . S
N3068 S3066 1.610 . S
N3068 C3069 1.351 . S
C3069 C3063 1.428 . S
C3069 N3068 1.351 . S
C3069 C3070 1.434 . S
C3070 C3061 1.429 . S
C3070 N3067 1.350 . S
C3070 C3069 1.434 . S
C3071 C3072 1.369 . S
C3071 C3073 1.419 . S
C3071 H3075 0.930 . S
C3072 C3071 1.369 . S
C3072 C3081 1.429 . S
C3073 C3071 1.419 . S
C3073 C3074 1.363 . S
C3073 H3076 0.929 . S
C3074 C3073 1.363 . S
C3074 C3080 1.428 . S
H3075 C3071 0.930 . S
H3076 C3073 0.929 . S
S3077 N3078 1.613 . S
S3077 N3079 1.610 . S
N3078 S3077 1.613 . S
N3078 C3081 1.350 . S
N3079 S3077 1.610 . S
N3079 C3080 1.351 . S
C3080 C3074 1.428 . S
C3080 N3079 1.351 . S
C3080 C3081 1.434 . S
C3081 C3072 1.429 . S
C3081 N3078 1.350 . S
C3081 C3080 1.434 . S
C3082 C3083 1.369 . S
C3082 C3084 1.419 . S
C3082 H3086 0.930 . S
C3083 C3082 1.369 . S
C3083 C3092 1.429 . S
C3084 C3082 1.419 . S
C3084 C3085 1.363 . S
C3084 H3087 0.929 . S
C3085 C3084 1.363 . S
C3085 C3091 1.428 . S
H3086 C3082 0.930 . S
H3087 C3084 0.929 . S
S3088 N3089 1.613 . S
S3088 N3090 1.610 . S
N3089 S3088 1.613 . S
N3089 C3092 1.350 . S
N3090 S3088 1.610 . S
N3090 C3091 1.351 . S
C3091 C3085 1.428 . S
C3091 N3090 1.351 . S
C3091 C3092 1.434 . S
C3092 C3083 1.429 . S
C3092 N3089 1.350 . S
C3092 C3091 1.434 . S
C3093 C3094 1.369 . S
C3093 C3095 1.419 . S
C3093 H3097 0.930 . S
C3094 C3093 1.369 . S
C3094 C3103 1.429 . S
C3095 C3093 1.419 . S
C3095 C3096 1.363 . S
C3095 H3098 0.929 . S
C3096 C3095 1.363 . S
C3096 C3102 1.428 . S
H3097 C3093 0.930 . S
H3098 C3095 0.929 . S
S3099 N3100 1.613 . S
S3099 N3101 1.610 . S
N3100 S3099 1.613 . S
N3100 C3103 1.350 . S
N3101 S3099 1.610 . S
N3101 C3102 1.351 . S
C3102 C3096 1.428 . S
C3102 N3101 1.351 . S
C3102 C3103 1.434 . S
C3103 C3094 1.429 . S
C3103 N3100 1.350 . S
C3103 C3102 1.434 . S
C3104 C3105 1.369 . S
C3104 C3106 1.419 . S
C3104 H3108 0.930 . S
C3105 C3104 1.369 . S
C3105 C3114 1.429 . S
C3106 C3104 1.419 . S
C3106 C3107 1.363 . S
C3106 H3109 0.929 . S
C3107 C3106 1.363 . S
C3107 C3113 1.428 . S
H3108 C3104 0.930 . S
H3109 C3106 0.929 . S
S3110 N3111 1.613 . S
S3110 N3112 1.610 . S
N3111 S3110 1.613 . S
N3111 C3114 1.350 . S
N3112 S3110 1.610 . S
N3112 C3113 1.351 . S
C3113 C3107 1.428 . S
C3113 N3112 1.351 . S
C3113 C3114 1.434 . S
C3114 C3105 1.429 . S
C3114 N3111 1.350 . S
C3114 C3113 1.434 . S
C3115 C3116 1.369 . S
C3115 C3117 1.419 . S
C3115 H3119 0.930 . S
C3116 C3115 1.369 . S
C3116 C3125 1.429 . S
C3117 C3115 1.419 . S
C3117 C3118 1.363 . S
C3117 H3120 0.929 . S
C3118 C3117 1.363 . S
C3118 C3124 1.428 . S
H3119 C3115 0.930 . S
H3120 C3117 0.929 . S
S3121 N3122 1.613 . S
S3121 N3123 1.610 . S
N3122 S3121 1.613 . S
N3122 C3125 1.350 . S
N3123 S3121 1.610 . S
N3123 C3124 1.351 . S
C3124 C3118 1.428 . S
C3124 N3123 1.351 . S
C3124 C3125 1.434 . S
C3125 C3116 1.429 . S
C3125 N3122 1.350 . S
C3125 C3124 1.434 . S
C3126 C3127 1.369 . S
C3126 C3128 1.419 . S
C3126 H3130 0.930 . S
C3127 C3126 1.369 . S
C3127 C3136 1.429 . S
C3128 C3126 1.419 . S
C3128 C3129 1.363 . S
C3128 H3131 0.929 . S
C3129 C3128 1.363 . S
C3129 C3135 1.428 . S
H3130 C3126 0.930 . S
H3131 C3128 0.929 . S
S3132 N3133 1.613 . S
S3132 N3134 1.610 . S
N3133 S3132 1.613 . S
N3133 C3136 1.350 . S
N3134 S3132 1.610 . S
N3134 C3135 1.351 . S
C3135 C3129 1.428 . S
C3135 N3134 1.351 . S
C3135 C3136 1.434 . S
C3136 C3127 1.429 . S
C3136 N3133 1.350 . S
C3136 C3135 1.434 . S
C3137 C3138 1.369 . S
C3137 C3139 1.419 . S
C3137 H3141 0.930 . S
C3138 C3137 1.369 . S
C3138 C3147 1.429 . S
C3139 C3137 1.419 . S
C3139 C3140 1.363 . S
C3139 H3142 0.929 . S
C3140 C3139 1.363 . S
C3140 C3146 1.428 . S
H3141 C3137 0.930 . S
H3142 C3139 0.929 . S
S3143 N3144 1.613 . S
S3143 N3145 1.610 . S
N3144 S3143 1.613 . S
N3144 C3147 1.350 . S
N3145 S3143 1.610 . S
N3145 C3146 1.351 . S
C3146 C3140 1.428 . S
C3146 N3145 1.351 . S
C3146 C3147 1.434 . S
C3147 C3138 1.429 . S
C3147 N3144 1.350 . S
C3147 C3146 1.434 . S
C3148 C3149 1.369 . S
C3148 C3150 1.419 . S
C3148 H3152 0.930 . S
C3149 C3148 1.369 . S
C3149 C3158 1.429 . S
C3150 C3148 1.419 . S
C3150 C3151 1.363 . S
C3150 H3153 0.929 . S
C3151 C3150 1.363 . S
C3151 C3157 1.428 . S
H3152 C3148 0.930 . S
H3153 C3150 0.929 . S
S3154 N3155 1.613 . S
S3154 N3156 1.610 . S
N3155 S3154 1.613 . S
N3155 C3158 1.350 . S
N3156 S3154 1.610 . S
N3156 C3157 1.351 . S
C3157 C3151 1.428 . S
C3157 N3156 1.351 . S
C3157 C3158 1.434 . S
C3158 C3149 1.429 . S
C3158 N3155 1.350 . S
C3158 C3157 1.434 . S
C3159 C3160 1.369 . S
C3159 C3161 1.419 . S
C3159 H3163 0.930 . S
C3160 C3159 1.369 . S
C3160 C3169 1.429 . S
C3161 C3159 1.419 . S
C3161 C3162 1.363 . S
C3161 H3164 0.929 . S
C3162 C3161 1.363 . S
C3162 C3168 1.428 . S
H3163 C3159 0.930 . S
H3164 C3161 0.929 . S
S3165 N3166 1.613 . S
S3165 N3167 1.610 . S
N3166 S3165 1.613 . S
N3166 C3169 1.350 . S
N3167 S3165 1.610 . S
N3167 C3168 1.351 . S
C3168 C3162 1.428 . S
C3168 N3167 1.351 . S
C3168 C3169 1.434 . S
C3169 C3160 1.429 . S
C3169 N3166 1.350 . S
C3169 C3168 1.434 . S
C3170 C3171 1.369 . S
C3170 C3172 1.419 . S
C3170 H3174 0.930 . S
C3171 C3170 1.369 . S
C3171 C3180 1.429 . S
C3172 C3170 1.419 . S
C3172 C3173 1.363 . S
C3172 H3175 0.929 . S
C3173 C3172 1.363 . S
C3173 C3179 1.428 . S
H3174 C3170 0.930 . S
H3175 C3172 0.929 . S
S3176 N3177 1.613 . S
S3176 N3178 1.610 . S
N3177 S3176 1.613 . S
N3177 C3180 1.350 . S
N3178 S3176 1.610 . S
N3178 C3179 1.351 . S
C3179 C3173 1.428 . S
C3179 N3178 1.351 . S
C3179 C3180 1.434 . S
C3180 C3171 1.429 . S
C3180 N3177 1.350 . S
C3180 C3179 1.434 . S
C3181 C3182 1.369 . S
C3181 C3183 1.419 . S
C3181 H3185 0.930 . S
C3182 C3181 1.369 . S
C3182 C3191 1.429 . S
C3183 C3181 1.419 . S
C3183 C3184 1.363 . S
C3183 H3186 0.929 . S
C3184 C3183 1.363 . S
C3184 C3190 1.428 . S
H3185 C3181 0.930 . S
H3186 C3183 0.929 . S
S3187 N3188 1.613 . S
S3187 N3189 1.610 . S
N3188 S3187 1.613 . S
N3188 C3191 1.350 . S
N3189 S3187 1.610 . S
N3189 C3190 1.351 . S
C3190 C3184 1.428 . S
C3190 N3189 1.351 . S
C3190 C3191 1.434 . S
C3191 C3182 1.429 . S
C3191 N3188 1.350 . S
C3191 C3190 1.434 . S
C3192 C3193 1.369 . S
C3192 C3194 1.419 . S
C3192 H3196 0.930 . S
C3193 C3192 1.369 . S
C3193 C3202 1.429 . S
C3194 C3192 1.419 . S
C3194 C3195 1.363 . S
C3194 H3197 0.929 . S
C3195 C3194 1.363 . S
C3195 C3201 1.428 . S
H3196 C3192 0.930 . S
H3197 C3194 0.929 . S
S3198 N3199 1.613 . S
S3198 N3200 1.610 . S
N3199 S3198 1.613 . S
N3199 C3202 1.350 . S
N3200 S3198 1.610 . S
N3200 C3201 1.351 . S
C3201 C3195 1.428 . S
C3201 N3200 1.351 . S
C3201 C3202 1.434 . S
C3202 C3193 1.429 . S
C3202 N3199 1.350 . S
C3202 C3201 1.434 . S
C3203 C3204 1.369 . S
C3203 C3205 1.419 . S
C3203 H3207 0.930 . S
C3204 C3203 1.369 . S
C3204 C3213 1.429 . S
C3205 C3203 1.419 . S
C3205 C3206 1.363 . S
C3205 H3208 0.929 . S
C3206 C3205 1.363 . S
C3206 C3212 1.428 . S
H3207 C3203 0.930 . S
H3208 C3205 0.929 . S
S3209 N3210 1.613 . S
S3209 N3211 1.610 . S
N3210 S3209 1.613 . S
N3210 C3213 1.350 . S
N3211 S3209 1.610 . S
N3211 C3212 1.351 . S
C3212 C3206 1.428 . S
C3212 N3211 1.351 . S
C3212 C3213 1.434 . S
C3213 C3204 1.429 . S
C3213 N3210 1.350 . S
C3213 C3212 1.434 . S
C3214 C3215 1.369 . S
C3214 C3216 1.419 . S
C3214 H3218 0.930 . S
C3215 C3214 1.369 . S
C3215 C3224 1.429 . S
C3216 C3214 1.419 . S
C3216 C3217 1.363 . S
C3216 H3219 0.929 . S
C3217 C3216 1.363 . S
C3217 C3223 1.428 . S
H3218 C3214 0.930 . S
H3219 C3216 0.929 . S
S3220 N3221 1.613 . S
S3220 N3222 1.610 . S
N3221 S3220 1.613 . S
N3221 C3224 1.350 . S
N3222 S3220 1.610 . S
N3222 C3223 1.351 . S
C3223 C3217 1.428 . S
C3223 N3222 1.351 . S
C3223 C3224 1.434 . S
C3224 C3215 1.429 . S
C3224 N3221 1.350 . S
C3224 C3223 1.434 . S
C3225 C3226 1.369 . S
C3225 C3227 1.419 . S
C3225 H3229 0.930 . S
C3226 C3225 1.369 . S
C3226 C3235 1.429 . S
C3227 C3225 1.419 . S
C3227 C3228 1.363 . S
C3227 H3230 0.929 . S
C3228 C3227 1.363 . S
C3228 C3234 1.428 . S
H3229 C3225 0.930 . S
H3230 C3227 0.929 . S
S3231 N3232 1.613 . S
S3231 N3233 1.610 . S
N3232 S3231 1.613 . S
N3232 C3235 1.350 . S
N3233 S3231 1.610 . S
N3233 C3234 1.351 . S
C3234 C3228 1.428 . S
C3234 N3233 1.351 . S
C3234 C3235 1.434 . S
C3235 C3226 1.429 . S
C3235 N3232 1.350 . S
C3235 C3234 1.434 . S
C3236 C3237 1.369 . S
C3236 C3238 1.419 . S
C3236 H3240 0.930 . S
C3237 C3236 1.369 . S
C3237 C3246 1.429 . S
C3238 C3236 1.419 . S
C3238 C3239 1.363 . S
C3238 H3241 0.929 . S
C3239 C3238 1.363 . S
C3239 C3245 1.428 . S
H3240 C3236 0.930 . S
H3241 C3238 0.929 . S
S3242 N3243 1.613 . S
S3242 N3244 1.610 . S
N3243 S3242 1.613 . S
N3243 C3246 1.350 . S
N3244 S3242 1.610 . S
N3244 C3245 1.351 . S
C3245 C3239 1.428 . S
C3245 N3244 1.351 . S
C3245 C3246 1.434 . S
C3246 C3237 1.429 . S
C3246 N3243 1.350 . S
C3246 C3245 1.434 . S
C3247 C3248 1.369 . S
C3247 C3249 1.419 . S
C3247 H3251 0.930 . S
C3248 C3247 1.369 . S
C3248 C3257 1.429 . S
C3249 C3247 1.419 . S
C3249 C3250 1.363 . S
C3249 H3252 0.929 . S
C3250 C3249 1.363 . S
C3250 C3256 1.428 . S
H3251 C3247 0.930 . S
H3252 C3249 0.929 . S
S3253 N3254 1.613 . S
S3253 N3255 1.610 . S
N3254 S3253 1.613 . S
N3254 C3257 1.350 . S
N3255 S3253 1.610 . S
N3255 C3256 1.351 . S
C3256 C3250 1.428 . S
C3256 N3255 1.351 . S
C3256 C3257 1.434 . S
C3257 C3248 1.429 . S
C3257 N3254 1.350 . S
C3257 C3256 1.434 . S
C3258 C3259 1.369 . S
C3258 C3260 1.419 . S
C3258 H3262 0.930 . S
C3259 C3258 1.369 . S
C3259 C3268 1.429 . S
C3260 C3258 1.419 . S
C3260 C3261 1.363 . S
C3260 H3263 0.929 . S
C3261 C3260 1.363 . S
C3261 C3267 1.428 . S
H3262 C3258 0.930 . S
H3263 C3260 0.929 . S
S3264 N3265 1.613 . S
S3264 N3266 1.610 . S
N3265 S3264 1.613 . S
N3265 C3268 1.350 . S
N3266 S3264 1.610 . S
N3266 C3267 1.351 . S
C3267 C3261 1.428 . S
C3267 N3266 1.351 . S
C3267 C3268 1.434 . S
C3268 C3259 1.429 . S
C3268 N3265 1.350 . S
C3268 C3267 1.434 . S
C3269 C3270 1.369 . S
C3269 C3271 1.419 . S
C3269 H3273 0.930 . S
C3270 C3269 1.369 . S
C3270 C3279 1.429 . S
C3271 C3269 1.419 . S
C3271 C3272 1.363 . S
C3271 H3274 0.929 . S
C3272 C3271 1.363 . S
C3272 C3278 1.428 . S
H3273 C3269 0.930 . S
H3274 C3271 0.929 . S
S3275 N3276 1.613 . S
S3275 N3277 1.610 . S
N3276 S3275 1.613 . S
N3276 C3279 1.350 . S
N3277 S3275 1.610 . S
N3277 C3278 1.351 . S
C3278 C3272 1.428 . S
C3278 N3277 1.351 . S
C3278 C3279 1.434 . S
C3279 C3270 1.429 . S
C3279 N3276 1.350 . S
C3279 C3278 1.434 . S
C3280 C3281 1.369 . S
C3280 C3282 1.419 . S
C3280 H3284 0.930 . S
C3281 C3280 1.369 . S
C3281 C3290 1.429 . S
C3282 C3280 1.419 . S
C3282 C3283 1.363 . S
C3282 H3285 0.929 . S
C3283 C3282 1.363 . S
C3283 C3289 1.428 . S
H3284 C3280 0.930 . S
H3285 C3282 0.929 . S
S3286 N3287 1.613 . S
S3286 N3288 1.610 . S
N3287 S3286 1.613 . S
N3287 C3290 1.350 . S
N3288 S3286 1.610 . S
N3288 C3289 1.351 . S
C3289 C3283 1.428 . S
C3289 N3288 1.351 . S
C3289 C3290 1.434 . S
C3290 C3281 1.429 . S
C3290 N3287 1.350 . S
C3290 C3289 1.434 . S
C3291 C3292 1.369 . S
C3291 C3293 1.419 . S
C3291 H3295 0.930 . S
C3292 C3291 1.369 . S
C3292 C3301 1.429 . S
C3293 C3291 1.419 . S
C3293 C3294 1.363 . S
C3293 H3296 0.929 . S
C3294 C3293 1.363 . S
C3294 C3300 1.428 . S
H3295 C3291 0.930 . S
H3296 C3293 0.929 . S
S3297 N3298 1.613 . S
S3297 N3299 1.610 . S
N3298 S3297 1.613 . S
N3298 C3301 1.350 . S
N3299 S3297 1.610 . S
N3299 C3300 1.351 . S
C3300 C3294 1.428 . S
C3300 N3299 1.351 . S
C3300 C3301 1.434 . S
C3301 C3292 1.429 . S
C3301 N3298 1.350 . S
C3301 C3300 1.434 . S
C3302 C3303 1.369 . S
C3302 C3304 1.419 . S
C3302 H3306 0.930 . S
C3303 C3302 1.369 . S
C3303 C3312 1.429 . S
C3304 C3302 1.419 . S
C3304 C3305 1.363 . S
C3304 H3307 0.929 . S
C3305 C3304 1.363 . S
C3305 C3311 1.428 . S
H3306 C3302 0.930 . S
H3307 C3304 0.929 . S
S3308 N3309 1.613 . S
S3308 N3310 1.610 . S
N3309 S3308 1.613 . S
N3309 C3312 1.350 . S
N3310 S3308 1.610 . S
N3310 C3311 1.351 . S
C3311 C3305 1.428 . S
C3311 N3310 1.351 . S
C3311 C3312 1.434 . S
C3312 C3303 1.429 . S
C3312 N3309 1.350 . S
C3312 C3311 1.434 . S
C3313 C3314 1.369 . S
C3313 C3315 1.419 . S
C3313 H3317 0.930 . S
C3314 C3313 1.369 . S
C3314 C3323 1.429 . S
C3315 C3313 1.419 . S
C3315 C3316 1.363 . S
C3315 H3318 0.929 . S
C3316 C3315 1.363 . S
C3316 C3322 1.428 . S
H3317 C3313 0.930 . S
H3318 C3315 0.929 . S
S3319 N3320 1.613 . S
S3319 N3321 1.610 . S
N3320 S3319 1.613 . S
N3320 C3323 1.350 . S
N3321 S3319 1.610 . S
N3321 C3322 1.351 . S
C3322 C3316 1.428 . S
C3322 N3321 1.351 . S
C3322 C3323 1.434 . S
C3323 C3314 1.429 . S
C3323 N3320 1.350 . S
C3323 C3322 1.434 . S
C3324 C3325 1.369 . S
C3324 C3326 1.419 . S
C3324 H3328 0.930 . S
C3325 C3324 1.369 . S
C3325 C3334 1.429 . S
C3326 C3324 1.419 . S
C3326 C3327 1.363 . S
C3326 H3329 0.929 . S
C3327 C3326 1.363 . S
C3327 C3333 1.428 . S
H3328 C3324 0.930 . S
H3329 C3326 0.929 . S
S3330 N3331 1.613 . S
S3330 N3332 1.610 . S
N3331 S3330 1.613 . S
N3331 C3334 1.350 . S
N3332 S3330 1.610 . S
N3332 C3333 1.351 . S
C3333 C3327 1.428 . S
C3333 N3332 1.351 . S
C3333 C3334 1.434 . S
C3334 C3325 1.429 . S
C3334 N3331 1.350 . S
C3334 C3333 1.434 . S
C3335 C3336 1.369 . S
C3335 C3337 1.419 . S
C3335 H3339 0.930 . S
C3336 C3335 1.369 . S
C3336 C3345 1.429 . S
C3337 C3335 1.419 . S
C3337 C3338 1.363 . S
C3337 H3340 0.929 . S
C3338 C3337 1.363 . S
C3338 C3344 1.428 . S
H3339 C3335 0.930 . S
H3340 C3337 0.929 . S
S3341 N3342 1.613 . S
S3341 N3343 1.610 . S
N3342 S3341 1.613 . S
N3342 C3345 1.350 . S
N3343 S3341 1.610 . S
N3343 C3344 1.351 . S
C3344 C3338 1.428 . S
C3344 N3343 1.351 . S
C3344 C3345 1.434 . S
C3345 C3336 1.429 . S
C3345 N3342 1.350 . S
C3345 C3344 1.434 . S
C3346 C3347 1.369 . S
C3346 C3348 1.419 . S
C3346 H3350 0.930 . S
C3347 C3346 1.369 . S
C3347 C3356 1.429 . S
C3348 C3346 1.419 . S
C3348 C3349 1.363 . S
C3348 H3351 0.929 . S
C3349 C3348 1.363 . S
C3349 C3355 1.428 . S
H3350 C3346 0.930 . S
H3351 C3348 0.929 . S
S3352 N3353 1.613 . S
S3352 N3354 1.610 . S
N3353 S3352 1.613 . S
N3353 C3356 1.350 . S
N3354 S3352 1.610 . S
N3354 C3355 1.351 . S
C3355 C3349 1.428 . S
C3355 N3354 1.351 . S
C3355 C3356 1.434 . S
C3356 C3347 1.429 . S
C3356 N3353 1.350 . S
C3356 C3355 1.434 . S
C3357 C3358 1.369 . S
C3357 C3359 1.419 . S
C3357 H3361 0.930 . S
C3358 C3357 1.369 . S
C3358 C3367 1.429 . S
C3359 C3357 1.419 . S
C3359 C3360 1.363 . S
C3359 H3362 0.929 . S
C3360 C3359 1.363 . S
C3360 C3366 1.428 . S
H3361 C3357 0.930 . S
H3362 C3359 0.929 . S
S3363 N3364 1.613 . S
S3363 N3365 1.610 . S
N3364 S3363 1.613 . S
N3364 C3367 1.350 . S
N3365 S3363 1.610 . S
N3365 C3366 1.351 . S
C3366 C3360 1.428 . S
C3366 N3365 1.351 . S
C3366 C3367 1.434 . S
C3367 C3358 1.429 . S
C3367 N3364 1.350 . S
C3367 C3366 1.434 . S
C3368 C3369 1.369 . S
C3368 C3370 1.419 . S
C3368 H3372 0.930 . S
C3369 C3368 1.369 . S
C3369 C3378 1.429 . S
C3370 C3368 1.419 . S
C3370 C3371 1.363 . S
C3370 H3373 0.929 . S
C3371 C3370 1.363 . S
C3371 C3377 1.428 . S
H3372 C3368 0.930 . S
H3373 C3370 0.929 . S
S3374 N3375 1.613 . S
S3374 N3376 1.610 . S
N3375 S3374 1.613 . S
N3375 C3378 1.350 . S
N3376 S3374 1.610 . S
N3376 C3377 1.351 . S
C3377 C3371 1.428 . S
C3377 N3376 1.351 . S
C3377 C3378 1.434 . S
C3378 C3369 1.429 . S
C3378 N3375 1.350 . S
C3378 C3377 1.434 . S
C3379 C3380 1.369 . S
C3379 C3381 1.419 . S
C3379 H3383 0.930 . S
C3380 C3379 1.369 . S
C3380 C3389 1.429 . S
C3381 C3379 1.419 . S
C3381 C3382 1.363 . S
C3381 H3384 0.929 . S
C3382 C3381 1.363 . S
C3382 C3388 1.428 . S
H3383 C3379 0.930 . S
H3384 C3381 0.929 . S
S3385 N3386 1.613 . S
S3385 N3387 1.610 . S
N3386 S3385 1.613 . S
N3386 C3389 1.350 . S
N3387 S3385 1.610 . S
N3387 C3388 1.351 . S
C3388 C3382 1.428 . S
C3388 N3387 1.351 . S
C3388 C3389 1.434 . S
C3389 C3380 1.429 . S
C3389 N3386 1.350 . S
C3389 C3388 1.434 . S
C3390 C3391 1.369 . S
C3390 C3392 1.419 . S
C3390 H3394 0.930 . S
C3391 C3390 1.369 . S
C3391 C3400 1.429 . S
C3392 C3390 1.419 . S
C3392 C3393 1.363 . S
C3392 H3395 0.929 . S
C3393 C3392 1.363 . S
C3393 C3399 1.428 . S
H3394 C3390 0.930 . S
H3395 C3392 0.929 . S
S3396 N3397 1.613 . S
S3396 N3398 1.610 . S
N3397 S3396 1.613 . S
N3397 C3400 1.350 . S
N3398 S3396 1.610 . S
N3398 C3399 1.351 . S
C3399 C3393 1.428 . S
C3399 N3398 1.351 . S
C3399 C3400 1.434 . S
C3400 C3391 1.429 . S
C3400 N3397 1.350 . S
C3400 C3399 1.434 . S
C3401 C3402 1.369 . S
C3401 C3403 1.419 . S
C3401 H3405 0.930 . S
C3402 C3401 1.369 . S
C3402 C3411 1.429 . S
C3403 C3401 1.419 . S
C3403 C3404 1.363 . S
C3403 H3406 0.929 . S
C3404 C3403 1.363 . S
C3404 C3410 1.428 . S
H3405 C3401 0.930 . S
H3406 C3403 0.929 . S
S3407 N3408 1.613 . S
S3407 N3409 1.610 . S
N3408 S3407 1.613 . S
N3408 C3411 1.350 . S
N3409 S3407 1.610 . S
N3409 C3410 1.351 . S
C3410 C3404 1.428 . S
C3410 N3409 1.351 . S
C3410 C3411 1.434 . S
C3411 C3402 1.429 . S
C3411 N3408 1.350 . S
C3411 C3410 1.434 . S
C3412 C3413 1.369 . S
C3412 C3414 1.419 . S
C3412 H3416 0.930 . S
C3413 C3412 1.369 . S
C3413 C3422 1.429 . S
C3414 C3412 1.419 . S
C3414 C3415 1.363 . S
C3414 H3417 0.929 . S
C3415 C3414 1.363 . S
C3415 C3421 1.428 . S
H3416 C3412 0.930 . S
H3417 C3414 0.929 . S
S3418 N3419 1.613 . S
S3418 N3420 1.610 . S
N3419 S3418 1.613 . S
N3419 C3422 1.350 . S
N3420 S3418 1.610 . S
N3420 C3421 1.351 . S
C3421 C3415 1.428 . S
C3421 N3420 1.351 . S
C3421 C3422 1.434 . S
C3422 C3413 1.429 . S
C3422 N3419 1.350 . S
C3422 C3421 1.434 . S
C3423 C3424 1.369 . S
C3423 C3425 1.419 . S
C3423 H3427 0.930 . S
C3424 C3423 1.369 . S
C3424 C3433 1.429 . S
C3425 C3423 1.419 . S
C3425 C3426 1.363 . S
C3425 H3428 0.929 . S
C3426 C3425 1.363 . S
C3426 C3432 1.428 . S
H3427 C3423 0.930 . S
H3428 C3425 0.929 . S
S3429 N3430 1.613 . S
S3429 N3431 1.610 . S
N3430 S3429 1.613 . S
N3430 C3433 1.350 . S
N3431 S3429 1.610 . S
N3431 C3432 1.351 . S
C3432 C3426 1.428 . S
C3432 N3431 1.351 . S
C3432 C3433 1.434 . S
C3433 C3424 1.429 . S
C3433 N3430 1.350 . S
C3433 C3432 1.434 . S
C3434 C3435 1.369 . S
C3434 C3436 1.419 . S
C3434 H3438 0.930 . S
C3435 C3434 1.369 . S
C3435 C3444 1.429 . S
C3436 C3434 1.419 . S
C3436 C3437 1.363 . S
C3436 H3439 0.929 . S
C3437 C3436 1.363 . S
C3437 C3443 1.428 . S
H3438 C3434 0.930 . S
H3439 C3436 0.929 . S
S3440 N3441 1.613 . S
S3440 N3442 1.610 . S
N3441 S3440 1.613 . S
N3441 C3444 1.350 . S
N3442 S3440 1.610 . S
N3442 C3443 1.351 . S
C3443 C3437 1.428 . S
C3443 N3442 1.351 . S
C3443 C3444 1.434 . S
C3444 C3435 1.429 . S
C3444 N3441 1.350 . S
C3444 C3443 1.434 . S
C3445 C3446 1.369 . S
C3445 C3447 1.419 . S
C3445 H3449 0.930 . S
C3446 C3445 1.369 . S
C3446 C3455 1.429 . S
C3447 C3445 1.419 . S
C3447 C3448 1.363 . S
C3447 H3450 0.929 . S
C3448 C3447 1.363 . S
C3448 C3454 1.428 . S
H3449 C3445 0.930 . S
H3450 C3447 0.929 . S
S3451 N3452 1.613 . S
S3451 N3453 1.610 . S
N3452 S3451 1.613 . S
N3452 C3455 1.350 . S
N3453 S3451 1.610 . S
N3453 C3454 1.351 . S
C3454 C3448 1.428 . S
C3454 N3453 1.351 . S
C3454 C3455 1.434 . S
C3455 C3446 1.429 . S
C3455 N3452 1.350 . S
C3455 C3454 1.434 . S
C1345 C0 2.115 . S
C1347 C433 2.109 . S
C1356 C770 2.110 . S
C1358 C14 2.113 . S
C1367 C41 2.107 . S
C1369 C392 2.113 . S
C1378 C54 2.116 . S
C1380 C742 2.114 . S
C1389 C364 2.116 . S
C1391 C56 2.114 . S
C1400 C70 2.110 . S
C1402 C714 2.113 . S
C1411 C336 2.111 . S
C1413 C84 2.114 . S
C1422 C98 2.111 . S
C1424 C698 2.113 . S
C1433 C489 2.109 . S
C1435 C125 2.107 . S
C1444 C126 2.113 . S
C1446 C826 2.111 . S
C1455 C153 2.110 . S
C1457 C461 2.112 . S
C1466 C154 2.115 . S
C1468 C798 2.116 . S
C1477 C180 2.112 . S
C1479 C544 2.115 . S
C1488 C883 2.109 . S
C1490 C182 2.115 . S
C1499 C516 2.116 . S
C1501 C209 2.110 . S
C1510 C210 2.113 . S
C1512 C867 2.107 . S
C1521 C910 2.113 . S
C1523 C237 2.112 . S
C1532 C909 2.108 . S
C1534 C239 2.111 . S
C1543 C265 2.112 . S
C1545 C1006 2.115 . S
C1554 C1302 2.113 . S
C1556 C278 2.115 . S
C1565 C656 2.111 . S
C1567 C293 2.110 . S
C1576 C294 2.116 . S
C1578 C1274 2.114 . S
C1587 C320 2.111 . S
C1589 C629 2.110 . S
C1598 C334 2.116 . S
C1600 C937 2.112 . S
C1609 C363 2.108 . S
C1611 C1106 2.114 . S
C1620 C378 2.114 . S
C1622 C1091 2.108 . S
C1631 C406 2.113 . S
C1633 C1050 2.111 . S
C1642 C435 2.112 . S
C1644 C1023 2.109 . S
C1653 C1175 2.106 . S
C1655 C462 2.111 . S
C1664 C490 2.114 . S
C1666 C1135 2.112 . S
C1675 C1218 2.110 . S
C1677 C518 2.111 . S
C1686 C546 2.114 . S
C1688 C1203 2.108 . S
C1697 C560 2.110 . S
C1699 C1247 2.109 . S
C1708 C574 2.111 . S
C1710 C1232 2.114 . S
C1719 C601 2.111 . S
C1721 C1342 2.112 . S
C1730 C966 2.111 . S
C1732 C614 2.113 . S
C1741 C951 2.107 . S
C1743 C630 2.111 . S
C1752 C670 2.111 . S
C1754 C1273 2.110 . S
C1763 C672 2.110 . S
C1765 C1092 2.113 . S
C1774 C1077 2.106 . S
C1776 C713 2.109 . S
C1785 C728 2.113 . S
C1787 C1049 2.112 . S
C1796 C756 2.110 . S
C1798 C1009 2.109 . S
C1807 C1160 2.115 . S
C1809 C796 2.113 . S
C1818 C1132 2.112 . S
C1820 C825 2.107 . S
C1829 C853 2.110 . S
C1831 C1217 2.112 . S
C1840 C1188 2.110 . S
C1842 C880 2.113 . S
C1851 C965 2.106 . S
C1853 C1328 2.111 . S
C1862 C993 2.109 . S
C1864 C1300 2.115 . S
C1873 C13 1.534 . S
C1875 C783 1.531 . S
C1884 C27 1.536 . S
C1886 C405 1.531 . S
C1895 C28 1.532 . S
C1897 C755 1.535 . S
C1906 C420 1.531 . S
C1908 C43 1.535 . S
C1917 C69 1.535 . S
C1919 C350 1.533 . S
C1928 C83 1.530 . S
C1930 C700 1.536 . S
C1939 C97 1.535 . S
C1941 C391 1.531 . S
C1950 C685 1.530 . S
C1952 C111 1.535 . S
C1961 C112 1.536 . S
C1963 C280 1.531 . S
C1972 C139 1.535 . S
C1974 C1258 1.532 . S
C1983 C1260 1.532 . S
C1985 C140 1.534 . S
C1994 C167 1.531 . S
C1996 C1287 1.534 . S
C2005 C995 1.532 . S
C2007 C169 1.533 . S
C2016 C1315 1.535 . S
C2018 C195 1.532 . S
C2027 C196 1.535 . S
C2029 C980 1.532 . S
C2038 C896 1.536 . S
C2040 C223 1.531 . S
C2049 C894 1.531 . S
C2051 C224 1.536 . S
C2060 C1146 1.531 . S
C2062 C250 1.536 . S
C2071 C252 1.531 . S
C2073 C1149 1.535 . S
C2082 C267 1.530 . S
C2084 C1162 1.535 . S
C2093 C307 1.530 . S
C2095 C1190 1.535 . S
C2104 C309 1.534 . S
C2106 C869 1.533 . S
C2115 C840 1.531 . S
C2117 C323 1.535 . S
C2126 C349 1.531 . S
C2128 C1119 1.535 . S
C2137 C1078 1.532 . S
C2139 C377 1.533 . S
C2148 C1036 1.533 . S
C2150 C419 1.534 . S
C2159 C446 1.533 . S
C2161 C1020 1.535 . S
C2170 C448 1.532 . S
C2172 C616 1.535 . S
C2181 C475 1.535 . S
C2183 C923 1.531 . S
C2192 C476 1.532 . S
C2194 C924 1.534 . S
C2203 C503 1.531 . S
C2205 C938 1.535 . S
C2214 C505 1.533 . S
C2216 C1331 1.534 . S
C2225 C979 1.530 . S
C2227 C531 1.535 . S
C2236 C1317 1.533 . S
C2238 C533 1.534 . S
C2247 C1245 1.535 . S
C2249 C559 1.532 . S
C2258 C1231 1.534 . S
C2260 C573 1.532 . S
C2269 C587 1.531 . S
C2271 C811 1.534 . S
C2280 C588 1.535 . S
C2282 C812 1.532 . S
C2291 C603 1.531 . S
C2293 C839 1.535 . S
C2302 C854 1.534 . S
C2304 C643 1.532 . S
C2313 C1204 1.536 . S
C2315 C645 1.531 . S
C2324 C1177 1.535 . S
C2326 C659 1.532 . S
C2335 C687 1.534 . S
C2337 C1064 1.532 . S
C2346 C727 1.532 . S
C2348 C1105 1.535 . S
C2357 C1034 1.535 . S
C2359 C741 1.533 . S
C2368 C1063 1.534 . S
C2370 C769 1.532 . S
C2379 C952 1.536 . S
C2381 C785 1.531 . S
C2390 C1289 1.535 . S
C2392 C1121 1.533 . S
C2401 C12 1.774 . S
C2403 C1303 1.671 . S
C2412 C26 1.775 . S
C2414 C992 1.676 . S
C2423 C908 1.683 . S
C2425 C29 1.768 . S
C2434 C1007 1.670 . S
C2436 C42 1.774 . S
C2445 C68 1.772 . S
C2447 C279 1.675 . S
C2456 C82 1.771 . S
C2458 C1301 1.675 . S
C2467 C238 1.674 . S
C2469 C96 1.775 . S
C2478 C264 1.681 . S
C2480 C110 1.771 . S
C2489 C393 1.680 . S
C2491 C113 1.767 . S
C2500 C138 1.776 . S
C2502 C743 1.670 . S
C2511 C141 1.771 . S
C2513 C432 1.677 . S
C2522 C166 1.773 . S
C2524 C771 1.673 . S
C2533 C337 1.668 . S
C2535 C168 1.775 . S
C2544 C194 1.775 . S
C2546 C699 1.671 . S
C2555 C365 1.680 . S
C2557 C197 1.767 . S
C2566 C222 1.774 . S
C2568 C715 1.673 . S
C2577 C225 1.773 . S
C2579 C1216 1.676 . S
C2588 C488 1.675 . S
C2590 C251 1.771 . S
C2599 C253 1.768 . S
C2601 C827 1.677 . S
C2610 C460 1.673 . S
C2612 C266 1.775 . S
C2621 C281 1.770 . S
C2623 C463 1.674 . S
C2632 C852 1.680 . S
C2634 C306 1.772 . S
C2643 C183 1.679 . S
C2645 C308 1.770 . S
C2654 C211 1.680 . S
C2656 C322 1.769 . S
C2665 C967 1.668 . S
C2667 C348 1.775 . S
C2676 C351 1.769 . S
C2678 C1329 1.676 . S
C2687 C1233 1.676 . S
C2689 C376 1.771 . S
C2698 C390 1.776 . S
C2700 C1343 1.670 . S
C2709 C615 1.675 . S
C2711 C404 1.771 . S
C2720 C964 1.683 . S
C2722 C418 1.771 . S
C2731 C421 1.772 . S
C2733 C575 1.671 . S
C2742 C447 1.770 . S
C2744 C600 1.680 . S
C2753 C449 1.767 . S
C2755 C57 1.677 . S
C2764 C474 1.769 . S
C2766 C1090 1.682 . S
C2775 C85 1.670 . S
C2777 C477 1.771 . S
C2786 C502 1.776 . S
C2788 C1107 1.670 . S
C2797 C1 1.669 . S
C2799 C504 1.775 . S
C2808 C530 1.770 . S
C2810 C1022 1.682 . S
C2819 C40 1.674 . S
C2821 C532 1.774 . S
C2830 C1051 1.669 . S
C2832 C558 1.775 . S
C2841 C572 1.771 . S
C2843 C881 1.675 . S
C2852 C586 1.776 . S
C2854 C152 1.675 . S
C2863 C1174 1.685 . S
C2865 C589 1.767 . S
C2874 C602 1.768 . S
C2876 C124 1.684 . S
C2885 C127 1.669 . S
C2887 C617 1.772 . S
C2896 C642 1.768 . S
C2898 C1189 1.679 . S
C2907 C519 1.679 . S
C2909 C644 1.769 . S
C2918 C658 1.773 . S
C2920 C547 1.672 . S
C2929 C631 1.671 . S
C2931 C684 1.774 . S
C2940 C686 1.774 . S
C2942 C321 1.672 . S
C2951 C701 1.773 . S
C2953 C236 1.676 . S
C2962 C726 1.768 . S
C2964 C335 1.679 . S
C2973 C740 1.775 . S
C2975 C950 1.675 . S
C2984 C628 1.681 . S
C2986 C754 1.772 . S
C2995 C911 1.680 . S
C2997 C768 1.769 . S
C3006 C782 1.769 . S
C3008 C936 1.683 . S
C3017 C1076 1.676 . S
C3019 C784 1.773 . S
C3028 C71 1.671 . S
C3030 C810 1.773 . S
C3039 C1093 1.670 . S
C3041 C813 1.771 . S
C3050 C838 1.770 . S
C3052 C99 1.677 . S
C3061 C1008 1.676 . S
C3063 C841 1.771 . S
C3072 C855 1.769 . S
C3074 C15 1.676 . S
C3083 C1048 1.678 . S
C3085 C868 1.773 . S
C3094 C55 1.670 . S
C3096 C895 1.772 . S
C3105 C545 1.671 . S
C3107 C897 1.771 . S
C3116 C922 1.768 . S
C3118 C1161 1.678 . S
C3127 C925 1.768 . S
C3129 C155 1.677 . S
C3138 C1133 1.680 . S
C3140 C939 1.767 . S
C3149 C953 1.772 . S
C3151 C1134 1.676 . S
C3160 C181 1.670 . S
C3162 C978 1.775 . S
C3171 C866 1.675 . S
C3173 C981 1.772 . S
C3182 C994 1.776 . S
C3184 C882 1.675 . S
C3193 C1021 1.773 . S
C3195 C295 1.670 . S
C3204 C657 1.671 . S
C3206 C1035 1.771 . S
C3215 C561 1.678 . S
C3217 C1037 1.768 . S
C3226 C1062 1.770 . S
C3228 C671 1.676 . S
C3237 C1065 1.767 . S
C3239 C1275 1.678 . S
C3248 C292 1.683 . S
C3250 C1079 1.768 . S
C3259 C1246 1.682 . S
C3261 C1104 1.771 . S
C3270 C1272 1.681 . S
C3272 C1118 1.772 . S
C3281 C729 1.680 . S
C3283 C1120 1.769 . S
C3292 C1147 1.773 . S
C3294 C407 1.670 . S
C3303 C1148 1.773 . S
C3305 C757 1.672 . S
C3314 C1163 1.772 . S
C3316 C434 1.676 . S
C3325 C673 1.671 . S
C3327 C1176 1.773 . S
C3336 C1191 1.771 . S
C3338 C362 1.678 . S
C3347 C1205 1.767 . S
C3349 C712 1.683 . S
C3358 C1230 1.774 . S
C3360 C379 1.671 . S
C3369 C208 1.677 . S
C3371 C1244 1.773 . S
C3380 C1259 1.768 . S
C3382 C824 1.680 . S
C3391 C1261 1.774 . S
C3393 C491 1.670 . S
C3402 C1286 1.774 . S
C3404 C797 1.671 . S
C3413 C1288 1.768 . S
C3415 C799 1.679 . S
C3424 C517 1.669 . S
C3426 C1314 1.774 . S
C3435 C1202 1.683 . S
C3437 C1316 1.770 . S
C3446 C1219 1.669 . S
C3448 C1330 1.775 . S
