# Generated by pormake.
# Topology vbb, (4)-cn, num edge types: 1
# Building blocks:
#     Node 0, Type 0, BuildingBlock: KOZSID_clean_sbu_0, # of connection points: 4
#     Node 1, Type 0, BuildingBlock: KOZSID_clean_sbu_0, # of connection points: 4
#     Node 2, Type 0, BuildingBlock: KOZSID_clean_sbu_0, # of connection points: 4
#     Node 3, Type 0, BuildingBlock: KOZSID_clean_sbu_0, # of connection points: 4
#     Node 4, Type 0, BuildingBlock: KOZSID_clean_sbu_0, # of connection points: 4
#     Node 5, Type 0, BuildingBlock: KOZSID_clean_sbu_0, # of connection points: 4
#     Node 6, Type 0, BuildingBlock: KOZSID_clean_sbu_0, # of connection points: 4
#     Node 7, Type 0, BuildingBlock: KOZSID_clean_sbu_0, # of connection points: 4
#     Node 8, Type 0, BuildingBlock: KOZSID_clean_sbu_0, # of connection points: 4
#     Node 9, Type 0, BuildingBlock: KOZSID_clean_sbu_0, # of connection points: 4
#     Node 10, Type 0, BuildingBlock: KOZSID_clean_sbu_0, # of connection points: 4
#     Node 11, Type 0, BuildingBlock: KOZSID_clean_sbu_0, # of connection points: 4
#     Node 12, Type 0, BuildingBlock: KOZSID_clean_sbu_0, # of connection points: 4
#     Node 13, Type 0, BuildingBlock: KOZSID_clean_sbu_0, # of connection points: 4
#     Node 14, Type 0, BuildingBlock: KOZSID_clean_sbu_0, # of connection points: 4
#     Node 15, Type 0, BuildingBlock: KOZSID_clean_sbu_0, # of connection points: 4
#     Node 16, Type 0, BuildingBlock: KOZSID_clean_sbu_0, # of connection points: 4
#     Node 17, Type 0, BuildingBlock: KOZSID_clean_sbu_0, # of connection points: 4
#     Node 18, Type 0, BuildingBlock: KOZSID_clean_sbu_0, # of connection points: 4
#     Node 19, Type 0, BuildingBlock: KOZSID_clean_sbu_0, # of connection points: 4
#     Node 20, Type 0, BuildingBlock: KOZSID_clean_sbu_0, # of connection points: 4
#     Node 21, Type 0, BuildingBlock: KOZSID_clean_sbu_0, # of connection points: 4
#     Node 22, Type 0, BuildingBlock: KOZSID_clean_sbu_0, # of connection points: 4
#     Node 23, Type 0, BuildingBlock: KOZSID_clean_sbu_0, # of connection points: 4
#     Node 24, Type 0, BuildingBlock: KOZSID_clean_sbu_0, # of connection points: 4
#     Node 25, Type 0, BuildingBlock: KOZSID_clean_sbu_0, # of connection points: 4
#     Node 26, Type 0, BuildingBlock: KOZSID_clean_sbu_0, # of connection points: 4
#     Node 27, Type 0, BuildingBlock: KOZSID_clean_sbu_0, # of connection points: 4
#     Node 28, Type 0, BuildingBlock: KOZSID_clean_sbu_0, # of connection points: 4
#     Node 29, Type 0, BuildingBlock: KOZSID_clean_sbu_0, # of connection points: 4
#     Node 30, Type 0, BuildingBlock: KOZSID_clean_sbu_0, # of connection points: 4
#     Node 31, Type 0, BuildingBlock: KOZSID_clean_sbu_0, # of connection points: 4
#     Edge 32, Type (0, 0), BuildingBlock: ZUJKAS_clean_linker_0, # of connection points: 2
#     Edge 33, Type (0, 0), BuildingBlock: ZUJKAS_clean_linker_0, # of connection points: 2
#     Edge 34, Type (0, 0), BuildingBlock: ZUJKAS_clean_linker_0, # of connection points: 2
#     Edge 35, Type (0, 0), BuildingBlock: ZUJKAS_clean_linker_0, # of connection points: 2
#     Edge 36, Type (0, 0), BuildingBlock: ZUJKAS_clean_linker_0, # of connection points: 2
#     Edge 37, Type (0, 0), BuildingBlock: ZUJKAS_clean_linker_0, # of connection points: 2
#     Edge 38, Type (0, 0), BuildingBlock: ZUJKAS_clean_linker_0, # of connection points: 2
#     Edge 39, Type (0, 0), BuildingBlock: ZUJKAS_clean_linker_0, # of connection points: 2
#     Edge 40, Type (0, 0), BuildingBlock: ZUJKAS_clean_linker_0, # of connection points: 2
#     Edge 41, Type (0, 0), BuildingBlock: ZUJKAS_clean_linker_0, # of connection points: 2
#     Edge 42, Type (0, 0), BuildingBlock: ZUJKAS_clean_linker_0, # of connection points: 2
#     Edge 43, Type (0, 0), BuildingBlock: ZUJKAS_clean_linker_0, # of connection points: 2
#     Edge 44, Type (0, 0), BuildingBlock: ZUJKAS_clean_linker_0, # of connection points: 2
#     Edge 45, Type (0, 0), BuildingBlock: ZUJKAS_clean_linker_0, # of connection points: 2
#     Edge 46, Type (0, 0), BuildingBlock: ZUJKAS_clean_linker_0, # of connection points: 2
#     Edge 47, Type (0, 0), BuildingBlock: ZUJKAS_clean_linker_0, # of connection points: 2
#     Edge 48, Type (0, 0), BuildingBlock: ZUJKAS_clean_linker_0, # of connection points: 2
#     Edge 49, Type (0, 0), BuildingBlock: ZUJKAS_clean_linker_0, # of connection points: 2
#     Edge 50, Type (0, 0), BuildingBlock: ZUJKAS_clean_linker_0, # of connection points: 2
#     Edge 51, Type (0, 0), BuildingBlock: ZUJKAS_clean_linker_0, # of connection points: 2
#     Edge 52, Type (0, 0), BuildingBlock: ZUJKAS_clean_linker_0, # of connection points: 2
#     Edge 53, Type (0, 0), BuildingBlock: ZUJKAS_clean_linker_0, # of connection points: 2
#     Edge 54, Type (0, 0), BuildingBlock: ZUJKAS_clean_linker_0, # of connection points: 2
#     Edge 55, Type (0, 0), BuildingBlock: ZUJKAS_clean_linker_0, # of connection points: 2
#     Edge 56, Type (0, 0), BuildingBlock: ZUJKAS_clean_linker_0, # of connection points: 2
#     Edge 57, Type (0, 0), BuildingBlock: ZUJKAS_clean_linker_0, # of connection points: 2
#     Edge 58, Type (0, 0), BuildingBlock: ZUJKAS_clean_linker_0, # of connection points: 2
#     Edge 59, Type (0, 0), BuildingBlock: ZUJKAS_clean_linker_0, # of connection points: 2
#     Edge 60, Type (0, 0), BuildingBlock: ZUJKAS_clean_linker_0, # of connection points: 2
#     Edge 61, Type (0, 0), BuildingBlock: ZUJKAS_clean_linker_0, # of connection points: 2
#     Edge 62, Type (0, 0), BuildingBlock: ZUJKAS_clean_linker_0, # of connection points: 2
#     Edge 63, Type (0, 0), BuildingBlock: ZUJKAS_clean_linker_0, # of connection points: 2
#     Edge 64, Type (0, 0), BuildingBlock: ZUJKAS_clean_linker_0, # of connection points: 2
#     Edge 65, Type (0, 0), BuildingBlock: ZUJKAS_clean_linker_0, # of connection points: 2
#     Edge 66, Type (0, 0), BuildingBlock: ZUJKAS_clean_linker_0, # of connection points: 2
#     Edge 67, Type (0, 0), BuildingBlock: ZUJKAS_clean_linker_0, # of connection points: 2
#     Edge 68, Type (0, 0), BuildingBlock: ZUJKAS_clean_linker_0, # of connection points: 2
#     Edge 69, Type (0, 0), BuildingBlock: ZUJKAS_clean_linker_0, # of connection points: 2
#     Edge 70, Type (0, 0), BuildingBlock: ZUJKAS_clean_linker_0, # of connection points: 2
#     Edge 71, Type (0, 0), BuildingBlock: ZUJKAS_clean_linker_0, # of connection points: 2
#     Edge 72, Type (0, 0), BuildingBlock: ZUJKAS_clean_linker_0, # of connection points: 2
#     Edge 73, Type (0, 0), BuildingBlock: ZUJKAS_clean_linker_0, # of connection points: 2
#     Edge 74, Type (0, 0), BuildingBlock: ZUJKAS_clean_linker_0, # of connection points: 2
#     Edge 75, Type (0, 0), BuildingBlock: ZUJKAS_clean_linker_0, # of connection points: 2
#     Edge 76, Type (0, 0), BuildingBlock: ZUJKAS_clean_linker_0, # of connection points: 2
#     Edge 77, Type (0, 0), BuildingBlock: ZUJKAS_clean_linker_0, # of connection points: 2
#     Edge 78, Type (0, 0), BuildingBlock: ZUJKAS_clean_linker_0, # of connection points: 2
#     Edge 79, Type (0, 0), BuildingBlock: ZUJKAS_clean_linker_0, # of connection points: 2
#     Edge 80, Type (0, 0), BuildingBlock: ZUJKAS_clean_linker_0, # of connection points: 2
#     Edge 81, Type (0, 0), BuildingBlock: ZUJKAS_clean_linker_0, # of connection points: 2
#     Edge 82, Type (0, 0), BuildingBlock: ZUJKAS_clean_linker_0, # of connection points: 2
#     Edge 83, Type (0, 0), BuildingBlock: ZUJKAS_clean_linker_0, # of connection points: 2
#     Edge 84, Type (0, 0), BuildingBlock: ZUJKAS_clean_linker_0, # of connection points: 2
#     Edge 85, Type (0, 0), BuildingBlock: ZUJKAS_clean_linker_0, # of connection points: 2
#     Edge 86, Type (0, 0), BuildingBlock: ZUJKAS_clean_linker_0, # of connection points: 2
#     Edge 87, Type (0, 0), BuildingBlock: ZUJKAS_clean_linker_0, # of connection points: 2
#     Edge 88, Type (0, 0), BuildingBlock: ZUJKAS_clean_linker_0, # of connection points: 2
#     Edge 89, Type (0, 0), BuildingBlock: ZUJKAS_clean_linker_0, # of connection points: 2
#     Edge 90, Type (0, 0), BuildingBlock: ZUJKAS_clean_linker_0, # of connection points: 2
#     Edge 91, Type (0, 0), BuildingBlock: ZUJKAS_clean_linker_0, # of connection points: 2
#     Edge 92, Type (0, 0), BuildingBlock: ZUJKAS_clean_linker_0, # of connection points: 2
#     Edge 93, Type (0, 0), BuildingBlock: ZUJKAS_clean_linker_0, # of connection points: 2
#     Edge 94, Type (0, 0), BuildingBlock: ZUJKAS_clean_linker_0, # of connection points: 2
#     Edge 95, Type (0, 0), BuildingBlock: ZUJKAS_clean_linker_0, # of connection points: 2
# Relax obj value: 0.044
# Max RMSD: 0.154
# Mean RMSD: 0.152
data_MOF--net-vbb--node1-KOZSID_clean_sbu_0--edge1-ZUJKAS_clean_linker_0
_symmetry_space_group_name_H-M    P1
_symmetry_Int_Tables_number       1
_symmetry_cell_setting            triclinic
loop_
_symmetry_equiv_pos_as_xyz
'x, y, z'
_cell_length_a     80.512122
_cell_length_b     51.683101
_cell_length_c     158.0447
_cell_angle_alpha  89.763209
_cell_angle_beta   90.027528
_cell_angle_gamma 89.984758
loop_
_atom_site_label
_atom_site_type_symbol
_atom_site_fract_x
_atom_site_fract_y
_atom_site_fract_z
_atom_type_partial_charge
C0 C 0.49735 0.06507 0.08495 0.0
C1 C 0.48752 0.08625 0.08697 0.0
C2 C 0.47801 0.09147 0.07996 0.0
C3 C 0.48254 0.07325 0.0741 0.0
N4 N 0.49429 0.05695 0.07698 0.0
Co5 Co 0.50426 0.02787 0.07062 0.0
N6 N 0.49733 0.04305 0.05962 0.0
C7 C 0.48546 0.06115 0.05854 0.0
C8 C 0.48286 0.06747 0.05021 0.0
C9 C 0.49363 0.05221 0.04576 0.0
C10 C 0.50227 0.03734 0.05165 0.0
N11 N 0.51402 0.99856 0.06424 0.0
C12 C 0.51741 0.9963 0.05586 0.0
C13 C 0.52394 0.97205 0.0541 0.0
C14 C 0.5243 0.95862 0.06162 0.0
C15 C 0.51807 0.97535 0.06755 0.0
N16 N 0.51117 0.01312 0.08169 0.0
C17 C 0.51547 0.98837 0.08316 0.0
C18 C 0.51994 0.98408 0.09145 0.0
C19 C 0.51829 0.00761 0.0954 0.0
C20 C 0.51289 0.02498 0.08929 0.0
N21 N 0.48308 0.00855 0.0713 0.0
C22 C 0.45514 0.97558 0.07248 0.0
C23 C 0.46111 0.98899 0.07958 0.0
C24 C 0.47494 0.00551 0.07884 0.0
C25 C 0.46321 0.97984 0.06474 0.0
C26 C 0.47705 0.99619 0.06429 0.0
N27 N 0.52559 0.04643 0.06995 0.0
C28 C 0.55548 0.0453 0.07106 0.0
C29 C 0.5566 0.0717 0.0691 0.0
C30 C 0.54172 0.08527 0.06764 0.0
C31 C 0.52637 0.07225 0.06803 0.0
C32 C 0.53999 0.03317 0.07149 0.0
H33 H 0.51515 0.08303 0.06678 0.0
H34 H 0.53974 0.01294 0.07311 0.0
H35 H 0.47927 0.01535 0.08443 0.0
H36 H 0.48316 0.99814 0.05826 0.0
C37 C 0.47857 0.07394 0.06549 0.0
C38 C 0.50869 0.05224 0.09089 0.0
C39 C 0.5134 0.01591 0.04937 0.0
C40 C 0.51807 0.97144 0.07636 0.0
H41 H 0.48727 0.09682 0.09286 0.0
H42 H 0.46943 0.1074 0.07913 0.0
H43 H 0.47436 0.08177 0.04768 0.0
H44 H 0.49464 0.05162 0.03893 0.0
H45 H 0.52786 0.96472 0.04802 0.0
H46 H 0.52899 0.93923 0.06266 0.0
H47 H 0.52457 0.96629 0.09421 0.0
H48 H 0.52082 0.01155 0.102 0.0
H49 H 0.45518 0.98672 0.08569 0.0
H50 H 0.45924 0.96987 0.05907 0.0
H51 H 0.56653 0.03403 0.07239 0.0
H52 H 0.54194 0.10568 0.06608 0.0
C53 C 0.78119 0.19295 0.08534 0.0
C54 C 0.79102 0.17183 0.08748 0.0
C55 C 0.80051 0.16638 0.08051 0.0
C56 C 0.79596 0.18441 0.07453 0.0
N57 N 0.78422 0.20081 0.07732 0.0
Co58 Co 0.77416 0.22961 0.07078 0.0
N59 N 0.78096 0.21398 0.05988 0.0
C60 C 0.79282 0.19584 0.0589 0.0
C61 C 0.7953 0.18917 0.05061 0.0
C62 C 0.78446 0.20423 0.04608 0.0
C63 C 0.7759 0.21934 0.05189 0.0
N64 N 0.76434 0.25866 0.06424 0.0
C65 C 0.76086 0.2606 0.05585 0.0
C66 C 0.75435 0.28481 0.05394 0.0
C67 C 0.75409 0.29854 0.06136 0.0
C68 C 0.76036 0.28202 0.0674 0.0
N69 N 0.76735 0.24477 0.08176 0.0
C70 C 0.76308 0.26956 0.08309 0.0
C71 C 0.75864 0.27411 0.09135 0.0
C72 C 0.76027 0.25068 0.09544 0.0
C73 C 0.76562 0.23312 0.08942 0.0
N74 N 0.79533 0.249 0.07128 0.0
C75 C 0.8229 0.28296 0.07218 0.0
C76 C 0.81716 0.26951 0.07938 0.0
C77 C 0.80351 0.25257 0.07878 0.0
C78 C 0.81491 0.2778 0.06447 0.0
C79 C 0.80126 0.26103 0.06416 0.0
N80 N 0.75282 0.21102 0.0703 0.0
C81 C 0.72296 0.21224 0.07159 0.0
C82 C 0.72173 0.1856 0.07003 0.0
C83 C 0.73661 0.17205 0.0685 0.0
C84 C 0.75197 0.1851 0.06863 0.0
C85 C 0.73845 0.22439 0.07176 0.0
H86 H 0.76317 0.17422 0.06744 0.0
H87 H 0.73873 0.24477 0.07311 0.0
H88 H 0.79924 0.24301 0.08446 0.0
H89 H 0.79523 0.25847 0.05814 0.0
C90 C 0.79982 0.18336 0.06592 0.0
C91 C 0.76979 0.20591 0.09118 0.0
C92 C 0.76475 0.2407 0.04949 0.0
C93 C 0.76045 0.28626 0.07618 0.0
H94 H 0.79127 0.16142 0.09344 0.0
H95 H 0.80906 0.15041 0.07976 0.0
H96 H 0.80377 0.17478 0.04815 0.0
H97 H 0.78336 0.20454 0.03925 0.0
H98 H 0.75037 0.29191 0.04782 0.0
H99 H 0.74944 0.31798 0.06227 0.0
H100 H 0.75403 0.29198 0.09401 0.0
H101 H 0.75778 0.24693 0.10206 0.0
H102 H 0.82276 0.27262 0.08552 0.0
H103 H 0.81903 0.28683 0.05865 0.0
H104 H 0.712 0.22394 0.07261 0.0
H105 H 0.73649 0.15144 0.06732 0.0
C106 C 0.49732 0.19225 0.17304 0.0
C107 C 0.48758 0.17083 0.17119 0.0
C108 C 0.47837 0.16566 0.17829 0.0
C109 C 0.48301 0.18405 0.18406 0.0
N110 N 0.49459 0.20043 0.18105 0.0
Co111 Co 0.50481 0.22954 0.18731 0.0
N112 N 0.4982 0.2145 0.19838 0.0
C113 C 0.4864 0.19638 0.19958 0.0
C114 C 0.48407 0.19013 0.20793 0.0
C115 C 0.49495 0.20547 0.21228 0.0
C116 C 0.50339 0.2203 0.20631 0.0
N117 N 0.51481 0.25888 0.19357 0.0
C118 C 0.51841 0.26127 0.20193 0.0
C119 C 0.525 0.28553 0.20361 0.0
C120 C 0.52519 0.29884 0.19607 0.0
C121 C 0.5188 0.28204 0.1902 0.0
N122 N 0.51141 0.24415 0.17617 0.0
C123 C 0.51568 0.26886 0.17464 0.0
C124 C 0.51983 0.2731 0.16631 0.0
C125 C 0.518 0.24955 0.16239 0.0
C126 C 0.51285 0.23223 0.16857 0.0
N127 N 0.48365 0.24897 0.18677 0.0
C128 C 0.45602 0.28281 0.18577 0.0
C129 C 0.46163 0.26909 0.17864 0.0
C130 C 0.47531 0.2522 0.17929 0.0
C131 C 0.46418 0.27801 0.19347 0.0
C132 C 0.47786 0.26132 0.19383 0.0
N133 N 0.52612 0.21091 0.18785 0.0
C134 C 0.55598 0.21197 0.18654 0.0
C135 C 0.55718 0.18573 0.18871 0.0
C136 C 0.54234 0.17224 0.19034 0.0
C137 C 0.52697 0.1852 0.18992 0.0
C138 C 0.54048 0.22406 0.18612 0.0
H139 H 0.51578 0.1745 0.1913 0.0
H140 H 0.54018 0.24421 0.18439 0.0
H141 H 0.47945 0.24238 0.17366 0.0
H142 H 0.48403 0.25905 0.19983 0.0
C143 C 0.47934 0.18347 0.1927 0.0
C144 C 0.5084 0.20508 0.16697 0.0
C145 C 0.51454 0.2418 0.20848 0.0
C146 C 0.51851 0.28586 0.18139 0.0
H147 H 0.48722 0.15999 0.16535 0.0
H148 H 0.46993 0.14961 0.17925 0.0
H149 H 0.47568 0.17583 0.21054 0.0
H150 H 0.49617 0.20613 0.2191 0.0
H151 H 0.52907 0.29295 0.20966 0.0
H152 H 0.52985 0.31821 0.19498 0.0
H153 H 0.52434 0.29087 0.16348 0.0
H154 H 0.52018 0.24557 0.15576 0.0
H155 H 0.45589 0.27192 0.17251 0.0
H156 H 0.46018 0.28726 0.19926 0.0
H157 H 0.56698 0.22317 0.18506 0.0
H158 H 0.5426 0.15196 0.19208 0.0
C159 C 0.78129 0.0639 0.17286 0.0
C160 C 0.7911 0.08508 0.17078 0.0
C161 C 0.80057 0.09039 0.17778 0.0
C162 C 0.796 0.07227 0.18371 0.0
N163 N 0.78426 0.05594 0.18089 0.0
Co164 Co 0.77414 0.0271 0.18738 0.0
N165 N 0.78103 0.04249 0.19831 0.0
C166 C 0.79292 0.06055 0.19933 0.0
C167 C 0.79545 0.06706 0.20763 0.0
C168 C 0.78461 0.05198 0.21214 0.0
C169 C 0.77599 0.03702 0.2063 0.0
N170 N 0.76424 0.99802 0.19388 0.0
C171 C 0.76081 0.99596 0.20227 0.0
C172 C 0.75423 0.97178 0.20414 0.0
C173 C 0.75387 0.95819 0.19669 0.0
C174 C 0.76017 0.97476 0.19068 0.0
N175 N 0.76725 0.01216 0.17638 0.0
C176 C 0.76292 0.98742 0.17501 0.0
C177 C 0.75851 0.98299 0.16674 0.0
C178 C 0.76022 0.00644 0.16268 0.0
C179 C 0.76558 0.0239 0.16872 0.0
N180 N 0.79525 0.00756 0.18685 0.0
C181 C 0.82269 0.97333 0.1859 0.0
C182 C 0.8169 0.98677 0.1787 0.0
C183 C 0.80334 0.00387 0.17933 0.0
C184 C 0.81483 0.97867 0.19363 0.0
C185 C 0.80122 0.99552 0.19396 0.0
N186 N 0.75286 0.04583 0.18792 0.0
C187 C 0.72298 0.04481 0.18677 0.0
C188 C 0.72186 0.07116 0.18873 0.0
C189 C 0.73675 0.08467 0.19019 0.0
C190 C 0.7521 0.07163 0.1898 0.0
C191 C 0.73845 0.03265 0.18637 0.0
H192 H 0.76333 0.08236 0.19104 0.0
H193 H 0.73869 0.01243 0.18478 0.0
H194 H 0.79906 0.01346 0.17365 0.0
H195 H 0.79526 0.99813 0.19999 0.0
C196 C 0.79989 0.07313 0.19233 0.0
C197 C 0.76992 0.05104 0.16698 0.0
C198 C 0.76482 0.01568 0.20867 0.0
C199 C 0.76023 0.97064 0.18189 0.0
H200 H 0.79136 0.09565 0.16486 0.0
H201 H 0.80913 0.10635 0.17857 0.0
H202 H 0.80396 0.08137 0.21011 0.0
H203 H 0.78354 0.05156 0.21896 0.0
H204 H 0.75026 0.9646 0.21025 0.0
H205 H 0.74916 0.93881 0.19574 0.0
H206 H 0.75388 0.96516 0.16405 0.0
H207 H 0.75781 0.01027 0.15605 0.0
H208 H 0.82238 0.98353 0.17255 0.0
H209 H 0.81899 0.96971 0.19946 0.0
H210 H 0.71194 0.03358 0.18542 0.0
H211 H 0.73655 0.10503 0.19176 0.0
C212 C 0.51578 0.98018 0.91867 0.0
C213 C 0.51059 0.99768 0.91255 0.0
C214 C 0.5089 0.02116 0.91653 0.0
C215 C 0.51315 0.01671 0.92484 0.0
N216 N 0.51736 0.99193 0.9263 0.0
Co217 Co 0.52405 0.97701 0.93738 0.0
N218 N 0.51423 0.0063 0.94375 0.0
C219 C 0.51029 0.02958 0.94044 0.0
C220 C 0.50402 0.0463 0.94637 0.0
C221 C 0.50424 0.0328 0.95387 0.0
C222 C 0.51073 0.00852 0.95212 0.0
N223 N 0.53073 0.96165 0.9484 0.0
C224 C 0.52565 0.96729 0.95635 0.0
C225 C 0.5341 0.95224 0.96227 0.0
C226 C 0.54488 0.93692 0.95785 0.0
C227 C 0.54249 0.9434 0.94951 0.0
N228 N 0.53411 0.94798 0.93102 0.0
C229 C 0.54571 0.93149 0.93395 0.0
C230 C 0.55027 0.91326 0.9281 0.0
C231 C 0.54097 0.91867 0.92105 0.0
C232 C 0.53124 0.94001 0.92301 0.0
N233 N 0.54525 0.99627 0.93684 0.0
C234 C 0.57273 0.03028 0.93584 0.0
C235 C 0.56472 0.02522 0.94356 0.0
C236 C 0.55111 0.00842 0.94392 0.0
C237 C 0.56711 0.01666 0.9287 0.0
C238 C 0.55349 0.99969 0.92934 0.0
N239 N 0.5027 0.95857 0.93793 0.0
C240 C 0.48639 0.91994 0.94026 0.0
C241 C 0.47159 0.93373 0.93883 0.0
C242 C 0.47282 0.96007 0.93683 0.0
C243 C 0.48836 0.97199 0.93637 0.0
C244 C 0.5018 0.93276 0.93985 0.0
H245 H 0.4887 0.99221 0.93474 0.0
H246 H 0.51297 0.92186 0.9411 0.0
H247 H 0.54504 0.00599 0.94993 0.0
H248 H 0.54928 0.98999 0.9237 0.0
C249 C 0.51047 0.03359 0.93164 0.0
C250 C 0.52008 0.95301 0.91702 0.0
C251 C 0.51461 0.98886 0.95861 0.0
C252 C 0.54946 0.93064 0.94258 0.0
H253 H 0.50829 0.99385 0.90592 0.0
H254 H 0.5044 0.03903 0.91376 0.0
H255 H 0.49941 0.06573 0.94533 0.0
H256 H 0.50025 0.04012 0.95995 0.0
H257 H 0.53296 0.95275 0.96909 0.0
H258 H 0.55326 0.92249 0.9604 0.0
H259 H 0.55873 0.89719 0.92899 0.0
H260 H 0.54127 0.90806 0.91516 0.0
H261 H 0.56878 0.0344 0.94935 0.0
H262 H 0.57277 0.01969 0.92256 0.0
H263 H 0.48606 0.89954 0.94185 0.0
H264 H 0.46182 0.97146 0.93552 0.0
C265 C 0.26353 0.77257 0.91886 0.0
C266 C 0.26944 0.75505 0.91296 0.0
C267 C 0.27097 0.73169 0.91709 0.0
C268 C 0.26601 0.73622 0.92528 0.0
N269 N 0.26151 0.76096 0.92652 0.0
Co270 Co 0.25437 0.77622 0.93744 0.0
N271 N 0.26406 0.74732 0.9441 0.0
C272 C 0.26818 0.72394 0.941 0.0
C273 C 0.2743 0.70753 0.94711 0.0
C274 C 0.27379 0.72135 0.95451 0.0
C275 C 0.26729 0.7455 0.95252 0.0
N276 N 0.24729 0.79203 0.94827 0.0
C277 C 0.25218 0.78685 0.95631 0.0
C278 C 0.24346 0.80204 0.96204 0.0
C279 C 0.23268 0.81694 0.95741 0.0
C280 C 0.23535 0.8101 0.94915 0.0
N281 N 0.24438 0.80482 0.9308 0.0
C282 C 0.23241 0.82101 0.93347 0.0
C283 C 0.22775 0.83866 0.9274 0.0
C284 C 0.2374 0.83319 0.92049 0.0
C285 C 0.24748 0.8125 0.92276 0.0
N286 N 0.23326 0.75673 0.93685 0.0
C287 C 0.20576 0.72303 0.93587 0.0
C288 C 0.21314 0.72881 0.94365 0.0
C289 C 0.22689 0.74538 0.944 0.0
C290 C 0.21205 0.73528 0.92861 0.0
C291 C 0.22558 0.75238 0.92925 0.0
N292 N 0.27563 0.79491 0.93801 0.0
C293 C 0.29171 0.83402 0.93977 0.0
C294 C 0.3066 0.82052 0.93825 0.0
C295 C 0.30548 0.79385 0.93676 0.0
C296 C 0.29004 0.78159 0.93662 0.0
C297 C 0.27639 0.82087 0.93963 0.0
H298 H 0.28984 0.76117 0.93534 0.0
H299 H 0.26514 0.8317 0.94077 0.0
H300 H 0.23267 0.74825 0.95007 0.0
H301 H 0.23012 0.76149 0.92355 0.0
C302 C 0.26844 0.71963 0.93223 0.0
C303 C 0.25919 0.79974 0.91703 0.0
C304 C 0.26322 0.76548 0.95882 0.0
C305 C 0.22839 0.82225 0.94206 0.0
H306 H 0.27244 0.75873 0.9064 0.0
H307 H 0.27592 0.7139 0.91453 0.0
H308 H 0.27905 0.68812 0.94626 0.0
H309 H 0.27763 0.71435 0.96067 0.0
H310 H 0.24439 0.80185 0.96887 0.0
H311 H 0.22409 0.83129 0.95979 0.0
H312 H 0.21897 0.85439 0.92804 0.0
H313 H 0.23706 0.84328 0.91447 0.0
H314 H 0.20874 0.71974 0.94942 0.0
H315 H 0.20659 0.73159 0.92246 0.0
H316 H 0.29181 0.85466 0.94091 0.0
H317 H 0.3165 0.78225 0.93576 0.0
C318 C 0.51566 0.77281 0.83942 0.0
C319 C 0.51039 0.75518 0.84548 0.0
C320 C 0.50877 0.73178 0.84144 0.0
C321 C 0.51312 0.73641 0.83316 0.0
N322 N 0.51734 0.76123 0.83177 0.0
Co323 Co 0.52401 0.77648 0.82074 0.0
N324 N 0.51424 0.74737 0.81427 0.0
C325 C 0.51033 0.72399 0.8175 0.0
C326 C 0.50412 0.70741 0.81152 0.0
C327 C 0.50435 0.72111 0.80405 0.0
C328 C 0.51079 0.74537 0.80589 0.0
N329 N 0.53068 0.79221 0.80979 0.0
C330 C 0.52564 0.78678 0.8018 0.0
C331 C 0.5341 0.80201 0.79595 0.0
C332 C 0.54486 0.81721 0.80043 0.0
C333 C 0.54244 0.81049 0.80874 0.0
N334 N 0.53403 0.80532 0.8272 0.0
C335 C 0.54569 0.82183 0.82435 0.0
C336 C 0.55024 0.83984 0.83028 0.0
C337 C 0.54085 0.83426 0.83729 0.0
C338 C 0.53107 0.8131 0.83522 0.0
N339 N 0.54525 0.75722 0.82123 0.0
C340 C 0.57286 0.7233 0.82217 0.0
C341 C 0.56484 0.72853 0.81446 0.0
C342 C 0.55117 0.74527 0.81413 0.0
C343 C 0.56714 0.73668 0.82935 0.0
C344 C 0.55347 0.7536 0.82874 0.0
N345 N 0.50261 0.79492 0.82026 0.0
C346 C 0.48628 0.83384 0.81847 0.0
C347 C 0.47146 0.8202 0.82011 0.0
C348 C 0.47278 0.79354 0.82169 0.0
C349 C 0.4883 0.78146 0.8218 0.0
C350 C 0.50167 0.82086 0.81855 0.0
H351 H 0.48865 0.76106 0.82316 0.0
H352 H 0.51282 0.83181 0.8173 0.0
H353 H 0.54512 0.74786 0.80812 0.0
H354 H 0.54923 0.76311 0.8344 0.0
C355 C 0.51048 0.71973 0.8263 0.0
C356 C 0.51979 0.80003 0.84112 0.0
C357 C 0.51467 0.76522 0.79946 0.0
C358 C 0.54944 0.82298 0.81572 0.0
H359 H 0.50793 0.75887 0.8521 0.0
H360 H 0.50421 0.71387 0.84415 0.0
H361 H 0.49954 0.68793 0.81249 0.0
H362 H 0.50042 0.71395 0.79795 0.0
H363 H 0.533 0.80169 0.78913 0.0
H364 H 0.55326 0.8317 0.79793 0.0
H365 H 0.55874 0.85588 0.82947 0.0
H366 H 0.54114 0.84462 0.84323 0.0
H367 H 0.56894 0.71955 0.80865 0.0
H368 H 0.57277 0.73352 0.83549 0.0
H369 H 0.48607 0.85447 0.81728 0.0
H370 H 0.46186 0.78179 0.82278 0.0
C371 C 0.26379 0.98218 0.83939 0.0
C372 C 0.26985 0.9996 0.84529 0.0
C373 C 0.27139 0.02299 0.84117 0.0
C374 C 0.26628 0.01857 0.833 0.0
N375 N 0.26168 0.99388 0.83175 0.0
Co376 Co 0.25429 0.97881 0.82085 0.0
N377 N 0.26391 0.00775 0.81418 0.0
C378 C 0.26815 0.03106 0.81729 0.0
C379 C 0.27423 0.04747 0.81118 0.0
C380 C 0.27358 0.03372 0.80377 0.0
C381 C 0.26703 0.0096 0.80576 0.0
N382 N 0.24696 0.96321 0.81003 0.0
C383 C 0.25175 0.96843 0.80198 0.0
C384 C 0.24289 0.9534 0.79626 0.0
C385 C 0.23212 0.93854 0.80091 0.0
C386 C 0.23495 0.94526 0.80917 0.0
N387 N 0.24437 0.95017 0.82749 0.0
C388 C 0.23232 0.9341 0.82485 0.0
C389 C 0.2277 0.91642 0.83091 0.0
C390 C 0.23748 0.92174 0.83779 0.0
C391 C 0.24758 0.94238 0.83551 0.0
N392 N 0.2332 0.99841 0.82157 0.0
C393 C 0.20546 0.03168 0.82269 0.0
C394 C 0.2128 0.02615 0.81488 0.0
C395 C 0.22668 0.00982 0.81446 0.0
C396 C 0.21198 0.01948 0.82992 0.0
C397 C 0.22563 1.00261 0.82921 0.0
N398 N 0.27552 0.95999 0.82013 0.0
C399 C 0.29146 0.92088 0.81803 0.0
C400 C 0.30643 0.93443 0.81919 0.0
C401 C 0.30546 0.96095 0.82091 0.0
C402 C 0.29003 0.97322 0.82138 0.0
C403 C 0.27616 0.93404 0.81845 0.0
H404 H 0.2899 0.99354 0.82282 0.0
H405 H 0.26485 0.92328 0.81743 0.0
H406 H 0.23239 0.00711 0.80837 0.0
H407 H 0.23031 0.99349 0.83488 0.0
C408 C 0.26861 0.03524 0.82607 0.0
C409 C 0.25937 0.95504 0.84123 0.0
C410 C 0.26288 0.98966 0.79946 0.0
C411 C 0.22811 0.93303 0.81627 0.0
H412 H 0.27295 0.99585 0.85184 0.0
H413 H 0.27643 0.04072 0.84374 0.0
H414 H 0.27907 0.06682 0.81204 0.0
H415 H 0.27737 0.04073 0.7976 0.0
H416 H 0.24373 0.95364 0.78943 0.0
H417 H 0.22347 0.92427 0.79855 0.0
H418 H 0.21885 0.90078 0.83028 0.0
H419 H 0.2372 0.91159 0.8438 0.0
H420 H 0.20825 0.0352 0.80913 0.0
H421 H 0.20657 0.02297 0.83608 0.0
H422 H 0.29157 0.90037 0.81666 0.0
H423 H 0.31658 0.97222 0.82201 0.0
C424 C 0.49676 0.56355 0.58495 0.0
C425 C 0.4869 0.58474 0.5869 0.0
C426 C 0.47756 0.58998 0.57983 0.0
C427 C 0.48223 0.57176 0.574 0.0
N428 N 0.4939 0.55544 0.57695 0.0
Co429 Co 0.50409 0.52644 0.57064 0.0
N430 N 0.49743 0.54167 0.5596 0.0
C431 C 0.48556 0.55973 0.55845 0.0
C432 C 0.48318 0.5661 0.55011 0.0
C433 C 0.49409 0.5509 0.54572 0.0
C434 C 0.50259 0.53602 0.55166 0.0
N435 N 0.5141 0.49724 0.56433 0.0
C436 C 0.51769 0.49501 0.55596 0.0
C437 C 0.5243 0.47079 0.55424 0.0
C438 C 0.52452 0.45734 0.56175 0.0
C439 C 0.51812 0.47403 0.56765 0.0
N440 N 0.51068 0.51163 0.58176 0.0
C441 C 0.51494 0.48688 0.58325 0.0
C442 C 0.51918 0.48256 0.59157 0.0
C443 C 0.51742 0.50607 0.59552 0.0
C444 C 0.51219 0.52347 0.58937 0.0
N445 N 0.48293 0.507 0.57114 0.0
C446 C 0.45531 0.47311 0.57211 0.0
C447 C 0.46341 0.47811 0.5644 0.0
C448 C 0.4771 0.4948 0.56407 0.0
C449 C 0.46098 0.48667 0.57926 0.0
C450 C 0.47463 0.5036 0.57863 0.0
N451 N 0.5254 0.54509 0.57015 0.0
C452 C 0.55516 0.54442 0.57199 0.0
C453 C 0.55636 0.57066 0.56983 0.0
C454 C 0.54161 0.58378 0.56771 0.0
C455 C 0.52627 0.57069 0.56795 0.0
C456 C 0.53971 0.5321 0.5721 0.0
H457 H 0.51511 0.58127 0.56639 0.0
H458 H 0.53942 0.51192 0.57379 0.0
H459 H 0.48323 0.49718 0.55806 0.0
H460 H 0.4788 0.51332 0.58428 0.0
C461 C 0.47848 0.57248 0.56536 0.0
C462 C 0.50797 0.55072 0.59095 0.0
C463 C 0.51378 0.5146 0.54945 0.0
C464 C 0.51781 0.47003 0.57646 0.0
H465 H 0.48651 0.59531 0.59279 0.0
H466 H 0.46901 0.60592 0.57894 0.0
H467 H 0.47473 0.58039 0.54753 0.0
H468 H 0.49527 0.55035 0.53891 0.0
H469 H 0.52837 0.46349 0.54818 0.0
H470 H 0.52919 0.43796 0.56281 0.0
H471 H 0.52376 0.46477 0.59436 0.0
H472 H 0.51977 0.51 0.60213 0.0
H473 H 0.45936 0.46903 0.5586 0.0
H474 H 0.45533 0.4837 0.58539 0.0
H475 H 0.56614 0.53322 0.57352 0.0
H476 H 0.54185 0.60411 0.56603 0.0
C477 C 0.7808 0.69252 0.58522 0.0
C478 C 0.79097 0.67178 0.58734 0.0
C479 C 0.80049 0.66667 0.58035 0.0
C480 C 0.79566 0.68456 0.57439 0.0
N481 N 0.78372 0.70056 0.5772 0.0
Co482 Co 0.77352 0.72937 0.57075 0.0
N483 N 0.78048 0.71414 0.55981 0.0
C484 C 0.79252 0.69632 0.55879 0.0
C485 C 0.79511 0.68992 0.55048 0.0
C486 C 0.78415 0.70485 0.54598 0.0
C487 C 0.77542 0.71961 0.55182 0.0
N488 N 0.76348 0.75838 0.56426 0.0
C489 C 0.76 0.76043 0.55588 0.0
C490 C 0.75327 0.78453 0.55402 0.0
C491 C 0.75287 0.79808 0.56148 0.0
C492 C 0.75928 0.78157 0.56748 0.0
N493 N 0.76664 0.74419 0.58177 0.0
C494 C 0.76211 0.76886 0.58314 0.0
C495 C 0.75737 0.77308 0.59137 0.0
C496 C 0.75908 0.7496 0.59541 0.0
C497 C 0.76488 0.73231 0.5894 0.0
N498 N 0.79458 0.74902 0.5713 0.0
C499 C 0.82244 0.78222 0.57227 0.0
C500 C 0.81658 0.76888 0.57945 0.0
C501 C 0.8028 0.75225 0.57881 0.0
C502 C 0.81428 0.77781 0.56457 0.0
C503 C 0.80047 0.76136 0.56422 0.0
N504 N 0.75231 0.71046 0.5702 0.0
C505 C 0.72252 0.71081 0.57191 0.0
C506 C 0.72147 0.68451 0.56987 0.0
C507 C 0.73632 0.67153 0.56788 0.0
C508 C 0.7516 0.68481 0.56812 0.0
C509 C 0.7379 0.72332 0.57202 0.0
H510 H 0.76284 0.67434 0.56666 0.0
H511 H 0.73806 0.74353 0.57362 0.0
H512 H 0.79856 0.74245 0.58446 0.0
H513 H 0.79429 0.75929 0.55822 0.0
C514 C 0.79961 0.68383 0.56578 0.0
C515 C 0.76929 0.70509 0.5911 0.0
C516 C 0.7641 0.74079 0.54947 0.0
C517 C 0.75933 0.78561 0.57626 0.0
H518 H 0.79148 0.66147 0.59331 0.0
H519 H 0.80932 0.65106 0.5796 0.0
H520 H 0.80373 0.67579 0.548 0.0
H521 H 0.78309 0.70531 0.53915 0.0
H522 H 0.74924 0.79168 0.54791 0.0
H523 H 0.74804 0.81739 0.56244 0.0
H524 H 0.75241 0.79073 0.59403 0.0
H525 H 0.75623 0.74569 0.60197 0.0
H526 H 0.82258 0.77128 0.58553 0.0
H527 H 0.81816 0.78773 0.55886 0.0
H528 H 0.71146 0.72191 0.57333 0.0
H529 H 0.7362 0.65116 0.5663 0.0
C530 C 0.49642 0.69021 0.67321 0.0
C531 C 0.48669 0.6688 0.67133 0.0
C532 C 0.47751 0.6635 0.67843 0.0
C533 C 0.48217 0.68183 0.68423 0.0
N534 N 0.4937 0.69829 0.68122 0.0
Co535 Co 0.50392 0.72735 0.6875 0.0
N536 N 0.49741 0.71214 0.69857 0.0
C537 C 0.48563 0.69398 0.69976 0.0
C538 C 0.48337 0.68762 0.70811 0.0
C539 C 0.49426 0.70293 0.71246 0.0
C540 C 0.50264 0.71786 0.7065 0.0
N541 N 0.51395 0.75662 0.69379 0.0
C542 C 0.51759 0.75892 0.70214 0.0
C543 C 0.52417 0.78318 0.70384 0.0
C544 C 0.52429 0.79658 0.69632 0.0
C545 C 0.51789 0.77983 0.69044 0.0
N546 N 0.51038 0.74215 0.67637 0.0
C547 C 0.51458 0.76691 0.67486 0.0
C548 C 0.51866 0.77126 0.66652 0.0
C549 C 0.51686 0.74774 0.66258 0.0
C550 C 0.5118 0.73032 0.66875 0.0
N551 N 0.48273 0.74672 0.68704 0.0
C552 C 0.45521 0.78082 0.68611 0.0
C553 C 0.46079 0.7672 0.67895 0.0
C554 C 0.47439 0.75016 0.67957 0.0
C555 C 0.46331 0.77569 0.69381 0.0
C556 C 0.47696 0.75891 0.69413 0.0
N557 N 0.52526 0.70879 0.68796 0.0
C558 C 0.555 0.70962 0.68608 0.0
C559 C 0.5563 0.68342 0.6883 0.0
C560 C 0.54159 0.67023 0.69044 0.0
C561 C 0.52621 0.68321 0.69019 0.0
C562 C 0.53952 0.72183 0.68597 0.0
H563 H 0.51509 0.67259 0.69177 0.0
H564 H 0.53916 0.74199 0.68425 0.0
H565 H 0.4785 0.74043 0.67391 0.0
H566 H 0.48312 0.75649 0.70013 0.0
C567 C 0.47855 0.68113 0.69288 0.0
C568 C 0.50746 0.70314 0.66715 0.0
C569 C 0.51376 0.73938 0.70868 0.0
C570 C 0.51748 0.7838 0.68164 0.0
H571 H 0.4863 0.65807 0.66547 0.0
H572 H 0.46909 0.64743 0.67938 0.0
H573 H 0.47501 0.67326 0.71071 0.0
H574 H 0.49551 0.70351 0.71928 0.0
H575 H 0.52825 0.79054 0.70989 0.0
H576 H 0.52891 0.81598 0.69524 0.0
H577 H 0.52313 0.78908 0.66372 0.0
H578 H 0.51903 0.74384 0.65595 0.0
H579 H 0.45511 0.77025 0.67282 0.0
H580 H 0.45932 0.78479 0.69962 0.0
H581 H 0.56594 0.72087 0.68454 0.0
H582 H 0.5419 0.64994 0.69216 0.0
C583 C 0.78086 0.56238 0.67286 0.0
C584 C 0.79101 0.58313 0.67072 0.0
C585 C 0.80051 0.58832 0.67772 0.0
C586 C 0.7957 0.57047 0.68369 0.0
N587 N 0.78378 0.55441 0.68088 0.0
Co588 Co 0.77361 0.52562 0.68735 0.0
N589 N 0.78053 0.54095 0.69828 0.0
C590 C 0.79252 0.55885 0.6993 0.0
C591 C 0.79506 0.56535 0.7076 0.0
C592 C 0.78412 0.5504 0.71211 0.0
C593 C 0.77546 0.53552 0.70627 0.0
N594 N 0.76363 0.4966 0.69384 0.0
C595 C 0.76018 0.49456 0.70223 0.0
C596 C 0.75354 0.47042 0.70409 0.0
C597 C 0.75315 0.45684 0.69664 0.0
C598 C 0.75949 0.47338 0.69064 0.0
N599 N 0.76675 0.51073 0.67633 0.0
C600 C 0.76227 0.48604 0.67497 0.0
C601 C 0.75754 0.48176 0.66673 0.0
C602 C 0.75921 0.50523 0.66269 0.0
C603 C 0.76497 0.52256 0.66869 0.0
N604 N 0.79469 0.50601 0.68682 0.0
C605 C 0.82227 0.47207 0.68587 0.0
C606 C 0.81646 0.48552 0.67868 0.0
C607 C 0.80283 0.50247 0.67931 0.0
C608 C 0.81431 0.47718 0.69359 0.0
C609 C 0.80064 0.49389 0.69392 0.0
N610 N 0.75238 0.54445 0.68787 0.0
C611 C 0.72259 0.54392 0.68619 0.0
C612 C 0.72148 0.5702 0.68824 0.0
C613 C 0.7363 0.58329 0.69021 0.0
C614 C 0.75161 0.5701 0.68995 0.0
C615 C 0.73799 0.53151 0.68606 0.0
H616 H 0.76283 0.58064 0.69139 0.0
H617 H 0.7382 0.5113 0.68446 0.0
H618 H 0.79855 0.5121 0.67364 0.0
H619 H 0.79462 0.49638 0.69994 0.0
C620 C 0.79961 0.57129 0.6923 0.0
C621 C 0.76935 0.54978 0.66698 0.0
C622 C 0.76422 0.51426 0.70863 0.0
C623 C 0.75953 0.4693 0.68185 0.0
H624 H 0.79151 0.59341 0.66475 0.0
H625 H 0.80931 0.60397 0.67847 0.0
H626 H 0.80363 0.57955 0.71009 0.0
H627 H 0.78304 0.54999 0.71893 0.0
H628 H 0.74955 0.46326 0.71021 0.0
H629 H 0.74838 0.4375 0.69569 0.0
H630 H 0.75261 0.46408 0.66408 0.0
H631 H 0.75637 0.50911 0.65612 0.0
H632 H 0.82199 0.48244 0.67253 0.0
H633 H 0.81847 0.46817 0.69941 0.0
H634 H 0.71155 0.53275 0.68478 0.0
H635 H 0.73613 0.60364 0.6918 0.0
C636 C 0.51558 0.48169 0.41871 0.0
C637 C 0.51022 0.49924 0.41264 0.0
C638 C 0.50862 0.52268 0.41666 0.0
C639 C 0.51307 0.51815 0.42493 0.0
N640 N 0.51732 0.49335 0.42634 0.0
Co641 Co 0.52422 0.47828 0.43736 0.0
N642 N 0.51451 0.50746 0.44382 0.0
C643 C 0.51051 0.53078 0.44058 0.0
C644 C 0.50431 0.54738 0.44656 0.0
C645 C 0.50465 0.53374 0.45404 0.0
C646 C 0.51113 0.5095 0.45221 0.0
N647 N 0.53113 0.46277 0.44832 0.0
C648 C 0.52618 0.46827 0.4563 0.0
C649 C 0.53479 0.4532 0.46215 0.0
C650 C 0.54553 0.43801 0.45766 0.0
C651 C 0.54296 0.44458 0.44934 0.0
N652 N 0.53415 0.44934 0.43092 0.0
C653 C 0.54588 0.43291 0.43375 0.0
C654 C 0.55036 0.41482 0.42783 0.0
C655 C 0.54086 0.42027 0.42085 0.0
C656 C 0.53108 0.44145 0.42292 0.0
N657 N 0.54543 0.49754 0.43674 0.0
C658 C 0.57334 0.53061 0.43567 0.0
C659 C 0.56531 0.52603 0.4434 0.0
C660 C 0.55147 0.50964 0.4438 0.0
C661 C 0.56736 0.51747 0.42852 0.0
C662 C 0.55355 0.50088 0.4292 0.0
N663 N 0.50286 0.4598 0.43799 0.0
C664 C 0.48663 0.42101 0.44021 0.0
C665 C 0.47178 0.43475 0.43885 0.0
C666 C 0.47297 0.46119 0.43697 0.0
C667 C 0.48848 0.4732 0.43652 0.0
C668 C 0.50202 0.43392 0.43982 0.0
H669 H 0.48878 0.49347 0.43496 0.0
H670 H 0.51322 0.42302 0.44101 0.0
H671 H 0.54538 0.50747 0.44982 0.0
H672 H 0.54921 0.49125 0.42358 0.0
C673 C 0.51052 0.53492 0.43178 0.0
C674 C 0.51975 0.45447 0.41702 0.0
C675 C 0.5151 0.4897 0.45864 0.0
C676 C 0.54983 0.43196 0.44236 0.0
H677 H 0.50771 0.49549 0.40603 0.0
H678 H 0.50403 0.54056 0.41394 0.0
H679 H 0.49966 0.5668 0.44558 0.0
H680 H 0.50073 0.54092 0.46014 0.0
H681 H 0.53377 0.4536 0.46898 0.0
H682 H 0.554 0.4236 0.46015 0.0
H683 H 0.55891 0.39883 0.42863 0.0
H684 H 0.54108 0.40985 0.41492 0.0
H685 H 0.56929 0.53579 0.4491 0.0
H686 H 0.57327 0.52 0.42242 0.0
H687 H 0.48635 0.40055 0.44172 0.0
H688 H 0.46193 0.47258 0.43571 0.0
C689 C 0.26282 0.27351 0.41869 0.0
C690 C 0.26808 0.256 0.41264 0.0
C691 C 0.26971 0.23252 0.41669 0.0
C692 C 0.26535 0.23699 0.42497 0.0
N693 N 0.26113 0.26178 0.42634 0.0
Co694 Co 0.25437 0.27678 0.43735 0.0
N695 N 0.26413 0.24755 0.44384 0.0
C696 C 0.26806 0.22423 0.44063 0.0
C697 C 0.27425 0.20753 0.44664 0.0
C698 C 0.27399 0.22109 0.45409 0.0
C699 C 0.26755 0.24538 0.45223 0.0
N700 N 0.24762 0.29226 0.4483 0.0
C701 C 0.25265 0.28668 0.45628 0.0
C702 C 0.24416 0.30179 0.46212 0.0
C703 C 0.2334 0.31707 0.45762 0.0
C704 C 0.23585 0.31051 0.44932 0.0
N705 N 0.24435 0.30576 0.43087 0.0
C706 C 0.23271 0.32225 0.43371 0.0
C707 C 0.22821 0.34044 0.42778 0.0
C708 C 0.23761 0.33501 0.42078 0.0
C709 C 0.24733 0.3137 0.42285 0.0
N710 N 0.23315 0.25752 0.43683 0.0
C711 C 0.20551 0.22369 0.43586 0.0
C712 C 0.21343 0.22886 0.4436 0.0
C713 C 0.22713 0.24552 0.44393 0.0
C714 C 0.21136 0.23709 0.42868 0.0
C715 C 0.22501 0.25399 0.42931 0.0
N716 N 0.27574 0.29524 0.43786 0.0
C717 C 0.29203 0.33408 0.43978 0.0
C718 C 0.30685 0.32054 0.43811 0.0
C719 C 0.30557 0.29398 0.43644 0.0
C720 C 0.29007 0.28187 0.4363 0.0
C721 C 0.27665 0.32109 0.43964 0.0
H722 H 0.28974 0.26153 0.43489 0.0
H723 H 0.26549 0.33197 0.4409 0.0
H724 H 0.23313 0.24802 0.44996 0.0
H725 H 0.22933 0.26356 0.42364 0.0
C726 C 0.26796 0.22015 0.43184 0.0
C727 C 0.2586 0.30071 0.41696 0.0
C728 C 0.26366 0.26512 0.45864 0.0
C729 C 0.2289 0.32319 0.44233 0.0
H730 H 0.27049 0.25982 0.40601 0.0
H731 H 0.27425 0.21465 0.41399 0.0
H732 H 0.27885 0.18808 0.44568 0.0
H733 H 0.2779 0.21382 0.4602 0.0
H734 H 0.24526 0.30134 0.46895 0.0
H735 H 0.225 0.33151 0.46011 0.0
H736 H 0.21975 0.35652 0.42858 0.0
H737 H 0.23738 0.34558 0.41485 0.0
H738 H 0.20924 0.2199 0.44942 0.0
H739 H 0.20584 0.23399 0.42252 0.0
H740 H 0.29223 0.35464 0.44105 0.0
H741 H 0.31652 0.28233 0.43531 0.0
C742 C 0.51573 0.2752 0.33922 0.0
C743 C 0.51042 0.25756 0.34527 0.0
C744 C 0.50873 0.2342 0.34121 0.0
C745 C 0.51311 0.23886 0.33294 0.0
N746 N 0.51741 0.26366 0.33157 0.0
Co747 Co 0.52427 0.27885 0.32056 0.0
N748 N 0.51448 0.24982 0.31406 0.0
C749 C 0.51046 0.22647 0.31728 0.0
C750 C 0.50424 0.20996 0.31127 0.0
C751 C 0.50459 0.22367 0.30381 0.0
C752 C 0.5111 0.24787 0.30567 0.0
N753 N 0.53113 0.29451 0.30962 0.0
C754 C 0.52615 0.28914 0.30163 0.0
C755 C 0.53471 0.30432 0.29579 0.0
C756 C 0.54546 0.31944 0.30031 0.0
C757 C 0.54294 0.31273 0.30861 0.0
N758 N 0.53431 0.30764 0.32705 0.0
C759 C 0.54599 0.32413 0.32422 0.0
C760 C 0.55051 0.34216 0.33015 0.0
C761 C 0.54108 0.33661 0.33715 0.0
C762 C 0.53134 0.31539 0.33508 0.0
N763 N 0.54544 0.25944 0.32112 0.0
C764 C 0.57294 0.22534 0.32213 0.0
C765 C 0.56502 0.23063 0.31439 0.0
C766 C 0.55141 0.24746 0.31404 0.0
C767 C 0.56719 0.23874 0.32929 0.0
C768 C 0.55357 0.25576 0.32865 0.0
N769 N 0.50294 0.29745 0.31999 0.0
C770 C 0.48672 0.33631 0.31782 0.0
C771 C 0.47187 0.32257 0.31916 0.0
C772 C 0.47304 0.29612 0.32101 0.0
C773 C 0.48855 0.28407 0.32144 0.0
C774 C 0.50211 0.32336 0.3182 0.0
H775 H 0.48884 0.26378 0.32298 0.0
H776 H 0.51332 0.33424 0.31702 0.0
H777 H 0.54542 0.2501 0.308 0.0
H778 H 0.54929 0.26529 0.3343 0.0
C779 C 0.5105 0.2222 0.32607 0.0
C780 C 0.52005 0.3023 0.34097 0.0
C781 C 0.5151 0.2677 0.29926 0.0
C782 C 0.54985 0.32523 0.31561 0.0
H783 H 0.50802 0.26122 0.3519 0.0
H784 H 0.50415 0.21629 0.34391 0.0
H785 H 0.49958 0.19052 0.31223 0.0
H786 H 0.50068 0.21656 0.2977 0.0
H787 H 0.53366 0.30402 0.28897 0.0
H788 H 0.55391 0.3339 0.29783 0.0
H789 H 0.55901 0.35821 0.32935 0.0
H790 H 0.54132 0.34704 0.34307 0.0
H791 H 0.56916 0.22164 0.30859 0.0
H792 H 0.57275 0.23554 0.33544 0.0
H793 H 0.48646 0.35678 0.31634 0.0
H794 H 0.46201 0.28474 0.32225 0.0
C795 C 0.26287 0.48321 0.33953 0.0
C796 C 0.26816 0.50069 0.34559 0.0
C797 C 0.26968 0.52422 0.34155 0.0
C798 C 0.26525 0.5198 0.33328 0.0
N799 N 0.26108 0.495 0.33189 0.0
Co800 Co 0.25426 0.48006 0.32088 0.0
N801 N 0.26391 0.50939 0.3144 0.0
C802 C 0.26782 0.53269 0.31762 0.0
C803 C 0.27398 0.54942 0.31162 0.0
C804 C 0.27371 0.53589 0.30416 0.0
C805 C 0.26731 0.51158 0.30601 0.0
N806 N 0.24741 0.46469 0.30994 0.0
C807 C 0.25236 0.47034 0.30196 0.0
C808 C 0.2438 0.45533 0.29611 0.0
C809 C 0.23308 0.44002 0.30062 0.0
C810 C 0.23562 0.44647 0.30893 0.0
N811 N 0.24439 0.45096 0.32735 0.0
C812 C 0.23271 0.43451 0.32453 0.0
C813 C 0.22829 0.41628 0.33046 0.0
C814 C 0.23778 0.42166 0.33744 0.0
C815 C 0.24749 0.44294 0.33535 0.0
N816 N 0.233 0.49919 0.32148 0.0
C817 C 0.20503 0.53214 0.32256 0.0
C818 C 0.21308 0.52782 0.31483 0.0
C819 C 0.22694 0.51147 0.31442 0.0
C820 C 0.21102 0.51876 0.3297 0.0
C821 C 0.22485 0.50225 0.32901 0.0
N822 N 0.27567 0.4617 0.32031 0.0
C823 C 0.29201 0.42294 0.31834 0.0
C824 C 0.30682 0.43651 0.32001 0.0
C825 C 0.30551 0.46305 0.32171 0.0
C826 C 0.28998 0.4751 0.32187 0.0
C827 C 0.27661 0.43588 0.3185 0.0
H828 H 0.28963 0.49543 0.3233 0.0
H829 H 0.26546 0.42498 0.31723 0.0
H830 H 0.23304 0.50949 0.3084 0.0
H831 H 0.22921 0.49247 0.33464 0.0
C832 C 0.26777 0.5367 0.32642 0.0
C833 C 0.2588 0.45593 0.34123 0.0
C834 C 0.26342 0.49183 0.2996 0.0
C835 C 0.22877 0.43369 0.31592 0.0
H836 H 0.27068 0.49682 0.3522 0.0
H837 H 0.27422 0.54208 0.34426 0.0
H838 H 0.27857 0.56887 0.31258 0.0
H839 H 0.27761 0.54318 0.29805 0.0
H840 H 0.24483 0.45584 0.28929 0.0
H841 H 0.22465 0.42562 0.29814 0.0
H842 H 0.21979 0.40025 0.32968 0.0
H843 H 0.2376 0.41111 0.34337 0.0
H844 H 0.20909 0.53775 0.30913 0.0
H845 H 0.20509 0.52106 0.3358 0.0
H846 H 0.29224 0.40239 0.31705 0.0
H847 H 0.31644 0.47472 0.32284 0.0
C848 C 0.99692 0.06377 0.58484 0.0
C849 C 0.98708 0.08493 0.58686 0.0
C850 C 0.97765 0.09028 0.57984 0.0
C851 C 0.98224 0.07217 0.57395 0.0
N852 N 0.99395 0.0558 0.57684 0.0
Co853 Co 1.00405 0.02689 0.57045 0.0
N854 N 0.99727 0.04233 0.55946 0.0
C855 C 0.98542 0.06045 0.55838 0.0
C856 C 0.98296 0.06699 0.55005 0.0
C857 C 0.99381 0.05184 0.5456 0.0
C858 C 1.00235 0.03682 0.5515 0.0
N859 N 1.01393 0.99776 0.56404 0.0
C860 C 0.01742 0.99567 0.55567 0.0
C861 C 0.02396 0.97145 0.55387 0.0
C862 C 0.02423 0.95786 0.56136 0.0
C863 C 0.01794 0.97447 0.56731 0.0
N864 N 1.0108 0.01191 0.58151 0.0
C865 C 0.01507 0.98714 0.58294 0.0
C866 C 0.01943 0.98268 0.59124 0.0
C867 C 0.01774 0.00615 0.59523 0.0
C868 C 1.01244 0.02363 0.58913 0.0
N869 N 0.98288 0.00749 0.57099 0.0
C870 C 0.95531 0.97356 0.57198 0.0
C871 C 0.961 0.98711 0.57913 0.0
C872 C 0.97466 0.00403 0.57849 0.0
C873 C 0.96334 0.9786 0.56427 0.0
C874 C 0.977 0.99534 0.56391 0.0
N875 N 0.02537 0.0455 0.5699 0.0
C876 C 0.05524 0.04435 0.57115 0.0
C877 C 0.05642 0.0707 0.56912 0.0
C878 C 0.04157 0.08427 0.56758 0.0
C879 C 0.0262 0.0713 0.56795 0.0
C880 C 0.03974 0.03226 0.57153 0.0
H881 H 0.015 0.08208 0.56665 0.0
H882 H 0.03945 0.01204 0.57317 0.0
H883 H 0.97888 0.01369 0.58414 0.0
H884 H 0.98307 0.9978 0.5579 0.0
C885 C 0.97841 0.07306 0.56533 0.0
C886 C 1.00823 0.05086 0.59077 0.0
C887 C 1.01349 0.01541 0.54921 0.0
C888 C 0.01779 0.97036 0.57611 0.0
H889 H 0.98678 0.09541 0.59278 0.0
H890 H 0.9691 0.10624 0.57901 0.0
H891 H 0.97451 0.08135 0.54752 0.0
H892 H 0.99493 0.05143 0.53878 0.0
H893 H 0.02794 0.96424 0.54779 0.0
H894 H 0.0289 0.93845 0.56237 0.0
H895 H 0.02403 0.96485 0.59398 0.0
H896 H 0.02018 0.00997 0.60184 0.0
H897 H 0.95536 0.9841 0.58527 0.0
H898 H 0.95926 0.96948 0.55847 0.0
H899 H 0.06624 0.03307 0.57256 0.0
H900 H 0.04182 0.10463 0.56595 0.0
C901 C 0.28044 0.1917 0.58521 0.0
C902 C 0.29023 0.17049 0.58729 0.0
C903 C 0.29975 0.16526 0.58031 0.0
C904 C 0.29525 0.18349 0.57439 0.0
N905 N 0.2835 0.19981 0.57722 0.0
Co906 Co 0.27352 0.22886 0.57077 0.0
N907 N 0.28045 0.21365 0.55982 0.0
C908 C 0.29233 0.19557 0.5588 0.0
C909 C 0.29491 0.18921 0.55049 0.0
C910 C 0.28411 0.20443 0.54599 0.0
C911 C 0.27548 0.21931 0.55184 0.0
N912 N 0.26373 0.25813 0.56431 0.0
C913 C 0.26032 0.26034 0.55592 0.0
C914 C 0.25378 0.28458 0.55408 0.0
C915 C 0.25344 0.29805 0.56155 0.0
C916 C 0.25968 0.28136 0.56754 0.0
N917 N 0.26663 0.24365 0.58179 0.0
C918 C 0.26236 0.26841 0.58319 0.0
C919 C 0.25792 0.27272 0.59147 0.0
C920 C 0.25955 0.24919 0.59549 0.0
C921 C 0.2649 0.23179 0.58942 0.0
N922 N 0.29469 0.2482 0.57139 0.0
C923 C 0.32263 0.28122 0.57247 0.0
C924 C 0.3167 0.26776 0.57961 0.0
C925 C 0.30288 0.25123 0.57892 0.0
C926 C 0.31451 0.27699 0.56475 0.0
C927 C 0.30068 0.2606 0.56434 0.0
N928 N 0.2522 0.2103 0.57015 0.0
C929 C 0.22231 0.21142 0.57128 0.0
C930 C 0.22115 0.18512 0.56926 0.0
C931 C 0.23603 0.17158 0.56778 0.0
C932 C 0.25139 0.18454 0.56821 0.0
C933 C 0.2378 0.22351 0.57172 0.0
H934 H 0.26261 0.17379 0.56695 0.0
H935 H 0.23808 0.2437 0.57335 0.0
H936 H 0.29857 0.24137 0.58454 0.0
H937 H 0.29454 0.25866 0.55833 0.0
C938 C 0.29923 0.18279 0.56579 0.0
C939 C 0.26907 0.20454 0.5911 0.0
C940 C 0.26431 0.24069 0.5495 0.0
C941 C 0.25973 0.28532 0.57634 0.0
H942 H 0.29046 0.15991 0.59321 0.0
H943 H 0.30832 0.14931 0.57952 0.0
H944 H 0.3034 0.1749 0.548 0.0
H945 H 0.28307 0.20497 0.53916 0.0
H946 H 0.24985 0.29188 0.54798 0.0
H947 H 0.24875 0.31744 0.56253 0.0
H948 H 0.25331 0.29052 0.59418 0.0
H949 H 0.25705 0.24525 0.6021 0.0
H950 H 0.32268 0.26999 0.5857 0.0
H951 H 0.31844 0.287 0.55906 0.0
H952 H 0.21128 0.22267 0.57264 0.0
H953 H 0.2358 0.15125 0.56616 0.0
C954 C 0.99683 0.1908 0.67284 0.0
C955 C 0.98712 0.16939 0.67093 0.0
C956 C 0.97784 0.16411 0.678 0.0
C957 C 0.98241 0.18245 0.68381 0.0
N958 N 0.99399 0.19889 0.68084 0.0
Co959 Co 1.00409 0.228 0.68715 0.0
N960 N 0.99745 0.21281 0.69819 0.0
C961 C 0.98567 0.19462 0.69935 0.0
C962 C 0.98327 0.18831 0.70769 0.0
C963 C 0.99408 0.20368 0.71208 0.0
C964 C 1.00255 0.21858 0.70614 0.0
N965 N 0.01396 0.25735 0.69347 0.0
C966 C 0.01752 0.25966 0.70183 0.0
C967 C 0.02404 0.28394 0.70355 0.0
C968 C 0.02422 0.29735 0.69603 0.0
C969 C 0.01789 0.28058 0.69013 0.0
N970 N 1.01073 0.24276 0.67605 0.0
C971 C 0.01495 0.26752 0.67454 0.0
C972 C 0.01917 0.27185 0.66623 0.0
C973 C 0.01744 0.24832 0.66228 0.0
C974 C 1.01228 0.23091 0.66844 0.0
N975 N 0.98288 0.24725 0.68659 0.0
C976 C 0.95489 0.2802 0.68555 0.0
C977 C 0.96069 0.26672 0.67842 0.0
C978 C 0.97455 0.25023 0.67909 0.0
C979 C 0.96315 0.27601 0.69324 0.0
C980 C 0.97701 0.25965 0.69363 0.0
N981 N 0.02545 0.2095 0.68769 0.0
C982 C 0.05528 0.21066 0.68626 0.0
C983 C 0.05654 0.18408 0.68798 0.0
C984 C 0.04169 0.17059 0.68967 0.0
C985 C 0.02634 0.18364 0.68953 0.0
C986 C 0.03979 0.22281 0.68608 0.0
H987 H 0.01516 0.1728 0.69084 0.0
H988 H 0.03948 0.24315 0.68461 0.0
H989 H 0.97875 0.24036 0.67349 0.0
H990 H 0.98326 0.25774 0.69962 0.0
C991 C 0.97868 0.18175 0.69244 0.0
C992 C 1.00795 0.20374 0.66682 0.0
C993 C 1.01366 0.24009 0.70835 0.0
C994 C 0.01767 0.28447 0.68132 0.0
H995 H 0.98681 0.15865 0.66507 0.0
H996 H 0.96941 0.14803 0.67892 0.0
H997 H 0.97488 0.17396 0.71027 0.0
H998 H 0.99523 0.2043 0.7189 0.0
H999 H 0.02808 0.29131 0.70961 0.0
H1000 H 0.02884 0.31675 0.69496 0.0
H1001 H 0.02366 0.28967 0.66343 0.0
H1002 H 0.01971 0.2444 0.65566 0.0
H1003 H 0.9546 0.26892 0.67235 0.0
H1004 H 0.95932 0.28603 0.69892 0.0
H1005 H 0.06622 0.22232 0.68512 0.0
H1006 H 0.04184 0.15002 0.69098 0.0
C1007 C 0.28069 0.06251 0.67287 0.0
C1008 C 0.2905 0.08373 0.67083 0.0
C1009 C 0.30001 0.08886 0.67782 0.0
C1010 C 0.29548 0.07059 0.68372 0.0
N1011 N 0.28371 0.05434 0.68087 0.0
Co1012 Co 0.27364 0.02533 0.6873 0.0
N1013 N 0.28063 0.0404 0.69826 0.0
C1014 C 0.29256 0.05839 0.6993 0.0
C1015 C 0.29516 0.06466 0.70762 0.0
C1016 C 0.28432 0.0495 0.7121 0.0
C1017 C 0.27564 0.03474 0.70624 0.0
N1018 N 0.26378 0.99609 0.69374 0.0
C1019 C 0.26035 0.99388 0.70212 0.0
C1020 C 0.25374 0.96968 0.70394 0.0
C1021 C 0.25337 0.95624 0.69646 0.0
C1022 C 0.25967 0.97291 0.69049 0.0
N1023 N 0.26666 0.01068 0.67627 0.0
C1024 C 0.26232 0.98596 0.67485 0.0
C1025 C 0.25788 0.98171 0.66657 0.0
C1026 C 0.25959 0.00525 0.66256 0.0
C1027 C 0.26498 0.02258 0.66865 0.0
N1028 N 0.29474 0.00584 0.68666 0.0
C1029 C 0.32258 0.97264 0.68554 0.0
C1030 C 0.31668 0.9862 0.67842 0.0
C1031 C 0.3029 1.00282 0.67913 0.0
C1032 C 0.3145 0.97687 0.69328 0.0
C1033 C 0.30071 0.99335 0.69369 0.0
N1034 N 0.25238 0.04407 0.68793 0.0
C1035 C 0.22249 0.04316 0.68686 0.0
C1036 C 0.22145 0.06954 0.68878 0.0
C1037 C 0.23637 0.08299 0.6902 0.0
C1038 C 0.25168 0.06987 0.68981 0.0
C1039 C 0.23793 0.03093 0.68643 0.0
H1040 H 0.26294 0.08056 0.69103 0.0
H1041 H 0.23813 0.01071 0.68484 0.0
H1042 H 0.2986 0.01275 0.67352 0.0
H1043 H 0.2946 0.9953 0.69971 0.0
C1044 C 0.29946 0.07118 0.69232 0.0
C1045 C 0.26932 0.04975 0.66696 0.0
C1046 C 0.26438 0.01347 0.70856 0.0
C1047 C 0.25968 0.96902 0.68169 0.0
H1048 H 0.29073 0.09443 0.66493 0.0
H1049 H 0.30859 0.10477 0.67864 0.0
H1050 H 0.3037 0.07889 0.71012 0.0
H1051 H 0.28329 0.04891 0.71892 0.0
H1052 H 0.24976 0.96239 0.71004 0.0
H1053 H 0.24861 0.9369 0.69548 0.0
H1054 H 0.25324 0.96395 0.66384 0.0
H1055 H 0.25716 0.00923 0.65595 0.0
H1056 H 0.32262 0.98396 0.67232 0.0
H1057 H 0.31842 0.96679 0.69896 0.0
H1058 H 0.2114 0.03199 0.68556 0.0
H1059 H 0.23621 0.10339 0.69174 0.0
C1060 C 0.0151 0.9825 0.41844 0.0
C1061 C 1.00929 0.99997 0.41244 0.0
C1062 C 1.00766 0.02336 0.41648 0.0
C1063 C 1.01246 0.01891 0.42471 0.0
N1064 N 0.01696 0.99419 0.42607 0.0
Co1065 Co 0.0239 0.97908 0.43708 0.0
N1066 N 0.01407 0.00808 0.44358 0.0
C1067 C 1.00998 0.0314 0.44037 0.0
C1068 C 1.00374 0.04789 0.44637 0.0
C1069 C 1.00414 0.03417 0.45383 0.0
C1070 C 1.0107 0.01001 0.45197 0.0
N1071 N 0.03085 0.9635 0.44802 0.0
C1072 C 0.02586 0.96884 0.45601 0.0
C1073 C 0.03452 0.95378 0.46184 0.0
C1074 C 0.04536 0.93879 0.45733 0.0
C1075 C 0.04277 0.94546 0.44903 0.0
N1076 N 0.03397 0.95034 0.43061 0.0
C1077 C 0.04587 0.93417 0.43341 0.0
C1078 C 0.05062 0.91641 0.42745 0.0
C1079 C 0.0411 0.92179 0.42046 0.0
C1080 C 0.03099 0.94255 0.42259 0.0
N1081 N 0.04503 0.99855 0.43649 0.0
C1082 C 0.07294 0.03165 0.43545 0.0
C1083 C 0.06485 0.02711 0.44317 0.0
C1084 C 0.05102 0.01068 0.44355 0.0
C1085 C 0.067 0.01846 0.4283 0.0
C1086 C 0.05318 1.00189 0.42897 0.0
N1087 N 1.00261 0.96037 0.43765 0.0
C1088 C 0.98652 0.92125 0.4395 0.0
C1089 C 0.9716 0.93473 0.43794 0.0
C1090 C 0.97275 0.9614 0.43637 0.0
C1091 C 0.9882 0.97367 0.43619 0.0
C1092 C 1.00184 0.93442 0.43935 0.0
H1093 H 0.98841 0.99407 0.43483 0.0
H1094 H 1.01308 0.9236 0.44055 0.0
H1095 H 0.04491 0.00848 0.44957 0.0
H1096 H 0.04886 0.99226 0.42333 0.0
C1097 C 1.00988 0.03558 0.43158 0.0
C1098 C 0.01948 0.95532 0.41672 0.0
C1099 C 0.01472 0.99017 0.45838 0.0
C1100 C 0.04979 0.93312 0.44202 0.0
H1101 H 1.00639 0.99624 0.40588 0.0
H1102 H 1.00273 0.04111 0.41383 0.0
H1103 H 0.999 0.06728 0.44542 0.0
H1104 H 1.00021 0.04125 0.45995 0.0
H1105 H 0.03349 0.95408 0.46867 0.0
H1106 H 0.05391 0.92448 0.45981 0.0
H1107 H 0.05939 0.90069 0.4282 0.0
H1108 H 0.04155 0.91162 0.41449 0.0
H1109 H 0.06878 0.0369 0.44887 0.0
H1110 H 0.07295 0.02093 0.4222 0.0
H1111 H 0.98645 0.90062 0.44069 0.0
H1112 H 0.96175 0.97304 0.43535 0.0
C1113 C 0.76299 0.77328 0.4187 0.0
C1114 C 0.7684 0.75589 0.41265 0.0
C1115 C 0.77011 0.73239 0.41668 0.0
C1116 C 0.76564 0.73673 0.42496 0.0
N1117 N 0.76128 0.76146 0.42634 0.0
Co1118 Co 0.75436 0.7763 0.43735 0.0
N1119 N 0.76426 0.74717 0.44383 0.0
C1120 C 0.76835 0.72393 0.44062 0.0
C1121 C 0.77465 0.70733 0.44662 0.0
C1122 C 0.77428 0.72088 0.45408 0.0
C1123 C 0.76768 0.74506 0.45222 0.0
N1124 N 0.74743 0.7916 0.44828 0.0
C1125 C 0.75246 0.78608 0.45627 0.0
C1126 C 0.74381 0.80098 0.4621 0.0
C1127 C 0.73295 0.81607 0.4576 0.0
C1128 C 0.73551 0.80961 0.44929 0.0
N1129 N 0.74424 0.80518 0.43087 0.0
C1130 C 0.73244 0.82142 0.43368 0.0
C1131 C 0.72788 0.83957 0.42775 0.0
C1132 C 0.73742 0.83437 0.42078 0.0
C1133 C 0.74728 0.81325 0.42287 0.0
N1134 N 0.73326 0.75675 0.43678 0.0
C1135 C 0.70577 0.72268 0.43577 0.0
C1136 C 0.71373 0.72771 0.4435 0.0
C1137 C 0.72734 0.74453 0.44386 0.0
C1138 C 0.7115 0.7363 0.42861 0.0
C1139 C 0.72512 0.75329 0.42925 0.0
N1140 N 0.77563 0.79504 0.43792 0.0
C1141 C 0.79168 0.83396 0.44013 0.0
C1142 C 0.80659 0.82044 0.43874 0.0
C1143 C 0.80552 0.79404 0.43685 0.0
C1144 C 0.79006 0.78185 0.43644 0.0
C1145 C 0.77636 0.82088 0.43975 0.0
H1146 H 0.78986 0.76161 0.43488 0.0
H1147 H 0.7651 0.83161 0.44095 0.0
H1148 H 0.73334 0.74698 0.44989 0.0
H1149 H 0.72938 0.763 0.4236 0.0
C1150 C 0.76831 0.71989 0.43182 0.0
C1151 C 0.75872 0.80049 0.41701 0.0
C1152 C 0.76366 0.76475 0.45862 0.0
C1153 C 0.72852 0.82222 0.44229 0.0
H1154 H 0.77089 0.75981 0.40604 0.0
H1155 H 0.77478 0.71461 0.41398 0.0
H1156 H 0.77938 0.68796 0.44567 0.0
H1157 H 0.77825 0.71366 0.46019 0.0
H1158 H 0.74487 0.80052 0.46893 0.0
H1159 H 0.72442 0.83034 0.46008 0.0
H1160 H 0.71928 0.85548 0.42853 0.0
H1161 H 0.73718 0.84494 0.41485 0.0
H1162 H 0.70961 0.71853 0.4493 0.0
H1163 H 0.70592 0.73329 0.42246 0.0
H1164 H 0.79186 0.85438 0.44164 0.0
H1165 H 0.8166 0.78282 0.43557 0.0
C1166 C 0.01481 0.77413 0.33923 0.0
C1167 C 1.00893 0.75677 0.34523 0.0
C1168 C 1.00716 0.73339 0.3412 0.0
C1169 C 1.01197 0.73776 0.33297 0.0
N1170 N 0.01659 0.76241 0.33161 0.0
Co1171 Co 0.02359 0.7774 0.32059 0.0
N1172 N 1.01359 0.74853 0.31409 0.0
C1173 C 1.00936 0.72529 0.31732 0.0
C1174 C 1.00302 0.70887 0.31131 0.0
C1175 C 1.00352 0.72253 0.30385 0.0
C1176 C 1.01022 0.7466 0.3057 0.0
N1177 N 0.0306 0.79289 0.30965 0.0
C1178 C 0.02559 0.78759 0.30165 0.0
C1179 C 0.03432 0.80253 0.29582 0.0
C1180 C 0.04522 0.8174 0.30034 0.0
C1181 C 0.04261 0.81078 0.30864 0.0
N1182 N 0.03384 0.80599 0.32706 0.0
C1183 C 0.04582 0.822 0.32425 0.0
C1184 C 0.05068 0.8397 0.33022 0.0
C1185 C 0.04114 0.83446 0.3372 0.0
C1186 C 0.03092 0.81384 0.33507 0.0
N1187 N 0.04462 0.75762 0.32117 0.0
C1188 C 0.07212 0.72352 0.32215 0.0
C1189 C 0.06414 0.72873 0.31443 0.0
C1190 C 0.05052 0.74556 0.31408 0.0
C1191 C 0.06639 0.73693 0.32932 0.0
C1192 C 0.05276 0.75392 0.32868 0.0
N1193 N 1.00241 0.7964 0.32 0.0
C1194 C 0.98651 0.83556 0.31781 0.0
C1195 C 0.97155 0.82211 0.31913 0.0
C1196 C 0.9725 0.79564 0.32098 0.0
C1197 C 0.98791 0.7833 0.32143 0.0
C1198 C 1.00179 0.82232 0.31821 0.0
H1199 H 0.98802 0.763 0.32296 0.0
H1200 H 1.0131 0.83298 0.31705 0.0
H1201 H 0.04452 0.74818 0.30805 0.0
H1202 H 0.0485 0.76348 0.33434 0.0
C1203 C 1.00926 0.72112 0.32611 0.0
C1204 C 0.01933 0.80126 0.34094 0.0
C1205 C 0.0144 0.76632 0.29928 0.0
C1206 C 0.04972 0.823 0.31564 0.0
H1207 H 1.00608 0.76056 0.3518 0.0
H1208 H 1.00215 0.71571 0.34386 0.0
H1209 H 0.99817 0.68955 0.31228 0.0
H1210 H 0.99956 0.71548 0.29774 0.0
H1211 H 0.03331 0.80221 0.28899 0.0
H1212 H 0.05385 0.83158 0.29786 0.0
H1213 H 0.05953 0.8553 0.32946 0.0
H1214 H 0.04165 0.84463 0.34317 0.0
H1215 H 0.06825 0.71971 0.30863 0.0
H1216 H 0.072 0.73376 0.33546 0.0
H1217 H 0.98642 0.85604 0.31634 0.0
H1218 H 0.96136 0.78447 0.3222 0.0
C1219 C 0.76257 0.98308 0.33949 0.0
C1220 C 0.76784 1.00049 0.34558 0.0
C1221 C 0.76952 0.02401 0.34156 0.0
C1222 C 0.76518 0.01967 0.33326 0.0
N1223 N 0.76092 0.99492 0.33185 0.0
Co1224 Co 0.75414 0.98011 0.32082 0.0
N1225 N 0.76398 0.00937 0.31438 0.0
C1226 C 0.76796 0.03261 0.31762 0.0
C1227 C 0.77424 0.04932 0.31165 0.0
C1228 C 0.77397 0.03584 0.30418 0.0
C1229 C 0.76745 0.01159 0.306 0.0
N1230 N 0.74735 0.96486 0.30985 0.0
C1231 C 0.75238 0.97052 0.30188 0.0
C1232 C 0.74382 0.95562 0.296 0.0
C1233 C 0.73302 0.94037 0.30047 0.0
C1234 C 0.73551 0.94674 0.30879 0.0
N1235 N 0.74407 0.95108 0.32725 0.0
C1236 C 0.73241 0.93469 0.32437 0.0
C1237 C 0.7279 0.91639 0.33026 0.0
C1238 C 0.73731 0.92166 0.33728 0.0
C1239 C 0.74703 0.943 0.33526 0.0
N1240 N 0.73295 0.99946 0.32136 0.0
C1241 C 0.70509 0.03267 0.32236 0.0
C1242 C 0.7132 0.02823 0.31465 0.0
C1243 C 0.72701 0.01176 0.31429 0.0
C1244 C 0.71097 0.01929 0.32952 0.0
C1245 C 0.72474 1.00264 0.32888 0.0
N1246 N 0.77548 0.96153 0.32029 0.0
C1247 C 0.79168 0.92263 0.31832 0.0
C1248 C 0.80653 0.93604 0.32003 0.0
C1249 C 0.80531 0.96258 0.32175 0.0
C1250 C 0.78983 0.97478 0.3219 0.0
C1251 C 0.77633 0.93571 0.31847 0.0
H1252 H 0.78955 0.99509 0.32334 0.0
H1253 H 0.76514 0.92493 0.31717 0.0
H1254 H 0.73316 0.00971 0.30828 0.0
H1255 H 0.72901 0.99284 0.33452 0.0
C1256 C 0.76784 0.03658 0.32642 0.0
C1257 C 0.75829 0.95589 0.34119 0.0
C1258 C 0.76352 0.99195 0.29956 0.0
C1259 C 0.72856 0.93395 0.31575 0.0
H1260 H 0.77021 0.99658 0.3522 0.0
H1261 H 0.77407 0.04183 0.34428 0.0
H1262 H 0.77889 0.06872 0.31264 0.0
H1263 H 0.77795 0.04315 0.29808 0.0
H1264 H 0.74491 0.95618 0.28918 0.0
H1265 H 0.72456 0.92604 0.29796 0.0
H1266 H 0.71942 0.90035 0.32942 0.0
H1267 H 0.73708 0.91094 0.34317 0.0
H1268 H 0.70931 0.03816 0.30893 0.0
H1269 H 0.705 0.0217 0.33561 0.0
H1270 H 0.79183 0.90209 0.31701 0.0
H1271 H 0.81628 0.97414 0.32291 0.0
C1272 C 0.99721 0.56409 0.08512 0.0
C1273 C 0.98699 0.58466 0.08729 0.0
C1274 C 0.97737 0.58996 0.08033 0.0
C1275 C 0.9822 0.57234 0.07434 0.0
N1276 N 0.99423 0.55634 0.0771 0.0
Co1277 Co 1.00441 0.52782 0.07058 0.0
N1278 N 0.99732 0.54343 0.05968 0.0
C1279 C 0.98523 0.56121 0.0587 0.0
C1280 C 0.98262 0.56797 0.05041 0.0
C1281 C 0.99363 0.55334 0.04587 0.0
C1282 C 1.00241 0.53839 0.05169 0.0
N1283 N 0.01436 0.49906 0.06403 0.0
C1284 C 0.01785 0.49743 0.05565 0.0
C1285 C 0.02455 0.47341 0.05373 0.0
C1286 C 0.02495 0.45949 0.06116 0.0
C1287 C 0.01856 0.47573 0.0672 0.0
N1288 N 1.01149 0.51266 0.08156 0.0
C1289 C 0.01608 0.48796 0.08288 0.0
C1290 C 0.02094 0.48346 0.0911 0.0
C1291 C 0.01924 0.50679 0.09517 0.0
C1292 C 1.01333 0.52428 0.0892 0.0
N1293 N 0.98339 0.50808 0.07117 0.0
C1294 C 0.95559 0.47472 0.07219 0.0
C1295 C 0.96154 0.48778 0.07936 0.0
C1296 C 0.97529 0.50449 0.07871 0.0
C1297 C 0.96363 0.4795 0.06446 0.0
C1298 C 0.9774 0.49603 0.0641 0.0
N1299 N 0.02559 0.54679 0.06999 0.0
C1300 C 0.05551 0.54597 0.07095 0.0
C1301 C 0.05645 0.57247 0.06913 0.0
C1302 C 0.04148 0.58596 0.06784 0.0
C1303 C 0.02621 0.57273 0.06823 0.0
C1304 C 0.0401 0.53365 0.07139 0.0
H1305 H 0.0149 0.58342 0.06709 0.0
H1306 H 0.03999 0.51333 0.0729 0.0
H1307 H 0.9796 0.51405 0.08436 0.0
H1308 H 0.98349 0.49839 0.05808 0.0
C1309 C 0.97817 0.57337 0.06573 0.0
C1310 C 1.00884 0.5514 0.09095 0.0
C1311 C 1.01387 0.5175 0.0493 0.0
C1312 C 0.0187 0.47141 0.07598 0.0
H1313 H 0.98651 0.59475 0.09328 0.0
H1314 H 0.96848 0.60553 0.07962 0.0
H1315 H 0.97396 0.58217 0.04795 0.0
H1316 H 0.99472 0.55322 0.03905 0.0
H1317 H 0.02861 0.46656 0.04761 0.0
H1318 H 0.02983 0.44017 0.06207 0.0
H1319 H 0.02594 0.46572 0.09372 0.0
H1320 H 0.02214 0.51047 0.10173 0.0
H1321 H 0.95564 0.4851 0.08546 0.0
H1322 H 0.95968 0.46981 0.05874 0.0
H1323 H 0.06664 0.53478 0.07215 0.0
H1324 H 0.04158 0.60645 0.0664 0.0
C1325 C 0.28098 0.69408 0.08558 0.0
C1326 C 0.29116 0.67338 0.08775 0.0
C1327 C 0.30065 0.66811 0.08076 0.0
C1328 C 0.29581 0.68588 0.07477 0.0
N1329 N 0.28389 0.70195 0.07755 0.0
Co1330 Co 0.27368 0.73065 0.07104 0.0
N1331 N 0.28053 0.71514 0.06013 0.0
C1332 C 0.29251 0.69719 0.05913 0.0
C1333 C 0.29503 0.69059 0.05084 0.0
C1334 C 0.2841 0.70551 0.04632 0.0
C1335 C 0.27546 0.72048 0.05213 0.0
N1336 N 0.2637 0.75961 0.06451 0.0
C1337 C 0.26023 0.76156 0.05612 0.0
C1338 C 0.25359 0.78569 0.05423 0.0
C1339 C 0.25324 0.79937 0.06166 0.0
C1340 C 0.25959 0.78289 0.06768 0.0
N1341 N 0.26683 0.74567 0.08204 0.0
C1342 C 0.26232 0.77037 0.08337 0.0
C1343 C 0.25758 0.77472 0.0916 0.0
C1344 C 0.25927 0.75129 0.09567 0.0
C1345 C 0.26504 0.7339 0.08969 0.0
N1346 N 0.29476 0.75026 0.07153 0.0
C1347 C 0.32231 0.78423 0.0724 0.0
C1348 C 0.31662 0.77078 0.07961 0.0
C1349 C 0.30297 0.75384 0.07902 0.0
C1350 C 0.31427 0.77911 0.0647 0.0
C1351 C 0.30063 0.76234 0.06441 0.0
N1352 N 0.25243 0.71183 0.07056 0.0
C1353 C 0.22259 0.71268 0.07196 0.0
C1354 C 0.22147 0.6861 0.0703 0.0
C1355 C 0.23638 0.67275 0.06866 0.0
C1356 C 0.25168 0.68595 0.06881 0.0
C1357 C 0.23802 0.725 0.0721 0.0
H1358 H 0.26292 0.67523 0.06757 0.0
H1359 H 0.23821 0.74535 0.07349 0.0
H1360 H 0.29874 0.74425 0.08471 0.0
H1361 H 0.29458 0.75979 0.0584 0.0
C1362 C 0.29966 0.68489 0.06615 0.0
C1363 C 0.26943 0.7067 0.09142 0.0
C1364 C 0.26426 0.74179 0.04975 0.0
C1365 C 0.25961 0.78705 0.07647 0.0
H1366 H 0.29166 0.66316 0.09373 0.0
H1367 H 0.30945 0.65244 0.08003 0.0
H1368 H 0.30361 0.67636 0.04837 0.0
H1369 H 0.28303 0.70586 0.03949 0.0
H1370 H 0.24958 0.79279 0.04811 0.0
H1371 H 0.24847 0.81873 0.06258 0.0
H1372 H 0.25265 0.79243 0.09423 0.0
H1373 H 0.25643 0.74746 0.10224 0.0
H1374 H 0.32226 0.77388 0.08573 0.0
H1375 H 0.31835 0.78817 0.05888 0.0
H1376 H 0.21157 0.72419 0.07306 0.0
H1377 H 0.2363 0.65218 0.0674 0.0
C1378 C 0.99742 0.69242 0.17269 0.0
C1379 C 0.98731 0.67164 0.17059 0.0
C1380 C 0.97781 0.66634 0.17758 0.0
C1381 C 0.98258 0.68417 0.18352 0.0
N1382 N 0.99447 0.70031 0.1807 0.0
Co1383 Co 1.00454 0.72913 0.18713 0.0
N1384 N 0.9976 0.71371 0.19809 0.0
C1385 C 0.98567 0.69569 0.19912 0.0
C1386 C 0.98306 0.68918 0.20743 0.0
C1387 C 0.99387 0.70424 0.21193 0.0
C1388 C 1.00255 0.71919 0.20608 0.0
N1389 N 0.01439 0.75821 0.19359 0.0
C1390 C 0.01776 0.76026 0.20198 0.0
C1391 C 0.02435 0.78443 0.2038 0.0
C1392 C 0.02477 0.79802 0.19632 0.0
C1393 C 0.0185 0.78147 0.19034 0.0
N1394 N 1.01145 0.74411 0.17609 0.0
C1395 C 0.01592 0.76881 0.1747 0.0
C1396 C 0.02069 0.77317 0.16646 0.0
C1397 C 0.01904 0.74973 0.16246 0.0
C1398 C 1.01327 0.73234 0.16848 0.0
N1399 N 0.98341 0.7486 0.18652 0.0
C1400 C 0.9555 0.78172 0.18542 0.0
C1401 C 0.96142 0.7684 0.17829 0.0
C1402 C 0.97523 0.75182 0.17899 0.0
C1403 C 0.96361 0.7773 0.19315 0.0
C1404 C 0.97743 0.76086 0.19356 0.0
N1405 N 0.02582 0.71042 0.18773 0.0
C1406 C 0.05567 0.71134 0.18634 0.0
C1407 C 0.05681 0.68474 0.18803 0.0
C1408 C 0.04192 0.67135 0.1897 0.0
C1409 C 0.0266 0.68454 0.18953 0.0
C1410 C 0.04022 0.72364 0.18617 0.0
H1411 H 0.01537 0.67379 0.1908 0.0
H1412 H 0.04001 0.744 0.18474 0.0
H1413 H 0.97953 0.74209 0.17337 0.0
H1414 H 0.98356 0.75875 0.19958 0.0
C1415 C 0.97865 0.68325 0.19213 0.0
C1416 C 1.00891 0.70514 0.1668 0.0
C1417 C 1.01367 0.74057 0.20843 0.0
C1418 C 0.01855 0.78555 0.18155 0.0
H1419 H 0.98685 0.66141 0.16463 0.0
H1420 H 0.96904 0.65064 0.17836 0.0
H1421 H 0.97449 0.67493 0.20992 0.0
H1422 H 0.99485 0.70468 0.21876 0.0
H1423 H 0.02828 0.79159 0.20991 0.0
H1424 H 0.02952 0.81738 0.19533 0.0
H1425 H 0.02559 0.79089 0.16378 0.0
H1426 H 0.0219 0.74591 0.15589 0.0
H1427 H 0.95545 0.77077 0.1722 0.0
H1428 H 0.9597 0.78719 0.19883 0.0
H1429 H 0.06667 0.72287 0.18521 0.0
H1430 H 0.04201 0.65077 0.19099 0.0
C1431 C 0.28097 0.56307 0.17295 0.0
C1432 C 0.29115 0.58376 0.1708 0.0
C1433 C 0.30076 0.58883 0.17777 0.0
C1434 C 0.29597 0.57095 0.18374 0.0
N1435 N 0.28397 0.55501 0.18096 0.0
Co1436 Co 0.27384 0.52619 0.18743 0.0
N1437 N 0.28093 0.54138 0.19836 0.0
C1438 C 0.29298 0.55919 0.19935 0.0
C1439 C 0.29565 0.56559 0.20765 0.0
C1440 C 0.28473 0.55067 0.21218 0.0
C1441 C 0.27594 0.53592 0.20635 0.0
N1442 N 0.26392 0.49714 0.19394 0.0
C1443 C 0.26051 0.49509 0.20233 0.0
C1444 C 0.25384 0.47097 0.2042 0.0
C1445 C 0.25339 0.45742 0.19675 0.0
C1446 C 0.25971 0.47395 0.19073 0.0
N1447 N 0.26678 0.51145 0.17643 0.0
C1448 C 0.26222 0.48679 0.17507 0.0
C1449 C 0.25737 0.48261 0.16685 0.0
C1450 C 0.25905 0.5061 0.16281 0.0
C1451 C 0.26493 0.52335 0.16881 0.0
N1452 N 0.29489 0.50654 0.18681 0.0
C1453 C 0.32278 0.4734 0.18574 0.0
C1454 C 0.31692 0.48698 0.17861 0.0
C1455 C 0.30309 0.50352 0.17929 0.0
C1456 C 0.31459 0.47754 0.19345 0.0
C1457 C 0.3008 0.49403 0.19385 0.0
N1458 N 0.25264 0.54509 0.18806 0.0
C1459 C 0.22273 0.5443 0.18709 0.0
C1460 C 0.22176 0.57072 0.18895 0.0
C1461 C 0.23672 0.58416 0.19027 0.0
C1462 C 0.25201 0.57096 0.18987 0.0
C1463 C 0.23814 0.532 0.18663 0.0
H1464 H 0.26331 0.58161 0.19103 0.0
H1465 H 0.23827 0.51175 0.18509 0.0
H1466 H 0.29882 0.51343 0.17367 0.0
H1467 H 0.29465 0.49599 0.19986 0.0
C1468 C 0.30001 0.57167 0.19234 0.0
C1469 C 0.26937 0.55055 0.1671 0.0
C1470 C 0.26462 0.51478 0.20872 0.0
C1471 C 0.25959 0.46997 0.18194 0.0
H1472 H 0.29159 0.59409 0.16484 0.0
H1473 H 0.30961 0.60441 0.17851 0.0
H1474 H 0.30429 0.57971 0.21012 0.0
H1475 H 0.28372 0.55021 0.219 0.0
H1476 H 0.24987 0.46382 0.21032 0.0
H1477 H 0.24854 0.43811 0.1958 0.0
H1478 H 0.25238 0.46496 0.16419 0.0
H1479 H 0.25613 0.51003 0.15625 0.0
H1480 H 0.32294 0.48485 0.17253 0.0
H1481 H 0.31841 0.46743 0.19914 0.0
H1482 H 0.2116 0.53315 0.18586 0.0
H1483 H 0.23661 0.60459 0.19176 0.0
C1484 C 1.01225 0.48351 0.91798 0.0
C1485 C 1.00359 0.49868 0.91223 0.0
C1486 C 0.99825 0.52001 0.91653 0.0
C1487 C 1.00385 0.51665 0.92466 0.0
N1488 N 1.01276 0.4947 0.92577 0.0
Co1489 Co 0.02155 0.48073 0.93679 0.0
N1490 N 1.01141 0.50984 0.94342 0.0
C1491 C 1.00321 0.53056 0.94022 0.0
C1492 C 0.99767 0.54734 0.9463 0.0
C1493 C 1.00261 0.53673 0.95383 0.0
C1494 C 1.01093 0.51398 0.95191 0.0
N1495 N 0.02991 0.4661 0.94777 0.0
C1496 C 0.02741 0.47401 0.95585 0.0
C1497 C 0.03548 0.45801 0.96162 0.0
C1498 C 0.04318 0.43921 0.95705 0.0
C1499 C 0.03944 0.44477 0.94879 0.0
N1500 N 0.03192 0.45187 0.93019 0.0
C1501 C 0.04203 0.43312 0.93321 0.0
C1502 C 0.0472 0.41589 0.9272 0.0
C1503 C 0.03969 0.4238 0.9199 0.0
C1504 C 0.03022 0.44538 0.92193 0.0
N1505 N 0.04243 0.50189 0.93553 0.0
C1506 C 0.07128 0.53412 0.93473 0.0
C1507 C 0.07232 0.50788 0.93706 0.0
C1508 C 0.05792 0.49236 0.93747 0.0
C1509 C 0.05544 0.54348 0.93271 0.0
C1510 C 0.04156 0.52726 0.933 0.0
N1511 N 1.0007 0.46021 0.93801 0.0
C1512 C 0.98591 0.41948 0.93949 0.0
C1513 C 0.97051 0.43194 0.93848 0.0
C1514 C 0.97066 0.45882 0.93755 0.0
C1515 C 0.98563 0.47232 0.9373 0.0
C1516 C 1.00078 0.43391 0.93926 0.0
H1517 H 0.98462 0.49265 0.93643 0.0
H1518 H 1.01223 0.42353 0.93999 0.0
H1519 H 0.05966 0.47276 0.93939 0.0
H1520 H 0.03022 0.53606 0.93123 0.0
C1521 C 0.99984 0.53259 0.93153 0.0
C1522 C 0.01912 0.45806 0.9159 0.0
C1523 C 0.01774 0.49661 0.95838 0.0
C1524 C 0.04481 0.43044 0.94186 0.0
H1525 H 1.001 0.49443 0.90566 0.0
H1526 H 0.99061 0.5356 0.9141 0.0
H1527 H 0.99055 0.56489 0.94538 0.0
H1528 H 1.00016 0.54463 0.96004 0.0
H1529 H 0.03586 0.45979 0.96844 0.0
H1530 H 0.05063 0.42338 0.95946 0.0
H1531 H 0.05491 0.39894 0.92809 0.0
H1532 H 0.04064 0.41426 0.91384 0.0
H1533 H 0.08417 0.49912 0.93855 0.0
H1534 H 0.05347 0.56356 0.93103 0.0
H1535 H 0.98654 0.39868 0.94026 0.0
H1536 H 0.9592 0.46968 0.93703 0.0
C1537 C 0.76204 0.27267 0.91872 0.0
C1538 C 0.7673 0.25531 0.91262 0.0
C1539 C 0.76883 0.2317 0.9166 0.0
C1540 C 0.76442 0.23595 0.92489 0.0
N1541 N 0.76026 0.26073 0.92633 0.0
Co1542 Co 0.75337 0.27538 0.93736 0.0
N1543 N 0.76299 0.24589 0.94378 0.0
C1544 C 0.76691 0.22266 0.94051 0.0
C1545 C 0.77311 0.20583 0.94648 0.0
C1546 C 0.77286 0.21923 0.95396 0.0
C1547 C 0.76644 0.24356 0.95216 0.0
N1548 N 0.74646 0.29045 0.94833 0.0
C1549 C 0.75144 0.28466 0.95631 0.0
C1550 C 0.74285 0.29949 0.96219 0.0
C1551 C 0.7321 0.31486 0.95771 0.0
C1552 C 0.73465 0.30862 0.94939 0.0
N1553 N 0.74352 0.30466 0.93096 0.0
C1554 C 0.73187 0.32109 0.93382 0.0
C1555 C 0.7275 0.33954 0.92796 0.0
C1556 C 0.73698 0.33432 0.92097 0.0
C1557 C 0.74661 0.31286 0.92298 0.0
N1558 N 0.73214 0.25629 0.93668 0.0
C1559 C 0.70426 0.22331 0.93547 0.0
C1560 C 0.71225 0.22749 0.94323 0.0
C1561 C 0.72607 0.24386 0.94369 0.0
C1562 C 0.71024 0.23686 0.92837 0.0
C1563 C 0.72403 0.25339 0.92912 0.0
N1564 N 0.77474 0.29367 0.93805 0.0
C1565 C 0.79108 0.33214 0.9405 0.0
C1566 C 0.80588 0.31834 0.9391 0.0
C1567 C 0.80462 0.29207 0.93707 0.0
C1568 C 0.78908 0.28024 0.93654 0.0
C1569 C 0.77566 0.31941 0.94 0.0
H1570 H 0.78872 0.26008 0.9349 0.0
H1571 H 0.76448 0.33032 0.94122 0.0
H1572 H 0.73215 0.24572 0.94973 0.0
H1573 H 0.7284 0.26331 0.92353 0.0
C1574 C 0.7669 0.21886 0.93171 0.0
C1575 C 0.75786 0.29993 0.91705 0.0
C1576 C 0.76261 0.26323 0.9586 0.0
C1577 C 0.72786 0.32164 0.94243 0.0
H1578 H 0.76975 0.2593 0.90601 0.0
H1579 H 0.77333 0.21387 0.91385 0.0
H1580 H 0.77773 0.18641 0.94547 0.0
H1581 H 0.77682 0.21183 0.96005 0.0
H1582 H 0.74391 0.29885 0.96901 0.0
H1583 H 0.72367 0.32922 0.96023 0.0
H1584 H 0.71905 0.35562 0.92879 0.0
H1585 H 0.73685 0.34514 0.91509 0.0
H1586 H 0.70825 0.21741 0.9489 0.0
H1587 H 0.70435 0.23464 0.92225 0.0
H1588 H 0.79142 0.35248 0.94211 0.0
H1589 H 0.81562 0.28068 0.93579 0.0
C1590 C 0.01501 0.27418 0.83908 0.0
C1591 C 1.00898 0.25687 0.84506 0.0
C1592 C 1.00741 0.23341 0.84106 0.0
C1593 C 1.01247 0.23768 0.83286 0.0
N1594 N 0.01707 0.26234 0.83149 0.0
Co1595 Co 0.02441 0.27721 0.82051 0.0
N1596 N 0.01475 0.24816 0.81399 0.0
C1597 C 1.01052 0.22491 0.8172 0.0
C1598 C 1.00442 0.20837 0.81118 0.0
C1599 C 1.00506 0.22198 0.8037 0.0
C1600 C 1.01161 0.24613 0.80557 0.0
N1601 N 0.03169 0.29262 0.80961 0.0
C1602 C 0.02688 0.28724 0.80159 0.0
C1603 C 0.03572 0.30217 0.7958 0.0
C1604 C 0.04649 0.31712 0.80037 0.0
C1605 C 0.04369 0.31056 0.80867 0.0
N1606 N 0.03438 0.30595 0.82702 0.0
C1607 C 0.04642 0.32197 0.82429 0.0
C1608 C 0.05107 0.33976 0.83027 0.0
C1609 C 0.04132 0.33457 0.83718 0.0
C1610 C 0.03121 0.31388 0.835 0.0
N1611 N 0.04549 0.25761 0.8213 0.0
C1612 C 0.07328 0.22444 0.82256 0.0
C1613 C 0.06589 0.22977 0.81473 0.0
C1614 C 0.05199 0.24606 0.81425 0.0
C1615 C 0.06679 0.23675 0.82974 0.0
C1616 C 0.05311 0.25356 0.82895 0.0
N1617 N 1.00318 0.29604 0.81973 0.0
C1618 C 0.98725 0.33519 0.81757 0.0
C1619 C 0.97228 0.32166 0.8188 0.0
C1620 C 0.97325 0.29513 0.82056 0.0
C1621 C 0.98868 0.28283 0.82104 0.0
C1622 C 1.00255 0.32199 0.818 0.0
H1623 H 0.9888 0.2625 0.82252 0.0
H1624 H 1.01385 0.33274 0.81693 0.0
H1625 H 0.04625 0.24865 0.80815 0.0
H1626 H 0.04845 0.26279 0.83459 0.0
C1627 C 1.0101 0.22089 0.826 0.0
C1628 C 0.01944 0.30135 0.84078 0.0
C1629 C 0.01577 0.26593 0.79918 0.0
C1630 C 0.05058 0.3229 0.81571 0.0
H1631 H 1.00593 0.26075 0.8516 0.0
H1632 H 1.00238 0.21573 0.84371 0.0
H1633 H 0.99959 0.18904 0.81213 0.0
H1634 H 1.00126 0.21484 0.79757 0.0
H1635 H 0.03487 0.30178 0.78897 0.0
H1636 H 0.05514 0.33134 0.79794 0.0
H1637 H 0.05991 0.35539 0.82956 0.0
H1638 H 0.04163 0.34483 0.84314 0.0
H1639 H 0.07043 0.22063 0.80903 0.0
H1640 H 0.07223 0.23341 0.83591 0.0
H1641 H 0.98715 0.35571 0.81617 0.0
H1642 H 0.96212 0.28388 0.8217 0.0
C1643 C 0.76309 0.48206 0.83941 0.0
C1644 C 0.76837 0.49952 0.84548 0.0
C1645 C 0.76997 0.52303 0.84144 0.0
C1646 C 0.76559 0.51863 0.83316 0.0
N1647 N 0.76138 0.49385 0.83177 0.0
Co1648 Co 0.7546 0.47892 0.82075 0.0
N1649 N 0.76434 0.5082 0.81428 0.0
C1650 C 0.76829 0.53148 0.81751 0.0
C1651 C 0.77449 0.54819 0.81151 0.0
C1652 C 0.77422 0.53467 0.80405 0.0
C1653 C 0.76777 0.51038 0.8059 0.0
N1654 N 0.74779 0.46356 0.8098 0.0
C1655 C 0.75279 0.46919 0.80182 0.0
C1656 C 0.74425 0.45418 0.79597 0.0
C1657 C 0.73349 0.43891 0.80046 0.0
C1658 C 0.73599 0.44537 0.80876 0.0
N1659 N 0.74463 0.44988 0.8272 0.0
C1660 C 0.73295 0.43347 0.82436 0.0
C1661 C 0.72846 0.41525 0.83028 0.0
C1662 C 0.73791 0.4206 0.83728 0.0
C1663 C 0.74766 0.44186 0.83521 0.0
N1664 N 0.73336 0.49816 0.8213 0.0
C1665 C 0.70544 0.53125 0.8223 0.0
C1666 C 0.71353 0.5268 0.81459 0.0
C1667 C 0.72736 0.51039 0.81422 0.0
C1668 C 0.71137 0.51795 0.82947 0.0
C1669 C 0.72518 0.50136 0.82882 0.0
N1670 N 0.77598 0.46046 0.82021 0.0
C1671 C 0.79226 0.42163 0.81823 0.0
C1672 C 0.80709 0.43513 0.81991 0.0
C1673 C 0.80582 0.46167 0.82163 0.0
C1674 C 0.79031 0.47379 0.82179 0.0
C1675 C 0.77688 0.43463 0.8184 0.0
H1676 H 0.78999 0.49411 0.82323 0.0
H1677 H 0.76571 0.42379 0.81712 0.0
H1678 H 0.7335 0.50832 0.80821 0.0
H1679 H 0.72949 0.49161 0.83446 0.0
C1680 C 0.76819 0.53551 0.8263 0.0
C1681 C 0.75895 0.45481 0.84111 0.0
C1682 C 0.76386 0.49068 0.79948 0.0
C1683 C 0.72906 0.43264 0.81575 0.0
H1684 H 0.77083 0.49565 0.85209 0.0
H1685 H 0.77453 0.54088 0.84415 0.0
H1686 H 0.7791 0.56763 0.81248 0.0
H1687 H 0.77815 0.54196 0.79794 0.0
H1688 H 0.74532 0.45468 0.78914 0.0
H1689 H 0.72505 0.42453 0.79796 0.0
H1690 H 0.71995 0.39923 0.82948 0.0
H1691 H 0.73768 0.41004 0.84321 0.0
H1692 H 0.70959 0.53667 0.80887 0.0
H1693 H 0.70542 0.52037 0.83556 0.0
H1694 H 0.79245 0.40109 0.81693 0.0
H1695 H 0.81677 0.47329 0.82277 0.0
H1696 H 0.49281 0.04459 0.10596 0.0
H1697 H 0.49501 0.07111 0.11878 0.0
H1698 H 0.53415 0.11568 0.10711 0.0
H1699 H 0.53151 0.08964 0.09421 0.0
H1700 H 0.51851 0.08175 0.13013 0.0
H1701 H 0.50236 0.17228 0.11316 0.0
H1702 H 0.50078 0.14092 0.10828 0.0
H1703 H 0.52057 0.15697 0.10899 0.0
C1704 C 0.50209 0.05974 0.10623 0.0
C1705 C 0.51214 0.06494 0.09917 0.0
C1706 C 0.50329 0.07501 0.11353 0.0
C1707 C 0.5145 0.09587 0.1139 0.0
C1708 C 0.52509 0.10022 0.10695 0.0
H1709 H 0.53501 0.17632 0.16195 0.0
H1710 H 0.53777 0.15083 0.14892 0.0
C1711 C 0.52377 0.08511 0.09962 0.0
C1712 C 0.51476 0.11336 0.12144 0.0
H1713 H 0.51077 0.17663 0.12747 0.0
C1714 C 0.51684 0.1025 0.12954 0.0
C1715 C 0.51225 0.14046 0.12073 0.0
C1716 C 0.50869 0.15335 0.11234 0.0
C1717 C 0.51658 0.11784 0.1369 0.0
C1718 C 0.51466 0.14506 0.13617 0.0
C1719 C 0.5125 0.15589 0.12807 0.0
C1720 C 0.51397 0.16244 0.14373 0.0
C1721 C 0.51775 0.10451 0.14539 0.0
C1722 C 0.5002 0.17877 0.14498 0.0
C1723 C 0.49886 0.1938 0.15231 0.0
C1724 C 0.51124 0.19281 0.15857 0.0
C1725 C 0.52534 0.17743 0.15719 0.0
C1726 C 0.52678 0.16258 0.14981 0.0
H1727 H 0.51435 0.08372 0.14497 0.0
H1728 H 0.53073 0.10564 0.14772 0.0
H1729 H 0.50952 0.11386 0.15011 0.0
H1730 H 0.49018 0.17923 0.1404 0.0
H1731 H 0.48781 0.20538 0.15328 0.0
H1732 H 0.74443 0.08323 0.16276 0.0
H1733 H 0.74121 0.1088 0.14971 0.0
H1734 H 0.78589 0.07429 0.13975 0.0
H1735 H 0.78866 0.04815 0.15266 0.0
H1736 H 0.76046 0.14509 0.14362 0.0
H1737 H 0.75702 0.06849 0.11942 0.0
H1738 H 0.75524 0.06152 0.13058 0.0
H1739 H 0.77538 0.06528 0.12575 0.0
C1740 C 0.75323 0.08062 0.15765 0.0
C1741 C 0.76657 0.06339 0.15861 0.0
C1742 C 0.7515 0.09538 0.15023 0.0
C1743 C 0.76315 0.09332 0.14362 0.0
C1744 C 0.77641 0.07579 0.14458 0.0
H1745 H 0.78644 0.21184 0.10608 0.0
H1746 H 0.78371 0.18547 0.11895 0.0
C1747 C 0.77804 0.06086 0.15197 0.0
C1748 C 0.76208 0.11069 0.13601 0.0
H1749 H 0.7634 0.11115 0.11437 0.0
C1750 C 0.76093 0.13759 0.13723 0.0
C1751 C 0.76244 0.10112 0.12762 0.0
C1752 C 0.7624 0.07251 0.12576 0.0
C1753 C 0.76058 0.15506 0.13036 0.0
C1754 C 0.7619 0.14556 0.12198 0.0
C1755 C 0.76259 0.11863 0.12076 0.0
C1756 C 0.76281 0.16306 0.1144 0.0
C1757 C 0.75854 0.18352 0.13218 0.0
C1758 C 0.75218 0.15923 0.10744 0.0
C1759 C 0.7539 0.17414 0.10005 0.0
C1760 C 0.76616 0.19337 0.09949 0.0
C1761 C 0.77658 0.19763 0.10647 0.0
C1762 C 0.77499 0.18254 0.11383 0.0
H1763 H 0.75218 0.18667 0.13833 0.0
H1764 H 0.77098 0.19266 0.13259 0.0
H1765 H 0.75133 0.19342 0.12713 0.0
H1766 H 0.74276 0.14428 0.10765 0.0
H1767 H 0.74598 0.17014 0.09467 0.0
H1768 H 0.53606 0.79302 0.85611 0.0
H1769 H 0.53349 0.81911 0.86898 0.0
H1770 H 0.4935 0.86233 0.85748 0.0
H1771 H 0.49654 0.83672 0.8445 0.0
H1772 H 0.51456 0.89439 0.86436 0.0
H1773 H 0.50146 0.81855 0.88817 0.0
H1774 H 0.5203 0.81201 0.88253 0.0
H1775 H 0.50076 0.81223 0.87696 0.0
C1776 C 0.52643 0.80763 0.85645 0.0
C1777 C 0.51622 0.8125 0.84942 0.0
C1778 C 0.52494 0.82256 0.86381 0.0
C1779 C 0.51307 0.84252 0.86433 0.0
C1780 C 0.50267 0.847 0.85731 0.0
H1781 H 0.49431 0.92175 0.91256 0.0
H1782 H 0.49122 0.89656 0.89948 0.0
C1783 C 0.50429 0.83224 0.84992 0.0
C1784 C 0.51227 0.8598 0.87192 0.0
H1785 H 0.51016 0.85965 0.89355 0.0
C1786 C 0.51343 0.88674 0.87073 0.0
C1787 C 0.51055 0.85009 0.88028 0.0
C1788 C 0.50802 0.82166 0.88206 0.0
C1789 C 0.51335 0.90403 0.87761 0.0
C1790 C 0.51256 0.89421 0.88599 0.0
C1791 C 0.51096 0.86733 0.88717 0.0
C1792 C 0.51364 0.91131 0.89362 0.0
C1793 C 0.51384 0.93269 0.87577 0.0
C1794 C 0.52713 0.92829 0.89471 0.0
C1795 C 0.52869 0.94301 0.90211 0.0
C1796 C 0.51693 0.9408 0.90863 0.0
C1797 C 0.50336 0.9241 0.90754 0.0
C1798 C 0.5017 0.90956 0.90011 0.0
H1799 H 0.50876 0.93713 0.86939 0.0
H1800 H 0.50667 0.94381 0.88053 0.0
H1801 H 0.52692 0.93941 0.87589 0.0
H1802 H 0.53681 0.92954 0.88998 0.0
H1803 H 0.53947 0.95531 0.90291 0.0
H1804 H 0.24877 0.96778 0.85717 0.0
H1805 H 0.25174 0.94204 0.87018 0.0
H1806 H 0.28022 0.88526 0.85649 0.0
H1807 H 0.27764 0.91142 0.84357 0.0
H1808 H 0.23999 0.89434 0.87294 0.0
H1809 H 0.30814 0.89207 0.87753 0.0
H1810 H 0.29817 0.91443 0.87035 0.0
H1811 H 0.30197 0.88153 0.8672 0.0
C1812 C 0.2562 0.95031 0.85704 0.0
C1813 C 0.26343 0.94199 0.84943 0.0
C1814 C 0.25773 0.93541 0.86445 0.0
C1815 C 0.26644 0.9118 0.8644 0.0
C1816 C 0.27384 0.90368 0.8568 0.0
H1817 H 0.2484 0.7872 0.90108 0.0
H1818 H 0.25111 0.81328 0.88813 0.0
C1819 C 0.27236 0.91862 0.84941 0.0
C1820 C 0.26668 0.89479 0.8721 0.0
H1821 H 0.29234 0.86179 0.88566 0.0
C1822 C 0.25147 0.88735 0.87573 0.0
C1823 C 0.28161 0.88573 0.87584 0.0
C1824 C 0.2984 0.89404 0.87259 0.0
C1825 C 0.25075 0.87097 0.88287 0.0
C1826 C 0.26565 0.86114 0.88642 0.0
C1827 C 0.28089 0.86892 0.88289 0.0
C1828 C 0.26563 0.84361 0.89398 0.0
C1829 C 0.23399 0.86483 0.88665 0.0
C1830 C 0.27359 0.85117 0.9015 0.0
C1831 C 0.27231 0.836 0.90885 0.0
C1832 C 0.26323 0.81278 0.90882 0.0
C1833 C 0.25581 0.80467 0.90123 0.0
C1834 C 0.25713 0.81982 0.89387 0.0
H1835 H 0.22441 0.87912 0.88467 0.0
H1836 H 0.22991 0.84548 0.88446 0.0
H1837 H 0.23457 0.86448 0.89367 0.0
H1838 H 0.28023 0.86937 0.90177 0.0
H1839 H 0.27788 0.8429 0.91466 0.0
H1840 H 0.49131 0.54384 0.60583 0.0
H1841 H 0.49342 0.57029 0.61867 0.0
H1842 H 0.5338 0.61317 0.60744 0.0
H1843 H 0.53125 0.58724 0.59451 0.0
H1844 H 0.51657 0.5798 0.63027 0.0
H1845 H 0.50292 0.67118 0.61321 0.0
H1846 H 0.50096 0.63996 0.60828 0.0
H1847 H 0.52102 0.65508 0.60923 0.0
C1848 C 0.50082 0.55862 0.6062 0.0
C1849 C 0.51125 0.56339 0.59925 0.0
C1850 C 0.50198 0.57384 0.61351 0.0
C1851 C 0.51353 0.59422 0.614 0.0
C1852 C 0.52448 0.59811 0.60717 0.0
H1853 H 0.53368 0.67325 0.66233 0.0
H1854 H 0.53642 0.64778 0.6493 0.0
C1855 C 0.5232 0.58306 0.59983 0.0
C1856 C 0.51381 0.61164 0.62156 0.0
H1857 H 0.51079 0.67502 0.62762 0.0
C1858 C 0.51533 0.60063 0.62967 0.0
C1859 C 0.51186 0.63886 0.62086 0.0
C1860 C 0.50892 0.65197 0.61244 0.0
C1861 C 0.51504 0.61591 0.63704 0.0
C1862 C 0.51369 0.64321 0.63632 0.0
C1863 C 0.51208 0.65421 0.62821 0.0
C1864 C 0.51305 0.66055 0.6439 0.0
C1865 C 0.5156 0.60247 0.64553 0.0
C1866 C 0.49955 0.67748 0.64504 0.0
C1867 C 0.49822 0.69248 0.65238 0.0
C1868 C 0.51037 0.69089 0.65874 0.0
C1869 C 0.52421 0.67486 0.65748 0.0
C1870 C 0.52563 0.66004 0.65009 0.0
H1871 H 0.5118 0.58186 0.64505 0.0
H1872 H 0.52849 0.60295 0.64801 0.0
H1873 H 0.50735 0.61218 0.65017 0.0
H1874 H 0.4897 0.67844 0.64037 0.0
H1875 H 0.48735 0.70454 0.65327 0.0
H1876 H 0.78051 0.5374 0.6511 0.0
H1877 H 0.77796 0.56346 0.63814 0.0
H1878 H 0.74868 0.61961 0.65166 0.0
H1879 H 0.75084 0.59312 0.66455 0.0
H1880 H 0.73669 0.61207 0.6356 0.0
H1881 H 0.80462 0.6291 0.6346 0.0
H1882 H 0.79913 0.59546 0.63438 0.0
H1883 H 0.79447 0.61447 0.64359 0.0
C1884 C 0.77311 0.5549 0.65122 0.0
C1885 C 0.76557 0.563 0.65877 0.0
C1886 C 0.77188 0.57003 0.64385 0.0
C1887 C 0.76337 0.59382 0.64393 0.0
C1888 C 0.75533 0.60141 0.65141 0.0
H1889 H 0.78037 0.7175 0.60699 0.0
H1890 H 0.77752 0.69177 0.62 0.0
C1891 C 0.7565 0.58624 0.65877 0.0
C1892 C 0.76337 0.61128 0.63635 0.0
H1893 H 0.78907 0.64413 0.62282 0.0
C1894 C 0.74814 0.6191 0.63281 0.0
C1895 C 0.77829 0.62097 0.63278 0.0
C1896 C 0.79505 0.61482 0.63657 0.0
C1897 C 0.74744 0.63583 0.62574 0.0
C1898 C 0.76238 0.64473 0.62199 0.0
C1899 C 0.77759 0.63724 0.62562 0.0
C1900 C 0.76263 0.66166 0.61427 0.0
C1901 C 0.73065 0.64423 0.62249 0.0
C1902 C 0.75512 0.65359 0.60669 0.0
C1903 C 0.75652 0.66854 0.5993 0.0
C1904 C 0.7655 0.69185 0.5993 0.0
C1905 C 0.7729 0.70008 0.60688 0.0
C1906 C 0.77144 0.68519 0.61429 0.0
H1907 H 0.72094 0.64241 0.62745 0.0
H1908 H 0.73093 0.66458 0.62021 0.0
H1909 H 0.72701 0.63166 0.61713 0.0
H1910 H 0.74867 0.63524 0.6064 0.0
H1911 H 0.7511 0.66142 0.59348 0.0
H1912 H 0.53634 0.4611 0.40212 0.0
H1913 H 0.53374 0.43514 0.38923 0.0
H1914 H 0.49315 0.39283 0.40051 0.0
H1915 H 0.49623 0.41829 0.41352 0.0
H1916 H 0.51396 0.3603 0.39369 0.0
H1917 H 0.50205 0.43667 0.3699 0.0
H1918 H 0.52086 0.44269 0.37562 0.0
H1919 H 0.50124 0.44292 0.38111 0.0
C1920 C 0.52659 0.44672 0.40173 0.0
C1921 C 0.51622 0.44205 0.40871 0.0
C1922 C 0.52507 0.43187 0.39435 0.0
C1923 C 0.51302 0.41221 0.39376 0.0
C1924 C 0.50247 0.40792 0.40073 0.0
H1925 H 0.49447 0.33408 0.34532 0.0
H1926 H 0.49133 0.35912 0.35842 0.0
C1927 C 0.50411 0.4226 0.40814 0.0
C1928 C 0.51216 0.39501 0.38615 0.0
H1929 H 0.51048 0.39543 0.36451 0.0
C1930 C 0.51303 0.36804 0.38732 0.0
C1931 C 0.5107 0.40484 0.37779 0.0
C1932 C 0.50848 0.43335 0.37603 0.0
C1933 C 0.5129 0.35082 0.38043 0.0
C1934 C 0.51238 0.36073 0.37205 0.0
C1935 C 0.51107 0.38766 0.37089 0.0
C1936 C 0.51344 0.34369 0.36441 0.0
C1937 C 0.51305 0.32213 0.38224 0.0
C1938 C 0.52678 0.32635 0.36338 0.0
C1939 C 0.52836 0.31172 0.35597 0.0
C1940 C 0.51678 0.31434 0.34937 0.0
C1941 C 0.50337 0.33139 0.35039 0.0
C1942 C 0.50168 0.34585 0.35785 0.0
H1943 H 0.50778 0.31777 0.38858 0.0
H1944 H 0.50588 0.31124 0.37742 0.0
H1945 H 0.52607 0.31508 0.38219 0.0
H1946 H 0.53633 0.32479 0.36817 0.0
H1947 H 0.53903 0.29916 0.35522 0.0
H1948 H 0.24197 0.46161 0.35608 0.0
H1949 H 0.24466 0.43519 0.36894 0.0
H1950 H 0.2859 0.39444 0.35775 0.0
H1951 H 0.28272 0.42034 0.34477 0.0
H1952 H 0.26531 0.36108 0.36439 0.0
H1953 H 0.27598 0.43658 0.38842 0.0
H1954 H 0.25721 0.44242 0.38262 0.0
H1955 H 0.27692 0.44339 0.37723 0.0
C1956 C 0.25188 0.44748 0.35649 0.0
C1957 C 0.26239 0.44335 0.34954 0.0
C1958 C 0.25345 0.43236 0.36385 0.0
C1959 C 0.26571 0.41299 0.36445 0.0
C1960 C 0.27642 0.40929 0.35751 0.0
H1961 H 0.28401 0.3331 0.41281 0.0
H1962 H 0.28722 0.35875 0.39977 0.0
C1963 C 0.27472 0.42423 0.35013 0.0
C1964 C 0.2666 0.39546 0.37202 0.0
H1965 H 0.26784 0.39489 0.39366 0.0
C1966 C 0.26603 0.36853 0.37078 0.0
C1967 C 0.26779 0.40493 0.3804 0.0
C1968 C 0.2697 0.4334 0.38225 0.0
C1969 C 0.26619 0.35099 0.37763 0.0
C1970 C 0.26644 0.36051 0.38603 0.0
C1971 C 0.26746 0.38742 0.38726 0.0
C1972 C 0.26538 0.34309 0.39362 0.0
C1973 C 0.26635 0.32239 0.37575 0.0
C1974 C 0.25219 0.32543 0.39455 0.0
C1975 C 0.25058 0.31045 0.40192 0.0
C1976 C 0.26199 0.31305 0.40859 0.0
C1977 C 0.27526 0.33042 0.40767 0.0
C1978 C 0.27698 0.34523 0.40026 0.0
H1979 H 0.2718 0.31845 0.36943 0.0
H1980 H 0.27353 0.31143 0.38058 0.0
H1981 H 0.2534 0.31504 0.37571 0.0
H1982 H 0.24275 0.32387 0.38969 0.0
H1983 H 0.24 0.29765 0.40259 0.0
H1984 H 0.99168 0.04406 0.60569 0.0
H1985 H 0.99392 0.07056 0.61851 0.0
H1986 H 0.0344 0.11308 0.60721 0.0
H1987 H 0.0317 0.08711 0.59429 0.0
H1988 H 0.01706 0.08008 0.63009 0.0
H1989 H 1.00369 0.17134 0.61291 0.0
H1990 H 1.00166 0.14007 0.60801 0.0
H1991 H 0.02175 0.15508 0.60896 0.0
C1992 C 1.00124 0.05876 0.60604 0.0
C1993 C 1.01165 0.06343 0.59907 0.0
C1994 C 1.00248 0.07401 0.61334 0.0
C1995 C 0.01409 0.09432 0.61381 0.0
C1996 C 0.02503 0.09808 0.60696 0.0
H1997 H 0.03416 0.1737 0.66209 0.0
H1998 H 0.03696 0.14813 0.64908 0.0
C1999 C 0.02367 0.083 0.59963 0.0
C2000 C 0.01441 0.11183 0.62134 0.0
H2001 H 1.01154 0.1753 0.62731 0.0
C2002 C 0.01588 0.1009 0.62947 0.0
C2003 C 1.01253 0.13905 0.6206 0.0
C2004 C 1.00964 0.15208 0.61217 0.0
C2005 C 0.0156 0.11627 0.63682 0.0
C2006 C 0.01432 0.14357 0.63606 0.0
C2007 C 1.01277 0.15448 0.62793 0.0
C2008 C 1.01367 0.161 0.64361 0.0
C2009 C 0.01608 0.10292 0.64532 0.0
C2010 C 1.00021 0.17804 0.64471 0.0
C2011 C 0.99886 0.19312 0.65203 0.0
C2012 C 1.01094 0.19148 0.65842 0.0
C2013 C 0.02475 0.17535 0.65721 0.0
C2014 C 0.0262 0.16046 0.64984 0.0
H2015 H 1.01224 0.08233 0.64486 0.0
H2016 H 0.02897 0.10335 0.64781 0.0
H2017 H 1.00784 0.11273 0.64994 0.0
H2018 H 0.99041 0.17902 0.64002 0.0
H2019 H 0.98801 0.20524 0.65288 0.0
H2020 H 0.2453 0.16871 0.59462 0.0
H2021 H 0.24215 0.14288 0.60761 0.0
H2022 H 0.28322 0.184 0.61884 0.0
H2023 H 0.28588 0.21034 0.60596 0.0
H2024 H 0.26278 0.10972 0.61434 0.0
H2025 H 0.25177 0.18546 0.63825 0.0
H2026 H 0.25088 0.19212 0.62704 0.0
H2027 H 0.27056 0.19135 0.63248 0.0
C2028 C 0.25327 0.17269 0.59999 0.0
C2029 C 0.26554 0.1919 0.5994 0.0
C2030 C 0.25159 0.15779 0.60738 0.0
C2031 C 0.26226 0.16163 0.61433 0.0
C2032 C 0.27446 0.18107 0.61373 0.0
H2033 H 0.28808 0.04687 0.65265 0.0
H2034 H 0.28533 0.073 0.63973 0.0
C2035 C 0.27602 0.19613 0.60637 0.0
C2036 C 0.26136 0.14419 0.62192 0.0
H2037 H 0.26001 0.14389 0.64356 0.0
C2038 C 0.26201 0.11725 0.62072 0.0
C2039 C 0.26009 0.15376 0.63029 0.0
C2040 C 0.2581 0.18224 0.6321 0.0
C2041 C 0.26186 0.09979 0.6276 0.0
C2042 C 0.26155 0.10943 0.63598 0.0
C2043 C 0.26044 0.13634 0.63718 0.0
C2044 C 0.26263 0.09211 0.6436 0.0
C2045 C 0.26178 0.07117 0.62576 0.0
C2046 C 0.25098 0.09423 0.65021 0.0
C2047 C 0.2527 0.07948 0.65764 0.0
C2048 C 0.26602 0.0622 0.65859 0.0
C2049 C 0.27748 0.05963 0.65195 0.0
C2050 C 0.27587 0.07455 0.64457 0.0
H2051 H 0.25637 0.06712 0.61943 0.0
H2052 H 0.27474 0.06389 0.62575 0.0
H2053 H 0.25461 0.06024 0.63059 0.0
H2054 H 0.24071 0.10768 0.64969 0.0
H2055 H 0.2439 0.08212 0.66275 0.0
H2056 H 1.00097 0.84475 0.3433 0.0
H2057 H 0.99886 0.87105 0.35617 0.0
H2058 H 0.02788 0.81443 0.36979 0.0
H2059 H 0.03037 0.78854 0.35686 0.0
H2060 H 0.98676 0.8633 0.37223 0.0
H2061 H 0.05474 0.87984 0.37333 0.0
H2062 H 0.04458 0.86547 0.36432 0.0
H2063 H 0.04913 0.84624 0.37355 0.0
C2064 C 1.00659 0.83772 0.34911 0.0
C2065 C 0.01556 0.81438 0.34913 0.0
C2066 C 1.00545 0.85279 0.35644 0.0
C2067 C 1.01343 0.84502 0.36395 0.0
C2068 C 0.02185 0.82114 0.36406 0.0
H2069 H 1.00118 0.9118 0.41434 0.0
H2070 H 0.99873 0.88587 0.40144 0.0
C2071 C 0.02304 0.8061 0.35671 0.0
C2072 C 1.01345 0.86235 0.37152 0.0
H2073 H 0.03918 0.89483 0.38506 0.0
C2074 C 0.99823 0.87021 0.37503 0.0
C2075 C 0.02838 0.87189 0.3751 0.0
C2076 C 0.04513 0.86567 0.37134 0.0
C2077 C 0.99754 0.88682 0.38208 0.0
C2078 C 1.01249 0.89558 0.38585 0.0
C2079 C 0.02769 0.88806 0.38224 0.0
C2080 C 1.01275 0.91238 0.39356 0.0
C2081 C 0.98076 0.89525 0.38531 0.0
C2082 C 0.02159 0.93589 0.39354 0.0
C2083 C 0.02305 0.95065 0.40094 0.0
C2084 C 0.01563 0.9423 0.40852 0.0
C2085 C 1.00662 0.91902 0.40852 0.0
C2086 C 1.0052 0.90421 0.40114 0.0
H2087 H 0.97106 0.89356 0.38034 0.0
H2088 H 0.97709 0.88262 0.39068 0.0
H2089 H 0.98108 0.91557 0.38756 0.0
H2090 H 0.02769 0.94255 0.38782 0.0
H2091 H 0.03054 0.96804 0.40082 0.0
H2092 H 0.78271 0.83595 0.41342 0.0
H2093 H 0.78552 0.86231 0.40053 0.0
H2094 H 0.74421 0.82166 0.38936 0.0
H2095 H 0.74186 0.79473 0.40216 0.0
H2096 H 0.76714 0.83091 0.37768 0.0
H2097 H 0.75555 0.92186 0.39512 0.0
H2098 H 0.77348 0.9048 0.39892 0.0
H2099 H 0.75321 0.89046 0.39998 0.0
C2100 C 0.77452 0.83232 0.40812 0.0
C2101 C 0.76222 0.81316 0.40871 0.0
C2102 C 0.77595 0.84763 0.4008 0.0
C2103 C 0.76481 0.84453 0.39401 0.0
C2104 C 0.75293 0.8246 0.3945 0.0
H2105 H 0.73897 0.9578 0.35533 0.0
H2106 H 0.74151 0.93113 0.36816 0.0
C2107 C 0.75163 0.80911 0.40178 0.0
C2108 C 0.76518 0.86237 0.38651 0.0
H2109 H 0.763 0.92617 0.38068 0.0
C2110 C 0.76626 0.85175 0.37835 0.0
C2111 C 0.7637 0.88961 0.38731 0.0
C2112 C 0.76124 0.90237 0.39579 0.0
C2113 C 0.76596 0.86744 0.37104 0.0
C2114 C 0.76508 0.89474 0.37185 0.0
C2115 C 0.76394 0.90535 0.38001 0.0
C2116 C 0.76441 0.91251 0.36434 0.0
C2117 C 0.76597 0.85444 0.3625 0.0
C2118 C 0.7767 0.91179 0.358 0.0
C2119 C 0.77516 0.92693 0.35065 0.0
C2120 C 0.76151 0.94352 0.34957 0.0
C2121 C 0.7497 0.94535 0.35608 0.0
C2122 C 0.75113 0.93001 0.36338 0.0
H2123 H 0.76186 0.83396 0.36296 0.0
H2124 H 0.75772 0.86472 0.35797 0.0
H2125 H 0.77877 0.85454 0.35991 0.0
H2126 H 0.78732 0.89909 0.35866 0.0
H2127 H 0.78435 0.92511 0.34568 0.0
H2128 H 0.99763 0.71771 0.15091 0.0
H2129 H 1.00013 0.69186 0.13797 0.0
H2130 H 0.02958 0.6356 0.15152 0.0
H2131 H 0.02746 0.66188 0.16439 0.0
H2132 H 0.04148 0.6435 0.13543 0.0
H2133 H 0.97358 0.62614 0.13449 0.0
H2134 H 0.97901 0.65981 0.13425 0.0
H2135 H 0.98375 0.64063 0.14347 0.0
C2136 C 1.00506 0.70024 0.15104 0.0
C2137 C 1.01265 0.69205 0.1586 0.0
C2138 C 1.00625 0.68522 0.14368 0.0
C2139 C 0.0148 0.66146 0.14377 0.0
C2140 C 0.0229 0.65378 0.15126 0.0
H2141 H 0.99797 0.53841 0.10687 0.0
H2142 H 1.00081 0.56384 0.11988 0.0
C2143 C 0.02175 0.66884 0.1586 0.0
C2144 C 0.0148 0.64414 0.1362 0.0
H2145 H 0.98911 0.61141 0.12271 0.0
C2146 C 0.03003 0.63647 0.13265 0.0
C2147 C 0.99988 0.63443 0.13265 0.0
C2148 C 0.98313 0.64043 0.13645 0.0
C2149 C 0.03074 0.61989 0.12559 0.0
C2150 C 0.01579 0.61098 0.12185 0.0
C2151 C 1.00059 0.6183 0.1255 0.0
C2152 C 0.01555 0.59423 0.11414 0.0
C2153 C 0.04752 0.61168 0.12233 0.0
C2154 C 0.02299 0.60255 0.10655 0.0
C2155 C 0.02158 0.58779 0.09915 0.0
C2156 C 1.01269 0.56439 0.09916 0.0
C2157 C 1.00537 0.5559 0.10675 0.0
C2158 C 1.00683 0.57062 0.11416 0.0
H2159 H 0.05726 0.61345 0.12727 0.0
H2160 H 0.04728 0.59137 0.12006 0.0
H2161 H 0.05109 0.62438 0.11695 0.0
H2162 H 0.02937 0.62097 0.10625 0.0
H2163 H 0.02693 0.59511 0.09333 0.0
H2164 H 0.25117 0.59426 0.16478 0.0
H2165 H 0.24871 0.62059 0.15189 0.0
H2166 H 0.27743 0.5641 0.1382 0.0
H2167 H 0.2803 0.53821 0.15118 0.0
H2168 H 0.28904 0.61182 0.13546 0.0
H2169 H 0.2209 0.61374 0.13083 0.0
H2170 H 0.22701 0.6243 0.14117 0.0
H2171 H 0.2309 0.59142 0.13802 0.0
C2172 C 0.25655 0.58718 0.15894 0.0
C2173 C 0.2655 0.56384 0.15891 0.0
C2174 C 0.25513 0.60221 0.15157 0.0
C2175 C 0.26261 0.5942 0.14398 0.0
C2176 C 0.27138 0.57064 0.14393 0.0
H2177 H 0.25088 0.66339 0.09379 0.0
H2178 H 0.24868 0.63677 0.10664 0.0
C2179 C 0.27285 0.55566 0.15132 0.0
C2180 C 0.26235 0.61124 0.13629 0.0
H2181 H 0.23665 0.64415 0.12273 0.0
C2182 C 0.27756 0.61876 0.13267 0.0
C2183 C 0.24741 0.62023 0.13254 0.0
C2184 C 0.23063 0.61181 0.13578 0.0
C2185 C 0.27826 0.63515 0.12553 0.0
C2186 C 0.26334 0.64492 0.12198 0.0
C2187 C 0.24811 0.63707 0.12551 0.0
C2188 C 0.26333 0.66248 0.11443 0.0
C2189 C 0.29502 0.64135 0.12176 0.0
C2190 C 0.27182 0.68628 0.11455 0.0
C2191 C 0.27306 0.7015 0.1072 0.0
C2192 C 0.26557 0.69347 0.09962 0.0
C2193 C 0.25651 0.67023 0.09959 0.0
C2194 C 0.25532 0.65497 0.10692 0.0
H2195 H 0.3046 0.62706 0.12372 0.0
H2196 H 0.29443 0.64177 0.11474 0.0
H2197 H 0.29908 0.66069 0.12397 0.0
H2198 H 0.27788 0.69278 0.12027 0.0
H2199 H 0.28046 0.71899 0.10735 0.0
H2200 H 0.0302 0.28911 0.85678 0.0
H2201 H 0.02727 0.3152 0.86965 0.0
H2202 H 0.99844 0.37133 0.85569 0.0
H2203 H 1.00102 0.34486 0.84291 0.0
H2204 H 0.03883 0.36335 0.87208 0.0
H2205 H 0.97071 0.36444 0.87685 0.0
H2206 H 0.98079 0.342 0.86979 0.0
H2207 H 0.97672 0.37471 0.86644 0.0
C2208 C 0.02272 0.30652 0.85656 0.0
C2209 C 0.01539 0.31457 0.84892 0.0
C2210 C 0.02121 0.32161 0.86389 0.0
C2211 C 1.0124 0.34515 0.86373 0.0
C2212 C 1.00491 0.35299 0.8561 0.0
H2213 H 0.02956 0.47086 0.89991 0.0
H2214 H 0.02712 0.44457 0.88703 0.0
C2215 C 1.00638 0.33787 0.84878 0.0
C2216 C 1.01214 0.36234 0.87133 0.0
H2217 H 0.98638 0.39506 0.88482 0.0
C2218 C 0.02734 0.37017 0.87488 0.0
C2219 C 0.99718 0.37117 0.87507 0.0
C2220 C 0.98042 0.36246 0.8719 0.0
C2221 C 0.02801 0.38672 0.88193 0.0
C2222 C 1.01307 0.39628 0.88548 0.0
C2223 C 0.99786 0.38813 0.88203 0.0
C2224 C 1.01304 0.41382 0.893 0.0
C2225 C 0.04477 0.3933 0.88563 0.0
C2226 C 1.00524 0.40605 0.90055 0.0
C2227 C 1.00642 0.42126 0.90785 0.0
C2228 C 0.0153 0.44467 0.90775 0.0
C2229 C 0.02248 0.45306 0.90012 0.0
C2230 C 0.02127 0.43785 0.8928 0.0
H2231 H 0.05447 0.37929 0.88364 0.0
H2232 H 0.04858 0.41278 0.88338 0.0
H2233 H 0.04429 0.3936 0.89265 0.0
H2234 H 0.99878 0.3877 0.90089 0.0
H2235 H 1.00095 0.41425 0.91369 0.0
H2236 H 0.78389 0.33082 0.91262 0.0
H2237 H 0.78694 0.3568 0.89965 0.0
H2238 H 0.74126 0.32461 0.89003 0.0
H2239 H 0.73864 0.29798 0.90287 0.0
H2240 H 0.76287 0.3295 0.87758 0.0
H2241 H 0.76146 0.42185 0.89521 0.0
H2242 H 0.77837 0.40133 0.89833 0.0
H2243 H 0.7573 0.39113 0.90021 0.0
C2244 C 0.77474 0.32896 0.90763 0.0
C2245 C 0.76112 0.31233 0.90868 0.0
C2246 C 0.77633 0.34408 0.90028 0.0
C2247 C 0.7641 0.3433 0.89391 0.0
C2248 C 0.75083 0.32577 0.89483 0.0
H2249 H 0.74191 0.46071 0.85589 0.0
H2250 H 0.74412 0.43392 0.86872 0.0
C2251 C 0.74936 0.31046 0.90214 0.0
C2252 C 0.76483 0.361 0.88638 0.0
H2253 H 0.76691 0.42478 0.8805 0.0
C2254 C 0.76378 0.35033 0.87823 0.0
C2255 C 0.76568 0.38831 0.88718 0.0
C2256 C 0.76559 0.40139 0.8957 0.0
C2257 C 0.76362 0.36601 0.87091 0.0
C2258 C 0.76508 0.39326 0.8717 0.0
C2259 C 0.76605 0.40395 0.87985 0.0
C2260 C 0.76479 0.41102 0.86418 0.0
C2261 C 0.76127 0.35317 0.86243 0.0
C2262 C 0.77602 0.40787 0.85743 0.0
C2263 C 0.77468 0.42311 0.8501 0.0
C2264 C 0.76237 0.44225 0.84944 0.0
C2265 C 0.75168 0.44636 0.85632 0.0
C2266 C 0.7529 0.43094 0.86363 0.0
H2267 H 0.75557 0.33369 0.8631 0.0
H2268 H 0.75327 0.36505 0.85821 0.0
H2269 H 0.77354 0.35072 0.85935 0.0
H2270 H 0.7856 0.3932 0.85776 0.0
H2271 H 0.78293 0.41943 0.84482 0.0
H2272 H 0.32598 0.8293 0.06317 0.0
H2273 H 0.34862 0.8606 0.06358 0.0
H2274 H 0.37251 0.81662 0.08333 0.0
H2275 H 0.35015 0.78447 0.08278 0.0
H2276 H 0.36997 0.8736 0.08603 0.0
H2277 H 0.3972 0.84803 0.05488 0.0
H2278 H 0.37513 0.85341 0.05496 0.0
H2279 H 0.38368 0.82638 0.06066 0.0
C2280 C 0.33614 0.82583 0.06752 0.0
C2281 C 0.33616 0.80387 0.07286 0.0
C2282 C 0.34909 0.84398 0.06777 0.0
C2283 C 0.36242 0.84091 0.07341 0.0
C2284 C 0.36239 0.81943 0.0789 0.0
H2285 H 0.44898 0.93942 0.08494 0.0
H2286 H 0.42684 0.90699 0.08548 0.0
C2287 C 0.34949 0.80107 0.0786 0.0
C2288 C 0.37628 0.86026 0.07357 0.0
H2289 H 0.40778 0.88541 0.06155 0.0
C2290 C 0.37832 0.87609 0.0807 0.0
C2291 C 0.38712 0.86371 0.06661 0.0
C2292 C 0.38584 0.8469 0.05885 0.0
C2293 C 0.39057 0.89563 0.08097 0.0
C2294 C 0.4015 0.89906 0.074 0.0
C2295 C 0.3995 0.88299 0.06691 0.0
C2296 C 0.41492 0.91932 0.07386 0.0
C2297 C 0.39124 0.913 0.08861 0.0
C2298 C 0.41605 0.93689 0.06705 0.0
C2299 C 0.42886 0.9553 0.06668 0.0
C2300 C 0.44095 0.95676 0.07312 0.0
C2301 C 0.43976 0.93927 0.07995 0.0
C2302 C 0.42701 0.92068 0.08028 0.0
H2303 H 0.3792 0.91321 0.09205 0.0
H2304 H 0.40085 0.9057 0.09305 0.0
H2305 H 0.39445 0.93317 0.08681 0.0
H2306 H 0.40698 0.93638 0.062 0.0
H2307 H 0.42926 0.9685 0.06135 0.0
H2308 H 0.85062 0.28328 0.08264 0.0
H2309 H 0.87292 0.31547 0.08326 0.0
H2310 H 0.84937 0.35924 0.06336 0.0
H2311 H 0.82677 0.32787 0.06287 0.0
H2312 H 0.88497 0.34925 0.06109 0.0
H2313 H 0.87027 0.39144 0.09251 0.0
H2314 H 0.87152 0.35672 0.09196 0.0
H2315 H 0.8552 0.37338 0.08645 0.0
C2316 C 0.84998 0.2999 0.07847 0.0
C2317 C 0.83673 0.30262 0.07267 0.0
C2318 C 0.86283 0.31832 0.07882 0.0
C2319 C 0.86284 0.33995 0.07339 0.0
C2320 C 0.84972 0.34274 0.06761 0.0
H2321 H 0.92965 0.46825 0.06106 0.0
H2322 H 0.90751 0.43592 0.06148 0.0
C2323 C 0.83681 0.32451 0.06729 0.0
C2324 C 0.87664 0.35942 0.07356 0.0
H2325 H 0.89427 0.407 0.08562 0.0
C2326 C 0.887 0.36188 0.06645 0.0
C2327 C 0.87942 0.37583 0.08057 0.0
C2328 C 0.86849 0.37448 0.08831 0.0
C2329 C 0.90008 0.38002 0.06619 0.0
C2330 C 0.90266 0.39694 0.07312 0.0
C2331 C 0.89237 0.39426 0.08028 0.0
C2332 C 0.91587 0.41754 0.07306 0.0
C2333 C 0.91128 0.38031 0.05853 0.0
C2334 C 0.92765 0.41908 0.07962 0.0
C2335 C 0.94027 0.43792 0.07945 0.0
C2336 C 0.94147 0.45574 0.0727 0.0
C2337 C 0.92937 0.45459 0.06627 0.0
C2338 C 0.9167 0.43594 0.06648 0.0
H2339 H 0.91113 0.3614 0.05521 0.0
H2340 H 0.90684 0.39525 0.05401 0.0
H2341 H 0.9243 0.38489 0.0603 0.0
H2342 H 0.92732 0.40534 0.08481 0.0
H2343 H 0.94937 0.43803 0.0845 0.0
H2344 H 0.42815 0.28269 0.17541 0.0
H2345 H 0.40575 0.31477 0.1747 0.0
H2346 H 0.42941 0.35911 0.1943 0.0
H2347 H 0.45217 0.32798 0.19484 0.0
H2348 H 0.39207 0.34545 0.19611 0.0
H2349 H 0.41008 0.39403 0.16597 0.0
H2350 H 0.41051 0.35917 0.16644 0.0
H2351 H 0.42507 0.37745 0.17257 0.0
C2352 C 0.4288 0.2994 0.1795 0.0
C2353 C 0.44213 0.30237 0.18522 0.0
C2354 C 0.41587 0.31772 0.17911 0.0
C2355 C 0.41587 0.33942 0.18444 0.0
C2356 C 0.42908 0.3425 0.19014 0.0
H2357 H 0.34795 0.465 0.19724 0.0
H2358 H 0.37005 0.43265 0.19677 0.0
C2359 C 0.44207 0.32441 0.19048 0.0
C2360 C 0.402 0.35868 0.18423 0.0
H2361 H 0.38587 0.40904 0.17272 0.0
C2362 C 0.39069 0.35934 0.19099 0.0
C2363 C 0.40011 0.37671 0.17754 0.0
C2364 C 0.41207 0.37709 0.1702 0.0
C2365 C 0.37754 0.37737 0.19122 0.0
C2366 C 0.37587 0.39593 0.18462 0.0
C2367 C 0.38709 0.39501 0.1778 0.0
C2368 C 0.36266 0.41647 0.18473 0.0
C2369 C 0.36535 0.37591 0.19845 0.0
C2370 C 0.3514 0.41916 0.17797 0.0
C2371 C 0.33873 0.4379 0.1782 0.0
C2372 C 0.33698 0.45453 0.18519 0.0
C2373 C 0.3486 0.45226 0.19183 0.0
C2374 C 0.36128 0.43363 0.19158 0.0
H2375 H 0.36522 0.35637 0.2014 0.0
H2376 H 0.36902 0.38999 0.20339 0.0
H2377 H 0.35256 0.38066 0.19631 0.0
H2378 H 0.35219 0.40636 0.17258 0.0
H2379 H 0.33001 0.43883 0.17299 0.0
H2380 H 0.84998 0.97197 0.17515 0.0
H2381 H 0.87171 0.93901 0.17429 0.0
H2382 H 0.84911 0.89732 0.19495 0.0
H2383 H 0.8268 0.92894 0.19548 0.0
H2384 H 0.89498 0.92364 0.18491 0.0
H2385 H 0.85472 0.83904 0.17901 0.0
H2386 H 0.84691 0.87171 0.17858 0.0
H2387 H 0.84904 0.85517 0.18859 0.0
C2388 C 0.84938 0.95557 0.17942 0.0
C2389 C 0.83639 0.95342 0.18538 0.0
C2390 C 0.86198 0.93674 0.17896 0.0
C2391 C 0.86201 0.91517 0.18443 0.0
C2392 C 0.84926 0.91323 0.19047 0.0
H2393 H 0.92982 0.78905 0.19666 0.0
H2394 H 0.90762 0.82143 0.19608 0.0
C2395 C 0.83658 0.93181 0.19087 0.0
C2396 C 0.87556 0.89515 0.184 0.0
H2397 H 0.88272 0.82979 0.18312 0.0
C2398 C 0.89225 0.90316 0.18442 0.0
C2399 C 0.87218 0.86825 0.18335 0.0
C2400 C 0.85475 0.85805 0.18227 0.0
C2401 C 0.90547 0.8852 0.18446 0.0
C2402 C 0.90203 0.85836 0.18401 0.0
C2403 C 0.8854 0.85031 0.18351 0.0
C2404 C 0.9155 0.83833 0.18421 0.0
C2405 C 0.92304 0.89506 0.1852 0.0
C2406 C 0.92726 0.83658 0.17766 0.0
C2407 C 0.93999 0.81795 0.17795 0.0
C2408 C 0.94134 0.80063 0.18483 0.0
C2409 C 0.92936 0.8022 0.19131 0.0
C2410 C 0.91657 0.82068 0.19098 0.0
H2411 H 0.92345 0.9156 0.18724 0.0
H2412 H 0.93023 0.88318 0.18979 0.0
H2413 H 0.92923 0.89364 0.17895 0.0
H2414 H 0.92661 0.84969 0.1723 0.0
H2415 H 0.949 0.81753 0.17287 0.0
H2416 H 0.69849 0.18713 0.92309 0.0
H2417 H 0.67655 0.15438 0.92255 0.0
H2418 H 0.65617 0.18358 0.94586 0.0
H2419 H 0.67825 0.21602 0.9465 0.0
H2420 H 0.65748 0.13255 0.94646 0.0
H2421 H 0.62889 0.15991 0.91583 0.0
H2422 H 0.65062 0.15282 0.91491 0.0
H2423 H 0.64393 0.18014 0.92107 0.0
C2424 C 0.68919 0.18687 0.92803 0.0
C2425 C 0.69017 0.20438 0.93482 0.0
C2426 C 0.67657 0.1681 0.92771 0.0
C2427 C 0.6644 0.16659 0.93409 0.0
C2428 C 0.66531 0.18421 0.94084 0.0
H2429 H 0.57599 0.07564 0.94481 0.0
H2430 H 0.59845 0.10723 0.94431 0.0
C2431 C 0.678 0.2028 0.9412 0.0
C2432 C 0.65115 0.14612 0.93396 0.0
H2433 H 0.61987 0.12017 0.92195 0.0
C2434 C 0.64924 0.13 0.9411 0.0
C2435 C 0.6403 0.14252 0.92698 0.0
C2436 C 0.64089 0.15992 0.9193 0.0
C2437 C 0.63701 0.11052 0.94142 0.0
C2438 C 0.62622 0.10693 0.93445 0.0
C2439 C 0.62818 0.12279 0.92728 0.0
C2440 C 0.61249 0.08743 0.93465 0.0
C2441 C 0.63578 0.09369 0.94922 0.0
C2442 C 0.61266 0.0658 0.92928 0.0
C2443 C 0.59986 0.04729 0.92963 0.0
C2444 C 0.58645 0.05007 0.93531 0.0
C2445 C 0.58622 0.07219 0.94052 0.0
C2446 C 0.59906 0.0905 0.94021 0.0
H2447 H 0.64709 0.09504 0.95322 0.0
H2448 H 0.62498 0.09998 0.95305 0.0
H2449 H 0.6338 0.07314 0.94746 0.0
H2450 H 0.62286 0.06302 0.92491 0.0
H2451 H 0.60066 0.03057 0.92555 0.0
H2452 H 0.17638 0.72238 0.9446 0.0
H2453 H 0.15438 0.6897 0.94415 0.0
H2454 H 0.18279 0.64595 0.92601 0.0
H2455 H 0.20424 0.67959 0.92606 0.0
H2456 H 0.15313 0.64249 0.92157 0.0
H2457 H 0.15197 0.62316 0.9559 0.0
H2458 H 0.14715 0.65641 0.95386 0.0
H2459 H 0.16737 0.64385 0.95114 0.0
C2460 C 0.17786 0.70581 0.9405 0.0
C2461 C 0.19206 0.70357 0.93537 0.0
C2462 C 0.16535 0.68687 0.94032 0.0
C2463 C 0.16697 0.66464 0.93525 0.0
C2464 C 0.18111 0.66267 0.93003 0.0
H2465 H 0.10061 0.53139 0.94402 0.0
H2466 H 0.12431 0.56077 0.94366 0.0
C2467 C 0.19341 0.68195 0.93004 0.0
C2468 C 0.15383 0.64387 0.93519 0.0
H2469 H 0.12886 0.60694 0.94798 0.0
C2470 C 0.14799 0.6346 0.92738 0.0
C2471 C 0.14721 0.63278 0.94271 0.0
C2472 C 0.1539 0.63936 0.95136 0.0
C2473 C 0.13566 0.61528 0.92686 0.0
C2474 C 0.12815 0.60563 0.93436 0.0
C2475 C 0.13426 0.61444 0.94218 0.0
C2476 C 0.11389 0.58673 0.93427 0.0
C2477 C 0.13128 0.605 0.91821 0.0
C2478 C 0.09991 0.59109 0.92913 0.0
C2479 C 0.08655 0.57371 0.92907 0.0
C2480 C 0.08627 0.55177 0.93443 0.0
C2481 C 0.10023 0.5476 0.93967 0.0
C2482 C 0.11383 0.56472 0.93956 0.0
H2483 H 0.14198 0.60661 0.91381 0.0
H2484 H 0.12738 0.58441 0.9185 0.0
H2485 H 0.12099 0.61669 0.91551 0.0
H2486 H 0.09917 0.6082 0.92517 0.0
H2487 H 0.07642 0.57772 0.92477 0.0
H2488 H 0.5767 0.67847 0.81293 0.0
H2489 H 0.59929 0.64707 0.81345 0.0
H2490 H 0.6229 0.69057 0.83327 0.0
H2491 H 0.60061 0.72282 0.83261 0.0
H2492 H 0.63494 0.65713 0.81115 0.0
H2493 H 0.62019 0.61441 0.84261 0.0
H2494 H 0.60512 0.63253 0.83652 0.0
H2495 H 0.62142 0.64914 0.84201 0.0
C2496 C 0.58675 0.68177 0.81734 0.0
C2497 C 0.58669 0.70361 0.82268 0.0
C2498 C 0.59965 0.66352 0.81767 0.0
C2499 C 0.61279 0.66622 0.82344 0.0
C2500 C 0.6128 0.68779 0.82884 0.0
H2501 H 0.6992 0.56759 0.83462 0.0
H2502 H 0.67717 0.60033 0.83492 0.0
C2503 C 0.59995 0.70625 0.82846 0.0
C2504 C 0.62658 0.64673 0.82363 0.0
H2505 H 0.64414 0.59884 0.83572 0.0
C2506 C 0.63695 0.64438 0.81653 0.0
C2507 C 0.62934 0.63017 0.83065 0.0
C2508 C 0.61841 0.63142 0.83838 0.0
C2509 C 0.65002 0.6262 0.81627 0.0
C2510 C 0.65256 0.60912 0.82322 0.0
C2511 C 0.64226 0.6117 0.83037 0.0
C2512 C 0.66574 0.58847 0.82317 0.0
C2513 C 0.66123 0.62604 0.80863 0.0
C2514 C 0.66657 0.57024 0.81659 0.0
C2515 C 0.67923 0.55156 0.81638 0.0
C2516 C 0.69131 0.55021 0.82282 0.0
C2517 C 0.6901 0.56785 0.82957 0.0
C2518 C 0.67751 0.58672 0.82973 0.0
H2519 H 0.66111 0.64503 0.8053 0.0
H2520 H 0.67424 0.62137 0.8104 0.0
H2521 H 0.65677 0.61124 0.8041 0.0
H2522 H 0.65739 0.57041 0.81158 0.0
H2523 H 0.67951 0.53804 0.81117 0.0
H2524 H 0.07541 0.18107 0.83252 0.0
H2525 H 0.09747 0.14845 0.83281 0.0
H2526 H 0.12529 0.19295 0.81451 0.0
H2527 H 0.10267 0.22462 0.81383 0.0
H2528 H 0.12821 0.14667 0.81034 0.0
H2529 H 0.13993 0.14628 0.84472 0.0
H2530 H 0.11879 0.1378 0.84258 0.0
H2531 H 0.12634 0.16961 0.83981 0.0
C2532 C 0.08633 0.18398 0.82863 0.0
C2533 C 0.08734 0.20556 0.82321 0.0
C2534 C 0.09907 0.16537 0.82884 0.0
C2535 C 0.11347 0.16827 0.82386 0.0
C2536 C 0.11447 0.19003 0.81847 0.0
H2537 H 0.20338 0.07498 0.83258 0.0
H2538 H 0.18151 0.10802 0.83265 0.0
C2539 C 0.10154 0.20827 0.8181 0.0
C2540 C 0.12713 0.14825 0.82394 0.0
H2541 H 0.15152 0.11104 0.83696 0.0
C2542 C 0.13336 0.13912 0.81619 0.0
C2543 C 0.13428 0.13841 0.83152 0.0
C2544 C 0.12962 0.14876 0.84011 0.0
C2545 C 0.14622 0.12059 0.81578 0.0
C2546 C 0.15265 0.10958 0.82336 0.0
C2547 C 0.14656 0.11892 0.83112 0.0
C2548 C 0.16591 0.08895 0.8234 0.0
C2549 C 0.1531 0.11383 0.80718 0.0
C2550 C 0.16454 0.06667 0.81833 0.0
C2551 C 0.17728 0.04809 0.81814 0.0
C2552 C 0.19148 0.05072 0.82325 0.0
C2553 C 0.19257 0.07232 0.8286 0.0
C2554 C 0.18002 0.09126 0.82863 0.0
H2555 H 0.15118 0.12987 0.80258 0.0
H2556 H 0.16659 0.1095 0.80749 0.0
H2557 H 0.14648 0.09663 0.80471 0.0
H2558 H 0.1536 0.06357 0.81449 0.0
H2559 H 0.17598 0.03151 0.81402 0.0
H2560 H 0.45114 0.42846 0.56278 0.0
H2561 H 0.4285 0.39736 0.56328 0.0
H2562 H 0.40585 0.43991 0.58363 0.0
H2563 H 0.42786 0.4723 0.58277 0.0
H2564 H 0.41861 0.36474 0.57475 0.0
H2565 H 0.36616 0.43189 0.569 0.0
H2566 H 0.3875 0.44179 0.56781 0.0
H2567 H 0.3781 0.44052 0.57814 0.0
C2568 C 0.44119 0.43177 0.56724 0.0
C2569 C 0.44142 0.45349 0.57263 0.0
C2570 C 0.42825 0.4136 0.56759 0.0
C2571 C 0.41511 0.41631 0.57337 0.0
C2572 C 0.41548 0.43756 0.57892 0.0
H2573 H 0.32909 0.317 0.58494 0.0
H2574 H 0.35156 0.34904 0.58547 0.0
C2575 C 0.42833 0.45598 0.57851 0.0
C2576 C 0.4014 0.39652 0.57368 0.0
H2577 H 0.3591 0.38885 0.57293 0.0
C2578 C 0.40562 0.37013 0.57431 0.0
C2579 C 0.38432 0.40323 0.57312 0.0
C2580 C 0.37873 0.43086 0.57189 0.0
C2581 C 0.39341 0.35054 0.57445 0.0
C2582 C 0.3764 0.35729 0.57392 0.0
C2583 C 0.37212 0.38361 0.57338 0.0
C2584 C 0.36292 0.33729 0.5737 0.0
C2585 C 0.39882 0.3227 0.57526 0.0
C2586 C 0.36169 0.31995 0.5669 0.0
C2587 C 0.34883 0.30162 0.56657 0.0
C2588 C 0.33683 0.30003 0.57305 0.0
C2589 C 0.33818 0.31732 0.57989 0.0
C2590 C 0.35098 0.33583 0.58017 0.0
H2591 H 0.41181 0.32102 0.57759 0.0
H2592 H 0.39052 0.3119 0.57963 0.0
H2593 H 0.39813 0.31335 0.56896 0.0
H2594 H 0.37058 0.32081 0.56177 0.0
H2595 H 0.34832 0.2886 0.56122 0.0
H2596 H 0.82881 0.81851 0.58459 0.0
H2597 H 0.8509 0.85115 0.58487 0.0
H2598 H 0.87047 0.82115 0.56149 0.0
H2599 H 0.84828 0.7889 0.5611 0.0
H2600 H 0.88392 0.84946 0.58562 0.0
H2601 H 0.86684 0.89579 0.55523 0.0
H2602 H 0.8537 0.87219 0.56034 0.0
H2603 H 0.87111 0.86198 0.55401 0.0
C2604 C 0.83787 0.81874 0.57953 0.0
C2605 C 0.83659 0.80112 0.57278 0.0
C2606 C 0.8505 0.83755 0.57967 0.0
C2607 C 0.86223 0.83924 0.57309 0.0
C2608 C 0.86132 0.82102 0.56651 0.0
H2609 H 0.95147 0.92854 0.56284 0.0
H2610 H 0.92884 0.89724 0.56339 0.0
C2611 C 0.84862 0.80241 0.56632 0.0
C2612 C 0.87544 0.85981 0.57313 0.0
H2613 H 0.89308 0.90773 0.56105 0.0
C2614 C 0.88579 0.86232 0.58027 0.0
C2615 C 0.87797 0.87689 0.56619 0.0
C2616 C 0.86671 0.8768 0.55855 0.0
C2617 C 0.89875 0.88072 0.58054 0.0
C2618 C 0.90149 0.89727 0.57352 0.0
C2619 C 0.89108 0.89499 0.56643 0.0
C2620 C 0.91531 0.91667 0.57331 0.0
C2621 C 0.90973 0.88191 0.58826 0.0
C2622 C 0.9153 0.93834 0.57867 0.0
C2623 C 0.92818 0.95673 0.57827 0.0
C2624 C 0.94146 0.95392 0.57252 0.0
C2625 C 0.9414 0.93197 0.56723 0.0
C2626 C 0.92848 0.91379 0.56758 0.0
H2627 H 0.90789 0.86498 0.59251 0.0
H2628 H 0.92301 0.88282 0.58638 0.0
H2629 H 0.90683 0.89973 0.59187 0.0
H2630 H 0.90519 0.94125 0.58308 0.0
H2631 H 0.92752 0.97339 0.58239 0.0
H2632 H 0.42762 0.78191 0.67555 0.0
H2633 H 0.40588 0.81488 0.67464 0.0
H2634 H 0.42904 0.85703 0.69494 0.0
H2635 H 0.45135 0.82542 0.69549 0.0
H2636 H 0.3829 0.83056 0.68529 0.0
H2637 H 0.42309 0.91491 0.67873 0.0
H2638 H 0.43087 0.88222 0.67843 0.0
H2639 H 0.429 0.89902 0.68836 0.0
C2640 C 0.42834 0.79841 0.67972 0.0
C2641 C 0.44149 0.8007 0.68558 0.0
C2642 C 0.41573 0.81724 0.67924 0.0
C2643 C 0.41586 0.83895 0.68459 0.0
C2644 C 0.42877 0.84102 0.69055 0.0
H2645 H 0.34836 0.96509 0.69674 0.0
H2646 H 0.37051 0.93264 0.69616 0.0
C2647 C 0.44145 0.82244 0.69096 0.0
C2648 C 0.40233 0.85899 0.68414 0.0
H2649 H 0.39522 0.92435 0.68298 0.0
C2650 C 0.38564 0.85103 0.68469 0.0
C2651 C 0.40572 0.88586 0.68333 0.0
C2652 C 0.42313 0.89599 0.68209 0.0
C2653 C 0.37244 0.86903 0.68472 0.0
C2654 C 0.3759 0.89585 0.68413 0.0
C2655 C 0.39252 0.90384 0.68349 0.0
C2656 C 0.36246 0.91591 0.68433 0.0
C2657 C 0.35488 0.85925 0.6856 0.0
C2658 C 0.35064 0.91776 0.6778 0.0
C2659 C 0.33795 0.93645 0.67809 0.0
C2660 C 0.3367 0.9537 0.68495 0.0
C2661 C 0.34874 0.952 0.69141 0.0
C2662 C 0.3615 0.93348 0.69107 0.0
H2663 H 0.35447 0.83869 0.68767 0.0
H2664 H 0.34785 0.87113 0.69022 0.0
H2665 H 0.3485 0.8608 0.67939 0.0
H2666 H 0.35121 0.90471 0.67247 0.0
H2667 H 0.32888 0.93697 0.67303 0.0
H2668 H 0.82657 0.42751 0.69533 0.0
H2669 H 0.84921 0.39638 0.69484 0.0
H2670 H 0.87154 0.4388 0.67425 0.0
H2671 H 0.84953 0.47121 0.6751 0.0
H2672 H 0.85889 0.36373 0.6834 0.0
H2673 H 0.91142 0.43083 0.68879 0.0
H2674 H 0.8901 0.44073 0.69004 0.0
H2675 H 0.89935 0.43947 0.67968 0.0
C2676 C 0.83646 0.43077 0.69082 0.0
C2677 C 0.83614 0.45246 0.68536 0.0
C2678 C 0.84939 0.4126 0.69048 0.0
C2679 C 0.86243 0.41528 0.68463 0.0
C2680 C 0.86198 0.43649 0.67901 0.0
H2681 H 0.94824 0.31594 0.67301 0.0
H2682 H 0.92575 0.34799 0.67248 0.0
C2683 C 0.84913 0.45491 0.67941 0.0
C2684 C 0.87613 0.39548 0.68433 0.0
H2685 H 0.91843 0.38778 0.68495 0.0
C2686 C 0.87189 0.3691 0.68378 0.0
C2687 C 0.89321 0.40218 0.68482 0.0
C2688 C 0.89881 0.42981 0.68595 0.0
C2689 C 0.88409 0.3495 0.68364 0.0
C2690 C 0.90111 0.35625 0.6841 0.0
C2691 C 0.90541 0.38256 0.68456 0.0
C2692 C 0.91459 0.33624 0.68433 0.0
C2693 C 0.87867 0.32166 0.68292 0.0
C2694 C 0.91592 0.31891 0.69117 0.0
C2695 C 0.92879 0.30058 0.6915 0.0
C2696 C 0.94068 0.299 0.68498 0.0
C2697 C 0.93923 0.31628 0.67809 0.0
C2698 C 0.92642 0.33478 0.6778 0.0
H2699 H 0.86565 0.32 0.68065 0.0
H2700 H 0.88691 0.31087 0.67855 0.0
H2701 H 0.87946 0.3123 0.68924 0.0
H2702 H 0.90711 0.31978 0.69634 0.0
H2703 H 0.92939 0.28757 0.69688 0.0
H2704 H 0.59934 0.53707 0.44676 0.0
H2705 H 0.62145 0.56946 0.44632 0.0
H2706 H 0.60153 0.59999 0.423 0.0
H2707 H 0.57952 0.56723 0.42333 0.0
H2708 H 0.6346 0.5985 0.42219 0.0
H2709 H 0.61761 0.64395 0.4526 0.0
H2710 H 0.62197 0.61013 0.4538 0.0
H2711 H 0.60449 0.62041 0.44751 0.0
C2712 C 0.59959 0.55072 0.44154 0.0
C2713 C 0.58748 0.54955 0.43512 0.0
C2714 C 0.61224 0.56941 0.44132 0.0
C2715 C 0.61302 0.58783 0.43475 0.0
C2716 C 0.60123 0.58624 0.42819 0.0
H2717 H 0.67805 0.72247 0.42532 0.0
H2718 H 0.65578 0.69023 0.42464 0.0
C2719 C 0.58864 0.56736 0.42837 0.0
C2720 C 0.62618 0.60849 0.43469 0.0
H2721 H 0.64377 0.65622 0.44674 0.0
C2722 C 0.63647 0.61124 0.42754 0.0
C2723 C 0.62871 0.6254 0.44163 0.0
C2724 C 0.6175 0.62505 0.44928 0.0
C2725 C 0.64938 0.62972 0.42725 0.0
C2726 C 0.65213 0.64611 0.43427 0.0
C2727 C 0.64177 0.64359 0.44137 0.0
C2728 C 0.66591 0.66559 0.43446 0.0
C2729 C 0.66032 0.63116 0.41952 0.0
C2730 C 0.67906 0.66271 0.44022 0.0
C2731 C 0.69194 0.68096 0.44056 0.0
C2732 C 0.69198 0.70297 0.43523 0.0
C2733 C 0.67872 0.70577 0.42945 0.0
C2734 C 0.66588 0.68732 0.42907 0.0
H2735 H 0.65852 0.61427 0.41529 0.0
H2736 H 0.65731 0.64899 0.41589 0.0
H2737 H 0.6736 0.63219 0.42138 0.0
H2738 H 0.67943 0.64613 0.44443 0.0
H2739 H 0.702 0.67754 0.44497 0.0
H2740 H 0.07943 0.06775 0.42299 0.0
H2741 H 0.10191 0.09978 0.42248 0.0
H2742 H 0.12086 0.071 0.44621 0.0
H2743 H 0.0986 0.03878 0.44673 0.0
H2744 H 0.10939 0.13931 0.43487 0.0
H2745 H 0.16218 0.07157 0.43058 0.0
H2746 H 0.14091 0.06236 0.42854 0.0
H2747 H 0.14851 0.06389 0.43922 0.0
C2748 C 0.08851 0.06795 0.42805 0.0
C2749 C 0.08714 0.05049 0.43489 0.0
C2750 C 0.10131 0.08645 0.42777 0.0
C2751 C 0.11324 0.08776 0.43426 0.0
C2752 C 0.11198 0.07026 0.44107 0.0
H2753 H 0.20118 0.17918 0.44535 0.0
H2754 H 0.17858 0.14802 0.44484 0.0
C2755 C 0.09912 0.05192 0.44139 0.0
C2756 C 0.12672 0.10777 0.43405 0.0
H2757 H 0.16894 0.11527 0.43339 0.0
C2758 C 0.12241 0.13408 0.43449 0.0
C2759 C 0.14374 0.10104 0.43361 0.0
C2760 C 0.14919 0.07321 0.43289 0.0
C2761 C 0.1346 0.15372 0.43475 0.0
C2762 C 0.15169 0.14702 0.43429 0.0
C2763 C 0.15594 0.12064 0.43375 0.0
C2764 C 0.16538 0.16684 0.4346 0.0
C2765 C 0.12898 0.18135 0.43587 0.0
C2766 C 0.16584 0.18803 0.42897 0.0
C2767 C 0.17868 0.20646 0.42938 0.0
C2768 C 0.19164 0.20407 0.43534 0.0
C2769 C 0.19132 0.18241 0.44082 0.0
C2770 C 0.1784 0.16421 0.44047 0.0
H2771 H 0.11636 0.18238 0.43869 0.0
H2772 H 0.13768 0.19229 0.43997 0.0
H2773 H 0.12847 0.19099 0.42959 0.0
H2774 H 0.1563 0.1903 0.42419 0.0
H2775 H 0.17829 0.22273 0.42505 0.0
H2776 H 0.67922 0.03962 0.3112 0.0
H2777 H 0.65716 0.0721 0.31161 0.0
H2778 H 0.67692 0.10181 0.33499 0.0
H2779 H 0.69888 0.06896 0.33469 0.0
H2780 H 0.64386 0.10045 0.33574 0.0
H2781 H 0.66112 0.14676 0.30538 0.0
H2782 H 0.65671 0.11299 0.30415 0.0
H2783 H 0.67417 0.123 0.31048 0.0
C2784 C 0.67895 0.05311 0.31642 0.0
C2785 C 0.691 0.05168 0.32288 0.0
C2786 C 0.66632 0.07186 0.31663 0.0
C2787 C 0.66551 0.09007 0.32321 0.0
C2788 C 0.67725 0.08822 0.32979 0.0
H2789 H 0.60062 0.2247 0.33262 0.0
H2790 H 0.62284 0.19234 0.33331 0.0
C2791 C 0.6898 0.06929 0.32963 0.0
C2792 C 0.65238 0.11078 0.32326 0.0
H2793 H 0.63494 0.15896 0.3112 0.0
C2794 C 0.64205 0.11336 0.33039 0.0
C2795 C 0.64992 0.12792 0.31633 0.0
C2796 C 0.66118 0.12775 0.30869 0.0
C2797 C 0.62916 0.13189 0.33067 0.0
C2798 C 0.62648 0.14852 0.32366 0.0
C2799 C 0.63689 0.14616 0.31657 0.0
C2800 C 0.61273 0.16806 0.32346 0.0
C2801 C 0.61818 0.13315 0.33839 0.0
C2802 C 0.59962 0.16543 0.31767 0.0
C2803 C 0.58676 0.18374 0.31732 0.0
C2804 C 0.58672 0.20557 0.32267 0.0
C2805 C 0.59995 0.20814 0.32847 0.0
C2806 C 0.61276 0.18962 0.32886 0.0
H2807 H 0.61992 0.11612 0.34261 0.0
H2808 H 0.62119 0.15085 0.34203 0.0
H2809 H 0.60491 0.1343 0.33651 0.0
H2810 H 0.59925 0.14898 0.31344 0.0
H2811 H 0.57672 0.1805 0.31289 0.0
H2812 H 0.19891 0.5683 0.33493 0.0
H2813 H 0.17677 0.60073 0.33541 0.0
H2814 H 0.15684 0.57143 0.31201 0.0
H2815 H 0.17913 0.53931 0.31142 0.0
H2816 H 0.1576 0.62243 0.31145 0.0
H2817 H 0.12916 0.59443 0.34204 0.0
H2818 H 0.15082 0.60196 0.343 0.0
H2819 H 0.1444 0.57452 0.33682 0.0
C2820 C 0.18967 0.56847 0.32994 0.0
C2821 C 0.19085 0.551 0.32315 0.0
C2822 C 0.17693 0.58707 0.33024 0.0
C2823 C 0.16481 0.58845 0.32382 0.0
C2824 C 0.16593 0.57091 0.31706 0.0
H2825 H 0.07582 0.67853 0.31301 0.0
H2826 H 0.09846 0.64723 0.31347 0.0
C2827 C 0.17875 0.55249 0.31672 0.0
C2828 C 0.15138 0.60869 0.32394 0.0
H2829 H 0.11988 0.63407 0.33595 0.0
C2830 C 0.14934 0.62481 0.31681 0.0
C2831 C 0.14048 0.61208 0.33092 0.0
C2832 C 0.14119 0.59467 0.33859 0.0
C2833 C 0.13695 0.64409 0.31649 0.0
C2834 C 0.12613 0.64749 0.32346 0.0
C2835 C 0.12821 0.63162 0.33062 0.0
C2836 C 0.11226 0.66682 0.32327 0.0
C2837 C 0.13563 0.66095 0.3087 0.0
C2838 C 0.1122 0.68825 0.32873 0.0
C2839 C 0.09928 0.7066 0.3284 0.0
C2840 C 0.08596 0.70386 0.32266 0.0
C2841 C 0.08596 0.68195 0.31735 0.0
C2842 C 0.09892 0.66381 0.31764 0.0
H2843 H 0.14699 0.65989 0.30473 0.0
H2844 H 0.12493 0.65443 0.30483 0.0
H2845 H 0.13343 0.68145 0.31047 0.0
H2846 H 0.12231 0.69101 0.33316 0.0
H2847 H 0.09993 0.72315 0.33256 0.0
H2848 H 0.49806 0.97889 0.03994 0.0
H2849 H 0.49866 0.97394 0.02449 0.0
H2850 H 0.53337 0.03727 0.02263 0.0
H2851 H 0.53297 0.04184 0.0381 0.0
H2852 H 0.48903 0.01048 0.01278 0.0
H2853 H 0.55487 0.98371 0.00736 0.0
H2854 H 0.54534 0.98221 0.01769 0.0
H2855 H 0.55225 0.01269 0.01344 0.0
C2856 C 0.5062 0.99117 0.03623 0.0
C2857 C 0.51581 0.0103 0.04019 0.0
C2858 C 0.50641 0.98853 0.02741 0.0
C2859 C 0.51622 0.00499 0.02237 0.0
C2860 C 0.52601 0.02391 0.02636 0.0
H2861 H 0.53007 0.0258 0.96803 0.0
H2862 H 0.52945 0.03087 0.98347 0.0
C2863 C 0.5258 0.02653 0.03519 0.0
C2864 C 0.51539 0.0034 0.01295 0.0
H2865 H 0.53895 0.99455 0.99519 0.0
C2866 C 0.49994 0.00685 0.00894 0.0
C2867 C 0.52961 0.9988 0.00791 0.0
C2868 C 0.54644 0.9939 0.01181 0.0
C2869 C 0.49838 0.00624 1.00007 0.0
C2870 C 0.5126 1.00162 0.99503 0.0
C2871 C 0.52805 0.99819 0.99903 0.0
C2872 C 0.51176 0.99999 0.98561 0.0
C2873 C 0.48156 0.01118 0.99617 0.0
C2874 C 0.50191 0.98114 0.98162 0.0
C2875 C 0.50213 0.97846 0.9728 0.0
C2876 C 0.51221 0.99455 0.96779 0.0
C2877 C 0.52188 0.01362 0.97175 0.0
C2878 C 0.52165 0.01633 0.98056 0.0
H2879 H 0.47316 0.02147 1.00061 0.0
H2880 H 0.48266 0.0228 0.99027 0.0
H2881 H 0.4757 0.9924 0.99457 0.0
H2882 H 0.4945 0.96787 0.98536 0.0
H2883 H 0.4949 0.9632 0.96989 0.0
H2884 H 0.77997 0.27731 0.03975 0.0
H2885 H 0.77923 0.28148 0.02427 0.0
H2886 H 0.74452 0.21807 0.02298 0.0
H2887 H 0.74504 0.21428 0.03847 0.0
H2888 H 0.78881 0.24439 0.01288 0.0
H2889 H 0.72293 0.27069 0.00727 0.0
H2890 H 0.73249 0.27275 0.01758 0.0
H2891 H 0.72558 0.24205 0.01359 0.0
C2892 C 0.77179 0.26485 0.03615 0.0
C2893 C 0.76222 0.24591 0.04029 0.0
C2894 C 0.7715 0.26705 0.02731 0.0
C2895 C 0.76166 0.25032 0.02243 0.0
C2896 C 0.7519 0.23162 0.02659 0.0
H2897 H 0.74756 0.22636 0.96831 0.0
H2898 H 0.74838 0.22201 0.98378 0.0
C2899 C 0.75218 0.22944 0.03543 0.0
C2900 C 0.76244 0.25139 0.01299 0.0
H2901 H 0.73878 0.2591 0.99519 0.0
C2902 C 0.77788 0.24776 0.00901 0.0
C2903 C 0.74819 0.25565 0.00793 0.0
C2904 C 0.73138 0.26075 0.01179 0.0
C2905 C 0.7794 0.24784 1.00014 0.0
C2906 C 0.76515 0.2521 0.99507 0.0
C2907 C 0.74971 0.25572 0.99905 0.0
C2908 C 0.76593 0.25319 0.98564 0.0
C2909 C 0.79621 0.24276 0.99627 0.0
C2910 C 0.77566 0.27195 0.98149 0.0
C2911 C 0.77533 0.27422 0.97265 0.0
C2912 C 0.76527 0.25779 0.96779 0.0
C2913 C 0.75575 0.23878 0.97191 0.0
C2914 C 0.75609 0.23649 0.98075 0.0
H2915 H 0.80467 0.23282 1.00079 0.0
H2916 H 0.79511 0.23077 0.99048 0.0
H2917 H 0.80201 0.26148 0.99448 0.0
H2918 H 0.78304 0.28549 0.9851 0.0
H2919 H 0.78243 0.28945 0.96961 0.0
H2920 H 0.4992 0.27896 0.21786 0.0
H2921 H 0.49978 0.28404 0.23329 0.0
H2922 H 0.5347 0.22098 0.23523 0.0
H2923 H 0.53432 0.21627 0.21977 0.0
H2924 H 0.49016 0.24753 0.24494 0.0
H2925 H 0.55586 0.27446 0.25062 0.0
H2926 H 0.54647 0.27594 0.24025 0.0
H2927 H 0.55341 0.24549 0.24452 0.0
C2928 C 0.50739 0.26678 0.22158 0.0
C2929 C 0.51705 0.24766 0.21764 0.0
C2930 C 0.5076 0.2695 0.2304 0.0
C2931 C 0.51744 0.25313 0.23546 0.0
C2932 C 0.52731 0.23427 0.23149 0.0
H2933 H 0.53065 0.23102 0.28977 0.0
H2934 H 0.53023 0.22646 0.27431 0.0
C2935 C 0.52711 0.23158 0.22266 0.0
C2936 C 0.5165 0.25466 0.24488 0.0
H2937 H 0.53987 0.26323 0.26273 0.0
C2938 C 0.50102 0.25112 0.24883 0.0
C2939 C 0.53067 0.25921 0.24997 0.0
C2940 C 0.54752 0.26424 0.24614 0.0
C2941 C 0.49936 0.25156 0.25769 0.0
C2942 C 0.51352 0.2561 0.26279 0.0
C2943 C 0.52901 0.25965 0.25884 0.0
C2944 C 0.51259 0.25746 0.27221 0.0
C2945 C 0.4825 0.24653 0.26153 0.0
C2946 C 0.50271 0.27621 0.27623 0.0
C2947 C 0.50281 0.2786 0.28506 0.0
C2948 C 0.51281 0.26232 0.29005 0.0
C2949 C 0.52251 0.24335 0.28607 0.0
C2950 C 0.5224 0.24093 0.27724 0.0
H2951 H 0.47413 0.2364 0.25704 0.0
H2952 H 0.48355 0.23474 0.26739 0.0
H2953 H 0.47663 0.26527 0.26318 0.0
H2954 H 0.49535 0.28961 0.27251 0.0
H2955 H 0.49556 0.29379 0.28799 0.0
H2956 H 0.74519 0.04167 0.21984 0.0
H2957 H 0.74511 0.03762 0.23536 0.0
H2958 H 0.77982 0.97428 0.2337 0.0
H2959 H 0.7801 0.97865 0.21823 0.0
H2960 H 0.73769 0.99662 0.24649 0.0
H2961 H 0.80389 0.02533 0.24913 0.0
H2962 H 0.79213 0.02932 0.23949 0.0
H2963 H 0.80029 0.99811 0.24235 0.0
C2964 C 0.7525 0.02656 0.22282 0.0
C2965 C 0.76245 0.01022 0.21787 0.0
C2966 C 0.75254 0.02434 0.23166 0.0
C2967 C 0.76269 0.00594 0.23572 0.0
C2968 C 0.77213 0.98893 0.23074 0.0
H2969 H 0.78325 0.96616 0.28839 0.0
H2970 H 0.78335 0.97028 0.27287 0.0
C2971 C 0.7721 0.99116 0.22191 0.0
C2972 C 0.76372 0.00501 0.24514 0.0
H2973 H 0.79072 0.01123 0.26175 0.0
C2974 C 0.74926 0.99992 0.24983 0.0
C2975 C 0.77884 0.00934 0.24952 0.0
C2976 C 0.79466 0.01607 0.24489 0.0
C2977 C 0.74956 0.99851 0.25872 0.0
C2978 C 0.76468 1.00284 0.2631 0.0
C2979 C 0.77914 0.00793 0.25842 0.0
C2980 C 0.76572 1.00189 0.27252 0.0
C2981 C 0.73375 0.99175 0.26335 0.0
C2982 C 0.75626 0.01886 0.27751 0.0
C2983 C 0.75628 0.01658 0.28634 0.0
C2984 C 0.76594 0.99754 0.29037 0.0
C2985 C 0.77593 0.98126 0.28542 0.0
C2986 C 0.7759 0.98352 0.27657 0.0
H2987 H 0.72452 0.98247 0.25911 0.0
H2988 H 0.73628 0.97851 0.26875 0.0
H2989 H 0.7281 0.00971 0.26589 0.0
H2990 H 0.74854 0.0335 0.27455 0.0
H2991 H 0.74825 0.02904 0.29002 0.0
H2992 H 0.2477 0.72877 0.9684 0.0
H2993 H 0.24789 0.72449 0.98387 0.0
H2994 H 0.28268 0.78772 0.98555 0.0
H2995 H 0.28269 0.79166 0.97003 0.0
H2996 H 0.29011 0.74672 0.99664 0.0
H2997 H 0.22391 0.7754 0.99935 0.0
H2998 H 0.22746 0.7482 0.99256 0.0
H2999 H 0.23561 0.77942 0.9897 0.0
C3000 C 0.25568 0.7413 0.97208 0.0
C3001 C 0.26539 0.76027 0.96805 0.0
C3002 C 0.25561 0.73911 0.98092 0.0
C3003 C 0.26506 0.7561 0.9859 0.0
C3004 C 0.27523 0.77446 0.98185 0.0
H3005 H 0.27956 0.77883 0.04021 0.0
H3006 H 0.27927 0.78331 0.02474 0.0
C3007 C 0.27532 0.77663 0.973 0.0
C3008 C 0.26406 0.7551 0.99532 0.0
H3009 H 0.23712 0.76107 0.01195 0.0
C3010 C 0.27854 0.74997 0.99999 0.0
C3011 C 0.24895 0.75936 0.99971 0.0
C3012 C 0.23312 0.76614 0.99509 0.0
C3013 C 0.27827 0.74845 0.00889 0.0
C3014 C 0.26317 0.7527 0.01327 0.0
C3015 C 0.24869 0.75783 0.0086 0.0
C3016 C 0.26216 0.75165 0.02269 0.0
C3017 C 0.29411 0.74167 0.0135 0.0
C3018 C 0.25204 0.7332 0.02673 0.0
C3019 C 0.25201 0.73091 0.03558 0.0
C3020 C 0.26194 0.74723 0.04054 0.0
C3021 C 0.27158 0.76632 0.03652 0.0
C3022 C 0.2716 0.76863 0.02769 0.0
H3023 H 0.30333 0.73247 0.00924 0.0
H3024 H 0.29974 0.7596 0.01606 0.0
H3025 H 0.29161 0.72834 0.01888 0.0
H3026 H 0.24461 0.71994 0.02302 0.0
H3027 H 0.2447 0.71578 0.03854 0.0
H3028 H 0.49838 0.77638 0.7181 0.0
H3029 H 0.499 0.78135 0.73354 0.0
H3030 H 0.53404 0.71844 0.7354 0.0
H3031 H 0.53363 0.71385 0.71993 0.0
H3032 H 0.48951 0.74468 0.74518 0.0
H3033 H 0.55519 0.77198 0.75078 0.0
H3034 H 0.54573 0.77347 0.74043 0.0
H3035 H 0.55275 0.74303 0.74467 0.0
C3036 C 0.50661 0.76422 0.72181 0.0
C3037 C 0.51629 0.74517 0.71784 0.0
C3038 C 0.50684 0.76686 0.73063 0.0
C3039 C 0.51673 0.7505 0.73566 0.0
C3040 C 0.52662 0.73172 0.73167 0.0
H3041 H 0.5303 0.72862 0.78997 0.0
H3042 H 0.5298 0.72396 0.77452 0.0
C3043 C 0.5264 0.72909 0.72284 0.0
C3044 C 0.51584 0.75198 0.74509 0.0
H3045 H 0.53927 0.7607 0.7629 0.0
C3046 C 0.50038 0.74834 0.74905 0.0
C3047 C 0.53001 0.75662 0.75016 0.0
C3048 C 0.54684 0.76174 0.74631 0.0
C3049 C 0.49876 0.74877 0.75792 0.0
C3050 C 0.51294 0.7534 0.763 0.0
C3051 C 0.52839 0.75705 0.75903 0.0
C3052 C 0.51205 0.75479 0.77243 0.0
C3053 C 0.48194 0.74362 0.76178 0.0
C3054 C 0.50212 0.77349 0.77644 0.0
C3055 C 0.50226 0.77593 0.78528 0.0
C3056 C 0.51234 0.75976 0.79027 0.0
C3057 C 0.52209 0.74085 0.78627 0.0
C3058 C 0.52194 0.73838 0.77745 0.0
H3059 H 0.47359 0.7334 0.7573 0.0
H3060 H 0.48305 0.73186 0.76765 0.0
H3061 H 0.47601 0.76232 0.76343 0.0
H3062 H 0.49469 0.78681 0.77273 0.0
H3063 H 0.49498 0.79107 0.7882 0.0
H3064 H 0.27938 0.97632 0.71818 0.0
H3065 H 0.27865 0.97168 0.73365 0.0
H3066 H 0.24431 0.03556 0.73515 0.0
H3067 H 0.24483 0.03983 0.71966 0.0
H3068 H 0.28847 0.0083 0.74515 0.0
H3069 H 0.22246 0.9828 0.7507 0.0
H3070 H 0.23198 0.98089 0.74038 0.0
H3071 H 0.22525 0.01158 0.74447 0.0
C3072 C 0.27128 0.98879 0.72182 0.0
C3073 C 0.26182 0.008 0.71774 0.0
C3074 C 0.27099 0.98632 0.73065 0.0
C3075 C 0.26126 1.00303 0.73559 0.0
C3076 C 0.2516 0.02201 0.73149 0.0
H3077 H 0.24764 0.02638 0.78975 0.0
H3078 H 0.24824 0.03063 0.77427 0.0
C3079 C 0.25188 0.02446 0.72265 0.0
C3080 C 0.26206 1.00168 0.74502 0.0
H3081 H 0.23841 0.99386 0.76281 0.0
C3082 C 0.27753 0.00498 0.74901 0.0
C3083 C 0.2478 0.99749 0.75008 0.0
C3084 C 0.23095 0.99275 0.7462 0.0
C3085 C 0.27907 0.00465 0.75788 0.0
C3086 C 0.26481 1.00047 0.76294 0.0
C3087 C 0.24935 0.99716 0.75895 0.0
C3088 C 0.26561 0.99922 0.77237 0.0
C3089 C 0.29592 0.00942 0.76176 0.0
C3090 C 0.27528 0.98032 0.7765 0.0
C3091 C 0.27507 0.97809 0.78534 0.0
C3092 C 0.2652 0.9947 0.79023 0.0
C3093 C 0.25569 0.01379 0.78613 0.0
C3094 C 0.2559 0.01604 0.77729 0.0
H3095 H 0.30443 0.0193 0.75726 0.0
H3096 H 0.29489 0.02134 0.76757 0.0
H3097 H 0.30161 0.9906 0.76352 0.0
H3098 H 0.28256 0.96669 0.77286 0.0
H3099 H 0.28217 0.96282 0.78836 0.0
H3100 H 0.49552 0.46347 0.46984 0.0
H3101 H 0.49514 0.46759 0.48532 0.0
H3102 H 0.52985 0.53096 0.48365 0.0
H3103 H 0.53044 0.52646 0.46819 0.0
H3104 H 0.5395 0.4942 0.49523 0.0
H3105 H 0.47365 0.52055 0.50078 0.0
H3106 H 0.47627 0.49174 0.49462 0.0
H3107 H 0.48314 0.52235 0.49044 0.0
C3108 C 0.50269 0.47869 0.47279 0.0
C3109 C 0.51269 0.49506 0.46784 0.0
C3110 C 0.50249 0.48105 0.48163 0.0
C3111 C 0.51229 0.49985 0.48568 0.0
C3112 C 0.52209 0.51646 0.48069 0.0
H3113 H 0.5335 0.54052 0.53824 0.0
H3114 H 0.53396 0.5361 0.52277 0.0
C3115 C 0.5223 0.51407 0.47186 0.0
C3116 C 0.51313 0.50115 0.49511 0.0
H3117 H 0.4896 0.50938 0.5129 0.0
C3118 C 0.5286 0.49766 0.49909 0.0
C3119 C 0.49891 0.50554 0.50017 0.0
C3120 C 0.48207 0.5105 0.4963 0.0
C3121 C 0.53018 0.49802 0.50796 0.0
C3122 C 0.51596 0.50242 0.51303 0.0
C3123 C 0.5005 0.5059 0.50904 0.0
C3124 C 0.51682 0.50382 0.52245 0.0
C3125 C 0.54702 0.49307 0.51184 0.0
C3126 C 0.507 0.48729 0.52746 0.0
C3127 C 0.50675 0.48984 0.53629 0.0
C3128 C 0.51632 0.50896 0.54028 0.0
C3129 C 0.52635 0.52522 0.53531 0.0
C3130 C 0.5266 0.52269 0.52648 0.0
H3131 H 0.55544 0.48297 0.50737 0.0
H3132 H 0.55284 0.51183 0.5135 0.0
H3133 H 0.54596 0.48127 0.5177 0.0
H3134 H 0.49926 0.47274 0.52453 0.0
H3135 H 0.49859 0.47754 0.53997 0.0
H3136 H 0.77919 0.77789 0.53988 0.0
H3137 H 0.77869 0.78237 0.52441 0.0
H3138 H 0.74437 0.71851 0.52283 0.0
H3139 H 0.74466 0.71439 0.53832 0.0
H3140 H 0.7887 0.74545 0.51302 0.0
H3141 H 0.72283 0.77123 0.5071 0.0
H3142 H 0.73219 0.77328 0.51745 0.0
H3143 H 0.72549 0.74255 0.5134 0.0
C3144 C 0.77114 0.7654 0.53623 0.0
C3145 C 0.76162 0.74622 0.54028 0.0
C3146 C 0.77098 0.76777 0.52739 0.0
C3147 C 0.76133 0.75101 0.52243 0.0
C3148 C 0.75161 0.73209 0.5265 0.0
H3149 H 0.74844 0.72776 0.46821 0.0
H3150 H 0.74891 0.72325 0.48368 0.0
C3151 C 0.75175 0.72973 0.53534 0.0
C3152 C 0.76231 0.75223 0.513 0.0
H3153 H 0.739 0.76004 0.49508 0.0
C3154 C 0.77784 0.74879 0.5091 0.0
C3155 C 0.74815 0.75645 0.50787 0.0
C3156 C 0.73124 0.76133 0.51165 0.0
C3157 C 0.77955 0.74902 0.50023 0.0
C3158 C 0.76539 0.75325 0.4951 0.0
C3159 C 0.74986 0.75669 0.499 0.0
C3160 C 0.76637 0.75449 0.48567 0.0
C3161 C 0.79645 0.74412 0.49645 0.0
C3162 C 0.77615 0.77334 0.4816 0.0
C3163 C 0.77602 0.77571 0.47276 0.0
C3164 C 0.7661 0.75929 0.46782 0.0
C3165 C 0.75652 0.74019 0.47187 0.0
C3166 C 0.75666 0.7378 0.4807 0.0
H3167 H 0.80484 0.73415 0.501 0.0
H3168 H 0.7955 0.73222 0.49064 0.0
H3169 H 0.80224 0.7629 0.49473 0.0
H3170 H 0.78342 0.78687 0.48528 0.0
H3171 H 0.78316 0.791 0.46978 0.0
H3172 H 0.78361 0.46489 0.78832 0.0
H3173 H 0.78399 0.46931 0.77281 0.0
H3174 H 0.74856 0.53171 0.77444 0.0
H3175 H 0.74831 0.52736 0.7899 0.0
H3176 H 0.75711 0.46277 0.76216 0.0
H3177 H 0.78274 0.56163 0.75817 0.0
H3178 H 0.7843 0.54389 0.768 0.0
H3179 H 0.76527 0.56003 0.76521 0.0
C3180 C 0.7763 0.48 0.78534 0.0
C3181 C 0.76626 0.49622 0.79028 0.0
C3182 C 0.77641 0.4824 0.7765 0.0
C3183 C 0.76648 0.50109 0.77244 0.0
C3184 C 0.75665 0.51759 0.77741 0.0
H3185 H 0.74459 0.54031 0.71978 0.0
H3186 H 0.74416 0.5359 0.73528 0.0
C3187 C 0.75653 0.51516 0.78624 0.0
C3188 C 0.76556 0.5022 0.76301 0.0
H3189 H 0.7709 0.54228 0.74595 0.0
C3190 C 0.76023 0.48011 0.75861 0.0
C3191 C 0.7695 0.52486 0.75836 0.0
C3192 C 0.77592 0.54889 0.76266 0.0
C3193 C 0.75849 0.48019 0.74975 0.0
C3194 C 0.76245 0.50285 0.7451 0.0
C3195 C 0.76777 0.52494 0.7495 0.0
C3196 C 0.76155 0.50396 0.73567 0.0
C3197 C 0.75206 0.45617 0.74546 0.0
C3198 C 0.77133 0.48736 0.73071 0.0
C3199 C 0.77146 0.48977 0.72187 0.0
C3200 C 0.76181 0.5088 0.71782 0.0
C3201 C 0.75184 0.52513 0.72276 0.0
C3202 C 0.7517 0.52274 0.7316 0.0
H3203 H 0.74518 0.44349 0.74994 0.0
H3204 H 0.74372 0.46117 0.74009 0.0
H3205 H 0.7627 0.44495 0.74294 0.0
H3206 H 0.77935 0.47317 0.73368 0.0
H3207 H 0.77963 0.47747 0.71822 0.0
H3208 H 0.28344 0.29077 0.46983 0.0
H3209 H 0.28387 0.28619 0.48533 0.0
H3210 H 0.24832 0.22401 0.48365 0.0
H3211 H 0.24802 0.22851 0.4682 0.0
H3212 H 0.25707 0.29275 0.49602 0.0
H3213 H 0.28252 0.19369 0.49986 0.0
H3214 H 0.28406 0.21155 0.49004 0.0
H3215 H 0.26501 0.19548 0.49284 0.0
C3216 C 0.27611 0.27568 0.47279 0.0
C3217 C 0.26602 0.25956 0.46784 0.0
C3218 C 0.27624 0.27319 0.48163 0.0
C3219 C 0.2663 0.25451 0.48568 0.0
C3220 C 0.25641 0.23812 0.4807 0.0
H3221 H 0.24461 0.21483 0.53832 0.0
H3222 H 0.24414 0.21937 0.52282 0.0
C3223 C 0.25627 0.24064 0.47187 0.0
C3224 C 0.26543 0.25329 0.49511 0.0
H3225 H 0.27079 0.21297 0.51211 0.0
C3226 C 0.26018 0.27535 0.49954 0.0
C3227 C 0.26936 0.23055 0.49972 0.0
C3228 C 0.2757 0.20653 0.49539 0.0
C3229 C 0.2585 0.27517 0.50841 0.0
C3230 C 0.26244 0.25243 0.51302 0.0
C3231 C 0.26768 0.23037 0.50859 0.0
C3232 C 0.26158 0.25123 0.52245 0.0
C3233 C 0.25213 0.29918 0.51274 0.0
C3234 C 0.27141 0.26772 0.52743 0.0
C3235 C 0.27156 0.26525 0.53626 0.0
C3236 C 0.26189 0.24624 0.5403 0.0
C3237 C 0.25187 0.23 0.53535 0.0
C3238 C 0.25172 0.23246 0.52651 0.0
H3239 H 0.24526 0.31195 0.50828 0.0
H3240 H 0.24382 0.29416 0.5181 0.0
H3241 H 0.26281 0.31031 0.51526 0.0
H3242 H 0.27945 0.28189 0.52447 0.0
H3243 H 0.27977 0.27747 0.53993 0.0
H3244 H 0.28316 0.46584 0.28849 0.0
H3245 H 0.28367 0.47017 0.27299 0.0
H3246 H 0.24838 0.53277 0.27451 0.0
H3247 H 0.24799 0.52852 0.28997 0.0
H3248 H 0.25684 0.46375 0.26227 0.0
H3249 H 0.2828 0.5624 0.2583 0.0
H3250 H 0.28424 0.54468 0.26814 0.0
H3251 H 0.26528 0.56093 0.2653 0.0
C3252 C 0.27591 0.48098 0.2855 0.0
C3253 C 0.26587 0.49729 0.29041 0.0
C3254 C 0.27609 0.48332 0.27665 0.0
C3255 C 0.26624 0.50204 0.27256 0.0
C3256 C 0.2564 0.51862 0.2775 0.0
H3257 H 0.24505 0.54117 0.21981 0.0
H3258 H 0.24446 0.5369 0.23531 0.0
C3259 C 0.25621 0.51625 0.28633 0.0
C3260 C 0.2654 0.50311 0.26313 0.0
H3261 H 0.27105 0.54305 0.24606 0.0
C3262 C 0.26005 0.48104 0.25873 0.0
C3263 C 0.26947 0.52571 0.25848 0.0
C3264 C 0.27592 0.54972 0.26278 0.0
C3265 C 0.2584 0.48109 0.24986 0.0
C3266 C 0.26249 0.50369 0.24521 0.0
C3267 C 0.26783 0.52576 0.24961 0.0
C3268 C 0.26169 0.50474 0.23577 0.0
C3269 C 0.25192 0.4571 0.24557 0.0
C3270 C 0.27143 0.488 0.23084 0.0
C3271 C 0.27165 0.49033 0.22201 0.0
C3272 C 0.26213 0.50944 0.21792 0.0
C3273 C 0.25219 0.52594 0.22282 0.0
C3274 C 0.25197 0.52362 0.23166 0.0
H3275 H 0.24494 0.44452 0.25004 0.0
H3276 H 0.24367 0.46213 0.24017 0.0
H3277 H 0.26255 0.44575 0.24309 0.0
H3278 H 0.27936 0.47374 0.23384 0.0
H3279 H 0.27979 0.47791 0.21838 0.0
H3280 H 0.03011 0.02682 0.46796 0.0
H3281 H 0.02978 0.03084 0.48343 0.0
H3282 H 0.99448 0.96825 0.48503 0.0
H3283 H 0.99494 0.96414 0.46954 0.0
H3284 H 1.00449 0.03998 0.49521 0.0
H3285 H 0.03251 0.94293 0.5001 0.0
H3286 H 0.0319 0.95859 0.48988 0.0
H3287 H 1.0137 0.9428 0.49399 0.0
C3288 C 0.022 0.01437 0.47162 0.0
C3289 C 1.01235 0.99543 0.46758 0.0
C3290 C 0.0219 0.01653 0.48046 0.0
C3291 C 1.01233 0.99957 0.48543 0.0
C3292 C 1.00221 0.98125 0.48136 0.0
H3293 H 0.99813 0.97866 0.53966 0.0
H3294 H 0.9985 0.97452 0.52418 0.0
C3295 C 1.0023 0.9791 0.47252 0.0
C3296 C 1.01328 1.00069 0.49485 0.0
H3297 H 0.02384 0.96528 0.5124 0.0
C3298 C 1.00877 0.02368 0.49896 0.0
C3299 C 0.01892 0.97943 0.49977 0.0
C3300 C 0.02469 0.95461 0.49573 0.0
C3301 C 1.00941 0.02583 0.50784 0.0
C3302 C 0.01505 0.00458 0.51276 0.0
C3303 C 0.01955 0.98158 0.50865 0.0
C3304 C 0.01601 0.00571 0.52218 0.0
C3305 C 1.00364 0.05065 0.51188 0.0
C3306 C 0.02615 0.02401 0.52624 0.0
C3307 C 0.02604 0.02622 0.53508 0.0
C3308 C 0.01594 0.00997 0.54002 0.0
C3309 C 1.00628 0.99104 0.53599 0.0
C3310 C 1.0064 0.98881 0.52716 0.0
H3311 H 0.99583 0.06234 0.50751 0.0
H3312 H 0.99642 0.04667 0.51773 0.0
H3313 H 0.01463 0.06244 0.51363 0.0
H3314 H 0.0339 0.03695 0.52256 0.0
H3315 H 0.03341 0.04118 0.53805 0.0
H3316 H 0.03344 0.21454 0.71965 0.0
H3317 H 0.03373 0.21913 0.73513 0.0
H3318 H 0.99892 0.28232 0.73317 0.0
H3319 H 0.99842 0.27737 0.71773 0.0
H3320 H 0.04131 0.26034 0.74596 0.0
H3321 H 0.9751 0.23207 0.74904 0.0
H3322 H 0.98667 0.22775 0.73937 0.0
H3323 H 0.9786 0.25907 0.74209 0.0
C3324 C 0.02614 0.22972 0.72254 0.0
C3325 C 0.0161 0.24585 0.71752 0.0
C3326 C 0.02622 0.23226 0.73138 0.0
C3327 C 0.01611 0.25078 0.73535 0.0
C3328 C 1.00658 0.26758 0.73028 0.0
H3329 H 0.99634 0.29215 0.78788 0.0
H3330 H 0.99619 0.28792 0.77238 0.0
C3331 C 1.00648 0.26501 0.72146 0.0
C3332 C 0.01523 0.25208 0.74477 0.0
H3333 H 0.98849 0.24664 0.76151 0.0
C3334 C 0.02977 0.25724 0.74936 0.0
C3335 C 1.00017 0.24801 0.74922 0.0
C3336 C 0.98426 0.24117 0.7447 0.0
C3337 C 0.02962 0.25897 0.75825 0.0
C3338 C 0.01457 0.25491 0.76271 0.0
C3339 C 1.00002 0.24975 0.75811 0.0
C3340 C 1.01369 0.25612 0.77213 0.0
C3341 C 0.04553 0.26575 0.76278 0.0
C3342 C 0.02313 0.23915 0.77717 0.0
C3343 C 0.02315 0.24149 0.786 0.0
C3344 C 1.01354 0.26062 0.78997 0.0
C3345 C 1.00363 0.277 0.78496 0.0
C3346 C 1.00362 0.27466 0.77612 0.0
H3347 H 0.05472 0.27482 0.75844 0.0
H3348 H 0.04313 0.27918 0.76811 0.0
H3349 H 0.05117 0.24783 0.7654 0.0
H3350 H 0.03076 0.22439 0.77427 0.0
H3351 H 0.03111 0.22894 0.78972 0.0
H3352 H 0.0331 0.71467 0.21981 0.0
H3353 H 0.03308 0.71908 0.2353 0.0
H3354 H 0.99846 0.7825 0.23323 0.0
H3355 H 0.99828 0.77774 0.21778 0.0
H3356 H 0.04058 0.76022 0.24618 0.0
H3357 H 0.97427 0.73229 0.24898 0.0
H3358 H 0.98599 0.72793 0.23936 0.0
H3359 H 0.97794 0.75929 0.24205 0.0
C3360 C 0.02577 0.72985 0.22268 0.0
C3361 C 0.01589 0.74611 0.21763 0.0
C3362 C 0.02568 0.73228 0.23152 0.0
C3363 C 0.01554 0.75083 0.23546 0.0
C3364 C 1.00615 0.76773 0.23037 0.0
H3365 H 0.99504 0.79238 0.2879 0.0
H3366 H 0.99506 0.788 0.27241 0.0
C3367 C 1.00623 0.76528 0.22154 0.0
C3368 C 0.01451 0.75208 0.24488 0.0
H3369 H 0.98749 0.74679 0.26152 0.0
C3370 C 0.02899 0.75717 0.24954 0.0
C3371 C 0.99937 0.74809 0.24928 0.0
C3372 C 0.98352 0.74135 0.24468 0.0
C3373 C 0.0287 0.75891 0.25843 0.0
C3374 C 1.01357 0.75492 0.26282 0.0
C3375 C 0.99908 0.74983 0.25816 0.0
C3376 C 1.01254 0.75617 0.27224 0.0
C3377 C 0.04455 0.76563 0.26302 0.0
C3378 C 0.0219 0.73922 0.27733 0.0
C3379 C 0.02183 0.74165 0.28615 0.0
C3380 C 1.0122 0.76085 0.29007 0.0
C3381 C 1.00235 0.77718 0.28502 0.0
C3382 C 1.00243 0.77476 0.27618 0.0
H3383 H 0.05382 0.77466 0.25872 0.0
H3384 H 0.04209 0.77907 0.26834 0.0
H3385 H 0.05012 0.74769 0.26566 0.0
H3386 H 0.02956 0.72443 0.27446 0.0
H3387 H 0.02975 0.72914 0.28991 0.0
H3388 H 0.99816 0.47091 0.96965 0.0
H3389 H 0.99771 0.47546 0.98512 0.0
H3390 H 0.03311 0.53786 0.98331 0.0
H3391 H 0.0334 0.53341 0.96783 0.0
H3392 H 0.02457 0.46893 0.99582 0.0
H3393 H 0.99863 0.56774 0.99944 0.0
H3394 H 0.9972 0.54993 0.98966 0.0
H3395 H 0.01622 0.56592 0.99249 0.0
C3396 C 1.00551 0.48598 0.97258 0.0
C3397 C 0.01563 0.50207 0.96759 0.0
C3398 C 1.00535 0.48847 0.9814 0.0
C3399 C 0.01525 0.50718 0.98541 0.0
C3400 C 0.0251 0.52365 0.98039 0.0
H3401 H 0.03374 0.54493 0.03856 0.0
H3402 H 0.0352 0.54153 0.02305 0.0
C3403 C 0.02527 0.52114 0.97155 0.0
C3404 C 0.01601 0.5083 0.99484 0.0
H3405 H 1.0095 0.54787 0.01182 0.0
C3406 C 0.0212 0.48617 0.99932 0.0
C3407 C 1.01174 0.53083 0.99942 0.0
C3408 C 1.00549 0.5549 0.99503 0.0
C3409 C 0.02241 0.48602 0.00821 0.0
C3410 C 0.01802 0.50848 0.0128 0.0
C3411 C 1.01292 0.53067 0.00832 0.0
C3412 C 0.01819 0.5092 0.02224 0.0
C3413 C 0.02871 0.46193 0.01258 0.0
C3414 C 1.00824 0.49211 0.02698 0.0
C3415 C 1.00753 0.49393 0.03582 0.0
C3416 C 0.01675 0.51288 0.0401 0.0
C3417 C 0.02682 0.52981 0.0354 0.0
C3418 C 0.02754 0.52798 0.02655 0.0
H3419 H 0.03606 0.44963 0.00822 0.0
H3420 H 0.03655 0.46684 0.01813 0.0
H3421 H 0.01797 0.45036 0.01483 0.0
H3422 H 1.00056 0.47791 0.02383 0.0
H3423 H 0.99928 0.48119 0.03929 0.0
H3424 H 0.58511 0.05353 0.06173 0.0
H3425 H 0.61283 0.073 0.06181 0.0
H3426 H 0.59378 0.1385 0.07552 0.0
H3427 H 0.56594 0.11903 0.07551 0.0
H3428 H 0.62333 0.12437 0.05558 0.0
H3429 H 0.63374 0.11052 0.09008 0.0
H3430 H 0.61813 0.09272 0.08431 0.0
H3431 H 0.61462 0.12595 0.08702 0.0
C3432 C 0.58679 0.07207 0.06478 0.0
C3433 C 0.57325 0.0846 0.06867 0.0
C3434 C 0.60266 0.08324 0.06479 0.0
C3435 C 0.60549 0.10707 0.06876 0.0
C3436 C 0.59197 0.11994 0.0725 0.0
H3437 H 0.69431 0.19668 0.07982 0.0
H3438 H 0.66663 0.17798 0.07909 0.0
C3439 C 0.57601 0.10889 0.07242 0.0
C3440 C 0.62261 0.11824 0.06903 0.0
H3441 H 0.6546 0.13253 0.08247 0.0
C3442 C 0.63019 0.12615 0.06145 0.0
C3443 C 0.63157 0.12062 0.07669 0.0
C3444 C 0.62422 0.11187 0.08501 0.0
C3445 C 0.64631 0.13687 0.06134 0.0
C3446 C 0.65542 0.13897 0.069 0.0
C3447 C 0.64778 0.13093 0.07658 0.0
C3448 C 0.67263 0.15014 0.06937 0.0
C3449 C 0.65313 0.1466 0.05302 0.0
C3450 C 0.68558 0.14058 0.06427 0.0
C3451 C 0.7015 0.15174 0.06453 0.0
C3452 C 0.70501 0.17253 0.07 0.0
C3453 C 0.69214 0.18129 0.07533 0.0
C3454 C 0.67623 0.17036 0.07499 0.0
H3455 H 0.64303 0.1509 0.04843 0.0
H3456 H 0.66066 0.16438 0.0539 0.0
H3457 H 0.66115 0.13146 0.0502 0.0
H3458 H 0.6834 0.12446 0.06007 0.0
H3459 H 0.71095 0.14435 0.06031 0.0
H3460 H 0.56647 0.13743 0.18305 0.0
H3461 H 0.59425 0.11776 0.18342 0.0
H3462 H 0.61353 0.18563 0.19576 0.0
H3463 H 0.58589 0.20517 0.19554 0.0
H3464 H 0.62431 0.13729 0.17614 0.0
H3465 H 0.63003 0.1259 0.21094 0.0
H3466 H 0.61034 0.13146 0.20576 0.0
H3467 H 0.62442 0.1579 0.2075 0.0
C3468 C 0.57657 0.14802 0.18595 0.0
C3469 C 0.57387 0.17293 0.18926 0.0
C3470 C 0.59249 0.13682 0.1861 0.0
C3471 C 0.60602 0.15008 0.18968 0.0
C3472 C 0.60331 0.17482 0.19305 0.0
H3473 H 0.71251 0.11922 0.18274 0.0
H3474 H 0.68471 0.13878 0.18295 0.0
C3475 C 0.58748 0.18608 0.19285 0.0
C3476 C 0.62303 0.13843 0.18973 0.0
H3477 H 0.65443 0.1186 0.20286 0.0
C3478 C 0.63088 0.13315 0.18198 0.0
C3479 C 0.63161 0.13282 0.19735 0.0
C3480 C 0.62366 0.13707 0.20587 0.0
C3481 C 0.64709 0.12284 0.18165 0.0
C3482 C 0.65582 0.11782 0.18927 0.0
C3483 C 0.64786 0.12271 0.19702 0.0
C3484 C 0.67294 0.10654 0.18934 0.0
C3485 C 0.65463 0.11696 0.17314 0.0
C3486 C 0.67577 0.08224 0.19308 0.0
C3487 C 0.69164 0.07108 0.193 0.0
C3488 C 0.70519 0.08401 0.18923 0.0
C3489 C 0.70243 0.10872 0.18571 0.0
C3490 C 0.68648 0.11982 0.18575 0.0
H3491 H 0.64511 0.11641 0.16805 0.0
H3492 H 0.66378 0.13225 0.17151 0.0
H3493 H 0.66126 0.09812 0.17328 0.0
H3494 H 0.66561 0.07166 0.19596 0.0
H3495 H 0.6933 0.05223 0.19589 0.0
H3496 H 0.46164 0.88685 0.93233 0.0
H3497 H 0.43357 0.86828 0.93232 0.0
H3498 H 0.41578 0.93333 0.94672 0.0
H3499 H 0.44362 0.95214 0.94658 0.0
H3500 H 0.41271 0.85244 0.94448 0.0
H3501 H 0.38321 0.93451 0.9276 0.0
H3502 H 0.40544 0.93137 0.92855 0.0
H3503 H 0.39341 0.94446 0.93713 0.0
C3504 C 0.45176 0.89711 0.93553 0.0
C3505 C 0.45487 0.92116 0.93936 0.0
C3506 C 0.43567 0.88652 0.9355 0.0
C3507 C 0.42235 0.89969 0.93932 0.0
C3508 C 0.42563 0.92316 0.94346 0.0
H3509 H 0.31766 0.8609 0.94823 0.0
H3510 H 0.34544 0.88042 0.94851 0.0
C3511 C 0.44162 0.93385 0.94341 0.0
C3512 C 0.40509 0.88885 0.93906 0.0
H3513 H 0.36489 0.90333 0.93365 0.0
C3514 C 0.40231 0.86357 0.94207 0.0
C3515 C 0.39138 0.90322 0.93589 0.0
C3516 C 0.39351 0.92978 0.93203 0.0
C3517 C 0.3863 0.85255 0.94212 0.0
C3518 C 0.37263 0.86707 0.93907 0.0
C3519 C 0.37534 0.8923 0.93607 0.0
C3520 C 0.35553 0.85599 0.9387 0.0
C3521 C 0.38403 0.82549 0.94554 0.0
C3522 C 0.35181 0.83623 0.93295 0.0
C3523 C 0.3359 0.8253 0.93268 0.0
C3524 C 0.32325 0.83367 0.93821 0.0
C3525 C 0.32694 0.85398 0.94383 0.0
C3526 C 0.34288 0.86508 0.94405 0.0
H3527 H 0.39513 0.81865 0.94908 0.0
H3528 H 0.37304 0.82455 0.94978 0.0
H3529 H 0.38182 0.81206 0.94019 0.0
H3530 H 0.36126 0.82922 0.92865 0.0
H3531 H 0.33354 0.81025 0.92809 0.0
H3532 H 0.46022 0.86118 0.8103 0.0
H3533 H 0.43263 0.88114 0.81029 0.0
H3534 H 0.41671 0.82768 0.82965 0.0
H3535 H 0.44436 0.80888 0.83012 0.0
H3536 H 0.40308 0.86236 0.80636 0.0
H3537 H 0.40026 0.89282 0.83982 0.0
H3538 H 0.41923 0.88161 0.83501 0.0
H3539 H 0.40411 0.85881 0.83892 0.0
C3540 C 0.45099 0.854 0.8147 0.0
C3541 C 0.45473 0.83326 0.82021 0.0
C3542 C 0.4351 0.86531 0.81463 0.0
C3543 C 0.4225 0.85629 0.82006 0.0
C3544 C 0.42619 0.83557 0.82553 0.0
H3545 H 0.31607 0.88765 0.82604 0.0
H3546 H 0.34393 0.86815 0.82595 0.0
C3547 C 0.44207 0.82446 0.82568 0.0
C3548 C 0.40538 0.86781 0.81982 0.0
H3549 H 0.37454 0.89304 0.83225 0.0
C3550 C 0.39694 0.86924 0.81203 0.0
C3551 C 0.39719 0.8769 0.82719 0.0
C3552 C 0.40573 0.87772 0.83568 0.0
C3553 C 0.38059 0.87892 0.81144 0.0
C3554 C 0.37236 0.88752 0.81882 0.0
C3555 C 0.38076 0.88619 0.8266 0.0
C3556 C 0.35524 0.89874 0.81857 0.0
C3557 C 0.37212 0.87949 0.80293 0.0
C3558 C 0.35227 0.92242 0.81445 0.0
C3559 C 0.33641 0.93362 0.81452 0.0
C3560 C 0.32305 0.92142 0.81869 0.0
C3561 C 0.32599 0.89746 0.82269 0.0
C3562 C 0.34194 0.88637 0.82269 0.0
H3563 H 0.3786 0.86713 0.79824 0.0
H3564 H 0.35902 0.87294 0.80349 0.0
H3565 H 0.37203 0.89964 0.80048 0.0
H3566 H 0.36232 0.93251 0.8113 0.0
H3567 H 0.33461 0.95198 0.81131 0.0
H3568 H 0.69598 0.68992 0.58124 0.0
H3569 H 0.66837 0.67041 0.58085 0.0
H3570 H 0.68147 0.62957 0.55808 0.0
H3571 H 0.70925 0.64901 0.55846 0.0
H3572 H 0.64409 0.67469 0.56916 0.0
H3573 H 0.66225 0.5716 0.57224 0.0
H3574 H 0.67663 0.59771 0.57413 0.0
H3575 H 0.6719 0.58793 0.56349 0.0
C3576 C 0.69304 0.67678 0.57613 0.0
C3577 C 0.70493 0.67114 0.56986 0.0
C3578 C 0.6772 0.66556 0.57593 0.0
C3579 C 0.67275 0.64826 0.56949 0.0
C3580 C 0.68461 0.64239 0.56324 0.0
H3581 H 0.56884 0.60585 0.55829 0.0
H3582 H 0.59666 0.62513 0.55793 0.0
C3583 C 0.70054 0.65356 0.56345 0.0
C3584 C 0.65557 0.63706 0.56924 0.0
H3585 H 0.63388 0.5801 0.56934 0.0
C3586 C 0.64188 0.65399 0.5692 0.0
C3587 C 0.65257 0.61005 0.56939 0.0
C3588 C 0.66659 0.59073 0.5699 0.0
C3589 C 0.6254 0.64474 0.56927 0.0
C3590 C 0.62239 0.61773 0.56922 0.0
C3591 C 0.63609 0.6008 0.56929 0.0
C3592 C 0.60521 0.60655 0.56944 0.0
C3593 C 0.61137 0.66407 0.56965 0.0
C3594 C 0.60066 0.58934 0.57594 0.0
C3595 C 0.58479 0.5782 0.57613 0.0
C3596 C 0.57297 0.58385 0.5698 0.0
C3597 C 0.57748 0.60131 0.56333 0.0
C3598 C 0.59343 0.61238 0.56313 0.0
H3599 H 0.61569 0.68323 0.57194 0.0
H3600 H 0.60615 0.66682 0.56321 0.0
H3601 H 0.60128 0.65714 0.57387 0.0
H3602 H 0.60942 0.58451 0.58091 0.0
H3603 H 0.58176 0.56515 0.58128 0.0
H3604 H 0.56883 0.64847 0.69991 0.0
H3605 H 0.59683 0.62972 0.70041 0.0
H3606 H 0.60945 0.66995 0.67735 0.0
H3607 H 0.58164 0.68874 0.67683 0.0
H3608 H 0.61409 0.59872 0.68968 0.0
H3609 H 0.6471 0.69216 0.6926 0.0
H3610 H 0.62489 0.68937 0.69387 0.0
H3611 H 0.63391 0.69099 0.68346 0.0
C3612 C 0.57752 0.65318 0.69491 0.0
C3613 C 0.57296 0.67043 0.68839 0.0
C3614 C 0.59358 0.64253 0.69523 0.0
C3615 C 0.60549 0.64889 0.68904 0.0
C3616 C 0.60075 0.66534 0.68236 0.0
H3617 H 0.69594 0.56486 0.67689 0.0
H3618 H 0.66819 0.58383 0.67743 0.0
C3619 C 0.58477 0.67604 0.68206 0.0
C3620 C 0.62275 0.6381 0.68946 0.0
H3621 H 0.66384 0.65534 0.6894 0.0
C3622 C 0.62495 0.61113 0.68967 0.0
C3623 C 0.63702 0.65419 0.6896 0.0
C3624 C 0.63565 0.68328 0.68996 0.0
C3625 C 0.6409 0.59987 0.68975 0.0
C3626 C 0.65517 0.61595 0.68945 0.0
C3627 C 0.65298 0.64293 0.68951 0.0
C3628 C 0.67242 0.60514 0.68899 0.0
C3629 C 0.64228 0.57079 0.69026 0.0
C3630 C 0.68446 0.61159 0.69509 0.0
C3631 C 0.7005 0.60084 0.69476 0.0
C3632 C 0.70488 0.58339 0.68831 0.0
C3633 C 0.69295 0.57771 0.68206 0.0
C3634 C 0.67699 0.58851 0.68238 0.0
H3635 H 0.63089 0.56199 0.69301 0.0
H3636 H 0.64389 0.5629 0.68379 0.0
H3637 H 0.65312 0.56481 0.69415 0.0
H3638 H 0.68134 0.62453 0.70022 0.0
H3639 H 0.7093 0.60561 0.6997 0.0
H3640 H 0.46197 0.38797 0.43221 0.0
H3641 H 0.43396 0.36914 0.43216 0.0
H3642 H 0.41594 0.43365 0.44673 0.0
H3643 H 0.4437 0.45272 0.44664 0.0
H3644 H 0.41319 0.35266 0.44419 0.0
H3645 H 0.38321 0.43507 0.42773 0.0
H3646 H 0.40546 0.4322 0.42865 0.0
H3647 H 0.39338 0.44479 0.4373 0.0
C3648 C 0.45205 0.39806 0.43544 0.0
C3649 C 0.45508 0.42204 0.43934 0.0
C3650 C 0.43599 0.38732 0.43538 0.0
C3651 C 0.42261 0.40025 0.43924 0.0
C3652 C 0.42581 0.42365 0.44344 0.0
H3653 H 0.31808 0.36054 0.44822 0.0
H3654 H 0.34585 0.38007 0.4485 0.0
C3655 C 0.44177 0.4345 0.44342 0.0
C3656 C 0.40538 0.38923 0.43896 0.0
H3657 H 0.36506 0.40352 0.43372 0.0
C3658 C 0.40272 0.36379 0.44185 0.0
C3659 C 0.39157 0.40358 0.43588 0.0
C3660 C 0.39354 0.43031 0.43214 0.0
C3661 C 0.38674 0.3526 0.4419 0.0
C3662 C 0.37297 0.36711 0.43895 0.0
C3663 C 0.37558 0.39249 0.43606 0.0
C3664 C 0.35588 0.35591 0.4386 0.0
C3665 C 0.38462 0.32538 0.4452 0.0
C3666 C 0.35212 0.33626 0.43281 0.0
C3667 C 0.3362 0.32533 0.43254 0.0
C3668 C 0.32357 0.33357 0.43811 0.0
C3669 C 0.32732 0.35373 0.44379 0.0
C3670 C 0.34327 0.36483 0.444 0.0
H3671 H 0.39578 0.3185 0.44868 0.0
H3672 H 0.37368 0.32415 0.44946 0.0
H3673 H 0.38241 0.31215 0.4398 0.0
H3674 H 0.36154 0.32937 0.42848 0.0
H3675 H 0.33381 0.31041 0.42791 0.0
H3676 H 0.46204 0.36928 0.32586 0.0
H3677 H 0.43402 0.38808 0.32593 0.0
H3678 H 0.41604 0.32378 0.31124 0.0
H3679 H 0.44381 0.30473 0.31132 0.0
H3680 H 0.4132 0.40471 0.31391 0.0
H3681 H 0.38334 0.32201 0.33024 0.0
H3682 H 0.40558 0.32494 0.32933 0.0
H3683 H 0.3935 0.31245 0.32066 0.0
C3684 C 0.45212 0.35923 0.32261 0.0
C3685 C 0.45517 0.33531 0.31868 0.0
C3686 C 0.43606 0.36995 0.32268 0.0
C3687 C 0.42268 0.35707 0.31879 0.0
C3688 C 0.4259 0.33373 0.31456 0.0
H3689 H 0.31808 0.39661 0.30987 0.0
H3690 H 0.34587 0.37715 0.30957 0.0
C3691 C 0.44187 0.3229 0.31456 0.0
C3692 C 0.40544 0.36806 0.31909 0.0
H3693 H 0.36514 0.35361 0.3243 0.0
C3694 C 0.40274 0.39353 0.31623 0.0
C3695 C 0.39166 0.35363 0.32214 0.0
C3696 C 0.39366 0.32686 0.32585 0.0
C3697 C 0.38675 0.40469 0.3162 0.0
C3698 C 0.37301 0.39011 0.31912 0.0
C3699 C 0.37564 0.3647 0.32198 0.0
C3700 C 0.3559 0.40126 0.31948 0.0
C3701 C 0.3846 0.43195 0.31294 0.0
C3702 C 0.35212 0.42086 0.32529 0.0
C3703 C 0.33619 0.43175 0.32557 0.0
C3704 C 0.32356 0.42352 0.32 0.0
C3705 C 0.32732 0.40341 0.3143 0.0
C3706 C 0.34328 0.39235 0.31408 0.0
H3707 H 0.39574 0.43888 0.30946 0.0
H3708 H 0.37365 0.43322 0.30868 0.0
H3709 H 0.3824 0.4451 0.31836 0.0
H3710 H 0.36154 0.42774 0.32963 0.0
H3711 H 0.33379 0.44663 0.33021 0.0
H3712 H 0.0851 0.05161 0.56217 0.0
H3713 H 0.1128 0.07097 0.56214 0.0
H3714 H 0.09353 0.13832 0.57478 0.0
H3715 H 0.06572 0.11881 0.57496 0.0
H3716 H 0.12416 0.11757 0.55507 0.0
H3717 H 0.13287 0.1164 0.58993 0.0
H3718 H 0.11675 0.09808 0.58474 0.0
H3719 H 0.11429 0.13226 0.58631 0.0
C3720 C 0.08672 0.07049 0.56499 0.0
C3721 C 0.07312 0.0835 0.56864 0.0
C3722 C 0.1026 0.08161 0.56493 0.0
C3723 C 0.10539 0.10596 0.56857 0.0
C3724 C 0.0918 0.11932 0.57205 0.0
H3725 H 0.19256 0.20434 0.56218 0.0
H3726 H 0.16492 0.1848 0.56196 0.0
C3727 C 0.07584 0.10825 0.57208 0.0
C3728 C 0.12252 0.11722 0.56866 0.0
H3729 H 0.15379 0.1371 0.58182 0.0
C3730 C 0.13062 0.12186 0.56092 0.0
C3731 C 0.13112 0.12248 0.57629 0.0
C3732 C 0.12342 0.11687 0.5848 0.0
C3733 C 0.14687 0.13195 0.56061 0.0
C3734 C 0.15532 0.1378 0.56823 0.0
C3735 C 0.14733 0.13278 0.57597 0.0
C3736 C 0.17233 0.14945 0.56829 0.0
C3737 C 0.15499 0.13591 0.5521 0.0
C3738 C 0.1858 0.13631 0.57201 0.0
C3739 C 0.20171 0.14751 0.57216 0.0
C3740 C 0.20447 0.1723 0.56871 0.0
C3741 C 0.19093 0.18534 0.56497 0.0
C3742 C 0.17509 0.17408 0.56477 0.0
H3743 H 0.14871 0.12457 0.54707 0.0
H3744 H 0.15426 0.15668 0.55034 0.0
H3745 H 0.1683 0.1303 0.55231 0.0
H3746 H 0.18399 0.11734 0.5748 0.0
H3747 H 0.21177 0.13701 0.57517 0.0
H3748 H 0.19301 0.05152 0.69629 0.0
H3749 H 0.16532 0.07115 0.69624 0.0
H3750 H 0.18434 0.13653 0.68229 0.0
H3751 H 0.21215 0.11691 0.68228 0.0
H3752 H 0.1551 0.12291 0.70234 0.0
H3753 H 0.1441 0.10831 0.66795 0.0
H3754 H 0.15969 0.09042 0.67376 0.0
H3755 H 0.16334 0.12354 0.67088 0.0
C3756 C 0.19133 0.07008 0.69319 0.0
C3757 C 0.20484 0.08253 0.68923 0.0
C3758 C 0.17548 0.08133 0.69321 0.0
C3759 C 0.17266 0.10517 0.68917 0.0
C3760 C 0.18616 0.11797 0.68536 0.0
H3761 H 0.08379 0.19482 0.67801 0.0
H3762 H 0.11147 0.17605 0.67872 0.0
C3763 C 0.20209 0.10684 0.68542 0.0
C3764 C 0.15557 0.11642 0.68892 0.0
H3765 H 0.12337 0.13047 0.67554 0.0
C3766 C 0.14813 0.12457 0.69649 0.0
C3767 C 0.14648 0.11862 0.68128 0.0
C3768 C 0.15369 0.10963 0.67299 0.0
C3769 C 0.13204 0.13537 0.69661 0.0
C3770 C 0.1228 0.13729 0.68898 0.0
C3771 C 0.1303 0.12901 0.68141 0.0
C3772 C 0.10561 0.1485 0.68863 0.0
C3773 C 0.12538 0.14536 0.7049 0.0
C3774 C 0.09274 0.13913 0.69383 0.0
C3775 C 0.07683 0.15034 0.69359 0.0
C3776 C 0.07325 0.17098 0.68802 0.0
C3777 C 0.08602 0.17955 0.68258 0.0
C3778 C 0.10193 0.16858 0.68291 0.0
H3779 H 0.13556 0.14976 0.70942 0.0
H3780 H 0.11786 0.16314 0.70396 0.0
H3781 H 0.1174 0.13033 0.70784 0.0
H3782 H 0.09498 0.12312 0.69812 0.0
H3783 H 0.06746 0.1431 0.69789 0.0
H3784 H 0.94422 0.94576 0.42808 0.0
H3785 H 0.91657 0.92692 0.4288 0.0
H3786 H 0.93337 0.87323 0.44791 0.0
H3787 H 0.96088 0.89325 0.44768 0.0
H3788 H 0.90465 0.88142 0.42546 0.0
H3789 H 0.89291 0.89944 0.45945 0.0
H3790 H 0.91053 0.91305 0.45399 0.0
H3791 H 0.91106 0.88008 0.45773 0.0
C3792 C 0.94206 0.9303 0.43259 0.0
C3793 C 0.95492 0.92154 0.43796 0.0
C3794 C 0.92617 0.91929 0.43292 0.0
C3795 C 0.92258 0.89898 0.43856 0.0
C3796 C 0.93553 0.88941 0.44369 0.0
H3797 H 0.83503 0.80233 0.44625 0.0
H3798 H 0.86275 0.82181 0.44619 0.0
C3799 C 0.95144 0.90065 0.44344 0.0
C3800 C 0.90539 0.88776 0.43892 0.0
H3801 H 0.87323 0.87303 0.45231 0.0
C3802 C 0.89779 0.87978 0.43134 0.0
C3803 C 0.89624 0.88558 0.44657 0.0
C3804 C 0.90302 0.89523 0.45488 0.0
C3805 C 0.88159 0.86945 0.43121 0.0
C3806 C 0.87258 0.86703 0.43886 0.0
C3807 C 0.88013 0.87487 0.44644 0.0
C3808 C 0.85546 0.85586 0.43912 0.0
C3809 C 0.87429 0.86076 0.4229 0.0
C3810 C 0.84197 0.86872 0.43531 0.0
C3811 C 0.82601 0.85766 0.43537 0.0
C3812 C 0.82323 0.83338 0.43919 0.0
C3813 C 0.83673 0.82087 0.44315 0.0
C3814 C 0.8526 0.83204 0.44316 0.0
H3815 H 0.88385 0.8594 0.41786 0.0
H3816 H 0.86817 0.84163 0.42363 0.0
H3817 H 0.86472 0.87489 0.42083 0.0
H3818 H 0.8438 0.88728 0.43224 0.0
H3819 H 0.81596 0.86779 0.43223 0.0
H3820 H 0.94334 0.80473 0.31131 0.0
H3821 H 0.91574 0.82444 0.31114 0.0
H3822 H 0.93422 0.88822 0.32592 0.0
H3823 H 0.96201 0.86879 0.32592 0.0
H3824 H 0.8949 0.83419 0.32351 0.0
H3825 H 0.90992 0.92757 0.30804 0.0
H3826 H 0.9245 0.90109 0.30843 0.0
H3827 H 0.92201 0.92209 0.31741 0.0
C3828 C 0.94157 0.82306 0.31448 0.0
C3829 C 0.95496 0.83519 0.31861 0.0
C3830 C 0.92574 0.83435 0.31438 0.0
C3831 C 0.92278 0.85809 0.31841 0.0
C3832 C 0.93615 0.87029 0.32254 0.0
H3833 H 0.83356 0.94589 0.33023 0.0
H3834 H 0.86124 0.92673 0.32963 0.0
C3835 C 0.95207 0.85912 0.32257 0.0
C3836 C 0.90559 0.86935 0.31856 0.0
H3837 H 0.88306 0.92415 0.3143 0.0
C3838 C 0.89235 0.85381 0.32143 0.0
C3839 C 0.90207 0.89497 0.31584 0.0
C3840 C 0.91534 0.91231 0.31218 0.0
C3841 C 0.87593 0.86324 0.32178 0.0
C3842 C 0.87252 0.88891 0.31919 0.0
C3843 C 0.88568 0.90448 0.31631 0.0
C3844 C 0.85542 0.90012 0.31955 0.0
C3845 C 0.86234 0.84586 0.3251 0.0
C3846 C 0.84281 0.89157 0.31407 0.0
C3847 C 0.82691 0.90282 0.31429 0.0
C3848 C 0.82322 0.9229 0.32001 0.0
C3849 C 0.83589 0.93097 0.32559 0.0
C3850 C 0.85177 0.91989 0.32531 0.0
H3851 H 0.86737 0.82809 0.32814 0.0
H3852 H 0.85455 0.85634 0.32976 0.0
H3853 H 0.8542 0.83999 0.31977 0.0
H3854 H 0.84536 0.87649 0.30952 0.0
H3855 H 0.81766 0.89621 0.30983 0.0
H3856 H 0.19439 0.69593 0.08044 0.0
H3857 H 0.16673 0.67676 0.07979 0.0
H3858 H 0.18279 0.6264 0.05975 0.0
H3859 H 0.21048 0.64612 0.06012 0.0
H3860 H 0.14504 0.67428 0.0645 0.0
H3861 H 0.16058 0.578 0.07822 0.0
H3862 H 0.17347 0.60616 0.07986 0.0
H3863 H 0.17376 0.58985 0.06986 0.0
C3864 C 0.19211 0.68097 0.07581 0.0
C3865 C 0.20482 0.67287 0.07027 0.0
C3866 C 0.17623 0.66989 0.0755 0.0
C3867 C 0.17263 0.65009 0.06974 0.0
C3868 C 0.18529 0.6415 0.06431 0.0
H3869 H 0.08461 0.55515 0.06126 0.0
H3870 H 0.11223 0.57478 0.06113 0.0
C3871 C 0.20119 0.65275 0.06456 0.0
C3872 C 0.15553 0.63893 0.06934 0.0
H3873 H 0.13308 0.58423 0.07355 0.0
C3874 C 0.1424 0.65458 0.06648 0.0
C3875 C 0.15209 0.61323 0.07189 0.0
C3876 C 0.16564 0.59575 0.07519 0.0
C3877 C 0.12599 0.64515 0.06597 0.0
C3878 C 0.12244 0.6195 0.06865 0.0
C3879 C 0.13566 0.60386 0.0715 0.0
C3880 C 0.10524 0.60832 0.06847 0.0
C3881 C 0.11274 0.66259 0.06233 0.0
C3882 C 0.09189 0.62049 0.07262 0.0
C3883 C 0.07595 0.60937 0.07263 0.0
C3884 C 0.07304 0.58551 0.06863 0.0
C3885 C 0.08641 0.57342 0.06447 0.0
C3886 C 0.10225 0.58466 0.06439 0.0
H3887 H 0.11818 0.6779 0.05822 0.0
H3888 H 0.10358 0.65146 0.05856 0.0
H3889 H 0.10608 0.67231 0.06757 0.0
H3890 H 0.09384 0.63835 0.07604 0.0
H3891 H 0.06604 0.61901 0.076 0.0
H3892 H 0.08384 0.69476 0.17784 0.0
H3893 H 0.11149 0.6755 0.17846 0.0
H3894 H 0.09553 0.62473 0.19854 0.0
H3895 H 0.06785 0.64454 0.19821 0.0
H3896 H 0.13325 0.67249 0.19382 0.0
H3897 H 0.11758 0.57684 0.17992 0.0
H3898 H 0.10479 0.60515 0.17828 0.0
H3899 H 0.10439 0.58853 0.18827 0.0
C3900 C 0.08614 0.67969 0.18248 0.0
C3901 C 0.07346 0.6715 0.18804 0.0
C3902 C 0.10201 0.66857 0.18277 0.0
C3903 C 0.10563 0.64863 0.18852 0.0
C3904 C 0.09301 0.63995 0.19398 0.0
H3905 H 0.19358 0.55306 0.19676 0.0
H3906 H 0.16597 0.57274 0.19694 0.0
C3907 C 0.07712 0.65125 0.19376 0.0
C3908 C 0.12272 0.6374 0.1889 0.0
H3909 H 0.14512 0.58283 0.18455 0.0
C3910 C 0.13587 0.65289 0.19179 0.0
C3911 C 0.12614 0.61181 0.18629 0.0
C3912 C 0.11256 0.59454 0.18296 0.0
C3913 C 0.15227 0.64337 0.19227 0.0
C3914 C 0.15579 0.61784 0.18953 0.0
C3915 C 0.14256 0.60238 0.18664 0.0
C3916 C 0.17298 0.6066 0.18967 0.0
C3917 C 0.16554 0.66061 0.19595 0.0
C3918 C 0.18634 0.61894 0.18555 0.0
C3919 C 0.20227 0.60779 0.18552 0.0
C3920 C 0.20517 0.58375 0.18947 0.0
C3921 C 0.1918 0.57148 0.1936 0.0
C3922 C 0.17596 0.58275 0.1937 0.0
H3923 H 0.16012 0.67574 0.20009 0.0
H3924 H 0.1747 0.64927 0.19969 0.0
H3925 H 0.1722 0.67056 0.19072 0.0
H3926 H 0.18439 0.63696 0.18218 0.0
H3927 H 0.21219 0.61757 0.18217 0.0
H3928 H 0.83387 0.29932 0.94676 0.0
H3929 H 0.86169 0.31822 0.94705 0.0
H3930 H 0.84389 0.38404 0.93284 0.0
H3931 H 0.8159 0.36539 0.93269 0.0
H3932 H 0.88253 0.32895 0.93456 0.0
H3933 H 0.86856 0.42035 0.95127 0.0
H3934 H 0.85379 0.3942 0.95064 0.0
H3935 H 0.85623 0.41638 0.94191 0.0
C3936 C 0.83584 0.31791 0.94373 0.0
C3937 C 0.82259 0.33085 0.93971 0.0
C3938 C 0.85179 0.32873 0.94391 0.0
C3939 C 0.85499 0.35279 0.94007 0.0
C3940 C 0.84176 0.36581 0.93606 0.0
H3941 H 0.94316 0.44199 0.92863 0.0
H3942 H 0.9158 0.4219 0.92927 0.0
C3943 C 0.82573 0.35509 0.93595 0.0
C3944 C 0.87226 0.3636 0.94001 0.0
H3945 H 0.89525 0.41734 0.94478 0.0
C3946 C 0.88529 0.3482 0.93687 0.0
C3947 C 0.87601 0.38872 0.94304 0.0
C3948 C 0.86295 0.40577 0.94698 0.0
C3949 C 0.90176 0.35739 0.93651 0.0
C3950 C 0.9054 0.38263 0.93938 0.0
C3951 C 0.89245 0.39799 0.94256 0.0
C3952 C 0.92245 0.39387 0.93887 0.0
C3953 C 0.91513 0.34033 0.93286 0.0
C3954 C 0.93546 0.38468 0.94401 0.0
C3955 C 0.95121 0.39643 0.94375 0.0
C3956 C 0.95427 0.41765 0.93835 0.0
C3957 C 0.94127 0.42616 0.93303 0.0
C3958 C 0.92557 0.41458 0.93334 0.0
H3959 H 0.9099 0.32296 0.9297 0.0
H3960 H 0.92272 0.35131 0.9282 0.0
H3961 H 0.92352 0.33378 0.93801 0.0
H3962 H 0.93331 0.36882 0.94837 0.0
H3963 H 0.96081 0.38942 0.94798 0.0
H3964 H 0.94411 0.30446 0.81089 0.0
H3965 H 0.91649 0.32412 0.81077 0.0
H3966 H 0.93487 0.38747 0.82578 0.0
H3967 H 0.96268 0.3681 0.82574 0.0
H3968 H 0.89561 0.33345 0.82317 0.0
H3969 H 0.91058 0.42734 0.80802 0.0
H3970 H 0.92517 0.40087 0.80833 0.0
H3971 H 0.92265 0.42158 0.81737 0.0
C3972 C 0.94232 0.32269 0.81412 0.0
C3973 C 0.95568 0.33471 0.8183 0.0
C3974 C 0.92647 0.33395 0.81405 0.0
C3975 C 0.92347 0.35756 0.81816 0.0
C3976 C 0.93683 0.36966 0.82234 0.0
H3977 H 0.83418 0.44517 0.83006 0.0
H3978 H 0.86188 0.4261 0.82944 0.0
C3979 C 0.95276 0.35851 0.82234 0.0
C3980 C 0.90627 0.36877 0.81834 0.0
H3981 H 0.8837 0.42365 0.81424 0.0
C3982 C 0.89304 0.35312 0.82115 0.0
C3983 C 0.90274 0.39447 0.8157 0.0
C3984 C 0.916 0.41195 0.8121 0.0
C3985 C 0.87661 0.3625 0.82153 0.0
C3986 C 0.87317 0.38825 0.81901 0.0
C3987 C 0.88633 0.40393 0.8162 0.0
C3988 C 0.85605 0.3994 0.81938 0.0
C3989 C 0.86304 0.34499 0.82478 0.0
C3990 C 0.84343 0.39079 0.81393 0.0
C3991 C 0.82751 0.40198 0.81417 0.0
C3992 C 0.82381 0.42207 0.81988 0.0
C3993 C 0.8365 0.43023 0.82543 0.0
C3994 C 0.8524 0.41921 0.82513 0.0
H3995 H 0.86809 0.32725 0.82783 0.0
H3996 H 0.85515 0.35537 0.82943 0.0
H3997 H 0.85499 0.33907 0.81943 0.0
H3998 H 0.84597 0.3757 0.80938 0.0
H3999 H 0.81825 0.3953 0.80972 0.0
loop_
_geom_bond_atom_site_label_1
_geom_bond_atom_site_label_2
_geom_bond_distance
_geom_bond_site_symmetry_2
_ccdc_geom_bond_type
C0 C1 1.443 . S
C0 N4 1.376 . S
C0 C38 1.389 . S
C1 C0 1.443 . S
C1 C2 1.340 . S
C1 H41 0.951 . S
C2 C1 1.340 . S
C2 C3 1.439 . S
C2 H42 0.950 . S
C3 C2 1.439 . S
C3 N4 1.374 . S
C3 C37 1.395 . S
N4 C0 1.376 . S
N4 C3 1.374 . S
N4 Co5 2.008 . S
Co5 N4 2.008 . S
Co5 N6 1.995 . S
Co5 N11 2.008 1_545 S
Co5 N16 1.995 . S
Co5 N21 2.282 1_545 S
Co5 N27 2.282 . S
N6 Co5 1.995 . S
N6 C7 1.376 . S
N6 C10 1.383 . S
C7 N6 1.376 . S
C7 C8 1.446 . S
C7 C37 1.391 . S
C8 C7 1.446 . S
C8 C9 1.339 . S
C8 H43 0.949 . S
C9 C8 1.339 . S
C9 C10 1.439 . S
C9 H44 0.950 . S
C10 N6 1.383 . S
C10 C9 1.439 . S
C10 C39 1.392 1_545 S
N11 Co5 2.008 1_565 S
N11 C12 1.376 . S
N11 C15 1.374 . S
C12 N11 1.376 . S
C12 C13 1.443 . S
C12 C39 1.389 . S
C13 C12 1.443 . S
C13 C14 1.340 . S
C13 H45 0.951 . S
C14 C13 1.340 . S
C14 C15 1.439 . S
C14 H46 0.950 . S
C15 N11 1.374 . S
C15 C14 1.439 . S
C15 C40 1.395 . S
N16 Co5 1.995 . S
N16 C17 1.376 1_545 S
N16 C20 1.383 . S
C17 N16 1.376 1_565 S
C17 C18 1.446 . S
C17 C40 1.391 . S
C18 C17 1.446 . S
C18 C19 1.339 . S
C18 H47 0.949 . S
C19 C18 1.339 . S
C19 C20 1.439 1_565 S
C19 H48 0.950 1_565 S
C20 N16 1.383 . S
C20 C19 1.439 1_545 S
C20 C38 1.392 . S
N21 Co5 2.282 1_565 S
N21 C24 1.332 . S
N21 C26 1.332 1_565 S
C22 C23 1.386 . S
C22 C25 1.388 . S
C23 C22 1.386 . S
C23 C24 1.382 . S
C23 H49 0.950 . S
C24 N21 1.332 . S
C24 C23 1.382 . S
C24 H35 0.952 . S
C25 C22 1.388 . S
C25 C26 1.382 1_565 S
C25 H50 0.950 . S
C26 N21 1.332 1_545 S
C26 C25 1.382 1_545 S
C26 H36 0.948 . S
N27 Co5 2.282 . S
N27 C31 1.332 . S
N27 C32 1.332 . S
C28 C29 1.388 . S
C28 C32 1.382 . S
C28 H51 0.950 . S
C29 C28 1.388 . S
C29 C30 1.386 . S
C30 C29 1.386 . S
C30 C31 1.382 . S
C30 H52 0.950 . S
C31 N27 1.332 . S
C31 C30 1.382 . S
C31 H33 0.952 . S
C32 N27 1.332 . S
C32 C28 1.382 . S
C32 H34 0.948 . S
H33 C31 0.952 . S
H34 C32 0.948 . S
H35 C24 0.952 . S
H36 C26 0.948 . S
C37 C3 1.395 . S
C37 C7 1.391 . S
C38 C0 1.389 . S
C38 C20 1.392 . S
C39 C10 1.392 1_565 S
C39 C12 1.389 . S
C40 C15 1.395 . S
C40 C17 1.391 . S
H41 C1 0.951 . S
H42 C2 0.950 . S
H43 C8 0.949 . S
H44 C9 0.950 . S
H45 C13 0.951 . S
H46 C14 0.950 . S
H47 C18 0.949 . S
H48 C19 0.950 1_545 S
H49 C23 0.950 . S
H50 C25 0.950 . S
H51 C28 0.950 . S
H52 C30 0.950 . S
C53 C54 1.443 . S
C53 N57 1.376 . S
C53 C91 1.389 . S
C54 C53 1.443 . S
C54 C55 1.340 . S
C54 H94 0.951 . S
C55 C54 1.340 . S
C55 C56 1.439 . S
C55 H95 0.950 . S
C56 C55 1.439 . S
C56 N57 1.374 . S
C56 C90 1.395 . S
N57 C53 1.376 . S
N57 C56 1.374 . S
N57 Co58 2.008 . S
Co58 N57 2.008 . S
Co58 N59 1.995 . S
Co58 N64 2.008 . S
Co58 N69 1.995 . S
Co58 N74 2.282 . S
Co58 N80 2.282 . S
N59 Co58 1.995 . S
N59 C60 1.376 . S
N59 C63 1.383 . S
C60 N59 1.376 . S
C60 C61 1.446 . S
C60 C90 1.391 . S
C61 C60 1.446 . S
C61 C62 1.339 . S
C61 H96 0.949 . S
C62 C61 1.339 . S
C62 C63 1.439 . S
C62 H97 0.950 . S
C63 N59 1.383 . S
C63 C62 1.439 . S
C63 C92 1.392 . S
N64 Co58 2.008 . S
N64 C65 1.376 . S
N64 C68 1.374 . S
C65 N64 1.376 . S
C65 C66 1.443 . S
C65 C92 1.389 . S
C66 C65 1.443 . S
C66 C67 1.340 . S
C66 H98 0.951 . S
C67 C66 1.340 . S
C67 C68 1.439 . S
C67 H99 0.950 . S
C68 N64 1.374 . S
C68 C67 1.439 . S
C68 C93 1.395 . S
N69 Co58 1.995 . S
N69 C70 1.376 . S
N69 C73 1.383 . S
C70 N69 1.376 . S
C70 C71 1.446 . S
C70 C93 1.391 . S
C71 C70 1.446 . S
C71 C72 1.339 . S
C71 H100 0.949 . S
C72 C71 1.339 . S
C72 C73 1.439 . S
C72 H101 0.950 . S
C73 N69 1.383 . S
C73 C72 1.439 . S
C73 C91 1.392 . S
N74 Co58 2.282 . S
N74 C77 1.332 . S
N74 C79 1.332 . S
C75 C76 1.386 . S
C75 C78 1.388 . S
C76 C75 1.386 . S
C76 C77 1.382 . S
C76 H102 0.950 . S
C77 N74 1.332 . S
C77 C76 1.382 . S
C77 H88 0.952 . S
C78 C75 1.388 . S
C78 C79 1.382 . S
C78 H103 0.950 . S
C79 N74 1.332 . S
C79 C78 1.382 . S
C79 H89 0.948 . S
N80 Co58 2.282 . S
N80 C84 1.332 . S
N80 C85 1.332 . S
C81 C82 1.388 . S
C81 C85 1.382 . S
C81 H104 0.950 . S
C82 C81 1.388 . S
C82 C83 1.386 . S
C83 C82 1.386 . S
C83 C84 1.382 . S
C83 H105 0.950 . S
C84 N80 1.332 . S
C84 C83 1.382 . S
C84 H86 0.952 . S
C85 N80 1.332 . S
C85 C81 1.382 . S
C85 H87 0.948 . S
H86 C84 0.952 . S
H87 C85 0.948 . S
H88 C77 0.952 . S
H89 C79 0.948 . S
C90 C56 1.395 . S
C90 C60 1.391 . S
C91 C53 1.389 . S
C91 C73 1.392 . S
C92 C63 1.392 . S
C92 C65 1.389 . S
C93 C68 1.395 . S
C93 C70 1.391 . S
H94 C54 0.951 . S
H95 C55 0.950 . S
H96 C61 0.949 . S
H97 C62 0.950 . S
H98 C66 0.951 . S
H99 C67 0.950 . S
H100 C71 0.949 . S
H101 C72 0.950 . S
H102 C76 0.950 . S
H103 C78 0.950 . S
H104 C81 0.950 . S
H105 C83 0.950 . S
C106 C107 1.443 . S
C106 N110 1.376 . S
C106 C144 1.389 . S
C107 C106 1.443 . S
C107 C108 1.340 . S
C107 H147 0.951 . S
C108 C107 1.340 . S
C108 C109 1.439 . S
C108 H148 0.950 . S
C109 C108 1.439 . S
C109 N110 1.374 . S
C109 C143 1.395 . S
N110 C106 1.376 . S
N110 C109 1.374 . S
N110 Co111 2.008 . S
Co111 N110 2.008 . S
Co111 N112 1.995 . S
Co111 N117 2.008 . S
Co111 N122 1.995 . S
Co111 N127 2.282 . S
Co111 N133 2.282 . S
N112 Co111 1.995 . S
N112 C113 1.376 . S
N112 C116 1.383 . S
C113 N112 1.376 . S
C113 C114 1.446 . S
C113 C143 1.391 . S
C114 C113 1.446 . S
C114 C115 1.339 . S
C114 H149 0.949 . S
C115 C114 1.339 . S
C115 C116 1.439 . S
C115 H150 0.950 . S
C116 N112 1.383 . S
C116 C115 1.439 . S
C116 C145 1.392 . S
N117 Co111 2.008 . S
N117 C118 1.376 . S
N117 C121 1.374 . S
C118 N117 1.376 . S
C118 C119 1.443 . S
C118 C145 1.389 . S
C119 C118 1.443 . S
C119 C120 1.340 . S
C119 H151 0.951 . S
C120 C119 1.340 . S
C120 C121 1.439 . S
C120 H152 0.950 . S
C121 N117 1.374 . S
C121 C120 1.439 . S
C121 C146 1.395 . S
N122 Co111 1.995 . S
N122 C123 1.376 . S
N122 C126 1.383 . S
C123 N122 1.376 . S
C123 C124 1.446 . S
C123 C146 1.391 . S
C124 C123 1.446 . S
C124 C125 1.339 . S
C124 H153 0.949 . S
C125 C124 1.339 . S
C125 C126 1.439 . S
C125 H154 0.950 . S
C126 N122 1.383 . S
C126 C125 1.439 . S
C126 C144 1.392 . S
N127 Co111 2.282 . S
N127 C130 1.332 . S
N127 C132 1.332 . S
C128 C129 1.386 . S
C128 C131 1.388 . S
C129 C128 1.386 . S
C129 C130 1.382 . S
C129 H155 0.950 . S
C130 N127 1.332 . S
C130 C129 1.382 . S
C130 H141 0.952 . S
C131 C128 1.388 . S
C131 C132 1.382 . S
C131 H156 0.950 . S
C132 N127 1.332 . S
C132 C131 1.382 . S
C132 H142 0.948 . S
N133 Co111 2.282 . S
N133 C137 1.332 . S
N133 C138 1.332 . S
C134 C135 1.388 . S
C134 C138 1.382 . S
C134 H157 0.950 . S
C135 C134 1.388 . S
C135 C136 1.386 . S
C136 C135 1.386 . S
C136 C137 1.382 . S
C136 H158 0.950 . S
C137 N133 1.332 . S
C137 C136 1.382 . S
C137 H139 0.952 . S
C138 N133 1.332 . S
C138 C134 1.382 . S
C138 H140 0.948 . S
H139 C137 0.952 . S
H140 C138 0.948 . S
H141 C130 0.952 . S
H142 C132 0.948 . S
C143 C109 1.395 . S
C143 C113 1.391 . S
C144 C106 1.389 . S
C144 C126 1.392 . S
C145 C116 1.392 . S
C145 C118 1.389 . S
C146 C121 1.395 . S
C146 C123 1.391 . S
H147 C107 0.951 . S
H148 C108 0.950 . S
H149 C114 0.949 . S
H150 C115 0.950 . S
H151 C119 0.951 . S
H152 C120 0.950 . S
H153 C124 0.949 . S
H154 C125 0.950 . S
H155 C129 0.950 . S
H156 C131 0.950 . S
H157 C134 0.950 . S
H158 C136 0.950 . S
C159 C160 1.443 . S
C159 N163 1.376 . S
C159 C197 1.389 . S
C160 C159 1.443 . S
C160 C161 1.340 . S
C160 H200 0.951 . S
C161 C160 1.340 . S
C161 C162 1.439 . S
C161 H201 0.950 . S
C162 C161 1.439 . S
C162 N163 1.374 . S
C162 C196 1.395 . S
N163 C159 1.376 . S
N163 C162 1.374 . S
N163 Co164 2.008 . S
Co164 N163 2.008 . S
Co164 N165 1.995 . S
Co164 N170 2.008 1_545 S
Co164 N175 1.995 . S
Co164 N180 2.282 1_545 S
Co164 N186 2.282 . S
N165 Co164 1.995 . S
N165 C166 1.376 . S
N165 C169 1.383 . S
C166 N165 1.376 . S
C166 C167 1.446 . S
C166 C196 1.391 . S
C167 C166 1.446 . S
C167 C168 1.339 . S
C167 H202 0.949 . S
C168 C167 1.339 . S
C168 C169 1.439 . S
C168 H203 0.950 . S
C169 N165 1.383 . S
C169 C168 1.439 . S
C169 C198 1.392 1_545 S
N170 Co164 2.008 1_565 S
N170 C171 1.376 . S
N170 C174 1.374 . S
C171 N170 1.376 . S
C171 C172 1.443 . S
C171 C198 1.389 . S
C172 C171 1.443 . S
C172 C173 1.340 . S
C172 H204 0.951 . S
C173 C172 1.340 . S
C173 C174 1.439 . S
C173 H205 0.950 . S
C174 N170 1.374 . S
C174 C173 1.439 . S
C174 C199 1.395 . S
N175 Co164 1.995 . S
N175 C176 1.376 1_545 S
N175 C179 1.383 . S
C176 N175 1.376 1_565 S
C176 C177 1.446 . S
C176 C199 1.391 . S
C177 C176 1.446 . S
C177 C178 1.378 . S
C177 H206 0.949 . S
C178 C177 1.378 . S
C178 C179 1.412 1_565 S
C178 H207 0.940 1_565 S
C179 N175 1.383 . S
C179 C178 1.412 1_545 S
C179 C197 1.392 . S
N180 Co164 2.282 1_565 S
N180 C183 1.332 . S
N180 C185 1.332 1_565 S
C181 C182 1.386 . S
C181 C184 1.388 . S
C182 C181 1.386 . S
C182 C183 1.382 . S
C182 H208 0.950 . S
C183 N180 1.332 . S
C183 C182 1.382 . S
C183 H194 0.952 . S
C184 C181 1.388 . S
C184 C185 1.382 1_565 S
C184 H209 0.950 . S
C185 N180 1.332 1_545 S
C185 C184 1.382 1_545 S
C185 H195 0.948 . S
N186 Co164 2.282 . S
N186 C190 1.332 . S
N186 C191 1.332 . S
C187 C188 1.388 . S
C187 C191 1.382 . S
C187 H210 0.950 . S
C188 C187 1.388 . S
C188 C189 1.386 . S
C189 C188 1.386 . S
C189 C190 1.382 . S
C189 H211 0.950 . S
C190 N186 1.332 . S
C190 C189 1.382 . S
C190 H192 0.952 . S
C191 N186 1.332 . S
C191 C187 1.382 . S
C191 H193 0.948 . S
H192 C190 0.952 . S
H193 C191 0.948 . S
H194 C183 0.952 . S
H195 C185 0.948 . S
C196 C162 1.395 . S
C196 C166 1.391 . S
C197 C159 1.389 . S
C197 C179 1.392 . S
C198 C169 1.392 1_565 S
C198 C171 1.389 . S
C199 C174 1.395 . S
C199 C176 1.391 . S
H200 C160 0.951 . S
H201 C161 0.950 . S
H202 C167 0.949 . S
H203 C168 0.950 . S
H204 C172 0.951 . S
H205 C173 0.950 . S
H206 C177 0.949 . S
H207 C178 0.940 1_545 S
H208 C182 0.950 . S
H209 C184 0.950 . S
H210 C187 0.950 . S
H211 C189 0.950 . S
C212 C213 1.443 . S
C212 N216 1.376 . S
C212 C250 1.389 . S
C213 C212 1.443 . S
C213 C214 1.340 1_565 S
C213 H253 0.951 . S
C214 C213 1.340 1_545 S
C214 C215 1.439 . S
C214 H254 0.950 . S
C215 C214 1.439 . S
C215 N216 1.374 1_545 S
C215 C249 1.395 . S
N216 C212 1.376 . S
N216 C215 1.374 1_565 S
N216 Co217 2.008 . S
Co217 N216 2.008 . S
Co217 N218 1.995 1_565 S
Co217 N223 2.008 . S
Co217 N228 1.995 . S
Co217 N233 2.282 1_565 S
Co217 N239 2.282 . S
N218 Co217 1.995 1_545 S
N218 C219 1.376 . S
N218 C222 1.383 . S
C219 N218 1.376 . S
C219 C220 1.446 . S
C219 C249 1.391 . S
C220 C219 1.446 . S
C220 C221 1.339 . S
C220 H255 0.949 . S
C221 C220 1.339 . S
C221 C222 1.439 . S
C221 H256 0.950 . S
C222 N218 1.383 . S
C222 C221 1.439 . S
C222 C251 1.392 . S
N223 Co217 2.008 . S
N223 C224 1.376 . S
N223 C227 1.374 . S
C224 N223 1.376 . S
C224 C225 1.443 . S
C224 C251 1.389 1_565 S
C225 C224 1.443 . S
C225 C226 1.340 . S
C225 H257 0.951 . S
C226 C225 1.340 . S
C226 C227 1.439 . S
C226 H258 0.950 . S
C227 N223 1.374 . S
C227 C226 1.439 . S
C227 C252 1.395 . S
N228 Co217 1.995 . S
N228 C229 1.376 . S
N228 C232 1.383 . S
C229 N228 1.376 . S
C229 C230 1.446 . S
C229 C252 1.391 . S
C230 C229 1.446 . S
C230 C231 1.339 . S
C230 H259 0.949 . S
C231 C230 1.339 . S
C231 C232 1.439 . S
C231 H260 0.950 . S
C232 N228 1.383 . S
C232 C231 1.439 . S
C232 C250 1.392 . S
N233 Co217 2.282 1_545 S
N233 C236 1.332 1_545 S
N233 C238 1.332 . S
C234 C235 1.386 . S
C234 C237 1.388 . S
C235 C234 1.386 . S
C235 C236 1.382 1_545 S
C235 H261 0.950 1_545 S
C236 N233 1.332 1_565 S
C236 C235 1.382 1_565 S
C236 H247 0.952 . S
C237 C234 1.388 . S
C237 C238 1.382 . S
C237 H262 0.950 . S
C238 N233 1.332 . S
C238 C237 1.382 . S
C238 H248 0.948 . S
N239 Co217 2.282 . S
N239 C243 1.332 . S
N239 C244 1.332 . S
C240 C241 1.388 . S
C240 C244 1.382 . S
C240 H263 0.950 . S
C241 C240 1.388 . S
C241 C242 1.386 . S
C242 C241 1.386 . S
C242 C243 1.382 . S
C242 H264 0.950 . S
C243 N239 1.332 . S
C243 C242 1.382 . S
C243 H245 0.952 . S
C244 N239 1.332 . S
C244 C240 1.382 . S
C244 H246 0.948 . S
H245 C243 0.952 . S
H246 C244 0.948 . S
H247 C236 0.952 . S
H248 C238 0.948 . S
C249 C215 1.395 . S
C249 C219 1.391 . S
C250 C212 1.389 . S
C250 C232 1.392 . S
C251 C222 1.392 . S
C251 C224 1.389 1_545 S
C252 C227 1.395 . S
C252 C229 1.391 . S
H253 C213 0.951 . S
H254 C214 0.950 . S
H255 C220 0.949 . S
H256 C221 0.950 . S
H257 C225 0.951 . S
H258 C226 0.950 . S
H259 C230 0.949 . S
H260 C231 0.950 . S
H261 C235 0.950 1_565 S
H262 C237 0.950 . S
H263 C240 0.950 . S
H264 C242 0.950 . S
C265 C266 1.443 . S
C265 N269 1.376 . S
C265 C303 1.389 . S
C266 C265 1.443 . S
C266 C267 1.340 . S
C266 H306 0.951 . S
C267 C266 1.340 . S
C267 C268 1.439 . S
C267 H307 0.950 . S
C268 C267 1.439 . S
C268 N269 1.374 . S
C268 C302 1.395 . S
N269 C265 1.376 . S
N269 C268 1.374 . S
N269 Co270 2.008 . S
Co270 N269 2.008 . S
Co270 N271 1.995 . S
Co270 N276 2.008 . S
Co270 N281 1.995 . S
Co270 N286 2.282 . S
Co270 N292 2.282 . S
N271 Co270 1.995 . S
N271 C272 1.376 . S
N271 C275 1.383 . S
C272 N271 1.376 . S
C272 C273 1.446 . S
C272 C302 1.391 . S
C273 C272 1.446 . S
C273 C274 1.339 . S
C273 H308 0.949 . S
C274 C273 1.339 . S
C274 C275 1.439 . S
C274 H309 0.950 . S
C275 N271 1.383 . S
C275 C274 1.439 . S
C275 C304 1.392 . S
N276 Co270 2.008 . S
N276 C277 1.376 . S
N276 C280 1.374 . S
C277 N276 1.376 . S
C277 C278 1.443 . S
C277 C304 1.389 . S
C278 C277 1.443 . S
C278 C279 1.340 . S
C278 H310 0.951 . S
C279 C278 1.340 . S
C279 C280 1.439 . S
C279 H311 0.950 . S
C280 N276 1.374 . S
C280 C279 1.439 . S
C280 C305 1.395 . S
N281 Co270 1.995 . S
N281 C282 1.376 . S
N281 C285 1.383 . S
C282 N281 1.376 . S
C282 C283 1.446 . S
C282 C305 1.391 . S
C283 C282 1.446 . S
C283 C284 1.339 . S
C283 H312 0.949 . S
C284 C283 1.339 . S
C284 C285 1.439 . S
C284 H313 0.950 . S
C285 N281 1.383 . S
C285 C284 1.439 . S
C285 C303 1.392 . S
N286 Co270 2.282 . S
N286 C289 1.332 . S
N286 C291 1.332 . S
C287 C288 1.386 . S
C287 C290 1.388 . S
C288 C287 1.386 . S
C288 C289 1.382 . S
C288 H314 0.950 . S
C289 N286 1.332 . S
C289 C288 1.382 . S
C289 H300 0.952 . S
C290 C287 1.388 . S
C290 C291 1.382 . S
C290 H315 0.950 . S
C291 N286 1.332 . S
C291 C290 1.382 . S
C291 H301 0.948 . S
N292 Co270 2.282 . S
N292 C296 1.332 . S
N292 C297 1.332 . S
C293 C294 1.388 . S
C293 C297 1.382 . S
C293 H316 0.950 . S
C294 C293 1.388 . S
C294 C295 1.386 . S
C295 C294 1.386 . S
C295 C296 1.382 . S
C295 H317 0.950 . S
C296 N292 1.332 . S
C296 C295 1.382 . S
C296 H298 0.952 . S
C297 N292 1.332 . S
C297 C293 1.382 . S
C297 H299 0.948 . S
H298 C296 0.952 . S
H299 C297 0.948 . S
H300 C289 0.952 . S
H301 C291 0.948 . S
C302 C268 1.395 . S
C302 C272 1.391 . S
C303 C265 1.389 . S
C303 C285 1.392 . S
C304 C275 1.392 . S
C304 C277 1.389 . S
C305 C280 1.395 . S
C305 C282 1.391 . S
H306 C266 0.951 . S
H307 C267 0.950 . S
H308 C273 0.949 . S
H309 C274 0.950 . S
H310 C278 0.951 . S
H311 C279 0.950 . S
H312 C283 0.949 . S
H313 C284 0.950 . S
H314 C288 0.950 . S
H315 C290 0.950 . S
H316 C293 0.950 . S
H317 C295 0.950 . S
C318 C319 1.443 . S
C318 N322 1.376 . S
C318 C356 1.389 . S
C319 C318 1.443 . S
C319 C320 1.340 . S
C319 H359 0.951 . S
C320 C319 1.340 . S
C320 C321 1.439 . S
C320 H360 0.950 . S
C321 C320 1.439 . S
C321 N322 1.374 . S
C321 C355 1.395 . S
N322 C318 1.376 . S
N322 C321 1.374 . S
N322 Co323 2.008 . S
Co323 N322 2.008 . S
Co323 N324 1.995 . S
Co323 N329 2.008 . S
Co323 N334 1.995 . S
Co323 N339 2.282 . S
Co323 N345 2.282 . S
N324 Co323 1.995 . S
N324 C325 1.376 . S
N324 C328 1.383 . S
C325 N324 1.376 . S
C325 C326 1.446 . S
C325 C355 1.391 . S
C326 C325 1.446 . S
C326 C327 1.339 . S
C326 H361 0.949 . S
C327 C326 1.339 . S
C327 C328 1.439 . S
C327 H362 0.950 . S
C328 N324 1.383 . S
C328 C327 1.439 . S
C328 C357 1.392 . S
N329 Co323 2.008 . S
N329 C330 1.376 . S
N329 C333 1.374 . S
C330 N329 1.376 . S
C330 C331 1.443 . S
C330 C357 1.389 . S
C331 C330 1.443 . S
C331 C332 1.340 . S
C331 H363 0.951 . S
C332 C331 1.340 . S
C332 C333 1.439 . S
C332 H364 0.950 . S
C333 N329 1.374 . S
C333 C332 1.439 . S
C333 C358 1.395 . S
N334 Co323 1.995 . S
N334 C335 1.376 . S
N334 C338 1.383 . S
C335 N334 1.376 . S
C335 C336 1.446 . S
C335 C358 1.391 . S
C336 C335 1.446 . S
C336 C337 1.339 . S
C336 H365 0.949 . S
C337 C336 1.339 . S
C337 C338 1.439 . S
C337 H366 0.950 . S
C338 N334 1.383 . S
C338 C337 1.439 . S
C338 C356 1.392 . S
N339 Co323 2.282 . S
N339 C342 1.332 . S
N339 C344 1.332 . S
C340 C341 1.386 . S
C340 C343 1.388 . S
C341 C340 1.386 . S
C341 C342 1.382 . S
C341 H367 0.950 . S
C342 N339 1.332 . S
C342 C341 1.382 . S
C342 H353 0.952 . S
C343 C340 1.388 . S
C343 C344 1.382 . S
C343 H368 0.950 . S
C344 N339 1.332 . S
C344 C343 1.382 . S
C344 H354 0.948 . S
N345 Co323 2.282 . S
N345 C349 1.332 . S
N345 C350 1.332 . S
C346 C347 1.388 . S
C346 C350 1.382 . S
C346 H369 0.950 . S
C347 C346 1.388 . S
C347 C348 1.386 . S
C348 C347 1.386 . S
C348 C349 1.382 . S
C348 H370 0.950 . S
C349 N345 1.332 . S
C349 C348 1.382 . S
C349 H351 0.952 . S
C350 N345 1.332 . S
C350 C346 1.382 . S
C350 H352 0.948 . S
H351 C349 0.952 . S
H352 C350 0.948 . S
H353 C342 0.952 . S
H354 C344 0.948 . S
C355 C321 1.395 . S
C355 C325 1.391 . S
C356 C318 1.389 . S
C356 C338 1.392 . S
C357 C328 1.392 . S
C357 C330 1.389 . S
C358 C333 1.395 . S
C358 C335 1.391 . S
H359 C319 0.951 . S
H360 C320 0.950 . S
H361 C326 0.949 . S
H362 C327 0.950 . S
H363 C331 0.951 . S
H364 C332 0.950 . S
H365 C336 0.949 . S
H366 C337 0.950 . S
H367 C341 0.950 . S
H368 C343 0.950 . S
H369 C346 0.950 . S
H370 C348 0.950 . S
C371 C372 1.443 . S
C371 N375 1.376 . S
C371 C409 1.389 . S
C372 C371 1.443 . S
C372 C373 1.340 1_565 S
C372 H412 0.951 . S
C373 C372 1.340 1_545 S
C373 C374 1.439 . S
C373 H413 0.950 . S
C374 C373 1.439 . S
C374 N375 1.374 1_545 S
C374 C408 1.395 . S
N375 C371 1.376 . S
N375 C374 1.374 1_565 S
N375 Co376 2.008 . S
Co376 N375 2.008 . S
Co376 N377 1.995 1_565 S
Co376 N382 2.008 . S
Co376 N387 1.995 . S
Co376 N392 2.282 1_565 S
Co376 N398 2.282 . S
N377 Co376 1.995 1_545 S
N377 C378 1.376 . S
N377 C381 1.383 . S
C378 N377 1.376 . S
C378 C379 1.446 . S
C378 C408 1.391 . S
C379 C378 1.446 . S
C379 C380 1.339 . S
C379 H414 0.949 . S
C380 C379 1.339 . S
C380 C381 1.439 . S
C380 H415 0.950 . S
C381 N377 1.383 . S
C381 C380 1.439 . S
C381 C410 1.392 . S
N382 Co376 2.008 . S
N382 C383 1.376 . S
N382 C386 1.374 . S
C383 N382 1.376 . S
C383 C384 1.443 . S
C383 C410 1.389 1_565 S
C384 C383 1.443 . S
C384 C385 1.340 . S
C384 H416 0.951 . S
C385 C384 1.340 . S
C385 C386 1.439 . S
C385 H417 0.950 . S
C386 N382 1.374 . S
C386 C385 1.439 . S
C386 C411 1.395 . S
N387 Co376 1.995 . S
N387 C388 1.376 . S
N387 C391 1.383 . S
C388 N387 1.376 . S
C388 C389 1.446 . S
C388 C411 1.391 . S
C389 C388 1.446 . S
C389 C390 1.339 . S
C389 H418 0.949 . S
C390 C389 1.339 . S
C390 C391 1.439 . S
C390 H419 0.950 . S
C391 N387 1.383 . S
C391 C390 1.439 . S
C391 C409 1.392 . S
N392 Co376 2.282 1_545 S
N392 C395 1.332 1_545 S
N392 C397 1.332 . S
C393 C394 1.386 . S
C393 C396 1.388 . S
C394 C393 1.386 . S
C394 C395 1.382 1_545 S
C394 H420 0.950 1_545 S
C395 N392 1.332 1_565 S
C395 C394 1.382 1_565 S
C395 H406 0.952 . S
C396 C393 1.388 . S
C396 C397 1.382 . S
C396 H421 0.950 . S
C397 N392 1.332 . S
C397 C396 1.382 . S
C397 H407 0.948 . S
N398 Co376 2.282 . S
N398 C402 1.332 . S
N398 C403 1.332 . S
C399 C400 1.388 . S
C399 C403 1.382 . S
C399 H422 0.950 . S
C400 C399 1.388 . S
C400 C401 1.386 . S
C401 C400 1.386 . S
C401 C402 1.382 . S
C401 H423 0.950 . S
C402 N398 1.332 . S
C402 C401 1.382 . S
C402 H404 0.952 . S
C403 N398 1.332 . S
C403 C399 1.382 . S
C403 H405 0.948 . S
H404 C402 0.952 . S
H405 C403 0.948 . S
H406 C395 0.952 . S
H407 C397 0.948 . S
C408 C374 1.395 . S
C408 C378 1.391 . S
C409 C371 1.389 . S
C409 C391 1.392 . S
C410 C381 1.392 . S
C410 C383 1.389 1_545 S
C411 C386 1.395 . S
C411 C388 1.391 . S
H412 C372 0.951 . S
H413 C373 0.950 . S
H414 C379 0.949 . S
H415 C380 0.950 . S
H416 C384 0.951 . S
H417 C385 0.950 . S
H418 C389 0.949 . S
H419 C390 0.950 . S
H420 C394 0.950 1_565 S
H421 C396 0.950 . S
H422 C399 0.950 . S
H423 C401 0.950 . S
C424 C425 1.443 . S
C424 N428 1.376 . S
C424 C462 1.389 . S
C425 C424 1.443 . S
C425 C426 1.340 . S
C425 H465 0.951 . S
C426 C425 1.340 . S
C426 C427 1.439 . S
C426 H466 0.950 . S
C427 C426 1.439 . S
C427 N428 1.374 . S
C427 C461 1.395 . S
N428 C424 1.376 . S
N428 C427 1.374 . S
N428 Co429 2.008 . S
Co429 N428 2.008 . S
Co429 N430 1.995 . S
Co429 N435 2.008 . S
Co429 N440 1.995 . S
Co429 N445 2.282 . S
Co429 N451 2.282 . S
N430 Co429 1.995 . S
N430 C431 1.376 . S
N430 C434 1.383 . S
C431 N430 1.376 . S
C431 C432 1.446 . S
C431 C461 1.391 . S
C432 C431 1.446 . S
C432 C433 1.339 . S
C432 H467 0.949 . S
C433 C432 1.339 . S
C433 C434 1.439 . S
C433 H468 0.950 . S
C434 N430 1.383 . S
C434 C433 1.439 . S
C434 C463 1.392 . S
N435 Co429 2.008 . S
N435 C436 1.376 . S
N435 C439 1.374 . S
C436 N435 1.376 . S
C436 C437 1.443 . S
C436 C463 1.389 . S
C437 C436 1.443 . S
C437 C438 1.340 . S
C437 H469 0.951 . S
C438 C437 1.340 . S
C438 C439 1.439 . S
C438 H470 0.950 . S
C439 N435 1.374 . S
C439 C438 1.439 . S
C439 C464 1.395 . S
N440 Co429 1.995 . S
N440 C441 1.376 . S
N440 C444 1.383 . S
C441 N440 1.376 . S
C441 C442 1.446 . S
C441 C464 1.391 . S
C442 C441 1.446 . S
C442 C443 1.339 . S
C442 H471 0.949 . S
C443 C442 1.339 . S
C443 C444 1.439 . S
C443 H472 0.950 . S
C444 N440 1.383 . S
C444 C443 1.439 . S
C444 C462 1.392 . S
N445 Co429 2.282 . S
N445 C448 1.332 . S
N445 C450 1.332 . S
C446 C447 1.386 . S
C446 C449 1.388 . S
C447 C446 1.386 . S
C447 C448 1.382 . S
C447 H473 0.950 . S
C448 N445 1.332 . S
C448 C447 1.382 . S
C448 H459 0.952 . S
C449 C446 1.388 . S
C449 C450 1.382 . S
C449 H474 0.950 . S
C450 N445 1.332 . S
C450 C449 1.382 . S
C450 H460 0.948 . S
N451 Co429 2.282 . S
N451 C455 1.332 . S
N451 C456 1.332 . S
C452 C453 1.388 . S
C452 C456 1.382 . S
C452 H475 0.950 . S
C453 C452 1.388 . S
C453 C454 1.386 . S
C454 C453 1.386 . S
C454 C455 1.382 . S
C454 H476 0.950 . S
C455 N451 1.332 . S
C455 C454 1.382 . S
C455 H457 0.952 . S
C456 N451 1.332 . S
C456 C452 1.382 . S
C456 H458 0.948 . S
H457 C455 0.952 . S
H458 C456 0.948 . S
H459 C448 0.952 . S
H460 C450 0.948 . S
C461 C427 1.395 . S
C461 C431 1.391 . S
C462 C424 1.389 . S
C462 C444 1.392 . S
C463 C434 1.392 . S
C463 C436 1.389 . S
C464 C439 1.395 . S
C464 C441 1.391 . S
H465 C425 0.951 . S
H466 C426 0.950 . S
H467 C432 0.949 . S
H468 C433 0.950 . S
H469 C437 0.951 . S
H470 C438 0.950 . S
H471 C442 0.949 . S
H472 C443 0.950 . S
H473 C447 0.950 . S
H474 C449 0.950 . S
H475 C452 0.950 . S
H476 C454 0.950 . S
C477 C478 1.443 . S
C477 N481 1.376 . S
C477 C515 1.389 . S
C478 C477 1.443 . S
C478 C479 1.340 . S
C478 H518 0.951 . S
C479 C478 1.340 . S
C479 C480 1.439 . S
C479 H519 0.950 . S
C480 C479 1.439 . S
C480 N481 1.374 . S
C480 C514 1.395 . S
N481 C477 1.376 . S
N481 C480 1.374 . S
N481 Co482 2.008 . S
Co482 N481 2.008 . S
Co482 N483 1.995 . S
Co482 N488 2.008 . S
Co482 N493 1.995 . S
Co482 N498 2.282 . S
Co482 N504 2.282 . S
N483 Co482 1.995 . S
N483 C484 1.376 . S
N483 C487 1.383 . S
C484 N483 1.376 . S
C484 C485 1.446 . S
C484 C514 1.391 . S
C485 C484 1.446 . S
C485 C486 1.339 . S
C485 H520 0.949 . S
C486 C485 1.339 . S
C486 C487 1.439 . S
C486 H521 0.950 . S
C487 N483 1.383 . S
C487 C486 1.439 . S
C487 C516 1.392 . S
N488 Co482 2.008 . S
N488 C489 1.376 . S
N488 C492 1.374 . S
C489 N488 1.376 . S
C489 C490 1.443 . S
C489 C516 1.389 . S
C490 C489 1.443 . S
C490 C491 1.340 . S
C490 H522 0.951 . S
C491 C490 1.340 . S
C491 C492 1.439 . S
C491 H523 0.950 . S
C492 N488 1.374 . S
C492 C491 1.439 . S
C492 C517 1.395 . S
N493 Co482 1.995 . S
N493 C494 1.376 . S
N493 C497 1.383 . S
C494 N493 1.376 . S
C494 C495 1.446 . S
C494 C517 1.391 . S
C495 C494 1.446 . S
C495 C496 1.339 . S
C495 H524 0.949 . S
C496 C495 1.339 . S
C496 C497 1.439 . S
C496 H525 0.950 . S
C497 N493 1.383 . S
C497 C496 1.439 . S
C497 C515 1.392 . S
N498 Co482 2.282 . S
N498 C501 1.332 . S
N498 C503 1.332 . S
C499 C500 1.386 . S
C499 C502 1.388 . S
C500 C499 1.386 . S
C500 C501 1.382 . S
C500 H526 0.950 . S
C501 N498 1.332 . S
C501 C500 1.382 . S
C501 H512 0.952 . S
C502 C499 1.388 . S
C502 C503 1.382 . S
C502 H527 0.950 . S
C503 N498 1.332 . S
C503 C502 1.382 . S
C503 H513 0.948 . S
N504 Co482 2.282 . S
N504 C508 1.332 . S
N504 C509 1.332 . S
C505 C506 1.388 . S
C505 C509 1.382 . S
C505 H528 0.950 . S
C506 C505 1.388 . S
C506 C507 1.386 . S
C507 C506 1.386 . S
C507 C508 1.382 . S
C507 H529 0.950 . S
C508 N504 1.332 . S
C508 C507 1.382 . S
C508 H510 0.952 . S
C509 N504 1.332 . S
C509 C505 1.382 . S
C509 H511 0.948 . S
H510 C508 0.952 . S
H511 C509 0.948 . S
H512 C501 0.952 . S
H513 C503 0.948 . S
C514 C480 1.395 . S
C514 C484 1.391 . S
C515 C477 1.389 . S
C515 C497 1.392 . S
C516 C487 1.392 . S
C516 C489 1.389 . S
C517 C492 1.395 . S
C517 C494 1.391 . S
H518 C478 0.951 . S
H519 C479 0.950 . S
H520 C485 0.949 . S
H521 C486 0.950 . S
H522 C490 0.951 . S
H523 C491 0.950 . S
H524 C495 0.949 . S
H525 C496 0.950 . S
H526 C500 0.950 . S
H527 C502 0.950 . S
H528 C505 0.950 . S
H529 C507 0.950 . S
C530 C531 1.443 . S
C530 N534 1.376 . S
C530 C568 1.389 . S
C531 C530 1.443 . S
C531 C532 1.340 . S
C531 H571 0.951 . S
C532 C531 1.340 . S
C532 C533 1.439 . S
C532 H572 0.950 . S
C533 C532 1.439 . S
C533 N534 1.374 . S
C533 C567 1.395 . S
N534 C530 1.376 . S
N534 C533 1.374 . S
N534 Co535 2.008 . S
Co535 N534 2.008 . S
Co535 N536 1.995 . S
Co535 N541 2.008 . S
Co535 N546 1.995 . S
Co535 N551 2.282 . S
Co535 N557 2.282 . S
N536 Co535 1.995 . S
N536 C537 1.376 . S
N536 C540 1.383 . S
C537 N536 1.376 . S
C537 C538 1.446 . S
C537 C567 1.391 . S
C538 C537 1.446 . S
C538 C539 1.339 . S
C538 H573 0.949 . S
C539 C538 1.339 . S
C539 C540 1.439 . S
C539 H574 0.950 . S
C540 N536 1.383 . S
C540 C539 1.439 . S
C540 C569 1.392 . S
N541 Co535 2.008 . S
N541 C542 1.376 . S
N541 C545 1.374 . S
C542 N541 1.376 . S
C542 C543 1.443 . S
C542 C569 1.389 . S
C543 C542 1.443 . S
C543 C544 1.340 . S
C543 H575 0.951 . S
C544 C543 1.340 . S
C544 C545 1.439 . S
C544 H576 0.950 . S
C545 N541 1.374 . S
C545 C544 1.439 . S
C545 C570 1.395 . S
N546 Co535 1.995 . S
N546 C547 1.376 . S
N546 C550 1.383 . S
C547 N546 1.376 . S
C547 C548 1.446 . S
C547 C570 1.391 . S
C548 C547 1.446 . S
C548 C549 1.339 . S
C548 H577 0.949 . S
C549 C548 1.339 . S
C549 C550 1.439 . S
C549 H578 0.950 . S
C550 N546 1.383 . S
C550 C549 1.439 . S
C550 C568 1.392 . S
N551 Co535 2.282 . S
N551 C554 1.332 . S
N551 C556 1.332 . S
C552 C553 1.386 . S
C552 C555 1.388 . S
C553 C552 1.386 . S
C553 C554 1.382 . S
C553 H579 0.950 . S
C554 N551 1.332 . S
C554 C553 1.382 . S
C554 H565 0.952 . S
C555 C552 1.388 . S
C555 C556 1.382 . S
C555 H580 0.950 . S
C556 N551 1.332 . S
C556 C555 1.382 . S
C556 H566 0.948 . S
N557 Co535 2.282 . S
N557 C561 1.332 . S
N557 C562 1.332 . S
C558 C559 1.388 . S
C558 C562 1.382 . S
C558 H581 0.950 . S
C559 C558 1.388 . S
C559 C560 1.386 . S
C560 C559 1.386 . S
C560 C561 1.382 . S
C560 H582 0.950 . S
C561 N557 1.332 . S
C561 C560 1.382 . S
C561 H563 0.952 . S
C562 N557 1.332 . S
C562 C558 1.382 . S
C562 H564 0.948 . S
H563 C561 0.952 . S
H564 C562 0.948 . S
H565 C554 0.952 . S
H566 C556 0.948 . S
C567 C533 1.395 . S
C567 C537 1.391 . S
C568 C530 1.389 . S
C568 C550 1.392 . S
C569 C540 1.392 . S
C569 C542 1.389 . S
C570 C545 1.395 . S
C570 C547 1.391 . S
H571 C531 0.951 . S
H572 C532 0.950 . S
H573 C538 0.949 . S
H574 C539 0.950 . S
H575 C543 0.951 . S
H576 C544 0.950 . S
H577 C548 0.949 . S
H578 C549 0.950 . S
H579 C553 0.950 . S
H580 C555 0.950 . S
H581 C558 0.950 . S
H582 C560 0.950 . S
C583 C584 1.443 . S
C583 N587 1.376 . S
C583 C621 1.389 . S
C584 C583 1.443 . S
C584 C585 1.340 . S
C584 H624 0.951 . S
C585 C584 1.340 . S
C585 C586 1.439 . S
C585 H625 0.950 . S
C586 C585 1.439 . S
C586 N587 1.374 . S
C586 C620 1.395 . S
N587 C583 1.376 . S
N587 C586 1.374 . S
N587 Co588 2.008 . S
Co588 N587 2.008 . S
Co588 N589 1.995 . S
Co588 N594 2.008 . S
Co588 N599 1.995 . S
Co588 N604 2.282 . S
Co588 N610 2.282 . S
N589 Co588 1.995 . S
N589 C590 1.376 . S
N589 C593 1.383 . S
C590 N589 1.376 . S
C590 C591 1.446 . S
C590 C620 1.391 . S
C591 C590 1.446 . S
C591 C592 1.339 . S
C591 H626 0.949 . S
C592 C591 1.339 . S
C592 C593 1.439 . S
C592 H627 0.950 . S
C593 N589 1.383 . S
C593 C592 1.439 . S
C593 C622 1.392 . S
N594 Co588 2.008 . S
N594 C595 1.376 . S
N594 C598 1.374 . S
C595 N594 1.376 . S
C595 C596 1.443 . S
C595 C622 1.389 . S
C596 C595 1.443 . S
C596 C597 1.340 . S
C596 H628 0.951 . S
C597 C596 1.340 . S
C597 C598 1.439 . S
C597 H629 0.950 . S
C598 N594 1.374 . S
C598 C597 1.439 . S
C598 C623 1.395 . S
N599 Co588 1.995 . S
N599 C600 1.376 . S
N599 C603 1.383 . S
C600 N599 1.376 . S
C600 C601 1.446 . S
C600 C623 1.391 . S
C601 C600 1.446 . S
C601 C602 1.339 . S
C601 H630 0.949 . S
C602 C601 1.339 . S
C602 C603 1.439 . S
C602 H631 0.950 . S
C603 N599 1.383 . S
C603 C602 1.439 . S
C603 C621 1.392 . S
N604 Co588 2.282 . S
N604 C607 1.332 . S
N604 C609 1.332 . S
C605 C606 1.386 . S
C605 C608 1.388 . S
C606 C605 1.386 . S
C606 C607 1.382 . S
C606 H632 0.950 . S
C607 N604 1.332 . S
C607 C606 1.382 . S
C607 H618 0.952 . S
C608 C605 1.388 . S
C608 C609 1.382 . S
C608 H633 0.950 . S
C609 N604 1.332 . S
C609 C608 1.382 . S
C609 H619 0.948 . S
N610 Co588 2.282 . S
N610 C614 1.332 . S
N610 C615 1.332 . S
C611 C612 1.388 . S
C611 C615 1.382 . S
C611 H634 0.950 . S
C612 C611 1.388 . S
C612 C613 1.386 . S
C613 C612 1.386 . S
C613 C614 1.382 . S
C613 H635 0.950 . S
C614 N610 1.332 . S
C614 C613 1.382 . S
C614 H616 0.952 . S
C615 N610 1.332 . S
C615 C611 1.382 . S
C615 H617 0.948 . S
H616 C614 0.952 . S
H617 C615 0.948 . S
H618 C607 0.952 . S
H619 C609 0.948 . S
C620 C586 1.395 . S
C620 C590 1.391 . S
C621 C583 1.389 . S
C621 C603 1.392 . S
C622 C593 1.392 . S
C622 C595 1.389 . S
C623 C598 1.395 . S
C623 C600 1.391 . S
H624 C584 0.951 . S
H625 C585 0.950 . S
H626 C591 0.949 . S
H627 C592 0.950 . S
H628 C596 0.951 . S
H629 C597 0.950 . S
H630 C601 0.949 . S
H631 C602 0.950 . S
H632 C606 0.950 . S
H633 C608 0.950 . S
H634 C611 0.950 . S
H635 C613 0.950 . S
C636 C637 1.443 . S
C636 N640 1.376 . S
C636 C674 1.389 . S
C637 C636 1.443 . S
C637 C638 1.340 . S
C637 H677 0.951 . S
C638 C637 1.340 . S
C638 C639 1.439 . S
C638 H678 0.950 . S
C639 C638 1.439 . S
C639 N640 1.374 . S
C639 C673 1.395 . S
N640 C636 1.376 . S
N640 C639 1.374 . S
N640 Co641 2.008 . S
Co641 N640 2.008 . S
Co641 N642 1.995 . S
Co641 N647 2.008 . S
Co641 N652 1.995 . S
Co641 N657 2.282 . S
Co641 N663 2.282 . S
N642 Co641 1.995 . S
N642 C643 1.376 . S
N642 C646 1.383 . S
C643 N642 1.376 . S
C643 C644 1.446 . S
C643 C673 1.391 . S
C644 C643 1.446 . S
C644 C645 1.339 . S
C644 H679 0.949 . S
C645 C644 1.339 . S
C645 C646 1.439 . S
C645 H680 0.950 . S
C646 N642 1.383 . S
C646 C645 1.439 . S
C646 C675 1.392 . S
N647 Co641 2.008 . S
N647 C648 1.376 . S
N647 C651 1.374 . S
C648 N647 1.376 . S
C648 C649 1.443 . S
C648 C675 1.389 . S
C649 C648 1.443 . S
C649 C650 1.340 . S
C649 H681 0.951 . S
C650 C649 1.340 . S
C650 C651 1.439 . S
C650 H682 0.950 . S
C651 N647 1.374 . S
C651 C650 1.439 . S
C651 C676 1.395 . S
N652 Co641 1.995 . S
N652 C653 1.376 . S
N652 C656 1.383 . S
C653 N652 1.376 . S
C653 C654 1.446 . S
C653 C676 1.391 . S
C654 C653 1.446 . S
C654 C655 1.339 . S
C654 H683 0.949 . S
C655 C654 1.339 . S
C655 C656 1.439 . S
C655 H684 0.950 . S
C656 N652 1.383 . S
C656 C655 1.439 . S
C656 C674 1.392 . S
N657 Co641 2.282 . S
N657 C660 1.332 . S
N657 C662 1.332 . S
C658 C659 1.386 . S
C658 C661 1.388 . S
C659 C658 1.386 . S
C659 C660 1.382 . S
C659 H685 0.950 . S
C660 N657 1.332 . S
C660 C659 1.382 . S
C660 H671 0.952 . S
C661 C658 1.388 . S
C661 C662 1.382 . S
C661 H686 0.950 . S
C662 N657 1.332 . S
C662 C661 1.382 . S
C662 H672 0.948 . S
N663 Co641 2.282 . S
N663 C667 1.332 . S
N663 C668 1.332 . S
C664 C665 1.388 . S
C664 C668 1.382 . S
C664 H687 0.950 . S
C665 C664 1.388 . S
C665 C666 1.386 . S
C666 C665 1.386 . S
C666 C667 1.382 . S
C666 H688 0.950 . S
C667 N663 1.332 . S
C667 C666 1.382 . S
C667 H669 0.952 . S
C668 N663 1.332 . S
C668 C664 1.382 . S
C668 H670 0.948 . S
H669 C667 0.952 . S
H670 C668 0.948 . S
H671 C660 0.952 . S
H672 C662 0.948 . S
C673 C639 1.395 . S
C673 C643 1.391 . S
C674 C636 1.389 . S
C674 C656 1.392 . S
C675 C646 1.392 . S
C675 C648 1.389 . S
C676 C651 1.395 . S
C676 C653 1.391 . S
H677 C637 0.951 . S
H678 C638 0.950 . S
H679 C644 0.949 . S
H680 C645 0.950 . S
H681 C649 0.951 . S
H682 C650 0.950 . S
H683 C654 0.949 . S
H684 C655 0.950 . S
H685 C659 0.950 . S
H686 C661 0.950 . S
H687 C664 0.950 . S
H688 C666 0.950 . S
C689 C690 1.443 . S
C689 N693 1.376 . S
C689 C727 1.389 . S
C690 C689 1.443 . S
C690 C691 1.340 . S
C690 H730 0.951 . S
C691 C690 1.340 . S
C691 C692 1.439 . S
C691 H731 0.950 . S
C692 C691 1.439 . S
C692 N693 1.374 . S
C692 C726 1.395 . S
N693 C689 1.376 . S
N693 C692 1.374 . S
N693 Co694 2.008 . S
Co694 N693 2.008 . S
Co694 N695 1.995 . S
Co694 N700 2.008 . S
Co694 N705 1.995 . S
Co694 N710 2.282 . S
Co694 N716 2.282 . S
N695 Co694 1.995 . S
N695 C696 1.376 . S
N695 C699 1.383 . S
C696 N695 1.376 . S
C696 C697 1.446 . S
C696 C726 1.391 . S
C697 C696 1.446 . S
C697 C698 1.339 . S
C697 H732 0.949 . S
C698 C697 1.339 . S
C698 C699 1.439 . S
C698 H733 0.950 . S
C699 N695 1.383 . S
C699 C698 1.439 . S
C699 C728 1.392 . S
N700 Co694 2.008 . S
N700 C701 1.376 . S
N700 C704 1.374 . S
C701 N700 1.376 . S
C701 C702 1.443 . S
C701 C728 1.389 . S
C702 C701 1.443 . S
C702 C703 1.340 . S
C702 H734 0.951 . S
C703 C702 1.340 . S
C703 C704 1.439 . S
C703 H735 0.950 . S
C704 N700 1.374 . S
C704 C703 1.439 . S
C704 C729 1.395 . S
N705 Co694 1.995 . S
N705 C706 1.376 . S
N705 C709 1.383 . S
C706 N705 1.376 . S
C706 C707 1.446 . S
C706 C729 1.391 . S
C707 C706 1.446 . S
C707 C708 1.339 . S
C707 H736 0.949 . S
C708 C707 1.339 . S
C708 C709 1.439 . S
C708 H737 0.950 . S
C709 N705 1.383 . S
C709 C708 1.439 . S
C709 C727 1.392 . S
N710 Co694 2.282 . S
N710 C713 1.332 . S
N710 C715 1.332 . S
C711 C712 1.386 . S
C711 C714 1.388 . S
C712 C711 1.386 . S
C712 C713 1.382 . S
C712 H738 0.950 . S
C713 N710 1.332 . S
C713 C712 1.382 . S
C713 H724 0.952 . S
C714 C711 1.388 . S
C714 C715 1.382 . S
C714 H739 0.950 . S
C715 N710 1.332 . S
C715 C714 1.382 . S
C715 H725 0.948 . S
N716 Co694 2.282 . S
N716 C720 1.332 . S
N716 C721 1.332 . S
C717 C718 1.388 . S
C717 C721 1.382 . S
C717 H740 0.950 . S
C718 C717 1.388 . S
C718 C719 1.386 . S
C719 C718 1.386 . S
C719 C720 1.382 . S
C719 H741 0.950 . S
C720 N716 1.332 . S
C720 C719 1.382 . S
C720 H722 0.952 . S
C721 N716 1.332 . S
C721 C717 1.382 . S
C721 H723 0.948 . S
H722 C720 0.952 . S
H723 C721 0.948 . S
H724 C713 0.952 . S
H725 C715 0.948 . S
C726 C692 1.395 . S
C726 C696 1.391 . S
C727 C689 1.389 . S
C727 C709 1.392 . S
C728 C699 1.392 . S
C728 C701 1.389 . S
C729 C704 1.395 . S
C729 C706 1.391 . S
H730 C690 0.951 . S
H731 C691 0.950 . S
H732 C697 0.949 . S
H733 C698 0.950 . S
H734 C702 0.951 . S
H735 C703 0.950 . S
H736 C707 0.949 . S
H737 C708 0.950 . S
H738 C712 0.950 . S
H739 C714 0.950 . S
H740 C717 0.950 . S
H741 C719 0.950 . S
C742 C743 1.443 . S
C742 N746 1.376 . S
C742 C780 1.389 . S
C743 C742 1.443 . S
C743 C744 1.340 . S
C743 H783 0.951 . S
C744 C743 1.340 . S
C744 C745 1.439 . S
C744 H784 0.950 . S
C745 C744 1.439 . S
C745 N746 1.374 . S
C745 C779 1.395 . S
N746 C742 1.376 . S
N746 C745 1.374 . S
N746 Co747 2.008 . S
Co747 N746 2.008 . S
Co747 N748 1.995 . S
Co747 N753 2.008 . S
Co747 N758 1.995 . S
Co747 N763 2.282 . S
Co747 N769 2.282 . S
N748 Co747 1.995 . S
N748 C749 1.376 . S
N748 C752 1.383 . S
C749 N748 1.376 . S
C749 C750 1.446 . S
C749 C779 1.391 . S
C750 C749 1.446 . S
C750 C751 1.339 . S
C750 H785 0.949 . S
C751 C750 1.339 . S
C751 C752 1.439 . S
C751 H786 0.950 . S
C752 N748 1.383 . S
C752 C751 1.439 . S
C752 C781 1.392 . S
N753 Co747 2.008 . S
N753 C754 1.376 . S
N753 C757 1.374 . S
C754 N753 1.376 . S
C754 C755 1.443 . S
C754 C781 1.389 . S
C755 C754 1.443 . S
C755 C756 1.340 . S
C755 H787 0.951 . S
C756 C755 1.340 . S
C756 C757 1.439 . S
C756 H788 0.950 . S
C757 N753 1.374 . S
C757 C756 1.439 . S
C757 C782 1.395 . S
N758 Co747 1.995 . S
N758 C759 1.376 . S
N758 C762 1.383 . S
C759 N758 1.376 . S
C759 C760 1.446 . S
C759 C782 1.391 . S
C760 C759 1.446 . S
C760 C761 1.339 . S
C760 H789 0.949 . S
C761 C760 1.339 . S
C761 C762 1.439 . S
C761 H790 0.950 . S
C762 N758 1.383 . S
C762 C761 1.439 . S
C762 C780 1.392 . S
N763 Co747 2.282 . S
N763 C766 1.332 . S
N763 C768 1.332 . S
C764 C765 1.386 . S
C764 C767 1.388 . S
C765 C764 1.386 . S
C765 C766 1.382 . S
C765 H791 0.950 . S
C766 N763 1.332 . S
C766 C765 1.382 . S
C766 H777 0.952 . S
C767 C764 1.388 . S
C767 C768 1.382 . S
C767 H792 0.950 . S
C768 N763 1.332 . S
C768 C767 1.382 . S
C768 H778 0.948 . S
N769 Co747 2.282 . S
N769 C773 1.332 . S
N769 C774 1.332 . S
C770 C771 1.388 . S
C770 C774 1.382 . S
C770 H793 0.950 . S
C771 C770 1.388 . S
C771 C772 1.386 . S
C772 C771 1.386 . S
C772 C773 1.382 . S
C772 H794 0.950 . S
C773 N769 1.332 . S
C773 C772 1.382 . S
C773 H775 0.952 . S
C774 N769 1.332 . S
C774 C770 1.382 . S
C774 H776 0.948 . S
H775 C773 0.952 . S
H776 C774 0.948 . S
H777 C766 0.952 . S
H778 C768 0.948 . S
C779 C745 1.395 . S
C779 C749 1.391 . S
C780 C742 1.389 . S
C780 C762 1.392 . S
C781 C752 1.392 . S
C781 C754 1.389 . S
C782 C757 1.395 . S
C782 C759 1.391 . S
H783 C743 0.951 . S
H784 C744 0.950 . S
H785 C750 0.949 . S
H786 C751 0.950 . S
H787 C755 0.951 . S
H788 C756 0.950 . S
H789 C760 0.949 . S
H790 C761 0.950 . S
H791 C765 0.950 . S
H792 C767 0.950 . S
H793 C770 0.950 . S
H794 C772 0.950 . S
C795 C796 1.443 . S
C795 N799 1.376 . S
C795 C833 1.389 . S
C796 C795 1.443 . S
C796 C797 1.340 . S
C796 H836 0.951 . S
C797 C796 1.340 . S
C797 C798 1.439 . S
C797 H837 0.950 . S
C798 C797 1.439 . S
C798 N799 1.374 . S
C798 C832 1.395 . S
N799 C795 1.376 . S
N799 C798 1.374 . S
N799 Co800 2.008 . S
Co800 N799 2.008 . S
Co800 N801 1.995 . S
Co800 N806 2.008 . S
Co800 N811 1.995 . S
Co800 N816 2.282 . S
Co800 N822 2.282 . S
N801 Co800 1.995 . S
N801 C802 1.376 . S
N801 C805 1.383 . S
C802 N801 1.376 . S
C802 C803 1.446 . S
C802 C832 1.391 . S
C803 C802 1.446 . S
C803 C804 1.339 . S
C803 H838 0.949 . S
C804 C803 1.339 . S
C804 C805 1.439 . S
C804 H839 0.950 . S
C805 N801 1.383 . S
C805 C804 1.439 . S
C805 C834 1.392 . S
N806 Co800 2.008 . S
N806 C807 1.376 . S
N806 C810 1.374 . S
C807 N806 1.376 . S
C807 C808 1.443 . S
C807 C834 1.389 . S
C808 C807 1.443 . S
C808 C809 1.340 . S
C808 H840 0.951 . S
C809 C808 1.340 . S
C809 C810 1.439 . S
C809 H841 0.950 . S
C810 N806 1.374 . S
C810 C809 1.439 . S
C810 C835 1.395 . S
N811 Co800 1.995 . S
N811 C812 1.376 . S
N811 C815 1.383 . S
C812 N811 1.376 . S
C812 C813 1.446 . S
C812 C835 1.391 . S
C813 C812 1.446 . S
C813 C814 1.339 . S
C813 H842 0.949 . S
C814 C813 1.339 . S
C814 C815 1.439 . S
C814 H843 0.950 . S
C815 N811 1.383 . S
C815 C814 1.439 . S
C815 C833 1.392 . S
N816 Co800 2.282 . S
N816 C819 1.332 . S
N816 C821 1.332 . S
C817 C818 1.386 . S
C817 C820 1.388 . S
C818 C817 1.386 . S
C818 C819 1.382 . S
C818 H844 0.950 . S
C819 N816 1.332 . S
C819 C818 1.382 . S
C819 H830 0.952 . S
C820 C817 1.388 . S
C820 C821 1.382 . S
C820 H845 0.950 . S
C821 N816 1.332 . S
C821 C820 1.382 . S
C821 H831 0.948 . S
N822 Co800 2.282 . S
N822 C826 1.332 . S
N822 C827 1.332 . S
C823 C824 1.388 . S
C823 C827 1.382 . S
C823 H846 0.950 . S
C824 C823 1.388 . S
C824 C825 1.386 . S
C825 C824 1.386 . S
C825 C826 1.382 . S
C825 H847 0.950 . S
C826 N822 1.332 . S
C826 C825 1.382 . S
C826 H828 0.952 . S
C827 N822 1.332 . S
C827 C823 1.382 . S
C827 H829 0.948 . S
H828 C826 0.952 . S
H829 C827 0.948 . S
H830 C819 0.952 . S
H831 C821 0.948 . S
C832 C798 1.395 . S
C832 C802 1.391 . S
C833 C795 1.389 . S
C833 C815 1.392 . S
C834 C805 1.392 . S
C834 C807 1.389 . S
C835 C810 1.395 . S
C835 C812 1.391 . S
H836 C796 0.951 . S
H837 C797 0.950 . S
H838 C803 0.949 . S
H839 C804 0.950 . S
H840 C808 0.951 . S
H841 C809 0.950 . S
H842 C813 0.949 . S
H843 C814 0.950 . S
H844 C818 0.950 . S
H845 C820 0.950 . S
H846 C823 0.950 . S
H847 C825 0.950 . S
C848 C849 1.443 . S
C848 N852 1.376 . S
C848 C886 1.389 1_655 S
C849 C848 1.443 . S
C849 C850 1.340 . S
C849 H889 0.951 . S
C850 C849 1.340 . S
C850 C851 1.439 . S
C850 H890 0.950 . S
C851 C850 1.439 . S
C851 N852 1.374 . S
C851 C885 1.395 . S
N852 C848 1.376 . S
N852 C851 1.374 . S
N852 Co853 2.008 . S
Co853 N852 2.008 . S
Co853 N854 1.995 . S
Co853 N859 2.008 1_645 S
Co853 N864 1.995 1_655 S
Co853 N869 2.282 1_545 S
Co853 N875 2.282 1_655 S
N854 Co853 1.995 . S
N854 C855 1.376 . S
N854 C858 1.383 . S
C855 N854 1.376 . S
C855 C856 1.446 . S
C855 C885 1.391 . S
C856 C855 1.446 . S
C856 C857 1.339 . S
C856 H891 0.949 . S
C857 C856 1.339 . S
C857 C858 1.439 . S
C857 H892 0.950 . S
C858 N854 1.383 . S
C858 C857 1.439 . S
C858 C887 1.392 1_545 S
N859 Co853 2.008 1_465 S
N859 C860 1.376 . S
N859 C863 1.374 . S
C860 N859 1.376 . S
C860 C861 1.443 . S
C860 C887 1.389 1_455 S
C861 C860 1.443 . S
C861 C862 1.340 . S
C861 H893 0.951 . S
C862 C861 1.340 . S
C862 C863 1.439 . S
C862 H894 0.950 . S
C863 N859 1.374 . S
C863 C862 1.439 . S
C863 C888 1.395 . S
N864 Co853 1.995 1_455 S
N864 C865 1.376 1_545 S
N864 C868 1.383 . S
C865 N864 1.376 1_565 S
C865 C866 1.446 . S
C865 C888 1.391 . S
C866 C865 1.446 . S
C866 C867 1.339 1_565 S
C866 H895 0.949 . S
C867 C866 1.339 1_545 S
C867 C868 1.439 . S
C867 H896 0.950 . S
C868 N864 1.383 . S
C868 C867 1.439 . S
C868 C886 1.392 . S
N869 Co853 2.282 1_565 S
N869 C872 1.332 . S
N869 C874 1.332 1_565 S
C870 C871 1.386 . S
C870 C873 1.388 . S
C871 C870 1.386 . S
C871 C872 1.382 . S
C871 H897 0.950 . S
C872 N869 1.332 . S
C872 C871 1.382 . S
C872 H883 0.952 . S
C873 C870 1.388 . S
C873 C874 1.382 1_565 S
C873 H898 0.961 . S
C874 N869 1.332 1_545 S
C874 C873 1.382 1_545 S
C874 H884 0.948 . S
N875 Co853 2.282 1_455 S
N875 C879 1.332 . S
N875 C880 1.332 . S
C876 C877 1.388 . S
C876 C880 1.382 . S
C876 H899 0.950 . S
C877 C876 1.388 . S
C877 C878 1.386 . S
C878 C877 1.386 . S
C878 C879 1.382 . S
C878 H900 0.950 . S
C879 N875 1.332 . S
C879 C878 1.382 . S
C879 H881 0.952 . S
C880 N875 1.332 . S
C880 C876 1.382 . S
C880 H882 0.948 . S
H881 C879 0.952 . S
H882 C880 0.948 . S
H883 C872 0.952 . S
H884 C874 0.948 . S
C885 C851 1.395 . S
C885 C855 1.391 . S
C886 C848 1.389 1_455 S
C886 C868 1.392 . S
C887 C858 1.392 1_565 S
C887 C860 1.389 1_655 S
C888 C863 1.395 . S
C888 C865 1.391 . S
H889 C849 0.951 . S
H890 C850 0.950 . S
H891 C856 0.949 . S
H892 C857 0.950 . S
H893 C861 0.951 . S
H894 C862 0.950 . S
H895 C866 0.949 . S
H896 C867 0.950 . S
H897 C871 0.950 . S
H898 C873 0.961 . S
H899 C876 0.950 . S
H900 C878 0.950 . S
C901 C902 1.443 . S
C901 N905 1.376 . S
C901 C939 1.389 . S
C902 C901 1.443 . S
C902 C903 1.340 . S
C902 H942 0.951 . S
C903 C902 1.340 . S
C903 C904 1.439 . S
C903 H943 0.950 . S
C904 C903 1.439 . S
C904 N905 1.374 . S
C904 C938 1.395 . S
N905 C901 1.376 . S
N905 C904 1.374 . S
N905 Co906 2.008 . S
Co906 N905 2.008 . S
Co906 N907 1.995 . S
Co906 N912 2.008 . S
Co906 N917 1.995 . S
Co906 N922 2.282 . S
Co906 N928 2.282 . S
N907 Co906 1.995 . S
N907 C908 1.376 . S
N907 C911 1.383 . S
C908 N907 1.376 . S
C908 C909 1.446 . S
C908 C938 1.391 . S
C909 C908 1.446 . S
C909 C910 1.339 . S
C909 H944 0.949 . S
C910 C909 1.339 . S
C910 C911 1.439 . S
C910 H945 0.950 . S
C911 N907 1.383 . S
C911 C910 1.439 . S
C911 C940 1.392 . S
N912 Co906 2.008 . S
N912 C913 1.376 . S
N912 C916 1.374 . S
C913 N912 1.376 . S
C913 C914 1.443 . S
C913 C940 1.389 . S
C914 C913 1.443 . S
C914 C915 1.340 . S
C914 H946 0.951 . S
C915 C914 1.340 . S
C915 C916 1.439 . S
C915 H947 0.950 . S
C916 N912 1.374 . S
C916 C915 1.439 . S
C916 C941 1.395 . S
N917 Co906 1.995 . S
N917 C918 1.376 . S
N917 C921 1.383 . S
C918 N917 1.376 . S
C918 C919 1.446 . S
C918 C941 1.391 . S
C919 C918 1.446 . S
C919 C920 1.339 . S
C919 H948 0.949 . S
C920 C919 1.339 . S
C920 C921 1.439 . S
C920 H949 0.950 . S
C921 N917 1.383 . S
C921 C920 1.439 . S
C921 C939 1.392 . S
N922 Co906 2.282 . S
N922 C925 1.332 . S
N922 C927 1.332 . S
C923 C924 1.386 . S
C923 C926 1.388 . S
C924 C923 1.386 . S
C924 C925 1.382 . S
C924 H950 0.950 . S
C925 N922 1.332 . S
C925 C924 1.382 . S
C925 H936 0.952 . S
C926 C923 1.388 . S
C926 C927 1.382 . S
C926 H951 0.950 . S
C927 N922 1.332 . S
C927 C926 1.382 . S
C927 H937 0.948 . S
N928 Co906 2.282 . S
N928 C932 1.332 . S
N928 C933 1.332 . S
C929 C930 1.388 . S
C929 C933 1.382 . S
C929 H952 0.950 . S
C930 C929 1.388 . S
C930 C931 1.386 . S
C931 C930 1.386 . S
C931 C932 1.382 . S
C931 H953 0.950 . S
C932 N928 1.332 . S
C932 C931 1.382 . S
C932 H934 0.952 . S
C933 N928 1.332 . S
C933 C929 1.382 . S
C933 H935 0.948 . S
H934 C932 0.952 . S
H935 C933 0.948 . S
H936 C925 0.952 . S
H937 C927 0.948 . S
C938 C904 1.395 . S
C938 C908 1.391 . S
C939 C901 1.389 . S
C939 C921 1.392 . S
C940 C911 1.392 . S
C940 C913 1.389 . S
C941 C916 1.395 . S
C941 C918 1.391 . S
H942 C902 0.951 . S
H943 C903 0.950 . S
H944 C909 0.949 . S
H945 C910 0.950 . S
H946 C914 0.951 . S
H947 C915 0.950 . S
H948 C919 0.949 . S
H949 C920 0.950 . S
H950 C924 0.950 . S
H951 C926 0.950 . S
H952 C929 0.950 . S
H953 C931 0.950 . S
C954 C955 1.443 . S
C954 N958 1.376 . S
C954 C992 1.389 1_655 S
C955 C954 1.443 . S
C955 C956 1.340 . S
C955 H995 0.951 . S
C956 C955 1.340 . S
C956 C957 1.439 . S
C956 H996 0.950 . S
C957 C956 1.439 . S
C957 N958 1.374 . S
C957 C991 1.395 . S
N958 C954 1.376 . S
N958 C957 1.374 . S
N958 Co959 2.008 . S
Co959 N958 2.008 . S
Co959 N960 1.995 . S
Co959 N965 2.008 1_655 S
Co959 N970 1.995 1_655 S
Co959 N975 2.282 . S
Co959 N981 2.282 1_655 S
N960 Co959 1.995 . S
N960 C961 1.376 . S
N960 C964 1.383 . S
C961 N960 1.376 . S
C961 C962 1.446 . S
C961 C991 1.391 . S
C962 C961 1.446 . S
C962 C963 1.339 . S
C962 H997 0.949 . S
C963 C962 1.339 . S
C963 C964 1.439 . S
C963 H998 0.950 . S
C964 N960 1.383 . S
C964 C963 1.439 . S
C964 C993 1.392 . S
N965 Co959 2.008 1_455 S
N965 C966 1.376 . S
N965 C969 1.374 . S
C966 N965 1.376 . S
C966 C967 1.443 . S
C966 C993 1.389 1_455 S
C967 C966 1.443 . S
C967 C968 1.340 . S
C967 H999 0.951 . S
C968 C967 1.340 . S
C968 C969 1.439 . S
C968 H1000 0.950 . S
C969 N965 1.374 . S
C969 C968 1.439 . S
C969 C994 1.395 . S
N970 Co959 1.995 1_455 S
N970 C971 1.376 . S
N970 C974 1.383 . S
C971 N970 1.376 . S
C971 C972 1.446 . S
C971 C994 1.391 . S
C972 C971 1.446 . S
C972 C973 1.339 . S
C972 H1001 0.949 . S
C973 C972 1.339 . S
C973 C974 1.439 . S
C973 H1002 0.950 . S
C974 N970 1.383 . S
C974 C973 1.439 . S
C974 C992 1.392 . S
N975 Co959 2.282 . S
N975 C978 1.332 . S
N975 C980 1.332 . S
C976 C977 1.386 . S
C976 C979 1.388 . S
C977 C976 1.386 . S
C977 C978 1.382 . S
C977 H1003 0.950 . S
C978 N975 1.332 . S
C978 C977 1.382 . S
C978 H989 0.952 . S
C979 C976 1.388 . S
C979 C980 1.382 . S
C979 H1004 0.950 . S
C980 N975 1.332 . S
C980 C979 1.382 . S
C980 H990 0.948 . S
N981 Co959 2.282 1_455 S
N981 C985 1.332 . S
N981 C986 1.332 . S
C982 C983 1.388 . S
C982 C986 1.382 . S
C982 H1005 0.950 . S
C983 C982 1.388 . S
C983 C984 1.386 . S
C984 C983 1.386 . S
C984 C985 1.382 . S
C984 H1006 0.950 . S
C985 N981 1.332 . S
C985 C984 1.382 . S
C985 H987 0.952 . S
C986 N981 1.332 . S
C986 C982 1.382 . S
C986 H988 0.948 . S
H987 C985 0.952 . S
H988 C986 0.948 . S
H989 C978 0.952 . S
H990 C980 0.948 . S
C991 C957 1.395 . S
C991 C961 1.391 . S
C992 C954 1.389 1_455 S
C992 C974 1.392 . S
C993 C964 1.392 . S
C993 C966 1.389 1_655 S
C994 C969 1.395 . S
C994 C971 1.391 . S
H995 C955 0.951 . S
H996 C956 0.950 . S
H997 C962 0.949 . S
H998 C963 0.950 . S
H999 C967 0.951 . S
H1000 C968 0.950 . S
H1001 C972 0.949 . S
H1002 C973 0.950 . S
H1003 C977 0.950 . S
H1004 C979 0.950 . S
H1005 C982 0.950 . S
H1006 C984 0.950 . S
C1007 C1008 1.443 . S
C1007 N1011 1.376 . S
C1007 C1045 1.389 . S
C1008 C1007 1.443 . S
C1008 C1009 1.340 . S
C1008 H1048 0.951 . S
C1009 C1008 1.340 . S
C1009 C1010 1.439 . S
C1009 H1049 0.950 . S
C1010 C1009 1.439 . S
C1010 N1011 1.374 . S
C1010 C1044 1.395 . S
N1011 C1007 1.376 . S
N1011 C1010 1.374 . S
N1011 Co1012 2.008 . S
Co1012 N1011 2.008 . S
Co1012 N1013 1.995 . S
Co1012 N1018 2.008 1_545 S
Co1012 N1023 1.995 . S
Co1012 N1028 2.282 1_545 S
Co1012 N1034 2.282 . S
N1013 Co1012 1.995 . S
N1013 C1014 1.376 . S
N1013 C1017 1.383 . S
C1014 N1013 1.376 . S
C1014 C1015 1.446 . S
C1014 C1044 1.391 . S
C1015 C1014 1.446 . S
C1015 C1016 1.339 . S
C1015 H1050 0.949 . S
C1016 C1015 1.339 . S
C1016 C1017 1.439 . S
C1016 H1051 0.950 . S
C1017 N1013 1.383 . S
C1017 C1016 1.439 . S
C1017 C1046 1.392 1_545 S
N1018 Co1012 2.008 1_565 S
N1018 C1019 1.376 . S
N1018 C1022 1.374 . S
C1019 N1018 1.376 . S
C1019 C1020 1.443 . S
C1019 C1046 1.389 . S
C1020 C1019 1.443 . S
C1020 C1021 1.340 . S
C1020 H1052 0.951 . S
C1021 C1020 1.340 . S
C1021 C1022 1.439 . S
C1021 H1053 0.950 . S
C1022 N1018 1.374 . S
C1022 C1021 1.439 . S
C1022 C1047 1.395 . S
N1023 Co1012 1.995 . S
N1023 C1024 1.376 1_545 S
N1023 C1027 1.383 . S
C1024 N1023 1.376 1_565 S
C1024 C1025 1.446 . S
C1024 C1047 1.391 . S
C1025 C1024 1.446 . S
C1025 C1026 1.339 . S
C1025 H1054 0.949 . S
C1026 C1025 1.339 . S
C1026 C1027 1.439 1_565 S
C1026 H1055 0.950 1_565 S
C1027 N1023 1.383 . S
C1027 C1026 1.439 1_545 S
C1027 C1045 1.392 . S
N1028 Co1012 2.282 1_565 S
N1028 C1031 1.332 . S
N1028 C1033 1.332 1_565 S
C1029 C1030 1.386 . S
C1029 C1032 1.388 . S
C1030 C1029 1.386 . S
C1030 C1031 1.382 . S
C1030 H1056 0.950 . S
C1031 N1028 1.332 . S
C1031 C1030 1.382 . S
C1031 H1042 0.952 . S
C1032 C1029 1.388 . S
C1032 C1033 1.382 1_565 S
C1032 H1057 0.950 . S
C1033 N1028 1.332 1_545 S
C1033 C1032 1.382 1_545 S
C1033 H1043 0.948 . S
N1034 Co1012 2.282 . S
N1034 C1038 1.332 . S
N1034 C1039 1.332 . S
C1035 C1036 1.388 . S
C1035 C1039 1.382 . S
C1035 H1058 0.950 . S
C1036 C1035 1.388 . S
C1036 C1037 1.386 . S
C1037 C1036 1.386 . S
C1037 C1038 1.382 . S
C1037 H1059 0.950 . S
C1038 N1034 1.332 . S
C1038 C1037 1.382 . S
C1038 H1040 0.952 . S
C1039 N1034 1.332 . S
C1039 C1035 1.382 . S
C1039 H1041 0.948 . S
H1040 C1038 0.952 . S
H1041 C1039 0.948 . S
H1042 C1031 0.952 . S
H1043 C1033 0.948 . S
C1044 C1010 1.395 . S
C1044 C1014 1.391 . S
C1045 C1007 1.389 . S
C1045 C1027 1.392 . S
C1046 C1017 1.392 1_565 S
C1046 C1019 1.389 . S
C1047 C1022 1.395 . S
C1047 C1024 1.391 . S
H1048 C1008 0.951 . S
H1049 C1009 0.950 . S
H1050 C1015 0.949 . S
H1051 C1016 0.950 . S
H1052 C1020 0.951 . S
H1053 C1021 0.950 . S
H1054 C1025 0.949 . S
H1055 C1026 0.950 1_545 S
H1056 C1030 0.950 . S
H1057 C1032 0.950 . S
H1058 C1035 0.950 . S
H1059 C1037 0.950 . S
C1060 C1061 1.443 . S
C1060 N1064 1.376 . S
C1060 C1098 1.389 . S
C1061 C1060 1.443 . S
C1061 C1062 1.340 1_565 S
C1061 H1101 0.951 . S
C1062 C1061 1.340 1_545 S
C1062 C1063 1.439 . S
C1062 H1102 0.950 . S
C1063 C1062 1.439 . S
C1063 N1064 1.374 1_545 S
C1063 C1097 1.395 . S
N1064 C1060 1.376 . S
N1064 C1063 1.374 1_565 S
N1064 Co1065 2.008 1_655 S
Co1065 N1064 2.008 1_455 S
Co1065 N1066 1.995 1_465 S
Co1065 N1071 2.008 . S
Co1065 N1076 1.995 . S
Co1065 N1081 2.282 1_565 S
Co1065 N1087 2.282 1_455 S
N1066 Co1065 1.995 1_645 S
N1066 C1067 1.376 . S
N1066 C1070 1.383 . S
C1067 N1066 1.376 . S
C1067 C1068 1.446 . S
C1067 C1097 1.391 . S
C1068 C1067 1.446 . S
C1068 C1069 1.339 . S
C1068 H1103 0.949 . S
C1069 C1068 1.339 . S
C1069 C1070 1.439 . S
C1069 H1104 0.950 . S
C1070 N1066 1.383 . S
C1070 C1069 1.439 . S
C1070 C1099 1.392 1_655 S
N1071 Co1065 2.008 . S
N1071 C1072 1.376 . S
N1071 C1075 1.374 . S
C1072 N1071 1.376 . S
C1072 C1073 1.443 . S
C1072 C1099 1.389 1_565 S
C1073 C1072 1.443 . S
C1073 C1074 1.340 . S
C1073 H1105 0.951 . S
C1074 C1073 1.340 . S
C1074 C1075 1.439 . S
C1074 H1106 0.950 . S
C1075 N1071 1.374 . S
C1075 C1074 1.439 . S
C1075 C1100 1.395 . S
N1076 Co1065 1.995 . S
N1076 C1077 1.376 . S
N1076 C1080 1.383 . S
C1077 N1076 1.376 . S
C1077 C1078 1.446 . S
C1077 C1100 1.391 . S
C1078 C1077 1.446 . S
C1078 C1079 1.339 . S
C1078 H1107 0.949 . S
C1079 C1078 1.339 . S
C1079 C1080 1.439 . S
C1079 H1108 0.950 . S
C1080 N1076 1.383 . S
C1080 C1079 1.439 . S
C1080 C1098 1.392 1_455 S
N1081 Co1065 2.282 1_545 S
N1081 C1084 1.332 1_545 S
N1081 C1086 1.332 . S
C1082 C1083 1.386 . S
C1082 C1085 1.388 . S
C1083 C1082 1.386 . S
C1083 C1084 1.382 1_545 S
C1083 H1109 0.950 1_545 S
C1084 N1081 1.332 1_565 S
C1084 C1083 1.382 1_565 S
C1084 H1095 0.952 . S
C1085 C1082 1.388 . S
C1085 C1086 1.382 . S
C1085 H1110 0.950 . S
C1086 N1081 1.332 . S
C1086 C1085 1.382 . S
C1086 H1096 0.948 . S
N1087 Co1065 2.282 1_655 S
N1087 C1091 1.332 . S
N1087 C1092 1.332 . S
C1088 C1089 1.388 . S
C1088 C1092 1.382 . S
C1088 H1111 0.950 . S
C1089 C1088 1.388 . S
C1089 C1090 1.386 . S
C1090 C1089 1.386 . S
C1090 C1091 1.382 . S
C1090 H1112 0.950 . S
C1091 N1087 1.332 . S
C1091 C1090 1.382 . S
C1091 H1093 0.952 . S
C1092 N1087 1.332 . S
C1092 C1088 1.382 . S
C1092 H1094 0.948 . S
H1093 C1091 0.952 . S
H1094 C1092 0.948 . S
H1095 C1084 0.952 . S
H1096 C1086 0.948 . S
C1097 C1063 1.395 . S
C1097 C1067 1.391 . S
C1098 C1060 1.389 . S
C1098 C1080 1.392 1_655 S
C1099 C1070 1.392 1_455 S
C1099 C1072 1.389 1_545 S
C1100 C1075 1.395 . S
C1100 C1077 1.391 . S
H1101 C1061 0.951 . S
H1102 C1062 0.950 . S
H1103 C1068 0.949 . S
H1104 C1069 0.950 . S
H1105 C1073 0.951 . S
H1106 C1074 0.950 . S
H1107 C1078 0.949 . S
H1108 C1079 0.950 . S
H1109 C1083 0.950 1_565 S
H1110 C1085 0.950 . S
H1111 C1088 0.950 . S
H1112 C1090 0.950 . S
C1113 C1114 1.443 . S
C1113 N1117 1.376 . S
C1113 C1151 1.389 . S
C1114 C1113 1.443 . S
C1114 C1115 1.340 . S
C1114 H1154 0.951 . S
C1115 C1114 1.340 . S
C1115 C1116 1.439 . S
C1115 H1155 0.950 . S
C1116 C1115 1.439 . S
C1116 N1117 1.374 . S
C1116 C1150 1.395 . S
N1117 C1113 1.376 . S
N1117 C1116 1.374 . S
N1117 Co1118 2.008 . S
Co1118 N1117 2.008 . S
Co1118 N1119 1.995 . S
Co1118 N1124 2.008 . S
Co1118 N1129 1.995 . S
Co1118 N1134 2.282 . S
Co1118 N1140 2.282 . S
N1119 Co1118 1.995 . S
N1119 C1120 1.376 . S
N1119 C1123 1.383 . S
C1120 N1119 1.376 . S
C1120 C1121 1.446 . S
C1120 C1150 1.391 . S
C1121 C1120 1.446 . S
C1121 C1122 1.339 . S
C1121 H1156 0.949 . S
C1122 C1121 1.339 . S
C1122 C1123 1.439 . S
C1122 H1157 0.950 . S
C1123 N1119 1.383 . S
C1123 C1122 1.439 . S
C1123 C1152 1.392 . S
N1124 Co1118 2.008 . S
N1124 C1125 1.376 . S
N1124 C1128 1.374 . S
C1125 N1124 1.376 . S
C1125 C1126 1.443 . S
C1125 C1152 1.389 . S
C1126 C1125 1.443 . S
C1126 C1127 1.340 . S
C1126 H1158 0.951 . S
C1127 C1126 1.340 . S
C1127 C1128 1.439 . S
C1127 H1159 0.950 . S
C1128 N1124 1.374 . S
C1128 C1127 1.439 . S
C1128 C1153 1.395 . S
N1129 Co1118 1.995 . S
N1129 C1130 1.376 . S
N1129 C1133 1.383 . S
C1130 N1129 1.376 . S
C1130 C1131 1.446 . S
C1130 C1153 1.391 . S
C1131 C1130 1.446 . S
C1131 C1132 1.339 . S
C1131 H1160 0.949 . S
C1132 C1131 1.339 . S
C1132 C1133 1.439 . S
C1132 H1161 0.950 . S
C1133 N1129 1.383 . S
C1133 C1132 1.439 . S
C1133 C1151 1.392 . S
N1134 Co1118 2.282 . S
N1134 C1137 1.332 . S
N1134 C1139 1.332 . S
C1135 C1136 1.386 . S
C1135 C1138 1.388 . S
C1136 C1135 1.386 . S
C1136 C1137 1.382 . S
C1136 H1162 0.950 . S
C1137 N1134 1.332 . S
C1137 C1136 1.382 . S
C1137 H1148 0.952 . S
C1138 C1135 1.388 . S
C1138 C1139 1.382 . S
C1138 H1163 0.950 . S
C1139 N1134 1.332 . S
C1139 C1138 1.382 . S
C1139 H1149 0.948 . S
N1140 Co1118 2.282 . S
N1140 C1144 1.332 . S
N1140 C1145 1.332 . S
C1141 C1142 1.388 . S
C1141 C1145 1.382 . S
C1141 H1164 0.950 . S
C1142 C1141 1.388 . S
C1142 C1143 1.386 . S
C1143 C1142 1.386 . S
C1143 C1144 1.382 . S
C1143 H1165 0.950 . S
C1144 N1140 1.332 . S
C1144 C1143 1.382 . S
C1144 H1146 0.952 . S
C1145 N1140 1.332 . S
C1145 C1141 1.382 . S
C1145 H1147 0.948 . S
H1146 C1144 0.952 . S
H1147 C1145 0.948 . S
H1148 C1137 0.952 . S
H1149 C1139 0.948 . S
C1150 C1116 1.395 . S
C1150 C1120 1.391 . S
C1151 C1113 1.389 . S
C1151 C1133 1.392 . S
C1152 C1123 1.392 . S
C1152 C1125 1.389 . S
C1153 C1128 1.395 . S
C1153 C1130 1.391 . S
H1154 C1114 0.951 . S
H1155 C1115 0.950 . S
H1156 C1121 0.949 . S
H1157 C1122 0.950 . S
H1158 C1126 0.951 . S
H1159 C1127 0.950 . S
H1160 C1131 0.949 . S
H1161 C1132 0.950 . S
H1162 C1136 0.950 . S
H1163 C1138 0.950 . S
H1164 C1141 0.950 . S
H1165 C1143 0.950 . S
C1166 C1167 1.443 . S
C1166 N1170 1.376 . S
C1166 C1204 1.389 . S
C1167 C1166 1.443 . S
C1167 C1168 1.340 . S
C1167 H1207 0.951 . S
C1168 C1167 1.340 . S
C1168 C1169 1.439 . S
C1168 H1208 0.950 . S
C1169 C1168 1.439 . S
C1169 N1170 1.374 . S
C1169 C1203 1.395 . S
N1170 C1166 1.376 . S
N1170 C1169 1.374 . S
N1170 Co1171 2.008 1_655 S
Co1171 N1170 2.008 1_455 S
Co1171 N1172 1.995 1_455 S
Co1171 N1177 2.008 . S
Co1171 N1182 1.995 . S
Co1171 N1187 2.282 . S
Co1171 N1193 2.282 1_455 S
N1172 Co1171 1.995 1_655 S
N1172 C1173 1.376 . S
N1172 C1176 1.383 . S
C1173 N1172 1.376 . S
C1173 C1174 1.446 . S
C1173 C1203 1.391 . S
C1174 C1173 1.446 . S
C1174 C1175 1.339 . S
C1174 H1209 0.949 . S
C1175 C1174 1.339 . S
C1175 C1176 1.439 . S
C1175 H1210 0.950 . S
C1176 N1172 1.383 . S
C1176 C1175 1.439 . S
C1176 C1205 1.392 1_655 S
N1177 Co1171 2.008 . S
N1177 C1178 1.376 . S
N1177 C1181 1.374 . S
C1178 N1177 1.376 . S
C1178 C1179 1.443 . S
C1178 C1205 1.389 . S
C1179 C1178 1.443 . S
C1179 C1180 1.340 . S
C1179 H1211 0.951 . S
C1180 C1179 1.340 . S
C1180 C1181 1.439 . S
C1180 H1212 0.950 . S
C1181 N1177 1.374 . S
C1181 C1180 1.439 . S
C1181 C1206 1.395 . S
N1182 Co1171 1.995 . S
N1182 C1183 1.376 . S
N1182 C1186 1.383 . S
C1183 N1182 1.376 . S
C1183 C1184 1.446 . S
C1183 C1206 1.391 . S
C1184 C1183 1.446 . S
C1184 C1185 1.339 . S
C1184 H1213 0.949 . S
C1185 C1184 1.339 . S
C1185 C1186 1.439 . S
C1185 H1214 0.950 . S
C1186 N1182 1.383 . S
C1186 C1185 1.439 . S
C1186 C1204 1.392 1_455 S
N1187 Co1171 2.282 . S
N1187 C1190 1.332 . S
N1187 C1192 1.332 . S
C1188 C1189 1.386 . S
C1188 C1191 1.388 . S
C1189 C1188 1.386 . S
C1189 C1190 1.382 . S
C1189 H1215 0.950 . S
C1190 N1187 1.332 . S
C1190 C1189 1.382 . S
C1190 H1201 0.952 . S
C1191 C1188 1.388 . S
C1191 C1192 1.382 . S
C1191 H1216 0.950 . S
C1192 N1187 1.332 . S
C1192 C1191 1.382 . S
C1192 H1202 0.948 . S
N1193 Co1171 2.282 1_655 S
N1193 C1197 1.332 . S
N1193 C1198 1.332 . S
C1194 C1195 1.388 . S
C1194 C1198 1.382 . S
C1194 H1217 0.950 . S
C1195 C1194 1.388 . S
C1195 C1196 1.386 . S
C1196 C1195 1.386 . S
C1196 C1197 1.382 . S
C1196 H1218 0.950 . S
C1197 N1193 1.332 . S
C1197 C1196 1.382 . S
C1197 H1199 0.952 . S
C1198 N1193 1.332 . S
C1198 C1194 1.382 . S
C1198 H1200 0.948 . S
H1199 C1197 0.952 . S
H1200 C1198 0.948 . S
H1201 C1190 0.952 . S
H1202 C1192 0.948 . S
C1203 C1169 1.395 . S
C1203 C1173 1.391 . S
C1204 C1166 1.389 . S
C1204 C1186 1.392 1_655 S
C1205 C1176 1.392 1_455 S
C1205 C1178 1.389 . S
C1206 C1181 1.395 . S
C1206 C1183 1.391 . S
H1207 C1167 0.951 . S
H1208 C1168 0.950 . S
H1209 C1174 0.949 . S
H1210 C1175 0.950 . S
H1211 C1179 0.951 . S
H1212 C1180 0.950 . S
H1213 C1184 0.949 . S
H1214 C1185 0.950 . S
H1215 C1189 0.950 . S
H1216 C1191 0.950 . S
H1217 C1194 0.950 . S
H1218 C1196 0.950 . S
C1219 C1220 1.443 . S
C1219 N1223 1.376 . S
C1219 C1257 1.389 . S
C1220 C1219 1.443 . S
C1220 C1221 1.340 1_565 S
C1220 H1260 0.951 . S
C1221 C1220 1.340 1_545 S
C1221 C1222 1.439 . S
C1221 H1261 0.950 . S
C1222 C1221 1.439 . S
C1222 N1223 1.374 1_545 S
C1222 C1256 1.395 . S
N1223 C1219 1.376 . S
N1223 C1222 1.374 1_565 S
N1223 Co1224 2.008 . S
Co1224 N1223 2.008 . S
Co1224 N1225 1.995 1_565 S
Co1224 N1230 2.008 . S
Co1224 N1235 1.995 . S
Co1224 N1240 2.282 1_565 S
Co1224 N1246 2.282 . S
N1225 Co1224 1.995 1_545 S
N1225 C1226 1.376 . S
N1225 C1229 1.383 . S
C1226 N1225 1.376 . S
C1226 C1227 1.446 . S
C1226 C1256 1.391 . S
C1227 C1226 1.446 . S
C1227 C1228 1.339 . S
C1227 H1262 0.949 . S
C1228 C1227 1.339 . S
C1228 C1229 1.439 . S
C1228 H1263 0.950 . S
C1229 N1225 1.383 . S
C1229 C1228 1.439 . S
C1229 C1258 1.392 . S
N1230 Co1224 2.008 . S
N1230 C1231 1.376 . S
N1230 C1234 1.374 . S
C1231 N1230 1.376 . S
C1231 C1232 1.443 . S
C1231 C1258 1.389 1_565 S
C1232 C1231 1.443 . S
C1232 C1233 1.340 . S
C1232 H1264 0.951 . S
C1233 C1232 1.340 . S
C1233 C1234 1.439 . S
C1233 H1265 0.950 . S
C1234 N1230 1.374 . S
C1234 C1233 1.439 . S
C1234 C1259 1.395 . S
N1235 Co1224 1.995 . S
N1235 C1236 1.376 . S
N1235 C1239 1.383 . S
C1236 N1235 1.376 . S
C1236 C1237 1.446 . S
C1236 C1259 1.391 . S
C1237 C1236 1.446 . S
C1237 C1238 1.339 . S
C1237 H1266 0.949 . S
C1238 C1237 1.339 . S
C1238 C1239 1.439 . S
C1238 H1267 0.950 . S
C1239 N1235 1.383 . S
C1239 C1238 1.439 . S
C1239 C1257 1.392 . S
N1240 Co1224 2.282 1_545 S
N1240 C1243 1.332 1_545 S
N1240 C1245 1.332 . S
C1241 C1242 1.386 . S
C1241 C1244 1.388 . S
C1242 C1241 1.386 . S
C1242 C1243 1.382 1_545 S
C1242 H1268 0.951 1_545 S
C1243 N1240 1.332 1_565 S
C1243 C1242 1.382 1_565 S
C1243 H1254 0.952 . S
C1244 C1241 1.388 . S
C1244 C1245 1.382 . S
C1244 H1269 0.950 . S
C1245 N1240 1.332 . S
C1245 C1244 1.382 . S
C1245 H1255 0.948 . S
N1246 Co1224 2.282 . S
N1246 C1250 1.332 . S
N1246 C1251 1.332 . S
C1247 C1248 1.388 . S
C1247 C1251 1.382 . S
C1247 H1270 0.950 . S
C1248 C1247 1.388 . S
C1248 C1249 1.386 . S
C1249 C1248 1.386 . S
C1249 C1250 1.382 . S
C1249 H1271 0.950 . S
C1250 N1246 1.332 . S
C1250 C1249 1.382 . S
C1250 H1252 0.952 . S
C1251 N1246 1.332 . S
C1251 C1247 1.382 . S
C1251 H1253 0.948 . S
H1252 C1250 0.952 . S
H1253 C1251 0.948 . S
H1254 C1243 0.952 . S
H1255 C1245 0.948 . S
C1256 C1222 1.395 . S
C1256 C1226 1.391 . S
C1257 C1219 1.389 . S
C1257 C1239 1.392 . S
C1258 C1229 1.392 . S
C1258 C1231 1.389 1_545 S
C1259 C1234 1.395 . S
C1259 C1236 1.391 . S
H1260 C1220 0.951 . S
H1261 C1221 0.950 . S
H1262 C1227 0.949 . S
H1263 C1228 0.950 . S
H1264 C1232 0.951 . S
H1265 C1233 0.950 . S
H1266 C1237 0.949 . S
H1267 C1238 0.950 . S
H1268 C1242 0.951 1_565 S
H1269 C1244 0.950 . S
H1270 C1247 0.950 . S
H1271 C1249 0.950 . S
C1272 C1273 1.443 . S
C1272 N1276 1.376 . S
C1272 C1310 1.389 1_655 S
C1273 C1272 1.443 . S
C1273 C1274 1.340 . S
C1273 H1313 0.951 . S
C1274 C1273 1.340 . S
C1274 C1275 1.439 . S
C1274 H1314 0.950 . S
C1275 C1274 1.439 . S
C1275 N1276 1.374 . S
C1275 C1309 1.395 . S
N1276 C1272 1.376 . S
N1276 C1275 1.374 . S
N1276 Co1277 2.008 . S
Co1277 N1276 2.008 . S
Co1277 N1278 1.995 . S
Co1277 N1283 2.008 1_655 S
Co1277 N1288 1.995 1_655 S
Co1277 N1293 2.282 . S
Co1277 N1299 2.282 1_655 S
N1278 Co1277 1.995 . S
N1278 C1279 1.376 . S
N1278 C1282 1.383 . S
C1279 N1278 1.376 . S
C1279 C1280 1.446 . S
C1279 C1309 1.391 . S
C1280 C1279 1.446 . S
C1280 C1281 1.339 . S
C1280 H1315 0.949 . S
C1281 C1280 1.339 . S
C1281 C1282 1.439 . S
C1281 H1316 0.950 . S
C1282 N1278 1.383 . S
C1282 C1281 1.439 . S
C1282 C1311 1.392 . S
N1283 Co1277 2.008 1_455 S
N1283 C1284 1.376 . S
N1283 C1287 1.374 . S
C1284 N1283 1.376 . S
C1284 C1285 1.443 . S
C1284 C1311 1.389 1_455 S
C1285 C1284 1.443 . S
C1285 C1286 1.340 . S
C1285 H1317 0.951 . S
C1286 C1285 1.340 . S
C1286 C1287 1.439 . S
C1286 H1318 0.950 . S
C1287 N1283 1.374 . S
C1287 C1286 1.439 . S
C1287 C1312 1.395 . S
N1288 Co1277 1.995 1_455 S
N1288 C1289 1.376 . S
N1288 C1292 1.383 . S
C1289 N1288 1.376 . S
C1289 C1290 1.446 . S
C1289 C1312 1.391 . S
C1290 C1289 1.446 . S
C1290 C1291 1.339 . S
C1290 H1319 0.949 . S
C1291 C1290 1.339 . S
C1291 C1292 1.439 . S
C1291 H1320 0.950 . S
C1292 N1288 1.383 . S
C1292 C1291 1.439 . S
C1292 C1310 1.392 . S
N1293 Co1277 2.282 . S
N1293 C1296 1.332 . S
N1293 C1298 1.332 . S
C1294 C1295 1.386 . S
C1294 C1297 1.388 . S
C1295 C1294 1.386 . S
C1295 C1296 1.382 . S
C1295 H1321 0.950 . S
C1296 N1293 1.332 . S
C1296 C1295 1.382 . S
C1296 H1307 0.952 . S
C1297 C1294 1.388 . S
C1297 C1298 1.382 . S
C1297 H1322 0.950 . S
C1298 N1293 1.332 . S
C1298 C1297 1.382 . S
C1298 H1308 0.948 . S
N1299 Co1277 2.282 1_455 S
N1299 C1303 1.332 . S
N1299 C1304 1.332 . S
C1300 C1301 1.388 . S
C1300 C1304 1.382 . S
C1300 H1323 0.950 . S
C1301 C1300 1.388 . S
C1301 C1302 1.386 . S
C1302 C1301 1.386 . S
C1302 C1303 1.382 . S
C1302 H1324 0.950 . S
C1303 N1299 1.332 . S
C1303 C1302 1.382 . S
C1303 H1305 0.952 . S
C1304 N1299 1.332 . S
C1304 C1300 1.382 . S
C1304 H1306 0.948 . S
H1305 C1303 0.952 . S
H1306 C1304 0.948 . S
H1307 C1296 0.952 . S
H1308 C1298 0.948 . S
C1309 C1275 1.395 . S
C1309 C1279 1.391 . S
C1310 C1272 1.389 1_455 S
C1310 C1292 1.392 . S
C1311 C1282 1.392 . S
C1311 C1284 1.389 1_655 S
C1312 C1287 1.395 . S
C1312 C1289 1.391 . S
H1313 C1273 0.951 . S
H1314 C1274 0.950 . S
H1315 C1280 0.949 . S
H1316 C1281 0.950 . S
H1317 C1285 0.951 . S
H1318 C1286 0.950 . S
H1319 C1290 0.949 . S
H1320 C1291 0.950 . S
H1321 C1295 0.950 . S
H1322 C1297 0.950 . S
H1323 C1300 0.950 . S
H1324 C1302 0.950 . S
C1325 C1326 1.443 . S
C1325 N1329 1.376 . S
C1325 C1363 1.389 . S
C1326 C1325 1.443 . S
C1326 C1327 1.340 . S
C1326 H1366 0.951 . S
C1327 C1326 1.340 . S
C1327 C1328 1.439 . S
C1327 H1367 0.950 . S
C1328 C1327 1.439 . S
C1328 N1329 1.374 . S
C1328 C1362 1.395 . S
N1329 C1325 1.376 . S
N1329 C1328 1.374 . S
N1329 Co1330 2.008 . S
Co1330 N1329 2.008 . S
Co1330 N1331 1.995 . S
Co1330 N1336 2.008 . S
Co1330 N1341 1.995 . S
Co1330 N1346 2.282 . S
Co1330 N1352 2.282 . S
N1331 Co1330 1.995 . S
N1331 C1332 1.376 . S
N1331 C1335 1.383 . S
C1332 N1331 1.376 . S
C1332 C1333 1.446 . S
C1332 C1362 1.391 . S
C1333 C1332 1.446 . S
C1333 C1334 1.339 . S
C1333 H1368 0.949 . S
C1334 C1333 1.339 . S
C1334 C1335 1.439 . S
C1334 H1369 0.950 . S
C1335 N1331 1.383 . S
C1335 C1334 1.439 . S
C1335 C1364 1.392 . S
N1336 Co1330 2.008 . S
N1336 C1337 1.376 . S
N1336 C1340 1.374 . S
C1337 N1336 1.376 . S
C1337 C1338 1.443 . S
C1337 C1364 1.389 . S
C1338 C1337 1.443 . S
C1338 C1339 1.340 . S
C1338 H1370 0.951 . S
C1339 C1338 1.340 . S
C1339 C1340 1.439 . S
C1339 H1371 0.950 . S
C1340 N1336 1.374 . S
C1340 C1339 1.439 . S
C1340 C1365 1.395 . S
N1341 Co1330 1.995 . S
N1341 C1342 1.376 . S
N1341 C1345 1.383 . S
C1342 N1341 1.376 . S
C1342 C1343 1.446 . S
C1342 C1365 1.391 . S
C1343 C1342 1.446 . S
C1343 C1344 1.339 . S
C1343 H1372 0.949 . S
C1344 C1343 1.339 . S
C1344 C1345 1.439 . S
C1344 H1373 0.950 . S
C1345 N1341 1.383 . S
C1345 C1344 1.439 . S
C1345 C1363 1.392 . S
N1346 Co1330 2.282 . S
N1346 C1349 1.332 . S
N1346 C1351 1.332 . S
C1347 C1348 1.386 . S
C1347 C1350 1.388 . S
C1348 C1347 1.386 . S
C1348 C1349 1.382 . S
C1348 H1374 0.950 . S
C1349 N1346 1.332 . S
C1349 C1348 1.382 . S
C1349 H1360 0.952 . S
C1350 C1347 1.388 . S
C1350 C1351 1.382 . S
C1350 H1375 0.950 . S
C1351 N1346 1.332 . S
C1351 C1350 1.382 . S
C1351 H1361 0.948 . S
N1352 Co1330 2.282 . S
N1352 C1356 1.332 . S
N1352 C1357 1.332 . S
C1353 C1354 1.388 . S
C1353 C1357 1.382 . S
C1353 H1376 0.950 . S
C1354 C1353 1.388 . S
C1354 C1355 1.386 . S
C1355 C1354 1.386 . S
C1355 C1356 1.382 . S
C1355 H1377 0.950 . S
C1356 N1352 1.332 . S
C1356 C1355 1.382 . S
C1356 H1358 0.952 . S
C1357 N1352 1.332 . S
C1357 C1353 1.382 . S
C1357 H1359 0.948 . S
H1358 C1356 0.952 . S
H1359 C1357 0.948 . S
H1360 C1349 0.952 . S
H1361 C1351 0.948 . S
C1362 C1328 1.395 . S
C1362 C1332 1.391 . S
C1363 C1325 1.389 . S
C1363 C1345 1.392 . S
C1364 C1335 1.392 . S
C1364 C1337 1.389 . S
C1365 C1340 1.395 . S
C1365 C1342 1.391 . S
H1366 C1326 0.951 . S
H1367 C1327 0.950 . S
H1368 C1333 0.949 . S
H1369 C1334 0.950 . S
H1370 C1338 0.951 . S
H1371 C1339 0.950 . S
H1372 C1343 0.949 . S
H1373 C1344 0.950 . S
H1374 C1348 0.950 . S
H1375 C1350 0.950 . S
H1376 C1353 0.950 . S
H1377 C1355 0.950 . S
C1378 C1379 1.443 . S
C1378 N1382 1.376 . S
C1378 C1416 1.389 1_655 S
C1379 C1378 1.443 . S
C1379 C1380 1.340 . S
C1379 H1419 0.951 . S
C1380 C1379 1.340 . S
C1380 C1381 1.439 . S
C1380 H1420 0.950 . S
C1381 C1380 1.439 . S
C1381 N1382 1.374 . S
C1381 C1415 1.395 . S
N1382 C1378 1.376 . S
N1382 C1381 1.374 . S
N1382 Co1383 2.008 . S
Co1383 N1382 2.008 . S
Co1383 N1384 1.995 . S
Co1383 N1389 2.008 1_655 S
Co1383 N1394 1.995 1_655 S
Co1383 N1399 2.282 . S
Co1383 N1405 2.282 1_655 S
N1384 Co1383 1.995 . S
N1384 C1385 1.376 . S
N1384 C1388 1.383 . S
C1385 N1384 1.376 . S
C1385 C1386 1.446 . S
C1385 C1415 1.391 . S
C1386 C1385 1.446 . S
C1386 C1387 1.339 . S
C1386 H1421 0.949 . S
C1387 C1386 1.339 . S
C1387 C1388 1.439 . S
C1387 H1422 0.950 . S
C1388 N1384 1.383 . S
C1388 C1387 1.439 . S
C1388 C1417 1.392 . S
N1389 Co1383 2.008 1_455 S
N1389 C1390 1.376 . S
N1389 C1393 1.374 . S
C1390 N1389 1.376 . S
C1390 C1391 1.443 . S
C1390 C1417 1.389 1_455 S
C1391 C1390 1.443 . S
C1391 C1392 1.340 . S
C1391 H1423 0.951 . S
C1392 C1391 1.340 . S
C1392 C1393 1.439 . S
C1392 H1424 0.950 . S
C1393 N1389 1.374 . S
C1393 C1392 1.439 . S
C1393 C1418 1.395 . S
N1394 Co1383 1.995 1_455 S
N1394 C1395 1.376 . S
N1394 C1398 1.383 . S
C1395 N1394 1.376 . S
C1395 C1396 1.446 . S
C1395 C1418 1.391 . S
C1396 C1395 1.446 . S
C1396 C1397 1.339 . S
C1396 H1425 0.949 . S
C1397 C1396 1.339 . S
C1397 C1398 1.439 . S
C1397 H1426 0.950 . S
C1398 N1394 1.383 . S
C1398 C1397 1.439 . S
C1398 C1416 1.392 . S
N1399 Co1383 2.282 . S
N1399 C1402 1.332 . S
N1399 C1404 1.332 . S
C1400 C1401 1.386 . S
C1400 C1403 1.388 . S
C1401 C1400 1.386 . S
C1401 C1402 1.382 . S
C1401 H1427 0.950 . S
C1402 N1399 1.332 . S
C1402 C1401 1.382 . S
C1402 H1413 0.952 . S
C1403 C1400 1.388 . S
C1403 C1404 1.382 . S
C1403 H1428 0.950 . S
C1404 N1399 1.332 . S
C1404 C1403 1.382 . S
C1404 H1414 0.948 . S
N1405 Co1383 2.282 1_455 S
N1405 C1409 1.332 . S
N1405 C1410 1.332 . S
C1406 C1407 1.388 . S
C1406 C1410 1.382 . S
C1406 H1429 0.950 . S
C1407 C1406 1.388 . S
C1407 C1408 1.386 . S
C1408 C1407 1.386 . S
C1408 C1409 1.382 . S
C1408 H1430 0.950 . S
C1409 N1405 1.332 . S
C1409 C1408 1.382 . S
C1409 H1411 0.952 . S
C1410 N1405 1.332 . S
C1410 C1406 1.382 . S
C1410 H1412 0.948 . S
H1411 C1409 0.952 . S
H1412 C1410 0.948 . S
H1413 C1402 0.952 . S
H1414 C1404 0.948 . S
C1415 C1381 1.395 . S
C1415 C1385 1.391 . S
C1416 C1378 1.389 1_455 S
C1416 C1398 1.392 . S
C1417 C1388 1.392 . S
C1417 C1390 1.389 1_655 S
C1418 C1393 1.395 . S
C1418 C1395 1.391 . S
H1419 C1379 0.951 . S
H1420 C1380 0.950 . S
H1421 C1386 0.949 . S
H1422 C1387 0.950 . S
H1423 C1391 0.951 . S
H1424 C1392 0.950 . S
H1425 C1396 0.949 . S
H1426 C1397 0.950 . S
H1427 C1401 0.950 . S
H1428 C1403 0.950 . S
H1429 C1406 0.950 . S
H1430 C1408 0.950 . S
C1431 C1432 1.443 . S
C1431 N1435 1.376 . S
C1431 C1469 1.389 . S
C1432 C1431 1.443 . S
C1432 C1433 1.340 . S
C1432 H1472 0.951 . S
C1433 C1432 1.340 . S
C1433 C1434 1.439 . S
C1433 H1473 0.950 . S
C1434 C1433 1.439 . S
C1434 N1435 1.374 . S
C1434 C1468 1.395 . S
N1435 C1431 1.376 . S
N1435 C1434 1.374 . S
N1435 Co1436 2.008 . S
Co1436 N1435 2.008 . S
Co1436 N1437 1.995 . S
Co1436 N1442 2.008 . S
Co1436 N1447 1.995 . S
Co1436 N1452 2.282 . S
Co1436 N1458 2.282 . S
N1437 Co1436 1.995 . S
N1437 C1438 1.376 . S
N1437 C1441 1.383 . S
C1438 N1437 1.376 . S
C1438 C1439 1.446 . S
C1438 C1468 1.391 . S
C1439 C1438 1.446 . S
C1439 C1440 1.339 . S
C1439 H1474 0.949 . S
C1440 C1439 1.339 . S
C1440 C1441 1.439 . S
C1440 H1475 0.950 . S
C1441 N1437 1.383 . S
C1441 C1440 1.439 . S
C1441 C1470 1.392 . S
N1442 Co1436 2.008 . S
N1442 C1443 1.376 . S
N1442 C1446 1.374 . S
C1443 N1442 1.376 . S
C1443 C1444 1.443 . S
C1443 C1470 1.389 . S
C1444 C1443 1.443 . S
C1444 C1445 1.340 . S
C1444 H1476 0.951 . S
C1445 C1444 1.340 . S
C1445 C1446 1.439 . S
C1445 H1477 0.950 . S
C1446 N1442 1.374 . S
C1446 C1445 1.439 . S
C1446 C1471 1.395 . S
N1447 Co1436 1.995 . S
N1447 C1448 1.376 . S
N1447 C1451 1.383 . S
C1448 N1447 1.376 . S
C1448 C1449 1.446 . S
C1448 C1471 1.391 . S
C1449 C1448 1.446 . S
C1449 C1450 1.339 . S
C1449 H1478 0.949 . S
C1450 C1449 1.339 . S
C1450 C1451 1.439 . S
C1450 H1479 0.950 . S
C1451 N1447 1.383 . S
C1451 C1450 1.439 . S
C1451 C1469 1.392 . S
N1452 Co1436 2.282 . S
N1452 C1455 1.332 . S
N1452 C1457 1.332 . S
C1453 C1454 1.386 . S
C1453 C1456 1.388 . S
C1454 C1453 1.386 . S
C1454 C1455 1.382 . S
C1454 H1480 0.950 . S
C1455 N1452 1.332 . S
C1455 C1454 1.382 . S
C1455 H1466 0.952 . S
C1456 C1453 1.388 . S
C1456 C1457 1.382 . S
C1456 H1481 0.950 . S
C1457 N1452 1.332 . S
C1457 C1456 1.382 . S
C1457 H1467 0.948 . S
N1458 Co1436 2.282 . S
N1458 C1462 1.332 . S
N1458 C1463 1.332 . S
C1459 C1460 1.388 . S
C1459 C1463 1.382 . S
C1459 H1482 0.950 . S
C1460 C1459 1.388 . S
C1460 C1461 1.386 . S
C1461 C1460 1.386 . S
C1461 C1462 1.382 . S
C1461 H1483 0.950 . S
C1462 N1458 1.332 . S
C1462 C1461 1.382 . S
C1462 H1464 0.952 . S
C1463 N1458 1.332 . S
C1463 C1459 1.382 . S
C1463 H1465 0.948 . S
H1464 C1462 0.952 . S
H1465 C1463 0.948 . S
H1466 C1455 0.952 . S
H1467 C1457 0.948 . S
C1468 C1434 1.395 . S
C1468 C1438 1.391 . S
C1469 C1431 1.389 . S
C1469 C1451 1.392 . S
C1470 C1441 1.392 . S
C1470 C1443 1.389 . S
C1471 C1446 1.395 . S
C1471 C1448 1.391 . S
H1472 C1432 0.951 . S
H1473 C1433 0.950 . S
H1474 C1439 0.949 . S
H1475 C1440 0.950 . S
H1476 C1444 0.951 . S
H1477 C1445 0.950 . S
H1478 C1449 0.949 . S
H1479 C1450 0.950 . S
H1480 C1454 0.950 . S
H1481 C1456 0.950 . S
H1482 C1459 0.950 . S
H1483 C1461 0.950 . S
C1484 C1485 1.443 . S
C1484 N1488 1.376 . S
C1484 C1522 1.389 . S
C1485 C1484 1.443 . S
C1485 C1486 1.340 . S
C1485 H1525 0.951 . S
C1486 C1485 1.340 . S
C1486 C1487 1.439 . S
C1486 H1526 0.950 . S
C1487 C1486 1.439 . S
C1487 N1488 1.374 . S
C1487 C1521 1.395 . S
N1488 C1484 1.376 . S
N1488 C1487 1.374 . S
N1488 Co1489 2.008 1_655 S
Co1489 N1488 2.008 1_455 S
Co1489 N1490 1.995 1_455 S
Co1489 N1495 2.008 . S
Co1489 N1500 1.995 . S
Co1489 N1505 2.282 . S
Co1489 N1511 2.282 1_455 S
N1490 Co1489 1.995 1_655 S
N1490 C1491 1.376 . S
N1490 C1494 1.383 . S
C1491 N1490 1.376 . S
C1491 C1492 1.446 . S
C1491 C1521 1.391 . S
C1492 C1491 1.446 . S
C1492 C1493 1.339 . S
C1492 H1527 0.949 . S
C1493 C1492 1.339 . S
C1493 C1494 1.439 . S
C1493 H1528 0.950 . S
C1494 N1490 1.383 . S
C1494 C1493 1.439 . S
C1494 C1523 1.392 1_655 S
N1495 Co1489 2.008 . S
N1495 C1496 1.376 . S
N1495 C1499 1.374 . S
C1496 N1495 1.376 . S
C1496 C1497 1.443 . S
C1496 C1523 1.389 . S
C1497 C1496 1.443 . S
C1497 C1498 1.340 . S
C1497 H1529 0.951 . S
C1498 C1497 1.340 . S
C1498 C1499 1.439 . S
C1498 H1530 0.950 . S
C1499 N1495 1.374 . S
C1499 C1498 1.439 . S
C1499 C1524 1.395 . S
N1500 Co1489 1.995 . S
N1500 C1501 1.376 . S
N1500 C1504 1.383 . S
C1501 N1500 1.376 . S
C1501 C1502 1.446 . S
C1501 C1524 1.391 . S
C1502 C1501 1.446 . S
C1502 C1503 1.339 . S
C1502 H1531 0.949 . S
C1503 C1502 1.339 . S
C1503 C1504 1.439 . S
C1503 H1532 0.950 . S
C1504 N1500 1.383 . S
C1504 C1503 1.439 . S
C1504 C1522 1.392 1_455 S
N1505 Co1489 2.282 . S
N1505 C1508 1.332 . S
N1505 C1510 1.332 . S
C1506 C1507 1.386 . S
C1506 C1509 1.388 . S
C1507 C1506 1.386 . S
C1507 C1508 1.382 . S
C1507 H1533 0.950 . S
C1508 N1505 1.332 . S
C1508 C1507 1.382 . S
C1508 H1519 0.952 . S
C1509 C1506 1.388 . S
C1509 C1510 1.382 . S
C1509 H1534 0.950 . S
C1510 N1505 1.332 . S
C1510 C1509 1.382 . S
C1510 H1520 0.948 . S
N1511 Co1489 2.282 1_655 S
N1511 C1515 1.332 . S
N1511 C1516 1.332 . S
C1512 C1513 1.388 . S
C1512 C1516 1.382 . S
C1512 H1535 0.950 . S
C1513 C1512 1.388 . S
C1513 C1514 1.386 . S
C1514 C1513 1.386 . S
C1514 C1515 1.382 . S
C1514 H1536 0.950 . S
C1515 N1511 1.332 . S
C1515 C1514 1.382 . S
C1515 H1517 0.952 . S
C1516 N1511 1.332 . S
C1516 C1512 1.382 . S
C1516 H1518 0.948 . S
H1517 C1515 0.952 . S
H1518 C1516 0.948 . S
H1519 C1508 0.952 . S
H1520 C1510 0.948 . S
C1521 C1487 1.395 . S
C1521 C1491 1.391 . S
C1522 C1484 1.389 . S
C1522 C1504 1.392 1_655 S
C1523 C1494 1.392 1_455 S
C1523 C1496 1.389 . S
C1524 C1499 1.395 . S
C1524 C1501 1.391 . S
H1525 C1485 0.951 . S
H1526 C1486 0.950 . S
H1527 C1492 0.949 . S
H1528 C1493 0.950 . S
H1529 C1497 0.951 . S
H1530 C1498 0.950 . S
H1531 C1502 0.949 . S
H1532 C1503 0.950 . S
H1533 C1507 0.950 . S
H1534 C1509 0.950 . S
H1535 C1512 0.950 . S
H1536 C1514 0.950 . S
C1537 C1538 1.443 . S
C1537 N1541 1.376 . S
C1537 C1575 1.389 . S
C1538 C1537 1.443 . S
C1538 C1539 1.340 . S
C1538 H1578 0.951 . S
C1539 C1538 1.340 . S
C1539 C1540 1.439 . S
C1539 H1579 0.950 . S
C1540 C1539 1.439 . S
C1540 N1541 1.374 . S
C1540 C1574 1.395 . S
N1541 C1537 1.376 . S
N1541 C1540 1.374 . S
N1541 Co1542 2.008 . S
Co1542 N1541 2.008 . S
Co1542 N1543 1.995 . S
Co1542 N1548 2.008 . S
Co1542 N1553 1.995 . S
Co1542 N1558 2.282 . S
Co1542 N1564 2.282 . S
N1543 Co1542 1.995 . S
N1543 C1544 1.376 . S
N1543 C1547 1.383 . S
C1544 N1543 1.376 . S
C1544 C1545 1.446 . S
C1544 C1574 1.391 . S
C1545 C1544 1.446 . S
C1545 C1546 1.339 . S
C1545 H1580 0.949 . S
C1546 C1545 1.339 . S
C1546 C1547 1.439 . S
C1546 H1581 0.950 . S
C1547 N1543 1.383 . S
C1547 C1546 1.439 . S
C1547 C1576 1.392 . S
N1548 Co1542 2.008 . S
N1548 C1549 1.376 . S
N1548 C1552 1.374 . S
C1549 N1548 1.376 . S
C1549 C1550 1.443 . S
C1549 C1576 1.389 . S
C1550 C1549 1.443 . S
C1550 C1551 1.340 . S
C1550 H1582 0.951 . S
C1551 C1550 1.340 . S
C1551 C1552 1.439 . S
C1551 H1583 0.950 . S
C1552 N1548 1.374 . S
C1552 C1551 1.439 . S
C1552 C1577 1.395 . S
N1553 Co1542 1.995 . S
N1553 C1554 1.376 . S
N1553 C1557 1.383 . S
C1554 N1553 1.376 . S
C1554 C1555 1.446 . S
C1554 C1577 1.391 . S
C1555 C1554 1.446 . S
C1555 C1556 1.339 . S
C1555 H1584 0.949 . S
C1556 C1555 1.339 . S
C1556 C1557 1.439 . S
C1556 H1585 0.950 . S
C1557 N1553 1.383 . S
C1557 C1556 1.439 . S
C1557 C1575 1.392 . S
N1558 Co1542 2.282 . S
N1558 C1561 1.332 . S
N1558 C1563 1.332 . S
C1559 C1560 1.386 . S
C1559 C1562 1.388 . S
C1560 C1559 1.386 . S
C1560 C1561 1.382 . S
C1560 H1586 0.950 . S
C1561 N1558 1.332 . S
C1561 C1560 1.382 . S
C1561 H1572 0.952 . S
C1562 C1559 1.388 . S
C1562 C1563 1.382 . S
C1562 H1587 0.950 . S
C1563 N1558 1.332 . S
C1563 C1562 1.382 . S
C1563 H1573 0.948 . S
N1564 Co1542 2.282 . S
N1564 C1568 1.332 . S
N1564 C1569 1.332 . S
C1565 C1566 1.388 . S
C1565 C1569 1.382 . S
C1565 H1588 0.950 . S
C1566 C1565 1.388 . S
C1566 C1567 1.386 . S
C1567 C1566 1.386 . S
C1567 C1568 1.382 . S
C1567 H1589 0.950 . S
C1568 N1564 1.332 . S
C1568 C1567 1.382 . S
C1568 H1570 0.952 . S
C1569 N1564 1.332 . S
C1569 C1565 1.382 . S
C1569 H1571 0.948 . S
H1570 C1568 0.952 . S
H1571 C1569 0.948 . S
H1572 C1561 0.952 . S
H1573 C1563 0.948 . S
C1574 C1540 1.395 . S
C1574 C1544 1.391 . S
C1575 C1537 1.389 . S
C1575 C1557 1.392 . S
C1576 C1547 1.392 . S
C1576 C1549 1.389 . S
C1577 C1552 1.395 . S
C1577 C1554 1.391 . S
H1578 C1538 0.951 . S
H1579 C1539 0.950 . S
H1580 C1545 0.949 . S
H1581 C1546 0.950 . S
H1582 C1550 0.951 . S
H1583 C1551 0.950 . S
H1584 C1555 0.949 . S
H1585 C1556 0.950 . S
H1586 C1560 0.950 . S
H1587 C1562 0.950 . S
H1588 C1565 0.950 . S
H1589 C1567 0.950 . S
C1590 C1591 1.443 . S
C1590 N1594 1.376 . S
C1590 C1628 1.389 . S
C1591 C1590 1.443 . S
C1591 C1592 1.340 . S
C1591 H1631 0.951 . S
C1592 C1591 1.340 . S
C1592 C1593 1.439 . S
C1592 H1632 0.950 . S
C1593 C1592 1.439 . S
C1593 N1594 1.374 . S
C1593 C1627 1.395 . S
N1594 C1590 1.376 . S
N1594 C1593 1.374 . S
N1594 Co1595 2.008 1_655 S
Co1595 N1594 2.008 1_455 S
Co1595 N1596 1.995 1_455 S
Co1595 N1601 2.008 . S
Co1595 N1606 1.995 . S
Co1595 N1611 2.282 . S
Co1595 N1617 2.282 1_455 S
N1596 Co1595 1.995 1_655 S
N1596 C1597 1.376 . S
N1596 C1600 1.383 . S
C1597 N1596 1.376 . S
C1597 C1598 1.446 . S
C1597 C1627 1.391 . S
C1598 C1597 1.446 . S
C1598 C1599 1.339 . S
C1598 H1633 0.949 . S
C1599 C1598 1.339 . S
C1599 C1600 1.439 . S
C1599 H1634 0.950 . S
C1600 N1596 1.383 . S
C1600 C1599 1.439 . S
C1600 C1629 1.392 1_655 S
N1601 Co1595 2.008 . S
N1601 C1602 1.376 . S
N1601 C1605 1.374 . S
C1602 N1601 1.376 . S
C1602 C1603 1.443 . S
C1602 C1629 1.389 . S
C1603 C1602 1.443 . S
C1603 C1604 1.340 . S
C1603 H1635 0.951 . S
C1604 C1603 1.340 . S
C1604 C1605 1.439 . S
C1604 H1636 0.950 . S
C1605 N1601 1.374 . S
C1605 C1604 1.439 . S
C1605 C1630 1.395 . S
N1606 Co1595 1.995 . S
N1606 C1607 1.376 . S
N1606 C1610 1.383 . S
C1607 N1606 1.376 . S
C1607 C1608 1.446 . S
C1607 C1630 1.391 . S
C1608 C1607 1.446 . S
C1608 C1609 1.339 . S
C1608 H1637 0.949 . S
C1609 C1608 1.339 . S
C1609 C1610 1.439 . S
C1609 H1638 0.950 . S
C1610 N1606 1.383 . S
C1610 C1609 1.439 . S
C1610 C1628 1.392 1_455 S
N1611 Co1595 2.282 . S
N1611 C1614 1.332 . S
N1611 C1616 1.332 . S
C1612 C1613 1.386 . S
C1612 C1615 1.388 . S
C1613 C1612 1.386 . S
C1613 C1614 1.382 . S
C1613 H1639 0.950 . S
C1614 N1611 1.332 . S
C1614 C1613 1.382 . S
C1614 H1625 0.952 . S
C1615 C1612 1.388 . S
C1615 C1616 1.382 . S
C1615 H1640 0.950 . S
C1616 N1611 1.332 . S
C1616 C1615 1.382 . S
C1616 H1626 0.948 . S
N1617 Co1595 2.282 1_655 S
N1617 C1621 1.332 . S
N1617 C1622 1.332 . S
C1618 C1619 1.388 . S
C1618 C1622 1.382 . S
C1618 H1641 0.950 . S
C1619 C1618 1.388 . S
C1619 C1620 1.386 . S
C1620 C1619 1.386 . S
C1620 C1621 1.382 . S
C1620 H1642 0.950 . S
C1621 N1617 1.332 . S
C1621 C1620 1.382 . S
C1621 H1623 0.952 . S
C1622 N1617 1.332 . S
C1622 C1618 1.382 . S
C1622 H1624 0.948 . S
H1623 C1621 0.952 . S
H1624 C1622 0.948 . S
H1625 C1614 0.952 . S
H1626 C1616 0.948 . S
C1627 C1593 1.395 . S
C1627 C1597 1.391 . S
C1628 C1590 1.389 . S
C1628 C1610 1.392 1_655 S
C1629 C1600 1.392 1_455 S
C1629 C1602 1.389 . S
C1630 C1605 1.395 . S
C1630 C1607 1.391 . S
H1631 C1591 0.951 . S
H1632 C1592 0.950 . S
H1633 C1598 0.949 . S
H1634 C1599 0.950 . S
H1635 C1603 0.951 . S
H1636 C1604 0.950 . S
H1637 C1608 0.949 . S
H1638 C1609 0.950 . S
H1639 C1613 0.950 . S
H1640 C1615 0.950 . S
H1641 C1618 0.950 . S
H1642 C1620 0.950 . S
C1643 C1644 1.443 . S
C1643 N1647 1.376 . S
C1643 C1681 1.389 . S
C1644 C1643 1.443 . S
C1644 C1645 1.340 . S
C1644 H1684 0.951 . S
C1645 C1644 1.340 . S
C1645 C1646 1.439 . S
C1645 H1685 0.950 . S
C1646 C1645 1.439 . S
C1646 N1647 1.374 . S
C1646 C1680 1.395 . S
N1647 C1643 1.376 . S
N1647 C1646 1.374 . S
N1647 Co1648 2.008 . S
Co1648 N1647 2.008 . S
Co1648 N1649 1.995 . S
Co1648 N1654 2.008 . S
Co1648 N1659 1.995 . S
Co1648 N1664 2.282 . S
Co1648 N1670 2.282 . S
N1649 Co1648 1.995 . S
N1649 C1650 1.376 . S
N1649 C1653 1.383 . S
C1650 N1649 1.376 . S
C1650 C1651 1.446 . S
C1650 C1680 1.391 . S
C1651 C1650 1.446 . S
C1651 C1652 1.339 . S
C1651 H1686 0.949 . S
C1652 C1651 1.339 . S
C1652 C1653 1.439 . S
C1652 H1687 0.950 . S
C1653 N1649 1.383 . S
C1653 C1652 1.439 . S
C1653 C1682 1.392 . S
N1654 Co1648 2.008 . S
N1654 C1655 1.376 . S
N1654 C1658 1.374 . S
C1655 N1654 1.376 . S
C1655 C1656 1.443 . S
C1655 C1682 1.389 . S
C1656 C1655 1.443 . S
C1656 C1657 1.340 . S
C1656 H1688 0.951 . S
C1657 C1656 1.340 . S
C1657 C1658 1.439 . S
C1657 H1689 0.950 . S
C1658 N1654 1.374 . S
C1658 C1657 1.439 . S
C1658 C1683 1.395 . S
N1659 Co1648 1.995 . S
N1659 C1660 1.376 . S
N1659 C1663 1.383 . S
C1660 N1659 1.376 . S
C1660 C1661 1.446 . S
C1660 C1683 1.391 . S
C1661 C1660 1.446 . S
C1661 C1662 1.339 . S
C1661 H1690 0.949 . S
C1662 C1661 1.339 . S
C1662 C1663 1.439 . S
C1662 H1691 0.950 . S
C1663 N1659 1.383 . S
C1663 C1662 1.439 . S
C1663 C1681 1.392 . S
N1664 Co1648 2.282 . S
N1664 C1667 1.332 . S
N1664 C1669 1.332 . S
C1665 C1666 1.386 . S
C1665 C1668 1.388 . S
C1666 C1665 1.386 . S
C1666 C1667 1.382 . S
C1666 H1692 0.950 . S
C1667 N1664 1.332 . S
C1667 C1666 1.382 . S
C1667 H1678 0.952 . S
C1668 C1665 1.388 . S
C1668 C1669 1.382 . S
C1668 H1693 0.950 . S
C1669 N1664 1.332 . S
C1669 C1668 1.382 . S
C1669 H1679 0.948 . S
N1670 Co1648 2.282 . S
N1670 C1674 1.332 . S
N1670 C1675 1.332 . S
C1671 C1672 1.388 . S
C1671 C1675 1.382 . S
C1671 H1694 0.950 . S
C1672 C1671 1.388 . S
C1672 C1673 1.386 . S
C1673 C1672 1.386 . S
C1673 C1674 1.382 . S
C1673 H1695 0.950 . S
C1674 N1670 1.332 . S
C1674 C1673 1.382 . S
C1674 H1676 0.952 . S
C1675 N1670 1.332 . S
C1675 C1671 1.382 . S
C1675 H1677 0.948 . S
H1676 C1674 0.952 . S
H1677 C1675 0.948 . S
H1678 C1667 0.952 . S
H1679 C1669 0.948 . S
C1680 C1646 1.395 . S
C1680 C1650 1.391 . S
C1681 C1643 1.389 . S
C1681 C1663 1.392 . S
C1682 C1653 1.392 . S
C1682 C1655 1.389 . S
C1683 C1658 1.395 . S
C1683 C1660 1.391 . S
H1684 C1644 0.951 . S
H1685 C1645 0.950 . S
H1686 C1651 0.949 . S
H1687 C1652 0.950 . S
H1688 C1656 0.951 . S
H1689 C1657 0.950 . S
H1690 C1661 0.949 . S
H1691 C1662 0.950 . S
H1692 C1666 0.950 . S
H1693 C1668 0.950 . S
H1694 C1671 0.950 . S
H1695 C1673 0.950 . S
H1696 C1704 0.929 . S
H1697 C1706 0.930 . S
H1698 C1708 0.930 . S
H1699 C1711 0.929 . S
H1700 C1714 0.930 . S
H1701 C1716 0.960 . S
H1702 C1716 0.960 . S
H1703 C1716 0.960 . S
C1704 H1696 0.929 . S
C1704 C1705 1.377 . S
C1704 C1706 1.384 . S
C1705 C1704 1.377 . S
C1705 C1711 1.390 . S
C1706 H1697 0.930 . S
C1706 C1704 1.384 . S
C1706 C1707 1.372 . S
C1707 C1706 1.372 . S
C1707 C1708 1.400 . S
C1707 C1712 1.490 . S
C1708 H1698 0.930 . S
C1708 C1707 1.400 . S
C1708 C1711 1.386 . S
H1709 C1725 0.930 . S
H1710 C1726 0.931 . S
C1711 H1699 0.929 . S
C1711 C1705 1.390 . S
C1711 C1708 1.386 . S
C1712 C1707 1.490 . S
C1712 C1714 1.395 . S
C1712 C1715 1.403 . S
H1713 C1719 0.930 . S
C1714 H1700 0.930 . S
C1714 C1712 1.395 . S
C1714 C1717 1.403 . S
C1715 C1712 1.403 . S
C1715 C1716 1.524 . S
C1715 C1719 1.400 . S
C1716 H1701 0.960 . S
C1716 H1702 0.960 . S
C1716 H1703 0.960 . S
C1716 C1715 1.524 . S
C1717 C1714 1.403 . S
C1717 C1718 1.392 . S
C1717 C1721 1.495 . S
C1718 C1717 1.392 . S
C1718 C1719 1.385 . S
C1718 C1720 1.478 . S
C1719 H1713 0.930 . S
C1719 C1715 1.400 . S
C1719 C1718 1.385 . S
C1720 C1718 1.478 . S
C1720 C1722 1.381 . S
C1720 C1726 1.383 . S
C1721 C1717 1.495 . S
C1721 H1727 0.959 . S
C1721 H1728 0.961 . S
C1721 H1729 0.960 . S
C1722 C1720 1.381 . S
C1722 C1723 1.394 . S
C1722 H1730 0.930 . S
C1723 C1722 1.394 . S
C1723 C1724 1.383 . S
C1723 H1731 0.929 . S
C1724 C1723 1.383 . S
C1724 C1725 1.377 . S
C1725 H1709 0.930 . S
C1725 C1724 1.377 . S
C1725 C1726 1.379 . S
C1726 H1710 0.931 . S
C1726 C1720 1.383 . S
C1726 C1725 1.379 . S
H1727 C1721 0.959 . S
H1728 C1721 0.961 . S
H1729 C1721 0.960 . S
H1730 C1722 0.930 . S
H1731 C1723 0.929 . S
H1732 C1740 0.929 . S
H1733 C1742 0.930 . S
H1734 C1744 0.930 . S
H1735 C1747 0.929 . S
H1736 C1750 0.930 . S
H1737 C1752 0.960 . S
H1738 C1752 0.960 . S
H1739 C1752 0.960 . S
C1740 H1732 0.929 . S
C1740 C1741 1.377 . S
C1740 C1742 1.384 . S
C1741 C1740 1.377 . S
C1741 C1747 1.390 . S
C1742 H1733 0.930 . S
C1742 C1740 1.384 . S
C1742 C1743 1.372 . S
C1743 C1742 1.372 . S
C1743 C1744 1.400 . S
C1743 C1748 1.490 . S
C1744 H1734 0.930 . S
C1744 C1743 1.400 . S
C1744 C1747 1.386 . S
H1745 C1761 0.930 . S
H1746 C1762 0.931 . S
C1747 H1735 0.929 . S
C1747 C1741 1.390 . S
C1747 C1744 1.386 . S
C1748 C1743 1.490 . S
C1748 C1750 1.395 . S
C1748 C1751 1.403 . S
H1749 C1755 0.930 . S
C1750 H1736 0.930 . S
C1750 C1748 1.395 . S
C1750 C1753 1.403 . S
C1751 C1748 1.403 . S
C1751 C1752 1.524 . S
C1751 C1755 1.400 . S
C1752 H1737 0.960 . S
C1752 H1738 0.960 . S
C1752 H1739 0.960 . S
C1752 C1751 1.524 . S
C1753 C1750 1.403 . S
C1753 C1754 1.392 . S
C1753 C1757 1.495 . S
C1754 C1753 1.392 . S
C1754 C1755 1.385 . S
C1754 C1756 1.478 . S
C1755 H1749 0.930 . S
C1755 C1751 1.400 . S
C1755 C1754 1.385 . S
C1756 C1754 1.478 . S
C1756 C1758 1.381 . S
C1756 C1762 1.383 . S
C1757 C1753 1.495 . S
C1757 H1763 0.959 . S
C1757 H1764 0.961 . S
C1757 H1765 0.960 . S
C1758 C1756 1.381 . S
C1758 C1759 1.394 . S
C1758 H1766 0.930 . S
C1759 C1758 1.394 . S
C1759 C1760 1.383 . S
C1759 H1767 0.929 . S
C1760 C1759 1.383 . S
C1760 C1761 1.377 . S
C1761 H1745 0.930 . S
C1761 C1760 1.377 . S
C1761 C1762 1.379 . S
C1762 H1746 0.931 . S
C1762 C1756 1.383 . S
C1762 C1761 1.379 . S
H1763 C1757 0.959 . S
H1764 C1757 0.961 . S
H1765 C1757 0.960 . S
H1766 C1758 0.930 . S
H1767 C1759 0.929 . S
H1768 C1776 0.929 . S
H1769 C1778 0.930 . S
H1770 C1780 0.930 . S
H1771 C1783 0.929 . S
H1772 C1786 0.930 . S
H1773 C1788 0.960 . S
H1774 C1788 0.960 . S
H1775 C1788 0.960 . S
C1776 H1768 0.929 . S
C1776 C1777 1.377 . S
C1776 C1778 1.384 . S
C1777 C1776 1.377 . S
C1777 C1783 1.390 . S
C1778 H1769 0.930 . S
C1778 C1776 1.384 . S
C1778 C1779 1.372 . S
C1779 C1778 1.372 . S
C1779 C1780 1.400 . S
C1779 C1784 1.490 . S
C1780 H1770 0.930 . S
C1780 C1779 1.400 . S
C1780 C1783 1.386 . S
H1781 C1797 0.930 . S
H1782 C1798 0.931 . S
C1783 H1771 0.929 . S
C1783 C1777 1.390 . S
C1783 C1780 1.386 . S
C1784 C1779 1.490 . S
C1784 C1786 1.395 . S
C1784 C1787 1.403 . S
H1785 C1791 0.930 . S
C1786 H1772 0.930 . S
C1786 C1784 1.395 . S
C1786 C1789 1.403 . S
C1787 C1784 1.403 . S
C1787 C1788 1.524 . S
C1787 C1791 1.400 . S
C1788 H1773 0.960 . S
C1788 H1774 0.960 . S
C1788 H1775 0.960 . S
C1788 C1787 1.524 . S
C1789 C1786 1.403 . S
C1789 C1790 1.392 . S
C1789 C1793 1.495 . S
C1790 C1789 1.392 . S
C1790 C1791 1.385 . S
C1790 C1792 1.478 . S
C1791 H1785 0.930 . S
C1791 C1787 1.400 . S
C1791 C1790 1.385 . S
C1792 C1790 1.478 . S
C1792 C1794 1.381 . S
C1792 C1798 1.383 . S
C1793 C1789 1.495 . S
C1793 H1799 0.959 . S
C1793 H1800 0.961 . S
C1793 H1801 0.960 . S
C1794 C1792 1.381 . S
C1794 C1795 1.394 . S
C1794 H1802 0.930 . S
C1795 C1794 1.394 . S
C1795 C1796 1.383 . S
C1795 H1803 0.929 . S
C1796 C1795 1.383 . S
C1796 C1797 1.377 . S
C1797 H1781 0.930 . S
C1797 C1796 1.377 . S
C1797 C1798 1.379 . S
C1798 H1782 0.931 . S
C1798 C1792 1.383 . S
C1798 C1797 1.379 . S
H1799 C1793 0.959 . S
H1800 C1793 0.961 . S
H1801 C1793 0.960 . S
H1802 C1794 0.930 . S
H1803 C1795 0.929 . S
H1804 C1812 0.929 . S
H1805 C1814 0.930 . S
H1806 C1816 0.930 . S
H1807 C1819 0.929 . S
H1808 C1822 0.930 . S
H1809 C1824 0.960 . S
H1810 C1824 0.960 . S
H1811 C1824 0.960 . S
C1812 H1804 0.929 . S
C1812 C1813 1.377 . S
C1812 C1814 1.384 . S
C1813 C1812 1.377 . S
C1813 C1819 1.390 . S
C1814 H1805 0.930 . S
C1814 C1812 1.384 . S
C1814 C1815 1.372 . S
C1815 C1814 1.372 . S
C1815 C1816 1.400 . S
C1815 C1820 1.490 . S
C1816 H1806 0.930 . S
C1816 C1815 1.400 . S
C1816 C1819 1.386 . S
H1817 C1833 0.930 . S
H1818 C1834 0.931 . S
C1819 H1807 0.929 . S
C1819 C1813 1.390 . S
C1819 C1816 1.386 . S
C1820 C1815 1.490 . S
C1820 C1822 1.395 . S
C1820 C1823 1.403 . S
H1821 C1827 0.930 . S
C1822 H1808 0.930 . S
C1822 C1820 1.395 . S
C1822 C1825 1.403 . S
C1823 C1820 1.403 . S
C1823 C1824 1.524 . S
C1823 C1827 1.400 . S
C1824 H1809 0.960 . S
C1824 H1810 0.960 . S
C1824 H1811 0.960 . S
C1824 C1823 1.524 . S
C1825 C1822 1.403 . S
C1825 C1826 1.392 . S
C1825 C1829 1.495 . S
C1826 C1825 1.392 . S
C1826 C1827 1.385 . S
C1826 C1828 1.478 . S
C1827 H1821 0.930 . S
C1827 C1823 1.400 . S
C1827 C1826 1.385 . S
C1828 C1826 1.478 . S
C1828 C1830 1.381 . S
C1828 C1834 1.383 . S
C1829 C1825 1.495 . S
C1829 H1835 0.959 . S
C1829 H1836 0.961 . S
C1829 H1837 0.960 . S
C1830 C1828 1.381 . S
C1830 C1831 1.394 . S
C1830 H1838 0.930 . S
C1831 C1830 1.394 . S
C1831 C1832 1.383 . S
C1831 H1839 0.929 . S
C1832 C1831 1.383 . S
C1832 C1833 1.377 . S
C1833 H1817 0.930 . S
C1833 C1832 1.377 . S
C1833 C1834 1.379 . S
C1834 H1818 0.931 . S
C1834 C1828 1.383 . S
C1834 C1833 1.379 . S
H1835 C1829 0.959 . S
H1836 C1829 0.961 . S
H1837 C1829 0.960 . S
H1838 C1830 0.930 . S
H1839 C1831 0.929 . S
H1840 C1848 0.929 . S
H1841 C1850 0.930 . S
H1842 C1852 0.930 . S
H1843 C1855 0.929 . S
H1844 C1858 0.930 . S
H1845 C1860 0.960 . S
H1846 C1860 0.960 . S
H1847 C1860 0.960 . S
C1848 H1840 0.929 . S
C1848 C1849 1.377 . S
C1848 C1850 1.384 . S
C1849 C1848 1.377 . S
C1849 C1855 1.390 . S
C1850 H1841 0.930 . S
C1850 C1848 1.384 . S
C1850 C1851 1.372 . S
C1851 C1850 1.372 . S
C1851 C1852 1.400 . S
C1851 C1856 1.490 . S
C1852 H1842 0.930 . S
C1852 C1851 1.400 . S
C1852 C1855 1.386 . S
H1853 C1869 0.930 . S
H1854 C1870 0.931 . S
C1855 H1843 0.929 . S
C1855 C1849 1.390 . S
C1855 C1852 1.386 . S
C1856 C1851 1.490 . S
C1856 C1858 1.395 . S
C1856 C1859 1.403 . S
H1857 C1863 0.930 . S
C1858 H1844 0.930 . S
C1858 C1856 1.395 . S
C1858 C1861 1.403 . S
C1859 C1856 1.403 . S
C1859 C1860 1.524 . S
C1859 C1863 1.400 . S
C1860 H1845 0.960 . S
C1860 H1846 0.960 . S
C1860 H1847 0.960 . S
C1860 C1859 1.524 . S
C1861 C1858 1.403 . S
C1861 C1862 1.392 . S
C1861 C1865 1.495 . S
C1862 C1861 1.392 . S
C1862 C1863 1.385 . S
C1862 C1864 1.478 . S
C1863 H1857 0.930 . S
C1863 C1859 1.400 . S
C1863 C1862 1.385 . S
C1864 C1862 1.478 . S
C1864 C1866 1.381 . S
C1864 C1870 1.383 . S
C1865 C1861 1.495 . S
C1865 H1871 0.959 . S
C1865 H1872 0.961 . S
C1865 H1873 0.960 . S
C1866 C1864 1.381 . S
C1866 C1867 1.394 . S
C1866 H1874 0.930 . S
C1867 C1866 1.394 . S
C1867 C1868 1.383 . S
C1867 H1875 0.929 . S
C1868 C1867 1.383 . S
C1868 C1869 1.377 . S
C1869 H1853 0.930 . S
C1869 C1868 1.377 . S
C1869 C1870 1.379 . S
C1870 H1854 0.931 . S
C1870 C1864 1.383 . S
C1870 C1869 1.379 . S
H1871 C1865 0.959 . S
H1872 C1865 0.961 . S
H1873 C1865 0.960 . S
H1874 C1866 0.930 . S
H1875 C1867 0.929 . S
H1876 C1884 0.929 . S
H1877 C1886 0.930 . S
H1878 C1888 0.930 . S
H1879 C1891 0.929 . S
H1880 C1894 0.930 . S
H1881 C1896 0.960 . S
H1882 C1896 0.960 . S
H1883 C1896 0.960 . S
C1884 H1876 0.929 . S
C1884 C1885 1.377 . S
C1884 C1886 1.384 . S
C1885 C1884 1.377 . S
C1885 C1891 1.390 . S
C1886 H1877 0.930 . S
C1886 C1884 1.384 . S
C1886 C1887 1.372 . S
C1887 C1886 1.372 . S
C1887 C1888 1.400 . S
C1887 C1892 1.490 . S
C1888 H1878 0.930 . S
C1888 C1887 1.400 . S
C1888 C1891 1.386 . S
H1889 C1905 0.930 . S
H1890 C1906 0.931 . S
C1891 H1879 0.929 . S
C1891 C1885 1.390 . S
C1891 C1888 1.386 . S
C1892 C1887 1.490 . S
C1892 C1894 1.395 . S
C1892 C1895 1.403 . S
H1893 C1899 0.930 . S
C1894 H1880 0.930 . S
C1894 C1892 1.395 . S
C1894 C1897 1.403 . S
C1895 C1892 1.403 . S
C1895 C1896 1.524 . S
C1895 C1899 1.400 . S
C1896 H1881 0.960 . S
C1896 H1882 0.960 . S
C1896 H1883 0.960 . S
C1896 C1895 1.524 . S
C1897 C1894 1.403 . S
C1897 C1898 1.392 . S
C1897 C1901 1.495 . S
C1898 C1897 1.392 . S
C1898 C1899 1.385 . S
C1898 C1900 1.478 . S
C1899 H1893 0.930 . S
C1899 C1895 1.400 . S
C1899 C1898 1.385 . S
C1900 C1898 1.478 . S
C1900 C1902 1.381 . S
C1900 C1906 1.383 . S
C1901 C1897 1.495 . S
C1901 H1907 0.959 . S
C1901 H1908 0.961 . S
C1901 H1909 0.960 . S
C1902 C1900 1.381 . S
C1902 C1903 1.394 . S
C1902 H1910 0.930 . S
C1903 C1902 1.394 . S
C1903 C1904 1.383 . S
C1903 H1911 0.929 . S
C1904 C1903 1.383 . S
C1904 C1905 1.377 . S
C1905 H1889 0.930 . S
C1905 C1904 1.377 . S
C1905 C1906 1.379 . S
C1906 H1890 0.931 . S
C1906 C1900 1.383 . S
C1906 C1905 1.379 . S
H1907 C1901 0.959 . S
H1908 C1901 0.961 . S
H1909 C1901 0.960 . S
H1910 C1902 0.930 . S
H1911 C1903 0.929 . S
H1912 C1920 0.929 . S
H1913 C1922 0.930 . S
H1914 C1924 0.930 . S
H1915 C1927 0.929 . S
H1916 C1930 0.930 . S
H1917 C1932 0.960 . S
H1918 C1932 0.960 . S
H1919 C1932 0.960 . S
C1920 H1912 0.929 . S
C1920 C1921 1.377 . S
C1920 C1922 1.384 . S
C1921 C1920 1.377 . S
C1921 C1927 1.390 . S
C1922 H1913 0.930 . S
C1922 C1920 1.384 . S
C1922 C1923 1.372 . S
C1923 C1922 1.372 . S
C1923 C1924 1.400 . S
C1923 C1928 1.490 . S
C1924 H1914 0.930 . S
C1924 C1923 1.400 . S
C1924 C1927 1.386 . S
H1925 C1941 0.930 . S
H1926 C1942 0.931 . S
C1927 H1915 0.929 . S
C1927 C1921 1.390 . S
C1927 C1924 1.386 . S
C1928 C1923 1.490 . S
C1928 C1930 1.395 . S
C1928 C1931 1.403 . S
H1929 C1935 0.930 . S
C1930 H1916 0.930 . S
C1930 C1928 1.395 . S
C1930 C1933 1.403 . S
C1931 C1928 1.403 . S
C1931 C1932 1.524 . S
C1931 C1935 1.400 . S
C1932 H1917 0.960 . S
C1932 H1918 0.960 . S
C1932 H1919 0.960 . S
C1932 C1931 1.524 . S
C1933 C1930 1.403 . S
C1933 C1934 1.392 . S
C1933 C1937 1.495 . S
C1934 C1933 1.392 . S
C1934 C1935 1.385 . S
C1934 C1936 1.478 . S
C1935 H1929 0.930 . S
C1935 C1931 1.400 . S
C1935 C1934 1.385 . S
C1936 C1934 1.478 . S
C1936 C1938 1.381 . S
C1936 C1942 1.383 . S
C1937 C1933 1.495 . S
C1937 H1943 0.959 . S
C1937 H1944 0.961 . S
C1937 H1945 0.960 . S
C1938 C1936 1.381 . S
C1938 C1939 1.394 . S
C1938 H1946 0.930 . S
C1939 C1938 1.394 . S
C1939 C1940 1.383 . S
C1939 H1947 0.929 . S
C1940 C1939 1.383 . S
C1940 C1941 1.377 . S
C1941 H1925 0.930 . S
C1941 C1940 1.377 . S
C1941 C1942 1.379 . S
C1942 H1926 0.931 . S
C1942 C1936 1.383 . S
C1942 C1941 1.379 . S
H1943 C1937 0.959 . S
H1944 C1937 0.961 . S
H1945 C1937 0.960 . S
H1946 C1938 0.930 . S
H1947 C1939 0.929 . S
H1948 C1956 0.929 . S
H1949 C1958 0.930 . S
H1950 C1960 0.930 . S
H1951 C1963 0.929 . S
H1952 C1966 0.930 . S
H1953 C1968 0.960 . S
H1954 C1968 0.960 . S
H1955 C1968 0.960 . S
C1956 H1948 0.929 . S
C1956 C1957 1.377 . S
C1956 C1958 1.384 . S
C1957 C1956 1.377 . S
C1957 C1963 1.390 . S
C1958 H1949 0.930 . S
C1958 C1956 1.384 . S
C1958 C1959 1.372 . S
C1959 C1958 1.372 . S
C1959 C1960 1.400 . S
C1959 C1964 1.490 . S
C1960 H1950 0.930 . S
C1960 C1959 1.400 . S
C1960 C1963 1.386 . S
H1961 C1977 0.930 . S
H1962 C1978 0.931 . S
C1963 H1951 0.929 . S
C1963 C1957 1.390 . S
C1963 C1960 1.386 . S
C1964 C1959 1.490 . S
C1964 C1966 1.395 . S
C1964 C1967 1.403 . S
H1965 C1971 0.930 . S
C1966 H1952 0.930 . S
C1966 C1964 1.395 . S
C1966 C1969 1.403 . S
C1967 C1964 1.403 . S
C1967 C1968 1.524 . S
C1967 C1971 1.400 . S
C1968 H1953 0.960 . S
C1968 H1954 0.960 . S
C1968 H1955 0.960 . S
C1968 C1967 1.524 . S
C1969 C1966 1.403 . S
C1969 C1970 1.392 . S
C1969 C1973 1.495 . S
C1970 C1969 1.392 . S
C1970 C1971 1.385 . S
C1970 C1972 1.478 . S
C1971 H1965 0.930 . S
C1971 C1967 1.400 . S
C1971 C1970 1.385 . S
C1972 C1970 1.478 . S
C1972 C1974 1.381 . S
C1972 C1978 1.383 . S
C1973 C1969 1.495 . S
C1973 H1979 0.959 . S
C1973 H1980 0.961 . S
C1973 H1981 0.960 . S
C1974 C1972 1.381 . S
C1974 C1975 1.394 . S
C1974 H1982 0.930 . S
C1975 C1974 1.394 . S
C1975 C1976 1.383 . S
C1975 H1983 0.929 . S
C1976 C1975 1.383 . S
C1976 C1977 1.377 . S
C1977 H1961 0.930 . S
C1977 C1976 1.377 . S
C1977 C1978 1.379 . S
C1978 H1962 0.931 . S
C1978 C1972 1.383 . S
C1978 C1977 1.379 . S
H1979 C1973 0.959 . S
H1980 C1973 0.961 . S
H1981 C1973 0.960 . S
H1982 C1974 0.930 . S
H1983 C1975 0.929 . S
H1984 C1992 0.929 . S
H1985 C1994 0.930 . S
H1986 C1996 0.930 . S
H1987 C1999 0.929 . S
H1988 C2002 0.930 . S
H1989 C2004 0.960 . S
H1990 C2004 0.960 . S
H1991 C2004 0.960 . S
C1992 H1984 0.929 . S
C1992 C1993 1.377 1_655 S
C1992 C1994 1.384 . S
C1993 C1992 1.377 1_455 S
C1993 C1999 1.390 . S
C1994 H1985 0.930 . S
C1994 C1992 1.384 . S
C1994 C1995 1.372 1_655 S
C1995 C1994 1.372 1_455 S
C1995 C1996 1.400 . S
C1995 C2000 1.490 . S
C1996 H1986 0.930 . S
C1996 C1995 1.400 . S
C1996 C1999 1.386 . S
H1997 C2013 0.930 . S
H1998 C2014 0.931 . S
C1999 H1987 0.929 . S
C1999 C1993 1.390 . S
C1999 C1996 1.386 . S
C2000 C1995 1.490 . S
C2000 C2002 1.395 . S
C2000 C2003 1.403 1_455 S
H2001 C2007 0.930 . S
C2002 H1988 0.930 . S
C2002 C2000 1.395 . S
C2002 C2005 1.403 . S
C2003 C2000 1.403 1_655 S
C2003 C2004 1.524 . S
C2003 C2007 1.400 . S
C2004 H1989 0.960 . S
C2004 H1990 0.960 . S
C2004 H1991 0.960 . S
C2004 C2003 1.524 . S
C2005 C2002 1.403 . S
C2005 C2006 1.392 . S
C2005 C2009 1.495 . S
C2006 C2005 1.392 . S
C2006 C2007 1.385 1_455 S
C2006 C2008 1.478 . S
C2007 H2001 0.930 . S
C2007 C2003 1.400 . S
C2007 C2006 1.385 1_655 S
C2008 C2006 1.478 . S
C2008 C2010 1.381 1_455 S
C2008 C2014 1.383 . S
C2009 C2005 1.495 . S
C2009 H2015 0.959 . S
C2009 H2016 0.961 . S
C2009 H2017 0.960 . S
C2010 C2008 1.381 1_655 S
C2010 C2011 1.394 . S
C2010 H2018 0.930 . S
C2011 C2010 1.394 . S
C2011 C2012 1.383 1_655 S
C2011 H2019 0.929 . S
C2012 C2011 1.383 1_455 S
C2012 C2013 1.377 . S
C2013 H1997 0.930 . S
C2013 C2012 1.377 . S
C2013 C2014 1.379 . S
C2014 H1998 0.931 . S
C2014 C2008 1.383 . S
C2014 C2013 1.379 . S
H2015 C2009 0.959 . S
H2016 C2009 0.961 . S
H2017 C2009 0.960 . S
H2018 C2010 0.930 . S
H2019 C2011 0.929 . S
H2020 C2028 0.929 . S
H2021 C2030 0.930 . S
H2022 C2032 0.930 . S
H2023 C2035 0.929 . S
H2024 C2038 0.930 . S
H2025 C2040 0.960 . S
H2026 C2040 0.960 . S
H2027 C2040 0.960 . S
C2028 H2020 0.929 . S
C2028 C2029 1.377 . S
C2028 C2030 1.384 . S
C2029 C2028 1.377 . S
C2029 C2035 1.390 . S
C2030 H2021 0.930 . S
C2030 C2028 1.384 . S
C2030 C2031 1.372 . S
C2031 C2030 1.372 . S
C2031 C2032 1.400 . S
C2031 C2036 1.490 . S
C2032 H2022 0.930 . S
C2032 C2031 1.400 . S
C2032 C2035 1.386 . S
H2033 C2049 0.930 . S
H2034 C2050 0.931 . S
C2035 H2023 0.929 . S
C2035 C2029 1.390 . S
C2035 C2032 1.386 . S
C2036 C2031 1.490 . S
C2036 C2038 1.395 . S
C2036 C2039 1.403 . S
H2037 C2043 0.930 . S
C2038 H2024 0.930 . S
C2038 C2036 1.395 . S
C2038 C2041 1.403 . S
C2039 C2036 1.403 . S
C2039 C2040 1.524 . S
C2039 C2043 1.400 . S
C2040 H2025 0.960 . S
C2040 H2026 0.960 . S
C2040 H2027 0.960 . S
C2040 C2039 1.524 . S
C2041 C2038 1.403 . S
C2041 C2042 1.392 . S
C2041 C2045 1.495 . S
C2042 C2041 1.392 . S
C2042 C2043 1.385 . S
C2042 C2044 1.478 . S
C2043 H2037 0.930 . S
C2043 C2039 1.400 . S
C2043 C2042 1.385 . S
C2044 C2042 1.478 . S
C2044 C2046 1.381 . S
C2044 C2050 1.383 . S
C2045 C2041 1.495 . S
C2045 H2051 0.959 . S
C2045 H2052 0.961 . S
C2045 H2053 0.960 . S
C2046 C2044 1.381 . S
C2046 C2047 1.394 . S
C2046 H2054 0.930 . S
C2047 C2046 1.394 . S
C2047 C2048 1.383 . S
C2047 H2055 0.929 . S
C2048 C2047 1.383 . S
C2048 C2049 1.377 . S
C2049 H2033 0.930 . S
C2049 C2048 1.377 . S
C2049 C2050 1.379 . S
C2050 H2034 0.931 . S
C2050 C2044 1.383 . S
C2050 C2049 1.379 . S
H2051 C2045 0.959 . S
H2052 C2045 0.961 . S
H2053 C2045 0.960 . S
H2054 C2046 0.930 . S
H2055 C2047 0.929 . S
H2056 C2064 0.929 . S
H2057 C2066 0.930 . S
H2058 C2068 0.930 . S
H2059 C2071 0.929 . S
H2060 C2074 0.930 . S
H2061 C2076 0.960 . S
H2062 C2076 0.960 . S
H2063 C2076 0.960 . S
C2064 H2056 0.929 . S
C2064 C2065 1.377 . S
C2064 C2066 1.384 . S
C2065 C2064 1.377 . S
C2065 C2071 1.390 1_655 S
C2066 H2057 0.930 . S
C2066 C2064 1.384 . S
C2066 C2067 1.372 . S
C2067 C2066 1.372 . S
C2067 C2068 1.400 1_655 S
C2067 C2072 1.490 . S
C2068 H2058 0.930 . S
C2068 C2067 1.400 1_455 S
C2068 C2071 1.386 . S
H2069 C2085 0.926 1_455 S
H2070 C2086 0.931 . S
C2071 H2059 0.929 . S
C2071 C2065 1.390 1_455 S
C2071 C2068 1.386 . S
C2072 C2067 1.490 . S
C2072 C2074 1.395 . S
C2072 C2075 1.403 1_655 S
H2073 C2079 0.930 . S
C2074 H2060 0.930 . S
C2074 C2072 1.395 . S
C2074 C2077 1.403 . S
C2075 C2072 1.403 1_455 S
C2075 C2076 1.524 . S
C2075 C2079 1.400 . S
C2076 H2061 0.960 . S
C2076 H2062 0.960 . S
C2076 H2063 0.960 . S
C2076 C2075 1.524 . S
C2077 C2074 1.403 . S
C2077 C2078 1.392 . S
C2077 C2081 1.495 . S
C2078 C2077 1.392 . S
C2078 C2079 1.385 1_655 S
C2078 C2080 1.478 . S
C2079 H2073 0.930 . S
C2079 C2075 1.400 . S
C2079 C2078 1.385 1_455 S
C2080 C2078 1.478 . S
C2080 C2082 1.381 . S
C2080 C2086 1.383 . S
C2081 C2077 1.495 . S
C2081 H2087 0.959 . S
C2081 H2088 0.961 . S
C2081 H2089 0.960 . S
C2082 C2080 1.381 . S
C2082 C2083 1.394 . S
C2082 H2090 0.930 . S
C2083 C2082 1.394 . S
C2083 C2084 1.383 . S
C2083 H2091 0.929 . S
C2084 C2083 1.383 . S
C2084 C2085 1.377 . S
C2085 H2069 0.926 1_655 S
C2085 C2084 1.377 . S
C2085 C2086 1.379 . S
C2086 H2070 0.931 . S
C2086 C2080 1.383 . S
C2086 C2085 1.379 . S
H2087 C2081 0.959 . S
H2088 C2081 0.961 . S
H2089 C2081 0.960 . S
H2090 C2082 0.930 . S
H2091 C2083 0.929 . S
H2092 C2100 0.929 . S
H2093 C2102 0.930 . S
H2094 C2104 0.930 . S
H2095 C2107 0.929 . S
H2096 C2110 0.930 . S
H2097 C2112 0.960 . S
H2098 C2112 0.960 . S
H2099 C2112 0.960 . S
C2100 H2092 0.929 . S
C2100 C2101 1.377 . S
C2100 C2102 1.384 . S
C2101 C2100 1.377 . S
C2101 C2107 1.390 . S
C2102 H2093 0.930 . S
C2102 C2100 1.384 . S
C2102 C2103 1.372 . S
C2103 C2102 1.372 . S
C2103 C2104 1.400 . S
C2103 C2108 1.490 . S
C2104 H2094 0.930 . S
C2104 C2103 1.400 . S
C2104 C2107 1.386 . S
H2105 C2121 0.930 . S
H2106 C2122 0.931 . S
C2107 H2095 0.929 . S
C2107 C2101 1.390 . S
C2107 C2104 1.386 . S
C2108 C2103 1.490 . S
C2108 C2110 1.395 . S
C2108 C2111 1.403 . S
H2109 C2115 0.930 . S
C2110 H2096 0.930 . S
C2110 C2108 1.395 . S
C2110 C2113 1.403 . S
C2111 C2108 1.403 . S
C2111 C2112 1.524 . S
C2111 C2115 1.400 . S
C2112 H2097 0.960 . S
C2112 H2098 0.960 . S
C2112 H2099 0.960 . S
C2112 C2111 1.524 . S
C2113 C2110 1.403 . S
C2113 C2114 1.392 . S
C2113 C2117 1.495 . S
C2114 C2113 1.392 . S
C2114 C2115 1.385 . S
C2114 C2116 1.478 . S
C2115 H2109 0.930 . S
C2115 C2111 1.400 . S
C2115 C2114 1.385 . S
C2116 C2114 1.478 . S
C2116 C2118 1.381 . S
C2116 C2122 1.383 . S
C2117 C2113 1.495 . S
C2117 H2123 0.959 . S
C2117 H2124 0.961 . S
C2117 H2125 0.960 . S
C2118 C2116 1.381 . S
C2118 C2119 1.394 . S
C2118 H2126 0.930 . S
C2119 C2118 1.394 . S
C2119 C2120 1.383 . S
C2119 H2127 0.929 . S
C2120 C2119 1.383 . S
C2120 C2121 1.377 . S
C2121 H2105 0.930 . S
C2121 C2120 1.377 . S
C2121 C2122 1.379 . S
C2122 H2106 0.931 . S
C2122 C2116 1.383 . S
C2122 C2121 1.379 . S
H2123 C2117 0.959 . S
H2124 C2117 0.961 . S
H2125 C2117 0.960 . S
H2126 C2118 0.930 . S
H2127 C2119 0.929 . S
H2128 C2136 0.923 1_655 S
H2129 C2138 0.925 1_655 S
H2130 C2140 0.930 . S
H2131 C2143 0.929 . S
H2132 C2146 0.930 . S
H2133 C2148 0.960 . S
H2134 C2148 0.960 . S
H2135 C2148 0.960 . S
C2136 H2128 0.923 1_455 S
C2136 C2137 1.383 . S
C2136 C2138 1.384 . S
C2137 C2136 1.383 . S
C2137 C2143 1.390 . S
C2138 H2129 0.925 1_455 S
C2138 C2136 1.384 . S
C2138 C2139 1.379 . S
C2139 C2138 1.379 . S
C2139 C2140 1.400 . S
C2139 C2144 1.490 . S
C2140 H2130 0.930 . S
C2140 C2139 1.400 . S
C2140 C2143 1.386 . S
H2141 C2157 0.930 . S
H2142 C2158 0.931 . S
C2143 H2131 0.929 . S
C2143 C2137 1.390 . S
C2143 C2140 1.386 . S
C2144 C2139 1.490 . S
C2144 C2146 1.395 . S
C2144 C2147 1.403 1_455 S
H2145 C2151 0.930 . S
C2146 H2132 0.930 . S
C2146 C2144 1.395 . S
C2146 C2149 1.403 . S
C2147 C2144 1.403 1_655 S
C2147 C2148 1.524 . S
C2147 C2151 1.400 . S
C2148 H2133 0.960 . S
C2148 H2134 0.960 . S
C2148 H2135 0.960 . S
C2148 C2147 1.524 . S
C2149 C2146 1.403 . S
C2149 C2150 1.392 . S
C2149 C2153 1.495 . S
C2150 C2149 1.392 . S
C2150 C2151 1.385 1_455 S
C2150 C2152 1.478 . S
C2151 H2145 0.930 . S
C2151 C2147 1.400 . S
C2151 C2150 1.385 1_655 S
C2152 C2150 1.478 . S
C2152 C2154 1.381 . S
C2152 C2158 1.383 . S
C2153 C2149 1.495 . S
C2153 H2159 0.959 . S
C2153 H2160 0.961 . S
C2153 H2161 0.960 . S
C2154 C2152 1.381 . S
C2154 C2155 1.399 . S
C2154 H2162 0.930 1_455 S
C2155 C2154 1.399 . S
C2155 C2156 1.395 . S
C2155 H2163 0.917 1_455 S
C2156 C2155 1.395 . S
C2156 C2157 1.377 . S
C2157 H2141 0.930 . S
C2157 C2156 1.377 . S
C2157 C2158 1.379 . S
C2158 H2142 0.931 . S
C2158 C2152 1.383 . S
C2158 C2157 1.379 . S
H2159 C2153 0.959 . S
H2160 C2153 0.961 . S
H2161 C2153 0.960 . S
H2162 C2154 0.930 1_655 S
H2163 C2155 0.917 1_655 S
H2164 C2172 0.929 . S
H2165 C2174 0.930 . S
H2166 C2176 0.930 . S
H2167 C2179 0.929 . S
H2168 C2182 0.930 . S
H2169 C2184 0.960 . S
H2170 C2184 0.960 . S
H2171 C2184 0.960 . S
C2172 H2164 0.929 . S
C2172 C2173 1.377 . S
C2172 C2174 1.384 . S
C2173 C2172 1.377 . S
C2173 C2179 1.390 . S
C2174 H2165 0.930 . S
C2174 C2172 1.384 . S
C2174 C2175 1.372 . S
C2175 C2174 1.372 . S
C2175 C2176 1.400 . S
C2175 C2180 1.490 . S
C2176 H2166 0.930 . S
C2176 C2175 1.400 . S
C2176 C2179 1.386 . S
H2177 C2193 0.930 . S
H2178 C2194 0.931 . S
C2179 H2167 0.929 . S
C2179 C2173 1.390 . S
C2179 C2176 1.386 . S
C2180 C2175 1.490 . S
C2180 C2182 1.395 . S
C2180 C2183 1.403 . S
H2181 C2187 0.930 . S
C2182 H2168 0.930 . S
C2182 C2180 1.395 . S
C2182 C2185 1.403 . S
C2183 C2180 1.403 . S
C2183 C2184 1.524 . S
C2183 C2187 1.400 . S
C2184 H2169 0.960 . S
C2184 H2170 0.960 . S
C2184 H2171 0.960 . S
C2184 C2183 1.524 . S
C2185 C2182 1.403 . S
C2185 C2186 1.392 . S
C2185 C2189 1.495 . S
C2186 C2185 1.392 . S
C2186 C2187 1.385 . S
C2186 C2188 1.478 . S
C2187 H2181 0.930 . S
C2187 C2183 1.400 . S
C2187 C2186 1.385 . S
C2188 C2186 1.478 . S
C2188 C2190 1.381 . S
C2188 C2194 1.383 . S
C2189 C2185 1.495 . S
C2189 H2195 0.959 . S
C2189 H2196 0.961 . S
C2189 H2197 0.960 . S
C2190 C2188 1.381 . S
C2190 C2191 1.394 . S
C2190 H2198 0.930 . S
C2191 C2190 1.394 . S
C2191 C2192 1.383 . S
C2191 H2199 0.929 . S
C2192 C2191 1.383 . S
C2192 C2193 1.377 . S
C2193 H2177 0.930 . S
C2193 C2192 1.377 . S
C2193 C2194 1.379 . S
C2194 H2178 0.931 . S
C2194 C2188 1.383 . S
C2194 C2193 1.379 . S
H2195 C2189 0.959 . S
H2196 C2189 0.961 . S
H2197 C2189 0.960 . S
H2198 C2190 0.930 . S
H2199 C2191 0.929 . S
H2200 C2208 0.939 . S
H2201 C2210 0.946 . S
H2202 C2212 0.930 . S
H2203 C2215 0.929 . S
H2204 C2218 0.930 . S
H2205 C2220 0.960 . S
H2206 C2220 0.960 . S
H2207 C2220 0.960 . S
C2208 H2200 0.939 . S
C2208 C2209 1.369 1_455 S
C2208 C2210 1.384 . S
C2209 C2208 1.369 1_655 S
C2209 C2215 1.390 . S
C2210 H2201 0.946 . S
C2210 C2208 1.384 . S
C2210 C2211 1.360 1_455 S
C2211 C2210 1.360 1_655 S
C2211 C2212 1.400 . S
C2211 C2216 1.490 . S
C2212 H2202 0.930 . S
C2212 C2211 1.400 . S
C2212 C2215 1.386 . S
H2213 C2229 0.930 . S
H2214 C2230 0.931 . S
C2215 H2203 0.929 . S
C2215 C2209 1.390 . S
C2215 C2212 1.386 . S
C2216 C2211 1.490 . S
C2216 C2218 1.395 1_655 S
C2216 C2219 1.403 . S
H2217 C2223 0.930 . S
C2218 H2204 0.930 . S
C2218 C2216 1.395 1_455 S
C2218 C2221 1.403 . S
C2219 C2216 1.403 . S
C2219 C2220 1.524 . S
C2219 C2223 1.400 . S
C2220 H2205 0.960 . S
C2220 H2206 0.960 . S
C2220 H2207 0.960 . S
C2220 C2219 1.524 . S
C2221 C2218 1.403 . S
C2221 C2222 1.404 . S
C2221 C2225 1.495 . S
C2222 C2221 1.404 . S
C2222 C2223 1.373 1_455 S
C2222 C2224 1.477 . S
C2223 H2217 0.930 . S
C2223 C2219 1.400 . S
C2223 C2222 1.373 1_655 S
C2224 C2222 1.477 . S
C2224 C2226 1.384 . S
C2224 C2230 1.378 1_455 S
C2225 C2221 1.495 . S
C2225 H2231 0.959 . S
C2225 H2232 0.961 . S
C2225 H2233 0.960 . S
C2226 C2224 1.384 . S
C2226 C2227 1.401 . S
C2226 H2234 0.930 . S
C2227 C2226 1.401 . S
C2227 C2228 1.374 1_455 S
C2227 H2235 0.938 . S
C2228 C2227 1.374 1_655 S
C2228 C2229 1.377 . S
C2229 H2213 0.930 . S
C2229 C2228 1.377 . S
C2229 C2230 1.379 . S
C2230 H2214 0.931 . S
C2230 C2224 1.378 1_655 S
C2230 C2229 1.379 . S
H2231 C2225 0.959 . S
H2232 C2225 0.961 . S
H2233 C2225 0.960 . S
H2234 C2226 0.930 . S
H2235 C2227 0.938 . S
H2236 C2244 0.929 . S
H2237 C2246 0.930 . S
H2238 C2248 0.930 . S
H2239 C2251 0.929 . S
H2240 C2254 0.930 . S
H2241 C2256 0.960 . S
H2242 C2256 0.960 . S
H2243 C2256 0.960 . S
C2244 H2236 0.929 . S
C2244 C2245 1.377 . S
C2244 C2246 1.384 . S
C2245 C2244 1.377 . S
C2245 C2251 1.390 . S
C2246 H2237 0.930 . S
C2246 C2244 1.384 . S
C2246 C2247 1.372 . S
C2247 C2246 1.372 . S
C2247 C2248 1.400 . S
C2247 C2252 1.490 . S
C2248 H2238 0.930 . S
C2248 C2247 1.400 . S
C2248 C2251 1.386 . S
H2249 C2265 0.930 . S
H2250 C2266 0.931 . S
C2251 H2239 0.929 . S
C2251 C2245 1.390 . S
C2251 C2248 1.386 . S
C2252 C2247 1.490 . S
C2252 C2254 1.395 . S
C2252 C2255 1.403 . S
H2253 C2259 0.930 . S
C2254 H2240 0.930 . S
C2254 C2252 1.395 . S
C2254 C2257 1.403 . S
C2255 C2252 1.403 . S
C2255 C2256 1.524 . S
C2255 C2259 1.400 . S
C2256 H2241 0.960 . S
C2256 H2242 0.960 . S
C2256 H2243 0.960 . S
C2256 C2255 1.524 . S
C2257 C2254 1.403 . S
C2257 C2258 1.392 . S
C2257 C2261 1.495 . S
C2258 C2257 1.392 . S
C2258 C2259 1.385 . S
C2258 C2260 1.478 . S
C2259 H2253 0.930 . S
C2259 C2255 1.400 . S
C2259 C2258 1.385 . S
C2260 C2258 1.478 . S
C2260 C2262 1.381 . S
C2260 C2266 1.383 . S
C2261 C2257 1.495 . S
C2261 H2267 0.959 . S
C2261 H2268 0.961 . S
C2261 H2269 0.960 . S
C2262 C2260 1.381 . S
C2262 C2263 1.394 . S
C2262 H2270 0.930 . S
C2263 C2262 1.394 . S
C2263 C2264 1.383 . S
C2263 H2271 0.929 . S
C2264 C2263 1.383 . S
C2264 C2265 1.377 . S
C2265 H2249 0.930 . S
C2265 C2264 1.377 . S
C2265 C2266 1.379 . S
C2266 H2250 0.931 . S
C2266 C2260 1.383 . S
C2266 C2265 1.379 . S
H2267 C2261 0.959 . S
H2268 C2261 0.961 . S
H2269 C2261 0.960 . S
H2270 C2262 0.930 . S
H2271 C2263 0.929 . S
H2272 C2280 0.929 . S
H2273 C2282 0.930 . S
H2274 C2284 0.930 . S
H2275 C2287 0.929 . S
H2276 C2290 0.930 . S
H2277 C2292 0.960 . S
H2278 C2292 0.960 . S
H2279 C2292 0.960 . S
C2280 H2272 0.929 . S
C2280 C2281 1.377 . S
C2280 C2282 1.384 . S
C2281 C2280 1.377 . S
C2281 C2287 1.390 . S
C2282 H2273 0.930 . S
C2282 C2280 1.384 . S
C2282 C2283 1.372 . S
C2283 C2282 1.372 . S
C2283 C2284 1.400 . S
C2283 C2288 1.490 . S
C2284 H2274 0.930 . S
C2284 C2283 1.400 . S
C2284 C2287 1.386 . S
H2285 C2301 0.930 . S
H2286 C2302 0.931 . S
C2287 H2275 0.929 . S
C2287 C2281 1.390 . S
C2287 C2284 1.386 . S
C2288 C2283 1.490 . S
C2288 C2290 1.395 . S
C2288 C2291 1.403 . S
H2289 C2295 0.930 . S
C2290 H2276 0.930 . S
C2290 C2288 1.395 . S
C2290 C2293 1.403 . S
C2291 C2288 1.403 . S
C2291 C2292 1.524 . S
C2291 C2295 1.400 . S
C2292 H2277 0.960 . S
C2292 H2278 0.960 . S
C2292 H2279 0.960 . S
C2292 C2291 1.524 . S
C2293 C2290 1.403 . S
C2293 C2294 1.392 . S
C2293 C2297 1.495 . S
C2294 C2293 1.392 . S
C2294 C2295 1.385 . S
C2294 C2296 1.478 . S
C2295 H2289 0.930 . S
C2295 C2291 1.400 . S
C2295 C2294 1.385 . S
C2296 C2294 1.478 . S
C2296 C2298 1.381 . S
C2296 C2302 1.383 . S
C2297 C2293 1.495 . S
C2297 H2303 0.959 . S
C2297 H2304 0.961 . S
C2297 H2305 0.960 . S
C2298 C2296 1.381 . S
C2298 C2299 1.394 . S
C2298 H2306 0.930 . S
C2299 C2298 1.394 . S
C2299 C2300 1.383 . S
C2299 H2307 0.929 . S
C2300 C2299 1.383 . S
C2300 C2301 1.377 . S
C2301 H2285 0.930 . S
C2301 C2300 1.377 . S
C2301 C2302 1.379 . S
C2302 H2286 0.931 . S
C2302 C2296 1.383 . S
C2302 C2301 1.379 . S
H2303 C2297 0.959 . S
H2304 C2297 0.961 . S
H2305 C2297 0.960 . S
H2306 C2298 0.930 . S
H2307 C2299 0.929 . S
H2308 C2316 0.929 . S
H2309 C2318 0.930 . S
H2310 C2320 0.930 . S
H2311 C2323 0.929 . S
H2312 C2326 0.930 . S
H2313 C2328 0.960 . S
H2314 C2328 0.960 . S
H2315 C2328 0.960 . S
C2316 H2308 0.929 . S
C2316 C2317 1.377 . S
C2316 C2318 1.384 . S
C2317 C2316 1.377 . S
C2317 C2323 1.390 . S
C2318 H2309 0.930 . S
C2318 C2316 1.384 . S
C2318 C2319 1.372 . S
C2319 C2318 1.372 . S
C2319 C2320 1.400 . S
C2319 C2324 1.490 . S
C2320 H2310 0.930 . S
C2320 C2319 1.400 . S
C2320 C2323 1.386 . S
H2321 C2337 0.930 . S
H2322 C2338 0.931 . S
C2323 H2311 0.929 . S
C2323 C2317 1.390 . S
C2323 C2320 1.386 . S
C2324 C2319 1.490 . S
C2324 C2326 1.395 . S
C2324 C2327 1.403 . S
H2325 C2331 0.930 . S
C2326 H2312 0.930 . S
C2326 C2324 1.395 . S
C2326 C2329 1.403 . S
C2327 C2324 1.403 . S
C2327 C2328 1.524 . S
C2327 C2331 1.400 . S
C2328 H2313 0.960 . S
C2328 H2314 0.960 . S
C2328 H2315 0.960 . S
C2328 C2327 1.524 . S
C2329 C2326 1.403 . S
C2329 C2330 1.392 . S
C2329 C2333 1.495 . S
C2330 C2329 1.392 . S
C2330 C2331 1.385 . S
C2330 C2332 1.478 . S
C2331 H2325 0.930 . S
C2331 C2327 1.400 . S
C2331 C2330 1.385 . S
C2332 C2330 1.478 . S
C2332 C2334 1.381 . S
C2332 C2338 1.383 . S
C2333 C2329 1.495 . S
C2333 H2339 0.959 . S
C2333 H2340 0.961 . S
C2333 H2341 0.960 . S
C2334 C2332 1.381 . S
C2334 C2335 1.394 . S
C2334 H2342 0.930 . S
C2335 C2334 1.394 . S
C2335 C2336 1.383 . S
C2335 H2343 0.929 . S
C2336 C2335 1.383 . S
C2336 C2337 1.377 . S
C2337 H2321 0.930 . S
C2337 C2336 1.377 . S
C2337 C2338 1.379 . S
C2338 H2322 0.931 . S
C2338 C2332 1.383 . S
C2338 C2337 1.379 . S
H2339 C2333 0.959 . S
H2340 C2333 0.961 . S
H2341 C2333 0.960 . S
H2342 C2334 0.930 . S
H2343 C2335 0.929 . S
H2344 C2352 0.929 . S
H2345 C2354 0.930 . S
H2346 C2356 0.930 . S
H2347 C2359 0.929 . S
H2348 C2362 0.930 . S
H2349 C2364 0.960 . S
H2350 C2364 0.960 . S
H2351 C2364 0.960 . S
C2352 H2344 0.929 . S
C2352 C2353 1.377 . S
C2352 C2354 1.384 . S
C2353 C2352 1.377 . S
C2353 C2359 1.390 . S
C2354 H2345 0.930 . S
C2354 C2352 1.384 . S
C2354 C2355 1.372 . S
C2355 C2354 1.372 . S
C2355 C2356 1.400 . S
C2355 C2360 1.490 . S
C2356 H2346 0.930 . S
C2356 C2355 1.400 . S
C2356 C2359 1.386 . S
H2357 C2373 0.930 . S
H2358 C2374 0.931 . S
C2359 H2347 0.929 . S
C2359 C2353 1.390 . S
C2359 C2356 1.386 . S
C2360 C2355 1.490 . S
C2360 C2362 1.395 . S
C2360 C2363 1.403 . S
H2361 C2367 0.930 . S
C2362 H2348 0.930 . S
C2362 C2360 1.395 . S
C2362 C2365 1.403 . S
C2363 C2360 1.403 . S
C2363 C2364 1.524 . S
C2363 C2367 1.400 . S
C2364 H2349 0.960 . S
C2364 H2350 0.960 . S
C2364 H2351 0.960 . S
C2364 C2363 1.524 . S
C2365 C2362 1.403 . S
C2365 C2366 1.392 . S
C2365 C2369 1.495 . S
C2366 C2365 1.392 . S
C2366 C2367 1.385 . S
C2366 C2368 1.478 . S
C2367 H2361 0.930 . S
C2367 C2363 1.400 . S
C2367 C2366 1.385 . S
C2368 C2366 1.478 . S
C2368 C2370 1.381 . S
C2368 C2374 1.383 . S
C2369 C2365 1.495 . S
C2369 H2375 0.959 . S
C2369 H2376 0.961 . S
C2369 H2377 0.960 . S
C2370 C2368 1.381 . S
C2370 C2371 1.394 . S
C2370 H2378 0.930 . S
C2371 C2370 1.394 . S
C2371 C2372 1.383 . S
C2371 H2379 0.929 . S
C2372 C2371 1.383 . S
C2372 C2373 1.377 . S
C2373 H2357 0.930 . S
C2373 C2372 1.377 . S
C2373 C2374 1.379 . S
C2374 H2358 0.931 . S
C2374 C2368 1.383 . S
C2374 C2373 1.379 . S
H2375 C2369 0.959 . S
H2376 C2369 0.961 . S
H2377 C2369 0.960 . S
H2378 C2370 0.930 . S
H2379 C2371 0.929 . S
H2380 C2388 0.929 . S
H2381 C2390 0.930 . S
H2382 C2392 0.930 . S
H2383 C2395 0.929 . S
H2384 C2398 0.930 . S
H2385 C2400 0.960 . S
H2386 C2400 0.960 . S
H2387 C2400 0.960 . S
C2388 H2380 0.929 . S
C2388 C2389 1.377 . S
C2388 C2390 1.384 . S
C2389 C2388 1.377 . S
C2389 C2395 1.390 . S
C2390 H2381 0.930 . S
C2390 C2388 1.384 . S
C2390 C2391 1.372 . S
C2391 C2390 1.372 . S
C2391 C2392 1.400 . S
C2391 C2396 1.490 . S
C2392 H2382 0.930 . S
C2392 C2391 1.400 . S
C2392 C2395 1.386 . S
H2393 C2409 0.930 . S
H2394 C2410 0.931 . S
C2395 H2383 0.929 . S
C2395 C2389 1.390 . S
C2395 C2392 1.386 . S
C2396 C2391 1.490 . S
C2396 C2398 1.395 . S
C2396 C2399 1.403 . S
H2397 C2403 0.930 . S
C2398 H2384 0.930 . S
C2398 C2396 1.395 . S
C2398 C2401 1.403 . S
C2399 C2396 1.403 . S
C2399 C2400 1.524 . S
C2399 C2403 1.400 . S
C2400 H2385 0.960 . S
C2400 H2386 0.960 . S
C2400 H2387 0.960 . S
C2400 C2399 1.524 . S
C2401 C2398 1.403 . S
C2401 C2402 1.392 . S
C2401 C2405 1.495 . S
C2402 C2401 1.392 . S
C2402 C2403 1.385 . S
C2402 C2404 1.478 . S
C2403 H2397 0.930 . S
C2403 C2399 1.400 . S
C2403 C2402 1.385 . S
C2404 C2402 1.478 . S
C2404 C2406 1.381 . S
C2404 C2410 1.383 . S
C2405 C2401 1.495 . S
C2405 H2411 0.959 . S
C2405 H2412 0.961 . S
C2405 H2413 0.960 . S
C2406 C2404 1.381 . S
C2406 C2407 1.394 . S
C2406 H2414 0.930 . S
C2407 C2406 1.394 . S
C2407 C2408 1.383 . S
C2407 H2415 0.929 . S
C2408 C2407 1.383 . S
C2408 C2409 1.377 . S
C2409 H2393 0.930 . S
C2409 C2408 1.377 . S
C2409 C2410 1.379 . S
C2410 H2394 0.931 . S
C2410 C2404 1.383 . S
C2410 C2409 1.379 . S
H2411 C2405 0.959 . S
H2412 C2405 0.961 . S
H2413 C2405 0.960 . S
H2414 C2406 0.930 . S
H2415 C2407 0.929 . S
H2416 C2424 0.929 . S
H2417 C2426 0.930 . S
H2418 C2428 0.930 . S
H2419 C2431 0.929 . S
H2420 C2434 0.930 . S
H2421 C2436 0.960 . S
H2422 C2436 0.960 . S
H2423 C2436 0.960 . S
C2424 H2416 0.929 . S
C2424 C2425 1.377 . S
C2424 C2426 1.384 . S
C2425 C2424 1.377 . S
C2425 C2431 1.390 . S
C2426 H2417 0.930 . S
C2426 C2424 1.384 . S
C2426 C2427 1.372 . S
C2427 C2426 1.372 . S
C2427 C2428 1.400 . S
C2427 C2432 1.490 . S
C2428 H2418 0.930 . S
C2428 C2427 1.400 . S
C2428 C2431 1.386 . S
H2429 C2445 0.930 . S
H2430 C2446 0.931 . S
C2431 H2419 0.929 . S
C2431 C2425 1.390 . S
C2431 C2428 1.386 . S
C2432 C2427 1.490 . S
C2432 C2434 1.395 . S
C2432 C2435 1.403 . S
H2433 C2439 0.930 . S
C2434 H2420 0.930 . S
C2434 C2432 1.395 . S
C2434 C2437 1.403 . S
C2435 C2432 1.403 . S
C2435 C2436 1.524 . S
C2435 C2439 1.400 . S
C2436 H2421 0.960 . S
C2436 H2422 0.960 . S
C2436 H2423 0.960 . S
C2436 C2435 1.524 . S
C2437 C2434 1.403 . S
C2437 C2438 1.392 . S
C2437 C2441 1.495 . S
C2438 C2437 1.392 . S
C2438 C2439 1.385 . S
C2438 C2440 1.478 . S
C2439 H2433 0.930 . S
C2439 C2435 1.400 . S
C2439 C2438 1.385 . S
C2440 C2438 1.478 . S
C2440 C2442 1.381 . S
C2440 C2446 1.383 . S
C2441 C2437 1.495 . S
C2441 H2447 0.959 . S
C2441 H2448 0.961 . S
C2441 H2449 0.960 . S
C2442 C2440 1.381 . S
C2442 C2443 1.394 . S
C2442 H2450 0.930 . S
C2443 C2442 1.394 . S
C2443 C2444 1.383 . S
C2443 H2451 0.929 . S
C2444 C2443 1.383 . S
C2444 C2445 1.377 . S
C2445 H2429 0.930 . S
C2445 C2444 1.377 . S
C2445 C2446 1.379 . S
C2446 H2430 0.931 . S
C2446 C2440 1.383 . S
C2446 C2445 1.379 . S
H2447 C2441 0.959 . S
H2448 C2441 0.961 . S
H2449 C2441 0.960 . S
H2450 C2442 0.930 . S
H2451 C2443 0.929 . S
H2452 C2460 0.929 . S
H2453 C2462 0.930 . S
H2454 C2464 0.930 . S
H2455 C2467 0.929 . S
H2456 C2470 0.930 . S
H2457 C2472 0.960 . S
H2458 C2472 0.960 . S
H2459 C2472 0.960 . S
C2460 H2452 0.929 . S
C2460 C2461 1.377 . S
C2460 C2462 1.384 . S
C2461 C2460 1.377 . S
C2461 C2467 1.390 . S
C2462 H2453 0.930 . S
C2462 C2460 1.384 . S
C2462 C2463 1.372 . S
C2463 C2462 1.372 . S
C2463 C2464 1.400 . S
C2463 C2468 1.490 . S
C2464 H2454 0.930 . S
C2464 C2463 1.400 . S
C2464 C2467 1.386 . S
H2465 C2481 0.930 . S
H2466 C2482 0.931 . S
C2467 H2455 0.929 . S
C2467 C2461 1.390 . S
C2467 C2464 1.386 . S
C2468 C2463 1.490 . S
C2468 C2470 1.395 . S
C2468 C2471 1.403 . S
H2469 C2475 0.930 . S
C2470 H2456 0.930 . S
C2470 C2468 1.395 . S
C2470 C2473 1.403 . S
C2471 C2468 1.403 . S
C2471 C2472 1.524 . S
C2471 C2475 1.400 . S
C2472 H2457 0.960 . S
C2472 H2458 0.960 . S
C2472 H2459 0.960 . S
C2472 C2471 1.524 . S
C2473 C2470 1.403 . S
C2473 C2474 1.392 . S
C2473 C2477 1.495 . S
C2474 C2473 1.392 . S
C2474 C2475 1.385 . S
C2474 C2476 1.478 . S
C2475 H2469 0.930 . S
C2475 C2471 1.400 . S
C2475 C2474 1.385 . S
C2476 C2474 1.478 . S
C2476 C2478 1.381 . S
C2476 C2482 1.383 . S
C2477 C2473 1.495 . S
C2477 H2483 0.959 . S
C2477 H2484 0.961 . S
C2477 H2485 0.960 . S
C2478 C2476 1.381 . S
C2478 C2479 1.394 . S
C2478 H2486 0.930 . S
C2479 C2478 1.394 . S
C2479 C2480 1.383 . S
C2479 H2487 0.929 . S
C2480 C2479 1.383 . S
C2480 C2481 1.377 . S
C2481 H2465 0.930 . S
C2481 C2480 1.377 . S
C2481 C2482 1.379 . S
C2482 H2466 0.931 . S
C2482 C2476 1.383 . S
C2482 C2481 1.379 . S
H2483 C2477 0.959 . S
H2484 C2477 0.961 . S
H2485 C2477 0.960 . S
H2486 C2478 0.930 . S
H2487 C2479 0.929 . S
H2488 C2496 0.929 . S
H2489 C2498 0.930 . S
H2490 C2500 0.930 . S
H2491 C2503 0.929 . S
H2492 C2506 0.930 . S
H2493 C2508 0.960 . S
H2494 C2508 0.960 . S
H2495 C2508 0.960 . S
C2496 H2488 0.929 . S
C2496 C2497 1.377 . S
C2496 C2498 1.384 . S
C2497 C2496 1.377 . S
C2497 C2503 1.390 . S
C2498 H2489 0.930 . S
C2498 C2496 1.384 . S
C2498 C2499 1.372 . S
C2499 C2498 1.372 . S
C2499 C2500 1.400 . S
C2499 C2504 1.490 . S
C2500 H2490 0.930 . S
C2500 C2499 1.400 . S
C2500 C2503 1.386 . S
H2501 C2517 0.930 . S
H2502 C2518 0.931 . S
C2503 H2491 0.929 . S
C2503 C2497 1.390 . S
C2503 C2500 1.386 . S
C2504 C2499 1.490 . S
C2504 C2506 1.395 . S
C2504 C2507 1.403 . S
H2505 C2511 0.930 . S
C2506 H2492 0.930 . S
C2506 C2504 1.395 . S
C2506 C2509 1.403 . S
C2507 C2504 1.403 . S
C2507 C2508 1.524 . S
C2507 C2511 1.400 . S
C2508 H2493 0.960 . S
C2508 H2494 0.960 . S
C2508 H2495 0.960 . S
C2508 C2507 1.524 . S
C2509 C2506 1.403 . S
C2509 C2510 1.392 . S
C2509 C2513 1.495 . S
C2510 C2509 1.392 . S
C2510 C2511 1.385 . S
C2510 C2512 1.478 . S
C2511 H2505 0.930 . S
C2511 C2507 1.400 . S
C2511 C2510 1.385 . S
C2512 C2510 1.478 . S
C2512 C2514 1.381 . S
C2512 C2518 1.383 . S
C2513 C2509 1.495 . S
C2513 H2519 0.959 . S
C2513 H2520 0.961 . S
C2513 H2521 0.960 . S
C2514 C2512 1.381 . S
C2514 C2515 1.394 . S
C2514 H2522 0.930 . S
C2515 C2514 1.394 . S
C2515 C2516 1.383 . S
C2515 H2523 0.929 . S
C2516 C2515 1.383 . S
C2516 C2517 1.377 . S
C2517 H2501 0.930 . S
C2517 C2516 1.377 . S
C2517 C2518 1.379 . S
C2518 H2502 0.931 . S
C2518 C2512 1.383 . S
C2518 C2517 1.379 . S
H2519 C2513 0.959 . S
H2520 C2513 0.961 . S
H2521 C2513 0.960 . S
H2522 C2514 0.930 . S
H2523 C2515 0.929 . S
H2524 C2532 0.929 . S
H2525 C2534 0.930 . S
H2526 C2536 0.930 . S
H2527 C2539 0.929 . S
H2528 C2542 0.930 . S
H2529 C2544 0.960 . S
H2530 C2544 0.960 . S
H2531 C2544 0.960 . S
C2532 H2524 0.929 . S
C2532 C2533 1.377 . S
C2532 C2534 1.384 . S
C2533 C2532 1.377 . S
C2533 C2539 1.390 . S
C2534 H2525 0.930 . S
C2534 C2532 1.384 . S
C2534 C2535 1.372 . S
C2535 C2534 1.372 . S
C2535 C2536 1.400 . S
C2535 C2540 1.490 . S
C2536 H2526 0.930 . S
C2536 C2535 1.400 . S
C2536 C2539 1.386 . S
H2537 C2553 0.930 . S
H2538 C2554 0.931 . S
C2539 H2527 0.929 . S
C2539 C2533 1.390 . S
C2539 C2536 1.386 . S
C2540 C2535 1.490 . S
C2540 C2542 1.395 . S
C2540 C2543 1.403 . S
H2541 C2547 0.930 . S
C2542 H2528 0.930 . S
C2542 C2540 1.395 . S
C2542 C2545 1.403 . S
C2543 C2540 1.403 . S
C2543 C2544 1.524 . S
C2543 C2547 1.400 . S
C2544 H2529 0.960 . S
C2544 H2530 0.960 . S
C2544 H2531 0.960 . S
C2544 C2543 1.524 . S
C2545 C2542 1.403 . S
C2545 C2546 1.392 . S
C2545 C2549 1.495 . S
C2546 C2545 1.392 . S
C2546 C2547 1.385 . S
C2546 C2548 1.478 . S
C2547 H2541 0.930 . S
C2547 C2543 1.400 . S
C2547 C2546 1.385 . S
C2548 C2546 1.478 . S
C2548 C2550 1.381 . S
C2548 C2554 1.383 . S
C2549 C2545 1.495 . S
C2549 H2555 0.959 . S
C2549 H2556 0.961 . S
C2549 H2557 0.960 . S
C2550 C2548 1.381 . S
C2550 C2551 1.394 . S
C2550 H2558 0.930 . S
C2551 C2550 1.394 . S
C2551 C2552 1.383 . S
C2551 H2559 0.929 . S
C2552 C2551 1.383 . S
C2552 C2553 1.377 . S
C2553 H2537 0.930 . S
C2553 C2552 1.377 . S
C2553 C2554 1.379 . S
C2554 H2538 0.931 . S
C2554 C2548 1.383 . S
C2554 C2553 1.379 . S
H2555 C2549 0.959 . S
H2556 C2549 0.961 . S
H2557 C2549 0.960 . S
H2558 C2550 0.930 . S
H2559 C2551 0.929 . S
H2560 C2568 0.929 . S
H2561 C2570 0.930 . S
H2562 C2572 0.930 . S
H2563 C2575 0.929 . S
H2564 C2578 0.930 . S
H2565 C2580 0.960 . S
H2566 C2580 0.960 . S
H2567 C2580 0.960 . S
C2568 H2560 0.929 . S
C2568 C2569 1.377 . S
C2568 C2570 1.384 . S
C2569 C2568 1.377 . S
C2569 C2575 1.390 . S
C2570 H2561 0.930 . S
C2570 C2568 1.384 . S
C2570 C2571 1.372 . S
C2571 C2570 1.372 . S
C2571 C2572 1.400 . S
C2571 C2576 1.490 . S
C2572 H2562 0.930 . S
C2572 C2571 1.400 . S
C2572 C2575 1.386 . S
H2573 C2589 0.930 . S
H2574 C2590 0.931 . S
C2575 H2563 0.929 . S
C2575 C2569 1.390 . S
C2575 C2572 1.386 . S
C2576 C2571 1.490 . S
C2576 C2578 1.395 . S
C2576 C2579 1.403 . S
H2577 C2583 0.930 . S
C2578 H2564 0.930 . S
C2578 C2576 1.395 . S
C2578 C2581 1.403 . S
C2579 C2576 1.403 . S
C2579 C2580 1.524 . S
C2579 C2583 1.400 . S
C2580 H2565 0.960 . S
C2580 H2566 0.960 . S
C2580 H2567 0.960 . S
C2580 C2579 1.524 . S
C2581 C2578 1.403 . S
C2581 C2582 1.392 . S
C2581 C2585 1.495 . S
C2582 C2581 1.392 . S
C2582 C2583 1.385 . S
C2582 C2584 1.478 . S
C2583 H2577 0.930 . S
C2583 C2579 1.400 . S
C2583 C2582 1.385 . S
C2584 C2582 1.478 . S
C2584 C2586 1.381 . S
C2584 C2590 1.383 . S
C2585 C2581 1.495 . S
C2585 H2591 0.959 . S
C2585 H2592 0.961 . S
C2585 H2593 0.960 . S
C2586 C2584 1.381 . S
C2586 C2587 1.394 . S
C2586 H2594 0.930 . S
C2587 C2586 1.394 . S
C2587 C2588 1.383 . S
C2587 H2595 0.929 . S
C2588 C2587 1.383 . S
C2588 C2589 1.377 . S
C2589 H2573 0.930 . S
C2589 C2588 1.377 . S
C2589 C2590 1.379 . S
C2590 H2574 0.931 . S
C2590 C2584 1.383 . S
C2590 C2589 1.379 . S
H2591 C2585 0.959 . S
H2592 C2585 0.961 . S
H2593 C2585 0.960 . S
H2594 C2586 0.930 . S
H2595 C2587 0.929 . S
H2596 C2604 0.929 . S
H2597 C2606 0.930 . S
H2598 C2608 0.930 . S
H2599 C2611 0.929 . S
H2600 C2614 0.930 . S
H2601 C2616 0.960 . S
H2602 C2616 0.960 . S
H2603 C2616 0.960 . S
C2604 H2596 0.929 . S
C2604 C2605 1.377 . S
C2604 C2606 1.384 . S
C2605 C2604 1.377 . S
C2605 C2611 1.390 . S
C2606 H2597 0.930 . S
C2606 C2604 1.384 . S
C2606 C2607 1.372 . S
C2607 C2606 1.372 . S
C2607 C2608 1.400 . S
C2607 C2612 1.490 . S
C2608 H2598 0.930 . S
C2608 C2607 1.400 . S
C2608 C2611 1.386 . S
H2609 C2625 0.930 . S
H2610 C2626 0.931 . S
C2611 H2599 0.929 . S
C2611 C2605 1.390 . S
C2611 C2608 1.386 . S
C2612 C2607 1.490 . S
C2612 C2614 1.395 . S
C2612 C2615 1.403 . S
H2613 C2619 0.930 . S
C2614 H2600 0.930 . S
C2614 C2612 1.395 . S
C2614 C2617 1.403 . S
C2615 C2612 1.403 . S
C2615 C2616 1.524 . S
C2615 C2619 1.400 . S
C2616 H2601 0.960 . S
C2616 H2602 0.960 . S
C2616 H2603 0.960 . S
C2616 C2615 1.524 . S
C2617 C2614 1.403 . S
C2617 C2618 1.392 . S
C2617 C2621 1.495 . S
C2618 C2617 1.392 . S
C2618 C2619 1.385 . S
C2618 C2620 1.478 . S
C2619 H2613 0.930 . S
C2619 C2615 1.400 . S
C2619 C2618 1.385 . S
C2620 C2618 1.478 . S
C2620 C2622 1.381 . S
C2620 C2626 1.383 . S
C2621 C2617 1.495 . S
C2621 H2627 0.959 . S
C2621 H2628 0.961 . S
C2621 H2629 0.960 . S
C2622 C2620 1.381 . S
C2622 C2623 1.394 . S
C2622 H2630 0.930 . S
C2623 C2622 1.394 . S
C2623 C2624 1.383 . S
C2623 H2631 0.929 . S
C2624 C2623 1.383 . S
C2624 C2625 1.377 . S
C2625 H2609 0.930 . S
C2625 C2624 1.377 . S
C2625 C2626 1.379 . S
C2626 H2610 0.931 . S
C2626 C2620 1.383 . S
C2626 C2625 1.379 . S
H2627 C2621 0.959 . S
H2628 C2621 0.961 . S
H2629 C2621 0.960 . S
H2630 C2622 0.930 . S
H2631 C2623 0.929 . S
H2632 C2640 0.929 . S
H2633 C2642 0.930 . S
H2634 C2644 0.930 . S
H2635 C2647 0.929 . S
H2636 C2650 0.930 . S
H2637 C2652 0.960 . S
H2638 C2652 0.960 . S
H2639 C2652 0.960 . S
C2640 H2632 0.929 . S
C2640 C2641 1.377 . S
C2640 C2642 1.384 . S
C2641 C2640 1.377 . S
C2641 C2647 1.390 . S
C2642 H2633 0.930 . S
C2642 C2640 1.384 . S
C2642 C2643 1.372 . S
C2643 C2642 1.372 . S
C2643 C2644 1.400 . S
C2643 C2648 1.490 . S
C2644 H2634 0.930 . S
C2644 C2643 1.400 . S
C2644 C2647 1.386 . S
H2645 C2661 0.930 . S
H2646 C2662 0.931 . S
C2647 H2635 0.929 . S
C2647 C2641 1.390 . S
C2647 C2644 1.386 . S
C2648 C2643 1.490 . S
C2648 C2650 1.395 . S
C2648 C2651 1.403 . S
H2649 C2655 0.930 . S
C2650 H2636 0.930 . S
C2650 C2648 1.395 . S
C2650 C2653 1.403 . S
C2651 C2648 1.403 . S
C2651 C2652 1.524 . S
C2651 C2655 1.400 . S
C2652 H2637 0.960 . S
C2652 H2638 0.960 . S
C2652 H2639 0.960 . S
C2652 C2651 1.524 . S
C2653 C2650 1.403 . S
C2653 C2654 1.392 . S
C2653 C2657 1.495 . S
C2654 C2653 1.392 . S
C2654 C2655 1.385 . S
C2654 C2656 1.478 . S
C2655 H2649 0.930 . S
C2655 C2651 1.400 . S
C2655 C2654 1.385 . S
C2656 C2654 1.478 . S
C2656 C2658 1.381 . S
C2656 C2662 1.383 . S
C2657 C2653 1.495 . S
C2657 H2663 0.959 . S
C2657 H2664 0.961 . S
C2657 H2665 0.960 . S
C2658 C2656 1.381 . S
C2658 C2659 1.394 . S
C2658 H2666 0.930 . S
C2659 C2658 1.394 . S
C2659 C2660 1.383 . S
C2659 H2667 0.929 . S
C2660 C2659 1.383 . S
C2660 C2661 1.377 . S
C2661 H2645 0.930 . S
C2661 C2660 1.377 . S
C2661 C2662 1.379 . S
C2662 H2646 0.931 . S
C2662 C2656 1.383 . S
C2662 C2661 1.379 . S
H2663 C2657 0.959 . S
H2664 C2657 0.961 . S
H2665 C2657 0.960 . S
H2666 C2658 0.930 . S
H2667 C2659 0.929 . S
H2668 C2676 0.929 . S
H2669 C2678 0.930 . S
H2670 C2680 0.930 . S
H2671 C2683 0.929 . S
H2672 C2686 0.930 . S
H2673 C2688 0.960 . S
H2674 C2688 0.960 . S
H2675 C2688 0.960 . S
C2676 H2668 0.929 . S
C2676 C2677 1.377 . S
C2676 C2678 1.384 . S
C2677 C2676 1.377 . S
C2677 C2683 1.390 . S
C2678 H2669 0.930 . S
C2678 C2676 1.384 . S
C2678 C2679 1.372 . S
C2679 C2678 1.372 . S
C2679 C2680 1.400 . S
C2679 C2684 1.490 . S
C2680 H2670 0.930 . S
C2680 C2679 1.400 . S
C2680 C2683 1.386 . S
H2681 C2697 0.930 . S
H2682 C2698 0.931 . S
C2683 H2671 0.929 . S
C2683 C2677 1.390 . S
C2683 C2680 1.386 . S
C2684 C2679 1.490 . S
C2684 C2686 1.395 . S
C2684 C2687 1.403 . S
H2685 C2691 0.930 . S
C2686 H2672 0.930 . S
C2686 C2684 1.395 . S
C2686 C2689 1.403 . S
C2687 C2684 1.403 . S
C2687 C2688 1.524 . S
C2687 C2691 1.400 . S
C2688 H2673 0.960 . S
C2688 H2674 0.960 . S
C2688 H2675 0.960 . S
C2688 C2687 1.524 . S
C2689 C2686 1.403 . S
C2689 C2690 1.392 . S
C2689 C2693 1.495 . S
C2690 C2689 1.392 . S
C2690 C2691 1.385 . S
C2690 C2692 1.478 . S
C2691 H2685 0.930 . S
C2691 C2687 1.400 . S
C2691 C2690 1.385 . S
C2692 C2690 1.478 . S
C2692 C2694 1.381 . S
C2692 C2698 1.383 . S
C2693 C2689 1.495 . S
C2693 H2699 0.959 . S
C2693 H2700 0.961 . S
C2693 H2701 0.960 . S
C2694 C2692 1.381 . S
C2694 C2695 1.394 . S
C2694 H2702 0.930 . S
C2695 C2694 1.394 . S
C2695 C2696 1.383 . S
C2695 H2703 0.929 . S
C2696 C2695 1.383 . S
C2696 C2697 1.377 . S
C2697 H2681 0.930 . S
C2697 C2696 1.377 . S
C2697 C2698 1.379 . S
C2698 H2682 0.931 . S
C2698 C2692 1.383 . S
C2698 C2697 1.379 . S
H2699 C2693 0.959 . S
H2700 C2693 0.961 . S
H2701 C2693 0.960 . S
H2702 C2694 0.930 . S
H2703 C2695 0.929 . S
H2704 C2712 0.929 . S
H2705 C2714 0.930 . S
H2706 C2716 0.930 . S
H2707 C2719 0.929 . S
H2708 C2722 0.930 . S
H2709 C2724 0.960 . S
H2710 C2724 0.960 . S
H2711 C2724 0.960 . S
C2712 H2704 0.929 . S
C2712 C2713 1.377 . S
C2712 C2714 1.384 . S
C2713 C2712 1.377 . S
C2713 C2719 1.390 . S
C2714 H2705 0.930 . S
C2714 C2712 1.384 . S
C2714 C2715 1.372 . S
C2715 C2714 1.372 . S
C2715 C2716 1.400 . S
C2715 C2720 1.490 . S
C2716 H2706 0.930 . S
C2716 C2715 1.400 . S
C2716 C2719 1.386 . S
H2717 C2733 0.930 . S
H2718 C2734 0.931 . S
C2719 H2707 0.929 . S
C2719 C2713 1.390 . S
C2719 C2716 1.386 . S
C2720 C2715 1.490 . S
C2720 C2722 1.395 . S
C2720 C2723 1.403 . S
H2721 C2727 0.930 . S
C2722 H2708 0.930 . S
C2722 C2720 1.395 . S
C2722 C2725 1.403 . S
C2723 C2720 1.403 . S
C2723 C2724 1.524 . S
C2723 C2727 1.400 . S
C2724 H2709 0.960 . S
C2724 H2710 0.960 . S
C2724 H2711 0.960 . S
C2724 C2723 1.524 . S
C2725 C2722 1.403 . S
C2725 C2726 1.392 . S
C2725 C2729 1.495 . S
C2726 C2725 1.392 . S
C2726 C2727 1.385 . S
C2726 C2728 1.478 . S
C2727 H2721 0.930 . S
C2727 C2723 1.400 . S
C2727 C2726 1.385 . S
C2728 C2726 1.478 . S
C2728 C2730 1.381 . S
C2728 C2734 1.383 . S
C2729 C2725 1.495 . S
C2729 H2735 0.959 . S
C2729 H2736 0.961 . S
C2729 H2737 0.960 . S
C2730 C2728 1.381 . S
C2730 C2731 1.394 . S
C2730 H2738 0.930 . S
C2731 C2730 1.394 . S
C2731 C2732 1.383 . S
C2731 H2739 0.929 . S
C2732 C2731 1.383 . S
C2732 C2733 1.377 . S
C2733 H2717 0.930 . S
C2733 C2732 1.377 . S
C2733 C2734 1.379 . S
C2734 H2718 0.931 . S
C2734 C2728 1.383 . S
C2734 C2733 1.379 . S
H2735 C2729 0.959 . S
H2736 C2729 0.961 . S
H2737 C2729 0.960 . S
H2738 C2730 0.930 . S
H2739 C2731 0.929 . S
H2740 C2748 0.929 . S
H2741 C2750 0.930 . S
H2742 C2752 0.930 . S
H2743 C2755 0.929 . S
H2744 C2758 0.930 . S
H2745 C2760 0.960 . S
H2746 C2760 0.960 . S
H2747 C2760 0.960 . S
C2748 H2740 0.929 . S
C2748 C2749 1.377 . S
C2748 C2750 1.384 . S
C2749 C2748 1.377 . S
C2749 C2755 1.390 . S
C2750 H2741 0.930 . S
C2750 C2748 1.384 . S
C2750 C2751 1.372 . S
C2751 C2750 1.372 . S
C2751 C2752 1.400 . S
C2751 C2756 1.490 . S
C2752 H2742 0.930 . S
C2752 C2751 1.400 . S
C2752 C2755 1.386 . S
H2753 C2769 0.930 . S
H2754 C2770 0.931 . S
C2755 H2743 0.929 . S
C2755 C2749 1.390 . S
C2755 C2752 1.386 . S
C2756 C2751 1.490 . S
C2756 C2758 1.395 . S
C2756 C2759 1.403 . S
H2757 C2763 0.930 . S
C2758 H2744 0.930 . S
C2758 C2756 1.395 . S
C2758 C2761 1.403 . S
C2759 C2756 1.403 . S
C2759 C2760 1.524 . S
C2759 C2763 1.400 . S
C2760 H2745 0.960 . S
C2760 H2746 0.960 . S
C2760 H2747 0.960 . S
C2760 C2759 1.524 . S
C2761 C2758 1.403 . S
C2761 C2762 1.392 . S
C2761 C2765 1.495 . S
C2762 C2761 1.392 . S
C2762 C2763 1.385 . S
C2762 C2764 1.478 . S
C2763 H2757 0.930 . S
C2763 C2759 1.400 . S
C2763 C2762 1.385 . S
C2764 C2762 1.478 . S
C2764 C2766 1.381 . S
C2764 C2770 1.383 . S
C2765 C2761 1.495 . S
C2765 H2771 0.959 . S
C2765 H2772 0.961 . S
C2765 H2773 0.960 . S
C2766 C2764 1.381 . S
C2766 C2767 1.394 . S
C2766 H2774 0.930 . S
C2767 C2766 1.394 . S
C2767 C2768 1.383 . S
C2767 H2775 0.929 . S
C2768 C2767 1.383 . S
C2768 C2769 1.377 . S
C2769 H2753 0.930 . S
C2769 C2768 1.377 . S
C2769 C2770 1.379 . S
C2770 H2754 0.931 . S
C2770 C2764 1.383 . S
C2770 C2769 1.379 . S
H2771 C2765 0.959 . S
H2772 C2765 0.961 . S
H2773 C2765 0.960 . S
H2774 C2766 0.930 . S
H2775 C2767 0.929 . S
H2776 C2784 0.929 . S
H2777 C2786 0.930 . S
H2778 C2788 0.930 . S
H2779 C2791 0.929 . S
H2780 C2794 0.930 . S
H2781 C2796 0.960 . S
H2782 C2796 0.960 . S
H2783 C2796 0.960 . S
C2784 H2776 0.929 . S
C2784 C2785 1.377 . S
C2784 C2786 1.384 . S
C2785 C2784 1.377 . S
C2785 C2791 1.390 . S
C2786 H2777 0.930 . S
C2786 C2784 1.384 . S
C2786 C2787 1.372 . S
C2787 C2786 1.372 . S
C2787 C2788 1.400 . S
C2787 C2792 1.490 . S
C2788 H2778 0.930 . S
C2788 C2787 1.400 . S
C2788 C2791 1.386 . S
H2789 C2805 0.930 . S
H2790 C2806 0.931 . S
C2791 H2779 0.929 . S
C2791 C2785 1.390 . S
C2791 C2788 1.386 . S
C2792 C2787 1.490 . S
C2792 C2794 1.395 . S
C2792 C2795 1.403 . S
H2793 C2799 0.930 . S
C2794 H2780 0.930 . S
C2794 C2792 1.395 . S
C2794 C2797 1.403 . S
C2795 C2792 1.403 . S
C2795 C2796 1.524 . S
C2795 C2799 1.400 . S
C2796 H2781 0.960 . S
C2796 H2782 0.960 . S
C2796 H2783 0.960 . S
C2796 C2795 1.524 . S
C2797 C2794 1.403 . S
C2797 C2798 1.392 . S
C2797 C2801 1.495 . S
C2798 C2797 1.392 . S
C2798 C2799 1.385 . S
C2798 C2800 1.478 . S
C2799 H2793 0.930 . S
C2799 C2795 1.400 . S
C2799 C2798 1.385 . S
C2800 C2798 1.478 . S
C2800 C2802 1.381 . S
C2800 C2806 1.383 . S
C2801 C2797 1.495 . S
C2801 H2807 0.959 . S
C2801 H2808 0.961 . S
C2801 H2809 0.960 . S
C2802 C2800 1.381 . S
C2802 C2803 1.394 . S
C2802 H2810 0.930 . S
C2803 C2802 1.394 . S
C2803 C2804 1.383 . S
C2803 H2811 0.929 . S
C2804 C2803 1.383 . S
C2804 C2805 1.377 . S
C2805 H2789 0.930 . S
C2805 C2804 1.377 . S
C2805 C2806 1.379 . S
C2806 H2790 0.931 . S
C2806 C2800 1.383 . S
C2806 C2805 1.379 . S
H2807 C2801 0.959 . S
H2808 C2801 0.961 . S
H2809 C2801 0.960 . S
H2810 C2802 0.930 . S
H2811 C2803 0.929 . S
H2812 C2820 0.929 . S
H2813 C2822 0.930 . S
H2814 C2824 0.930 . S
H2815 C2827 0.929 . S
H2816 C2830 0.930 . S
H2817 C2832 0.960 . S
H2818 C2832 0.960 . S
H2819 C2832 0.960 . S
C2820 H2812 0.929 . S
C2820 C2821 1.377 . S
C2820 C2822 1.384 . S
C2821 C2820 1.377 . S
C2821 C2827 1.390 . S
C2822 H2813 0.930 . S
C2822 C2820 1.384 . S
C2822 C2823 1.372 . S
C2823 C2822 1.372 . S
C2823 C2824 1.400 . S
C2823 C2828 1.490 . S
C2824 H2814 0.930 . S
C2824 C2823 1.400 . S
C2824 C2827 1.386 . S
H2825 C2841 0.930 . S
H2826 C2842 0.931 . S
C2827 H2815 0.929 . S
C2827 C2821 1.390 . S
C2827 C2824 1.386 . S
C2828 C2823 1.490 . S
C2828 C2830 1.395 . S
C2828 C2831 1.403 . S
H2829 C2835 0.930 . S
C2830 H2816 0.930 . S
C2830 C2828 1.395 . S
C2830 C2833 1.403 . S
C2831 C2828 1.403 . S
C2831 C2832 1.524 . S
C2831 C2835 1.400 . S
C2832 H2817 0.960 . S
C2832 H2818 0.960 . S
C2832 H2819 0.960 . S
C2832 C2831 1.524 . S
C2833 C2830 1.403 . S
C2833 C2834 1.392 . S
C2833 C2837 1.495 . S
C2834 C2833 1.392 . S
C2834 C2835 1.385 . S
C2834 C2836 1.478 . S
C2835 H2829 0.930 . S
C2835 C2831 1.400 . S
C2835 C2834 1.385 . S
C2836 C2834 1.478 . S
C2836 C2838 1.381 . S
C2836 C2842 1.383 . S
C2837 C2833 1.495 . S
C2837 H2843 0.959 . S
C2837 H2844 0.961 . S
C2837 H2845 0.960 . S
C2838 C2836 1.381 . S
C2838 C2839 1.394 . S
C2838 H2846 0.930 . S
C2839 C2838 1.394 . S
C2839 C2840 1.383 . S
C2839 H2847 0.929 . S
C2840 C2839 1.383 . S
C2840 C2841 1.377 . S
C2841 H2825 0.930 . S
C2841 C2840 1.377 . S
C2841 C2842 1.379 . S
C2842 H2826 0.931 . S
C2842 C2836 1.383 . S
C2842 C2841 1.379 . S
H2843 C2837 0.959 . S
H2844 C2837 0.961 . S
H2845 C2837 0.960 . S
H2846 C2838 0.930 . S
H2847 C2839 0.929 . S
H2848 C2856 0.929 . S
H2849 C2858 0.930 . S
H2850 C2860 0.930 . S
H2851 C2863 0.929 . S
H2852 C2866 0.931 . S
H2853 C2868 0.960 . S
H2854 C2868 0.960 . S
H2855 C2868 0.960 1_545 S
C2856 H2848 0.929 . S
C2856 C2857 1.377 . S
C2856 C2858 1.384 . S
C2857 C2856 1.377 . S
C2857 C2863 1.390 1_565 S
C2858 H2849 0.930 . S
C2858 C2856 1.384 . S
C2858 C2859 1.372 . S
C2859 C2858 1.372 . S
C2859 C2860 1.400 1_565 S
C2859 C2864 1.490 . S
C2860 H2850 0.930 . S
C2860 C2859 1.400 1_545 S
C2860 C2863 1.386 . S
H2861 C2877 0.930 . S
H2862 C2878 0.931 . S
C2863 H2851 0.929 . S
C2863 C2857 1.390 1_545 S
C2863 C2860 1.386 . S
C2864 C2859 1.490 . S
C2864 C2866 1.393 1_565 S
C2864 C2867 1.403 . S
H2865 C2871 0.930 . S
C2866 H2852 0.931 . S
C2866 C2864 1.393 1_545 S
C2866 C2869 1.405 1_554 S
C2867 C2864 1.403 . S
C2867 C2868 1.524 . S
C2867 C2871 1.400 1_554 S
C2868 H2853 0.960 . S
C2868 H2854 0.960 . S
C2868 H2855 0.960 1_565 S
C2868 C2867 1.524 . S
C2869 C2866 1.405 1_556 S
C2869 C2870 1.392 . S
C2869 C2873 1.495 . S
C2870 C2869 1.392 . S
C2870 C2871 1.385 1_545 S
C2870 C2872 1.478 . S
C2871 H2865 0.930 . S
C2871 C2867 1.400 1_556 S
C2871 C2870 1.385 1_565 S
C2872 C2870 1.478 . S
C2872 C2874 1.381 1_545 S
C2872 C2878 1.383 . S
C2873 C2869 1.495 . S
C2873 H2879 0.959 . S
C2873 H2880 0.961 . S
C2873 H2881 0.960 1_545 S
C2874 C2872 1.381 1_565 S
C2874 C2875 1.394 . S
C2874 H2882 0.930 . S
C2875 C2874 1.394 . S
C2875 C2876 1.383 1_565 S
C2875 H2883 0.929 . S
C2876 C2875 1.383 1_545 S
C2876 C2877 1.377 . S
C2877 H2861 0.930 . S
C2877 C2876 1.377 . S
C2877 C2878 1.379 . S
C2878 H2862 0.931 . S
C2878 C2872 1.383 . S
C2878 C2877 1.379 . S
H2879 C2873 0.959 . S
H2880 C2873 0.961 . S
H2881 C2873 0.960 1_565 S
H2882 C2874 0.930 . S
H2883 C2875 0.929 . S
H2884 C2892 0.929 . S
H2885 C2894 0.930 . S
H2886 C2896 0.930 . S
H2887 C2899 0.929 . S
H2888 C2902 0.930 . S
H2889 C2904 0.960 . S
H2890 C2904 0.960 . S
H2891 C2904 0.960 . S
C2892 H2884 0.929 . S
C2892 C2893 1.377 . S
C2892 C2894 1.384 . S
C2893 C2892 1.377 . S
C2893 C2899 1.390 . S
C2894 H2885 0.930 . S
C2894 C2892 1.384 . S
C2894 C2895 1.372 . S
C2895 C2894 1.372 . S
C2895 C2896 1.400 . S
C2895 C2900 1.490 . S
C2896 H2886 0.930 . S
C2896 C2895 1.400 . S
C2896 C2899 1.386 . S
H2897 C2913 0.930 . S
H2898 C2914 0.931 . S
C2899 H2887 0.929 . S
C2899 C2893 1.390 . S
C2899 C2896 1.386 . S
C2900 C2895 1.490 . S
C2900 C2902 1.395 . S
C2900 C2903 1.403 . S
H2901 C2907 0.930 . S
C2902 H2888 0.930 . S
C2902 C2900 1.395 . S
C2902 C2905 1.403 1_554 S
C2903 C2900 1.403 . S
C2903 C2904 1.524 . S
C2903 C2907 1.400 1_554 S
C2904 H2889 0.960 . S
C2904 H2890 0.960 . S
C2904 H2891 0.960 . S
C2904 C2903 1.524 . S
C2905 C2902 1.403 1_556 S
C2905 C2906 1.392 . S
C2905 C2909 1.495 . S
C2906 C2905 1.392 . S
C2906 C2907 1.385 . S
C2906 C2908 1.478 . S
C2907 H2901 0.930 . S
C2907 C2903 1.400 1_556 S
C2907 C2906 1.385 . S
C2908 C2906 1.478 . S
C2908 C2910 1.381 . S
C2908 C2914 1.383 . S
C2909 C2905 1.495 . S
C2909 H2915 0.959 . S
C2909 H2916 0.961 . S
C2909 H2917 0.960 . S
C2910 C2908 1.381 . S
C2910 C2911 1.394 . S
C2910 H2918 0.930 . S
C2911 C2910 1.394 . S
C2911 C2912 1.383 . S
C2911 H2919 0.929 . S
C2912 C2911 1.383 . S
C2912 C2913 1.377 . S
C2913 H2897 0.930 . S
C2913 C2912 1.377 . S
C2913 C2914 1.379 . S
C2914 H2898 0.931 . S
C2914 C2908 1.383 . S
C2914 C2913 1.379 . S
H2915 C2909 0.959 . S
H2916 C2909 0.961 . S
H2917 C2909 0.960 . S
H2918 C2910 0.930 . S
H2919 C2911 0.929 . S
H2920 C2928 0.929 . S
H2921 C2930 0.930 . S
H2922 C2932 0.930 . S
H2923 C2935 0.929 . S
H2924 C2938 0.930 . S
H2925 C2940 0.960 . S
H2926 C2940 0.960 . S
H2927 C2940 0.960 . S
C2928 H2920 0.929 . S
C2928 C2929 1.377 . S
C2928 C2930 1.384 . S
C2929 C2928 1.377 . S
C2929 C2935 1.390 . S
C2930 H2921 0.930 . S
C2930 C2928 1.384 . S
C2930 C2931 1.372 . S
C2931 C2930 1.372 . S
C2931 C2932 1.400 . S
C2931 C2936 1.490 . S
C2932 H2922 0.930 . S
C2932 C2931 1.400 . S
C2932 C2935 1.386 . S
H2933 C2949 0.930 . S
H2934 C2950 0.931 . S
C2935 H2923 0.929 . S
C2935 C2929 1.390 . S
C2935 C2932 1.386 . S
C2936 C2931 1.490 . S
C2936 C2938 1.395 . S
C2936 C2939 1.403 . S
H2937 C2943 0.930 . S
C2938 H2924 0.930 . S
C2938 C2936 1.395 . S
C2938 C2941 1.403 . S
C2939 C2936 1.403 . S
C2939 C2940 1.524 . S
C2939 C2943 1.400 . S
C2940 H2925 0.960 . S
C2940 H2926 0.960 . S
C2940 H2927 0.960 . S
C2940 C2939 1.524 . S
C2941 C2938 1.403 . S
C2941 C2942 1.392 . S
C2941 C2945 1.495 . S
C2942 C2941 1.392 . S
C2942 C2943 1.385 . S
C2942 C2944 1.478 . S
C2943 H2937 0.930 . S
C2943 C2939 1.400 . S
C2943 C2942 1.385 . S
C2944 C2942 1.478 . S
C2944 C2946 1.381 . S
C2944 C2950 1.383 . S
C2945 C2941 1.495 . S
C2945 H2951 0.959 . S
C2945 H2952 0.961 . S
C2945 H2953 0.960 . S
C2946 C2944 1.381 . S
C2946 C2947 1.394 . S
C2946 H2954 0.930 . S
C2947 C2946 1.394 . S
C2947 C2948 1.383 . S
C2947 H2955 0.929 . S
C2948 C2947 1.383 . S
C2948 C2949 1.377 . S
C2949 H2933 0.930 . S
C2949 C2948 1.377 . S
C2949 C2950 1.379 . S
C2950 H2934 0.931 . S
C2950 C2944 1.383 . S
C2950 C2949 1.379 . S
H2951 C2945 0.959 . S
H2952 C2945 0.961 . S
H2953 C2945 0.960 . S
H2954 C2946 0.930 . S
H2955 C2947 0.929 . S
H2956 C2964 0.929 . S
H2957 C2966 0.930 . S
H2958 C2968 0.938 . S
H2959 C2971 0.929 1_545 S
H2960 C2974 0.930 . S
H2961 C2976 0.960 . S
H2962 C2976 0.960 . S
H2963 C2976 0.960 . S
C2964 H2956 0.929 . S
C2964 C2965 1.377 . S
C2964 C2966 1.384 . S
C2965 C2964 1.377 . S
C2965 C2971 1.390 . S
C2966 H2957 0.930 . S
C2966 C2964 1.384 . S
C2966 C2967 1.372 . S
C2967 C2966 1.372 . S
C2967 C2968 1.395 1_565 S
C2967 C2972 1.490 . S
C2968 H2958 0.938 . S
C2968 C2967 1.395 1_545 S
C2968 C2971 1.383 1_545 S
H2969 C2985 0.930 . S
H2970 C2986 0.931 . S
C2971 H2959 0.929 1_565 S
C2971 C2965 1.390 . S
C2971 C2968 1.383 1_565 S
C2972 C2967 1.490 . S
C2972 C2974 1.395 . S
C2972 C2975 1.403 1_565 S
H2973 C2979 0.930 . S
C2974 H2960 0.930 . S
C2974 C2972 1.395 . S
C2974 C2977 1.403 . S
C2975 C2972 1.403 1_545 S
C2975 C2976 1.524 . S
C2975 C2979 1.400 . S
C2976 H2961 0.960 . S
C2976 H2962 0.960 . S
C2976 H2963 0.960 . S
C2976 C2975 1.524 . S
C2977 C2974 1.403 . S
C2977 C2978 1.392 . S
C2977 C2981 1.495 . S
C2978 C2977 1.392 . S
C2978 C2979 1.385 1_565 S
C2978 C2980 1.478 1_565 S
C2979 H2973 0.930 . S
C2979 C2975 1.400 . S
C2979 C2978 1.385 1_545 S
C2980 C2978 1.478 1_545 S
C2980 C2982 1.381 1_545 S
C2980 C2986 1.382 . S
C2981 C2977 1.495 . S
C2981 H2987 0.959 . S
C2981 H2988 0.961 . S
C2981 H2989 0.960 . S
C2982 C2980 1.381 1_565 S
C2982 C2983 1.394 1_565 S
C2982 H2990 0.930 . S
C2983 C2982 1.394 1_545 S
C2983 C2984 1.383 . S
C2983 H2991 0.929 . S
C2984 C2983 1.383 . S
C2984 C2985 1.377 . S
C2985 H2969 0.930 . S
C2985 C2984 1.377 . S
C2985 C2986 1.379 . S
C2986 H2970 0.931 . S
C2986 C2980 1.382 . S
C2986 C2985 1.379 . S
H2987 C2981 0.959 . S
H2988 C2981 0.961 . S
H2989 C2981 0.960 . S
H2990 C2982 0.930 . S
H2991 C2983 0.929 . S
H2992 C3000 0.929 . S
H2993 C3002 0.930 . S
H2994 C3004 0.930 . S
H2995 C3007 0.929 . S
H2996 C3010 0.930 . S
H2997 C3012 0.960 . S
H2998 C3012 0.960 . S
H2999 C3012 0.960 . S
C3000 H2992 0.929 . S
C3000 C3001 1.377 . S
C3000 C3002 1.384 . S
C3001 C3000 1.377 . S
C3001 C3007 1.390 . S
C3002 H2993 0.930 . S
C3002 C3000 1.384 . S
C3002 C3003 1.372 . S
C3003 C3002 1.372 . S
C3003 C3004 1.400 . S
C3003 C3008 1.490 . S
C3004 H2994 0.930 . S
C3004 C3003 1.400 . S
C3004 C3007 1.386 . S
H3005 C3021 0.930 . S
H3006 C3022 0.931 . S
C3007 H2995 0.929 . S
C3007 C3001 1.390 . S
C3007 C3004 1.386 . S
C3008 C3003 1.490 . S
C3008 C3010 1.395 . S
C3008 C3011 1.403 . S
H3009 C3015 0.930 . S
C3010 H2996 0.930 . S
C3010 C3008 1.395 . S
C3010 C3013 1.403 1_556 S
C3011 C3008 1.403 . S
C3011 C3012 1.524 . S
C3011 C3015 1.400 1_556 S
C3012 H2997 0.960 . S
C3012 H2998 0.960 . S
C3012 H2999 0.960 . S
C3012 C3011 1.524 . S
C3013 C3010 1.403 1_554 S
C3013 C3014 1.392 . S
C3013 C3017 1.495 . S
C3014 C3013 1.392 . S
C3014 C3015 1.385 . S
C3014 C3016 1.478 . S
C3015 H3009 0.930 . S
C3015 C3011 1.400 1_554 S
C3015 C3014 1.385 . S
C3016 C3014 1.478 . S
C3016 C3018 1.381 . S
C3016 C3022 1.383 . S
C3017 C3013 1.495 . S
C3017 H3023 0.959 . S
C3017 H3024 0.961 . S
C3017 H3025 0.960 . S
C3018 C3016 1.381 . S
C3018 C3019 1.394 . S
C3018 H3026 0.930 . S
C3019 C3018 1.394 . S
C3019 C3020 1.383 . S
C3019 H3027 0.929 . S
C3020 C3019 1.383 . S
C3020 C3021 1.377 . S
C3021 H3005 0.930 . S
C3021 C3020 1.377 . S
C3021 C3022 1.379 . S
C3022 H3006 0.931 . S
C3022 C3016 1.383 . S
C3022 C3021 1.379 . S
H3023 C3017 0.959 . S
H3024 C3017 0.961 . S
H3025 C3017 0.960 . S
H3026 C3018 0.930 . S
H3027 C3019 0.929 . S
H3028 C3036 0.929 . S
H3029 C3038 0.930 . S
H3030 C3040 0.930 . S
H3031 C3043 0.929 . S
H3032 C3046 0.930 . S
H3033 C3048 0.960 . S
H3034 C3048 0.960 . S
H3035 C3048 0.960 . S
C3036 H3028 0.929 . S
C3036 C3037 1.377 . S
C3036 C3038 1.384 . S
C3037 C3036 1.377 . S
C3037 C3043 1.390 . S
C3038 H3029 0.930 . S
C3038 C3036 1.384 . S
C3038 C3039 1.372 . S
C3039 C3038 1.372 . S
C3039 C3040 1.400 . S
C3039 C3044 1.490 . S
C3040 H3030 0.930 . S
C3040 C3039 1.400 . S
C3040 C3043 1.386 . S
H3041 C3057 0.930 . S
H3042 C3058 0.931 . S
C3043 H3031 0.929 . S
C3043 C3037 1.390 . S
C3043 C3040 1.386 . S
C3044 C3039 1.490 . S
C3044 C3046 1.395 . S
C3044 C3047 1.403 . S
H3045 C3051 0.930 . S
C3046 H3032 0.930 . S
C3046 C3044 1.395 . S
C3046 C3049 1.403 . S
C3047 C3044 1.403 . S
C3047 C3048 1.524 . S
C3047 C3051 1.400 . S
C3048 H3033 0.960 . S
C3048 H3034 0.960 . S
C3048 H3035 0.960 . S
C3048 C3047 1.524 . S
C3049 C3046 1.403 . S
C3049 C3050 1.392 . S
C3049 C3053 1.495 . S
C3050 C3049 1.392 . S
C3050 C3051 1.385 . S
C3050 C3052 1.478 . S
C3051 H3045 0.930 . S
C3051 C3047 1.400 . S
C3051 C3050 1.385 . S
C3052 C3050 1.478 . S
C3052 C3054 1.381 . S
C3052 C3058 1.383 . S
C3053 C3049 1.495 . S
C3053 H3059 0.959 . S
C3053 H3060 0.961 . S
C3053 H3061 0.960 . S
C3054 C3052 1.381 . S
C3054 C3055 1.394 . S
C3054 H3062 0.930 . S
C3055 C3054 1.394 . S
C3055 C3056 1.383 . S
C3055 H3063 0.929 . S
C3056 C3055 1.383 . S
C3056 C3057 1.377 . S
C3057 H3041 0.930 . S
C3057 C3056 1.377 . S
C3057 C3058 1.379 . S
C3058 H3042 0.931 . S
C3058 C3052 1.383 . S
C3058 C3057 1.379 . S
H3059 C3053 0.959 . S
H3060 C3053 0.961 . S
H3061 C3053 0.960 . S
H3062 C3054 0.930 . S
H3063 C3055 0.929 . S
H3064 C3072 0.929 . S
H3065 C3074 0.930 . S
H3066 C3076 0.930 . S
H3067 C3079 0.929 . S
H3068 C3082 0.930 . S
H3069 C3084 0.960 . S
H3070 C3084 0.960 . S
H3071 C3084 0.960 . S
C3072 H3064 0.929 . S
C3072 C3073 1.377 . S
C3072 C3074 1.384 . S
C3073 C3072 1.377 . S
C3073 C3079 1.390 . S
C3074 H3065 0.930 . S
C3074 C3072 1.384 . S
C3074 C3075 1.372 . S
C3075 C3074 1.372 . S
C3075 C3076 1.400 . S
C3075 C3080 1.490 . S
C3076 H3066 0.930 . S
C3076 C3075 1.400 . S
C3076 C3079 1.386 . S
H3077 C3093 0.930 . S
H3078 C3094 0.931 . S
C3079 H3067 0.929 . S
C3079 C3073 1.390 . S
C3079 C3076 1.386 . S
C3080 C3075 1.490 . S
C3080 C3082 1.395 1_565 S
C3080 C3083 1.403 . S
H3081 C3087 0.930 . S
C3082 H3068 0.930 . S
C3082 C3080 1.395 1_545 S
C3082 C3085 1.403 . S
C3083 C3080 1.403 . S
C3083 C3084 1.524 . S
C3083 C3087 1.400 . S
C3084 H3069 0.960 . S
C3084 H3070 0.960 . S
C3084 H3071 0.960 . S
C3084 C3083 1.524 . S
C3085 C3082 1.403 . S
C3085 C3086 1.392 . S
C3085 C3089 1.495 . S
C3086 C3085 1.392 . S
C3086 C3087 1.385 1_545 S
C3086 C3088 1.478 . S
C3087 H3081 0.930 . S
C3087 C3083 1.400 . S
C3087 C3086 1.385 1_565 S
C3088 C3086 1.478 . S
C3088 C3090 1.381 . S
C3088 C3094 1.383 . S
C3089 C3085 1.495 . S
C3089 H3095 0.959 . S
C3089 H3096 0.961 . S
C3089 H3097 0.960 . S
C3090 C3088 1.381 . S
C3090 C3091 1.394 . S
C3090 H3098 0.930 . S
C3091 C3090 1.394 . S
C3091 C3092 1.383 . S
C3091 H3099 0.929 . S
C3092 C3091 1.383 . S
C3092 C3093 1.377 . S
C3093 H3077 0.930 . S
C3093 C3092 1.377 . S
C3093 C3094 1.379 . S
C3094 H3078 0.931 . S
C3094 C3088 1.383 . S
C3094 C3093 1.379 . S
H3095 C3089 0.959 . S
H3096 C3089 0.961 . S
H3097 C3089 0.960 . S
H3098 C3090 0.930 . S
H3099 C3091 0.929 . S
H3100 C3108 0.929 . S
H3101 C3110 0.930 . S
H3102 C3112 0.930 . S
H3103 C3115 0.929 . S
H3104 C3118 0.930 . S
H3105 C3120 0.960 . S
H3106 C3120 0.960 . S
H3107 C3120 0.960 . S
C3108 H3100 0.929 . S
C3108 C3109 1.377 . S
C3108 C3110 1.384 . S
C3109 C3108 1.377 . S
C3109 C3115 1.390 . S
C3110 H3101 0.930 . S
C3110 C3108 1.384 . S
C3110 C3111 1.372 . S
C3111 C3110 1.372 . S
C3111 C3112 1.400 . S
C3111 C3116 1.490 . S
C3112 H3102 0.930 . S
C3112 C3111 1.400 . S
C3112 C3115 1.386 . S
H3113 C3129 0.930 . S
H3114 C3130 0.931 . S
C3115 H3103 0.929 . S
C3115 C3109 1.390 . S
C3115 C3112 1.386 . S
C3116 C3111 1.490 . S
C3116 C3118 1.395 . S
C3116 C3119 1.403 . S
H3117 C3123 0.930 . S
C3118 H3104 0.930 . S
C3118 C3116 1.395 . S
C3118 C3121 1.403 . S
C3119 C3116 1.403 . S
C3119 C3120 1.524 . S
C3119 C3123 1.400 . S
C3120 H3105 0.960 . S
C3120 H3106 0.960 . S
C3120 H3107 0.960 . S
C3120 C3119 1.524 . S
C3121 C3118 1.403 . S
C3121 C3122 1.392 . S
C3121 C3125 1.495 . S
C3122 C3121 1.392 . S
C3122 C3123 1.385 . S
C3122 C3124 1.478 . S
C3123 H3117 0.930 . S
C3123 C3119 1.400 . S
C3123 C3122 1.385 . S
C3124 C3122 1.478 . S
C3124 C3126 1.381 . S
C3124 C3130 1.383 . S
C3125 C3121 1.495 . S
C3125 H3131 0.959 . S
C3125 H3132 0.961 . S
C3125 H3133 0.960 . S
C3126 C3124 1.381 . S
C3126 C3127 1.394 . S
C3126 H3134 0.930 . S
C3127 C3126 1.394 . S
C3127 C3128 1.383 . S
C3127 H3135 0.929 . S
C3128 C3127 1.383 . S
C3128 C3129 1.377 . S
C3129 H3113 0.930 . S
C3129 C3128 1.377 . S
C3129 C3130 1.379 . S
C3130 H3114 0.931 . S
C3130 C3124 1.383 . S
C3130 C3129 1.379 . S
H3131 C3125 0.959 . S
H3132 C3125 0.961 . S
H3133 C3125 0.960 . S
H3134 C3126 0.930 . S
H3135 C3127 0.929 . S
H3136 C3144 0.929 . S
H3137 C3146 0.930 . S
H3138 C3148 0.930 . S
H3139 C3151 0.929 . S
H3140 C3154 0.930 . S
H3141 C3156 0.960 . S
H3142 C3156 0.960 . S
H3143 C3156 0.960 . S
C3144 H3136 0.929 . S
C3144 C3145 1.377 . S
C3144 C3146 1.384 . S
C3145 C3144 1.377 . S
C3145 C3151 1.390 . S
C3146 H3137 0.930 . S
C3146 C3144 1.384 . S
C3146 C3147 1.372 . S
C3147 C3146 1.372 . S
C3147 C3148 1.400 . S
C3147 C3152 1.490 . S
C3148 H3138 0.930 . S
C3148 C3147 1.400 . S
C3148 C3151 1.386 . S
H3149 C3165 0.930 . S
H3150 C3166 0.931 . S
C3151 H3139 0.929 . S
C3151 C3145 1.390 . S
C3151 C3148 1.386 . S
C3152 C3147 1.490 . S
C3152 C3154 1.395 . S
C3152 C3155 1.403 . S
H3153 C3159 0.930 . S
C3154 H3140 0.930 . S
C3154 C3152 1.395 . S
C3154 C3157 1.403 . S
C3155 C3152 1.403 . S
C3155 C3156 1.524 . S
C3155 C3159 1.400 . S
C3156 H3141 0.960 . S
C3156 H3142 0.960 . S
C3156 H3143 0.960 . S
C3156 C3155 1.524 . S
C3157 C3154 1.403 . S
C3157 C3158 1.392 . S
C3157 C3161 1.495 . S
C3158 C3157 1.392 . S
C3158 C3159 1.385 . S
C3158 C3160 1.478 . S
C3159 H3153 0.930 . S
C3159 C3155 1.400 . S
C3159 C3158 1.385 . S
C3160 C3158 1.478 . S
C3160 C3162 1.381 . S
C3160 C3166 1.383 . S
C3161 C3157 1.495 . S
C3161 H3167 0.959 . S
C3161 H3168 0.961 . S
C3161 H3169 0.960 . S
C3162 C3160 1.381 . S
C3162 C3163 1.394 . S
C3162 H3170 0.930 . S
C3163 C3162 1.394 . S
C3163 C3164 1.383 . S
C3163 H3171 0.929 . S
C3164 C3163 1.383 . S
C3164 C3165 1.377 . S
C3165 H3149 0.930 . S
C3165 C3164 1.377 . S
C3165 C3166 1.379 . S
C3166 H3150 0.931 . S
C3166 C3160 1.383 . S
C3166 C3165 1.379 . S
H3167 C3161 0.959 . S
H3168 C3161 0.961 . S
H3169 C3161 0.960 . S
H3170 C3162 0.930 . S
H3171 C3163 0.929 . S
H3172 C3180 0.929 . S
H3173 C3182 0.930 . S
H3174 C3184 0.930 . S
H3175 C3187 0.929 . S
H3176 C3190 0.930 . S
H3177 C3192 0.960 . S
H3178 C3192 0.960 . S
H3179 C3192 0.960 . S
C3180 H3172 0.929 . S
C3180 C3181 1.377 . S
C3180 C3182 1.384 . S
C3181 C3180 1.377 . S
C3181 C3187 1.390 . S
C3182 H3173 0.930 . S
C3182 C3180 1.384 . S
C3182 C3183 1.372 . S
C3183 C3182 1.372 . S
C3183 C3184 1.400 . S
C3183 C3188 1.490 . S
C3184 H3174 0.930 . S
C3184 C3183 1.400 . S
C3184 C3187 1.386 . S
H3185 C3201 0.930 . S
H3186 C3202 0.931 . S
C3187 H3175 0.929 . S
C3187 C3181 1.390 . S
C3187 C3184 1.386 . S
C3188 C3183 1.490 . S
C3188 C3190 1.395 . S
C3188 C3191 1.403 . S
H3189 C3195 0.930 . S
C3190 H3176 0.930 . S
C3190 C3188 1.395 . S
C3190 C3193 1.403 . S
C3191 C3188 1.403 . S
C3191 C3192 1.524 . S
C3191 C3195 1.400 . S
C3192 H3177 0.960 . S
C3192 H3178 0.960 . S
C3192 H3179 0.960 . S
C3192 C3191 1.524 . S
C3193 C3190 1.403 . S
C3193 C3194 1.392 . S
C3193 C3197 1.495 . S
C3194 C3193 1.392 . S
C3194 C3195 1.385 . S
C3194 C3196 1.478 . S
C3195 H3189 0.930 . S
C3195 C3191 1.400 . S
C3195 C3194 1.385 . S
C3196 C3194 1.478 . S
C3196 C3198 1.381 . S
C3196 C3202 1.383 . S
C3197 C3193 1.495 . S
C3197 H3203 0.959 . S
C3197 H3204 0.961 . S
C3197 H3205 0.960 . S
C3198 C3196 1.381 . S
C3198 C3199 1.394 . S
C3198 H3206 0.930 . S
C3199 C3198 1.394 . S
C3199 C3200 1.383 . S
C3199 H3207 0.929 . S
C3200 C3199 1.383 . S
C3200 C3201 1.377 . S
C3201 H3185 0.930 . S
C3201 C3200 1.377 . S
C3201 C3202 1.379 . S
C3202 H3186 0.931 . S
C3202 C3196 1.383 . S
C3202 C3201 1.379 . S
H3203 C3197 0.959 . S
H3204 C3197 0.961 . S
H3205 C3197 0.960 . S
H3206 C3198 0.930 . S
H3207 C3199 0.929 . S
H3208 C3216 0.929 . S
H3209 C3218 0.930 . S
H3210 C3220 0.930 . S
H3211 C3223 0.929 . S
H3212 C3226 0.930 . S
H3213 C3228 0.960 . S
H3214 C3228 0.960 . S
H3215 C3228 0.960 . S
C3216 H3208 0.929 . S
C3216 C3217 1.377 . S
C3216 C3218 1.384 . S
C3217 C3216 1.377 . S
C3217 C3223 1.390 . S
C3218 H3209 0.930 . S
C3218 C3216 1.384 . S
C3218 C3219 1.372 . S
C3219 C3218 1.372 . S
C3219 C3220 1.400 . S
C3219 C3224 1.490 . S
C3220 H3210 0.930 . S
C3220 C3219 1.400 . S
C3220 C3223 1.386 . S
H3221 C3237 0.930 . S
H3222 C3238 0.931 . S
C3223 H3211 0.929 . S
C3223 C3217 1.390 . S
C3223 C3220 1.386 . S
C3224 C3219 1.490 . S
C3224 C3226 1.395 . S
C3224 C3227 1.403 . S
H3225 C3231 0.930 . S
C3226 H3212 0.930 . S
C3226 C3224 1.395 . S
C3226 C3229 1.403 . S
C3227 C3224 1.403 . S
C3227 C3228 1.524 . S
C3227 C3231 1.400 . S
C3228 H3213 0.960 . S
C3228 H3214 0.960 . S
C3228 H3215 0.960 . S
C3228 C3227 1.524 . S
C3229 C3226 1.403 . S
C3229 C3230 1.392 . S
C3229 C3233 1.495 . S
C3230 C3229 1.392 . S
C3230 C3231 1.385 . S
C3230 C3232 1.478 . S
C3231 H3225 0.930 . S
C3231 C3227 1.400 . S
C3231 C3230 1.385 . S
C3232 C3230 1.478 . S
C3232 C3234 1.381 . S
C3232 C3238 1.383 . S
C3233 C3229 1.495 . S
C3233 H3239 0.959 . S
C3233 H3240 0.961 . S
C3233 H3241 0.960 . S
C3234 C3232 1.381 . S
C3234 C3235 1.394 . S
C3234 H3242 0.930 . S
C3235 C3234 1.394 . S
C3235 C3236 1.383 . S
C3235 H3243 0.929 . S
C3236 C3235 1.383 . S
C3236 C3237 1.377 . S
C3237 H3221 0.930 . S
C3237 C3236 1.377 . S
C3237 C3238 1.379 . S
C3238 H3222 0.931 . S
C3238 C3232 1.383 . S
C3238 C3237 1.379 . S
H3239 C3233 0.959 . S
H3240 C3233 0.961 . S
H3241 C3233 0.960 . S
H3242 C3234 0.930 . S
H3243 C3235 0.929 . S
H3244 C3252 0.929 . S
H3245 C3254 0.930 . S
H3246 C3256 0.930 . S
H3247 C3259 0.929 . S
H3248 C3262 0.930 . S
H3249 C3264 0.960 . S
H3250 C3264 0.960 . S
H3251 C3264 0.960 . S
C3252 H3244 0.929 . S
C3252 C3253 1.377 . S
C3252 C3254 1.384 . S
C3253 C3252 1.377 . S
C3253 C3259 1.390 . S
C3254 H3245 0.930 . S
C3254 C3252 1.384 . S
C3254 C3255 1.372 . S
C3255 C3254 1.372 . S
C3255 C3256 1.400 . S
C3255 C3260 1.490 . S
C3256 H3246 0.930 . S
C3256 C3255 1.400 . S
C3256 C3259 1.386 . S
H3257 C3273 0.930 . S
H3258 C3274 0.931 . S
C3259 H3247 0.929 . S
C3259 C3253 1.390 . S
C3259 C3256 1.386 . S
C3260 C3255 1.490 . S
C3260 C3262 1.395 . S
C3260 C3263 1.403 . S
H3261 C3267 0.930 . S
C3262 H3248 0.930 . S
C3262 C3260 1.395 . S
C3262 C3265 1.403 . S
C3263 C3260 1.403 . S
C3263 C3264 1.524 . S
C3263 C3267 1.400 . S
C3264 H3249 0.960 . S
C3264 H3250 0.960 . S
C3264 H3251 0.960 . S
C3264 C3263 1.524 . S
C3265 C3262 1.403 . S
C3265 C3266 1.392 . S
C3265 C3269 1.495 . S
C3266 C3265 1.392 . S
C3266 C3267 1.385 . S
C3266 C3268 1.478 . S
C3267 H3261 0.930 . S
C3267 C3263 1.400 . S
C3267 C3266 1.385 . S
C3268 C3266 1.478 . S
C3268 C3270 1.381 . S
C3268 C3274 1.383 . S
C3269 C3265 1.495 . S
C3269 H3275 0.959 . S
C3269 H3276 0.961 . S
C3269 H3277 0.960 . S
C3270 C3268 1.381 . S
C3270 C3271 1.394 . S
C3270 H3278 0.930 . S
C3271 C3270 1.394 . S
C3271 C3272 1.383 . S
C3271 H3279 0.929 . S
C3272 C3271 1.383 . S
C3272 C3273 1.377 . S
C3273 H3257 0.930 . S
C3273 C3272 1.377 . S
C3273 C3274 1.379 . S
C3274 H3258 0.931 . S
C3274 C3268 1.383 . S
C3274 C3273 1.379 . S
H3275 C3269 0.959 . S
H3276 C3269 0.961 . S
H3277 C3269 0.960 . S
H3278 C3270 0.930 . S
H3279 C3271 0.929 . S
H3280 C3288 0.929 . S
H3281 C3290 0.930 . S
H3282 C3292 0.930 . S
H3283 C3295 0.929 . S
H3284 C3298 0.930 . S
H3285 C3300 0.960 . S
H3286 C3300 0.960 . S
H3287 C3300 0.960 . S
C3288 H3280 0.929 . S
C3288 C3289 1.377 . S
C3288 C3290 1.384 . S
C3289 C3288 1.377 . S
C3289 C3295 1.390 1_445 S
C3290 H3281 0.930 . S
C3290 C3288 1.384 . S
C3290 C3291 1.372 . S
C3291 C3290 1.372 . S
C3291 C3292 1.400 1_445 S
C3291 C3296 1.490 . S
C3292 H3282 0.930 . S
C3292 C3291 1.400 1_665 S
C3292 C3295 1.386 . S
H3293 C3309 0.930 . S
H3294 C3310 0.931 . S
C3295 H3283 0.929 . S
C3295 C3289 1.390 1_665 S
C3295 C3292 1.386 . S
C3296 C3291 1.490 . S
C3296 C3298 1.395 1_455 S
C3296 C3299 1.403 1_545 S
H3297 C3303 0.930 . S
C3298 H3284 0.930 . S
C3298 C3296 1.395 1_655 S
C3298 C3301 1.403 . S
C3299 C3296 1.403 1_565 S
C3299 C3300 1.524 . S
C3299 C3303 1.400 . S
C3300 H3285 0.960 . S
C3300 H3286 0.960 . S
C3300 H3287 0.960 . S
C3300 C3299 1.524 . S
C3301 C3298 1.403 . S
C3301 C3302 1.392 . S
C3301 C3305 1.495 . S
C3302 C3301 1.392 . S
C3302 C3303 1.385 1_645 S
C3302 C3304 1.478 . S
C3303 H3297 0.930 . S
C3303 C3299 1.400 . S
C3303 C3302 1.385 1_465 S
C3304 C3302 1.478 . S
C3304 C3306 1.381 1_655 S
C3304 C3310 1.383 1_545 S
C3305 C3301 1.495 . S
C3305 H3311 0.959 . S
C3305 H3312 0.961 . S
C3305 H3313 0.960 . S
C3306 C3304 1.381 1_455 S
C3306 C3307 1.394 . S
C3306 H3314 0.930 . S
C3307 C3306 1.394 . S
C3307 C3308 1.383 1_445 S
C3307 H3315 0.929 . S
C3308 C3307 1.383 1_665 S
C3308 C3309 1.377 . S
C3309 H3293 0.930 . S
C3309 C3308 1.377 . S
C3309 C3310 1.379 . S
C3310 H3294 0.931 . S
C3310 C3304 1.383 1_565 S
C3310 C3309 1.379 . S
H3311 C3305 0.959 . S
H3312 C3305 0.961 . S
H3313 C3305 0.960 . S
H3314 C3306 0.930 . S
H3315 C3307 0.929 . S
H3316 C3324 0.929 . S
H3317 C3326 0.930 . S
H3318 C3328 0.930 . S
H3319 C3331 0.929 . S
H3320 C3334 0.930 . S
H3321 C3336 0.960 . S
H3322 C3336 0.960 . S
H3323 C3336 0.960 . S
C3324 H3316 0.929 . S
C3324 C3325 1.377 1_455 S
C3324 C3326 1.384 . S
C3325 C3324 1.377 1_655 S
C3325 C3331 1.390 . S
C3326 H3317 0.930 . S
C3326 C3324 1.384 . S
C3326 C3327 1.341 1_455 S
C3327 C3326 1.341 1_655 S
C3327 C3328 1.434 . S
C3327 C3332 1.487 1_655 S
C3328 H3318 0.930 . S
C3328 C3327 1.434 . S
C3328 C3331 1.386 . S
H3329 C3345 0.930 . S
H3330 C3346 0.931 . S
C3331 H3319 0.929 . S
C3331 C3325 1.390 . S
C3331 C3328 1.386 . S
C3332 C3327 1.487 1_455 S
C3332 C3334 1.422 . S
C3332 C3335 1.379 1_455 S
H3333 C3339 0.930 . S
C3334 H3320 0.930 . S
C3334 C3332 1.422 . S
C3334 C3337 1.403 . S
C3335 C3332 1.379 1_655 S
C3335 C3336 1.524 . S
C3335 C3339 1.400 . S
C3336 H3321 0.960 . S
C3336 H3322 0.960 . S
C3336 H3323 0.960 . S
C3336 C3335 1.524 . S
C3337 C3334 1.403 . S
C3337 C3338 1.392 . S
C3337 C3341 1.495 . S
C3338 C3337 1.392 . S
C3338 C3339 1.385 1_455 S
C3338 C3340 1.478 . S
C3339 H3333 0.930 . S
C3339 C3335 1.400 . S
C3339 C3338 1.385 1_655 S
C3340 C3338 1.478 . S
C3340 C3342 1.381 . S
C3340 C3346 1.383 1_455 S
C3341 C3337 1.495 . S
C3341 H3347 0.959 . S
C3341 H3348 0.961 . S
C3341 H3349 0.960 . S
C3342 C3340 1.381 . S
C3342 C3343 1.394 . S
C3342 H3350 0.930 . S
C3343 C3342 1.394 . S
C3343 C3344 1.383 . S
C3343 H3351 0.929 . S
C3344 C3343 1.383 . S
C3344 C3345 1.377 1_455 S
C3345 H3329 0.930 . S
C3345 C3344 1.377 1_655 S
C3345 C3346 1.379 . S
C3346 H3330 0.931 . S
C3346 C3340 1.383 1_655 S
C3346 C3345 1.379 . S
H3347 C3341 0.959 . S
H3348 C3341 0.961 . S
H3349 C3341 0.960 . S
H3350 C3342 0.930 . S
H3351 C3343 0.929 . S
H3352 C3360 0.929 . S
H3353 C3362 0.930 . S
H3354 C3364 0.930 . S
H3355 C3367 0.929 . S
H3356 C3370 0.930 . S
H3357 C3372 0.960 . S
H3358 C3372 0.960 . S
H3359 C3372 0.960 . S
C3360 H3352 0.929 . S
C3360 C3361 1.377 1_455 S
C3360 C3362 1.384 . S
C3361 C3360 1.377 1_655 S
C3361 C3367 1.390 . S
C3362 H3353 0.930 . S
C3362 C3360 1.384 . S
C3362 C3363 1.345 1_455 S
C3363 C3362 1.345 1_655 S
C3363 C3364 1.428 . S
C3363 C3368 1.487 1_655 S
C3364 H3354 0.930 . S
C3364 C3363 1.428 . S
C3364 C3367 1.386 . S
H3365 C3381 0.930 . S
H3366 C3382 0.931 . S
C3367 H3355 0.929 . S
C3367 C3361 1.390 . S
C3367 C3364 1.386 . S
C3368 C3363 1.487 1_455 S
C3368 C3370 1.420 . S
C3368 C3371 1.381 1_455 S
H3369 C3375 0.930 . S
C3370 H3356 0.930 . S
C3370 C3368 1.420 . S
C3370 C3373 1.403 . S
C3371 C3368 1.381 1_655 S
C3371 C3372 1.524 . S
C3371 C3375 1.400 . S
C3372 H3357 0.960 . S
C3372 H3358 0.960 . S
C3372 H3359 0.960 . S
C3372 C3371 1.524 . S
C3373 C3370 1.403 . S
C3373 C3374 1.392 . S
C3373 C3377 1.495 . S
C3374 C3373 1.392 . S
C3374 C3375 1.385 1_455 S
C3374 C3376 1.478 . S
C3375 H3369 0.930 . S
C3375 C3371 1.400 . S
C3375 C3374 1.385 1_655 S
C3376 C3374 1.478 . S
C3376 C3378 1.381 . S
C3376 C3382 1.383 1_455 S
C3377 C3373 1.495 . S
C3377 H3383 0.959 . S
C3377 H3384 0.961 . S
C3377 H3385 0.960 . S
C3378 C3376 1.381 . S
C3378 C3379 1.394 . S
C3378 H3386 0.930 . S
C3379 C3378 1.394 . S
C3379 C3380 1.383 . S
C3379 H3387 0.929 . S
C3380 C3379 1.383 . S
C3380 C3381 1.377 1_455 S
C3381 H3365 0.930 . S
C3381 C3380 1.377 1_655 S
C3381 C3382 1.379 . S
C3382 H3366 0.931 . S
C3382 C3376 1.383 1_655 S
C3382 C3381 1.379 . S
H3383 C3377 0.959 . S
H3384 C3377 0.961 . S
H3385 C3377 0.960 . S
H3386 C3378 0.930 . S
H3387 C3379 0.929 . S
H3388 C3396 0.929 . S
H3389 C3398 0.930 . S
H3390 C3400 0.930 . S
H3391 C3403 0.929 . S
H3392 C3406 0.930 . S
H3393 C3408 0.960 . S
H3394 C3408 0.960 1_655 S
H3395 C3408 0.960 . S
C3396 H3388 0.929 . S
C3396 C3397 1.377 1_655 S
C3396 C3398 1.384 . S
C3397 C3396 1.377 1_455 S
C3397 C3403 1.390 . S
C3398 H3389 0.930 . S
C3398 C3396 1.384 . S
C3398 C3399 1.352 1_655 S
C3399 C3398 1.352 1_455 S
C3399 C3400 1.421 . S
C3399 C3404 1.489 1_455 S
C3400 H3390 0.930 . S
C3400 C3399 1.421 . S
C3400 C3403 1.386 . S
H3401 C3417 0.930 . S
H3402 C3418 0.931 . S
C3403 H3391 0.929 . S
C3403 C3397 1.390 . S
C3403 C3400 1.386 . S
C3404 C3399 1.489 1_655 S
C3404 C3406 1.400 . S
C3404 C3407 1.399 1_655 S
H3405 C3411 0.930 . S
C3406 H3392 0.930 . S
C3406 C3404 1.400 . S
C3406 C3409 1.403 1_556 S
C3407 C3404 1.399 1_455 S
C3407 C3408 1.524 . S
C3407 C3411 1.400 1_556 S
C3408 H3393 0.960 . S
C3408 H3394 0.960 1_455 S
C3408 H3395 0.960 . S
C3408 C3407 1.524 . S
C3409 C3406 1.403 1_554 S
C3409 C3410 1.392 . S
C3409 C3413 1.495 . S
C3410 C3409 1.392 . S
C3410 C3411 1.385 1_655 S
C3410 C3412 1.478 . S
C3411 H3405 0.930 . S
C3411 C3407 1.400 1_554 S
C3411 C3410 1.385 1_455 S
C3412 C3410 1.478 . S
C3412 C3414 1.381 . S
C3412 C3418 1.383 1_655 S
C3413 C3409 1.495 . S
C3413 H3419 0.959 . S
C3413 H3420 0.992 . S
C3413 H3421 0.960 . S
C3414 C3412 1.381 . S
C3414 C3415 1.394 . S
C3414 H3422 0.930 . S
C3415 C3414 1.394 . S
C3415 C3416 1.383 . S
C3415 H3423 0.929 . S
C3416 C3415 1.383 . S
C3416 C3417 1.377 1_655 S
C3417 H3401 0.930 . S
C3417 C3416 1.377 1_455 S
C3417 C3418 1.379 . S
C3418 H3402 0.931 . S
C3418 C3412 1.383 1_455 S
C3418 C3417 1.379 . S
H3419 C3413 0.959 . S
H3420 C3413 0.992 . S
H3421 C3413 0.960 . S
H3422 C3414 0.930 . S
H3423 C3415 0.929 . S
H3424 C3432 0.929 . S
H3425 C3434 0.930 . S
H3426 C3436 0.930 . S
H3427 C3439 0.929 . S
H3428 C3442 0.930 . S
H3429 C3444 0.960 . S
H3430 C3444 0.960 . S
H3431 C3444 0.960 . S
C3432 H3424 0.929 . S
C3432 C3433 1.377 . S
C3432 C3434 1.384 . S
C3433 C3432 1.377 . S
C3433 C3439 1.390 . S
C3434 H3425 0.930 . S
C3434 C3432 1.384 . S
C3434 C3435 1.372 . S
C3435 C3434 1.372 . S
C3435 C3436 1.400 . S
C3435 C3440 1.490 . S
C3436 H3426 0.930 . S
C3436 C3435 1.400 . S
C3436 C3439 1.386 . S
H3437 C3453 0.930 . S
H3438 C3454 0.931 . S
C3439 H3427 0.929 . S
C3439 C3433 1.390 . S
C3439 C3436 1.386 . S
C3440 C3435 1.490 . S
C3440 C3442 1.395 . S
C3440 C3443 1.403 . S
H3441 C3447 0.930 . S
C3442 H3428 0.930 . S
C3442 C3440 1.395 . S
C3442 C3445 1.403 . S
C3443 C3440 1.403 . S
C3443 C3444 1.524 . S
C3443 C3447 1.400 . S
C3444 H3429 0.960 . S
C3444 H3430 0.960 . S
C3444 H3431 0.960 . S
C3444 C3443 1.524 . S
C3445 C3442 1.403 . S
C3445 C3446 1.392 . S
C3445 C3449 1.495 . S
C3446 C3445 1.392 . S
C3446 C3447 1.385 . S
C3446 C3448 1.478 . S
C3447 H3441 0.930 . S
C3447 C3443 1.400 . S
C3447 C3446 1.385 . S
C3448 C3446 1.478 . S
C3448 C3450 1.381 . S
C3448 C3454 1.383 . S
C3449 C3445 1.495 . S
C3449 H3455 0.959 . S
C3449 H3456 0.961 . S
C3449 H3457 0.960 . S
C3450 C3448 1.381 . S
C3450 C3451 1.394 . S
C3450 H3458 0.930 . S
C3451 C3450 1.394 . S
C3451 C3452 1.383 . S
C3451 H3459 0.929 . S
C3452 C3451 1.383 . S
C3452 C3453 1.377 . S
C3453 H3437 0.930 . S
C3453 C3452 1.377 . S
C3453 C3454 1.379 . S
C3454 H3438 0.931 . S
C3454 C3448 1.383 . S
C3454 C3453 1.379 . S
H3455 C3449 0.959 . S
H3456 C3449 0.961 . S
H3457 C3449 0.960 . S
H3458 C3450 0.930 . S
H3459 C3451 0.929 . S
H3460 C3468 0.929 . S
H3461 C3470 0.930 . S
H3462 C3472 0.930 . S
H3463 C3475 0.929 . S
H3464 C3478 0.930 . S
H3465 C3480 0.960 . S
H3466 C3480 0.960 . S
H3467 C3480 0.960 . S
C3468 H3460 0.929 . S
C3468 C3469 1.377 . S
C3468 C3470 1.384 . S
C3469 C3468 1.377 . S
C3469 C3475 1.390 . S
C3470 H3461 0.930 . S
C3470 C3468 1.384 . S
C3470 C3471 1.372 . S
C3471 C3470 1.372 . S
C3471 C3472 1.400 . S
C3471 C3476 1.490 . S
C3472 H3462 0.930 . S
C3472 C3471 1.400 . S
C3472 C3475 1.386 . S
H3473 C3489 0.930 . S
H3474 C3490 0.931 . S
C3475 H3463 0.929 . S
C3475 C3469 1.390 . S
C3475 C3472 1.386 . S
C3476 C3471 1.490 . S
C3476 C3478 1.395 . S
C3476 C3479 1.403 . S
H3477 C3483 0.930 . S
C3478 H3464 0.930 . S
C3478 C3476 1.395 . S
C3478 C3481 1.403 . S
C3479 C3476 1.403 . S
C3479 C3480 1.524 . S
C3479 C3483 1.400 . S
C3480 H3465 0.960 . S
C3480 H3466 0.960 . S
C3480 H3467 0.960 . S
C3480 C3479 1.524 . S
C3481 C3478 1.403 . S
C3481 C3482 1.392 . S
C3481 C3485 1.495 . S
C3482 C3481 1.392 . S
C3482 C3483 1.385 . S
C3482 C3484 1.478 . S
C3483 H3477 0.930 . S
C3483 C3479 1.400 . S
C3483 C3482 1.385 . S
C3484 C3482 1.478 . S
C3484 C3486 1.381 . S
C3484 C3490 1.383 . S
C3485 C3481 1.495 . S
C3485 H3491 0.959 . S
C3485 H3492 0.961 . S
C3485 H3493 0.960 . S
C3486 C3484 1.381 . S
C3486 C3487 1.394 . S
C3486 H3494 0.930 . S
C3487 C3486 1.394 . S
C3487 C3488 1.383 . S
C3487 H3495 0.929 . S
C3488 C3487 1.383 . S
C3488 C3489 1.377 . S
C3489 H3473 0.930 . S
C3489 C3488 1.377 . S
C3489 C3490 1.379 . S
C3490 H3474 0.931 . S
C3490 C3484 1.383 . S
C3490 C3489 1.379 . S
H3491 C3485 0.959 . S
H3492 C3485 0.961 . S
H3493 C3485 0.960 . S
H3494 C3486 0.930 . S
H3495 C3487 0.929 . S
H3496 C3504 0.929 . S
H3497 C3506 0.930 . S
H3498 C3508 0.930 . S
H3499 C3511 0.929 . S
H3500 C3514 0.930 . S
H3501 C3516 0.960 . S
H3502 C3516 0.960 . S
H3503 C3516 0.960 . S
C3504 H3496 0.929 . S
C3504 C3505 1.377 . S
C3504 C3506 1.384 . S
C3505 C3504 1.377 . S
C3505 C3511 1.390 . S
C3506 H3497 0.930 . S
C3506 C3504 1.384 . S
C3506 C3507 1.372 . S
C3507 C3506 1.372 . S
C3507 C3508 1.400 . S
C3507 C3512 1.490 . S
C3508 H3498 0.930 . S
C3508 C3507 1.400 . S
C3508 C3511 1.386 . S
H3509 C3525 0.930 . S
H3510 C3526 0.931 . S
C3511 H3499 0.929 . S
C3511 C3505 1.390 . S
C3511 C3508 1.386 . S
C3512 C3507 1.490 . S
C3512 C3514 1.395 . S
C3512 C3515 1.403 . S
H3513 C3519 0.930 . S
C3514 H3500 0.930 . S
C3514 C3512 1.395 . S
C3514 C3517 1.403 . S
C3515 C3512 1.403 . S
C3515 C3516 1.524 . S
C3515 C3519 1.400 . S
C3516 H3501 0.960 . S
C3516 H3502 0.960 . S
C3516 H3503 0.960 . S
C3516 C3515 1.524 . S
C3517 C3514 1.403 . S
C3517 C3518 1.392 . S
C3517 C3521 1.495 . S
C3518 C3517 1.392 . S
C3518 C3519 1.385 . S
C3518 C3520 1.478 . S
C3519 H3513 0.930 . S
C3519 C3515 1.400 . S
C3519 C3518 1.385 . S
C3520 C3518 1.478 . S
C3520 C3522 1.381 . S
C3520 C3526 1.383 . S
C3521 C3517 1.495 . S
C3521 H3527 0.959 . S
C3521 H3528 0.961 . S
C3521 H3529 0.960 . S
C3522 C3520 1.381 . S
C3522 C3523 1.394 . S
C3522 H3530 0.930 . S
C3523 C3522 1.394 . S
C3523 C3524 1.383 . S
C3523 H3531 0.929 . S
C3524 C3523 1.383 . S
C3524 C3525 1.377 . S
C3525 H3509 0.930 . S
C3525 C3524 1.377 . S
C3525 C3526 1.379 . S
C3526 H3510 0.931 . S
C3526 C3520 1.383 . S
C3526 C3525 1.379 . S
H3527 C3521 0.959 . S
H3528 C3521 0.961 . S
H3529 C3521 0.960 . S
H3530 C3522 0.930 . S
H3531 C3523 0.929 . S
H3532 C3540 0.929 . S
H3533 C3542 0.930 . S
H3534 C3544 0.930 . S
H3535 C3547 0.929 . S
H3536 C3550 0.930 . S
H3537 C3552 0.960 . S
H3538 C3552 0.960 . S
H3539 C3552 0.960 . S
C3540 H3532 0.929 . S
C3540 C3541 1.377 . S
C3540 C3542 1.384 . S
C3541 C3540 1.377 . S
C3541 C3547 1.390 . S
C3542 H3533 0.930 . S
C3542 C3540 1.384 . S
C3542 C3543 1.372 . S
C3543 C3542 1.372 . S
C3543 C3544 1.400 . S
C3543 C3548 1.490 . S
C3544 H3534 0.930 . S
C3544 C3543 1.400 . S
C3544 C3547 1.386 . S
H3545 C3561 0.930 . S
H3546 C3562 0.931 . S
C3547 H3535 0.929 . S
C3547 C3541 1.390 . S
C3547 C3544 1.386 . S
C3548 C3543 1.490 . S
C3548 C3550 1.395 . S
C3548 C3551 1.403 . S
H3549 C3555 0.930 . S
C3550 H3536 0.930 . S
C3550 C3548 1.395 . S
C3550 C3553 1.403 . S
C3551 C3548 1.403 . S
C3551 C3552 1.524 . S
C3551 C3555 1.400 . S
C3552 H3537 0.960 . S
C3552 H3538 0.960 . S
C3552 H3539 0.960 . S
C3552 C3551 1.524 . S
C3553 C3550 1.403 . S
C3553 C3554 1.392 . S
C3553 C3557 1.495 . S
C3554 C3553 1.392 . S
C3554 C3555 1.385 . S
C3554 C3556 1.478 . S
C3555 H3549 0.930 . S
C3555 C3551 1.400 . S
C3555 C3554 1.385 . S
C3556 C3554 1.478 . S
C3556 C3558 1.381 . S
C3556 C3562 1.383 . S
C3557 C3553 1.495 . S
C3557 H3563 0.959 . S
C3557 H3564 0.961 . S
C3557 H3565 0.960 . S
C3558 C3556 1.381 . S
C3558 C3559 1.394 . S
C3558 H3566 0.930 . S
C3559 C3558 1.394 . S
C3559 C3560 1.383 . S
C3559 H3567 0.929 . S
C3560 C3559 1.383 . S
C3560 C3561 1.377 . S
C3561 H3545 0.930 . S
C3561 C3560 1.377 . S
C3561 C3562 1.379 . S
C3562 H3546 0.931 . S
C3562 C3556 1.383 . S
C3562 C3561 1.379 . S
H3563 C3557 0.959 . S
H3564 C3557 0.961 . S
H3565 C3557 0.960 . S
H3566 C3558 0.930 . S
H3567 C3559 0.929 . S
H3568 C3576 0.929 . S
H3569 C3578 0.930 . S
H3570 C3580 0.930 . S
H3571 C3583 0.929 . S
H3572 C3586 0.930 . S
H3573 C3588 0.960 . S
H3574 C3588 0.960 . S
H3575 C3588 0.960 . S
C3576 H3568 0.929 . S
C3576 C3577 1.377 . S
C3576 C3578 1.384 . S
C3577 C3576 1.377 . S
C3577 C3583 1.390 . S
C3578 H3569 0.930 . S
C3578 C3576 1.384 . S
C3578 C3579 1.372 . S
C3579 C3578 1.372 . S
C3579 C3580 1.400 . S
C3579 C3584 1.490 . S
C3580 H3570 0.930 . S
C3580 C3579 1.400 . S
C3580 C3583 1.386 . S
H3581 C3597 0.930 . S
H3582 C3598 0.931 . S
C3583 H3571 0.929 . S
C3583 C3577 1.390 . S
C3583 C3580 1.386 . S
C3584 C3579 1.490 . S
C3584 C3586 1.395 . S
C3584 C3587 1.403 . S
H3585 C3591 0.930 . S
C3586 H3572 0.930 . S
C3586 C3584 1.395 . S
C3586 C3589 1.403 . S
C3587 C3584 1.403 . S
C3587 C3588 1.524 . S
C3587 C3591 1.400 . S
C3588 H3573 0.960 . S
C3588 H3574 0.960 . S
C3588 H3575 0.960 . S
C3588 C3587 1.524 . S
C3589 C3586 1.403 . S
C3589 C3590 1.392 . S
C3589 C3593 1.495 . S
C3590 C3589 1.392 . S
C3590 C3591 1.385 . S
C3590 C3592 1.478 . S
C3591 H3585 0.930 . S
C3591 C3587 1.400 . S
C3591 C3590 1.385 . S
C3592 C3590 1.478 . S
C3592 C3594 1.381 . S
C3592 C3598 1.383 . S
C3593 C3589 1.495 . S
C3593 H3599 0.959 . S
C3593 H3600 0.961 . S
C3593 H3601 0.960 . S
C3594 C3592 1.381 . S
C3594 C3595 1.394 . S
C3594 H3602 0.930 . S
C3595 C3594 1.394 . S
C3595 C3596 1.383 . S
C3595 H3603 0.929 . S
C3596 C3595 1.383 . S
C3596 C3597 1.377 . S
C3597 H3581 0.930 . S
C3597 C3596 1.377 . S
C3597 C3598 1.379 . S
C3598 H3582 0.931 . S
C3598 C3592 1.383 . S
C3598 C3597 1.379 . S
H3599 C3593 0.959 . S
H3600 C3593 0.961 . S
H3601 C3593 0.960 . S
H3602 C3594 0.930 . S
H3603 C3595 0.929 . S
H3604 C3612 0.929 . S
H3605 C3614 0.930 . S
H3606 C3616 0.930 . S
H3607 C3619 0.929 . S
H3608 C3622 0.930 . S
H3609 C3624 0.960 . S
H3610 C3624 0.960 . S
H3611 C3624 0.960 . S
C3612 H3604 0.929 . S
C3612 C3613 1.377 . S
C3612 C3614 1.384 . S
C3613 C3612 1.377 . S
C3613 C3619 1.390 . S
C3614 H3605 0.930 . S
C3614 C3612 1.384 . S
C3614 C3615 1.372 . S
C3615 C3614 1.372 . S
C3615 C3616 1.400 . S
C3615 C3620 1.490 . S
C3616 H3606 0.930 . S
C3616 C3615 1.400 . S
C3616 C3619 1.386 . S
H3617 C3633 0.930 . S
H3618 C3634 0.931 . S
C3619 H3607 0.929 . S
C3619 C3613 1.390 . S
C3619 C3616 1.386 . S
C3620 C3615 1.490 . S
C3620 C3622 1.395 . S
C3620 C3623 1.403 . S
H3621 C3627 0.930 . S
C3622 H3608 0.930 . S
C3622 C3620 1.395 . S
C3622 C3625 1.403 . S
C3623 C3620 1.403 . S
C3623 C3624 1.524 . S
C3623 C3627 1.400 . S
C3624 H3609 0.960 . S
C3624 H3610 0.960 . S
C3624 H3611 0.960 . S
C3624 C3623 1.524 . S
C3625 C3622 1.403 . S
C3625 C3626 1.392 . S
C3625 C3629 1.495 . S
C3626 C3625 1.392 . S
C3626 C3627 1.385 . S
C3626 C3628 1.478 . S
C3627 H3621 0.930 . S
C3627 C3623 1.400 . S
C3627 C3626 1.385 . S
C3628 C3626 1.478 . S
C3628 C3630 1.381 . S
C3628 C3634 1.383 . S
C3629 C3625 1.495 . S
C3629 H3635 0.959 . S
C3629 H3636 0.961 . S
C3629 H3637 0.960 . S
C3630 C3628 1.381 . S
C3630 C3631 1.394 . S
C3630 H3638 0.930 . S
C3631 C3630 1.394 . S
C3631 C3632 1.383 . S
C3631 H3639 0.929 . S
C3632 C3631 1.383 . S
C3632 C3633 1.377 . S
C3633 H3617 0.930 . S
C3633 C3632 1.377 . S
C3633 C3634 1.379 . S
C3634 H3618 0.931 . S
C3634 C3628 1.383 . S
C3634 C3633 1.379 . S
H3635 C3629 0.959 . S
H3636 C3629 0.961 . S
H3637 C3629 0.960 . S
H3638 C3630 0.930 . S
H3639 C3631 0.929 . S
H3640 C3648 0.929 . S
H3641 C3650 0.930 . S
H3642 C3652 0.930 . S
H3643 C3655 0.929 . S
H3644 C3658 0.930 . S
H3645 C3660 0.960 . S
H3646 C3660 0.960 . S
H3647 C3660 0.960 . S
C3648 H3640 0.929 . S
C3648 C3649 1.377 . S
C3648 C3650 1.384 . S
C3649 C3648 1.377 . S
C3649 C3655 1.390 . S
C3650 H3641 0.930 . S
C3650 C3648 1.384 . S
C3650 C3651 1.372 . S
C3651 C3650 1.372 . S
C3651 C3652 1.400 . S
C3651 C3656 1.490 . S
C3652 H3642 0.930 . S
C3652 C3651 1.400 . S
C3652 C3655 1.386 . S
H3653 C3669 0.930 . S
H3654 C3670 0.931 . S
C3655 H3643 0.929 . S
C3655 C3649 1.390 . S
C3655 C3652 1.386 . S
C3656 C3651 1.490 . S
C3656 C3658 1.395 . S
C3656 C3659 1.403 . S
H3657 C3663 0.930 . S
C3658 H3644 0.930 . S
C3658 C3656 1.395 . S
C3658 C3661 1.403 . S
C3659 C3656 1.403 . S
C3659 C3660 1.524 . S
C3659 C3663 1.400 . S
C3660 H3645 0.960 . S
C3660 H3646 0.960 . S
C3660 H3647 0.960 . S
C3660 C3659 1.524 . S
C3661 C3658 1.403 . S
C3661 C3662 1.392 . S
C3661 C3665 1.495 . S
C3662 C3661 1.392 . S
C3662 C3663 1.385 . S
C3662 C3664 1.478 . S
C3663 H3657 0.930 . S
C3663 C3659 1.400 . S
C3663 C3662 1.385 . S
C3664 C3662 1.478 . S
C3664 C3666 1.381 . S
C3664 C3670 1.383 . S
C3665 C3661 1.495 . S
C3665 H3671 0.959 . S
C3665 H3672 0.961 . S
C3665 H3673 0.960 . S
C3666 C3664 1.381 . S
C3666 C3667 1.394 . S
C3666 H3674 0.930 . S
C3667 C3666 1.394 . S
C3667 C3668 1.383 . S
C3667 H3675 0.929 . S
C3668 C3667 1.383 . S
C3668 C3669 1.377 . S
C3669 H3653 0.930 . S
C3669 C3668 1.377 . S
C3669 C3670 1.379 . S
C3670 H3654 0.931 . S
C3670 C3664 1.383 . S
C3670 C3669 1.379 . S
H3671 C3665 0.959 . S
H3672 C3665 0.961 . S
H3673 C3665 0.960 . S
H3674 C3666 0.930 . S
H3675 C3667 0.929 . S
H3676 C3684 0.929 . S
H3677 C3686 0.930 . S
H3678 C3688 0.930 . S
H3679 C3691 0.929 . S
H3680 C3694 0.930 . S
H3681 C3696 0.960 . S
H3682 C3696 0.960 . S
H3683 C3696 0.960 . S
C3684 H3676 0.929 . S
C3684 C3685 1.377 . S
C3684 C3686 1.384 . S
C3685 C3684 1.377 . S
C3685 C3691 1.390 . S
C3686 H3677 0.930 . S
C3686 C3684 1.384 . S
C3686 C3687 1.372 . S
C3687 C3686 1.372 . S
C3687 C3688 1.400 . S
C3687 C3692 1.490 . S
C3688 H3678 0.930 . S
C3688 C3687 1.400 . S
C3688 C3691 1.386 . S
H3689 C3705 0.930 . S
H3690 C3706 0.931 . S
C3691 H3679 0.929 . S
C3691 C3685 1.390 . S
C3691 C3688 1.386 . S
C3692 C3687 1.490 . S
C3692 C3694 1.395 . S
C3692 C3695 1.403 . S
H3693 C3699 0.930 . S
C3694 H3680 0.930 . S
C3694 C3692 1.395 . S
C3694 C3697 1.403 . S
C3695 C3692 1.403 . S
C3695 C3696 1.524 . S
C3695 C3699 1.400 . S
C3696 H3681 0.960 . S
C3696 H3682 0.960 . S
C3696 H3683 0.960 . S
C3696 C3695 1.524 . S
C3697 C3694 1.403 . S
C3697 C3698 1.392 . S
C3697 C3701 1.495 . S
C3698 C3697 1.392 . S
C3698 C3699 1.385 . S
C3698 C3700 1.478 . S
C3699 H3693 0.930 . S
C3699 C3695 1.400 . S
C3699 C3698 1.385 . S
C3700 C3698 1.478 . S
C3700 C3702 1.381 . S
C3700 C3706 1.383 . S
C3701 C3697 1.495 . S
C3701 H3707 0.959 . S
C3701 H3708 0.961 . S
C3701 H3709 0.960 . S
C3702 C3700 1.381 . S
C3702 C3703 1.394 . S
C3702 H3710 0.930 . S
C3703 C3702 1.394 . S
C3703 C3704 1.383 . S
C3703 H3711 0.929 . S
C3704 C3703 1.383 . S
C3704 C3705 1.377 . S
C3705 H3689 0.930 . S
C3705 C3704 1.377 . S
C3705 C3706 1.379 . S
C3706 H3690 0.931 . S
C3706 C3700 1.383 . S
C3706 C3705 1.379 . S
H3707 C3701 0.959 . S
H3708 C3701 0.961 . S
H3709 C3701 0.960 . S
H3710 C3702 0.930 . S
H3711 C3703 0.929 . S
H3712 C3720 0.929 . S
H3713 C3722 0.930 . S
H3714 C3724 0.930 . S
H3715 C3727 0.929 . S
H3716 C3730 0.930 . S
H3717 C3732 0.960 . S
H3718 C3732 0.960 . S
H3719 C3732 0.960 . S
C3720 H3712 0.929 . S
C3720 C3721 1.377 . S
C3720 C3722 1.384 . S
C3721 C3720 1.377 . S
C3721 C3727 1.390 . S
C3722 H3713 0.930 . S
C3722 C3720 1.384 . S
C3722 C3723 1.372 . S
C3723 C3722 1.372 . S
C3723 C3724 1.400 . S
C3723 C3728 1.490 . S
C3724 H3714 0.930 . S
C3724 C3723 1.400 . S
C3724 C3727 1.386 . S
H3725 C3741 0.930 . S
H3726 C3742 0.931 . S
C3727 H3715 0.929 . S
C3727 C3721 1.390 . S
C3727 C3724 1.386 . S
C3728 C3723 1.490 . S
C3728 C3730 1.395 . S
C3728 C3731 1.403 . S
H3729 C3735 0.930 . S
C3730 H3716 0.930 . S
C3730 C3728 1.395 . S
C3730 C3733 1.403 . S
C3731 C3728 1.403 . S
C3731 C3732 1.524 . S
C3731 C3735 1.400 . S
C3732 H3717 0.960 . S
C3732 H3718 0.960 . S
C3732 H3719 0.960 . S
C3732 C3731 1.524 . S
C3733 C3730 1.403 . S
C3733 C3734 1.392 . S
C3733 C3737 1.495 . S
C3734 C3733 1.392 . S
C3734 C3735 1.385 . S
C3734 C3736 1.478 . S
C3735 H3729 0.930 . S
C3735 C3731 1.400 . S
C3735 C3734 1.385 . S
C3736 C3734 1.478 . S
C3736 C3738 1.381 . S
C3736 C3742 1.383 . S
C3737 C3733 1.495 . S
C3737 H3743 0.959 . S
C3737 H3744 0.961 . S
C3737 H3745 0.960 . S
C3738 C3736 1.381 . S
C3738 C3739 1.394 . S
C3738 H3746 0.930 . S
C3739 C3738 1.394 . S
C3739 C3740 1.383 . S
C3739 H3747 0.929 . S
C3740 C3739 1.383 . S
C3740 C3741 1.377 . S
C3741 H3725 0.930 . S
C3741 C3740 1.377 . S
C3741 C3742 1.379 . S
C3742 H3726 0.931 . S
C3742 C3736 1.383 . S
C3742 C3741 1.379 . S
H3743 C3737 0.959 . S
H3744 C3737 0.961 . S
H3745 C3737 0.960 . S
H3746 C3738 0.930 . S
H3747 C3739 0.929 . S
H3748 C3756 0.929 . S
H3749 C3758 0.930 . S
H3750 C3760 0.930 . S
H3751 C3763 0.929 . S
H3752 C3766 0.930 . S
H3753 C3768 0.960 . S
H3754 C3768 0.960 . S
H3755 C3768 0.960 . S
C3756 H3748 0.929 . S
C3756 C3757 1.377 . S
C3756 C3758 1.384 . S
C3757 C3756 1.377 . S
C3757 C3763 1.390 . S
C3758 H3749 0.930 . S
C3758 C3756 1.384 . S
C3758 C3759 1.372 . S
C3759 C3758 1.372 . S
C3759 C3760 1.400 . S
C3759 C3764 1.490 . S
C3760 H3750 0.930 . S
C3760 C3759 1.400 . S
C3760 C3763 1.386 . S
H3761 C3777 0.930 . S
H3762 C3778 0.931 . S
C3763 H3751 0.929 . S
C3763 C3757 1.390 . S
C3763 C3760 1.386 . S
C3764 C3759 1.490 . S
C3764 C3766 1.395 . S
C3764 C3767 1.403 . S
H3765 C3771 0.930 . S
C3766 H3752 0.930 . S
C3766 C3764 1.395 . S
C3766 C3769 1.403 . S
C3767 C3764 1.403 . S
C3767 C3768 1.524 . S
C3767 C3771 1.400 . S
C3768 H3753 0.960 . S
C3768 H3754 0.960 . S
C3768 H3755 0.960 . S
C3768 C3767 1.524 . S
C3769 C3766 1.403 . S
C3769 C3770 1.392 . S
C3769 C3773 1.495 . S
C3770 C3769 1.392 . S
C3770 C3771 1.385 . S
C3770 C3772 1.478 . S
C3771 H3765 0.930 . S
C3771 C3767 1.400 . S
C3771 C3770 1.385 . S
C3772 C3770 1.478 . S
C3772 C3774 1.381 . S
C3772 C3778 1.383 . S
C3773 C3769 1.495 . S
C3773 H3779 0.959 . S
C3773 H3780 0.961 . S
C3773 H3781 0.960 . S
C3774 C3772 1.381 . S
C3774 C3775 1.394 . S
C3774 H3782 0.930 . S
C3775 C3774 1.394 . S
C3775 C3776 1.383 . S
C3775 H3783 0.929 . S
C3776 C3775 1.383 . S
C3776 C3777 1.377 . S
C3777 H3761 0.930 . S
C3777 C3776 1.377 . S
C3777 C3778 1.379 . S
C3778 H3762 0.931 . S
C3778 C3772 1.383 . S
C3778 C3777 1.379 . S
H3779 C3773 0.959 . S
H3780 C3773 0.961 . S
H3781 C3773 0.960 . S
H3782 C3774 0.930 . S
H3783 C3775 0.929 . S
H3784 C3792 0.929 . S
H3785 C3794 0.930 . S
H3786 C3796 0.930 . S
H3787 C3799 0.929 . S
H3788 C3802 0.930 . S
H3789 C3804 0.960 . S
H3790 C3804 0.960 . S
H3791 C3804 0.960 . S
C3792 H3784 0.929 . S
C3792 C3793 1.377 . S
C3792 C3794 1.384 . S
C3793 C3792 1.377 . S
C3793 C3799 1.390 . S
C3794 H3785 0.930 . S
C3794 C3792 1.384 . S
C3794 C3795 1.372 . S
C3795 C3794 1.372 . S
C3795 C3796 1.400 . S
C3795 C3800 1.490 . S
C3796 H3786 0.930 . S
C3796 C3795 1.400 . S
C3796 C3799 1.386 . S
H3797 C3813 0.930 . S
H3798 C3814 0.931 . S
C3799 H3787 0.929 . S
C3799 C3793 1.390 . S
C3799 C3796 1.386 . S
C3800 C3795 1.490 . S
C3800 C3802 1.395 . S
C3800 C3803 1.403 . S
H3801 C3807 0.930 . S
C3802 H3788 0.930 . S
C3802 C3800 1.395 . S
C3802 C3805 1.403 . S
C3803 C3800 1.403 . S
C3803 C3804 1.524 . S
C3803 C3807 1.400 . S
C3804 H3789 0.960 . S
C3804 H3790 0.960 . S
C3804 H3791 0.960 . S
C3804 C3803 1.524 . S
C3805 C3802 1.403 . S
C3805 C3806 1.392 . S
C3805 C3809 1.495 . S
C3806 C3805 1.392 . S
C3806 C3807 1.385 . S
C3806 C3808 1.478 . S
C3807 H3801 0.930 . S
C3807 C3803 1.400 . S
C3807 C3806 1.385 . S
C3808 C3806 1.478 . S
C3808 C3810 1.381 . S
C3808 C3814 1.383 . S
C3809 C3805 1.495 . S
C3809 H3815 0.959 . S
C3809 H3816 0.961 . S
C3809 H3817 0.960 . S
C3810 C3808 1.381 . S
C3810 C3811 1.394 . S
C3810 H3818 0.930 . S
C3811 C3810 1.394 . S
C3811 C3812 1.383 . S
C3811 H3819 0.929 . S
C3812 C3811 1.383 . S
C3812 C3813 1.377 . S
C3813 H3797 0.930 . S
C3813 C3812 1.377 . S
C3813 C3814 1.379 . S
C3814 H3798 0.931 . S
C3814 C3808 1.383 . S
C3814 C3813 1.379 . S
H3815 C3809 0.959 . S
H3816 C3809 0.961 . S
H3817 C3809 0.960 . S
H3818 C3810 0.930 . S
H3819 C3811 0.929 . S
H3820 C3828 0.929 . S
H3821 C3830 0.930 . S
H3822 C3832 0.930 . S
H3823 C3835 0.929 . S
H3824 C3838 0.930 . S
H3825 C3840 0.960 . S
H3826 C3840 0.960 . S
H3827 C3840 0.960 . S
C3828 H3820 0.929 . S
C3828 C3829 1.377 . S
C3828 C3830 1.384 . S
C3829 C3828 1.377 . S
C3829 C3835 1.390 . S
C3830 H3821 0.930 . S
C3830 C3828 1.384 . S
C3830 C3831 1.372 . S
C3831 C3830 1.372 . S
C3831 C3832 1.400 . S
C3831 C3836 1.490 . S
C3832 H3822 0.930 . S
C3832 C3831 1.400 . S
C3832 C3835 1.386 . S
H3833 C3849 0.930 . S
H3834 C3850 0.931 . S
C3835 H3823 0.929 . S
C3835 C3829 1.390 . S
C3835 C3832 1.386 . S
C3836 C3831 1.490 . S
C3836 C3838 1.395 . S
C3836 C3839 1.403 . S
H3837 C3843 0.930 . S
C3838 H3824 0.930 . S
C3838 C3836 1.395 . S
C3838 C3841 1.403 . S
C3839 C3836 1.403 . S
C3839 C3840 1.524 . S
C3839 C3843 1.400 . S
C3840 H3825 0.960 . S
C3840 H3826 0.960 . S
C3840 H3827 0.960 . S
C3840 C3839 1.524 . S
C3841 C3838 1.403 . S
C3841 C3842 1.392 . S
C3841 C3845 1.495 . S
C3842 C3841 1.392 . S
C3842 C3843 1.385 . S
C3842 C3844 1.478 . S
C3843 H3837 0.930 . S
C3843 C3839 1.400 . S
C3843 C3842 1.385 . S
C3844 C3842 1.478 . S
C3844 C3846 1.381 . S
C3844 C3850 1.383 . S
C3845 C3841 1.495 . S
C3845 H3851 0.959 . S
C3845 H3852 0.961 . S
C3845 H3853 0.960 . S
C3846 C3844 1.381 . S
C3846 C3847 1.394 . S
C3846 H3854 0.930 . S
C3847 C3846 1.394 . S
C3847 C3848 1.383 . S
C3847 H3855 0.929 . S
C3848 C3847 1.383 . S
C3848 C3849 1.377 . S
C3849 H3833 0.930 . S
C3849 C3848 1.377 . S
C3849 C3850 1.379 . S
C3850 H3834 0.931 . S
C3850 C3844 1.383 . S
C3850 C3849 1.379 . S
H3851 C3845 0.959 . S
H3852 C3845 0.961 . S
H3853 C3845 0.960 . S
H3854 C3846 0.930 . S
H3855 C3847 0.929 . S
H3856 C3864 0.929 . S
H3857 C3866 0.930 . S
H3858 C3868 0.930 . S
H3859 C3871 0.929 . S
H3860 C3874 0.930 . S
H3861 C3876 0.960 . S
H3862 C3876 0.960 . S
H3863 C3876 0.960 . S
C3864 H3856 0.929 . S
C3864 C3865 1.377 . S
C3864 C3866 1.384 . S
C3865 C3864 1.377 . S
C3865 C3871 1.390 . S
C3866 H3857 0.930 . S
C3866 C3864 1.384 . S
C3866 C3867 1.372 . S
C3867 C3866 1.372 . S
C3867 C3868 1.400 . S
C3867 C3872 1.490 . S
C3868 H3858 0.930 . S
C3868 C3867 1.400 . S
C3868 C3871 1.386 . S
H3869 C3885 0.930 . S
H3870 C3886 0.931 . S
C3871 H3859 0.929 . S
C3871 C3865 1.390 . S
C3871 C3868 1.386 . S
C3872 C3867 1.490 . S
C3872 C3874 1.395 . S
C3872 C3875 1.403 . S
H3873 C3879 0.930 . S
C3874 H3860 0.930 . S
C3874 C3872 1.395 . S
C3874 C3877 1.403 . S
C3875 C3872 1.403 . S
C3875 C3876 1.524 . S
C3875 C3879 1.400 . S
C3876 H3861 0.960 . S
C3876 H3862 0.960 . S
C3876 H3863 0.960 . S
C3876 C3875 1.524 . S
C3877 C3874 1.403 . S
C3877 C3878 1.392 . S
C3877 C3881 1.495 . S
C3878 C3877 1.392 . S
C3878 C3879 1.385 . S
C3878 C3880 1.478 . S
C3879 H3873 0.930 . S
C3879 C3875 1.400 . S
C3879 C3878 1.385 . S
C3880 C3878 1.478 . S
C3880 C3882 1.381 . S
C3880 C3886 1.383 . S
C3881 C3877 1.495 . S
C3881 H3887 0.959 . S
C3881 H3888 0.961 . S
C3881 H3889 0.960 . S
C3882 C3880 1.381 . S
C3882 C3883 1.394 . S
C3882 H3890 0.930 . S
C3883 C3882 1.394 . S
C3883 C3884 1.383 . S
C3883 H3891 0.929 . S
C3884 C3883 1.383 . S
C3884 C3885 1.377 . S
C3885 H3869 0.930 . S
C3885 C3884 1.377 . S
C3885 C3886 1.379 . S
C3886 H3870 0.931 . S
C3886 C3880 1.383 . S
C3886 C3885 1.379 . S
H3887 C3881 0.959 . S
H3888 C3881 0.961 . S
H3889 C3881 0.960 . S
H3890 C3882 0.930 . S
H3891 C3883 0.929 . S
H3892 C3900 0.929 . S
H3893 C3902 0.930 . S
H3894 C3904 0.930 . S
H3895 C3907 0.929 . S
H3896 C3910 0.930 . S
H3897 C3912 0.960 . S
H3898 C3912 0.960 . S
H3899 C3912 0.960 . S
C3900 H3892 0.929 . S
C3900 C3901 1.377 . S
C3900 C3902 1.384 . S
C3901 C3900 1.377 . S
C3901 C3907 1.390 . S
C3902 H3893 0.930 . S
C3902 C3900 1.384 . S
C3902 C3903 1.372 . S
C3903 C3902 1.372 . S
C3903 C3904 1.400 . S
C3903 C3908 1.490 . S
C3904 H3894 0.930 . S
C3904 C3903 1.400 . S
C3904 C3907 1.386 . S
H3905 C3921 0.930 . S
H3906 C3922 0.931 . S
C3907 H3895 0.929 . S
C3907 C3901 1.390 . S
C3907 C3904 1.386 . S
C3908 C3903 1.490 . S
C3908 C3910 1.395 . S
C3908 C3911 1.403 . S
H3909 C3915 0.930 . S
C3910 H3896 0.930 . S
C3910 C3908 1.395 . S
C3910 C3913 1.403 . S
C3911 C3908 1.403 . S
C3911 C3912 1.524 . S
C3911 C3915 1.400 . S
C3912 H3897 0.960 . S
C3912 H3898 0.960 . S
C3912 H3899 0.960 . S
C3912 C3911 1.524 . S
C3913 C3910 1.403 . S
C3913 C3914 1.392 . S
C3913 C3917 1.495 . S
C3914 C3913 1.392 . S
C3914 C3915 1.385 . S
C3914 C3916 1.478 . S
C3915 H3909 0.930 . S
C3915 C3911 1.400 . S
C3915 C3914 1.385 . S
C3916 C3914 1.478 . S
C3916 C3918 1.381 . S
C3916 C3922 1.383 . S
C3917 C3913 1.495 . S
C3917 H3923 0.959 . S
C3917 H3924 0.961 . S
C3917 H3925 0.960 . S
C3918 C3916 1.381 . S
C3918 C3919 1.394 . S
C3918 H3926 0.930 . S
C3919 C3918 1.394 . S
C3919 C3920 1.383 . S
C3919 H3927 0.929 . S
C3920 C3919 1.383 . S
C3920 C3921 1.377 . S
C3921 H3905 0.930 . S
C3921 C3920 1.377 . S
C3921 C3922 1.379 . S
C3922 H3906 0.931 . S
C3922 C3916 1.383 . S
C3922 C3921 1.379 . S
H3923 C3917 0.959 . S
H3924 C3917 0.961 . S
H3925 C3917 0.960 . S
H3926 C3918 0.930 . S
H3927 C3919 0.929 . S
H3928 C3936 0.929 . S
H3929 C3938 0.930 . S
H3930 C3940 0.930 . S
H3931 C3943 0.929 . S
H3932 C3946 0.930 . S
H3933 C3948 0.960 . S
H3934 C3948 0.960 . S
H3935 C3948 0.960 . S
C3936 H3928 0.929 . S
C3936 C3937 1.377 . S
C3936 C3938 1.384 . S
C3937 C3936 1.377 . S
C3937 C3943 1.390 . S
C3938 H3929 0.930 . S
C3938 C3936 1.384 . S
C3938 C3939 1.372 . S
C3939 C3938 1.372 . S
C3939 C3940 1.400 . S
C3939 C3944 1.490 . S
C3940 H3930 0.930 . S
C3940 C3939 1.400 . S
C3940 C3943 1.386 . S
H3941 C3957 0.930 . S
H3942 C3958 0.931 . S
C3943 H3931 0.929 . S
C3943 C3937 1.390 . S
C3943 C3940 1.386 . S
C3944 C3939 1.490 . S
C3944 C3946 1.395 . S
C3944 C3947 1.403 . S
H3945 C3951 0.930 . S
C3946 H3932 0.930 . S
C3946 C3944 1.395 . S
C3946 C3949 1.403 . S
C3947 C3944 1.403 . S
C3947 C3948 1.524 . S
C3947 C3951 1.400 . S
C3948 H3933 0.960 . S
C3948 H3934 0.960 . S
C3948 H3935 0.960 . S
C3948 C3947 1.524 . S
C3949 C3946 1.403 . S
C3949 C3950 1.392 . S
C3949 C3953 1.495 . S
C3950 C3949 1.392 . S
C3950 C3951 1.385 . S
C3950 C3952 1.478 . S
C3951 H3945 0.930 . S
C3951 C3947 1.400 . S
C3951 C3950 1.385 . S
C3952 C3950 1.478 . S
C3952 C3954 1.381 . S
C3952 C3958 1.383 . S
C3953 C3949 1.495 . S
C3953 H3959 0.959 . S
C3953 H3960 0.961 . S
C3953 H3961 0.960 . S
C3954 C3952 1.381 . S
C3954 C3955 1.394 . S
C3954 H3962 0.930 . S
C3955 C3954 1.394 . S
C3955 C3956 1.383 . S
C3955 H3963 0.929 . S
C3956 C3955 1.383 . S
C3956 C3957 1.377 . S
C3957 H3941 0.930 . S
C3957 C3956 1.377 . S
C3957 C3958 1.379 . S
C3958 H3942 0.931 . S
C3958 C3952 1.383 . S
C3958 C3957 1.379 . S
H3959 C3953 0.959 . S
H3960 C3953 0.961 . S
H3961 C3953 0.960 . S
H3962 C3954 0.930 . S
H3963 C3955 0.929 . S
H3964 C3972 0.929 . S
H3965 C3974 0.930 . S
H3966 C3976 0.930 . S
H3967 C3979 0.929 . S
H3968 C3982 0.930 . S
H3969 C3984 0.960 . S
H3970 C3984 0.960 . S
H3971 C3984 0.960 . S
C3972 H3964 0.929 . S
C3972 C3973 1.377 . S
C3972 C3974 1.384 . S
C3973 C3972 1.377 . S
C3973 C3979 1.390 . S
C3974 H3965 0.930 . S
C3974 C3972 1.384 . S
C3974 C3975 1.372 . S
C3975 C3974 1.372 . S
C3975 C3976 1.400 . S
C3975 C3980 1.490 . S
C3976 H3966 0.930 . S
C3976 C3975 1.400 . S
C3976 C3979 1.386 . S
H3977 C3993 0.930 . S
H3978 C3994 0.931 . S
C3979 H3967 0.929 . S
C3979 C3973 1.390 . S
C3979 C3976 1.386 . S
C3980 C3975 1.490 . S
C3980 C3982 1.395 . S
C3980 C3983 1.403 . S
H3981 C3987 0.930 . S
C3982 H3968 0.930 . S
C3982 C3980 1.395 . S
C3982 C3985 1.403 . S
C3983 C3980 1.403 . S
C3983 C3984 1.524 . S
C3983 C3987 1.400 . S
C3984 H3969 0.960 . S
C3984 H3970 0.960 . S
C3984 H3971 0.960 . S
C3984 C3983 1.524 . S
C3985 C3982 1.403 . S
C3985 C3986 1.392 . S
C3985 C3989 1.495 . S
C3986 C3985 1.392 . S
C3986 C3987 1.385 . S
C3986 C3988 1.478 . S
C3987 H3981 0.930 . S
C3987 C3983 1.400 . S
C3987 C3986 1.385 . S
C3988 C3986 1.478 . S
C3988 C3990 1.381 . S
C3988 C3994 1.383 . S
C3989 C3985 1.495 . S
C3989 H3995 0.959 . S
C3989 H3996 0.961 . S
C3989 H3997 0.960 . S
C3990 C3988 1.381 . S
C3990 C3991 1.394 . S
C3990 H3998 0.930 . S
C3991 C3990 1.394 . S
C3991 C3992 1.383 . S
C3991 H3999 0.929 . S
C3992 C3991 1.383 . S
C3992 C3993 1.377 . S
C3993 H3977 0.930 . S
C3993 C3992 1.377 . S
C3993 C3994 1.379 . S
C3994 H3978 0.931 . S
C3994 C3988 1.383 . S
C3994 C3993 1.379 . S
H3995 C3989 0.959 . S
H3996 C3989 0.961 . S
H3997 C3989 0.960 . S
H3998 C3990 0.930 . S
H3999 C3991 0.929 . S
C1705 C38 1.834 . S
C1724 C144 1.824 . S
C1741 C197 1.820 . S
C1760 C91 1.822 . S
C1777 C356 1.844 . S
C1796 C250 1.842 . S
C1813 C409 1.825 . S
C1832 C303 1.809 . S
C1849 C462 1.836 . S
C1868 C568 1.825 . S
C1885 C621 1.818 . S
C1904 C515 1.814 . S
C1921 C674 1.844 . S
C1940 C780 1.845 . S
C1957 C833 1.825 . S
C1976 C727 1.825 . S
C1993 C886 1.795 . S
C2012 C992 1.783 . S
C2029 C939 1.830 . S
C2048 C1045 1.835 . S
C2065 C1204 1.799 . S
C2084 C1098 1.803 . S
C2101 C1151 1.833 . S
C2120 C1257 1.826 . S
C2137 C1416 1.796 . S
C2156 C1310 1.790 . S
C2173 C1469 1.828 . S
C2192 C1363 1.822 . S
C2209 C1628 1.803 . S
C2228 C1522 1.792 . S
C2245 C1575 1.835 . S
C2264 C1681 1.819 . S
C2281 C1347 2.154 . S
C2300 C22 2.147 . S
C2317 C75 2.142 . S
C2336 C1294 2.131 . S
C2353 C128 2.152 . S
C2372 C1453 2.149 . S
C2389 C181 2.142 . S
C2408 C1400 2.131 . S
C2425 C1559 2.151 . S
C2444 C234 2.151 . S
C2461 C287 2.142 . S
C2480 C1506 2.126 . S
C2497 C340 2.151 . S
C2516 C1665 2.148 . S
C2533 C1612 2.140 . S
C2552 C393 2.135 . S
C2569 C446 2.154 . S
C2588 C923 2.151 . S
C2605 C499 2.143 . S
C2624 C870 2.128 . S
C2641 C552 2.152 . S
C2660 C1029 2.147 . S
C2677 C605 2.144 . S
C2696 C976 2.134 . S
C2713 C658 2.152 . S
C2732 C1135 2.143 . S
C2749 C1082 2.141 . S
C2768 C711 2.133 . S
C2785 C1241 2.152 . S
C2804 C764 2.142 . S
C2821 C817 2.141 . S
C2840 C1188 2.135 . S
C2857 C39 1.857 . S
C2876 C251 1.843 . S
C2893 C92 1.845 . S
C2912 C1576 1.839 . S
C2929 C145 1.855 . S
C2948 C781 1.832 . S
C2965 C198 1.838 . S
C2984 C1258 1.813 . S
C3001 C304 1.838 . S
C3020 C1364 1.836 . S
C3037 C569 1.857 . S
C3056 C357 1.861 . S
C3073 C1046 1.843 . S
C3092 C410 1.847 . S
C3109 C675 1.844 . S
C3128 C463 1.847 . S
C3145 C516 1.844 . S
C3164 C1152 1.833 . S
C3181 C1682 1.837 . S
C3200 C622 1.851 . S
C3217 C728 1.838 . S
C3236 C940 1.848 . S
C3253 C834 1.838 . S
C3272 C1470 1.850 . S
C3289 C1099 1.817 . S
C3308 C887 1.805 . S
C3325 C993 1.819 . S
C3344 C1629 1.806 . S
C3361 C1417 1.819 . S
C3380 C1205 1.802 . S
C3397 C1523 1.818 . S
C3416 C1311 1.835 . S
C3433 C29 0.919 . S
C3452 C82 0.910 . S
C3469 C135 0.921 . S
C3488 C188 0.918 . S
C3505 C241 0.924 . S
C3524 C294 0.907 . S
C3541 C347 0.924 . S
C3560 C400 0.921 . S
C3577 C506 0.924 . S
C3596 C453 0.935 . S
C3613 C559 0.918 . S
C3632 C612 0.904 . S
C3649 C665 0.925 . S
C3668 C718 0.908 . S
C3685 C771 0.924 . S
C3704 C824 0.907 . S
C3721 C877 0.938 . S
C3740 C930 0.941 . S
C3757 C1036 0.937 . S
C3776 C983 0.934 . S
C3793 C1089 0.937 . S
C3812 C1142 0.954 . S
C3829 C1195 0.939 . S
C3848 C1248 0.958 . S
C3865 C1354 0.941 . S
C3884 C1301 0.953 . S
C3901 C1407 0.941 . S
C3920 C1460 0.951 . S
C3937 C1566 0.939 . S
C3956 C1513 0.958 . S
C3973 C1619 0.940 . S
C3992 C1672 0.954 . S
