# Generated by pormake.
# Topology zfn, (5)-cn, num edge types: 1
# Building blocks:
#     Node 0, Type 0, BuildingBlock: XOMCOT_clean_sbu_1, # of connection points: 5
#     Node 1, Type 0, BuildingBlock: XOMCOT_clean_sbu_1, # of connection points: 5
#     Node 2, Type 0, BuildingBlock: XOMCOT_clean_sbu_1, # of connection points: 5
#     Node 3, Type 0, BuildingBlock: XOMCOT_clean_sbu_1, # of connection points: 5
#     Node 4, Type 0, BuildingBlock: XOMCOT_clean_sbu_1, # of connection points: 5
#     Node 5, Type 0, BuildingBlock: XOMCOT_clean_sbu_1, # of connection points: 5
#     Node 6, Type 0, BuildingBlock: XOMCOT_clean_sbu_1, # of connection points: 5
#     Node 7, Type 0, BuildingBlock: XOMCOT_clean_sbu_1, # of connection points: 5
#     Node 8, Type 0, BuildingBlock: XOMCOT_clean_sbu_1, # of connection points: 5
#     Node 9, Type 0, BuildingBlock: XOMCOT_clean_sbu_1, # of connection points: 5
#     Node 10, Type 0, BuildingBlock: XOMCOT_clean_sbu_1, # of connection points: 5
#     Node 11, Type 0, BuildingBlock: XOMCOT_clean_sbu_1, # of connection points: 5
#     Node 12, Type 0, BuildingBlock: XOMCOT_clean_sbu_1, # of connection points: 5
#     Node 13, Type 0, BuildingBlock: XOMCOT_clean_sbu_1, # of connection points: 5
#     Node 14, Type 0, BuildingBlock: XOMCOT_clean_sbu_1, # of connection points: 5
#     Node 15, Type 0, BuildingBlock: XOMCOT_clean_sbu_1, # of connection points: 5
#     Edge 16, Type (0, 0), BuildingBlock: XIVTED_clean_linker_0, # of connection points: 2
#     Edge 17, Type (0, 0), BuildingBlock: XIVTED_clean_linker_0, # of connection points: 2
#     Edge 18, Type (0, 0), BuildingBlock: XIVTED_clean_linker_0, # of connection points: 2
#     Edge 19, Type (0, 0), BuildingBlock: XIVTED_clean_linker_0, # of connection points: 2
#     Edge 20, Type (0, 0), BuildingBlock: XIVTED_clean_linker_0, # of connection points: 2
#     Edge 21, Type (0, 0), BuildingBlock: XIVTED_clean_linker_0, # of connection points: 2
#     Edge 22, Type (0, 0), BuildingBlock: XIVTED_clean_linker_0, # of connection points: 2
#     Edge 23, Type (0, 0), BuildingBlock: XIVTED_clean_linker_0, # of connection points: 2
#     Edge 24, Type (0, 0), BuildingBlock: XIVTED_clean_linker_0, # of connection points: 2
#     Edge 25, Type (0, 0), BuildingBlock: XIVTED_clean_linker_0, # of connection points: 2
#     Edge 26, Type (0, 0), BuildingBlock: XIVTED_clean_linker_0, # of connection points: 2
#     Edge 27, Type (0, 0), BuildingBlock: XIVTED_clean_linker_0, # of connection points: 2
#     Edge 28, Type (0, 0), BuildingBlock: XIVTED_clean_linker_0, # of connection points: 2
#     Edge 29, Type (0, 0), BuildingBlock: XIVTED_clean_linker_0, # of connection points: 2
#     Edge 30, Type (0, 0), BuildingBlock: XIVTED_clean_linker_0, # of connection points: 2
#     Edge 31, Type (0, 0), BuildingBlock: XIVTED_clean_linker_0, # of connection points: 2
#     Edge 32, Type (0, 0), BuildingBlock: XIVTED_clean_linker_0, # of connection points: 2
#     Edge 33, Type (0, 0), BuildingBlock: XIVTED_clean_linker_0, # of connection points: 2
#     Edge 34, Type (0, 0), BuildingBlock: XIVTED_clean_linker_0, # of connection points: 2
#     Edge 35, Type (0, 0), BuildingBlock: XIVTED_clean_linker_0, # of connection points: 2
#     Edge 36, Type (0, 0), BuildingBlock: XIVTED_clean_linker_0, # of connection points: 2
#     Edge 37, Type (0, 0), BuildingBlock: XIVTED_clean_linker_0, # of connection points: 2
#     Edge 38, Type (0, 0), BuildingBlock: XIVTED_clean_linker_0, # of connection points: 2
#     Edge 39, Type (0, 0), BuildingBlock: XIVTED_clean_linker_0, # of connection points: 2
#     Edge 40, Type (0, 0), BuildingBlock: XIVTED_clean_linker_0, # of connection points: 2
#     Edge 41, Type (0, 0), BuildingBlock: XIVTED_clean_linker_0, # of connection points: 2
#     Edge 42, Type (0, 0), BuildingBlock: XIVTED_clean_linker_0, # of connection points: 2
#     Edge 43, Type (0, 0), BuildingBlock: XIVTED_clean_linker_0, # of connection points: 2
#     Edge 44, Type (0, 0), BuildingBlock: XIVTED_clean_linker_0, # of connection points: 2
#     Edge 45, Type (0, 0), BuildingBlock: XIVTED_clean_linker_0, # of connection points: 2
#     Edge 46, Type (0, 0), BuildingBlock: XIVTED_clean_linker_0, # of connection points: 2
#     Edge 47, Type (0, 0), BuildingBlock: XIVTED_clean_linker_0, # of connection points: 2
#     Edge 48, Type (0, 0), BuildingBlock: XIVTED_clean_linker_0, # of connection points: 2
#     Edge 49, Type (0, 0), BuildingBlock: XIVTED_clean_linker_0, # of connection points: 2
#     Edge 50, Type (0, 0), BuildingBlock: XIVTED_clean_linker_0, # of connection points: 2
#     Edge 51, Type (0, 0), BuildingBlock: XIVTED_clean_linker_0, # of connection points: 2
#     Edge 52, Type (0, 0), BuildingBlock: XIVTED_clean_linker_0, # of connection points: 2
#     Edge 53, Type (0, 0), BuildingBlock: XIVTED_clean_linker_0, # of connection points: 2
#     Edge 54, Type (0, 0), BuildingBlock: XIVTED_clean_linker_0, # of connection points: 2
#     Edge 55, Type (0, 0), BuildingBlock: XIVTED_clean_linker_0, # of connection points: 2
# Relax obj value: 0.120
# Max RMSD: 0.125
# Mean RMSD: 0.125
data_MOF--net-zfn--node1-XOMCOT_clean_sbu_1--edge1-XIVTED_clean_linker_0
_symmetry_space_group_name_H-M    P1
_symmetry_Int_Tables_number       1
_symmetry_cell_setting            triclinic
loop_
_symmetry_equiv_pos_as_xyz
'x, y, z'
_cell_length_a     75.626472
_cell_length_b     75.661685
_cell_length_c     17.638136
_cell_angle_alpha  90.108664
_cell_angle_beta   90.039977
_cell_angle_gamma 90.039476
loop_
_atom_site_label
_atom_site_type_symbol
_atom_site_fract_x
_atom_site_fract_y
_atom_site_fract_z
_atom_type_partial_charge
C0 C 0.0025 0.33932 0.09743 0.0
C1 C 0.00059 0.33818 0.0199 0.0
N2 N 0.0168 0.33849 0.9881 0.0
N3 N 0.01983 0.34051 0.11452 0.0
C4 C 0.02819 0.33959 0.04703 0.0
H5 H 0.99191 0.33978 0.13853 0.0
Co6 Co 0.02969 0.34399 0.21005 0.0
C7 C 0.05931 0.36951 0.18311 0.0
O8 O 0.05617 0.37755 0.24784 0.0
N9 N 0.03975 0.34693 0.30775 0.0
C10 C 0.05902 0.34419 0.40272 0.0
C11 C 0.0569 0.34401 0.32531 0.0
C12 C 0.03168 0.34837 0.37602 0.0
N13 N 0.04308 0.34679 0.43462 0.0
O14 O 0.04169 0.32175 0.20086 0.0
H15 H 0.06712 0.34098 0.28444 0.0
H16 H 0.01761 0.3496 0.38346 0.0
O17 O 0.04982 0.35628 0.16317 0.0
C18 C 0.03576 0.30968 0.24425 0.0
O19 O 0.02274 0.31345 0.29085 0.0
N20 N 0.01648 0.36506 0.21899 0.0
C21 C 0.99119 0.39204 0.22444 0.0
C22 C 0.00631 0.39369 0.17894 0.0
C23 C 0.0186 0.37989 0.1757 0.0
C24 C 0.00156 0.36305 0.2614 0.0
C25 C 0.98899 0.37647 0.26637 0.0
H26 H 0.0291 0.38084 0.13468 0.0
H27 H -0.00113 0.35052 0.28823 0.0
H28 H 0.0424 0.33973 0.04136 0.0
H29 H 0.98816 0.33783 0.98948 0.0
H30 H 0.07116 0.34146 0.43308 0.0
H31 H 0.00816 0.40511 0.1429 0.0
H32 H 0.9774 0.3744 0.30128 0.0
C33 C 0.16116 0.0038 0.60341 0.0
C34 C 0.16202 0.00151 0.52602 0.0
N35 N 0.15827 0.01707 0.49241 0.0
N36 N 0.15681 0.02069 0.61862 0.0
C37 C 0.15533 0.02848 0.55008 0.0
H38 H 0.16318 0.99373 0.64596 0.0
Co39 Co 0.15289 0.03006 0.71442 0.0
C40 C 0.12591 0.05794 0.68979 0.0
O41 O 0.11763 0.05272 0.75135 0.0
N42 N 0.14945 0.03971 0.81274 0.0
C43 C 0.15058 0.05919 0.90769 0.0
C44 C 0.15134 0.05701 0.83041 0.0
C45 C 0.1481 0.03163 0.88099 0.0
N46 N 0.14866 0.04317 0.9395 0.0
O47 O 0.17482 0.04269 0.70714 0.0
H48 H 0.15396 0.06737 0.78976 0.0
H49 H 0.14758 0.01753 0.88867 0.0
O50 O 0.14011 0.0501 0.66928 0.0
C51 C 0.18692 0.03691 0.75089 0.0
O52 O 0.18327 0.0238 0.79707 0.0
N53 N 0.13223 0.01611 0.72104 0.0
C54 C 0.1057 0.9903 0.72501 0.0
C55 C 0.10419 0.00502 0.6772 0.0
C56 C 0.1178 0.01753 0.67459 0.0
C57 C 0.13429 0.0014 0.76458 0.0
C58 C 0.12106 0.98859 0.76897 0.0
H59 H 0.11705 0.02773 0.63213 0.0
H60 H 0.1467 -0.00091 0.79316 0.0
H61 H 0.15215 0.04228 0.54258 0.0
H62 H 0.16471 0.98918 0.49705 0.0
H63 H 0.15238 0.07149 0.9382 0.0
H64 H 0.09301 0.00642 0.63931 0.0
H65 H 0.12307 0.97725 0.80533 0.0
C66 C 0.4889 0.16509 0.1098 0.0
C67 C 0.49146 0.16562 0.03245 0.0
N68 N 0.47929 0.15511 0.9992 0.0
N69 N 0.47521 0.1543 0.12523 0.0
C70 C 0.46971 0.14836 0.05689 0.0
H71 H 0.49632 0.17233 0.15213 0.0
Co72 Co 0.46615 0.14996 0.22122 0.0
C73 C 0.43681 0.12443 0.19565 0.0
O74 O 0.4414 0.11578 0.25717 0.0
N75 N 0.45689 0.14616 0.31965 0.0
C76 C 0.438 0.14774 0.41626 0.0
C77 C 0.43985 0.14906 0.33908 0.0
C78 C 0.46519 0.14354 0.38682 0.0
N79 N 0.45398 0.14436 0.44643 0.0
O80 O 0.45408 0.1722 0.21748 0.0
H81 H 0.42952 0.15275 0.29978 0.0
H82 H 0.47927 0.14187 0.39285 0.0
O83 O 0.44555 0.13814 0.17591 0.0
C84 C 0.46047 0.18395 0.26151 0.0
O85 O 0.47381 0.17977 0.30575 0.0
N86 N 0.47958 0.12902 0.22466 0.0
C87 C 0.50504 0.10222 0.22599 0.0
C88 C 0.48962 0.10052 0.18229 0.0
C89 C 0.47723 0.11424 0.18103 0.0
C90 C 0.49484 0.13117 0.26465 0.0
C91 C 0.50753 0.11784 0.26757 0.0
H92 H 0.46636 0.11319 0.14184 0.0
H93 H 0.49747 0.14364 0.29246 0.0
H94 H 0.45892 0.13917 0.04937 0.0
H95 H 0.5012 0.17354 1.00311 0.0
H96 H 0.42598 0.15016 0.44794 0.0
H97 H 0.48752 0.08905 0.14653 0.0
H98 H 0.51934 0.11992 0.30122 0.0
C99 C 0.34442 0.49676 0.60865 0.0
C100 C 0.34339 0.49872 0.53115 0.0
N101 N 0.34109 0.48262 0.49963 0.0
N102 N 0.34297 0.4795 0.62605 0.0
C103 C 0.34059 0.47128 0.55877 0.0
H104 H 0.34658 0.50722 0.64948 0.0
Co105 Co 0.34499 0.46922 0.72145 0.0
C106 C 0.36722 0.43699 0.69352 0.0
O107 O 0.37513 0.43859 0.75955 0.0
N108 N 0.34641 0.45879 0.81884 0.0
C109 C 0.34129 0.43985 0.91303 0.0
C110 C 0.34165 0.44203 0.83567 0.0
C111 C 0.34838 0.46662 0.88744 0.0
N112 N 0.34541 0.45541 0.94561 0.0
O113 O 0.32171 0.45954 0.71015 0.0
H114 H 0.33776 0.4322 0.79426 0.0
H115 H 0.35104 0.48048 0.89534 0.0
O116 O 0.35528 0.44808 0.67418 0.0
C117 C 0.30996 0.46662 0.75203 0.0
O118 O 0.3146 0.47936 0.79872 0.0
N119 N 0.36736 0.48009 0.73263 0.0
C120 C 0.3976 0.50121 0.74597 0.0
C121 C 0.39747 0.48639 0.69808 0.0
C122 C 0.38211 0.47622 0.69098 0.0
C123 C 0.36703 0.49498 0.77623 0.0
C124 C 0.38205 0.50549 0.78507 0.0
H125 H 0.38201 0.46587 0.64901 0.0
H126 H 0.35473 0.49925 0.8014 0.0
H127 H 0.33851 0.45722 0.55348 0.0
H128 H 0.34487 0.51101 0.50054 0.0
H129 H 0.33722 0.42804 0.9428 0.0
H130 H 0.40901 0.48286 0.66505 0.0
H131 H 0.38122 0.51732 0.81955 0.0
C132 C 0.00514 0.16979 0.39619 0.0
C133 C 0.00284 0.17121 0.47353 0.0
N134 N 0.01162 0.15786 0.50736 0.0
N135 N 0.01542 0.15569 0.38106 0.0
C136 C 0.01898 0.14862 0.4498 0.0
H137 H -0.00031 0.17852 0.35376 0.0
Co138 Co 0.023 0.1481 0.28533 0.0
C139 C 0.05933 0.13811 0.33794 0.0
O140 O 0.06716 0.15063 0.29889 0.0
N141 N 0.03026 0.14049 0.18876 0.0
C142 C 0.04282 0.12664 0.09128 0.0
C143 C 0.04241 0.12824 0.16903 0.0
C144 C 0.02325 0.14582 0.12202 0.0
N145 N 0.03078 0.13777 0.06164 0.0
O146 O 0.03673 0.16931 0.27538 0.0
H147 H 0.05031 0.12063 0.20813 0.0
H148 H 0.01239 0.15502 0.11772 0.0
O149 O 0.04261 0.13611 0.33382 0.0
C150 C 0.0295 0.18183 0.2385 0.0
O151 O 0.01359 0.17948 0.21047 0.0
N152 N 0.00864 0.12817 0.29345 0.0
C153 C 0.9836 0.1011 0.30133 0.0
C154 C 0.00159 0.09767 0.315 0.0
C155 C 0.01396 0.11138 0.31023 0.0
C156 C 0.99134 0.13173 0.27899 0.0
C157 C 0.97861 0.11842 0.28249 0.0
H158 H 0.02772 0.10837 0.3198 0.0
H159 H 0.98745 0.14506 0.26449 0.0
H160 H 0.02707 0.13703 0.45765 0.0
H161 H 0.99519 0.18127 0.50228 0.0
H162 H 0.05143 0.11799 0.05921 0.0
H163 H 0.00611 0.08456 0.33009 0.0
H164 H 0.965 0.12169 0.26958 0.0
C165 C 0.34033 -0.00052 0.88343 0.0
C166 C 0.33837 -0.00209 0.96086 0.0
N167 N 0.3402 0.01407 0.99241 0.0
N168 N 0.34343 0.01652 0.86605 0.0
C169 C 0.34297 0.02511 0.93336 0.0
H170 H 0.34029 0.98878 0.84269 0.0
Co171 Co 0.34959 0.02518 0.77043 0.0
C172 C 0.36015 0.06168 0.81721 0.0
O173 O 0.3493 0.0694 0.76942 0.0
N174 N 0.35579 0.03361 0.67394 0.0
C175 C 0.37068 0.04479 0.5765 0.0
C176 C 0.37018 0.04309 0.65416 0.0
C177 C 0.34794 0.02948 0.60725 0.0
N178 N 0.35669 0.03615 0.54684 0.0
O179 O 0.32781 0.03795 0.76659 0.0
H180 H 0.38014 0.04781 0.69325 0.0
H181 H 0.33629 0.02129 0.60289 0.0
O182 O 0.36129 0.04489 0.81892 0.0
C183 C 0.3151 0.02909 0.73833 0.0
O184 O 0.31799 0.01272 0.71666 0.0
N185 N 0.37034 0.01175 0.77295 0.0
C186 C 0.39915 0.98871 0.7719 0.0
C187 C 0.39824 0.00265 0.82445 0.0
C188 C 0.38366 0.01397 0.82438 0.0
C189 C 0.37088 -0.00176 0.72192 0.0
C190 C 0.3852 0.98662 0.72008 0.0
H191 H 0.38297 0.02424 0.86676 0.0
H192 H 0.35997 0.99631 0.6831 0.0
H193 H 0.34497 0.03918 0.93922 0.0
H194 H 0.33664 0.98567 0.99159 0.0
H195 H 0.38105 0.05119 0.54436 0.0
H196 H 0.40869 0.00479 0.86545 0.0
H197 H 0.38509 0.97582 0.67968 0.0
C198 C 0.49634 0.34262 0.39267 0.0
C199 C 0.49838 0.3417 0.4702 0.0
N200 N 0.48223 0.3423 0.50246 0.0
N201 N 0.479 0.34393 0.37609 0.0
C202 C 0.47076 0.34334 0.44389 0.0
H203 H 0.50686 0.34288 0.35119 0.0
Co204 Co 0.46911 0.34742 0.28064 0.0
C205 C 0.43873 0.37193 0.30946 0.0
O206 O 0.44198 0.38065 0.24659 0.0
N207 N 0.45912 0.35038 0.18298 0.0
C208 C 0.43999 0.34766 0.0874 0.0
C209 C 0.44201 0.34734 0.16484 0.0
C210 C 0.46727 0.35201 0.11499 0.0
N211 N 0.45595 0.35048 0.05603 0.0
O212 O 0.45766 0.3249 0.28785 0.0
H213 H 0.43176 0.34409 0.20525 0.0
H214 H 0.48135 0.35336 0.10799 0.0
O215 O 0.44852 0.35884 0.32788 0.0
C216 C 0.4639 0.31296 0.24446 0.0
O217 O 0.47709 0.31695 0.19913 0.0
N218 N 0.48176 0.36887 0.27361 0.0
C219 C 0.50645 0.39643 0.27129 0.0
C220 C 0.49116 0.39764 0.31594 0.0
C221 C 0.47917 0.38354 0.31772 0.0
C222 C 0.49681 0.36734 0.23173 0.0
C223 C 0.50912 0.38104 0.22846 0.0
H224 H 0.46855 0.38412 0.35829 0.0
H225 H 0.49984 0.35495 0.20416 0.0
H226 H 0.45659 0.34367 0.45019 0.0
H227 H 0.51085 0.34132 0.50032 0.0
H228 H 0.42791 0.34489 0.05659 0.0
H229 H 0.48896 0.40894 0.35253 0.0
H230 H 0.52089 0.37934 0.1943 0.0
C231 C 0.14929 0.49911 0.87271 0.0
C232 C 0.15004 0.50123 0.95029 0.0
N233 N 0.14983 0.4851 0.98266 0.0
N234 N 0.1485 0.48173 0.85625 0.0
C235 C 0.14919 0.47357 0.92417 0.0
H236 H 0.14874 0.50957 0.83108 0.0
Co237 Co 0.14529 0.47174 0.76077 0.0
C238 C 0.1224 0.44015 0.79138 0.0
O239 O 0.11309 0.44297 0.72962 0.0
N240 N 0.14258 0.46165 0.66308 0.0
C241 C 0.14575 0.44265 0.56725 0.0
C242 C 0.14607 0.44465 0.64472 0.0
C243 C 0.14072 0.46978 0.59517 0.0
N244 N 0.1425 0.45853 0.53606 0.0
O245 O 0.16842 0.46155 0.76689 0.0
H246 H 0.14965 0.43449 0.68494 0.0
H247 H 0.13907 0.48381 0.58837 0.0
O248 O 0.13519 0.45052 0.80811 0.0
C249 C 0.18008 0.46819 0.72328 0.0
O250 O 0.17552 0.48102 0.67715 0.0
N251 N 0.12309 0.48312 0.75514 0.0
C252 C 0.09366 0.50556 0.75406 0.0
C253 C 0.09404 0.49054 0.80059 0.0
C254 C 0.10902 0.47972 0.80158 0.0
C255 C 0.12321 0.49807 0.71222 0.0
C256 C 0.10855 0.50925 0.70948 0.0
H257 H 0.10952 0.46931 0.84307 0.0
H258 H 0.13518 0.502 0.68352 0.0
H259 H 0.14913 0.45941 0.93069 0.0
H260 H 0.15003 0.51371 0.98033 0.0
H261 H 0.14882 0.43067 0.5363 0.0
H262 H 0.08305 0.48741 0.83756 0.0
H263 H 0.10927 0.52117 0.67576 0.0
C264 C 0.9921 0.65575 0.91619 0.0
C265 C 0.99423 0.65637 0.9937 0.0
N266 N 0.97822 0.65444 0.02631 0.0
N267 N 0.97486 0.65336 0.90009 0.0
C268 C 0.96672 0.65284 0.96808 0.0
H269 H 0.00248 0.65661 0.8742 0.0
Co270 Co 0.96521 0.65057 0.80438 0.0
C271 C 0.93544 0.62548 0.82566 0.0
O272 O 0.93992 0.61754 0.76215 0.0
N273 N 0.95536 0.64834 0.70614 0.0
C274 C 0.93619 0.65144 0.61097 0.0
C275 C 0.93829 0.65172 0.68835 0.0
C276 C 0.96342 0.64659 0.63805 0.0
N277 N 0.95207 0.64831 0.57944 0.0
O278 O 0.95402 0.67322 0.81429 0.0
H279 H 0.92812 0.65499 0.72908 0.0
H280 H 0.97744 0.64491 0.63064 0.0
O281 O 0.94434 0.63886 0.84856 0.0
C282 C 0.96037 0.68526 0.77177 0.0
O283 O 0.97326 0.68124 0.7249 0.0
N284 N 0.97771 0.629 0.79528 0.0
C285 C 0.00071 0.60011 0.7854 0.0
C286 C 0.98609 0.59973 0.83428 0.0
C287 C 0.97503 0.61446 0.83984 0.0
C288 C 0.99254 0.63001 0.75164 0.0
C289 C 0.00396 0.61562 0.74433 0.0
H290 H 0.96484 0.61432 0.88252 0.0
H291 H 0.99603 0.64238 0.72508 0.0
H292 H 0.95261 0.65135 0.97476 0.0
H293 H 0.00669 0.65763 0.02347 0.0
H294 H 0.92413 0.65433 0.58031 0.0
H295 H 0.98335 0.58827 0.86903 0.0
H296 H 0.01563 0.61693 0.70928 0.0
C297 C 0.83541 0.99305 0.43493 0.0
C298 C 0.83482 0.99529 0.51239 0.0
N299 N 0.83849 0.97965 0.54543 0.0
N300 N 0.83952 0.97612 0.41925 0.0
C301 C 0.8411 0.96825 0.48749 0.0
H302 H 0.83339 0.00319 0.39267 0.0
Co303 Co 0.84314 0.96678 0.32345 0.0
C304 C 0.86937 0.93801 0.34574 0.0
O305 O 0.87745 0.94287 0.28316 0.0
N306 N 0.84626 0.95727 0.22515 0.0
C307 C 0.84438 0.93825 0.12885 0.0
C308 C 0.84364 0.94014 0.20625 0.0
C309 C 0.84805 0.96557 0.15769 0.0
N310 N 0.84704 0.95431 0.09838 0.0
O311 O 0.82101 0.95449 0.3309 0.0
H312 H 0.84056 0.92975 0.24615 0.0
H313 H 0.84923 0.97967 0.15122 0.0
O314 O 0.85562 0.94642 0.36775 0.0
C315 C 0.80895 0.96048 0.28751 0.0
O316 O 0.81266 0.97371 0.24209 0.0
N317 N 0.86404 0.98037 0.31658 0.0
C318 C 0.89106 0.0056 0.31216 0.0
C319 C 0.89274 0.99042 0.357 0.0
C320 C 0.87885 0.97824 0.36025 0.0
C321 C 0.86193 0.99549 0.27566 0.0
C322 C 0.87534 0.00812 0.27154 0.0
H323 H 0.87978 0.96769 0.40104 0.0
H324 H 0.84937 -0.00182 0.2488 0.0
H325 H 0.84409 0.9544 0.4946 0.0
H326 H 0.83238 0.00761 0.54178 0.0
H327 H 0.84207 0.92617 0.09733 0.0
H328 H 0.9043 0.98843 0.39223 0.0
H329 H 0.87328 0.0199 0.23791 0.0
C330 C 0.50143 0.8392 0.91022 0.0
C331 C 0.49929 0.83856 0.98771 0.0
N332 N 0.51532 0.84033 0.02048 0.0
N333 N 0.51869 0.84145 0.89429 0.0
C334 C 0.52683 0.84185 0.96236 0.0
H335 H 0.49104 0.83851 0.86815 0.0
Co336 Co 0.52834 0.84439 0.7987 0.0
C337 C 0.55849 0.86894 0.82221 0.0
O338 O 0.55413 0.87722 0.75946 0.0
N339 N 0.53818 0.84676 0.7006 0.0
C340 C 0.5573 0.84359 0.60535 0.0
C341 C 0.55522 0.84327 0.68271 0.0
C342 C 0.53011 0.8486 0.63254 0.0
N343 N 0.54144 0.84683 0.57387 0.0
O344 O 0.53912 0.82157 0.80664 0.0
H345 H 0.56537 0.83985 0.7233 0.0
H346 H 0.5161 0.85033 0.62518 0.0
O347 O 0.54941 0.8556 0.84374 0.0
C348 C 0.53201 0.80984 0.76459 0.0
O349 O 0.51879 0.81438 0.72033 0.0
N350 N 0.51621 0.86616 0.7914 0.0
C351 C 0.49328 0.89514 0.78581 0.0
C352 C 0.50796 0.8952 0.8344 0.0
C353 C 0.51902 0.88042 0.83768 0.0
C354 C 0.50136 0.8655 0.74764 0.0
C355 C 0.48999 0.87995 0.74242 0.0
H356 H 0.52924 0.88026 0.88027 0.0
H357 H 0.49776 0.8533 0.71974 0.0
H358 H 0.54095 0.84324 0.9692 0.0
H359 H 0.48682 0.83744 0.01736 0.0
H360 H 0.56932 0.8406 0.57462 0.0
H361 H 0.51071 0.90641 0.87084 0.0
H362 H 0.47826 0.8789 0.70742 0.0
C363 C 0.66652 0.50561 0.40909 0.0
C364 C 0.66675 0.50289 0.48638 0.0
N365 N 0.65446 0.51343 0.51845 0.0
N366 N 0.65417 0.51781 0.3924 0.0
C367 C 0.64693 0.52216 0.45999 0.0
H368 H 0.67518 0.49952 0.36786 0.0
Co369 Co 0.65005 0.52724 0.29649 0.0
C370 C 0.62655 0.55847 0.3263 0.0
O371 O 0.61774 0.556 0.2629 0.0
N372 N 0.64644 0.53675 0.19832 0.0
C373 C 0.64857 0.5553 0.10078 0.0
C374 C 0.64998 0.5536 0.17808 0.0
C375 C 0.64341 0.52837 0.13151 0.0
N376 N 0.64454 0.53938 0.07134 0.0
O377 O 0.67274 0.53862 0.30084 0.0
H378 H 0.65416 0.56388 0.21687 0.0
H379 H 0.64123 0.51434 0.12624 0.0
O380 O 0.63917 0.54802 0.34382 0.0
C381 C 0.6844 0.53275 0.25516 0.0
O382 O 0.68009 0.52009 0.20751 0.0
N383 N 0.62864 0.51461 0.29212 0.0
C384 C 0.60088 0.49018 0.28677 0.0
C385 C 0.59912 0.50608 0.32715 0.0
C386 C 0.61328 0.518 0.33031 0.0
C387 C 0.63073 0.49898 0.2548 0.0
C388 C 0.61697 0.48676 0.25012 0.0
H389 H 0.61198 0.52937 0.36656 0.0
H390 H 0.64339 0.49582 0.22977 0.0
H391 H 0.63636 0.53163 0.46641 0.0
H392 H 0.67579 0.49435 0.51667 0.0
H393 H 0.65138 0.56712 0.06846 0.0
H394 H 0.5872 0.50897 0.3588 0.0
H395 H 0.61905 0.47463 0.21869 0.0
C396 C 0.9975 0.83283 0.63088 0.0
C397 C -0.00064 0.83076 0.55348 0.0
N398 N 0.98476 0.83722 0.51955 0.0
N399 N 0.9818 0.8405 0.64572 0.0
C400 C 0.9743 0.84282 0.57676 0.0
H401 H 0.00719 0.82944 0.67356 0.0
Co402 Co 0.97376 0.84756 0.7415 0.0
C403 C 0.93735 0.85861 0.69584 0.0
O404 O 0.92969 0.84744 0.74235 0.0
N405 N 0.96598 0.85468 0.83827 0.0
C406 C 0.95472 0.87025 0.93366 0.0
C407 C 0.95614 0.86895 0.85619 0.0
C408 C 0.97068 0.84776 0.90612 0.0
N409 N 0.96396 0.85694 0.96555 0.0
O410 O 0.9602 0.82627 0.74841 0.0
H411 H 0.95082 0.87828 0.81589 0.0
H412 H 0.97955 0.83668 0.91178 0.0
O413 O 0.95416 0.85977 0.69382 0.0
C414 C 0.96841 0.8135 0.77941 0.0
O415 O 0.98473 0.81599 0.80266 0.0
N416 N 0.98803 0.86768 0.73601 0.0
C417 C 0.01259 0.89521 0.73338 0.0
C418 C -0.00205 0.89527 0.68438 0.0
C419 C 0.98586 0.88129 0.68617 0.0
C420 C 0.00217 0.86734 0.78378 0.0
C421 C 0.01456 0.88101 0.78375 0.0
H422 H 0.97508 0.88128 0.64622 0.0
H423 H 0.00391 0.85626 0.82173 0.0
H424 H 0.96144 0.84863 0.56805 0.0
H425 H 0.01085 0.82558 0.52444 0.0
H426 H 0.94761 0.88049 0.96365 0.0
H427 H 0.99611 0.90578 0.64351 0.0
H428 H 0.02557 0.88044 0.82294 0.0
C429 C 0.66095 0.99383 0.12907 0.0
C430 C 0.66299 0.99571 0.05171 0.0
N431 N 0.65712 0.98085 0.01773 0.0
N432 N 0.65387 0.97785 0.14387 0.0
C433 C 0.65189 0.97022 0.07491 0.0
H434 H 0.6639 0.00369 0.17174 0.0
Co435 Co 0.64686 0.96968 0.23949 0.0
C436 C 0.6362 0.93322 0.19232 0.0
O437 O 0.64744 0.92559 0.23869 0.0
N438 N 0.63979 0.96179 0.33607 0.0
C439 C 0.62448 0.95019 0.43126 0.0
C440 C 0.62574 0.95163 0.35379 0.0
C441 C 0.64661 0.96666 0.40402 0.0
N442 N 0.63759 0.95973 0.46335 0.0
O443 O 0.66828 0.95636 0.24666 0.0
H444 H 0.61654 0.94607 0.31337 0.0
H445 H 0.6575 0.97577 0.40979 0.0
O446 O 0.63485 0.95001 0.19113 0.0
C447 C 0.68084 0.96486 0.27812 0.0
O448 O 0.67802 0.98117 0.30064 0.0
N449 N 0.62665 0.98375 0.23399 0.0
C450 C 0.59919 0.00834 0.23127 0.0
C451 C 0.5988 0.99343 0.18378 0.0
C452 C 0.61276 0.98132 0.18556 0.0
C453 C 0.62725 -0.00189 0.28052 0.0
C454 C 0.61364 0.01053 0.28037 0.0
H455 H 0.61251 0.97031 0.14674 0.0
H456 H 0.63852 1e-05 0.31742 0.0
H457 H 0.64659 0.95713 0.06617 0.0
H458 H 0.66772 0.00738 0.0227 0.0
H459 H 0.6144 0.94284 0.46109 0.0
H460 H 0.58807 0.9914 0.144 0.0
H461 H 0.61445 0.02175 0.31842 0.0
C462 C 0.49839 0.64731 0.63855 0.0
C463 C 0.49609 0.64816 0.56115 0.0
N464 N 0.51213 0.64931 0.52818 0.0
N465 N 0.51581 0.64777 0.65451 0.0
C466 C 0.52379 0.64935 0.58635 0.0
H467 H 0.48804 0.64589 0.68038 0.0
Co468 Co 0.5261 0.64516 0.75 0.0
C469 C 0.55836 0.62312 0.72015 0.0
O470 O 0.55618 0.61435 0.78371 0.0
N471 N 0.53644 0.64312 0.84772 0.0
C472 C 0.55554 0.64732 0.94246 0.0
C473 C 0.55331 0.64744 0.86511 0.0
C474 C 0.52859 0.64097 0.91618 0.0
N475 N 0.53991 0.64335 0.97468 0.0
O476 O 0.53581 0.66847 0.74197 0.0
H477 H 0.5632 0.65139 0.82423 0.0
H478 H 0.51466 0.63859 0.92382 0.0
O479 O 0.54743 0.63533 0.70218 0.0
C480 C 0.52907 0.68012 0.7854 0.0
O481 O 0.51634 0.67549 0.832 0.0
N482 N 0.51524 0.62275 0.75772 0.0
C483 C 0.49346 0.59283 0.76167 0.0
C484 C 0.50851 0.59327 0.71524 0.0
C485 C 0.519 0.60848 0.71279 0.0
C486 C 0.50031 0.62274 0.80092 0.0
C487 C 0.48945 0.60786 0.80496 0.0
H488 H 0.52944 0.60897 0.67136 0.0
H489 H 0.49616 0.63476 0.82881 0.0
H490 H 0.5379 0.65054 0.57956 0.0
H491 H 0.48357 0.64732 0.53157 0.0
H492 H 0.56747 0.65096 0.97263 0.0
H493 H 0.51191 0.58216 0.67934 0.0
H494 H 0.4775 0.6085 0.83863 0.0
C495 C 0.83451 0.49783 0.12011 0.0
C496 C 0.8326 0.49608 0.04258 0.0
N497 N 0.83766 0.51136 0.00991 0.0
N498 N 0.84071 0.51412 0.13615 0.0
C499 C 0.84225 0.52208 0.0679 0.0
H500 H 0.83212 0.48768 0.162 0.0
Co501 Co 0.84732 0.52244 0.23192 0.0
C502 C 0.85763 0.55904 0.1868 0.0
O503 O 0.84629 0.56641 0.23355 0.0
N504 N 0.85399 0.5305 0.32862 0.0
C505 C 0.86895 0.54212 0.42501 0.0
C506 C 0.86798 0.54065 0.34746 0.0
C507 C 0.8469 0.52567 0.39589 0.0
N508 N 0.8557 0.5326 0.45593 0.0
O509 O 0.82567 0.53542 0.23784 0.0
H510 H 0.87736 0.54615 0.30776 0.0
H511 H 0.83599 0.51656 0.40064 0.0
O512 O 0.85916 0.54226 0.18448 0.0
C513 C 0.81308 0.5267 0.26763 0.0
O514 O 0.81602 0.5104 0.28983 0.0
N515 N 0.86778 0.5087 0.2275 0.0
C516 C 0.89569 0.48461 0.22635 0.0
C517 C 0.89581 0.49934 0.17801 0.0
C518 C 0.88162 0.51119 0.17901 0.0
C519 C 0.86744 0.49451 0.27479 0.0
C520 C 0.88128 0.48235 0.27548 0.0
H521 H 0.88164 0.52205 0.13951 0.0
H522 H 0.85619 0.49253 0.31168 0.0
H523 H 0.84683 0.53547 0.06024 0.0
H524 H 0.82858 0.48426 0.01255 0.0
H525 H 0.87894 0.54943 0.45569 0.0
H526 H 0.9065 0.5014 0.13817 0.0
H527 H 0.88068 0.47127 0.31416 0.0
H528 H 0.95528 0.38722 0.22327 0.0
H529 H 0.93152 0.49036 0.21498 0.0
H530 H 0.99498 0.42825 0.2228 0.0
H531 H 0.89286 0.44858 0.23221 0.0
H532 H 0.95502 0.46808 0.21287 0.0
H533 H 0.93235 0.40976 0.22309 0.0
C534 C 0.95921 0.40099 0.22389 0.0
C535 C 0.97714 0.40581 0.22391 0.0
C536 C 0.94139 0.46381 0.21718 0.0
C537 C 0.95079 0.43183 0.22225 0.0
C538 C 0.92797 0.47651 0.21799 0.0
C539 C 0.91018 0.47135 0.2242 0.0
C540 C 0.93699 0.4458 0.2222 0.0
C541 C 0.90638 0.45322 0.22863 0.0
C542 C 0.94607 0.41388 0.22321 0.0
C543 C 0.98134 0.42391 0.22245 0.0
N544 N 0.91964 0.44114 0.22751 0.0
N545 N 0.96826 0.43626 0.22184 0.0
H546 H 0.11047 0.95439 0.73011 0.0
H547 H 0.00718 0.93096 0.71811 0.0
H548 H 0.06954 0.99405 0.71957 0.0
H549 H 0.04863 0.89218 0.74209 0.0
H550 H 0.02964 0.95427 0.71442 0.0
H551 H 0.08783 0.93149 0.7318 0.0
C552 C 0.09671 0.95832 0.72883 0.0
C553 C 0.09193 0.97624 0.72541 0.0
C554 C 0.0338 0.94066 0.72056 0.0
C555 C 0.06583 0.94993 0.72603 0.0
C556 C 0.02099 0.92734 0.72227 0.0
C557 C 0.026 0.90958 0.73074 0.0
C558 C 0.05177 0.9362 0.72703 0.0
C559 C 0.04411 0.90569 0.7367 0.0
C560 C 0.08376 0.94519 0.72925 0.0
C561 C 0.07385 0.98043 0.72179 0.0
N562 N 0.0563 0.91887 0.73468 0.0
N563 N 0.06146 0.96738 0.72234 0.0
H564 H 0.56329 0.00311 0.22035 0.0
H565 H 0.54101 0.10661 0.222 0.0
H566 H 0.60262 0.04434 0.23482 0.0
H567 H 0.50082 0.06608 0.22626 0.0
H568 H 0.56367 0.08376 0.22219 0.0
H569 H 0.54015 0.02575 0.21672 0.0
C570 C 0.56707 0.01691 0.22242 0.0
C571 C 0.58493 0.02183 0.2283 0.0
C572 C 0.5499 0.07983 0.2232 0.0
C573 C 0.55853 0.04778 0.22454 0.0
C574 C 0.53692 0.0929 0.22362 0.0
C575 C 0.51893 0.0883 0.2249 0.0
C576 C 0.54494 0.06194 0.22383 0.0
C577 C 0.5145 0.07025 0.22483 0.0
C578 C 0.55385 0.02982 0.22074 0.0
C579 C 0.58903 0.03991 0.23152 0.0
N580 N 0.52742 0.05773 0.2245 0.0
N581 N 0.57595 0.0522 0.22956 0.0
H582 H 0.41129 0.51744 0.87227 0.0
H583 H 0.48316 0.57281 0.63928 0.0
H584 H 0.41971 0.51188 0.6314 0.0
H585 H 0.47546 0.57795 0.88082 0.0
H586 H 0.46142 0.54898 0.63699 0.0
H587 H 0.43592 0.53834 0.87798 0.0
C588 C 0.41835 0.52058 0.8206 0.0
C589 C 0.41336 0.51292 0.7512 0.0
C590 C 0.46456 0.55523 0.69062 0.0
C591 C 0.44165 0.53683 0.75736 0.0
C592 C 0.4771 0.56878 0.6921 0.0
C593 C 0.48117 0.57746 0.76039 0.0
C594 C 0.45593 0.55031 0.75785 0.0
C595 C 0.47258 0.57182 0.8267 0.0
C596 C 0.43246 0.53246 0.82395 0.0
C597 C 0.42317 0.51729 0.68628 0.0
N598 N 0.46033 0.55867 0.82371 0.0
N599 N 0.43675 0.52902 0.69089 0.0
H600 H 0.92687 0.00096 0.29803 0.0
H601 H 0.94952 0.10335 0.35432 0.0
H602 H 0.88722 0.04139 0.32627 0.0
H603 H 0.98678 0.06606 0.26012 0.0
H604 H 0.92723 0.08009 0.35761 0.0
H605 H 0.94978 0.02395 0.29777 0.0
C606 C 0.92301 0.01467 0.30433 0.0
C607 C 0.90512 0.0193 0.31169 0.0
C608 C 0.94029 0.077 0.33619 0.0
C609 C 0.93119 0.04558 0.31184 0.0
C610 C 0.95303 0.09032 0.33387 0.0
C611 C 0.9701 0.08678 0.30625 0.0
C612 C 0.9446 0.0599 0.31145 0.0
C613 C 0.97391 0.06943 0.28261 0.0
C614 C 0.93606 0.02776 0.30384 0.0
C615 C 0.90082 0.03726 0.31935 0.0
N616 N 0.96127 0.05665 0.28573 0.0
N617 N 0.91375 0.04973 0.31949 0.0
H618 H 0.48087 0.91476 0.90557 0.0
H619 H 0.41612 0.97363 0.65029 0.0
H620 H 0.47687 0.9098 0.66235 0.0
H621 H 0.41652 0.97484 0.89502 0.0
H622 H 0.43988 0.9518 0.65294 0.0
H623 H 0.45911 0.93858 0.90196 0.0
C624 C 0.47558 0.91881 0.85126 0.0
C625 C 0.48072 0.91024 0.78412 0.0
C626 C 0.43481 0.95688 0.70607 0.0
C627 C 0.45557 0.93739 0.77971 0.0
C628 C 0.42117 0.9693 0.70463 0.0
C629 C 0.41421 0.97606 0.77255 0.0
C630 C 0.4416 0.95115 0.77594 0.0
C631 C 0.42156 0.97017 0.84119 0.0
C632 C 0.46304 0.93233 0.84932 0.0
C633 C 0.47315 0.91589 0.71558 0.0
N634 N 0.4348 0.95803 0.8411 0.0
N635 N 0.46095 0.92907 0.71516 0.0
H636 H 0.56496 0.49558 0.27495 0.0
H637 H 0.54231 0.39214 0.27896 0.0
H638 H 0.60386 0.45419 0.29769 0.0
H639 H 0.50212 0.43257 0.27136 0.0
H640 H 0.56493 0.41501 0.28317 0.0
H641 H 0.54164 0.47307 0.27262 0.0
C642 C 0.56861 0.48179 0.27974 0.0
C643 C 0.58644 0.4768 0.28593 0.0
C644 C 0.55118 0.41894 0.28049 0.0
C645 C 0.55984 0.45098 0.28271 0.0
C646 C 0.53823 0.40586 0.27747 0.0
C647 C 0.52026 0.41042 0.27402 0.0
C648 C 0.54622 0.43682 0.28004 0.0
C649 C 0.5158 0.42845 0.27426 0.0
C650 C 0.55529 0.46895 0.27807 0.0
C651 C 0.59036 0.4587 0.29127 0.0
N652 N 0.5287 0.44101 0.27695 0.0
N653 N 0.5772 0.4465 0.28942 0.0
H654 H 0.01273 0.57892 0.90083 0.0
H655 H 0.0784 0.52342 0.63556 0.0
H656 H 0.01723 0.58674 0.65924 0.0
H657 H 0.07456 0.51653 0.87787 0.0
H658 H 0.05488 0.54553 0.64193 0.0
H659 H 0.03401 0.55477 0.89219 0.0
C660 C 0.01803 0.57545 0.84578 0.0
C661 C 0.01315 0.58492 0.78063 0.0
C662 C 0.05911 0.5391 0.69365 0.0
C663 C 0.0378 0.55736 0.77053 0.0
C664 C 0.07259 0.52652 0.6901 0.0
C665 C 0.07852 0.5181 0.75628 0.0
C666 C 0.0515 0.54338 0.76397 0.0
C667 C 0.0703 0.52249 0.82521 0.0
C668 C 0.0303 0.56171 0.84098 0.0
C669 C 0.02076 0.57997 0.7111 0.0
N670 N 0.0573 0.53487 0.82727 0.0
N671 N 0.03271 0.56658 0.70793 0.0
H672 H 0.0846 0.39466 0.21051 0.0
H673 H 0.13741 0.4314 0.92836 0.0
H674 H 0.06203 0.36331 0.03047 0.0
H675 H 0.0932 0.41871 0.78325 0.0
H676 H 0.12476 0.41275 0.02707 0.0
H677 H 0.10257 0.41026 0.11704 0.0
C678 C 0.08363 0.39084 0.15144 0.0
C679 C 0.07175 0.37761 0.12833 0.0
C680 C 0.11775 0.41416 0.97389 0.0
C681 C 0.09241 0.39535 0.02081 0.0
C682 C 0.12501 0.42478 0.91723 0.0
C683 C 0.11613 0.42708 0.84797 0.0
C684 C 0.10153 0.40561 0.96101 0.0
C685 C 0.10041 0.41758 0.83606 0.0
C686 C 0.09402 0.39967 0.09806 0.0
C687 C 0.07101 0.37331 0.05094 0.0
N688 N 0.09358 0.40732 0.89212 0.0
N689 N 0.08099 0.38232 0.99986 0.0
H690 H 0.1397 0.07435 0.56356 0.0
H691 H 0.04673 0.11332 0.43671 0.0
H692 H 0.09239 0.07096 0.69965 0.0
H693 H 0.09555 0.13566 0.35358 0.0
H694 H 0.06352 0.09475 0.52272 0.0
H695 H 0.12408 0.09432 0.47648 0.0
C696 C 0.12609 0.07786 0.57538 0.0
C697 C 0.11734 0.07094 0.63901 0.0
C698 C 0.07058 0.10375 0.48586 0.0
C699 C 0.09943 0.09349 0.53937 0.0
C700 C 0.06099 0.11439 0.43645 0.0
C701 C 0.06969 0.12629 0.38816 0.0
C702 C 0.0891 0.10469 0.48652 0.0
C703 C 0.08828 0.12678 0.39012 0.0
C704 C 0.11723 0.08926 0.52578 0.0
C705 C 0.09971 0.07596 0.65155 0.0
N706 N 0.0974 0.11608 0.43837 0.0
N707 N 0.09133 0.08678 0.60191 0.0
H708 H 0.41886 0.0934 0.2128 0.0
H709 H 0.36713 0.0975 0.81724 0.0
H710 H 0.42455 0.13748 0.0595 0.0
H711 H 0.37683 0.04974 0.94411 0.0
H712 H 0.38456 0.11407 0.91158 0.0
H713 H 0.39923 0.07914 0.12202 0.0
C714 C 0.4159 0.10017 0.16026 0.0
C715 C 0.42353 0.11661 0.14359 0.0
C716 C 0.38281 0.09995 0.91841 0.0
C717 C 0.40101 0.10022 0.03879 0.0
C718 C 0.37287 0.09051 0.86477 0.0
C719 C 0.37058 0.07217 0.87244 0.0
C720 C 0.39021 0.09101 0.98057 0.0
C721 C 0.37832 0.0638 0.9352 0.0
C722 C 0.40472 0.09196 0.10821 0.0
C723 C 0.41906 0.12474 0.07452 0.0
N724 N 0.38769 0.07326 0.98674 0.0
N725 N 0.40813 0.11642 0.02441 0.0
H726 H 0.36165 0.43696 0.54023 0.0
H727 H 0.43149 0.36038 0.45393 0.0
H728 H 0.39005 0.40928 0.71558 0.0
H729 H 0.41558 0.39938 0.28932 0.0
H730 H 0.41203 0.37421 0.54701 0.0
H731 H 0.37676 0.41918 0.44478 0.0
C732 C 0.37083 0.42696 0.55881 0.0
C733 C 0.37461 0.42472 0.6361 0.0
C734 C 0.41274 0.37966 0.49036 0.0
C735 C 0.39211 0.4043 0.52688 0.0
C736 C 0.42388 0.37178 0.43706 0.0
C737 C 0.42549 0.37889 0.36389 0.0
C738 C 0.40289 0.39464 0.47011 0.0
C739 C 0.41496 0.39353 0.34521 0.0
C740 C 0.37956 0.41687 0.50417 0.0
C741 C 0.38679 0.41156 0.65663 0.0
N742 N 0.40417 0.40095 0.39802 0.0
N743 N 0.39516 0.40189 0.60234 0.0
H744 H 0.8633 0.59506 0.18996 0.0
H745 H 0.91825 0.59423 0.8032 0.0
H746 H 0.8766 0.54792 0.06411 0.0
H747 H 0.92243 0.63738 0.9628 0.0
H748 H 0.89858 0.57898 0.89038 0.0
H749 H 0.8812 0.61246 0.10059 0.0
C750 C 0.86992 0.58837 0.14368 0.0
C751 C 0.86843 0.56997 0.13471 0.0
C752 C 0.90375 0.59181 0.90636 0.0
C753 C 0.88863 0.58977 0.03219 0.0
C754 C 0.91494 0.6006 0.85636 0.0
C755 C 0.92216 0.61708 0.87584 0.0
C756 C 0.89956 0.59955 0.97646 0.0
C757 C 0.91728 0.62464 0.94566 0.0
C758 C 0.88014 0.5983 0.0929 0.0
C759 C 0.87734 0.56201 0.07375 0.0
N760 N 0.90629 0.61579 0.99366 0.0
N761 N 0.88694 0.57195 0.02483 0.0
H762 H 0.94893 0.8778 0.57465 0.0
H763 H 0.857 0.92406 0.48013 0.0
H764 H 0.90143 0.86502 0.69861 0.0
H765 H 0.90127 0.92189 0.32595 0.0
H766 H 0.87284 0.90401 0.56588 0.0
H767 H 0.93166 0.89591 0.48909 0.0
C768 C 0.93486 0.8788 0.58421 0.0
C769 C 0.92667 0.86981 0.64423 0.0
C770 C 0.87897 0.90786 0.51296 0.0
C771 C 0.90664 0.89078 0.54558 0.0
C772 C 0.86997 0.91932 0.46404 0.0
C773 C 0.87785 0.92478 0.39584 0.0
C774 C 0.89602 0.902 0.49377 0.0
C775 C 0.89465 0.91812 0.37785 0.0
C776 C 0.92494 0.88913 0.53482 0.0
C777 C 0.90829 0.87167 0.65301 0.0
N778 N 0.90319 0.90723 0.42669 0.0
N779 N 0.89888 0.88205 0.60441 0.0
H780 H 0.63045 0.89718 0.19153 0.0
H781 H 0.57603 0.90012 0.80331 0.0
H782 H 0.61725 0.94495 0.07062 0.0
H783 H 0.57133 0.85623 0.95819 0.0
H784 H 0.5957 0.91479 0.89266 0.0
H785 H 0.61264 0.88025 0.09978 0.0
C786 C 0.62387 0.90411 0.14588 0.0
C787 C 0.62537 0.92256 0.13899 0.0
C788 C 0.59041 0.90192 0.90712 0.0
C789 C 0.60529 0.90329 0.03374 0.0
C790 C 0.57923 0.89346 0.85587 0.0
C791 C 0.57184 0.87696 0.87344 0.0
C792 C 0.59443 0.89383 0.97655 0.0
C793 C 0.57659 0.86901 0.94255 0.0
C794 C 0.61371 0.89445 0.09373 0.0
C795 C 0.61651 0.93082 0.07874 0.0
N796 N 0.58757 0.87755 0.99182 0.0
N797 N 0.60697 0.92115 0.02846 0.0
H798 H 0.63756 0.56321 0.47356 0.0
H799 H 0.56275 0.63392 0.57281 0.0
H800 H 0.60006 0.58283 0.30942 0.0
H801 H 0.58405 0.59787 0.73852 0.0
H802 H 0.58159 0.62056 0.47639 0.0
H803 H 0.62315 0.5811 0.57134 0.0
C804 C 0.62638 0.57133 0.45785 0.0
C805 C 0.61974 0.57115 0.38342 0.0
C806 C 0.58223 0.61568 0.53403 0.0
C807 C 0.60353 0.59199 0.49471 0.0
C808 C 0.57145 0.62331 0.58926 0.0
C809 C 0.57148 0.61681 0.66376 0.0
C810 C 0.5934 0.60162 0.55358 0.0
C811 C 0.58338 0.60318 0.68166 0.0
C812 C 0.6182 0.58156 0.51374 0.0
C813 C 0.60549 0.58234 0.36618 0.0
N814 N 0.59381 0.59598 0.62688 0.0
N815 N 0.59782 0.59225 0.42146 0.0
H816 H 0.04573 0.29083 0.11862 0.0
H817 H 0.04905 0.19932 0.34581 0.0
H818 H 0.03981 0.28682 0.36106 0.0
H819 H 0.02779 0.20457 0.12013 0.0
H820 H 0.05674 0.23094 0.34438 0.0
H821 H 0.05023 0.25863 0.11241 0.0
C822 C 0.0459 0.28324 0.17062 0.0
C823 C 0.04221 0.29134 0.24034 0.0
C824 C 0.05077 0.22501 0.2946 0.0
C825 C 0.04746 0.25484 0.23382 0.0
C826 C 0.04649 0.20702 0.29524 0.0
C827 C 0.03763 0.19948 0.23328 0.0
C828 C 0.04644 0.23533 0.23103 0.0
C829 C 0.03444 0.21 0.16931 0.0
C830 C 0.04836 0.26492 0.16704 0.0
C831 C 0.04242 0.28095 0.30612 0.0
N832 N 0.03874 0.22743 0.16995 0.0
N833 N 0.04487 0.26321 0.30127 0.0
H834 H 0.29185 0.02365 0.6238 0.0
H835 H 0.20953 0.0425 0.86765 0.0
H836 H 0.29751 0.05073 0.83766 0.0
H837 H 0.20613 0.04474 0.62396 0.0
H838 H 0.2416 0.04645 0.85921 0.0
H839 H 0.26054 0.03176 0.62118 0.0
C840 C 0.2865 0.03156 0.66964 0.0
C841 C 0.29715 0.03645 0.7313 0.0
C842 C 0.23382 0.04653 0.80765 0.0
C843 C 0.26135 0.04543 0.72951 0.0
C844 C 0.21555 0.04426 0.81243 0.0
C845 C 0.20529 0.04326 0.74636 0.0
C846 C 0.2419 0.04721 0.73617 0.0
C847 C 0.21364 0.04553 0.67615 0.0
C848 C 0.26869 0.03626 0.66792 0.0
C849 C 0.28968 0.04675 0.78913 0.0
N850 N 0.23157 0.04696 0.67272 0.0
N851 N 0.27208 0.05056 0.78777 0.0
H852 H 0.4497 0.29487 0.36449 0.0
H853 H 0.44784 0.20269 0.14024 0.0
H854 H 0.46333 0.2894 0.12821 0.0
H855 H 0.45974 0.20725 0.37861 0.0
H856 H 0.44339 0.23487 0.13513 0.0
H857 H 0.44337 0.26299 0.36919 0.0
C858 C 0.45097 0.28703 0.31333 0.0
C859 C 0.45726 0.29464 0.24614 0.0
C860 C 0.44663 0.22872 0.18878 0.0
C861 C 0.44991 0.25848 0.25086 0.0
C862 C 0.44905 0.21041 0.19179 0.0
C863 C 0.45434 0.20243 0.25975 0.0
C864 C 0.44922 0.23895 0.25448 0.0
C865 C 0.45588 0.21299 0.32491 0.0
C866 C 0.44744 0.26889 0.31609 0.0
C867 C 0.45875 0.28394 0.18141 0.0
N868 N 0.45343 0.23074 0.32063 0.0
N869 N 0.45519 0.26637 0.18541 0.0
H870 H 0.29151 0.45458 0.62835 0.0
H871 H 0.19836 0.45469 0.84427 0.0
H872 H 0.28582 0.46701 0.8658 0.0
H873 H 0.20418 0.46905 0.60906 0.0
H874 H 0.23044 0.44965 0.85134 0.0
H875 H 0.25929 0.45036 0.61995 0.0
C876 C 0.28352 0.45604 0.67892 0.0
C877 C 0.29121 0.46134 0.74763 0.0
C878 C 0.22459 0.45363 0.79797 0.0
C879 C 0.25467 0.45638 0.73872 0.0
C880 C 0.20633 0.45642 0.79383 0.0
C881 C 0.19872 0.4625 0.72625 0.0
C882 C 0.23514 0.4566 0.73368 0.0
C883 C 0.20962 0.4646 0.66252 0.0
C884 C 0.2652 0.45373 0.67405 0.0
C885 C 0.28032 0.46315 0.81153 0.0
N886 N 0.2273 0.46172 0.66781 0.0
N887 N 0.26258 0.46073 0.80552 0.0
H888 H 0.94737 0.79629 0.67656 0.0
H889 H 0.95195 0.70421 0.89911 0.0
H890 H 0.97232 0.79021 0.89478 0.0
H891 H 0.95618 0.70841 0.65609 0.0
H892 H 0.94841 0.73653 0.90666 0.0
H893 H 0.93964 0.76465 0.67832 0.0
C894 C 0.95077 0.78839 0.72564 0.0
C895 C 0.96062 0.7957 0.78528 0.0
C896 C 0.9497 0.73026 0.85168 0.0
C897 C 0.95171 0.75989 0.78808 0.0
C898 C 0.95161 0.71189 0.84734 0.0
C899 C 0.95451 0.70378 0.77695 0.0
C900 C 0.95032 0.7404 0.78502 0.0
C901 C 0.95414 0.71427 0.71147 0.0
C902 C 0.94645 0.7704 0.72645 0.0
C903 C 0.96487 0.78495 0.84737 0.0
N904 N 0.95219 0.73206 0.71705 0.0
N905 N 0.96046 0.76754 0.84708 0.0
H906 H 0.78953 0.95105 0.41199 0.0
H907 H 0.69911 0.94434 0.17686 0.0
H908 H 0.78678 0.95547 0.16865 0.0
H909 H 0.70317 0.96886 0.397 0.0
H910 H 0.73088 0.93726 0.18272 0.0
H911 H 0.75731 0.94633 0.41515 0.0
C912 C 0.78221 0.95048 0.35922 0.0
C913 C 0.79067 0.9538 0.29003 0.0
C914 C 0.72465 0.94382 0.23037 0.0
C915 C 0.75417 0.9483 0.2931 0.0
C916 C 0.70659 0.94777 0.2272 0.0
C917 C 0.69869 0.95734 0.28622 0.0
C918 C 0.73464 0.94916 0.29367 0.0
C919 C 0.70891 0.96163 0.35002 0.0
C920 C 0.76389 0.9479 0.36105 0.0
C921 C 0.78064 0.95312 0.22316 0.0
N922 N 0.7264 0.95759 0.35197 0.0
N923 N 0.76288 0.95055 0.22631 0.0
H924 H 0.54421 0.79103 0.88654 0.0
H925 H 0.54271 0.69851 0.66502 0.0
H926 H 0.53175 0.78621 0.64878 0.0
H927 H 0.52835 0.70404 0.90051 0.0
H928 H 0.54829 0.73051 0.6596 0.0
H929 H 0.5481 0.75877 0.89266 0.0
C930 C 0.54272 0.78322 0.83538 0.0
C931 C 0.53748 0.79117 0.76726 0.0
C932 C 0.54418 0.72461 0.71265 0.0
C933 C 0.54202 0.75457 0.77363 0.0
C934 C 0.54106 0.7064 0.71583 0.0
C935 C 0.53485 0.69874 0.78303 0.0
C936 C 0.5414 0.73506 0.77753 0.0
C937 C 0.53289 0.70952 0.8473 0.0
C938 C 0.54483 0.76487 0.83897 0.0
C939 C 0.53559 0.7805 0.70259 0.0
N940 N 0.5361 0.72716 0.84295 0.0
N941 N 0.53779 0.76273 0.70737 0.0
H942 H 0.7902 0.52225 0.38403 0.0
H943 H 0.70711 0.53674 0.13745 0.0
H944 H 0.79495 0.5469 0.16488 0.0
H945 H 0.70389 0.54146 0.38062 0.0
H946 H 0.73916 0.54102 0.14492 0.0
H947 H 0.75868 0.52957 0.3855 0.0
C948 C 0.78461 0.5295 0.33682 0.0
C949 C 0.79507 0.53393 0.27409 0.0
C950 C 0.73141 0.54153 0.19651 0.0
C951 C 0.75903 0.54192 0.27447 0.0
C952 C 0.71316 0.53903 0.1923 0.0
C953 C 0.70294 0.53868 0.25858 0.0
C954 C 0.73954 0.54311 0.26771 0.0
C955 C 0.71135 0.54171 0.32826 0.0
C956 C 0.76667 0.53373 0.33781 0.0
C957 C 0.78728 0.54332 0.21434 0.0
N958 N 0.72926 0.54339 0.33124 0.0
N959 N 0.76958 0.54665 0.21514 0.0
H960 H 0.04705 0.35076 0.92254 0.0
H961 H 0.01215 0.33606 0.49886 0.0
H962 H 0.99619 0.3279 0.86943 0.0
H963 H 0.06444 0.35512 0.55311 0.0
H964 H 0.0057 0.33384 0.63405 0.0
H965 H 0.05345 0.35275 0.78784 0.0
C966 C 0.03725 0.34599 0.88292 0.0
C967 C 0.02101 0.33912 0.90816 0.0
C968 C 0.01858 0.33853 0.61642 0.0
C969 C 0.02824 0.34165 0.75251 0.0
C970 C 0.02224 0.33995 0.53907 0.0
C971 C 0.03888 0.34586 0.51434 0.0
C972 C 0.03162 0.34308 0.66973 0.0
C973 C 0.05151 0.35036 0.56948 0.0
C974 C 0.0409 0.34725 0.8056 0.0
C975 C 0.00879 0.33347 0.85311 0.0
N976 N 0.04762 0.3489 0.64445 0.0
N977 N 0.01264 0.33489 0.77803 0.0
H978 H 0.13722 0.0638 0.05521 0.0
H979 H 0.17258 -0.00192 0.37621 0.0
H980 H 0.16153 0.0135 1.00658 0.0
H981 H 0.14066 0.04411 0.42355 0.0
H982 H 0.16963 0.00402 0.24092 0.0
H983 H 0.13941 0.05741 0.19079 0.0
C984 C 0.14301 0.05141 0.07308 0.0
C985 C 0.14918 0.03917 0.01939 0.0
C986 C 0.16326 0.01281 0.28101 0.0
C987 C 0.15175 0.03174 0.17458 0.0
C988 C 0.16489 0.00939 0.35849 0.0
C989 C 0.15689 0.02059 0.41206 0.0
C990 C 0.15362 0.02759 0.25651 0.0
C991 C 0.14731 0.03521 0.38501 0.0
C992 C 0.14419 0.04773 0.15047 0.0
C993 C 0.1564 0.02322 0.04577 0.0
N994 N 0.14598 0.03828 0.30931 0.0
N995 N 0.15756 0.02001 0.12144 0.0
H996 H 0.50305 0.15942 0.88455 0.0
H997 H 0.43245 0.13484 0.56219 0.0
H998 H 0.44894 0.1445 0.92943 0.0
H999 H 0.48531 0.15307 0.51354 0.0
H1000 H 0.43907 0.13638 0.69742 0.0
H1001 H 0.49754 0.1555 0.74893 0.0
C1002 C 0.49002 0.15535 0.86614 0.0
C1003 C 0.47645 0.15233 0.919 0.0
C1004 C 0.44927 0.13998 0.65722 0.0
C1005 C 0.47011 0.14764 0.7635 0.0
C1006 C 0.44547 0.13916 0.57989 0.0
C1007 C 0.45828 0.14394 0.52617 0.0
C1008 C 0.46603 0.14567 0.68146 0.0
C1009 C 0.47505 0.14912 0.55263 0.0
C1010 C 0.48691 0.15302 0.7886 0.0
C1011 C 0.4599 0.14679 0.89142 0.0
N1012 N 0.47839 0.14994 0.62837 0.0
N1013 N 0.45721 0.14469 0.81578 0.0
H1014 H 0.33844 0.48736 0.01058 0.0
H1015 H 0.34787 0.45066 0.43372 0.0
H1016 H 0.35071 0.43309 0.06387 0.0
H1017 H 0.33382 0.50457 0.38113 0.0
H1018 H 0.34869 0.44398 0.29898 0.0
H1019 H 0.33698 0.49398 0.14581 0.0
C1020 C 0.34099 0.47685 0.05055 0.0
C1021 C 0.34479 0.45962 0.02548 0.0
C1022 C 0.34539 0.45727 0.31688 0.0
C1023 C 0.34286 0.46711 0.18105 0.0
C1024 C 0.34481 0.46111 0.39426 0.0
C1025 C 0.34082 0.47828 0.41968 0.0
C1026 C 0.34196 0.47066 0.26392 0.0
C1027 C 0.3372 0.49122 0.36474 0.0
C1028 C 0.34001 0.48062 0.12797 0.0
C1029 C 0.34759 0.4465 0.08042 0.0
N1030 N 0.33789 0.48716 0.28963 0.0
N1031 N 0.34659 0.45052 0.15548 0.0
H1032 H 0.02066 0.12685 0.57606 0.0
H1033 H 0.01735 0.16742 0.99609 0.0
H1034 H 0.00674 0.18106 0.62419 0.0
H1035 H 0.0355 0.11468 0.9449 0.0
H1036 H 0.01173 0.17217 0.86109 0.0
H1037 H 0.02476 0.1218 0.71131 0.0
C1038 C 0.0185 0.13775 0.61471 0.0
C1039 C 0.01341 0.15448 0.58784 0.0
C1040 C 0.01691 0.15955 0.87941 0.0
C1041 C 0.01792 0.14864 0.74406 0.0
C1042 C 0.02002 0.15677 0.95668 0.0
C1043 C 0.02694 0.14061 0.98224 0.0
C1044 C 0.02067 0.14605 0.827 0.0
C1045 C 0.03038 0.12742 0.928 0.0
C1046 C 0.02078 0.1348 0.6923 0.0
C1047 C 0.0105 0.16791 0.64169 0.0
N1048 N 0.02721 0.13043 0.85319 0.0
N1049 N 0.01284 0.16471 0.71697 0.0
H1050 H 0.35633 0.04246 0.05865 0.0
H1051 H 0.33771 0.00934 0.48222 0.0
H1052 H 0.32651 0.99534 0.1106 0.0
H1053 H 0.36684 0.05676 0.4283 0.0
H1054 H 0.33236 0.00462 0.34714 0.0
H1055 H 0.35913 0.0485 0.19367 0.0
C1056 C 0.35018 0.03344 0.0981 0.0
C1057 C 0.34116 0.0183 0.07245 0.0
C1058 C 0.33988 0.01609 0.36489 0.0
C1059 C 0.34459 0.0251 0.22854 0.0
C1060 C 0.34286 0.01888 0.4423 0.0
C1061 C 0.35282 0.03348 0.46723 0.0
C1062 C 0.34687 0.02798 0.31162 0.0
C1063 C 0.35933 0.04518 0.41208 0.0
C1064 C 0.3519 0.03687 0.17562 0.0
C1065 C 0.33377 0.00703 0.1273 0.0
N1066 N 0.35628 0.04216 0.33714 0.0
N1067 N 0.33568 0.01063 0.20255 0.0
H1068 H 0.45256 0.35586 0.56807 0.0
H1069 H 0.48692 0.33992 0.99168 0.0
H1070 H 0.50255 0.33121 0.62078 0.0
H1071 H 0.43473 0.35916 0.93778 0.0
H1072 H 0.49346 0.33796 0.85638 0.0
H1073 H 0.4462 0.35795 0.703 0.0
C1074 C 0.46216 0.3507 0.60773 0.0
C1075 C 0.47813 0.34324 0.58241 0.0
C1076 C 0.48058 0.34263 0.87412 0.0
C1077 C 0.47098 0.34595 0.73807 0.0
C1078 C 0.47688 0.34391 0.95152 0.0
C1079 C 0.46024 0.34977 0.97634 0.0
C1080 C 0.46759 0.34732 0.82089 0.0
C1081 C 0.44766 0.35442 0.9213 0.0
C1082 C 0.45854 0.35204 0.6851 0.0
C1083 C 0.49016 0.3372 0.63729 0.0
N1084 N 0.45159 0.35311 0.84629 0.0
N1085 N 0.48635 0.3387 0.71241 0.0
H1086 H 0.13699 0.45509 0.04794 0.0
H1087 H 0.1522 0.48979 0.47197 0.0
H1088 H 0.16025 0.50575 0.10127 0.0
H1089 H 0.13426 0.43712 0.41759 0.0
H1090 H 0.15387 0.49641 0.33675 0.0
H1091 H 0.13505 0.44866 0.18282 0.0
C1092 C 0.14187 0.46483 0.08772 0.0
C1093 C 0.14891 0.481 0.0626 0.0
C1094 C 0.14954 0.48341 0.35436 0.0
C1095 C 0.14638 0.47377 0.2182 0.0
C1096 C 0.14843 0.47965 0.43173 0.0
C1097 C 0.14303 0.46285 0.4564 0.0
C1098 C 0.14515 0.47032 0.301 0.0
C1099 C 0.13866 0.45017 0.40123 0.0
C1100 C 0.14062 0.46118 0.16507 0.0
C1101 C 0.15459 0.4932 0.11764 0.0
N1102 N 0.13979 0.45417 0.32625 0.0
N1103 N 0.1532 0.48934 0.19271 0.0
H1104 H 0.98295 0.65874 0.51466 0.0
H1105 H 0.94938 0.6394 0.09265 0.0
H1106 H 0.93082 0.63902 0.46215 0.0
H1107 H -0.00198 0.66691 0.14384 0.0
H1108 H 0.94303 0.63771 0.22771 0.0
H1109 H 0.98955 0.65996 0.3793 0.0
C1110 C 0.97294 0.6545 0.47472 0.0
C1111 C 0.95631 0.64871 0.49982 0.0
C1112 C 0.95508 0.64415 0.20937 0.0
C1113 C 0.96371 0.65028 0.34454 0.0
C1114 C 0.95869 0.64524 0.13198 0.0
C1115 C 0.97426 0.65341 0.10626 0.0
C1116 C 0.96715 0.6512 0.26183 0.0
C1117 C 0.98596 0.66034 0.16068 0.0
C1118 C 0.97667 0.65534 0.39735 0.0
C1119 C 0.94374 0.64371 0.44525 0.0
N1120 N 0.98216 0.65907 0.23579 0.0
N1121 N 0.94771 0.64458 0.37021 0.0
H1122 H 0.83522 0.98471 0.03414 0.0
H1123 H 0.85628 0.95244 0.61194 0.0
H1124 H 0.85779 0.93383 0.98107 0.0
H1125 H 0.82476 -0.00146 0.66311 0.0
H1126 H 0.85887 0.94651 0.747 0.0
H1127 H 0.83364 0.9913 0.89875 0.0
C1128 C 0.84003 0.975 0.99407 0.0
C1129 C 0.84668 0.95869 0.01896 0.0
C1130 C 0.85136 0.95791 0.72864 0.0
C1131 C 0.84471 0.96607 0.86378 0.0
C1132 C 0.84976 0.96128 0.65124 0.0
C1133 C 0.84016 0.976 0.62547 0.0
C1134 C 0.84341 0.96938 0.78111 0.0
C1135 C 0.83241 0.98714 0.67993 0.0
C1136 C 0.83897 0.97871 0.91671 0.0
C1137 C 0.85241 0.94648 0.96428 0.0
N1138 N 0.83421 0.9836 0.75508 0.0
N1139 N 0.85132 0.95042 0.8893 0.0
H1140 H 0.51046 0.83659 0.50888 0.0
H1141 H 0.54428 0.85517 0.08709 0.0
H1142 H 0.56273 0.85592 0.45672 0.0
H1143 H 0.49538 0.82816 0.13785 0.0
H1144 H 0.5506 0.85697 0.22219 0.0
H1145 H 0.50387 0.83527 0.37346 0.0
C1146 C 0.5205 0.84073 0.46902 0.0
C1147 C 0.53718 0.84644 0.49424 0.0
C1148 C 0.5385 0.85061 0.20375 0.0
C1149 C 0.52978 0.84475 0.33887 0.0
C1150 C 0.53491 0.84946 0.12633 0.0
C1151 C 0.51927 0.84139 0.10047 0.0
C1152 C 0.52636 0.84374 0.25613 0.0
C1153 C 0.5075 0.83464 0.1548 0.0
C1154 C 0.51678 0.83983 0.3916 0.0
C1155 C 0.54978 0.8513 0.43974 0.0
N1156 N 0.51128 0.83598 0.22996 0.0
N1157 N 0.54581 0.85038 0.36467 0.0
H1158 H 0.63483 0.5607 0.95525 0.0
H1159 H 0.66106 0.49048 0.63394 0.0
H1160 H 0.65278 0.50788 1.00485 0.0
H1161 H 0.64069 0.54261 0.58721 0.0
H1162 H 0.65718 0.49605 0.7696 0.0
H1163 H 0.63582 0.55377 0.82005 0.0
C1164 C 0.63895 0.54762 0.93772 0.0
C1165 C 0.64381 0.5349 0.9917 0.0
C1166 C 0.65346 0.50622 0.72955 0.0
C1167 C 0.64498 0.52681 0.83641 0.0
C1168 C 0.65576 0.50308 0.65198 0.0
C1169 C 0.65127 0.5161 0.59856 0.0
C1170 C 0.6467 0.52254 0.75425 0.0
C1171 C 0.6442 0.53209 0.62568 0.0
C1172 C 0.63946 0.54364 0.86042 0.0
C1173 C 0.64878 0.51806 0.96552 0.0
N1174 N 0.64224 0.53487 0.70139 0.0
N1175 N 0.64936 0.51455 0.8898 0.0
H1176 H 0.99714 0.81667 0.40433 0.0
H1177 H 0.95688 0.8794 0.0834 0.0
H1178 H 0.96531 0.86273 0.45058 0.0
H1179 H 0.97772 0.82745 0.03398 0.0
H1180 H 0.96162 0.87407 0.21732 0.0
H1181 H 0.99206 0.82104 0.26811 0.0
C1182 C 0.98911 0.82769 0.38592 0.0
C1183 C 0.9816 0.8393 0.43919 0.0
C1184 C 0.96513 0.86381 0.1772 0.0
C1185 C 0.97576 0.84441 0.28345 0.0
C1186 C 0.96235 0.86681 0.10005 0.0
C1187 C 0.96681 0.85387 0.0459 0.0
C1188 C 0.97258 0.8478 0.20137 0.0
C1189 C 0.97419 0.83796 0.07268 0.0
C1190 C 0.98614 0.83013 0.30821 0.0
C1191 C 0.97117 0.85328 0.41197 0.0
N1192 N 0.97687 0.83541 0.14831 0.0
N1193 N 0.96865 0.85548 0.33625 0.0
H1194 H 0.67712 0.99403 0.90256 0.0
H1195 H 0.61553 0.95167 0.58133 0.0
H1196 H 0.63231 0.96044 0.94859 0.0
H1197 H 0.66665 0.97452 0.53194 0.0
H1198 H 0.62084 0.95648 0.7153 0.0
H1199 H 0.67281 0.98886 0.76629 0.0
C1200 C 0.66639 0.98558 0.88409 0.0
C1201 C 0.65512 0.97761 0.93733 0.0
C1202 C 0.63093 0.96041 0.67515 0.0
C1203 C 0.65006 0.97168 0.7815 0.0
C1204 C 0.62794 0.95761 0.59796 0.0
C1205 C 0.64064 0.96262 0.54377 0.0
C1206 C 0.64668 0.96844 0.69936 0.0
C1207 C 0.65632 0.97055 0.57061 0.0
C1208 C 0.66398 0.98257 0.80634 0.0
C1209 C 0.6415 0.96667 0.91002 0.0
N1210 N 0.65886 0.97325 0.64629 0.0
N1211 N 0.63932 0.96411 0.83427 0.0
H1212 H 0.56223 0.63635 0.09134 0.0
H1213 H 0.49036 0.65851 0.41155 0.0
H1214 H 0.5084 0.65121 0.04168 0.0
H1215 H 0.54285 0.63917 0.45993 0.0
H1216 H 0.49689 0.65668 0.27614 0.0
H1217 H 0.55558 0.63809 0.22672 0.0
C1218 C 0.54901 0.63999 0.10884 0.0
C1219 C 0.53588 0.64363 0.05477 0.0
C1220 C 0.50698 0.65286 0.31646 0.0
C1221 C 0.52811 0.64562 0.21016 0.0
C1222 C 0.50325 0.65386 0.39398 0.0
C1223 C 0.51605 0.64901 0.44787 0.0
C1224 C 0.52367 0.64698 0.29221 0.0
C1225 C 0.53261 0.64331 0.42111 0.0
C1226 C 0.54519 0.64092 0.18624 0.0
C1227 C 0.5189 0.64807 0.08102 0.0
N1228 N 0.53592 0.64244 0.3454 0.0
N1229 N 0.51554 0.649 0.15672 0.0
H1230 H 0.82653 0.51743 0.52164 0.0
H1231 H 0.86177 0.53297 0.94397 0.0
H1232 H 0.87712 0.54095 0.57587 0.0
H1233 H 0.81848 0.49777 0.89277 0.0
H1234 H 0.86557 0.53851 0.80894 0.0
H1235 H 0.82166 0.51224 0.65654 0.0
C1236 C 0.83668 0.52147 0.56118 0.0
C1237 C 0.85235 0.52965 0.53595 0.0
C1238 C 0.85521 0.52958 0.82706 0.0
C1239 C 0.84658 0.52393 0.69157 0.0
C1240 C 0.85292 0.52653 0.90439 0.0
C1241 C 0.83971 0.51494 0.92997 0.0
C1242 C 0.84414 0.5211 0.77437 0.0
C1243 C 0.82889 0.5067 0.87554 0.0
C1244 C 0.83381 0.51853 0.63855 0.0
C1245 C 0.86477 0.53478 0.59131 0.0
N1246 N 0.8313 0.50998 0.8003 0.0
N1247 N 0.86159 0.53187 0.66606 0.0
loop_
_geom_bond_atom_site_label_1
_geom_bond_atom_site_label_2
_geom_bond_distance
_geom_bond_site_symmetry_2
_ccdc_geom_bond_type
C0 C1 1.351 . S
C0 N3 1.368 . S
C0 H5 0.895 1_456 S
C1 C0 1.351 . S
C1 N2 1.373 . S
C1 H29 0.930 1_455 S
N2 C1 1.373 . S
N2 C4 1.340 . S
N3 C0 1.368 . S
N3 C4 1.321 . S
N3 Co6 2.135 1_556 S
C4 N2 1.340 . S
C4 N3 1.321 . S
C4 H28 0.930 . S
H5 C0 0.895 1_654 S
Co6 N3 2.135 1_554 S
Co6 N9 2.121 . S
Co6 O14 2.055 . S
Co6 O17 2.039 . S
Co6 N20 2.094 1_455 S
C7 O8 1.227 . S
C7 O17 1.265 . S
O8 C7 1.227 . S
N9 Co6 2.121 . S
N9 C11 1.375 . S
N9 C12 1.313 . S
C10 C11 1.338 . S
C10 N13 1.377 . S
C10 H30 0.930 . S
C11 N9 1.375 . S
C11 C10 1.338 . S
C11 H15 0.931 . S
C12 N9 1.313 . S
C12 N13 1.344 . S
C12 H16 0.930 . S
N13 C10 1.377 . S
N13 C12 1.344 . S
O14 Co6 2.055 . S
O14 C18 1.253 . S
H15 C11 0.931 . S
H16 C12 0.930 . S
O17 Co6 2.039 . S
O17 C7 1.265 . S
C18 O14 1.253 . S
C18 O19 1.269 . S
O19 C18 1.269 . S
N20 Co6 2.094 1_655 S
N20 C23 1.359 . S
N20 C24 1.382 . S
C21 C22 1.387 . S
C21 C25 1.391 . S
C22 C21 1.387 . S
C22 C23 1.369 . S
C22 H31 0.929 . S
C23 N20 1.359 . S
C23 C22 1.369 . S
C23 H26 0.928 1_655 S
C24 N20 1.382 . S
C24 C25 1.371 . S
C24 H27 0.931 . S
C25 C21 1.391 . S
C25 C24 1.371 . S
C25 H32 0.930 . S
H26 C23 0.928 1_455 S
H27 C24 0.931 . S
H28 C4 0.930 . S
H29 C1 0.930 1_655 S
H30 C10 0.930 . S
H31 C22 0.929 . S
H32 C25 0.930 . S
C33 C34 1.351 . S
C33 N36 1.368 . S
C33 H38 0.895 1_545 S
C34 C33 1.351 . S
C34 N35 1.373 . S
C34 H62 0.930 1_545 S
N35 C34 1.373 . S
N35 C37 1.340 . S
N36 C33 1.368 . S
N36 C37 1.321 . S
N36 Co39 2.135 . S
C37 N35 1.340 . S
C37 N36 1.321 . S
C37 H61 0.930 . S
H38 C33 0.895 1_565 S
Co39 N36 2.135 . S
Co39 N42 2.121 . S
Co39 O47 2.055 . S
Co39 O50 2.039 . S
Co39 N53 2.094 1_545 S
C40 O41 1.227 . S
C40 O50 1.265 . S
O41 C40 1.227 . S
N42 Co39 2.121 . S
N42 C44 1.375 . S
N42 C45 1.313 . S
C43 C44 1.338 . S
C43 N46 1.377 . S
C43 H63 0.930 . S
C44 N42 1.375 . S
C44 C43 1.338 . S
C44 H48 0.931 . S
C45 N42 1.313 . S
C45 N46 1.344 . S
C45 H49 0.930 . S
N46 C43 1.377 . S
N46 C45 1.344 . S
O47 Co39 2.055 . S
O47 C51 1.253 . S
H48 C44 0.931 . S
H49 C45 0.930 . S
O50 Co39 2.039 . S
O50 C40 1.265 . S
C51 O47 1.253 . S
C51 O52 1.269 . S
O52 C51 1.269 . S
N53 Co39 2.094 1_565 S
N53 C56 1.359 . S
N53 C57 1.382 . S
C54 C55 1.387 . S
C54 C58 1.391 . S
C55 C54 1.387 . S
C55 C56 1.369 . S
C55 H64 0.929 . S
C56 N53 1.359 . S
C56 C55 1.369 . S
C56 H59 0.928 1_565 S
C57 N53 1.382 . S
C57 C58 1.371 . S
C57 H60 0.931 . S
C58 C54 1.391 . S
C58 C57 1.371 . S
C58 H65 0.930 . S
H59 C56 0.928 1_545 S
H60 C57 0.931 . S
H61 C37 0.930 . S
H62 C34 0.930 1_565 S
H63 C43 0.930 . S
H64 C55 0.929 . S
H65 C58 0.930 . S
C66 C67 1.351 . S
C66 N69 1.368 . S
C66 H71 0.931 1_556 S
C67 C66 1.351 . S
C67 N68 1.373 . S
C67 H95 0.930 . S
N68 C67 1.373 . S
N68 C70 1.340 . S
N69 C66 1.368 . S
N69 C70 1.321 . S
N69 Co72 2.135 1_556 S
C70 N68 1.340 . S
C70 N69 1.321 . S
C70 H94 0.930 . S
H71 C66 0.931 1_554 S
Co72 N69 2.135 1_554 S
Co72 N75 2.121 . S
Co72 O80 2.055 . S
Co72 O83 2.039 . S
Co72 N86 2.140 . S
C73 O74 1.227 . S
C73 O83 1.265 . S
O74 C73 1.227 . S
N75 Co72 2.121 . S
N75 C77 1.375 . S
N75 C78 1.313 . S
C76 C77 1.338 . S
C76 N79 1.377 . S
C76 H96 0.930 . S
C77 N75 1.375 . S
C77 C76 1.338 . S
C77 H81 0.931 . S
C78 N75 1.313 . S
C78 N79 1.344 . S
C78 H82 0.930 . S
N79 C76 1.377 . S
N79 C78 1.344 . S
O80 Co72 2.055 . S
O80 C84 1.253 . S
H81 C77 0.931 . S
H82 C78 0.930 . S
O83 Co72 2.039 . S
O83 C73 1.265 . S
C84 O80 1.253 . S
C84 O85 1.227 . S
O85 C84 1.227 . S
N86 Co72 2.140 . S
N86 C89 1.346 . S
N86 C90 1.345 . S
C87 C88 1.387 . S
C87 C91 1.391 . S
C88 C87 1.387 . S
C88 C89 1.369 . S
C88 H97 0.929 . S
C89 N86 1.346 . S
C89 C88 1.369 . S
C89 H92 0.928 . S
C90 N86 1.345 . S
C90 C91 1.371 . S
C90 H93 0.931 . S
C91 C87 1.391 . S
C91 C90 1.371 . S
C91 H98 0.930 . S
H92 C89 0.928 . S
H93 C90 0.931 . S
H94 C70 0.930 . S
H95 C67 0.930 . S
H96 C76 0.930 . S
H97 C88 0.929 . S
H98 C91 0.930 . S
C99 C100 1.351 . S
C99 N102 1.368 . S
C99 H104 0.931 . S
C100 C99 1.351 . S
C100 N101 1.373 . S
C100 H128 0.930 . S
N101 C100 1.373 . S
N101 C103 1.340 . S
N102 C99 1.368 . S
N102 C103 1.321 . S
N102 Co105 2.135 . S
C103 N101 1.340 . S
C103 N102 1.321 . S
C103 H127 0.930 . S
H104 C99 0.931 . S
Co105 N102 2.135 . S
Co105 N108 2.121 . S
Co105 O113 2.055 . S
Co105 O116 2.039 . S
Co105 N119 2.140 . S
C106 O107 1.227 . S
C106 O116 1.265 . S
O107 C106 1.227 . S
N108 Co105 2.121 . S
N108 C110 1.375 . S
N108 C111 1.313 . S
C109 C110 1.338 . S
C109 N112 1.377 . S
C109 H129 0.930 . S
C110 N108 1.375 . S
C110 C109 1.338 . S
C110 H114 0.931 . S
C111 N108 1.313 . S
C111 N112 1.344 . S
C111 H115 0.930 . S
N112 C109 1.377 . S
N112 C111 1.344 . S
O113 Co105 2.055 . S
O113 C117 1.253 . S
H114 C110 0.931 . S
H115 C111 0.930 . S
O116 Co105 2.039 . S
O116 C106 1.265 . S
C117 O113 1.253 . S
C117 O118 1.227 . S
O118 C117 1.227 . S
N119 Co105 2.140 . S
N119 C122 1.346 . S
N119 C123 1.345 . S
C120 C121 1.387 . S
C120 C124 1.391 . S
C121 C120 1.387 . S
C121 C122 1.369 . S
C121 H130 0.929 . S
C122 N119 1.346 . S
C122 C121 1.369 . S
C122 H125 0.928 . S
C123 N119 1.345 . S
C123 C124 1.371 . S
C123 H126 0.931 . S
C124 C120 1.391 . S
C124 C123 1.371 . S
C124 H131 0.930 . S
H125 C122 0.928 . S
H126 C123 0.931 . S
H127 C103 0.930 . S
H128 C100 0.930 . S
H129 C109 0.930 . S
H130 C121 0.929 . S
H131 C124 0.930 . S
C132 C133 1.351 . S
C132 N135 1.368 . S
C132 H137 0.895 1_455 S
C133 C132 1.351 . S
C133 N134 1.373 . S
C133 H161 0.930 1_455 S
N134 C133 1.373 . S
N134 C136 1.340 . S
N135 C132 1.368 . S
N135 C136 1.321 . S
N135 Co138 2.135 . S
C136 N134 1.340 . S
C136 N135 1.321 . S
C136 H160 0.930 . S
H137 C132 0.895 1_655 S
Co138 N135 2.135 . S
Co138 N141 2.121 . S
Co138 O146 2.055 . S
Co138 O149 2.039 . S
Co138 N152 2.094 1_455 S
C139 O140 1.227 . S
C139 O149 1.265 . S
O140 C139 1.227 . S
N141 Co138 2.121 . S
N141 C143 1.375 . S
N141 C144 1.313 . S
C142 C143 1.338 . S
C142 N145 1.377 . S
C142 H162 0.930 . S
C143 N141 1.375 . S
C143 C142 1.338 . S
C143 H147 0.931 . S
C144 N141 1.313 . S
C144 N145 1.344 . S
C144 H148 0.930 . S
N145 C142 1.377 . S
N145 C144 1.344 . S
O146 Co138 2.055 . S
O146 C150 1.253 . S
H147 C143 0.931 . S
H148 C144 0.930 . S
O149 Co138 2.039 . S
O149 C139 1.265 . S
C150 O146 1.253 . S
C150 O151 1.269 . S
O151 C150 1.269 . S
N152 Co138 2.094 1_655 S
N152 C155 1.359 . S
N152 C156 1.382 . S
C153 C154 1.387 . S
C153 C157 1.391 . S
C154 C153 1.387 . S
C154 C155 1.369 . S
C154 H163 0.929 . S
C155 N152 1.359 . S
C155 C154 1.369 . S
C155 H158 0.928 1_655 S
C156 N152 1.382 . S
C156 C157 1.371 . S
C156 H159 0.931 . S
C157 C153 1.391 . S
C157 C156 1.371 . S
C157 H164 0.930 . S
H158 C155 0.928 1_455 S
H159 C156 0.931 . S
H160 C136 0.930 . S
H161 C133 0.930 1_655 S
H162 C142 0.930 . S
H163 C154 0.929 . S
H164 C157 0.930 . S
C165 C166 1.351 . S
C165 N168 1.368 . S
C165 H170 0.895 1_544 S
C166 C165 1.351 . S
C166 N167 1.373 . S
C166 H194 0.930 1_545 S
N167 C166 1.373 . S
N167 C169 1.340 . S
N168 C165 1.368 . S
N168 C169 1.321 . S
N168 Co171 2.135 1_554 S
C169 N167 1.340 . S
C169 N168 1.321 . S
C169 H193 0.930 . S
H170 C165 0.895 1_566 S
Co171 N168 2.135 1_556 S
Co171 N174 2.121 . S
Co171 O179 2.055 . S
Co171 O182 2.039 . S
Co171 N185 2.094 1_545 S
C172 O173 1.227 . S
C172 O182 1.265 . S
O173 C172 1.227 . S
N174 Co171 2.121 . S
N174 C176 1.375 . S
N174 C177 1.313 . S
C175 C176 1.338 . S
C175 N178 1.377 . S
C175 H195 0.930 . S
C176 N174 1.375 . S
C176 C175 1.338 . S
C176 H180 0.931 . S
C177 N174 1.313 . S
C177 N178 1.344 . S
C177 H181 0.930 . S
N178 C175 1.377 . S
N178 C177 1.344 . S
O179 Co171 2.055 . S
O179 C183 1.253 . S
H180 C176 0.931 . S
H181 C177 0.930 . S
O182 Co171 2.039 . S
O182 C172 1.265 . S
C183 O179 1.253 . S
C183 O184 1.269 . S
O184 C183 1.269 . S
N185 Co171 2.094 1_565 S
N185 C188 1.359 . S
N185 C189 1.382 . S
C186 C187 1.387 . S
C186 C190 1.391 . S
C187 C186 1.387 . S
C187 C188 1.369 . S
C187 H196 0.929 . S
C188 N185 1.359 . S
C188 C187 1.369 . S
C188 H191 0.928 1_565 S
C189 N185 1.382 . S
C189 C190 1.371 . S
C189 H192 0.931 . S
C190 C186 1.391 . S
C190 C189 1.371 . S
C190 H197 0.930 . S
H191 C188 0.928 1_545 S
H192 C189 0.931 . S
H193 C169 0.930 . S
H194 C166 0.930 1_565 S
H195 C175 0.930 . S
H196 C187 0.929 . S
H197 C190 0.930 . S
C198 C199 1.351 . S
C198 N201 1.368 . S
C198 H203 0.931 . S
C199 C198 1.351 . S
C199 N200 1.373 . S
C199 H227 0.930 . S
N200 C199 1.373 . S
N200 C202 1.340 . S
N201 C198 1.368 . S
N201 C202 1.321 . S
N201 Co204 2.135 . S
C202 N200 1.340 . S
C202 N201 1.321 . S
C202 H226 0.930 . S
H203 C198 0.931 . S
Co204 N201 2.135 . S
Co204 N207 2.121 . S
Co204 O212 2.055 . S
Co204 O215 2.039 . S
Co204 N218 2.140 . S
C205 O206 1.227 . S
C205 O215 1.265 . S
O206 C205 1.227 . S
N207 Co204 2.121 . S
N207 C209 1.375 . S
N207 C210 1.313 . S
C208 C209 1.338 . S
C208 N211 1.377 . S
C208 H228 0.930 . S
C209 N207 1.375 . S
C209 C208 1.338 . S
C209 H213 0.931 . S
C210 N207 1.313 . S
C210 N211 1.344 . S
C210 H214 0.930 . S
N211 C208 1.377 . S
N211 C210 1.344 . S
O212 Co204 2.055 . S
O212 C216 1.253 . S
H213 C209 0.931 . S
H214 C210 0.930 . S
O215 Co204 2.039 . S
O215 C205 1.265 . S
C216 O212 1.253 . S
C216 O217 1.227 . S
O217 C216 1.227 . S
N218 Co204 2.140 . S
N218 C221 1.346 . S
N218 C222 1.345 . S
C219 C220 1.387 . S
C219 C223 1.391 . S
C220 C219 1.387 . S
C220 C221 1.369 . S
C220 H229 0.929 . S
C221 N218 1.346 . S
C221 C220 1.369 . S
C221 H224 0.928 . S
C222 N218 1.345 . S
C222 C223 1.371 . S
C222 H225 0.931 . S
C223 C219 1.391 . S
C223 C222 1.371 . S
C223 H230 0.930 . S
H224 C221 0.928 . S
H225 C222 0.931 . S
H226 C202 0.930 . S
H227 C199 0.930 . S
H228 C208 0.930 . S
H229 C220 0.929 . S
H230 C223 0.930 . S
C231 C232 1.351 . S
C231 N234 1.368 . S
C231 H236 0.931 1_554 S
C232 C231 1.351 . S
C232 N233 1.373 . S
C232 H260 0.930 . S
N233 C232 1.373 . S
N233 C235 1.340 . S
N234 C231 1.368 . S
N234 C235 1.321 . S
N234 Co237 2.135 1_554 S
C235 N233 1.340 . S
C235 N234 1.321 . S
C235 H259 0.930 . S
H236 C231 0.931 1_556 S
Co237 N234 2.135 1_556 S
Co237 N240 2.121 . S
Co237 O245 2.055 . S
Co237 O248 2.039 . S
Co237 N251 2.140 . S
C238 O239 1.227 . S
C238 O248 1.265 . S
O239 C238 1.227 . S
N240 Co237 2.121 . S
N240 C242 1.375 . S
N240 C243 1.313 . S
C241 C242 1.338 . S
C241 N244 1.377 . S
C241 H261 0.930 . S
C242 N240 1.375 . S
C242 C241 1.338 . S
C242 H246 0.931 . S
C243 N240 1.313 . S
C243 N244 1.344 . S
C243 H247 0.930 . S
N244 C241 1.377 . S
N244 C243 1.344 . S
O245 Co237 2.055 . S
O245 C249 1.253 . S
H246 C242 0.931 . S
H247 C243 0.930 . S
O248 Co237 2.039 . S
O248 C238 1.265 . S
C249 O245 1.253 . S
C249 O250 1.227 . S
O250 C249 1.227 . S
N251 Co237 2.140 . S
N251 C254 1.346 . S
N251 C255 1.345 . S
C252 C253 1.387 . S
C252 C256 1.391 . S
C253 C252 1.387 . S
C253 C254 1.369 . S
C253 H262 0.929 . S
C254 N251 1.346 . S
C254 C253 1.369 . S
C254 H257 0.928 . S
C255 N251 1.345 . S
C255 C256 1.371 . S
C255 H258 0.931 . S
C256 C252 1.391 . S
C256 C255 1.371 . S
C256 H263 0.930 . S
H257 C254 0.928 . S
H258 C255 0.931 . S
H259 C235 0.930 . S
H260 C232 0.930 . S
H261 C241 0.930 . S
H262 C253 0.929 . S
H263 C256 0.930 . S
C264 C265 1.351 . S
C264 N267 1.368 . S
C264 H269 0.895 1_654 S
C265 C264 1.351 . S
C265 N266 1.373 . S
C265 H293 0.930 1_655 S
N266 C265 1.373 . S
N266 C268 1.340 . S
N267 C264 1.368 . S
N267 C268 1.321 . S
N267 Co270 2.135 1_554 S
C268 N266 1.340 . S
C268 N267 1.321 . S
C268 H292 0.930 . S
H269 C264 0.895 1_456 S
Co270 N267 2.135 1_556 S
Co270 N273 2.121 . S
Co270 O278 2.055 . S
Co270 O281 2.039 . S
Co270 N284 2.094 1_655 S
C271 O272 1.227 . S
C271 O281 1.265 . S
O272 C271 1.227 . S
N273 Co270 2.121 . S
N273 C275 1.375 . S
N273 C276 1.313 . S
C274 C275 1.338 . S
C274 N277 1.377 . S
C274 H294 0.930 . S
C275 N273 1.375 . S
C275 C274 1.338 . S
C275 H279 0.931 . S
C276 N273 1.313 . S
C276 N277 1.344 . S
C276 H280 0.930 . S
N277 C274 1.377 . S
N277 C276 1.344 . S
O278 Co270 2.055 . S
O278 C282 1.253 . S
H279 C275 0.931 . S
H280 C276 0.930 . S
O281 Co270 2.039 . S
O281 C271 1.265 . S
C282 O278 1.253 . S
C282 O283 1.269 . S
O283 C282 1.269 . S
N284 Co270 2.094 1_455 S
N284 C287 1.359 . S
N284 C288 1.382 . S
C285 C286 1.387 . S
C285 C289 1.391 . S
C286 C285 1.387 . S
C286 C287 1.369 . S
C286 H295 0.929 . S
C287 N284 1.359 . S
C287 C286 1.369 . S
C287 H290 0.928 1_455 S
C288 N284 1.382 . S
C288 C289 1.371 . S
C288 H291 0.931 . S
C289 C285 1.391 . S
C289 C288 1.371 . S
C289 H296 0.930 . S
H290 C287 0.928 1_655 S
H291 C288 0.931 . S
H292 C268 0.930 . S
H293 C265 0.930 1_455 S
H294 C274 0.930 . S
H295 C286 0.929 . S
H296 C289 0.930 . S
C297 C298 1.351 . S
C297 N300 1.368 . S
C297 H302 0.895 1_565 S
C298 C297 1.351 . S
C298 N299 1.373 . S
C298 H326 0.930 1_565 S
N299 C298 1.373 . S
N299 C301 1.340 . S
N300 C297 1.368 . S
N300 C301 1.321 . S
N300 Co303 2.135 . S
C301 N299 1.340 . S
C301 N300 1.321 . S
C301 H325 0.930 . S
H302 C297 0.895 1_545 S
Co303 N300 2.135 . S
Co303 N306 2.121 . S
Co303 O311 2.055 . S
Co303 O314 2.039 . S
Co303 N317 2.094 1_565 S
C304 O305 1.227 . S
C304 O314 1.265 . S
O305 C304 1.227 . S
N306 Co303 2.121 . S
N306 C308 1.375 . S
N306 C309 1.313 . S
C307 C308 1.338 . S
C307 N310 1.377 . S
C307 H327 0.930 . S
C308 N306 1.375 . S
C308 C307 1.338 . S
C308 H312 0.931 . S
C309 N306 1.313 . S
C309 N310 1.344 . S
C309 H313 0.930 . S
N310 C307 1.377 . S
N310 C309 1.344 . S
O311 Co303 2.055 . S
O311 C315 1.253 . S
H312 C308 0.931 . S
H313 C309 0.930 . S
O314 Co303 2.039 . S
O314 C304 1.265 . S
C315 O311 1.253 . S
C315 O316 1.269 . S
O316 C315 1.269 . S
N317 Co303 2.094 1_545 S
N317 C320 1.359 . S
N317 C321 1.382 . S
C318 C319 1.387 . S
C318 C322 1.391 . S
C319 C318 1.387 . S
C319 C320 1.369 . S
C319 H328 0.929 . S
C320 N317 1.359 . S
C320 C319 1.369 . S
C320 H323 0.928 1_545 S
C321 N317 1.382 . S
C321 C322 1.371 . S
C321 H324 0.931 . S
C322 C318 1.391 . S
C322 C321 1.371 . S
C322 H329 0.930 . S
H323 C320 0.928 1_565 S
H324 C321 0.931 . S
H325 C301 0.930 . S
H326 C298 0.930 1_545 S
H327 C307 0.930 . S
H328 C319 0.929 . S
H329 C322 0.930 . S
C330 C331 1.351 . S
C330 N333 1.368 . S
C330 H335 0.931 1_554 S
C331 C330 1.351 . S
C331 N332 1.373 . S
C331 H359 0.930 . S
N332 C331 1.373 . S
N332 C334 1.340 . S
N333 C330 1.368 . S
N333 C334 1.321 . S
N333 Co336 2.135 1_554 S
C334 N332 1.340 . S
C334 N333 1.321 . S
C334 H358 0.930 . S
H335 C330 0.931 1_556 S
Co336 N333 2.135 1_556 S
Co336 N339 2.121 . S
Co336 O344 2.055 . S
Co336 O347 2.039 . S
Co336 N350 2.140 . S
C337 O338 1.227 . S
C337 O347 1.265 . S
O338 C337 1.227 . S
N339 Co336 2.121 . S
N339 C341 1.375 . S
N339 C342 1.313 . S
C340 C341 1.338 . S
C340 N343 1.377 . S
C340 H360 0.930 . S
C341 N339 1.375 . S
C341 C340 1.338 . S
C341 H345 0.931 . S
C342 N339 1.313 . S
C342 N343 1.344 . S
C342 H346 0.930 . S
N343 C340 1.377 . S
N343 C342 1.344 . S
O344 Co336 2.055 . S
O344 C348 1.253 . S
H345 C341 0.931 . S
H346 C342 0.930 . S
O347 Co336 2.039 . S
O347 C337 1.265 . S
C348 O344 1.253 . S
C348 O349 1.227 . S
O349 C348 1.227 . S
N350 Co336 2.140 . S
N350 C353 1.346 . S
N350 C354 1.345 . S
C351 C352 1.387 . S
C351 C355 1.391 . S
C352 C351 1.387 . S
C352 C353 1.369 . S
C352 H361 0.929 . S
C353 N350 1.346 . S
C353 C352 1.369 . S
C353 H356 0.928 . S
C354 N350 1.345 . S
C354 C355 1.371 . S
C354 H357 0.931 . S
C355 C351 1.391 . S
C355 C354 1.371 . S
C355 H362 0.930 . S
H356 C353 0.928 . S
H357 C354 0.931 . S
H358 C334 0.930 . S
H359 C331 0.930 . S
H360 C340 0.930 . S
H361 C352 0.929 . S
H362 C355 0.930 . S
C363 C364 1.351 . S
C363 N366 1.368 . S
C363 H368 0.931 . S
C364 C363 1.351 . S
C364 N365 1.373 . S
C364 H392 0.930 . S
N365 C364 1.373 . S
N365 C367 1.340 . S
N366 C363 1.368 . S
N366 C367 1.321 . S
N366 Co369 2.135 . S
C367 N365 1.340 . S
C367 N366 1.321 . S
C367 H391 0.930 . S
H368 C363 0.931 . S
Co369 N366 2.135 . S
Co369 N372 2.121 . S
Co369 O377 2.055 . S
Co369 O380 2.039 . S
Co369 N383 2.140 . S
C370 O371 1.227 . S
C370 O380 1.265 . S
O371 C370 1.227 . S
N372 Co369 2.121 . S
N372 C374 1.375 . S
N372 C375 1.313 . S
C373 C374 1.338 . S
C373 N376 1.377 . S
C373 H393 0.930 . S
C374 N372 1.375 . S
C374 C373 1.338 . S
C374 H378 0.931 . S
C375 N372 1.313 . S
C375 N376 1.344 . S
C375 H379 0.930 . S
N376 C373 1.377 . S
N376 C375 1.344 . S
O377 Co369 2.055 . S
O377 C381 1.253 . S
H378 C374 0.931 . S
H379 C375 0.930 . S
O380 Co369 2.039 . S
O380 C370 1.265 . S
C381 O377 1.253 . S
C381 O382 1.227 . S
O382 C381 1.227 . S
N383 Co369 2.140 . S
N383 C386 1.346 . S
N383 C387 1.345 . S
C384 C385 1.387 . S
C384 C388 1.391 . S
C385 C384 1.387 . S
C385 C386 1.369 . S
C385 H394 0.929 . S
C386 N383 1.346 . S
C386 C385 1.369 . S
C386 H389 0.928 . S
C387 N383 1.345 . S
C387 C388 1.371 . S
C387 H390 0.931 . S
C388 C384 1.391 . S
C388 C387 1.371 . S
C388 H395 0.930 . S
H389 C386 0.928 . S
H390 C387 0.931 . S
H391 C367 0.930 . S
H392 C364 0.930 . S
H393 C373 0.930 . S
H394 C385 0.929 . S
H395 C388 0.930 . S
C396 C397 1.351 . S
C396 N399 1.368 . S
C396 H401 0.895 1_655 S
C397 C396 1.351 . S
C397 N398 1.373 . S
C397 H425 0.930 1_655 S
N398 C397 1.373 . S
N398 C400 1.340 . S
N399 C396 1.368 . S
N399 C400 1.321 . S
N399 Co402 2.135 . S
C400 N398 1.340 . S
C400 N399 1.321 . S
C400 H424 0.930 . S
H401 C396 0.895 1_455 S
Co402 N399 2.135 . S
Co402 N405 2.121 . S
Co402 O410 2.055 . S
Co402 O413 2.039 . S
Co402 N416 2.094 1_655 S
C403 O404 1.227 . S
C403 O413 1.265 . S
O404 C403 1.227 . S
N405 Co402 2.121 . S
N405 C407 1.375 . S
N405 C408 1.313 . S
C406 C407 1.338 . S
C406 N409 1.377 . S
C406 H426 0.930 . S
C407 N405 1.375 . S
C407 C406 1.338 . S
C407 H411 0.931 . S
C408 N405 1.313 . S
C408 N409 1.344 . S
C408 H412 0.930 . S
N409 C406 1.377 . S
N409 C408 1.344 . S
O410 Co402 2.055 . S
O410 C414 1.253 . S
H411 C407 0.931 . S
H412 C408 0.930 . S
O413 Co402 2.039 . S
O413 C403 1.265 . S
C414 O410 1.253 . S
C414 O415 1.269 . S
O415 C414 1.269 . S
N416 Co402 2.094 1_455 S
N416 C419 1.359 . S
N416 C420 1.382 . S
C417 C418 1.387 . S
C417 C421 1.391 . S
C418 C417 1.387 . S
C418 C419 1.369 . S
C418 H427 0.929 . S
C419 N416 1.359 . S
C419 C418 1.369 . S
C419 H422 0.928 1_455 S
C420 N416 1.382 . S
C420 C421 1.371 . S
C420 H423 0.931 . S
C421 C417 1.391 . S
C421 C420 1.371 . S
C421 H428 0.930 . S
H422 C419 0.928 1_655 S
H423 C420 0.931 . S
H424 C400 0.930 . S
H425 C397 0.930 1_455 S
H426 C406 0.930 . S
H427 C418 0.929 . S
H428 C421 0.930 . S
C429 C430 1.351 . S
C429 N432 1.368 . S
C429 H434 0.895 1_566 S
C430 C429 1.351 . S
C430 N431 1.373 . S
C430 H458 0.930 1_565 S
N431 C430 1.373 . S
N431 C433 1.340 . S
N432 C429 1.368 . S
N432 C433 1.321 . S
N432 Co435 2.135 1_556 S
C433 N431 1.340 . S
C433 N432 1.321 . S
C433 H457 0.930 . S
H434 C429 0.895 1_544 S
Co435 N432 2.135 1_554 S
Co435 N438 2.121 . S
Co435 O443 2.055 . S
Co435 O446 2.039 . S
Co435 N449 2.094 1_565 S
C436 O437 1.227 . S
C436 O446 1.265 . S
O437 C436 1.227 . S
N438 Co435 2.121 . S
N438 C440 1.375 . S
N438 C441 1.313 . S
C439 C440 1.338 . S
C439 N442 1.377 . S
C439 H459 0.930 . S
C440 N438 1.375 . S
C440 C439 1.338 . S
C440 H444 0.931 . S
C441 N438 1.313 . S
C441 N442 1.344 . S
C441 H445 0.930 . S
N442 C439 1.377 . S
N442 C441 1.344 . S
O443 Co435 2.055 . S
O443 C447 1.253 . S
H444 C440 0.931 . S
H445 C441 0.930 . S
O446 Co435 2.039 . S
O446 C436 1.265 . S
C447 O443 1.253 . S
C447 O448 1.269 . S
O448 C447 1.269 . S
N449 Co435 2.094 1_545 S
N449 C452 1.359 . S
N449 C453 1.382 . S
C450 C451 1.387 . S
C450 C454 1.391 . S
C451 C450 1.387 . S
C451 C452 1.369 . S
C451 H460 0.929 . S
C452 N449 1.359 . S
C452 C451 1.369 . S
C452 H455 0.928 1_545 S
C453 N449 1.382 . S
C453 C454 1.371 . S
C453 H456 0.931 . S
C454 C450 1.391 . S
C454 C453 1.371 . S
C454 H461 0.930 . S
H455 C452 0.928 1_565 S
H456 C453 0.931 . S
H457 C433 0.930 . S
H458 C430 0.930 1_545 S
H459 C439 0.930 . S
H460 C451 0.929 . S
H461 C454 0.930 . S
C462 C463 1.351 . S
C462 N465 1.368 . S
C462 H467 0.931 . S
C463 C462 1.351 . S
C463 N464 1.373 . S
C463 H491 0.930 . S
N464 C463 1.373 . S
N464 C466 1.340 . S
N465 C462 1.368 . S
N465 C466 1.321 . S
N465 Co468 2.135 . S
C466 N464 1.340 . S
C466 N465 1.321 . S
C466 H490 0.930 . S
H467 C462 0.931 . S
Co468 N465 2.135 . S
Co468 N471 2.121 . S
Co468 O476 2.055 . S
Co468 O479 2.039 . S
Co468 N482 2.140 . S
C469 O470 1.227 . S
C469 O479 1.265 . S
O470 C469 1.227 . S
N471 Co468 2.121 . S
N471 C473 1.375 . S
N471 C474 1.313 . S
C472 C473 1.338 . S
C472 N475 1.377 . S
C472 H492 0.930 . S
C473 N471 1.375 . S
C473 C472 1.338 . S
C473 H477 0.931 . S
C474 N471 1.313 . S
C474 N475 1.344 . S
C474 H478 0.930 . S
N475 C472 1.377 . S
N475 C474 1.344 . S
O476 Co468 2.055 . S
O476 C480 1.253 . S
H477 C473 0.931 . S
H478 C474 0.930 . S
O479 Co468 2.039 . S
O479 C469 1.265 . S
C480 O476 1.253 . S
C480 O481 1.227 . S
O481 C480 1.227 . S
N482 Co468 2.140 . S
N482 C485 1.346 . S
N482 C486 1.345 . S
C483 C484 1.387 . S
C483 C487 1.391 . S
C484 C483 1.387 . S
C484 C485 1.369 . S
C484 H493 0.929 . S
C485 N482 1.346 . S
C485 C484 1.369 . S
C485 H488 0.928 . S
C486 N482 1.345 . S
C486 C487 1.371 . S
C486 H489 0.931 . S
C487 C483 1.391 . S
C487 C486 1.371 . S
C487 H494 0.930 . S
H488 C485 0.928 . S
H489 C486 0.931 . S
H490 C466 0.930 . S
H491 C463 0.930 . S
H492 C472 0.930 . S
H493 C484 0.929 . S
H494 C487 0.930 . S
C495 C496 1.351 . S
C495 N498 1.368 . S
C495 H500 0.931 1_556 S
C496 C495 1.351 . S
C496 N497 1.373 . S
C496 H524 0.930 . S
N497 C496 1.373 . S
N497 C499 1.340 . S
N498 C495 1.368 . S
N498 C499 1.321 . S
N498 Co501 2.135 1_556 S
C499 N497 1.340 . S
C499 N498 1.321 . S
C499 H523 0.930 . S
H500 C495 0.931 1_554 S
Co501 N498 2.135 1_554 S
Co501 N504 2.121 . S
Co501 O509 2.055 . S
Co501 O512 2.039 . S
Co501 N515 2.140 . S
C502 O503 1.227 . S
C502 O512 1.265 . S
O503 C502 1.227 . S
N504 Co501 2.121 . S
N504 C506 1.375 . S
N504 C507 1.313 . S
C505 C506 1.338 . S
C505 N508 1.377 . S
C505 H525 0.930 . S
C506 N504 1.375 . S
C506 C505 1.338 . S
C506 H510 0.931 . S
C507 N504 1.313 . S
C507 N508 1.344 . S
C507 H511 0.930 . S
N508 C505 1.377 . S
N508 C507 1.344 . S
O509 Co501 2.055 . S
O509 C513 1.253 . S
H510 C506 0.931 . S
H511 C507 0.930 . S
O512 Co501 2.039 . S
O512 C502 1.265 . S
C513 O509 1.253 . S
C513 O514 1.227 . S
O514 C513 1.227 . S
N515 Co501 2.140 . S
N515 C518 1.346 . S
N515 C519 1.345 . S
C516 C517 1.387 . S
C516 C520 1.391 . S
C517 C516 1.387 . S
C517 C518 1.369 . S
C517 H526 0.929 . S
C518 N515 1.346 . S
C518 C517 1.369 . S
C518 H521 0.928 . S
C519 N515 1.345 . S
C519 C520 1.371 . S
C519 H522 0.931 . S
C520 C516 1.391 . S
C520 C519 1.371 . S
C520 H527 0.930 . S
H521 C518 0.928 . S
H522 C519 0.931 . S
H523 C499 0.930 . S
H524 C496 0.930 . S
H525 C505 0.930 . S
H526 C517 0.929 . S
H527 C520 0.930 . S
H528 C534 0.930 . S
H529 C538 0.930 . S
H530 C543 0.929 . S
H531 C541 0.929 . S
H532 C536 0.929 . S
H533 C542 0.929 . S
C534 H528 0.930 . S
C534 C535 1.367 . S
C534 C542 1.378 . S
C535 C534 1.367 . S
C535 C543 1.433 . S
C536 H532 0.929 . S
C536 C538 1.378 . S
C536 C540 1.350 . S
C537 C540 1.463 . S
C537 C542 1.350 . S
C537 N545 1.427 . S
C538 H529 0.930 . S
C538 C536 1.378 . S
C538 C539 1.367 . S
C539 C538 1.367 . S
C539 C541 1.433 . S
C540 C536 1.350 . S
C540 C537 1.463 . S
C540 N544 1.427 . S
C541 H531 0.929 . S
C541 C539 1.433 . S
C541 N544 1.384 . S
C542 H533 0.929 . S
C542 C534 1.378 . S
C542 C537 1.350 . S
C543 H530 0.929 . S
C543 C535 1.433 . S
C543 N545 1.384 . S
N544 C540 1.427 . S
N544 C541 1.384 . S
N545 C537 1.427 . S
N545 C543 1.384 . S
H546 C552 0.930 . S
H547 C556 0.930 . S
H548 C561 0.929 . S
H549 C559 0.929 . S
H550 C554 0.929 . S
H551 C560 0.929 . S
C552 H546 0.930 . S
C552 C553 1.367 . S
C552 C560 1.378 . S
C553 C552 1.367 . S
C553 C561 1.433 . S
C554 H550 0.929 . S
C554 C556 1.378 . S
C554 C558 1.350 . S
C555 C558 1.463 . S
C555 C560 1.350 . S
C555 N563 1.427 . S
C556 H547 0.930 . S
C556 C554 1.378 . S
C556 C557 1.367 . S
C557 C556 1.367 . S
C557 C559 1.433 . S
C558 C554 1.350 . S
C558 C555 1.463 . S
C558 N562 1.427 . S
C559 H549 0.929 . S
C559 C557 1.433 . S
C559 N562 1.384 . S
C560 H551 0.929 . S
C560 C552 1.378 . S
C560 C555 1.350 . S
C561 H548 0.929 . S
C561 C553 1.433 . S
C561 N563 1.384 . S
N562 C558 1.427 . S
N562 C559 1.384 . S
N563 C555 1.427 . S
N563 C561 1.384 . S
H564 C570 0.930 . S
H565 C574 0.930 . S
H566 C579 0.929 . S
H567 C577 0.929 . S
H568 C572 0.929 . S
H569 C578 0.929 . S
C570 H564 0.930 . S
C570 C571 1.367 . S
C570 C578 1.378 . S
C571 C570 1.367 . S
C571 C579 1.433 . S
C572 H568 0.929 . S
C572 C574 1.378 . S
C572 C576 1.350 . S
C573 C576 1.463 . S
C573 C578 1.350 . S
C573 N581 1.427 . S
C574 H565 0.930 . S
C574 C572 1.378 . S
C574 C575 1.367 . S
C575 C574 1.367 . S
C575 C577 1.433 . S
C576 C572 1.350 . S
C576 C573 1.463 . S
C576 N580 1.427 . S
C577 H567 0.929 . S
C577 C575 1.433 . S
C577 N580 1.384 . S
C578 H569 0.929 . S
C578 C570 1.378 . S
C578 C573 1.350 . S
C579 H566 0.929 . S
C579 C571 1.433 . S
C579 N581 1.384 . S
N580 C576 1.427 . S
N580 C577 1.384 . S
N581 C573 1.427 . S
N581 C579 1.384 . S
H582 C588 0.930 . S
H583 C592 0.930 . S
H584 C597 0.929 . S
H585 C595 0.929 . S
H586 C590 0.929 . S
H587 C596 0.929 . S
C588 H582 0.930 . S
C588 C589 1.367 . S
C588 C596 1.378 . S
C589 C588 1.367 . S
C589 C597 1.433 . S
C590 H586 0.929 . S
C590 C592 1.378 . S
C590 C594 1.350 . S
C591 C594 1.463 . S
C591 C596 1.350 . S
C591 N599 1.427 . S
C592 H583 0.930 . S
C592 C590 1.378 . S
C592 C593 1.367 . S
C593 C592 1.367 . S
C593 C595 1.433 . S
C594 C590 1.350 . S
C594 C591 1.463 . S
C594 N598 1.427 . S
C595 H585 0.929 . S
C595 C593 1.433 . S
C595 N598 1.384 . S
C596 H587 0.929 . S
C596 C588 1.378 . S
C596 C591 1.350 . S
C597 H584 0.929 . S
C597 C589 1.433 . S
C597 N599 1.384 . S
N598 C594 1.427 . S
N598 C595 1.384 . S
N599 C591 1.427 . S
N599 C597 1.384 . S
H600 C606 0.930 . S
H601 C610 0.930 . S
H602 C615 0.929 . S
H603 C613 0.929 . S
H604 C608 0.929 . S
H605 C614 0.929 . S
C606 H600 0.930 . S
C606 C607 1.367 . S
C606 C614 1.378 . S
C607 C606 1.367 . S
C607 C615 1.433 . S
C608 H604 0.929 . S
C608 C610 1.378 . S
C608 C612 1.350 . S
C609 C612 1.463 . S
C609 C614 1.350 . S
C609 N617 1.427 . S
C610 H601 0.930 . S
C610 C608 1.378 . S
C610 C611 1.367 . S
C611 C610 1.367 . S
C611 C613 1.433 . S
C612 C608 1.350 . S
C612 C609 1.463 . S
C612 N616 1.427 . S
C613 H603 0.929 . S
C613 C611 1.433 . S
C613 N616 1.384 . S
C614 H605 0.929 . S
C614 C606 1.378 . S
C614 C609 1.350 . S
C615 H602 0.929 . S
C615 C607 1.433 . S
C615 N617 1.384 . S
N616 C612 1.427 . S
N616 C613 1.384 . S
N617 C609 1.427 . S
N617 C615 1.384 . S
H618 C624 0.918 1_554 S
H619 C628 0.930 . S
H620 C633 0.929 . S
H621 C631 0.929 1_554 S
H622 C626 0.929 . S
H623 C632 0.917 1_554 S
C624 H618 0.918 1_556 S
C624 C625 1.367 . S
C624 C632 1.378 . S
C625 C624 1.367 . S
C625 C633 1.433 . S
C626 H622 0.929 . S
C626 C628 1.378 . S
C626 C630 1.350 . S
C627 C630 1.463 . S
C627 C632 1.350 . S
C627 N635 1.427 . S
C628 H619 0.930 . S
C628 C626 1.378 . S
C628 C629 1.367 . S
C629 C628 1.367 . S
C629 C631 1.433 . S
C630 C626 1.350 . S
C630 C627 1.463 . S
C630 N634 1.427 . S
C631 H621 0.929 1_556 S
C631 C629 1.433 . S
C631 N634 1.384 . S
C632 H623 0.917 1_556 S
C632 C624 1.378 . S
C632 C627 1.350 . S
C633 H620 0.929 . S
C633 C625 1.433 . S
C633 N635 1.384 . S
N634 C630 1.427 . S
N634 C631 1.384 . S
N635 C627 1.427 . S
N635 C633 1.384 . S
H636 C642 0.930 . S
H637 C646 0.930 . S
H638 C651 0.929 . S
H639 C649 0.929 . S
H640 C644 0.929 . S
H641 C650 0.929 . S
C642 H636 0.930 . S
C642 C643 1.367 . S
C642 C650 1.378 . S
C643 C642 1.367 . S
C643 C651 1.433 . S
C644 H640 0.929 . S
C644 C646 1.378 . S
C644 C648 1.350 . S
C645 C648 1.463 . S
C645 C650 1.350 . S
C645 N653 1.427 . S
C646 H637 0.930 . S
C646 C644 1.378 . S
C646 C647 1.367 . S
C647 C646 1.367 . S
C647 C649 1.433 . S
C648 C644 1.350 . S
C648 C645 1.463 . S
C648 N652 1.427 . S
C649 H639 0.929 . S
C649 C647 1.433 . S
C649 N652 1.384 . S
C650 H641 0.929 . S
C650 C642 1.378 . S
C650 C645 1.350 . S
C651 H638 0.929 . S
C651 C643 1.433 . S
C651 N653 1.384 . S
N652 C648 1.427 . S
N652 C649 1.384 . S
N653 C645 1.427 . S
N653 C651 1.384 . S
H654 C660 0.930 . S
H655 C664 0.930 . S
H656 C669 0.929 . S
H657 C667 0.929 . S
H658 C662 0.929 . S
H659 C668 0.929 . S
C660 H654 0.930 . S
C660 C661 1.367 . S
C660 C668 1.378 . S
C661 C660 1.367 . S
C661 C669 1.433 . S
C662 H658 0.929 . S
C662 C664 1.378 . S
C662 C666 1.350 . S
C663 C666 1.463 . S
C663 C668 1.350 . S
C663 N671 1.427 . S
C664 H655 0.930 . S
C664 C662 1.378 . S
C664 C665 1.367 . S
C665 C664 1.367 . S
C665 C667 1.433 . S
C666 C662 1.350 . S
C666 C663 1.463 . S
C666 N670 1.427 . S
C667 H657 0.929 . S
C667 C665 1.433 . S
C667 N670 1.384 . S
C668 H659 0.929 . S
C668 C660 1.378 . S
C668 C663 1.350 . S
C669 H656 0.929 . S
C669 C661 1.433 . S
C669 N671 1.384 . S
N670 C666 1.427 . S
N670 C667 1.384 . S
N671 C663 1.427 . S
N671 C669 1.384 . S
H672 C678 0.930 . S
H673 C682 0.930 . S
H674 C687 0.929 . S
H675 C685 0.929 . S
H676 C680 0.929 . S
H677 C686 0.929 . S
C678 H672 0.930 . S
C678 C679 1.367 . S
C678 C686 1.378 . S
C679 C678 1.367 . S
C679 C687 1.433 . S
C680 H676 0.929 . S
C680 C682 1.378 . S
C680 C684 1.350 . S
C681 C684 1.463 1_554 S
C681 C686 1.350 . S
C681 N689 1.427 . S
C682 H673 0.930 . S
C682 C680 1.378 . S
C682 C683 1.367 . S
C683 C682 1.367 . S
C683 C685 1.433 . S
C684 C680 1.350 . S
C684 C681 1.463 1_556 S
C684 N688 1.427 . S
C685 H675 0.929 . S
C685 C683 1.433 . S
C685 N688 1.384 . S
C686 H677 0.929 . S
C686 C678 1.378 . S
C686 C681 1.350 . S
C687 H674 0.929 . S
C687 C679 1.433 . S
C687 N689 1.384 . S
N688 C684 1.427 . S
N688 C685 1.384 . S
N689 C681 1.427 . S
N689 C687 1.384 . S
H690 C696 0.930 . S
H691 C700 0.930 . S
H692 C705 0.929 . S
H693 C703 0.929 . S
H694 C698 0.929 . S
H695 C704 0.929 . S
C696 H690 0.930 . S
C696 C697 1.367 . S
C696 C704 1.378 . S
C697 C696 1.367 . S
C697 C705 1.433 . S
C698 H694 0.929 . S
C698 C700 1.378 . S
C698 C702 1.350 . S
C699 C702 1.463 . S
C699 C704 1.350 . S
C699 N707 1.427 . S
C700 H691 0.930 . S
C700 C698 1.378 . S
C700 C701 1.367 . S
C701 C700 1.367 . S
C701 C703 1.433 . S
C702 C698 1.350 . S
C702 C699 1.463 . S
C702 N706 1.427 . S
C703 H693 0.929 . S
C703 C701 1.433 . S
C703 N706 1.384 . S
C704 H695 0.929 . S
C704 C696 1.378 . S
C704 C699 1.350 . S
C705 H692 0.929 . S
C705 C697 1.433 . S
C705 N707 1.384 . S
N706 C702 1.427 . S
N706 C703 1.384 . S
N707 C699 1.427 . S
N707 C705 1.384 . S
H708 C714 0.930 . S
H709 C718 0.930 . S
H710 C723 0.929 . S
H711 C721 0.929 . S
H712 C716 0.929 . S
H713 C722 0.929 . S
C714 H708 0.930 . S
C714 C715 1.367 . S
C714 C722 1.378 . S
C715 C714 1.367 . S
C715 C723 1.433 1_554 S
C716 H712 0.929 . S
C716 C718 1.378 . S
C716 C720 1.350 . S
C717 C720 1.463 1_554 S
C717 C722 1.350 . S
C717 N725 1.427 1_554 S
C718 H709 0.930 . S
C718 C716 1.378 . S
C718 C719 1.367 . S
C719 C718 1.367 . S
C719 C721 1.433 1_556 S
C720 C716 1.350 . S
C720 C717 1.463 1_556 S
C720 N724 1.427 1_556 S
C721 H711 0.929 . S
C721 C719 1.433 1_554 S
C721 N724 1.384 . S
C722 H713 0.929 . S
C722 C714 1.378 . S
C722 C717 1.350 . S
C723 H710 0.929 . S
C723 C715 1.433 1_556 S
C723 N725 1.384 . S
N724 C720 1.427 1_554 S
N724 C721 1.384 . S
N725 C717 1.427 1_556 S
N725 C723 1.384 . S
H726 C732 0.930 . S
H727 C736 0.930 . S
H728 C741 0.929 . S
H729 C739 0.929 . S
H730 C734 0.929 . S
H731 C740 0.929 . S
C732 H726 0.930 . S
C732 C733 1.367 . S
C732 C740 1.378 . S
C733 C732 1.367 . S
C733 C741 1.433 . S
C734 H730 0.929 . S
C734 C736 1.378 . S
C734 C738 1.350 . S
C735 C738 1.463 . S
C735 C740 1.350 . S
C735 N743 1.427 . S
C736 H727 0.930 . S
C736 C734 1.378 . S
C736 C737 1.367 . S
C737 C736 1.367 . S
C737 C739 1.433 . S
C738 C734 1.350 . S
C738 C735 1.463 . S
C738 N742 1.427 . S
C739 H729 0.929 . S
C739 C737 1.433 . S
C739 N742 1.384 . S
C740 H731 0.929 . S
C740 C732 1.378 . S
C740 C735 1.350 . S
C741 H728 0.929 . S
C741 C733 1.433 . S
C741 N743 1.384 . S
N742 C738 1.427 . S
N742 C739 1.384 . S
N743 C735 1.427 . S
N743 C741 1.384 . S
H744 C750 0.930 . S
H745 C754 0.930 . S
H746 C759 0.929 . S
H747 C757 0.929 . S
H748 C752 0.929 . S
H749 C758 0.929 . S
C750 H744 0.930 . S
C750 C751 1.367 . S
C750 C758 1.378 . S
C751 C750 1.367 . S
C751 C759 1.433 1_554 S
C752 H748 0.929 . S
C752 C754 1.378 . S
C752 C756 1.350 . S
C753 C756 1.463 1_554 S
C753 C758 1.350 . S
C753 N761 1.427 1_554 S
C754 H745 0.930 . S
C754 C752 1.378 . S
C754 C755 1.367 . S
C755 C754 1.367 . S
C755 C757 1.433 1_556 S
C756 C752 1.350 . S
C756 C753 1.463 1_556 S
C756 N760 1.427 1_556 S
C757 H747 0.929 . S
C757 C755 1.433 1_554 S
C757 N760 1.384 . S
C758 H749 0.929 . S
C758 C750 1.378 . S
C758 C753 1.350 . S
C759 H746 0.929 . S
C759 C751 1.433 1_556 S
C759 N761 1.384 . S
N760 C756 1.427 1_554 S
N760 C757 1.384 . S
N761 C753 1.427 1_556 S
N761 C759 1.384 . S
H762 C768 0.930 . S
H763 C772 0.930 . S
H764 C777 0.929 . S
H765 C775 0.929 . S
H766 C770 0.929 . S
H767 C776 0.929 . S
C768 H762 0.930 . S
C768 C769 1.367 . S
C768 C776 1.378 . S
C769 C768 1.367 . S
C769 C777 1.433 . S
C770 H766 0.929 . S
C770 C772 1.378 . S
C770 C774 1.350 . S
C771 C774 1.463 . S
C771 C776 1.350 . S
C771 N779 1.427 . S
C772 H763 0.930 . S
C772 C770 1.378 . S
C772 C773 1.367 . S
C773 C772 1.367 . S
C773 C775 1.433 . S
C774 C770 1.350 . S
C774 C771 1.463 . S
C774 N778 1.427 . S
C775 H765 0.929 . S
C775 C773 1.433 . S
C775 N778 1.384 . S
C776 H767 0.929 . S
C776 C768 1.378 . S
C776 C771 1.350 . S
C777 H764 0.929 . S
C777 C769 1.433 . S
C777 N779 1.384 . S
N778 C774 1.427 . S
N778 C775 1.384 . S
N779 C771 1.427 . S
N779 C777 1.384 . S
H780 C786 0.930 . S
H781 C790 0.930 . S
H782 C795 0.929 1_556 S
H783 C793 0.929 1_554 S
H784 C788 0.929 . S
H785 C794 0.929 . S
C786 H780 0.930 . S
C786 C787 1.367 . S
C786 C794 1.378 . S
C787 C786 1.367 . S
C787 C795 1.433 . S
C788 H784 0.929 . S
C788 C790 1.378 . S
C788 C792 1.350 . S
C789 C792 1.463 1_554 S
C789 C794 1.350 . S
C789 N797 1.427 1_554 S
C790 H781 0.930 . S
C790 C788 1.378 . S
C790 C791 1.367 . S
C791 C790 1.367 . S
C791 C793 1.433 . S
C792 C788 1.350 . S
C792 C789 1.463 1_556 S
C792 N796 1.427 1_556 S
C793 H783 0.929 1_556 S
C793 C791 1.433 . S
C793 N796 1.384 1_556 S
C794 H785 0.929 . S
C794 C786 1.378 . S
C794 C789 1.350 . S
C795 H782 0.929 1_554 S
C795 C787 1.433 . S
C795 N797 1.384 1_554 S
N796 C792 1.427 1_554 S
N796 C793 1.384 1_554 S
N797 C789 1.427 1_556 S
N797 C795 1.384 1_556 S
H798 C804 0.930 . S
H799 C808 0.930 . S
H800 C813 0.929 . S
H801 C811 0.929 . S
H802 C806 0.929 . S
H803 C812 0.929 . S
C804 H798 0.930 . S
C804 C805 1.367 . S
C804 C812 1.378 . S
C805 C804 1.367 . S
C805 C813 1.433 . S
C806 H802 0.929 . S
C806 C808 1.378 . S
C806 C810 1.350 . S
C807 C810 1.463 . S
C807 C812 1.350 . S
C807 N815 1.427 . S
C808 H799 0.930 . S
C808 C806 1.378 . S
C808 C809 1.367 . S
C809 C808 1.367 . S
C809 C811 1.433 . S
C810 C806 1.350 . S
C810 C807 1.463 . S
C810 N814 1.427 . S
C811 H801 0.929 . S
C811 C809 1.433 . S
C811 N814 1.384 . S
C812 H803 0.929 . S
C812 C804 1.378 . S
C812 C807 1.350 . S
C813 H800 0.929 . S
C813 C805 1.433 . S
C813 N815 1.384 . S
N814 C810 1.427 . S
N814 C811 1.384 . S
N815 C807 1.427 . S
N815 C813 1.384 . S
H816 C822 0.930 . S
H817 C826 0.930 . S
H818 C831 0.929 . S
H819 C829 0.929 . S
H820 C824 0.929 . S
H821 C830 0.929 . S
C822 H816 0.930 . S
C822 C823 1.367 . S
C822 C830 1.378 . S
C823 C822 1.367 . S
C823 C831 1.433 . S
C824 H820 0.929 . S
C824 C826 1.378 . S
C824 C828 1.350 . S
C825 C828 1.463 . S
C825 C830 1.350 . S
C825 N833 1.427 . S
C826 H817 0.930 . S
C826 C824 1.378 . S
C826 C827 1.367 . S
C827 C826 1.367 . S
C827 C829 1.433 . S
C828 C824 1.350 . S
C828 C825 1.463 . S
C828 N832 1.427 . S
C829 H819 0.929 . S
C829 C827 1.433 . S
C829 N832 1.384 . S
C830 H821 0.929 . S
C830 C822 1.378 . S
C830 C825 1.350 . S
C831 H818 0.929 . S
C831 C823 1.433 . S
C831 N833 1.384 . S
N832 C828 1.427 . S
N832 C829 1.384 . S
N833 C825 1.427 . S
N833 C831 1.384 . S
H834 C840 0.930 . S
H835 C844 0.930 . S
H836 C849 0.929 . S
H837 C847 0.929 . S
H838 C842 0.929 . S
H839 C848 0.929 . S
C840 H834 0.930 . S
C840 C841 1.367 . S
C840 C848 1.378 . S
C841 C840 1.367 . S
C841 C849 1.433 . S
C842 H838 0.929 . S
C842 C844 1.378 . S
C842 C846 1.350 . S
C843 C846 1.463 . S
C843 C848 1.350 . S
C843 N851 1.427 . S
C844 H835 0.930 . S
C844 C842 1.378 . S
C844 C845 1.367 . S
C845 C844 1.367 . S
C845 C847 1.433 . S
C846 C842 1.350 . S
C846 C843 1.463 . S
C846 N850 1.427 . S
C847 H837 0.929 . S
C847 C845 1.433 . S
C847 N850 1.384 . S
C848 H839 0.929 . S
C848 C840 1.378 . S
C848 C843 1.350 . S
C849 H836 0.929 . S
C849 C841 1.433 . S
C849 N851 1.384 . S
N850 C846 1.427 . S
N850 C847 1.384 . S
N851 C843 1.427 . S
N851 C849 1.384 . S
H852 C858 0.930 . S
H853 C862 0.930 . S
H854 C867 0.929 . S
H855 C865 0.929 . S
H856 C860 0.929 . S
H857 C866 0.929 . S
C858 H852 0.930 . S
C858 C859 1.367 . S
C858 C866 1.378 . S
C859 C858 1.367 . S
C859 C867 1.433 . S
C860 H856 0.929 . S
C860 C862 1.378 . S
C860 C864 1.350 . S
C861 C864 1.463 . S
C861 C866 1.350 . S
C861 N869 1.427 . S
C862 H853 0.930 . S
C862 C860 1.378 . S
C862 C863 1.367 . S
C863 C862 1.367 . S
C863 C865 1.433 . S
C864 C860 1.350 . S
C864 C861 1.463 . S
C864 N868 1.427 . S
C865 H855 0.929 . S
C865 C863 1.433 . S
C865 N868 1.384 . S
C866 H857 0.929 . S
C866 C858 1.378 . S
C866 C861 1.350 . S
C867 H854 0.929 . S
C867 C859 1.433 . S
C867 N869 1.384 . S
N868 C864 1.427 . S
N868 C865 1.384 . S
N869 C861 1.427 . S
N869 C867 1.384 . S
H870 C876 0.930 . S
H871 C880 0.930 . S
H872 C885 0.929 . S
H873 C883 0.929 . S
H874 C878 0.929 . S
H875 C884 0.929 . S
C876 H870 0.930 . S
C876 C877 1.367 . S
C876 C884 1.378 . S
C877 C876 1.367 . S
C877 C885 1.433 . S
C878 H874 0.929 . S
C878 C880 1.378 . S
C878 C882 1.350 . S
C879 C882 1.463 . S
C879 C884 1.350 . S
C879 N887 1.427 . S
C880 H871 0.930 . S
C880 C878 1.378 . S
C880 C881 1.367 . S
C881 C880 1.367 . S
C881 C883 1.433 . S
C882 C878 1.350 . S
C882 C879 1.463 . S
C882 N886 1.427 . S
C883 H873 0.929 . S
C883 C881 1.433 . S
C883 N886 1.384 . S
C884 H875 0.929 . S
C884 C876 1.378 . S
C884 C879 1.350 . S
C885 H872 0.929 . S
C885 C877 1.433 . S
C885 N887 1.384 . S
N886 C882 1.427 . S
N886 C883 1.384 . S
N887 C879 1.427 . S
N887 C885 1.384 . S
H888 C894 0.930 . S
H889 C898 0.930 . S
H890 C903 0.929 . S
H891 C901 0.929 . S
H892 C896 0.929 . S
H893 C902 0.929 . S
C894 H888 0.930 . S
C894 C895 1.367 . S
C894 C902 1.378 . S
C895 C894 1.367 . S
C895 C903 1.433 . S
C896 H892 0.929 . S
C896 C898 1.378 . S
C896 C900 1.350 . S
C897 C900 1.463 . S
C897 C902 1.350 . S
C897 N905 1.427 . S
C898 H889 0.930 . S
C898 C896 1.378 . S
C898 C899 1.367 . S
C899 C898 1.367 . S
C899 C901 1.433 . S
C900 C896 1.350 . S
C900 C897 1.463 . S
C900 N904 1.427 . S
C901 H891 0.929 . S
C901 C899 1.433 . S
C901 N904 1.384 . S
C902 H893 0.929 . S
C902 C894 1.378 . S
C902 C897 1.350 . S
C903 H890 0.929 . S
C903 C895 1.433 . S
C903 N905 1.384 . S
N904 C900 1.427 . S
N904 C901 1.384 . S
N905 C897 1.427 . S
N905 C903 1.384 . S
H906 C912 0.930 . S
H907 C916 0.930 1_545 S
H908 C921 0.890 1_545 S
H909 C919 0.929 . S
H910 C914 0.929 1_545 S
H911 C920 0.929 . S
C912 H906 0.930 . S
C912 C913 1.367 . S
C912 C920 1.378 . S
C913 C912 1.367 . S
C913 C921 1.475 . S
C914 H910 0.929 1_565 S
C914 C916 1.378 . S
C914 C918 1.350 . S
C915 C918 1.463 . S
C915 C920 1.350 . S
C915 N923 1.427 . S
C916 H907 0.930 1_565 S
C916 C914 1.378 . S
C916 C917 1.367 . S
C917 C916 1.367 . S
C917 C919 1.433 . S
C918 C914 1.350 . S
C918 C915 1.463 . S
C918 N922 1.427 . S
C919 H909 0.929 . S
C919 C917 1.433 . S
C919 N922 1.384 . S
C920 H911 0.929 . S
C920 C912 1.378 . S
C920 C915 1.350 . S
C921 H908 0.890 1_565 S
C921 C913 1.475 . S
C921 N923 1.385 . S
N922 C918 1.427 . S
N922 C919 1.384 . S
N923 C915 1.427 . S
N923 C921 1.385 . S
H924 C930 0.930 . S
H925 C934 0.930 . S
H926 C939 0.929 . S
H927 C937 0.929 . S
H928 C932 0.929 . S
H929 C938 0.929 . S
C930 H924 0.930 . S
C930 C931 1.367 . S
C930 C938 1.378 . S
C931 C930 1.367 . S
C931 C939 1.433 . S
C932 H928 0.929 . S
C932 C934 1.378 . S
C932 C936 1.350 . S
C933 C936 1.463 . S
C933 C938 1.350 . S
C933 N941 1.427 . S
C934 H925 0.930 . S
C934 C932 1.378 . S
C934 C935 1.367 . S
C935 C934 1.367 . S
C935 C937 1.433 . S
C936 C932 1.350 . S
C936 C933 1.463 . S
C936 N940 1.427 . S
C937 H927 0.929 . S
C937 C935 1.433 . S
C937 N940 1.384 . S
C938 H929 0.929 . S
C938 C930 1.378 . S
C938 C933 1.350 . S
C939 H926 0.929 . S
C939 C931 1.433 . S
C939 N941 1.384 . S
N940 C936 1.427 . S
N940 C937 1.384 . S
N941 C933 1.427 . S
N941 C939 1.384 . S
H942 C948 0.930 . S
H943 C952 0.930 . S
H944 C957 0.929 . S
H945 C955 0.929 . S
H946 C950 0.929 . S
H947 C956 0.929 . S
C948 H942 0.930 . S
C948 C949 1.367 . S
C948 C956 1.378 . S
C949 C948 1.367 . S
C949 C957 1.433 . S
C950 H946 0.929 . S
C950 C952 1.378 . S
C950 C954 1.350 . S
C951 C954 1.463 . S
C951 C956 1.350 . S
C951 N959 1.427 . S
C952 H943 0.930 . S
C952 C950 1.378 . S
C952 C953 1.367 . S
C953 C952 1.367 . S
C953 C955 1.433 . S
C954 C950 1.350 . S
C954 C951 1.463 . S
C954 N958 1.427 . S
C955 H945 0.929 . S
C955 C953 1.433 . S
C955 N958 1.384 . S
C956 H947 0.929 . S
C956 C948 1.378 . S
C956 C951 1.350 . S
C957 H944 0.929 . S
C957 C949 1.433 . S
C957 N959 1.384 . S
N958 C954 1.427 . S
N958 C955 1.384 . S
N959 C951 1.427 . S
N959 C957 1.384 . S
H960 C966 0.930 . S
H961 C970 0.930 . S
H962 C975 0.929 . S
H963 C973 0.929 . S
H964 C968 0.929 . S
H965 C974 0.929 . S
C966 H960 0.930 . S
C966 C967 1.367 . S
C966 C974 1.378 . S
C967 C966 1.367 . S
C967 C975 1.433 . S
C968 H964 0.929 . S
C968 C970 1.378 . S
C968 C972 1.350 . S
C969 C972 1.463 . S
C969 C974 1.350 . S
C969 N977 1.427 . S
C970 H961 0.930 . S
C970 C968 1.378 . S
C970 C971 1.367 . S
C971 C970 1.367 . S
C971 C973 1.433 . S
C972 C968 1.350 . S
C972 C969 1.463 . S
C972 N976 1.427 . S
C973 H963 0.929 . S
C973 C971 1.433 . S
C973 N976 1.384 . S
C974 H965 0.929 . S
C974 C966 1.378 . S
C974 C969 1.350 . S
C975 H962 0.929 . S
C975 C967 1.433 . S
C975 N977 1.384 . S
N976 C972 1.427 . S
N976 C973 1.384 . S
N977 C969 1.427 . S
N977 C975 1.384 . S
H978 C984 0.930 . S
H979 C988 0.896 1_565 S
H980 C993 0.929 . S
H981 C991 0.929 . S
H982 C986 0.929 . S
H983 C992 0.929 . S
C984 H978 0.930 . S
C984 C985 1.367 . S
C984 C992 1.378 1_556 S
C985 C984 1.367 . S
C985 C993 1.433 . S
C986 H982 0.929 . S
C986 C988 1.378 . S
C986 C990 1.350 . S
C987 C990 1.463 . S
C987 C992 1.350 . S
C987 N995 1.427 . S
C988 H979 0.896 1_545 S
C988 C986 1.378 . S
C988 C989 1.367 . S
C989 C988 1.367 . S
C989 C991 1.433 . S
C990 C986 1.350 . S
C990 C987 1.463 . S
C990 N994 1.427 . S
C991 H981 0.929 . S
C991 C989 1.433 . S
C991 N994 1.384 . S
C992 H983 0.929 . S
C992 C984 1.378 1_554 S
C992 C987 1.350 . S
C993 H980 0.929 . S
C993 C985 1.433 . S
C993 N995 1.384 1_556 S
N994 C990 1.427 . S
N994 C991 1.384 . S
N995 C987 1.427 . S
N995 C993 1.384 1_554 S
H996 C1002 0.930 . S
H997 C1006 0.930 . S
H998 C1011 0.929 . S
H999 C1009 0.929 . S
H1000 C1004 0.929 . S
H1001 C1010 0.929 . S
C1002 H996 0.930 . S
C1002 C1003 1.367 . S
C1002 C1010 1.378 . S
C1003 C1002 1.367 . S
C1003 C1011 1.433 . S
C1004 H1000 0.929 . S
C1004 C1006 1.378 . S
C1004 C1008 1.350 . S
C1005 C1008 1.463 . S
C1005 C1010 1.350 . S
C1005 N1013 1.427 . S
C1006 H997 0.930 . S
C1006 C1004 1.378 . S
C1006 C1007 1.367 . S
C1007 C1006 1.367 . S
C1007 C1009 1.433 . S
C1008 C1004 1.350 . S
C1008 C1005 1.463 . S
C1008 N1012 1.427 . S
C1009 H999 0.929 . S
C1009 C1007 1.433 . S
C1009 N1012 1.384 . S
C1010 H1001 0.929 . S
C1010 C1002 1.378 . S
C1010 C1005 1.350 . S
C1011 H998 0.929 . S
C1011 C1003 1.433 . S
C1011 N1013 1.384 . S
N1012 C1008 1.427 . S
N1012 C1009 1.384 . S
N1013 C1005 1.427 . S
N1013 C1011 1.384 . S
H1014 C1020 0.930 . S
H1015 C1024 0.930 . S
H1016 C1029 0.929 . S
H1017 C1027 0.929 . S
H1018 C1022 0.929 . S
H1019 C1028 0.929 . S
C1020 H1014 0.930 . S
C1020 C1021 1.367 . S
C1020 C1028 1.378 1_556 S
C1021 C1020 1.367 . S
C1021 C1029 1.433 . S
C1022 H1018 0.929 . S
C1022 C1024 1.378 . S
C1022 C1026 1.350 . S
C1023 C1026 1.463 . S
C1023 C1028 1.350 . S
C1023 N1031 1.427 . S
C1024 H1015 0.930 . S
C1024 C1022 1.378 . S
C1024 C1025 1.367 . S
C1025 C1024 1.367 . S
C1025 C1027 1.433 . S
C1026 C1022 1.350 . S
C1026 C1023 1.463 . S
C1026 N1030 1.427 . S
C1027 H1017 0.929 . S
C1027 C1025 1.433 . S
C1027 N1030 1.384 . S
C1028 H1019 0.929 . S
C1028 C1020 1.378 1_554 S
C1028 C1023 1.350 . S
C1029 H1016 0.929 . S
C1029 C1021 1.433 . S
C1029 N1031 1.384 1_556 S
N1030 C1026 1.427 . S
N1030 C1027 1.384 . S
N1031 C1023 1.427 . S
N1031 C1029 1.384 1_554 S
H1032 C1038 0.930 . S
H1033 C1042 0.930 . S
H1034 C1047 0.929 1_655 S
H1035 C1045 0.929 . S
H1036 C1040 0.929 . S
H1037 C1046 0.929 . S
C1038 H1032 0.930 . S
C1038 C1039 1.367 . S
C1038 C1046 1.378 . S
C1039 C1038 1.367 . S
C1039 C1047 1.433 . S
C1040 H1036 0.929 . S
C1040 C1042 1.378 1_556 S
C1040 C1044 1.350 . S
C1041 C1044 1.463 . S
C1041 C1046 1.350 . S
C1041 N1049 1.427 . S
C1042 H1033 0.930 . S
C1042 C1040 1.378 1_554 S
C1042 C1043 1.367 . S
C1043 C1042 1.367 . S
C1043 C1045 1.433 . S
C1044 C1040 1.350 . S
C1044 C1041 1.463 . S
C1044 N1048 1.427 . S
C1045 H1035 0.929 . S
C1045 C1043 1.433 . S
C1045 N1048 1.384 1_554 S
C1046 H1037 0.929 . S
C1046 C1038 1.378 . S
C1046 C1041 1.350 . S
C1047 H1034 0.929 1_455 S
C1047 C1039 1.433 . S
C1047 N1049 1.384 . S
N1048 C1044 1.427 . S
N1048 C1045 1.384 1_556 S
N1049 C1041 1.427 . S
N1049 C1047 1.384 . S
H1050 C1056 0.930 . S
H1051 C1060 0.953 . S
H1052 C1065 0.929 1_565 S
H1053 C1063 0.929 . S
H1054 C1058 0.929 1_565 S
H1055 C1064 0.929 . S
C1056 H1050 0.930 . S
C1056 C1057 1.367 . S
C1056 C1064 1.378 . S
C1057 C1056 1.367 . S
C1057 C1065 1.433 . S
C1058 H1054 0.929 1_545 S
C1058 C1060 1.378 . S
C1058 C1062 1.350 . S
C1059 C1062 1.463 . S
C1059 C1064 1.350 . S
C1059 N1067 1.427 . S
C1060 H1051 0.953 . S
C1060 C1058 1.378 . S
C1060 C1061 1.367 . S
C1061 C1060 1.367 . S
C1061 C1063 1.433 . S
C1062 C1058 1.350 . S
C1062 C1059 1.463 . S
C1062 N1066 1.427 . S
C1063 H1053 0.929 . S
C1063 C1061 1.433 . S
C1063 N1066 1.384 . S
C1064 H1055 0.929 . S
C1064 C1056 1.378 . S
C1064 C1059 1.350 . S
C1065 H1052 0.929 1_545 S
C1065 C1057 1.433 . S
C1065 N1067 1.384 . S
N1066 C1062 1.427 . S
N1066 C1063 1.384 . S
N1067 C1059 1.427 . S
N1067 C1065 1.384 . S
H1068 C1074 0.930 . S
H1069 C1078 0.930 . S
H1070 C1083 0.929 . S
H1071 C1081 0.929 . S
H1072 C1076 0.929 . S
H1073 C1082 0.929 . S
C1074 H1068 0.930 . S
C1074 C1075 1.367 . S
C1074 C1082 1.378 . S
C1075 C1074 1.367 . S
C1075 C1083 1.433 . S
C1076 H1072 0.929 . S
C1076 C1078 1.378 1_556 S
C1076 C1080 1.350 . S
C1077 C1080 1.463 . S
C1077 C1082 1.350 . S
C1077 N1085 1.427 . S
C1078 H1069 0.930 . S
C1078 C1076 1.378 1_554 S
C1078 C1079 1.367 . S
C1079 C1078 1.367 . S
C1079 C1081 1.433 . S
C1080 C1076 1.350 . S
C1080 C1077 1.463 . S
C1080 N1084 1.427 . S
C1081 H1071 0.929 . S
C1081 C1079 1.433 . S
C1081 N1084 1.384 1_554 S
C1082 H1073 0.929 . S
C1082 C1074 1.378 . S
C1082 C1077 1.350 . S
C1083 H1070 0.929 . S
C1083 C1075 1.433 . S
C1083 N1085 1.384 . S
N1084 C1080 1.427 . S
N1084 C1081 1.384 1_556 S
N1085 C1077 1.427 . S
N1085 C1083 1.384 . S
H1086 C1092 0.930 . S
H1087 C1096 0.930 . S
H1088 C1101 0.929 . S
H1089 C1099 0.929 . S
H1090 C1094 0.929 . S
H1091 C1100 0.929 . S
C1092 H1086 0.930 . S
C1092 C1093 1.367 . S
C1092 C1100 1.378 . S
C1093 C1092 1.367 . S
C1093 C1101 1.433 . S
C1094 H1090 0.929 . S
C1094 C1096 1.378 . S
C1094 C1098 1.350 . S
C1095 C1098 1.463 . S
C1095 C1100 1.350 . S
C1095 N1103 1.427 . S
C1096 H1087 0.930 . S
C1096 C1094 1.378 . S
C1096 C1097 1.367 . S
C1097 C1096 1.367 . S
C1097 C1099 1.433 . S
C1098 C1094 1.350 . S
C1098 C1095 1.463 . S
C1098 N1102 1.427 . S
C1099 H1089 0.929 . S
C1099 C1097 1.433 . S
C1099 N1102 1.384 . S
C1100 H1091 0.929 . S
C1100 C1092 1.378 . S
C1100 C1095 1.350 . S
C1101 H1088 0.929 . S
C1101 C1093 1.433 . S
C1101 N1103 1.384 . S
N1102 C1098 1.427 . S
N1102 C1099 1.384 . S
N1103 C1095 1.427 . S
N1103 C1101 1.384 . S
H1104 C1110 0.930 . S
H1105 C1114 0.930 . S
H1106 C1119 0.929 . S
H1107 C1117 0.929 . S
H1108 C1112 0.929 . S
H1109 C1118 0.929 . S
C1110 H1104 0.930 . S
C1110 C1111 1.367 . S
C1110 C1118 1.378 . S
C1111 C1110 1.367 . S
C1111 C1119 1.433 . S
C1112 H1108 0.929 . S
C1112 C1114 1.378 . S
C1112 C1116 1.350 . S
C1113 C1116 1.463 . S
C1113 C1118 1.350 . S
C1113 N1121 1.427 . S
C1114 H1105 0.930 . S
C1114 C1112 1.378 . S
C1114 C1115 1.367 . S
C1115 C1114 1.367 . S
C1115 C1117 1.433 . S
C1116 C1112 1.350 . S
C1116 C1113 1.463 . S
C1116 N1120 1.427 . S
C1117 H1107 0.929 . S
C1117 C1115 1.433 . S
C1117 N1120 1.384 . S
C1118 H1109 0.929 . S
C1118 C1110 1.378 . S
C1118 C1113 1.350 . S
C1119 H1106 0.929 . S
C1119 C1111 1.433 . S
C1119 N1121 1.384 . S
N1120 C1116 1.427 . S
N1120 C1117 1.384 . S
N1121 C1113 1.427 . S
N1121 C1119 1.384 . S
H1122 C1128 0.930 . S
H1123 C1132 0.930 . S
H1124 C1137 0.929 . S
H1125 C1135 0.929 . S
H1126 C1130 0.929 . S
H1127 C1136 0.929 . S
C1128 H1122 0.930 . S
C1128 C1129 1.367 . S
C1128 C1136 1.378 1_554 S
C1129 C1128 1.367 . S
C1129 C1137 1.433 . S
C1130 H1126 0.929 . S
C1130 C1132 1.378 . S
C1130 C1134 1.350 . S
C1131 C1134 1.463 . S
C1131 C1136 1.350 . S
C1131 N1139 1.427 . S
C1132 H1123 0.930 . S
C1132 C1130 1.378 . S
C1132 C1133 1.367 . S
C1133 C1132 1.367 . S
C1133 C1135 1.433 . S
C1134 C1130 1.350 . S
C1134 C1131 1.463 . S
C1134 N1138 1.427 . S
C1135 H1125 0.929 . S
C1135 C1133 1.433 . S
C1135 N1138 1.384 . S
C1136 H1127 0.929 . S
C1136 C1128 1.378 1_556 S
C1136 C1131 1.350 . S
C1137 H1124 0.929 . S
C1137 C1129 1.433 . S
C1137 N1139 1.384 1_554 S
N1138 C1134 1.427 . S
N1138 C1135 1.384 . S
N1139 C1131 1.427 . S
N1139 C1137 1.384 1_556 S
H1140 C1146 0.930 . S
H1141 C1150 0.930 . S
H1142 C1155 0.929 . S
H1143 C1153 0.929 . S
H1144 C1148 0.929 . S
H1145 C1154 0.929 . S
C1146 H1140 0.930 . S
C1146 C1147 1.367 . S
C1146 C1154 1.378 . S
C1147 C1146 1.367 . S
C1147 C1155 1.433 . S
C1148 H1144 0.929 . S
C1148 C1150 1.378 . S
C1148 C1152 1.350 . S
C1149 C1152 1.463 . S
C1149 C1154 1.350 . S
C1149 N1157 1.427 . S
C1150 H1141 0.930 . S
C1150 C1148 1.378 . S
C1150 C1151 1.367 . S
C1151 C1150 1.367 . S
C1151 C1153 1.433 . S
C1152 C1148 1.350 . S
C1152 C1149 1.463 . S
C1152 N1156 1.427 . S
C1153 H1143 0.929 . S
C1153 C1151 1.433 . S
C1153 N1156 1.384 . S
C1154 H1145 0.929 . S
C1154 C1146 1.378 . S
C1154 C1149 1.350 . S
C1155 H1142 0.929 . S
C1155 C1147 1.433 . S
C1155 N1157 1.384 . S
N1156 C1152 1.427 . S
N1156 C1153 1.384 . S
N1157 C1149 1.427 . S
N1157 C1155 1.384 . S
H1158 C1164 0.930 . S
H1159 C1168 0.930 . S
H1160 C1173 0.929 . S
H1161 C1171 0.929 . S
H1162 C1166 0.929 . S
H1163 C1172 0.929 . S
C1164 H1158 0.930 . S
C1164 C1165 1.367 . S
C1164 C1172 1.378 1_554 S
C1165 C1164 1.367 . S
C1165 C1173 1.433 . S
C1166 H1162 0.929 . S
C1166 C1168 1.378 . S
C1166 C1170 1.350 . S
C1167 C1170 1.463 . S
C1167 C1172 1.350 . S
C1167 N1175 1.427 . S
C1168 H1159 0.930 . S
C1168 C1166 1.378 . S
C1168 C1169 1.367 . S
C1169 C1168 1.367 . S
C1169 C1171 1.433 . S
C1170 C1166 1.350 . S
C1170 C1167 1.463 . S
C1170 N1174 1.427 . S
C1171 H1161 0.929 . S
C1171 C1169 1.433 . S
C1171 N1174 1.384 . S
C1172 H1163 0.929 . S
C1172 C1164 1.378 1_556 S
C1172 C1167 1.350 . S
C1173 H1160 0.929 . S
C1173 C1165 1.433 . S
C1173 N1175 1.384 1_554 S
N1174 C1170 1.427 . S
N1174 C1171 1.384 . S
N1175 C1167 1.427 . S
N1175 C1173 1.384 1_556 S
H1176 C1182 0.930 . S
H1177 C1186 0.930 . S
H1178 C1191 0.929 . S
H1179 C1189 0.929 . S
H1180 C1184 0.929 . S
H1181 C1190 0.929 . S
C1182 H1176 0.930 . S
C1182 C1183 1.367 . S
C1182 C1190 1.378 . S
C1183 C1182 1.367 . S
C1183 C1191 1.433 . S
C1184 H1180 0.929 . S
C1184 C1186 1.378 1_554 S
C1184 C1188 1.350 . S
C1185 C1188 1.463 . S
C1185 C1190 1.350 . S
C1185 N1193 1.427 . S
C1186 H1177 0.930 . S
C1186 C1184 1.378 1_556 S
C1186 C1187 1.367 . S
C1187 C1186 1.367 . S
C1187 C1189 1.433 . S
C1188 C1184 1.350 . S
C1188 C1185 1.463 . S
C1188 N1192 1.427 . S
C1189 H1179 0.929 . S
C1189 C1187 1.433 . S
C1189 N1192 1.384 1_556 S
C1190 H1181 0.929 . S
C1190 C1182 1.378 . S
C1190 C1185 1.350 . S
C1191 H1178 0.929 . S
C1191 C1183 1.433 . S
C1191 N1193 1.384 . S
N1192 C1188 1.427 . S
N1192 C1189 1.384 1_554 S
N1193 C1185 1.427 . S
N1193 C1191 1.384 . S
H1194 C1200 0.930 1_545 S
H1195 C1204 0.930 . S
H1196 C1209 0.929 . S
H1197 C1207 0.929 1_545 S
H1198 C1202 0.929 . S
H1199 C1208 0.929 1_545 S
C1200 H1194 0.930 1_565 S
C1200 C1201 1.367 . S
C1200 C1208 1.378 . S
C1201 C1200 1.367 . S
C1201 C1209 1.433 . S
C1202 H1198 0.929 . S
C1202 C1204 1.378 . S
C1202 C1206 1.350 . S
C1203 C1206 1.463 . S
C1203 C1208 1.350 . S
C1203 N1211 1.427 . S
C1204 H1195 0.930 . S
C1204 C1202 1.378 . S
C1204 C1205 1.367 . S
C1205 C1204 1.367 . S
C1205 C1207 1.433 . S
C1206 C1202 1.350 . S
C1206 C1203 1.463 . S
C1206 N1210 1.427 . S
C1207 H1197 0.929 1_565 S
C1207 C1205 1.433 . S
C1207 N1210 1.384 . S
C1208 H1199 0.929 1_565 S
C1208 C1200 1.378 . S
C1208 C1203 1.350 . S
C1209 H1196 0.929 . S
C1209 C1201 1.433 . S
C1209 N1211 1.384 . S
N1210 C1206 1.427 . S
N1210 C1207 1.384 . S
N1211 C1203 1.427 . S
N1211 C1209 1.384 . S
H1212 C1218 0.930 . S
H1213 C1222 0.930 . S
H1214 C1227 0.929 . S
H1215 C1225 0.929 . S
H1216 C1220 0.929 . S
H1217 C1226 0.929 . S
C1218 H1212 0.930 . S
C1218 C1219 1.367 . S
C1218 C1226 1.378 1_556 S
C1219 C1218 1.367 . S
C1219 C1227 1.433 . S
C1220 H1216 0.929 . S
C1220 C1222 1.378 . S
C1220 C1224 1.350 . S
C1221 C1224 1.463 . S
C1221 C1226 1.350 . S
C1221 N1229 1.427 . S
C1222 H1213 0.930 . S
C1222 C1220 1.378 . S
C1222 C1223 1.367 . S
C1223 C1222 1.367 . S
C1223 C1225 1.433 . S
C1224 C1220 1.350 . S
C1224 C1221 1.463 . S
C1224 N1228 1.427 . S
C1225 H1215 0.929 . S
C1225 C1223 1.433 . S
C1225 N1228 1.384 . S
C1226 H1217 0.929 . S
C1226 C1218 1.378 1_554 S
C1226 C1221 1.350 . S
C1227 H1214 0.929 . S
C1227 C1219 1.433 . S
C1227 N1229 1.384 1_556 S
N1228 C1224 1.427 . S
N1228 C1225 1.384 . S
N1229 C1221 1.427 . S
N1229 C1227 1.384 1_554 S
H1230 C1236 0.930 . S
H1231 C1240 0.930 . S
H1232 C1245 0.929 . S
H1233 C1243 0.929 . S
H1234 C1238 0.929 . S
H1235 C1244 0.929 . S
C1236 H1230 0.930 . S
C1236 C1237 1.367 . S
C1236 C1244 1.378 . S
C1237 C1236 1.367 . S
C1237 C1245 1.433 . S
C1238 H1234 0.929 . S
C1238 C1240 1.378 . S
C1238 C1242 1.350 . S
C1239 C1242 1.463 . S
C1239 C1244 1.350 . S
C1239 N1247 1.427 . S
C1240 H1231 0.930 . S
C1240 C1238 1.378 . S
C1240 C1241 1.367 . S
C1241 C1240 1.367 . S
C1241 C1243 1.433 . S
C1242 C1238 1.350 . S
C1242 C1239 1.463 . S
C1242 N1246 1.427 . S
C1243 H1233 0.929 . S
C1243 C1241 1.433 . S
C1243 N1246 1.384 . S
C1244 H1235 0.929 . S
C1244 C1236 1.378 . S
C1244 C1239 1.350 . S
C1245 H1232 0.929 . S
C1245 C1237 1.433 . S
C1245 N1247 1.384 . S
N1246 C1242 1.427 . S
N1246 C1243 1.384 . S
N1247 C1239 1.427 . S
N1247 C1245 1.384 . S
C535 C21 1.488 . S
C539 C516 1.485 . S
C553 C54 1.490 . S
C557 C417 1.484 . S
C571 C450 1.484 . S
C575 C87 1.490 . S
C589 C120 1.486 . S
C593 C483 1.488 . S
C607 C318 1.485 . S
C611 C153 1.489 . S
C625 C351 1.486 . S
C629 C186 1.487 . S
C643 C384 1.485 . S
C647 C219 1.488 . S
C661 C285 1.489 . S
C665 C252 1.484 . S
C679 C7 1.396 . S
C683 C238 1.406 . S
C697 C40 1.396 . S
C701 C139 1.404 . S
C715 C73 1.401 . S
C719 C172 1.408 . S
C733 C106 1.398 . S
C737 C205 1.397 . S
C751 C502 1.403 . S
C755 C271 1.407 . S
C769 C403 1.404 . S
C773 C304 1.395 . S
C787 C436 1.400 . S
C791 C337 1.408 . S
C805 C370 1.397 . S
C809 C469 1.398 . S
C823 C18 1.132 . S
C827 C150 1.132 . S
C841 C183 1.122 . S
C845 C51 1.122 . S
C859 C216 1.132 . S
C863 C84 1.132 . S
C877 C117 1.130 . S
C881 C249 1.130 . S
C895 C414 1.132 . S
C899 C282 1.132 . S
C913 C315 1.130 . S
C917 C447 1.131 . S
C931 C348 1.130 . S
C935 C480 1.130 . S
C949 C513 1.122 . S
C953 C381 1.122 . S
C967 N2 1.339 . S
C971 N13 1.341 . S
C985 N46 1.332 . S
C989 N35 1.331 . S
C1003 N68 1.332 . S
C1007 N79 1.333 . S
C1021 N112 1.339 . S
C1025 N101 1.338 . S
C1039 N134 1.338 . S
C1043 N145 1.339 . S
C1057 N167 1.333 . S
C1061 N178 1.335 . S
C1075 N200 1.339 . S
C1079 N211 1.341 . S
C1093 N233 1.338 . S
C1097 N244 1.339 . S
C1111 N277 1.340 . S
C1115 N266 1.339 . S
C1129 N310 1.339 . S
C1133 N299 1.338 . S
C1147 N343 1.339 . S
C1151 N332 1.338 . S
C1165 N376 1.337 . S
C1169 N365 1.335 . S
C1183 N398 1.331 . S
C1187 N409 1.333 . S
C1201 N431 1.332 . S
C1205 N442 1.334 . S
C1219 N475 1.332 . S
C1223 N464 1.330 . S
C1237 N508 1.338 . S
C1241 N497 1.337 . S
