# Generated by pormake.
# Topology sra, (4)-cn, num edge types: 1
# Building blocks:
#     Node 0, Type 0, BuildingBlock: TATPOV_clean_sbu_0, # of connection points: 4
#     Node 1, Type 0, BuildingBlock: TATPOV_clean_sbu_0, # of connection points: 4
#     Node 2, Type 0, BuildingBlock: TATPOV_clean_sbu_0, # of connection points: 4
#     Node 3, Type 0, BuildingBlock: TATPOV_clean_sbu_0, # of connection points: 4
#     Node 4, Type 0, BuildingBlock: TATPOV_clean_sbu_0, # of connection points: 4
#     Node 5, Type 0, BuildingBlock: TATPOV_clean_sbu_0, # of connection points: 4
#     Node 6, Type 0, BuildingBlock: TATPOV_clean_sbu_0, # of connection points: 4
#     Node 7, Type 0, BuildingBlock: TATPOV_clean_sbu_0, # of connection points: 4
#     Edge 8, Type (0, 0), BuildingBlock: FUNLAD_clean_linker_1, # of connection points: 2
#     Edge 9, Type (0, 0), BuildingBlock: FUNLAD_clean_linker_1, # of connection points: 2
#     Edge 10, Type (0, 0), BuildingBlock: FUNLAD_clean_linker_1, # of connection points: 2
#     Edge 11, Type (0, 0), BuildingBlock: FUNLAD_clean_linker_1, # of connection points: 2
#     Edge 12, Type (0, 0), BuildingBlock: FUNLAD_clean_linker_1, # of connection points: 2
#     Edge 13, Type (0, 0), BuildingBlock: FUNLAD_clean_linker_1, # of connection points: 2
#     Edge 14, Type (0, 0), BuildingBlock: FUNLAD_clean_linker_1, # of connection points: 2
#     Edge 15, Type (0, 0), BuildingBlock: FUNLAD_clean_linker_1, # of connection points: 2
#     Edge 16, Type (0, 0), BuildingBlock: FUNLAD_clean_linker_1, # of connection points: 2
#     Edge 17, Type (0, 0), BuildingBlock: FUNLAD_clean_linker_1, # of connection points: 2
#     Edge 18, Type (0, 0), BuildingBlock: FUNLAD_clean_linker_1, # of connection points: 2
#     Edge 19, Type (0, 0), BuildingBlock: FUNLAD_clean_linker_1, # of connection points: 2
#     Edge 20, Type (0, 0), BuildingBlock: FUNLAD_clean_linker_1, # of connection points: 2
#     Edge 21, Type (0, 0), BuildingBlock: FUNLAD_clean_linker_1, # of connection points: 2
#     Edge 22, Type (0, 0), BuildingBlock: FUNLAD_clean_linker_1, # of connection points: 2
#     Edge 23, Type (0, 0), BuildingBlock: FUNLAD_clean_linker_1, # of connection points: 2
# Relax obj value: 0.055
# Max RMSD: 0.069
# Mean RMSD: 0.069
data_MOF--net-sra--node1-TATPOV_clean_sbu_0--edge1-FUNLAD_clean_linker_1
_symmetry_space_group_name_H-M    P1
_symmetry_Int_Tables_number       1
_symmetry_cell_setting            triclinic
loop_
_symmetry_equiv_pos_as_xyz
'x, y, z'
_cell_length_a     28.020783
_cell_length_b     45.515126
_cell_length_c     42.917098
_cell_angle_alpha  89.880618
_cell_angle_beta   89.724589
_cell_angle_gamma 89.828454
loop_
_atom_site_label
_atom_site_type_symbol
_atom_site_fract_x
_atom_site_fract_y
_atom_site_fract_z
_atom_type_partial_charge
Zn0 Zn 0.00837 0.08098 0.23304 0.0
Zn1 Zn 0.02158 0.06028 0.17598 0.0
O2 O 0.08174 0.04741 0.20112 0.0
O3 O 0.06436 0.05937 0.24964 0.0
O4 O 0.03242 0.04336 0.1328 0.0
O5 O 0.94467 0.06158 0.23545 0.0
O6 O 0.95773 0.04142 0.18958 0.0
C7 C 0.09208 0.04753 0.23008 0.0
C8 C 0.01531 0.12663 0.18697 0.0
O9 O 0.01511 0.105 0.16817 0.0
O10 O 0.01543 0.12225 0.21612 0.0
C11 C 0.07324 0.04301 0.11968 0.0
O12 O 0.11014 0.05392 0.13434 0.0
C13 C 0.93164 0.0447 0.21372 0.0
Zn14 Zn -0.00525 0.39775 0.23375 0.0
Zn15 Zn 0.01304 0.42006 0.17787 0.0
O16 O 0.9481 0.43864 0.19118 0.0
O17 O 0.94026 0.42509 0.24023 0.0
O18 O 0.02626 0.43926 0.13614 0.0
O19 O 0.05863 0.41027 0.2492 0.0
O20 O 0.07167 0.43183 0.20391 0.0
C21 C 0.92596 0.43991 0.21716 0.0
C22 C -0.00119 0.35389 0.18556 0.0
O23 O 0.01253 0.37547 0.16885 0.0
O24 O 0.98604 0.35793 0.2136 0.0
C25 C -0.00625 0.44267 0.11589 0.0
O26 O 0.95061 0.43273 0.12164 0.0
C27 C 0.0848 0.42565 0.23158 0.0
Zn28 Zn 0.9747 0.91348 0.78261 0.0
Zn29 Zn -0.00111 0.94102 0.83511 0.0
O30 O 0.05466 0.95207 0.80577 0.0
O31 O 0.03506 0.92839 0.76286 0.0
O32 O 0.0105 0.96288 0.87549 0.0
O33 O 0.91547 0.93693 0.77765 0.0
O34 O 0.93261 0.95785 0.8224 0.0
C35 C 0.06338 0.94482 0.77759 0.0
C36 C -0.01137 0.87381 0.8338 0.0
O37 O 0.00159 0.89711 0.84777 0.0
O38 O 0.97343 0.87503 0.80609 0.0
C39 C 0.03931 0.95484 0.89666 0.0
O40 O 0.06568 0.93124 0.89255 0.0
C41 C 0.90504 0.95487 0.79907 0.0
Zn42 Zn 0.04089 0.60475 0.79608 0.0
Zn43 Zn 0.02887 0.58234 0.85275 0.0
O44 O 0.97039 0.56736 0.82836 0.0
O45 O 0.98044 0.586 0.7814 0.0
O46 O 0.02159 0.56247 0.89469 0.0
O47 O 0.1029 0.58426 0.78989 0.0
O48 O 0.09643 0.56858 0.83828 0.0
C49 C 0.95616 0.57084 0.80044 0.0
C50 C 0.02936 0.64882 0.8442 0.0
O51 O 0.02283 0.62671 0.86196 0.0
O52 O 0.03915 0.64517 0.8156 0.0
C53 C 0.98432 0.5662 0.91125 0.0
O54 O 0.95041 0.58375 0.90126 0.0
C55 C 0.12001 0.57041 0.81286 0.0
Zn56 Zn 0.53269 0.61798 0.72273 0.0
Zn57 Zn 0.52956 0.59003 0.66766 0.0
O58 O 0.59476 0.57893 0.68675 0.0
O59 O 0.5981 0.60225 0.73158 0.0
O60 O 0.53162 0.56657 0.6278 0.0
O61 O 0.47575 0.59499 0.73729 0.0
O62 O 0.46961 0.57474 0.69086 0.0
C63 C 0.61689 0.58524 0.7117 0.0
C64 C 0.52211 0.657 0.66938 0.0
O65 O 0.52421 0.63333 0.65362 0.0
O66 O 0.52434 0.65615 0.69887 0.0
C67 C 0.50201 0.5684 0.60557 0.0
O68 O 0.46599 0.58687 0.60747 0.0
C69 C 0.45426 0.57813 0.71864 0.0
Zn70 Zn 0.50773 0.92121 0.73308 0.0
Zn71 Zn 0.49396 0.94075 0.67596 0.0
O72 O 0.43091 0.95046 0.69977 0.0
O73 O 0.44184 0.93122 0.7464 0.0
O74 O 0.48326 0.95936 0.63344 0.0
O75 O 0.55891 0.9503 0.74098 0.0
O76 O 0.55559 0.96175 0.69116 0.0
C77 C 0.41574 0.94477 0.72723 0.0
C78 C 0.51608 0.87579 0.68665 0.0
O79 O 0.50306 0.89612 0.66799 0.0
O80 O 0.52282 0.88131 0.71518 0.0
C81 C 0.50206 0.95009 0.60827 0.0
O82 O 0.52956 0.92667 0.60886 0.0
C83 C 0.5748 0.96454 0.71787 0.0
Zn84 Zn 0.52598 0.39283 0.28578 0.0
Zn85 Zn 0.5029 0.42364 0.33721 0.0
O86 O 0.56742 0.44142 0.32336 0.0
O87 O 0.58496 0.41689 0.28059 0.0
O88 O 0.48454 0.44836 0.37445 0.0
O89 O 0.46618 0.40602 0.26456 0.0
O90 O 0.44688 0.43058 0.30706 0.0
C91 C 0.59492 0.43666 0.30018 0.0
C92 C 0.51664 0.35688 0.34123 0.0
O93 O 0.50671 0.38121 0.35444 0.0
O94 O 0.52631 0.35617 0.31236 0.0
C95 C 0.50984 0.44869 0.39892 0.0
O96 O 0.54845 0.43228 0.40031 0.0
C97 C 0.43762 0.42247 0.27931 0.0
Zn98 Zn 0.53037 0.09718 0.27949 0.0
Zn99 Zn 0.51474 0.07517 0.33533 0.0
O100 O 0.45277 0.06557 0.31079 0.0
O101 O 0.46442 0.08826 0.26593 0.0
O102 O 0.50487 0.05647 0.37788 0.0
O103 O 0.58129 0.06782 0.27052 0.0
O104 O 0.57634 0.05423 0.31968 0.0
C105 C 0.43829 0.07307 0.28373 0.0
C106 C 0.53714 0.14065 0.3273 0.0
O107 O 0.52308 0.11961 0.34475 0.0
O108 O 0.54559 0.13627 0.29871 0.0
C109 C 0.49298 0.02957 0.37989 0.0
O110 O 0.48556 0.01456 0.35429 0.0
C111 C 0.59618 0.05236 0.29297 0.0
H112 H 0.03577 0.31806 0.16067 0.0
C113 C 0.00408 0.32351 0.17417 0.0
H114 H 0.94304 0.30847 0.19754 0.0
H115 H 0.04857 0.19014 0.13049 0.0
H116 H 0.04182 0.21536 0.08088 0.0
H117 H 0.00757 0.26527 0.07787 0.0
H118 H 0.98147 0.29065 0.12462 0.0
C119 C 0.97468 0.30221 0.18434 0.0
C120 C -0.01112 0.27054 0.18464 0.0
C121 C 0.0007 0.25524 0.15683 0.0
C122 C 0.01708 0.22557 0.15829 0.0
C123 C 0.03309 0.21191 0.13053 0.0
C124 C 0.02983 0.22626 0.10191 0.0
C125 C 0.01078 0.25442 0.10024 0.0
C126 C -0.00368 0.26885 0.12729 0.0
H127 H 0.98486 0.16147 0.15713 0.0
C128 C 0.01065 0.15699 0.17536 0.0
H129 H 0.05915 0.17372 0.20774 0.0
H130 H 0.97257 0.29356 0.24309 0.0
H131 H 0.9722 0.26704 0.2918 0.0
H132 H -0.01006 0.21399 0.29343 0.0
H133 H 0.00934 0.18742 0.24643 0.0
C134 C 0.03326 0.1791 0.18979 0.0
C135 C 0.01761 0.21042 0.18726 0.0
C136 C 0.00367 0.22537 0.21489 0.0
C137 C -0.0092 0.2556 0.21372 0.0
C138 C 0.9805 0.27033 0.24212 0.0
C139 C 0.98046 0.25541 0.27045 0.0
C140 C -0.00937 0.2256 0.27139 0.0
C141 C 0.00208 0.21066 0.24409 0.0
H142 H 0.03087 0.84085 0.85943 0.0
C143 C -0.003 0.84471 0.84789 0.0
H144 H 0.93346 0.82702 0.83071 0.0
H145 H 0.00533 0.70507 0.78638 0.0
H146 H 0.97539 0.7274 0.73921 0.0
H147 H 0.95074 0.77942 0.73835 0.0
H148 H 0.95489 0.80913 0.78469 0.0
C149 C 0.96732 0.82229 0.84195 0.0
C150 C 0.98343 0.79101 0.84312 0.0
C151 C 0.98243 0.77421 0.81525 0.0
C152 C -0.00122 0.74463 0.81533 0.0
C153 C -0.00486 0.72798 0.78751 0.0
C154 C 0.97772 0.74046 0.7602 0.0
C155 C 0.96369 0.76969 0.75975 0.0
C156 C 0.96602 0.78647 0.78677 0.0
H157 H -0.00623 0.68204 0.87395 0.0
C158 C 0.02026 0.67888 0.85568 0.0
H159 H 0.06589 0.69841 0.82274 0.0
H160 H 0.9826 0.81489 0.90165 0.0
H161 H 0.01609 0.79317 0.94842 0.0
H162 H 0.05308 0.74392 0.94706 0.0
H163 H 0.05564 0.71577 0.89912 0.0
C164 C 0.0395 0.70216 0.84098 0.0
C165 C 0.01836 0.73219 0.84281 0.0
C166 C 0.01922 0.74885 0.87071 0.0
C167 C 0.00034 0.77797 0.87109 0.0
C168 C -0.00134 0.79333 0.89971 0.0
C169 C 0.0174 0.78101 0.92677 0.0
C170 C 0.03805 0.75323 0.92603 0.0
C171 C 0.03907 0.73724 0.89839 0.0
H172 H 0.51842 0.68638 0.628 0.0
C173 C 0.51776 0.68569 0.65331 0.0
H174 H 0.512 0.71019 0.69492 0.0
H175 H 0.5929 0.82543 0.63044 0.0
H176 H 0.66889 0.79937 0.62823 0.0
H177 H 0.67287 0.74598 0.63822 0.0
H178 H 0.60104 0.71828 0.65023 0.0
C179 C 0.51365 0.71078 0.66962 0.0
C180 C 0.51036 0.7403 0.65491 0.0
C181 C 0.55254 0.75593 0.64746 0.0
C182 C 0.55041 0.78676 0.64219 0.0
C183 C 0.59298 0.80206 0.63517 0.0
C184 C 0.63663 0.78735 0.6337 0.0
C185 C 0.63886 0.75728 0.6393 0.0
C186 C 0.59742 0.74165 0.6462 0.0
H187 H 0.53837 0.83007 0.69309 0.0
C188 C 0.52235 0.84515 0.6764 0.0
H189 H 0.48679 0.84838 0.63314 0.0
H190 H 0.42242 0.71573 0.66261 0.0
H191 H 0.34617 0.74148 0.66231 0.0
H192 H 0.34252 0.79505 0.65354 0.0
H193 H 0.41499 0.82323 0.64498 0.0
C194 C 0.50558 0.83432 0.64951 0.0
C195 C 0.50628 0.80186 0.64485 0.0
C196 C 0.46354 0.78567 0.64862 0.0
C197 C 0.46564 0.75482 0.65381 0.0
C198 C 0.42264 0.73925 0.65879 0.0
C199 C 0.37876 0.75373 0.65858 0.0
C200 C 0.3767 0.7839 0.65362 0.0
C201 C 0.41851 0.79983 0.64879 0.0
H202 H 0.50408 0.32953 0.38348 0.0
C203 C 0.51545 0.32912 0.35925 0.0
H204 H 0.53921 0.30303 0.3216 0.0
H205 H 0.61006 0.19062 0.38592 0.0
H206 H 0.68471 0.21789 0.3882 0.0
H207 H 0.68602 0.27139 0.37856 0.0
H208 H 0.61272 0.298 0.36676 0.0
C209 C 0.52671 0.30343 0.3456 0.0
C210 C 0.52375 0.27447 0.36154 0.0
C211 C 0.56649 0.25946 0.36899 0.0
C212 C 0.56582 0.22865 0.37429 0.0
C213 C 0.60907 0.214 0.38124 0.0
C214 C 0.65192 0.2294 0.38275 0.0
C215 C 0.65265 0.25953 0.37734 0.0
C216 C 0.61051 0.27451 0.37047 0.0
H217 H 0.55863 0.18664 0.32318 0.0
C218 C 0.54218 0.17087 0.33899 0.0
H219 H 0.50431 0.16583 0.38141 0.0
H220 H 0.43433 0.29762 0.35368 0.0
H221 H 0.35954 0.27083 0.35492 0.0
H222 H 0.35845 0.21736 0.3645 0.0
H223 H 0.43225 0.19032 0.37281 0.0
C224 C 0.52351 0.18063 0.36596 0.0
C225 C 0.52248 0.21293 0.37171 0.0
C226 C 0.47896 0.22854 0.3685 0.0
C227 C 0.47959 0.25942 0.36315 0.0
C228 C 0.43586 0.27424 0.35804 0.0
C229 C 0.39269 0.25912 0.35869 0.0
C230 C 0.39208 0.229 0.36408 0.0
C231 C 0.43464 0.21374 0.36877 0.0
H232 H 0.38014 0.07475 0.25005 0.0
C233 C 0.39057 0.06547 0.27241 0.0
H234 H 0.36847 0.03849 0.31007 0.0
H235 H 0.17744 0.09345 0.23618 0.0
H236 H 0.1991 0.13902 0.26147 0.0
H237 H 0.27085 0.14186 0.29442 0.0
H238 H 0.32172 0.0992 0.30179 0.0
C239 C 0.35913 0.04894 0.28815 0.0
C240 C 0.31057 0.04509 0.27499 0.0
C241 C 0.28003 0.06984 0.27215 0.0
C242 C 0.23775 0.06785 0.25425 0.0
C243 C 0.20928 0.0934 0.25033 0.0
C244 C 0.2214 0.11978 0.26461 0.0
C245 C 0.26185 0.12141 0.28306 0.0
C246 C 0.29093 0.09681 0.2869 0.0
H247 H 0.14133 0.03355 0.26663 0.0
C248 C 0.13828 0.03696 0.2416 0.0
H249 H 0.17675 0.04387 0.19979 0.0
H250 H 0.35946 0.99313 0.27799 0.0
H251 H 0.33561 0.9467 0.25493 0.0
H252 H 0.26051 0.94279 0.22542 0.0
H253 H 0.2089 0.98538 0.21853 0.0
C254 C 0.1782 0.03841 0.22442 0.0
C255 C 0.22464 0.04064 0.24073 0.0
C256 C 0.25395 0.01556 0.24478 0.0
C257 C 0.29712 0.0178 0.26193 0.0
C258 C 0.32629 0.99257 0.2652 0.0
C259 C 0.31296 0.96582 0.25214 0.0
C260 C 0.27064 0.96361 0.23553 0.0
C261 C 0.24133 0.98815 0.23179 0.0
H262 H 0.65256 0.46605 0.31646 0.0
C263 C 0.64044 0.45259 0.29718 0.0
H264 H 0.65653 0.43536 0.25265 0.0
H265 H 0.83188 0.50983 0.21364 0.0
H266 H 0.77053 0.5363 0.18498 0.0
H267 H 0.68515 0.52733 0.19562 0.0
H268 H 0.66056 0.492 0.2351 0.0
C269 C 0.66901 0.44809 0.27239 0.0
C270 C 0.71928 0.4581 0.27099 0.0
C271 C 0.73299 0.4789 0.24807 0.0
C272 C 0.78211 0.48383 0.24167 0.0
C273 C 0.79493 0.50485 0.21882 0.0
C274 C 0.76013 0.52028 0.20239 0.0
C275 C 0.71205 0.51525 0.2084 0.0
C276 C 0.69841 0.49484 0.23098 0.0
H277 H 0.85371 0.45202 0.20206 0.0
C278 C 0.88022 0.45552 0.22006 0.0
H279 H 0.89537 0.47128 0.26481 0.0
H280 H 0.7054 0.41738 0.31777 0.0
H281 H 0.76633 0.3927 0.34752 0.0
H282 H 0.85155 0.402 0.3372 0.0
H283 H 0.87608 0.43582 0.29696 0.0
C284 C 0.86788 0.46769 0.24746 0.0
C285 C 0.81728 0.46766 0.25799 0.0
C286 C 0.80367 0.44863 0.28276 0.0
C287 C 0.75452 0.44357 0.28904 0.0
C288 C 0.74196 0.42286 0.31242 0.0
C289 C 0.7767 0.40829 0.32966 0.0
C290 C 0.82464 0.4135 0.32383 0.0
C291 C 0.83819 0.43318 0.30058 0.0
H292 H 0.11165 0.94758 0.73738 0.0
C293 C 0.10812 0.95311 0.76194 0.0
H294 H 0.14459 0.96814 0.80191 0.0
H295 H 0.31047 0.90822 0.71063 0.0
H296 H 0.27179 0.86215 0.72368 0.0
H297 H 0.19846 0.86148 0.75573 0.0
H298 H 0.16289 0.90677 0.77421 0.0
C299 C 0.1466 0.96263 0.77731 0.0
C300 C 0.19389 0.96289 0.76145 0.0
C301 C 0.2154 0.93596 0.75221 0.0
C302 C 0.25903 0.93619 0.73531 0.0
C303 C 0.27835 0.90916 0.72469 0.0
C304 C 0.25638 0.88258 0.73185 0.0
C305 C 0.21501 0.88222 0.74976 0.0
C306 C 0.19468 0.90848 0.75996 0.0
H307 H 0.3571 0.94588 0.76095 0.0
C308 C 0.3669 0.95191 0.73721 0.0
H309 H 0.34108 0.96887 0.69441 0.0
H310 H 0.16209 0.01816 0.77549 0.0
H311 H 0.20272 0.06406 0.76391 0.0
H312 H 0.28051 0.06416 0.73669 0.0
H313 H 0.31803 0.01833 0.72057 0.0
C314 C 0.33306 0.96249 0.71826 0.0
C315 C 0.28292 0.96311 0.7297 0.0
C316 C 0.26148 0.98997 0.73875 0.0
C317 C 0.21679 0.98988 0.75464 0.0
C318 C 0.19608 0.01702 0.76346 0.0
C319 C 0.21903 0.04348 0.75697 0.0
C320 C 0.26286 0.04354 0.74165 0.0
C321 C 0.28405 0.01714 0.7326 0.0
H322 H 0.68355 0.56258 0.69757 0.0
C323 C 0.6658 0.57414 0.71653 0.0
H324 H 0.67269 0.59213 0.76162 0.0
H325 H 0.86446 0.5099 0.76905 0.0
H326 H 0.80944 0.46909 0.77524 0.0
H327 H 0.72284 0.47626 0.76807 0.0
H328 H 0.69072 0.52423 0.75442 0.0
C329 C 0.68967 0.5799 0.74286 0.0
C330 C 0.74173 0.57466 0.74535 0.0
C331 C 0.75973 0.54658 0.75352 0.0
C332 C 0.80955 0.54258 0.75824 0.0
C333 C 0.82681 0.51423 0.76587 0.0
C334 C 0.79566 0.49063 0.76934 0.0
C335 C 0.74689 0.49466 0.76526 0.0
C336 C 0.72891 0.52227 0.75743 0.0
H337 H 0.88281 0.55574 0.81008 0.0
C338 C 0.90794 0.56116 0.79158 0.0
H339 H 0.91761 0.56972 0.74368 0.0
H340 H 0.7187 0.6309 0.72805 0.0
H341 H 0.77334 0.67173 0.72208 0.0
H342 H 0.85951 0.66521 0.73145 0.0
H343 H 0.89152 0.61793 0.74665 0.0
C344 C 0.89259 0.5638 0.76207 0.0
C345 C 0.84093 0.56679 0.75517 0.0
C346 C 0.82294 0.59473 0.7462 0.0
C347 C 0.77328 0.59862 0.74125 0.0
C348 C 0.75613 0.62676 0.73241 0.0
C349 C 0.7871 0.65041 0.72884 0.0
C350 C 0.83559 0.64673 0.73407 0.0
C351 C 0.8535 0.61934 0.74271 0.0
H352 H 0.64686 0.97775 0.70327 0.0
C353 C 0.62016 0.98031 0.72152 0.0
H354 H 0.60481 0.99376 0.76722 0.0
H355 H 0.79358 0.93476 0.8155 0.0
H356 H 0.73205 0.90847 0.84326 0.0
H357 H 0.64704 0.91907 0.83379 0.0
H358 H 0.62333 0.95582 0.79638 0.0
C359 C 0.63236 0.991 0.74955 0.0
C360 C 0.68287 0.98986 0.75995 0.0
C361 C 0.69603 0.96907 0.78316 0.0
C362 C 0.74506 0.96326 0.78899 0.0
C363 C 0.75714 0.94087 0.81063 0.0
C364 C 0.72204 0.92535 0.8267 0.0
C365 C 0.67423 0.9313 0.82136 0.0
C366 C 0.66115 0.95265 0.79974 0.0
H367 H 0.8468 0.98266 0.81825 0.0
C368 C 0.85919 0.97081 0.79778 0.0
H369 H 0.84375 0.95738 0.75182 0.0
H370 H 0.6692 0.03486 0.71877 0.0
H371 H 0.73113 0.06282 0.69218 0.0
H372 H 0.8163 0.05271 0.70217 0.0
H373 H 0.84009 0.0147 0.73892 0.0
C374 C 0.8309 0.9684 0.7727 0.0
C375 C 0.78067 0.97878 0.77212 0.0
C376 C 0.7674 1.00117 0.75085 0.0
C377 C 0.71839 0.00682 0.74485 0.0
C378 C 0.70604 0.02936 0.72359 0.0
C379 C 0.74118 0.04564 0.70837 0.0
C380 C 0.78914 0.03995 0.71401 0.0
C381 C 0.80232 0.01802 0.73501 0.0
H382 H 0.38228 0.56015 0.71056 0.0
C383 C 0.4085 0.56504 0.72838 0.0
H384 H 0.42345 0.5675 0.77634 0.0
H385 H 0.21655 0.60964 0.81187 0.0
H386 H 0.26506 0.65114 0.82639 0.0
H387 H 0.35137 0.65173 0.81502 0.0
H388 H 0.38947 0.61088 0.78896 0.0
C389 C 0.39687 0.56267 0.75873 0.0
C390 C 0.34629 0.56008 0.76901 0.0
C391 C 0.32484 0.58396 0.78515 0.0
C392 C 0.27513 0.58358 0.79186 0.0
C393 C 0.25423 0.60836 0.80663 0.0
C394 C 0.28167 0.6325 0.81502 0.0
C395 C 0.33023 0.63283 0.80862 0.0
C396 C 0.35169 0.60905 0.79371 0.0
H397 H 0.18758 0.55309 0.8324 0.0
C398 C 0.1696 0.55948 0.81104 0.0
H399 H 0.17645 0.56725 0.76263 0.0
H400 H 0.37789 0.50877 0.74291 0.0
H401 H 0.32936 0.46659 0.72924 0.0
H402 H 0.24273 0.4664 0.7399 0.0
H403 H 0.20415 0.50831 0.7646 0.0
C404 C 0.19432 0.56128 0.78416 0.0
C405 C 0.24713 0.55916 0.78273 0.0
C406 C 0.26904 0.53466 0.76822 0.0
C407 C 0.31881 0.53498 0.76159 0.0
C408 C 0.33999 0.50995 0.74767 0.0
C409 C 0.3126 0.48555 0.73991 0.0
C410 C 0.26382 0.48543 0.74594 0.0
C411 C 0.24209 0.50963 0.75999 0.0
H412 H 0.66634 0.0356 0.30763 0.0
C413 C 0.64069 0.03563 0.28871 0.0
H414 H 0.62703 0.02608 0.24172 0.0
H415 H 0.82795 0.07466 0.20177 0.0
H416 H 0.77345 0.10774 0.17606 0.0
H417 H 0.68658 0.10329 0.18386 0.0
H418 H 0.65398 0.06587 0.21761 0.0
C419 C 0.65343 0.02617 0.2602 0.0
C420 C 0.70457 0.02458 0.25109 0.0
C421 C 0.72286 0.04596 0.23006 0.0
C422 C 0.7729 0.04825 0.22518 0.0
C423 C 0.79035 0.07113 0.20575 0.0
C424 C 0.75939 0.09054 0.19091 0.0
C425 C 0.71052 0.08805 0.19533 0.0
C426 C 0.69229 0.06627 0.21478 0.0
H427 H 0.86941 0.02114 0.19441 0.0
C428 C 0.88394 0.03118 0.21525 0.0
H429 H 0.87094 0.04399 0.26185 0.0
H430 H 0.68017 0.97824 0.28836 0.0
H431 H 0.73482 0.94385 0.31312 0.0
H432 H 0.82179 0.94789 0.3048 0.0
H433 H 0.85465 0.98622 0.27155 0.0
C434 C 0.85633 0.03459 0.24069 0.0
C435 C 0.80433 0.02868 0.24076 0.0
C436 C 0.78576 0.00613 0.26007 0.0
C437 C 0.73574 0.00397 0.26513 0.0
C438 C 0.71802 0.98114 0.28433 0.0
C439 C 0.74895 0.9612 0.29849 0.0
C440 C 0.79792 0.96347 0.29379 0.0
C441 C 0.81633 0.98561 0.27479 0.0
H442 H 0.14029 0.42838 0.26715 0.0
C443 C 0.13217 0.43382 0.24304 0.0
H444 H 0.16087 0.4488 0.20009 0.0
H445 H 0.34298 0.49762 0.27526 0.0
H446 H 0.30484 0.54381 0.26126 0.0
H447 H 0.22602 0.54444 0.23586 0.0
H448 H 0.18495 0.49883 0.224 0.0
C449 C 0.16735 0.44339 0.22437 0.0
C450 C 0.21705 0.4433 0.23619 0.0
C451 C 0.2404 0.47005 0.24291 0.0
C452 C 0.28565 0.46968 0.25778 0.0
C453 C 0.30845 0.4967 0.26411 0.0
C454 C 0.28695 0.52333 0.25622 0.0
C455 C 0.24255 0.52368 0.24191 0.0
C456 C 0.21933 0.49741 0.23529 0.0
H457 H 0.38658 0.42247 0.24074 0.0
C458 C 0.39201 0.42993 0.26453 0.0
H459 H 0.35952 0.44969 0.30392 0.0
H460 H 0.18586 0.38798 0.22136 0.0
H461 H 0.22188 0.34187 0.23727 0.0
H462 H 0.29579 0.34125 0.2683 0.0
H463 H 0.33465 0.38662 0.28275 0.0
C464 C 0.35531 0.4419 0.28019 0.0
C465 C 0.30712 0.44253 0.26595 0.0
C466 C 0.28345 0.41572 0.25941 0.0
C467 C 0.23935 0.4161 0.24336 0.0
C468 C 0.21823 0.389 0.23495 0.0
C469 C 0.2387 0.36235 0.24372 0.0
C470 C 0.2804 0.36199 0.26104 0.0
C471 C 0.30261 0.38826 0.26891 0.0
H472 H 0.11595 0.02909 0.07889 0.0
C473 C 0.07992 0.03018 0.08833 0.0
H474 H 0.00738 0.02013 0.08089 0.0
H475 H 0.10244 0.01493 0.93781 0.0
H476 H 0.11798 0.06696 0.94401 0.0
H477 H 0.10114 0.09185 0.99388 0.0
H478 H 0.06965 0.06474 0.03802 0.0
C479 C 0.04337 0.01993 0.07135 0.0
C480 C 0.05111 0.00564 0.04043 0.0
C481 C 0.06766 0.02213 0.01443 0.0
C482 C 0.07506 0.00809 0.98515 0.0
C483 C 0.09419 0.02472 0.96014 0.0
C484 C 0.10361 0.05457 0.96344 0.0
C485 C 0.09431 0.06856 0.99156 0.0
C486 C 0.07651 0.05266 0.0168 0.0
H487 H 0.01525 0.98937 0.9292 0.0
C488 C 0.03994 0.97108 0.92645 0.0
H489 H 0.09177 0.9445 0.94833 0.0
H490 H 0.02024 0.96745 0.08554 0.0
H491 H 0.00204 0.91583 0.07881 0.0
H492 H 0.01116 0.89209 0.02752 0.0
H493 H 0.03887 0.91973 0.98269 0.0
C494 C 0.06811 0.96335 0.95041 0.0
C495 C 0.06364 0.97793 0.98145 0.0
C496 C 0.04703 0.9615 0.00744 0.0
C497 C 0.04094 0.97532 0.03692 0.0
C498 C 0.02485 0.95822 0.06251 0.0
C499 C 0.01436 0.92852 0.059 0.0
C500 C 0.01956 0.91515 0.03014 0.0
C501 C 0.03562 0.93131 1.00459 0.0
H502 H 0.94566 0.55477 0.9545 0.0
C503 C 0.97804 0.55055 0.94116 0.0
H504 H 0.04176 0.52575 0.93836 0.0
H505 H 0.97945 0.51668 0.08855 0.0
H506 H -0.00283 0.56872 0.09077 0.0
H507 H 0.01868 0.59621 0.04317 0.0
H508 H 0.02181 0.5719 0.99298 0.0
C509 C 0.01011 0.53105 0.95197 0.0
C510 C 0.00122 0.51418 0.98123 0.0
C511 C 0.00127 0.52851 0.01057 0.0
C512 C -0.00923 0.51238 0.03821 0.0
C513 C -0.01121 0.52758 0.06696 0.0
C514 C -0.00136 0.55751 0.06856 0.0
C515 C 0.0106 0.573 0.04175 0.0
C516 C 0.01199 0.5588 0.01304 0.0
H517 H 0.04041 0.46722 0.08344 0.0
C518 C 0.00439 0.45898 0.08691 0.0
H519 H 0.93504 0.45592 0.06807 0.0
H520 H -0.00099 0.47987 0.92892 0.0
H521 H 0.98383 0.42748 0.92692 0.0
H522 H 0.96799 0.39928 0.975 0.0
H523 H 0.96706 0.42333 0.0254 0.0
C524 C 0.97088 0.46464 0.06539 0.0
C525 C 0.98198 0.48173 0.03661 0.0
C526 C 0.98272 0.46734 0.00735 0.0
C527 C -0.00763 0.48355 0.97966 0.0
C528 C -0.00764 0.46861 0.95073 0.0
C529 C 0.98362 0.43853 0.94923 0.0
C530 C 0.97466 0.42266 0.97629 0.0
C531 C 0.97416 0.43676 1.00507 0.0
H532 H 0.46492 0.48207 0.42229 0.0
C533 C 0.49624 0.46816 0.42499 0.0
H534 H 0.55393 0.45648 0.45399 0.0
H535 H 0.55491 0.57553 0.52885 0.0
H536 H 0.62585 0.58106 0.49686 0.0
H537 H 0.64454 0.54548 0.45525 0.0
H538 H 0.59222 0.50428 0.44525 0.0
C539 C 0.52165 0.46954 0.45142 0.0
C540 C 0.50965 0.49093 0.47654 0.0
C541 C 0.54104 0.51463 0.48245 0.0
C542 C 0.5307 0.53488 0.50679 0.0
C543 C 0.56178 0.55897 0.51135 0.0
C544 C 0.60246 0.56255 0.49297 0.0
C545 C 0.61295 0.54255 0.46952 0.0
C546 C 0.58265 0.51892 0.46411 0.0
H547 H 0.53989 0.535 0.57774 0.0
C548 C 0.50935 0.54981 0.57783 0.0
H549 H 0.44902 0.56459 0.55284 0.0
H550 H 0.44287 0.44719 0.47248 0.0
H551 H 0.37137 0.44216 0.50399 0.0
H552 H 0.35283 0.47775 0.54562 0.0
H553 H 0.40591 0.51851 0.55611 0.0
C554 C 0.48053 0.55062 0.55291 0.0
C555 C 0.48947 0.53102 0.52568 0.0
C556 C 0.45744 0.50777 0.51928 0.0
C557 C 0.46776 0.4875 0.4949 0.0
C558 C 0.43622 0.4637 0.49005 0.0
C559 C 0.39515 0.46043 0.50813 0.0
C560 C 0.38475 0.48044 0.5316 0.0
C561 C 0.4155 0.50377 0.53733 0.0
H562 H 0.47454 0.98717 0.5802 0.0
C563 C 0.49455 0.9667 0.57903 0.0
H564 H 0.53367 0.93773 0.55026 0.0
H565 H 0.41123 0.01957 0.44831 0.0
H566 H 0.3398 0.99879 0.47154 0.0
H567 H 0.3449 0.96641 0.51758 0.0
H568 H 0.42129 0.95506 0.541 0.0
C569 C 0.51245 0.95772 0.55149 0.0
C570 C 0.50869 0.97608 0.52269 0.0
C571 C 0.46378 0.98161 0.50859 0.0
C572 C 0.461 0.99922 0.48115 0.0
C573 C 0.41555 0.0055 0.46845 0.0
C574 C 0.37423 0.99384 0.48165 0.0
C575 C 0.37709 0.9757 0.50764 0.0
C576 C 0.42121 0.96953 0.521 0.0
H577 H 0.47986 0.99134 0.41037 0.0
C578 C 0.48991 0.01439 0.41032 0.0
H579 H 0.51324 0.05007 0.43761 0.0
H580 H 0.60034 0.97029 0.54386 0.0
H581 H 0.67184 0.98963 0.51948 0.0
H582 H 0.66724 0.01841 0.47082 0.0
H583 H 0.59105 0.02818 0.44634 0.0
C584 C 0.50116 0.02741 0.4374 0.0
C585 C 0.50325 0.01028 0.46709 0.0
C586 C 0.54809 0.00465 0.4811 0.0
C587 C 0.55081 0.98762 0.50891 0.0
C588 C 0.59614 0.98267 0.5225 0.0
C589 C 0.63753 0.99372 0.5088 0.0
C590 C 0.63493 0.00995 0.48143 0.0
C591 C 0.59089 0.01543 0.46765 0.0
loop_
_geom_bond_atom_site_label_1
_geom_bond_atom_site_label_2
_geom_bond_distance
_geom_bond_site_symmetry_2
_ccdc_geom_bond_type
Zn0 O3 2.031 . S
Zn0 O5 2.049 1_455 S
Zn0 O10 2.067 . S
Zn1 O2 1.962 . S
Zn1 O4 1.986 1_455 S
Zn1 O6 1.996 1_455 S
Zn1 O9 1.943 . S
O2 Zn1 1.962 . S
O2 C7 1.254 . S
O3 Zn0 2.031 . S
O3 C7 1.269 . S
O4 Zn1 1.986 1_655 S
O4 C11 1.262 1_655 S
O5 Zn0 2.049 1_655 S
O5 C13 1.260 . S
O6 Zn1 1.996 1_655 S
O6 C13 1.257 . S
C7 O2 1.254 . S
C7 O3 1.269 . S
C8 O9 1.249 . S
C8 O10 1.270 . S
O9 Zn1 1.943 . S
O9 C8 1.249 . S
O10 Zn0 2.067 . S
O10 C8 1.270 . S
C11 O4 1.262 1_455 S
C11 O12 1.232 . S
O12 C11 1.232 . S
C13 O5 1.260 . S
C13 O6 1.257 . S
Zn14 O17 2.031 1_455 S
Zn14 O19 2.049 . S
Zn14 O24 2.067 . S
Zn15 O16 1.962 1_455 S
Zn15 O18 1.986 . S
Zn15 O20 1.996 . S
Zn15 O23 1.943 . S
O16 Zn15 1.962 1_655 S
O16 C21 1.254 . S
O17 Zn14 2.031 1_655 S
O17 C21 1.269 . S
O18 Zn15 1.986 . S
O18 C25 1.262 . S
O19 Zn14 2.049 . S
O19 C27 1.260 . S
O20 Zn15 1.996 . S
O20 C27 1.257 . S
C21 O16 1.254 . S
C21 O17 1.269 . S
C22 O23 1.249 . S
C22 O24 1.270 . S
O23 Zn15 1.943 . S
O23 C22 1.249 . S
O24 Zn14 2.067 . S
O24 C22 1.270 . S
C25 O18 1.262 . S
C25 O26 1.232 1_455 S
O26 C25 1.232 1_655 S
C27 O19 1.260 . S
C27 O20 1.257 . S
Zn28 O31 2.031 . S
Zn28 O33 2.049 1_455 S
Zn28 O38 2.067 . S
Zn29 O30 1.962 . S
Zn29 O32 1.986 1_455 S
Zn29 O34 1.996 1_455 S
Zn29 O37 1.943 . S
O30 Zn29 1.962 . S
O30 C35 1.254 . S
O31 Zn28 2.031 . S
O31 C35 1.269 . S
O32 Zn29 1.986 1_655 S
O32 C39 1.262 1_655 S
O33 Zn28 2.049 1_655 S
O33 C41 1.260 . S
O34 Zn29 1.996 1_655 S
O34 C41 1.257 . S
C35 O30 1.254 . S
C35 O31 1.269 . S
C36 O37 1.249 . S
C36 O38 1.270 . S
O37 Zn29 1.943 . S
O37 C36 1.249 . S
O38 Zn28 2.067 . S
O38 C36 1.270 . S
C39 O32 1.262 1_455 S
C39 O40 1.232 . S
O40 C39 1.232 . S
C41 O33 1.260 . S
C41 O34 1.257 . S
Zn42 O45 2.031 1_455 S
Zn42 O47 2.049 . S
Zn42 O52 2.067 . S
Zn43 O44 1.962 1_455 S
Zn43 O46 1.986 . S
Zn43 O48 1.996 . S
Zn43 O51 1.943 . S
O44 Zn43 1.962 1_655 S
O44 C49 1.254 . S
O45 Zn42 2.031 1_655 S
O45 C49 1.269 . S
O46 Zn43 1.986 . S
O46 C53 1.262 . S
O47 Zn42 2.049 . S
O47 C55 1.260 . S
O48 Zn43 1.996 . S
O48 C55 1.257 . S
C49 O44 1.254 . S
C49 O45 1.269 . S
C50 O51 1.249 . S
C50 O52 1.270 . S
O51 Zn43 1.943 . S
O51 C50 1.249 . S
O52 Zn42 2.067 . S
O52 C50 1.270 . S
C53 O46 1.262 . S
C53 O54 1.232 1_455 S
O54 C53 1.232 1_655 S
C55 O47 1.260 . S
C55 O48 1.257 . S
Zn56 O59 2.031 . S
Zn56 O61 2.049 . S
Zn56 O66 2.067 . S
Zn57 O58 1.962 . S
Zn57 O60 1.986 . S
Zn57 O62 1.996 . S
Zn57 O65 1.943 . S
O58 Zn57 1.962 . S
O58 C63 1.254 . S
O59 Zn56 2.031 . S
O59 C63 1.269 . S
O60 Zn57 1.986 . S
O60 C67 1.262 . S
O61 Zn56 2.049 . S
O61 C69 1.260 . S
O62 Zn57 1.996 . S
O62 C69 1.257 . S
C63 O58 1.254 . S
C63 O59 1.269 . S
C64 O65 1.249 . S
C64 O66 1.270 . S
O65 Zn57 1.943 . S
O65 C64 1.249 . S
O66 Zn56 2.067 . S
O66 C64 1.270 . S
C67 O60 1.262 . S
C67 O68 1.232 . S
O68 C67 1.232 . S
C69 O61 1.260 . S
C69 O62 1.257 . S
Zn70 O73 2.031 . S
Zn70 O75 2.049 . S
Zn70 O80 2.067 . S
Zn71 O72 1.962 . S
Zn71 O74 1.986 . S
Zn71 O76 1.996 . S
Zn71 O79 1.943 . S
O72 Zn71 1.962 . S
O72 C77 1.254 . S
O73 Zn70 2.031 . S
O73 C77 1.269 . S
O74 Zn71 1.986 . S
O74 C81 1.262 . S
O75 Zn70 2.049 . S
O75 C83 1.260 . S
O76 Zn71 1.996 . S
O76 C83 1.257 . S
C77 O72 1.254 . S
C77 O73 1.269 . S
C78 O79 1.249 . S
C78 O80 1.270 . S
O79 Zn71 1.943 . S
O79 C78 1.249 . S
O80 Zn70 2.067 . S
O80 C78 1.270 . S
C81 O74 1.262 . S
C81 O82 1.232 . S
O82 C81 1.232 . S
C83 O75 1.260 . S
C83 O76 1.257 . S
Zn84 O87 2.031 . S
Zn84 O89 2.049 . S
Zn84 O94 2.067 . S
Zn85 O86 1.962 . S
Zn85 O88 1.986 . S
Zn85 O90 1.996 . S
Zn85 O93 1.943 . S
O86 Zn85 1.962 . S
O86 C91 1.254 . S
O87 Zn84 2.031 . S
O87 C91 1.269 . S
O88 Zn85 1.986 . S
O88 C95 1.262 . S
O89 Zn84 2.049 . S
O89 C97 1.260 . S
O90 Zn85 1.996 . S
O90 C97 1.257 . S
C91 O86 1.254 . S
C91 O87 1.269 . S
C92 O93 1.249 . S
C92 O94 1.270 . S
O93 Zn85 1.943 . S
O93 C92 1.249 . S
O94 Zn84 2.067 . S
O94 C92 1.270 . S
C95 O88 1.262 . S
C95 O96 1.232 . S
O96 C95 1.232 . S
C97 O89 1.260 . S
C97 O90 1.257 . S
Zn98 O101 2.031 . S
Zn98 O103 2.049 . S
Zn98 O108 2.067 . S
Zn99 O100 1.962 . S
Zn99 O102 1.986 . S
Zn99 O104 1.996 . S
Zn99 O107 1.943 . S
O100 Zn99 1.962 . S
O100 C105 1.254 . S
O101 Zn98 2.031 . S
O101 C105 1.269 . S
O102 Zn99 1.986 . S
O102 C109 1.262 . S
O103 Zn98 2.049 . S
O103 C111 1.260 . S
O104 Zn99 1.996 . S
O104 C111 1.257 . S
C105 O100 1.254 . S
C105 O101 1.269 . S
C106 O107 1.249 . S
C106 O108 1.270 . S
O107 Zn99 1.943 . S
O107 C106 1.249 . S
O108 Zn98 2.067 . S
O108 C106 1.270 . S
C109 O102 1.262 . S
C109 O110 1.232 . S
O110 C109 1.232 . S
C111 O103 1.260 . S
C111 O104 1.257 . S
H112 C113 0.951 . S
C113 H112 0.951 . S
C113 C119 1.265 . S
H114 C119 0.950 1_655 S
H115 C123 0.949 . S
H116 C124 0.950 . S
H117 C125 0.951 . S
H118 C126 0.951 . S
C119 C113 1.265 . S
C119 H114 0.950 1_455 S
C119 C120 1.478 . S
C120 C119 1.478 . S
C120 C121 1.397 . S
C120 C137 1.394 . S
C121 C120 1.397 . S
C121 C122 1.438 . S
C121 C126 1.429 1_455 S
C122 C121 1.438 . S
C122 C123 1.428 . S
C122 C135 1.394 . S
C123 H115 0.949 . S
C123 C122 1.428 . S
C123 C124 1.345 . S
C124 H116 0.950 . S
C124 C123 1.345 . S
C124 C125 1.424 1_455 S
C125 H117 0.951 . S
C125 C124 1.424 1_655 S
C125 C126 1.347 . S
C126 H118 0.951 . S
C126 C121 1.429 1_655 S
C126 C125 1.347 . S
H127 C128 0.951 1_655 S
C128 H127 0.951 1_455 S
C128 C134 1.265 . S
H129 C134 0.950 . S
H130 C138 0.949 . S
H131 C139 0.950 . S
H132 C140 0.951 . S
H133 C141 0.951 . S
C134 C128 1.265 . S
C134 H129 0.950 . S
C134 C135 1.478 . S
C135 C122 1.394 . S
C135 C134 1.478 . S
C135 C136 1.397 . S
C136 C135 1.397 . S
C136 C137 1.438 . S
C136 C141 1.429 . S
C137 C120 1.394 . S
C137 C136 1.438 . S
C137 C138 1.428 . S
C138 H130 0.949 . S
C138 C137 1.428 . S
C138 C139 1.345 . S
C139 H131 0.950 . S
C139 C138 1.345 . S
C139 C140 1.424 . S
C140 H132 0.951 . S
C140 C139 1.424 . S
C140 C141 1.347 . S
C141 H133 0.951 . S
C141 C136 1.429 . S
C141 C140 1.347 . S
H142 C143 0.951 . S
C143 H142 0.951 . S
C143 C149 1.265 . S
H144 C149 0.950 1_655 S
H145 C153 0.949 . S
H146 C154 0.950 . S
H147 C155 0.951 . S
H148 C156 0.951 . S
C149 C143 1.265 . S
C149 H144 0.950 1_455 S
C149 C150 1.478 . S
C150 C149 1.478 . S
C150 C151 1.397 . S
C150 C167 1.394 . S
C151 C150 1.397 . S
C151 C152 1.438 . S
C151 C156 1.429 1_455 S
C152 C151 1.438 . S
C152 C153 1.428 . S
C152 C165 1.394 . S
C153 H145 0.949 . S
C153 C152 1.428 . S
C153 C154 1.345 1_455 S
C154 H146 0.950 . S
C154 C153 1.345 1_655 S
C154 C155 1.424 . S
C155 H147 0.951 . S
C155 C154 1.424 . S
C155 C156 1.347 . S
C156 H148 0.951 . S
C156 C151 1.429 1_655 S
C156 C155 1.347 . S
H157 C158 0.951 1_655 S
C158 H157 0.951 1_455 S
C158 C164 1.265 . S
H159 C164 0.950 . S
H160 C168 0.949 . S
H161 C169 0.950 . S
H162 C170 0.951 . S
H163 C171 0.951 . S
C164 C158 1.265 . S
C164 H159 0.950 . S
C164 C165 1.478 . S
C165 C152 1.394 . S
C165 C164 1.478 . S
C165 C166 1.397 . S
C166 C165 1.397 . S
C166 C167 1.438 . S
C166 C171 1.429 . S
C167 C150 1.394 . S
C167 C166 1.438 . S
C167 C168 1.428 . S
C168 H160 0.949 . S
C168 C167 1.428 . S
C168 C169 1.345 . S
C169 H161 0.950 . S
C169 C168 1.345 . S
C169 C170 1.424 . S
C170 H162 0.951 . S
C170 C169 1.424 . S
C170 C171 1.347 . S
C171 H163 0.951 . S
C171 C166 1.429 . S
C171 C170 1.347 . S
H172 C173 0.951 . S
C173 H172 0.951 . S
C173 C179 1.265 . S
H174 C179 0.950 . S
H175 C183 0.949 . S
H176 C184 0.950 . S
H177 C185 0.951 . S
H178 C186 0.951 . S
C179 C173 1.265 . S
C179 H174 0.950 . S
C179 C180 1.478 . S
C180 C179 1.478 . S
C180 C181 1.397 . S
C180 C197 1.394 . S
C181 C180 1.397 . S
C181 C182 1.438 . S
C181 C186 1.429 . S
C182 C181 1.438 . S
C182 C183 1.428 . S
C182 C195 1.394 . S
C183 H175 0.949 . S
C183 C182 1.428 . S
C183 C184 1.345 . S
C184 H176 0.950 . S
C184 C183 1.345 . S
C184 C185 1.424 . S
C185 H177 0.951 . S
C185 C184 1.424 . S
C185 C186 1.347 . S
C186 H178 0.951 . S
C186 C181 1.429 . S
C186 C185 1.347 . S
H187 C188 0.951 . S
C188 H187 0.951 . S
C188 C194 1.265 . S
H189 C194 0.950 . S
H190 C198 0.949 . S
H191 C199 0.950 . S
H192 C200 0.951 . S
H193 C201 0.951 . S
C194 C188 1.265 . S
C194 H189 0.950 . S
C194 C195 1.478 . S
C195 C182 1.394 . S
C195 C194 1.478 . S
C195 C196 1.397 . S
C196 C195 1.397 . S
C196 C197 1.438 . S
C196 C201 1.429 . S
C197 C180 1.394 . S
C197 C196 1.438 . S
C197 C198 1.428 . S
C198 H190 0.949 . S
C198 C197 1.428 . S
C198 C199 1.345 . S
C199 H191 0.950 . S
C199 C198 1.345 . S
C199 C200 1.424 . S
C200 H192 0.951 . S
C200 C199 1.424 . S
C200 C201 1.347 . S
C201 H193 0.951 . S
C201 C196 1.429 . S
C201 C200 1.347 . S
H202 C203 0.951 . S
C203 H202 0.951 . S
C203 C209 1.265 . S
H204 C209 0.950 . S
H205 C213 0.949 . S
H206 C214 0.950 . S
H207 C215 0.951 . S
H208 C216 0.951 . S
C209 C203 1.265 . S
C209 H204 0.950 . S
C209 C210 1.478 . S
C210 C209 1.478 . S
C210 C211 1.397 . S
C210 C227 1.394 . S
C211 C210 1.397 . S
C211 C212 1.438 . S
C211 C216 1.429 . S
C212 C211 1.438 . S
C212 C213 1.428 . S
C212 C225 1.394 . S
C213 H205 0.949 . S
C213 C212 1.428 . S
C213 C214 1.345 . S
C214 H206 0.950 . S
C214 C213 1.345 . S
C214 C215 1.424 . S
C215 H207 0.951 . S
C215 C214 1.424 . S
C215 C216 1.347 . S
C216 H208 0.951 . S
C216 C211 1.429 . S
C216 C215 1.347 . S
H217 C218 0.951 . S
C218 H217 0.951 . S
C218 C224 1.265 . S
H219 C224 0.950 . S
H220 C228 0.949 . S
H221 C229 0.950 . S
H222 C230 0.951 . S
H223 C231 0.951 . S
C224 C218 1.265 . S
C224 H219 0.950 . S
C224 C225 1.478 . S
C225 C212 1.394 . S
C225 C224 1.478 . S
C225 C226 1.397 . S
C226 C225 1.397 . S
C226 C227 1.438 . S
C226 C231 1.429 . S
C227 C210 1.394 . S
C227 C226 1.438 . S
C227 C228 1.428 . S
C228 H220 0.949 . S
C228 C227 1.428 . S
C228 C229 1.345 . S
C229 H221 0.950 . S
C229 C228 1.345 . S
C229 C230 1.424 . S
C230 H222 0.951 . S
C230 C229 1.424 . S
C230 C231 1.347 . S
C231 H223 0.951 . S
C231 C226 1.429 . S
C231 C230 1.347 . S
H232 C233 0.951 . S
C233 H232 0.951 . S
C233 C239 1.265 . S
H234 C239 0.950 . S
H235 C243 0.949 . S
H236 C244 0.950 . S
H237 C245 0.951 . S
H238 C246 0.951 . S
C239 C233 1.265 . S
C239 H234 0.950 . S
C239 C240 1.478 . S
C240 C239 1.478 . S
C240 C241 1.397 . S
C240 C257 1.394 . S
C241 C240 1.397 . S
C241 C242 1.438 . S
C241 C246 1.429 . S
C242 C241 1.438 . S
C242 C243 1.428 . S
C242 C255 1.394 . S
C243 H235 0.949 . S
C243 C242 1.428 . S
C243 C244 1.345 . S
C244 H236 0.950 . S
C244 C243 1.345 . S
C244 C245 1.424 . S
C245 H237 0.951 . S
C245 C244 1.424 . S
C245 C246 1.347 . S
C246 H238 0.951 . S
C246 C241 1.429 . S
C246 C245 1.347 . S
H247 C248 0.951 . S
C248 H247 0.951 . S
C248 C254 1.265 . S
H249 C254 0.950 . S
H250 C258 0.949 . S
H251 C259 0.950 1_565 S
H252 C260 0.951 1_565 S
H253 C261 0.951 . S
C254 C248 1.265 . S
C254 H249 0.950 . S
C254 C255 1.478 . S
C255 C242 1.394 . S
C255 C254 1.478 . S
C255 C256 1.397 . S
C256 C255 1.397 . S
C256 C257 1.438 . S
C256 C261 1.429 . S
C257 C240 1.394 . S
C257 C256 1.438 . S
C257 C258 1.428 . S
C258 H250 0.949 . S
C258 C257 1.428 . S
C258 C259 1.345 . S
C259 H251 0.950 1_545 S
C259 C258 1.345 . S
C259 C260 1.424 . S
C260 H252 0.951 1_545 S
C260 C259 1.424 . S
C260 C261 1.347 . S
C261 H253 0.951 . S
C261 C256 1.429 . S
C261 C260 1.347 . S
H262 C263 0.951 . S
C263 H262 0.951 . S
C263 C269 1.265 . S
H264 C269 0.950 . S
H265 C273 0.949 . S
H266 C274 0.950 . S
H267 C275 0.951 . S
H268 C276 0.951 . S
C269 C263 1.265 . S
C269 H264 0.950 . S
C269 C270 1.478 . S
C270 C269 1.478 . S
C270 C271 1.397 . S
C270 C287 1.394 . S
C271 C270 1.397 . S
C271 C272 1.438 . S
C271 C276 1.429 . S
C272 C271 1.438 . S
C272 C273 1.428 . S
C272 C285 1.394 . S
C273 H265 0.949 . S
C273 C272 1.428 . S
C273 C274 1.345 . S
C274 H266 0.950 . S
C274 C273 1.345 . S
C274 C275 1.424 . S
C275 H267 0.951 . S
C275 C274 1.424 . S
C275 C276 1.347 . S
C276 H268 0.951 . S
C276 C271 1.429 . S
C276 C275 1.347 . S
H277 C278 0.951 . S
C278 H277 0.951 . S
C278 C284 1.265 . S
H279 C284 0.950 . S
H280 C288 0.949 . S
H281 C289 0.950 . S
H282 C290 0.951 . S
H283 C291 0.951 . S
C284 C278 1.265 . S
C284 H279 0.950 . S
C284 C285 1.478 . S
C285 C272 1.394 . S
C285 C284 1.478 . S
C285 C286 1.397 . S
C286 C285 1.397 . S
C286 C287 1.438 . S
C286 C291 1.429 . S
C287 C270 1.394 . S
C287 C286 1.438 . S
C287 C288 1.428 . S
C288 H280 0.949 . S
C288 C287 1.428 . S
C288 C289 1.345 . S
C289 H281 0.950 . S
C289 C288 1.345 . S
C289 C290 1.424 . S
C290 H282 0.951 . S
C290 C289 1.424 . S
C290 C291 1.347 . S
C291 H283 0.951 . S
C291 C286 1.429 . S
C291 C290 1.347 . S
H292 C293 0.951 . S
C293 H292 0.951 . S
C293 C299 1.265 . S
H294 C299 0.950 . S
H295 C303 0.949 . S
H296 C304 0.950 . S
H297 C305 0.951 . S
H298 C306 0.951 . S
C299 C293 1.265 . S
C299 H294 0.950 . S
C299 C300 1.478 . S
C300 C299 1.478 . S
C300 C301 1.397 . S
C300 C317 1.394 . S
C301 C300 1.397 . S
C301 C302 1.438 . S
C301 C306 1.429 . S
C302 C301 1.438 . S
C302 C303 1.428 . S
C302 C315 1.394 . S
C303 H295 0.949 . S
C303 C302 1.428 . S
C303 C304 1.345 . S
C304 H296 0.950 . S
C304 C303 1.345 . S
C304 C305 1.424 . S
C305 H297 0.951 . S
C305 C304 1.424 . S
C305 C306 1.347 . S
C306 H298 0.951 . S
C306 C301 1.429 . S
C306 C305 1.347 . S
H307 C308 0.951 . S
C308 H307 0.951 . S
C308 C314 1.265 . S
H309 C314 0.950 . S
H310 C318 0.949 . S
H311 C319 0.969 . S
H312 C320 0.951 . S
H313 C321 0.951 . S
C314 C308 1.265 . S
C314 H309 0.950 . S
C314 C315 1.478 . S
C315 C302 1.394 . S
C315 C314 1.478 . S
C315 C316 1.397 . S
C316 C315 1.397 . S
C316 C317 1.438 . S
C316 C321 1.429 . S
C317 C300 1.394 . S
C317 C316 1.438 . S
C317 C318 1.428 . S
C318 H310 0.949 . S
C318 C317 1.428 . S
C318 C319 1.324 1_565 S
C319 H311 0.969 . S
C319 C318 1.324 1_545 S
C319 C320 1.426 . S
C320 H312 0.951 . S
C320 C319 1.426 . S
C320 C321 1.347 1_545 S
C321 H313 0.951 . S
C321 C316 1.429 . S
C321 C320 1.347 1_565 S
H322 C323 0.951 . S
C323 H322 0.951 . S
C323 C329 1.265 . S
H324 C329 0.950 . S
H325 C333 0.949 . S
H326 C334 0.950 . S
H327 C335 0.951 . S
H328 C336 0.951 . S
C329 C323 1.265 . S
C329 H324 0.950 . S
C329 C330 1.478 . S
C330 C329 1.478 . S
C330 C331 1.397 . S
C330 C347 1.394 . S
C331 C330 1.397 . S
C331 C332 1.438 . S
C331 C336 1.429 . S
C332 C331 1.438 . S
C332 C333 1.428 . S
C332 C345 1.394 . S
C333 H325 0.949 . S
C333 C332 1.428 . S
C333 C334 1.345 . S
C334 H326 0.950 . S
C334 C333 1.345 . S
C334 C335 1.424 . S
C335 H327 0.951 . S
C335 C334 1.424 . S
C335 C336 1.347 . S
C336 H328 0.951 . S
C336 C331 1.429 . S
C336 C335 1.347 . S
H337 C338 0.951 . S
C338 H337 0.951 . S
C338 C344 1.265 . S
H339 C344 0.950 . S
H340 C348 0.949 . S
H341 C349 0.950 . S
H342 C350 0.951 . S
H343 C351 0.951 . S
C344 C338 1.265 . S
C344 H339 0.950 . S
C344 C345 1.478 . S
C345 C332 1.394 . S
C345 C344 1.478 . S
C345 C346 1.397 . S
C346 C345 1.397 . S
C346 C347 1.438 . S
C346 C351 1.429 . S
C347 C330 1.394 . S
C347 C346 1.438 . S
C347 C348 1.428 . S
C348 H340 0.949 . S
C348 C347 1.428 . S
C348 C349 1.345 . S
C349 H341 0.950 . S
C349 C348 1.345 . S
C349 C350 1.424 . S
C350 H342 0.951 . S
C350 C349 1.424 . S
C350 C351 1.347 . S
C351 H343 0.951 . S
C351 C346 1.429 . S
C351 C350 1.347 . S
H352 C353 0.951 . S
C353 H352 0.951 . S
C353 C359 1.265 . S
H354 C359 0.950 . S
H355 C363 0.949 . S
H356 C364 0.950 . S
H357 C365 0.951 . S
H358 C366 0.951 . S
C359 C353 1.265 . S
C359 H354 0.950 . S
C359 C360 1.478 . S
C360 C359 1.478 . S
C360 C361 1.397 . S
C360 C377 1.394 . S
C361 C360 1.397 . S
C361 C362 1.438 . S
C361 C366 1.429 . S
C362 C361 1.438 . S
C362 C363 1.428 . S
C362 C375 1.394 . S
C363 H355 0.949 . S
C363 C362 1.428 . S
C363 C364 1.345 . S
C364 H356 0.950 . S
C364 C363 1.345 . S
C364 C365 1.424 . S
C365 H357 0.951 . S
C365 C364 1.424 . S
C365 C366 1.347 . S
C366 H358 0.951 . S
C366 C361 1.429 . S
C366 C365 1.347 . S
H367 C368 0.951 . S
C368 H367 0.951 . S
C368 C374 1.265 . S
H369 C374 0.950 . S
H370 C378 0.949 . S
H371 C379 0.950 . S
H372 C380 0.951 . S
H373 C381 0.951 . S
C374 C368 1.265 . S
C374 H369 0.950 . S
C374 C375 1.478 . S
C375 C362 1.394 . S
C375 C374 1.478 . S
C375 C376 1.397 . S
C376 C375 1.397 . S
C376 C377 1.438 . S
C376 C381 1.429 . S
C377 C360 1.394 . S
C377 C376 1.438 . S
C377 C378 1.428 . S
C378 H370 0.949 . S
C378 C377 1.428 . S
C378 C379 1.345 1_565 S
C379 H371 0.950 . S
C379 C378 1.345 1_545 S
C379 C380 1.424 . S
C380 H372 0.951 . S
C380 C379 1.424 . S
C380 C381 1.347 1_545 S
C381 H373 0.951 . S
C381 C376 1.429 . S
C381 C380 1.347 1_565 S
H382 C383 0.951 . S
C383 H382 0.951 . S
C383 C389 1.265 . S
H384 C389 0.950 . S
H385 C393 0.949 . S
H386 C394 0.950 . S
H387 C395 0.951 . S
H388 C396 0.951 . S
C389 C383 1.265 . S
C389 H384 0.950 . S
C389 C390 1.478 . S
C390 C389 1.478 . S
C390 C391 1.397 . S
C390 C407 1.394 . S
C391 C390 1.397 . S
C391 C392 1.438 . S
C391 C396 1.429 . S
C392 C391 1.438 . S
C392 C393 1.428 . S
C392 C405 1.394 . S
C393 H385 0.949 . S
C393 C392 1.428 . S
C393 C394 1.345 . S
C394 H386 0.950 . S
C394 C393 1.345 . S
C394 C395 1.424 . S
C395 H387 0.951 . S
C395 C394 1.424 . S
C395 C396 1.347 . S
C396 H388 0.951 . S
C396 C391 1.429 . S
C396 C395 1.347 . S
H397 C398 0.951 . S
C398 H397 0.951 . S
C398 C404 1.265 . S
H399 C404 0.950 . S
H400 C408 0.949 . S
H401 C409 0.950 . S
H402 C410 0.951 . S
H403 C411 0.951 . S
C404 C398 1.265 . S
C404 H399 0.950 . S
C404 C405 1.478 . S
C405 C392 1.394 . S
C405 C404 1.478 . S
C405 C406 1.397 . S
C406 C405 1.397 . S
C406 C407 1.438 . S
C406 C411 1.429 . S
C407 C390 1.394 . S
C407 C406 1.438 . S
C407 C408 1.428 . S
C408 H400 0.949 . S
C408 C407 1.428 . S
C408 C409 1.345 . S
C409 H401 0.950 . S
C409 C408 1.345 . S
C409 C410 1.424 . S
C410 H402 0.951 . S
C410 C409 1.424 . S
C410 C411 1.347 . S
C411 H403 0.951 . S
C411 C406 1.429 . S
C411 C410 1.347 . S
H412 C413 0.951 . S
C413 H412 0.951 . S
C413 C419 1.265 . S
H414 C419 0.950 . S
H415 C423 0.949 . S
H416 C424 0.950 . S
H417 C425 0.951 . S
H418 C426 0.951 . S
C419 C413 1.265 . S
C419 H414 0.950 . S
C419 C420 1.478 . S
C420 C419 1.478 . S
C420 C421 1.397 . S
C420 C437 1.394 . S
C421 C420 1.397 . S
C421 C422 1.438 . S
C421 C426 1.429 . S
C422 C421 1.438 . S
C422 C423 1.428 . S
C422 C435 1.394 . S
C423 H415 0.949 . S
C423 C422 1.428 . S
C423 C424 1.345 . S
C424 H416 0.950 . S
C424 C423 1.345 . S
C424 C425 1.424 . S
C425 H417 0.951 . S
C425 C424 1.424 . S
C425 C426 1.347 . S
C426 H418 0.951 . S
C426 C421 1.429 . S
C426 C425 1.347 . S
H427 C428 0.951 . S
C428 H427 0.951 . S
C428 C434 1.265 . S
H429 C434 0.950 . S
H430 C438 0.949 . S
H431 C439 0.936 1_565 S
H432 C440 0.948 1_565 S
H433 C441 0.951 . S
C434 C428 1.265 . S
C434 H429 0.950 . S
C434 C435 1.478 . S
C435 C422 1.394 . S
C435 C434 1.478 . S
C435 C436 1.397 . S
C436 C435 1.397 . S
C436 C437 1.438 . S
C436 C441 1.429 . S
C437 C420 1.394 . S
C437 C436 1.438 . S
C437 C438 1.428 . S
C438 H430 0.949 . S
C438 C437 1.428 . S
C438 C439 1.359 . S
C439 H431 0.936 1_545 S
C439 C438 1.359 . S
C439 C440 1.424 . S
C440 H432 0.948 1_545 S
C440 C439 1.424 . S
C440 C441 1.350 . S
C441 H433 0.951 . S
C441 C436 1.429 . S
C441 C440 1.350 . S
H442 C443 0.951 . S
C443 H442 0.951 . S
C443 C449 1.265 . S
H444 C449 0.950 . S
H445 C453 0.949 . S
H446 C454 0.950 . S
H447 C455 0.951 . S
H448 C456 0.951 . S
C449 C443 1.265 . S
C449 H444 0.950 . S
C449 C450 1.478 . S
C450 C449 1.478 . S
C450 C451 1.397 . S
C450 C467 1.394 . S
C451 C450 1.397 . S
C451 C452 1.438 . S
C451 C456 1.429 . S
C452 C451 1.438 . S
C452 C453 1.428 . S
C452 C465 1.394 . S
C453 H445 0.949 . S
C453 C452 1.428 . S
C453 C454 1.345 . S
C454 H446 0.950 . S
C454 C453 1.345 . S
C454 C455 1.424 . S
C455 H447 0.951 . S
C455 C454 1.424 . S
C455 C456 1.347 . S
C456 H448 0.951 . S
C456 C451 1.429 . S
C456 C455 1.347 . S
H457 C458 0.951 . S
C458 H457 0.951 . S
C458 C464 1.265 . S
H459 C464 0.950 . S
H460 C468 0.949 . S
H461 C469 0.950 . S
H462 C470 0.951 . S
H463 C471 0.951 . S
C464 C458 1.265 . S
C464 H459 0.950 . S
C464 C465 1.478 . S
C465 C452 1.394 . S
C465 C464 1.478 . S
C465 C466 1.397 . S
C466 C465 1.397 . S
C466 C467 1.438 . S
C466 C471 1.429 . S
C467 C450 1.394 . S
C467 C466 1.438 . S
C467 C468 1.428 . S
C468 H460 0.949 . S
C468 C467 1.428 . S
C468 C469 1.345 . S
C469 H461 0.950 . S
C469 C468 1.345 . S
C469 C470 1.424 . S
C470 H462 0.951 . S
C470 C469 1.424 . S
C470 C471 1.347 . S
C471 H463 0.951 . S
C471 C466 1.429 . S
C471 C470 1.347 . S
H472 C473 0.951 . S
C473 H472 0.951 . S
C473 C479 1.265 . S
H474 C479 0.950 1_655 S
H475 C483 0.949 . S
H476 C484 0.950 . S
H477 C485 0.951 . S
H478 C486 0.951 1_554 S
C479 C473 1.265 . S
C479 H474 0.950 1_455 S
C479 C480 1.478 . S
C480 C479 1.478 . S
C480 C481 1.397 1_554 S
C480 C497 1.394 1_545 S
C481 C480 1.397 1_556 S
C481 C482 1.438 . S
C481 C486 1.429 . S
C482 C481 1.438 . S
C482 C483 1.428 . S
C482 C495 1.394 1_545 S
C483 H475 0.949 . S
C483 C482 1.428 . S
C483 C484 1.345 . S
C484 H476 0.950 . S
C484 C483 1.345 . S
C484 C485 1.424 . S
C485 H477 0.951 . S
C485 C484 1.424 . S
C485 C486 1.347 . S
C486 H478 0.951 1_556 S
C486 C481 1.429 . S
C486 C485 1.347 . S
H487 C488 0.951 1_655 S
C488 H487 0.951 1_455 S
C488 C494 1.265 . S
H489 C494 0.950 . S
H490 C498 0.949 1_655 S
H491 C499 0.950 1_655 S
H492 C500 0.951 . S
H493 C501 0.951 1_556 S
C494 C488 1.265 . S
C494 H489 0.950 . S
C494 C495 1.478 . S
C495 C482 1.394 1_565 S
C495 C494 1.478 . S
C495 C496 1.397 1_556 S
C496 C495 1.397 1_554 S
C496 C497 1.438 . S
C496 C501 1.429 . S
C497 C480 1.394 1_565 S
C497 C496 1.438 . S
C497 C498 1.428 . S
C498 H490 0.949 1_455 S
C498 C497 1.428 . S
C498 C499 1.345 . S
C499 H491 0.950 1_455 S
C499 C498 1.345 . S
C499 C500 1.424 . S
C500 H492 0.951 . S
C500 C499 1.424 . S
C500 C501 1.347 . S
C501 H493 0.951 1_554 S
C501 C496 1.429 . S
C501 C500 1.347 . S
H502 C503 0.951 1_655 S
C503 H502 0.951 1_455 S
C503 C509 1.265 . S
H504 C509 0.950 . S
H505 C513 0.949 . S
H506 C514 0.950 . S
H507 C515 0.951 . S
H508 C516 0.951 1_556 S
C509 C503 1.265 . S
C509 H504 0.950 . S
C509 C510 1.478 . S
C510 C509 1.478 . S
C510 C511 1.397 1_556 S
C510 C527 1.394 . S
C511 C510 1.397 1_554 S
C511 C512 1.438 . S
C511 C516 1.429 . S
C512 C511 1.438 . S
C512 C513 1.428 . S
C512 C525 1.394 . S
C513 H505 0.949 . S
C513 C512 1.428 . S
C513 C514 1.345 . S
C514 H506 0.950 . S
C514 C513 1.345 . S
C514 C515 1.424 . S
C515 H507 0.951 . S
C515 C514 1.424 . S
C515 C516 1.347 . S
C516 H508 0.951 1_554 S
C516 C511 1.429 . S
C516 C515 1.347 . S
H517 C518 0.951 . S
C518 H517 0.951 . S
C518 C524 1.265 . S
H519 C524 0.950 1_655 S
H520 C528 0.949 . S
H521 C529 0.950 . S
H522 C530 0.951 . S
H523 C531 0.951 1_554 S
C524 C518 1.265 . S
C524 H519 0.950 1_455 S
C524 C525 1.478 . S
C525 C512 1.394 . S
C525 C524 1.478 . S
C525 C526 1.397 1_554 S
C526 C525 1.397 1_556 S
C526 C527 1.438 . S
C526 C531 1.429 . S
C527 C510 1.394 . S
C527 C526 1.438 . S
C527 C528 1.428 . S
C528 H520 0.949 . S
C528 C527 1.428 . S
C528 C529 1.345 . S
C529 H521 0.950 . S
C529 C528 1.345 . S
C529 C530 1.424 . S
C530 H522 0.951 . S
C530 C529 1.424 . S
C530 C531 1.347 . S
C531 H523 0.951 1_556 S
C531 C526 1.429 . S
C531 C530 1.347 . S
H532 C533 0.951 . S
C533 H532 0.951 . S
C533 C539 1.265 . S
H534 C539 0.950 . S
H535 C543 0.949 . S
H536 C544 0.950 . S
H537 C545 0.951 . S
H538 C546 0.951 . S
C539 C533 1.265 . S
C539 H534 0.950 . S
C539 C540 1.478 . S
C540 C539 1.478 . S
C540 C541 1.397 . S
C540 C557 1.394 . S
C541 C540 1.397 . S
C541 C542 1.438 . S
C541 C546 1.429 . S
C542 C541 1.438 . S
C542 C543 1.428 . S
C542 C555 1.394 . S
C543 H535 0.949 . S
C543 C542 1.428 . S
C543 C544 1.345 . S
C544 H536 0.950 . S
C544 C543 1.345 . S
C544 C545 1.424 . S
C545 H537 0.951 . S
C545 C544 1.424 . S
C545 C546 1.347 . S
C546 H538 0.951 . S
C546 C541 1.429 . S
C546 C545 1.347 . S
H547 C548 0.951 . S
C548 H547 0.951 . S
C548 C554 1.265 . S
H549 C554 0.950 . S
H550 C558 0.949 . S
H551 C559 0.950 . S
H552 C560 0.951 . S
H553 C561 0.951 . S
C554 C548 1.265 . S
C554 H549 0.950 . S
C554 C555 1.478 . S
C555 C542 1.394 . S
C555 C554 1.478 . S
C555 C556 1.397 . S
C556 C555 1.397 . S
C556 C557 1.438 . S
C556 C561 1.429 . S
C557 C540 1.394 . S
C557 C556 1.438 . S
C557 C558 1.428 . S
C558 H550 0.949 . S
C558 C557 1.428 . S
C558 C559 1.345 . S
C559 H551 0.950 . S
C559 C558 1.345 . S
C559 C560 1.424 . S
C560 H552 0.951 . S
C560 C559 1.424 . S
C560 C561 1.347 . S
C561 H553 0.951 . S
C561 C556 1.429 . S
C561 C560 1.347 . S
H562 C563 0.951 . S
C563 H562 0.951 . S
C563 C569 1.265 . S
H564 C569 0.950 . S
H565 C573 0.949 . S
H566 C574 0.950 . S
H567 C575 0.951 . S
H568 C576 0.951 1_565 S
C569 C563 1.265 . S
C569 H564 0.950 . S
C569 C570 1.478 . S
C570 C569 1.478 . S
C570 C571 1.388 1_565 S
C570 C587 1.394 . S
C571 C570 1.388 1_545 S
C571 C572 1.446 . S
C571 C576 1.430 . S
C572 C571 1.446 . S
C572 C573 1.428 . S
C572 C585 1.394 . S
C573 H565 0.949 . S
C573 C572 1.428 . S
C573 C574 1.345 . S
C574 H566 0.950 . S
C574 C573 1.345 . S
C574 C575 1.424 . S
C575 H567 0.951 . S
C575 C574 1.424 . S
C575 C576 1.347 . S
C576 H568 0.951 1_545 S
C576 C571 1.430 . S
C576 C575 1.347 . S
H577 C578 0.951 . S
C578 H577 0.951 . S
C578 C584 1.265 . S
H579 C584 0.950 . S
H580 C588 0.949 . S
H581 C589 0.950 . S
H582 C590 0.951 . S
H583 C591 0.951 1_545 S
C584 C578 1.265 . S
C584 H579 0.950 . S
C584 C585 1.478 . S
C585 C572 1.394 . S
C585 C584 1.478 . S
C585 C586 1.388 1_545 S
C586 C585 1.388 1_565 S
C586 C587 1.446 . S
C586 C591 1.430 . S
C587 C570 1.394 . S
C587 C586 1.446 . S
C587 C588 1.428 . S
C588 H580 0.949 . S
C588 C587 1.428 . S
C588 C589 1.345 . S
C589 H581 0.950 . S
C589 C588 1.345 . S
C589 C590 1.424 . S
C590 H582 0.951 . S
C590 C589 1.424 . S
C590 C591 1.347 . S
C591 H583 0.951 1_565 S
C591 C586 1.430 . S
C591 C590 1.347 . S
C113 C22 1.371 . S
C128 C8 1.389 . S
C143 C36 1.441 . S
C158 C50 1.439 . S
C173 C64 1.379 . S
C188 C78 1.379 . S
C203 C92 1.378 . S
C218 C106 1.380 . S
C233 C105 1.483 . S
C248 C7 1.481 . S
C263 C91 1.510 . S
C278 C21 1.510 . S
C293 C35 1.487 . S
C308 C77 1.478 . S
C323 C63 1.510 . S
C338 C49 1.510 . S
C353 C83 1.278 . S
C368 C41 1.270 . S
C383 C69 1.278 . S
C398 C55 1.271 . S
C413 C111 1.273 . S
C428 C13 1.276 . S
C443 C27 1.143 . S
C458 C97 1.157 . S
C473 C11 1.331 . S
C488 C39 1.362 . S
C503 C53 1.329 . S
C518 C25 1.363 . S
C533 C95 1.354 . S
C548 C67 1.340 . S
C563 C81 1.359 . S
C578 C109 1.334 . S
