# Generated by pormake.
# Topology wjf, (4)-cn, num edge types: 1
# Building blocks:
#     Node 0, Type 0, BuildingBlock: AZAVOO_clean_sbu_0, # of connection points: 4
#     Node 1, Type 0, BuildingBlock: AZAVOO_clean_sbu_0, # of connection points: 4
#     Node 2, Type 0, BuildingBlock: AZAVOO_clean_sbu_0, # of connection points: 4
#     Node 3, Type 0, BuildingBlock: AZAVOO_clean_sbu_0, # of connection points: 4
#     Node 4, Type 0, BuildingBlock: AZAVOO_clean_sbu_0, # of connection points: 4
#     Node 5, Type 0, BuildingBlock: AZAVOO_clean_sbu_0, # of connection points: 4
#     Node 6, Type 0, BuildingBlock: AZAVOO_clean_sbu_0, # of connection points: 4
#     Node 7, Type 0, BuildingBlock: AZAVOO_clean_sbu_0, # of connection points: 4
#     Node 8, Type 0, BuildingBlock: AZAVOO_clean_sbu_0, # of connection points: 4
#     Node 9, Type 0, BuildingBlock: AZAVOO_clean_sbu_0, # of connection points: 4
#     Node 10, Type 0, BuildingBlock: AZAVOO_clean_sbu_0, # of connection points: 4
#     Node 11, Type 0, BuildingBlock: AZAVOO_clean_sbu_0, # of connection points: 4
#     Edge 12, Type (0, 0), BuildingBlock: TEMPAE_clean_linker_10, # of connection points: 2
#     Edge 13, Type (0, 0), BuildingBlock: TEMPAE_clean_linker_10, # of connection points: 2
#     Edge 14, Type (0, 0), BuildingBlock: TEMPAE_clean_linker_10, # of connection points: 2
#     Edge 15, Type (0, 0), BuildingBlock: TEMPAE_clean_linker_10, # of connection points: 2
#     Edge 16, Type (0, 0), BuildingBlock: TEMPAE_clean_linker_10, # of connection points: 2
#     Edge 17, Type (0, 0), BuildingBlock: TEMPAE_clean_linker_10, # of connection points: 2
#     Edge 18, Type (0, 0), BuildingBlock: TEMPAE_clean_linker_10, # of connection points: 2
#     Edge 19, Type (0, 0), BuildingBlock: TEMPAE_clean_linker_10, # of connection points: 2
#     Edge 20, Type (0, 0), BuildingBlock: TEMPAE_clean_linker_10, # of connection points: 2
#     Edge 21, Type (0, 0), BuildingBlock: TEMPAE_clean_linker_10, # of connection points: 2
#     Edge 22, Type (0, 0), BuildingBlock: TEMPAE_clean_linker_10, # of connection points: 2
#     Edge 23, Type (0, 0), BuildingBlock: TEMPAE_clean_linker_10, # of connection points: 2
#     Edge 24, Type (0, 0), BuildingBlock: TEMPAE_clean_linker_10, # of connection points: 2
#     Edge 25, Type (0, 0), BuildingBlock: TEMPAE_clean_linker_10, # of connection points: 2
#     Edge 26, Type (0, 0), BuildingBlock: TEMPAE_clean_linker_10, # of connection points: 2
#     Edge 27, Type (0, 0), BuildingBlock: TEMPAE_clean_linker_10, # of connection points: 2
#     Edge 28, Type (0, 0), BuildingBlock: TEMPAE_clean_linker_10, # of connection points: 2
#     Edge 29, Type (0, 0), BuildingBlock: TEMPAE_clean_linker_10, # of connection points: 2
#     Edge 30, Type (0, 0), BuildingBlock: TEMPAE_clean_linker_10, # of connection points: 2
#     Edge 31, Type (0, 0), BuildingBlock: TEMPAE_clean_linker_10, # of connection points: 2
#     Edge 32, Type (0, 0), BuildingBlock: TEMPAE_clean_linker_10, # of connection points: 2
#     Edge 33, Type (0, 0), BuildingBlock: TEMPAE_clean_linker_10, # of connection points: 2
#     Edge 34, Type (0, 0), BuildingBlock: TEMPAE_clean_linker_10, # of connection points: 2
#     Edge 35, Type (0, 0), BuildingBlock: TEMPAE_clean_linker_10, # of connection points: 2
# Relax obj value: 0.276
# Max RMSD: 0.291
# Mean RMSD: 0.281
data_MOF--net-wjf--node1-AZAVOO_clean_sbu_0--edge1-TEMPAE_clean_linker_10
_symmetry_space_group_name_H-M    P1
_symmetry_Int_Tables_number       1
_symmetry_cell_setting            triclinic
loop_
_symmetry_equiv_pos_as_xyz
'x, y, z'
_cell_length_a     50.424842
_cell_length_b     51.725213
_cell_length_c     26.502867
_cell_angle_alpha  89.949993
_cell_angle_beta   90.029964
_cell_angle_gamma 119.13741
loop_
_atom_site_label
_atom_site_type_symbol
_atom_site_fract_x
_atom_site_fract_y
_atom_site_fract_z
_atom_type_partial_charge
Mg0 Mg 0.3327 0.37469 0.07967 0.0
O1 O 0.33682 0.3564 0.00373 0.0
O2 O 0.37508 0.34637 0.00689 0.0
Mg3 Mg 0.39453 0.35654 0.08662 0.0
C4 C 0.35373 0.34753 0.98298 0.0
C5 C 0.28889 0.38492 0.01323 0.0
O6 O 0.31522 0.40064 0.99082 0.0
O7 O 0.30971 0.3285 0.11548 0.0
O8 O 0.34989 0.3215 0.12192 0.0
O9 O 0.368 0.42024 0.05542 0.0
O10 O 0.37855 0.38898 0.09545 0.0
C11 C 0.32187 0.31311 0.13013 0.0
C12 C 0.38816 0.41414 0.07349 0.0
O13 O 0.28768 0.37047 0.05284 0.0
Mg14 Mg 0.94778 0.33117 0.36413 0.0
O15 O 0.97519 0.33557 0.29393 0.0
O16 O 0.02308 0.37141 0.30249 0.0
Mg17 Mg 0.02702 0.3882 0.38333 0.0
C18 C 0.00183 0.35123 0.27647 0.0
C19 C 0.90094 0.29298 0.28466 0.0
O20 O 0.91558 0.3187 0.26177 0.0
O21 O 0.96794 0.30555 0.40444 0.0
O22 O 0.01483 0.34287 0.41695 0.0
O23 O 0.93931 0.3672 0.33655 0.0
O24 O 0.9783 0.37479 0.38451 0.0
C25 C 0.99466 0.31574 0.42265 0.0
C26 C 0.96423 0.38558 0.35898 0.0
O27 O 0.90904 0.29019 0.32898 0.0
Mg28 Mg 0.5879 0.93515 0.77535 0.0
O29 O 0.54684 0.9429 0.76922 0.0
O30 O 0.53182 0.93515 0.68851 0.0
Mg31 Mg 0.56528 0.9269 0.64252 0.0
C32 C 0.5289 0.94153 0.73397 0.0
C33 C 0.59384 0.91667 0.88361 0.0
O34 O 0.60474 0.90234 0.85752 0.0
O35 O 0.55927 0.88532 0.7643 0.0
O36 O 0.55085 0.88235 0.68116 0.0
O37 O 0.6193 0.98328 0.76183 0.0
O38 O 0.59903 0.94911 0.70217 0.0
C39 C 0.54932 0.8702 0.72384 0.0
C40 C 0.6152 0.97649 0.71442 0.0
O41 O 0.58339 0.93119 0.86015 0.0
Mg42 Mg 0.66123 0.60718 0.12888 0.0
O43 O 0.65588 0.6339 0.06556 0.0
O44 O 0.61325 0.63634 0.07632 0.0
Mg45 Mg 0.59231 0.61307 0.15085 0.0
C46 C 0.63711 0.64221 0.0512 0.0
C47 C 0.71078 0.61459 0.0537 0.0
O48 O 0.6859 0.6022 0.02636 0.0
O49 O 0.67809 0.64702 0.18221 0.0
O50 O 0.63374 0.64581 0.19622 0.0
O51 O 0.63097 0.56508 0.08701 0.0
O52 O 0.61431 0.58572 0.1421 0.0
C53 C 0.66212 0.65654 0.20472 0.0
C54 C 0.60828 0.56523 0.1095 0.0
O55 O 0.7089 0.6206 0.09968 0.0
Mg56 Mg 0.0627 0.6583 0.40224 0.0
O57 O 0.03506 0.66033 0.33643 0.0
O58 O 0.98651 0.6257 0.34506 0.0
Mg59 Mg 0.98274 0.60258 0.42042 0.0
C60 C 0.00778 0.64691 0.3206 0.0
C61 C 0.11182 0.69943 0.32867 0.0
O62 O 0.09558 0.67572 0.30125 0.0
O63 O 0.04503 0.68265 0.45221 0.0
O64 O 0.99791 0.64551 0.46507 0.0
O65 O 0.0686 0.62333 0.36321 0.0
O66 O 0.03065 0.6139 0.41494 0.0
C67 C 0.01907 0.67191 0.47354 0.0
C68 C 0.04343 0.60419 0.38402 0.0
O69 O 0.10332 0.70034 0.37357 0.0
Mg70 Mg 0.33106 0.03215 0.80335 0.0
O71 O 0.37265 0.0269 0.78386 0.0
O72 O 0.37594 0.02491 0.69998 0.0
Mg73 Mg 0.33807 0.03139 0.66603 0.0
C74 C 0.38528 0.02384 0.74425 0.0
C75 C 0.32958 0.03929 0.91932 0.0
O76 O 0.30197 0.03357 0.9073 0.0
O77 O 0.35567 0.08134 0.7823 0.0
O78 O 0.35947 0.07801 0.69873 0.0
O79 O 0.30535 0.98305 0.79981 0.0
O80 O 0.3111 0.01251 0.73507 0.0
C81 C 0.36443 0.09326 0.7389 0.0
C82 C 0.30333 0.9864 0.75178 0.0
O83 O 0.3478 0.04165 0.88429 0.0
Mg84 Mg 0.60511 0.66637 0.58242 0.0
O85 O 0.62687 0.66909 0.65893 0.0
O86 O 0.64917 0.64094 0.65729 0.0
Mg87 Mg 0.64326 0.62138 0.5784 0.0
C88 C 0.64184 0.65819 0.6803 0.0
C89 C 0.57662 0.69809 0.64132 0.0
O90 O 0.56255 0.67133 0.66067 0.0
O91 O 0.65127 0.69784 0.54708 0.0
O92 O 0.67065 0.66725 0.54231 0.0
O93 O 0.56337 0.62532 0.6068 0.0
O94 O 0.60198 0.62508 0.56826 0.0
C95 C 0.67231 0.69229 0.53338 0.0
C96 C 0.57599 0.61047 0.58987 0.0
O97 O 0.59652 0.70389 0.60721 0.0
Mg98 Mg 0.95496 0.62987 0.85262 0.0
O99 O 0.97717 0.64868 0.92818 0.0
O100 O 0.02553 0.65888 0.92613 0.0
Mg101 Mg 0.03506 0.64828 0.84684 0.0
C102 C 0.00288 0.65785 0.9493 0.0
C103 C 0.89861 0.61834 0.91495 0.0
O104 O 0.90603 0.5994 0.93456 0.0
O105 O 0.97821 0.6759 0.81647 0.0
O106 O 0.02555 0.68327 0.81088 0.0
O107 O 0.94511 0.58448 0.87793 0.0
O108 O 0.98672 0.61571 0.83761 0.0
C109 C 0.0058 0.69148 0.80227 0.0
C110 C 0.9714 0.59067 0.85995 0.0
O111 O 0.91443 0.63479 0.87877 0.0
Mg112 Mg 0.34511 0.92351 0.33718 0.0
O113 O 0.39346 0.93218 0.32527 0.0
O114 O 0.40073 0.90098 0.37381 0.0
Mg115 Mg 0.35711 0.87332 0.41927 0.0
C116 C 0.41028 0.9219 0.34146 0.0
C117 C 0.359 0.9768 0.26236 0.0
O118 O 0.36933 0.99315 0.30313 0.0
O119 O 0.32507 0.88058 0.29323 0.0
O120 O 0.32857 0.85004 0.34911 0.0
O121 O 0.35996 0.95553 0.40155 0.0
O122 O 0.34369 0.90771 0.40979 0.0
C123 C 0.3191 0.85466 0.30708 0.0
C124 C 0.35353 0.93311 0.43072 0.0
O125 O 0.34864 0.94902 0.26545 0.0
Mg126 Mg 0.41531 0.33721 0.53235 0.0
O127 O 0.38711 0.33988 0.59649 0.0
O128 O 0.37857 0.37796 0.58568 0.0
Mg129 Mg 0.39991 0.39873 0.50964 0.0
C130 C 0.37583 0.35588 0.6112 0.0
C131 C 0.41655 0.29297 0.60827 0.0
O132 O 0.43272 0.3184 0.63131 0.0
O133 O 0.37346 0.31624 0.48089 0.0
O134 O 0.36866 0.35636 0.46629 0.0
O135 O 0.45771 0.37042 0.5719 0.0
O136 O 0.43256 0.38226 0.51686 0.0
C137 C 0.3606 0.32912 0.45857 0.0
C138 C 0.45438 0.3907 0.54881 0.0
O139 O 0.40591 0.29273 0.5646 0.0
Mg140 Mg 0.06171 0.4043 0.81608 0.0
O141 O 0.03563 0.37956 0.8855 0.0
O142 O 0.98803 0.37156 0.88211 0.0
Mg143 Mg 0.9831 0.39017 0.80637 0.0
C144 C 0.00929 0.36946 0.90458 0.0
C145 C 0.11109 0.40402 0.88411 0.0
O146 O 0.10106 0.41856 0.91166 0.0
O147 O 0.03844 0.36181 0.76942 0.0
O148 O 0.9923 0.3575 0.76126 0.0
O149 O 0.07232 0.44739 0.85319 0.0
O150 O 0.03215 0.42152 0.8054 0.0
C151 C 0.01158 0.34891 0.75122 0.0
C152 C 0.04717 0.44399 0.8342 0.0
O153 O 0.09961 0.39492 0.84065 0.0
Mg154 Mg 0.70306 0.05732 0.28713 0.0
O155 O 0.65242 0.04338 0.28908 0.0
O156 O 0.64527 0.07349 0.34043 0.0
Mg157 Mg 0.69158 0.10723 0.37103 0.0
C158 C 0.63497 0.05132 0.31075 0.0
C159 C 0.67168 0.00098 0.22238 0.0
O160 O 0.65796 0.99115 0.26592 0.0
O161 O 0.71392 0.097 0.23738 0.0
O162 O 0.70924 0.12696 0.29283 0.0
O163 O 0.69646 0.0284 0.35269 0.0
O164 O 0.70864 0.07553 0.3594 0.0
C165 C 0.716 0.12187 0.24885 0.0
C166 C 0.70096 0.05056 0.38105 0.0
O167 O 0.69296 0.0276 0.21909 0.0
C168 C 0.28174 0.28849 0.19626 0.0
C169 C 0.30656 0.29011 0.16956 0.0
C170 C 0.27784 0.28063 0.24763 0.0
C171 C 0.30007 0.27595 0.27221 0.0
C172 C 0.32 0.2703 0.24256 0.0
C173 C 0.32256 0.27689 0.1909 0.0
C174 C 0.25327 0.28235 0.27724 0.0
C175 C 0.34234 0.26247 0.26647 0.0
C176 C 0.34228 0.33231 0.37377 0.0
C177 C 0.34046 0.3146 0.41499 0.0
C178 C 0.32833 0.31988 0.32791 0.0
C179 C 0.31041 0.28864 0.32357 0.0
C180 C 0.30633 0.27063 0.36649 0.0
C181 C 0.32214 0.28381 0.41145 0.0
C182 C 0.33481 0.3405 0.28338 0.0
C183 C 0.28616 0.23752 0.36548 0.0
H184 H 0.26788 0.29694 0.17943 0.0
H185 H 0.34046 0.27608 0.16946 0.0
H186 H 0.24681 0.26775 0.31096 0.0
H187 H 0.26155 0.30541 0.29022 0.0
H188 H 0.23287 0.27593 0.2534 0.0
H189 H 0.3548 0.25682 0.23788 0.0
H190 H 0.35914 0.28146 0.28912 0.0
H191 H 0.33032 0.24333 0.29219 0.0
H192 H 0.35654 0.35613 0.37612 0.0
H193 H 0.32037 0.27001 0.44348 0.0
H194 H 0.31361 0.33997 0.27069 0.0
H195 H 0.34401 0.33354 0.25133 0.0
H196 H 0.35145 0.36384 0.29254 0.0
H197 H 0.27232 0.22954 0.33062 0.0
H198 H 0.27064 0.23051 0.39851 0.0
H199 H 0.30032 0.22659 0.36923 0.0
C200 C 0.976 0.27493 0.48674 0.0
C201 C 0.00038 0.29894 0.46268 0.0
C202 C 0.97805 0.2694 0.53819 0.0
C203 C 0.00417 0.28932 0.56554 0.0
C204 C 0.03087 0.30844 0.53861 0.0
C205 C 0.02877 0.31252 0.48681 0.0
C206 C 0.9507 0.24546 0.56477 0.0
C207 C 0.06029 0.32828 0.56547 0.0
C208 C 0.98876 0.33102 0.66759 0.0
C209 C 0.00466 0.32825 0.70858 0.0
C210 C 0.98725 0.31725 0.6216 0.0
C211 C 0.0004 0.29849 0.61716 0.0
C212 C 0.01375 0.29312 0.66025 0.0
C213 C 0.01658 0.30884 0.70518 0.0
C214 C 0.97376 0.3251 0.57694 0.0
C215 C 0.02605 0.27177 0.65934 0.0
H216 H 0.95431 0.26291 0.46771 0.0
H217 H 0.04836 0.32971 0.46738 0.0
H218 H 0.95749 0.2379 0.59924 0.0
H219 H 0.93527 0.25405 0.57612 0.0
H220 H 0.93784 0.22628 0.53931 0.0
H221 H 0.0792 0.34103 0.53872 0.0
H222 H 0.05744 0.34419 0.58989 0.0
H223 H 0.06675 0.31485 0.58989 0.0
H224 H 0.9796 0.34609 0.67006 0.0
H225 H 0.02852 0.3063 0.73719 0.0
H226 H 0.95321 0.30518 0.56331 0.0
H227 H 0.99033 0.3338 0.54547 0.0
H228 H 0.9671 0.34208 0.58635 0.0
H229 H 0.01643 0.2561 0.69147 0.0
H230 H 0.05103 0.2841 0.66486 0.0
H231 H 0.02076 0.25884 0.62385 0.0
C232 C 0.61549 0.90921 0.96374 0.0
C233 C 0.59884 0.92055 0.93869 0.0
C234 C 0.62527 0.91743 0.01364 0.0
C235 C 0.61825 0.93747 0.03876 0.0
C236 C 0.59943 0.94709 0.01505 0.0
C237 C 0.58987 0.93844 0.96531 0.0
C238 C 0.64484 0.9063 0.03812 0.0
C239 C 0.59124 0.96831 0.04079 0.0
C240 C 0.63286 0.95554 0.17809 0.0
C241 C 0.65991 0.9827 0.17645 0.0
C242 C 0.61956 0.93973 0.1337 0.0
C243 C 0.63365 0.95148 0.08677 0.0
C244 C 0.66166 0.97819 0.08516 0.0
C245 C 0.67447 0.99345 0.13005 0.0
C246 C 0.58978 0.91123 0.13686 0.0
C247 C 0.67744 0.99142 0.03578 0.0
H248 H 0.62222 0.89509 0.94363 0.0
H249 H 0.57666 0.94699 0.94646 0.0
H250 H 0.6687 0.92448 0.03955 0.0
H251 H 0.63744 0.8992 0.07752 0.0
H252 H 0.64425 0.88748 0.01703 0.0
H253 H 0.5738 0.97108 0.0195 0.0
H254 H 0.58261 0.96052 0.07944 0.0
H255 H 0.61185 0.9903 0.04434 0.0
H256 H 0.62146 0.94707 0.21385 0.0
H257 H 0.69547 0.01432 0.12853 0.0
H258 H 0.59037 0.89388 0.11308 0.0
H259 H 0.57127 0.91494 0.12234 0.0
H260 H 0.58416 0.90291 0.17622 0.0
H261 H 0.68074 0.9749 0.01398 0.0
H262 H 0.69991 0.01142 0.04132 0.0
H263 H 0.66308 -0.00234 0.01261 0.0
C264 C 0.65577 0.66858 0.29197 0.0
C265 C 0.67448 0.67564 0.24953 0.0
C266 C 0.66673 0.68313 0.33778 0.0
C267 C 0.69708 0.70671 0.34101 0.0
C268 C 0.71573 0.71517 0.29729 0.0
C269 C 0.70442 0.69894 0.25222 0.0
C270 C 0.64585 0.67193 0.38315 0.0
C271 C 0.74767 0.74081 0.29739 0.0
C272 C 0.68931 0.73146 0.46669 0.0
C273 C 0.69442 0.71109 0.49426 0.0
C274 C 0.6972 0.73637 0.41532 0.0
C275 C 0.70892 0.71953 0.39176 0.0
C276 C 0.72111 0.70542 0.42229 0.0
C277 C 0.71415 0.70183 0.47389 0.0
C278 C 0.68788 0.75513 0.38458 0.0
C279 C 0.73646 0.68946 0.39935 0.0
H280 H 0.63271 0.65033 0.29015 0.0
H281 H 0.7189 0.70455 0.21924 0.0
H282 H 0.657 0.66672 0.4146 0.0
H283 H 0.64033 0.68909 0.3963 0.0
H284 H 0.6241 0.65164 0.3747 0.0
H285 H 0.75103 0.75518 0.26414 0.0
H286 H 0.75319 0.75451 0.33202 0.0
H287 H 0.76394 0.73228 0.29351 0.0
H288 H 0.67565 0.74033 0.48276 0.0
H289 H 0.72007 0.68772 0.496 0.0
H290 H 0.66413 0.74137 0.37148 0.0
H291 H 0.70267 0.76435 0.3509 0.0
H292 H 0.68894 0.77354 0.40762 0.0
H293 H 0.71946 0.66962 0.37861 0.0
H294 H 0.74731 0.68219 0.42842 0.0
H295 H 0.75405 0.70405 0.37205 0.0
C296 C 0.04202 0.72666 0.73967 0.0
C297 C 0.0134 0.7145 0.76291 0.0
C298 C 0.04498 0.73301 0.68791 0.0
C299 C 0.01899 0.72827 0.66022 0.0
C300 C 0.99319 0.72492 0.68682 0.0
C301 C 0.9902 0.71718 0.7382 0.0
C302 C 0.07418 0.73954 0.66183 0.0
C303 C 0.96679 0.72439 0.65933 0.0
C304 C 0.02923 0.71837 0.52023 0.0
C305 C 0.01526 0.68743 0.51731 0.0
C306 C 0.02834 0.73237 0.56534 0.0
C307 C 0.01473 0.71498 0.60898 0.0
C308 C -8e-05 0.6836 0.60527 0.0
C309 C 0.99967 0.67042 0.55927 0.0
C310 C 0.04275 0.76565 0.5657 0.0
C311 C 0.98607 0.66353 0.65052 0.0
H312 H 0.06085 0.72675 0.75959 0.0
H313 H 0.96847 0.70966 0.75661 0.0
H314 H 0.07054 0.72028 0.63845 0.0
H315 H 0.08155 0.75888 0.63647 0.0
H316 H 0.09275 0.74433 0.68908 0.0
H317 H 0.9508 0.70145 0.64716 0.0
H318 H 0.95423 0.73189 0.68442 0.0
H319 H 0.97462 0.73871 0.62526 0.0
H320 H 0.04105 0.73161 0.48757 0.0
H321 H 0.98902 0.64649 0.55726 0.0
H322 H 0.06761 0.7755 0.56004 0.0
H323 H 0.03845 0.77444 0.60109 0.0
H324 H 0.03394 0.77298 0.53348 0.0
H325 H 0.00289 0.67005 0.68153 0.0
H326 H 0.9781 0.63989 0.64159 0.0
H327 H 0.96629 0.66524 0.66456 0.0
C328 C 0.36797 0.02053 0.20908 0.0
C329 C 0.35796 0.99011 0.21337 0.0
C330 C 0.36582 0.03287 0.16298 0.0
C331 C 0.35332 0.0143 0.12041 0.0
C332 C 0.34363 0.98369 0.1244 0.0
C333 C 0.34611 0.97201 0.17072 0.0
C334 C 0.37651 0.06562 0.15996 0.0
C335 C 0.3302 0.96312 0.07984 0.0
C336 C 0.31617 0.0315 0.01097 0.0
C337 C 0.33774 0.03816 0.97267 0.0
C338 C 0.32176 0.02555 0.06032 0.0
C339 C 0.3496 0.02635 0.0716 0.0
C340 C 0.37229 0.03513 0.034 0.0
C341 C 0.36609 0.04093 0.98494 0.0
C342 C 0.29705 0.01643 0.09947 0.0
C343 C 0.40235 0.03646 0.04464 0.0
H344 H 0.37721 0.03468 0.24183 0.0
H345 H 0.33838 0.9485 0.17355 0.0
H346 H 0.3935 0.07584 0.12935 0.0
H347 H 0.35712 0.06923 0.15054 0.0
H348 H 0.38679 0.07722 0.19591 0.0
H349 H 0.32419 0.93995 0.08908 0.0
H350 H 0.30943 0.96335 0.06668 0.0
H351 H 0.34655 0.97079 0.04801 0.0
H352 H 0.29431 0.02957 0.00197 0.0
H353 H 0.38302 0.04634 0.95571 0.0
H354 H 0.30642 0.02861 0.13525 0.0
H355 H 0.28736 0.99248 0.10777 0.0
H356 H 0.27838 0.02044 0.08661 0.0
H357 H 0.4122 0.04838 0.08045 0.0
H358 H 0.419 0.04755 0.01377 0.0
H359 H 0.39881 0.01365 0.04901 0.0
C360 C 0.15169 0.41345 0.94706 0.0
C361 C 0.13563 0.39877 0.90348 0.0
C362 C 0.1756 0.40954 0.96533 0.0
C363 C 0.18344 0.39018 0.93981 0.0
C364 C 0.16683 0.37469 0.89654 0.0
C365 C 0.14323 0.37932 0.87867 0.0
C366 C 0.19299 0.42672 0.01126 0.0
C367 C 0.17428 0.35357 0.86874 0.0
C368 C 0.26453 0.40531 0.95538 0.0
C369 C 0.26154 0.38514 0.99334 0.0
C370 C 0.23922 0.40684 0.93719 0.0
C371 C 0.21009 0.38749 0.95696 0.0
C372 C 0.20676 0.36656 0.99441 0.0
C373 C 0.23257 0.36576 0.01243 0.0
C374 C 0.24379 0.42969 0.89762 0.0
C375 C 0.17598 0.34531 0.01588 0.0
H376 H 0.14596 0.4285 0.96649 0.0
H377 H 0.13074 0.36771 0.84523 0.0
H378 H 0.19279 0.41137 0.04069 0.0
H379 H 0.21706 0.44169 0.00101 0.0
H380 H 0.18345 0.44022 0.02764 0.0
H381 H 0.15799 0.34184 0.83769 0.0
H382 H 0.19745 0.36586 0.85254 0.0
H383 H 0.17414 0.33689 0.89526 0.0
H384 H 0.28681 0.42039 0.94042 0.0
H385 H 0.23006 0.34998 0.04153 0.0
H386 H 0.23649 0.44524 0.91273 0.0
H387 H 0.22956 0.4188 0.86406 0.0
H388 H 0.26785 0.44266 0.88537 0.0
H389 H 0.16649 0.3578 0.03592 0.0
H390 H 0.17701 0.32928 0.04266 0.0
H391 H 0.16 0.33281 0.98497 0.0
C392 C 0.86426 0.27193 0.21271 0.0
C393 C 0.87393 0.26845 0.26074 0.0
C394 C 0.83717 0.24967 0.19159 0.0
C395 C 0.81929 0.22355 0.21952 0.0
C396 C 0.82965 0.21949 0.26715 0.0
C397 C 0.85685 0.24194 0.287 0.0
C398 C 0.82739 0.25491 0.14053 0.0
C399 C 0.8115 0.19182 0.29823 0.0
C400 C 0.73608 0.17498 0.22857 0.0
C401 C 0.73477 0.14793 0.21692 0.0
C402 C 0.76303 0.20167 0.22138 0.0
C403 C 0.78875 0.20088 0.202 0.0
C404 C 0.78521 0.17453 0.17983 0.0
C405 C 0.75797 0.14808 0.18744 0.0
C406 C 0.76537 0.22977 0.24252 0.0
C407 C 0.81162 0.1733 0.15565 0.0
H408 H 0.87748 0.29232 0.19191 0.0
H409 H 0.8643 0.239 0.32389 0.0
H410 H 0.81307 0.23393 0.12006 0.0
H411 H 0.814 0.26653 0.1456 0.0
H412 H 0.8474 0.26923 0.11678 0.0
H413 H 0.82318 0.19195 0.33387 0.0
H414 H 0.78909 0.18963 0.30795 0.0
H415 H 0.80734 0.17196 0.27622 0.0
H416 H 0.71765 0.17507 0.2495 0.0
H417 H 0.75676 0.12734 0.17656 0.0
H418 H 0.77971 0.24893 0.218 0.0
H419 H 0.77617 0.23405 0.28035 0.0
H420 H 0.74267 0.22812 0.2466 0.0
H421 H 0.82627 0.19402 0.13469 0.0
H422 H 0.80375 0.1542 0.12945 0.0
H423 H 0.82563 0.17074 0.18549 0.0
C424 C 0.52752 0.82093 0.68185 0.0
C425 C 0.54222 0.83887 0.72364 0.0
C426 C 0.5288 0.79485 0.67287 0.0
C427 C 0.54541 0.78673 0.70626 0.0
C428 C 0.55767 0.80312 0.75112 0.0
C429 C 0.5557 0.82892 0.75951 0.0
C430 C 0.51475 0.77756 0.62525 0.0
C431 C 0.57547 0.79514 0.78778 0.0
C432 C 0.54307 0.71273 0.68864 0.0
C433 C 0.56889 0.7208 0.65862 0.0
C434 C 0.53508 0.73389 0.70464 0.0
C435 C 0.55354 0.76386 0.69074 0.0
C436 C 0.57984 0.77219 0.661 0.0
C437 C 0.58709 0.75053 0.64505 0.0
C438 C 0.50672 0.72416 0.73578 0.0
C439 C 0.60031 0.80402 0.64581 0.0
H440 H 0.51675 0.82831 0.65427 0.0
H441 H 0.56712 0.84261 0.79194 0.0
H442 H 0.53292 0.78191 0.59748 0.0
H443 H 0.50258 0.75343 0.63304 0.0
H444 H 0.49862 0.78381 0.60782 0.0
H445 H 0.57935 0.80709 0.82419 0.0
H446 H 0.5636 0.771 0.79534 0.0
H447 H 0.59788 0.80103 0.77104 0.0
H448 H 0.52881 0.68975 0.69914 0.0
H449 H 0.60713 0.75694 0.62211 0.0
H450 H 0.49061 0.72926 0.71534 0.0
H451 H 0.51236 0.73656 0.77187 0.0
H452 H 0.49515 0.70009 0.7443 0.0
H453 H 0.58743 0.81199 0.62255 0.0
H454 H 0.62036 0.80694 0.62388 0.0
H455 H 0.60842 0.81824 0.67987 0.0
C456 C 0.74044 0.60906 0.98309 0.0
C457 C 0.73987 0.61925 0.03193 0.0
C458 C 0.76709 0.611 0.96305 0.0
C459 C 0.79396 0.62371 0.99231 0.0
C460 C 0.79389 0.63513 0.04084 0.0
C461 C 0.76679 0.63265 0.0602 0.0
C462 C 0.76614 0.59836 0.91129 0.0
C463 C 0.82221 0.64918 0.0729 0.0
C464 C 0.85096 0.59748 0.96574 0.0
C465 C 0.87215 0.62018 0.93489 0.0
C466 C 0.82556 0.59849 0.98482 0.0
C467 C 0.82143 0.62305 0.97347 0.0
C468 C 0.84298 0.6463 0.94298 0.0
C469 C 0.86799 0.64448 0.92368 0.0
C470 C 0.80287 0.57302 0.01655 0.0
C471 C 0.83955 0.67302 0.93067 0.0
H472 H 0.71981 0.59878 0.96083 0.0
H473 H 0.7666 0.64076 0.09781 0.0
H474 H 0.78427 0.61515 0.88703 0.0
H475 H 0.77041 0.57931 0.91453 0.0
H476 H 0.74392 0.59074 0.89225 0.0
H477 H 0.81911 0.65928 0.10781 0.0
H478 H 0.8286 0.63222 0.08378 0.0
H479 H 0.84145 0.66651 0.05111 0.0
H480 H 0.85396 0.57858 0.97444 0.0
H481 H 0.88441 0.66221 0.90018 0.0
H482 H 0.78021 0.56281 -0.00174 0.0
H483 H 0.80053 0.58118 0.05408 0.0
H484 H 0.8095 0.55564 0.02214 0.0
H485 H 0.81827 0.66612 0.90916 0.0
H486 H 0.85888 0.68972 0.9081 0.0
H487 H 0.83781 0.6836 0.96599 0.0
C488 C 0.15325 0.71901 0.26399 0.0
C489 C 0.14157 0.72271 0.30991 0.0
C490 C 0.18298 0.73908 0.24877 0.0
C491 C 0.20138 0.76329 0.28033 0.0
C492 C 0.18913 0.76794 0.3254 0.0
C493 C 0.15939 0.74759 0.33961 0.0
C494 C 0.19502 0.73339 0.20034 0.0
C495 C 0.20786 0.79379 0.35985 0.0
C496 C 0.28567 0.80021 0.29833 0.0
C497 C 0.29392 0.82889 0.28165 0.0
C498 C 0.25587 0.77708 0.2924 0.0
C499 C 0.23406 0.78291 0.26911 0.0
C500 C 0.24354 0.81039 0.24486 0.0
C501 C 0.27355 0.83313 0.25114 0.0
C502 C 0.24691 0.74763 0.317 0.0
C503 C 0.2212 0.81711 0.21802 0.0
H504 H 0.13957 0.69987 0.24063 0.0
H505 H 0.15045 0.75073 0.37486 0.0
H506 H 0.21016 0.75434 0.1804 0.0
H507 H 0.2085 0.72224 0.20919 0.0
H508 H 0.17631 0.71881 0.1745 0.0
H509 H 0.19446 0.79505 0.39207 0.0
H510 H 0.22729 0.79179 0.3751 0.0
H511 H 0.21731 0.81487 0.33845 0.0
H512 H 0.30153 0.79649 0.32065 0.0
H513 H 0.27985 0.85503 0.23691 0.0
H514 H 0.23102 0.72913 0.29262 0.0
H515 H 0.23508 0.74612 0.3531 0.0
H516 H 0.26698 0.74485 0.32524 0.0
H517 H 0.20446 0.79766 0.19626 0.0
H518 H 0.23284 0.83627 0.19201 0.0
H519 H 0.20848 0.82257 0.24635 0.0
C520 C 0.36634 0.14132 0.75829 0.0
C521 C 0.37825 0.12555 0.73279 0.0
C522 C 0.37428 0.17032 0.74363 0.0
C523 C 0.39498 0.18379 0.7033 0.0
C524 C 0.40897 0.16876 0.68051 0.0
C525 C 0.40016 0.13968 0.69517 0.0
C526 C 0.35873 0.18557 0.76856 0.0
C527 C 0.4317 0.1826 0.63825 0.0
C528 C 0.3872 0.23792 0.61627 0.0
C529 C 0.41058 0.26513 0.63337 0.0
C530 C 0.3813 0.21138 0.63989 0.0
C531 C 0.39958 0.21205 0.68103 0.0
C532 C 0.4231 0.23947 0.69871 0.0
C533 C 0.42817 0.26573 0.6749 0.0
C534 C 0.35572 0.18256 0.62036 0.0
C535 C 0.44336 0.241 0.74188 0.0
H536 H 0.34918 0.13027 0.78708 0.0
H537 H 0.40949 0.12748 0.67567 0.0
H538 H 0.37541 0.20873 0.77842 0.0
H539 H 0.34222 0.1864 0.7418 0.0
H540 H 0.34635 0.17387 0.80328 0.0
H541 H 0.44332 0.16963 0.62921 0.0
H542 H 0.41991 0.18393 0.60379 0.0
H543 H 0.44909 0.20549 0.64828 0.0
H544 H 0.37335 0.23736 0.58455 0.0
H545 H 0.44632 0.28673 0.68824 0.0
H546 H 0.34008 0.16999 0.65162 0.0
H547 H 0.36502 0.16867 0.60501 0.0
H548 H 0.34246 0.18601 0.59017 0.0
H549 H 0.4295 0.2293 0.77536 0.0
H550 H 0.45968 0.26415 0.75269 0.0
H551 H 0.45636 0.22965 0.73111 0.0
C552 C 0.35064 0.32232 0.68407 0.0
C553 C 0.36265 0.35053 0.6623 0.0
C554 C 0.3435 0.31799 0.73557 0.0
C555 C 0.34931 0.34262 0.76606 0.0
C556 C 0.35959 0.37079 0.74363 0.0
C557 C 0.3658 0.37432 0.69176 0.0
C558 C 0.33168 0.28746 0.75782 0.0
C559 C 0.36649 0.3977 0.77502 0.0
C560 C 0.32423 0.33673 0.90249 0.0
C561 C 0.35074 0.34187 0.92808 0.0
C562 C 0.32276 0.33534 0.8496 0.0
C563 C 0.34867 0.33995 0.82186 0.0
C564 C 0.37506 0.34403 0.84756 0.0
C565 C 0.37563 0.34459 0.90037 0.0
C566 C 0.29393 0.33002 0.82346 0.0
C567 C 0.40332 0.34938 0.81928 0.0
H568 H 0.3479 0.3038 0.66119 0.0
H569 H 0.37523 0.39618 0.67508 0.0
H570 H 0.35018 0.2864 0.77878 0.0
H571 H 0.31306 0.28249 0.78497 0.0
H572 H 0.32324 0.27005 0.72824 0.0
H573 H 0.37168 0.41734 0.75135 0.0
H574 H 0.34706 0.39318 0.79998 0.0
H575 H 0.38636 0.40316 0.79959 0.0
H576 H 0.30482 0.3344 0.92377 0.0
H577 H 0.39624 0.34873 0.91986 0.0
H578 H 0.28753 0.31282 0.79388 0.0
H579 H 0.29763 0.35064 0.80451 0.0
H580 H 0.2747 0.32298 0.85027 0.0
H581 H 0.39798 0.33099 0.79259 0.0
H582 H 0.42169 0.35149 0.84496 0.0
H583 H 0.41195 0.37 0.79671 0.0
C584 C 0.98709 0.32208 0.19667 0.0
C585 C 0.00662 0.34825 0.22239 0.0
C586 C 0.98746 0.32072 0.14389 0.0
C587 C 0.00732 0.34636 0.11637 0.0
C588 C 0.02829 0.37229 0.14225 0.0
C589 C 0.02792 0.3728 0.19509 0.0
C590 C 0.96542 0.29242 0.11765 0.0
C591 C 0.04962 0.4002 0.11415 0.0
C592 C 0.02373 0.34798 0.97682 0.0
C593 C 0.00479 0.35825 0.9568 0.0
C594 C 0.02342 0.34207 0.0285 0.0
C595 C 0.00424 0.34728 0.06087 0.0
C596 C 0.98391 0.35612 0.04047 0.0
C597 C 0.98419 0.36118 0.98847 0.0
C598 C 0.0447 0.33176 0.04871 0.0
C599 C 0.96331 0.3622 0.07393 0.0
H600 H 0.97074 0.30294 0.21775 0.0
H601 H 0.04292 0.3931 0.21481 0.0
H602 H 0.94666 0.29502 0.10103 0.0
H603 H 0.97677 0.28734 0.08636 0.0
H604 H 0.95542 0.27331 0.14405 0.0
H605 H 0.06575 0.41785 0.1398 0.0
H606 H 0.06282 0.3955 0.08571 0.0
H607 H 0.03627 0.40872 0.09359 0.0
H608 H 0.03952 0.34543 0.95229 0.0
H609 H 0.96964 0.36925 0.97317 0.0
H610 H 0.03268 0.31321 0.07567 0.0
H611 H 0.06356 0.3501 0.06951 0.0
H612 H 0.05459 0.32446 0.01808 0.0
H613 H 0.94949 0.34282 0.09839 0.0
H614 H 0.94776 0.3674 0.05188 0.0
H615 H 0.97725 0.38121 0.09905 0.0
C616 C 0.66117 0.0163 0.67431 0.0
C617 C 0.62958 -0.00131 0.67488 0.0
C618 C 0.67617 0.03082 0.62993 0.0
C619 C 0.65886 0.02792 0.58612 0.0
C620 C 0.62676 0.01301 0.58867 0.0
C621 C 0.61246 -0.0019 0.63301 0.0
C622 C 0.71042 0.04636 0.62858 0.0
C623 C 0.60751 0.01028 0.54318 0.0
C624 C 0.69385 0.06889 0.46462 0.0
C625 C 0.69382 0.04626 0.43541 0.0
C626 C 0.68343 0.06371 0.51459 0.0
C627 C 0.67365 0.03549 0.53603 0.0
C628 C 0.67563 0.01322 0.5079 0.0
C629 C 0.68542 0.0188 0.45774 0.0
C630 C 0.68133 0.08784 0.54331 0.0
C631 C 0.66613 0.98302 0.53002 0.0
H632 H 0.67426 0.01646 0.70691 0.0
H633 H 0.58794 0.98463 0.63406 0.0
H634 H 0.71789 0.03169 0.61031 0.0
H635 H 0.71966 0.06703 0.60609 0.0
H636 H 0.72033 0.05179 0.66711 0.0
H637 H 0.58348 0.00255 0.55367 0.0
H638 H 0.61654 0.03181 0.5233 0.0
H639 H 0.60808 0.99412 0.5163 0.0
H640 H 0.70115 0.09045 0.44823 0.0
H641 H 0.68585 0.00136 0.4357 0.0
H642 H 0.69047 0.08996 0.58206 0.0
H643 H 0.65713 0.08203 0.54686 0.0
H644 H 0.69373 0.10963 0.52407 0.0
H645 H 0.67727 0.98521 0.56709 0.0
H646 H 0.6719 0.96929 0.50491 0.0
H647 H 0.64124 0.97113 0.53642 0.0
C648 C 0.64904 0.68788 0.75856 0.0
C649 C 0.64787 0.66309 0.73489 0.0
C650 C 0.65094 0.69073 0.81129 0.0
C651 C 0.65065 0.66778 0.84078 0.0
C652 C 0.65059 0.64326 0.81692 0.0
C653 C 0.64963 0.64144 0.76421 0.0
C654 C 0.65213 0.71769 0.8354 0.0
C655 C 0.64978 0.61806 0.84706 0.0
C656 C 0.67018 0.67037 0.97885 0.0
C657 C 0.64114 0.65513 0.00035 0.0
C658 C 0.67386 0.67725 0.92726 0.0
C659 C 0.64783 0.66778 0.89648 0.0
C660 C 0.61858 0.65424 0.91869 0.0
C661 C 0.61563 0.64845 0.97063 0.0
C662 C 0.70546 0.69271 0.90524 0.0
C663 C 0.59022 0.64334 0.88704 0.0
H664 H 0.64793 0.70479 0.7359 0.0
H665 H 0.64855 0.62216 0.74608 0.0
H666 H 0.62999 0.71153 0.85342 0.0
H667 H 0.6697 0.72656 0.86541 0.0
H668 H 0.65708 0.73548 0.80741 0.0
H669 H 0.65036 0.60089 0.82264 0.0
H670 H 0.66934 0.6265 0.87335 0.0
H671 H 0.62879 0.60745 0.87021 0.0
H672 H 0.68997 0.67581 0.00195 0.0
H673 H 0.59315 0.63654 0.98713 0.0
H674 H 0.70764 0.70934 0.87669 0.0
H675 H 0.71009 0.67627 0.88605 0.0
H676 H 0.723 0.70391 0.93483 0.0
H677 H 0.59199 0.66099 0.86124 0.0
H678 H 0.56949 0.63579 0.9105 0.0
H679 H 0.58752 0.62453 0.86333 0.0
C680 C 0.98071 0.63115 0.23854 0.0
C681 C 0.00189 0.6538 0.26928 0.0
C682 C 0.9797 0.63554 0.18656 0.0
C683 C -0.00018 0.6635 0.16536 0.0
C684 C 0.0192 0.68723 0.19705 0.0
C685 C 0.02036 0.68197 0.24867 0.0
C686 C 0.959 0.60954 0.15389 0.0
C687 C 0.04018 0.71761 0.17605 0.0
C688 C 0.02586 0.65976 0.03321 0.0
C689 C 0.00523 0.66408 0.0039 0.0
C690 C 0.02496 0.66052 0.08595 0.0
C691 C 0.00341 0.66653 0.1098 0.0
C692 C 0.98395 0.67298 0.08036 0.0
C693 C 0.98478 0.67125 0.02762 0.0
C694 C 0.04584 0.65313 0.1161 0.0
C695 C 0.96142 0.68045 0.10451 0.0
H696 H 0.96652 0.60932 0.25439 0.0
H697 H 0.03656 0.69961 0.27259 0.0
H698 H 0.9457 0.61569 0.128 0.0
H699 H 0.97288 0.60294 0.13026 0.0
H700 H 0.94298 0.59009 0.17659 0.0
H701 H 0.04926 0.73469 0.20618 0.0
H702 H 0.05964 0.7174 0.1569 0.0
H703 H 0.02828 0.72403 0.14763 0.0
H704 H 0.04158 0.65405 0.01505 0.0
H705 H 0.96895 0.67485 0.00498 0.0
H706 H 0.03218 0.63258 0.13816 0.0
H707 H 0.0592 0.67106 0.14338 0.0
H708 H 0.06186 0.64981 0.09174 0.0
H709 H 0.94272 0.66027 0.12183 0.0
H710 H 0.95142 0.68934 0.07669 0.0
H711 H 0.97241 0.69695 0.13507 0.0
C712 C 0.36552 0.96304 0.50964 0.0
C713 C 0.35205 0.93536 0.48606 0.0
C714 C 0.35827 0.96589 0.55969 0.0
C715 C 0.33646 0.94054 0.58602 0.0
C716 C 0.32497 0.91224 0.56393 0.0
C717 C 0.33317 0.90995 0.51427 0.0
C718 C 0.37239 0.99627 0.5832 0.0
C719 C 0.30188 0.88469 0.59083 0.0
C720 C 0.32437 0.9548 0.72213 0.0
C721 C 0.30342 0.96497 0.71566 0.0
C722 C 0.33432 0.94497 0.68062 0.0
C723 C 0.32217 0.94446 0.63226 0.0
C724 C 0.29829 0.9513 0.62704 0.0
C725 C 0.28952 0.96192 0.66878 0.0
C726 C 0.36003 0.9383 0.68792 0.0
C727 C 0.28403 0.95022 0.5764 0.0
H728 H 0.38056 0.98264 0.48824 0.0
H729 H 0.32281 0.88839 0.49635 0.0
H730 H 0.35467 0.00272 0.59 0.0
H731 H 0.3825 0.99595 0.62019 0.0
H732 H 0.39036 0.01338 0.55901 0.0
H733 H 0.29927 0.86424 0.57263 0.0
H734 H 0.30827 0.88486 0.63092 0.0
H735 H 0.27952 0.88398 0.59021 0.0
H736 H 0.33547 0.95761 0.75834 0.0
H737 H 0.27347 0.97001 0.6639 0.0
H738 H 0.38168 0.95823 0.67784 0.0
H739 H 0.35751 0.91994 0.66324 0.0
H740 H 0.36167 0.93258 0.7278 0.0
H741 H 0.30055 0.96861 0.55238 0.0
H742 H 0.26323 0.95235 0.57998 0.0
H743 H 0.27806 0.92915 0.55673 0.0
C744 C 0.44192 0.42933 0.09534 0.0
C745 C 0.4211 0.43513 0.06948 0.0
C746 C 0.47294 0.45006 0.09618 0.0
C747 C 0.48349 0.4773 0.07044 0.0
C748 C 0.46283 0.48277 0.04232 0.0
C749 C 0.43181 0.46164 0.04233 0.0
C750 C 0.49417 0.4434 0.12685 0.0
C751 C 0.47329 0.51146 0.01407 0.0
C752 C 0.55293 0.54174 0.12805 0.0
C753 C 0.5764 0.54354 0.0973 0.0
C754 C 0.5226 0.52079 0.1188 0.0
C755 C 0.51542 0.50108 0.07764 0.0
C756 C 0.53888 0.50313 0.04569 0.0
C757 C 0.56919 0.52429 0.05605 0.0
C758 C 0.4983 0.51921 0.15405 0.0
C759 C 0.53202 0.48261 0.00126 0.0
H760 H 0.43388 0.40898 0.1166 0.0
H761 H 0.41588 0.46621 0.02202 0.0
H762 H 0.51415 0.44718 0.10394 0.0
H763 H 0.50272 0.45859 0.15969 0.0
H764 H 0.48289 0.42026 0.14103 0.0
H765 H 0.45519 0.51092 0.98943 0.0
H766 H 0.48023 0.52989 0.04138 0.0
H767 H 0.4934 0.51643 0.99052 0.0
H768 H 0.55829 0.55633 0.16027 0.0
H769 H 0.58721 0.52565 0.03202 0.0
H770 H 0.48716 0.49745 0.17347 0.0
H771 H 0.48051 0.52112 0.13237 0.0
H772 H 0.50754 0.53692 0.1831 0.0
H773 H 0.52276 0.45951 0.01483 0.0
H774 H 0.5525 0.48841 0.97803 0.0
H775 H 0.51442 0.48324 0.97696 0.0
C776 C 0.04225 0.5623 0.3353 0.0
C777 C 0.02975 0.57231 0.37268 0.0
C778 C 0.03102 0.53193 0.32726 0.0
C779 C 0.00691 0.51123 0.35757 0.0
C780 C 0.99348 0.52121 0.39405 0.0
C781 C 0.00505 0.55166 0.40111 0.0
C782 C 0.04572 0.52203 0.28774 0.0
C783 C 0.96779 0.49977 0.42725 0.0
C784 C 0.96276 0.42973 0.32363 0.0
C785 C 0.97642 0.41788 0.35534 0.0
C786 C 0.97306 0.4603 0.32266 0.0
C787 C 0.99738 0.47926 0.35439 0.0
C788 C 0.01172 0.46747 0.38549 0.0
C789 C 0.00109 0.43692 0.38551 0.0
C790 C 0.95741 0.4722 0.28877 0.0
C791 C 0.03767 0.48699 0.42003 0.0
H792 H 0.06124 0.57818 0.313 0.0
H793 H 0.99534 0.55923 0.43017 0.0
H794 H 0.05794 0.51167 0.30637 0.0
H795 H 0.02821 0.50505 0.26287 0.0
H796 H 0.06214 0.54072 0.26405 0.0
H797 H 0.95844 0.51104 0.45123 0.0
H798 H 0.94916 0.48289 0.40388 0.0
H799 H 0.97599 0.4879 0.4522 0.0
H800 H 0.94374 0.4151 0.3001 0.0
H801 H 0.01165 0.42792 0.41033 0.0
H802 H 0.97434 0.4905 0.26511 0.0
H803 H 0.94575 0.48144 0.31208 0.0
H804 H 0.94039 0.45486 0.26369 0.0
H805 H 0.05613 0.5051 0.39816 0.0
H806 H 0.0472 0.4745 0.44014 0.0
H807 H 0.02973 0.49741 0.44851 0.0
C808 C 0.51347 0.97521 0.77616 0.0
C809 C 0.50621 0.95107 0.74424 0.0
C810 C 0.49428 0.98771 0.77987 0.0
C811 C 0.4668 0.97518 0.75213 0.0
C812 C 0.45866 0.9498 0.72195 0.0
C813 C 0.4787 0.93833 0.71778 0.0
C814 C 0.50416 0.0152 0.81137 0.0
C815 C 0.42905 0.93504 0.69337 0.0
C816 C 0.40589 0.9949 0.78853 0.0
C817 C 0.40844 0.01437 0.7496 0.0
C818 C 0.42476 0.982 0.78998 0.0
C819 C 0.44733 0.98948 0.75249 0.0
C820 C 0.45078 0.01008 0.71427 0.0
C821 C 0.43093 0.02188 0.71279 0.0
C822 C 0.41965 0.95939 0.83029 0.0
C823 C 0.47499 0.01913 0.67422 0.0
H824 H 0.53498 0.98536 0.79608 0.0
H825 H 0.47304 0.91959 0.69325 0.0
H826 H 0.50767 0.03392 0.7866 0.0
H827 H 0.48623 0.01187 0.83893 0.0
H828 H 0.52557 0.0215 0.83223 0.0
H829 H 0.426 0.91532 0.67199 0.0
H830 H 0.4099 0.92801 0.72022 0.0
H831 H 0.42786 0.95088 0.66648 0.0
H832 H 0.38805 0.98854 0.81641 0.0
H833 H 0.43279 0.03678 0.6825 0.0
H834 H 0.44108 0.96553 0.85077 0.0
H835 H 0.41228 0.93754 0.81244 0.0
H836 H 0.40211 0.95706 0.85804 0.0
H837 H 0.4975 0.02665 0.69202 0.0
H838 H 0.47629 0.03717 0.64977 0.0
H839 H 0.47018 -0.00016 0.65005 0.0
C840 C 0.53326 0.56224 0.61979 0.0
C841 C 0.56092 0.57787 0.59408 0.0
C842 C 0.51702 0.53118 0.6188 0.0
C843 C 0.52868 0.51551 0.59118 0.0
C844 C 0.55737 0.53113 0.56747 0.0
C845 C 0.57315 0.56213 0.56924 0.0
C846 C 0.48659 0.51526 0.64488 0.0
C847 C 0.57055 0.51523 0.53753 0.0
C848 C 0.49283 0.4318 0.60261 0.0
C849 C 0.47346 0.42246 0.5606 0.0
C850 C 0.51075 0.46208 0.61365 0.0
C851 C 0.50935 0.48332 0.58166 0.0
C852 C 0.48985 0.47394 0.53924 0.0
C853 C 0.47216 0.44367 0.52929 0.0
C854 C 0.53122 0.47136 0.65932 0.0
C855 C 0.48785 0.4959 0.50394 0.0
H856 H 0.52378 0.57426 0.63937 0.0
H857 H 0.5945 0.57402 0.54923 0.0
H858 H 0.46827 0.50594 0.61617 0.0
H859 H 0.4849 0.49649 0.66761 0.0
H860 H 0.48255 0.5302 0.66993 0.0
H861 H 0.59447 0.53022 0.52627 0.0
H862 H 0.56961 0.4966 0.55967 0.0
H863 H 0.55687 0.50574 0.50286 0.0
H864 H 0.49385 0.41548 0.627 0.0
H865 H 0.4575 0.43664 0.49645 0.0
H866 H 0.52571 0.48518 0.68455 0.0
H867 H 0.55522 0.48511 0.64744 0.0
H868 H 0.52913 0.45209 0.68109 0.0
H869 H 0.48106 0.51021 0.5252 0.0
H870 H 0.47126 0.48491 0.47296 0.0
H871 H 0.51043 0.51052 0.48703 0.0
C872 C 0.96953 0.5447 0.89518 0.0
C873 C 0.9838 0.57005 0.86475 0.0
C874 C 0.98017 0.52413 0.89679 0.0
C875 C 0.00537 0.52886 0.86671 0.0
C876 C 0.02038 0.55487 0.83717 0.0
C877 C 0.00951 0.57517 0.83675 0.0
C878 C 0.96386 0.49686 0.92931 0.0
C879 C 0.04712 0.56064 0.80411 0.0
C880 C 0.0483 0.48593 0.88371 0.0
C881 C 0.0354 0.46459 0.84554 0.0
C882 C 0.03791 0.50631 0.89262 0.0
C883 C 0.01444 0.50554 0.86213 0.0
C884 C 0.00096 0.48361 0.82432 0.0
C885 C 0.0115 0.46336 0.81669 0.0
C886 C 0.05253 0.52912 0.93375 0.0
C887 C 0.97613 0.4822 0.79056 0.0
H888 H 0.94977 0.54071 0.91717 0.0
H889 H 0.02063 0.59462 0.81296 0.0
H890 H 0.95196 0.47702 0.90496 0.0
H891 H 0.98036 0.49377 0.95271 0.0
H892 H 0.94689 0.49802 0.95456 0.0
H893 H 0.05742 0.58277 0.78586 0.0
H894 H 0.06485 0.55908 0.82659 0.0
H895 H 0.03968 0.54353 0.77415 0.0
H896 H 0.06666 0.48687 0.90634 0.0
H897 H 0.0015 0.44705 0.78694 0.0
H898 H 0.03489 0.5292 0.95867 0.0
H899 H 0.06529 0.55149 0.91674 0.0
H900 H 0.06842 0.52505 0.95713 0.0
H901 H 0.95708 0.48071 0.81362 0.0
H902 H 0.96711 0.46299 0.76445 0.0
H903 H 0.98502 0.50277 0.76779 0.0
C904 C 0.58194 0.03834 0.33455 0.0
C905 C 0.60162 0.03263 0.30508 0.0
C906 C 0.55055 0.01903 0.33431 0.0
C907 C 0.53839 0.99345 0.30351 0.0
C908 C 0.55789 0.98817 0.27195 0.0
C909 C 0.58931 0.00777 0.27323 0.0
C910 C 0.53052 0.02546 0.3686 0.0
C911 C 0.54572 0.96134 0.23809 0.0
C912 C 0.46374 0.9318 0.35283 0.0
C913 C 0.44265 0.93677 0.32597 0.0
C914 C 0.49502 0.94907 0.34389 0.0
C915 C 0.50545 0.97166 0.30684 0.0
C916 C 0.48423 0.97541 0.2772 0.0
C917 C 0.45308 0.95803 0.28727 0.0
C918 C 0.51694 0.94441 0.37641 0.0
C919 C 0.49444 -0.00107 0.2368 0.0
H920 H 0.59112 0.05745 0.35924 0.0
H921 H 0.60427 0.0032 0.2501 0.0
H922 H 0.51212 0.02601 0.3465 0.0
H923 H 0.51961 0.00753 0.39701 0.0
H924 H 0.54339 0.04686 0.38878 0.0
H925 H 0.56347 0.96182 0.21263 0.0
H926 H 0.53659 0.94099 0.26143 0.0
H927 H 0.52671 0.9598 0.21481 0.0
H928 H 0.45596 0.91539 0.38268 0.0
H929 H 0.43697 0.96183 0.26587 0.0
H930 H 0.52929 0.96375 0.40169 0.0
H931 H 0.53411 0.94268 0.35265 0.0
H932 H 0.50526 0.92416 0.40004 0.0
H933 H 0.50468 0.02109 0.25473 0.0
H934 H 0.4753 0.99628 0.21252 0.0
H935 H 0.5121 -0.00163 0.21263 0.0
loop_
_geom_bond_atom_site_label_1
_geom_bond_atom_site_label_2
_geom_bond_distance
_geom_bond_site_symmetry_2
_ccdc_geom_bond_type
Mg0 O1 2.028 . S
Mg0 O7 1.986 . S
Mg0 O9 2.114 . S
Mg0 O10 2.251 . S
Mg0 O13 2.010 . S
O1 Mg0 2.028 . S
O1 C4 1.250 1_554 S
O2 Mg3 2.028 . S
O2 C4 1.248 1_554 S
Mg3 O2 2.028 . S
Mg3 O8 2.032 . S
Mg3 O10 2.079 . S
C4 O1 1.250 1_556 S
C4 O2 1.248 1_556 S
C5 O6 1.264 . S
C5 O13 1.249 . S
O6 C5 1.264 . S
O7 Mg0 1.986 . S
O7 C11 1.246 . S
O8 Mg3 2.032 . S
O8 C11 1.259 . S
O9 Mg0 2.114 . S
O9 C12 1.252 . S
O10 Mg0 2.251 . S
O10 Mg3 2.079 . S
O10 C12 1.273 . S
C11 O7 1.246 . S
C11 O8 1.259 . S
C12 O9 1.252 . S
C12 O10 1.273 . S
O13 Mg0 2.010 . S
O13 C5 1.249 . S
Mg14 O15 2.028 . S
Mg14 O21 1.986 . S
Mg14 O23 2.114 . S
Mg14 O24 2.251 . S
Mg14 O27 2.010 . S
O15 Mg14 2.028 . S
O15 C18 1.250 . S
O16 Mg17 2.028 . S
O16 C18 1.248 1_455 S
Mg17 O16 2.028 . S
Mg17 O22 2.032 . S
Mg17 O24 2.079 1_455 S
C18 O15 1.250 . S
C18 O16 1.248 1_655 S
C19 O20 1.264 . S
C19 O27 1.249 . S
O20 C19 1.264 . S
O21 Mg14 1.986 . S
O21 C25 1.246 . S
O22 Mg17 2.032 . S
O22 C25 1.259 1_455 S
O23 Mg14 2.114 . S
O23 C26 1.252 . S
O24 Mg14 2.251 . S
O24 Mg17 2.079 1_655 S
O24 C26 1.273 . S
C25 O21 1.246 . S
C25 O22 1.259 1_655 S
C26 O23 1.252 . S
C26 O24 1.273 . S
O27 Mg14 2.010 . S
O27 C19 1.249 . S
Mg28 O29 2.028 . S
Mg28 O35 1.986 . S
Mg28 O37 2.114 . S
Mg28 O38 2.251 . S
Mg28 O41 2.010 . S
O29 Mg28 2.028 . S
O29 C32 1.250 . S
O30 Mg31 2.028 . S
O30 C32 1.248 . S
Mg31 O30 2.028 . S
Mg31 O36 2.032 . S
Mg31 O38 2.079 . S
C32 O29 1.250 . S
C32 O30 1.248 . S
C33 O34 1.264 . S
C33 O41 1.249 . S
O34 C33 1.264 . S
O35 Mg28 1.986 . S
O35 C39 1.246 . S
O36 Mg31 2.032 . S
O36 C39 1.259 . S
O37 Mg28 2.114 . S
O37 C40 1.252 . S
O38 Mg28 2.251 . S
O38 Mg31 2.079 . S
O38 C40 1.273 . S
C39 O35 1.246 . S
C39 O36 1.259 . S
C40 O37 1.252 . S
C40 O38 1.273 . S
O41 Mg28 2.010 . S
O41 C33 1.249 . S
Mg42 O43 2.028 . S
Mg42 O49 1.986 . S
Mg42 O51 2.114 . S
Mg42 O52 2.251 . S
Mg42 O55 2.010 . S
O43 Mg42 2.028 . S
O43 C46 1.250 1_554 S
O44 Mg45 2.028 . S
O44 C46 1.248 1_554 S
Mg45 O44 2.028 . S
Mg45 O50 2.032 . S
Mg45 O52 2.079 . S
C46 O43 1.250 1_556 S
C46 O44 1.248 1_556 S
C47 O48 1.264 . S
C47 O55 1.249 . S
O48 C47 1.264 . S
O49 Mg42 1.986 . S
O49 C53 1.246 . S
O50 Mg45 2.032 . S
O50 C53 1.259 . S
O51 Mg42 2.114 . S
O51 C54 1.252 . S
O52 Mg42 2.251 . S
O52 Mg45 2.079 . S
O52 C54 1.273 . S
C53 O49 1.246 . S
C53 O50 1.259 . S
C54 O51 1.252 . S
C54 O52 1.273 . S
O55 Mg42 2.010 . S
O55 C47 1.249 . S
Mg56 O57 2.028 . S
Mg56 O63 1.986 . S
Mg56 O65 2.114 . S
Mg56 O66 2.251 . S
Mg56 O69 2.010 . S
O57 Mg56 2.028 . S
O57 C60 1.250 . S
O58 Mg59 2.028 . S
O58 C60 1.248 1_655 S
Mg59 O58 2.028 . S
Mg59 O64 2.032 . S
Mg59 O66 2.079 1_655 S
C60 O57 1.250 . S
C60 O58 1.248 1_455 S
C61 O62 1.264 . S
C61 O69 1.249 . S
O62 C61 1.264 . S
O63 Mg56 1.986 . S
O63 C67 1.246 . S
O64 Mg59 2.032 . S
O64 C67 1.259 1_655 S
O65 Mg56 2.114 . S
O65 C68 1.252 . S
O66 Mg56 2.251 . S
O66 Mg59 2.079 1_455 S
O66 C68 1.273 . S
C67 O63 1.246 . S
C67 O64 1.259 1_455 S
C68 O65 1.252 . S
C68 O66 1.273 . S
O69 Mg56 2.010 . S
O69 C61 1.249 . S
Mg70 O71 2.028 . S
Mg70 O77 1.986 . S
Mg70 O79 2.114 . S
Mg70 O80 2.251 . S
Mg70 O83 2.010 . S
O71 Mg70 2.028 . S
O71 C74 1.250 . S
O72 Mg73 2.028 . S
O72 C74 1.248 . S
Mg73 O72 2.028 . S
Mg73 O78 2.032 . S
Mg73 O80 2.079 . S
C74 O71 1.250 . S
C74 O72 1.248 . S
C75 O76 1.264 . S
C75 O83 1.249 . S
O76 C75 1.264 . S
O77 Mg70 1.986 . S
O77 C81 1.246 . S
O78 Mg73 2.032 . S
O78 C81 1.259 . S
O79 Mg70 2.114 . S
O79 C82 1.252 . S
O80 Mg70 2.251 . S
O80 Mg73 2.079 . S
O80 C82 1.273 . S
C81 O77 1.246 . S
C81 O78 1.259 . S
C82 O79 1.252 . S
C82 O80 1.273 . S
O83 Mg70 2.010 . S
O83 C75 1.249 . S
Mg84 O85 2.028 . S
Mg84 O91 1.986 . S
Mg84 O93 2.114 . S
Mg84 O94 2.251 . S
Mg84 O97 2.010 . S
O85 Mg84 2.028 . S
O85 C88 1.250 . S
O86 Mg87 2.028 . S
O86 C88 1.248 . S
Mg87 O86 2.028 . S
Mg87 O92 2.032 . S
Mg87 O94 2.079 . S
C88 O85 1.250 . S
C88 O86 1.248 . S
C89 O90 1.264 . S
C89 O97 1.249 . S
O90 C89 1.264 . S
O91 Mg84 1.986 . S
O91 C95 1.246 . S
O92 Mg87 2.032 . S
O92 C95 1.259 . S
O93 Mg84 2.114 . S
O93 C96 1.252 . S
O94 Mg84 2.251 . S
O94 Mg87 2.079 . S
O94 C96 1.273 . S
C95 O91 1.246 . S
C95 O92 1.259 . S
C96 O93 1.252 . S
C96 O94 1.273 . S
O97 Mg84 2.010 . S
O97 C89 1.249 . S
Mg98 O99 2.028 . S
Mg98 O105 1.986 . S
Mg98 O107 2.114 . S
Mg98 O108 2.251 . S
Mg98 O111 2.010 . S
O99 Mg98 2.028 . S
O99 C102 1.250 1_556 S
O100 Mg101 2.028 . S
O100 C102 1.248 1_456 S
Mg101 O100 2.028 . S
Mg101 O106 2.032 . S
Mg101 O108 2.079 1_455 S
C102 O99 1.250 1_554 S
C102 O100 1.248 1_654 S
C103 O104 1.264 . S
C103 O111 1.249 . S
O104 C103 1.264 . S
O105 Mg98 1.986 . S
O105 C109 1.246 . S
O106 Mg101 2.032 . S
O106 C109 1.259 1_455 S
O107 Mg98 2.114 . S
O107 C110 1.252 . S
O108 Mg98 2.251 . S
O108 Mg101 2.079 1_655 S
O108 C110 1.273 . S
C109 O105 1.246 . S
C109 O106 1.259 1_655 S
C110 O107 1.252 . S
C110 O108 1.273 . S
O111 Mg98 2.010 . S
O111 C103 1.249 . S
Mg112 O113 2.028 . S
Mg112 O119 1.986 . S
Mg112 O121 2.114 . S
Mg112 O122 2.251 . S
Mg112 O125 2.010 . S
O113 Mg112 2.028 . S
O113 C116 1.250 . S
O114 Mg115 2.028 . S
O114 C116 1.248 . S
Mg115 O114 2.028 . S
Mg115 O120 2.032 . S
Mg115 O122 2.079 . S
C116 O113 1.250 . S
C116 O114 1.248 . S
C117 O118 1.264 . S
C117 O125 1.249 . S
O118 C117 1.264 . S
O119 Mg112 1.986 . S
O119 C123 1.246 . S
O120 Mg115 2.032 . S
O120 C123 1.259 . S
O121 Mg112 2.114 . S
O121 C124 1.252 . S
O122 Mg112 2.251 . S
O122 Mg115 2.079 . S
O122 C124 1.273 . S
C123 O119 1.246 . S
C123 O120 1.259 . S
C124 O121 1.252 . S
C124 O122 1.273 . S
O125 Mg112 2.010 . S
O125 C117 1.249 . S
Mg126 O127 2.028 . S
Mg126 O133 1.986 . S
Mg126 O135 2.114 . S
Mg126 O136 2.251 . S
Mg126 O139 2.010 . S
O127 Mg126 2.028 . S
O127 C130 1.250 . S
O128 Mg129 2.028 . S
O128 C130 1.248 . S
Mg129 O128 2.028 . S
Mg129 O134 2.032 . S
Mg129 O136 2.079 . S
C130 O127 1.250 . S
C130 O128 1.248 . S
C131 O132 1.264 . S
C131 O139 1.249 . S
O132 C131 1.264 . S
O133 Mg126 1.986 . S
O133 C137 1.246 . S
O134 Mg129 2.032 . S
O134 C137 1.259 . S
O135 Mg126 2.114 . S
O135 C138 1.252 . S
O136 Mg126 2.251 . S
O136 Mg129 2.079 . S
O136 C138 1.273 . S
C137 O133 1.246 . S
C137 O134 1.259 . S
C138 O135 1.252 . S
C138 O136 1.273 . S
O139 Mg126 2.010 . S
O139 C131 1.249 . S
Mg140 O141 2.028 . S
Mg140 O147 1.986 . S
Mg140 O149 2.114 . S
Mg140 O150 2.251 . S
Mg140 O153 2.010 . S
O141 Mg140 2.028 . S
O141 C144 1.250 1_556 S
O142 Mg143 2.028 . S
O142 C144 1.248 1_656 S
Mg143 O142 2.028 . S
Mg143 O148 2.032 . S
Mg143 O150 2.079 1_655 S
C144 O141 1.250 1_554 S
C144 O142 1.248 1_454 S
C145 O146 1.264 . S
C145 O153 1.249 . S
O146 C145 1.264 . S
O147 Mg140 1.986 . S
O147 C151 1.246 . S
O148 Mg143 2.032 . S
O148 C151 1.259 1_655 S
O149 Mg140 2.114 . S
O149 C152 1.252 . S
O150 Mg140 2.251 . S
O150 Mg143 2.079 1_455 S
O150 C152 1.273 . S
C151 O147 1.246 . S
C151 O148 1.259 1_455 S
C152 O149 1.252 . S
C152 O150 1.273 . S
O153 Mg140 2.010 . S
O153 C145 1.249 . S
Mg154 O155 2.028 . S
Mg154 O161 1.986 . S
Mg154 O163 2.114 . S
Mg154 O164 2.251 . S
Mg154 O167 2.010 . S
O155 Mg154 2.028 . S
O155 C158 1.250 . S
O156 Mg157 2.028 . S
O156 C158 1.248 . S
Mg157 O156 2.028 . S
Mg157 O162 2.032 . S
Mg157 O164 2.079 . S
C158 O155 1.250 . S
C158 O156 1.248 . S
C159 O160 1.264 . S
C159 O167 1.249 . S
O160 C159 1.264 . S
O161 Mg154 1.986 . S
O161 C165 1.246 . S
O162 Mg157 2.032 . S
O162 C165 1.259 . S
O163 Mg154 2.114 . S
O163 C166 1.252 . S
O164 Mg154 2.251 . S
O164 Mg157 2.079 . S
O164 C166 1.273 . S
C165 O161 1.246 . S
C165 O162 1.259 . S
C166 O163 1.252 . S
C166 O164 1.273 . S
O167 Mg154 2.010 . S
O167 C159 1.249 . S
C168 C169 1.391 . S
C168 C170 1.394 . S
C168 H184 0.931 . S
C169 C168 1.391 . S
C169 C173 1.376 . S
C170 C168 1.394 . S
C170 C171 1.369 . S
C170 C174 1.531 . S
C171 C170 1.369 . S
C171 C172 1.410 . S
C171 C179 1.503 . S
C172 C171 1.410 . S
C172 C173 1.392 . S
C172 C175 1.511 . S
C173 C169 1.376 . S
C173 C172 1.392 . S
C173 H185 0.929 . S
C174 C170 1.531 . S
C174 H186 0.960 . S
C174 H187 0.962 . S
C174 H188 0.960 . S
C175 C172 1.511 . S
C175 H189 0.961 . S
C175 H190 0.961 . S
C175 H191 0.961 . S
C176 C177 1.370 . S
C176 C178 1.363 . S
C176 H192 0.931 . S
C177 C176 1.370 . S
C177 C181 1.408 . S
C178 C176 1.363 . S
C178 C179 1.370 . S
C178 C182 1.524 . S
C179 C171 1.503 . S
C179 C178 1.370 . S
C179 C180 1.403 . S
C180 C179 1.403 . S
C180 C181 1.404 . S
C180 C183 1.539 . S
C181 C177 1.408 . S
C181 C180 1.404 . S
C181 H193 0.930 . S
C182 C178 1.524 . S
C182 H194 0.956 . S
C182 H195 0.961 . S
C182 H196 0.961 . S
C183 C180 1.539 . S
C183 H197 0.958 . S
C183 H198 0.961 . S
C183 H199 0.960 . S
H184 C168 0.931 . S
H185 C173 0.929 . S
H186 C174 0.960 . S
H187 C174 0.962 . S
H188 C174 0.960 . S
H189 C175 0.961 . S
H190 C175 0.961 . S
H191 C175 0.961 . S
H192 C176 0.931 . S
H193 C181 0.930 . S
H194 C182 0.956 . S
H195 C182 0.961 . S
H196 C182 0.961 . S
H197 C183 0.958 . S
H198 C183 0.961 . S
H199 C183 0.960 . S
C200 C201 1.391 . S
C200 C202 1.394 . S
C200 H216 0.931 . S
C201 C200 1.391 . S
C201 C205 1.376 1_655 S
C202 C200 1.394 . S
C202 C203 1.369 . S
C202 C206 1.531 . S
C203 C202 1.369 . S
C203 C204 1.410 1_655 S
C203 C211 1.503 . S
C204 C203 1.410 1_455 S
C204 C205 1.392 . S
C204 C207 1.511 . S
C205 C201 1.376 1_455 S
C205 C204 1.392 . S
C205 H217 0.929 . S
C206 C202 1.531 . S
C206 H218 0.960 . S
C206 H219 0.962 . S
C206 H220 0.960 . S
C207 C204 1.511 . S
C207 H221 0.961 . S
C207 H222 0.961 . S
C207 H223 0.961 . S
C208 C209 1.370 1_455 S
C208 C210 1.363 . S
C208 H224 0.931 . S
C209 C208 1.370 1_655 S
C209 C213 1.408 . S
C210 C208 1.363 . S
C210 C211 1.370 1_455 S
C210 C214 1.524 . S
C211 C203 1.503 . S
C211 C210 1.370 1_655 S
C211 C212 1.403 . S
C212 C211 1.403 . S
C212 C213 1.404 . S
C212 C215 1.539 . S
C213 C209 1.408 . S
C213 C212 1.404 . S
C213 H225 0.930 . S
C214 C210 1.524 . S
C214 H226 0.956 . S
C214 H227 0.961 . S
C214 H228 0.961 . S
C215 C212 1.539 . S
C215 H229 0.958 . S
C215 H230 0.961 . S
C215 H231 0.960 . S
H216 C200 0.931 . S
H217 C205 0.929 . S
H218 C206 0.960 . S
H219 C206 0.962 . S
H220 C206 0.960 . S
H221 C207 0.961 . S
H222 C207 0.961 . S
H223 C207 0.961 . S
H224 C208 0.931 . S
H225 C213 0.930 . S
H226 C214 0.956 . S
H227 C214 0.961 . S
H228 C214 0.961 . S
H229 C215 0.958 . S
H230 C215 0.961 . S
H231 C215 0.960 . S
C232 C233 1.391 1_545 S
C232 C234 1.394 . S
C232 H248 0.931 . S
C233 C232 1.391 1_565 S
C233 C237 1.376 . S
C234 C232 1.394 . S
C234 C235 1.369 . S
C234 C238 1.531 . S
C235 C234 1.369 . S
C235 C236 1.410 1_545 S
C235 C243 1.503 1_556 S
C236 C235 1.410 1_565 S
C236 C237 1.392 . S
C236 C239 1.511 . S
C237 C233 1.376 . S
C237 C236 1.392 . S
C237 H249 0.929 . S
C238 C234 1.531 . S
C238 H250 0.960 . S
C238 H251 0.962 . S
C238 H252 0.960 . S
C239 C236 1.511 . S
C239 H253 0.961 . S
C239 H254 0.961 1_556 S
C239 H255 0.961 . S
C240 C241 1.370 1_565 S
C240 C242 1.363 . S
C240 H256 0.931 . S
C241 C240 1.370 1_545 S
C241 C245 1.408 . S
C242 C240 1.363 . S
C242 C243 1.370 1_565 S
C242 C246 1.524 . S
C243 C235 1.503 1_554 S
C243 C242 1.370 1_545 S
C243 C244 1.403 . S
C244 C243 1.403 . S
C244 C245 1.404 . S
C244 C247 1.539 . S
C245 C241 1.408 . S
C245 C244 1.404 . S
C245 H257 0.930 . S
C246 C242 1.524 . S
C246 H258 0.956 . S
C246 H259 0.961 . S
C246 H260 0.961 . S
C247 C244 1.539 . S
C247 H261 0.958 . S
C247 H262 0.961 . S
C247 H263 0.960 1_554 S
H248 C232 0.931 . S
H249 C237 0.929 . S
H250 C238 0.960 . S
H251 C238 0.962 . S
H252 C238 0.960 . S
H253 C239 0.961 . S
H254 C239 0.961 1_554 S
H255 C239 0.961 . S
H256 C240 0.931 . S
H257 C245 0.930 . S
H258 C246 0.956 . S
H259 C246 0.961 . S
H260 C246 0.961 . S
H261 C247 0.958 . S
H262 C247 0.961 . S
H263 C247 0.960 1_556 S
C264 C265 1.391 . S
C264 C266 1.394 . S
C264 H280 0.931 . S
C265 C264 1.391 . S
C265 C269 1.376 . S
C266 C264 1.394 . S
C266 C267 1.369 . S
C266 C270 1.531 . S
C267 C266 1.369 . S
C267 C268 1.410 . S
C267 C275 1.503 . S
C268 C267 1.410 . S
C268 C269 1.392 . S
C268 C271 1.511 . S
C269 C265 1.376 . S
C269 C268 1.392 . S
C269 H281 0.929 . S
C270 C266 1.531 . S
C270 H282 0.960 . S
C270 H283 0.962 . S
C270 H284 0.960 . S
C271 C268 1.511 . S
C271 H285 0.961 . S
C271 H286 0.961 . S
C271 H287 0.961 . S
C272 C273 1.370 . S
C272 C274 1.363 . S
C272 H288 0.931 . S
C273 C272 1.370 . S
C273 C277 1.408 . S
C274 C272 1.363 . S
C274 C275 1.370 . S
C274 C278 1.524 . S
C275 C267 1.503 . S
C275 C274 1.370 . S
C275 C276 1.403 . S
C276 C275 1.403 . S
C276 C277 1.404 . S
C276 C279 1.539 . S
C277 C273 1.408 . S
C277 C276 1.404 . S
C277 H289 0.930 . S
C278 C274 1.524 . S
C278 H290 0.956 . S
C278 H291 0.961 . S
C278 H292 0.961 . S
C279 C276 1.539 . S
C279 H293 0.958 . S
C279 H294 0.961 . S
C279 H295 0.960 . S
H280 C264 0.931 . S
H281 C269 0.929 . S
H282 C270 0.960 . S
H283 C270 0.962 . S
H284 C270 0.960 . S
H285 C271 0.961 . S
H286 C271 0.961 . S
H287 C271 0.961 . S
H288 C272 0.931 . S
H289 C277 0.930 . S
H290 C278 0.956 . S
H291 C278 0.961 . S
H292 C278 0.961 . S
H293 C279 0.958 . S
H294 C279 0.961 . S
H295 C279 0.960 . S
C296 C297 1.390 . S
C296 C298 1.394 . S
C296 H312 0.931 . S
C297 C296 1.390 . S
C297 C301 1.379 1_655 S
C298 C296 1.394 . S
C298 C299 1.371 1_655 S
C298 C302 1.531 . S
C299 C298 1.371 1_455 S
C299 C300 1.406 . S
C299 C307 1.510 . S
C300 C299 1.406 . S
C300 C301 1.392 . S
C300 C303 1.511 . S
C301 C297 1.379 1_455 S
C301 C300 1.392 . S
C301 H313 0.929 . S
C302 C298 1.531 . S
C302 H314 0.960 . S
C302 H315 0.962 . S
C302 H316 0.960 . S
C303 C300 1.511 . S
C303 H317 0.961 . S
C303 H318 0.961 . S
C303 H319 0.961 . S
C304 C305 1.370 . S
C304 C306 1.363 . S
C304 H320 0.931 . S
C305 C304 1.370 . S
C305 C309 1.408 1_455 S
C306 C304 1.363 . S
C306 C307 1.370 . S
C306 C310 1.524 . S
C307 C299 1.510 . S
C307 C306 1.370 . S
C307 C308 1.403 1_455 S
C308 C307 1.403 1_655 S
C308 C309 1.404 . S
C308 C311 1.539 . S
C309 C305 1.408 1_655 S
C309 C308 1.404 . S
C309 H321 0.930 . S
C310 C306 1.524 . S
C310 H322 0.956 . S
C310 H323 0.961 . S
C310 H324 0.961 . S
C311 C308 1.539 . S
C311 H325 0.958 . S
C311 H326 0.961 . S
C311 H327 0.960 . S
H312 C296 0.931 . S
H313 C301 0.929 . S
H314 C302 0.960 . S
H315 C302 0.962 . S
H316 C302 0.960 . S
H317 C303 0.961 . S
H318 C303 0.961 . S
H319 C303 0.961 . S
H320 C304 0.931 . S
H321 C309 0.930 . S
H322 C310 0.956 . S
H323 C310 0.961 . S
H324 C310 0.961 . S
H325 C311 0.958 . S
H326 C311 0.961 . S
H327 C311 0.960 . S
C328 C329 1.391 1_545 S
C328 C330 1.394 . S
C328 H344 0.931 . S
C329 C328 1.391 1_565 S
C329 C333 1.376 . S
C330 C328 1.394 . S
C330 C331 1.369 . S
C330 C334 1.531 . S
C331 C330 1.369 . S
C331 C332 1.410 1_545 S
C331 C339 1.503 1_554 S
C332 C331 1.410 1_565 S
C332 C333 1.392 . S
C332 C335 1.511 . S
C333 C329 1.376 . S
C333 C332 1.392 . S
C333 H345 0.929 . S
C334 C330 1.531 . S
C334 H346 0.960 . S
C334 H347 0.962 . S
C334 H348 0.960 . S
C335 C332 1.511 . S
C335 H349 0.961 . S
C335 H350 0.961 1_554 S
C335 H351 0.961 . S
C336 C337 1.370 1_565 S
C336 C338 1.363 . S
C336 H352 0.931 . S
C337 C336 1.370 1_545 S
C337 C341 1.408 . S
C338 C336 1.363 . S
C338 C339 1.370 1_565 S
C338 C342 1.524 . S
C339 C331 1.503 1_556 S
C339 C338 1.370 1_545 S
C339 C340 1.403 . S
C340 C339 1.403 . S
C340 C341 1.404 . S
C340 C343 1.539 . S
C341 C337 1.408 . S
C341 C340 1.404 . S
C341 H353 0.930 . S
C342 C338 1.524 . S
C342 H354 0.956 . S
C342 H355 0.961 . S
C342 H356 0.961 . S
C343 C340 1.539 . S
C343 H357 0.958 . S
C343 H358 0.961 . S
C343 H359 0.960 1_556 S
H344 C328 0.931 . S
H345 C333 0.929 . S
H346 C334 0.960 . S
H347 C334 0.962 . S
H348 C334 0.960 . S
H349 C335 0.961 . S
H350 C335 0.961 1_556 S
H351 C335 0.961 . S
H352 C336 0.931 . S
H353 C341 0.930 . S
H354 C342 0.956 . S
H355 C342 0.961 . S
H356 C342 0.961 . S
H357 C343 0.958 . S
H358 C343 0.961 . S
H359 C343 0.960 1_554 S
C360 C361 1.384 1_554 S
C360 C362 1.398 . S
C360 H376 0.934 . S
C361 C360 1.384 1_556 S
C361 C365 1.376 . S
C362 C360 1.398 . S
C362 C363 1.369 . S
C362 C366 1.531 . S
C363 C362 1.369 . S
C363 C364 1.410 1_554 S
C363 C371 1.503 . S
C364 C363 1.410 1_556 S
C364 C365 1.392 . S
C364 C367 1.511 . S
C365 C361 1.376 . S
C365 C364 1.392 . S
C365 H377 0.929 . S
C366 C362 1.531 . S
C366 H378 0.960 . S
C366 H379 0.962 . S
C366 H380 0.960 . S
C367 C364 1.511 . S
C367 H381 0.961 . S
C367 H382 0.961 . S
C367 H383 0.961 . S
C368 C369 1.370 1_556 S
C368 C370 1.363 . S
C368 H384 0.931 . S
C369 C368 1.370 1_554 S
C369 C373 1.408 . S
C370 C368 1.363 . S
C370 C371 1.370 1_556 S
C370 C374 1.524 . S
C371 C363 1.503 . S
C371 C370 1.370 1_554 S
C371 C372 1.403 . S
C372 C371 1.403 . S
C372 C373 1.404 . S
C372 C375 1.539 . S
C373 C369 1.408 . S
C373 C372 1.404 . S
C373 H385 0.930 . S
C374 C370 1.524 . S
C374 H386 0.956 . S
C374 H387 0.961 . S
C374 H388 0.961 . S
C375 C372 1.539 . S
C375 H389 0.958 . S
C375 H390 0.961 . S
C375 H391 0.960 . S
H376 C360 0.934 . S
H377 C365 0.929 . S
H378 C366 0.960 . S
H379 C366 0.962 . S
H380 C366 0.960 . S
H381 C367 0.961 . S
H382 C367 0.961 . S
H383 C367 0.961 . S
H384 C368 0.931 . S
H385 C373 0.930 . S
H386 C374 0.956 . S
H387 C374 0.961 . S
H388 C374 0.961 . S
H389 C375 0.958 . S
H390 C375 0.961 . S
H391 C375 0.960 . S
C392 C393 1.391 . S
C392 C394 1.394 . S
C392 H408 0.931 . S
C393 C392 1.391 . S
C393 C397 1.376 . S
C394 C392 1.394 . S
C394 C395 1.369 . S
C394 C398 1.531 . S
C395 C394 1.369 . S
C395 C396 1.410 . S
C395 C403 1.503 . S
C396 C395 1.410 . S
C396 C397 1.392 . S
C396 C399 1.511 . S
C397 C393 1.376 . S
C397 C396 1.392 . S
C397 H409 0.929 . S
C398 C394 1.531 . S
C398 H410 0.960 . S
C398 H411 0.962 . S
C398 H412 0.960 . S
C399 C396 1.511 . S
C399 H413 0.961 . S
C399 H414 0.961 . S
C399 H415 0.961 . S
C400 C401 1.370 . S
C400 C402 1.363 . S
C400 H416 0.931 . S
C401 C400 1.370 . S
C401 C405 1.408 . S
C402 C400 1.363 . S
C402 C403 1.370 . S
C402 C406 1.524 . S
C403 C395 1.503 . S
C403 C402 1.370 . S
C403 C404 1.403 . S
C404 C403 1.403 . S
C404 C405 1.404 . S
C404 C407 1.539 . S
C405 C401 1.408 . S
C405 C404 1.404 . S
C405 H417 0.930 . S
C406 C402 1.524 . S
C406 H418 0.956 . S
C406 H419 0.961 . S
C406 H420 0.961 . S
C407 C404 1.539 . S
C407 H421 0.958 . S
C407 H422 0.961 . S
C407 H423 0.960 . S
H408 C392 0.931 . S
H409 C397 0.929 . S
H410 C398 0.960 . S
H411 C398 0.962 . S
H412 C398 0.960 . S
H413 C399 0.961 . S
H414 C399 0.961 . S
H415 C399 0.961 . S
H416 C400 0.931 . S
H417 C405 0.930 . S
H418 C406 0.956 . S
H419 C406 0.961 . S
H420 C406 0.961 . S
H421 C407 0.958 . S
H422 C407 0.961 . S
H423 C407 0.960 . S
C424 C425 1.391 . S
C424 C426 1.394 . S
C424 H440 0.931 . S
C425 C424 1.391 . S
C425 C429 1.376 . S
C426 C424 1.394 . S
C426 C427 1.369 . S
C426 C430 1.531 . S
C427 C426 1.369 . S
C427 C428 1.410 . S
C427 C435 1.503 . S
C428 C427 1.410 . S
C428 C429 1.392 . S
C428 C431 1.511 . S
C429 C425 1.376 . S
C429 C428 1.392 . S
C429 H441 0.929 . S
C430 C426 1.531 . S
C430 H442 0.960 . S
C430 H443 0.962 . S
C430 H444 0.960 . S
C431 C428 1.511 . S
C431 H445 0.961 . S
C431 H446 0.961 . S
C431 H447 0.961 . S
C432 C433 1.370 . S
C432 C434 1.363 . S
C432 H448 0.931 . S
C433 C432 1.370 . S
C433 C437 1.408 . S
C434 C432 1.363 . S
C434 C435 1.370 . S
C434 C438 1.524 . S
C435 C427 1.503 . S
C435 C434 1.370 . S
C435 C436 1.403 . S
C436 C435 1.403 . S
C436 C437 1.404 . S
C436 C439 1.539 . S
C437 C433 1.408 . S
C437 C436 1.404 . S
C437 H449 0.930 . S
C438 C434 1.524 . S
C438 H450 0.956 . S
C438 H451 0.961 . S
C438 H452 0.961 . S
C439 C436 1.539 . S
C439 H453 0.958 . S
C439 H454 0.961 . S
C439 H455 0.960 . S
H440 C424 0.931 . S
H441 C429 0.929 . S
H442 C430 0.960 . S
H443 C430 0.962 . S
H444 C430 0.960 . S
H445 C431 0.961 . S
H446 C431 0.961 . S
H447 C431 0.961 . S
H448 C432 0.931 . S
H449 C437 0.930 . S
H450 C438 0.956 . S
H451 C438 0.961 . S
H452 C438 0.961 . S
H453 C439 0.958 . S
H454 C439 0.961 . S
H455 C439 0.960 . S
C456 C457 1.391 1_556 S
C456 C458 1.394 . S
C456 H472 0.931 . S
C457 C456 1.391 1_554 S
C457 C461 1.376 . S
C458 C456 1.394 . S
C458 C459 1.369 1_556 S
C458 C462 1.531 . S
C459 C458 1.369 1_554 S
C459 C460 1.410 . S
C459 C467 1.503 1_554 S
C460 C459 1.410 . S
C460 C461 1.392 . S
C460 C463 1.511 . S
C461 C457 1.376 . S
C461 C460 1.392 . S
C461 H473 0.929 . S
C462 C458 1.531 . S
C462 H474 0.960 . S
C462 H475 0.962 . S
C462 H476 0.960 . S
C463 C460 1.511 . S
C463 H477 0.961 . S
C463 H478 0.961 . S
C463 H479 0.961 . S
C464 C465 1.370 . S
C464 C466 1.363 . S
C464 H480 0.931 . S
C465 C464 1.370 . S
C465 C469 1.408 . S
C466 C464 1.363 . S
C466 C467 1.370 . S
C466 C470 1.523 1_556 S
C467 C459 1.503 1_556 S
C467 C466 1.370 . S
C467 C468 1.403 . S
C468 C467 1.403 . S
C468 C469 1.404 . S
C468 C471 1.539 . S
C469 C465 1.408 . S
C469 C468 1.404 . S
C469 H481 0.930 . S
C470 C466 1.523 1_554 S
C470 H482 0.953 1_554 S
C470 H483 0.965 . S
C470 H484 0.961 . S
C471 C468 1.539 . S
C471 H485 0.958 . S
C471 H486 0.964 . S
C471 H487 0.960 1_556 S
H472 C456 0.931 . S
H473 C461 0.929 . S
H474 C462 0.960 . S
H475 C462 0.962 . S
H476 C462 0.960 . S
H477 C463 0.961 . S
H478 C463 0.961 . S
H479 C463 0.961 . S
H480 C464 0.931 . S
H481 C469 0.930 . S
H482 C470 0.953 1_556 S
H483 C470 0.965 . S
H484 C470 0.961 . S
H485 C471 0.958 . S
H486 C471 0.964 . S
H487 C471 0.960 1_554 S
C488 C489 1.391 . S
C488 C490 1.394 . S
C488 H504 0.931 . S
C489 C488 1.391 . S
C489 C493 1.376 . S
C490 C488 1.394 . S
C490 C491 1.369 . S
C490 C494 1.531 . S
C491 C490 1.369 . S
C491 C492 1.410 . S
C491 C499 1.503 . S
C492 C491 1.410 . S
C492 C493 1.392 . S
C492 C495 1.511 . S
C493 C489 1.376 . S
C493 C492 1.392 . S
C493 H505 0.929 . S
C494 C490 1.531 . S
C494 H506 0.960 . S
C494 H507 0.962 . S
C494 H508 0.960 . S
C495 C492 1.511 . S
C495 H509 0.961 . S
C495 H510 0.961 . S
C495 H511 0.961 . S
C496 C497 1.370 . S
C496 C498 1.363 . S
C496 H512 0.931 . S
C497 C496 1.370 . S
C497 C501 1.408 . S
C498 C496 1.363 . S
C498 C499 1.370 . S
C498 C502 1.524 . S
C499 C491 1.503 . S
C499 C498 1.370 . S
C499 C500 1.403 . S
C500 C499 1.403 . S
C500 C501 1.404 . S
C500 C503 1.539 . S
C501 C497 1.408 . S
C501 C500 1.404 . S
C501 H513 0.930 . S
C502 C498 1.524 . S
C502 H514 0.956 . S
C502 H515 0.961 . S
C502 H516 0.961 . S
C503 C500 1.539 . S
C503 H517 0.958 . S
C503 H518 0.961 . S
C503 H519 0.960 . S
H504 C488 0.931 . S
H505 C493 0.929 . S
H506 C494 0.960 . S
H507 C494 0.962 . S
H508 C494 0.960 . S
H509 C495 0.961 . S
H510 C495 0.961 . S
H511 C495 0.961 . S
H512 C496 0.931 . S
H513 C501 0.930 . S
H514 C502 0.956 . S
H515 C502 0.961 . S
H516 C502 0.961 . S
H517 C503 0.958 . S
H518 C503 0.961 . S
H519 C503 0.960 . S
C520 C521 1.391 . S
C520 C522 1.394 . S
C520 H536 0.931 . S
C521 C520 1.391 . S
C521 C525 1.376 . S
C522 C520 1.394 . S
C522 C523 1.369 . S
C522 C526 1.531 . S
C523 C522 1.369 . S
C523 C524 1.410 . S
C523 C531 1.503 . S
C524 C523 1.410 . S
C524 C525 1.392 . S
C524 C527 1.511 . S
C525 C521 1.376 . S
C525 C524 1.392 . S
C525 H537 0.929 . S
C526 C522 1.531 . S
C526 H538 0.960 . S
C526 H539 0.962 . S
C526 H540 0.960 . S
C527 C524 1.511 . S
C527 H541 0.961 . S
C527 H542 0.961 . S
C527 H543 0.961 . S
C528 C529 1.370 . S
C528 C530 1.363 . S
C528 H544 0.931 . S
C529 C528 1.370 . S
C529 C533 1.408 . S
C530 C528 1.363 . S
C530 C531 1.370 . S
C530 C534 1.524 . S
C531 C523 1.503 . S
C531 C530 1.370 . S
C531 C532 1.403 . S
C532 C531 1.403 . S
C532 C533 1.404 . S
C532 C535 1.539 . S
C533 C529 1.408 . S
C533 C532 1.404 . S
C533 H545 0.930 . S
C534 C530 1.524 . S
C534 H546 0.956 . S
C534 H547 0.961 . S
C534 H548 0.961 . S
C535 C532 1.539 . S
C535 H549 0.958 . S
C535 H550 0.961 . S
C535 H551 0.960 . S
H536 C520 0.931 . S
H537 C525 0.929 . S
H538 C526 0.960 . S
H539 C526 0.962 . S
H540 C526 0.960 . S
H541 C527 0.961 . S
H542 C527 0.961 . S
H543 C527 0.961 . S
H544 C528 0.931 . S
H545 C533 0.930 . S
H546 C534 0.956 . S
H547 C534 0.961 . S
H548 C534 0.961 . S
H549 C535 0.958 . S
H550 C535 0.961 . S
H551 C535 0.960 . S
C552 C553 1.391 . S
C552 C554 1.394 . S
C552 H568 0.931 . S
C553 C552 1.391 . S
C553 C557 1.376 . S
C554 C552 1.394 . S
C554 C555 1.369 . S
C554 C558 1.531 . S
C555 C554 1.369 . S
C555 C556 1.410 . S
C555 C563 1.503 . S
C556 C555 1.410 . S
C556 C557 1.392 . S
C556 C559 1.511 . S
C557 C553 1.376 . S
C557 C556 1.392 . S
C557 H569 0.929 . S
C558 C554 1.531 . S
C558 H570 0.960 . S
C558 H571 0.962 . S
C558 H572 0.960 . S
C559 C556 1.511 . S
C559 H573 0.961 . S
C559 H574 0.961 . S
C559 H575 0.961 . S
C560 C561 1.370 . S
C560 C562 1.363 . S
C560 H576 0.931 . S
C561 C560 1.370 . S
C561 C565 1.408 . S
C562 C560 1.363 . S
C562 C563 1.370 . S
C562 C566 1.524 . S
C563 C555 1.503 . S
C563 C562 1.370 . S
C563 C564 1.403 . S
C564 C563 1.403 . S
C564 C565 1.404 . S
C564 C567 1.539 . S
C565 C561 1.408 . S
C565 C564 1.404 . S
C565 H577 0.930 . S
C566 C562 1.524 . S
C566 H578 0.956 . S
C566 H579 0.961 . S
C566 H580 0.961 . S
C567 C564 1.539 . S
C567 H581 0.958 . S
C567 H582 0.961 . S
C567 H583 0.960 . S
H568 C552 0.931 . S
H569 C557 0.929 . S
H570 C558 0.960 . S
H571 C558 0.962 . S
H572 C558 0.960 . S
H573 C559 0.961 . S
H574 C559 0.961 . S
H575 C559 0.961 . S
H576 C560 0.931 . S
H577 C565 0.930 . S
H578 C566 0.956 . S
H579 C566 0.961 . S
H580 C566 0.961 . S
H581 C567 0.958 . S
H582 C567 0.961 . S
H583 C567 0.960 . S
C584 C585 1.391 . S
C584 C586 1.394 . S
C584 H600 0.931 . S
C585 C584 1.391 . S
C585 C589 1.376 . S
C586 C584 1.394 . S
C586 C587 1.369 . S
C586 C590 1.559 . S
C587 C586 1.369 . S
C587 C588 1.410 . S
C587 C595 1.503 . S
C588 C587 1.410 . S
C588 C589 1.392 . S
C588 C591 1.511 . S
C589 C585 1.376 . S
C589 C588 1.392 . S
C589 H601 0.929 . S
C590 C586 1.559 . S
C590 H602 0.976 . S
C590 H603 0.925 1_655 S
C590 H604 0.955 . S
C591 C588 1.511 . S
C591 H605 0.961 . S
C591 H606 0.961 . S
C591 H607 0.961 . S
C592 C593 1.370 1_455 S
C592 C594 1.363 . S
C592 H608 0.931 . S
C593 C592 1.370 1_655 S
C593 C597 1.408 . S
C594 C592 1.363 . S
C594 C595 1.370 1_455 S
C594 C598 1.524 . S
C595 C587 1.503 . S
C595 C594 1.370 1_655 S
C595 C596 1.403 . S
C596 C595 1.403 . S
C596 C597 1.404 . S
C596 C599 1.539 . S
C597 C593 1.408 . S
C597 C596 1.404 . S
C597 H609 0.930 . S
C598 C594 1.524 . S
C598 H610 0.956 . S
C598 H611 0.961 . S
C598 H612 0.961 . S
C599 C596 1.539 . S
C599 H613 0.958 . S
C599 H614 0.961 . S
C599 H615 0.960 . S
H600 C584 0.931 . S
H601 C589 0.929 . S
H602 C590 0.976 . S
H603 C590 0.925 1_455 S
H604 C590 0.955 . S
H605 C591 0.961 . S
H606 C591 0.961 . S
H607 C591 0.961 . S
H608 C592 0.931 . S
H609 C597 0.930 . S
H610 C598 0.956 . S
H611 C598 0.961 . S
H612 C598 0.961 . S
H613 C599 0.958 . S
H614 C599 0.961 . S
H615 C599 0.960 . S
C616 C617 1.391 . S
C616 C618 1.394 . S
C616 H632 0.931 . S
C617 C616 1.391 . S
C617 C621 1.376 1_565 S
C618 C616 1.394 . S
C618 C619 1.369 . S
C618 C622 1.531 . S
C619 C618 1.369 . S
C619 C620 1.410 1_565 S
C619 C627 1.503 . S
C620 C619 1.410 1_545 S
C620 C621 1.392 . S
C620 C623 1.511 . S
C621 C617 1.376 1_545 S
C621 C620 1.392 . S
C621 H633 0.929 . S
C622 C618 1.531 . S
C622 H634 0.960 . S
C622 H635 0.962 . S
C622 H636 0.960 . S
C623 C620 1.511 . S
C623 H637 0.961 . S
C623 H638 0.961 . S
C623 H639 0.961 . S
C624 C625 1.370 . S
C624 C626 1.363 . S
C624 H640 0.931 . S
C625 C624 1.370 . S
C625 C629 1.408 1_545 S
C626 C624 1.363 . S
C626 C627 1.370 1_545 S
C626 C630 1.524 . S
C627 C619 1.503 . S
C627 C626 1.370 1_565 S
C627 C628 1.403 . S
C628 C627 1.403 . S
C628 C629 1.404 . S
C628 C631 1.539 . S
C629 C625 1.408 1_565 S
C629 C628 1.404 . S
C629 H641 0.930 . S
C630 C626 1.524 . S
C630 H642 0.956 . S
C630 H643 0.961 . S
C630 H644 0.961 . S
C631 C628 1.539 . S
C631 H645 0.958 . S
C631 H646 0.961 . S
C631 H647 0.960 . S
H632 C616 0.931 . S
H633 C621 0.929 . S
H634 C622 0.960 . S
H635 C622 0.962 . S
H636 C622 0.960 . S
H637 C623 0.961 . S
H638 C623 0.961 . S
H639 C623 0.961 . S
H640 C624 0.931 . S
H641 C629 0.930 . S
H642 C630 0.956 . S
H643 C630 0.961 . S
H644 C630 0.961 . S
H645 C631 0.958 . S
H646 C631 0.961 . S
H647 C631 0.960 . S
C648 C649 1.391 . S
C648 C650 1.394 . S
C648 H664 0.931 . S
C649 C648 1.391 . S
C649 C653 1.376 . S
C650 C648 1.394 . S
C650 C651 1.369 . S
C650 C654 1.531 . S
C651 C650 1.369 . S
C651 C652 1.410 . S
C651 C659 1.503 . S
C652 C651 1.410 . S
C652 C653 1.392 . S
C652 C655 1.511 . S
C653 C649 1.376 . S
C653 C652 1.392 . S
C653 H665 0.929 . S
C654 C650 1.531 . S
C654 H666 0.960 . S
C654 H667 0.962 . S
C654 H668 0.960 . S
C655 C652 1.511 . S
C655 H669 0.961 . S
C655 H670 0.961 . S
C655 H671 0.961 . S
C656 C657 1.370 . S
C656 C658 1.363 . S
C656 H672 0.931 . S
C657 C656 1.370 . S
C657 C661 1.408 . S
C658 C656 1.363 . S
C658 C659 1.370 . S
C658 C662 1.524 . S
C659 C651 1.503 . S
C659 C658 1.370 . S
C659 C660 1.403 . S
C660 C659 1.403 . S
C660 C661 1.404 . S
C660 C663 1.539 . S
C661 C657 1.408 . S
C661 C660 1.404 . S
C661 H673 0.930 . S
C662 C658 1.524 . S
C662 H674 0.956 . S
C662 H675 0.961 . S
C662 H676 0.961 . S
C663 C660 1.539 . S
C663 H677 0.958 . S
C663 H678 0.961 . S
C663 H679 0.960 . S
H664 C648 0.931 . S
H665 C653 0.929 . S
H666 C654 0.960 . S
H667 C654 0.962 . S
H668 C654 0.960 . S
H669 C655 0.961 . S
H670 C655 0.961 . S
H671 C655 0.961 . S
H672 C656 0.931 . S
H673 C661 0.930 . S
H674 C662 0.956 . S
H675 C662 0.961 . S
H676 C662 0.961 . S
H677 C663 0.958 . S
H678 C663 0.961 . S
H679 C663 0.960 . S
C680 C681 1.391 . S
C680 C682 1.394 . S
C680 H696 0.931 . S
C681 C680 1.391 . S
C681 C685 1.376 . S
C682 C680 1.394 . S
C682 C683 1.369 . S
C682 C686 1.531 . S
C683 C682 1.369 . S
C683 C684 1.410 1_455 S
C683 C691 1.503 . S
C684 C683 1.410 1_655 S
C684 C685 1.392 1_655 S
C684 C687 1.511 . S
C685 C681 1.376 . S
C685 C684 1.392 1_455 S
C685 H697 0.929 1_455 S
C686 C682 1.531 . S
C686 H698 0.960 . S
C686 H699 0.962 . S
C686 H700 0.960 . S
C687 C684 1.511 . S
C687 H701 0.961 . S
C687 H702 0.961 . S
C687 H703 0.961 . S
C688 C689 1.361 1_455 S
C688 C690 1.363 . S
C688 H704 0.931 . S
C689 C688 1.361 1_655 S
C689 C693 1.417 . S
C690 C688 1.363 . S
C690 C691 1.370 . S
C690 C694 1.524 . S
C691 C683 1.503 . S
C691 C690 1.370 . S
C691 C692 1.403 1_455 S
C692 C691 1.403 1_655 S
C692 C693 1.404 . S
C692 C695 1.539 . S
C693 C689 1.417 . S
C693 C692 1.404 . S
C693 H705 0.930 . S
C694 C690 1.524 . S
C694 H706 0.956 . S
C694 H707 0.961 . S
C694 H708 0.961 . S
C695 C692 1.539 . S
C695 H709 0.958 . S
C695 H710 0.961 . S
C695 H711 0.960 . S
H696 C680 0.931 . S
H697 C685 0.929 1_655 S
H698 C686 0.960 . S
H699 C686 0.962 . S
H700 C686 0.960 . S
H701 C687 0.961 . S
H702 C687 0.961 . S
H703 C687 0.961 . S
H704 C688 0.931 . S
H705 C693 0.930 . S
H706 C694 0.956 . S
H707 C694 0.961 . S
H708 C694 0.961 . S
H709 C695 0.958 . S
H710 C695 0.961 . S
H711 C695 0.960 . S
C712 C713 1.391 1_545 S
C712 C714 1.394 . S
C712 H728 0.931 . S
C713 C712 1.391 1_565 S
C713 C717 1.376 . S
C714 C712 1.394 . S
C714 C715 1.369 . S
C714 C718 1.531 . S
C715 C714 1.369 . S
C715 C716 1.410 1_545 S
C715 C723 1.503 . S
C716 C715 1.410 1_565 S
C716 C717 1.392 . S
C716 C719 1.511 . S
C717 C713 1.376 . S
C717 C716 1.392 . S
C717 H729 0.929 . S
C718 C714 1.531 . S
C718 H730 0.960 . S
C718 H731 0.962 . S
C718 H732 0.960 . S
C719 C716 1.511 . S
C719 H733 0.961 . S
C719 H734 0.961 . S
C719 H735 0.961 . S
C720 C721 1.370 1_565 S
C720 C722 1.363 . S
C720 H736 0.931 . S
C721 C720 1.370 1_545 S
C721 C725 1.408 . S
C722 C720 1.363 . S
C722 C723 1.370 1_565 S
C722 C726 1.524 . S
C723 C715 1.503 . S
C723 C722 1.370 1_545 S
C723 C724 1.403 . S
C724 C723 1.403 . S
C724 C725 1.404 . S
C724 C727 1.539 . S
C725 C721 1.408 . S
C725 C724 1.404 . S
C725 H737 0.930 . S
C726 C722 1.524 . S
C726 H738 0.956 . S
C726 H739 0.961 . S
C726 H740 0.961 . S
C727 C724 1.539 . S
C727 H741 0.958 . S
C727 H742 0.961 . S
C727 H743 0.960 . S
H728 C712 0.931 . S
H729 C717 0.929 . S
H730 C718 0.960 . S
H731 C718 0.962 . S
H732 C718 0.960 . S
H733 C719 0.961 . S
H734 C719 0.961 . S
H735 C719 0.961 . S
H736 C720 0.931 . S
H737 C725 0.930 . S
H738 C726 0.956 . S
H739 C726 0.961 . S
H740 C726 0.961 . S
H741 C727 0.958 . S
H742 C727 0.961 . S
H743 C727 0.960 . S
C744 C745 1.391 . S
C744 C746 1.394 . S
C744 H760 0.931 . S
C745 C744 1.391 . S
C745 C749 1.376 . S
C746 C744 1.394 . S
C746 C747 1.369 . S
C746 C750 1.531 . S
C747 C746 1.369 . S
C747 C748 1.410 . S
C747 C755 1.503 . S
C748 C747 1.410 . S
C748 C749 1.392 . S
C748 C751 1.511 . S
C749 C745 1.376 . S
C749 C748 1.392 . S
C749 H761 0.929 . S
C750 C746 1.531 . S
C750 H762 0.960 . S
C750 H763 0.962 . S
C750 H764 0.960 . S
C751 C748 1.511 . S
C751 H765 0.961 . S
C751 H766 0.961 . S
C751 H767 0.961 . S
C752 C753 1.370 . S
C752 C754 1.363 . S
C752 H768 0.931 . S
C753 C752 1.370 . S
C753 C757 1.408 . S
C754 C752 1.363 . S
C754 C755 1.370 . S
C754 C758 1.524 . S
C755 C747 1.503 . S
C755 C754 1.370 . S
C755 C756 1.403 . S
C756 C755 1.403 . S
C756 C757 1.404 . S
C756 C759 1.539 1_554 S
C757 C753 1.408 . S
C757 C756 1.404 . S
C757 H769 0.930 1_554 S
C758 C754 1.524 . S
C758 H770 0.956 . S
C758 H771 0.961 . S
C758 H772 0.961 . S
C759 C756 1.539 1_556 S
C759 H773 0.958 . S
C759 H774 0.961 . S
C759 H775 0.960 . S
H760 C744 0.931 . S
H761 C749 0.929 . S
H762 C750 0.960 . S
H763 C750 0.962 . S
H764 C750 0.960 . S
H765 C751 0.961 . S
H766 C751 0.961 . S
H767 C751 0.961 . S
H768 C752 0.931 . S
H769 C757 0.930 1_556 S
H770 C758 0.956 . S
H771 C758 0.961 . S
H772 C758 0.961 . S
H773 C759 0.958 . S
H774 C759 0.961 . S
H775 C759 0.960 . S
C776 C777 1.391 . S
C776 C778 1.394 . S
C776 H792 0.931 . S
C777 C776 1.391 . S
C777 C781 1.376 . S
C778 C776 1.394 . S
C778 C779 1.369 . S
C778 C782 1.531 . S
C779 C778 1.369 . S
C779 C780 1.434 . S
C779 C787 1.503 1_455 S
C780 C779 1.434 . S
C780 C781 1.393 . S
C780 C783 1.487 1_455 S
C781 C777 1.376 . S
C781 C780 1.393 . S
C781 H793 0.929 . S
C782 C778 1.531 . S
C782 H794 0.960 . S
C782 H795 0.962 . S
C782 H796 0.960 . S
C783 C780 1.487 1_655 S
C783 H797 0.961 . S
C783 H798 0.961 . S
C783 H799 0.961 . S
C784 C785 1.370 . S
C784 C786 1.363 . S
C784 H800 0.931 . S
C785 C784 1.370 . S
C785 C789 1.408 . S
C786 C784 1.363 . S
C786 C787 1.370 . S
C786 C790 1.524 . S
C787 C779 1.503 1_655 S
C787 C786 1.370 . S
C787 C788 1.403 . S
C788 C787 1.403 . S
C788 C789 1.404 . S
C788 C791 1.539 1_655 S
C789 C785 1.408 . S
C789 C788 1.404 . S
C789 H801 0.930 . S
C790 C786 1.524 . S
C790 H802 0.956 . S
C790 H803 0.961 . S
C790 H804 0.961 . S
C791 C788 1.539 1_455 S
C791 H805 0.958 . S
C791 H806 0.961 . S
C791 H807 0.960 . S
H792 C776 0.931 . S
H793 C781 0.929 . S
H794 C782 0.960 . S
H795 C782 0.962 . S
H796 C782 0.960 . S
H797 C783 0.961 . S
H798 C783 0.961 . S
H799 C783 0.961 . S
H800 C784 0.931 . S
H801 C789 0.930 . S
H802 C790 0.956 . S
H803 C790 0.961 . S
H804 C790 0.961 . S
H805 C791 0.958 . S
H806 C791 0.961 . S
H807 C791 0.960 . S
C808 C809 1.391 . S
C808 C810 1.394 1_565 S
C808 H824 0.931 . S
C809 C808 1.391 . S
C809 C813 1.376 . S
C810 C808 1.394 1_545 S
C810 C811 1.369 1_545 S
C810 C814 1.531 . S
C811 C810 1.369 1_565 S
C811 C812 1.410 . S
C811 C819 1.503 1_565 S
C812 C811 1.410 . S
C812 C813 1.392 . S
C812 C815 1.511 . S
C813 C809 1.376 . S
C813 C812 1.392 . S
C813 H825 0.929 . S
C814 C810 1.531 . S
C814 H826 0.960 . S
C814 H827 0.962 . S
C814 H828 0.960 . S
C815 C812 1.511 . S
C815 H829 0.961 . S
C815 H830 0.961 . S
C815 H831 0.961 . S
C816 C817 1.370 . S
C816 C818 1.363 . S
C816 H832 0.931 . S
C817 C816 1.370 . S
C817 C821 1.408 . S
C818 C816 1.363 . S
C818 C819 1.370 . S
C818 C822 1.524 . S
C819 C811 1.503 1_545 S
C819 C818 1.370 . S
C819 C820 1.403 . S
C820 C819 1.403 . S
C820 C821 1.404 . S
C820 C823 1.541 . S
C821 C817 1.408 . S
C821 C820 1.404 . S
C821 H833 0.930 . S
C822 C818 1.524 . S
C822 H834 0.956 . S
C822 H835 0.961 1_545 S
C822 H836 0.961 . S
C823 C820 1.541 . S
C823 H837 0.959 . S
C823 H838 0.962 1_545 S
C823 H839 0.955 1_545 S
H824 C808 0.931 . S
H825 C813 0.929 . S
H826 C814 0.960 . S
H827 C814 0.962 . S
H828 C814 0.960 . S
H829 C815 0.961 . S
H830 C815 0.961 . S
H831 C815 0.961 . S
H832 C816 0.931 . S
H833 C821 0.930 . S
H834 C822 0.956 . S
H835 C822 0.961 1_565 S
H836 C822 0.961 . S
H837 C823 0.959 . S
H838 C823 0.962 1_565 S
H839 C823 0.955 1_565 S
C840 C841 1.391 . S
C840 C842 1.394 . S
C840 H856 0.931 . S
C841 C840 1.391 . S
C841 C845 1.376 . S
C842 C840 1.394 . S
C842 C843 1.369 . S
C842 C846 1.531 . S
C843 C842 1.369 . S
C843 C844 1.410 . S
C843 C851 1.503 . S
C844 C843 1.410 . S
C844 C845 1.392 . S
C844 C847 1.511 . S
C845 C841 1.376 . S
C845 C844 1.392 . S
C845 H857 0.929 . S
C846 C842 1.531 . S
C846 H858 0.960 . S
C846 H859 0.962 . S
C846 H860 0.960 . S
C847 C844 1.511 . S
C847 H861 0.961 . S
C847 H862 0.961 . S
C847 H863 0.961 . S
C848 C849 1.370 . S
C848 C850 1.363 . S
C848 H864 0.931 . S
C849 C848 1.370 . S
C849 C853 1.408 . S
C850 C848 1.363 . S
C850 C851 1.370 . S
C850 C854 1.524 . S
C851 C843 1.503 . S
C851 C850 1.370 . S
C851 C852 1.403 . S
C852 C851 1.403 . S
C852 C853 1.404 . S
C852 C855 1.539 . S
C853 C849 1.408 . S
C853 C852 1.404 . S
C853 H865 0.930 . S
C854 C850 1.524 . S
C854 H866 0.956 . S
C854 H867 0.961 . S
C854 H868 0.961 . S
C855 C852 1.539 . S
C855 H869 0.958 . S
C855 H870 0.961 . S
C855 H871 0.960 . S
H856 C840 0.931 . S
H857 C845 0.929 . S
H858 C846 0.960 . S
H859 C846 0.962 . S
H860 C846 0.960 . S
H861 C847 0.961 . S
H862 C847 0.961 . S
H863 C847 0.961 . S
H864 C848 0.931 . S
H865 C853 0.930 . S
H866 C854 0.956 . S
H867 C854 0.961 . S
H868 C854 0.961 . S
H869 C855 0.958 . S
H870 C855 0.961 . S
H871 C855 0.960 . S
C872 C873 1.391 . S
C872 C874 1.394 . S
C872 H888 0.931 . S
C873 C872 1.391 . S
C873 C877 1.376 . S
C874 C872 1.394 . S
C874 C875 1.369 . S
C874 C878 1.531 . S
C875 C874 1.369 . S
C875 C876 1.410 1_655 S
C875 C883 1.503 1_655 S
C876 C875 1.410 1_455 S
C876 C877 1.392 1_455 S
C876 C879 1.511 . S
C877 C873 1.376 . S
C877 C876 1.392 1_655 S
C877 H889 0.929 1_655 S
C878 C874 1.531 . S
C878 H890 0.960 . S
C878 H891 0.962 . S
C878 H892 0.960 . S
C879 C876 1.511 . S
C879 H893 0.961 1_556 S
C879 H894 0.961 1_556 S
C879 H895 0.961 . S
C880 C881 1.370 . S
C880 C882 1.363 1_455 S
C880 H896 0.932 . S
C881 C880 1.370 . S
C881 C885 1.408 . S
C882 C880 1.363 1_655 S
C882 C883 1.370 1_655 S
C882 C886 1.524 1_556 S
C883 C875 1.503 1_455 S
C883 C882 1.370 1_455 S
C883 C884 1.403 . S
C884 C883 1.403 . S
C884 C885 1.404 . S
C884 C887 1.539 . S
C885 C881 1.408 . S
C885 C884 1.404 . S
C885 H897 0.930 . S
C886 C882 1.524 1_554 S
C886 H898 0.956 1_554 S
C886 H899 0.961 . S
C886 H900 0.961 . S
C887 C884 1.539 . S
C887 H901 0.958 . S
C887 H902 0.961 . S
C887 H903 0.960 . S
H888 C872 0.931 . S
H889 C877 0.929 1_455 S
H890 C878 0.960 . S
H891 C878 0.962 . S
H892 C878 0.960 . S
H893 C879 0.961 1_554 S
H894 C879 0.961 1_554 S
H895 C879 0.961 . S
H896 C880 0.932 . S
H897 C885 0.930 . S
H898 C886 0.956 1_556 S
H899 C886 0.961 . S
H900 C886 0.961 . S
H901 C887 0.958 . S
H902 C887 0.961 . S
H903 C887 0.960 . S
C904 C905 1.391 . S
C904 C906 1.394 . S
C904 H920 0.931 . S
C905 C904 1.391 . S
C905 C909 1.376 . S
C906 C904 1.394 . S
C906 C907 1.369 . S
C906 C910 1.531 . S
C907 C906 1.369 . S
C907 C908 1.410 1_545 S
C907 C915 1.503 1_545 S
C908 C907 1.410 1_565 S
C908 C909 1.392 1_565 S
C908 C911 1.511 . S
C909 C905 1.376 . S
C909 C908 1.392 1_545 S
C909 H921 0.929 . S
C910 C906 1.531 . S
C910 H922 0.960 . S
C910 H923 0.962 . S
C910 H924 0.960 . S
C911 C908 1.511 . S
C911 H925 0.961 . S
C911 H926 0.961 . S
C911 H927 0.961 . S
C912 C913 1.370 . S
C912 C914 1.363 . S
C912 H928 0.931 . S
C913 C912 1.370 . S
C913 C917 1.408 . S
C914 C912 1.363 . S
C914 C915 1.370 . S
C914 C918 1.524 1_565 S
C915 C907 1.503 1_565 S
C915 C914 1.370 . S
C915 C916 1.403 . S
C916 C915 1.403 . S
C916 C917 1.404 . S
C916 C919 1.539 . S
C917 C913 1.408 . S
C917 C916 1.404 . S
C917 H929 0.930 . S
C918 C914 1.524 1_545 S
C918 H930 0.956 . S
C918 H931 0.961 . S
C918 H932 0.961 . S
C919 C916 1.539 . S
C919 H933 0.958 . S
C919 H934 0.961 . S
C919 H935 0.960 . S
H920 C904 0.931 . S
H921 C909 0.929 . S
H922 C910 0.960 . S
H923 C910 0.962 . S
H924 C910 0.960 . S
H925 C911 0.961 . S
H926 C911 0.961 . S
H927 C911 0.961 . S
H928 C912 0.931 . S
H929 C917 0.930 . S
H930 C918 0.956 . S
H931 C918 0.961 . S
H932 C918 0.961 . S
H933 C919 0.958 . S
H934 C919 0.961 . S
H935 C919 0.960 . S
C169 C11 1.502 . S
C177 C137 1.496 . S
C201 C25 1.508 . S
C209 C151 1.494 1_655 S
C233 C33 1.050 . S
C241 C159 1.014 . S
C265 C53 1.470 . S
C273 C95 1.490 . S
C297 C109 1.487 . S
C305 C67 1.497 . S
C329 C117 1.047 . S
C337 C75 1.012 . S
C361 C145 1.215 . S
C369 C5 1.144 . S
C393 C19 1.171 . S
C401 C165 1.248 . S
C425 C39 1.255 . S
C433 C89 1.157 . S
C457 C47 1.191 . S
C465 C103 1.170 . S
C489 C61 1.193 . S
C497 C123 1.256 . S
C521 C81 1.268 . S
C529 C131 1.127 . S
C553 C130 0.818 . S
C561 C4 0.814 . S
C585 C18 0.821 . S
C593 C144 0.815 1_655 S
C617 C40 0.488 . S
C625 C166 0.573 . S
C649 C88 0.755 . S
C657 C46 0.784 . S
C681 C60 0.795 . S
C689 C102 0.798 . S
C713 C124 0.639 . S
C721 C82 0.561 . S
C745 C12 1.352 . S
C753 C54 1.346 . S
C777 C68 1.398 . S
C785 C26 1.382 . S
C809 C32 1.299 . S
C817 C74 1.311 . S
C841 C96 1.366 . S
C849 C138 1.395 . S
C873 C110 1.328 . S
C881 C152 1.355 . S
C905 C158 1.333 . S
C913 C116 1.340 . S
