# Generated by pormake.
# Topology rob, (6)-cn, num edge types: 1
# Building blocks:
#     Node 0, Type 0, BuildingBlock: GEDQOX_clean_sbu_0, # of connection points: 6
#     Node 1, Type 0, BuildingBlock: GEDQOX_clean_sbu_0, # of connection points: 6
#     Node 2, Type 0, BuildingBlock: GEDQOX_clean_sbu_0, # of connection points: 6
#     Node 3, Type 0, BuildingBlock: GEDQOX_clean_sbu_0, # of connection points: 6
#     Edge 4, Type (0, 0), BuildingBlock: ZUJKAS_clean_linker_0, # of connection points: 2
#     Edge 5, Type (0, 0), BuildingBlock: ZUJKAS_clean_linker_0, # of connection points: 2
#     Edge 6, Type (0, 0), BuildingBlock: ZUJKAS_clean_linker_0, # of connection points: 2
#     Edge 7, Type (0, 0), BuildingBlock: ZUJKAS_clean_linker_0, # of connection points: 2
#     Edge 8, Type (0, 0), BuildingBlock: ZUJKAS_clean_linker_0, # of connection points: 2
#     Edge 9, Type (0, 0), BuildingBlock: ZUJKAS_clean_linker_0, # of connection points: 2
#     Edge 10, Type (0, 0), BuildingBlock: ZUJKAS_clean_linker_0, # of connection points: 2
#     Edge 11, Type (0, 0), BuildingBlock: ZUJKAS_clean_linker_0, # of connection points: 2
#     Edge 12, Type (0, 0), BuildingBlock: ZUJKAS_clean_linker_0, # of connection points: 2
#     Edge 13, Type (0, 0), BuildingBlock: ZUJKAS_clean_linker_0, # of connection points: 2
#     Edge 14, Type (0, 0), BuildingBlock: ZUJKAS_clean_linker_0, # of connection points: 2
#     Edge 15, Type (0, 0), BuildingBlock: ZUJKAS_clean_linker_0, # of connection points: 2
# Relax obj value: 0.059
# Max RMSD: 0.206
# Mean RMSD: 0.144
data_MOF--net-rob--node1-GEDQOX_clean_sbu_0--edge1-ZUJKAS_clean_linker_0
_symmetry_space_group_name_H-M    P1
_symmetry_Int_Tables_number       1
_symmetry_cell_setting            triclinic
loop_
_symmetry_equiv_pos_as_xyz
'x, y, z'
_cell_length_a     23.539689
_cell_length_b     44.406191
_cell_length_c     37.777874
_cell_angle_alpha  109.57245
_cell_angle_beta   107.71077
_cell_angle_gamma 61.090412
loop_
_atom_site_label
_atom_site_type_symbol
_atom_site_fract_x
_atom_site_fract_y
_atom_site_fract_z
_atom_type_partial_charge
Nd0 Nd 0.21207 0.31068 0.00576 0.0
Nd1 Nd 0.24261 0.2333 0.98151 0.0
C2 C 0.19106 0.37628 0.01079 0.0
C3 C 0.2262 0.39475 0.00675 0.0
C4 C 0.26279 0.3815 0.97735 0.0
C5 C 0.29729 0.39899 0.97502 0.0
C6 C 0.29573 0.43022 0.00195 0.0
C7 C 0.25864 0.44342 0.03118 0.0
C8 C 0.2244 0.42587 0.03353 0.0
C9 C 0.29926 0.2724 0.05837 0.0
C10 C 0.32575 0.25539 0.95076 0.0
C11 C 0.26248 0.16816 0.97766 0.0
C12 C 0.22706 0.15141 0.98478 0.0
C13 C 0.26216 0.118 -0.00654 0.0
C14 C 0.22897 0.10104 -0.00155 0.0
C15 C 0.1598 0.11709 -0.00533 0.0
C16 C 0.1249 0.15091 0.9866 0.0
C17 C 0.15818 0.16794 0.98185 0.0
C18 C 0.15556 0.27169 0.92893 0.0
C19 C 0.12905 0.28846 0.03626 0.0
O20 O 0.17085 0.35687 0.97991 0.0
O21 O 0.21527 0.36159 0.03996 0.0
O22 O 0.25287 0.30372 0.06685 0.0
O23 O 0.30086 0.2623 0.02305 0.0
O24 O 0.28391 0.28808 0.96355 0.0
O25 O 0.32695 0.22812 0.95838 0.0
O26 O 0.28674 0.18672 0.00739 0.0
O27 O 0.23524 0.18325 0.94869 0.0
O28 O 0.20195 0.24033 0.92042 0.0
O29 O 0.15379 0.28167 0.96423 0.0
O30 O 0.17229 0.25594 0.02449 0.0
O31 O 0.12657 0.31554 0.02752 0.0
H32 H 0.26482 0.35761 0.95621 0.0
H33 H 0.32463 0.38823 0.95187 0.0
H34 H 0.25697 0.46703 0.05276 0.0
H35 H 0.19682 0.43651 0.05657 0.0
H36 H 0.31529 0.10476 -0.00416 0.0
H37 H 0.25744 0.07494 0.00432 0.0
H38 H 0.07177 0.1643 0.98406 0.0
H39 H 0.13001 0.19387 0.97548 0.0
Nd40 Nd 0.73251 0.80547 0.00463 0.0
Nd41 Nd 0.7351 0.73239 0.97313 0.0
C42 C 0.71388 0.87218 0.02139 0.0
C43 C 0.75075 0.8912 0.02096 0.0
C44 C 0.71622 0.92491 0.01304 0.0
C45 C 0.75012 0.94292 0.01131 0.0
C46 C 0.81949 0.92763 0.01756 0.0
C47 C 0.85397 0.89381 0.02565 0.0
C48 C 0.81997 0.87572 0.02716 0.0
C49 C 0.83802 0.75395 0.0388 0.0
C50 C 0.82797 0.74961 0.94307 0.0
C51 C 0.73348 0.66979 0.95679 0.0
C52 C 0.71033 0.64959 0.96848 0.0
C53 C 0.67589 0.66441 -0.00093 0.0
C54 C 0.64685 0.64636 0.00628 0.0
C55 C 0.65169 0.61315 0.98299 0.0
C56 C 0.68798 0.59814 0.95307 0.0
C57 C 0.71684 0.61619 0.94593 0.0
C58 C 0.66362 0.7776 0.92503 0.0
C59 C 0.64385 0.78753 0.039 0.0
O60 O 0.69139 0.85653 0.98803 0.0
O61 O 0.73817 0.85312 0.0469 0.0
O62 O 0.8422 0.77851 0.02984 0.0
O63 O 0.77955 0.75725 0.02953 0.0
O64 O 0.78926 0.78305 0.95546 0.0
O65 O 0.82518 0.72394 0.95191 0.0
O66 O 0.78297 0.67652 0.97892 0.0
O67 O 0.68732 0.69639 0.94228 0.0
O68 O 0.70312 0.74481 0.91434 0.0
O69 O 0.66157 0.7859 0.96015 0.0
O70 O 0.6645 0.75604 0.01575 0.0
O71 O 0.66137 0.8119 0.03975 0.0
H72 H 0.66284 0.9373 0.00802 0.0
H73 H 0.7219 0.96903 0.00543 0.0
H74 H 0.9073 0.88101 0.03012 0.0
H75 H 0.84778 0.84953 0.03286 0.0
H76 H 0.67017 0.69023 0.01676 0.0
H77 H 0.6201 0.65859 0.02988 0.0
H78 H 0.69207 0.57298 0.93412 0.0
H79 H 0.74251 0.60448 0.92189 0.0
Nd80 Nd 0.27689 0.77981 0.47427 0.0
Nd81 Nd 0.17681 0.76519 0.50545 0.0
C82 C 0.32034 0.81113 0.4472 0.0
C83 C 0.34725 0.80774 0.41488 0.0
C84 C 0.33591 0.83855 0.40589 0.0
C85 C 0.35943 0.83664 0.37506 0.0
C86 C 0.39505 0.80376 0.35246 0.0
C87 C 0.40619 0.77279 0.36152 0.0
C88 C 0.3824 0.77476 0.39246 0.0
C89 C 0.32838 0.7088 0.47787 0.0
C90 C 0.1726 0.7492 0.41294 0.0
C91 C 0.13556 0.73311 0.53294 0.0
C92 C 0.11199 0.73482 0.56593 0.0
C93 C 0.13989 0.70438 0.58027 0.0
C94 C 0.11862 0.70445 0.61102 0.0
C95 C 0.06858 0.73499 0.62819 0.0
C96 C 0.04093 0.76566 0.61394 0.0
C97 C 0.06244 0.76558 0.58308 0.0
C98 C 0.12547 0.83624 0.50233 0.0
C99 C 0.27964 0.79704 0.56661 0.0
O100 O 0.25854 0.81645 0.44006 0.0
O101 O 0.35811 0.79009 0.47071 0.0
O102 O 0.35866 0.7215 0.46728 0.0
O103 O 0.27408 0.73418 0.48557 0.0
O104 O 0.21242 0.76437 0.41932 0.0
O105 O 0.15628 0.74415 0.44048 0.0
O106 O 0.19746 0.72712 0.53838 0.0
O107 O 0.09624 0.75519 0.51068 0.0
O108 O 0.09533 0.82348 0.51297 0.0
O109 O 0.17959 0.81089 0.4942 0.0
O110 O 0.24054 0.78149 0.56063 0.0
O111 O 0.29544 0.80195 0.5388 0.0
H112 H 0.30833 0.86425 0.42266 0.0
H113 H 0.34871 0.86103 0.36859 0.0
H114 H 0.43386 0.74702 0.34496 0.0
H115 H 0.39135 0.75064 0.39883 0.0
H116 H 0.17838 0.68039 0.56757 0.0
H117 H 0.14195 0.68056 0.62158 0.0
H118 H 0.00192 0.78957 0.62622 0.0
H119 H 0.04017 0.78945 0.57259 0.0
Nd120 Nd 0.77972 0.27945 0.47875 0.0
Nd121 Nd 0.67525 0.26742 0.50898 0.0
C122 C 0.82492 0.30864 0.44979 0.0
C123 C 0.85064 0.30369 0.41617 0.0
C124 C 0.88905 0.32105 0.4196 0.0
C125 C 0.90854 0.31987 0.38749 0.0
C126 C 0.88989 0.30133 0.35112 0.0
C127 C 0.85291 0.28305 0.34799 0.0
C128 C 0.83338 0.28426 0.3802 0.0
C129 C 0.82868 0.20916 0.48365 0.0
C130 C 0.67682 0.24779 0.41692 0.0
C131 C 0.63165 0.23748 0.53803 0.0
C132 C 0.60843 0.24054 0.57187 0.0
C133 C 0.63226 0.21014 0.58561 0.0
C134 C 0.61148 0.21156 0.61732 0.0
C135 C 0.56601 0.24348 0.63611 0.0
C136 C 0.54251 0.2741 0.62244 0.0
C137 C 0.56353 0.27265 0.59062 0.0
C138 C 0.62613 0.33763 0.50365 0.0
C139 C 0.77766 0.29941 0.57081 0.0
O140 O 0.76257 0.31535 0.44418 0.0
O141 O 0.86261 0.28774 0.47343 0.0
O142 O 0.86038 0.22122 0.47333 0.0
O143 O 0.77419 0.23485 0.4908 0.0
O144 O 0.7196 0.26109 0.42323 0.0
O145 O 0.65532 0.2457 0.44429 0.0
O146 O 0.69407 0.23012 0.54248 0.0
O147 O 0.59304 0.25957 0.5157 0.0
O148 O 0.59435 0.32563 0.51403 0.0
O149 O 0.68074 0.31194 0.49674 0.0
O150 O 0.73492 0.28609 0.56454 0.0
O151 O 0.79919 0.30142 0.54342 0.0
H152 H 0.90283 0.33621 0.44708 0.0
H153 H 0.93797 0.33371 0.39115 0.0
H154 H 0.83726 0.26871 0.32046 0.0
H155 H 0.80347 0.27077 0.37687 0.0
H156 H 0.66723 0.18512 0.57174 0.0
H157 H 0.63173 0.18759 0.62734 0.0
H158 H 0.50707 0.29909 0.63594 0.0
H159 H 0.54456 0.29653 0.58065 0.0
H160 H 0.69489 0.54202 0.97589 0.0
H161 H 0.63415 0.51173 0.97957 0.0
H162 H 0.46987 0.61198 0.00757 0.0
H163 H 0.52915 0.64245 0.00246 0.0
H164 H 0.583 0.51523 0.03789 0.0
H165 H 0.38164 0.55896 0.91771 0.0
H166 H 0.45676 0.56411 0.92729 0.0
H167 H 0.39247 0.59462 0.95478 0.0
C168 C 0.64561 0.5577 0.98253 0.0
C169 C 0.61685 0.59477 0.98847 0.0
C170 C 0.61106 0.54029 0.98487 0.0
C171 C 0.54681 0.55945 -0.00692 0.0
C172 C 0.51876 0.5965 0.00033 0.0
H173 H 0.25633 0.50166 0.01511 0.0
H174 H 0.31836 0.53224 0.01382 0.0
C175 C 0.55321 0.61395 -0.00208 0.0
C176 C 0.5094 0.54059 -0.00597 0.0
H177 H 0.36817 0.52884 0.95367 0.0
C178 C 0.53615 0.51811 0.01936 0.0
C179 C 0.44823 0.54424 0.96981 0.0
C180 C 0.41826 0.56651 0.94059 0.0
C181 C 0.50298 0.49977 0.02166 0.0
C182 C 0.44176 0.50351 -0.00247 0.0
C183 C 0.415 0.52599 0.97221 0.0
C184 C 0.40444 0.48455 -0.00174 0.0
C185 C 0.53312 0.47715 0.05053 0.0
C186 C 0.43162 0.44747 0.98939 0.0
C187 C 0.39632 0.42985 0.99026 0.0
C188 C 0.33284 0.4489 -8e-05 0.0
C189 C 0.30542 0.48607 0.00818 0.0
C190 C 0.3407 0.50364 0.00722 0.0
H191 H 0.57066 0.48412 0.07315 0.0
H192 H 0.49477 0.47984 0.06419 0.0
H193 H 0.55774 0.44906 0.03593 0.0
H194 H 0.48018 0.43211 0.98166 0.0
H195 H 0.41927 0.40126 0.98395 0.0
H196 H 0.27046 0.67292 0.49233 0.0
H197 H 0.3215 0.61091 0.4975 0.0
H198 H 0.50211 0.59619 0.4737 0.0
H199 H 0.45219 0.65782 0.46962 0.0
H200 H 0.37305 0.54817 0.44718 0.0
H201 H 0.57564 0.55546 0.56625 0.0
H202 H 0.50698 0.59443 0.55273 0.0
H203 H 0.57463 0.56959 0.52674 0.0
C204 C 0.32135 0.65667 0.48889 0.0
C205 C 0.35723 0.67097 0.48129 0.0
C206 C 0.35063 0.62092 0.49157 0.0
C207 C 0.41684 0.59839 0.48696 0.0
C208 C 0.45196 0.61267 0.47865 0.0
H209 H 0.68532 0.37236 0.488 0.0
H210 H 0.63548 0.4343 0.48258 0.0
C211 C 0.42286 0.64819 0.47599 0.0
C212 C 0.4488 0.55994 0.48962 0.0
H213 H 0.58439 0.49775 0.53321 0.0
C214 C 0.41901 0.53737 0.46627 0.0
C215 C 0.50938 0.54502 0.51419 0.0
C216 C 0.54325 0.56743 0.54167 0.0
C217 C 0.44808 0.50091 0.46619 0.0
C218 C 0.50861 0.486 0.49079 0.0
C219 C 0.53847 0.50855 0.5141 0.0
C220 C 0.54007 0.44766 0.49373 0.0
C221 C 0.41416 0.47851 0.43877 0.0
C222 C 0.50449 0.43391 0.50247 0.0
C223 C 0.53289 0.39851 0.50535 0.0
C224 C 0.59829 0.37528 0.49986 0.0
C225 C 0.63466 0.38902 0.49176 0.0
C226 C 0.60605 0.4247 0.48889 0.0
H227 H 0.38191 0.49041 0.41411 0.0
H228 H 0.45038 0.45145 0.42781 0.0
H229 H 0.38261 0.47649 0.45371 0.0
H230 H 0.45449 0.45073 0.50757 0.0
H231 H 0.50318 0.38934 0.51208 0.0
H232 H 0.04612 0.11312 0.95029 0.0
H233 H -0.01107 0.08149 0.95552 0.0
H234 H 0.13633 0.04599 0.05158 0.0
H235 H 0.19323 0.07805 0.04697 0.0
H236 H 0.03926 1.00808 0.95101 0.0
H237 H 0.96144 0.08815 0.09063 0.0
H238 H -0.01179 0.10325 0.06258 0.0
H239 H 0.04771 0.07157 0.09031 0.0
C240 C 0.06595 0.09899 0.97288 0.0
C241 C 0.12422 0.09832 -0.00167 0.0
C242 C 0.03339 0.08071 0.97566 0.0
C243 C 0.05781 0.06167 0.00421 0.0
C244 C 0.11592 0.06091 0.02966 0.0
H245 H 0.93123 0.93249 0.06446 0.0
H246 H -0.01003 0.96392 0.06055 0.0
C247 C 0.14877 0.07901 0.02676 0.0
C248 C 0.02344 0.04185 0.00665 0.0
H249 H 0.94352 0.0363 0.06459 0.0
C250 C 0.0181 1.01434 0.97578 0.0
C251 C -0.00397 0.04991 0.03903 0.0
C252 C -0.00203 0.08001 0.07245 0.0
C253 C -0.013 0.99439 0.97662 0.0
C254 C 0.95925 1.00255 0.00891 0.0
C255 C 0.96481 0.02999 0.03985 0.0
C256 C 0.92371 0.98317 0.01097 0.0
C257 C -0.01461 0.96421 0.94322 0.0
C258 C 0.86645 0.98377 0.98466 0.0
C259 C 0.83282 0.96578 0.98677 0.0
C260 C 0.85554 0.94678 0.01533 0.0
C261 C 0.91277 0.94641 0.04178 0.0
C262 C 0.94621 0.96456 0.03974 0.0
H263 H 0.0233 0.9555 0.92576 0.0
H264 H -0.0066 0.94127 0.95299 0.0
H265 H 0.93639 0.97288 0.92463 0.0
H266 H 0.84743 0.99838 0.96256 0.0
H267 H 0.78931 0.96645 0.96573 0.0
H268 H 0.76953 0.17388 0.49843 0.0
H269 H 0.81938 0.11164 0.50278 0.0
H270 H -8e-05 0.09587 0.47784 0.0
H271 H 0.95135 0.15756 0.47456 0.0
H272 H 0.86922 0.04898 0.4517 0.0
H273 H 0.07422 0.05429 0.56969 0.0
H274 H 0.00589 0.09364 0.55682 0.0
H275 H 0.07306 0.0688 0.53045 0.0
C276 C 0.82013 0.15732 0.49453 0.0
C277 C 0.85643 0.17133 0.48683 0.0
C278 C 0.84874 0.12146 0.49676 0.0
C279 C 0.91461 0.09858 0.4916 0.0
C280 C 0.95006 0.11261 0.48321 0.0
H281 H 0.18236 0.87191 0.4865 0.0
H282 H 0.13166 0.93434 0.48272 0.0
C283 C 0.9217 0.14818 0.48103 0.0
C284 C 0.94605 0.06003 0.49377 0.0
H285 H 0.08257 0.9968 0.53545 0.0
C286 C 0.91559 0.0378 0.47032 0.0
C287 C 0.00713 0.04461 0.51773 0.0
C288 C 0.04169 0.06663 0.54537 0.0
C289 C 0.94458 1.00119 0.4695 0.0
C290 C 0.00576 0.98577 0.49337 0.0
C291 C 0.03616 1.008 0.51686 0.0
C292 C 0.03758 0.94715 0.49528 0.0
C293 C 0.90991 0.97916 0.44206 0.0
C294 C 0.00303 0.93292 0.50422 0.0
C295 C 0.03196 0.89725 0.50623 0.0
C296 C 0.09683 0.87423 0.49957 0.0
C297 C 0.13213 0.88843 0.4912 0.0
C298 C 0.10304 0.92437 0.48925 0.0
H299 H 0.87646 0.99168 0.41801 0.0
H300 H 0.94571 0.9523 0.43022 0.0
H301 H 0.87955 0.97655 0.4573 0.0
H302 H 0.95348 0.94957 0.51016 0.0
H303 H 0.00311 0.88768 0.51317 0.0
H304 H 0.73978 0.21958 0.35608 0.0
H305 H 0.69279 0.20574 0.2887 0.0
H306 H 0.50696 0.23659 0.31965 0.0
H307 H 0.5549 0.24869 0.38726 0.0
H308 H 0.52999 0.18163 0.25934 0.0
H309 H 0.57579 0.28433 0.23519 0.0
H310 H 0.64905 0.24893 0.25165 0.0
H311 H 0.58868 0.27803 0.28216 0.0
C312 C 0.68912 0.22297 0.34848 0.0
C313 C 0.65058 0.23568 0.37678 0.0
C314 C 0.66226 0.21523 0.30998 0.0
C315 C 0.59579 0.22116 0.29906 0.0
C316 C 0.55828 0.23202 0.3274 0.0
H317 H 0.27667 0.27763 0.12627 0.0
H318 H 0.35757 0.25416 0.17982 0.0
C319 C 0.58562 0.23899 0.366 0.0
C320 C 0.56378 0.21859 0.25838 0.0
H321 H 0.52321 0.25515 0.18271 0.0
C322 C 0.52916 0.1974 0.24245 0.0
C323 C 0.56265 0.23921 0.23628 0.0
C324 C 0.59547 0.26415 0.25222 0.0
C325 C 0.49156 0.1973 0.20559 0.0
C326 C 0.48894 0.21872 0.18417 0.0
C327 C 0.52622 0.2384 0.19918 0.0
C328 C 0.43964 0.22607 0.14929 0.0
C329 C 0.45304 0.17527 0.19021 0.0
C330 C 0.45896 0.2175 0.11416 0.0
C331 C 0.4124 0.23061 0.08322 0.0
C332 C 0.34672 0.2532 0.08766 0.0
C333 C 0.32721 0.2604 0.1223 0.0
C334 C 0.3732 0.24679 0.15278 0.0
H335 H 0.47325 0.15359 0.20524 0.0
H336 H 0.40116 0.19231 0.19434 0.0
H337 H 0.45311 0.16378 0.15919 0.0
H338 H 0.51028 0.2019 0.11119 0.0
H339 H 0.42842 0.22487 0.05674 0.0
H340 H 0.62151 0.83944 0.10472 0.0
H341 H 0.57439 0.84339 0.1566 0.0
H342 H 0.53388 0.75362 0.0906 0.0
H343 H 0.58118 0.74928 0.03888 0.0
H344 H 0.45143 0.85085 0.16135 0.0
H345 H 0.64961 0.7218 0.18829 0.0
H346 H 0.65462 0.74463 0.1586 0.0
H347 H 0.60594 0.71981 0.14007 0.0
C348 C 0.60166 0.82087 0.10098 0.0
C349 C 0.60595 0.79375 0.06779 0.0
C350 C 0.57497 0.82308 0.13075 0.0
C351 C 0.55217 0.79824 0.12788 0.0
C352 C 0.55283 0.77248 0.09389 0.0
H353 H 0.39805 0.75849 0.28171 0.0
H354 H 0.43532 0.75747 0.22724 0.0
C355 C 0.57965 0.77016 0.06424 0.0
C356 C 0.52949 0.79858 0.16075 0.0
H357 H 0.56121 0.74871 0.22245 0.0
C358 C 0.47553 0.82859 0.1748 0.0
C359 C 0.56111 0.7695 0.17835 0.0
C360 C 0.62141 0.73722 0.16586 0.0
C361 C 0.4516 0.83005 0.2055 0.0
C362 C 0.48308 0.80092 0.22296 0.0
C363 C 0.53699 0.77093 0.20891 0.0
C364 C 0.46142 0.80127 0.25622 0.0
C365 C 0.39206 0.8625 0.21857 0.0
C366 C 0.46514 0.82569 0.29086 0.0
C367 C 0.4445 0.82614 0.32213 0.0
C368 C 0.41971 0.80212 0.31951 0.0
C369 C 0.41735 0.77718 0.28493 0.0
C370 C 0.43822 0.7767 0.25366 0.0
H371 H 0.36415 0.87845 0.19661 0.0
H372 H 0.35845 0.85519 0.22556 0.0
H373 H 0.40835 0.87929 0.24471 0.0
H374 H 0.4844 0.84432 0.29379 0.0
H375 H 0.44845 0.84521 0.3485 0.0
H376 H 0.69819 0.78677 0.86932 0.0
H377 H 0.62507 0.80779 0.8126 0.0
H378 H 0.45665 0.83364 0.85929 0.0
H379 H 0.53009 0.81439 0.91711 0.0
H380 H 0.55932 0.77186 0.76857 0.0
H381 H 0.37993 0.9115 0.80407 0.0
H382 H 0.45437 0.89231 0.83671 0.0
H383 H 0.38284 0.88573 0.83291 0.0
C384 C 0.64534 0.79849 0.86809 0.0
C385 C 0.61935 0.79917 0.89729 0.0
C386 C 0.60362 0.81037 0.8357 0.0
C387 C 0.53526 0.82226 0.83153 0.0
C388 C 0.50896 0.82535 0.86208 0.0
H389 H 0.25295 0.79685 0.63222 0.0
H390 H 0.31084 0.80896 0.6973 0.0
C391 C 0.55087 0.81424 0.89506 0.0
C392 C 0.49413 0.82476 0.79313 0.0
H393 H 0.35069 0.87626 0.74356 0.0
C394 C 0.51434 0.795 0.76311 0.0
C395 C 0.43496 0.85475 0.78598 0.0
C396 C 0.41207 0.888 0.81658 0.0
C397 C 0.47668 0.79411 0.72646 0.0
C398 C 0.41702 0.82368 0.71954 0.0
C399 C 0.39664 0.85366 0.74919 0.0
C400 C 0.37485 0.8227 0.68161 0.0
C401 C 0.50003 0.76122 0.69539 0.0
C402 C 0.39116 0.82711 0.65155 0.0
C403 C 0.35844 0.8201 0.61426 0.0
C404 C 0.30917 0.80831 0.60646 0.0
C405 C 0.29097 0.80558 0.63708 0.0
C406 C 0.32358 0.81274 0.67436 0.0
H407 H 0.54533 0.73956 0.70615 0.0
H408 H 0.46081 0.75174 0.68226 0.0
H409 H 0.51055 0.76747 0.67264 0.0
H410 H 0.43107 0.83454 0.65675 0.0
H411 H 0.3736 0.82263 0.59145 0.0
H412 H 0.53826 0.19391 0.64645 0.0
H413 H 0.50445 0.19473 0.70198 0.0
H414 H 0.50805 0.29602 0.7574 0.0
H415 H 0.54293 0.29525 0.70217 0.0
H416 H 0.5697 0.19955 0.77904 0.0
H417 H 0.32341 0.31226 0.7637 0.0
H418 H 0.37125 0.28888 0.72572 0.0
H419 H 0.39098 0.32095 0.76468 0.0
C420 C 0.53239 0.21631 0.67052 0.0
C421 C 0.54345 0.24454 0.66968 0.0
C422 C 0.51276 0.21677 0.70222 0.0
C423 C 0.50307 0.24556 0.73374 0.0
C424 C 0.51407 0.27378 0.73314 0.0
H425 H 0.36382 0.30231 0.94499 0.0
H426 H 0.41276 0.29798 0.89401 0.0
C427 C 0.53388 0.27333 0.70144 0.0
C428 C 0.48202 0.24584 0.76729 0.0
H429 H 0.3576 0.2906 0.81945 0.0
C430 C 0.52327 0.2194 0.78787 0.0
C431 C 0.42143 0.27172 0.77878 0.0
C432 C 0.37381 0.29992 0.75695 0.0
C433 C 0.50616 0.21856 0.82005 0.0
C434 C 0.44549 0.24445 0.83153 0.0
C435 C 0.40424 0.27081 0.81082 0.0
C436 C 0.42326 0.24497 0.86482 0.0
C437 C 0.55394 0.19045 0.84193 0.0
C438 C 0.41408 0.21631 0.86606 0.0
C439 C 0.38636 0.21867 0.89549 0.0
C440 C 0.36642 0.24992 0.92392 0.0
C441 C 0.37809 0.27798 0.92338 0.0
C442 C 0.40609 0.27554 0.8942 0.0
H443 H 0.60481 0.17931 0.83634 0.0
H444 H 0.55451 0.20105 0.87309 0.0
H445 H 0.53869 0.16855 0.83288 0.0
H446 H 0.42563 0.19269 0.84339 0.0
H447 H 0.37721 0.19677 0.89477 0.0
H448 H 0.82457 0.71352 0.07362 0.0
H449 H 0.88835 0.69681 0.13414 0.0
H450 H 0.01785 0.74075 0.13632 0.0
H451 H 0.95481 0.75723 0.0757 0.0
H452 H 0.0818 0.67621 0.16412 0.0
H453 H 0.86299 0.77922 0.23021 0.0
H454 H 0.85043 0.74519 0.19099 0.0
H455 H 0.87059 0.77624 0.18291 0.0
C456 C 0.86759 0.71887 0.08656 0.0
C457 C 0.8842 0.73719 0.07033 0.0
C458 C 0.90373 0.70944 0.12118 0.0
C459 C 0.95687 0.71823 0.14 0.0
C460 C 0.97672 0.73393 0.12229 0.0
H461 H 0.20091 0.7512 0.34908 0.0
H462 H 0.15064 0.73647 0.28315 0.0
C463 C 0.94066 0.74335 0.08769 0.0
C464 C -0.01232 0.71463 0.17973 0.0
H465 H 0.95937 0.7522 0.27129 0.0
C466 C 0.05492 0.69242 0.18757 0.0
C467 C 0.95229 0.7357 0.21021 0.0
C468 C 0.88019 0.76065 0.20344 0.0
C469 C 0.08828 0.69156 0.22525 0.0
C470 C 0.05371 0.71411 0.25577 0.0
C471 C -0.01425 0.73494 0.24785 0.0
C472 C 0.08805 0.71968 0.29578 0.0
C473 C 0.16047 0.66693 0.232 0.0
C474 C 0.0687 0.71581 0.3251 0.0
C475 C 0.09703 0.72463 0.36323 0.0
C476 C 0.1447 0.73781 0.37266 0.0
C477 C 0.16444 0.74113 0.34305 0.0
C478 C 0.13623 0.73232 0.30513 0.0
H479 H 0.17324 0.64351 0.20783 0.0
H480 H 0.19015 0.68099 0.23439 0.0
H481 H 0.17453 0.65779 0.25871 0.0
H482 H 0.03099 0.70648 0.3185 0.0
H483 H 0.08059 0.72178 0.38527 0.0
H484 H 0.88843 0.35734 0.33461 0.0
H485 H 0.9184 0.35839 0.27866 0.0
H486 H 0.96116 0.24812 0.23343 0.0
H487 H 0.93144 0.24679 0.28943 0.0
H488 H 0.03659 0.32043 0.25325 0.0
H489 H 0.84178 0.29061 0.14276 0.0
H490 H 0.83878 0.30338 0.19307 0.0
H491 H 0.88958 0.25871 0.17175 0.0
C492 C 0.9045 0.33321 0.31288 0.0
C493 C 0.90753 0.30194 0.31665 0.0
C494 C 0.92125 0.33394 0.28075 0.0
C495 C 0.94107 0.30351 0.25147 0.0
C496 C 0.94444 0.27219 0.25514 0.0
H497 H 0.10763 0.23885 0.05059 0.0
H498 H 0.05642 0.24556 0.10167 0.0
C499 C 0.92755 0.27144 0.28727 0.0
C500 C 0.96072 0.30427 0.21793 0.0
H501 H 0.92889 0.28806 0.12048 0.0
C502 C 0.01258 0.3137 0.22424 0.0
C503 C 0.9294 0.2955 0.18003 0.0
C504 C 0.87138 0.2868 0.1714 0.0
C505 C 0.03533 0.31353 0.19376 0.0
C506 C 0.00464 0.30428 0.15586 0.0
C507 C 0.95222 0.29528 0.14952 0.0
C508 C 0.02916 0.30161 0.12245 0.0
C509 C 0.09366 0.322 0.20233 0.0
C510 C 0.02878 0.33119 0.11616 0.0
C511 C 0.05801 0.32748 0.08673 0.0
C512 C 0.08818 0.2941 0.06312 0.0
C513 C 0.08528 0.26494 0.06834 0.0
C514 C 0.05593 0.2687 0.09757 0.0
H515 H 0.12007 0.32129 0.23214 0.0
H516 H 0.12903 0.30311 0.18264 0.0
H517 H 0.07632 0.34891 0.19828 0.0
H518 H 0.00733 0.35698 0.13461 0.0
H519 H 0.05941 0.35045 0.08356 0.0
H520 H 0.90013 0.29773 0.60041 0.0
H521 H 0.94845 0.30936 0.668 0.0
H522 H 0.76203 0.34158 0.69908 0.0
H523 H 0.71459 0.32823 0.63168 0.0
H524 H 0.92682 0.36402 0.72875 0.0
H525 H 0.87718 0.26217 0.75173 0.0
H526 H 0.86468 0.26871 0.70493 0.0
H527 H 0.8046 0.29803 0.73558 0.0
C528 C 0.86935 0.30766 0.62169 0.0
C529 C 0.80407 0.31147 0.61093 0.0
C530 C 0.89692 0.31435 0.66029 0.0
C531 C 0.85934 0.32542 0.68866 0.0
C532 C 0.79259 0.33192 0.67777 0.0
H533 H 0.02665 0.31967 0.93063 0.0
H534 H 0.94516 0.34314 0.87633 0.0
C535 C 0.76547 0.32446 0.63927 0.0
C536 C 0.89153 0.32755 0.72929 0.0
H537 H 0.93091 0.29054 0.80444 0.0
C538 C 0.92706 0.34827 0.74544 0.0
C539 C 0.89192 0.30693 0.75113 0.0
C540 C 0.85811 0.28246 0.73493 0.0
C541 C 0.96479 0.34791 0.78225 0.0
C542 C 0.96663 0.3265 0.8034 0.0
C543 C 0.92851 0.30729 0.78817 0.0
C544 C 0.01584 0.3187 0.83821 0.0
C545 C 0.00423 0.36945 0.79786 0.0
C546 C 0.08219 0.29764 0.83467 0.0
C547 C 0.12796 0.28376 0.86506 0.0
C548 C 0.10834 0.29102 0.89968 0.0
C549 C 0.04276 0.31388 0.90417 0.0
C550 C -0.00358 0.32727 0.87331 0.0
H551 H -0.01536 0.39123 0.78306 0.0
H552 H 0.00437 0.38077 0.82892 0.0
H553 H 0.05599 0.35211 0.79363 0.0
H554 H 0.09789 0.29027 0.80764 0.0
H555 H 0.17841 0.26632 0.86105 0.0
H556 H 0.0496 0.68192 0.63743 0.0
H557 H 0.01442 0.68076 0.69137 0.0
H558 H 4e-05 0.78572 0.74654 0.0
H559 H 0.03603 0.78701 0.69295 0.0
H560 H 0.07226 0.68836 0.76933 0.0
H561 H 0.81895 0.79371 0.74678 0.0
H562 H 0.87079 0.772 0.71082 0.0
H563 H 0.88239 0.80639 0.74987 0.0
C564 C 0.03942 0.70472 0.66113 0.0
C565 C 0.04562 0.73462 0.66072 0.0
C566 C 0.01906 0.70402 0.69189 0.0
C567 C 0.00388 0.73327 0.7228 0.0
C568 C 0.01029 0.76308 0.72266 0.0
H569 H 0.86848 0.79362 0.93334 0.0
H570 H 0.91666 0.78605 0.88055 0.0
C571 C 0.03073 0.76381 0.69192 0.0
C572 C -0.01823 0.73255 0.7553 0.0
H573 H 0.85429 0.77514 0.80493 0.0
C574 C 0.02445 0.70716 0.77702 0.0
C575 C 0.91921 0.75694 0.76512 0.0
C576 C 0.86985 0.7836 0.74175 0.0
C577 C 0.00709 0.70636 0.80912 0.0
C578 C 0.94511 0.73129 0.81939 0.0
C579 C 0.902 0.75616 0.79718 0.0
C580 C 0.92426 0.7332 0.85381 0.0
C581 C 0.0559 0.67962 0.83247 0.0
C582 C 0.91409 0.70556 0.85699 0.0
C583 C 0.88668 0.70974 0.88751 0.0
C584 C 0.86846 0.74177 0.91502 0.0
C585 C 0.88163 0.76866 0.91256 0.0
C586 C 0.9091 0.76442 0.88233 0.0
H587 H 0.10621 0.6674 0.82563 0.0
H588 H 0.058 0.69203 0.86343 0.0
H589 H 0.04003 0.65833 0.82644 0.0
H590 H 0.92452 0.68141 0.83502 0.0
H591 H 0.87645 0.68872 0.88837 0.0
loop_
_geom_bond_atom_site_label_1
_geom_bond_atom_site_label_2
_geom_bond_distance
_geom_bond_site_symmetry_2
_ccdc_geom_bond_type
Nd0 C2 2.836 . S
Nd0 O20 2.500 1_554 S
Nd0 O21 2.492 . S
Nd0 O22 2.487 . S
Nd0 O23 2.682 . S
Nd0 O24 2.410 1_554 S
Nd0 O29 2.414 1_554 S
Nd0 O31 2.424 . S
Nd1 C11 2.836 . S
Nd1 O23 2.414 1_556 S
Nd1 O25 2.424 . S
Nd1 O26 2.500 1_556 S
Nd1 O27 2.492 . S
Nd1 O28 2.487 . S
Nd1 O29 2.682 . S
Nd1 O30 2.410 1_556 S
C2 Nd0 2.836 . S
C2 C3 1.498 1_554 S
C2 O20 1.258 1_554 S
C2 O21 1.239 . S
C3 C2 1.498 1_556 S
C3 C4 1.366 . S
C3 C8 1.407 1_556 S
C4 C3 1.366 . S
C4 C5 1.392 . S
C4 H32 0.930 . S
C5 C4 1.392 . S
C5 C6 1.398 . S
C5 H33 0.929 . S
C6 C5 1.398 . S
C6 C7 1.352 1_556 S
C7 C6 1.352 1_554 S
C7 C8 1.384 . S
C7 H34 0.930 . S
C8 C3 1.407 1_554 S
C8 C7 1.384 . S
C8 H35 0.929 . S
C9 O22 1.241 . S
C9 O23 1.273 . S
C10 O24 1.251 . S
C10 O25 1.268 . S
C11 Nd1 2.836 . S
C11 C12 1.498 1_556 S
C11 O26 1.258 1_556 S
C11 O27 1.239 . S
C12 C11 1.498 1_554 S
C12 C13 1.366 . S
C12 C17 1.407 1_554 S
C13 C12 1.366 . S
C13 C14 1.392 . S
C13 H36 0.930 . S
C14 C13 1.392 . S
C14 C15 1.398 . S
C14 H37 0.929 . S
C15 C14 1.398 . S
C15 C16 1.352 1_554 S
C16 C15 1.352 1_556 S
C16 C17 1.384 . S
C16 H38 0.930 . S
C17 C12 1.407 1_556 S
C17 C16 1.384 . S
C17 H39 0.929 . S
C18 O28 1.241 . S
C18 O29 1.273 . S
C19 O30 1.251 . S
C19 O31 1.268 . S
O20 Nd0 2.500 1_556 S
O20 C2 1.258 1_556 S
O21 Nd0 2.492 . S
O21 C2 1.239 . S
O22 Nd0 2.487 . S
O22 C9 1.241 . S
O23 Nd0 2.682 . S
O23 Nd1 2.414 1_554 S
O23 C9 1.273 . S
O24 Nd0 2.410 1_556 S
O24 C10 1.251 . S
O25 Nd1 2.424 . S
O25 C10 1.268 . S
O26 Nd1 2.500 1_554 S
O26 C11 1.258 1_554 S
O27 Nd1 2.492 . S
O27 C11 1.239 . S
O28 Nd1 2.487 . S
O28 C18 1.241 . S
O29 Nd0 2.414 1_556 S
O29 Nd1 2.682 . S
O29 C18 1.273 . S
O30 Nd1 2.410 1_554 S
O30 C19 1.251 . S
O31 Nd0 2.424 . S
O31 C19 1.268 . S
H32 C4 0.930 . S
H33 C5 0.929 . S
H34 C7 0.930 . S
H35 C8 0.929 . S
H36 C13 0.930 . S
H37 C14 0.929 . S
H38 C16 0.930 . S
H39 C17 0.929 . S
Nd40 C42 2.836 . S
Nd40 O60 2.500 1_554 S
Nd40 O61 2.492 . S
Nd40 O62 2.487 . S
Nd40 O63 2.682 . S
Nd40 O64 2.410 1_554 S
Nd40 O69 2.414 1_554 S
Nd40 O71 2.424 . S
Nd41 C51 2.836 . S
Nd41 O63 2.414 1_556 S
Nd41 O65 2.424 . S
Nd41 O66 2.500 1_556 S
Nd41 O67 2.492 . S
Nd41 O68 2.487 . S
Nd41 O69 2.682 . S
Nd41 O70 2.410 1_556 S
C42 Nd40 2.836 . S
C42 C43 1.498 1_554 S
C42 O60 1.258 1_554 S
C42 O61 1.239 . S
C43 C42 1.498 1_556 S
C43 C44 1.366 . S
C43 C48 1.407 1_556 S
C44 C43 1.366 . S
C44 C45 1.392 . S
C44 H72 0.930 . S
C45 C44 1.392 . S
C45 C46 1.398 . S
C45 H73 0.929 . S
C46 C45 1.398 . S
C46 C47 1.352 1_556 S
C47 C46 1.352 1_554 S
C47 C48 1.384 . S
C47 H74 0.930 . S
C48 C43 1.407 1_554 S
C48 C47 1.384 . S
C48 H75 0.929 . S
C49 O62 1.241 . S
C49 O63 1.273 . S
C50 O64 1.251 . S
C50 O65 1.268 . S
C51 Nd41 2.836 . S
C51 C52 1.498 1_556 S
C51 O66 1.258 1_556 S
C51 O67 1.239 . S
C52 C51 1.498 1_554 S
C52 C53 1.366 . S
C52 C57 1.407 1_554 S
C53 C52 1.366 . S
C53 C54 1.392 . S
C53 H76 0.930 . S
C54 C53 1.392 . S
C54 C55 1.398 . S
C54 H77 0.929 . S
C55 C54 1.398 . S
C55 C56 1.352 1_554 S
C56 C55 1.352 1_556 S
C56 C57 1.384 . S
C56 H78 0.930 . S
C57 C52 1.407 1_556 S
C57 C56 1.384 . S
C57 H79 0.929 . S
C58 O68 1.241 . S
C58 O69 1.273 . S
C59 O70 1.251 . S
C59 O71 1.268 . S
O60 Nd40 2.500 1_556 S
O60 C42 1.258 1_556 S
O61 Nd40 2.492 . S
O61 C42 1.239 . S
O62 Nd40 2.487 . S
O62 C49 1.241 . S
O63 Nd40 2.682 . S
O63 Nd41 2.414 1_554 S
O63 C49 1.273 . S
O64 Nd40 2.410 1_556 S
O64 C50 1.251 . S
O65 Nd41 2.424 . S
O65 C50 1.268 . S
O66 Nd41 2.500 1_554 S
O66 C51 1.258 1_554 S
O67 Nd41 2.492 . S
O67 C51 1.239 . S
O68 Nd41 2.487 . S
O68 C58 1.241 . S
O69 Nd40 2.414 1_556 S
O69 Nd41 2.682 . S
O69 C58 1.273 . S
O70 Nd41 2.410 1_554 S
O70 C59 1.251 . S
O71 Nd40 2.424 . S
O71 C59 1.268 . S
H72 C44 0.930 . S
H73 C45 0.929 . S
H74 C47 0.930 . S
H75 C48 0.929 . S
H76 C53 0.930 . S
H77 C54 0.929 . S
H78 C56 0.930 . S
H79 C57 0.929 . S
Nd80 C82 2.836 . S
Nd80 O100 2.500 . S
Nd80 O101 2.492 . S
Nd80 O102 2.487 . S
Nd80 O103 2.682 . S
Nd80 O104 2.410 . S
Nd80 O109 2.414 . S
Nd80 O111 2.424 . S
Nd81 C91 2.836 . S
Nd81 O103 2.414 . S
Nd81 O105 2.424 . S
Nd81 O106 2.500 . S
Nd81 O107 2.492 . S
Nd81 O108 2.487 . S
Nd81 O109 2.682 . S
Nd81 O110 2.410 . S
C82 Nd80 2.836 . S
C82 C83 1.498 . S
C82 O100 1.258 . S
C82 O101 1.239 . S
C83 C82 1.498 . S
C83 C84 1.366 . S
C83 C88 1.407 . S
C84 C83 1.366 . S
C84 C85 1.392 . S
C84 H112 0.930 . S
C85 C84 1.392 . S
C85 C86 1.398 . S
C85 H113 0.929 . S
C86 C85 1.398 . S
C86 C87 1.352 . S
C87 C86 1.352 . S
C87 C88 1.384 . S
C87 H114 0.930 . S
C88 C83 1.407 . S
C88 C87 1.384 . S
C88 H115 0.929 . S
C89 O102 1.241 . S
C89 O103 1.273 . S
C90 O104 1.251 . S
C90 O105 1.268 . S
C91 Nd81 2.836 . S
C91 C92 1.498 . S
C91 O106 1.258 . S
C91 O107 1.239 . S
C92 C91 1.498 . S
C92 C93 1.366 . S
C92 C97 1.407 . S
C93 C92 1.366 . S
C93 C94 1.392 . S
C93 H116 0.930 . S
C94 C93 1.392 . S
C94 C95 1.398 . S
C94 H117 0.929 . S
C95 C94 1.398 . S
C95 C96 1.352 . S
C96 C95 1.352 . S
C96 C97 1.384 . S
C96 H118 0.930 . S
C97 C92 1.407 . S
C97 C96 1.384 . S
C97 H119 0.929 . S
C98 O108 1.241 . S
C98 O109 1.273 . S
C99 O110 1.251 . S
C99 O111 1.268 . S
O100 Nd80 2.500 . S
O100 C82 1.258 . S
O101 Nd80 2.492 . S
O101 C82 1.239 . S
O102 Nd80 2.487 . S
O102 C89 1.241 . S
O103 Nd80 2.682 . S
O103 Nd81 2.414 . S
O103 C89 1.273 . S
O104 Nd80 2.410 . S
O104 C90 1.251 . S
O105 Nd81 2.424 . S
O105 C90 1.268 . S
O106 Nd81 2.500 . S
O106 C91 1.258 . S
O107 Nd81 2.492 . S
O107 C91 1.239 . S
O108 Nd81 2.487 . S
O108 C98 1.241 . S
O109 Nd80 2.414 . S
O109 Nd81 2.682 . S
O109 C98 1.273 . S
O110 Nd81 2.410 . S
O110 C99 1.251 . S
O111 Nd80 2.424 . S
O111 C99 1.268 . S
H112 C84 0.930 . S
H113 C85 0.929 . S
H114 C87 0.930 . S
H115 C88 0.929 . S
H116 C93 0.930 . S
H117 C94 0.929 . S
H118 C96 0.930 . S
H119 C97 0.929 . S
Nd120 C122 2.836 . S
Nd120 O140 2.500 . S
Nd120 O141 2.492 . S
Nd120 O142 2.487 . S
Nd120 O143 2.682 . S
Nd120 O144 2.410 . S
Nd120 O149 2.414 . S
Nd120 O151 2.424 . S
Nd121 C131 2.836 . S
Nd121 O143 2.414 . S
Nd121 O145 2.424 . S
Nd121 O146 2.500 . S
Nd121 O147 2.492 . S
Nd121 O148 2.487 . S
Nd121 O149 2.682 . S
Nd121 O150 2.410 . S
C122 Nd120 2.836 . S
C122 C123 1.498 . S
C122 O140 1.258 . S
C122 O141 1.239 . S
C123 C122 1.498 . S
C123 C124 1.366 . S
C123 C128 1.407 . S
C124 C123 1.366 . S
C124 C125 1.392 . S
C124 H152 0.930 . S
C125 C124 1.392 . S
C125 C126 1.398 . S
C125 H153 0.929 . S
C126 C125 1.398 . S
C126 C127 1.352 . S
C127 C126 1.352 . S
C127 C128 1.384 . S
C127 H154 0.930 . S
C128 C123 1.407 . S
C128 C127 1.384 . S
C128 H155 0.929 . S
C129 O142 1.241 . S
C129 O143 1.273 . S
C130 O144 1.251 . S
C130 O145 1.268 . S
C131 Nd121 2.836 . S
C131 C132 1.498 . S
C131 O146 1.258 . S
C131 O147 1.239 . S
C132 C131 1.498 . S
C132 C133 1.366 . S
C132 C137 1.407 . S
C133 C132 1.366 . S
C133 C134 1.392 . S
C133 H156 0.930 . S
C134 C133 1.392 . S
C134 C135 1.398 . S
C134 H157 0.929 . S
C135 C134 1.398 . S
C135 C136 1.352 . S
C136 C135 1.352 . S
C136 C137 1.384 . S
C136 H158 0.930 . S
C137 C132 1.407 . S
C137 C136 1.384 . S
C137 H159 0.929 . S
C138 O148 1.241 . S
C138 O149 1.273 . S
C139 O150 1.251 . S
C139 O151 1.268 . S
O140 Nd120 2.500 . S
O140 C122 1.258 . S
O141 Nd120 2.492 . S
O141 C122 1.239 . S
O142 Nd120 2.487 . S
O142 C129 1.241 . S
O143 Nd120 2.682 . S
O143 Nd121 2.414 . S
O143 C129 1.273 . S
O144 Nd120 2.410 . S
O144 C130 1.251 . S
O145 Nd121 2.424 . S
O145 C130 1.268 . S
O146 Nd121 2.500 . S
O146 C131 1.258 . S
O147 Nd121 2.492 . S
O147 C131 1.239 . S
O148 Nd121 2.487 . S
O148 C138 1.241 . S
O149 Nd120 2.414 . S
O149 Nd121 2.682 . S
O149 C138 1.273 . S
O150 Nd121 2.410 . S
O150 C139 1.251 . S
O151 Nd120 2.424 . S
O151 C139 1.268 . S
H152 C124 0.930 . S
H153 C125 0.929 . S
H154 C127 0.930 . S
H155 C128 0.929 . S
H156 C133 0.930 . S
H157 C134 0.929 . S
H158 C136 0.930 . S
H159 C137 0.929 . S
H160 C168 0.945 . S
H161 C170 0.930 . S
H162 C172 0.930 . S
H163 C175 0.929 . S
H164 C178 0.930 . S
H165 C180 0.960 . S
H166 C180 0.960 . S
H167 C180 0.960 . S
C168 H160 0.945 . S
C168 C169 1.369 1_556 S
C168 C170 1.377 . S
C169 C168 1.369 1_554 S
C169 C175 1.390 . S
C170 H161 0.930 . S
C170 C168 1.377 . S
C170 C171 1.372 1_556 S
C171 C170 1.372 1_554 S
C171 C172 1.400 . S
C171 C176 1.490 . S
C172 H162 0.930 . S
C172 C171 1.400 . S
C172 C175 1.386 . S
H173 C189 0.930 . S
H174 C190 0.931 . S
C175 H163 0.929 . S
C175 C169 1.390 . S
C175 C172 1.386 . S
C176 C171 1.490 . S
C176 C178 1.395 . S
C176 C179 1.403 1_554 S
H177 C183 0.930 . S
C178 H164 0.930 . S
C178 C176 1.395 . S
C178 C181 1.403 . S
C179 C176 1.403 1_556 S
C179 C180 1.524 . S
C179 C183 1.400 . S
C180 H165 0.960 . S
C180 H166 0.960 . S
C180 H167 0.960 . S
C180 C179 1.524 . S
C181 C178 1.403 . S
C181 C182 1.388 1_554 S
C181 C185 1.495 . S
C182 C181 1.388 1_556 S
C182 C183 1.401 . S
C182 C184 1.467 . S
C183 H177 0.930 . S
C183 C179 1.400 . S
C183 C182 1.401 . S
C184 C182 1.467 . S
C184 C186 1.381 . S
C184 C190 1.383 1_556 S
C185 C181 1.495 . S
C185 H191 0.959 . S
C185 H192 0.961 . S
C185 H193 0.960 . S
C186 C184 1.381 . S
C186 C187 1.394 . S
C186 H194 0.930 . S
C187 C186 1.394 . S
C187 C188 1.383 . S
C187 H195 0.929 . S
C188 C187 1.383 . S
C188 C189 1.377 1_556 S
C189 H173 0.930 . S
C189 C188 1.377 1_554 S
C189 C190 1.379 . S
C190 H174 0.931 . S
C190 C184 1.383 1_554 S
C190 C189 1.379 . S
H191 C185 0.959 . S
H192 C185 0.961 . S
H193 C185 0.960 . S
H194 C186 0.930 . S
H195 C187 0.929 . S
H196 C204 0.929 . S
H197 C206 0.930 . S
H198 C208 0.930 . S
H199 C211 0.929 . S
H200 C214 0.930 . S
H201 C216 0.960 . S
H202 C216 0.960 . S
H203 C216 0.960 . S
C204 H196 0.929 . S
C204 C205 1.377 . S
C204 C206 1.384 . S
C205 C204 1.377 . S
C205 C211 1.390 . S
C206 H197 0.930 . S
C206 C204 1.384 . S
C206 C207 1.372 . S
C207 C206 1.372 . S
C207 C208 1.400 . S
C207 C212 1.490 . S
C208 H198 0.930 . S
C208 C207 1.400 . S
C208 C211 1.386 . S
H209 C225 0.930 . S
H210 C226 0.931 . S
C211 H199 0.929 . S
C211 C205 1.390 . S
C211 C208 1.386 . S
C212 C207 1.490 . S
C212 C214 1.395 . S
C212 C215 1.403 . S
H213 C219 0.930 . S
C214 H200 0.930 . S
C214 C212 1.395 . S
C214 C217 1.403 . S
C215 C212 1.403 . S
C215 C216 1.524 . S
C215 C219 1.400 . S
C216 H201 0.960 . S
C216 H202 0.960 . S
C216 H203 0.960 . S
C216 C215 1.524 . S
C217 C214 1.403 . S
C217 C218 1.392 . S
C217 C221 1.495 . S
C218 C217 1.392 . S
C218 C219 1.385 . S
C218 C220 1.478 . S
C219 H213 0.930 . S
C219 C215 1.400 . S
C219 C218 1.385 . S
C220 C218 1.478 . S
C220 C222 1.381 . S
C220 C226 1.383 . S
C221 C217 1.495 . S
C221 H227 0.959 . S
C221 H228 0.961 . S
C221 H229 0.960 . S
C222 C220 1.381 . S
C222 C223 1.394 . S
C222 H230 0.930 . S
C223 C222 1.394 . S
C223 C224 1.383 . S
C223 H231 0.929 . S
C224 C223 1.383 . S
C224 C225 1.377 . S
C225 H209 0.930 . S
C225 C224 1.377 . S
C225 C226 1.379 . S
C226 H210 0.931 . S
C226 C220 1.383 . S
C226 C225 1.379 . S
H227 C221 0.959 . S
H228 C221 0.961 . S
H229 C221 0.960 . S
H230 C222 0.930 . S
H231 C223 0.929 . S
H232 C240 0.929 . S
H233 C242 0.930 . S
H234 C244 0.930 . S
H235 C247 0.929 . S
H236 C250 0.930 . S
H237 C252 0.960 . S
H238 C252 0.960 . S
H239 C252 0.960 . S
C240 H232 0.929 . S
C240 C241 1.377 1_556 S
C240 C242 1.384 . S
C241 C240 1.377 1_554 S
C241 C247 1.390 . S
C242 H233 0.930 . S
C242 C240 1.384 . S
C242 C243 1.372 1_556 S
C243 C242 1.372 1_554 S
C243 C244 1.400 . S
C243 C248 1.490 . S
C244 H234 0.930 . S
C244 C243 1.400 . S
C244 C247 1.386 . S
H245 C261 0.930 . S
H246 C262 0.931 . S
C247 H235 0.929 . S
C247 C241 1.390 . S
C247 C244 1.386 . S
C248 C243 1.490 . S
C248 C250 1.395 1_544 S
C248 C251 1.403 1_455 S
H249 C255 0.930 . S
C250 H236 0.930 . S
C250 C248 1.395 1_566 S
C250 C253 1.403 . S
C251 C248 1.403 1_655 S
C251 C252 1.524 . S
C251 C255 1.400 . S
C252 H237 0.960 . S
C252 H238 0.960 . S
C252 H239 0.960 . S
C252 C251 1.524 . S
C253 C250 1.403 . S
C253 C254 1.392 1_455 S
C253 C257 1.495 . S
C254 C253 1.392 1_655 S
C254 C255 1.385 1_566 S
C254 C256 1.478 . S
C255 H249 0.930 . S
C255 C251 1.400 . S
C255 C254 1.385 1_544 S
C256 C254 1.478 . S
C256 C258 1.381 . S
C256 C262 1.383 1_556 S
C257 C253 1.495 . S
C257 H263 0.959 . S
C257 H264 0.961 . S
C257 H265 0.960 . S
C258 C256 1.381 . S
C258 C259 1.394 . S
C258 H266 0.930 . S
C259 C258 1.394 . S
C259 C260 1.383 . S
C259 H267 0.929 . S
C260 C259 1.383 . S
C260 C261 1.377 1_556 S
C261 H245 0.930 . S
C261 C260 1.377 1_554 S
C261 C262 1.379 . S
C262 H246 0.931 . S
C262 C256 1.383 1_554 S
C262 C261 1.379 . S
H263 C257 0.959 . S
H264 C257 0.961 . S
H265 C257 0.960 . S
H266 C258 0.930 . S
H267 C259 0.929 . S
H268 C276 0.929 . S
H269 C278 0.930 . S
H270 C280 0.930 . S
H271 C283 0.929 . S
H272 C286 0.930 . S
H273 C288 0.960 . S
H274 C288 0.960 . S
H275 C288 0.960 . S
C276 H268 0.929 . S
C276 C277 1.377 . S
C276 C278 1.384 . S
C277 C276 1.377 . S
C277 C283 1.390 . S
C278 H269 0.930 . S
C278 C276 1.384 . S
C278 C279 1.372 . S
C279 C278 1.372 . S
C279 C280 1.400 . S
C279 C284 1.490 . S
C280 H270 0.930 . S
C280 C279 1.400 . S
C280 C283 1.386 . S
H281 C297 0.930 . S
H282 C298 0.931 . S
C283 H271 0.929 . S
C283 C277 1.390 . S
C283 C280 1.386 . S
C284 C279 1.490 . S
C284 C286 1.395 . S
C284 C287 1.403 1_655 S
H285 C291 0.930 . S
C286 H272 0.930 . S
C286 C284 1.395 . S
C286 C289 1.403 1_545 S
C287 C284 1.403 1_455 S
C287 C288 1.524 . S
C287 C291 1.400 1_545 S
C288 H273 0.960 . S
C288 H274 0.960 . S
C288 H275 0.960 . S
C288 C287 1.524 . S
C289 C286 1.403 1_565 S
C289 C290 1.392 1_655 S
C289 C293 1.495 . S
C290 C289 1.392 1_455 S
C290 C291 1.385 . S
C290 C292 1.478 . S
C291 H285 0.930 . S
C291 C287 1.400 1_565 S
C291 C290 1.385 . S
C292 C290 1.478 . S
C292 C294 1.381 . S
C292 C298 1.383 . S
C293 C289 1.495 . S
C293 H299 0.959 . S
C293 H300 0.961 . S
C293 H301 0.960 . S
C294 C292 1.381 . S
C294 C295 1.394 . S
C294 H302 0.930 . S
C295 C294 1.394 . S
C295 C296 1.383 . S
C295 H303 0.929 . S
C296 C295 1.383 . S
C296 C297 1.377 . S
C297 H281 0.930 . S
C297 C296 1.377 . S
C297 C298 1.379 . S
C298 H282 0.931 . S
C298 C292 1.383 . S
C298 C297 1.379 . S
H299 C293 0.959 . S
H300 C293 0.961 . S
H301 C293 0.960 . S
H302 C294 0.930 . S
H303 C295 0.929 . S
H304 C312 0.929 . S
H305 C314 0.930 . S
H306 C316 0.930 . S
H307 C319 0.929 . S
H308 C322 0.930 . S
H309 C324 0.960 . S
H310 C324 0.960 . S
H311 C324 0.960 . S
C312 H304 0.929 . S
C312 C313 1.377 . S
C312 C314 1.384 . S
C313 C312 1.377 . S
C313 C319 1.390 . S
C314 H305 0.930 . S
C314 C312 1.384 . S
C314 C315 1.372 . S
C315 C314 1.372 . S
C315 C316 1.400 . S
C315 C320 1.490 . S
C316 H306 0.930 . S
C316 C315 1.400 . S
C316 C319 1.386 . S
H317 C333 0.930 . S
H318 C334 0.931 . S
C319 H307 0.929 . S
C319 C313 1.390 . S
C319 C316 1.386 . S
C320 C315 1.490 . S
C320 C322 1.395 . S
C320 C323 1.403 . S
H321 C327 0.930 . S
C322 H308 0.930 . S
C322 C320 1.395 . S
C322 C325 1.403 . S
C323 C320 1.403 . S
C323 C324 1.524 . S
C323 C327 1.400 . S
C324 H309 0.960 . S
C324 H310 0.960 . S
C324 H311 0.960 . S
C324 C323 1.524 . S
C325 C322 1.403 . S
C325 C326 1.392 . S
C325 C329 1.495 . S
C326 C325 1.392 . S
C326 C327 1.385 . S
C326 C328 1.478 . S
C327 H321 0.930 . S
C327 C323 1.400 . S
C327 C326 1.385 . S
C328 C326 1.478 . S
C328 C330 1.381 . S
C328 C334 1.383 . S
C329 C325 1.495 . S
C329 H335 0.959 . S
C329 H336 0.961 . S
C329 H337 0.960 . S
C330 C328 1.381 . S
C330 C331 1.394 . S
C330 H338 0.930 . S
C331 C330 1.394 . S
C331 C332 1.383 . S
C331 H339 0.929 . S
C332 C331 1.383 . S
C332 C333 1.377 . S
C333 H317 0.930 . S
C333 C332 1.377 . S
C333 C334 1.379 . S
C334 H318 0.931 . S
C334 C328 1.383 . S
C334 C333 1.379 . S
H335 C329 0.959 . S
H336 C329 0.961 . S
H337 C329 0.960 . S
H338 C330 0.930 . S
H339 C331 0.929 . S
H340 C348 0.929 . S
H341 C350 0.930 . S
H342 C352 0.930 . S
H343 C355 0.929 . S
H344 C358 0.930 . S
H345 C360 0.960 . S
H346 C360 0.960 . S
H347 C360 0.960 . S
C348 H340 0.929 . S
C348 C349 1.377 . S
C348 C350 1.384 . S
C349 C348 1.377 . S
C349 C355 1.390 . S
C350 H341 0.930 . S
C350 C348 1.384 . S
C350 C351 1.372 . S
C351 C350 1.372 . S
C351 C352 1.400 . S
C351 C356 1.490 . S
C352 H342 0.930 . S
C352 C351 1.400 . S
C352 C355 1.386 . S
H353 C369 0.930 . S
H354 C370 0.931 . S
C355 H343 0.929 . S
C355 C349 1.390 . S
C355 C352 1.386 . S
C356 C351 1.490 . S
C356 C358 1.395 . S
C356 C359 1.403 . S
H357 C363 0.930 . S
C358 H344 0.930 . S
C358 C356 1.395 . S
C358 C361 1.403 . S
C359 C356 1.403 . S
C359 C360 1.524 . S
C359 C363 1.400 . S
C360 H345 0.960 . S
C360 H346 0.960 . S
C360 H347 0.960 . S
C360 C359 1.524 . S
C361 C358 1.403 . S
C361 C362 1.392 . S
C361 C365 1.495 . S
C362 C361 1.392 . S
C362 C363 1.385 . S
C362 C364 1.478 . S
C363 H357 0.930 . S
C363 C359 1.400 . S
C363 C362 1.385 . S
C364 C362 1.478 . S
C364 C366 1.381 . S
C364 C370 1.383 . S
C365 C361 1.495 . S
C365 H371 0.959 . S
C365 H372 0.961 . S
C365 H373 0.960 . S
C366 C364 1.381 . S
C366 C367 1.394 . S
C366 H374 0.930 . S
C367 C366 1.394 . S
C367 C368 1.383 . S
C367 H375 0.929 . S
C368 C367 1.383 . S
C368 C369 1.377 . S
C369 H353 0.930 . S
C369 C368 1.377 . S
C369 C370 1.379 . S
C370 H354 0.931 . S
C370 C364 1.383 . S
C370 C369 1.379 . S
H371 C365 0.959 . S
H372 C365 0.961 . S
H373 C365 0.960 . S
H374 C366 0.930 . S
H375 C367 0.929 . S
H376 C384 0.929 . S
H377 C386 0.930 . S
H378 C388 0.930 . S
H379 C391 0.929 . S
H380 C394 0.930 . S
H381 C396 0.960 . S
H382 C396 0.960 . S
H383 C396 0.960 . S
C384 H376 0.929 . S
C384 C385 1.377 . S
C384 C386 1.384 . S
C385 C384 1.377 . S
C385 C391 1.390 . S
C386 H377 0.930 . S
C386 C384 1.384 . S
C386 C387 1.372 . S
C387 C386 1.372 . S
C387 C388 1.400 . S
C387 C392 1.490 . S
C388 H378 0.930 . S
C388 C387 1.400 . S
C388 C391 1.386 . S
H389 C405 0.930 . S
H390 C406 0.931 . S
C391 H379 0.929 . S
C391 C385 1.390 . S
C391 C388 1.386 . S
C392 C387 1.490 . S
C392 C394 1.395 . S
C392 C395 1.403 . S
H393 C399 0.930 . S
C394 H380 0.930 . S
C394 C392 1.395 . S
C394 C397 1.403 . S
C395 C392 1.403 . S
C395 C396 1.524 . S
C395 C399 1.400 . S
C396 H381 0.960 . S
C396 H382 0.960 . S
C396 H383 0.960 . S
C396 C395 1.524 . S
C397 C394 1.403 . S
C397 C398 1.392 . S
C397 C401 1.495 . S
C398 C397 1.392 . S
C398 C399 1.385 . S
C398 C400 1.478 . S
C399 H393 0.930 . S
C399 C395 1.400 . S
C399 C398 1.385 . S
C400 C398 1.478 . S
C400 C402 1.381 . S
C400 C406 1.383 . S
C401 C397 1.495 . S
C401 H407 0.959 . S
C401 H408 0.961 . S
C401 H409 0.960 . S
C402 C400 1.381 . S
C402 C403 1.394 . S
C402 H410 0.930 . S
C403 C402 1.394 . S
C403 C404 1.383 . S
C403 H411 0.929 . S
C404 C403 1.383 . S
C404 C405 1.377 . S
C405 H389 0.930 . S
C405 C404 1.377 . S
C405 C406 1.379 . S
C406 H390 0.931 . S
C406 C400 1.383 . S
C406 C405 1.379 . S
H407 C401 0.959 . S
H408 C401 0.961 . S
H409 C401 0.960 . S
H410 C402 0.930 . S
H411 C403 0.929 . S
H412 C420 0.929 . S
H413 C422 0.930 . S
H414 C424 0.930 . S
H415 C427 0.929 . S
H416 C430 0.930 . S
H417 C432 0.960 . S
H418 C432 0.960 . S
H419 C432 0.960 . S
C420 H412 0.929 . S
C420 C421 1.377 . S
C420 C422 1.384 . S
C421 C420 1.377 . S
C421 C427 1.390 . S
C422 H413 0.930 . S
C422 C420 1.384 . S
C422 C423 1.372 . S
C423 C422 1.372 . S
C423 C424 1.400 . S
C423 C428 1.490 . S
C424 H414 0.930 . S
C424 C423 1.400 . S
C424 C427 1.386 . S
H425 C441 0.930 . S
H426 C442 0.931 . S
C427 H415 0.929 . S
C427 C421 1.390 . S
C427 C424 1.386 . S
C428 C423 1.490 . S
C428 C430 1.395 . S
C428 C431 1.403 . S
H429 C435 0.930 . S
C430 H416 0.930 . S
C430 C428 1.395 . S
C430 C433 1.403 . S
C431 C428 1.403 . S
C431 C432 1.524 . S
C431 C435 1.400 . S
C432 H417 0.960 . S
C432 H418 0.960 . S
C432 H419 0.960 . S
C432 C431 1.524 . S
C433 C430 1.403 . S
C433 C434 1.392 . S
C433 C437 1.495 . S
C434 C433 1.392 . S
C434 C435 1.385 . S
C434 C436 1.478 . S
C435 H429 0.930 . S
C435 C431 1.400 . S
C435 C434 1.385 . S
C436 C434 1.478 . S
C436 C438 1.381 . S
C436 C442 1.383 . S
C437 C433 1.495 . S
C437 H443 0.959 . S
C437 H444 0.961 . S
C437 H445 0.960 . S
C438 C436 1.381 . S
C438 C439 1.394 . S
C438 H446 0.930 . S
C439 C438 1.394 . S
C439 C440 1.383 . S
C439 H447 0.929 . S
C440 C439 1.383 . S
C440 C441 1.377 . S
C441 H425 0.930 . S
C441 C440 1.377 . S
C441 C442 1.379 . S
C442 H426 0.931 . S
C442 C436 1.383 . S
C442 C441 1.379 . S
H443 C437 0.959 . S
H444 C437 0.961 . S
H445 C437 0.960 . S
H446 C438 0.930 . S
H447 C439 0.929 . S
H448 C456 0.929 . S
H449 C458 0.930 1_455 S
H450 C460 0.930 . S
H451 C463 0.929 . S
H452 C466 0.930 . S
H453 C468 0.960 . S
H454 C468 0.960 . S
H455 C468 0.960 . S
C456 H448 0.929 . S
C456 C457 1.377 . S
C456 C458 1.384 . S
C457 C456 1.377 . S
C457 C463 1.390 . S
C458 H449 0.930 1_655 S
C458 C456 1.384 . S
C458 C459 1.372 . S
C459 C458 1.372 . S
C459 C460 1.400 . S
C459 C464 1.490 . S
C460 H450 0.930 . S
C460 C459 1.400 . S
C460 C463 1.386 . S
H461 C477 0.930 . S
H462 C478 0.931 . S
C463 H451 0.929 . S
C463 C457 1.390 . S
C463 C460 1.386 . S
C464 C459 1.490 . S
C464 C466 1.395 1_655 S
C464 C467 1.403 . S
H465 C471 0.930 1_655 S
C466 H452 0.930 . S
C466 C464 1.395 1_455 S
C466 C469 1.403 . S
C467 C464 1.403 . S
C467 C468 1.524 . S
C467 C471 1.400 1_655 S
C468 H453 0.960 . S
C468 H454 0.960 . S
C468 H455 0.960 . S
C468 C467 1.524 . S
C469 C466 1.403 . S
C469 C470 1.392 . S
C469 C473 1.495 . S
C470 C469 1.392 . S
C470 C471 1.385 . S
C470 C472 1.478 . S
C471 H465 0.930 1_455 S
C471 C467 1.400 1_455 S
C471 C470 1.385 . S
C472 C470 1.478 . S
C472 C474 1.381 . S
C472 C478 1.383 . S
C473 C469 1.495 . S
C473 H479 0.959 . S
C473 H480 0.961 . S
C473 H481 0.960 . S
C474 C472 1.381 . S
C474 C475 1.394 . S
C474 H482 0.930 . S
C475 C474 1.394 . S
C475 C476 1.383 . S
C475 H483 0.929 . S
C476 C475 1.383 . S
C476 C477 1.377 . S
C477 H461 0.930 . S
C477 C476 1.377 . S
C477 C478 1.379 . S
C478 H462 0.931 . S
C478 C472 1.383 . S
C478 C477 1.379 . S
H479 C473 0.959 . S
H480 C473 0.961 . S
H481 C473 0.960 . S
H482 C474 0.930 . S
H483 C475 0.929 . S
H484 C492 0.929 . S
H485 C494 0.930 . S
H486 C496 0.930 . S
H487 C499 0.929 1_455 S
H488 C502 0.930 . S
H489 C504 0.960 . S
H490 C504 0.960 . S
H491 C504 0.960 . S
C492 H484 0.929 . S
C492 C493 1.377 . S
C492 C494 1.384 . S
C493 C492 1.377 . S
C493 C499 1.390 . S
C494 H485 0.930 . S
C494 C492 1.384 . S
C494 C495 1.372 . S
C495 C494 1.372 . S
C495 C496 1.400 1_655 S
C495 C500 1.490 . S
C496 H486 0.930 . S
C496 C495 1.400 1_455 S
C496 C499 1.386 1_455 S
H497 C513 0.930 . S
H498 C514 0.931 . S
C499 H487 0.929 1_655 S
C499 C493 1.390 . S
C499 C496 1.386 1_655 S
C500 C495 1.490 . S
C500 C502 1.395 . S
C500 C503 1.403 1_655 S
H501 C507 0.930 . S
C502 H488 0.930 . S
C502 C500 1.395 . S
C502 C505 1.403 . S
C503 C500 1.403 1_455 S
C503 C504 1.524 . S
C503 C507 1.400 . S
C504 H489 0.960 . S
C504 H490 0.960 . S
C504 H491 0.960 . S
C504 C503 1.524 . S
C505 C502 1.403 . S
C505 C506 1.392 1_655 S
C505 C509 1.495 . S
C506 C505 1.392 1_455 S
C506 C507 1.385 . S
C506 C508 1.478 . S
C507 H501 0.930 . S
C507 C503 1.400 . S
C507 C506 1.385 . S
C508 C506 1.478 . S
C508 C510 1.381 . S
C508 C514 1.383 . S
C509 C505 1.495 . S
C509 H515 0.959 . S
C509 H516 0.961 . S
C509 H517 0.960 . S
C510 C508 1.381 . S
C510 C511 1.394 . S
C510 H518 0.930 1_455 S
C511 C510 1.394 . S
C511 C512 1.383 . S
C511 H519 0.929 . S
C512 C511 1.383 . S
C512 C513 1.377 . S
C513 H497 0.930 . S
C513 C512 1.377 . S
C513 C514 1.379 . S
C514 H498 0.931 . S
C514 C508 1.383 . S
C514 C513 1.379 . S
H515 C509 0.959 . S
H516 C509 0.961 . S
H517 C509 0.960 . S
H518 C510 0.930 1_655 S
H519 C511 0.929 . S
H520 C528 0.929 . S
H521 C530 0.930 . S
H522 C532 0.930 . S
H523 C535 0.929 . S
H524 C538 0.930 . S
H525 C540 0.960 . S
H526 C540 0.960 . S
H527 C540 0.960 . S
C528 H520 0.929 . S
C528 C529 1.377 . S
C528 C530 1.384 . S
C529 C528 1.377 . S
C529 C535 1.390 . S
C530 H521 0.930 . S
C530 C528 1.384 . S
C530 C531 1.372 . S
C531 C530 1.372 . S
C531 C532 1.400 . S
C531 C536 1.490 . S
C532 H522 0.930 . S
C532 C531 1.400 . S
C532 C535 1.386 . S
H533 C549 0.930 . S
H534 C550 0.931 1_655 S
C535 H523 0.929 . S
C535 C529 1.390 . S
C535 C532 1.386 . S
C536 C531 1.490 . S
C536 C538 1.395 1_655 S
C536 C539 1.403 . S
H537 C543 0.930 . S
C538 H524 0.930 . S
C538 C536 1.395 1_455 S
C538 C541 1.403 . S
C539 C536 1.403 . S
C539 C540 1.524 . S
C539 C543 1.400 . S
C540 H525 0.960 . S
C540 H526 0.960 . S
C540 H527 0.960 . S
C540 C539 1.524 . S
C541 C538 1.403 . S
C541 C542 1.392 . S
C541 C545 1.495 . S
C542 C541 1.392 . S
C542 C543 1.385 1_455 S
C542 C544 1.478 . S
C543 H537 0.930 . S
C543 C539 1.400 . S
C543 C542 1.385 1_655 S
C544 C542 1.478 . S
C544 C546 1.381 . S
C544 C550 1.383 . S
C545 C541 1.495 . S
C545 H551 0.959 . S
C545 H552 0.961 . S
C545 H553 0.960 . S
C546 C544 1.381 . S
C546 C547 1.394 . S
C546 H554 0.930 . S
C547 C546 1.394 . S
C547 C548 1.383 . S
C547 H555 0.929 . S
C548 C547 1.383 . S
C548 C549 1.377 . S
C549 H533 0.930 . S
C549 C548 1.377 . S
C549 C550 1.379 . S
C550 H534 0.931 1_455 S
C550 C544 1.383 . S
C550 C549 1.379 . S
H551 C545 0.959 . S
H552 C545 0.961 . S
H553 C545 0.960 . S
H554 C546 0.930 . S
H555 C547 0.929 . S
H556 C564 0.929 . S
H557 C566 0.930 . S
H558 C568 0.930 1_655 S
H559 C571 0.929 . S
H560 C574 0.930 . S
H561 C576 0.960 . S
H562 C576 0.960 . S
H563 C576 0.960 . S
C564 H556 0.929 . S
C564 C565 1.377 . S
C564 C566 1.384 . S
C565 C564 1.377 . S
C565 C571 1.390 . S
C566 H557 0.930 . S
C566 C564 1.384 . S
C566 C567 1.372 . S
C567 C566 1.372 . S
C567 C568 1.400 . S
C567 C572 1.490 . S
C568 H558 0.930 1_455 S
C568 C567 1.400 . S
C568 C571 1.386 . S
H569 C585 0.930 . S
H570 C586 0.931 . S
C571 H559 0.929 . S
C571 C565 1.390 . S
C571 C568 1.386 . S
C572 C567 1.490 . S
C572 C574 1.395 . S
C572 C575 1.403 1_455 S
H573 C579 0.930 . S
C574 H560 0.930 . S
C574 C572 1.395 . S
C574 C577 1.403 . S
C575 C572 1.403 1_655 S
C575 C576 1.524 . S
C575 C579 1.400 . S
C576 H561 0.960 . S
C576 H562 0.960 . S
C576 H563 0.960 . S
C576 C575 1.524 . S
C577 C574 1.403 . S
C577 C578 1.392 1_455 S
C577 C581 1.495 . S
C578 C577 1.392 1_655 S
C578 C579 1.385 . S
C578 C580 1.478 . S
C579 H573 0.930 . S
C579 C575 1.400 . S
C579 C578 1.385 . S
C580 C578 1.478 . S
C580 C582 1.381 . S
C580 C586 1.383 . S
C581 C577 1.495 . S
C581 H587 0.959 . S
C581 H588 0.961 . S
C581 H589 0.960 . S
C582 C580 1.381 . S
C582 C583 1.394 . S
C582 H590 0.930 . S
C583 C582 1.394 . S
C583 C584 1.383 . S
C583 H591 0.929 . S
C584 C583 1.383 . S
C584 C585 1.377 . S
C585 H569 0.930 . S
C585 C584 1.377 . S
C585 C586 1.379 . S
C586 H570 0.931 . S
C586 C580 1.383 . S
C586 C585 1.379 . S
H587 C581 0.959 . S
H588 C581 0.961 . S
H589 C581 0.960 . S
H590 C582 0.930 . S
H591 C583 0.929 . S
C169 C55 1.498 . S
C188 C6 1.478 . S
C205 C89 1.948 . S
C224 C138 1.928 . S
C241 C15 1.497 . S
C260 C46 1.488 . S
C277 C129 1.949 . S
C296 C98 1.932 . S
C313 C130 0.938 . S
C332 C9 0.955 . S
C349 C59 1.554 . S
C368 C86 1.551 . S
C385 C58 0.911 . S
C404 C99 0.948 . S
C421 C135 1.548 . S
C440 C10 1.554 . S
C457 C49 0.917 . S
C476 C90 0.950 . S
C493 C126 1.551 . S
C512 C19 1.553 . S
C529 C139 0.938 . S
C548 C18 0.926 . S
C565 C95 1.548 . S
C584 C50 1.555 . S
