# Generated by pormake.
# Topology uoz, (4)-cn, num edge types: 1
# Building blocks:
#     Node 0, Type 0, BuildingBlock: KUFVIS_clean_sbu_0, # of connection points: 4
#     Node 1, Type 0, BuildingBlock: KUFVIS_clean_sbu_0, # of connection points: 4
#     Node 2, Type 0, BuildingBlock: KUFVIS_clean_sbu_0, # of connection points: 4
#     Node 3, Type 0, BuildingBlock: KUFVIS_clean_sbu_0, # of connection points: 4
#     Node 4, Type 0, BuildingBlock: KUFVIS_clean_sbu_0, # of connection points: 4
#     Node 5, Type 0, BuildingBlock: KUFVIS_clean_sbu_0, # of connection points: 4
#     Node 6, Type 0, BuildingBlock: KUFVIS_clean_sbu_0, # of connection points: 4
#     Node 7, Type 0, BuildingBlock: KUFVIS_clean_sbu_0, # of connection points: 4
#     Node 8, Type 0, BuildingBlock: KUFVIS_clean_sbu_0, # of connection points: 4
#     Node 9, Type 0, BuildingBlock: KUFVIS_clean_sbu_0, # of connection points: 4
#     Node 10, Type 0, BuildingBlock: KUFVIS_clean_sbu_0, # of connection points: 4
#     Node 11, Type 0, BuildingBlock: KUFVIS_clean_sbu_0, # of connection points: 4
#     Node 12, Type 0, BuildingBlock: KUFVIS_clean_sbu_0, # of connection points: 4
#     Node 13, Type 0, BuildingBlock: KUFVIS_clean_sbu_0, # of connection points: 4
#     Node 14, Type 0, BuildingBlock: KUFVIS_clean_sbu_0, # of connection points: 4
#     Node 15, Type 0, BuildingBlock: KUFVIS_clean_sbu_0, # of connection points: 4
#     Edge 16, Type (0, 0), BuildingBlock: ZUJKAS_clean_linker_0, # of connection points: 2
#     Edge 17, Type (0, 0), BuildingBlock: ZUJKAS_clean_linker_0, # of connection points: 2
#     Edge 18, Type (0, 0), BuildingBlock: ZUJKAS_clean_linker_0, # of connection points: 2
#     Edge 19, Type (0, 0), BuildingBlock: ZUJKAS_clean_linker_0, # of connection points: 2
#     Edge 20, Type (0, 0), BuildingBlock: ZUJKAS_clean_linker_0, # of connection points: 2
#     Edge 21, Type (0, 0), BuildingBlock: ZUJKAS_clean_linker_0, # of connection points: 2
#     Edge 22, Type (0, 0), BuildingBlock: ZUJKAS_clean_linker_0, # of connection points: 2
#     Edge 23, Type (0, 0), BuildingBlock: ZUJKAS_clean_linker_0, # of connection points: 2
#     Edge 24, Type (0, 0), BuildingBlock: ZUJKAS_clean_linker_0, # of connection points: 2
#     Edge 25, Type (0, 0), BuildingBlock: ZUJKAS_clean_linker_0, # of connection points: 2
#     Edge 26, Type (0, 0), BuildingBlock: ZUJKAS_clean_linker_0, # of connection points: 2
#     Edge 27, Type (0, 0), BuildingBlock: ZUJKAS_clean_linker_0, # of connection points: 2
#     Edge 28, Type (0, 0), BuildingBlock: ZUJKAS_clean_linker_0, # of connection points: 2
#     Edge 29, Type (0, 0), BuildingBlock: ZUJKAS_clean_linker_0, # of connection points: 2
#     Edge 30, Type (0, 0), BuildingBlock: ZUJKAS_clean_linker_0, # of connection points: 2
#     Edge 31, Type (0, 0), BuildingBlock: ZUJKAS_clean_linker_0, # of connection points: 2
#     Edge 32, Type (0, 0), BuildingBlock: ZUJKAS_clean_linker_0, # of connection points: 2
#     Edge 33, Type (0, 0), BuildingBlock: ZUJKAS_clean_linker_0, # of connection points: 2
#     Edge 34, Type (0, 0), BuildingBlock: ZUJKAS_clean_linker_0, # of connection points: 2
#     Edge 35, Type (0, 0), BuildingBlock: ZUJKAS_clean_linker_0, # of connection points: 2
#     Edge 36, Type (0, 0), BuildingBlock: ZUJKAS_clean_linker_0, # of connection points: 2
#     Edge 37, Type (0, 0), BuildingBlock: ZUJKAS_clean_linker_0, # of connection points: 2
#     Edge 38, Type (0, 0), BuildingBlock: ZUJKAS_clean_linker_0, # of connection points: 2
#     Edge 39, Type (0, 0), BuildingBlock: ZUJKAS_clean_linker_0, # of connection points: 2
#     Edge 40, Type (0, 0), BuildingBlock: ZUJKAS_clean_linker_0, # of connection points: 2
#     Edge 41, Type (0, 0), BuildingBlock: ZUJKAS_clean_linker_0, # of connection points: 2
#     Edge 42, Type (0, 0), BuildingBlock: ZUJKAS_clean_linker_0, # of connection points: 2
#     Edge 43, Type (0, 0), BuildingBlock: ZUJKAS_clean_linker_0, # of connection points: 2
#     Edge 44, Type (0, 0), BuildingBlock: ZUJKAS_clean_linker_0, # of connection points: 2
#     Edge 45, Type (0, 0), BuildingBlock: ZUJKAS_clean_linker_0, # of connection points: 2
#     Edge 46, Type (0, 0), BuildingBlock: ZUJKAS_clean_linker_0, # of connection points: 2
#     Edge 47, Type (0, 0), BuildingBlock: ZUJKAS_clean_linker_0, # of connection points: 2
# Relax obj value: 0.160
# Max RMSD: 0.148
# Mean RMSD: 0.148
data_MOF--net-uoz--node1-KUFVIS_clean_sbu_0--edge1-ZUJKAS_clean_linker_0
_symmetry_space_group_name_H-M    P1
_symmetry_Int_Tables_number       1
_symmetry_cell_setting            triclinic
loop_
_symmetry_equiv_pos_as_xyz
'x, y, z'
_cell_length_a     78.16703
_cell_length_b     78.1472
_cell_length_c     27.195248
_cell_angle_alpha  89.941513
_cell_angle_beta   89.89856
_cell_angle_gamma 90.017494
loop_
_atom_site_label
_atom_site_type_symbol
_atom_site_fract_x
_atom_site_fract_y
_atom_site_fract_z
_atom_type_partial_charge
Mn0 Mn 0.04375 0.58239 0.3009 0.0
Mn1 Mn 0.05263 0.59077 0.18125 0.0
C2 C 0.03018 0.56712 0.23876 0.0
C3 C 0.04979 0.56673 0.37345 0.0
C4 C 0.02921 0.61296 0.24372 0.0
O5 O 0.06569 0.59706 0.30478 0.0
O6 O 0.07119 0.59924 0.22349 0.0
C7 C 0.08243 0.56772 0.17012 0.0
N8 N 0.06675 0.5731 0.15479 0.0
C9 C 0.06745 0.55407 0.08541 0.0
C10 C 0.08365 0.54837 0.10025 0.0
C11 C 0.09112 0.55514 0.14299 0.0
C12 C 0.05931 0.56643 0.11436 0.0
H13 H 0.08824 0.57303 0.20271 0.0
C14 C 0.07501 0.60183 0.26844 0.0
O15 O 0.04127 0.58101 0.37468 0.0
O16 O 0.05554 0.56213 0.33078 0.0
N17 N 0.03589 0.5834 0.13478 0.0
C18 C 0.02002 0.58998 0.12635 0.0
C19 C 0.01092 0.58485 0.08447 0.0
C20 C 0.01832 0.57321 0.05138 0.0
C21 C 0.03456 0.5664 0.06117 0.0
C22 C 0.04307 0.5721 0.10328 0.0
H23 H 0.01449 0.59932 0.15091 0.0
O24 O 0.02389 0.56745 0.28285 0.0
O25 O 0.04455 0.57519 0.23259 0.0
O26 O 0.02959 0.60389 0.28299 0.0
O27 O 0.03779 0.60942 0.20501 0.0
C28 C 0.04275 0.55438 0.03052 0.0
C29 C 0.05908 0.54803 0.04302 0.0
H30 H 0.09045 0.53876 0.0792 0.0
H31 H 0.1036 0.55078 0.15477 0.0
H32 H 0.99836 0.59009 0.07719 0.0
H33 H 0.01143 0.56969 0.01843 0.0
H34 H 0.03664 0.54988 0.99729 0.0
H35 H 0.06513 0.5386 0.01956 0.0
Mn36 Mn 0.71736 0.75496 0.53617 0.0
Mn37 Mn 0.70726 0.76463 0.41819 0.0
C38 C 0.73167 0.74176 0.47128 0.0
C39 C 0.73401 0.76053 0.60716 0.0
C40 C 0.68624 0.74029 0.48122 0.0
O41 O 0.70296 0.7769 0.54367 0.0
O42 O 0.69873 0.78239 0.46323 0.0
C43 C 0.72929 0.79526 0.40823 0.0
N44 N 0.72411 0.77968 0.3915 0.0
C45 C 0.74158 0.7823 0.31905 0.0
C46 C 0.74707 0.79842 0.3353 0.0
C47 C 0.741 0.80486 0.38031 0.0
C48 C 0.7302 0.77318 0.34897 0.0
H49 H 0.72448 0.80031 0.44249 0.0
C50 C 0.6971 0.78611 0.50861 0.0
O51 O 0.7197 0.75209 0.60968 0.0
O52 O 0.73812 0.76637 0.56415 0.0
N53 N 0.71444 0.74884 0.36876 0.0
C54 C 0.70811 0.73296 0.35896 0.0
C55 C 0.71255 0.72484 0.31475 0.0
C56 C 0.72316 0.73326 0.28074 0.0
C57 C 0.72972 0.7495 0.2919 0.0
C58 C 0.7248 0.75697 0.33644 0.0
H59 H 0.69946 0.72669 0.38421 0.0
O60 O 0.73186 0.73516 0.51501 0.0
O61 O 0.72367 0.75625 0.46688 0.0
O62 O 0.69546 0.74104 0.52014 0.0
O63 O 0.68948 0.74887 0.44227 0.0
C64 C 0.74068 0.75871 0.26027 0.0
C65 C 0.74684 0.77497 0.2742 0.0
H66 H 0.75593 0.80595 0.31357 0.0
H67 H 0.74519 0.81727 0.39317 0.0
H68 H 0.7075 0.71228 0.30641 0.0
H69 H 0.72613 0.72713 0.24608 0.0
H70 H 0.74452 0.75341 0.22518 0.0
H71 H 0.75546 0.7818 0.24992 0.0
Mn72 Mn 0.54431 0.43011 0.78888 0.0
Mn73 Mn 0.53816 0.42599 0.6665 0.0
C74 C 0.5609 0.44576 0.7339 0.0
C75 C 0.537 0.44473 0.86215 0.0
C76 C 0.55791 0.40006 0.72796 0.0
O77 O 0.52145 0.41701 0.78449 0.0
O78 O 0.51753 0.41838 0.70242 0.0
C79 C 0.51157 0.45272 0.65594 0.0
N80 N 0.5269 0.44597 0.6422 0.0
C81 C 0.53096 0.46788 0.58104 0.0
C82 C 0.51515 0.47502 0.59429 0.0
C83 C 0.50546 0.46746 0.6321 0.0
C84 C 0.53649 0.45336 0.60666 0.0
H85 H 0.50411 0.44692 0.68497 0.0
C86 C 0.51256 0.41437 0.74569 0.0
O87 O 0.54436 0.4298 0.86328 0.0
O88 O 0.53306 0.45049 0.81905 0.0
N89 N 0.55692 0.43273 0.62569 0.0
C90 C 0.57188 0.42425 0.61746 0.0
C91 C 0.58274 0.42967 0.57938 0.0
C92 C 0.57802 0.4436 0.54978 0.0
C93 C 0.56265 0.45227 0.55922 0.0
C94 C 0.55222 0.44611 0.59717 0.0
H95 H 0.57539 0.41324 0.63918 0.0
O96 O 0.56574 0.44391 0.77908 0.0
O97 O 0.54624 0.43904 0.72283 0.0
O98 O 0.5573 0.40808 0.7691 0.0
O99 O 0.55038 0.40529 0.68895 0.0
C100 C 0.55715 0.46661 0.53205 0.0
C101 C 0.54145 0.47459 0.54348 0.0
H102 H 0.51036 0.48633 0.5758 0.0
H103 H 0.49329 0.47293 0.64269 0.0
H104 H 0.59459 0.42294 0.57233 0.0
H105 H 0.58624 0.44743 0.51964 0.0
H106 H 0.56493 0.47166 0.50246 0.0
H107 H 0.53749 0.48577 0.52286 0.0
Mn108 Mn 0.87198 0.25175 0.05392 0.0
Mn109 Mn 0.87915 0.2431 0.93362 0.0
C110 C 0.85622 0.26553 0.99303 0.0
C111 C 0.85654 0.24564 0.12705 0.0
C112 C 0.90206 0.26639 0.99442 0.0
O113 O 0.88646 0.22967 0.05655 0.0
O114 O 0.88799 0.22439 0.97505 0.0
C115 C 0.85587 0.21341 0.92415 0.0
N116 N 0.86119 0.22908 0.90846 0.0
C117 C 0.84125 0.22873 0.84123 0.0
C118 C 0.83563 0.21252 0.85639 0.0
C119 C 0.8429 0.20487 0.89823 0.0
C120 C 0.85407 0.23669 0.86887 0.0
H121 H 0.86148 0.2075 0.95618 0.0
C122 C 0.89093 0.22043 0.01979 0.0
O123 O 0.87097 0.25393 0.12802 0.0
O124 O 0.85177 0.24011 0.0844 0.0
N125 N 0.87137 0.25998 0.888 0.0
C126 C 0.87788 0.27588 0.87929 0.0
C127 C 0.87223 0.28517 0.83826 0.0
C128 C 0.86012 0.27796 0.80635 0.0
C129 C 0.85338 0.26169 0.81647 0.0
C130 C 0.85966 0.25296 0.85756 0.0
H131 H 0.88752 0.28131 0.90297 0.0
O132 O 0.85706 0.2718 0.03702 0.0
O133 O 0.86417 0.25114 0.98624 0.0
O134 O 0.89354 0.26575 0.03474 0.0
O135 O 0.89795 0.25792 0.95601 0.0
C136 C 0.84085 0.25372 0.78716 0.0
C137 C 0.83463 0.23734 0.7999 0.0
H138 H 0.82569 0.20586 0.83634 0.0
H139 H 0.83857 0.1924 0.91032 0.0
H140 H 0.87741 0.29775 0.83075 0.0
H141 H 0.85618 0.285 0.77403 0.0
H142 H 0.83583 0.26006 0.75487 0.0
H143 H 0.82481 0.23146 0.77752 0.0
Mn144 Mn 0.04474 0.4256 0.84225 0.0
Mn145 Mn 0.05544 0.41614 0.95991 0.0
C146 C 0.03195 0.44016 0.90737 0.0
C147 C 0.0498 0.44189 0.77011 0.0
C148 C 0.03075 0.39466 0.8996 0.0
O149 O 0.0666 0.41111 0.8339 0.0
O150 O 0.07307 0.40784 0.91409 0.0
C151 C 0.08562 0.4389 0.96713 0.0
N152 N 0.07032 0.43337 0.98515 0.0
C153 C 0.07313 0.451 0.05706 0.0
C154 C 0.08898 0.45681 0.03952 0.0
C155 C 0.09519 0.45084 0.99413 0.0
C156 C 0.06402 0.43939 0.028 0.0
H157 H 0.09046 0.43419 0.93251 0.0
C158 C 0.07632 0.40581 0.86852 0.0
O159 O 0.04121 0.42764 0.76893 0.0
O160 O 0.05604 0.44617 0.81242 0.0
N161 N 0.03985 0.42315 0.01013 0.0
C162 C 0.0242 0.41649 0.02121 0.0
C163 C 0.01636 0.42076 0.066 0.0
C164 C 0.02483 0.43156 0.09926 0.0
C165 C 0.04081 0.43848 0.08676 0.0
C166 C 0.04802 0.4337 0.04174 0.0
H167 H 0.01791 0.4077 0.99656 0.0
O168 O 0.0251 0.44021 0.86404 0.0
O169 O 0.0465 0.43223 0.91115 0.0
O170 O 0.03093 0.40381 0.86042 0.0
O171 O 0.03984 0.39801 0.9374 0.0
C172 C 0.05003 0.44968 0.11754 0.0
C173 C 0.06604 0.45616 0.10233 0.0
H174 H 0.09649 0.46587 0.06054 0.0
H175 H 0.10738 0.45531 0.98024 0.0
H176 H 1.00399 0.41544 0.07536 0.0
H177 H 0.01894 0.43439 0.13438 0.0
H178 H 0.04491 0.45346 0.15292 0.0
H179 H 0.07287 0.46497 0.12595 0.0
Mn180 Mn 0.87328 0.75686 0.07805 0.0
Mn181 Mn 0.8821 0.76539 0.1975 0.0
C182 C 0.85857 0.74273 0.14053 0.0
C183 C 0.85719 0.76288 1.00634 0.0
C184 C 0.90426 0.74245 0.13354 0.0
O185 O 0.88747 0.77913 0.07406 0.0
O186 O 0.89009 0.78429 0.15532 0.0
C187 C 0.85854 0.79472 0.21013 0.0
N188 N 0.86434 0.77914 0.22509 0.0
C189 C 0.84567 0.77933 0.29544 0.0
C190 C 0.83959 0.79546 0.28109 0.0
C191 C 0.84596 0.80313 0.23802 0.0
C192 C 0.85801 0.77148 0.26575 0.0
H193 H 0.86348 0.80065 0.17719 0.0
C194 C 0.89232 0.78838 0.11033 0.0
O195 O 0.87168 0.75475 1.00423 0.0
O196 O 0.85263 0.76828 0.04941 0.0
N197 N 0.87519 0.74837 0.24396 0.0
C198 C 0.88199 0.73253 0.25162 0.0
C199 C 0.87715 0.72319 0.29348 0.0
C200 C 0.8656 0.73031 0.32734 0.0
C201 C 0.85859 0.74653 0.31837 0.0
C202 C 0.86397 0.75528 0.2762 0.0
H203 H 0.89125 0.7272 0.22646 0.0
O204 O 0.85883 0.73663 0.09626 0.0
O205 O 0.86639 0.75724 0.14672 0.0
O206 O 0.89507 0.743 0.09461 0.0
O207 O 0.90083 0.75086 0.17261 0.0
C208 C 0.84664 0.75447 0.34985 0.0
C209 C 0.84 0.77074 0.33801 0.0
H210 H 0.82998 0.80204 0.30273 0.0
H211 H 0.84128 0.81553 0.22654 0.0
H212 H 0.88255 0.71065 0.30011 0.0
H213 H 0.86227 0.72322 0.36021 0.0
H214 H 0.84242 0.74819 0.38323 0.0
H215 H 0.83061 0.77658 0.36206 0.0
Mn216 Mn 0.54538 0.57939 0.34088 0.0
Mn217 Mn 0.5398 0.58387 0.46345 0.0
C218 C 0.56205 0.56375 0.39555 0.0
C219 C 0.53778 0.56462 0.26818 0.0
C220 C 0.55942 0.60953 0.40049 0.0
O221 O 0.52257 0.59259 0.34599 0.0
O222 O 0.5191 0.59151 0.4283 0.0
C223 C 0.51304 0.55737 0.47589 0.0
N224 N 0.52848 0.56405 0.48877 0.0
C225 C 0.53257 0.54237 0.55051 0.0
C226 C 0.51665 0.53531 0.53818 0.0
C227 C 0.50689 0.54279 0.5005 0.0
C228 C 0.53814 0.55673 0.52415 0.0
H229 H 0.50552 0.56311 0.44697 0.0
C230 C 0.5139 0.59537 0.3852 0.0
O231 O 0.54519 0.57952 0.26649 0.0
O232 O 0.53394 0.55898 0.31154 0.0
N233 N 0.55869 0.57708 0.50347 0.0
C234 C 0.57382 0.58539 0.51054 0.0
C235 C 0.58484 0.57996 0.54811 0.0
C236 C 0.5801 0.5662 0.57841 0.0
C237 C 0.56454 0.55773 0.57023 0.0
C238 C 0.55399 0.56387 0.53265 0.0
H239 H 0.57734 0.59628 0.48826 0.0
O240 O 0.56677 0.56549 0.35018 0.0
O241 O 0.54748 0.57061 0.40703 0.0
O242 O 0.55856 0.6014 0.35957 0.0
O243 O 0.55208 0.60443 0.44001 0.0
C244 C 0.55898 0.5436 0.59826 0.0
C245 C 0.54314 0.53573 0.58786 0.0
H246 H 0.51183 0.52413 0.55726 0.0
H247 H 0.49463 0.53738 0.4906 0.0
H248 H 0.59683 0.58654 0.5542 0.0
H249 H 0.58848 0.56233 0.60808 0.0
H250 H 0.56681 0.53862 0.62772 0.0
H251 H 0.53916 0.52469 0.6091 0.0
Mn252 Mn 0.71431 0.25211 0.59375 0.0
Mn253 Mn 0.70223 0.24214 0.71025 0.0
C254 C 0.72804 0.26457 0.66082 0.0
C255 C 0.73175 0.24678 0.52394 0.0
C256 C 0.68297 0.26755 0.64663 0.0
O257 O 0.69962 0.23049 0.58349 0.0
O258 O 0.6935 0.22526 0.66307 0.0
C259 C 0.72252 0.21035 0.72005 0.0
N260 N 0.71791 0.22602 0.73744 0.0
C261 C 0.73362 0.2216 0.81226 0.0
C262 C 0.73853 0.20538 0.7953 0.0
C263 C 0.73307 0.19979 0.74879 0.0
C264 C 0.72344 0.23169 0.78148 0.0
H265 H 0.71811 0.20594 0.68468 0.0
C266 C 0.69262 0.2216 0.61752 0.0
O267 O 0.71763 0.25548 0.52072 0.0
O268 O 0.73523 0.24055 0.56692 0.0
N269 N 0.70941 0.25706 0.76178 0.0
C270 C 0.70376 0.27314 0.77219 0.0
C271 C 0.70775 0.28052 0.81777 0.0
C272 C 0.71716 0.27115 0.85253 0.0
C273 C 0.723 0.25468 0.84082 0.0
C274 C 0.71865 0.24802 0.79481 0.0
H275 H 0.69597 0.28014 0.7463 0.0
O276 O 0.72889 0.27144 0.6175 0.0
O277 O 0.71967 0.25022 0.66376 0.0
O278 O 0.69248 0.26644 0.60825 0.0
O279 O 0.68559 0.25892 0.68577 0.0
C280 C 0.73272 0.2445 0.87325 0.0
C281 C 0.73827 0.22809 0.85866 0.0
H282 H 0.74647 0.19711 0.81766 0.0
H283 H 0.7368 0.1873 0.7354 0.0
H284 H 0.70326 0.29326 0.82654 0.0
H285 H 0.71982 0.27673 0.88813 0.0
H286 H 0.7361 0.24921 0.90938 0.0
H287 H 0.74595 0.2205 0.8836 0.0
Mn288 Mn 0.37065 0.25734 0.58833 0.0
Mn289 Mn 0.37694 0.26433 0.7096 0.0
C290 C 0.35485 0.24223 0.64629 0.0
C291 C 0.35586 0.26456 0.51555 0.0
C292 C 0.40085 0.24289 0.64633 0.0
O293 O 0.38501 0.27953 0.58971 0.0
O294 O 0.38465 0.28443 0.67152 0.0
C295 C 0.35163 0.29211 0.72322 0.0
N296 N 0.35791 0.27651 0.73636 0.0
C297 C 0.33713 0.27374 0.80124 0.0
C298 C 0.3305 0.28983 0.78865 0.0
C299 C 0.33772 0.29901 0.74928 0.0
C300 C 0.35084 0.26743 0.77348 0.0
H301 H 0.35718 0.29918 0.69303 0.0
C302 C 0.38833 0.28876 0.62744 0.0
O303 O 0.37031 0.25632 0.51426 0.0
O304 O 0.35066 0.26943 0.55852 0.0
N305 N 0.37013 0.24602 0.752 0.0
C306 C 0.37791 0.2306 0.75898 0.0
C307 C 0.37252 0.21999 0.79768 0.0
C308 C 0.35938 0.22543 0.82921 0.0
C309 C 0.3515 0.24132 0.82123 0.0
C310 C 0.35752 0.25141 0.78235 0.0
H311 H 0.38831 0.2265 0.73567 0.0
O312 O 0.3558 0.23687 0.60134 0.0
O313 O 0.36255 0.25659 0.65548 0.0
O314 O 0.39201 0.24321 0.60671 0.0
O315 O 0.39686 0.25123 0.68516 0.0
C316 C 0.33802 0.24762 0.85059 0.0
C317 C 0.33068 0.26371 0.84016 0.0
H318 H 0.31983 0.29523 0.80885 0.0
H319 H 0.33263 0.3114 0.7392 0.0
H320 H 0.37866 0.20775 0.80363 0.0
H321 H 0.35552 0.21733 0.85959 0.0
H322 H 0.33314 0.24016 0.88111 0.0
H323 H 0.32014 0.26828 0.8625 0.0
Mn324 Mn 0.2146 0.75328 0.08953 0.0
Mn325 Mn 0.20014 0.74463 0.20475 0.0
C326 C 0.22757 0.7658 0.15777 0.0
C327 C 0.23273 0.74721 0.0218 0.0
C328 C 0.18256 0.76952 0.13587 0.0
O329 O 0.1996 0.73185 0.07901 0.0
O330 O 0.19235 0.72711 0.15819 0.0
C331 C 0.21973 0.71283 0.22277 0.0
N332 N 0.21496 0.72883 0.23699 0.0
C333 C 0.22817 0.72527 0.31607 0.0
C334 C 0.23325 0.70872 0.30238 0.0
C335 C 0.22914 0.70254 0.25533 0.0
C336 C 0.21923 0.73507 0.28157 0.0
H337 H 0.21623 0.70793 0.18705 0.0
C338 C 0.19214 0.72315 0.11276 0.0
O339 O 0.21882 0.75613 0.01693 0.0
O340 O 0.23564 0.74112 0.06538 0.0
N341 N 0.20641 0.76034 0.25531 0.0
C342 C 0.20113 0.77679 0.26185 0.0
C343 C 0.20423 0.78495 0.30694 0.0
C344 C 0.21227 0.77594 0.34519 0.0
C345 C 0.21766 0.75904 0.33749 0.0
C346 C 0.21446 0.75169 0.29158 0.0
H347 H 0.19435 0.78352 0.23318 0.0
O348 O 0.22931 0.77238 0.11426 0.0
O349 O 0.21868 0.75176 0.16031 0.0
O350 O 0.19305 0.76829 0.09985 0.0
O351 O 0.18401 0.76103 0.1757 0.0
C352 C 0.22586 0.7491 0.37375 0.0
C353 C 0.23141 0.73235 0.36275 0.0
H354 H 0.24027 0.70066 0.3277 0.0
H355 H 0.23299 0.68979 0.24449 0.0
H356 H 0.20007 0.79801 0.3126 0.0
H357 H 0.2143 0.78216 0.38029 0.0
H358 H 0.22821 0.75432 0.41 0.0
H359 H 0.23805 0.72499 0.39058 0.0
Mn360 Mn 0.21767 0.25431 0.04727 0.0
Mn361 Mn 0.21223 0.25986 0.92502 0.0
C362 C 0.23408 0.23884 0.99154 0.0
C363 C 0.23201 0.26238 0.12004 0.0
C364 C 0.18793 0.23905 0.98902 0.0
O365 O 0.20326 0.27644 0.04299 0.0
O366 O 0.20402 0.28021 0.96066 0.0
C367 C 0.23734 0.28779 0.91045 0.0
N368 N 0.2313 0.27201 0.89826 0.0
C369 C 0.25247 0.26893 0.83458 0.0
C370 C 0.25882 0.28522 0.84607 0.0
C371 C 0.25129 0.29464 0.88441 0.0
C372 C 0.2387 0.26268 0.86226 0.0
H373 H 0.23158 0.29503 0.9399 0.0
C374 C 0.20011 0.28514 1.00402 0.0
O375 O 0.2176 0.25406 0.12145 0.0
O376 O 0.23742 0.26684 0.07689 0.0
N377 N 0.21965 0.24117 0.88497 0.0
C378 C 0.21231 0.22547 0.87953 0.0
C379 C 0.21824 0.21445 0.84252 0.0
C380 C 0.23146 0.21979 0.81102 0.0
C381 C 0.23883 0.23601 0.8173 0.0
C382 C 0.23234 0.24644 0.8547 0.0
H383 H 0.20187 0.22144 0.90287 0.0
O384 O 0.23278 0.23382 0.03678 0.0
O385 O 0.22625 0.25297 0.98079 0.0
O386 O 0.19645 0.2399 0.02914 0.0
O387 O 0.19226 0.24681 0.94946 0.0
C388 C 0.25228 0.24228 0.78773 0.0
C389 C 0.25928 0.25861 0.79686 0.0
H390 H 0.26952 0.29058 0.8259 0.0
H391 H 0.25618 0.30718 0.89374 0.0
H392 H 0.2125 0.20196 0.83788 0.0
H393 H 0.23581 0.21133 0.78206 0.0
H394 H 0.25742 0.23461 0.75809 0.0
H395 H 0.26984 0.26314 0.77451 0.0
Mn396 Mn 0.37239 0.75138 0.55217 0.0
Mn397 Mn 0.37912 0.74349 0.43123 0.0
C398 C 0.35627 0.76538 0.49253 0.0
C399 C 0.35741 0.74481 0.62567 0.0
C400 C 0.40223 0.76638 0.49262 0.0
O401 O 0.38696 0.72934 0.55305 0.0
O402 O 0.38802 0.7244 0.47127 0.0
C403 C 0.35573 0.71394 0.42014 0.0
N404 N 0.36104 0.72974 0.40549 0.0
C405 C 0.34074 0.73013 0.33915 0.0
C406 C 0.33513 0.71379 0.35323 0.0
C407 C 0.3426 0.70571 0.39409 0.0
C408 C 0.35376 0.73775 0.36678 0.0
H409 H 0.36146 0.70772 0.45148 0.0
C410 C 0.39119 0.72024 0.51576 0.0
O411 O 0.3718 0.75315 0.62631 0.0
O412 O 0.35239 0.73948 0.58302 0.0
N413 N 0.37121 0.7608 0.38712 0.0
C414 C 0.37761 0.77682 0.37971 0.0
C415 C 0.37165 0.78661 0.34 0.0
C416 C 0.35933 0.77977 0.30809 0.0
C417 C 0.35273 0.76336 0.31685 0.0
C418 C 0.35932 0.75412 0.35662 0.0
H419 H 0.38737 0.782 0.40346 0.0
O420 O 0.35728 0.77144 0.53675 0.0
O421 O 0.36431 0.7511 0.4848 0.0
O422 O 0.39377 0.76558 0.533 0.0
O423 O 0.39807 0.75806 0.45401 0.0
C424 C 0.33996 0.75574 0.28758 0.0
C425 C 0.33383 0.73922 0.29906 0.0
H426 H 0.32504 0.70739 0.33315 0.0
H427 H 0.33828 0.69314 0.40537 0.0
H428 H 0.37673 0.7993 0.33356 0.0
H429 H 0.3551 0.78722 0.27685 0.0
H430 H 0.33466 0.7625 0.25637 0.0
H431 H 0.32382 0.73363 0.27677 0.0
Mn432 Mn 0.54164 0.08311 0.808 0.0
Mn433 Mn 0.54918 0.09142 0.68758 0.0
C434 C 0.52717 0.06803 0.74716 0.0
C435 C 0.54827 0.0673 0.87983 0.0
C436 C 0.52687 0.11391 0.75242 0.0
O437 O 0.56388 0.09738 0.8097 0.0
O438 O 0.56839 0.09961 0.72791 0.0
C439 C 0.5785 0.06797 0.67331 0.0
N440 N 0.56272 0.07358 0.65962 0.0
C441 C 0.56222 0.05442 0.59051 0.0
C442 C 0.57853 0.04851 0.6036 0.0
C443 C 0.58665 0.05524 0.64539 0.0
C444 C 0.55465 0.06696 0.62011 0.0
H445 H 0.58478 0.07319 0.70526 0.0
C446 C 0.57282 0.10205 0.77249 0.0
O447 O 0.54011 0.08178 0.88202 0.0
O448 O 0.55335 0.06262 0.83655 0.0
N449 N 0.53173 0.08423 0.643 0.0
C450 C 0.51577 0.09086 0.6366 0.0
C451 C 0.50594 0.08561 0.59621 0.0
C452 C 0.51271 0.07379 0.56252 0.0
C453 C 0.52909 0.06698 0.57017 0.0
C454 C 0.53832 0.07279 0.61089 0.0
H455 H 0.51069 0.10029 0.66168 0.0
O456 O 0.52133 0.06848 0.79175 0.0
O457 O 0.54155 0.07595 0.73972 0.0
O458 O 0.52762 0.10483 0.7916 0.0
O459 O 0.5349 0.11028 0.71282 0.0
C460 C 0.53671 0.05481 0.53879 0.0
C461 C 0.55315 0.04835 0.54934 0.0
H462 H 0.58489 0.03877 0.58198 0.0
H463 H 0.5992 0.0507 0.65588 0.0
H464 H 0.49329 0.09086 0.59059 0.0
H465 H 0.50522 0.07011 0.53081 0.0
H466 H 0.53005 0.05026 0.50649 0.0
H467 H 0.55874 0.03879 0.52541 0.0
Mn468 Mn 0.0436 0.93116 0.28558 0.0
Mn469 Mn 0.03856 0.92631 0.16297 0.0
C470 C 0.06023 0.94697 0.23102 0.0
C471 C 0.03563 0.94573 0.35828 0.0
C472 C 0.05808 0.90104 0.22701 0.0
O473 O 0.02096 0.91762 0.27998 0.0
O474 O 0.01771 0.91871 0.1976 0.0
C475 C 0.01174 0.95257 0.14849 0.0
N476 N 0.02732 0.94596 0.13655 0.0
C477 C 0.03162 0.96732 0.07398 0.0
C478 C 0.01557 0.9743 0.08531 0.0
C479 C 0.00564 0.96695 0.12295 0.0
C480 C 0.03714 0.95315 0.10122 0.0
H481 H 0.00409 0.94693 0.17736 0.0
C482 C 0.01241 0.9148 0.24063 0.0
O483 O 0.04321 0.93093 0.35985 0.0
O484 O 0.0318 0.95139 0.31495 0.0
N485 N 0.05769 0.93307 0.12359 0.0
C486 C 0.07297 0.92492 0.11776 0.0
C487 C 0.08426 0.93036 0.08075 0.0
C488 C 0.07963 0.94393 0.04968 0.0
C489 C 0.06388 0.9522 0.05651 0.0
C490 C 0.05309 0.94611 0.09371 0.0
H491 H 0.07643 0.91418 0.14066 0.0
O492 O 0.06481 0.94538 0.27652 0.0
O493 O 0.04581 0.93984 0.21934 0.0
O494 O 0.05721 0.90939 0.26747 0.0
O495 O 0.05073 0.90581 0.18728 0.0
C496 C 0.05837 0.9661 0.02754 0.0
C497 C 0.04238 0.97384 0.03679 0.0
H498 H 0.01077 0.98533 0.0655 0.0
H499 H 0.99327 0.97232 0.13209 0.0
H500 H 0.0964 0.92393 0.0757 0.0
H501 H 0.08825 0.94783 0.02053 0.0
H502 H 0.06636 0.97101 0.99823 0.0
H503 H 0.03843 0.98472 0.01485 0.0
Mn504 Mn 0.54408 0.92755 0.35171 0.0
Mn505 Mn 0.5545 0.91723 0.46902 0.0
C506 C 0.5309 0.94144 0.4174 0.0
C507 C 0.54909 0.94441 0.28064 0.0
C508 C 0.53008 0.8961 0.40699 0.0
O509 O 0.56614 0.91346 0.34284 0.0
O510 O 0.57209 0.90904 0.42287 0.0
C511 C 0.58489 0.93964 0.47747 0.0
N512 N 0.56952 0.93418 0.49511 0.0
C513 C 0.57252 0.95121 0.56813 0.0
C514 C 0.58844 0.95699 0.55093 0.0
C515 C 0.59458 0.95128 0.50519 0.0
C516 C 0.56329 0.93993 0.53835 0.0
H517 H 0.58973 0.93507 0.44267 0.0
C518 C 0.57559 0.90759 0.37729 0.0
O519 O 0.54083 0.92999 0.2784 0.0
O520 O 0.55505 0.94854 0.32342 0.0
N521 N 0.53898 0.92401 0.51965 0.0
C522 C 0.5233 0.91736 0.53045 0.0
C523 C 0.51555 0.92132 0.57559 0.0
C524 C 0.52413 0.93179 0.60948 0.0
C525 C 0.54014 0.9387 0.59727 0.0
C526 C 0.54726 0.93425 0.55185 0.0
H527 H 0.51694 0.90879 0.5053 0.0
O528 O 0.52418 0.94167 0.3739 0.0
O529 O 0.54557 0.93369 0.42113 0.0
O530 O 0.53056 0.90541 0.36812 0.0
O531 O 0.53881 0.89935 0.44556 0.0
C532 C 0.54948 0.94957 0.62872 0.0
C533 C 0.56552 0.95606 0.6138 0.0
H534 H 0.59604 0.9658 0.57251 0.0
H535 H 0.60684 0.9557 0.49161 0.0
H536 H 0.50315 0.91601 0.58473 0.0
H537 H 0.5183 0.9344 0.64483 0.0
H538 H 0.54441 0.95311 0.66438 0.0
H539 H 0.57245 0.9646 0.63797 0.0
Mn540 Mn 0.04481 0.08105 0.83493 0.0
Mn541 Mn 0.03974 0.0872 0.95713 0.0
C542 C 0.06125 0.06567 0.89076 0.0
C543 C 0.0368 0.0659 0.7633 0.0
C544 C 0.05948 0.11164 0.89089 0.0
O545 O 0.02225 0.09476 0.83951 0.0
O546 O 0.01896 0.09455 0.92201 0.0
C547 C 0.01271 0.0613 0.97407 0.0
N548 N 0.02832 0.06793 0.98533 0.0
C549 C 0.03238 0.04728 0.04992 0.0
C550 C 0.01628 0.0403 0.03932 0.0
C551 C 0.00645 0.04728 1.001 0.0
C552 C 0.03805 0.06107 0.02131 0.0
H553 H 0.00513 0.06666 0.94468 0.0
C554 C 0.01368 0.09799 0.87869 0.0
O555 O 0.04449 0.08063 0.7607 0.0
O556 O 0.03289 0.06063 0.80703 0.0
N557 N 0.0588 0.0807 0.99692 0.0
C558 C 0.0742 0.08872 1.00173 0.0
C559 C 0.08547 0.08352 0.03897 0.0
C560 C 0.08069 0.07035 0.07135 0.0
C561 C 0.0648 0.06226 0.06565 0.0
C562 C 0.05407 0.06805 0.02805 0.0
H563 H 0.07777 0.09915 0.97778 0.0
O564 O 0.06589 0.06677 0.84513 0.0
O565 O 0.04688 0.07302 0.90186 0.0
O566 O 0.0586 0.10286 0.85122 0.0
O567 O 0.05206 0.10738 0.93105 0.0
C568 C 0.05911 0.04879 0.09608 0.0
C569 C 0.04304 0.04111 0.0877 0.0
H570 H 0.01136 0.02955 0.0602 0.0
H571 H 0.99404 0.04191 0.9924 0.0
H572 H 0.09771 0.08983 0.04316 0.0
H573 H 0.08932 0.06662 0.10056 0.0
H574 H 0.06703 0.04416 0.12585 0.0
H575 H 0.03897 0.03055 0.11075 0.0
H576 H 0.20236 0.69009 0.1148 0.0
H577 H 0.18363 0.66629 0.13822 0.0
H578 H 0.13963 0.69895 0.11957 0.0
H579 H 0.15833 0.72245 0.09496 0.0
H580 H 0.1657 0.66792 0.2207 0.0
H581 H 0.12029 0.65508 0.06973 0.0
H582 H 0.1397 0.66716 0.06034 0.0
H583 H 0.12084 0.6774 0.08461 0.0
C584 C 0.18863 0.69179 0.11248 0.0
C585 C 0.18176 0.70796 0.10165 0.0
C586 C 0.17792 0.67828 0.12682 0.0
C587 C 0.16015 0.68073 0.13077 0.0
C588 C 0.1532 0.6965 0.11583 0.0
H589 H 0.07584 0.63559 0.28937 0.0
H590 H 0.09847 0.65509 0.26132 0.0
C591 C 0.16391 0.70994 0.10118 0.0
C592 C 0.14926 0.66794 0.15705 0.0
H593 H 0.11138 0.64616 0.15069 0.0
C594 C 0.15396 0.66298 0.20499 0.0
C595 C 0.13385 0.6615 0.13693 0.0
C596 C 0.12847 0.66543 0.08489 0.0
C597 C 0.14348 0.65218 0.23355 0.0
C598 C 0.12788 0.64628 0.21395 0.0
C599 C 0.12328 0.65094 0.16588 0.0
C600 C 0.11618 0.63492 0.2421 0.0
C601 C 0.1489 0.64737 0.2849 0.0
C602 C 0.11903 0.61721 0.24295 0.0
C603 C 0.10616 0.60608 0.25928 0.0
C604 C 0.09032 0.61251 0.27539 0.0
C605 C 0.08813 0.63031 0.27881 0.0
C606 C 0.10094 0.64145 0.262 0.0
H607 H 0.16097 0.65379 0.29598 0.0
H608 H 0.13866 0.65082 0.31146 0.0
H609 H 0.15075 0.6333 0.2871 0.0
H610 H 0.13065 0.61192 0.22739 0.0
H611 H 0.10797 0.59243 0.25482 0.0
H612 H 0.60876 0.91712 0.38485 0.0
H613 H 0.63229 0.89762 0.40458 0.0
H614 H 0.5993 0.85452 0.3759 0.0
H615 H 0.57605 0.87404 0.35466 0.0
H616 H 0.63066 0.87755 0.48236 0.0
H617 H 0.64296 0.83636 0.321 0.0
H618 H 0.63094 0.85601 0.31644 0.0
H619 H 0.6207 0.83659 0.33685 0.0
C620 C 0.60691 0.90349 0.3798 0.0
C621 C 0.59076 0.89708 0.36682 0.0
C622 C 0.62027 0.89233 0.39192 0.0
C623 C 0.61767 0.87453 0.39176 0.0
C624 C 0.60187 0.86813 0.37524 0.0
H625 H 0.66349 0.78665 0.53127 0.0
H626 H 0.64391 0.80989 0.50857 0.0
C627 C 0.58857 0.87931 0.36261 0.0
C628 C 0.63043 0.86289 0.41515 0.0
H629 H 0.6524 0.82547 0.39919 0.0
C630 C 0.63558 0.86629 0.4638 0.0
C631 C 0.63685 0.84812 0.39129 0.0
C632 C 0.63271 0.84415 0.33835 0.0
C633 C 0.64658 0.85517 0.48937 0.0
C634 C 0.6525 0.84021 0.46596 0.0
C635 C 0.64763 0.83689 0.41724 0.0
C636 C 0.66403 0.82788 0.49088 0.0
C637 C 0.65163 0.85921 0.54154 0.0
C638 C 0.68176 0.83062 0.49079 0.0
C639 C 0.69293 0.81741 0.50412 0.0
C640 C 0.68652 0.80131 0.51811 0.0
C641 C 0.66874 0.79911 0.52233 0.0
C642 C 0.65757 0.81228 0.5086 0.0
H643 H 0.64531 0.87098 0.55552 0.0
H644 H 0.64825 0.84831 0.56592 0.0
H645 H 0.66571 0.86097 0.54354 0.0
H646 H 0.68698 0.84253 0.47687 0.0
H647 H 0.70656 0.81925 0.49907 0.0
H648 H 0.50687 0.38357 0.79053 0.0
H649 H 0.484 0.3633 0.76928 0.0
H650 H 0.45954 0.40219 0.68147 0.0
H651 H 0.48256 0.42218 0.70136 0.0
H652 H 0.44912 0.36108 0.77465 0.0
H653 H 0.46921 0.36571 0.5797 0.0
H654 H 0.48148 0.37493 0.62912 0.0
H655 H 0.4631 0.38599 0.6051 0.0
C656 C 0.49627 0.38794 0.76823 0.0
C657 C 0.49646 0.40445 0.74771 0.0
C658 C 0.4833 0.3763 0.75558 0.0
C659 C 0.47034 0.38104 0.72237 0.0
C660 C 0.46967 0.39804 0.70583 0.0
H661 H 0.37971 0.32013 0.66145 0.0
H662 H 0.39953 0.34343 0.68037 0.0
C663 C 0.48269 0.40956 0.7179 0.0
C664 C 0.45815 0.36805 0.70263 0.0
H665 H 0.44353 0.3503 0.59554 0.0
C666 C 0.44791 0.35873 0.73552 0.0
C667 C 0.45684 0.36463 0.65153 0.0
C668 C 0.46836 0.3732 0.61433 0.0
C669 C 0.43614 0.34642 0.71875 0.0
C670 C 0.4342 0.34363 0.66749 0.0
C671 C 0.44475 0.35265 0.63468 0.0
C672 C 0.42156 0.33112 0.64761 0.0
C673 C 0.42618 0.33624 0.75634 0.0
C674 C 0.42697 0.31712 0.61899 0.0
C675 C 0.41547 0.30398 0.60677 0.0
C676 C 0.39842 0.30467 0.62306 0.0
C677 C 0.39275 0.31935 0.64804 0.0
C678 C 0.40414 0.33254 0.65965 0.0
H679 H 0.43257 0.33632 0.7928 0.0
H680 H 0.41331 0.34201 0.76099 0.0
H681 H 0.42455 0.32275 0.74444 0.0
H682 H 0.44031 0.31581 0.60882 0.0
H683 H 0.42026 0.29264 0.58846 0.0
H684 H 0.92405 0.21858 0.04928 0.0
H685 H 0.94404 0.19578 0.02551 0.0
H686 H 0.90173 0.1651 0.97502 0.0
H687 H 0.88186 0.18793 0.99806 0.0
H688 H 0.94851 0.16021 0.0421 0.0
H689 H 0.92977 0.17388 0.84932 0.0
H690 H 0.92389 0.18761 0.89991 0.0
H691 H 0.9122 0.16819 0.88871 0.0
C692 C 0.91899 0.20662 0.03543 0.0
C693 C 0.9014 0.20491 0.02613 0.0
C694 C 0.93043 0.19369 0.02114 0.0
C695 C 0.92442 0.17893 0.99716 0.0
C696 C 0.9067 0.17653 0.9924 0.0
H697 H 0.98366 0.08916 0.92104 0.0
H698 H 0.96095 0.10889 0.94562 0.0
C699 C 0.89532 0.18945 1.00639 0.0
C700 C 0.9366 0.16681 0.97344 0.0
H701 H 0.94833 0.15024 0.86179 0.0
C702 C 0.94846 0.15802 1.00273 0.0
C703 C 0.93681 0.16423 0.9218 0.0
C704 C 0.92511 0.17408 0.88794 0.0
C705 C 0.96018 0.14641 0.98201 0.0
C706 C 0.9599 0.1433 0.93063 0.0
C707 C 0.94836 0.15242 0.90117 0.0
C708 C 0.97164 0.13068 0.90728 0.0
C709 C 0.97297 0.13775 0.01528 0.0
C710 C 0.98446 0.13601 0.87427 0.0
C711 C 0.99733 0.12458 0.85924 0.0
C712 C 0.99748 0.1077 0.87705 0.0
C713 C 0.98376 0.10206 0.90638 0.0
C714 C 0.97091 0.11339 0.92106 0.0
H715 H 0.97439 0.14462 0.05078 0.0
H716 H 0.96853 0.12455 0.02341 0.0
H717 H 0.98571 0.1369 0.99733 0.0
H718 H 0.9852 0.14927 0.86286 0.0
H719 H 0.00794 0.12937 0.83755 0.0
H720 H 0.10909 0.41538 0.88306 0.0
H721 H 0.1324 0.39577 0.90352 0.0
H722 H 0.10108 0.35301 0.85979 0.0
H723 H 0.07774 0.37271 0.83913 0.0
H724 H 0.1266 0.37153 0.97867 0.0
H725 H 0.14895 0.34009 0.80704 0.0
H726 H 0.1375 0.36017 0.8068 0.0
H727 H 0.12615 0.34043 0.8158 0.0
C728 C 0.10753 0.40188 0.87526 0.0
C729 C 0.09175 0.39558 0.85851 0.0
C730 C 0.12077 0.39065 0.88765 0.0
C731 C 0.11848 0.3729 0.88345 0.0
C732 C 0.10324 0.36665 0.86272 0.0
H733 H 0.16874 0.29053 0.04599 0.0
H734 H 0.1486 0.3132 0.02179 0.0
C735 C 0.08997 0.37793 0.85029 0.0
C736 C 0.13104 0.36104 0.9065 0.0
H737 H 0.15876 0.32834 0.88235 0.0
C738 C 0.13369 0.36212 0.95758 0.0
C739 C 0.14024 0.34877 0.87904 0.0
C740 C 0.13823 0.34731 0.82407 0.0
C741 C 0.14524 0.35121 0.98188 0.0
C742 C 0.15434 0.33885 0.95448 0.0
C743 C 0.15173 0.33781 0.90339 0.0
C744 C 0.16699 0.32709 0.97745 0.0
C745 C 0.14787 0.35315 0.03651 0.0
C746 C 0.18413 0.32777 0.96234 0.0
C747 C 0.19559 0.31498 0.97643 0.0
C748 C 0.19017 0.3012 1.0059 0.0
C749 C 0.17337 0.30122 0.02435 0.0
C750 C 0.16182 0.31408 0.01008 0.0
H751 H 0.14238 0.36531 0.05064 0.0
H752 H 0.14152 0.34237 0.05588 0.0
H753 H 0.1617 0.35274 0.04564 0.0
H754 H 0.18842 0.33769 0.93733 0.0
H755 H 0.20839 0.31518 0.96117 0.0
H756 H 0.98316 0.92246 0.1926 0.0
H757 H 0.96048 0.90245 0.17038 0.0
H758 H 0.98328 0.86398 0.26326 0.0
H759 H 0.00597 0.88422 0.28626 0.0
H760 H 0.96787 0.87295 0.12017 0.0
H761 H 0.93226 0.85778 0.29153 0.0
H762 H 0.94593 0.87632 0.28596 0.0
H763 H 0.95507 0.85552 0.29621 0.0
C764 C 0.98293 0.90997 0.20995 0.0
C765 C 0.99623 0.90497 0.24165 0.0
C766 C 0.97005 0.89847 0.19679 0.0
C767 C 0.97016 0.88166 0.21487 0.0
C768 C 0.98275 0.87695 0.24931 0.0
H769 H 0.92513 0.79141 0.07844 0.0
H770 H 0.94433 0.81522 0.09882 0.0
C771 C 0.99565 0.88857 0.26282 0.0
C772 C 0.95823 0.86876 0.1935 0.0
H773 H 0.92646 0.84039 0.22196 0.0
C774 C 0.95876 0.86588 0.14244 0.0
C775 C 0.9463 0.85958 0.22239 0.0
C776 C 0.94468 0.86251 0.27701 0.0
C777 C 0.94778 0.85404 0.1196 0.0
C778 C 0.93606 0.84463 0.14861 0.0
C779 C 0.93546 0.84758 0.19963 0.0
C780 C 0.92428 0.8316 0.12721 0.0
C781 C 0.94864 0.85192 0.06453 0.0
C782 C 0.90656 0.83307 0.13463 0.0
C783 C 0.89563 0.81954 0.12264 0.0
C784 C 0.90215 0.80427 0.10284 0.0
C785 C 0.91969 0.80326 0.09199 0.0
C786 C 0.93069 0.81681 0.10417 0.0
H787 H 0.95488 0.86306 0.04651 0.0
H788 H 0.95626 0.84034 0.05571 0.0
H789 H 0.93566 0.85025 0.0487 0.0
H790 H 0.9013 0.84432 0.15228 0.0
H791 H 0.88223 0.8205 0.13244 0.0
H792 H 0.42409 0.71782 0.54736 0.0
H793 H 0.44401 0.69475 0.5252 0.0
H794 H 0.40189 0.6649 0.46953 0.0
H795 H 0.38212 0.68802 0.49072 0.0
H796 H 0.44798 0.65977 0.54246 0.0
H797 H 0.43151 0.67206 0.34737 0.0
H798 H 0.42495 0.68609 0.39656 0.0
H799 H 0.41337 0.66663 0.38483 0.0
C800 C 0.41903 0.706 0.53248 0.0
C801 C 0.40155 0.7046 0.52128 0.0
C802 C 0.43043 0.69292 0.51916 0.0
C803 C 0.4245 0.6783 0.49431 0.0
C804 C 0.40683 0.67623 0.48746 0.0
H805 H 0.48419 0.58745 0.43103 0.0
H806 H 0.4615 0.60751 0.45343 0.0
C807 C 0.39549 0.68933 0.50037 0.0
C808 C 0.43679 0.66585 0.47241 0.0
H809 H 0.44932 0.64804 0.36309 0.0
C810 C 0.44826 0.65721 0.50327 0.0
C811 C 0.43746 0.66278 0.42101 0.0
C812 C 0.4263 0.67249 0.38539 0.0
C813 C 0.46006 0.64529 0.48441 0.0
C814 C 0.46019 0.64164 0.43331 0.0
C815 C 0.44903 0.65061 0.40227 0.0
C816 C 0.47199 0.62866 0.41179 0.0
C817 C 0.4725 0.63694 0.51938 0.0
C818 C 0.48465 0.63343 0.37757 0.0
C819 C 0.49747 0.62179 0.36367 0.0
C820 C 0.49777 0.60524 0.38391 0.0
C821 C 0.48422 0.60009 0.41464 0.0
C822 C 0.47138 0.61163 0.42807 0.0
H823 H 0.4739 0.6444 0.55391 0.0
H824 H 0.46773 0.62401 0.52927 0.0
H825 H 0.48532 0.63552 0.50217 0.0
H826 H 0.48528 0.64647 0.36413 0.0
H827 H 0.50792 0.62619 0.34071 0.0
H828 H 0.65875 0.22142 0.59917 0.0
H829 H 0.63963 0.19828 0.6251 0.0
H830 H 0.6831 0.16507 0.6451 0.0
H831 H 0.70223 0.18833 0.61983 0.0
H832 H 0.63231 0.1638 0.60405 0.0
H833 H 0.66435 0.17107 0.78512 0.0
H834 H 0.66769 0.18589 0.73509 0.0
H835 H 0.67837 0.16552 0.73524 0.0
C836 C 0.66412 0.20888 0.60624 0.0
C837 C 0.68195 0.20658 0.60676 0.0
C838 C 0.65321 0.19573 0.6219 0.0
C839 C 0.65997 0.18011 0.63851 0.0
C840 C 0.67762 0.17714 0.6335 0.0
H841 H 0.60499 0.09198 0.7505 0.0
H842 H 0.6278 0.11125 0.72297 0.0
C843 C 0.68853 0.19032 0.61802 0.0
C844 C 0.64888 0.16789 0.66602 0.0
H845 H 0.64265 0.15005 0.77985 0.0
C846 C 0.63463 0.16074 0.64237 0.0
C847 C 0.65172 0.16413 0.71644 0.0
C848 C 0.66626 0.17215 0.74474 0.0
C849 C 0.62333 0.14978 0.66753 0.0
C850 C 0.62631 0.14588 0.71759 0.0
C851 C 0.64048 0.15303 0.74141 0.0
C852 C 0.61467 0.13432 0.74515 0.0
C853 C 0.60813 0.14244 0.64069 0.0
C854 C 0.60022 0.14089 0.7694 0.0
C855 C 0.58726 0.12985 0.78584 0.0
C856 C 0.58861 0.11212 0.77814 0.0
C857 C 0.60381 0.10554 0.75794 0.0
C858 C 0.61676 0.11655 0.74167 0.0
H859 H 0.60734 0.14703 0.60208 0.0
H860 H 0.60896 0.12826 0.64051 0.0
H861 H 0.59615 0.14597 0.66017 0.0
H862 H 0.59836 0.15459 0.77219 0.0
H863 H 0.57546 0.13528 0.79978 0.0
H864 H 0.03055 0.37 0.97063 0.0
H865 H 0.00934 0.34784 0.98502 0.0
H866 H 0.98208 0.36346 0.85485 0.0
H867 H 1.0033 0.38616 0.84037 0.0
H868 H 0.96085 0.35929 0.93694 0.0
H869 H 1.00265 0.30263 0.9144 0.0
H870 H 0.011 0.31785 0.9575 0.0
H871 H 0.00886 0.3237 0.89379 0.0
C872 C 0.02019 0.3687 0.9445 0.0
C873 C 0.01873 0.37993 0.90412 0.0
C874 C 0.00808 0.35589 0.95278 0.0
C875 C 0.99421 0.3538 0.92077 0.0
C876 C 0.99274 0.36478 0.87995 0.0
H877 H 0.92528 0.26758 0.91954 0.0
H878 H 0.94721 0.28893 0.90418 0.0
C879 C 0.00494 0.37768 0.87151 0.0
C880 C 0.98099 0.3406 0.93157 0.0
H881 H 0.97568 0.29784 0.95324 0.0
C882 C 0.96405 0.34583 0.94018 0.0
C883 C 0.98514 0.32302 0.93562 0.0
C884 C 1.00286 0.31642 0.92437 0.0
C885 C 0.95124 0.33401 0.95338 0.0
C886 C 0.95553 0.31651 0.95905 0.0
C887 C 0.97242 0.31127 0.94974 0.0
C888 C 0.94249 0.3032 0.97089 0.0
C889 C 0.93315 0.34033 0.96006 0.0
C890 C 0.93271 0.30377 0.01439 0.0
C891 C 0.91996 0.29147 0.02345 0.0
C892 C 0.91682 0.27834 0.98921 0.0
C893 C 0.92716 0.27751 0.94676 0.0
C894 C 0.93979 0.28975 0.93779 0.0
H895 H 0.93123 0.35313 0.94312 0.0
H896 H 0.92383 0.33126 0.94367 0.0
H897 H 0.9303 0.34141 0.99992 0.0
H898 H 0.93482 0.31382 0.04109 0.0
H899 H 0.91228 0.29252 0.05649 0.0
H900 H 0.49501 0.11719 0.79359 0.0
H901 H 0.47375 0.13942 0.7752 0.0
H902 H 0.51114 0.16641 0.68775 0.0
H903 H 0.53205 0.1439 0.70413 0.0
H904 H 0.47031 0.1725 0.78862 0.0
H905 H 0.47421 0.16124 0.58837 0.0
H906 H 0.48458 0.14744 0.63231 0.0
H907 H 0.49463 0.1671 0.61299 0.0
C908 C 0.49873 0.12802 0.77112 0.0
C909 C 0.51513 0.12877 0.75002 0.0
C910 C 0.48655 0.14067 0.76033 0.0
C911 C 0.49063 0.15435 0.72866 0.0
C912 C 0.50743 0.15569 0.71064 0.0
H913 H 0.42966 0.24701 0.70128 0.0
H914 H 0.4516 0.22565 0.71917 0.0
C915 C 0.51945 0.14292 0.72057 0.0
C916 C 0.47734 0.16703 0.7137 0.0
H917 H 0.45961 0.18663 0.61347 0.0
C918 C 0.46792 0.17551 0.7503 0.0
C919 C 0.47382 0.17071 0.66363 0.0
C920 C 0.48221 0.161 0.62211 0.0
C921 C 0.45547 0.18782 0.73837 0.0
C922 C 0.45278 0.19232 0.68841 0.0
C923 C 0.46187 0.1835 0.65178 0.0
C924 C 0.44044 0.20593 0.67343 0.0
C925 C 0.44506 0.19555 0.77957 0.0
C926 C 0.42752 0.20249 0.63884 0.0
C927 C 0.41523 0.21493 0.62729 0.0
C928 C 0.41556 0.231 0.65046 0.0
C929 C 0.42899 0.2347 0.68312 0.0
C930 C 0.44142 0.2224 0.6939 0.0
H931 H 0.44463 0.18695 0.81212 0.0
H932 H 0.45107 0.20774 0.79129 0.0
H933 H 0.43174 0.19822 0.76777 0.0
H934 H 0.42656 0.18996 0.62207 0.0
H935 H 0.40496 0.21165 0.60232 0.0
H936 H 0.5604 0.63253 0.47595 0.0
H937 H 0.58086 0.65551 0.48918 0.0
H938 H 0.60447 0.64466 0.3493 0.0
H939 H 0.58406 0.62124 0.33585 0.0
H940 H 0.62795 0.64733 0.42643 0.0
H941 H 0.58383 0.70282 0.42718 0.0
H942 H 0.57747 0.6861 0.46864 0.0
H943 H 0.57772 0.68213 0.40349 0.0
C944 C 0.56976 0.63511 0.44747 0.0
C945 C 0.5705 0.62497 0.40467 0.0
C946 C 0.58144 0.64836 0.45512 0.0
C947 C 0.59412 0.65196 0.42008 0.0
C948 C 0.59474 0.64215 0.37678 0.0
H949 H 0.66094 0.73967 0.41238 0.0
H950 H 0.63885 0.71818 0.4006 0.0
C951 C 0.58298 0.62884 0.36898 0.0
C952 C 0.60718 0.66537 0.43017 0.0
H953 H 0.61194 0.70777 0.45768 0.0
C954 C 0.62447 0.66057 0.43302 0.0
C955 C 0.60265 0.68266 0.43864 0.0
C956 C 0.58443 0.6888 0.4339 0.0
C957 C 0.63731 0.67253 0.44459 0.0
C958 C 0.63271 0.68972 0.45439 0.0
C959 C 0.61544 0.69455 0.45098 0.0
C960 C 0.64574 0.70319 0.46441 0.0
C961 C 0.65572 0.66674 0.44507 0.0
C962 C 0.65678 0.70224 0.50516 0.0
C963 C 0.66958 0.71463 0.51217 0.0
C964 C 0.67154 0.72819 0.47852 0.0
C965 C 0.65997 0.72938 0.43896 0.0
C966 C 0.64726 0.71708 0.43209 0.0
H967 H 0.65742 0.65425 0.42619 0.0
H968 H 0.66411 0.67636 0.42702 0.0
H969 H 0.66 0.66524 0.48371 0.0
H970 H 0.65563 0.69181 0.5312 0.0
H971 H 0.67823 0.71329 0.54301 0.0
H972 H 0.15045 0.76534 0.17135 0.0
H973 H 0.12859 0.78726 0.18315 0.0
H974 H 0.16144 0.82451 0.11351 0.0
H975 H 0.18311 0.80228 0.09975 0.0
H976 H 0.13102 0.81416 0.23895 0.0
H977 H 0.1171 0.83641 0.04977 0.0
H978 H 0.12923 0.81724 0.06186 0.0
H979 H 0.13937 0.8379 0.06496 0.0
C980 C 0.15281 0.77811 0.15733 0.0
C981 C 0.16841 0.78208 0.13422 0.0
C982 C 0.14035 0.79067 0.16439 0.0
C983 C 0.14325 0.8076 0.14913 0.0
C984 C 0.15866 0.8115 0.12464 0.0
H985 H 0.08752 0.89429 0.27817 0.0
H986 H 0.10837 0.87162 0.26128 0.0
C987 C 0.17106 0.7988 0.11673 0.0
C988 C 0.13063 0.82119 0.1623 0.0
H989 H 0.10603 0.85336 0.11509 0.0
C990 C 0.1255 0.82267 0.21174 0.0
C991 C 0.12328 0.83225 0.12693 0.0
C992 C 0.12739 0.83079 0.07287 0.0
C993 C 0.11323 0.83475 0.22672 0.0
C994 C 0.10625 0.84615 0.19161 0.0
C995 C 0.11142 0.84472 0.14219 0.0
C996 C 0.09322 0.85934 0.20474 0.0
C997 C 0.10755 0.83478 0.27978 0.0
C998 C 0.07778 0.86016 0.17855 0.0
C999 C 0.06601 0.87324 0.18762 0.0
C1000 C 0.0693 0.88578 0.22347 0.0
C1001 C 0.08446 0.88464 0.25101 0.0
C1002 C 0.0964 0.87166 0.24133 0.0
H1003 H 0.11002 0.82225 0.29777 0.0
H1004 H 0.11484 0.84467 0.30016 0.0
H1005 H 0.0937 0.83773 0.2831 0.0
H1006 H 0.07495 0.85083 0.15026 0.0
H1007 H 0.05446 0.87378 0.16568 0.0
H1008 H 0.03435 0.64237 0.19262 0.0
H1009 H 0.0137 0.66502 0.17565 0.0
H1010 H 0.97631 0.6391 0.26583 0.0
H1011 H 0.9973 0.61669 0.28457 0.0
H1012 H 0.98507 0.66256 0.12753 0.0
H1013 H 0.96993 0.6868 0.31388 0.0
H1014 H 0.98763 0.67256 0.30238 0.0
H1015 H 0.96623 0.66425 0.30803 0.0
C1016 C 0.02185 0.6417 0.20978 0.0
C1017 C 0.01749 0.62782 0.24027 0.0
C1018 C 0.01 0.65462 0.19981 0.0
C1019 C 0.99341 0.65392 0.21958 0.0
C1020 C 0.98912 0.64023 0.251 0.0
H1021 H 0.90745 0.71086 0.09081 0.0
H1022 H 0.9291 0.68911 0.1093 0.0
C1023 C 1.00113 0.6274 0.26173 0.0
C1024 C 0.98048 0.66698 0.20465 0.0
H1025 H 0.95188 0.69622 0.249 0.0
C1026 C 0.97789 0.66999 0.15417 0.0
C1027 C 0.97115 0.67681 0.23921 0.0
C1028 C 0.97398 0.67508 0.29387 0.0
C1029 C 0.96636 0.6825 0.13735 0.0
C1030 C 0.95666 0.69198 0.17189 0.0
C1031 C 0.95921 0.68893 0.22236 0.0
C1032 C 0.94414 0.70544 0.15696 0.0
C1033 C 0.96513 0.68576 0.08277 0.0
C1034 C 0.94523 0.72188 0.17754 0.0
C1035 C 0.93273 0.73418 0.16766 0.0
C1036 C 0.91889 0.73043 0.13648 0.0
C1037 C 0.91814 0.71423 0.11416 0.0
C1038 C 0.93054 0.70178 0.12477 0.0
H1039 H 0.97685 0.68146 0.06316 0.0
H1040 H 0.95416 0.67847 0.06766 0.0
H1041 H 0.96312 0.69955 0.0748 0.0
H1042 H 0.95558 0.72509 0.20232 0.0
H1043 H 0.93364 0.74652 0.18555 0.0
H1044 H 0.09053 0.11587 0.84592 0.0
H1045 H 0.11183 0.13807 0.86344 0.0
H1046 H 0.07566 0.16364 0.95821 0.0
H1047 H 0.05474 0.14103 0.94281 0.0
H1048 H 0.11506 0.17081 0.85205 0.0
H1049 H 0.114 0.15847 0.05213 0.0
H1050 H 0.10292 0.14496 0.009 0.0
H1051 H 0.09328 0.16457 0.03026 0.0
C1052 C 0.08706 0.12639 0.86985 0.0
C1053 C 0.07101 0.12668 0.89319 0.0
C1054 C 0.09928 0.13903 0.88014 0.0
C1055 C 0.09561 0.15229 0.91352 0.0
C1056 C 0.07911 0.15322 0.93394 0.0
H1057 H 0.15879 0.24393 0.93626 0.0
H1058 H 0.13606 0.2232 0.92032 0.0
C1059 C 0.06705 0.14041 0.92456 0.0
C1060 C 0.10906 0.16496 0.92751 0.0
H1061 H 0.12848 0.18382 0.02625 0.0
C1062 C 0.11803 0.17357 0.89017 0.0
C1063 C 0.11335 0.16833 0.97726 0.0
C1064 C 0.10552 0.15845 0.01939 0.0
C1065 C 0.13084 0.18563 0.90103 0.0
C1066 C 0.13434 0.18981 0.95079 0.0
C1067 C 0.12563 0.18093 0.98813 0.0
C1068 C 0.14719 0.20308 0.96479 0.0
C1069 C 0.1408 0.19335 0.85887 0.0
C1070 C 0.1604 0.19925 0.99815 0.0
C1071 C 0.17313 0.21136 0.00873 0.0
C1072 C 0.17297 0.22746 0.9857 0.0
C1073 C 0.15932 0.23156 0.95422 0.0
C1074 C 0.14644 0.21962 0.94455 0.0
H1075 H 0.14065 0.18487 0.82609 0.0
H1076 H 0.13483 0.20567 0.8481 0.0
H1077 H 0.15433 0.19577 0.86917 0.0
H1078 H 0.16123 0.18666 0.01472 0.0
H1079 H 0.18356 0.20779 0.03281 0.0
H1080 H 0.67645 0.29508 0.58524 0.0
H1081 H 0.65426 0.31708 0.59598 0.0
H1082 H 0.63526 0.29048 0.72387 0.0
H1083 H 0.65689 0.2685 0.71307 0.0
H1084 H 0.60936 0.30172 0.66544 0.0
H1085 H 0.65562 0.35415 0.70225 0.0
H1086 H 0.65848 0.34338 0.64448 0.0
H1087 H 0.66187 0.33193 0.70094 0.0
C1088 C 0.6674 0.29382 0.61522 0.0
C1089 C 0.66859 0.28005 0.64843 0.0
C1090 C 0.65484 0.3065 0.62165 0.0
C1091 C 0.64329 0.30562 0.66137 0.0
C1092 C 0.64406 0.29154 0.69318 0.0
H1093 H 0.5823 0.38765 0.7921 0.0
H1094 H 0.60252 0.36414 0.77743 0.0
C1095 C 0.65653 0.27895 0.68689 0.0
C1096 C 0.63046 0.31932 0.67091 0.0
H1097 H 0.6263 0.36159 0.70118 0.0
C1098 C 0.61307 0.31482 0.67307 0.0
C1099 C 0.63531 0.33636 0.68193 0.0
C1100 C 0.65383 0.34179 0.68278 0.0
C1101 C 0.60042 0.32685 0.68555 0.0
C1102 C 0.60522 0.34398 0.69536 0.0
C1103 C 0.62262 0.34848 0.69358 0.0
C1104 C 0.59234 0.35753 0.70597 0.0
C1105 C 0.58206 0.321 0.68914 0.0
C1106 C 0.57984 0.36156 0.67094 0.0
C1107 C 0.56825 0.37484 0.67931 0.0
C1108 C 0.56893 0.38461 0.72283 0.0
C1109 C 0.58127 0.38034 0.75842 0.0
C1110 C 0.59292 0.36698 0.74993 0.0
H1111 H 0.58117 0.30695 0.69502 0.0
H1112 H 0.57527 0.32757 0.71963 0.0
H1113 H 0.57539 0.32406 0.65425 0.0
H1114 H 0.57931 0.3547 0.63638 0.0
H1115 H 0.55902 0.37773 0.65084 0.0
H1116 H 0.41243 0.7922 0.55565 0.0
H1117 H 0.43484 0.81367 0.54095 0.0
H1118 H 0.4472 0.78956 0.40288 0.0
H1119 H 0.42535 0.76803 0.4175 0.0
H1120 H 0.47573 0.79842 0.45266 0.0
H1121 H 0.43083 0.85338 0.44411 0.0
H1122 H 0.42988 0.84138 0.50042 0.0
H1123 H 0.42363 0.83144 0.44366 0.0
C1124 C 0.42007 0.79135 0.52249 0.0
C1125 C 0.41694 0.7784 0.48771 0.0
C1126 C 0.43275 0.80375 0.51385 0.0
C1127 C 0.44247 0.80345 0.47025 0.0
C1128 C 0.43981 0.79016 0.43658 0.0
H1129 H 0.5031 0.88776 0.34587 0.0
H1130 H 0.48205 0.86472 0.35794 0.0
C1131 C 0.42723 0.77783 0.44512 0.0
C1132 C 0.45542 0.8169 0.45895 0.0
H1133 H 0.46043 0.85984 0.43908 0.0
C1134 C 0.47237 0.81185 0.44972 0.0
C1135 C 0.45098 0.83439 0.45398 0.0
C1136 C 0.43282 0.84052 0.46058 0.0
C1137 C 0.48502 0.82378 0.43654 0.0
C1138 C 0.48073 0.84135 0.43332 0.0
C1139 C 0.46373 0.84639 0.44169 0.0
C1140 C 0.49389 0.85473 0.42388 0.0
C1141 C 0.50284 0.81741 0.42551 0.0
C1142 C 0.50753 0.85674 0.45672 0.0
C1143 C 0.51954 0.86974 0.44984 0.0
C1144 C 0.51818 0.88124 0.41006 0.0
C1145 C 0.50464 0.87907 0.3766 0.0
C1146 C 0.49254 0.86598 0.38364 0.0
H1147 H 0.50279 0.80369 0.41477 0.0
H1148 H 0.50889 0.82495 0.39553 0.0
H1149 H 0.51085 0.81869 0.45897 0.0
H1150 H 0.50869 0.84847 0.48853 0.0
H1151 H 0.52972 0.87096 0.47656 0.0
H1152 H 0.04731 0.54312 0.18749 0.0
H1153 H 0.03556 0.52207 0.13033 0.0
H1154 H 0.98482 0.54199 0.15505 0.0
H1155 H 0.99679 0.56372 0.21118 0.0
H1156 H 0.00485 0.49858 0.16748 0.0
H1157 H 0.98654 0.53479 1.00616 0.0
H1158 H 0.00885 0.53891 0.01164 0.0
H1159 H 0.99433 0.54575 0.05988 0.0
C1160 C 0.03375 0.54338 0.17941 0.0
C1161 C 0.02302 0.55538 0.20197 0.0
C1162 C 0.02702 0.53129 0.1472 0.0
C1163 C 0.00937 0.53069 0.13801 0.0
C1164 C 0.99851 0.5425 0.16108 0.0
H1165 H 0.99861 0.44243 0.93591 0.0
H1166 H 0.98624 0.46285 0.99525 0.0
C1167 C 0.00532 0.55479 0.19306 0.0
C1168 C 1.00273 0.51652 0.10766 0.0
H1169 H 1.00048 0.50547 0.98676 0.0
C1170 C 1.00317 0.50006 0.1281 0.0
C1171 C 0.99989 0.51841 0.05667 0.0
C1172 C 0.99724 0.53555 0.03289 0.0
C1173 C 1.00317 0.48554 0.098 0.0
C1174 C 1.00354 0.48764 0.04651 0.0
C1175 C 1.00075 0.50391 0.0264 0.0
C1176 C 0.01057 0.47424 0.01404 0.0
C1177 C 0.00433 0.46825 0.12171 0.0
C1178 C 0.02825 0.47404 1.00511 0.0
C1179 C 0.03523 0.46265 0.9711 0.0
C1180 C 0.02471 0.45096 0.94648 0.0
C1181 C 0.00699 0.45111 0.95546 0.0
C1182 C 0.99994 0.46269 0.98921 0.0
H1183 H 0.99669 0.46788 0.15619 0.0
H1184 H 0.99978 0.45797 0.09684 0.0
H1185 H 0.01783 0.46593 0.13178 0.0
H1186 H 0.0366 0.48307 0.02347 0.0
H1187 H 0.04879 0.46329 0.96307 0.0
H1188 H 0.83459 0.75919 0.19377 0.0
H1189 H 0.81393 0.74676 0.25117 0.0
H1190 H 0.83446 0.69648 0.22329 0.0
H1191 H 0.85579 0.70913 0.16688 0.0
H1192 H 0.79094 0.71512 0.21243 0.0
H1193 H 0.82751 0.69852 0.37484 0.0
H1194 H 0.83117 0.72085 0.36702 0.0
H1195 H 0.83821 0.70595 0.32008 0.0
C1196 C 0.83508 0.74558 0.20122 0.0
C1197 C 0.84713 0.73518 0.17763 0.0
C1198 C 0.82321 0.73847 0.23357 0.0
C1199 C 0.82287 0.72075 0.24189 0.0
C1200 C 0.83475 0.71021 0.2179 0.0
H1201 H 0.73484 0.70827 0.44471 0.0
H1202 H 0.7556 0.69608 0.38596 0.0
C1203 C 0.84683 0.71741 0.18577 0.0
C1204 C 0.80888 0.71369 0.27229 0.0
H1205 H 0.79779 0.71139 0.39326 0.0
C1206 C 0.79244 0.71357 0.25184 0.0
C1207 C 0.8108 0.71101 0.32334 0.0
C1208 C 0.828 0.70894 0.34706 0.0
C1209 C 0.7779 0.71317 0.28197 0.0
C1210 C 0.77993 0.71375 0.33345 0.0
C1211 C 0.79626 0.7115 0.35362 0.0
C1212 C 0.76633 0.72059 0.36563 0.0
C1213 C 0.7606 0.71369 0.25826 0.0
C1214 C 0.76565 0.73831 0.37353 0.0
C1215 C 0.75409 0.74519 0.40721 0.0
C1216 C 0.74267 0.73453 0.43253 0.0
C1217 C 0.7433 0.71676 0.4246 0.0
C1218 C 0.75507 0.7098 0.39119 0.0
H1219 H 0.76049 0.70587 0.22417 0.0
H1220 H 0.75044 0.70895 0.28337 0.0
H1221 H 0.75786 0.72706 0.24753 0.0
H1222 H 0.77446 0.74679 0.35462 0.0
H1223 H 0.75437 0.75882 0.41444 0.0
H1224 H 0.59532 0.56477 0.42588 0.0
H1225 H 0.60966 0.54426 0.48139 0.0
H1226 H 0.56308 0.51474 0.48981 0.0
H1227 H 0.54883 0.53521 0.43553 0.0
H1228 H 0.59688 0.53549 0.58102 0.0
H1229 H 0.60161 0.4786 0.46166 0.0
H1230 H 0.60336 0.50032 0.43882 0.0
H1231 H 0.58271 0.4911 0.4504 0.0
C1232 C 0.5883 0.55381 0.43961 0.0
C1233 C 0.57095 0.55164 0.4278 0.0
C1234 C 0.59647 0.54213 0.47092 0.0
C1235 C 0.58749 0.52788 0.48889 0.0
C1236 C 0.57032 0.5255 0.47553 0.0
H1237 H 0.54823 0.47461 0.69432 0.0
H1238 H 0.56286 0.49482 0.63989 0.0
C1239 C 0.56213 0.53725 0.44511 0.0
C1240 C 0.59502 0.5161 0.5254 0.0
H1241 H 0.59615 0.47335 0.54792 0.0
C1242 C 0.59684 0.52193 0.5738 0.0
C1243 C 0.5963 0.49843 0.51561 0.0
C1244 C 0.5961 0.49169 0.46373 0.0
C1245 C 0.59644 0.51041 0.61333 0.0
C1246 C 0.59473 0.49277 0.60355 0.0
C1247 C 0.59642 0.48691 0.55513 0.0
C1248 C 0.58697 0.48115 0.64017 0.0
C1249 C 0.59644 0.51714 0.66523 0.0
C1250 C 0.59564 0.46667 0.65777 0.0
C1251 C 0.58725 0.45514 0.68912 0.0
C1252 C 0.56997 0.45768 0.70135 0.0
C1253 C 0.56146 0.47228 0.68439 0.0
C1254 C 0.56987 0.48389 0.65391 0.0
H1255 H 0.60212 0.53016 0.66721 0.0
H1256 H 0.58308 0.51788 0.67895 0.0
H1257 H 0.60363 0.50839 0.68989 0.0
H1258 H 0.60876 0.46426 0.647 0.0
H1259 H 0.59405 0.44402 0.70261 0.0
H1260 H 0.83173 0.24798 0.94537 0.0
H1261 H 0.81 0.25918 0.88955 0.0
H1262 H 0.82947 0.3103 0.91046 0.0
H1263 H 0.85196 0.29885 0.96498 0.0
H1264 H 0.78609 0.28736 0.9249 0.0
H1265 H 0.8259 0.28889 0.76683 0.0
H1266 H 0.83279 0.30191 0.81828 0.0
H1267 H 0.82128 0.31119 0.76761 0.0
C1268 C 0.83173 0.26151 0.93671 0.0
C1269 C 0.84387 0.27248 0.95758 0.0
C1270 C 0.81925 0.26793 0.90526 0.0
C1271 C 0.81835 0.28552 0.89521 0.0
C1272 C 0.83022 0.29665 0.91694 0.0
H1273 H 0.73237 0.29798 0.68642 0.0
H1274 H 0.75256 0.30952 0.74755 0.0
C1275 C 0.84295 0.29014 0.94808 0.0
C1276 C 0.80382 0.29182 0.86556 0.0
H1277 H 0.7924 0.29653 0.7454 0.0
C1278 C 0.78744 0.29002 0.88591 0.0
C1279 C 0.80549 0.29587 0.81509 0.0
C1280 C 0.82244 0.29967 0.79132 0.0
C1281 C 0.7729 0.28996 0.85596 0.0
C1282 C 0.77488 0.29111 0.80456 0.0
C1283 C 0.79095 0.29516 0.78489 0.0
C1284 C 0.76154 0.28466 0.77094 0.0
C1285 C 0.75571 0.28718 0.87913 0.0
C1286 C 0.7601 0.26694 0.76389 0.0
C1287 C 0.74892 0.26041 0.72865 0.0
C1288 C 0.73858 0.27145 0.70104 0.0
C1289 C 0.73995 0.28922 0.70824 0.0
C1290 C 0.7514 0.2958 0.74302 0.0
H1291 H 0.75541 0.29185 0.91769 0.0
H1292 H 0.74555 0.29374 0.85778 0.0
H1293 H 0.75313 0.27327 0.87961 0.0
H1294 H 0.76808 0.25817 0.78452 0.0
H1295 H 0.74872 0.24675 0.72199 0.0
H1296 H 0.23589 0.20566 0.96031 0.0
H1297 H 0.25745 0.19335 0.90401 0.0
H1298 H 0.28274 0.24237 0.89637 0.0
H1299 H 0.26124 0.2546 0.95145 0.0
H1300 H 0.26514 0.20759 0.80411 0.0
H1301 H 0.32162 0.20626 0.92557 0.0
H1302 H 0.29991 0.20449 0.94837 0.0
H1303 H 0.30882 0.22512 0.93405 0.0
C1304 C 0.24615 0.21367 0.94655 0.0
C1305 C 0.24683 0.2311 0.95886 0.0
C1306 C 0.25842 0.20666 0.91476 0.0
C1307 C 0.27177 0.21692 0.89676 0.0
C1308 C 0.27268 0.23419 0.91057 0.0
H1309 H 0.32747 0.25676 0.68944 0.0
H1310 H 0.30722 0.24342 0.74662 0.0
C1311 C 0.26034 0.24121 0.94149 0.0
C1312 C 0.2842 0.21048 0.86031 0.0
H1313 H 0.32705 0.21161 0.83915 0.0
C1314 C 0.27867 0.20831 0.81174 0.0
C1315 C 0.30188 0.21038 0.87065 0.0
C1316 C 0.30845 0.2115 0.92262 0.0
C1317 C 0.29033 0.20913 0.77254 0.0
C1318 C 0.30785 0.21147 0.78281 0.0
C1319 C 0.31355 0.21058 0.83151 0.0
C1320 C 0.31957 0.21862 0.7455 0.0
C1321 C 0.28378 0.20891 0.72047 0.0
C1322 C 0.33323 0.20907 0.72637 0.0
C1323 C 0.34474 0.21669 0.69341 0.0
C1324 C 0.34301 0.23406 0.68097 0.0
C1325 C 0.32921 0.24346 0.69956 0.0
C1326 C 0.31759 0.23581 0.73169 0.0
H1327 H 0.27088 0.20299 0.71816 0.0
H1328 H 0.28287 0.22225 0.70667 0.0
H1329 H 0.29274 0.20183 0.69611 0.0
H1330 H 0.33499 0.19584 0.73704 0.0
H1331 H 0.35521 0.20921 0.67865 0.0
H1332 H 0.33182 0.74759 0.44566 0.0
H1333 H 0.30978 0.75849 0.39052 0.0
H1334 H 0.3282 0.80996 0.41256 0.0
H1335 H 0.35115 0.79877 0.46597 0.0
H1336 H 0.28529 0.7842 0.42533 0.0
H1337 H 0.31947 0.81368 0.27447 0.0
H1338 H 0.32482 0.79168 0.26747 0.0
H1339 H 0.33148 0.80315 0.322 0.0
C1340 C 0.33155 0.76114 0.43732 0.0
C1341 C 0.34356 0.77227 0.45803 0.0
C1342 C 0.31888 0.7674 0.40625 0.0
C1343 C 0.3176 0.785 0.39657 0.0
C1344 C 0.32928 0.7963 0.4185 0.0
H1345 H 0.23394 0.79909 0.18149 0.0
H1346 H 0.25398 0.80975 0.2443 0.0
C1347 C 0.34224 0.78994 0.44909 0.0
C1348 C 0.30282 0.79105 0.36743 0.0
H1349 H 0.29119 0.79833 0.24837 0.0
C1350 C 0.28653 0.78787 0.38699 0.0
C1351 C 0.30432 0.79639 0.31785 0.0
C1352 C 0.32108 0.80148 0.2949 0.0
C1353 C 0.27206 0.7877 0.35685 0.0
C1354 C 0.27396 0.79041 0.30588 0.0
C1355 C 0.28982 0.79581 0.28742 0.0
C1356 C 0.26076 0.78456 0.27079 0.0
C1357 C 0.2551 0.78313 0.37907 0.0
C1358 C 0.25814 0.76692 0.26475 0.0
C1359 C 0.24706 0.76087 0.22856 0.0
C1360 C 0.23796 0.77233 0.19884 0.0
C1361 C 0.24053 0.79002 0.20491 0.0
C1362 C 0.25191 0.79611 0.24064 0.0
H1363 H 0.25449 0.78663 0.41863 0.0
H1364 H 0.24457 0.78963 0.3592 0.0
H1365 H 0.25349 0.76912 0.37608 0.0
H1366 H 0.26517 0.75779 0.28691 0.0
H1367 H 0.24603 0.7472 0.22277 0.0
H1368 H 0.54726 0.964 0.47636 0.0
H1369 H 0.5345 0.98325 0.53724 0.0
H1370 H 0.4844 0.96353 0.50308 0.0
H1371 H 0.49733 0.94357 0.44344 0.0
H1372 H 0.49642 0.00533 0.49855 0.0
H1373 H 0.49764 0.96777 0.66914 0.0
H1374 H 0.51789 0.96648 0.63859 0.0
H1375 H 0.49897 0.95802 0.60898 0.0
C1376 C 0.53362 0.96332 0.48324 0.0
C1377 C 0.52334 0.95188 0.45687 0.0
C1378 C 0.52632 0.97442 0.5175 0.0
C1379 C 0.50855 0.97463 0.52485 0.0
C1380 C 0.49816 0.96336 0.49823 0.0
H1381 H 0.49357 0.06401 0.72187 0.0
H1382 H 0.48153 0.04189 0.66707 0.0
C1383 C 0.50553 0.95204 0.46434 0.0
C1384 C 0.50121 0.98771 0.55788 0.0
H1385 H 0.50332 0.99869 0.67869 0.0
C1386 C 0.49728 1.0038 0.53813 0.0
C1387 C 0.50155 0.98561 0.60935 0.0
C1388 C 0.50403 0.9684 0.63267 0.0
C1389 C 0.49601 0.01825 0.56857 0.0
C1390 C 0.49956 0.01651 0.61926 0.0
C1391 C 0.50108 1.00009 0.63952 0.0
C1392 C 0.50613 0.03091 0.64887 0.0
C1393 C 0.49204 0.03521 0.54519 0.0
C1394 C 0.52382 0.03179 0.65713 0.0
C1395 C 0.53057 0.04405 0.68868 0.0
C1396 C 0.51984 0.056 0.71143 0.0
C1397 C 0.50209 0.05514 0.70355 0.0
C1398 C 0.49524 0.04262 0.67229 0.0
H1399 H 0.50273 0.03889 0.52064 0.0
H1400 H 0.48053 0.03394 0.52158 0.0
H1401 H 0.48965 0.04545 0.57247 0.0
H1402 H 0.53239 0.02265 0.64004 0.0
H1403 H 0.54419 0.044 0.69603 0.0
H1404 H 0.09469 0.066 0.9198 0.0
H1405 H 0.10864 0.04571 0.9768 0.0
H1406 H 0.0612 0.01783 0.98997 0.0
H1407 H 0.04732 0.03811 0.93428 0.0
H1408 H 0.09449 0.03775 0.07969 0.0
H1409 H 0.10024 0.98105 0.95942 0.0
H1410 H 0.10231 1.00282 0.93714 0.0
H1411 H 0.08151 0.9938 0.94781 0.0
C1412 C 0.08737 0.05546 0.93497 0.0
C1413 C 0.06991 0.05371 0.92401 0.0
C1414 C 0.09532 0.04392 0.96716 0.0
C1415 C 0.08597 0.0302 0.98691 0.0
C1416 C 0.06867 0.02822 0.97449 0.0
H1417 H 0.04672 0.97516 0.18994 0.0
H1418 H 0.0609 0.99576 0.13574 0.0
C1419 C 0.06072 0.03985 0.94319 0.0
C1420 C 0.09337 0.01845 0.02366 0.0
H1421 H 0.09498 0.97565 0.04544 0.0
C1422 C 0.09477 0.02419 0.07224 0.0
C1423 C 0.09491 1.00082 0.01361 0.0
C1424 C 0.09486 0.99419 0.9616 0.0
C1425 C 0.09434 0.01258 0.11154 0.0
C1426 C 0.09307 0.99493 0.1014 0.0
C1427 C 0.09505 0.98921 0.05293 0.0
C1428 C 0.08551 0.98304 0.13766 0.0
C1429 C 0.09374 0.01923 0.16351 0.0
C1430 C 0.09464 0.969 0.15621 0.0
C1431 C 0.08651 0.95726 0.1875 0.0
C1432 C 0.06907 0.95914 0.19873 0.0
C1433 C 0.0601 0.97333 0.18081 0.0
C1434 C 0.06823 0.98515 0.15041 0.0
H1435 H 0.09936 0.03226 0.16613 0.0
H1436 H 0.08022 0.01993 0.17589 0.0
H1437 H 0.10067 0.01048 0.18878 0.0
H1438 H 0.10792 0.96709 0.14625 0.0
H1439 H 0.09366 0.94646 0.2017 0.0
H1440 H 0.0301 0.44262 0.68646 0.0
H1441 H 0.03079 0.46378 0.61999 0.0
H1442 H 0.07381 0.48866 0.68872 0.0
H1443 H 0.07256 0.46806 0.75637 0.0
H1444 H 0.05318 0.51194 0.66055 0.0
H1445 H 0.06004 0.46811 0.50255 0.0
H1446 H 0.04112 0.46341 0.53726 0.0
H1447 H 0.06186 0.46077 0.56515 0.0
C1448 C 0.03986 0.45245 0.68703 0.0
C1449 C 0.05135 0.45353 0.72669 0.0
C1450 C 0.04032 0.46456 0.64871 0.0
C1451 C 0.05257 0.4778 0.64831 0.0
C1452 C 0.06422 0.47866 0.68767 0.0
H1453 H 0.07231 0.54032 0.38641 0.0
H1454 H 0.0736 0.51981 0.45429 0.0
C1455 C 0.06355 0.46677 0.72638 0.0
C1456 C 0.05284 0.4912 0.60844 0.0
H1457 H 0.05259 0.49697 0.48357 0.0
C1458 C 0.05318 0.5086 0.62186 0.0
C1459 C 0.05311 0.48708 0.55762 0.0
C1460 C 0.0542 0.46883 0.53978 0.0
C1461 C 0.05359 0.52182 0.58648 0.0
C1462 C 0.05299 0.51771 0.53569 0.0
C1463 C 0.05285 0.50031 0.52226 0.0
C1464 C 0.05281 0.53111 0.49581 0.0
C1465 C 0.0552 0.54004 0.60425 0.0
C1466 C 0.04084 0.54459 0.49602 0.0
C1467 C 0.04037 0.55664 0.45756 0.0
C1468 C 0.05157 0.55528 0.41718 0.0
C1469 C 0.06354 0.54183 0.41698 0.0
C1470 C 0.06422 0.52999 0.45581 0.0
H1471 H 0.06125 0.54062 0.64116 0.0
H1472 H 0.06291 0.54793 0.57846 0.0
H1473 H 0.04226 0.54576 0.60747 0.0
H1474 H 0.03149 0.54559 0.52528 0.0
H1475 H 0.03078 0.56663 0.45856 0.0
H1476 H 0.86134 0.75003 0.91267 0.0
H1477 H 0.8408 0.75088 0.84447 0.0
H1478 H 0.8057 0.77964 0.9346 0.0
H1479 H 0.82617 0.77906 1.00235 0.0
H1480 H 0.80826 0.7378 0.84019 0.0
H1481 H 0.80566 0.80781 0.80958 0.0
H1482 H 0.82213 0.79782 0.84613 0.0
H1483 H 0.80133 0.80184 0.8721 0.0
C1484 C 0.84937 0.75678 0.91772 0.0
C1485 C 0.84553 0.76459 0.96305 0.0
C1486 C 0.83757 0.75718 0.87871 0.0
C1487 C 0.8217 0.76551 0.88388 0.0
C1488 C 0.81794 0.77345 0.92899 0.0
H1489 H 0.73059 0.74747 0.70096 0.0
H1490 H 0.75139 0.74879 0.7684 0.0
C1491 C 0.82969 0.77304 0.96793 0.0
C1492 C 0.80879 0.76532 0.84306 0.0
H1493 H 0.7841 0.7912 0.77029 0.0
C1494 C 0.80304 0.7495 0.82483 0.0
C1495 C 0.802 0.78053 0.8224 0.0
C1496 C 0.8082 0.79797 0.83816 0.0
C1497 C 0.7906 0.74847 0.78738 0.0
C1498 C 0.7834 0.76368 0.76786 0.0
C1499 C 0.78937 0.7795 0.78551 0.0
C1500 C 0.7702 0.76347 0.72782 0.0
C1501 C 0.78558 0.73106 0.76832 0.0
C1502 C 0.77342 0.77182 0.68294 0.0
C1503 C 0.76147 0.77121 0.64451 0.0
C1504 C 0.7459 0.76233 0.6499 0.0
C1505 C 0.74244 0.7544 0.69537 0.0
C1506 C 0.75443 0.75501 0.73389 0.0
H1507 H 0.7953 0.72119 0.77748 0.0
H1508 H 0.77329 0.72715 0.78548 0.0
H1509 H 0.78382 0.7313 0.72782 0.0
H1510 H 0.78539 0.77853 0.67719 0.0
H1511 H 0.76463 0.77749 0.61014 0.0
H1512 H 0.52109 0.53398 0.26335 0.0
H1513 H 0.52 0.51386 0.19484 0.0
H1514 H 0.54806 0.54945 0.10424 0.0
H1515 H 0.5494 0.56969 0.17327 0.0
H1516 H 0.50677 0.51555 0.10194 0.0
H1517 H 0.57707 0.50623 0.09288 0.0
H1518 H 0.56675 0.51703 0.14351 0.0
H1519 H 0.57034 0.52809 0.08642 0.0
C1520 C 0.52693 0.53766 0.22877 0.0
C1521 C 0.5354 0.5535 0.22405 0.0
C1522 C 0.5263 0.52607 0.18951 0.0
C1523 C 0.53423 0.52989 0.14443 0.0
C1524 C 0.54216 0.54598 0.1389 0.0
H1525 H 0.52019 0.47525 0.8682 0.0
H1526 H 0.51904 0.49511 0.93729 0.0
C1527 C 0.54276 0.55764 0.17828 0.0
C1528 C 0.53426 0.51691 0.10388 0.0
H1529 H 0.5606 0.49271 0.03098 0.0
C1530 C 0.51856 0.51059 0.08644 0.0
C1531 C 0.54961 0.51009 0.0841 0.0
C1532 C 0.56691 0.51555 0.1029 0.0
C1533 C 0.51777 0.49797 0.04947 0.0
C1534 C 0.53311 0.49154 0.02861 0.0
C1535 C 0.54882 0.49764 0.04662 0.0
C1536 C 0.53312 0.47885 0.9873 0.0
C1537 C 0.50047 0.49141 0.03373 0.0
C1538 C 0.54156 0.463 0.99178 0.0
C1539 C 0.54225 0.45151 0.95199 0.0
C1540 C 0.53468 0.4557 0.90663 0.0
C1541 C 0.52606 0.47148 0.90258 0.0
C1542 C 0.52533 0.48288 0.94227 0.0
H1543 H 0.49059 0.49371 0.06238 0.0
H1544 H 0.49645 0.49823 0.99986 0.0
H1545 H 0.50092 0.4775 0.0256 0.0
H1546 H 0.54776 0.45958 0.026 0.0
H1547 H 0.54914 0.43958 0.95633 0.0
H1548 H 0.82593 0.22882 0.13282 0.0
H1549 H 0.80545 0.22847 0.2007 0.0
H1550 H 0.8402 0.25826 0.28888 0.0
H1551 H 0.86074 0.25892 0.22041 0.0
H1552 H 0.80643 0.21647 0.29386 0.0
H1553 H 0.79701 0.28677 0.29805 0.0
H1554 H 0.80828 0.27617 0.24881 0.0
H1555 H 0.81884 0.28026 0.30632 0.0
C1556 C 0.82933 0.23523 0.16672 0.0
C1557 C 0.84504 0.24397 0.17086 0.0
C1558 C 0.81754 0.23502 0.20566 0.0
C1559 C 0.82101 0.24362 0.2499 0.0
C1560 C 0.83695 0.25186 0.25486 0.0
H1561 H 0.76255 0.23009 0.52291 0.0
H1562 H 0.78381 0.22904 0.45699 0.0
C1563 C 0.8488 0.25209 0.21577 0.0
C1564 C 0.80784 0.24394 0.29023 0.0
H1565 H 0.78334 0.27076 0.36087 0.0
C1566 C 0.80142 0.22836 0.3085 0.0
C1567 C 0.80096 0.25942 0.309 0.0
C1568 C 0.80648 0.27661 0.28929 0.0
C1569 C 0.78859 0.22781 0.34505 0.0
C1570 C 0.78207 0.24328 0.36485 0.0
C1571 C 0.78834 0.25887 0.34618 0.0
C1572 C 0.76879 0.24359 0.40488 0.0
C1573 C 0.78185 0.21061 0.36122 0.0
C1574 C 0.75323 0.25238 0.39843 0.0
C1575 C 0.741 0.25308 0.43641 0.0
C1576 C 0.74406 0.24509 0.48199 0.0
C1577 C 0.75962 0.23625 0.48825 0.0
C1578 C 0.77182 0.23557 0.45035 0.0
H1579 H 0.78431 0.20058 0.33314 0.0
H1580 H 0.7884 0.2067 0.39559 0.0
H1581 H 0.76788 0.21113 0.36856 0.0
H1582 H 0.75054 0.25876 0.36391 0.0
H1583 H 0.72925 0.2601 0.43029 0.0
H1584 H 0.3559 0.24581 0.43027 0.0
H1585 H 0.33484 0.2467 0.3638 0.0
H1586 H 0.3095 0.28909 0.4346 0.0
H1587 H 0.32998 0.28759 0.50234 0.0
H1588 H 0.28652 0.26824 0.40678 0.0
H1589 H 0.32967 0.27615 0.24741 0.0
H1590 H 0.33482 0.25718 0.28128 0.0
H1591 H 0.33723 0.27787 0.30976 0.0
C1592 C 0.34603 0.25553 0.43118 0.0
C1593 C 0.34473 0.26671 0.4715 0.0
C1594 C 0.33397 0.25609 0.3929 0.0
C1595 C 0.32059 0.26817 0.39324 0.0
C1596 C 0.31961 0.27963 0.43304 0.0
H1597 H 0.2574 0.28597 0.13253 0.0
H1598 H 0.27771 0.28823 0.20049 0.0
C1599 C 0.33143 0.27884 0.47174 0.0
C1600 C 0.30708 0.26832 0.35389 0.0
H1601 H 0.30093 0.2679 0.22932 0.0
C1602 C 0.28974 0.26832 0.36798 0.0
C1603 C 0.31104 0.26868 0.30297 0.0
C1604 C 0.3292 0.27016 0.28447 0.0
C1605 C 0.2764 0.26848 0.3331 0.0
C1606 C 0.28037 0.26793 0.2822 0.0
C1607 C 0.29771 0.26813 0.26812 0.0
C1608 C 0.26688 0.26737 0.24282 0.0
C1609 C 0.25822 0.26975 0.35152 0.0
C1610 C 0.25367 0.25508 0.24366 0.0
C1611 C 0.2417 0.2541 0.20523 0.0
C1612 C 0.24292 0.26504 0.16429 0.0
C1613 C 0.25602 0.27739 0.16361 0.0
C1614 C 0.26775 0.27861 0.20244 0.0
H1615 H 0.25765 0.27591 0.38829 0.0
H1616 H 0.25007 0.2772 0.32586 0.0
H1617 H 0.2528 0.25669 0.35532 0.0
H1618 H 0.2529 0.24585 0.27325 0.0
H1619 H 0.23199 0.24421 0.2065 0.0
H1620 H 0.362 0.75804 0.71879 0.0
H1621 H 0.34193 0.757 0.78838 0.0
H1622 H 0.30697 0.72695 0.70162 0.0
H1623 H 0.32696 0.72772 0.6326 0.0
H1624 H 0.30932 0.76944 0.79396 0.0
H1625 H 0.30774 0.69964 0.82785 0.0
H1626 H 0.32389 0.70962 0.78995 0.0
H1627 H 0.30305 0.70504 0.76518 0.0
C1628 C 0.35018 0.75095 0.71483 0.0
C1629 C 0.34622 0.74286 0.67003 0.0
C1630 C 0.33864 0.75044 0.75463 0.0
C1631 C 0.32293 0.7417 0.75079 0.0
C1632 C 0.3191 0.73345 0.70625 0.0
H1633 H 0.23078 0.75969 0.92736 0.0
H1634 H 0.25253 0.75819 0.86248 0.0
C1635 C 0.33058 0.73397 0.66655 0.0
C1636 C 0.31017 0.74193 0.79214 0.0
H1637 H 0.28559 0.71609 0.8657 0.0
C1638 C 0.30423 0.75776 0.80979 0.0
C1639 C 0.30356 0.72673 0.8135 0.0
C1640 C 0.31 0.7093 0.79854 0.0
C1641 C 0.29167 0.75881 0.84704 0.0
C1642 C 0.28453 0.74361 0.86693 0.0
C1643 C 0.29079 0.72778 0.85017 0.0
C1644 C 0.27084 0.74388 0.90573 0.0
C1645 C 0.2864 0.77626 0.86528 0.0
C1646 C 0.27344 0.73577 0.9513 0.0
C1647 C 0.26092 0.73647 0.98839 0.0
C1648 C 0.24538 0.74522 0.98084 0.0
C1649 C 0.24258 0.7529 0.93467 0.0
C1650 C 0.25511 0.75218 0.89758 0.0
H1651 H 0.29622 0.78611 0.85674 0.0
H1652 H 0.27433 0.7801 0.8469 0.0
H1653 H 0.28415 0.77614 0.9056 0.0
H1654 H 0.28535 0.72917 0.95863 0.0
H1655 H 0.26357 0.73041 0.02338 0.0
H1656 H 0.56563 0.97526 0.27697 0.0
H1657 H 0.56617 0.99607 0.2098 0.0
H1658 H 0.53653 0.96175 0.11985 0.0
H1659 H 0.53572 0.9409 0.18739 0.0
H1660 H 0.57852 0.99491 0.11605 0.0
H1661 H 0.50839 0.00538 0.11185 0.0
H1662 H 0.51883 0.99401 0.16117 0.0
H1663 H 0.51455 0.98343 0.1038 0.0
C1664 C 0.55927 0.97205 0.24285 0.0
C1665 C 0.55056 0.95636 0.23784 0.0
C1666 C 0.55959 0.98402 0.20435 0.0
C1667 C 0.55113 0.98072 0.15981 0.0
C1668 C 0.54284 0.96484 0.15412 0.0
H1669 H 0.5648 0.03647 0.88378 0.0
H1670 H 0.56595 0.01616 0.952 0.0
C1671 C 0.54252 0.95283 0.19269 0.0
C1672 C 0.55103 0.99393 0.11969 0.0
H1673 H 0.52459 0.01848 0.04823 0.0
C1674 C 0.56671 1.00005 0.10129 0.0
C1675 C 0.53566 1.00097 0.10079 0.0
C1676 C 0.5184 0.99576 0.12067 0.0
C1677 C 0.56744 0.01268 0.0642 0.0
C1678 C 0.55207 0.01929 0.04412 0.0
C1679 C 0.5364 0.01339 0.06314 0.0
C1680 C 0.55195 0.03213 1.00305 0.0
C1681 C 0.58473 0.01904 0.04754 0.0
C1682 C 0.5435 0.04794 0.00828 0.0
C1683 C 0.54278 0.05965 0.969 0.0
C1684 C 0.55036 0.05578 0.92335 0.0
C1685 C 0.55894 0.04002 0.91842 0.0
C1686 C 0.55968 0.02835 0.95762 0.0
H1687 H 0.59473 0.01663 0.07571 0.0
H1688 H 0.58852 0.01217 0.01353 0.0
H1689 H 0.58441 0.03296 0.03935 0.0
H1690 H 0.53736 0.05118 0.04276 0.0
H1691 H 0.53595 0.07157 0.9741 0.0
H1692 H 0.02004 0.03521 0.75985 0.0
H1693 H 0.01864 0.01491 0.69167 0.0
H1694 H 0.0464 0.05025 0.59954 0.0
H1695 H 0.04803 0.07064 0.66804 0.0
H1696 H 0.00512 0.01661 0.59815 0.0
H1697 H 0.07536 0.00684 0.58927 0.0
H1698 H 0.06509 0.01769 0.6399 0.0
H1699 H 0.06877 0.02875 0.58285 0.0
C1700 C 0.02574 0.03879 0.72498 0.0
C1701 C 0.03422 0.0546 0.71965 0.0
C1702 C 0.02493 0.02711 0.68593 0.0
C1703 C 0.03269 0.03082 0.64053 0.0
C1704 C 0.04062 0.04687 0.63444 0.0
H1705 H 0.01877 0.9763 0.36388 0.0
H1706 H 0.01743 0.99613 0.43308 0.0
C1707 C 0.0414 0.05862 0.67355 0.0
C1708 C 0.03262 0.01777 0.60018 0.0
H1709 H 0.05884 0.99348 0.52722 0.0
C1710 C 0.01688 0.01157 0.58267 0.0
C1711 C 0.04793 0.01087 0.58041 0.0
C1712 C 0.06526 0.01622 0.59929 0.0
C1713 C 0.01603 0.999 0.54554 0.0
C1714 C 0.03134 0.9925 0.52469 0.0
C1715 C 0.04708 0.99847 0.54283 0.0
C1716 C 0.03133 0.97982 0.48339 0.0
C1717 C 0.99871 0.99259 0.52958 0.0
C1718 C 0.03969 0.96394 0.48804 0.0
C1719 C 0.04048 0.95247 0.44823 0.0
C1720 C 0.03308 0.95671 0.40266 0.0
C1721 C 0.0245 0.97249 0.39843 0.0
C1722 C 0.02367 0.98388 0.43817 0.0
H1723 H 0.98879 0.99499 0.55807 0.0
H1724 H 0.99481 0.99942 0.49561 0.0
H1725 H 0.99905 0.97867 0.52152 0.0
H1726 H 0.04578 0.96049 0.52239 0.0
H1727 H 0.04732 0.94053 0.45275 0.0
loop_
_geom_bond_atom_site_label_1
_geom_bond_atom_site_label_2
_geom_bond_distance
_geom_bond_site_symmetry_2
_ccdc_geom_bond_type
Mn0 O5 2.095 . S
Mn0 O15 2.162 . S
Mn0 O16 2.297 . S
Mn0 O24 2.385 . S
Mn0 O25 2.209 . S
Mn0 O26 2.094 . S
Mn1 O6 2.121 . S
Mn1 N8 2.257 . S
Mn1 N17 2.282 . S
Mn1 O25 2.215 . S
Mn1 O27 2.117 . S
C2 O24 1.234 . S
C2 O25 1.283 . S
C3 O15 1.281 . S
C3 O16 1.236 . S
C4 O26 1.240 . S
C4 O27 1.264 . S
O5 Mn0 2.095 . S
O5 C14 1.250 . S
O6 Mn1 2.121 . S
O6 C14 1.258 . S
C7 N8 1.326 . S
C7 C11 1.460 . S
C7 H13 0.929 . S
N8 Mn1 2.257 . S
N8 C7 1.326 . S
N8 C12 1.362 . S
C9 C10 1.258 . S
C9 C12 1.431 . S
C9 C29 1.449 1_554 S
C10 C9 1.258 . S
C10 C11 1.477 . S
C10 H30 0.931 1_554 S
C11 C7 1.460 . S
C11 C10 1.477 . S
C11 H31 0.930 . S
C12 N8 1.362 . S
C12 C9 1.431 . S
C12 C22 1.476 . S
H13 C7 0.929 . S
C14 O5 1.250 . S
C14 O6 1.258 . S
O15 Mn0 2.162 . S
O15 C3 1.281 . S
O16 Mn0 2.297 . S
O16 C3 1.236 . S
N17 Mn1 2.282 . S
N17 C18 1.328 . S
N17 C22 1.318 . S
C18 N17 1.328 . S
C18 C19 1.457 . S
C18 H23 0.929 . S
C19 C18 1.457 . S
C19 C20 1.291 . S
C19 H32 0.931 1_455 S
C20 C19 1.291 . S
C20 C21 1.373 . S
C20 H33 0.929 . S
C21 C20 1.373 . S
C21 C22 1.396 . S
C21 C28 1.403 1_554 S
C22 C12 1.476 . S
C22 N17 1.318 . S
C22 C21 1.396 . S
H23 C18 0.929 . S
O24 Mn0 2.385 . S
O24 C2 1.234 . S
O25 Mn0 2.209 . S
O25 Mn1 2.215 . S
O25 C2 1.283 . S
O26 Mn0 2.094 . S
O26 C4 1.240 . S
O27 Mn1 2.117 . S
O27 C4 1.264 . S
C28 C21 1.403 1_556 S
C28 C29 1.399 . S
C28 H34 0.929 . S
C29 C9 1.449 1_556 S
C29 C28 1.399 . S
C29 H35 0.930 . S
H30 C10 0.931 1_556 S
H31 C11 0.930 . S
H32 C19 0.931 1_655 S
H33 C20 0.929 . S
H34 C28 0.929 . S
H35 C29 0.930 . S
Mn36 O41 2.095 . S
Mn36 O51 2.162 . S
Mn36 O52 2.297 . S
Mn36 O60 2.385 . S
Mn36 O61 2.209 . S
Mn36 O62 2.094 . S
Mn37 O42 2.121 . S
Mn37 N44 2.257 . S
Mn37 N53 2.282 . S
Mn37 O61 2.215 . S
Mn37 O63 2.117 . S
C38 O60 1.234 . S
C38 O61 1.283 . S
C39 O51 1.281 . S
C39 O52 1.236 . S
C40 O62 1.240 . S
C40 O63 1.264 . S
O41 Mn36 2.095 . S
O41 C50 1.250 . S
O42 Mn37 2.121 . S
O42 C50 1.258 . S
C43 N44 1.326 . S
C43 C47 1.460 . S
C43 H49 0.929 . S
N44 Mn37 2.257 . S
N44 C43 1.326 . S
N44 C48 1.362 . S
C45 C46 1.258 . S
C45 C48 1.431 . S
C45 C65 1.449 . S
C46 C45 1.258 . S
C46 C47 1.477 . S
C46 H66 0.931 . S
C47 C43 1.460 . S
C47 C46 1.477 . S
C47 H67 0.930 . S
C48 N44 1.362 . S
C48 C45 1.431 . S
C48 C58 1.476 . S
H49 C43 0.929 . S
C50 O41 1.250 . S
C50 O42 1.258 . S
O51 Mn36 2.162 . S
O51 C39 1.281 . S
O52 Mn36 2.297 . S
O52 C39 1.236 . S
N53 Mn37 2.282 . S
N53 C54 1.328 . S
N53 C58 1.318 . S
C54 N53 1.328 . S
C54 C55 1.457 . S
C54 H59 0.929 . S
C55 C54 1.457 . S
C55 C56 1.291 . S
C55 H68 0.931 . S
C56 C55 1.291 . S
C56 C57 1.373 . S
C56 H69 0.929 . S
C57 C56 1.373 . S
C57 C58 1.396 . S
C57 C64 1.403 . S
C58 C48 1.476 . S
C58 N53 1.318 . S
C58 C57 1.396 . S
H59 C54 0.929 . S
O60 Mn36 2.385 . S
O60 C38 1.234 . S
O61 Mn36 2.209 . S
O61 Mn37 2.215 . S
O61 C38 1.283 . S
O62 Mn36 2.094 . S
O62 C40 1.240 . S
O63 Mn37 2.117 . S
O63 C40 1.264 . S
C64 C57 1.403 . S
C64 C65 1.399 . S
C64 H70 0.929 . S
C65 C45 1.449 . S
C65 C64 1.399 . S
C65 H71 0.930 . S
H66 C46 0.931 . S
H67 C47 0.930 . S
H68 C55 0.931 . S
H69 C56 0.929 . S
H70 C64 0.929 . S
H71 C65 0.930 . S
Mn72 O77 2.095 . S
Mn72 O87 2.162 . S
Mn72 O88 2.297 . S
Mn72 O96 2.385 . S
Mn72 O97 2.209 . S
Mn72 O98 2.094 . S
Mn73 O78 2.121 . S
Mn73 N80 2.257 . S
Mn73 N89 2.282 . S
Mn73 O97 2.215 . S
Mn73 O99 2.117 . S
C74 O96 1.234 . S
C74 O97 1.283 . S
C75 O87 1.281 . S
C75 O88 1.236 . S
C76 O98 1.240 . S
C76 O99 1.264 . S
O77 Mn72 2.095 . S
O77 C86 1.250 . S
O78 Mn73 2.121 . S
O78 C86 1.258 . S
C79 N80 1.326 . S
C79 C83 1.460 . S
C79 H85 0.929 . S
N80 Mn73 2.257 . S
N80 C79 1.326 . S
N80 C84 1.362 . S
C81 C82 1.258 . S
C81 C84 1.431 . S
C81 C101 1.449 . S
C82 C81 1.258 . S
C82 C83 1.477 . S
C82 H102 0.931 . S
C83 C79 1.460 . S
C83 C82 1.477 . S
C83 H103 0.930 . S
C84 N80 1.362 . S
C84 C81 1.431 . S
C84 C94 1.476 . S
H85 C79 0.929 . S
C86 O77 1.250 . S
C86 O78 1.258 . S
O87 Mn72 2.162 . S
O87 C75 1.281 . S
O88 Mn72 2.297 . S
O88 C75 1.236 . S
N89 Mn73 2.282 . S
N89 C90 1.328 . S
N89 C94 1.318 . S
C90 N89 1.328 . S
C90 C91 1.457 . S
C90 H95 0.929 . S
C91 C90 1.457 . S
C91 C92 1.291 . S
C91 H104 0.931 . S
C92 C91 1.291 . S
C92 C93 1.373 . S
C92 H105 0.929 . S
C93 C92 1.373 . S
C93 C94 1.396 . S
C93 C100 1.403 . S
C94 C84 1.476 . S
C94 N89 1.318 . S
C94 C93 1.396 . S
H95 C90 0.929 . S
O96 Mn72 2.385 . S
O96 C74 1.234 . S
O97 Mn72 2.209 . S
O97 Mn73 2.215 . S
O97 C74 1.283 . S
O98 Mn72 2.094 . S
O98 C76 1.240 . S
O99 Mn73 2.117 . S
O99 C76 1.264 . S
C100 C93 1.403 . S
C100 C101 1.399 . S
C100 H106 0.929 . S
C101 C81 1.449 . S
C101 C100 1.399 . S
C101 H107 0.930 . S
H102 C82 0.931 . S
H103 C83 0.930 . S
H104 C91 0.931 . S
H105 C92 0.929 . S
H106 C100 0.929 . S
H107 C101 0.930 . S
Mn108 O113 2.095 . S
Mn108 O123 2.162 . S
Mn108 O124 2.297 . S
Mn108 O132 2.385 1_554 S
Mn108 O133 2.209 1_554 S
Mn108 O134 2.094 . S
Mn109 O114 2.121 . S
Mn109 N116 2.257 . S
Mn109 N125 2.282 . S
Mn109 O133 2.215 . S
Mn109 O135 2.117 . S
C110 O132 1.234 . S
C110 O133 1.283 . S
C111 O123 1.281 . S
C111 O124 1.236 . S
C112 O134 1.240 1_556 S
C112 O135 1.264 . S
O113 Mn108 2.095 . S
O113 C122 1.250 1_554 S
O114 Mn109 2.121 . S
O114 C122 1.258 . S
C115 N116 1.326 . S
C115 C119 1.460 . S
C115 H121 0.929 . S
N116 Mn109 2.257 . S
N116 C115 1.326 . S
N116 C120 1.362 . S
C117 C118 1.258 . S
C117 C120 1.431 . S
C117 C137 1.449 . S
C118 C117 1.258 . S
C118 C119 1.477 . S
C118 H138 0.931 . S
C119 C115 1.460 . S
C119 C118 1.477 . S
C119 H139 0.930 . S
C120 N116 1.362 . S
C120 C117 1.431 . S
C120 C130 1.476 . S
H121 C115 0.929 . S
C122 O113 1.250 1_556 S
C122 O114 1.258 . S
O123 Mn108 2.162 . S
O123 C111 1.281 . S
O124 Mn108 2.297 . S
O124 C111 1.236 . S
N125 Mn109 2.282 . S
N125 C126 1.328 . S
N125 C130 1.318 . S
C126 N125 1.328 . S
C126 C127 1.457 . S
C126 H131 0.929 . S
C127 C126 1.457 . S
C127 C128 1.291 . S
C127 H140 0.931 . S
C128 C127 1.291 . S
C128 C129 1.373 . S
C128 H141 0.929 . S
C129 C128 1.373 . S
C129 C130 1.396 . S
C129 C136 1.403 . S
C130 C120 1.476 . S
C130 N125 1.318 . S
C130 C129 1.396 . S
H131 C126 0.929 . S
O132 Mn108 2.385 1_556 S
O132 C110 1.234 . S
O133 Mn108 2.209 1_556 S
O133 Mn109 2.215 . S
O133 C110 1.283 . S
O134 Mn108 2.094 . S
O134 C112 1.240 1_554 S
O135 Mn109 2.117 . S
O135 C112 1.264 . S
C136 C129 1.403 . S
C136 C137 1.399 . S
C136 H142 0.929 . S
C137 C117 1.449 . S
C137 C136 1.399 . S
C137 H143 0.930 . S
H138 C118 0.931 . S
H139 C119 0.930 . S
H140 C127 0.931 . S
H141 C128 0.929 . S
H142 C136 0.929 . S
H143 C137 0.930 . S
Mn144 O149 2.095 . S
Mn144 O159 2.162 . S
Mn144 O160 2.297 . S
Mn144 O168 2.385 . S
Mn144 O169 2.209 . S
Mn144 O170 2.094 . S
Mn145 O150 2.121 . S
Mn145 N152 2.257 1_556 S
Mn145 N161 2.282 1_556 S
Mn145 O169 2.215 . S
Mn145 O171 2.117 . S
C146 O168 1.234 . S
C146 O169 1.283 . S
C147 O159 1.281 . S
C147 O160 1.236 . S
C148 O170 1.240 . S
C148 O171 1.264 . S
O149 Mn144 2.095 . S
O149 C158 1.250 . S
O150 Mn145 2.121 . S
O150 C158 1.258 . S
C151 N152 1.326 . S
C151 C155 1.460 . S
C151 H157 0.929 1_554 S
N152 Mn145 2.257 1_554 S
N152 C151 1.326 . S
N152 C156 1.362 . S
C153 C154 1.258 . S
C153 C156 1.431 . S
C153 C173 1.449 . S
C154 C153 1.258 . S
C154 C155 1.477 . S
C154 H174 0.931 . S
C155 C151 1.460 . S
C155 C154 1.477 . S
C155 H175 0.930 . S
C156 N152 1.362 . S
C156 C153 1.431 . S
C156 C166 1.476 . S
H157 C151 0.929 1_556 S
C158 O149 1.250 . S
C158 O150 1.258 . S
O159 Mn144 2.162 . S
O159 C147 1.281 . S
O160 Mn144 2.297 . S
O160 C147 1.236 . S
N161 Mn145 2.282 1_554 S
N161 C162 1.328 . S
N161 C166 1.318 . S
C162 N161 1.328 . S
C162 C163 1.457 . S
C162 H167 0.929 1_554 S
C163 C162 1.457 . S
C163 C164 1.291 . S
C163 H176 0.931 1_455 S
C164 C163 1.291 . S
C164 C165 1.373 . S
C164 H177 0.929 . S
C165 C164 1.373 . S
C165 C166 1.396 . S
C165 C172 1.403 . S
C166 C156 1.476 . S
C166 N161 1.318 . S
C166 C165 1.396 . S
H167 C162 0.929 1_556 S
O168 Mn144 2.385 . S
O168 C146 1.234 . S
O169 Mn144 2.209 . S
O169 Mn145 2.215 . S
O169 C146 1.283 . S
O170 Mn144 2.094 . S
O170 C148 1.240 . S
O171 Mn145 2.117 . S
O171 C148 1.264 . S
C172 C165 1.403 . S
C172 C173 1.399 . S
C172 H178 0.929 . S
C173 C153 1.449 . S
C173 C172 1.399 . S
C173 H179 0.930 . S
H174 C154 0.931 . S
H175 C155 0.930 . S
H176 C163 0.931 1_655 S
H177 C164 0.929 . S
H178 C172 0.929 . S
H179 C173 0.930 . S
Mn180 O185 2.095 . S
Mn180 O195 2.162 . S
Mn180 O196 2.297 . S
Mn180 O204 2.385 . S
Mn180 O205 2.209 . S
Mn180 O206 2.094 . S
Mn181 O186 2.121 . S
Mn181 N188 2.257 . S
Mn181 N197 2.282 . S
Mn181 O205 2.215 . S
Mn181 O207 2.117 . S
C182 O204 1.234 . S
C182 O205 1.283 . S
C183 O195 1.281 . S
C183 O196 1.236 . S
C184 O206 1.240 . S
C184 O207 1.264 . S
O185 Mn180 2.095 . S
O185 C194 1.250 . S
O186 Mn181 2.121 . S
O186 C194 1.258 . S
C187 N188 1.326 . S
C187 C191 1.460 . S
C187 H193 0.929 . S
N188 Mn181 2.257 . S
N188 C187 1.326 . S
N188 C192 1.362 . S
C189 C190 1.258 . S
C189 C192 1.431 . S
C189 C209 1.449 . S
C190 C189 1.258 . S
C190 C191 1.477 . S
C190 H210 0.931 . S
C191 C187 1.460 . S
C191 C190 1.477 . S
C191 H211 0.930 . S
C192 N188 1.362 . S
C192 C189 1.431 . S
C192 C202 1.476 . S
H193 C187 0.929 . S
C194 O185 1.250 . S
C194 O186 1.258 . S
O195 Mn180 2.162 . S
O195 C183 1.281 . S
O196 Mn180 2.297 . S
O196 C183 1.236 . S
N197 Mn181 2.282 . S
N197 C198 1.328 . S
N197 C202 1.318 . S
C198 N197 1.328 . S
C198 C199 1.457 . S
C198 H203 0.929 . S
C199 C198 1.457 . S
C199 C200 1.291 . S
C199 H212 0.931 . S
C200 C199 1.291 . S
C200 C201 1.373 . S
C200 H213 0.929 . S
C201 C200 1.373 . S
C201 C202 1.396 . S
C201 C208 1.403 . S
C202 C192 1.476 . S
C202 N197 1.318 . S
C202 C201 1.396 . S
H203 C198 0.929 . S
O204 Mn180 2.385 . S
O204 C182 1.234 . S
O205 Mn180 2.209 . S
O205 Mn181 2.215 . S
O205 C182 1.283 . S
O206 Mn180 2.094 . S
O206 C184 1.240 . S
O207 Mn181 2.117 . S
O207 C184 1.264 . S
C208 C201 1.403 . S
C208 C209 1.399 . S
C208 H214 0.929 . S
C209 C189 1.449 . S
C209 C208 1.399 . S
C209 H215 0.930 . S
H210 C190 0.931 . S
H211 C191 0.930 . S
H212 C199 0.931 . S
H213 C200 0.929 . S
H214 C208 0.929 . S
H215 C209 0.930 . S
Mn216 O221 2.095 . S
Mn216 O231 2.162 . S
Mn216 O232 2.297 . S
Mn216 O240 2.385 . S
Mn216 O241 2.209 . S
Mn216 O242 2.094 . S
Mn217 O222 2.121 . S
Mn217 N224 2.257 . S
Mn217 N233 2.282 . S
Mn217 O241 2.215 . S
Mn217 O243 2.117 . S
C218 O240 1.234 . S
C218 O241 1.283 . S
C219 O231 1.281 . S
C219 O232 1.236 . S
C220 O242 1.240 . S
C220 O243 1.264 . S
O221 Mn216 2.095 . S
O221 C230 1.250 . S
O222 Mn217 2.121 . S
O222 C230 1.258 . S
C223 N224 1.326 . S
C223 C227 1.460 . S
C223 H229 0.929 . S
N224 Mn217 2.257 . S
N224 C223 1.326 . S
N224 C228 1.362 . S
C225 C226 1.258 . S
C225 C228 1.431 . S
C225 C245 1.449 . S
C226 C225 1.258 . S
C226 C227 1.477 . S
C226 H246 0.931 . S
C227 C223 1.460 . S
C227 C226 1.477 . S
C227 H247 0.930 . S
C228 N224 1.362 . S
C228 C225 1.431 . S
C228 C238 1.476 . S
H229 C223 0.929 . S
C230 O221 1.250 . S
C230 O222 1.258 . S
O231 Mn216 2.162 . S
O231 C219 1.281 . S
O232 Mn216 2.297 . S
O232 C219 1.236 . S
N233 Mn217 2.282 . S
N233 C234 1.328 . S
N233 C238 1.318 . S
C234 N233 1.328 . S
C234 C235 1.457 . S
C234 H239 0.929 . S
C235 C234 1.457 . S
C235 C236 1.291 . S
C235 H248 0.931 . S
C236 C235 1.291 . S
C236 C237 1.373 . S
C236 H249 0.929 . S
C237 C236 1.373 . S
C237 C238 1.396 . S
C237 C244 1.403 . S
C238 C228 1.476 . S
C238 N233 1.318 . S
C238 C237 1.396 . S
H239 C234 0.929 . S
O240 Mn216 2.385 . S
O240 C218 1.234 . S
O241 Mn216 2.209 . S
O241 Mn217 2.215 . S
O241 C218 1.283 . S
O242 Mn216 2.094 . S
O242 C220 1.240 . S
O243 Mn217 2.117 . S
O243 C220 1.264 . S
C244 C237 1.403 . S
C244 C245 1.399 . S
C244 H250 0.929 . S
C245 C225 1.449 . S
C245 C244 1.399 . S
C245 H251 0.930 . S
H246 C226 0.931 . S
H247 C227 0.930 . S
H248 C235 0.931 . S
H249 C236 0.929 . S
H250 C244 0.929 . S
H251 C245 0.930 . S
Mn252 O257 2.095 . S
Mn252 O267 2.162 . S
Mn252 O268 2.297 . S
Mn252 O276 2.385 . S
Mn252 O277 2.209 . S
Mn252 O278 2.094 . S
Mn253 O258 2.121 . S
Mn253 N260 2.257 . S
Mn253 N269 2.282 . S
Mn253 O277 2.215 . S
Mn253 O279 2.117 . S
C254 O276 1.234 . S
C254 O277 1.283 . S
C255 O267 1.281 . S
C255 O268 1.236 . S
C256 O278 1.240 . S
C256 O279 1.264 . S
O257 Mn252 2.095 . S
O257 C266 1.250 . S
O258 Mn253 2.121 . S
O258 C266 1.258 . S
C259 N260 1.326 . S
C259 C263 1.460 . S
C259 H265 0.929 . S
N260 Mn253 2.257 . S
N260 C259 1.326 . S
N260 C264 1.362 . S
C261 C262 1.258 . S
C261 C264 1.431 . S
C261 C281 1.449 . S
C262 C261 1.258 . S
C262 C263 1.477 . S
C262 H282 0.931 . S
C263 C259 1.460 . S
C263 C262 1.477 . S
C263 H283 0.930 . S
C264 N260 1.362 . S
C264 C261 1.431 . S
C264 C274 1.476 . S
H265 C259 0.929 . S
C266 O257 1.250 . S
C266 O258 1.258 . S
O267 Mn252 2.162 . S
O267 C255 1.281 . S
O268 Mn252 2.297 . S
O268 C255 1.236 . S
N269 Mn253 2.282 . S
N269 C270 1.328 . S
N269 C274 1.318 . S
C270 N269 1.328 . S
C270 C271 1.457 . S
C270 H275 0.929 . S
C271 C270 1.457 . S
C271 C272 1.291 . S
C271 H284 0.931 . S
C272 C271 1.291 . S
C272 C273 1.373 . S
C272 H285 0.929 . S
C273 C272 1.373 . S
C273 C274 1.396 . S
C273 C280 1.403 . S
C274 C264 1.476 . S
C274 N269 1.318 . S
C274 C273 1.396 . S
H275 C270 0.929 . S
O276 Mn252 2.385 . S
O276 C254 1.234 . S
O277 Mn252 2.209 . S
O277 Mn253 2.215 . S
O277 C254 1.283 . S
O278 Mn252 2.094 . S
O278 C256 1.240 . S
O279 Mn253 2.117 . S
O279 C256 1.264 . S
C280 C273 1.403 . S
C280 C281 1.399 . S
C280 H286 0.929 . S
C281 C261 1.449 . S
C281 C280 1.399 . S
C281 H287 0.930 . S
H282 C262 0.931 . S
H283 C263 0.930 . S
H284 C271 0.931 . S
H285 C272 0.929 . S
H286 C280 0.929 . S
H287 C281 0.930 . S
Mn288 O293 2.095 . S
Mn288 O303 2.162 . S
Mn288 O304 2.297 . S
Mn288 O312 2.385 . S
Mn288 O313 2.209 . S
Mn288 O314 2.094 . S
Mn289 O294 2.121 . S
Mn289 N296 2.257 . S
Mn289 N305 2.282 . S
Mn289 O313 2.215 . S
Mn289 O315 2.117 . S
C290 O312 1.234 . S
C290 O313 1.283 . S
C291 O303 1.281 . S
C291 O304 1.236 . S
C292 O314 1.240 . S
C292 O315 1.264 . S
O293 Mn288 2.095 . S
O293 C302 1.250 . S
O294 Mn289 2.121 . S
O294 C302 1.258 . S
C295 N296 1.326 . S
C295 C299 1.460 . S
C295 H301 0.929 . S
N296 Mn289 2.257 . S
N296 C295 1.326 . S
N296 C300 1.362 . S
C297 C298 1.258 . S
C297 C300 1.431 . S
C297 C317 1.449 . S
C298 C297 1.258 . S
C298 C299 1.477 . S
C298 H318 0.931 . S
C299 C295 1.460 . S
C299 C298 1.477 . S
C299 H319 0.930 . S
C300 N296 1.362 . S
C300 C297 1.431 . S
C300 C310 1.476 . S
H301 C295 0.929 . S
C302 O293 1.250 . S
C302 O294 1.258 . S
O303 Mn288 2.162 . S
O303 C291 1.281 . S
O304 Mn288 2.297 . S
O304 C291 1.236 . S
N305 Mn289 2.282 . S
N305 C306 1.328 . S
N305 C310 1.318 . S
C306 N305 1.328 . S
C306 C307 1.457 . S
C306 H311 0.929 . S
C307 C306 1.457 . S
C307 C308 1.291 . S
C307 H320 0.931 . S
C308 C307 1.291 . S
C308 C309 1.373 . S
C308 H321 0.929 . S
C309 C308 1.373 . S
C309 C310 1.396 . S
C309 C316 1.403 . S
C310 C300 1.476 . S
C310 N305 1.318 . S
C310 C309 1.396 . S
H311 C306 0.929 . S
O312 Mn288 2.385 . S
O312 C290 1.234 . S
O313 Mn288 2.209 . S
O313 Mn289 2.215 . S
O313 C290 1.283 . S
O314 Mn288 2.094 . S
O314 C292 1.240 . S
O315 Mn289 2.117 . S
O315 C292 1.264 . S
C316 C309 1.403 . S
C316 C317 1.399 . S
C316 H322 0.929 . S
C317 C297 1.449 . S
C317 C316 1.399 . S
C317 H323 0.930 . S
H318 C298 0.931 . S
H319 C299 0.930 . S
H320 C307 0.931 . S
H321 C308 0.929 . S
H322 C316 0.929 . S
H323 C317 0.930 . S
Mn324 O329 2.095 . S
Mn324 O339 2.162 . S
Mn324 O340 2.297 . S
Mn324 O348 2.385 . S
Mn324 O349 2.209 . S
Mn324 O350 2.094 . S
Mn325 O330 2.121 . S
Mn325 N332 2.257 . S
Mn325 N341 2.282 . S
Mn325 O349 2.215 . S
Mn325 O351 2.117 . S
C326 O348 1.234 . S
C326 O349 1.283 . S
C327 O339 1.281 . S
C327 O340 1.236 . S
C328 O350 1.240 . S
C328 O351 1.264 . S
O329 Mn324 2.095 . S
O329 C338 1.250 . S
O330 Mn325 2.121 . S
O330 C338 1.258 . S
C331 N332 1.326 . S
C331 C335 1.460 . S
C331 H337 0.929 . S
N332 Mn325 2.257 . S
N332 C331 1.326 . S
N332 C336 1.362 . S
C333 C334 1.258 . S
C333 C336 1.431 . S
C333 C353 1.449 . S
C334 C333 1.258 . S
C334 C335 1.477 . S
C334 H354 0.931 . S
C335 C331 1.460 . S
C335 C334 1.477 . S
C335 H355 0.930 . S
C336 N332 1.362 . S
C336 C333 1.431 . S
C336 C346 1.476 . S
H337 C331 0.929 . S
C338 O329 1.250 . S
C338 O330 1.258 . S
O339 Mn324 2.162 . S
O339 C327 1.281 . S
O340 Mn324 2.297 . S
O340 C327 1.236 . S
N341 Mn325 2.282 . S
N341 C342 1.328 . S
N341 C346 1.318 . S
C342 N341 1.328 . S
C342 C343 1.457 . S
C342 H347 0.929 . S
C343 C342 1.457 . S
C343 C344 1.291 . S
C343 H356 0.931 . S
C344 C343 1.291 . S
C344 C345 1.373 . S
C344 H357 0.929 . S
C345 C344 1.373 . S
C345 C346 1.396 . S
C345 C352 1.403 . S
C346 C336 1.476 . S
C346 N341 1.318 . S
C346 C345 1.396 . S
H347 C342 0.929 . S
O348 Mn324 2.385 . S
O348 C326 1.234 . S
O349 Mn324 2.209 . S
O349 Mn325 2.215 . S
O349 C326 1.283 . S
O350 Mn324 2.094 . S
O350 C328 1.240 . S
O351 Mn325 2.117 . S
O351 C328 1.264 . S
C352 C345 1.403 . S
C352 C353 1.399 . S
C352 H358 0.929 . S
C353 C333 1.449 . S
C353 C352 1.399 . S
C353 H359 0.930 . S
H354 C334 0.931 . S
H355 C335 0.930 . S
H356 C343 0.931 . S
H357 C344 0.929 . S
H358 C352 0.929 . S
H359 C353 0.930 . S
Mn360 O365 2.095 . S
Mn360 O375 2.162 . S
Mn360 O376 2.297 . S
Mn360 O384 2.385 1_554 S
Mn360 O385 2.209 1_554 S
Mn360 O386 2.094 . S
Mn361 O366 2.121 . S
Mn361 N368 2.257 . S
Mn361 N377 2.282 . S
Mn361 O385 2.215 . S
Mn361 O387 2.117 . S
C362 O384 1.234 . S
C362 O385 1.283 . S
C363 O375 1.281 . S
C363 O376 1.236 . S
C364 O386 1.240 1_556 S
C364 O387 1.264 . S
O365 Mn360 2.095 . S
O365 C374 1.250 1_554 S
O366 Mn361 2.121 . S
O366 C374 1.258 . S
C367 N368 1.326 . S
C367 C371 1.460 . S
C367 H373 0.929 . S
N368 Mn361 2.257 . S
N368 C367 1.326 . S
N368 C372 1.362 . S
C369 C370 1.258 . S
C369 C372 1.431 . S
C369 C389 1.449 . S
C370 C369 1.258 . S
C370 C371 1.477 . S
C370 H390 0.931 . S
C371 C367 1.460 . S
C371 C370 1.477 . S
C371 H391 0.930 . S
C372 N368 1.362 . S
C372 C369 1.431 . S
C372 C382 1.476 . S
H373 C367 0.929 . S
C374 O365 1.250 1_556 S
C374 O366 1.258 . S
O375 Mn360 2.162 . S
O375 C363 1.281 . S
O376 Mn360 2.297 . S
O376 C363 1.236 . S
N377 Mn361 2.282 . S
N377 C378 1.328 . S
N377 C382 1.318 . S
C378 N377 1.328 . S
C378 C379 1.457 . S
C378 H383 0.929 . S
C379 C378 1.457 . S
C379 C380 1.291 . S
C379 H392 0.931 . S
C380 C379 1.291 . S
C380 C381 1.373 . S
C380 H393 0.929 . S
C381 C380 1.373 . S
C381 C382 1.396 . S
C381 C388 1.403 . S
C382 C372 1.476 . S
C382 N377 1.318 . S
C382 C381 1.396 . S
H383 C378 0.929 . S
O384 Mn360 2.385 1_556 S
O384 C362 1.234 . S
O385 Mn360 2.209 1_556 S
O385 Mn361 2.215 . S
O385 C362 1.283 . S
O386 Mn360 2.094 . S
O386 C364 1.240 1_554 S
O387 Mn361 2.117 . S
O387 C364 1.264 . S
C388 C381 1.403 . S
C388 C389 1.399 . S
C388 H394 0.929 . S
C389 C369 1.449 . S
C389 C388 1.399 . S
C389 H395 0.930 . S
H390 C370 0.931 . S
H391 C371 0.930 . S
H392 C379 0.931 . S
H393 C380 0.929 . S
H394 C388 0.929 . S
H395 C389 0.930 . S
Mn396 O401 2.095 . S
Mn396 O411 2.162 . S
Mn396 O412 2.297 . S
Mn396 O420 2.385 . S
Mn396 O421 2.209 . S
Mn396 O422 2.094 . S
Mn397 O402 2.121 . S
Mn397 N404 2.257 . S
Mn397 N413 2.282 . S
Mn397 O421 2.215 . S
Mn397 O423 2.117 . S
C398 O420 1.234 . S
C398 O421 1.283 . S
C399 O411 1.281 . S
C399 O412 1.236 . S
C400 O422 1.240 . S
C400 O423 1.264 . S
O401 Mn396 2.095 . S
O401 C410 1.250 . S
O402 Mn397 2.121 . S
O402 C410 1.258 . S
C403 N404 1.326 . S
C403 C407 1.460 . S
C403 H409 0.929 . S
N404 Mn397 2.257 . S
N404 C403 1.326 . S
N404 C408 1.362 . S
C405 C406 1.258 . S
C405 C408 1.431 . S
C405 C425 1.449 . S
C406 C405 1.258 . S
C406 C407 1.477 . S
C406 H426 0.931 . S
C407 C403 1.460 . S
C407 C406 1.477 . S
C407 H427 0.930 . S
C408 N404 1.362 . S
C408 C405 1.431 . S
C408 C418 1.476 . S
H409 C403 0.929 . S
C410 O401 1.250 . S
C410 O402 1.258 . S
O411 Mn396 2.162 . S
O411 C399 1.281 . S
O412 Mn396 2.297 . S
O412 C399 1.236 . S
N413 Mn397 2.282 . S
N413 C414 1.328 . S
N413 C418 1.318 . S
C414 N413 1.328 . S
C414 C415 1.457 . S
C414 H419 0.929 . S
C415 C414 1.457 . S
C415 C416 1.291 . S
C415 H428 0.931 . S
C416 C415 1.291 . S
C416 C417 1.373 . S
C416 H429 0.929 . S
C417 C416 1.373 . S
C417 C418 1.396 . S
C417 C424 1.403 . S
C418 C408 1.476 . S
C418 N413 1.318 . S
C418 C417 1.396 . S
H419 C414 0.929 . S
O420 Mn396 2.385 . S
O420 C398 1.234 . S
O421 Mn396 2.209 . S
O421 Mn397 2.215 . S
O421 C398 1.283 . S
O422 Mn396 2.094 . S
O422 C400 1.240 . S
O423 Mn397 2.117 . S
O423 C400 1.264 . S
C424 C417 1.403 . S
C424 C425 1.399 . S
C424 H430 0.929 . S
C425 C405 1.449 . S
C425 C424 1.399 . S
C425 H431 0.930 . S
H426 C406 0.931 . S
H427 C407 0.930 . S
H428 C415 0.931 . S
H429 C416 0.929 . S
H430 C424 0.929 . S
H431 C425 0.930 . S
Mn432 O437 2.095 . S
Mn432 O447 2.162 . S
Mn432 O448 2.297 . S
Mn432 O456 2.385 . S
Mn432 O457 2.209 . S
Mn432 O458 2.094 . S
Mn433 O438 2.121 . S
Mn433 N440 2.257 . S
Mn433 N449 2.282 . S
Mn433 O457 2.215 . S
Mn433 O459 2.117 . S
C434 O456 1.234 . S
C434 O457 1.283 . S
C435 O447 1.281 . S
C435 O448 1.236 . S
C436 O458 1.240 . S
C436 O459 1.264 . S
O437 Mn432 2.095 . S
O437 C446 1.250 . S
O438 Mn433 2.121 . S
O438 C446 1.258 . S
C439 N440 1.326 . S
C439 C443 1.460 . S
C439 H445 0.929 . S
N440 Mn433 2.257 . S
N440 C439 1.326 . S
N440 C444 1.362 . S
C441 C442 1.258 . S
C441 C444 1.431 . S
C441 C461 1.449 . S
C442 C441 1.258 . S
C442 C443 1.477 . S
C442 H462 0.931 . S
C443 C439 1.460 . S
C443 C442 1.477 . S
C443 H463 0.930 . S
C444 N440 1.362 . S
C444 C441 1.431 . S
C444 C454 1.476 . S
H445 C439 0.929 . S
C446 O437 1.250 . S
C446 O438 1.258 . S
O447 Mn432 2.162 . S
O447 C435 1.281 . S
O448 Mn432 2.297 . S
O448 C435 1.236 . S
N449 Mn433 2.282 . S
N449 C450 1.328 . S
N449 C454 1.318 . S
C450 N449 1.328 . S
C450 C451 1.457 . S
C450 H455 0.929 . S
C451 C450 1.457 . S
C451 C452 1.291 . S
C451 H464 0.931 . S
C452 C451 1.291 . S
C452 C453 1.373 . S
C452 H465 0.929 . S
C453 C452 1.373 . S
C453 C454 1.396 . S
C453 C460 1.403 . S
C454 C444 1.476 . S
C454 N449 1.318 . S
C454 C453 1.396 . S
H455 C450 0.929 . S
O456 Mn432 2.385 . S
O456 C434 1.234 . S
O457 Mn432 2.209 . S
O457 Mn433 2.215 . S
O457 C434 1.283 . S
O458 Mn432 2.094 . S
O458 C436 1.240 . S
O459 Mn433 2.117 . S
O459 C436 1.264 . S
C460 C453 1.403 . S
C460 C461 1.399 . S
C460 H466 0.929 . S
C461 C441 1.449 . S
C461 C460 1.399 . S
C461 H467 0.930 . S
H462 C442 0.931 . S
H463 C443 0.930 . S
H464 C451 0.931 . S
H465 C452 0.929 . S
H466 C460 0.929 . S
H467 C461 0.930 . S
Mn468 O473 2.095 . S
Mn468 O483 2.162 . S
Mn468 O484 2.297 . S
Mn468 O492 2.385 . S
Mn468 O493 2.209 . S
Mn468 O494 2.094 . S
Mn469 O474 2.121 . S
Mn469 N476 2.257 . S
Mn469 N485 2.282 . S
Mn469 O493 2.215 . S
Mn469 O495 2.117 . S
C470 O492 1.234 . S
C470 O493 1.283 . S
C471 O483 1.281 . S
C471 O484 1.236 . S
C472 O494 1.240 . S
C472 O495 1.264 . S
O473 Mn468 2.095 . S
O473 C482 1.250 . S
O474 Mn469 2.121 . S
O474 C482 1.258 . S
C475 N476 1.326 1_655 S
C475 C479 1.460 . S
C475 H481 0.929 . S
N476 Mn469 2.257 . S
N476 C475 1.326 1_455 S
N476 C480 1.362 . S
C477 C478 1.258 1_455 S
C477 C480 1.431 . S
C477 C497 1.449 1_554 S
C478 C477 1.258 1_655 S
C478 C479 1.477 . S
C478 H498 0.931 1_554 S
C479 C475 1.460 . S
C479 C478 1.477 . S
C479 H499 0.930 . S
C480 N476 1.362 . S
C480 C477 1.431 . S
C480 C490 1.476 . S
H481 C475 0.929 . S
C482 O473 1.250 . S
C482 O474 1.258 . S
O483 Mn468 2.162 . S
O483 C471 1.281 . S
O484 Mn468 2.297 . S
O484 C471 1.236 . S
N485 Mn469 2.282 . S
N485 C486 1.328 . S
N485 C490 1.318 . S
C486 N485 1.328 . S
C486 C487 1.457 . S
C486 H491 0.929 . S
C487 C486 1.457 . S
C487 C488 1.291 . S
C487 H500 0.931 . S
C488 C487 1.291 . S
C488 C489 1.373 . S
C488 H501 0.929 . S
C489 C488 1.373 . S
C489 C490 1.396 . S
C489 C496 1.403 1_554 S
C490 C480 1.476 . S
C490 N485 1.318 . S
C490 C489 1.396 . S
H491 C486 0.929 . S
O492 Mn468 2.385 . S
O492 C470 1.234 . S
O493 Mn468 2.209 . S
O493 Mn469 2.215 . S
O493 C470 1.283 . S
O494 Mn468 2.094 . S
O494 C472 1.240 . S
O495 Mn469 2.117 . S
O495 C472 1.264 . S
C496 C489 1.403 1_556 S
C496 C497 1.399 . S
C496 H502 0.929 . S
C497 C477 1.449 1_556 S
C497 C496 1.399 . S
C497 H503 0.930 . S
H498 C478 0.931 1_556 S
H499 C479 0.930 . S
H500 C487 0.931 . S
H501 C488 0.929 . S
H502 C496 0.929 . S
H503 C497 0.930 . S
Mn504 O509 2.095 . S
Mn504 O519 2.162 . S
Mn504 O520 2.297 . S
Mn504 O528 2.385 . S
Mn504 O529 2.209 . S
Mn504 O530 2.094 . S
Mn505 O510 2.121 . S
Mn505 N512 2.257 . S
Mn505 N521 2.282 . S
Mn505 O529 2.215 . S
Mn505 O531 2.117 . S
C506 O528 1.234 . S
C506 O529 1.283 . S
C507 O519 1.281 . S
C507 O520 1.236 . S
C508 O530 1.240 . S
C508 O531 1.264 . S
O509 Mn504 2.095 . S
O509 C518 1.250 . S
O510 Mn505 2.121 . S
O510 C518 1.258 . S
C511 N512 1.326 . S
C511 C515 1.460 . S
C511 H517 0.929 . S
N512 Mn505 2.257 . S
N512 C511 1.326 . S
N512 C516 1.362 . S
C513 C514 1.258 . S
C513 C516 1.431 . S
C513 C533 1.449 . S
C514 C513 1.258 . S
C514 C515 1.477 . S
C514 H534 0.931 . S
C515 C511 1.460 . S
C515 C514 1.477 . S
C515 H535 0.930 . S
C516 N512 1.362 . S
C516 C513 1.431 . S
C516 C526 1.476 . S
H517 C511 0.929 . S
C518 O509 1.250 . S
C518 O510 1.258 . S
O519 Mn504 2.162 . S
O519 C507 1.281 . S
O520 Mn504 2.297 . S
O520 C507 1.236 . S
N521 Mn505 2.282 . S
N521 C522 1.328 . S
N521 C526 1.318 . S
C522 N521 1.328 . S
C522 C523 1.457 . S
C522 H527 0.929 . S
C523 C522 1.457 . S
C523 C524 1.291 . S
C523 H536 0.931 . S
C524 C523 1.291 . S
C524 C525 1.373 . S
C524 H537 0.929 . S
C525 C524 1.373 . S
C525 C526 1.396 . S
C525 C532 1.403 . S
C526 C516 1.476 . S
C526 N521 1.318 . S
C526 C525 1.396 . S
H527 C522 0.929 . S
O528 Mn504 2.385 . S
O528 C506 1.234 . S
O529 Mn504 2.209 . S
O529 Mn505 2.215 . S
O529 C506 1.283 . S
O530 Mn504 2.094 . S
O530 C508 1.240 . S
O531 Mn505 2.117 . S
O531 C508 1.264 . S
C532 C525 1.403 . S
C532 C533 1.399 . S
C532 H538 0.929 . S
C533 C513 1.449 . S
C533 C532 1.399 . S
C533 H539 0.930 . S
H534 C514 0.931 . S
H535 C515 0.930 . S
H536 C523 0.931 . S
H537 C524 0.929 . S
H538 C532 0.929 . S
H539 C533 0.930 . S
Mn540 O545 2.095 . S
Mn540 O555 2.162 . S
Mn540 O556 2.297 . S
Mn540 O564 2.385 . S
Mn540 O565 2.209 . S
Mn540 O566 2.094 . S
Mn541 O546 2.121 . S
Mn541 N548 2.257 1_556 S
Mn541 N557 2.282 1_556 S
Mn541 O565 2.215 . S
Mn541 O567 2.117 . S
C542 O564 1.234 . S
C542 O565 1.283 . S
C543 O555 1.281 . S
C543 O556 1.236 . S
C544 O566 1.240 . S
C544 O567 1.264 . S
O545 Mn540 2.095 . S
O545 C554 1.250 . S
O546 Mn541 2.121 . S
O546 C554 1.258 . S
C547 N548 1.326 1_655 S
C547 C551 1.460 . S
C547 H553 0.929 1_554 S
N548 Mn541 2.257 1_554 S
N548 C547 1.326 1_455 S
N548 C552 1.362 . S
C549 C550 1.258 1_455 S
C549 C552 1.431 . S
C549 C569 1.449 . S
C550 C549 1.258 1_655 S
C550 C551 1.477 . S
C550 H570 0.931 . S
C551 C547 1.460 . S
C551 C550 1.477 . S
C551 H571 0.930 . S
C552 N548 1.362 . S
C552 C549 1.431 . S
C552 C562 1.476 . S
H553 C547 0.929 1_556 S
C554 O545 1.250 . S
C554 O546 1.258 . S
O555 Mn540 2.162 . S
O555 C543 1.281 . S
O556 Mn540 2.297 . S
O556 C543 1.236 . S
N557 Mn541 2.282 1_554 S
N557 C558 1.328 . S
N557 C562 1.318 . S
C558 N557 1.328 . S
C558 C559 1.457 . S
C558 H563 0.929 1_554 S
C559 C558 1.457 . S
C559 C560 1.291 . S
C559 H572 0.931 . S
C560 C559 1.291 . S
C560 C561 1.373 . S
C560 H573 0.929 . S
C561 C560 1.373 . S
C561 C562 1.396 . S
C561 C568 1.403 . S
C562 C552 1.476 . S
C562 N557 1.318 . S
C562 C561 1.396 . S
H563 C558 0.929 1_556 S
O564 Mn540 2.385 . S
O564 C542 1.234 . S
O565 Mn540 2.209 . S
O565 Mn541 2.215 . S
O565 C542 1.283 . S
O566 Mn540 2.094 . S
O566 C544 1.240 . S
O567 Mn541 2.117 . S
O567 C544 1.264 . S
C568 C561 1.403 . S
C568 C569 1.399 . S
C568 H574 0.929 . S
C569 C549 1.449 . S
C569 C568 1.399 . S
C569 H575 0.930 . S
H570 C550 0.931 . S
H571 C551 0.930 . S
H572 C559 0.931 . S
H573 C560 0.929 . S
H574 C568 0.929 . S
H575 C569 0.930 . S
H576 C584 0.929 . S
H577 C586 0.930 . S
H578 C588 0.930 . S
H579 C591 0.929 . S
H580 C594 0.930 . S
H581 C596 0.960 . S
H582 C596 0.960 . S
H583 C596 0.960 . S
C584 H576 0.929 . S
C584 C585 1.377 . S
C584 C586 1.384 . S
C585 C584 1.377 . S
C585 C591 1.390 . S
C586 H577 0.930 . S
C586 C584 1.384 . S
C586 C587 1.372 . S
C587 C586 1.372 . S
C587 C588 1.400 . S
C587 C592 1.490 . S
C588 H578 0.930 . S
C588 C587 1.400 . S
C588 C591 1.386 . S
H589 C605 0.930 . S
H590 C606 0.931 . S
C591 H579 0.929 . S
C591 C585 1.390 . S
C591 C588 1.386 . S
C592 C587 1.490 . S
C592 C594 1.395 . S
C592 C595 1.403 . S
H593 C599 0.930 . S
C594 H580 0.930 . S
C594 C592 1.395 . S
C594 C597 1.403 . S
C595 C592 1.403 . S
C595 C596 1.524 . S
C595 C599 1.400 . S
C596 H581 0.960 . S
C596 H582 0.960 . S
C596 H583 0.960 . S
C596 C595 1.524 . S
C597 C594 1.403 . S
C597 C598 1.392 . S
C597 C601 1.495 . S
C598 C597 1.392 . S
C598 C599 1.385 . S
C598 C600 1.478 . S
C599 H593 0.930 . S
C599 C595 1.400 . S
C599 C598 1.385 . S
C600 C598 1.478 . S
C600 C602 1.381 . S
C600 C606 1.383 . S
C601 C597 1.495 . S
C601 H607 0.959 . S
C601 H608 0.961 . S
C601 H609 0.960 . S
C602 C600 1.381 . S
C602 C603 1.394 . S
C602 H610 0.930 . S
C603 C602 1.394 . S
C603 C604 1.383 . S
C603 H611 0.929 . S
C604 C603 1.383 . S
C604 C605 1.377 . S
C605 H589 0.930 . S
C605 C604 1.377 . S
C605 C606 1.379 . S
C606 H590 0.931 . S
C606 C600 1.383 . S
C606 C605 1.379 . S
H607 C601 0.959 . S
H608 C601 0.961 . S
H609 C601 0.960 . S
H610 C602 0.930 . S
H611 C603 0.929 . S
H612 C620 0.929 . S
H613 C622 0.930 . S
H614 C624 0.930 . S
H615 C627 0.929 . S
H616 C630 0.930 . S
H617 C632 0.960 . S
H618 C632 0.960 . S
H619 C632 0.960 . S
C620 H612 0.929 . S
C620 C621 1.377 . S
C620 C622 1.384 . S
C621 C620 1.377 . S
C621 C627 1.390 . S
C622 H613 0.930 . S
C622 C620 1.384 . S
C622 C623 1.372 . S
C623 C622 1.372 . S
C623 C624 1.400 . S
C623 C628 1.490 . S
C624 H614 0.930 . S
C624 C623 1.400 . S
C624 C627 1.386 . S
H625 C641 0.930 . S
H626 C642 0.931 . S
C627 H615 0.929 . S
C627 C621 1.390 . S
C627 C624 1.386 . S
C628 C623 1.490 . S
C628 C630 1.395 . S
C628 C631 1.403 . S
H629 C635 0.930 . S
C630 H616 0.930 . S
C630 C628 1.395 . S
C630 C633 1.403 . S
C631 C628 1.403 . S
C631 C632 1.524 . S
C631 C635 1.400 . S
C632 H617 0.960 . S
C632 H618 0.960 . S
C632 H619 0.960 . S
C632 C631 1.524 . S
C633 C630 1.403 . S
C633 C634 1.392 . S
C633 C637 1.495 . S
C634 C633 1.392 . S
C634 C635 1.385 . S
C634 C636 1.478 . S
C635 H629 0.930 . S
C635 C631 1.400 . S
C635 C634 1.385 . S
C636 C634 1.478 . S
C636 C638 1.381 . S
C636 C642 1.383 . S
C637 C633 1.495 . S
C637 H643 0.959 . S
C637 H644 0.961 . S
C637 H645 0.960 . S
C638 C636 1.381 . S
C638 C639 1.394 . S
C638 H646 0.930 . S
C639 C638 1.394 . S
C639 C640 1.383 . S
C639 H647 0.929 . S
C640 C639 1.383 . S
C640 C641 1.377 . S
C641 H625 0.930 . S
C641 C640 1.377 . S
C641 C642 1.379 . S
C642 H626 0.931 . S
C642 C636 1.383 . S
C642 C641 1.379 . S
H643 C637 0.959 . S
H644 C637 0.961 . S
H645 C637 0.960 . S
H646 C638 0.930 . S
H647 C639 0.929 . S
H648 C656 0.929 . S
H649 C658 0.930 . S
H650 C660 0.930 . S
H651 C663 0.929 . S
H652 C666 0.930 . S
H653 C668 0.960 . S
H654 C668 0.960 . S
H655 C668 0.960 . S
C656 H648 0.929 . S
C656 C657 1.377 . S
C656 C658 1.384 . S
C657 C656 1.377 . S
C657 C663 1.390 . S
C658 H649 0.930 . S
C658 C656 1.384 . S
C658 C659 1.372 . S
C659 C658 1.372 . S
C659 C660 1.400 . S
C659 C664 1.490 . S
C660 H650 0.930 . S
C660 C659 1.400 . S
C660 C663 1.386 . S
H661 C677 0.930 . S
H662 C678 0.931 . S
C663 H651 0.929 . S
C663 C657 1.390 . S
C663 C660 1.386 . S
C664 C659 1.490 . S
C664 C666 1.395 . S
C664 C667 1.403 . S
H665 C671 0.930 . S
C666 H652 0.930 . S
C666 C664 1.395 . S
C666 C669 1.403 . S
C667 C664 1.403 . S
C667 C668 1.524 . S
C667 C671 1.400 . S
C668 H653 0.960 . S
C668 H654 0.960 . S
C668 H655 0.960 . S
C668 C667 1.524 . S
C669 C666 1.403 . S
C669 C670 1.392 . S
C669 C673 1.495 . S
C670 C669 1.392 . S
C670 C671 1.385 . S
C670 C672 1.478 . S
C671 H665 0.930 . S
C671 C667 1.400 . S
C671 C670 1.385 . S
C672 C670 1.478 . S
C672 C674 1.381 . S
C672 C678 1.383 . S
C673 C669 1.495 . S
C673 H679 0.959 . S
C673 H680 0.961 . S
C673 H681 0.960 . S
C674 C672 1.381 . S
C674 C675 1.394 . S
C674 H682 0.930 . S
C675 C674 1.394 . S
C675 C676 1.383 . S
C675 H683 0.929 . S
C676 C675 1.383 . S
C676 C677 1.377 . S
C677 H661 0.930 . S
C677 C676 1.377 . S
C677 C678 1.379 . S
C678 H662 0.931 . S
C678 C672 1.383 . S
C678 C677 1.379 . S
H679 C673 0.959 . S
H680 C673 0.961 . S
H681 C673 0.960 . S
H682 C674 0.930 . S
H683 C675 0.929 . S
H684 C692 0.929 . S
H685 C694 0.930 . S
H686 C696 0.930 . S
H687 C699 0.929 . S
H688 C702 0.930 . S
H689 C704 0.960 . S
H690 C704 0.960 . S
H691 C704 0.960 . S
C692 H684 0.929 . S
C692 C693 1.374 1_556 S
C692 C694 1.384 . S
C693 C692 1.374 1_554 S
C693 C699 1.391 . S
C694 H685 0.930 . S
C694 C692 1.384 . S
C694 C695 1.372 . S
C695 C694 1.372 . S
C695 C696 1.400 . S
C695 C700 1.490 . S
C696 H686 0.930 . S
C696 C695 1.400 . S
C696 C699 1.386 1_556 S
H697 C713 0.930 . S
H698 C714 0.931 . S
C699 H687 0.929 . S
C699 C693 1.391 . S
C699 C696 1.386 1_554 S
C700 C695 1.490 . S
C700 C702 1.395 . S
C700 C703 1.403 . S
H701 C707 0.930 . S
C702 H688 0.930 . S
C702 C700 1.395 . S
C702 C705 1.403 . S
C703 C700 1.403 . S
C703 C704 1.524 . S
C703 C707 1.400 . S
C704 H689 0.960 . S
C704 H690 0.960 . S
C704 H691 0.960 . S
C704 C703 1.524 . S
C705 C702 1.403 . S
C705 C706 1.392 . S
C705 C709 1.495 . S
C706 C705 1.392 . S
C706 C707 1.385 . S
C706 C708 1.478 . S
C707 H701 0.930 . S
C707 C703 1.400 . S
C707 C706 1.385 . S
C708 C706 1.478 . S
C708 C710 1.381 . S
C708 C714 1.383 . S
C709 C705 1.495 . S
C709 H715 0.963 . S
C709 H716 0.961 . S
C709 H717 0.960 . S
C710 C708 1.381 . S
C710 C711 1.394 1_655 S
C710 H718 0.930 . S
C711 C710 1.394 1_455 S
C711 C712 1.383 1_455 S
C711 H719 0.929 . S
C712 C711 1.383 1_655 S
C712 C713 1.377 . S
C713 H697 0.930 . S
C713 C712 1.377 . S
C713 C714 1.379 . S
C714 H698 0.931 . S
C714 C708 1.383 . S
C714 C713 1.379 . S
H715 C709 0.963 . S
H716 C709 0.961 . S
H717 C709 0.960 . S
H718 C710 0.930 . S
H719 C711 0.929 . S
H720 C728 0.929 . S
H721 C730 0.930 . S
H722 C732 0.930 . S
H723 C735 0.929 . S
H724 C738 0.930 . S
H725 C740 0.960 . S
H726 C740 0.960 . S
H727 C740 0.960 . S
C728 H720 0.929 . S
C728 C729 1.377 . S
C728 C730 1.384 . S
C729 C728 1.377 . S
C729 C735 1.390 . S
C730 H721 0.930 . S
C730 C728 1.384 . S
C730 C731 1.372 . S
C731 C730 1.372 . S
C731 C732 1.400 . S
C731 C736 1.490 . S
C732 H722 0.930 . S
C732 C731 1.400 . S
C732 C735 1.386 . S
H733 C749 0.930 . S
H734 C750 0.931 . S
C735 H723 0.929 . S
C735 C729 1.390 . S
C735 C732 1.386 . S
C736 C731 1.490 . S
C736 C738 1.395 . S
C736 C739 1.403 . S
H737 C743 0.930 . S
C738 H724 0.930 . S
C738 C736 1.395 . S
C738 C741 1.403 . S
C739 C736 1.403 . S
C739 C740 1.524 . S
C739 C743 1.400 . S
C740 H725 0.960 . S
C740 H726 0.960 . S
C740 H727 0.960 . S
C740 C739 1.524 . S
C741 C738 1.403 . S
C741 C742 1.392 . S
C741 C745 1.495 . S
C742 C741 1.392 . S
C742 C743 1.385 . S
C742 C744 1.478 . S
C743 H737 0.930 . S
C743 C739 1.400 . S
C743 C742 1.385 . S
C744 C742 1.478 . S
C744 C746 1.381 . S
C744 C750 1.383 1_556 S
C745 C741 1.495 . S
C745 H751 0.959 . S
C745 H752 0.961 . S
C745 H753 0.960 . S
C746 C744 1.381 . S
C746 C747 1.394 . S
C746 H754 0.930 . S
C747 C746 1.394 . S
C747 C748 1.383 1_556 S
C747 H755 0.929 . S
C748 C747 1.383 1_554 S
C748 C749 1.377 . S
C749 H733 0.930 . S
C749 C748 1.377 . S
C749 C750 1.379 . S
C750 H734 0.931 . S
C750 C744 1.383 1_554 S
C750 C749 1.379 . S
H751 C745 0.959 . S
H752 C745 0.961 . S
H753 C745 0.960 . S
H754 C746 0.930 . S
H755 C747 0.929 . S
H756 C764 0.929 . S
H757 C766 0.930 . S
H758 C768 0.930 . S
H759 C771 0.929 . S
H760 C774 0.930 . S
H761 C776 0.960 . S
H762 C776 0.960 . S
H763 C776 0.960 . S
C764 H756 0.929 . S
C764 C765 1.377 . S
C764 C766 1.384 . S
C765 C764 1.377 . S
C765 C771 1.390 . S
C766 H757 0.930 . S
C766 C764 1.384 . S
C766 C767 1.372 . S
C767 C766 1.372 . S
C767 C768 1.400 . S
C767 C772 1.490 . S
C768 H758 0.930 . S
C768 C767 1.400 . S
C768 C771 1.386 . S
H769 C785 0.930 . S
H770 C786 0.931 . S
C771 H759 0.929 . S
C771 C765 1.390 . S
C771 C768 1.386 . S
C772 C767 1.490 . S
C772 C774 1.395 . S
C772 C775 1.403 . S
H773 C779 0.930 . S
C774 H760 0.930 . S
C774 C772 1.395 . S
C774 C777 1.403 . S
C775 C772 1.403 . S
C775 C776 1.524 . S
C775 C779 1.400 . S
C776 H761 0.960 . S
C776 H762 0.960 . S
C776 H763 0.960 . S
C776 C775 1.524 . S
C777 C774 1.403 . S
C777 C778 1.392 . S
C777 C781 1.495 . S
C778 C777 1.392 . S
C778 C779 1.385 . S
C778 C780 1.478 . S
C779 H773 0.930 . S
C779 C775 1.400 . S
C779 C778 1.385 . S
C780 C778 1.478 . S
C780 C782 1.381 . S
C780 C786 1.383 . S
C781 C777 1.495 . S
C781 H787 0.959 . S
C781 H788 0.961 . S
C781 H789 0.960 . S
C782 C780 1.381 . S
C782 C783 1.394 . S
C782 H790 0.930 . S
C783 C782 1.394 . S
C783 C784 1.383 . S
C783 H791 0.929 . S
C784 C783 1.383 . S
C784 C785 1.377 . S
C785 H769 0.930 . S
C785 C784 1.377 . S
C785 C786 1.379 . S
C786 H770 0.931 . S
C786 C780 1.383 . S
C786 C785 1.379 . S
H787 C781 0.959 . S
H788 C781 0.961 . S
H789 C781 0.960 . S
H790 C782 0.930 . S
H791 C783 0.929 . S
H792 C800 0.929 . S
H793 C802 0.930 . S
H794 C804 0.930 . S
H795 C807 0.929 . S
H796 C810 0.930 . S
H797 C812 0.960 . S
H798 C812 0.960 . S
H799 C812 0.960 . S
C800 H792 0.929 . S
C800 C801 1.377 . S
C800 C802 1.384 . S
C801 C800 1.377 . S
C801 C807 1.390 . S
C802 H793 0.930 . S
C802 C800 1.384 . S
C802 C803 1.372 . S
C803 C802 1.372 . S
C803 C804 1.400 . S
C803 C808 1.490 . S
C804 H794 0.930 . S
C804 C803 1.400 . S
C804 C807 1.386 . S
H805 C821 0.930 . S
H806 C822 0.931 . S
C807 H795 0.929 . S
C807 C801 1.390 . S
C807 C804 1.386 . S
C808 C803 1.490 . S
C808 C810 1.395 . S
C808 C811 1.403 . S
H809 C815 0.930 . S
C810 H796 0.930 . S
C810 C808 1.395 . S
C810 C813 1.403 . S
C811 C808 1.403 . S
C811 C812 1.524 . S
C811 C815 1.400 . S
C812 H797 0.960 . S
C812 H798 0.960 . S
C812 H799 0.960 . S
C812 C811 1.524 . S
C813 C810 1.403 . S
C813 C814 1.392 . S
C813 C817 1.495 . S
C814 C813 1.392 . S
C814 C815 1.385 . S
C814 C816 1.478 . S
C815 H809 0.930 . S
C815 C811 1.400 . S
C815 C814 1.385 . S
C816 C814 1.478 . S
C816 C818 1.381 . S
C816 C822 1.383 . S
C817 C813 1.495 . S
C817 H823 0.959 . S
C817 H824 0.961 . S
C817 H825 0.960 . S
C818 C816 1.381 . S
C818 C819 1.394 . S
C818 H826 0.930 . S
C819 C818 1.394 . S
C819 C820 1.383 . S
C819 H827 0.929 . S
C820 C819 1.383 . S
C820 C821 1.377 . S
C821 H805 0.930 . S
C821 C820 1.377 . S
C821 C822 1.379 . S
C822 H806 0.931 . S
C822 C816 1.383 . S
C822 C821 1.379 . S
H823 C817 0.959 . S
H824 C817 0.961 . S
H825 C817 0.960 . S
H826 C818 0.930 . S
H827 C819 0.929 . S
H828 C836 0.929 . S
H829 C838 0.930 . S
H830 C840 0.930 . S
H831 C843 0.929 . S
H832 C846 0.930 . S
H833 C848 0.960 . S
H834 C848 0.960 . S
H835 C848 0.960 . S
C836 H828 0.929 . S
C836 C837 1.377 . S
C836 C838 1.384 . S
C837 C836 1.377 . S
C837 C843 1.390 . S
C838 H829 0.930 . S
C838 C836 1.384 . S
C838 C839 1.372 . S
C839 C838 1.372 . S
C839 C840 1.400 . S
C839 C844 1.490 . S
C840 H830 0.930 . S
C840 C839 1.400 . S
C840 C843 1.386 . S
H841 C857 0.930 . S
H842 C858 0.931 . S
C843 H831 0.929 . S
C843 C837 1.390 . S
C843 C840 1.386 . S
C844 C839 1.490 . S
C844 C846 1.395 . S
C844 C847 1.403 . S
H845 C851 0.930 . S
C846 H832 0.930 . S
C846 C844 1.395 . S
C846 C849 1.403 . S
C847 C844 1.403 . S
C847 C848 1.524 . S
C847 C851 1.400 . S
C848 H833 0.960 . S
C848 H834 0.960 . S
C848 H835 0.960 . S
C848 C847 1.524 . S
C849 C846 1.403 . S
C849 C850 1.392 . S
C849 C853 1.495 . S
C850 C849 1.392 . S
C850 C851 1.385 . S
C850 C852 1.478 . S
C851 H845 0.930 . S
C851 C847 1.400 . S
C851 C850 1.385 . S
C852 C850 1.478 . S
C852 C854 1.381 . S
C852 C858 1.383 . S
C853 C849 1.495 . S
C853 H859 0.959 . S
C853 H860 0.961 . S
C853 H861 0.960 . S
C854 C852 1.381 . S
C854 C855 1.394 . S
C854 H862 0.930 . S
C855 C854 1.394 . S
C855 C856 1.383 . S
C855 H863 0.929 . S
C856 C855 1.383 . S
C856 C857 1.377 . S
C857 H841 0.930 . S
C857 C856 1.377 . S
C857 C858 1.379 . S
C858 H842 0.931 . S
C858 C852 1.383 . S
C858 C857 1.379 . S
H859 C853 0.959 . S
H860 C853 0.961 . S
H861 C853 0.960 . S
H862 C854 0.930 . S
H863 C855 0.929 . S
H864 C872 0.929 1_455 S
H865 C874 0.930 . S
H866 C876 0.930 . S
H867 C879 0.929 . S
H868 C882 0.930 . S
H869 C884 0.960 . S
H870 C884 0.960 . S
H871 C884 0.960 . S
C872 H864 0.929 1_655 S
C872 C873 1.377 1_655 S
C872 C874 1.384 . S
C873 C872 1.377 1_455 S
C873 C879 1.390 1_455 S
C874 H865 0.930 . S
C874 C872 1.384 . S
C874 C875 1.372 . S
C875 C874 1.372 . S
C875 C876 1.400 . S
C875 C880 1.490 . S
C876 H866 0.930 . S
C876 C875 1.400 . S
C876 C879 1.386 . S
H877 C893 0.930 . S
H878 C894 0.931 . S
C879 H867 0.929 . S
C879 C873 1.390 1_655 S
C879 C876 1.386 . S
C880 C875 1.490 . S
C880 C882 1.395 . S
C880 C883 1.403 . S
H881 C887 0.930 . S
C882 H868 0.930 . S
C882 C880 1.395 . S
C882 C885 1.403 . S
C883 C880 1.403 . S
C883 C884 1.524 . S
C883 C887 1.400 . S
C884 H869 0.960 . S
C884 H870 0.960 . S
C884 H871 0.960 . S
C884 C883 1.524 . S
C885 C882 1.403 . S
C885 C886 1.392 . S
C885 C889 1.495 . S
C886 C885 1.392 . S
C886 C887 1.385 . S
C886 C888 1.478 . S
C887 H881 0.930 . S
C887 C883 1.400 . S
C887 C886 1.385 . S
C888 C886 1.478 . S
C888 C890 1.381 1_556 S
C888 C894 1.383 . S
C889 C885 1.495 . S
C889 H895 0.959 . S
C889 H896 0.961 . S
C889 H897 0.960 1_556 S
C890 C888 1.381 1_554 S
C890 C891 1.394 . S
C890 H898 0.930 . S
C891 C890 1.394 . S
C891 C892 1.383 1_554 S
C891 H899 0.929 . S
C892 C891 1.383 1_556 S
C892 C893 1.377 . S
C893 H877 0.930 . S
C893 C892 1.377 . S
C893 C894 1.379 . S
C894 H878 0.931 . S
C894 C888 1.383 . S
C894 C893 1.379 . S
H895 C889 0.959 . S
H896 C889 0.961 . S
H897 C889 0.960 1_554 S
H898 C890 0.930 . S
H899 C891 0.929 . S
H900 C908 0.929 . S
H901 C910 0.930 . S
H902 C912 0.930 . S
H903 C915 0.929 . S
H904 C918 0.930 . S
H905 C920 0.960 . S
H906 C920 0.960 . S
H907 C920 0.960 . S
C908 H900 0.929 . S
C908 C909 1.377 . S
C908 C910 1.384 . S
C909 C908 1.377 . S
C909 C915 1.390 . S
C910 H901 0.930 . S
C910 C908 1.384 . S
C910 C911 1.372 . S
C911 C910 1.372 . S
C911 C912 1.400 . S
C911 C916 1.490 . S
C912 H902 0.930 . S
C912 C911 1.400 . S
C912 C915 1.386 . S
H913 C929 0.930 . S
H914 C930 0.931 . S
C915 H903 0.929 . S
C915 C909 1.390 . S
C915 C912 1.386 . S
C916 C911 1.490 . S
C916 C918 1.395 . S
C916 C919 1.403 . S
H917 C923 0.930 . S
C918 H904 0.930 . S
C918 C916 1.395 . S
C918 C921 1.403 . S
C919 C916 1.403 . S
C919 C920 1.524 . S
C919 C923 1.400 . S
C920 H905 0.960 . S
C920 H906 0.960 . S
C920 H907 0.960 . S
C920 C919 1.524 . S
C921 C918 1.403 . S
C921 C922 1.392 . S
C921 C925 1.495 . S
C922 C921 1.392 . S
C922 C923 1.385 . S
C922 C924 1.478 . S
C923 H917 0.930 . S
C923 C919 1.400 . S
C923 C922 1.385 . S
C924 C922 1.478 . S
C924 C926 1.381 . S
C924 C930 1.383 . S
C925 C921 1.495 . S
C925 H931 0.959 . S
C925 H932 0.961 . S
C925 H933 0.960 . S
C926 C924 1.381 . S
C926 C927 1.394 . S
C926 H934 0.930 . S
C927 C926 1.394 . S
C927 C928 1.383 . S
C927 H935 0.929 . S
C928 C927 1.383 . S
C928 C929 1.377 . S
C929 H913 0.930 . S
C929 C928 1.377 . S
C929 C930 1.379 . S
C930 H914 0.931 . S
C930 C924 1.383 . S
C930 C929 1.379 . S
H931 C925 0.959 . S
H932 C925 0.961 . S
H933 C925 0.960 . S
H934 C926 0.930 . S
H935 C927 0.929 . S
H936 C944 0.929 . S
H937 C946 0.930 . S
H938 C948 0.930 . S
H939 C951 0.929 . S
H940 C954 0.930 . S
H941 C956 0.960 . S
H942 C956 0.960 . S
H943 C956 0.960 . S
C944 H936 0.929 . S
C944 C945 1.377 . S
C944 C946 1.384 . S
C945 C944 1.377 . S
C945 C951 1.390 . S
C946 H937 0.930 . S
C946 C944 1.384 . S
C946 C947 1.372 . S
C947 C946 1.372 . S
C947 C948 1.400 . S
C947 C952 1.490 . S
C948 H938 0.930 . S
C948 C947 1.400 . S
C948 C951 1.386 . S
H949 C965 0.930 . S
H950 C966 0.931 . S
C951 H939 0.929 . S
C951 C945 1.390 . S
C951 C948 1.386 . S
C952 C947 1.490 . S
C952 C954 1.395 . S
C952 C955 1.403 . S
H953 C959 0.930 . S
C954 H940 0.930 . S
C954 C952 1.395 . S
C954 C957 1.403 . S
C955 C952 1.403 . S
C955 C956 1.524 . S
C955 C959 1.400 . S
C956 H941 0.960 . S
C956 H942 0.960 . S
C956 H943 0.960 . S
C956 C955 1.524 . S
C957 C954 1.403 . S
C957 C958 1.392 . S
C957 C961 1.495 . S
C958 C957 1.392 . S
C958 C959 1.385 . S
C958 C960 1.478 . S
C959 H953 0.930 . S
C959 C955 1.400 . S
C959 C958 1.385 . S
C960 C958 1.478 . S
C960 C962 1.381 . S
C960 C966 1.383 . S
C961 C957 1.495 . S
C961 H967 0.959 . S
C961 H968 0.961 . S
C961 H969 0.960 . S
C962 C960 1.381 . S
C962 C963 1.394 . S
C962 H970 0.930 . S
C963 C962 1.394 . S
C963 C964 1.383 . S
C963 H971 0.929 . S
C964 C963 1.383 . S
C964 C965 1.377 . S
C965 H949 0.930 . S
C965 C964 1.377 . S
C965 C966 1.379 . S
C966 H950 0.931 . S
C966 C960 1.383 . S
C966 C965 1.379 . S
H967 C961 0.959 . S
H968 C961 0.961 . S
H969 C961 0.960 . S
H970 C962 0.930 . S
H971 C963 0.929 . S
H972 C980 0.929 . S
H973 C982 0.930 . S
H974 C984 0.930 . S
H975 C987 0.929 . S
H976 C990 0.930 . S
H977 C992 0.960 . S
H978 C992 0.960 . S
H979 C992 0.960 . S
C980 H972 0.929 . S
C980 C981 1.377 . S
C980 C982 1.384 . S
C981 C980 1.377 . S
C981 C987 1.390 . S
C982 H973 0.930 . S
C982 C980 1.384 . S
C982 C983 1.372 . S
C983 C982 1.372 . S
C983 C984 1.400 . S
C983 C988 1.490 . S
C984 H974 0.930 . S
C984 C983 1.400 . S
C984 C987 1.386 . S
H985 C1001 0.930 . S
H986 C1002 0.931 . S
C987 H975 0.929 . S
C987 C981 1.390 . S
C987 C984 1.386 . S
C988 C983 1.490 . S
C988 C990 1.395 . S
C988 C991 1.403 . S
H989 C995 0.930 . S
C990 H976 0.930 . S
C990 C988 1.395 . S
C990 C993 1.403 . S
C991 C988 1.403 . S
C991 C992 1.524 . S
C991 C995 1.400 . S
C992 H977 0.960 . S
C992 H978 0.960 . S
C992 H979 0.960 . S
C992 C991 1.524 . S
C993 C990 1.403 . S
C993 C994 1.392 . S
C993 C997 1.495 . S
C994 C993 1.392 . S
C994 C995 1.385 . S
C994 C996 1.478 . S
C995 H989 0.930 . S
C995 C991 1.400 . S
C995 C994 1.385 . S
C996 C994 1.478 . S
C996 C998 1.381 . S
C996 C1002 1.383 . S
C997 C993 1.495 . S
C997 H1003 0.959 . S
C997 H1004 0.961 . S
C997 H1005 0.960 . S
C998 C996 1.381 . S
C998 C999 1.394 . S
C998 H1006 0.930 . S
C999 C998 1.394 . S
C999 C1000 1.383 . S
C999 H1007 0.929 . S
C1000 C999 1.383 . S
C1000 C1001 1.377 . S
C1001 H985 0.930 . S
C1001 C1000 1.377 . S
C1001 C1002 1.379 . S
C1002 H986 0.931 . S
C1002 C996 1.383 . S
C1002 C1001 1.379 . S
H1003 C997 0.959 . S
H1004 C997 0.961 . S
H1005 C997 0.960 . S
H1006 C998 0.930 . S
H1007 C999 0.929 . S
H1008 C1016 0.929 . S
H1009 C1018 0.930 . S
H1010 C1020 0.930 . S
H1011 C1023 0.929 . S
H1012 C1026 0.930 . S
H1013 C1028 0.960 . S
H1014 C1028 0.960 . S
H1015 C1028 0.960 . S
C1016 H1008 0.929 . S
C1016 C1017 1.377 . S
C1016 C1018 1.384 1_455 S
C1017 C1016 1.377 . S
C1017 C1023 1.390 1_455 S
C1018 H1009 0.930 . S
C1018 C1016 1.384 1_655 S
C1018 C1019 1.372 . S
C1019 C1018 1.372 . S
C1019 C1020 1.400 . S
C1019 C1024 1.490 . S
C1020 H1010 0.930 . S
C1020 C1019 1.400 . S
C1020 C1023 1.386 . S
H1021 C1037 0.930 . S
H1022 C1038 0.931 . S
C1023 H1011 0.929 . S
C1023 C1017 1.390 1_655 S
C1023 C1020 1.386 . S
C1024 C1019 1.490 . S
C1024 C1026 1.395 . S
C1024 C1027 1.403 . S
H1025 C1031 0.930 . S
C1026 H1012 0.930 . S
C1026 C1024 1.395 . S
C1026 C1029 1.403 . S
C1027 C1024 1.403 . S
C1027 C1028 1.524 . S
C1027 C1031 1.400 . S
C1028 H1013 0.960 . S
C1028 H1014 0.960 . S
C1028 H1015 0.960 . S
C1028 C1027 1.524 . S
C1029 C1026 1.403 . S
C1029 C1030 1.392 . S
C1029 C1033 1.495 . S
C1030 C1029 1.392 . S
C1030 C1031 1.385 . S
C1030 C1032 1.478 . S
C1031 H1025 0.930 . S
C1031 C1027 1.400 . S
C1031 C1030 1.385 . S
C1032 C1030 1.478 . S
C1032 C1034 1.381 . S
C1032 C1038 1.383 . S
C1033 C1029 1.495 . S
C1033 H1039 0.959 . S
C1033 H1040 0.961 . S
C1033 H1041 0.960 . S
C1034 C1032 1.381 . S
C1034 C1035 1.394 . S
C1034 H1042 0.930 . S
C1035 C1034 1.394 . S
C1035 C1036 1.383 . S
C1035 H1043 0.929 . S
C1036 C1035 1.383 . S
C1036 C1037 1.377 . S
C1037 H1021 0.930 . S
C1037 C1036 1.377 . S
C1037 C1038 1.379 . S
C1038 H1022 0.931 . S
C1038 C1032 1.383 . S
C1038 C1037 1.379 . S
H1039 C1033 0.959 . S
H1040 C1033 0.961 . S
H1041 C1033 0.960 . S
H1042 C1034 0.930 . S
H1043 C1035 0.929 . S
H1044 C1052 0.929 . S
H1045 C1054 0.930 . S
H1046 C1056 0.930 . S
H1047 C1059 0.929 . S
H1048 C1062 0.930 . S
H1049 C1064 0.960 . S
H1050 C1064 0.960 . S
H1051 C1064 0.960 . S
C1052 H1044 0.929 . S
C1052 C1053 1.377 . S
C1052 C1054 1.384 . S
C1053 C1052 1.377 . S
C1053 C1059 1.390 . S
C1054 H1045 0.930 . S
C1054 C1052 1.384 . S
C1054 C1055 1.372 . S
C1055 C1054 1.372 . S
C1055 C1056 1.400 . S
C1055 C1060 1.490 . S
C1056 H1046 0.930 . S
C1056 C1055 1.400 . S
C1056 C1059 1.386 . S
H1057 C1073 0.930 . S
H1058 C1074 0.931 . S
C1059 H1047 0.929 . S
C1059 C1053 1.390 . S
C1059 C1056 1.386 . S
C1060 C1055 1.490 . S
C1060 C1062 1.395 . S
C1060 C1063 1.403 . S
H1061 C1067 0.930 1_554 S
C1062 H1048 0.930 . S
C1062 C1060 1.395 . S
C1062 C1065 1.403 . S
C1063 C1060 1.403 . S
C1063 C1064 1.524 1_556 S
C1063 C1067 1.400 . S
C1064 H1049 0.960 . S
C1064 H1050 0.960 . S
C1064 H1051 0.960 . S
C1064 C1063 1.524 1_554 S
C1065 C1062 1.403 . S
C1065 C1066 1.392 . S
C1065 C1069 1.495 . S
C1066 C1065 1.392 . S
C1066 C1067 1.385 . S
C1066 C1068 1.478 . S
C1067 H1061 0.930 1_556 S
C1067 C1063 1.400 . S
C1067 C1066 1.385 . S
C1068 C1066 1.478 . S
C1068 C1070 1.381 . S
C1068 C1074 1.383 . S
C1069 C1065 1.495 . S
C1069 H1075 0.959 . S
C1069 H1076 0.961 . S
C1069 H1077 0.960 . S
C1070 C1068 1.381 . S
C1070 C1071 1.394 . S
C1070 H1078 0.930 . S
C1071 C1070 1.394 . S
C1071 C1072 1.383 . S
C1071 H1079 0.929 . S
C1072 C1071 1.383 . S
C1072 C1073 1.377 . S
C1073 H1057 0.930 . S
C1073 C1072 1.377 . S
C1073 C1074 1.379 . S
C1074 H1058 0.931 . S
C1074 C1068 1.383 . S
C1074 C1073 1.379 . S
H1075 C1069 0.959 . S
H1076 C1069 0.961 . S
H1077 C1069 0.960 . S
H1078 C1070 0.930 . S
H1079 C1071 0.929 . S
H1080 C1088 0.929 . S
H1081 C1090 0.930 . S
H1082 C1092 0.930 . S
H1083 C1095 0.929 . S
H1084 C1098 0.930 . S
H1085 C1100 0.960 . S
H1086 C1100 0.960 . S
H1087 C1100 0.960 . S
C1088 H1080 0.929 . S
C1088 C1089 1.377 . S
C1088 C1090 1.384 . S
C1089 C1088 1.377 . S
C1089 C1095 1.390 . S
C1090 H1081 0.930 . S
C1090 C1088 1.384 . S
C1090 C1091 1.372 . S
C1091 C1090 1.372 . S
C1091 C1092 1.400 . S
C1091 C1096 1.490 . S
C1092 H1082 0.930 . S
C1092 C1091 1.400 . S
C1092 C1095 1.386 . S
H1093 C1109 0.930 . S
H1094 C1110 0.931 . S
C1095 H1083 0.929 . S
C1095 C1089 1.390 . S
C1095 C1092 1.386 . S
C1096 C1091 1.490 . S
C1096 C1098 1.395 . S
C1096 C1099 1.403 . S
H1097 C1103 0.930 . S
C1098 H1084 0.930 . S
C1098 C1096 1.395 . S
C1098 C1101 1.403 . S
C1099 C1096 1.403 . S
C1099 C1100 1.524 . S
C1099 C1103 1.400 . S
C1100 H1085 0.960 . S
C1100 H1086 0.960 . S
C1100 H1087 0.960 . S
C1100 C1099 1.524 . S
C1101 C1098 1.403 . S
C1101 C1102 1.392 . S
C1101 C1105 1.495 . S
C1102 C1101 1.392 . S
C1102 C1103 1.385 . S
C1102 C1104 1.478 . S
C1103 H1097 0.930 . S
C1103 C1099 1.400 . S
C1103 C1102 1.385 . S
C1104 C1102 1.478 . S
C1104 C1106 1.381 . S
C1104 C1110 1.383 . S
C1105 C1101 1.495 . S
C1105 H1111 0.959 . S
C1105 H1112 0.961 . S
C1105 H1113 0.960 . S
C1106 C1104 1.381 . S
C1106 C1107 1.394 . S
C1106 H1114 0.930 . S
C1107 C1106 1.394 . S
C1107 C1108 1.383 . S
C1107 H1115 0.929 . S
C1108 C1107 1.383 . S
C1108 C1109 1.377 . S
C1109 H1093 0.930 . S
C1109 C1108 1.377 . S
C1109 C1110 1.379 . S
C1110 H1094 0.931 . S
C1110 C1104 1.383 . S
C1110 C1109 1.379 . S
H1111 C1105 0.959 . S
H1112 C1105 0.961 . S
H1113 C1105 0.960 . S
H1114 C1106 0.930 . S
H1115 C1107 0.929 . S
H1116 C1124 0.929 . S
H1117 C1126 0.930 . S
H1118 C1128 0.930 . S
H1119 C1131 0.929 . S
H1120 C1134 0.930 . S
H1121 C1136 0.960 . S
H1122 C1136 0.960 . S
H1123 C1136 0.960 . S
C1124 H1116 0.929 . S
C1124 C1125 1.377 . S
C1124 C1126 1.384 . S
C1125 C1124 1.377 . S
C1125 C1131 1.390 . S
C1126 H1117 0.930 . S
C1126 C1124 1.384 . S
C1126 C1127 1.372 . S
C1127 C1126 1.372 . S
C1127 C1128 1.400 . S
C1127 C1132 1.490 . S
C1128 H1118 0.930 . S
C1128 C1127 1.400 . S
C1128 C1131 1.386 . S
H1129 C1145 0.930 . S
H1130 C1146 0.931 . S
C1131 H1119 0.929 . S
C1131 C1125 1.390 . S
C1131 C1128 1.386 . S
C1132 C1127 1.490 . S
C1132 C1134 1.395 . S
C1132 C1135 1.403 . S
H1133 C1139 0.930 . S
C1134 H1120 0.930 . S
C1134 C1132 1.395 . S
C1134 C1137 1.403 . S
C1135 C1132 1.403 . S
C1135 C1136 1.524 . S
C1135 C1139 1.400 . S
C1136 H1121 0.960 . S
C1136 H1122 0.960 . S
C1136 H1123 0.960 . S
C1136 C1135 1.524 . S
C1137 C1134 1.403 . S
C1137 C1138 1.392 . S
C1137 C1141 1.495 . S
C1138 C1137 1.392 . S
C1138 C1139 1.385 . S
C1138 C1140 1.478 . S
C1139 H1133 0.930 . S
C1139 C1135 1.400 . S
C1139 C1138 1.385 . S
C1140 C1138 1.478 . S
C1140 C1142 1.381 . S
C1140 C1146 1.383 . S
C1141 C1137 1.495 . S
C1141 H1147 0.959 . S
C1141 H1148 0.961 . S
C1141 H1149 0.960 . S
C1142 C1140 1.381 . S
C1142 C1143 1.394 . S
C1142 H1150 0.930 . S
C1143 C1142 1.394 . S
C1143 C1144 1.383 . S
C1143 H1151 0.929 . S
C1144 C1143 1.383 . S
C1144 C1145 1.377 . S
C1145 H1129 0.930 . S
C1145 C1144 1.377 . S
C1145 C1146 1.379 . S
C1146 H1130 0.931 . S
C1146 C1140 1.383 . S
C1146 C1145 1.379 . S
H1147 C1141 0.959 . S
H1148 C1141 0.961 . S
H1149 C1141 0.960 . S
H1150 C1142 0.930 . S
H1151 C1143 0.929 . S
H1152 C1160 0.929 . S
H1153 C1162 0.930 . S
H1154 C1164 0.930 . S
H1155 C1167 0.929 . S
H1156 C1170 0.930 . S
H1157 C1172 0.960 1_556 S
H1158 C1172 0.960 . S
H1159 C1172 0.960 . S
C1160 H1152 0.929 . S
C1160 C1161 1.377 . S
C1160 C1162 1.384 . S
C1161 C1160 1.377 . S
C1161 C1167 1.390 . S
C1162 H1153 0.930 . S
C1162 C1160 1.384 . S
C1162 C1163 1.372 . S
C1163 C1162 1.372 . S
C1163 C1164 1.400 . S
C1163 C1168 1.490 . S
C1164 H1154 0.930 . S
C1164 C1163 1.400 . S
C1164 C1167 1.386 . S
H1165 C1181 0.930 . S
H1166 C1182 0.931 . S
C1167 H1155 0.929 . S
C1167 C1161 1.390 . S
C1167 C1164 1.386 . S
C1168 C1163 1.490 . S
C1168 C1170 1.395 . S
C1168 C1171 1.403 . S
H1169 C1175 0.930 1_556 S
C1170 H1156 0.930 . S
C1170 C1168 1.395 . S
C1170 C1173 1.403 . S
C1171 C1168 1.403 . S
C1171 C1172 1.524 . S
C1171 C1175 1.400 . S
C1172 H1157 0.960 1_554 S
C1172 H1158 0.960 . S
C1172 H1159 0.960 . S
C1172 C1171 1.524 . S
C1173 C1170 1.403 . S
C1173 C1174 1.392 . S
C1173 C1177 1.495 . S
C1174 C1173 1.392 . S
C1174 C1175 1.385 . S
C1174 C1176 1.478 1_554 S
C1175 H1169 0.930 1_554 S
C1175 C1171 1.400 . S
C1175 C1174 1.385 . S
C1176 C1174 1.478 1_556 S
C1176 C1178 1.381 . S
C1176 C1182 1.383 . S
C1177 C1173 1.495 . S
C1177 H1183 0.959 . S
C1177 H1184 0.961 . S
C1177 H1185 0.960 . S
C1178 C1176 1.381 . S
C1178 C1179 1.394 . S
C1178 H1186 0.930 1_556 S
C1179 C1178 1.394 . S
C1179 C1180 1.383 . S
C1179 H1187 0.929 . S
C1180 C1179 1.383 . S
C1180 C1181 1.377 . S
C1181 H1165 0.930 . S
C1181 C1180 1.377 . S
C1181 C1182 1.379 . S
C1182 H1166 0.931 . S
C1182 C1176 1.383 . S
C1182 C1181 1.379 . S
H1183 C1177 0.959 . S
H1184 C1177 0.961 . S
H1185 C1177 0.960 . S
H1186 C1178 0.930 1_554 S
H1187 C1179 0.929 . S
H1188 C1196 0.929 . S
H1189 C1198 0.930 . S
H1190 C1200 0.930 . S
H1191 C1203 0.929 . S
H1192 C1206 0.930 . S
H1193 C1208 0.960 . S
H1194 C1208 0.960 . S
H1195 C1208 0.960 . S
C1196 H1188 0.929 . S
C1196 C1197 1.377 . S
C1196 C1198 1.384 . S
C1197 C1196 1.377 . S
C1197 C1203 1.390 . S
C1198 H1189 0.930 . S
C1198 C1196 1.384 . S
C1198 C1199 1.372 . S
C1199 C1198 1.372 . S
C1199 C1200 1.400 . S
C1199 C1204 1.490 . S
C1200 H1190 0.930 . S
C1200 C1199 1.400 . S
C1200 C1203 1.386 . S
H1201 C1217 0.930 . S
H1202 C1218 0.931 . S
C1203 H1191 0.929 . S
C1203 C1197 1.390 . S
C1203 C1200 1.386 . S
C1204 C1199 1.490 . S
C1204 C1206 1.395 . S
C1204 C1207 1.403 . S
H1205 C1211 0.930 . S
C1206 H1192 0.930 . S
C1206 C1204 1.395 . S
C1206 C1209 1.403 . S
C1207 C1204 1.403 . S
C1207 C1208 1.524 . S
C1207 C1211 1.400 . S
C1208 H1193 0.960 . S
C1208 H1194 0.960 . S
C1208 H1195 0.960 . S
C1208 C1207 1.524 . S
C1209 C1206 1.403 . S
C1209 C1210 1.392 . S
C1209 C1213 1.495 . S
C1210 C1209 1.392 . S
C1210 C1211 1.385 . S
C1210 C1212 1.478 . S
C1211 H1205 0.930 . S
C1211 C1207 1.400 . S
C1211 C1210 1.385 . S
C1212 C1210 1.478 . S
C1212 C1214 1.381 . S
C1212 C1218 1.383 . S
C1213 C1209 1.495 . S
C1213 H1219 0.959 . S
C1213 H1220 0.961 . S
C1213 H1221 0.960 . S
C1214 C1212 1.381 . S
C1214 C1215 1.394 . S
C1214 H1222 0.930 . S
C1215 C1214 1.394 . S
C1215 C1216 1.383 . S
C1215 H1223 0.929 . S
C1216 C1215 1.383 . S
C1216 C1217 1.377 . S
C1217 H1201 0.930 . S
C1217 C1216 1.377 . S
C1217 C1218 1.379 . S
C1218 H1202 0.931 . S
C1218 C1212 1.383 . S
C1218 C1217 1.379 . S
H1219 C1213 0.959 . S
H1220 C1213 0.961 . S
H1221 C1213 0.960 . S
H1222 C1214 0.930 . S
H1223 C1215 0.929 . S
H1224 C1232 0.929 . S
H1225 C1234 0.930 . S
H1226 C1236 0.930 . S
H1227 C1239 0.929 . S
H1228 C1242 0.930 . S
H1229 C1244 0.960 . S
H1230 C1244 0.960 . S
H1231 C1244 0.960 . S
C1232 H1224 0.929 . S
C1232 C1233 1.377 . S
C1232 C1234 1.384 . S
C1233 C1232 1.377 . S
C1233 C1239 1.390 . S
C1234 H1225 0.930 . S
C1234 C1232 1.384 . S
C1234 C1235 1.372 . S
C1235 C1234 1.372 . S
C1235 C1236 1.400 . S
C1235 C1240 1.490 . S
C1236 H1226 0.930 . S
C1236 C1235 1.400 . S
C1236 C1239 1.386 . S
H1237 C1253 0.930 . S
H1238 C1254 0.931 . S
C1239 H1227 0.929 . S
C1239 C1233 1.390 . S
C1239 C1236 1.386 . S
C1240 C1235 1.490 . S
C1240 C1242 1.395 . S
C1240 C1243 1.403 . S
H1241 C1247 0.930 . S
C1242 H1228 0.930 . S
C1242 C1240 1.395 . S
C1242 C1245 1.403 . S
C1243 C1240 1.403 . S
C1243 C1244 1.524 . S
C1243 C1247 1.400 . S
C1244 H1229 0.960 . S
C1244 H1230 0.960 . S
C1244 H1231 0.960 . S
C1244 C1243 1.524 . S
C1245 C1242 1.403 . S
C1245 C1246 1.392 . S
C1245 C1249 1.495 . S
C1246 C1245 1.392 . S
C1246 C1247 1.385 . S
C1246 C1248 1.478 . S
C1247 H1241 0.930 . S
C1247 C1243 1.400 . S
C1247 C1246 1.385 . S
C1248 C1246 1.478 . S
C1248 C1250 1.381 . S
C1248 C1254 1.383 . S
C1249 C1245 1.495 . S
C1249 H1255 0.959 . S
C1249 H1256 0.961 . S
C1249 H1257 0.960 . S
C1250 C1248 1.381 . S
C1250 C1251 1.394 . S
C1250 H1258 0.930 . S
C1251 C1250 1.394 . S
C1251 C1252 1.383 . S
C1251 H1259 0.929 . S
C1252 C1251 1.383 . S
C1252 C1253 1.377 . S
C1253 H1237 0.930 . S
C1253 C1252 1.377 . S
C1253 C1254 1.379 . S
C1254 H1238 0.931 . S
C1254 C1248 1.383 . S
C1254 C1253 1.379 . S
H1255 C1249 0.959 . S
H1256 C1249 0.961 . S
H1257 C1249 0.960 . S
H1258 C1250 0.930 . S
H1259 C1251 0.929 . S
H1260 C1268 0.929 . S
H1261 C1270 0.930 . S
H1262 C1272 0.930 . S
H1263 C1275 0.929 . S
H1264 C1278 0.930 . S
H1265 C1280 0.960 . S
H1266 C1280 0.960 . S
H1267 C1280 0.960 . S
C1268 H1260 0.929 . S
C1268 C1269 1.377 . S
C1268 C1270 1.384 . S
C1269 C1268 1.377 . S
C1269 C1275 1.390 . S
C1270 H1261 0.930 . S
C1270 C1268 1.384 . S
C1270 C1271 1.372 . S
C1271 C1270 1.372 . S
C1271 C1272 1.400 . S
C1271 C1276 1.490 . S
C1272 H1262 0.930 . S
C1272 C1271 1.400 . S
C1272 C1275 1.386 . S
H1273 C1289 0.930 . S
H1274 C1290 0.931 . S
C1275 H1263 0.929 . S
C1275 C1269 1.390 . S
C1275 C1272 1.386 . S
C1276 C1271 1.490 . S
C1276 C1278 1.395 . S
C1276 C1279 1.403 . S
H1277 C1283 0.930 . S
C1278 H1264 0.930 . S
C1278 C1276 1.395 . S
C1278 C1281 1.403 . S
C1279 C1276 1.403 . S
C1279 C1280 1.524 . S
C1279 C1283 1.400 . S
C1280 H1265 0.960 . S
C1280 H1266 0.960 . S
C1280 H1267 0.960 . S
C1280 C1279 1.524 . S
C1281 C1278 1.403 . S
C1281 C1282 1.392 . S
C1281 C1285 1.495 . S
C1282 C1281 1.392 . S
C1282 C1283 1.385 . S
C1282 C1284 1.478 . S
C1283 H1277 0.930 . S
C1283 C1279 1.400 . S
C1283 C1282 1.385 . S
C1284 C1282 1.478 . S
C1284 C1286 1.381 . S
C1284 C1290 1.383 . S
C1285 C1281 1.495 . S
C1285 H1291 0.959 . S
C1285 H1292 0.961 . S
C1285 H1293 0.960 . S
C1286 C1284 1.381 . S
C1286 C1287 1.394 . S
C1286 H1294 0.930 . S
C1287 C1286 1.394 . S
C1287 C1288 1.383 . S
C1287 H1295 0.929 . S
C1288 C1287 1.383 . S
C1288 C1289 1.377 . S
C1289 H1273 0.930 . S
C1289 C1288 1.377 . S
C1289 C1290 1.379 . S
C1290 H1274 0.931 . S
C1290 C1284 1.383 . S
C1290 C1289 1.379 . S
H1291 C1285 0.959 . S
H1292 C1285 0.961 . S
H1293 C1285 0.960 . S
H1294 C1286 0.930 . S
H1295 C1287 0.929 . S
H1296 C1304 0.929 . S
H1297 C1306 0.930 . S
H1298 C1308 0.930 . S
H1299 C1311 0.929 . S
H1300 C1314 0.930 . S
H1301 C1316 0.960 . S
H1302 C1316 0.960 . S
H1303 C1316 0.960 . S
C1304 H1296 0.929 . S
C1304 C1305 1.377 . S
C1304 C1306 1.384 . S
C1305 C1304 1.377 . S
C1305 C1311 1.390 . S
C1306 H1297 0.930 . S
C1306 C1304 1.384 . S
C1306 C1307 1.372 . S
C1307 C1306 1.372 . S
C1307 C1308 1.400 . S
C1307 C1312 1.490 . S
C1308 H1298 0.930 . S
C1308 C1307 1.400 . S
C1308 C1311 1.386 . S
H1309 C1325 0.930 . S
H1310 C1326 0.931 . S
C1311 H1299 0.929 . S
C1311 C1305 1.390 . S
C1311 C1308 1.386 . S
C1312 C1307 1.490 . S
C1312 C1314 1.395 . S
C1312 C1315 1.403 . S
H1313 C1319 0.930 . S
C1314 H1300 0.930 . S
C1314 C1312 1.395 . S
C1314 C1317 1.403 . S
C1315 C1312 1.403 . S
C1315 C1316 1.524 . S
C1315 C1319 1.400 . S
C1316 H1301 0.960 . S
C1316 H1302 0.960 . S
C1316 H1303 0.960 . S
C1316 C1315 1.524 . S
C1317 C1314 1.403 . S
C1317 C1318 1.392 . S
C1317 C1321 1.495 . S
C1318 C1317 1.392 . S
C1318 C1319 1.385 . S
C1318 C1320 1.478 . S
C1319 H1313 0.930 . S
C1319 C1315 1.400 . S
C1319 C1318 1.385 . S
C1320 C1318 1.478 . S
C1320 C1322 1.381 . S
C1320 C1326 1.383 . S
C1321 C1317 1.495 . S
C1321 H1327 0.959 . S
C1321 H1328 0.961 . S
C1321 H1329 0.960 . S
C1322 C1320 1.381 . S
C1322 C1323 1.394 . S
C1322 H1330 0.930 . S
C1323 C1322 1.394 . S
C1323 C1324 1.383 . S
C1323 H1331 0.929 . S
C1324 C1323 1.383 . S
C1324 C1325 1.377 . S
C1325 H1309 0.930 . S
C1325 C1324 1.377 . S
C1325 C1326 1.379 . S
C1326 H1310 0.931 . S
C1326 C1320 1.383 . S
C1326 C1325 1.379 . S
H1327 C1321 0.959 . S
H1328 C1321 0.961 . S
H1329 C1321 0.960 . S
H1330 C1322 0.930 . S
H1331 C1323 0.929 . S
H1332 C1340 0.929 . S
H1333 C1342 0.930 . S
H1334 C1344 0.930 . S
H1335 C1347 0.929 . S
H1336 C1350 0.930 . S
H1337 C1352 0.960 . S
H1338 C1352 0.960 . S
H1339 C1352 0.960 . S
C1340 H1332 0.929 . S
C1340 C1341 1.377 . S
C1340 C1342 1.384 . S
C1341 C1340 1.377 . S
C1341 C1347 1.390 . S
C1342 H1333 0.930 . S
C1342 C1340 1.384 . S
C1342 C1343 1.372 . S
C1343 C1342 1.372 . S
C1343 C1344 1.400 . S
C1343 C1348 1.490 . S
C1344 H1334 0.930 . S
C1344 C1343 1.400 . S
C1344 C1347 1.386 . S
H1345 C1361 0.930 . S
H1346 C1362 0.931 . S
C1347 H1335 0.929 . S
C1347 C1341 1.390 . S
C1347 C1344 1.386 . S
C1348 C1343 1.490 . S
C1348 C1350 1.395 . S
C1348 C1351 1.403 . S
H1349 C1355 0.930 . S
C1350 H1336 0.930 . S
C1350 C1348 1.395 . S
C1350 C1353 1.403 . S
C1351 C1348 1.403 . S
C1351 C1352 1.524 . S
C1351 C1355 1.400 . S
C1352 H1337 0.960 . S
C1352 H1338 0.960 . S
C1352 H1339 0.960 . S
C1352 C1351 1.524 . S
C1353 C1350 1.403 . S
C1353 C1354 1.392 . S
C1353 C1357 1.495 . S
C1354 C1353 1.392 . S
C1354 C1355 1.385 . S
C1354 C1356 1.478 . S
C1355 H1349 0.930 . S
C1355 C1351 1.400 . S
C1355 C1354 1.385 . S
C1356 C1354 1.478 . S
C1356 C1358 1.381 . S
C1356 C1362 1.383 . S
C1357 C1353 1.495 . S
C1357 H1363 0.959 . S
C1357 H1364 0.961 . S
C1357 H1365 0.960 . S
C1358 C1356 1.381 . S
C1358 C1359 1.394 . S
C1358 H1366 0.930 . S
C1359 C1358 1.394 . S
C1359 C1360 1.383 . S
C1359 H1367 0.929 . S
C1360 C1359 1.383 . S
C1360 C1361 1.377 . S
C1361 H1345 0.930 . S
C1361 C1360 1.377 . S
C1361 C1362 1.379 . S
C1362 H1346 0.931 . S
C1362 C1356 1.383 . S
C1362 C1361 1.379 . S
H1363 C1357 0.959 . S
H1364 C1357 0.961 . S
H1365 C1357 0.960 . S
H1366 C1358 0.930 . S
H1367 C1359 0.929 . S
H1368 C1376 0.929 . S
H1369 C1378 0.930 . S
H1370 C1380 0.930 . S
H1371 C1383 0.929 . S
H1372 C1386 0.930 . S
H1373 C1388 0.960 . S
H1374 C1388 0.960 . S
H1375 C1388 0.960 . S
C1376 H1368 0.929 . S
C1376 C1377 1.377 . S
C1376 C1378 1.384 . S
C1377 C1376 1.377 . S
C1377 C1383 1.390 . S
C1378 H1369 0.930 . S
C1378 C1376 1.384 . S
C1378 C1379 1.372 . S
C1379 C1378 1.372 . S
C1379 C1380 1.400 . S
C1379 C1384 1.490 . S
C1380 H1370 0.930 . S
C1380 C1379 1.400 . S
C1380 C1383 1.386 . S
H1381 C1397 0.930 . S
H1382 C1398 0.931 . S
C1383 H1371 0.929 . S
C1383 C1377 1.390 . S
C1383 C1380 1.386 . S
C1384 C1379 1.490 . S
C1384 C1386 1.395 1_565 S
C1384 C1387 1.403 . S
H1385 C1391 0.930 . S
C1386 H1372 0.930 . S
C1386 C1384 1.395 1_545 S
C1386 C1389 1.403 . S
C1387 C1384 1.403 . S
C1387 C1388 1.524 . S
C1387 C1391 1.400 1_565 S
C1388 H1373 0.960 . S
C1388 H1374 0.960 . S
C1388 H1375 0.960 . S
C1388 C1387 1.524 . S
C1389 C1386 1.403 . S
C1389 C1390 1.392 . S
C1389 C1393 1.495 . S
C1390 C1389 1.392 . S
C1390 C1391 1.385 . S
C1390 C1392 1.478 . S
C1391 H1385 0.930 . S
C1391 C1387 1.400 1_545 S
C1391 C1390 1.385 . S
C1392 C1390 1.478 . S
C1392 C1394 1.381 . S
C1392 C1398 1.383 . S
C1393 C1389 1.495 . S
C1393 H1399 0.959 . S
C1393 H1400 0.961 . S
C1393 H1401 0.960 . S
C1394 C1392 1.381 . S
C1394 C1395 1.394 . S
C1394 H1402 0.930 . S
C1395 C1394 1.394 . S
C1395 C1396 1.383 . S
C1395 H1403 0.929 . S
C1396 C1395 1.383 . S
C1396 C1397 1.377 . S
C1397 H1381 0.930 . S
C1397 C1396 1.377 . S
C1397 C1398 1.379 . S
C1398 H1382 0.931 . S
C1398 C1392 1.383 . S
C1398 C1397 1.379 . S
H1399 C1393 0.959 . S
H1400 C1393 0.961 . S
H1401 C1393 0.960 . S
H1402 C1394 0.930 . S
H1403 C1395 0.929 . S
H1404 C1412 0.929 . S
H1405 C1414 0.930 . S
H1406 C1416 0.930 1_554 S
H1407 C1419 0.929 . S
H1408 C1422 0.930 . S
H1409 C1424 0.960 . S
H1410 C1424 0.960 . S
H1411 C1424 0.960 1_545 S
C1412 H1404 0.929 . S
C1412 C1413 1.377 . S
C1412 C1414 1.384 . S
C1413 C1412 1.377 . S
C1413 C1419 1.390 . S
C1414 H1405 0.930 . S
C1414 C1412 1.384 . S
C1414 C1415 1.372 . S
C1415 C1414 1.372 . S
C1415 C1416 1.400 . S
C1415 C1420 1.490 1_556 S
C1416 H1406 0.930 1_556 S
C1416 C1415 1.400 . S
C1416 C1419 1.386 . S
H1417 C1433 0.930 . S
H1418 C1434 0.931 . S
C1419 H1407 0.929 . S
C1419 C1413 1.390 . S
C1419 C1416 1.386 . S
C1420 C1415 1.490 1_554 S
C1420 C1422 1.395 . S
C1420 C1423 1.370 1_545 S
H1421 C1427 0.930 . S
C1422 H1408 0.930 . S
C1422 C1420 1.395 . S
C1422 C1425 1.403 . S
C1423 C1420 1.370 1_565 S
C1423 C1424 1.529 1_554 S
C1423 C1427 1.430 . S
C1424 H1409 0.960 . S
C1424 H1410 0.960 . S
C1424 H1411 0.960 1_565 S
C1424 C1423 1.529 1_556 S
C1425 C1422 1.403 . S
C1425 C1426 1.392 1_545 S
C1425 C1429 1.495 . S
C1426 C1425 1.392 1_565 S
C1426 C1427 1.385 . S
C1426 C1428 1.478 . S
C1427 H1421 0.930 . S
C1427 C1423 1.430 . S
C1427 C1426 1.385 . S
C1428 C1426 1.478 . S
C1428 C1430 1.381 . S
C1428 C1434 1.383 . S
C1429 C1425 1.495 . S
C1429 H1435 0.959 . S
C1429 H1436 0.961 . S
C1429 H1437 0.960 1_545 S
C1430 C1428 1.381 . S
C1430 C1431 1.394 . S
C1430 H1438 0.930 . S
C1431 C1430 1.394 . S
C1431 C1432 1.383 . S
C1431 H1439 0.929 . S
C1432 C1431 1.383 . S
C1432 C1433 1.377 . S
C1433 H1417 0.930 . S
C1433 C1432 1.377 . S
C1433 C1434 1.379 . S
C1434 H1418 0.931 . S
C1434 C1428 1.383 . S
C1434 C1433 1.379 . S
H1435 C1429 0.959 . S
H1436 C1429 0.961 . S
H1437 C1429 0.960 1_565 S
H1438 C1430 0.930 . S
H1439 C1431 0.929 . S
H1440 C1448 0.929 . S
H1441 C1450 0.930 . S
H1442 C1452 0.930 . S
H1443 C1455 0.929 . S
H1444 C1458 0.930 . S
H1445 C1460 0.960 . S
H1446 C1460 0.960 . S
H1447 C1460 0.960 . S
C1448 H1440 0.929 . S
C1448 C1449 1.377 . S
C1448 C1450 1.384 . S
C1449 C1448 1.377 . S
C1449 C1455 1.390 . S
C1450 H1441 0.930 . S
C1450 C1448 1.384 . S
C1450 C1451 1.372 . S
C1451 C1450 1.372 . S
C1451 C1452 1.400 . S
C1451 C1456 1.490 . S
C1452 H1442 0.930 . S
C1452 C1451 1.400 . S
C1452 C1455 1.386 . S
H1453 C1469 0.930 . S
H1454 C1470 0.931 . S
C1455 H1443 0.929 . S
C1455 C1449 1.390 . S
C1455 C1452 1.386 . S
C1456 C1451 1.490 . S
C1456 C1458 1.395 . S
C1456 C1459 1.403 . S
H1457 C1463 0.930 . S
C1458 H1444 0.930 . S
C1458 C1456 1.395 . S
C1458 C1461 1.403 . S
C1459 C1456 1.403 . S
C1459 C1460 1.524 . S
C1459 C1463 1.400 . S
C1460 H1445 0.960 . S
C1460 H1446 0.960 . S
C1460 H1447 0.960 . S
C1460 C1459 1.524 . S
C1461 C1458 1.403 . S
C1461 C1462 1.392 . S
C1461 C1465 1.495 . S
C1462 C1461 1.392 . S
C1462 C1463 1.385 . S
C1462 C1464 1.478 . S
C1463 H1457 0.930 . S
C1463 C1459 1.400 . S
C1463 C1462 1.385 . S
C1464 C1462 1.478 . S
C1464 C1466 1.381 . S
C1464 C1470 1.383 . S
C1465 C1461 1.495 . S
C1465 H1471 0.959 . S
C1465 H1472 0.961 . S
C1465 H1473 0.960 . S
C1466 C1464 1.381 . S
C1466 C1467 1.394 . S
C1466 H1474 0.930 . S
C1467 C1466 1.394 . S
C1467 C1468 1.383 . S
C1467 H1475 0.929 . S
C1468 C1467 1.383 . S
C1468 C1469 1.377 . S
C1469 H1453 0.930 . S
C1469 C1468 1.377 . S
C1469 C1470 1.379 . S
C1470 H1454 0.931 . S
C1470 C1464 1.383 . S
C1470 C1469 1.379 . S
H1471 C1465 0.959 . S
H1472 C1465 0.961 . S
H1473 C1465 0.960 . S
H1474 C1466 0.930 . S
H1475 C1467 0.929 . S
H1476 C1484 0.929 . S
H1477 C1486 0.930 . S
H1478 C1488 0.930 . S
H1479 C1491 0.929 . S
H1480 C1494 0.930 . S
H1481 C1496 0.960 . S
H1482 C1496 0.960 . S
H1483 C1496 0.960 . S
C1484 H1476 0.929 . S
C1484 C1485 1.377 . S
C1484 C1486 1.384 . S
C1485 C1484 1.377 . S
C1485 C1491 1.390 . S
C1486 H1477 0.930 . S
C1486 C1484 1.384 . S
C1486 C1487 1.372 . S
C1487 C1486 1.372 . S
C1487 C1488 1.400 . S
C1487 C1492 1.490 . S
C1488 H1478 0.930 . S
C1488 C1487 1.400 . S
C1488 C1491 1.386 . S
H1489 C1505 0.930 . S
H1490 C1506 0.931 . S
C1491 H1479 0.929 . S
C1491 C1485 1.390 . S
C1491 C1488 1.386 . S
C1492 C1487 1.490 . S
C1492 C1494 1.395 . S
C1492 C1495 1.403 . S
H1493 C1499 0.930 . S
C1494 H1480 0.930 . S
C1494 C1492 1.395 . S
C1494 C1497 1.403 . S
C1495 C1492 1.403 . S
C1495 C1496 1.524 . S
C1495 C1499 1.400 . S
C1496 H1481 0.960 . S
C1496 H1482 0.960 . S
C1496 H1483 0.960 . S
C1496 C1495 1.524 . S
C1497 C1494 1.403 . S
C1497 C1498 1.392 . S
C1497 C1501 1.495 . S
C1498 C1497 1.392 . S
C1498 C1499 1.385 . S
C1498 C1500 1.478 . S
C1499 H1493 0.930 . S
C1499 C1495 1.400 . S
C1499 C1498 1.385 . S
C1500 C1498 1.478 . S
C1500 C1502 1.381 . S
C1500 C1506 1.383 . S
C1501 C1497 1.495 . S
C1501 H1507 0.959 . S
C1501 H1508 0.961 . S
C1501 H1509 0.960 . S
C1502 C1500 1.381 . S
C1502 C1503 1.394 . S
C1502 H1510 0.930 . S
C1503 C1502 1.394 . S
C1503 C1504 1.383 . S
C1503 H1511 0.929 . S
C1504 C1503 1.383 . S
C1504 C1505 1.377 . S
C1505 H1489 0.930 . S
C1505 C1504 1.377 . S
C1505 C1506 1.379 . S
C1506 H1490 0.931 . S
C1506 C1500 1.383 . S
C1506 C1505 1.379 . S
H1507 C1501 0.959 . S
H1508 C1501 0.961 . S
H1509 C1501 0.960 . S
H1510 C1502 0.930 . S
H1511 C1503 0.929 . S
H1512 C1520 0.929 . S
H1513 C1522 0.930 . S
H1514 C1524 0.930 . S
H1515 C1527 0.929 . S
H1516 C1530 0.930 . S
H1517 C1532 0.960 . S
H1518 C1532 0.960 . S
H1519 C1532 0.960 . S
C1520 H1512 0.929 . S
C1520 C1521 1.377 . S
C1520 C1522 1.384 . S
C1521 C1520 1.377 . S
C1521 C1527 1.390 . S
C1522 H1513 0.930 . S
C1522 C1520 1.384 . S
C1522 C1523 1.372 . S
C1523 C1522 1.372 . S
C1523 C1524 1.400 . S
C1523 C1528 1.490 . S
C1524 H1514 0.930 . S
C1524 C1523 1.400 . S
C1524 C1527 1.386 . S
H1525 C1541 0.930 . S
H1526 C1542 0.931 . S
C1527 H1515 0.929 . S
C1527 C1521 1.390 . S
C1527 C1524 1.386 . S
C1528 C1523 1.490 . S
C1528 C1530 1.395 . S
C1528 C1531 1.403 . S
H1529 C1535 0.930 . S
C1530 H1516 0.930 . S
C1530 C1528 1.395 . S
C1530 C1533 1.403 . S
C1531 C1528 1.403 . S
C1531 C1532 1.524 . S
C1531 C1535 1.400 . S
C1532 H1517 0.960 . S
C1532 H1518 0.960 . S
C1532 H1519 0.960 . S
C1532 C1531 1.524 . S
C1533 C1530 1.403 . S
C1533 C1534 1.392 . S
C1533 C1537 1.495 . S
C1534 C1533 1.392 . S
C1534 C1535 1.385 . S
C1534 C1536 1.478 1_554 S
C1535 H1529 0.930 . S
C1535 C1531 1.400 . S
C1535 C1534 1.385 . S
C1536 C1534 1.478 1_556 S
C1536 C1538 1.381 . S
C1536 C1542 1.383 . S
C1537 C1533 1.495 . S
C1537 H1543 0.959 . S
C1537 H1544 0.961 . S
C1537 H1545 0.960 . S
C1538 C1536 1.381 . S
C1538 C1539 1.394 . S
C1538 H1546 0.930 1_556 S
C1539 C1538 1.394 . S
C1539 C1540 1.383 . S
C1539 H1547 0.929 . S
C1540 C1539 1.383 . S
C1540 C1541 1.377 . S
C1541 H1525 0.930 . S
C1541 C1540 1.377 . S
C1541 C1542 1.379 . S
C1542 H1526 0.931 . S
C1542 C1536 1.383 . S
C1542 C1541 1.379 . S
H1543 C1537 0.959 . S
H1544 C1537 0.961 . S
H1545 C1537 0.960 . S
H1546 C1538 0.930 1_554 S
H1547 C1539 0.929 . S
H1548 C1556 0.929 . S
H1549 C1558 0.930 . S
H1550 C1560 0.930 . S
H1551 C1563 0.929 . S
H1552 C1566 0.930 . S
H1553 C1568 0.960 . S
H1554 C1568 0.960 . S
H1555 C1568 0.960 . S
C1556 H1548 0.929 . S
C1556 C1557 1.377 . S
C1556 C1558 1.384 . S
C1557 C1556 1.377 . S
C1557 C1563 1.390 . S
C1558 H1549 0.930 . S
C1558 C1556 1.384 . S
C1558 C1559 1.372 . S
C1559 C1558 1.372 . S
C1559 C1560 1.400 . S
C1559 C1564 1.490 . S
C1560 H1550 0.930 . S
C1560 C1559 1.400 . S
C1560 C1563 1.386 . S
H1561 C1577 0.930 . S
H1562 C1578 0.931 . S
C1563 H1551 0.929 . S
C1563 C1557 1.390 . S
C1563 C1560 1.386 . S
C1564 C1559 1.490 . S
C1564 C1566 1.395 . S
C1564 C1567 1.403 . S
H1565 C1571 0.930 . S
C1566 H1552 0.930 . S
C1566 C1564 1.395 . S
C1566 C1569 1.403 . S
C1567 C1564 1.403 . S
C1567 C1568 1.524 . S
C1567 C1571 1.400 . S
C1568 H1553 0.960 . S
C1568 H1554 0.960 . S
C1568 H1555 0.960 . S
C1568 C1567 1.524 . S
C1569 C1566 1.403 . S
C1569 C1570 1.392 . S
C1569 C1573 1.495 . S
C1570 C1569 1.392 . S
C1570 C1571 1.385 . S
C1570 C1572 1.478 . S
C1571 H1565 0.930 . S
C1571 C1567 1.400 . S
C1571 C1570 1.385 . S
C1572 C1570 1.478 . S
C1572 C1574 1.381 . S
C1572 C1578 1.383 . S
C1573 C1569 1.495 . S
C1573 H1579 0.959 . S
C1573 H1580 0.961 . S
C1573 H1581 0.960 . S
C1574 C1572 1.381 . S
C1574 C1575 1.394 . S
C1574 H1582 0.930 . S
C1575 C1574 1.394 . S
C1575 C1576 1.383 . S
C1575 H1583 0.929 . S
C1576 C1575 1.383 . S
C1576 C1577 1.377 . S
C1577 H1561 0.930 . S
C1577 C1576 1.377 . S
C1577 C1578 1.379 . S
C1578 H1562 0.931 . S
C1578 C1572 1.383 . S
C1578 C1577 1.379 . S
H1579 C1573 0.959 . S
H1580 C1573 0.961 . S
H1581 C1573 0.960 . S
H1582 C1574 0.930 . S
H1583 C1575 0.929 . S
H1584 C1592 0.929 . S
H1585 C1594 0.930 . S
H1586 C1596 0.930 . S
H1587 C1599 0.929 . S
H1588 C1602 0.930 . S
H1589 C1604 0.960 . S
H1590 C1604 0.960 . S
H1591 C1604 0.960 . S
C1592 H1584 0.929 . S
C1592 C1593 1.377 . S
C1592 C1594 1.384 . S
C1593 C1592 1.377 . S
C1593 C1599 1.390 . S
C1594 H1585 0.930 . S
C1594 C1592 1.384 . S
C1594 C1595 1.372 . S
C1595 C1594 1.372 . S
C1595 C1596 1.400 . S
C1595 C1600 1.490 . S
C1596 H1586 0.930 . S
C1596 C1595 1.400 . S
C1596 C1599 1.386 . S
H1597 C1613 0.930 . S
H1598 C1614 0.931 . S
C1599 H1587 0.929 . S
C1599 C1593 1.390 . S
C1599 C1596 1.386 . S
C1600 C1595 1.490 . S
C1600 C1602 1.395 . S
C1600 C1603 1.403 . S
H1601 C1607 0.930 . S
C1602 H1588 0.930 . S
C1602 C1600 1.395 . S
C1602 C1605 1.403 . S
C1603 C1600 1.403 . S
C1603 C1604 1.524 . S
C1603 C1607 1.400 . S
C1604 H1589 0.960 . S
C1604 H1590 0.960 . S
C1604 H1591 0.960 . S
C1604 C1603 1.524 . S
C1605 C1602 1.403 . S
C1605 C1606 1.392 . S
C1605 C1609 1.495 . S
C1606 C1605 1.392 . S
C1606 C1607 1.385 . S
C1606 C1608 1.478 . S
C1607 H1601 0.930 . S
C1607 C1603 1.400 . S
C1607 C1606 1.385 . S
C1608 C1606 1.478 . S
C1608 C1610 1.381 . S
C1608 C1614 1.383 . S
C1609 C1605 1.495 . S
C1609 H1615 0.959 . S
C1609 H1616 0.961 . S
C1609 H1617 0.960 . S
C1610 C1608 1.381 . S
C1610 C1611 1.394 . S
C1610 H1618 0.930 . S
C1611 C1610 1.394 . S
C1611 C1612 1.383 . S
C1611 H1619 0.929 . S
C1612 C1611 1.383 . S
C1612 C1613 1.377 . S
C1613 H1597 0.930 . S
C1613 C1612 1.377 . S
C1613 C1614 1.379 . S
C1614 H1598 0.931 . S
C1614 C1608 1.383 . S
C1614 C1613 1.379 . S
H1615 C1609 0.959 . S
H1616 C1609 0.961 . S
H1617 C1609 0.960 . S
H1618 C1610 0.930 . S
H1619 C1611 0.929 . S
H1620 C1628 0.929 . S
H1621 C1630 0.930 . S
H1622 C1632 0.930 . S
H1623 C1635 0.929 . S
H1624 C1638 0.930 . S
H1625 C1640 0.960 . S
H1626 C1640 0.960 . S
H1627 C1640 0.960 . S
C1628 H1620 0.929 . S
C1628 C1629 1.377 . S
C1628 C1630 1.384 . S
C1629 C1628 1.377 . S
C1629 C1635 1.390 . S
C1630 H1621 0.930 . S
C1630 C1628 1.384 . S
C1630 C1631 1.372 . S
C1631 C1630 1.372 . S
C1631 C1632 1.400 . S
C1631 C1636 1.490 . S
C1632 H1622 0.930 . S
C1632 C1631 1.400 . S
C1632 C1635 1.386 . S
H1633 C1649 0.930 . S
H1634 C1650 0.931 . S
C1635 H1623 0.929 . S
C1635 C1629 1.390 . S
C1635 C1632 1.386 . S
C1636 C1631 1.490 . S
C1636 C1638 1.395 . S
C1636 C1639 1.403 . S
H1637 C1643 0.930 . S
C1638 H1624 0.930 . S
C1638 C1636 1.395 . S
C1638 C1641 1.403 . S
C1639 C1636 1.403 . S
C1639 C1640 1.524 . S
C1639 C1643 1.400 . S
C1640 H1625 0.960 . S
C1640 H1626 0.960 . S
C1640 H1627 0.960 . S
C1640 C1639 1.524 . S
C1641 C1638 1.403 . S
C1641 C1642 1.392 . S
C1641 C1645 1.495 . S
C1642 C1641 1.392 . S
C1642 C1643 1.385 . S
C1642 C1644 1.478 . S
C1643 H1637 0.930 . S
C1643 C1639 1.400 . S
C1643 C1642 1.385 . S
C1644 C1642 1.478 . S
C1644 C1646 1.381 . S
C1644 C1650 1.383 . S
C1645 C1641 1.495 . S
C1645 H1651 0.959 . S
C1645 H1652 0.961 . S
C1645 H1653 0.960 . S
C1646 C1644 1.381 . S
C1646 C1647 1.394 . S
C1646 H1654 0.930 . S
C1647 C1646 1.394 . S
C1647 C1648 1.383 . S
C1647 H1655 0.929 1_556 S
C1648 C1647 1.383 . S
C1648 C1649 1.377 . S
C1649 H1633 0.930 . S
C1649 C1648 1.377 . S
C1649 C1650 1.379 . S
C1650 H1634 0.931 . S
C1650 C1644 1.383 . S
C1650 C1649 1.379 . S
H1651 C1645 0.959 . S
H1652 C1645 0.961 . S
H1653 C1645 0.960 . S
H1654 C1646 0.930 . S
H1655 C1647 0.929 1_554 S
H1656 C1664 0.929 . S
H1657 C1666 0.930 . S
H1658 C1668 0.930 . S
H1659 C1671 0.929 . S
H1660 C1674 0.930 . S
H1661 C1676 0.960 . S
H1662 C1676 0.960 . S
H1663 C1676 0.960 . S
C1664 H1656 0.929 . S
C1664 C1665 1.377 . S
C1664 C1666 1.384 . S
C1665 C1664 1.377 . S
C1665 C1671 1.390 . S
C1666 H1657 0.930 . S
C1666 C1664 1.384 . S
C1666 C1667 1.372 . S
C1667 C1666 1.372 . S
C1667 C1668 1.400 . S
C1667 C1672 1.490 . S
C1668 H1658 0.930 . S
C1668 C1667 1.400 . S
C1668 C1671 1.386 . S
H1669 C1685 0.930 . S
H1670 C1686 0.931 . S
C1671 H1659 0.929 . S
C1671 C1665 1.390 . S
C1671 C1668 1.386 . S
C1672 C1667 1.490 . S
C1672 C1674 1.395 1_565 S
C1672 C1675 1.403 . S
H1673 C1679 0.940 1_556 S
C1674 H1660 0.930 . S
C1674 C1672 1.395 1_545 S
C1674 C1677 1.403 . S
C1675 C1672 1.403 . S
C1675 C1676 1.524 . S
C1675 C1679 1.438 . S
C1676 H1661 0.960 . S
C1676 H1662 0.960 . S
C1676 H1663 0.960 . S
C1676 C1675 1.524 . S
C1677 C1674 1.403 . S
C1677 C1678 1.392 . S
C1677 C1681 1.495 . S
C1678 C1677 1.392 . S
C1678 C1679 1.340 1_545 S
C1678 C1680 1.478 1_554 S
C1679 H1673 0.940 1_554 S
C1679 C1675 1.438 . S
C1679 C1678 1.340 1_565 S
C1680 C1678 1.478 1_556 S
C1680 C1682 1.381 . S
C1680 C1686 1.383 . S
C1681 C1677 1.495 . S
C1681 H1687 0.959 . S
C1681 H1688 0.961 . S
C1681 H1689 0.960 . S
C1682 C1680 1.381 . S
C1682 C1683 1.394 . S
C1682 H1690 0.930 1_556 S
C1683 C1682 1.394 . S
C1683 C1684 1.383 . S
C1683 H1691 0.929 . S
C1684 C1683 1.383 . S
C1684 C1685 1.377 . S
C1685 H1669 0.930 . S
C1685 C1684 1.377 . S
C1685 C1686 1.379 . S
C1686 H1670 0.931 . S
C1686 C1680 1.383 . S
C1686 C1685 1.379 . S
H1687 C1681 0.959 . S
H1688 C1681 0.961 . S
H1689 C1681 0.960 . S
H1690 C1682 0.930 1_554 S
H1691 C1683 0.929 . S
H1692 C1700 0.929 . S
H1693 C1702 0.930 . S
H1694 C1704 0.930 . S
H1695 C1707 0.929 . S
H1696 C1710 0.930 . S
H1697 C1712 0.960 . S
H1698 C1712 0.960 . S
H1699 C1712 0.960 . S
C1700 H1692 0.929 . S
C1700 C1701 1.377 . S
C1700 C1702 1.384 . S
C1701 C1700 1.377 . S
C1701 C1707 1.390 . S
C1702 H1693 0.930 . S
C1702 C1700 1.384 . S
C1702 C1703 1.372 . S
C1703 C1702 1.372 . S
C1703 C1704 1.400 . S
C1703 C1708 1.490 . S
C1704 H1694 0.930 . S
C1704 C1703 1.400 . S
C1704 C1707 1.386 . S
H1705 C1721 0.930 . S
H1706 C1722 0.931 . S
C1707 H1695 0.929 . S
C1707 C1701 1.390 . S
C1707 C1704 1.386 . S
C1708 C1703 1.490 . S
C1708 C1710 1.395 1_545 S
C1708 C1711 1.403 . S
H1709 C1715 0.935 . S
C1710 H1696 0.930 . S
C1710 C1708 1.395 1_565 S
C1710 C1713 1.403 . S
C1711 C1708 1.403 . S
C1711 C1712 1.524 . S
C1711 C1715 1.423 . S
C1712 H1697 0.960 . S
C1712 H1698 0.960 . S
C1712 H1699 0.960 . S
C1712 C1711 1.524 . S
C1713 C1710 1.403 . S
C1713 C1714 1.392 . S
C1713 C1717 1.495 . S
C1714 C1713 1.392 . S
C1714 C1715 1.358 1_565 S
C1714 C1716 1.478 . S
C1715 H1709 0.935 . S
C1715 C1711 1.423 . S
C1715 C1714 1.358 1_545 S
C1716 C1714 1.478 . S
C1716 C1718 1.381 . S
C1716 C1722 1.383 . S
C1717 C1713 1.495 . S
C1717 H1723 0.959 . S
C1717 H1724 0.961 1_455 S
C1717 H1725 0.960 . S
C1718 C1716 1.381 . S
C1718 C1719 1.394 . S
C1718 H1726 0.930 . S
C1719 C1718 1.394 . S
C1719 C1720 1.383 . S
C1719 H1727 0.929 . S
C1720 C1719 1.383 . S
C1720 C1721 1.377 . S
C1721 H1705 0.930 . S
C1721 C1720 1.377 . S
C1721 C1722 1.379 . S
C1722 H1706 0.931 . S
C1722 C1716 1.383 . S
C1722 C1721 1.379 . S
H1723 C1717 0.959 . S
H1724 C1717 0.961 1_655 S
H1725 C1717 0.960 . S
H1726 C1718 0.930 . S
H1727 C1719 0.929 . S
C585 C338 1.351 . S
C604 C14 1.368 . S
C621 C518 1.352 . S
C640 C50 1.382 . S
C657 C86 1.335 . S
C676 C302 1.299 . S
C693 C122 1.335 1_554 S
C712 C554 1.302 1_655 S
C729 C158 1.350 . S
C748 C374 1.362 1_554 S
C765 C482 1.343 1_655 S
C784 C194 1.346 . S
C801 C410 1.336 . S
C820 C230 1.310 . S
C837 C266 1.337 . S
C856 C446 1.318 . S
C873 C148 1.450 . S
C892 C112 1.457 . S
C909 C436 1.453 . S
C928 C292 1.442 . S
C945 C220 1.450 . S
C964 C40 1.458 . S
C981 C328 1.454 . S
C1000 C472 1.447 . S
C1017 C4 1.453 . S
C1036 C184 1.451 . S
C1053 C544 1.452 . S
C1072 C364 1.444 . S
C1089 C256 1.454 . S
C1108 C76 1.442 . S
C1125 C400 1.454 . S
C1144 C508 1.443 . S
C1161 C2 0.262 . S
C1180 C146 0.287 . S
C1197 C182 0.260 . S
C1216 C38 0.300 . S
C1233 C218 0.248 . S
C1252 C74 0.242 . S
C1269 C110 0.262 . S
C1288 C254 0.297 . S
C1305 C362 0.253 . S
C1324 C290 0.236 . S
C1341 C398 0.262 . S
C1360 C326 0.288 . S
C1377 C506 0.259 . S
C1396 C434 0.260 . S
C1413 C542 0.250 . S
C1432 C470 0.233 . S
C1449 C147 1.782 . S
C1468 C3 1.775 . S
C1485 C183 1.783 1_556 S
C1504 C39 1.773 . S
C1521 C219 1.781 . S
C1540 C75 1.785 . S
C1557 C111 1.781 . S
C1576 C255 1.783 . S
C1593 C291 1.781 . S
C1612 C363 1.780 . S
C1629 C399 1.783 . S
C1648 C327 1.772 1_556 S
C1665 C507 1.781 . S
C1684 C435 1.784 . S
C1701 C543 1.780 . S
C1720 C471 1.784 . S
