# Generated by pormake.
# Topology bcs, (6)-cn, num edge types: 1
# Building blocks:
#     Node 0, Type 0, BuildingBlock: MIFKUJ_clean_sbu_0, # of connection points: 6
#     Node 1, Type 0, BuildingBlock: MIFKUJ_clean_sbu_0, # of connection points: 6
#     Node 2, Type 0, BuildingBlock: MIFKUJ_clean_sbu_0, # of connection points: 6
#     Node 3, Type 0, BuildingBlock: MIFKUJ_clean_sbu_0, # of connection points: 6
#     Node 4, Type 0, BuildingBlock: MIFKUJ_clean_sbu_0, # of connection points: 6
#     Node 5, Type 0, BuildingBlock: MIFKUJ_clean_sbu_0, # of connection points: 6
#     Node 6, Type 0, BuildingBlock: MIFKUJ_clean_sbu_0, # of connection points: 6
#     Node 7, Type 0, BuildingBlock: MIFKUJ_clean_sbu_0, # of connection points: 6
#     Node 8, Type 0, BuildingBlock: MIFKUJ_clean_sbu_0, # of connection points: 6
#     Node 9, Type 0, BuildingBlock: MIFKUJ_clean_sbu_0, # of connection points: 6
#     Node 10, Type 0, BuildingBlock: MIFKUJ_clean_sbu_0, # of connection points: 6
#     Node 11, Type 0, BuildingBlock: MIFKUJ_clean_sbu_0, # of connection points: 6
#     Node 12, Type 0, BuildingBlock: MIFKUJ_clean_sbu_0, # of connection points: 6
#     Node 13, Type 0, BuildingBlock: MIFKUJ_clean_sbu_0, # of connection points: 6
#     Node 14, Type 0, BuildingBlock: MIFKUJ_clean_sbu_0, # of connection points: 6
#     Node 15, Type 0, BuildingBlock: MIFKUJ_clean_sbu_0, # of connection points: 6
#     Edge 16, Type (0, 0), BuildingBlock: XUDNAN_clean_linker_2, # of connection points: 2
#     Edge 17, Type (0, 0), BuildingBlock: XUDNAN_clean_linker_2, # of connection points: 2
#     Edge 18, Type (0, 0), BuildingBlock: XUDNAN_clean_linker_2, # of connection points: 2
#     Edge 19, Type (0, 0), BuildingBlock: XUDNAN_clean_linker_2, # of connection points: 2
#     Edge 20, Type (0, 0), BuildingBlock: XUDNAN_clean_linker_2, # of connection points: 2
#     Edge 21, Type (0, 0), BuildingBlock: XUDNAN_clean_linker_2, # of connection points: 2
#     Edge 22, Type (0, 0), BuildingBlock: XUDNAN_clean_linker_2, # of connection points: 2
#     Edge 23, Type (0, 0), BuildingBlock: XUDNAN_clean_linker_2, # of connection points: 2
#     Edge 24, Type (0, 0), BuildingBlock: XUDNAN_clean_linker_2, # of connection points: 2
#     Edge 25, Type (0, 0), BuildingBlock: XUDNAN_clean_linker_2, # of connection points: 2
#     Edge 26, Type (0, 0), BuildingBlock: XUDNAN_clean_linker_2, # of connection points: 2
#     Edge 27, Type (0, 0), BuildingBlock: XUDNAN_clean_linker_2, # of connection points: 2
#     Edge 28, Type (0, 0), BuildingBlock: XUDNAN_clean_linker_2, # of connection points: 2
#     Edge 29, Type (0, 0), BuildingBlock: XUDNAN_clean_linker_2, # of connection points: 2
#     Edge 30, Type (0, 0), BuildingBlock: XUDNAN_clean_linker_2, # of connection points: 2
#     Edge 31, Type (0, 0), BuildingBlock: XUDNAN_clean_linker_2, # of connection points: 2
#     Edge 32, Type (0, 0), BuildingBlock: XUDNAN_clean_linker_2, # of connection points: 2
#     Edge 33, Type (0, 0), BuildingBlock: XUDNAN_clean_linker_2, # of connection points: 2
#     Edge 34, Type (0, 0), BuildingBlock: XUDNAN_clean_linker_2, # of connection points: 2
#     Edge 35, Type (0, 0), BuildingBlock: XUDNAN_clean_linker_2, # of connection points: 2
#     Edge 36, Type (0, 0), BuildingBlock: XUDNAN_clean_linker_2, # of connection points: 2
#     Edge 37, Type (0, 0), BuildingBlock: XUDNAN_clean_linker_2, # of connection points: 2
#     Edge 38, Type (0, 0), BuildingBlock: XUDNAN_clean_linker_2, # of connection points: 2
#     Edge 39, Type (0, 0), BuildingBlock: XUDNAN_clean_linker_2, # of connection points: 2
#     Edge 40, Type (0, 0), BuildingBlock: XUDNAN_clean_linker_2, # of connection points: 2
#     Edge 41, Type (0, 0), BuildingBlock: XUDNAN_clean_linker_2, # of connection points: 2
#     Edge 42, Type (0, 0), BuildingBlock: XUDNAN_clean_linker_2, # of connection points: 2
#     Edge 43, Type (0, 0), BuildingBlock: XUDNAN_clean_linker_2, # of connection points: 2
#     Edge 44, Type (0, 0), BuildingBlock: XUDNAN_clean_linker_2, # of connection points: 2
#     Edge 45, Type (0, 0), BuildingBlock: XUDNAN_clean_linker_2, # of connection points: 2
#     Edge 46, Type (0, 0), BuildingBlock: XUDNAN_clean_linker_2, # of connection points: 2
#     Edge 47, Type (0, 0), BuildingBlock: XUDNAN_clean_linker_2, # of connection points: 2
#     Edge 48, Type (0, 0), BuildingBlock: XUDNAN_clean_linker_2, # of connection points: 2
#     Edge 49, Type (0, 0), BuildingBlock: XUDNAN_clean_linker_2, # of connection points: 2
#     Edge 50, Type (0, 0), BuildingBlock: XUDNAN_clean_linker_2, # of connection points: 2
#     Edge 51, Type (0, 0), BuildingBlock: XUDNAN_clean_linker_2, # of connection points: 2
#     Edge 52, Type (0, 0), BuildingBlock: XUDNAN_clean_linker_2, # of connection points: 2
#     Edge 53, Type (0, 0), BuildingBlock: XUDNAN_clean_linker_2, # of connection points: 2
#     Edge 54, Type (0, 0), BuildingBlock: XUDNAN_clean_linker_2, # of connection points: 2
#     Edge 55, Type (0, 0), BuildingBlock: XUDNAN_clean_linker_2, # of connection points: 2
#     Edge 56, Type (0, 0), BuildingBlock: XUDNAN_clean_linker_2, # of connection points: 2
#     Edge 57, Type (0, 0), BuildingBlock: XUDNAN_clean_linker_2, # of connection points: 2
#     Edge 58, Type (0, 0), BuildingBlock: XUDNAN_clean_linker_2, # of connection points: 2
#     Edge 59, Type (0, 0), BuildingBlock: XUDNAN_clean_linker_2, # of connection points: 2
#     Edge 60, Type (0, 0), BuildingBlock: XUDNAN_clean_linker_2, # of connection points: 2
#     Edge 61, Type (0, 0), BuildingBlock: XUDNAN_clean_linker_2, # of connection points: 2
#     Edge 62, Type (0, 0), BuildingBlock: XUDNAN_clean_linker_2, # of connection points: 2
#     Edge 63, Type (0, 0), BuildingBlock: XUDNAN_clean_linker_2, # of connection points: 2
# Relax obj value: 0.089
# Max RMSD: 0.219
# Mean RMSD: 0.143
data_MOF--net-bcs--node1-MIFKUJ_clean_sbu_0--edge1-XUDNAN_clean_linker_2
_symmetry_space_group_name_H-M    P1
_symmetry_Int_Tables_number       1
_symmetry_cell_setting            triclinic
loop_
_symmetry_equiv_pos_as_xyz
'x, y, z'
_cell_length_a     37.367547
_cell_length_b     40.472557
_cell_length_c     35.860147
_cell_angle_alpha  96.845143
_cell_angle_beta   98.48246
_cell_angle_gamma 104.13192
loop_
_atom_site_label
_atom_site_type_symbol
_atom_site_fract_x
_atom_site_fract_y
_atom_site_fract_z
_atom_type_partial_charge
Zn0 Zn 0.97122 0.00721 0.97805 0.0
Zn1 Zn 0.03857 0.98216 0.02587 0.0
C2 C 0.93107 0.03679 0.02701 0.0
O3 O 0.90455 0.01311 0.00306 0.0
C4 C 0.04718 0.92491 0.97321 0.0
O5 O 0.04846 0.9097 0.00357 0.0
O6 O 0.93653 0.01845 0.93497 0.0
O7 O 0.02243 0.02268 0.96437 0.0
O8 O 0.06069 0.03187 0.01982 0.0
C9 C 0.94361 0.05081 0.93457 0.0
O10 O 0.97252 0.07145 0.95876 0.0
O11 O 0.96518 0.03867 0.02451 0.0
C12 C 0.06753 0.95539 0.09364 0.0
O13 O 0.03591 0.95708 0.10459 0.0
O14 O 0.07514 0.96688 0.06339 0.0
O15 O 0.98786 0.96906 0.04218 0.0
O16 O 0.95223 0.9574 0.98503 0.0
O17 O 0.03947 0.95399 0.97533 0.0
C18 C 0.05349 0.0385 0.98613 0.0
C19 C 0.95829 0.95158 0.01912 0.0
Zn20 Zn 0.27156 0.76141 0.19379 0.0
Zn21 Zn 0.22258 0.71198 0.25803 0.0
C22 C 0.22598 0.8022 0.16087 0.0
O23 O 0.24312 0.79639 0.13229 0.0
C24 C 0.26302 0.67552 0.30036 0.0
O25 O 0.25313 0.69496 0.32682 0.0
O26 O 0.31379 0.78287 0.16978 0.0
O27 O 0.29752 0.7657 0.24837 0.0
O28 O 0.25702 0.75497 0.28785 0.0
C29 C 0.33201 0.81211 0.18874 0.0
O30 O 0.31844 0.82564 0.21684 0.0
O31 O 0.23298 0.78915 0.19078 0.0
C32 C 0.16483 0.66952 0.2879 0.0
O33 O 0.18142 0.64598 0.27683 0.0
O34 O 0.17709 0.70039 0.28264 0.0
O35 O 0.20994 0.71692 0.20395 0.0
O36 O 0.25055 0.71331 0.16732 0.0
O37 O 0.25231 0.67694 0.26538 0.0
C38 C 0.29007 0.76654 0.28188 0.0
C39 C 0.22159 0.69898 0.17945 0.0
Zn40 Zn 0.52763 0.97939 0.47674 0.0
Zn41 Zn 0.45682 0.01183 0.51294 0.0
C42 C 0.55663 0.94655 0.53476 0.0
O43 O 0.58394 0.97484 0.53853 0.0
C44 C 0.44956 0.04741 0.44374 0.0
O45 O 0.44008 0.01698 0.42216 0.0
O46 O 0.56475 0.97413 0.44286 0.0
O47 O 0.47752 0.97128 0.44491 0.0
O48 O 0.43949 0.96368 0.48615 0.0
C49 C 0.55644 0.94768 0.41707 0.0
O50 O 0.52299 0.92602 0.41181 0.0
O51 O 0.52731 0.94191 0.50967 0.0
C52 C 0.42944 0.04362 0.57277 0.0
O53 O 0.46432 0.06278 0.57979 0.0
O54 O 0.41931 0.01841 0.54535 0.0
O55 O 0.5049 0.01961 0.54931 0.0
O56 O 0.54642 0.02559 0.51054 0.0
O57 O 0.45798 0.04991 0.47986 0.0
C58 C 0.45096 0.95226 0.45706 0.0
C59 C 0.53789 0.03106 0.54332 0.0
Zn60 Zn 0.21755 0.2569 0.80132 0.0
Zn61 Zn 0.27676 0.25084 0.70668 0.0
C62 C 0.17896 0.20103 0.83438 0.0
O63 O 0.15182 0.20282 0.80753 0.0
C64 C 0.3207 0.2918 0.66221 0.0
O65 O 0.34602 0.27946 0.68111 0.0
O66 O 0.20833 0.30012 0.82697 0.0
O67 O 0.26527 0.26433 0.7827 0.0
O68 O 0.31398 0.27062 0.75589 0.0
C69 C 0.21652 0.30639 0.86319 0.0
O70 O 0.23411 0.28681 0.88116 0.0
O71 O 0.21149 0.22125 0.83711 0.0
C72 C 0.27788 0.18799 0.65795 0.0
O73 O 0.25346 0.19559 0.63247 0.0
O74 O 0.29049 0.20753 0.6899 0.0
O75 O 0.22135 0.2399 0.71432 0.0
O76 O 0.17986 0.23917 0.75267 0.0
O77 O 0.28716 0.28315 0.66812 0.0
C78 C 0.30051 0.27244 0.78618 0.0
C79 C 0.18726 0.23324 0.71929 0.0
Zn80 Zn -0.00083 0.03023 0.44826 0.0
Zn81 Zn 0.00776 0.96872 0.53637 0.0
C82 C 0.92536 0.03991 0.4253 0.0
O83 O 0.9149 0.00606 0.41717 0.0
C84 C 0.06478 0.94276 0.57452 0.0
O85 O 0.06278 0.96585 0.60263 0.0
O86 O 0.04054 0.05462 0.42367 0.0
O87 O 0.01823 0.03454 0.50529 0.0
O88 O 0.0313 0.01837 0.56093 0.0
C89 C 0.05432 0.08602 0.43909 0.0
O90 O 0.04179 0.09781 0.46893 0.0
O91 O 0.9593 0.0552 0.44009 0.0
C92 C 0.94212 0.92125 0.55445 0.0
O93 O 0.94275 0.90043 0.52366 0.0
O94 O 0.96568 0.95068 0.56319 0.0
O95 O 0.9919 0.97079 0.48173 0.0
O96 O 0.97595 0.97973 0.4241 0.0
O97 O 0.04413 0.93969 0.54218 0.0
C98 C 0.03124 0.0423 0.5409 0.0
C99 C 0.97442 0.95902 0.44808 0.0
Zn100 Zn 0.29592 0.72194 0.74547 0.0
Zn101 Zn 0.22003 0.77908 0.7648 0.0
C102 C 0.32498 0.70018 0.81451 0.0
O103 O 0.35411 0.72592 0.81401 0.0
C104 C 0.20021 0.79076 0.68598 0.0
O105 O 0.18976 0.75697 0.67703 0.0
O106 O 0.3209 0.70023 0.70494 0.0
O107 O 0.24468 0.72845 0.72861 0.0
O108 O 0.19159 0.72883 0.74626 0.0
C109 C 0.3272 0.67117 0.7091 0.0
O110 O 0.31422 0.65528 0.7361 0.0
O111 O 0.29548 0.69526 0.78954 0.0
C112 C 0.19681 0.83295 0.80462 0.0
O113 O 0.21712 0.84987 0.78254 0.0
O114 O 0.19549 0.80121 0.80477 0.0
O115 O 0.27306 0.77608 0.78402 0.0
O116 O 0.32426 0.77146 0.76379 0.0
O117 O 0.21613 0.80468 0.72 0.0
C118 C 0.21298 0.71165 0.73387 0.0
C119 C 0.30425 0.79058 0.77533 0.0
Zn120 Zn 0.46196 0.01338 0.0289 0.0
Zn121 Zn 0.52084 0.97596 0.95879 0.0
C122 C 0.46506 0.98051 0.09186 0.0
O123 O 0.43066 0.98383 0.08725 0.0
C124 C 0.53102 0.00829 0.89564 0.0
O125 O 0.56383 0.00206 0.90486 0.0
O126 O 0.43551 0.0485 0.04882 0.0
O127 O 0.50008 0.02826 0.99582 0.0
O128 O 0.55404 0.01605 -0.00251 0.0
C129 C 0.44156 0.06137 0.08403 0.0
O130 O 0.46812 0.05471 0.10784 0.0
O131 O 0.4865 0.99284 0.06992 0.0
C132 C 0.54653 0.9245 0.91086 0.0
O133 O 0.52277 0.93041 0.88333 0.0
O134 O 0.54994 0.93994 0.94492 0.0
O135 O 0.47616 0.96191 0.98568 0.0
O136 O 0.42386 0.97329 0.99466 0.0
O137 O 0.50567 -0.00181 0.91464 0.0
C138 C 0.53438 0.03455 0.01105 0.0
C139 C 0.44095 0.95673 0.97441 0.0
Zn140 Zn 0.2244 0.2612 0.24289 0.0
Zn141 Zn 0.30137 0.24241 0.27746 0.0
C142 C 0.19527 0.28633 0.30269 0.0
O143 O 0.16909 0.25894 0.28429 0.0
C144 C 0.31245 0.20985 0.20631 0.0
O145 O 0.33798 0.23934 0.20969 0.0
O146 O 0.17942 0.26937 0.20937 0.0
O147 O 0.26797 0.2774 0.21592 0.0
O148 O 0.31573 0.29023 0.26424 0.0
C149 C 0.18306 0.3016 0.21003 0.0
O150 O 0.2145 0.32366 0.22813 0.0
O151 O 0.22677 0.2936 0.29163 0.0
C152 C 0.34805 0.22324 0.34069 0.0
O153 O 0.32126 0.22598 0.35984 0.0
O154 O 0.34643 0.23164 0.30751 0.0
O155 O 0.25979 0.23298 0.30711 0.0
O156 O 0.21345 0.21333 0.25779 0.0
O157 O 0.29034 0.20625 0.23023 0.0
C158 C 0.30067 0.29534 0.23209 0.0
C159 C 0.22692 0.21429 0.29278 0.0
Zn160 Zn 0.50646 0.51729 0.93912 0.0
Zn161 Zn 0.47829 0.47754 0.02393 0.0
C162 C 0.43266 0.52852 0.9153 0.0
O163 O 0.42441 0.49671 0.89709 0.0
C164 C 0.5354 0.45245 0.06198 0.0
O165 O 0.52874 0.47182 0.09087 0.0
O166 O 0.54093 0.53902 0.90458 0.0
O167 O 0.53551 0.52563 0.9933 0.0
O168 O 0.50417 0.52726 0.04051 0.0
C169 C 0.56333 0.56787 0.92068 0.0
O170 O 0.56429 0.57797 0.957 0.0
O171 O 0.465 0.54173 0.93591 0.0
C172 C 0.42761 0.42841 0.05569 0.0
O173 O 0.43382 0.40686 0.02853 0.0
O174 O 0.44214 0.46062 0.05805 0.0
O175 O 0.45454 0.4731 0.96991 0.0
O176 O 0.48579 0.46616 0.92403 0.0
O177 O 0.5171 0.45088 0.0287 0.0
C178 C 0.52725 0.54261 0.0214 0.0
C179 C 0.46422 0.45314 0.94577 0.0
Zn180 Zn 0.77956 0.21852 0.23046 0.0
Zn181 Zn 0.70488 0.28548 0.23639 0.0
C182 C 0.82298 0.1993 0.29405 0.0
O183 O 0.85245 0.22011 0.28546 0.0
C184 C 0.67732 0.29897 0.15984 0.0
O185 O 0.66851 0.26561 0.14747 0.0
O186 O 0.8157 0.21017 0.19462 0.0
O187 O 0.72743 0.19242 0.20859 0.0
O188 O 0.69764 0.23337 0.21789 0.0
C189 C 0.80514 0.18234 0.17036 0.0
O190 O 0.77059 0.16306 0.16651 0.0
O191 O 0.79051 0.19699 0.27587 0.0
C192 C 0.6736 0.30427 0.30448 0.0
O193 O 0.70645 0.30536 0.32439 0.0
O194 O 0.66696 0.29418 0.2686 0.0
O195 O 0.7573 0.31096 0.2637 0.0
O196 O 0.77085 0.26397 0.24352 0.0
O197 O 0.69381 0.31084 0.194 0.0
C198 C 0.69719 0.20189 0.20739 0.0
C199 C 0.78149 0.294 0.26246 0.0
Zn200 Zn 0.97861 0.51344 0.51293 0.0
Zn201 Zn 0.03745 0.47309 0.49166 0.0
C202 C 0.93143 0.46176 0.54102 0.0
O203 O 0.90824 0.46249 0.51 0.0
C204 C 0.06704 0.53058 0.46015 0.0
O205 O 0.09699 0.52708 0.48189 0.0
O206 O 0.94457 0.54607 0.51863 0.0
O207 O 0.03272 0.53906 0.53788 0.0
O208 O 0.05842 0.49545 0.54369 0.0
C209 C 0.94589 0.55889 0.55326 0.0
O210 O 0.97002 0.55226 0.57997 0.0
O211 O 0.96404 0.48219 0.54906 0.0
C212 C 0.06252 0.41799 0.45175 0.0
O213 O 0.02665 0.40162 0.44335 0.0
O214 O 0.07296 0.44761 0.47246 0.0
O215 O 0.98797 0.4419 0.48784 0.0
O216 O 0.96348 0.47973 0.46149 0.0
O217 O 0.03566 0.50927 0.45895 0.0
C218 C 0.05749 0.5261 0.55439 0.0
C219 C 0.96427 0.44846 0.46286 0.0
Zn220 Zn 0.71874 0.74676 0.28304 0.0
Zn221 Zn 0.79568 0.73544 0.20611 0.0
C222 C 0.68199 0.68604 0.31374 0.0
O223 O 0.66849 0.67318 0.27756 0.0
C224 C 0.82183 0.79779 0.172 0.0
O225 O 0.82563 0.81461 0.20664 0.0
O226 O 0.70554 0.79146 0.29608 0.0
O227 O 0.77333 0.75413 0.27754 0.0
O228 O 0.82687 0.75805 0.2587 0.0
C229 C 0.70592 0.80395 0.33035 0.0
O230 O 0.71569 0.78793 0.35834 0.0
O231 O 0.70462 0.71608 0.32244 0.0
C232 C 0.78847 0.6738 0.15691 0.0
O233 O 0.76383 0.68643 0.13732 0.0
O234 O 0.80586 0.69014 0.18958 0.0
O235 O 0.74144 0.72822 0.21095 0.0
O236 O 0.68826 0.72488 0.23068 0.0
O237 O 0.80904 0.76511 0.16578 0.0
C238 C 0.80893 0.76391 0.28526 0.0
C239 C 0.70592 0.71968 0.20382 0.0
Zn240 Zn 0.76539 0.28592 0.73396 0.0
Zn241 Zn 0.72378 0.21835 0.80256 0.0
C242 C 0.72413 0.32282 0.69347 0.0
O243 O 0.73018 0.3007 0.6668 0.0
C244 C 0.78228 0.19053 0.83556 0.0
O245 O 0.78453 0.21534 0.86368 0.0
O246 O 0.81335 0.29835 0.71582 0.0
O247 O 0.7734 0.27212 0.78688 0.0
O248 O 0.74677 0.26492 0.83652 0.0
C249 C 0.83066 0.32991 0.71933 0.0
O250 O 0.81767 0.35323 0.73758 0.0
O251 O 0.73784 0.32299 0.72822 0.0
C252 C 0.64403 0.20125 0.80539 0.0
O253 O 0.64255 0.23065 0.7941 0.0
O254 O 0.67503 0.19366 0.81223 0.0
O255 O 0.71952 0.23141 0.75126 0.0
O256 O 0.73231 0.24326 0.69748 0.0
O257 O 0.75835 0.18689 0.8053 0.0
C258 C 0.76571 0.28515 0.81758 0.0
C259 C 0.71454 0.22202 0.71588 0.0
Zn260 Zn 0.70359 0.7552 0.70885 0.0
Zn261 Zn 0.77877 0.72886 0.74344 0.0
C262 C 0.66961 0.77975 0.76567 0.0
O263 O 0.64288 0.75559 0.74253 0.0
C264 C 0.81227 0.70223 0.68721 0.0
O265 O 0.8399 0.72452 0.71137 0.0
O266 O 0.6639 0.76783 0.67217 0.0
O267 O 0.75177 0.77128 0.68827 0.0
O268 O 0.79619 0.77883 0.739 0.0
C269 C 0.67073 0.8005 0.67491 0.0
O270 O 0.70191 0.81987 0.69681 0.0
O271 O 0.70302 0.78479 0.75922 0.0
C272 C 0.80514 0.68101 0.77672 0.0
O273 O 0.77149 0.66518 0.75701 0.0
O274 O 0.81674 0.71363 0.77915 0.0
O275 O 0.73249 0.7161 0.76597 0.0
O276 O 0.68588 0.70556 0.71716 0.0
O277 O 0.77868 0.69973 0.69232 0.0
C278 C 0.78415 0.78715 0.70742 0.0
C279 C 0.69865 0.70143 0.75062 0.0
Zn280 Zn 0.45922 0.51166 0.46829 0.0
Zn281 Zn 0.52962 0.48639 0.51512 0.0
C282 C 0.44978 0.57093 0.51782 0.0
O283 O 0.44203 0.58227 0.48559 0.0
C284 C 0.56617 0.45122 0.46546 0.0
O285 O 0.59497 0.46883 0.49181 0.0
O286 O 0.41964 0.52114 0.42922 0.0
O287 O 0.50851 0.5235 0.44925 0.0
O288 O 0.54621 0.53568 0.50533 0.0
C289 C 0.42613 0.54187 0.40546 0.0
O290 O 0.46104 0.55701 0.4036 0.0
O291 O 0.46037 0.54324 0.51731 0.0
C292 C 0.5621 0.4464 0.5612 0.0
O293 O 0.53512 0.42329 0.53714 0.0
O294 O 0.56643 0.47821 0.55866 0.0
O295 O 0.47973 0.46866 0.5308 0.0
O296 O 0.4382 0.46322 0.4782 0.0
O297 O 0.53365 0.45491 0.46785 0.0
C298 C 0.53935 0.54031 0.4708 0.0
C299 C 0.44748 0.45463 0.51047 0.0
Zn300 Zn 0.00043 0.44998 0.01246 0.0
Zn301 Zn 0.98051 0.53739 0.97787 0.0
C302 C 0.0454 0.43212 0.95319 0.0
O303 O 0.04121 0.45816 0.93594 0.0
C304 C 0.94131 0.54677 0.04291 0.0
O305 O 0.97305 0.54942 0.06588 0.0
O306 O 0.00684 0.43277 0.06311 0.0
O307 O 0.02081 0.49989 0.01645 0.0
O308 O 0.03186 0.55429 0.01219 0.0
C309 C 0.04089 0.43314 0.07432 0.0
O310 O 0.06647 0.44783 0.0556 0.0
O311 O 0.02924 0.4256 0.98127 0.0
C312 C 0.96217 0.55141 0.90179 0.0
O313 O 0.95879 0.51823 0.89292 0.0
O314 O 0.97434 0.56587 0.93626 0.0
O315 O 0.97049 0.48644 0.95777 0.0
O316 O 0.94779 0.44247 0.98551 0.0
O317 O 0.93968 0.54181 0.007 0.0
C318 C 0.04207 0.52994 0.02616 0.0
C319 C 0.94229 0.46501 0.96492 0.0
H320 H 0.11953 0.14475 0.82535 0.0
H321 H 0.21854 0.20437 0.90668 0.0
H322 H 0.19955 0.16759 0.95487 0.0
H323 H 0.05701 0.13441 0.88868 0.0
H324 H 0.03154 0.09093 0.86689 0.0
H325 H 0.05484 0.12019 0.8386 0.0
H326 H 0.09207 0.07677 0.81841 0.0
H327 H 0.06867 0.04721 0.84649 0.0
H328 H 0.11922 0.06102 0.85466 0.0
H329 H 0.16561 0.12566 0.99576 0.0
H330 H 0.12202 0.08255 0.02338 0.0
H331 H 0.04711 0.0518 0.91328 0.0
C332 C 0.13754 0.14988 0.85313 0.0
C333 C 0.17048 0.17738 0.86229 0.0
C334 C 0.19329 0.1832 0.89897 0.0
C335 C 0.18265 0.16251 0.92654 0.0
C336 C 0.14944 0.13591 0.9167 0.0
C337 C 0.12757 0.12943 0.88061 0.0
C338 C 0.09275 0.10011 0.87698 0.0
C339 C 0.05694 0.11215 0.86723 0.0
C340 C 0.09322 0.06947 0.84739 0.0
C341 C 0.09764 0.09163 0.91696 0.0
C342 C 0.13054 0.11219 0.93961 0.0
C343 C 0.13997 0.10926 0.97806 0.0
C344 C 0.11505 0.08476 0.99355 0.0
C345 C 0.08107 0.06375 0.9706 0.0
C346 C 0.07275 0.06733 0.9318 0.0
H347 H 0.12263 0.93083 0.06679 0.0
H348 H 0.06474 0.93368 0.16305 0.0
H349 H 0.09981 0.89561 0.1918 0.0
H350 H 0.12037 0.84254 0.05892 0.0
H351 H 0.16593 0.84807 0.04574 0.0
H352 H 0.13849 0.87765 0.03446 0.0
H353 H 0.19345 0.92914 0.07055 0.0
H354 H 0.22115 0.89972 0.0818 0.0
H355 H 0.21312 0.9291 0.11958 0.0
H356 H 0.14009 0.85526 0.20883 0.0
H357 H 0.18216 0.81659 0.21267 0.0
H358 H 0.21155 0.83921 0.10402 0.0
C359 C 0.11779 0.92403 0.09428 0.0
C360 C 0.09117 0.93554 0.11285 0.0
C361 C 0.08516 0.92536 0.14839 0.0
C362 C 0.10491 0.9037 0.16492 0.0
C363 C 0.13043 0.89229 0.14546 0.0
C364 C 0.13693 0.90219 0.11094 0.0
C365 C 0.16451 0.88522 0.09489 0.0
C366 C 0.14622 0.86199 0.05623 0.0
C367 C 0.20017 0.91242 0.09152 0.0
C368 C 0.17249 0.86412 0.12568 0.0
C369 C 0.15276 0.86861 0.15474 0.0
C370 C 0.15573 0.85164 0.18625 0.0
C371 C 0.17966 0.8297 0.18817 0.0
C372 C 0.20015 0.8248 0.15864 0.0
C373 C 0.19626 0.84226 0.12704 0.0
H374 H 0.45036 0.92474 0.38429 0.0
H375 H 0.41537 0.89932 0.48971 0.0
H376 H 0.38188 0.84044 0.45724 0.0
H377 H 0.37018 0.89093 0.32892 0.0
H378 H 0.38548 0.87348 0.28739 0.0
H379 H 0.41677 0.90908 0.32032 0.0
H380 H 0.4666 0.87483 0.32986 0.0
H381 H 0.43578 0.83918 0.29582 0.0
H382 H 0.4539 0.83244 0.34296 0.0
H383 H 0.33882 0.7935 0.41188 0.0
H384 H 0.29143 0.75979 0.35686 0.0
H385 H 0.35617 0.81262 0.2802 0.0
C386 C 0.43701 0.90619 0.40079 0.0
C387 C 0.43521 0.91624 0.4392 0.0
C388 C 0.41667 0.89195 0.45999 0.0
C389 C 0.3981 0.85835 0.44197 0.0
C390 C 0.39883 0.84954 0.40341 0.0
C391 C 0.41842 0.87257 0.38315 0.0
C392 C 0.40924 0.85913 0.34079 0.0
C393 C 0.39453 0.88468 0.31809 0.0
C394 C 0.44341 0.85088 0.32653 0.0
C395 C 0.37876 0.8266 0.34011 0.0
C396 C 0.37393 0.82105 0.37659 0.0
C397 C 0.34316 0.79657 0.38318 0.0
C398 C 0.31616 0.7778 0.35179 0.0
C399 C 0.32032 0.78355 0.31437 0.0
C400 C 0.35268 0.8073 0.30849 0.0
H401 H 0.35064 0.18677 0.67464 0.0
H402 H 0.24 0.12361 0.61944 0.0
H403 H 0.26669 0.07524 0.60175 0.0
H404 H 0.39522 0.16152 0.60284 0.0
H405 H 0.43833 0.16259 0.63369 0.0
H406 H 0.40963 0.18963 0.6484 0.0
H407 H 0.40679 0.16306 0.71056 0.0
H408 H 0.43533 0.13566 0.69579 0.0
H409 H 0.39028 0.11691 0.70757 0.0
H410 H 0.30557 0.03631 0.58442 0.0
H411 H 0.35429 0.01185 0.5619 0.0
H412 H 0.44041 0.10128 0.62575 0.0
C413 C 0.332 0.16239 0.6597 0.0
C414 C 0.29322 0.15858 0.64872 0.0
C415 C 0.26971 0.12692 0.62809 0.0
C416 C 0.28461 0.09921 0.61832 0.0
C417 C 0.32311 0.10386 0.6291 0.0
C418 C 0.34659 0.1348 0.64899 0.0
C419 C 0.38744 0.13488 0.65213 0.0
C420 C 0.40889 0.16385 0.63312 0.0
C421 C 0.40605 0.13779 0.69401 0.0
C422 C 0.38324 0.09955 0.62985 0.0
C423 C 0.3459 0.08175 0.6177 0.0
C424 C 0.33492 0.04974 0.59413 0.0
C425 C 0.36281 0.0361 0.58144 0.0
C426 C 0.4011 0.05474 0.59197 0.0
C427 C 0.4114 0.08627 0.61751 0.0
H428 H 0.11394 0.94423 0.63959 0.0
H429 H 0.06837 0.88676 0.52528 0.0
H430 H 0.10397 0.84422 0.53904 0.0
H431 H 0.20753 0.92843 0.64741 0.0
H432 H 0.21012 0.92443 0.69721 0.0
H433 H 0.18398 0.95203 0.67691 0.0
H434 H 0.12482 0.91902 0.70009 0.0
H435 H 0.15073 0.89137 0.72034 0.0
H436 H 0.10784 0.87283 0.68617 0.0
H437 H 0.13911 0.80467 0.56792 0.0
H438 H 0.17141 0.77203 0.6093 0.0
H439 H 0.19538 0.85684 0.70351 0.0
C440 C 0.11191 0.92305 0.61718 0.0
C441 C 0.08847 0.91889 0.58134 0.0
C442 C 0.08635 0.8906 0.55291 0.0
C443 C 0.10649 0.86631 0.56044 0.0
C444 C 0.12892 0.87093 0.59633 0.0
C445 C 0.13192 0.89875 0.62413 0.0
C446 C 0.15604 0.89678 0.66112 0.0
C447 C 0.19153 0.92723 0.67124 0.0
C448 C 0.1335 0.89487 0.69384 0.0
C449 C 0.16551 0.86312 0.65011 0.0
C450 C 0.14977 0.8486 0.61261 0.0
C451 C 0.15218 0.8161 0.5971 0.0
C452 C 0.17058 0.79777 0.62079 0.0
C453 C 0.18635 0.81206 0.65946 0.0
C454 C 0.18442 0.84549 0.67386 0.0
H455 H 0.28074 0.83598 0.82197 0.0
H456 H 0.3663 0.8285 0.75438 0.0
H457 H 0.40708 0.88294 0.79108 0.0
H458 H 0.3133 0.9407 0.84471 0.0
H459 H 0.30095 0.93822 0.89121 0.0
H460 H 0.27276 0.90804 0.85014 0.0
H461 H 0.28137 0.85802 0.88573 0.0
H462 H 0.31087 0.8874 0.92609 0.0
H463 H 0.32812 0.85439 0.9021 0.0
H464 H 0.44529 0.91339 0.85011 0.0
H465 H 0.47379 0.93627 0.91714 0.0
H466 H 0.36561 0.93656 0.94462 0.0
C467 C 0.30698 0.84717 0.81331 0.0
C468 C 0.32084 0.82795 0.7861 0.0
C469 C 0.3555 0.8427 0.77564 0.0
C470 C 0.37879 0.87377 0.79621 0.0
C471 C 0.36638 0.89014 0.8262 0.0
C472 C 0.33041 0.87861 0.83347 0.0
C473 C 0.32639 0.89778 0.87102 0.0
C474 C 0.30191 0.92268 0.86383 0.0
C475 C 0.31082 0.87288 0.89777 0.0
C476 C 0.36695 0.91742 0.88624 0.0
C477 C 0.38937 0.91291 0.85961 0.0
C478 C 0.42817 0.92007 0.8701 0.0
C479 C 0.44439 0.93313 0.90818 0.0
C480 C 0.42261 0.94095 0.935 0.0
C481 C 0.38323 0.93288 0.92393 0.0
H482 H 0.42174 0.12033 0.07027 0.0
H483 H 0.39921 0.03519 0.13363 0.0
H484 H 0.35325 0.0595 0.16265 0.0
H485 H 0.42426 0.18348 0.14524 0.0
H486 H 0.40281 0.20995 0.11705 0.0
H487 H 0.42791 0.18248 0.09556 0.0
H488 H 0.36884 0.15355 0.04355 0.0
H489 H 0.34344 0.18085 0.06529 0.0
H490 H 0.32501 0.13458 0.05762 0.0
H491 H 0.31408 0.09484 0.18865 0.0
H492 H 0.29251 0.14292 0.21798 0.0
H493 H 0.34411 0.20805 0.14219 0.0
C494 C 0.40634 0.10657 0.08957 0.0
C495 C 0.41334 0.07578 0.09949 0.0
C496 C 0.3938 0.05875 0.12565 0.0
C497 C 0.36746 0.07218 0.14194 0.0
C498 C 0.36129 0.10285 0.13201 0.0
C499 C 0.3805 0.12013 0.10682 0.0
C500 C 0.37259 0.15499 0.10527 0.0
C501 C 0.40905 0.18445 0.11648 0.0
C502 C 0.3512 0.15604 0.06557 0.0
C503 C 0.34769 0.15536 0.13503 0.0
C504 C 0.34026 0.12443 0.14887 0.0
C505 C 0.31935 0.11907 0.17778 0.0
C506 C 0.30704 0.14652 0.19416 0.0
C507 C 0.31662 0.17919 0.18231 0.0
C508 C 0.33615 0.18324 0.15155 0.0
H509 H 0.07274 0.07665 0.36783 0.0
H510 H 0.09883 0.14907 0.47387 0.0
H511 H 0.1448 0.18985 0.44712 0.0
H512 H 0.16626 0.09367 0.34709 0.0
H513 H 0.15117 0.09037 0.29635 0.0
H514 H 0.12068 0.06645 0.32402 0.0
H515 H 0.06834 0.09453 0.29929 0.0
H516 H 0.09874 0.11866 0.27167 0.0
H517 H 0.07808 0.14093 0.30567 0.0
H518 H 0.18884 0.22177 0.41033 0.0
H519 H 0.22782 0.24431 0.36455 0.0
H520 H 0.17102 0.15337 0.28022 0.0
C521 C 0.08834 0.10099 0.38546 0.0
C522 C 0.08255 0.10961 0.42306 0.0
C523 C 0.10303 0.1419 0.44509 0.0
C524 C 0.12912 0.16525 0.43013 0.0
C525 C 0.13402 0.15608 0.39294 0.0
C526 C 0.11415 0.12488 0.37075 0.0
C527 C 0.1245 0.12181 0.33138 0.0
C528 C 0.14168 0.09126 0.32431 0.0
C529 C 0.09038 0.11881 0.30016 0.0
C530 C 0.15357 0.15605 0.33511 0.0
C531 C 0.15866 0.17525 0.37099 0.0
C532 C 0.185 0.20712 0.38208 0.0
C533 C 0.20707 0.2196 0.35594 0.0
C534 C 0.20229 0.20053 0.31895 0.0
C535 C 0.17487 0.16855 0.30821 0.0
H536 H 0.78844 0.13156 0.10818 0.0
H537 H 0.88249 0.20126 0.18828 0.0
H538 H 0.92591 0.1724 0.16005 0.0
H539 H 0.81868 0.05667 0.10981 0.0
H540 H 0.80246 0.04022 0.05959 0.0
H541 H 0.77947 0.06811 0.08399 0.0
H542 H 0.79113 0.11011 0.03515 0.0
H543 H 0.81393 0.08222 0.01033 0.0
H544 H 0.83819 0.127 0.02717 0.0
H545 H 0.9586 0.13246 0.12482 0.0
H546 H 0.97722 0.08793 0.084 0.0
H547 H 0.86092 0.04519 0.02813 0.0
C548 C 0.81824 0.14118 0.11946 0.0
C549 C 0.83206 0.16878 0.15042 0.0
C550 C 0.87127 0.18044 0.16432 0.0
C551 C 0.89611 0.16405 0.14859 0.0
C552 C 0.88137 0.1363 0.11867 0.0
C553 C 0.84332 0.12536 0.10395 0.0
C554 C 0.83422 0.09471 0.07221 0.0
C555 C 0.80712 0.06307 0.08202 0.0
C556 C 0.81844 0.10407 0.03395 0.0
C557 C 0.87287 0.08929 0.07213 0.0
C558 C 0.89987 0.11363 0.09881 0.0
C559 C 0.93762 0.11343 0.10373 0.0
C560 C 0.94795 0.08797 0.08052 0.0
C561 C 0.92059 0.0629 0.05297 0.0
C562 C 0.88261 0.06374 0.04905 0.0
H563 H 0.128 0.58408 0.46324 0.0
H564 H 0.014 0.53758 0.4023 0.0
H565 H 0.02307 0.57937 0.35739 0.0
H566 H 0.13318 0.67534 0.44676 0.0
H567 H 0.18141 0.68223 0.44091 0.0
H568 H 0.1632 0.65381 0.47277 0.0
H569 H 0.18395 0.60427 0.43653 0.0
H570 H 0.2024 0.63258 0.40507 0.0
H571 H 0.16809 0.59215 0.38561 0.0
H572 H 0.04851 0.61711 0.31236 0.0
H573 H 0.0888 0.64696 0.27086 0.0
H574 H 0.18494 0.6702 0.3623 0.0
C575 C 0.10458 0.58331 0.4411 0.0
C576 C 0.07035 0.55777 0.43619 0.0
C577 C 0.04044 0.55721 0.40666 0.0
C578 C 0.04525 0.58094 0.38118 0.0
C579 C 0.07985 0.60531 0.38618 0.0
C580 C 0.1089 0.60679 0.41566 0.0
C581 C 0.14481 0.63209 0.41207 0.0
C582 C 0.15631 0.66269 0.44509 0.0
C583 C 0.17663 0.61419 0.40964 0.0
C584 C 0.13209 0.64307 0.3747 0.0
C585 C 0.09431 0.62798 0.36052 0.0
C586 C 0.07769 0.63017 0.3237 0.0
C587 C 0.10058 0.64717 0.30039 0.0
C588 C 0.13927 0.66157 0.31431 0.0
C589 C 0.15494 0.66055 0.35207 0.0
H590 H 0.56408 0.88117 0.51732 0.0
H591 H 0.56049 0.95777 0.61088 0.0
H592 H 0.57806 0.92127 0.65707 0.0
H593 H 0.5343 0.80168 0.56587 0.0
H594 H 0.56677 0.78165 0.54577 0.0
H595 H 0.54482 0.8091 0.51961 0.0
H596 H 0.61033 0.84649 0.51459 0.0
H597 H 0.63241 0.81942 0.54088 0.0
H598 H 0.64451 0.86525 0.5576 0.0
H599 H 0.60629 0.88332 0.69273 0.0
H600 H 0.64559 0.84668 0.71633 0.0
H601 H 0.63329 0.79363 0.60096 0.0
C602 C 0.5654 0.88928 0.5475 0.0
C603 C 0.56003 0.92168 0.56084 0.0
C604 C 0.56375 0.93263 0.6004 0.0
C605 C 0.57359 0.91202 0.62673 0.0
C606 C 0.57987 0.88061 0.61298 0.0
C607 C 0.57581 0.86907 0.57429 0.0
C608 C 0.58962 0.83687 0.56754 0.0
C609 C 0.55692 0.80546 0.54857 0.0
C610 C 0.62109 0.84237 0.54377 0.0
C611 C 0.60429 0.83355 0.60836 0.0
C612 C 0.5973 0.85855 0.63403 0.0
C613 C 0.61118 0.86316 0.67305 0.0
C614 C 0.63359 0.84237 0.68617 0.0
C615 C 0.64195 0.81727 0.66044 0.0
C616 C 0.62634 0.81209 0.62118 0.0
H617 H 0.39157 0.42372 0.94617 0.0
H618 H 0.49519 0.4005 0.92771 0.0
H619 H 0.46067 0.33985 0.90283 0.0
H620 H 0.33706 0.32904 0.95745 0.0
H621 H 0.29495 0.33558 0.93137 0.0
H622 H 0.32844 0.37109 0.96334 0.0
H623 H 0.3317 0.40665 0.90788 0.0
H624 H 0.29906 0.37124 0.87604 0.0
H625 H 0.34436 0.3895 0.8644 0.0
H626 H 0.4166 0.29105 0.86229 0.0
H627 H 0.36781 0.25987 0.80719 0.0
H628 H 0.29071 0.31408 0.84669 0.0
C629 C 0.40695 0.4052 0.93863 0.0
C630 C 0.44573 0.41618 0.93882 0.0
C631 C 0.46534 0.39215 0.9277 0.0
C632 C 0.44596 0.35764 0.91402 0.0
C633 C 0.40702 0.34785 0.91135 0.0
C634 C 0.38765 0.37095 0.92373 0.0
C635 C 0.34577 0.357 0.90928 0.0
C636 C 0.32535 0.34759 0.94231 0.0
C637 C 0.32935 0.3826 0.88811 0.0
C638 C 0.34522 0.3249 0.88252 0.0
C639 C 0.3805 0.31898 0.88606 0.0
C640 C 0.38865 0.29463 0.8601 0.0
C641 C 0.36092 0.27729 0.82866 0.0
C642 C 0.32558 0.28449 0.82338 0.0
C643 C 0.31705 0.30729 0.85138 0.0
H644 H 0.88458 0.78318 0.31316 0.0
H645 H 0.77835 0.79365 0.33976 0.0
H646 H 0.81135 0.83796 0.39536 0.0
H647 H 0.93683 0.80515 0.41945 0.0
H648 H 0.97928 0.82717 0.40492 0.0
H649 H 0.94755 0.78965 0.3743 0.0
H650 H 0.94395 0.82514 0.31898 0.0
H651 H 0.97512 0.86265 0.34929 0.0
H652 H 0.92964 0.86456 0.32599 0.0
H653 H 0.85441 0.88914 0.43719 0.0
H654 H 0.90446 0.9429 0.46291 0.0
H655 H 0.98364 0.90026 0.40988 0.0
C656 C 0.86836 0.79391 0.33161 0.0
C657 C 0.82881 0.78507 0.32232 0.0
C658 C 0.8085 0.79988 0.34672 0.0
C659 C 0.82712 0.82496 0.37846 0.0
C660 C 0.86621 0.83434 0.38593 0.0
C661 C 0.88669 0.81877 0.36368 0.0
C662 C 0.92827 0.8366 0.3748 0.0
C663 C 0.94922 0.81325 0.39454 0.0
C664 C 0.94518 0.84793 0.34021 0.0
C665 C 0.92738 0.86712 0.40314 0.0
C666 C 0.89152 0.86441 0.41053 0.0
C667 C 0.88279 0.89104 0.43266 0.0
C668 C 0.91122 0.92147 0.44697 0.0
C669 C 0.9476 0.92499 0.43866 0.0
C670 C 0.95606 0.89744 0.41719 0.0
H671 H 0.41697 0.6247 0.52663 0.0
H672 H 0.45971 0.55236 0.58875 0.0
H673 H 0.43629 0.5733 0.64528 0.0
H674 H 0.43635 0.69517 0.60957 0.0
H675 H 0.39393 0.70718 0.59368 0.0
H676 H 0.41751 0.68922 0.55924 0.0
H677 H 0.35608 0.64163 0.5307 0.0
H678 H 0.33243 0.6592 0.56523 0.0
H679 H 0.3332 0.61458 0.56142 0.0
H680 H 0.40277 0.59682 0.6921 0.0
H681 H 0.36426 0.62431 0.7288 0.0
H682 H 0.34356 0.68308 0.63799 0.0
C683 C 0.4222 0.61381 0.5524 0.0
C684 C 0.44036 0.5869 0.55323 0.0
C685 C 0.44609 0.57305 0.58739 0.0
C686 C 0.43284 0.58477 0.61967 0.0
C687 C 0.41418 0.61057 0.61753 0.0
C688 C 0.40919 0.62529 0.585 0.0
C689 C 0.38645 0.65145 0.58982 0.0
C690 C 0.40997 0.68792 0.58797 0.0
C691 C 0.34988 0.64107 0.56003 0.0
C692 C 0.37859 0.64839 0.62979 0.0
C693 C 0.39504 0.6247 0.64513 0.0
C694 C 0.3902 0.61577 0.68065 0.0
C695 C 0.36802 0.63142 0.70117 0.0
C696 C 0.35094 0.65593 0.68633 0.0
C697 C 0.35662 0.66475 0.65024 0.0
H698 H 0.56505 0.01656 0.83518 0.0
H699 H 0.48935 0.05498 0.89815 0.0
H700 H 0.49807 0.106 0.86565 0.0
H701 H 0.62975 0.08669 0.8486 0.0
H702 H 0.64427 0.08382 0.80282 0.0
H703 H 0.62166 0.04534 0.81896 0.0
H704 H 0.57018 0.02869 0.75779 0.0
H705 H 0.59358 0.0671 0.74116 0.0
H706 H 0.54462 0.05922 0.74439 0.0
H707 H 0.5301 0.15935 0.84344 0.0
H708 H 0.57984 0.20768 0.83099 0.0
H709 H 0.63345 0.13407 0.7817 0.0
C710 C 0.54887 0.03493 0.84047 0.0
C711 C 0.52668 0.03218 0.86884 0.0
C712 C 0.50617 0.05663 0.87595 0.0
C713 C 0.51093 0.08565 0.85757 0.0
C714 C 0.53545 0.08912 0.83162 0.0
C715 C 0.55332 0.0638 0.82228 0.0
C716 C 0.58339 0.07602 0.79947 0.0
C717 C 0.62199 0.07282 0.81866 0.0
C718 C 0.57223 0.0566 0.75824 0.0
C719 C 0.58241 0.11317 0.80093 0.0
C720 C 0.55383 0.12017 0.81836 0.0
C721 C 0.55162 0.15401 0.82838 0.0
C722 C 0.57991 0.1813 0.82138 0.0
C723 C 0.61 0.1742 0.80532 0.0
C724 C 0.61026 0.13988 0.79356 0.0
H725 H 0.06614 0.37737 0.05729 0.0
H726 H 0.03954 0.43909 0.15103 0.0
H727 H 0.06606 0.40548 0.19638 0.0
H728 H 0.04853 0.29442 0.09611 0.0
H729 H 0.08702 0.283 0.07772 0.0
H730 H 0.06112 0.30849 0.05283 0.0
H731 H 0.12285 0.35581 0.0564 0.0
H732 H 0.14891 0.33052 0.08105 0.0
H733 H 0.15258 0.37422 0.10214 0.0
H734 H 0.10436 0.37149 0.23142 0.0
H735 H 0.14917 0.33879 0.25353 0.0
H736 H 0.14866 0.29767 0.1363 0.0
C737 C 0.06515 0.38322 0.08727 0.0
C738 C 0.05073 0.41048 0.10092 0.0
C739 C 0.05002 0.41783 0.14023 0.0
C740 C 0.06505 0.39892 0.16602 0.0
C741 C 0.07994 0.37255 0.15168 0.0
C742 C 0.0796 0.36443 0.11309 0.0
C743 C 0.09983 0.3369 0.10503 0.0
C744 C 0.07248 0.30373 0.08154 0.0
C745 C 0.13302 0.35017 0.08501 0.0
C746 C 0.11314 0.33169 0.14529 0.0
C747 C 0.10107 0.35226 0.17179 0.0
C748 C 0.11304 0.3546 0.21093 0.0
C749 C 0.13842 0.33598 0.22322 0.0
C750 C 0.15128 0.31513 0.19651 0.0
C751 C 0.13799 0.31243 0.15715 0.0
H752 H 0.57334 0.55651 0.84534 0.0
H753 H 0.60066 0.63483 0.94684 0.0
H754 H 0.632 0.67783 0.91136 0.0
H755 H 0.66183 0.58659 0.81439 0.0
H756 H 0.64164 0.57717 0.76421 0.0
H757 H 0.61953 0.55223 0.79697 0.0
H758 H 0.55739 0.56735 0.7735 0.0
H759 H 0.57955 0.59285 0.74113 0.0
H760 H 0.55701 0.61201 0.77575 0.0
H761 H 0.66111 0.71229 0.86731 0.0
H762 H 0.69358 0.73566 0.81752 0.0
H763 H 0.64926 0.6369 0.74273 0.0
C764 C 0.5859 0.58272 0.85997 0.0
C765 C 0.58419 0.59229 0.89883 0.0
C766 C 0.6014 0.62676 0.91712 0.0
C767 C 0.61911 0.65155 0.89715 0.0
C768 C 0.61975 0.64156 0.85889 0.0
C769 C 0.60425 0.60798 0.84045 0.0
C770 C 0.61123 0.60418 0.79965 0.0
C771 C 0.63497 0.57853 0.79345 0.0
C772 C 0.57407 0.59346 0.7708 0.0
C773 C 0.63314 0.64084 0.79834 0.0
C774 C 0.63721 0.66187 0.83289 0.0
C775 C 0.65787 0.69626 0.83998 0.0
C776 C 0.67602 0.70934 0.81147 0.0
C777 C 0.67319 0.68823 0.77618 0.0
C778 C 0.65086 0.65373 0.76912 0.0
H779 H 0.65701 0.35577 0.18721 0.0
H780 H 0.66192 0.29352 0.08186 0.0
H781 H 0.63189 0.33071 0.04482 0.0
H782 H 0.56685 0.36289 0.15699 0.0
H783 H 0.57491 0.40614 0.18203 0.0
H784 H 0.60185 0.37828 0.19994 0.0
H785 H 0.66352 0.42379 0.19844 0.0
H786 H 0.63683 0.45203 0.18073 0.0
H787 H 0.67069 0.44004 0.15467 0.0
H788 H 0.59696 0.37157 0.01985 0.0
H789 H 0.55692 0.411 0.00835 0.0
H790 H 0.57284 0.44467 0.13067 0.0
C791 C 0.65271 0.35051 0.15631 0.0
C792 C 0.66227 0.32218 0.13719 0.0
C793 C 0.65498 0.31531 0.09685 0.0
C794 C 0.63814 0.33635 0.0757 0.0
C795 C 0.62846 0.36376 0.09548 0.0
C796 C 0.63533 0.37075 0.13492 0.0
C797 C 0.61854 0.39915 0.14945 0.0
C798 C 0.58878 0.3858 0.1735 0.0
C799 C 0.64924 0.43062 0.17215 0.0
C800 C 0.60086 0.40696 0.11192 0.0
C801 C 0.60725 0.38656 0.08116 0.0
C802 C 0.59205 0.3879 0.04367 0.0
C803 C 0.56929 0.41033 0.03744 0.0
C804 C 0.5618 0.43096 0.06858 0.0
C805 C 0.5783 0.42949 0.10622 0.0
H806 H 0.93233 0.44976 0.38944 0.0
H807 H 0.94351 0.38158 0.47257 0.0
H808 H 0.9061 0.33159 0.42497 0.0
H809 H 0.84 0.41056 0.34678 0.0
H810 H 0.84652 0.41584 0.2988 0.0
H811 H 0.87717 0.4453 0.3387 0.0
H812 H 0.93446 0.43103 0.31389 0.0
H813 H 0.90365 0.40067 0.27442 0.0
H814 H 0.93697 0.38688 0.30641 0.0
H815 H 0.8616 0.29064 0.37191 0.0
H816 H 0.80953 0.26268 0.31798 0.0
H817 H 0.83054 0.35578 0.26751 0.0
C818 C 0.92684 0.42429 0.39747 0.0
C819 C 0.94029 0.41945 0.43458 0.0
C820 C 0.9331 0.38576 0.44418 0.0
C821 C 0.91232 0.35717 0.41727 0.0
C822 C 0.89977 0.36266 0.38069 0.0
C823 C 0.90676 0.39531 0.37068 0.0
C824 C 0.88809 0.39432 0.33014 0.0
C825 C 0.86135 0.41787 0.32855 0.0
C826 C 0.91755 0.40379 0.30471 0.0
C827 C 0.86709 0.35654 0.32007 0.0
C828 C 0.87515 0.33845 0.34917 0.0
C829 C 0.85599 0.30409 0.34828 0.0
C830 C 0.82685 0.28821 0.3174 0.0
C831 C 0.8175 0.30682 0.28827 0.0
C832 C 0.83839 0.34093 0.28905 0.0
H833 H 0.54646 0.53923 0.39596 0.0
H834 H 0.59541 0.59624 0.50976 0.0
H835 H 0.63995 0.63836 0.48235 0.0
H836 H 0.63557 0.55278 0.36042 0.0
H837 H 0.61381 0.55578 0.31307 0.0
H838 H 0.58728 0.52949 0.34207 0.0
H839 H 0.53663 0.5632 0.33399 0.0
H840 H 0.56299 0.58957 0.30507 0.0
H841 H 0.55031 0.60955 0.34703 0.0
H842 H 0.67611 0.67637 0.44163 0.0
H843 H 0.7021 0.70627 0.39146 0.0
H844 H 0.6306 0.62291 0.30464 0.0
C845 C 0.56668 0.56048 0.41516 0.0
C846 C 0.56739 0.56462 0.45499 0.0
C847 C 0.5945 0.59255 0.47918 0.0
C848 C 0.61985 0.61658 0.46386 0.0
C849 C 0.61816 0.6119 0.42439 0.0
C850 C 0.59254 0.58428 0.40044 0.0
C851 C 0.59623 0.58516 0.35905 0.0
C852 C 0.60898 0.55395 0.3427 0.0
C853 C 0.55935 0.587 0.33488 0.0
C854 C 0.62685 0.61841 0.36321 0.0
C855 C 0.63944 0.63329 0.40113 0.0
C856 C 0.66674 0.66475 0.41189 0.0
C857 C 0.68134 0.68155 0.38315 0.0
C858 C 0.66853 0.66694 0.34406 0.0
C859 C 0.64121 0.63473 0.33421 0.0
H860 H 0.82826 0.32693 0.80425 0.0
H861 H 0.73467 0.32566 0.86262 0.0
H862 H 0.7654 0.38555 0.89467 0.0
H863 H 0.89118 0.3583 0.88152 0.0
H864 H 0.92712 0.38325 0.85996 0.0
H865 H 0.89256 0.34687 0.8317 0.0
H866 H 0.8783 0.38614 0.78557 0.0
H867 H 0.90855 0.42516 0.81402 0.0
H868 H 0.85935 0.42194 0.79901 0.0
H869 H 0.81296 0.43401 0.9348 0.0
H870 H 0.87247 0.46643 0.97782 0.0
H871 H 0.9349 0.43969 0.89198 0.0
C872 C 0.81334 0.34014 0.82205 0.0
C873 C 0.77909 0.32233 0.83071 0.0
C874 C 0.76096 0.33929 0.85563 0.0
C875 C 0.77806 0.37335 0.87357 0.0
C876 C 0.8132 0.38974 0.86628 0.0
C877 C 0.83052 0.3737 0.84068 0.0
C878 C 0.87147 0.39251 0.84471 0.0
C879 C 0.89701 0.36885 0.85514 0.0
C880 C 0.87979 0.40744 0.80864 0.0
C881 C 0.87494 0.42075 0.87747 0.0
C882 C 0.84103 0.41911 0.88943 0.0
C883 C 0.8393 0.43681 0.92476 0.0
C884 C 0.87306 0.45507 0.94907 0.0
C885 C 0.90754 0.45592 0.93724 0.0
C886 C 0.90839 0.44041 0.90044 0.0
H887 H 0.85519 0.86699 0.17674 0.0
H888 H 0.81937 0.77026 0.09759 0.0
H889 H 0.84574 0.80021 0.04769 0.0
H890 H 0.83859 0.92272 0.10451 0.0
H891 H 0.87916 0.95717 0.1275 0.0
H892 H 0.8537 0.92891 0.15555 0.0
H893 H 0.91505 0.91421 0.18319 0.0
H894 H 0.94059 0.94233 0.15526 0.0
H895 H 0.94171 0.89778 0.15094 0.0
H896 H 0.87909 0.84054 0.00711 0.0
H897 H 0.91977 0.88708 0.98118 0.0
H898 H 0.93613 0.95611 0.088 0.0
C899 C 0.85232 0.85216 0.14875 0.0
C900 C 0.83503 0.81626 0.14112 0.0
C901 C 0.83229 0.79781 0.10415 0.0
C902 C 0.84711 0.81462 0.07553 0.0
C903 C 0.86445 0.84994 0.0842 0.0
C904 C 0.86704 0.8685 0.11992 0.0
C905 C 0.88898 0.90577 0.1227 0.0
C906 C 0.8636 0.93007 0.12787 0.0
C907 C 0.92364 0.91557 0.15492 0.0
C908 C 0.89995 0.90488 0.08369 0.0
C909 C 0.88466 0.87275 0.06143 0.0
C910 C 0.89104 0.86584 0.02425 0.0
C911 C 0.91403 0.89236 0.00972 0.0
C912 C 0.93101 0.92495 0.03271 0.0
C913 C 0.92355 0.93128 0.06996 0.0
H914 H 0.83953 0.19521 0.89423 0.0
H915 H 0.77682 0.12961 0.78863 0.0
H916 H 0.81234 0.08647 0.80089 0.0
H917 H 0.92884 0.17684 0.88828 0.0
H918 H 0.94051 0.17792 0.93909 0.0
H919 H 0.91103 0.20365 0.92068 0.0
H920 H 0.85963 0.17497 0.95697 0.0
H921 H 0.88881 0.14898 0.97526 0.0
H922 H 0.84207 0.1286 0.94895 0.0
H923 H 0.85206 0.04821 0.82861 0.0
H924 H 0.89542 0.0214 0.8662 0.0
H925 H 0.93268 0.11424 0.95112 0.0
C926 C 0.8334 0.17194 0.87342 0.0
C927 C 0.80529 0.16574 0.84059 0.0
C928 C 0.79828 0.13494 0.81404 0.0
C929 C 0.81825 0.11026 0.82081 0.0
C930 C 0.84531 0.11695 0.85402 0.0
C931 C 0.85311 0.1473 0.87959 0.0
C932 C 0.88297 0.14841 0.91341 0.0
C933 C 0.9179 0.17849 0.91546 0.0
C934 C 0.86743 0.15035 0.95084 0.0
C935 C 0.89084 0.11394 0.90309 0.0
C936 C 0.86871 0.09584 0.86897 0.0
C937 C 0.86987 0.06242 0.85508 0.0
C938 C 0.89441 0.04734 0.8766 0.0
C939 C 0.91773 0.06595 0.91121 0.0
C940 C 0.91579 0.09963 0.92434 0.0
H941 H 0.69214 0.20129 0.64029 0.0
H942 H 0.68737 0.16549 0.74918 0.0
H943 H 0.64256 0.11044 0.71619 0.0
H944 H 0.59615 0.16761 0.60273 0.0
H945 H 0.60289 0.15696 0.55447 0.0
H946 H 0.63648 0.19207 0.58663 0.0
H947 H 0.69003 0.16381 0.57504 0.0
H948 H 0.65665 0.12868 0.54259 0.0
H949 H 0.68605 0.11993 0.58275 0.0
H950 H 0.59376 0.06229 0.67143 0.0
H951 H 0.54833 0.02255 0.61777 0.0
H952 H 0.58841 0.09018 0.53904 0.0
C953 C 0.68238 0.18159 0.65718 0.0
C954 C 0.69281 0.18746 0.69715 0.0
C955 C 0.6791 0.16143 0.71848 0.0
C956 C 0.65382 0.13019 0.70003 0.0
C957 C 0.64307 0.12574 0.66048 0.0
C958 C 0.65722 0.15064 0.63936 0.0
C959 C 0.64002 0.14063 0.59758 0.0
C960 C 0.61756 0.16581 0.58462 0.0
C961 C 0.66998 0.1381 0.57305 0.0
C962 C 0.61445 0.10572 0.59818 0.0
C963 C 0.61607 0.09775 0.63475 0.0
C964 C 0.59271 0.06794 0.64263 0.0
C965 C 0.5671 0.04567 0.61216 0.0
C966 C 0.56581 0.05334 0.57461 0.0
C967 C 0.58984 0.08349 0.5675 0.0
H968 H 0.54725 0.89578 0.35724 0.0
H969 H 0.63216 0.97689 0.43572 0.0
H970 H 0.6816 0.95331 0.41364 0.0
H971 H 0.58482 0.83046 0.37208 0.0
H972 H 0.57419 0.808 0.3236 0.0
H973 H 0.54579 0.83508 0.33888 0.0
H974 H 0.55866 0.87046 0.28446 0.0
H975 H 0.58681 0.84312 0.26852 0.0
H976 H 0.60637 0.88925 0.27956 0.0
H977 H 0.71958 0.91377 0.39553 0.0
H978 H 0.74447 0.86429 0.37592 0.0
H979 H 0.63665 0.81104 0.30528 0.0
C980 C 0.57632 0.90927 0.36879 0.0
C981 C 0.58588 0.93807 0.39828 0.0
C982 C 0.62417 0.95487 0.41299 0.0
C983 C 0.65249 0.94168 0.40059 0.0
C984 C 0.64208 0.91221 0.37285 0.0
C985 C 0.60496 0.89669 0.35633 0.0
C986 C 0.60107 0.86348 0.32972 0.0
C987 C 0.57495 0.83245 0.34183 0.0
C988 C 0.58743 0.86679 0.28809 0.0
C989 C 0.64144 0.86157 0.33598 0.0
C990 C 0.66472 0.89013 0.36068 0.0
C991 C 0.70206 0.89192 0.37505 0.0
C992 C 0.71589 0.86376 0.36403 0.0
C993 C 0.69255 0.83464 0.33856 0.0
C994 C 0.6552 0.83376 0.32379 0.0
H995 H 0.88199 0.20423 0.3516 0.0
H996 H 0.77434 0.13702 0.29251 0.0
H997 H 0.78515 0.09076 0.32766 0.0
H998 H 0.9326 0.14607 0.34983 0.0
H999 H 0.96022 0.15999 0.39731 0.0
H1000 H 0.94141 0.19008 0.37305 0.0
H1001 H 0.90812 0.20324 0.42931 0.0
H1002 H 0.92714 0.17331 0.45411 0.0
H1003 H 0.87721 0.16829 0.4452 0.0
H1004 H 0.81202 0.04909 0.35938 0.0
H1005 H 0.85204 0.01557 0.38906 0.0
H1006 H 0.94099 0.11007 0.4305 0.0
C1007 C 0.86034 0.18007 0.34697 0.0
C1008 C 0.82741 0.17415 0.3195 0.0
C1009 C 0.79965 0.14221 0.3138 0.0
C1010 C 0.80547 0.11575 0.33365 0.0
C1011 C 0.8387 0.12199 0.35981 0.0
C1012 C 0.86535 0.15357 0.3672 0.0
C1013 C 0.89972 0.15262 0.39477 0.0
C1014 C 0.93557 0.16276 0.37768 0.0
C1015 C 0.90325 0.17574 0.43312 0.0
C1016 C 0.88955 0.11485 0.39891 0.0
C1017 C 0.85386 0.09784 0.37926 0.0
C1018 C 0.83959 0.06222 0.37585 0.0
C1019 C 0.86259 0.04338 0.39269 0.0
C1020 C 0.89949 0.06024 0.41237 0.0
C1021 C 0.91268 0.09652 0.41618 0.0
H1022 H 0.68789 0.13337 0.18615 0.0
H1023 H 0.62666 0.21169 0.19084 0.0
H1024 H 0.57085 0.16963 0.15123 0.0
H1025 H 0.66449 0.1068 0.09581 0.0
H1026 H 0.6594 0.06123 0.09488 0.0
H1027 H 0.68925 0.09156 0.13437 0.0
H1028 H 0.65228 0.06124 0.18199 0.0
H1029 H 0.62265 0.02992 0.14261 0.0
H1030 H 0.60202 0.05388 0.17505 0.0
H1031 H 0.5301 0.12692 0.09849 0.0
H1032 H 0.5058 0.0857 0.03865 0.0
H1033 H 0.59399 0.03526 0.06605 0.0
C1034 C 0.66232 0.14137 0.18004 0.0
C1035 C 0.66162 0.17584 0.19103 0.0
C1036 C 0.62778 0.18539 0.1825 0.0
C1037 C 0.59588 0.16158 0.16028 0.0
C1038 C 0.59839 0.12843 0.14743 0.0
C1039 C 0.63061 0.11808 0.15761 0.0
C1040 C 0.62891 0.08367 0.13462 0.0
C1041 C 0.66247 0.08602 0.11369 0.0
C1042 C 0.62629 0.05551 0.16009 0.0
C1043 C 0.59248 0.07808 0.10713 0.0
C1044 C 0.5746 0.10341 0.11601 0.0
C1045 C 0.54308 0.10629 0.092 0.0
C1046 C 0.52964 0.0829 0.05798 0.0
C1047 C 0.54791 0.05722 0.04813 0.0
C1048 C 0.57932 0.05445 0.07326 0.0
H1049 H 0.60006 0.78698 0.76952 0.0
H1050 H 0.7156 0.82404 0.82901 0.0
H1051 H 0.69611 0.86212 0.87735 0.0
H1052 H 0.57984 0.86738 0.78023 0.0
H1053 H 0.53187 0.84979 0.78509 0.0
H1054 H 0.55502 0.8238 0.7582 0.0
H1055 H 0.53997 0.77661 0.80088 0.0
H1056 H 0.51692 0.80256 0.82812 0.0
H1057 H 0.55468 0.7879 0.85198 0.0
H1058 H 0.66218 0.89737 0.91867 0.0
H1059 H 0.6197 0.92962 0.94375 0.0
H1060 H 0.52842 0.86995 0.85366 0.0
C1061 C 0.62135 0.80263 0.79301 0.0
C1062 C 0.6593 0.8022 0.79579 0.0
C1063 C 0.6863 0.82383 0.82648 0.0
C1064 C 0.67542 0.84539 0.8541 0.0
C1065 C 0.63754 0.84513 0.85034 0.0
C1066 C 0.61112 0.82442 0.82021 0.0
C1067 C 0.57277 0.83034 0.82037 0.0
C1068 C 0.5591 0.84362 0.78382 0.0
C1069 C 0.54442 0.79739 0.82566 0.0
C1070 C 0.58148 0.85791 0.85516 0.0
C1071 C 0.61877 0.86588 0.87265 0.0
C1072 C 0.63296 0.89116 0.90515 0.0
C1073 C 0.60863 0.90919 0.91937 0.0
C1074 C 0.57082 0.9022 0.90063 0.0
C1075 C 0.55719 0.87583 0.86859 0.0
H1076 H 0.87922 0.86633 0.54177 0.0
H1077 H 0.9518 0.94816 0.62966 0.0
H1078 H 0.91704 0.92438 0.67789 0.0
H1079 H 0.79265 0.86336 0.58241 0.0
H1080 H 0.77541 0.81717 0.56886 0.0
H1081 H 0.80423 0.84211 0.54051 0.0
H1082 H 0.85045 0.80393 0.54828 0.0
H1083 H 0.82205 0.7791 0.57692 0.0
H1084 H 0.87102 0.79955 0.59557 0.0
H1085 H 0.88039 0.88776 0.7178 0.0
H1086 H 0.8384 0.84406 0.74576 0.0
H1087 H 0.78644 0.78853 0.63195 0.0
C1088 C 0.88736 0.8795 0.57106 0.0
C1089 C 0.91827 0.90897 0.58199 0.0
C1090 C 0.9281 0.9256 0.62057 0.0
C1091 C 0.9086 0.91227 0.64825 0.0
C1092 C 0.87885 0.88272 0.63678 0.0
C1093 C 0.86769 0.86691 0.59902 0.0
C1094 C 0.8351 0.8351 0.59456 0.0
C1095 C 0.79975 0.83973 0.57014 0.0
C1096 C 0.84529 0.80251 0.57785 0.0
C1097 C 0.83074 0.83487 0.63586 0.0
C1098 C 0.85632 0.86252 0.65976 0.0
C1099 C 0.85965 0.86638 0.69938 0.0
C1100 C 0.83595 0.84139 0.715 0.0
C1101 C 0.80905 0.8133 0.69095 0.0
C1102 C 0.80632 0.81018 0.65092 0.0
H1103 H 0.16108 0.81293 0.86401 0.0
H1104 H 0.17757 0.89148 0.79093 0.0
H1105 H 0.13578 0.91962 0.82184 0.0
H1106 H 0.06279 0.80857 0.8687 0.0
H1107 H 0.06787 0.80391 0.91842 0.0
H1108 H 0.09702 0.78793 0.88887 0.0
H1109 H 0.15686 0.82492 0.93588 0.0
H1110 H 0.12765 0.84025 0.9657 0.0
H1111 H 0.16285 0.87066 0.94859 0.0
H1112 H 0.09344 0.94024 0.86082 0.0
H1113 H 0.05886 0.95585 0.9106 0.0
H1114 H 0.07123 0.86594 0.96109 0.0
C1115 C 0.1557 0.83594 0.85446 0.0
C1116 C 0.17251 0.84986 0.82488 0.0
C1117 C 0.16512 0.88028 0.81351 0.0
C1118 C 0.14117 0.89638 0.83072 0.0
C1119 C 0.12494 0.88203 0.85961 0.0
C1120 C 0.13218 0.85278 0.87183 0.0
C1121 C 0.11292 0.84418 0.90525 0.0
C1122 C 0.0834 0.80906 0.89466 0.0
C1123 C 0.1418 0.84508 0.94096 0.0
C1124 C 0.09449 0.87358 0.91027 0.0
C1125 C 0.1012 0.89465 0.88309 0.0
C1126 C 0.08789 0.9239 0.88223 0.0
C1127 C 0.06812 0.93249 0.91061 0.0
C1128 C 0.06222 0.91218 0.93984 0.0
C1129 C 0.07497 0.88191 0.93904 0.0
H1130 H 0.93878 0.4713 0.61755 0.0
H1131 H 0.90127 0.39333 0.51618 0.0
H1132 H 0.88733 0.34788 0.55635 0.0
H1133 H 0.97355 0.41784 0.68647 0.0
H1134 H 0.95373 0.4365 0.72395 0.0
H1135 H 0.97062 0.46183 0.68891 0.0
H1136 H 0.90569 0.47417 0.67176 0.0
H1137 H 0.88924 0.44976 0.70731 0.0
H1138 H 0.86412 0.43843 0.65865 0.0
H1139 H 0.87237 0.31237 0.60571 0.0
H1140 H 0.84116 0.29059 0.65694 0.0
H1141 H 0.87962 0.39318 0.72448 0.0
C1142 C 0.92845 0.44447 0.60417 0.0
C1143 C 0.92171 0.4352 0.56429 0.0
C1144 C 0.90693 0.40039 0.54696 0.0
C1145 C 0.89953 0.37455 0.56953 0.0
C1146 C 0.90652 0.38436 0.60908 0.0
C1147 C 0.91964 0.41862 0.62619 0.0
C1148 C 0.91685 0.42312 0.66795 0.0
C1149 C 0.95603 0.43555 0.69331 0.0
C1150 C 0.8925 0.44778 0.6769 0.0
C1151 C 0.89797 0.3863 0.67104 0.0
C1152 C 0.89435 0.36411 0.63742 0.0
C1153 C 0.87538 0.32931 0.63237 0.0
C1154 C 0.85774 0.31722 0.66167 0.0
C1155 C 0.85804 0.3403 0.69473 0.0
C1156 C 0.87963 0.37484 0.70003 0.0
H1157 H 0.42259 0.10041 0.4719 0.0
H1158 H 0.46652 0.06209 0.37516 0.0
H1159 H 0.45432 0.10983 0.34251 0.0
H1160 H 0.34678 0.11714 0.41771 0.0
H1161 H 0.34624 0.15523 0.44904 0.0
H1162 H 0.36538 0.12279 0.46809 0.0
H1163 H 0.4281 0.16881 0.49646 0.0
H1164 H 0.40907 0.20149 0.47747 0.0
H1165 H 0.45229 0.1948 0.46566 0.0
H1166 H 0.43186 0.15792 0.31786 0.0
H1167 H 0.39521 0.1985 0.30005 0.0
H1168 H 0.36151 0.20323 0.41094 0.0
C1169 C 0.43076 0.10283 0.44439 0.0
C1170 C 0.4462 0.07807 0.42627 0.0
C1171 C 0.45509 0.0811 0.38962 0.0
C1172 C 0.44843 0.10821 0.371 0.0
C1173 C 0.43241 0.13184 0.38923 0.0
C1174 C 0.42342 0.12928 0.42502 0.0
C1175 C 0.40171 0.15497 0.43602 0.0
C1176 C 0.36273 0.13641 0.4431 0.0
C1177 C 0.42414 0.1816 0.47098 0.0
C1178 C 0.39878 0.17152 0.4003 0.0
C1179 C 0.4176 0.1585 0.37414 0.0
C1180 C 0.41735 0.16855 0.33828 0.0
C1181 C 0.39646 0.19172 0.32844 0.0
C1182 C 0.37543 0.20413 0.35408 0.0
C1183 C 0.37747 0.19445 0.39081 0.0
H1184 H 0.59093 0.54799 0.07056 0.0
H1185 H 0.52406 0.60784 0.01483 0.0
H1186 H 0.57055 0.66202 0.0482 0.0
H1187 H 0.61238 0.59893 0.1592 0.0
H1188 H 0.65925 0.59428 0.17139 0.0
H1189 H 0.62415 0.56104 0.13847 0.0
H1190 H 0.66726 0.56637 0.08791 0.0
H1191 H 0.70247 0.59985 0.12079 0.0
H1192 H 0.6849 0.60776 0.07396 0.0
H1193 H 0.6183 0.70822 0.09425 0.0
H1194 H 0.66315 0.74345 0.15119 0.0
H1195 H 0.69984 0.65358 0.17572 0.0
C1196 C 0.58665 0.57265 0.06512 0.0
C1197 C 0.5545 0.57441 0.04051 0.0
C1198 C 0.54885 0.60659 0.03394 0.0
C1199 C 0.57519 0.63724 0.05236 0.0
C1200 C 0.60671 0.63484 0.07697 0.0
C1201 C 0.61251 0.60334 0.08338 0.0
C1202 C 0.64616 0.60763 0.11432 0.0
C1203 C 0.63478 0.58941 0.14781 0.0
C1204 C 0.67704 0.59465 0.09826 0.0
C1205 C 0.6576 0.64644 0.12545 0.0
C1206 C 0.63487 0.66173 0.10317 0.0
C1207 C 0.63702 0.6968 0.11118 0.0
C1208 C 0.66238 0.71655 0.14342 0.0
C1209 C 0.68519 0.70106 0.16666 0.0
C1210 C 0.68345 0.66594 0.15722 0.0
H1211 H 0.19147 0.20202 0.64858 0.0
H1212 H 0.11211 0.22254 0.71897 0.0
H1213 H 0.06026 0.18321 0.67165 0.0
H1214 H 0.12584 0.18612 0.55128 0.0
H1215 H 0.14561 0.15203 0.53426 0.0
H1216 H 0.17451 0.18869 0.5682 0.0
H1217 H 0.19094 0.14708 0.61365 0.0
H1218 H 0.16251 0.11087 0.57932 0.0
H1219 H 0.15392 0.11621 0.62762 0.0
H1220 H 0.01997 0.13273 0.62617 0.0
H1221 H 0.99416 0.07598 0.58445 0.0
H1222 H 0.0983 0.08775 0.54194 0.0
C1223 C 0.16308 0.19924 0.65321 0.0
C1224 C 0.15596 0.21534 0.68742 0.0
C1225 C 0.11837 0.21052 0.69296 0.0
C1226 C 0.08862 0.18835 0.66608 0.0
C1227 C 0.09678 0.17146 0.63352 0.0
C1228 C 0.13306 0.17698 0.62665 0.0
C1229 C 0.135 0.15183 0.59262 0.0
C1230 C 0.14586 0.17082 0.55963 0.0
C1231 C 0.16214 0.13013 0.60398 0.0
C1232 C 0.09476 0.12997 0.58294 0.0
C1233 C 0.07296 0.14219 0.60641 0.0
C1234 C 0.03632 0.12359 0.60674 0.0
C1235 C 0.02194 0.0914 0.58316 0.0
C1236 C 0.04415 0.07833 0.55968 0.0
C1237 C 0.08056 0.09808 0.55882 0.0
H1238 H 0.67409 0.32217 0.38083 0.0
H1239 H 0.61417 0.32397 0.26813 0.0
H1240 H 0.5758 0.35786 0.2973 0.0
H1241 H 0.59057 0.31612 0.42733 0.0
H1242 H 0.61722 0.3427 0.4711 0.0
H1243 H 0.63855 0.31566 0.44299 0.0
H1244 H 0.6926 0.36777 0.43857 0.0
H1245 H 0.67325 0.39533 0.46814 0.0
H1246 H 0.68193 0.40526 0.42203 0.0
H1247 H 0.54767 0.3964 0.33902 0.0
H1248 H 0.53308 0.43589 0.38966 0.0
H1249 H 0.61227 0.40927 0.47409 0.0
C1250 C 0.65243 0.32912 0.36231 0.0
C1251 C 0.64716 0.32031 0.32222 0.0
C1252 C 0.61855 0.33006 0.29898 0.0
C1253 C 0.5966 0.34941 0.31527 0.0
C1254 C 0.60315 0.35839 0.3549 0.0
C1255 C 0.63009 0.34818 0.3781 0.0
C1256 C 0.63253 0.36209 0.41972 0.0
C1257 C 0.61895 0.33236 0.44157 0.0
C1258 C 0.67244 0.38392 0.43816 0.0
C1259 C 0.60501 0.38396 0.41612 0.0
C1260 C 0.58738 0.38069 0.37867 0.0
C1261 C 0.56108 0.39888 0.36847 0.0
C1262 C 0.55293 0.4212 0.3973 0.0
C1263 C 0.57176 0.42565 0.43551 0.0
C1264 C 0.59774 0.40649 0.44495 0.0
H1265 H 0.46089 0.98074 0.16557 0.0
H1266 H 0.48541 0.92321 0.06777 0.0
H1267 H 0.47035 0.87016 0.09595 0.0
H1268 H 0.48369 0.91484 0.23869 0.0
H1269 H 0.44626 0.92299 0.26166 0.0
H1270 H 0.47698 0.95763 0.24502 0.0
H1271 H 0.41887 0.96983 0.20627 0.0
H1272 H 0.3883 0.93512 0.22173 0.0
H1273 H 0.38663 0.9357 0.17128 0.0
H1274 H 0.42726 0.8241 0.11704 0.0
H1275 H 0.3705 0.78987 0.13569 0.0
H1276 H 0.37392 0.87603 0.22148 0.0
C1277 C 0.46579 0.95732 0.15193 0.0
C1278 C 0.47425 0.95554 0.11507 0.0
C1279 C 0.47958 0.92485 0.09656 0.0
C1280 C 0.47099 0.89458 0.11241 0.0
C1281 C 0.45825 0.89603 0.14711 0.0
C1282 C 0.45751 0.92709 0.16777 0.0
C1283 C 0.43554 0.92117 0.19971 0.0
C1284 C 0.46222 0.92965 0.23856 0.0
C1285 C 0.40556 0.9416 0.1996 0.0
C1286 C 0.41826 0.88277 0.18911 0.0
C1287 C 0.43314 0.86834 0.1601 0.0
C1288 C 0.41665 0.83468 0.14095 0.0
C1289 C 0.38405 0.81559 0.15129 0.0
C1290 C 0.3681 0.83047 0.18015 0.0
C1291 C 0.38615 0.8639 0.19997 0.0
H1292 H 0.95551 0.61814 0.91327 0.0
H1293 H 0.9279 0.52561 0.82801 0.0
H1294 H 0.88882 0.55155 0.78543 0.0
H1295 H 0.86757 0.63249 0.90154 0.0
H1296 H 0.88266 0.67891 0.90681 0.0
H1297 H 0.91299 0.65574 0.9292 0.0
H1298 H 0.96587 0.68375 0.89453 0.0
H1299 H 0.93586 0.70747 0.87246 0.0
H1300 H 0.95641 0.68052 0.84326 0.0
H1301 H 0.8449 0.58164 0.7575 0.0
H1302 H 0.80497 0.61928 0.73946 0.0
H1303 H 0.86197 0.69487 0.84015 0.0
C1304 C 0.94214 0.60376 0.88519 0.0
C1305 C 0.94478 0.56976 0.87399 0.0
C1306 C 0.92643 0.55164 0.83723 0.0
C1307 C 0.90409 0.56614 0.81282 0.0
C1308 C 0.90082 0.59899 0.82532 0.0
C1309 C 0.91988 0.61802 0.8602 0.0
C1310 C 0.90966 0.65209 0.8672 0.0
C1311 C 0.89218 0.65495 0.90333 0.0
C1312 C 0.944 0.68278 0.86949 0.0
C1313 C 0.88088 0.64852 0.83133 0.0
C1314 C 0.87631 0.61754 0.80781 0.0
C1315 C 0.84899 0.60647 0.77494 0.0
C1316 C 0.82617 0.62787 0.76521 0.0
C1317 C 0.83067 0.66004 0.78827 0.0
C1318 C 0.85859 0.6707 0.82165 0.0
H1319 H 0.38151 0.36375 0.05367 0.0
H1320 H 0.43132 0.46284 0.12697 0.0
H1321 H 0.40462 0.4393 0.18024 0.0
H1322 H 0.29465 0.34414 0.09088 0.0
H1323 H 0.29137 0.29865 0.08718 0.0
H1324 H 0.31428 0.32337 0.05469 0.0
H1325 H 0.37405 0.30326 0.07458 0.0
H1326 H 0.35147 0.27879 0.10743 0.0
H1327 H 0.39568 0.31081 0.1243 0.0
H1328 H 0.37716 0.4038 0.22697 0.0
H1329 H 0.34309 0.36055 0.26178 0.0
H1330 H 0.30687 0.28626 0.15708 0.0
C1331 C 0.38651 0.38055 0.08085 0.0
C1332 C 0.40853 0.41511 0.08623 0.0
C1333 C 0.41435 0.43635 0.12215 0.0
C1334 C 0.39951 0.42316 0.15265 0.0
C1335 C 0.37848 0.38886 0.14662 0.0
C1336 C 0.3714 0.36797 0.11147 0.0
C1337 C 0.34731 0.33217 0.11249 0.0
C1338 C 0.30967 0.32413 0.08467 0.0
C1339 C 0.3684 0.30465 0.10421 0.0
C1340 C 0.34202 0.33628 0.1537 0.0
C1341 C 0.36082 0.36897 0.17307 0.0
C1342 C 0.36185 0.37828 0.21201 0.0
C1343 C 0.34267 0.35362 0.23156 0.0
C1344 C 0.32218 0.32049 0.21186 0.0
C1345 C 0.32189 0.31173 0.17252 0.0
H1346 H 0.449 0.5991 0.92718 0.0
H1347 H 0.35786 0.5067 0.88411 0.0
H1348 H 0.31649 0.54267 0.86301 0.0
H1349 H 0.38978 0.6575 0.95607 0.0
H1350 H 0.41916 0.69352 0.94029 0.0
H1351 H 0.4392 0.66121 0.95884 0.0
H1352 H 0.46532 0.65113 0.89658 0.0
H1353 H 0.44539 0.68327 0.87795 0.0
H1354 H 0.43356 0.64022 0.85123 0.0
H1355 H 0.28778 0.58763 0.83917 0.0
H1356 H 0.2752 0.63727 0.81116 0.0
H1357 H 0.38567 0.70041 0.86793 0.0
C1358 C 0.41997 0.58649 0.91448 0.0
C1359 C 0.40651 0.55012 0.90766 0.0
C1360 C 0.36868 0.53455 0.88986 0.0
C1361 C 0.34492 0.55478 0.87795 0.0
C1362 C 0.35937 0.59056 0.88411 0.0
C1363 C 0.39603 0.6063 0.90204 0.0
C1364 C 0.4061 0.64474 0.90095 0.0
C1365 C 0.41402 0.66547 0.94145 0.0
C1366 C 0.43954 0.65544 0.88044 0.0
C1367 C 0.37002 0.64787 0.87797 0.0
C1368 C 0.34308 0.61651 0.86943 0.0
C1369 C 0.30842 0.61244 0.84622 0.0
C1370 C 0.30153 0.64086 0.83044 0.0
C1371 C 0.32943 0.67281 0.8374 0.0
C1372 C 0.36363 0.67648 0.8624 0.0
H1373 H 0.04923 0.56503 0.61779 0.0
H1374 H 0.13185 0.53316 0.55954 0.0
H1375 H 0.18264 0.56828 0.61144 0.0
H1376 H 0.09389 0.64812 0.64792 0.0
H1377 H 0.08134 0.65175 0.69462 0.0
H1378 H 0.05209 0.61917 0.65676 0.0
H1379 H 0.0587 0.57247 0.69909 0.0
H1380 H 0.08892 0.60519 0.73689 0.0
H1381 H 0.10473 0.56896 0.71835 0.0
H1382 H 0.22329 0.61387 0.66099 0.0
H1383 H 0.25095 0.67017 0.70144 0.0
H1384 H 0.1432 0.67024 0.73214 0.0
C1385 C 0.07807 0.56529 0.61651 0.0
C1386 C 0.08713 0.54703 0.58503 0.0
C1387 C 0.1248 0.54729 0.58377 0.0
C1388 C 0.15363 0.56668 0.61325 0.0
C1389 C 0.14396 0.5845 0.64422 0.0
C1390 C 0.10708 0.58373 0.64627 0.0
C1391 C 0.1046 0.60792 0.68069 0.0
C1392 C 0.08168 0.63324 0.66927 0.0
C1393 C 0.08827 0.58741 0.71052 0.0
C1394 C 0.14583 0.62571 0.69462 0.0
C1395 C 0.16809 0.61056 0.67435 0.0
C1396 C 0.20643 0.62529 0.67801 0.0
C1397 C 0.22202 0.65735 0.70118 0.0
C1398 C 0.1993 0.67437 0.72004 0.0
C1399 C 0.16129 0.65743 0.71851 0.0
H1400 H 0.39094 0.31731 0.64704 0.0
H1401 H 0.2752 0.32025 0.61557 0.0
H1402 H 0.29414 0.36008 0.57036 0.0
H1403 H 0.43295 0.40562 0.64616 0.0
H1404 H 0.47257 0.39782 0.62684 0.0
H1405 H 0.44928 0.36837 0.65499 0.0
H1406 H 0.43861 0.31769 0.59946 0.0
H1407 H 0.46171 0.34712 0.57107 0.0
H1408 H 0.41478 0.3202 0.55278 0.0
H1409 H 0.32669 0.40027 0.52831 0.0
H1410 H 0.37037 0.43996 0.49728 0.0
H1411 H 0.46418 0.41146 0.55891 0.0
C1412 C 0.36944 0.32612 0.63055 0.0
C1413 C 0.33151 0.3155 0.63478 0.0
C1414 C 0.30441 0.32792 0.61276 0.0
C1415 C 0.31489 0.35049 0.58693 0.0
C1416 C 0.35258 0.36039 0.58346 0.0
C1417 C 0.37941 0.34866 0.60486 0.0
C1418 C 0.41821 0.36391 0.59695 0.0
C1419 C 0.4448 0.3852 0.6334 0.0
C1420 C 0.43426 0.33554 0.57899 0.0
C1421 C 0.40924 0.38669 0.56839 0.0
C1422 C 0.37121 0.38394 0.56034 0.0
C1423 C 0.35651 0.40258 0.53445 0.0
C1424 C 0.38145 0.42492 0.51684 0.0
C1425 C 0.4206 0.42882 0.5258 0.0
C1426 C 0.4344 0.40916 0.55165 0.0
H1427 H 0.22667 0.6589 0.11538 0.0
H1428 H 0.17143 0.65799 0.21255 0.0
H1429 H 0.13683 0.5975 0.19008 0.0
H1430 H 0.14916 0.63334 0.05736 0.0
H1431 H 0.16196 0.60737 0.01968 0.0
H1432 H 0.19743 0.64076 0.05132 0.0
H1433 H 0.23383 0.59617 0.06877 0.0
H1434 H 0.19787 0.56238 0.03695 0.0
H1435 H 0.2107 0.55816 0.08626 0.0
H1436 H 0.09721 0.54534 0.15187 0.0
H1437 H 0.04482 0.51799 0.09841 0.0
H1438 H 0.11326 0.55826 0.01841 0.0
C1439 C 0.20872 0.64506 0.1327 0.0
C1440 C 0.20354 0.662 0.16727 0.0
C1441 C 0.17789 0.64437 0.18791 0.0
C1442 C 0.15803 0.60998 0.17499 0.0
C1443 C 0.16243 0.59407 0.13992 0.0
C1444 C 0.18652 0.61152 0.11842 0.0
C1445 C 0.1766 0.59459 0.07693 0.0
C1446 C 0.17089 0.62056 0.04981 0.0
C1447 C 0.20653 0.57675 0.06664 0.0
C1448 C 0.14035 0.5682 0.07766 0.0
C1449 C 0.13487 0.56594 0.11476 0.0
C1450 C 0.10143 0.54642 0.12278 0.0
C1451 C 0.07177 0.53119 0.0924 0.0
C1452 C 0.07566 0.5368 0.05504 0.0
C1453 C 0.11052 0.55383 0.04716 0.0
H1454 H 0.67537 0.31484 0.62688 0.0
H1455 H 0.72138 0.38397 0.73456 0.0
H1456 H 0.68506 0.42424 0.71291 0.0
H1457 H 0.67703 0.379 0.568 0.0
H1458 H 0.63341 0.35663 0.53668 0.0
H1459 H 0.66186 0.33245 0.56022 0.0
H1460 H 0.60665 0.30161 0.59008 0.0
H1461 H 0.57718 0.32435 0.56546 0.0
H1462 H 0.58233 0.32688 0.61658 0.0
H1463 H 0.64565 0.45852 0.67641 0.0
H1464 H 0.60289 0.48035 0.63163 0.0
H1465 H 0.58149 0.38618 0.55064 0.0
C1466 C 0.67782 0.3384 0.64606 0.0
C1467 C 0.70136 0.34646 0.68232 0.0
C1468 C 0.70344 0.37736 0.70665 0.0
C1469 C 0.68302 0.40038 0.69453 0.0
C1470 C 0.66036 0.39177 0.65828 0.0
C1471 C 0.65737 0.36123 0.63471 0.0
C1472 C 0.63112 0.35753 0.59726 0.0
C1473 C 0.65215 0.35631 0.56356 0.0
C1474 C 0.59732 0.32571 0.59207 0.0
C1475 C 0.61949 0.39068 0.60327 0.0
C1476 C 0.63694 0.41048 0.63833 0.0
C1477 C 0.63155 0.44299 0.64911 0.0
C1478 C 0.6074 0.45525 0.62351 0.0
C1479 C 0.5886 0.43473 0.58799 0.0
C1480 C 0.59495 0.40217 0.57792 0.0
H1481 H 0.84812 0.6495 0.18327 0.0
H1482 H 0.75542 0.63249 0.08853 0.0
H1483 H 0.77925 0.58864 0.05386 0.0
H1484 H 0.91486 0.65049 0.12952 0.0
H1485 H 0.94284 0.62908 0.15835 0.0
H1486 H 0.91395 0.65242 0.17986 0.0
H1487 H 0.8805 0.59764 0.20467 0.0
H1488 H 0.90958 0.57405 0.18338 0.0
H1489 H 0.85918 0.55812 0.17155 0.0
H1490 H 0.81812 0.55493 0.02512 0.0
H1491 H 0.86996 0.53505 0.00351 0.0
H1492 H 0.93913 0.57505 0.11578 0.0
C1493 C 0.83209 0.63564 0.15582 0.0
C1494 C 0.79956 0.64401 0.13885 0.0
C1495 C 0.78001 0.62608 0.10238 0.0
C1496 C 0.79332 0.60105 0.08248 0.0
C1497 C 0.82622 0.59425 0.09943 0.0
C1498 C 0.8453 0.61089 0.13539 0.0
C1499 C 0.88268 0.60258 0.14487 0.0
C1500 C 0.91549 0.6356 0.15363 0.0
C1501 C 0.88299 0.58186 0.17809 0.0
C1502 C 0.88269 0.58046 0.10771 0.0
C1503 C 0.84938 0.57518 0.08233 0.0
C1504 C 0.84401 0.55828 0.04497 0.0
C1505 C 0.87374 0.54725 0.03291 0.0
C1506 C 0.90861 0.55352 0.05799 0.0
C1507 C 0.91265 0.56942 0.09618 0.0
H1508 H 0.94114 0.58467 0.62556 0.0
H1509 H 0.89104 0.57873 0.50703 0.0
H1510 H 0.84733 0.61152 0.52797 0.0
H1511 H 0.85466 0.57525 0.6636 0.0
H1512 H 0.87868 0.60438 0.70695 0.0
H1513 H 0.90339 0.57891 0.68156 0.0
H1514 H 0.95374 0.63536 0.67904 0.0
H1515 H 0.92831 0.66034 0.70405 0.0
H1516 H 0.93924 0.66961 0.65844 0.0
H1517 H 0.8091 0.64653 0.56381 0.0
H1518 H 0.78492 0.68296 0.6097 0.0
H1519 H 0.86221 0.66554 0.70303 0.0
C1520 C 0.92102 0.59013 0.60379 0.0
C1521 C 0.91966 0.57908 0.56455 0.0
C1522 C 0.8927 0.5869 0.53725 0.0
C1523 C 0.86765 0.60539 0.54893 0.0
C1524 C 0.86976 0.61573 0.58801 0.0
C1525 C 0.89597 0.60834 0.61488 0.0
C1526 C 0.89364 0.62279 0.65505 0.0
C1527 C 0.88186 0.59355 0.67811 0.0
C1528 C 0.93094 0.64856 0.6753 0.0
C1529 C 0.86288 0.64062 0.6468 0.0
C1530 C 0.8487 0.6358 0.60809 0.0
C1531 C 0.82005 0.6503 0.59412 0.0
C1532 C 0.8063 0.67077 0.62029 0.0
C1533 C 0.82177 0.67695 0.65972 0.0
C1534 C 0.84995 0.66122 0.67295 0.0
H1535 H 0.4298 0.59064 0.35763 0.0
H1536 H 0.35161 0.51913 0.40814 0.0
H1537 H 0.30041 0.54269 0.38151 0.0
H1538 H 0.39425 0.66142 0.37665 0.0
H1539 H 0.40014 0.67757 0.3326 0.0
H1540 H 0.43025 0.65269 0.35165 0.0
H1541 H 0.41126 0.6095 0.28817 0.0
H1542 H 0.38132 0.63451 0.26879 0.0
H1543 H 0.36227 0.58917 0.26935 0.0
H1544 H 0.25994 0.57863 0.35786 0.0
H1545 H 0.23098 0.6224 0.33335 0.0
H1546 H 0.33332 0.66909 0.29471 0.0
C1547 C 0.40174 0.57938 0.36233 0.0
C1548 C 0.39478 0.55296 0.38498 0.0
C1549 C 0.35771 0.53926 0.39083 0.0
C1550 C 0.32838 0.55247 0.3758 0.0
C1551 C 0.33637 0.57909 0.35455 0.0
C1552 C 0.37197 0.59214 0.34727 0.0
C1553 C 0.37321 0.62206 0.32522 0.0
C1554 C 0.40111 0.6554 0.3479 0.0
C1555 C 0.38256 0.61327 0.28552 0.0
C1556 C 0.33299 0.62432 0.32226 0.0
C1557 C 0.3123 0.59921 0.3394 0.0
C1558 C 0.27546 0.5978 0.34342 0.0
C1559 C 0.25927 0.62267 0.3295 0.0
C1560 C 0.27973 0.64818 0.31138 0.0
C1561 C 0.3169 0.64897 0.30741 0.0
H1562 H 0.18036 0.353 0.83622 0.0
H1563 H 0.21388 0.31259 0.93895 0.0
H1564 H 0.1761 0.34322 0.97302 0.0
H1565 H 0.17881 0.4393 0.88899 0.0
H1566 H 0.13915 0.44166 0.8551 0.0
H1567 H 0.17255 0.42003 0.83968 0.0
H1568 H 0.11838 0.36502 0.81253 0.0
H1569 H 0.08495 0.38618 0.82848 0.0
H1570 H 0.0883 0.34596 0.84361 0.0
H1571 H 0.12813 0.36903 0.9926 0.0
H1572 H 0.0787 0.39759 0.0015 0.0
H1573 H 0.07733 0.42583 0.8883 0.0
C1574 C 0.18051 0.35139 0.86616 0.0
C1575 C 0.19988 0.3302 0.88487 0.0
C1576 C 0.19935 0.32863 0.92401 0.0
C1577 C 0.17789 0.34589 0.94363 0.0
C1578 C 0.15787 0.36528 0.92399 0.0
C1579 C 0.15967 0.36905 0.88651 0.0
C1580 C 0.13428 0.39081 0.87217 0.0
C1581 C 0.15759 0.42498 0.86347 0.0
C1582 C 0.10473 0.37077 0.83713 0.0
C1583 C 0.11645 0.39691 0.90685 0.0
C1584 C 0.13076 0.38193 0.93626 0.0
C1585 C 0.11727 0.38161 0.97025 0.0
C1586 C 0.08884 0.39765 0.97482 0.0
C1587 C 0.07418 0.4141 0.94571 0.0
C1588 C 0.08827 0.41379 0.9112 0.0
H1589 H 0.13128 0.27476 0.33236 0.0
H1590 H 0.23647 0.3517 0.3378 0.0
H1591 H 0.21544 0.39306 0.38041 0.0
H1592 H 0.07385 0.33044 0.32518 0.0
H1593 H 0.04185 0.30972 0.35365 0.0
H1594 H 0.06695 0.28513 0.3276 0.0
H1595 H 0.09402 0.26644 0.39004 0.0
H1596 H 0.06861 0.29066 0.4163 0.0
H1597 H 0.1187 0.29891 0.4306 0.0
H1598 H 0.1806 0.42703 0.41882 0.0
H1599 H 0.13528 0.45093 0.44941 0.0
H1600 H 0.05238 0.35168 0.41627 0.0
C1601 C 0.15029 0.3001 0.34299 0.0
C1602 C 0.18564 0.30998 0.33193 0.0
C1603 C 0.20944 0.34348 0.34625 0.0
C1604 C 0.19768 0.36713 0.37036 0.0
C1605 C 0.16217 0.35674 0.3799 0.0
C1606 C 0.13895 0.32391 0.36676 0.0
C1607 C 0.10127 0.31958 0.37909 0.0
C1608 C 0.0691 0.31071 0.34431 0.0
C1609 C 0.09532 0.29229 0.40559 0.0
C1610 C 0.10649 0.3554 0.4006 0.0
C1611 C 0.14194 0.37635 0.4012 0.0
C1612 C 0.15291 0.41076 0.41879 0.0
C1613 C 0.12697 0.42408 0.43611 0.0
C1614 C 0.09032 0.40314 0.43532 0.0
C1615 C 0.08018 0.36833 0.41743 0.0
loop_
_geom_bond_atom_site_label_1
_geom_bond_atom_site_label_2
_geom_bond_distance
_geom_bond_site_symmetry_2
_ccdc_geom_bond_type
Zn0 O6 1.969 . S
Zn0 O7 1.965 1_655 S
Zn0 O11 2.024 1_556 S
Zn0 O16 1.969 1_546 S
Zn1 O8 1.969 1_564 S
Zn1 O14 1.969 . S
Zn1 O15 1.965 1_455 S
Zn1 O17 2.024 1_554 S
C2 O3 1.229 . S
C2 O11 1.058 . S
O3 C2 1.229 . S
C4 O5 1.229 . S
C4 O17 1.058 . S
O5 C4 1.229 . S
O6 Zn0 1.969 . S
O6 C9 1.267 . S
O7 Zn0 1.965 1_455 S
O7 C18 1.260 . S
O8 Zn1 1.969 1_546 S
O8 C18 1.258 . S
C9 O6 1.267 . S
C9 O10 1.228 . S
O10 C9 1.228 . S
O11 Zn0 2.024 1_554 S
O11 C2 1.058 . S
C12 O13 1.228 . S
C12 O14 1.267 . S
O13 C12 1.228 . S
O14 Zn1 1.969 . S
O14 C12 1.267 . S
O15 Zn1 1.965 1_655 S
O15 C19 1.260 . S
O16 Zn0 1.969 1_564 S
O16 C19 1.258 . S
O17 Zn1 2.024 1_556 S
O17 C4 1.058 . S
C18 O7 1.260 . S
C18 O8 1.258 . S
C19 O15 1.260 . S
C19 O16 1.258 . S
Zn20 O26 1.969 . S
Zn20 O27 1.965 . S
Zn20 O31 2.024 . S
Zn20 O36 1.969 . S
Zn21 O28 1.969 . S
Zn21 O34 1.969 . S
Zn21 O35 1.965 . S
Zn21 O37 2.024 . S
C22 O23 1.229 . S
C22 O31 1.058 . S
O23 C22 1.229 . S
C24 O25 1.229 . S
C24 O37 1.058 . S
O25 C24 1.229 . S
O26 Zn20 1.969 . S
O26 C29 1.267 . S
O27 Zn20 1.965 . S
O27 C38 1.260 . S
O28 Zn21 1.969 . S
O28 C38 1.258 . S
C29 O26 1.267 . S
C29 O30 1.228 . S
O30 C29 1.228 . S
O31 Zn20 2.024 . S
O31 C22 1.058 . S
C32 O33 1.228 . S
C32 O34 1.267 . S
O33 C32 1.228 . S
O34 Zn21 1.969 . S
O34 C32 1.267 . S
O35 Zn21 1.965 . S
O35 C39 1.260 . S
O36 Zn20 1.969 . S
O36 C39 1.258 . S
O37 Zn21 2.024 . S
O37 C24 1.058 . S
C38 O27 1.260 . S
C38 O28 1.258 . S
C39 O35 1.260 . S
C39 O36 1.258 . S
Zn40 O46 1.969 . S
Zn40 O47 1.965 . S
Zn40 O51 2.024 . S
Zn40 O56 1.969 1_565 S
Zn41 O48 1.969 1_545 S
Zn41 O54 1.969 . S
Zn41 O55 1.965 . S
Zn41 O57 2.024 . S
C42 O43 1.229 . S
C42 O51 1.058 . S
O43 C42 1.229 . S
C44 O45 1.229 . S
C44 O57 1.058 . S
O45 C44 1.229 . S
O46 Zn40 1.969 . S
O46 C49 1.267 . S
O47 Zn40 1.965 . S
O47 C58 1.260 . S
O48 Zn41 1.969 1_565 S
O48 C58 1.258 . S
C49 O46 1.267 . S
C49 O50 1.228 . S
O50 C49 1.228 . S
O51 Zn40 2.024 . S
O51 C42 1.058 . S
C52 O53 1.228 . S
C52 O54 1.267 . S
O53 C52 1.228 . S
O54 Zn41 1.969 . S
O54 C52 1.267 . S
O55 Zn41 1.965 . S
O55 C59 1.260 . S
O56 Zn40 1.969 1_545 S
O56 C59 1.258 . S
O57 Zn41 2.024 . S
O57 C44 1.058 . S
C58 O47 1.260 . S
C58 O48 1.258 . S
C59 O55 1.260 . S
C59 O56 1.258 . S
Zn60 O66 1.969 . S
Zn60 O67 1.965 . S
Zn60 O71 2.024 . S
Zn60 O76 1.969 . S
Zn61 O68 1.969 . S
Zn61 O74 1.969 . S
Zn61 O75 1.965 . S
Zn61 O77 2.024 . S
C62 O63 1.229 . S
C62 O71 1.058 . S
O63 C62 1.229 . S
C64 O65 1.229 . S
C64 O77 1.058 . S
O65 C64 1.229 . S
O66 Zn60 1.969 . S
O66 C69 1.267 . S
O67 Zn60 1.965 . S
O67 C78 1.260 . S
O68 Zn61 1.969 . S
O68 C78 1.258 . S
C69 O66 1.267 . S
C69 O70 1.228 . S
O70 C69 1.228 . S
O71 Zn60 2.024 . S
O71 C62 1.058 . S
C72 O73 1.228 . S
C72 O74 1.267 . S
O73 C72 1.228 . S
O74 Zn61 1.969 . S
O74 C72 1.267 . S
O75 Zn61 1.965 . S
O75 C79 1.260 . S
O76 Zn60 1.969 . S
O76 C79 1.258 . S
O77 Zn61 2.024 . S
O77 C64 1.058 . S
C78 O67 1.260 . S
C78 O68 1.258 . S
C79 O75 1.260 . S
C79 O76 1.258 . S
Zn80 O86 1.969 . S
Zn80 O87 1.965 . S
Zn80 O91 2.024 1_455 S
Zn80 O96 1.969 1_445 S
Zn81 O88 1.969 1_665 S
Zn81 O94 1.969 . S
Zn81 O95 1.965 . S
Zn81 O97 2.024 1_655 S
C82 O83 1.229 . S
C82 O91 1.058 . S
O83 C82 1.229 . S
C84 O85 1.229 . S
C84 O97 1.058 . S
O85 C84 1.229 . S
O86 Zn80 1.969 . S
O86 C89 1.267 . S
O87 Zn80 1.965 . S
O87 C98 1.260 . S
O88 Zn81 1.969 1_445 S
O88 C98 1.258 . S
C89 O86 1.267 . S
C89 O90 1.228 . S
O90 C89 1.228 . S
O91 Zn80 2.024 1_655 S
O91 C82 1.058 . S
C92 O93 1.228 . S
C92 O94 1.267 . S
O93 C92 1.228 . S
O94 Zn81 1.969 . S
O94 C92 1.267 . S
O95 Zn81 1.965 . S
O95 C99 1.260 . S
O96 Zn80 1.969 1_665 S
O96 C99 1.258 . S
O97 Zn81 2.024 1_455 S
O97 C84 1.058 . S
C98 O87 1.260 . S
C98 O88 1.258 . S
C99 O95 1.260 . S
C99 O96 1.258 . S
Zn100 O106 1.969 . S
Zn100 O107 1.965 . S
Zn100 O111 2.024 . S
Zn100 O116 1.969 . S
Zn101 O108 1.969 . S
Zn101 O114 1.969 . S
Zn101 O115 1.965 . S
Zn101 O117 2.024 . S
C102 O103 1.229 . S
C102 O111 1.058 . S
O103 C102 1.229 . S
C104 O105 1.229 . S
C104 O117 1.058 . S
O105 C104 1.229 . S
O106 Zn100 1.969 . S
O106 C109 1.267 . S
O107 Zn100 1.965 . S
O107 C118 1.260 . S
O108 Zn101 1.969 . S
O108 C118 1.258 . S
C109 O106 1.267 . S
C109 O110 1.228 . S
O110 C109 1.228 . S
O111 Zn100 2.024 . S
O111 C102 1.058 . S
C112 O113 1.228 . S
C112 O114 1.267 . S
O113 C112 1.228 . S
O114 Zn101 1.969 . S
O114 C112 1.267 . S
O115 Zn101 1.965 . S
O115 C119 1.260 . S
O116 Zn100 1.969 . S
O116 C119 1.258 . S
O117 Zn101 2.024 . S
O117 C104 1.058 . S
C118 O107 1.260 . S
C118 O108 1.258 . S
C119 O115 1.260 . S
C119 O116 1.258 . S
Zn120 O126 1.969 . S
Zn120 O127 1.965 . S
Zn120 O131 2.024 1_545 S
Zn120 O136 1.969 1_544 S
Zn121 O128 1.969 1_566 S
Zn121 O134 1.969 . S
Zn121 O135 1.965 . S
Zn121 O137 2.024 1_565 S
C122 O123 1.229 . S
C122 O131 1.058 . S
O123 C122 1.229 . S
C124 O125 1.229 . S
C124 O137 1.058 . S
O125 C124 1.229 . S
O126 Zn120 1.969 . S
O126 C129 1.267 . S
O127 Zn120 1.965 . S
O127 C138 1.260 . S
O128 Zn121 1.969 1_544 S
O128 C138 1.258 . S
C129 O126 1.267 . S
C129 O130 1.228 . S
O130 C129 1.228 . S
O131 Zn120 2.024 1_565 S
O131 C122 1.058 . S
C132 O133 1.228 . S
C132 O134 1.267 . S
O133 C132 1.228 . S
O134 Zn121 1.969 . S
O134 C132 1.267 . S
O135 Zn121 1.965 . S
O135 C139 1.260 . S
O136 Zn120 1.969 1_566 S
O136 C139 1.258 . S
O137 Zn121 2.024 1_545 S
O137 C124 1.058 . S
C138 O127 1.260 . S
C138 O128 1.258 . S
C139 O135 1.260 . S
C139 O136 1.258 . S
Zn140 O146 1.969 . S
Zn140 O147 1.965 . S
Zn140 O151 2.024 . S
Zn140 O156 1.969 . S
Zn141 O148 1.969 . S
Zn141 O154 1.969 . S
Zn141 O155 1.965 . S
Zn141 O157 2.024 . S
C142 O143 1.229 . S
C142 O151 1.058 . S
O143 C142 1.229 . S
C144 O145 1.229 . S
C144 O157 1.058 . S
O145 C144 1.229 . S
O146 Zn140 1.969 . S
O146 C149 1.267 . S
O147 Zn140 1.965 . S
O147 C158 1.260 . S
O148 Zn141 1.969 . S
O148 C158 1.258 . S
C149 O146 1.267 . S
C149 O150 1.228 . S
O150 C149 1.228 . S
O151 Zn140 2.024 . S
O151 C142 1.058 . S
C152 O153 1.228 . S
C152 O154 1.267 . S
O153 C152 1.228 . S
O154 Zn141 1.969 . S
O154 C152 1.267 . S
O155 Zn141 1.965 . S
O155 C159 1.260 . S
O156 Zn140 1.969 . S
O156 C159 1.258 . S
O157 Zn141 2.024 . S
O157 C144 1.058 . S
C158 O147 1.260 . S
C158 O148 1.258 . S
C159 O155 1.260 . S
C159 O156 1.258 . S
Zn160 O166 1.969 . S
Zn160 O167 1.965 1_556 S
Zn160 O171 2.024 . S
Zn160 O176 1.969 . S
Zn161 O168 1.969 . S
Zn161 O174 1.969 . S
Zn161 O175 1.965 1_554 S
Zn161 O177 2.024 . S
C162 O163 1.229 . S
C162 O171 1.058 . S
O163 C162 1.229 . S
C164 O165 1.229 . S
C164 O177 1.058 . S
O165 C164 1.229 . S
O166 Zn160 1.969 . S
O166 C169 1.267 . S
O167 Zn160 1.965 1_554 S
O167 C178 1.260 . S
O168 Zn161 1.969 . S
O168 C178 1.258 . S
C169 O166 1.267 . S
C169 O170 1.228 . S
O170 C169 1.228 . S
O171 Zn160 2.024 . S
O171 C162 1.058 . S
C172 O173 1.228 . S
C172 O174 1.267 . S
O173 C172 1.228 . S
O174 Zn161 1.969 . S
O174 C172 1.267 . S
O175 Zn161 1.965 1_556 S
O175 C179 1.260 . S
O176 Zn160 1.969 . S
O176 C179 1.258 . S
O177 Zn161 2.024 . S
O177 C164 1.058 . S
C178 O167 1.260 . S
C178 O168 1.258 . S
C179 O175 1.260 . S
C179 O176 1.258 . S
Zn180 O186 1.969 . S
Zn180 O187 1.965 . S
Zn180 O191 2.024 . S
Zn180 O196 1.969 . S
Zn181 O188 1.969 . S
Zn181 O194 1.969 . S
Zn181 O195 1.965 . S
Zn181 O197 2.024 . S
C182 O183 1.229 . S
C182 O191 1.058 . S
O183 C182 1.229 . S
C184 O185 1.229 . S
C184 O197 1.058 . S
O185 C184 1.229 . S
O186 Zn180 1.969 . S
O186 C189 1.267 . S
O187 Zn180 1.965 . S
O187 C198 1.260 . S
O188 Zn181 1.969 . S
O188 C198 1.258 . S
C189 O186 1.267 . S
C189 O190 1.228 . S
O190 C189 1.228 . S
O191 Zn180 2.024 . S
O191 C182 1.058 . S
C192 O193 1.228 . S
C192 O194 1.267 . S
O193 C192 1.228 . S
O194 Zn181 1.969 . S
O194 C192 1.267 . S
O195 Zn181 1.965 . S
O195 C199 1.260 . S
O196 Zn180 1.969 . S
O196 C199 1.258 . S
O197 Zn181 2.024 . S
O197 C184 1.058 . S
C198 O187 1.260 . S
C198 O188 1.258 . S
C199 O195 1.260 . S
C199 O196 1.258 . S
Zn200 O206 1.969 . S
Zn200 O207 1.965 1_655 S
Zn200 O211 2.024 . S
Zn200 O216 1.969 . S
Zn201 O208 1.969 . S
Zn201 O214 1.969 . S
Zn201 O215 1.965 1_455 S
Zn201 O217 2.024 . S
C202 O203 1.229 . S
C202 O211 1.058 . S
O203 C202 1.229 . S
C204 O205 1.229 . S
C204 O217 1.058 . S
O205 C204 1.229 . S
O206 Zn200 1.969 . S
O206 C209 1.267 . S
O207 Zn200 1.965 1_455 S
O207 C218 1.260 . S
O208 Zn201 1.969 . S
O208 C218 1.258 . S
C209 O206 1.267 . S
C209 O210 1.228 . S
O210 C209 1.228 . S
O211 Zn200 2.024 . S
O211 C202 1.058 . S
C212 O213 1.228 . S
C212 O214 1.267 . S
O213 C212 1.228 . S
O214 Zn201 1.969 . S
O214 C212 1.267 . S
O215 Zn201 1.965 1_655 S
O215 C219 1.260 . S
O216 Zn200 1.969 . S
O216 C219 1.258 . S
O217 Zn201 2.024 . S
O217 C204 1.058 . S
C218 O207 1.260 . S
C218 O208 1.258 . S
C219 O215 1.260 . S
C219 O216 1.258 . S
Zn220 O226 1.969 . S
Zn220 O227 1.965 . S
Zn220 O231 2.024 . S
Zn220 O236 1.969 . S
Zn221 O228 1.969 . S
Zn221 O234 1.969 . S
Zn221 O235 1.965 . S
Zn221 O237 2.024 . S
C222 O223 1.229 . S
C222 O231 1.058 . S
O223 C222 1.229 . S
C224 O225 1.229 . S
C224 O237 1.058 . S
O225 C224 1.229 . S
O226 Zn220 1.969 . S
O226 C229 1.267 . S
O227 Zn220 1.965 . S
O227 C238 1.260 . S
O228 Zn221 1.969 . S
O228 C238 1.258 . S
C229 O226 1.267 . S
C229 O230 1.228 . S
O230 C229 1.228 . S
O231 Zn220 2.024 . S
O231 C222 1.058 . S
C232 O233 1.228 . S
C232 O234 1.267 . S
O233 C232 1.228 . S
O234 Zn221 1.969 . S
O234 C232 1.267 . S
O235 Zn221 1.965 . S
O235 C239 1.260 . S
O236 Zn220 1.969 . S
O236 C239 1.258 . S
O237 Zn221 2.024 . S
O237 C224 1.058 . S
C238 O227 1.260 . S
C238 O228 1.258 . S
C239 O235 1.260 . S
C239 O236 1.258 . S
Zn240 O246 1.969 . S
Zn240 O247 1.965 . S
Zn240 O251 2.024 . S
Zn240 O256 1.969 . S
Zn241 O248 1.969 . S
Zn241 O254 1.969 . S
Zn241 O255 1.965 . S
Zn241 O257 2.024 . S
C242 O243 1.229 . S
C242 O251 1.058 . S
O243 C242 1.229 . S
C244 O245 1.229 . S
C244 O257 1.058 . S
O245 C244 1.229 . S
O246 Zn240 1.969 . S
O246 C249 1.267 . S
O247 Zn240 1.965 . S
O247 C258 1.260 . S
O248 Zn241 1.969 . S
O248 C258 1.258 . S
C249 O246 1.267 . S
C249 O250 1.228 . S
O250 C249 1.228 . S
O251 Zn240 2.024 . S
O251 C242 1.058 . S
C252 O253 1.228 . S
C252 O254 1.267 . S
O253 C252 1.228 . S
O254 Zn241 1.969 . S
O254 C252 1.267 . S
O255 Zn241 1.965 . S
O255 C259 1.260 . S
O256 Zn240 1.969 . S
O256 C259 1.258 . S
O257 Zn241 2.024 . S
O257 C244 1.058 . S
C258 O247 1.260 . S
C258 O248 1.258 . S
C259 O255 1.260 . S
C259 O256 1.258 . S
Zn260 O266 1.969 . S
Zn260 O267 1.965 . S
Zn260 O271 2.024 . S
Zn260 O276 1.969 . S
Zn261 O268 1.969 . S
Zn261 O274 1.969 . S
Zn261 O275 1.965 . S
Zn261 O277 2.024 . S
C262 O263 1.229 . S
C262 O271 1.058 . S
O263 C262 1.229 . S
C264 O265 1.229 . S
C264 O277 1.058 . S
O265 C264 1.229 . S
O266 Zn260 1.969 . S
O266 C269 1.267 . S
O267 Zn260 1.965 . S
O267 C278 1.260 . S
O268 Zn261 1.969 . S
O268 C278 1.258 . S
C269 O266 1.267 . S
C269 O270 1.228 . S
O270 C269 1.228 . S
O271 Zn260 2.024 . S
O271 C262 1.058 . S
C272 O273 1.228 . S
C272 O274 1.267 . S
O273 C272 1.228 . S
O274 Zn261 1.969 . S
O274 C272 1.267 . S
O275 Zn261 1.965 . S
O275 C279 1.260 . S
O276 Zn260 1.969 . S
O276 C279 1.258 . S
O277 Zn261 2.024 . S
O277 C264 1.058 . S
C278 O267 1.260 . S
C278 O268 1.258 . S
C279 O275 1.260 . S
C279 O276 1.258 . S
Zn280 O286 1.969 . S
Zn280 O287 1.965 . S
Zn280 O291 2.024 . S
Zn280 O296 1.969 . S
Zn281 O288 1.969 . S
Zn281 O294 1.969 . S
Zn281 O295 1.965 . S
Zn281 O297 2.024 . S
C282 O283 1.229 . S
C282 O291 1.058 . S
O283 C282 1.229 . S
C284 O285 1.229 . S
C284 O297 1.058 . S
O285 C284 1.229 . S
O286 Zn280 1.969 . S
O286 C289 1.267 . S
O287 Zn280 1.965 . S
O287 C298 1.260 . S
O288 Zn281 1.969 . S
O288 C298 1.258 . S
C289 O286 1.267 . S
C289 O290 1.228 . S
O290 C289 1.228 . S
O291 Zn280 2.024 . S
O291 C282 1.058 . S
C292 O293 1.228 . S
C292 O294 1.267 . S
O293 C292 1.228 . S
O294 Zn281 1.969 . S
O294 C292 1.267 . S
O295 Zn281 1.965 . S
O295 C299 1.260 . S
O296 Zn280 1.969 . S
O296 C299 1.258 . S
O297 Zn281 2.024 . S
O297 C284 1.058 . S
C298 O287 1.260 . S
C298 O288 1.258 . S
C299 O295 1.260 . S
C299 O296 1.258 . S
Zn300 O306 1.969 . S
Zn300 O307 1.965 . S
Zn300 O311 2.024 1_554 S
Zn300 O316 1.969 1_454 S
Zn301 O308 1.969 1_656 S
Zn301 O314 1.969 . S
Zn301 O315 1.965 . S
Zn301 O317 2.024 1_556 S
C302 O303 1.229 . S
C302 O311 1.058 . S
O303 C302 1.229 . S
C304 O305 1.229 . S
C304 O317 1.058 . S
O305 C304 1.229 . S
O306 Zn300 1.969 . S
O306 C309 1.267 . S
O307 Zn300 1.965 . S
O307 C318 1.260 . S
O308 Zn301 1.969 1_454 S
O308 C318 1.258 . S
C309 O306 1.267 . S
C309 O310 1.228 . S
O310 C309 1.228 . S
O311 Zn300 2.024 1_556 S
O311 C302 1.058 . S
C312 O313 1.228 . S
C312 O314 1.267 . S
O313 C312 1.228 . S
O314 Zn301 1.969 . S
O314 C312 1.267 . S
O315 Zn301 1.965 . S
O315 C319 1.260 . S
O316 Zn300 1.969 1_656 S
O316 C319 1.258 . S
O317 Zn301 2.024 1_554 S
O317 C304 1.058 . S
C318 O307 1.260 . S
C318 O308 1.258 . S
C319 O315 1.260 . S
C319 O316 1.258 . S
H320 C332 0.930 . S
H321 C334 0.930 . S
H322 C335 0.930 . S
H323 C339 0.959 . S
H324 C339 0.959 . S
H325 C339 0.961 . S
H326 C340 0.960 . S
H327 C340 0.961 . S
H328 C340 0.959 . S
H329 C343 0.929 . S
H330 C344 0.931 1_554 S
H331 C346 0.930 . S
C332 H320 0.930 . S
C332 C333 1.399 . S
C332 C337 1.399 . S
C333 C332 1.399 . S
C333 C334 1.376 . S
C334 H321 0.930 . S
C334 C333 1.376 . S
C334 C335 1.388 . S
C335 H322 0.930 . S
C335 C334 1.388 . S
C335 C336 1.390 . S
C336 C335 1.390 . S
C336 C337 1.394 . S
C336 C342 1.465 . S
C337 C332 1.399 . S
C337 C336 1.394 . S
C337 C338 1.516 . S
C338 C337 1.516 . S
C338 C339 1.502 . S
C338 C340 1.561 . S
C338 C341 1.526 . S
C339 H323 0.959 . S
C339 H324 0.959 . S
C339 H325 0.961 . S
C339 C338 1.502 . S
C340 H326 0.960 . S
C340 H327 0.961 . S
C340 H328 0.959 . S
C340 C338 1.561 . S
C341 C338 1.526 . S
C341 C342 1.396 . S
C341 C346 1.390 . S
C342 C336 1.465 . S
C342 C341 1.396 . S
C342 C343 1.399 . S
C343 H329 0.929 . S
C343 C342 1.399 . S
C343 C344 1.385 . S
C344 H330 0.931 1_556 S
C344 C343 1.385 . S
C344 C345 1.389 . S
C345 C344 1.389 . S
C345 C346 1.387 . S
C346 H331 0.930 . S
C346 C341 1.390 . S
C346 C345 1.387 . S
H347 C359 0.930 . S
H348 C361 0.930 . S
H349 C362 0.930 . S
H350 C366 0.959 . S
H351 C366 0.959 . S
H352 C366 0.961 . S
H353 C367 0.960 . S
H354 C367 0.961 . S
H355 C367 0.959 . S
H356 C370 0.929 . S
H357 C371 0.931 . S
H358 C373 0.930 . S
C359 H347 0.930 . S
C359 C360 1.399 . S
C359 C364 1.399 . S
C360 C359 1.399 . S
C360 C361 1.376 . S
C361 H348 0.930 . S
C361 C360 1.376 . S
C361 C362 1.388 . S
C362 H349 0.930 . S
C362 C361 1.388 . S
C362 C363 1.390 . S
C363 C362 1.390 . S
C363 C364 1.394 . S
C363 C369 1.465 . S
C364 C359 1.399 . S
C364 C363 1.394 . S
C364 C365 1.516 . S
C365 C364 1.516 . S
C365 C366 1.502 . S
C365 C367 1.561 . S
C365 C368 1.526 . S
C366 H350 0.959 . S
C366 H351 0.959 . S
C366 H352 0.961 . S
C366 C365 1.502 . S
C367 H353 0.960 . S
C367 H354 0.961 . S
C367 H355 0.959 . S
C367 C365 1.561 . S
C368 C365 1.526 . S
C368 C369 1.396 . S
C368 C373 1.390 . S
C369 C363 1.465 . S
C369 C368 1.396 . S
C369 C370 1.399 . S
C370 H356 0.929 . S
C370 C369 1.399 . S
C370 C371 1.385 . S
C371 H357 0.931 . S
C371 C370 1.385 . S
C371 C372 1.389 . S
C372 C371 1.389 . S
C372 C373 1.387 . S
C373 H358 0.930 . S
C373 C368 1.390 . S
C373 C372 1.387 . S
H374 C386 0.930 . S
H375 C388 0.930 . S
H376 C389 0.930 . S
H377 C393 0.959 . S
H378 C393 0.959 . S
H379 C393 0.961 . S
H380 C394 0.960 . S
H381 C394 0.961 . S
H382 C394 0.959 . S
H383 C397 0.929 . S
H384 C398 0.931 . S
H385 C400 0.930 . S
C386 H374 0.930 . S
C386 C387 1.399 . S
C386 C391 1.399 . S
C387 C386 1.399 . S
C387 C388 1.376 . S
C388 H375 0.930 . S
C388 C387 1.376 . S
C388 C389 1.388 . S
C389 H376 0.930 . S
C389 C388 1.388 . S
C389 C390 1.390 . S
C390 C389 1.390 . S
C390 C391 1.394 . S
C390 C396 1.465 . S
C391 C386 1.399 . S
C391 C390 1.394 . S
C391 C392 1.516 . S
C392 C391 1.516 . S
C392 C393 1.502 . S
C392 C394 1.561 . S
C392 C395 1.526 . S
C393 H377 0.959 . S
C393 H378 0.959 . S
C393 H379 0.961 . S
C393 C392 1.502 . S
C394 H380 0.960 . S
C394 H381 0.961 . S
C394 H382 0.959 . S
C394 C392 1.561 . S
C395 C392 1.526 . S
C395 C396 1.396 . S
C395 C400 1.390 . S
C396 C390 1.465 . S
C396 C395 1.396 . S
C396 C397 1.399 . S
C397 H383 0.929 . S
C397 C396 1.399 . S
C397 C398 1.385 . S
C398 H384 0.931 . S
C398 C397 1.385 . S
C398 C399 1.389 . S
C399 C398 1.389 . S
C399 C400 1.387 . S
C400 H385 0.930 . S
C400 C395 1.390 . S
C400 C399 1.387 . S
H401 C413 0.930 . S
H402 C415 0.930 . S
H403 C416 0.930 . S
H404 C420 0.959 . S
H405 C420 0.959 . S
H406 C420 0.961 . S
H407 C421 0.960 . S
H408 C421 0.961 . S
H409 C421 0.959 . S
H410 C424 0.929 . S
H411 C425 0.931 . S
H412 C427 0.930 . S
C413 H401 0.930 . S
C413 C414 1.399 . S
C413 C418 1.399 . S
C414 C413 1.399 . S
C414 C415 1.376 . S
C415 H402 0.930 . S
C415 C414 1.376 . S
C415 C416 1.388 . S
C416 H403 0.930 . S
C416 C415 1.388 . S
C416 C417 1.390 . S
C417 C416 1.390 . S
C417 C418 1.394 . S
C417 C423 1.465 . S
C418 C413 1.399 . S
C418 C417 1.394 . S
C418 C419 1.516 . S
C419 C418 1.516 . S
C419 C420 1.502 . S
C419 C421 1.561 . S
C419 C422 1.526 . S
C420 H404 0.959 . S
C420 H405 0.959 . S
C420 H406 0.961 . S
C420 C419 1.502 . S
C421 H407 0.960 . S
C421 H408 0.961 . S
C421 H409 0.959 . S
C421 C419 1.561 . S
C422 C419 1.526 . S
C422 C423 1.396 . S
C422 C427 1.390 . S
C423 C417 1.465 . S
C423 C422 1.396 . S
C423 C424 1.399 . S
C424 H410 0.929 . S
C424 C423 1.399 . S
C424 C425 1.385 . S
C425 H411 0.931 . S
C425 C424 1.385 . S
C425 C426 1.389 . S
C426 C425 1.389 . S
C426 C427 1.387 . S
C427 H412 0.930 . S
C427 C422 1.390 . S
C427 C426 1.387 . S
H428 C440 0.930 . S
H429 C442 0.930 . S
H430 C443 0.930 . S
H431 C447 0.959 . S
H432 C447 0.959 . S
H433 C447 0.961 . S
H434 C448 0.960 . S
H435 C448 0.961 . S
H436 C448 0.959 . S
H437 C451 0.929 . S
H438 C452 0.931 . S
H439 C454 0.930 . S
C440 H428 0.930 . S
C440 C441 1.399 . S
C440 C445 1.399 . S
C441 C440 1.399 . S
C441 C442 1.376 . S
C442 H429 0.930 . S
C442 C441 1.376 . S
C442 C443 1.388 . S
C443 H430 0.930 . S
C443 C442 1.388 . S
C443 C444 1.390 . S
C444 C443 1.390 . S
C444 C445 1.394 . S
C444 C450 1.465 . S
C445 C440 1.399 . S
C445 C444 1.394 . S
C445 C446 1.516 . S
C446 C445 1.516 . S
C446 C447 1.502 . S
C446 C448 1.561 . S
C446 C449 1.526 . S
C447 H431 0.959 . S
C447 H432 0.959 . S
C447 H433 0.961 . S
C447 C446 1.502 . S
C448 H434 0.960 . S
C448 H435 0.961 . S
C448 H436 0.959 . S
C448 C446 1.561 . S
C449 C446 1.526 . S
C449 C450 1.396 . S
C449 C454 1.390 . S
C450 C444 1.465 . S
C450 C449 1.396 . S
C450 C451 1.399 . S
C451 H437 0.929 . S
C451 C450 1.399 . S
C451 C452 1.385 . S
C452 H438 0.931 . S
C452 C451 1.385 . S
C452 C453 1.389 . S
C453 C452 1.389 . S
C453 C454 1.387 . S
C454 H439 0.930 . S
C454 C449 1.390 . S
C454 C453 1.387 . S
H455 C467 0.930 . S
H456 C469 0.930 . S
H457 C470 0.930 . S
H458 C474 0.959 . S
H459 C474 0.959 . S
H460 C474 0.961 . S
H461 C475 0.960 . S
H462 C475 0.961 . S
H463 C475 0.959 . S
H464 C478 0.929 . S
H465 C479 0.931 . S
H466 C481 0.930 . S
C467 H455 0.930 . S
C467 C468 1.399 . S
C467 C472 1.399 . S
C468 C467 1.399 . S
C468 C469 1.376 . S
C469 H456 0.930 . S
C469 C468 1.376 . S
C469 C470 1.388 . S
C470 H457 0.930 . S
C470 C469 1.388 . S
C470 C471 1.390 . S
C471 C470 1.390 . S
C471 C472 1.394 . S
C471 C477 1.465 . S
C472 C467 1.399 . S
C472 C471 1.394 . S
C472 C473 1.516 . S
C473 C472 1.516 . S
C473 C474 1.502 . S
C473 C475 1.561 . S
C473 C476 1.526 . S
C474 H458 0.959 . S
C474 H459 0.959 . S
C474 H460 0.961 . S
C474 C473 1.502 . S
C475 H461 0.960 . S
C475 H462 0.961 . S
C475 H463 0.959 . S
C475 C473 1.561 . S
C476 C473 1.526 . S
C476 C477 1.396 . S
C476 C481 1.390 . S
C477 C471 1.465 . S
C477 C476 1.396 . S
C477 C478 1.399 . S
C478 H464 0.929 . S
C478 C477 1.399 . S
C478 C479 1.385 . S
C479 H465 0.931 . S
C479 C478 1.385 . S
C479 C480 1.389 . S
C480 C479 1.389 . S
C480 C481 1.387 . S
C481 H466 0.930 . S
C481 C476 1.390 . S
C481 C480 1.387 . S
H482 C494 0.930 . S
H483 C496 0.930 . S
H484 C497 0.930 . S
H485 C501 0.959 . S
H486 C501 0.959 . S
H487 C501 0.961 . S
H488 C502 0.960 . S
H489 C502 0.961 . S
H490 C502 0.959 . S
H491 C505 0.929 . S
H492 C506 0.931 . S
H493 C508 0.930 . S
C494 H482 0.930 . S
C494 C495 1.399 . S
C494 C499 1.399 . S
C495 C494 1.399 . S
C495 C496 1.376 . S
C496 H483 0.930 . S
C496 C495 1.376 . S
C496 C497 1.388 . S
C497 H484 0.930 . S
C497 C496 1.388 . S
C497 C498 1.390 . S
C498 C497 1.390 . S
C498 C499 1.394 . S
C498 C504 1.465 . S
C499 C494 1.399 . S
C499 C498 1.394 . S
C499 C500 1.516 . S
C500 C499 1.516 . S
C500 C501 1.502 . S
C500 C502 1.561 . S
C500 C503 1.526 . S
C501 H485 0.959 . S
C501 H486 0.959 . S
C501 H487 0.961 . S
C501 C500 1.502 . S
C502 H488 0.960 . S
C502 H489 0.961 . S
C502 H490 0.959 . S
C502 C500 1.561 . S
C503 C500 1.526 . S
C503 C504 1.396 . S
C503 C508 1.390 . S
C504 C498 1.465 . S
C504 C503 1.396 . S
C504 C505 1.399 . S
C505 H491 0.929 . S
C505 C504 1.399 . S
C505 C506 1.385 . S
C506 H492 0.931 . S
C506 C505 1.385 . S
C506 C507 1.389 . S
C507 C506 1.389 . S
C507 C508 1.387 . S
C508 H493 0.930 . S
C508 C503 1.390 . S
C508 C507 1.387 . S
H509 C521 0.930 . S
H510 C523 0.930 . S
H511 C524 0.930 . S
H512 C528 0.959 . S
H513 C528 0.959 . S
H514 C528 0.961 . S
H515 C529 0.960 . S
H516 C529 0.961 . S
H517 C529 0.959 . S
H518 C532 0.929 . S
H519 C533 0.931 . S
H520 C535 0.930 . S
C521 H509 0.930 . S
C521 C522 1.399 . S
C521 C526 1.399 . S
C522 C521 1.399 . S
C522 C523 1.376 . S
C523 H510 0.930 . S
C523 C522 1.376 . S
C523 C524 1.388 . S
C524 H511 0.930 . S
C524 C523 1.388 . S
C524 C525 1.390 . S
C525 C524 1.390 . S
C525 C526 1.394 . S
C525 C531 1.465 . S
C526 C521 1.399 . S
C526 C525 1.394 . S
C526 C527 1.516 . S
C527 C526 1.516 . S
C527 C528 1.502 . S
C527 C529 1.561 . S
C527 C530 1.526 . S
C528 H512 0.959 . S
C528 H513 0.959 . S
C528 H514 0.961 . S
C528 C527 1.502 . S
C529 H515 0.960 . S
C529 H516 0.961 . S
C529 H517 0.959 . S
C529 C527 1.561 . S
C530 C527 1.526 . S
C530 C531 1.396 . S
C530 C535 1.390 . S
C531 C525 1.465 . S
C531 C530 1.396 . S
C531 C532 1.399 . S
C532 H518 0.929 . S
C532 C531 1.399 . S
C532 C533 1.385 . S
C533 H519 0.931 . S
C533 C532 1.385 . S
C533 C534 1.389 . S
C534 C533 1.389 . S
C534 C535 1.387 . S
C535 H520 0.930 . S
C535 C530 1.390 . S
C535 C534 1.387 . S
H536 C548 0.930 . S
H537 C550 0.930 . S
H538 C551 0.930 . S
H539 C555 0.959 . S
H540 C555 0.959 . S
H541 C555 0.961 . S
H542 C556 0.960 . S
H543 C556 0.961 . S
H544 C556 0.959 . S
H545 C559 0.929 . S
H546 C560 0.946 . S
H547 C562 0.930 . S
C548 H536 0.930 . S
C548 C549 1.399 . S
C548 C553 1.399 . S
C549 C548 1.399 . S
C549 C550 1.376 . S
C550 H537 0.930 . S
C550 C549 1.376 . S
C550 C551 1.388 . S
C551 H538 0.930 . S
C551 C550 1.388 . S
C551 C552 1.390 . S
C552 C551 1.390 . S
C552 C553 1.394 . S
C552 C558 1.465 . S
C553 C548 1.399 . S
C553 C552 1.394 . S
C553 C554 1.516 . S
C554 C553 1.516 . S
C554 C555 1.502 . S
C554 C556 1.561 . S
C554 C557 1.526 . S
C555 H539 0.959 . S
C555 H540 0.959 . S
C555 H541 0.961 . S
C555 C554 1.502 . S
C556 H542 0.960 . S
C556 H543 0.961 . S
C556 H544 0.959 . S
C556 C554 1.561 . S
C557 C554 1.526 . S
C557 C558 1.396 . S
C557 C562 1.390 . S
C558 C552 1.465 . S
C558 C557 1.396 . S
C558 C559 1.399 . S
C559 H545 0.929 . S
C559 C558 1.399 . S
C559 C560 1.385 . S
C560 H546 0.946 . S
C560 C559 1.385 . S
C560 C561 1.389 . S
C561 C560 1.389 . S
C561 C562 1.387 . S
C562 H547 0.930 . S
C562 C557 1.390 . S
C562 C561 1.387 . S
H563 C575 0.930 . S
H564 C577 0.930 . S
H565 C578 0.930 . S
H566 C582 0.959 . S
H567 C582 0.959 . S
H568 C582 0.961 . S
H569 C583 0.960 . S
H570 C583 0.961 . S
H571 C583 0.959 . S
H572 C586 0.929 . S
H573 C587 0.931 . S
H574 C589 0.930 . S
C575 H563 0.930 . S
C575 C576 1.399 . S
C575 C580 1.399 . S
C576 C575 1.399 . S
C576 C577 1.376 . S
C577 H564 0.930 . S
C577 C576 1.376 . S
C577 C578 1.388 . S
C578 H565 0.930 . S
C578 C577 1.388 . S
C578 C579 1.390 . S
C579 C578 1.390 . S
C579 C580 1.394 . S
C579 C585 1.465 . S
C580 C575 1.399 . S
C580 C579 1.394 . S
C580 C581 1.516 . S
C581 C580 1.516 . S
C581 C582 1.502 . S
C581 C583 1.561 . S
C581 C584 1.526 . S
C582 H566 0.959 . S
C582 H567 0.959 . S
C582 H568 0.961 . S
C582 C581 1.502 . S
C583 H569 0.960 . S
C583 H570 0.961 . S
C583 H571 0.959 . S
C583 C581 1.561 . S
C584 C581 1.526 . S
C584 C585 1.396 . S
C584 C589 1.390 . S
C585 C579 1.465 . S
C585 C584 1.396 . S
C585 C586 1.399 . S
C586 H572 0.929 . S
C586 C585 1.399 . S
C586 C587 1.385 . S
C587 H573 0.931 . S
C587 C586 1.385 . S
C587 C588 1.389 . S
C588 C587 1.389 . S
C588 C589 1.387 . S
C589 H574 0.930 . S
C589 C584 1.390 . S
C589 C588 1.387 . S
H590 C602 0.930 . S
H591 C604 0.930 . S
H592 C605 0.930 . S
H593 C609 0.959 . S
H594 C609 0.959 . S
H595 C609 0.961 . S
H596 C610 0.960 . S
H597 C610 0.961 . S
H598 C610 0.959 . S
H599 C613 0.929 . S
H600 C614 0.931 . S
H601 C616 0.930 . S
C602 H590 0.930 . S
C602 C603 1.399 . S
C602 C607 1.399 . S
C603 C602 1.399 . S
C603 C604 1.376 . S
C604 H591 0.930 . S
C604 C603 1.376 . S
C604 C605 1.388 . S
C605 H592 0.930 . S
C605 C604 1.388 . S
C605 C606 1.390 . S
C606 C605 1.390 . S
C606 C607 1.394 . S
C606 C612 1.465 . S
C607 C602 1.399 . S
C607 C606 1.394 . S
C607 C608 1.516 . S
C608 C607 1.516 . S
C608 C609 1.502 . S
C608 C610 1.561 . S
C608 C611 1.526 . S
C609 H593 0.959 . S
C609 H594 0.959 . S
C609 H595 0.961 . S
C609 C608 1.502 . S
C610 H596 0.960 . S
C610 H597 0.961 . S
C610 H598 0.959 . S
C610 C608 1.561 . S
C611 C608 1.526 . S
C611 C612 1.396 . S
C611 C616 1.390 . S
C612 C606 1.465 . S
C612 C611 1.396 . S
C612 C613 1.399 . S
C613 H599 0.929 . S
C613 C612 1.399 . S
C613 C614 1.385 . S
C614 H600 0.931 . S
C614 C613 1.385 . S
C614 C615 1.389 . S
C615 C614 1.389 . S
C615 C616 1.387 . S
C616 H601 0.930 . S
C616 C611 1.390 . S
C616 C615 1.387 . S
H617 C629 0.930 . S
H618 C631 0.930 . S
H619 C632 0.930 . S
H620 C636 0.959 . S
H621 C636 0.959 . S
H622 C636 0.961 . S
H623 C637 0.960 . S
H624 C637 0.961 . S
H625 C637 0.959 . S
H626 C640 0.929 . S
H627 C641 0.931 . S
H628 C643 0.930 . S
C629 H617 0.930 . S
C629 C630 1.399 . S
C629 C634 1.399 . S
C630 C629 1.399 . S
C630 C631 1.376 . S
C631 H618 0.930 . S
C631 C630 1.376 . S
C631 C632 1.388 . S
C632 H619 0.930 . S
C632 C631 1.388 . S
C632 C633 1.390 . S
C633 C632 1.390 . S
C633 C634 1.394 . S
C633 C639 1.465 . S
C634 C629 1.399 . S
C634 C633 1.394 . S
C634 C635 1.516 . S
C635 C634 1.516 . S
C635 C636 1.502 . S
C635 C637 1.561 . S
C635 C638 1.526 . S
C636 H620 0.959 . S
C636 H621 0.959 . S
C636 H622 0.961 . S
C636 C635 1.502 . S
C637 H623 0.960 . S
C637 H624 0.961 . S
C637 H625 0.959 . S
C637 C635 1.561 . S
C638 C635 1.526 . S
C638 C639 1.396 . S
C638 C643 1.390 . S
C639 C633 1.465 . S
C639 C638 1.396 . S
C639 C640 1.399 . S
C640 H626 0.929 . S
C640 C639 1.399 . S
C640 C641 1.385 . S
C641 H627 0.931 . S
C641 C640 1.385 . S
C641 C642 1.389 . S
C642 C641 1.389 . S
C642 C643 1.387 . S
C643 H628 0.930 . S
C643 C638 1.390 . S
C643 C642 1.387 . S
H644 C656 0.930 . S
H645 C658 0.930 . S
H646 C659 0.930 . S
H647 C663 0.959 . S
H648 C663 0.959 . S
H649 C663 0.961 . S
H650 C664 0.960 . S
H651 C664 0.961 . S
H652 C664 0.959 . S
H653 C667 0.929 . S
H654 C668 0.931 . S
H655 C670 0.930 . S
C656 H644 0.930 . S
C656 C657 1.399 . S
C656 C661 1.399 . S
C657 C656 1.399 . S
C657 C658 1.376 . S
C658 H645 0.930 . S
C658 C657 1.376 . S
C658 C659 1.388 . S
C659 H646 0.930 . S
C659 C658 1.388 . S
C659 C660 1.390 . S
C660 C659 1.390 . S
C660 C661 1.394 . S
C660 C666 1.465 . S
C661 C656 1.399 . S
C661 C660 1.394 . S
C661 C662 1.516 . S
C662 C661 1.516 . S
C662 C663 1.502 . S
C662 C664 1.561 . S
C662 C665 1.526 . S
C663 H647 0.959 . S
C663 H648 0.959 . S
C663 H649 0.961 . S
C663 C662 1.502 . S
C664 H650 0.960 . S
C664 H651 0.961 . S
C664 H652 0.959 . S
C664 C662 1.561 . S
C665 C662 1.526 . S
C665 C666 1.396 . S
C665 C670 1.390 . S
C666 C660 1.465 . S
C666 C665 1.396 . S
C666 C667 1.399 . S
C667 H653 0.929 . S
C667 C666 1.399 . S
C667 C668 1.385 . S
C668 H654 0.931 . S
C668 C667 1.385 . S
C668 C669 1.389 . S
C669 C668 1.389 . S
C669 C670 1.387 . S
C670 H655 0.930 . S
C670 C665 1.390 . S
C670 C669 1.387 . S
H671 C683 0.930 . S
H672 C685 0.930 . S
H673 C686 0.930 . S
H674 C690 0.959 . S
H675 C690 0.959 . S
H676 C690 0.961 . S
H677 C691 0.960 . S
H678 C691 0.961 . S
H679 C691 0.959 . S
H680 C694 0.929 . S
H681 C695 0.931 . S
H682 C697 0.930 . S
C683 H671 0.930 . S
C683 C684 1.399 . S
C683 C688 1.399 . S
C684 C683 1.399 . S
C684 C685 1.376 . S
C685 H672 0.930 . S
C685 C684 1.376 . S
C685 C686 1.388 . S
C686 H673 0.930 . S
C686 C685 1.388 . S
C686 C687 1.390 . S
C687 C686 1.390 . S
C687 C688 1.394 . S
C687 C693 1.465 . S
C688 C683 1.399 . S
C688 C687 1.394 . S
C688 C689 1.516 . S
C689 C688 1.516 . S
C689 C690 1.502 . S
C689 C691 1.561 . S
C689 C692 1.526 . S
C690 H674 0.959 . S
C690 H675 0.959 . S
C690 H676 0.961 . S
C690 C689 1.502 . S
C691 H677 0.960 . S
C691 H678 0.961 . S
C691 H679 0.959 . S
C691 C689 1.561 . S
C692 C689 1.526 . S
C692 C693 1.396 . S
C692 C697 1.390 . S
C693 C687 1.465 . S
C693 C692 1.396 . S
C693 C694 1.399 . S
C694 H680 0.929 . S
C694 C693 1.399 . S
C694 C695 1.385 . S
C695 H681 0.931 . S
C695 C694 1.385 . S
C695 C696 1.389 . S
C696 C695 1.389 . S
C696 C697 1.387 . S
C697 H682 0.930 . S
C697 C692 1.390 . S
C697 C696 1.387 . S
H698 C710 0.930 . S
H699 C712 0.930 . S
H700 C713 0.930 . S
H701 C717 0.959 . S
H702 C717 0.959 . S
H703 C717 0.961 . S
H704 C718 0.960 . S
H705 C718 0.961 . S
H706 C718 0.959 . S
H707 C721 0.929 . S
H708 C722 0.931 . S
H709 C724 0.930 . S
C710 H698 0.930 . S
C710 C711 1.399 . S
C710 C715 1.399 . S
C711 C710 1.399 . S
C711 C712 1.376 . S
C712 H699 0.930 . S
C712 C711 1.376 . S
C712 C713 1.388 . S
C713 H700 0.930 . S
C713 C712 1.388 . S
C713 C714 1.390 . S
C714 C713 1.390 . S
C714 C715 1.394 . S
C714 C720 1.465 . S
C715 C710 1.399 . S
C715 C714 1.394 . S
C715 C716 1.516 . S
C716 C715 1.516 . S
C716 C717 1.502 . S
C716 C718 1.561 . S
C716 C719 1.526 . S
C717 H701 0.959 . S
C717 H702 0.959 . S
C717 H703 0.961 . S
C717 C716 1.502 . S
C718 H704 0.960 . S
C718 H705 0.961 . S
C718 H706 0.959 . S
C718 C716 1.561 . S
C719 C716 1.526 . S
C719 C720 1.396 . S
C719 C724 1.390 . S
C720 C714 1.465 . S
C720 C719 1.396 . S
C720 C721 1.399 . S
C721 H707 0.929 . S
C721 C720 1.399 . S
C721 C722 1.385 . S
C722 H708 0.931 . S
C722 C721 1.385 . S
C722 C723 1.389 . S
C723 C722 1.389 . S
C723 C724 1.387 . S
C724 H709 0.930 . S
C724 C719 1.390 . S
C724 C723 1.387 . S
H725 C737 0.930 . S
H726 C739 0.930 . S
H727 C740 0.930 . S
H728 C744 0.959 . S
H729 C744 0.959 . S
H730 C744 0.961 . S
H731 C745 0.960 . S
H732 C745 0.961 . S
H733 C745 0.959 . S
H734 C748 0.929 . S
H735 C749 0.931 . S
H736 C751 0.930 . S
C737 H725 0.930 . S
C737 C738 1.399 . S
C737 C742 1.399 . S
C738 C737 1.399 . S
C738 C739 1.376 . S
C739 H726 0.930 . S
C739 C738 1.376 . S
C739 C740 1.388 . S
C740 H727 0.930 . S
C740 C739 1.388 . S
C740 C741 1.390 . S
C741 C740 1.390 . S
C741 C742 1.394 . S
C741 C747 1.465 . S
C742 C737 1.399 . S
C742 C741 1.394 . S
C742 C743 1.516 . S
C743 C742 1.516 . S
C743 C744 1.502 . S
C743 C745 1.561 . S
C743 C746 1.526 . S
C744 H728 0.959 . S
C744 H729 0.959 . S
C744 H730 0.961 . S
C744 C743 1.502 . S
C745 H731 0.960 . S
C745 H732 0.961 . S
C745 H733 0.959 . S
C745 C743 1.561 . S
C746 C743 1.526 . S
C746 C747 1.396 . S
C746 C751 1.390 . S
C747 C741 1.465 . S
C747 C746 1.396 . S
C747 C748 1.399 . S
C748 H734 0.929 . S
C748 C747 1.399 . S
C748 C749 1.385 . S
C749 H735 0.931 . S
C749 C748 1.385 . S
C749 C750 1.389 . S
C750 C749 1.389 . S
C750 C751 1.387 . S
C751 H736 0.930 . S
C751 C746 1.390 . S
C751 C750 1.387 . S
H752 C764 0.930 . S
H753 C766 0.930 . S
H754 C767 0.930 . S
H755 C771 0.959 . S
H756 C771 0.959 . S
H757 C771 0.961 . S
H758 C772 0.960 . S
H759 C772 0.961 . S
H760 C772 0.959 . S
H761 C775 0.929 . S
H762 C776 0.931 . S
H763 C778 0.930 . S
C764 H752 0.930 . S
C764 C765 1.399 . S
C764 C769 1.399 . S
C765 C764 1.399 . S
C765 C766 1.376 . S
C766 H753 0.930 . S
C766 C765 1.376 . S
C766 C767 1.388 . S
C767 H754 0.930 . S
C767 C766 1.388 . S
C767 C768 1.390 . S
C768 C767 1.390 . S
C768 C769 1.394 . S
C768 C774 1.465 . S
C769 C764 1.399 . S
C769 C768 1.394 . S
C769 C770 1.516 . S
C770 C769 1.516 . S
C770 C771 1.502 . S
C770 C772 1.561 . S
C770 C773 1.526 . S
C771 H755 0.959 . S
C771 H756 0.959 . S
C771 H757 0.961 . S
C771 C770 1.502 . S
C772 H758 0.960 . S
C772 H759 0.961 . S
C772 H760 0.959 . S
C772 C770 1.561 . S
C773 C770 1.526 . S
C773 C774 1.396 . S
C773 C778 1.390 . S
C774 C768 1.465 . S
C774 C773 1.396 . S
C774 C775 1.399 . S
C775 H761 0.929 . S
C775 C774 1.399 . S
C775 C776 1.385 . S
C776 H762 0.931 . S
C776 C775 1.385 . S
C776 C777 1.389 . S
C777 C776 1.389 . S
C777 C778 1.387 . S
C778 H763 0.930 . S
C778 C773 1.390 . S
C778 C777 1.387 . S
H779 C791 0.930 . S
H780 C793 0.930 . S
H781 C794 0.930 . S
H782 C798 0.959 . S
H783 C798 0.959 . S
H784 C798 0.961 . S
H785 C799 0.960 . S
H786 C799 0.961 . S
H787 C799 0.959 . S
H788 C802 0.929 . S
H789 C803 0.931 . S
H790 C805 0.930 . S
C791 H779 0.930 . S
C791 C792 1.399 . S
C791 C796 1.399 . S
C792 C791 1.399 . S
C792 C793 1.376 . S
C793 H780 0.930 . S
C793 C792 1.376 . S
C793 C794 1.388 . S
C794 H781 0.930 . S
C794 C793 1.388 . S
C794 C795 1.390 . S
C795 C794 1.390 . S
C795 C796 1.394 . S
C795 C801 1.465 . S
C796 C791 1.399 . S
C796 C795 1.394 . S
C796 C797 1.516 . S
C797 C796 1.516 . S
C797 C798 1.502 . S
C797 C799 1.561 . S
C797 C800 1.526 . S
C798 H782 0.959 . S
C798 H783 0.959 . S
C798 H784 0.961 . S
C798 C797 1.502 . S
C799 H785 0.960 . S
C799 H786 0.961 . S
C799 H787 0.959 . S
C799 C797 1.561 . S
C800 C797 1.526 . S
C800 C801 1.396 . S
C800 C805 1.390 . S
C801 C795 1.465 . S
C801 C800 1.396 . S
C801 C802 1.399 . S
C802 H788 0.929 . S
C802 C801 1.399 . S
C802 C803 1.385 . S
C803 H789 0.931 . S
C803 C802 1.385 . S
C803 C804 1.389 . S
C804 C803 1.389 . S
C804 C805 1.387 . S
C805 H790 0.930 . S
C805 C800 1.390 . S
C805 C804 1.387 . S
H806 C818 0.930 . S
H807 C820 0.930 . S
H808 C821 0.930 . S
H809 C825 0.959 . S
H810 C825 0.959 . S
H811 C825 0.961 . S
H812 C826 0.960 . S
H813 C826 0.961 . S
H814 C826 0.959 . S
H815 C829 0.929 . S
H816 C830 0.931 . S
H817 C832 0.930 . S
C818 H806 0.930 . S
C818 C819 1.399 . S
C818 C823 1.399 . S
C819 C818 1.399 . S
C819 C820 1.376 . S
C820 H807 0.930 . S
C820 C819 1.376 . S
C820 C821 1.388 . S
C821 H808 0.930 . S
C821 C820 1.388 . S
C821 C822 1.390 . S
C822 C821 1.390 . S
C822 C823 1.394 . S
C822 C828 1.465 . S
C823 C818 1.399 . S
C823 C822 1.394 . S
C823 C824 1.516 . S
C824 C823 1.516 . S
C824 C825 1.502 . S
C824 C826 1.561 . S
C824 C827 1.526 . S
C825 H809 0.959 . S
C825 H810 0.959 . S
C825 H811 0.961 . S
C825 C824 1.502 . S
C826 H812 0.960 . S
C826 H813 0.961 . S
C826 H814 0.959 . S
C826 C824 1.561 . S
C827 C824 1.526 . S
C827 C828 1.396 . S
C827 C832 1.390 . S
C828 C822 1.465 . S
C828 C827 1.396 . S
C828 C829 1.399 . S
C829 H815 0.929 . S
C829 C828 1.399 . S
C829 C830 1.385 . S
C830 H816 0.931 . S
C830 C829 1.385 . S
C830 C831 1.389 . S
C831 C830 1.389 . S
C831 C832 1.387 . S
C832 H817 0.930 . S
C832 C827 1.390 . S
C832 C831 1.387 . S
H833 C845 0.930 . S
H834 C847 0.930 . S
H835 C848 0.930 . S
H836 C852 0.959 . S
H837 C852 0.959 . S
H838 C852 0.961 . S
H839 C853 0.960 . S
H840 C853 0.961 . S
H841 C853 0.959 . S
H842 C856 0.929 . S
H843 C857 0.931 . S
H844 C859 0.930 . S
C845 H833 0.930 . S
C845 C846 1.399 . S
C845 C850 1.399 . S
C846 C845 1.399 . S
C846 C847 1.376 . S
C847 H834 0.930 . S
C847 C846 1.376 . S
C847 C848 1.388 . S
C848 H835 0.930 . S
C848 C847 1.388 . S
C848 C849 1.390 . S
C849 C848 1.390 . S
C849 C850 1.394 . S
C849 C855 1.465 . S
C850 C845 1.399 . S
C850 C849 1.394 . S
C850 C851 1.516 . S
C851 C850 1.516 . S
C851 C852 1.502 . S
C851 C853 1.561 . S
C851 C854 1.526 . S
C852 H836 0.959 . S
C852 H837 0.959 . S
C852 H838 0.961 . S
C852 C851 1.502 . S
C853 H839 0.960 . S
C853 H840 0.961 . S
C853 H841 0.959 . S
C853 C851 1.561 . S
C854 C851 1.526 . S
C854 C855 1.396 . S
C854 C859 1.390 . S
C855 C849 1.465 . S
C855 C854 1.396 . S
C855 C856 1.399 . S
C856 H842 0.929 . S
C856 C855 1.399 . S
C856 C857 1.385 . S
C857 H843 0.931 . S
C857 C856 1.385 . S
C857 C858 1.389 . S
C858 C857 1.389 . S
C858 C859 1.387 . S
C859 H844 0.930 . S
C859 C854 1.390 . S
C859 C858 1.387 . S
H860 C872 0.930 . S
H861 C874 0.930 . S
H862 C875 0.930 . S
H863 C879 0.959 . S
H864 C879 0.959 . S
H865 C879 0.961 . S
H866 C880 0.960 . S
H867 C880 0.961 . S
H868 C880 0.959 . S
H869 C883 0.929 . S
H870 C884 0.931 . S
H871 C886 0.930 . S
C872 H860 0.930 . S
C872 C873 1.399 . S
C872 C877 1.399 . S
C873 C872 1.399 . S
C873 C874 1.376 . S
C874 H861 0.930 . S
C874 C873 1.376 . S
C874 C875 1.388 . S
C875 H862 0.930 . S
C875 C874 1.388 . S
C875 C876 1.390 . S
C876 C875 1.390 . S
C876 C877 1.394 . S
C876 C882 1.465 . S
C877 C872 1.399 . S
C877 C876 1.394 . S
C877 C878 1.516 . S
C878 C877 1.516 . S
C878 C879 1.502 . S
C878 C880 1.561 . S
C878 C881 1.526 . S
C879 H863 0.959 . S
C879 H864 0.959 . S
C879 H865 0.961 . S
C879 C878 1.502 . S
C880 H866 0.960 . S
C880 H867 0.961 . S
C880 H868 0.959 . S
C880 C878 1.561 . S
C881 C878 1.526 . S
C881 C882 1.396 . S
C881 C886 1.390 . S
C882 C876 1.465 . S
C882 C881 1.396 . S
C882 C883 1.399 . S
C883 H869 0.929 . S
C883 C882 1.399 . S
C883 C884 1.385 . S
C884 H870 0.931 . S
C884 C883 1.385 . S
C884 C885 1.389 . S
C885 C884 1.389 . S
C885 C886 1.387 . S
C886 H871 0.930 . S
C886 C881 1.390 . S
C886 C885 1.387 . S
H887 C899 0.930 . S
H888 C901 0.930 . S
H889 C902 0.930 . S
H890 C906 0.959 . S
H891 C906 0.959 . S
H892 C906 0.961 . S
H893 C907 0.960 . S
H894 C907 0.961 . S
H895 C907 0.959 . S
H896 C910 0.929 . S
H897 C911 0.931 . S
H898 C913 0.930 . S
C899 H887 0.930 . S
C899 C900 1.399 . S
C899 C904 1.399 . S
C900 C899 1.399 . S
C900 C901 1.376 . S
C901 H888 0.930 . S
C901 C900 1.376 . S
C901 C902 1.388 . S
C902 H889 0.930 . S
C902 C901 1.388 . S
C902 C903 1.390 . S
C903 C902 1.390 . S
C903 C904 1.394 . S
C903 C909 1.465 . S
C904 C899 1.399 . S
C904 C903 1.394 . S
C904 C905 1.516 . S
C905 C904 1.516 . S
C905 C906 1.502 . S
C905 C907 1.561 . S
C905 C908 1.526 . S
C906 H890 0.959 . S
C906 H891 0.959 . S
C906 H892 0.961 . S
C906 C905 1.502 . S
C907 H893 0.960 . S
C907 H894 0.961 . S
C907 H895 0.959 . S
C907 C905 1.561 . S
C908 C905 1.526 . S
C908 C909 1.396 . S
C908 C913 1.390 . S
C909 C903 1.465 . S
C909 C908 1.396 . S
C909 C910 1.399 . S
C910 H896 0.929 . S
C910 C909 1.399 . S
C910 C911 1.385 . S
C911 H897 0.931 . S
C911 C910 1.385 . S
C911 C912 1.389 . S
C912 C911 1.389 . S
C912 C913 1.387 . S
C913 H898 0.930 . S
C913 C908 1.390 . S
C913 C912 1.387 . S
H914 C926 0.930 . S
H915 C928 0.930 . S
H916 C929 0.930 . S
H917 C933 0.959 . S
H918 C933 0.959 . S
H919 C933 0.961 . S
H920 C934 0.960 . S
H921 C934 0.961 . S
H922 C934 0.959 . S
H923 C937 0.929 . S
H924 C938 0.931 . S
H925 C940 0.930 . S
C926 H914 0.930 . S
C926 C927 1.399 . S
C926 C931 1.399 . S
C927 C926 1.399 . S
C927 C928 1.376 . S
C928 H915 0.930 . S
C928 C927 1.376 . S
C928 C929 1.388 . S
C929 H916 0.930 . S
C929 C928 1.388 . S
C929 C930 1.390 . S
C930 C929 1.390 . S
C930 C931 1.394 . S
C930 C936 1.465 . S
C931 C926 1.399 . S
C931 C930 1.394 . S
C931 C932 1.516 . S
C932 C931 1.516 . S
C932 C933 1.502 . S
C932 C934 1.561 . S
C932 C935 1.526 . S
C933 H917 0.959 . S
C933 H918 0.959 . S
C933 H919 0.961 . S
C933 C932 1.502 . S
C934 H920 0.960 . S
C934 H921 0.961 . S
C934 H922 0.959 . S
C934 C932 1.561 . S
C935 C932 1.526 . S
C935 C936 1.396 . S
C935 C940 1.390 . S
C936 C930 1.465 . S
C936 C935 1.396 . S
C936 C937 1.399 . S
C937 H923 0.929 . S
C937 C936 1.399 . S
C937 C938 1.385 . S
C938 H924 0.931 . S
C938 C937 1.385 . S
C938 C939 1.389 . S
C939 C938 1.389 . S
C939 C940 1.387 . S
C940 H925 0.930 . S
C940 C935 1.390 . S
C940 C939 1.387 . S
H941 C953 0.930 . S
H942 C955 0.930 . S
H943 C956 0.930 . S
H944 C960 0.959 . S
H945 C960 0.959 . S
H946 C960 0.961 . S
H947 C961 0.960 . S
H948 C961 0.961 . S
H949 C961 0.959 . S
H950 C964 0.929 . S
H951 C965 0.931 . S
H952 C967 0.930 . S
C953 H941 0.930 . S
C953 C954 1.399 . S
C953 C958 1.399 . S
C954 C953 1.399 . S
C954 C955 1.376 . S
C955 H942 0.930 . S
C955 C954 1.376 . S
C955 C956 1.388 . S
C956 H943 0.930 . S
C956 C955 1.388 . S
C956 C957 1.390 . S
C957 C956 1.390 . S
C957 C958 1.394 . S
C957 C963 1.465 . S
C958 C953 1.399 . S
C958 C957 1.394 . S
C958 C959 1.516 . S
C959 C958 1.516 . S
C959 C960 1.502 . S
C959 C961 1.561 . S
C959 C962 1.526 . S
C960 H944 0.959 . S
C960 H945 0.959 . S
C960 H946 0.961 . S
C960 C959 1.502 . S
C961 H947 0.960 . S
C961 H948 0.961 . S
C961 H949 0.959 . S
C961 C959 1.561 . S
C962 C959 1.526 . S
C962 C963 1.396 . S
C962 C967 1.390 . S
C963 C957 1.465 . S
C963 C962 1.396 . S
C963 C964 1.399 . S
C964 H950 0.929 . S
C964 C963 1.399 . S
C964 C965 1.385 . S
C965 H951 0.931 . S
C965 C964 1.385 . S
C965 C966 1.389 . S
C966 C965 1.389 . S
C966 C967 1.387 . S
C967 H952 0.930 . S
C967 C962 1.390 . S
C967 C966 1.387 . S
H968 C980 0.930 . S
H969 C982 0.930 . S
H970 C983 0.930 . S
H971 C987 0.959 . S
H972 C987 0.959 . S
H973 C987 0.961 . S
H974 C988 0.960 . S
H975 C988 0.961 . S
H976 C988 0.959 . S
H977 C991 0.929 . S
H978 C992 0.931 . S
H979 C994 0.930 . S
C980 H968 0.930 . S
C980 C981 1.399 . S
C980 C985 1.399 . S
C981 C980 1.399 . S
C981 C982 1.376 . S
C982 H969 0.930 . S
C982 C981 1.376 . S
C982 C983 1.388 . S
C983 H970 0.930 . S
C983 C982 1.388 . S
C983 C984 1.390 . S
C984 C983 1.390 . S
C984 C985 1.394 . S
C984 C990 1.465 . S
C985 C980 1.399 . S
C985 C984 1.394 . S
C985 C986 1.516 . S
C986 C985 1.516 . S
C986 C987 1.502 . S
C986 C988 1.561 . S
C986 C989 1.526 . S
C987 H971 0.959 . S
C987 H972 0.959 . S
C987 H973 0.961 . S
C987 C986 1.502 . S
C988 H974 0.960 . S
C988 H975 0.961 . S
C988 H976 0.959 . S
C988 C986 1.561 . S
C989 C986 1.526 . S
C989 C990 1.396 . S
C989 C994 1.390 . S
C990 C984 1.465 . S
C990 C989 1.396 . S
C990 C991 1.399 . S
C991 H977 0.929 . S
C991 C990 1.399 . S
C991 C992 1.385 . S
C992 H978 0.931 . S
C992 C991 1.385 . S
C992 C993 1.389 . S
C993 C992 1.389 . S
C993 C994 1.387 . S
C994 H979 0.930 . S
C994 C989 1.390 . S
C994 C993 1.387 . S
H995 C1007 0.930 . S
H996 C1009 0.930 . S
H997 C1010 0.930 . S
H998 C1014 0.959 . S
H999 C1014 0.959 . S
H1000 C1014 0.961 . S
H1001 C1015 0.960 . S
H1002 C1015 0.961 . S
H1003 C1015 0.959 . S
H1004 C1018 0.929 . S
H1005 C1019 0.931 . S
H1006 C1021 0.930 . S
C1007 H995 0.930 . S
C1007 C1008 1.399 . S
C1007 C1012 1.399 . S
C1008 C1007 1.399 . S
C1008 C1009 1.376 . S
C1009 H996 0.930 . S
C1009 C1008 1.376 . S
C1009 C1010 1.388 . S
C1010 H997 0.930 . S
C1010 C1009 1.388 . S
C1010 C1011 1.390 . S
C1011 C1010 1.390 . S
C1011 C1012 1.394 . S
C1011 C1017 1.465 . S
C1012 C1007 1.399 . S
C1012 C1011 1.394 . S
C1012 C1013 1.516 . S
C1013 C1012 1.516 . S
C1013 C1014 1.502 . S
C1013 C1015 1.561 . S
C1013 C1016 1.526 . S
C1014 H998 0.959 . S
C1014 H999 0.959 . S
C1014 H1000 0.961 . S
C1014 C1013 1.502 . S
C1015 H1001 0.960 . S
C1015 H1002 0.961 . S
C1015 H1003 0.959 . S
C1015 C1013 1.561 . S
C1016 C1013 1.526 . S
C1016 C1017 1.396 . S
C1016 C1021 1.390 . S
C1017 C1011 1.465 . S
C1017 C1016 1.396 . S
C1017 C1018 1.399 . S
C1018 H1004 0.929 . S
C1018 C1017 1.399 . S
C1018 C1019 1.385 . S
C1019 H1005 0.931 . S
C1019 C1018 1.385 . S
C1019 C1020 1.389 . S
C1020 C1019 1.389 . S
C1020 C1021 1.387 . S
C1021 H1006 0.930 . S
C1021 C1016 1.390 . S
C1021 C1020 1.387 . S
H1022 C1034 0.930 . S
H1023 C1036 0.930 . S
H1024 C1037 0.930 . S
H1025 C1041 0.959 . S
H1026 C1041 0.959 . S
H1027 C1041 0.961 . S
H1028 C1042 0.960 . S
H1029 C1042 0.961 . S
H1030 C1042 0.959 . S
H1031 C1045 0.929 . S
H1032 C1046 0.931 . S
H1033 C1048 0.930 . S
C1034 H1022 0.930 . S
C1034 C1035 1.399 . S
C1034 C1039 1.399 . S
C1035 C1034 1.399 . S
C1035 C1036 1.376 . S
C1036 H1023 0.930 . S
C1036 C1035 1.376 . S
C1036 C1037 1.388 . S
C1037 H1024 0.930 . S
C1037 C1036 1.388 . S
C1037 C1038 1.390 . S
C1038 C1037 1.390 . S
C1038 C1039 1.394 . S
C1038 C1044 1.465 . S
C1039 C1034 1.399 . S
C1039 C1038 1.394 . S
C1039 C1040 1.516 . S
C1040 C1039 1.516 . S
C1040 C1041 1.502 . S
C1040 C1042 1.561 . S
C1040 C1043 1.526 . S
C1041 H1025 0.959 . S
C1041 H1026 0.959 . S
C1041 H1027 0.961 . S
C1041 C1040 1.502 . S
C1042 H1028 0.960 . S
C1042 H1029 0.961 . S
C1042 H1030 0.959 . S
C1042 C1040 1.561 . S
C1043 C1040 1.526 . S
C1043 C1044 1.396 . S
C1043 C1048 1.390 . S
C1044 C1038 1.465 . S
C1044 C1043 1.396 . S
C1044 C1045 1.399 . S
C1045 H1031 0.929 . S
C1045 C1044 1.399 . S
C1045 C1046 1.385 . S
C1046 H1032 0.931 . S
C1046 C1045 1.385 . S
C1046 C1047 1.389 . S
C1047 C1046 1.389 . S
C1047 C1048 1.387 . S
C1048 H1033 0.930 . S
C1048 C1043 1.390 . S
C1048 C1047 1.387 . S
H1049 C1061 0.930 . S
H1050 C1063 0.930 . S
H1051 C1064 0.930 . S
H1052 C1068 0.959 . S
H1053 C1068 0.959 . S
H1054 C1068 0.961 . S
H1055 C1069 0.960 . S
H1056 C1069 0.961 . S
H1057 C1069 0.959 . S
H1058 C1072 0.929 . S
H1059 C1073 0.931 . S
H1060 C1075 0.930 . S
C1061 H1049 0.930 . S
C1061 C1062 1.399 . S
C1061 C1066 1.399 . S
C1062 C1061 1.399 . S
C1062 C1063 1.376 . S
C1063 H1050 0.930 . S
C1063 C1062 1.376 . S
C1063 C1064 1.388 . S
C1064 H1051 0.930 . S
C1064 C1063 1.388 . S
C1064 C1065 1.390 . S
C1065 C1064 1.390 . S
C1065 C1066 1.394 . S
C1065 C1071 1.465 . S
C1066 C1061 1.399 . S
C1066 C1065 1.394 . S
C1066 C1067 1.516 . S
C1067 C1066 1.516 . S
C1067 C1068 1.502 . S
C1067 C1069 1.561 . S
C1067 C1070 1.526 . S
C1068 H1052 0.959 . S
C1068 H1053 0.959 . S
C1068 H1054 0.961 . S
C1068 C1067 1.502 . S
C1069 H1055 0.960 . S
C1069 H1056 0.961 . S
C1069 H1057 0.959 . S
C1069 C1067 1.561 . S
C1070 C1067 1.526 . S
C1070 C1071 1.396 . S
C1070 C1075 1.390 . S
C1071 C1065 1.465 . S
C1071 C1070 1.396 . S
C1071 C1072 1.399 . S
C1072 H1058 0.929 . S
C1072 C1071 1.399 . S
C1072 C1073 1.385 . S
C1073 H1059 0.931 . S
C1073 C1072 1.385 . S
C1073 C1074 1.389 . S
C1074 C1073 1.389 . S
C1074 C1075 1.387 . S
C1075 H1060 0.930 . S
C1075 C1070 1.390 . S
C1075 C1074 1.387 . S
H1076 C1088 0.930 . S
H1077 C1090 0.930 . S
H1078 C1091 0.930 . S
H1079 C1095 0.959 . S
H1080 C1095 0.959 . S
H1081 C1095 0.961 . S
H1082 C1096 0.960 . S
H1083 C1096 0.961 . S
H1084 C1096 0.959 . S
H1085 C1099 0.929 . S
H1086 C1100 0.931 . S
H1087 C1102 0.930 . S
C1088 H1076 0.930 . S
C1088 C1089 1.399 . S
C1088 C1093 1.399 . S
C1089 C1088 1.399 . S
C1089 C1090 1.376 . S
C1090 H1077 0.930 . S
C1090 C1089 1.376 . S
C1090 C1091 1.388 . S
C1091 H1078 0.930 . S
C1091 C1090 1.388 . S
C1091 C1092 1.390 . S
C1092 C1091 1.390 . S
C1092 C1093 1.394 . S
C1092 C1098 1.465 . S
C1093 C1088 1.399 . S
C1093 C1092 1.394 . S
C1093 C1094 1.516 . S
C1094 C1093 1.516 . S
C1094 C1095 1.502 . S
C1094 C1096 1.561 . S
C1094 C1097 1.526 . S
C1095 H1079 0.959 . S
C1095 H1080 0.959 . S
C1095 H1081 0.961 . S
C1095 C1094 1.502 . S
C1096 H1082 0.960 . S
C1096 H1083 0.961 . S
C1096 H1084 0.959 . S
C1096 C1094 1.561 . S
C1097 C1094 1.526 . S
C1097 C1098 1.396 . S
C1097 C1102 1.390 . S
C1098 C1092 1.465 . S
C1098 C1097 1.396 . S
C1098 C1099 1.399 . S
C1099 H1085 0.929 . S
C1099 C1098 1.399 . S
C1099 C1100 1.385 . S
C1100 H1086 0.931 . S
C1100 C1099 1.385 . S
C1100 C1101 1.389 . S
C1101 C1100 1.389 . S
C1101 C1102 1.387 . S
C1102 H1087 0.930 . S
C1102 C1097 1.390 . S
C1102 C1101 1.387 . S
H1103 C1115 0.930 . S
H1104 C1117 0.930 . S
H1105 C1118 0.930 . S
H1106 C1122 0.959 . S
H1107 C1122 0.959 . S
H1108 C1122 0.961 . S
H1109 C1123 0.960 . S
H1110 C1123 0.961 . S
H1111 C1123 0.959 . S
H1112 C1126 0.929 . S
H1113 C1127 0.931 . S
H1114 C1129 0.930 . S
C1115 H1103 0.930 . S
C1115 C1116 1.399 . S
C1115 C1120 1.399 . S
C1116 C1115 1.399 . S
C1116 C1117 1.376 . S
C1117 H1104 0.930 . S
C1117 C1116 1.376 . S
C1117 C1118 1.388 . S
C1118 H1105 0.930 . S
C1118 C1117 1.388 . S
C1118 C1119 1.390 . S
C1119 C1118 1.390 . S
C1119 C1120 1.394 . S
C1119 C1125 1.465 . S
C1120 C1115 1.399 . S
C1120 C1119 1.394 . S
C1120 C1121 1.516 . S
C1121 C1120 1.516 . S
C1121 C1122 1.502 . S
C1121 C1123 1.561 . S
C1121 C1124 1.526 . S
C1122 H1106 0.959 . S
C1122 H1107 0.959 . S
C1122 H1108 0.961 . S
C1122 C1121 1.502 . S
C1123 H1109 0.960 . S
C1123 H1110 0.961 . S
C1123 H1111 0.959 . S
C1123 C1121 1.561 . S
C1124 C1121 1.526 . S
C1124 C1125 1.396 . S
C1124 C1129 1.390 . S
C1125 C1119 1.465 . S
C1125 C1124 1.396 . S
C1125 C1126 1.399 . S
C1126 H1112 0.929 . S
C1126 C1125 1.399 . S
C1126 C1127 1.385 . S
C1127 H1113 0.931 . S
C1127 C1126 1.385 . S
C1127 C1128 1.389 . S
C1128 C1127 1.389 . S
C1128 C1129 1.387 . S
C1129 H1114 0.930 . S
C1129 C1124 1.390 . S
C1129 C1128 1.387 . S
H1130 C1142 0.930 . S
H1131 C1144 0.930 . S
H1132 C1145 0.930 . S
H1133 C1149 0.959 . S
H1134 C1149 0.959 . S
H1135 C1149 0.961 . S
H1136 C1150 0.960 . S
H1137 C1150 0.961 . S
H1138 C1150 0.959 . S
H1139 C1153 0.929 . S
H1140 C1154 0.931 . S
H1141 C1156 0.930 . S
C1142 H1130 0.930 . S
C1142 C1143 1.399 . S
C1142 C1147 1.399 . S
C1143 C1142 1.399 . S
C1143 C1144 1.376 . S
C1144 H1131 0.930 . S
C1144 C1143 1.376 . S
C1144 C1145 1.388 . S
C1145 H1132 0.930 . S
C1145 C1144 1.388 . S
C1145 C1146 1.390 . S
C1146 C1145 1.390 . S
C1146 C1147 1.394 . S
C1146 C1152 1.465 . S
C1147 C1142 1.399 . S
C1147 C1146 1.394 . S
C1147 C1148 1.516 . S
C1148 C1147 1.516 . S
C1148 C1149 1.502 . S
C1148 C1150 1.561 . S
C1148 C1151 1.526 . S
C1149 H1133 0.959 . S
C1149 H1134 0.959 . S
C1149 H1135 0.961 . S
C1149 C1148 1.502 . S
C1150 H1136 0.960 . S
C1150 H1137 0.961 . S
C1150 H1138 0.959 . S
C1150 C1148 1.561 . S
C1151 C1148 1.526 . S
C1151 C1152 1.396 . S
C1151 C1156 1.390 . S
C1152 C1146 1.465 . S
C1152 C1151 1.396 . S
C1152 C1153 1.399 . S
C1153 H1139 0.929 . S
C1153 C1152 1.399 . S
C1153 C1154 1.385 . S
C1154 H1140 0.931 . S
C1154 C1153 1.385 . S
C1154 C1155 1.389 . S
C1155 C1154 1.389 . S
C1155 C1156 1.387 . S
C1156 H1141 0.930 . S
C1156 C1151 1.390 . S
C1156 C1155 1.387 . S
H1157 C1169 0.930 . S
H1158 C1171 0.930 . S
H1159 C1172 0.930 . S
H1160 C1176 0.959 . S
H1161 C1176 0.959 . S
H1162 C1176 0.961 . S
H1163 C1177 0.960 . S
H1164 C1177 0.961 . S
H1165 C1177 0.959 . S
H1166 C1180 0.929 . S
H1167 C1181 0.931 . S
H1168 C1183 0.930 . S
C1169 H1157 0.930 . S
C1169 C1170 1.399 . S
C1169 C1174 1.399 . S
C1170 C1169 1.399 . S
C1170 C1171 1.376 . S
C1171 H1158 0.930 . S
C1171 C1170 1.376 . S
C1171 C1172 1.388 . S
C1172 H1159 0.930 . S
C1172 C1171 1.388 . S
C1172 C1173 1.390 . S
C1173 C1172 1.390 . S
C1173 C1174 1.394 . S
C1173 C1179 1.465 . S
C1174 C1169 1.399 . S
C1174 C1173 1.394 . S
C1174 C1175 1.516 . S
C1175 C1174 1.516 . S
C1175 C1176 1.502 . S
C1175 C1177 1.561 . S
C1175 C1178 1.526 . S
C1176 H1160 0.959 . S
C1176 H1161 0.959 . S
C1176 H1162 0.961 . S
C1176 C1175 1.502 . S
C1177 H1163 0.960 . S
C1177 H1164 0.961 . S
C1177 H1165 0.959 . S
C1177 C1175 1.561 . S
C1178 C1175 1.526 . S
C1178 C1179 1.396 . S
C1178 C1183 1.390 . S
C1179 C1173 1.465 . S
C1179 C1178 1.396 . S
C1179 C1180 1.399 . S
C1180 H1166 0.929 . S
C1180 C1179 1.399 . S
C1180 C1181 1.385 . S
C1181 H1167 0.931 . S
C1181 C1180 1.385 . S
C1181 C1182 1.389 . S
C1182 C1181 1.389 . S
C1182 C1183 1.387 . S
C1183 H1168 0.930 . S
C1183 C1178 1.390 . S
C1183 C1182 1.387 . S
H1184 C1196 0.930 . S
H1185 C1198 0.930 . S
H1186 C1199 0.930 . S
H1187 C1203 0.959 . S
H1188 C1203 0.959 . S
H1189 C1203 0.961 . S
H1190 C1204 0.960 . S
H1191 C1204 0.961 . S
H1192 C1204 0.959 . S
H1193 C1207 0.929 . S
H1194 C1208 0.931 . S
H1195 C1210 0.930 . S
C1196 H1184 0.930 . S
C1196 C1197 1.399 . S
C1196 C1201 1.399 . S
C1197 C1196 1.399 . S
C1197 C1198 1.376 . S
C1198 H1185 0.930 . S
C1198 C1197 1.376 . S
C1198 C1199 1.388 . S
C1199 H1186 0.930 . S
C1199 C1198 1.388 . S
C1199 C1200 1.390 . S
C1200 C1199 1.390 . S
C1200 C1201 1.394 . S
C1200 C1206 1.465 . S
C1201 C1196 1.399 . S
C1201 C1200 1.394 . S
C1201 C1202 1.516 . S
C1202 C1201 1.516 . S
C1202 C1203 1.502 . S
C1202 C1204 1.561 . S
C1202 C1205 1.526 . S
C1203 H1187 0.959 . S
C1203 H1188 0.959 . S
C1203 H1189 0.961 . S
C1203 C1202 1.502 . S
C1204 H1190 0.960 . S
C1204 H1191 0.961 . S
C1204 H1192 0.959 . S
C1204 C1202 1.561 . S
C1205 C1202 1.526 . S
C1205 C1206 1.396 . S
C1205 C1210 1.390 . S
C1206 C1200 1.465 . S
C1206 C1205 1.396 . S
C1206 C1207 1.399 . S
C1207 H1193 0.929 . S
C1207 C1206 1.399 . S
C1207 C1208 1.385 . S
C1208 H1194 0.931 . S
C1208 C1207 1.385 . S
C1208 C1209 1.389 . S
C1209 C1208 1.389 . S
C1209 C1210 1.387 . S
C1210 H1195 0.930 . S
C1210 C1205 1.390 . S
C1210 C1209 1.387 . S
H1211 C1223 0.930 . S
H1212 C1225 0.930 . S
H1213 C1226 0.930 . S
H1214 C1230 0.959 . S
H1215 C1230 0.959 . S
H1216 C1230 0.961 . S
H1217 C1231 0.960 . S
H1218 C1231 0.961 . S
H1219 C1231 0.959 . S
H1220 C1234 0.929 . S
H1221 C1235 0.931 . S
H1222 C1237 0.930 . S
C1223 H1211 0.930 . S
C1223 C1224 1.399 . S
C1223 C1228 1.399 . S
C1224 C1223 1.399 . S
C1224 C1225 1.376 . S
C1225 H1212 0.930 . S
C1225 C1224 1.376 . S
C1225 C1226 1.388 . S
C1226 H1213 0.930 . S
C1226 C1225 1.388 . S
C1226 C1227 1.390 . S
C1227 C1226 1.390 . S
C1227 C1228 1.394 . S
C1227 C1233 1.465 . S
C1228 C1223 1.399 . S
C1228 C1227 1.394 . S
C1228 C1229 1.516 . S
C1229 C1228 1.516 . S
C1229 C1230 1.502 . S
C1229 C1231 1.561 . S
C1229 C1232 1.526 . S
C1230 H1214 0.959 . S
C1230 H1215 0.959 . S
C1230 H1216 0.961 . S
C1230 C1229 1.502 . S
C1231 H1217 0.960 . S
C1231 H1218 0.961 . S
C1231 H1219 0.959 . S
C1231 C1229 1.561 . S
C1232 C1229 1.526 . S
C1232 C1233 1.396 . S
C1232 C1237 1.390 . S
C1233 C1227 1.465 . S
C1233 C1232 1.396 . S
C1233 C1234 1.399 . S
C1234 H1220 0.929 . S
C1234 C1233 1.399 . S
C1234 C1235 1.385 . S
C1235 H1221 0.931 . S
C1235 C1234 1.385 . S
C1235 C1236 1.389 . S
C1236 C1235 1.389 . S
C1236 C1237 1.387 . S
C1237 H1222 0.930 . S
C1237 C1232 1.390 . S
C1237 C1236 1.387 . S
H1238 C1250 0.930 . S
H1239 C1252 0.930 . S
H1240 C1253 0.930 . S
H1241 C1257 0.959 . S
H1242 C1257 0.959 . S
H1243 C1257 0.961 . S
H1244 C1258 0.960 . S
H1245 C1258 0.961 . S
H1246 C1258 0.959 . S
H1247 C1261 0.929 . S
H1248 C1262 0.931 . S
H1249 C1264 0.930 . S
C1250 H1238 0.930 . S
C1250 C1251 1.399 . S
C1250 C1255 1.399 . S
C1251 C1250 1.399 . S
C1251 C1252 1.376 . S
C1252 H1239 0.930 . S
C1252 C1251 1.376 . S
C1252 C1253 1.388 . S
C1253 H1240 0.930 . S
C1253 C1252 1.388 . S
C1253 C1254 1.390 . S
C1254 C1253 1.390 . S
C1254 C1255 1.394 . S
C1254 C1260 1.465 . S
C1255 C1250 1.399 . S
C1255 C1254 1.394 . S
C1255 C1256 1.516 . S
C1256 C1255 1.516 . S
C1256 C1257 1.502 . S
C1256 C1258 1.561 . S
C1256 C1259 1.526 . S
C1257 H1241 0.959 . S
C1257 H1242 0.959 . S
C1257 H1243 0.961 . S
C1257 C1256 1.502 . S
C1258 H1244 0.960 . S
C1258 H1245 0.961 . S
C1258 H1246 0.959 . S
C1258 C1256 1.561 . S
C1259 C1256 1.526 . S
C1259 C1260 1.396 . S
C1259 C1264 1.390 . S
C1260 C1254 1.465 . S
C1260 C1259 1.396 . S
C1260 C1261 1.399 . S
C1261 H1247 0.929 . S
C1261 C1260 1.399 . S
C1261 C1262 1.385 . S
C1262 H1248 0.931 . S
C1262 C1261 1.385 . S
C1262 C1263 1.389 . S
C1263 C1262 1.389 . S
C1263 C1264 1.387 . S
C1264 H1249 0.930 . S
C1264 C1259 1.390 . S
C1264 C1263 1.387 . S
H1265 C1277 0.930 . S
H1266 C1279 0.930 . S
H1267 C1280 0.930 . S
H1268 C1284 0.959 . S
H1269 C1284 0.959 . S
H1270 C1284 0.961 . S
H1271 C1285 0.960 . S
H1272 C1285 0.961 . S
H1273 C1285 0.959 . S
H1274 C1288 0.929 . S
H1275 C1289 0.931 . S
H1276 C1291 0.930 . S
C1277 H1265 0.930 . S
C1277 C1278 1.399 . S
C1277 C1282 1.399 . S
C1278 C1277 1.399 . S
C1278 C1279 1.376 . S
C1279 H1266 0.930 . S
C1279 C1278 1.376 . S
C1279 C1280 1.388 . S
C1280 H1267 0.930 . S
C1280 C1279 1.388 . S
C1280 C1281 1.390 . S
C1281 C1280 1.390 . S
C1281 C1282 1.394 . S
C1281 C1287 1.465 . S
C1282 C1277 1.399 . S
C1282 C1281 1.394 . S
C1282 C1283 1.516 . S
C1283 C1282 1.516 . S
C1283 C1284 1.502 . S
C1283 C1285 1.561 . S
C1283 C1286 1.526 . S
C1284 H1268 0.959 . S
C1284 H1269 0.959 . S
C1284 H1270 0.961 . S
C1284 C1283 1.502 . S
C1285 H1271 0.960 . S
C1285 H1272 0.961 . S
C1285 H1273 0.959 . S
C1285 C1283 1.561 . S
C1286 C1283 1.526 . S
C1286 C1287 1.396 . S
C1286 C1291 1.390 . S
C1287 C1281 1.465 . S
C1287 C1286 1.396 . S
C1287 C1288 1.399 . S
C1288 H1274 0.929 . S
C1288 C1287 1.399 . S
C1288 C1289 1.385 . S
C1289 H1275 0.931 . S
C1289 C1288 1.385 . S
C1289 C1290 1.389 . S
C1290 C1289 1.389 . S
C1290 C1291 1.387 . S
C1291 H1276 0.930 . S
C1291 C1286 1.390 . S
C1291 C1290 1.387 . S
H1292 C1304 0.930 . S
H1293 C1306 0.930 . S
H1294 C1307 0.930 . S
H1295 C1311 0.959 . S
H1296 C1311 0.959 . S
H1297 C1311 0.961 . S
H1298 C1312 0.960 . S
H1299 C1312 0.961 . S
H1300 C1312 0.959 . S
H1301 C1315 0.929 . S
H1302 C1316 0.931 . S
H1303 C1318 0.930 . S
C1304 H1292 0.930 . S
C1304 C1305 1.399 . S
C1304 C1309 1.399 . S
C1305 C1304 1.399 . S
C1305 C1306 1.376 . S
C1306 H1293 0.930 . S
C1306 C1305 1.376 . S
C1306 C1307 1.388 . S
C1307 H1294 0.930 . S
C1307 C1306 1.388 . S
C1307 C1308 1.390 . S
C1308 C1307 1.390 . S
C1308 C1309 1.394 . S
C1308 C1314 1.465 . S
C1309 C1304 1.399 . S
C1309 C1308 1.394 . S
C1309 C1310 1.516 . S
C1310 C1309 1.516 . S
C1310 C1311 1.502 . S
C1310 C1312 1.561 . S
C1310 C1313 1.526 . S
C1311 H1295 0.959 . S
C1311 H1296 0.959 . S
C1311 H1297 0.961 . S
C1311 C1310 1.502 . S
C1312 H1298 0.960 . S
C1312 H1299 0.961 . S
C1312 H1300 0.959 . S
C1312 C1310 1.561 . S
C1313 C1310 1.526 . S
C1313 C1314 1.396 . S
C1313 C1318 1.390 . S
C1314 C1308 1.465 . S
C1314 C1313 1.396 . S
C1314 C1315 1.399 . S
C1315 H1301 0.929 . S
C1315 C1314 1.399 . S
C1315 C1316 1.385 . S
C1316 H1302 0.931 . S
C1316 C1315 1.385 . S
C1316 C1317 1.389 . S
C1317 C1316 1.389 . S
C1317 C1318 1.387 . S
C1318 H1303 0.930 . S
C1318 C1313 1.390 . S
C1318 C1317 1.387 . S
H1319 C1331 0.930 . S
H1320 C1333 0.930 . S
H1321 C1334 0.930 . S
H1322 C1338 0.959 . S
H1323 C1338 0.959 . S
H1324 C1338 0.961 . S
H1325 C1339 0.960 . S
H1326 C1339 0.961 . S
H1327 C1339 0.959 . S
H1328 C1342 0.929 . S
H1329 C1343 0.931 . S
H1330 C1345 0.930 . S
C1331 H1319 0.930 . S
C1331 C1332 1.399 . S
C1331 C1336 1.399 . S
C1332 C1331 1.399 . S
C1332 C1333 1.376 . S
C1333 H1320 0.930 . S
C1333 C1332 1.376 . S
C1333 C1334 1.388 . S
C1334 H1321 0.930 . S
C1334 C1333 1.388 . S
C1334 C1335 1.390 . S
C1335 C1334 1.390 . S
C1335 C1336 1.394 . S
C1335 C1341 1.465 . S
C1336 C1331 1.399 . S
C1336 C1335 1.394 . S
C1336 C1337 1.516 . S
C1337 C1336 1.516 . S
C1337 C1338 1.502 . S
C1337 C1339 1.561 . S
C1337 C1340 1.526 . S
C1338 H1322 0.959 . S
C1338 H1323 0.959 . S
C1338 H1324 0.961 . S
C1338 C1337 1.502 . S
C1339 H1325 0.960 . S
C1339 H1326 0.961 . S
C1339 H1327 0.959 . S
C1339 C1337 1.561 . S
C1340 C1337 1.526 . S
C1340 C1341 1.396 . S
C1340 C1345 1.390 . S
C1341 C1335 1.465 . S
C1341 C1340 1.396 . S
C1341 C1342 1.399 . S
C1342 H1328 0.929 . S
C1342 C1341 1.399 . S
C1342 C1343 1.385 . S
C1343 H1329 0.931 . S
C1343 C1342 1.385 . S
C1343 C1344 1.389 . S
C1344 C1343 1.389 . S
C1344 C1345 1.387 . S
C1345 H1330 0.930 . S
C1345 C1340 1.390 . S
C1345 C1344 1.387 . S
H1346 C1358 0.930 . S
H1347 C1360 0.930 . S
H1348 C1361 0.930 . S
H1349 C1365 0.959 . S
H1350 C1365 0.959 . S
H1351 C1365 0.961 . S
H1352 C1366 0.960 . S
H1353 C1366 0.961 . S
H1354 C1366 0.959 . S
H1355 C1369 0.929 . S
H1356 C1370 0.931 . S
H1357 C1372 0.930 . S
C1358 H1346 0.930 . S
C1358 C1359 1.399 . S
C1358 C1363 1.399 . S
C1359 C1358 1.399 . S
C1359 C1360 1.376 . S
C1360 H1347 0.930 . S
C1360 C1359 1.376 . S
C1360 C1361 1.388 . S
C1361 H1348 0.930 . S
C1361 C1360 1.388 . S
C1361 C1362 1.390 . S
C1362 C1361 1.390 . S
C1362 C1363 1.394 . S
C1362 C1368 1.465 . S
C1363 C1358 1.399 . S
C1363 C1362 1.394 . S
C1363 C1364 1.516 . S
C1364 C1363 1.516 . S
C1364 C1365 1.502 . S
C1364 C1366 1.561 . S
C1364 C1367 1.526 . S
C1365 H1349 0.959 . S
C1365 H1350 0.959 . S
C1365 H1351 0.961 . S
C1365 C1364 1.502 . S
C1366 H1352 0.960 . S
C1366 H1353 0.961 . S
C1366 H1354 0.959 . S
C1366 C1364 1.561 . S
C1367 C1364 1.526 . S
C1367 C1368 1.396 . S
C1367 C1372 1.390 . S
C1368 C1362 1.465 . S
C1368 C1367 1.396 . S
C1368 C1369 1.399 . S
C1369 H1355 0.929 . S
C1369 C1368 1.399 . S
C1369 C1370 1.385 . S
C1370 H1356 0.931 . S
C1370 C1369 1.385 . S
C1370 C1371 1.389 . S
C1371 C1370 1.389 . S
C1371 C1372 1.387 . S
C1372 H1357 0.930 . S
C1372 C1367 1.390 . S
C1372 C1371 1.387 . S
H1373 C1385 0.930 . S
H1374 C1387 0.930 . S
H1375 C1388 0.930 . S
H1376 C1392 0.959 . S
H1377 C1392 0.959 . S
H1378 C1392 0.961 . S
H1379 C1393 0.960 . S
H1380 C1393 0.961 . S
H1381 C1393 0.959 . S
H1382 C1396 0.929 . S
H1383 C1397 0.931 . S
H1384 C1399 0.930 . S
C1385 H1373 0.930 . S
C1385 C1386 1.399 . S
C1385 C1390 1.399 . S
C1386 C1385 1.399 . S
C1386 C1387 1.376 . S
C1387 H1374 0.930 . S
C1387 C1386 1.376 . S
C1387 C1388 1.388 . S
C1388 H1375 0.930 . S
C1388 C1387 1.388 . S
C1388 C1389 1.390 . S
C1389 C1388 1.390 . S
C1389 C1390 1.394 . S
C1389 C1395 1.465 . S
C1390 C1385 1.399 . S
C1390 C1389 1.394 . S
C1390 C1391 1.516 . S
C1391 C1390 1.516 . S
C1391 C1392 1.502 . S
C1391 C1393 1.561 . S
C1391 C1394 1.526 . S
C1392 H1376 0.959 . S
C1392 H1377 0.959 . S
C1392 H1378 0.961 . S
C1392 C1391 1.502 . S
C1393 H1379 0.960 . S
C1393 H1380 0.961 . S
C1393 H1381 0.959 . S
C1393 C1391 1.561 . S
C1394 C1391 1.526 . S
C1394 C1395 1.396 . S
C1394 C1399 1.390 . S
C1395 C1389 1.465 . S
C1395 C1394 1.396 . S
C1395 C1396 1.399 . S
C1396 H1382 0.929 . S
C1396 C1395 1.399 . S
C1396 C1397 1.385 . S
C1397 H1383 0.931 . S
C1397 C1396 1.385 . S
C1397 C1398 1.389 . S
C1398 C1397 1.389 . S
C1398 C1399 1.387 . S
C1399 H1384 0.930 . S
C1399 C1394 1.390 . S
C1399 C1398 1.387 . S
H1400 C1412 0.930 . S
H1401 C1414 0.930 . S
H1402 C1415 0.930 . S
H1403 C1419 0.959 . S
H1404 C1419 0.959 . S
H1405 C1419 0.961 . S
H1406 C1420 0.960 . S
H1407 C1420 0.961 . S
H1408 C1420 0.959 . S
H1409 C1423 0.929 . S
H1410 C1424 0.931 . S
H1411 C1426 0.930 . S
C1412 H1400 0.930 . S
C1412 C1413 1.399 . S
C1412 C1417 1.399 . S
C1413 C1412 1.399 . S
C1413 C1414 1.376 . S
C1414 H1401 0.930 . S
C1414 C1413 1.376 . S
C1414 C1415 1.388 . S
C1415 H1402 0.930 . S
C1415 C1414 1.388 . S
C1415 C1416 1.390 . S
C1416 C1415 1.390 . S
C1416 C1417 1.394 . S
C1416 C1422 1.465 . S
C1417 C1412 1.399 . S
C1417 C1416 1.394 . S
C1417 C1418 1.516 . S
C1418 C1417 1.516 . S
C1418 C1419 1.502 . S
C1418 C1420 1.561 . S
C1418 C1421 1.526 . S
C1419 H1403 0.959 . S
C1419 H1404 0.959 . S
C1419 H1405 0.961 . S
C1419 C1418 1.502 . S
C1420 H1406 0.960 . S
C1420 H1407 0.961 . S
C1420 H1408 0.959 . S
C1420 C1418 1.561 . S
C1421 C1418 1.526 . S
C1421 C1422 1.396 . S
C1421 C1426 1.390 . S
C1422 C1416 1.465 . S
C1422 C1421 1.396 . S
C1422 C1423 1.399 . S
C1423 H1409 0.929 . S
C1423 C1422 1.399 . S
C1423 C1424 1.385 . S
C1424 H1410 0.931 . S
C1424 C1423 1.385 . S
C1424 C1425 1.389 . S
C1425 C1424 1.389 . S
C1425 C1426 1.387 . S
C1426 H1411 0.930 . S
C1426 C1421 1.390 . S
C1426 C1425 1.387 . S
H1427 C1439 0.930 . S
H1428 C1441 0.930 . S
H1429 C1442 0.930 . S
H1430 C1446 0.959 . S
H1431 C1446 0.959 . S
H1432 C1446 0.961 . S
H1433 C1447 0.960 . S
H1434 C1447 0.961 . S
H1435 C1447 0.959 . S
H1436 C1450 0.929 . S
H1437 C1451 0.931 . S
H1438 C1453 0.930 . S
C1439 H1427 0.930 . S
C1439 C1440 1.399 . S
C1439 C1444 1.399 . S
C1440 C1439 1.399 . S
C1440 C1441 1.376 . S
C1441 H1428 0.930 . S
C1441 C1440 1.376 . S
C1441 C1442 1.388 . S
C1442 H1429 0.930 . S
C1442 C1441 1.388 . S
C1442 C1443 1.390 . S
C1443 C1442 1.390 . S
C1443 C1444 1.394 . S
C1443 C1449 1.465 . S
C1444 C1439 1.399 . S
C1444 C1443 1.394 . S
C1444 C1445 1.516 . S
C1445 C1444 1.516 . S
C1445 C1446 1.502 . S
C1445 C1447 1.561 . S
C1445 C1448 1.526 . S
C1446 H1430 0.959 . S
C1446 H1431 0.959 . S
C1446 H1432 0.961 . S
C1446 C1445 1.502 . S
C1447 H1433 0.960 . S
C1447 H1434 0.961 . S
C1447 H1435 0.959 . S
C1447 C1445 1.561 . S
C1448 C1445 1.526 . S
C1448 C1449 1.396 . S
C1448 C1453 1.390 . S
C1449 C1443 1.465 . S
C1449 C1448 1.396 . S
C1449 C1450 1.399 . S
C1450 H1436 0.929 . S
C1450 C1449 1.399 . S
C1450 C1451 1.385 . S
C1451 H1437 0.931 . S
C1451 C1450 1.385 . S
C1451 C1452 1.389 . S
C1452 C1451 1.389 . S
C1452 C1453 1.387 . S
C1453 H1438 0.930 . S
C1453 C1448 1.390 . S
C1453 C1452 1.387 . S
H1454 C1466 0.930 . S
H1455 C1468 0.930 . S
H1456 C1469 0.930 . S
H1457 C1473 0.959 . S
H1458 C1473 0.959 . S
H1459 C1473 0.961 . S
H1460 C1474 0.960 . S
H1461 C1474 0.961 . S
H1462 C1474 0.959 . S
H1463 C1477 0.929 . S
H1464 C1478 0.931 . S
H1465 C1480 0.930 . S
C1466 H1454 0.930 . S
C1466 C1467 1.399 . S
C1466 C1471 1.399 . S
C1467 C1466 1.399 . S
C1467 C1468 1.376 . S
C1468 H1455 0.930 . S
C1468 C1467 1.376 . S
C1468 C1469 1.388 . S
C1469 H1456 0.930 . S
C1469 C1468 1.388 . S
C1469 C1470 1.390 . S
C1470 C1469 1.390 . S
C1470 C1471 1.394 . S
C1470 C1476 1.465 . S
C1471 C1466 1.399 . S
C1471 C1470 1.394 . S
C1471 C1472 1.516 . S
C1472 C1471 1.516 . S
C1472 C1473 1.502 . S
C1472 C1474 1.561 . S
C1472 C1475 1.526 . S
C1473 H1457 0.959 . S
C1473 H1458 0.959 . S
C1473 H1459 0.961 . S
C1473 C1472 1.502 . S
C1474 H1460 0.960 . S
C1474 H1461 0.961 . S
C1474 H1462 0.959 . S
C1474 C1472 1.561 . S
C1475 C1472 1.526 . S
C1475 C1476 1.396 . S
C1475 C1480 1.390 . S
C1476 C1470 1.465 . S
C1476 C1475 1.396 . S
C1476 C1477 1.399 . S
C1477 H1463 0.929 . S
C1477 C1476 1.399 . S
C1477 C1478 1.385 . S
C1478 H1464 0.931 . S
C1478 C1477 1.385 . S
C1478 C1479 1.389 . S
C1479 C1478 1.389 . S
C1479 C1480 1.387 . S
C1480 H1465 0.930 . S
C1480 C1475 1.390 . S
C1480 C1479 1.387 . S
H1481 C1493 0.930 . S
H1482 C1495 0.930 . S
H1483 C1496 0.930 . S
H1484 C1500 0.959 . S
H1485 C1500 0.959 . S
H1486 C1500 0.961 . S
H1487 C1501 0.960 . S
H1488 C1501 0.961 . S
H1489 C1501 0.959 . S
H1490 C1504 0.929 . S
H1491 C1505 0.931 . S
H1492 C1507 0.930 . S
C1493 H1481 0.930 . S
C1493 C1494 1.399 . S
C1493 C1498 1.399 . S
C1494 C1493 1.399 . S
C1494 C1495 1.376 . S
C1495 H1482 0.930 . S
C1495 C1494 1.376 . S
C1495 C1496 1.388 . S
C1496 H1483 0.930 . S
C1496 C1495 1.388 . S
C1496 C1497 1.390 . S
C1497 C1496 1.390 . S
C1497 C1498 1.394 . S
C1497 C1503 1.465 . S
C1498 C1493 1.399 . S
C1498 C1497 1.394 . S
C1498 C1499 1.516 . S
C1499 C1498 1.516 . S
C1499 C1500 1.502 . S
C1499 C1501 1.561 . S
C1499 C1502 1.526 . S
C1500 H1484 0.959 . S
C1500 H1485 0.959 . S
C1500 H1486 0.961 . S
C1500 C1499 1.502 . S
C1501 H1487 0.960 . S
C1501 H1488 0.961 . S
C1501 H1489 0.959 . S
C1501 C1499 1.561 . S
C1502 C1499 1.526 . S
C1502 C1503 1.396 . S
C1502 C1507 1.390 . S
C1503 C1497 1.465 . S
C1503 C1502 1.396 . S
C1503 C1504 1.399 . S
C1504 H1490 0.929 . S
C1504 C1503 1.399 . S
C1504 C1505 1.385 . S
C1505 H1491 0.931 . S
C1505 C1504 1.385 . S
C1505 C1506 1.389 . S
C1506 C1505 1.389 . S
C1506 C1507 1.387 . S
C1507 H1492 0.930 . S
C1507 C1502 1.390 . S
C1507 C1506 1.387 . S
H1508 C1520 0.930 . S
H1509 C1522 0.930 . S
H1510 C1523 0.930 . S
H1511 C1527 0.959 . S
H1512 C1527 0.959 . S
H1513 C1527 0.961 . S
H1514 C1528 0.960 . S
H1515 C1528 0.961 . S
H1516 C1528 0.959 . S
H1517 C1531 0.929 . S
H1518 C1532 0.931 . S
H1519 C1534 0.930 . S
C1520 H1508 0.930 . S
C1520 C1521 1.399 . S
C1520 C1525 1.399 . S
C1521 C1520 1.399 . S
C1521 C1522 1.376 . S
C1522 H1509 0.930 . S
C1522 C1521 1.376 . S
C1522 C1523 1.388 . S
C1523 H1510 0.930 . S
C1523 C1522 1.388 . S
C1523 C1524 1.390 . S
C1524 C1523 1.390 . S
C1524 C1525 1.394 . S
C1524 C1530 1.465 . S
C1525 C1520 1.399 . S
C1525 C1524 1.394 . S
C1525 C1526 1.516 . S
C1526 C1525 1.516 . S
C1526 C1527 1.502 . S
C1526 C1528 1.561 . S
C1526 C1529 1.526 . S
C1527 H1511 0.959 . S
C1527 H1512 0.959 . S
C1527 H1513 0.961 . S
C1527 C1526 1.502 . S
C1528 H1514 0.960 . S
C1528 H1515 0.961 . S
C1528 H1516 0.959 . S
C1528 C1526 1.561 . S
C1529 C1526 1.526 . S
C1529 C1530 1.396 . S
C1529 C1534 1.390 . S
C1530 C1524 1.465 . S
C1530 C1529 1.396 . S
C1530 C1531 1.399 . S
C1531 H1517 0.929 . S
C1531 C1530 1.399 . S
C1531 C1532 1.385 . S
C1532 H1518 0.931 . S
C1532 C1531 1.385 . S
C1532 C1533 1.389 . S
C1533 C1532 1.389 . S
C1533 C1534 1.387 . S
C1534 H1519 0.930 . S
C1534 C1529 1.390 . S
C1534 C1533 1.387 . S
H1535 C1547 0.930 . S
H1536 C1549 0.930 . S
H1537 C1550 0.930 . S
H1538 C1554 0.959 . S
H1539 C1554 0.959 . S
H1540 C1554 0.961 . S
H1541 C1555 0.960 . S
H1542 C1555 0.961 . S
H1543 C1555 0.959 . S
H1544 C1558 0.929 . S
H1545 C1559 0.931 . S
H1546 C1561 0.930 . S
C1547 H1535 0.930 . S
C1547 C1548 1.399 . S
C1547 C1552 1.399 . S
C1548 C1547 1.399 . S
C1548 C1549 1.376 . S
C1549 H1536 0.930 . S
C1549 C1548 1.376 . S
C1549 C1550 1.388 . S
C1550 H1537 0.930 . S
C1550 C1549 1.388 . S
C1550 C1551 1.390 . S
C1551 C1550 1.390 . S
C1551 C1552 1.394 . S
C1551 C1557 1.465 . S
C1552 C1547 1.399 . S
C1552 C1551 1.394 . S
C1552 C1553 1.516 . S
C1553 C1552 1.516 . S
C1553 C1554 1.502 . S
C1553 C1555 1.561 . S
C1553 C1556 1.526 . S
C1554 H1538 0.959 . S
C1554 H1539 0.959 . S
C1554 H1540 0.961 . S
C1554 C1553 1.502 . S
C1555 H1541 0.960 . S
C1555 H1542 0.961 . S
C1555 H1543 0.959 . S
C1555 C1553 1.561 . S
C1556 C1553 1.526 . S
C1556 C1557 1.396 . S
C1556 C1561 1.390 . S
C1557 C1551 1.465 . S
C1557 C1556 1.396 . S
C1557 C1558 1.399 . S
C1558 H1544 0.929 . S
C1558 C1557 1.399 . S
C1558 C1559 1.385 . S
C1559 H1545 0.931 . S
C1559 C1558 1.385 . S
C1559 C1560 1.389 . S
C1560 C1559 1.389 . S
C1560 C1561 1.387 . S
C1561 H1546 0.930 . S
C1561 C1556 1.390 . S
C1561 C1560 1.387 . S
H1562 C1574 0.930 . S
H1563 C1576 0.930 . S
H1564 C1577 0.930 . S
H1565 C1581 0.959 . S
H1566 C1581 0.959 . S
H1567 C1581 0.961 . S
H1568 C1582 0.960 . S
H1569 C1582 0.961 . S
H1570 C1582 0.959 . S
H1571 C1585 0.929 . S
H1572 C1586 0.931 . S
H1573 C1588 0.930 . S
C1574 H1562 0.930 . S
C1574 C1575 1.399 . S
C1574 C1579 1.399 . S
C1575 C1574 1.399 . S
C1575 C1576 1.376 . S
C1576 H1563 0.930 . S
C1576 C1575 1.376 . S
C1576 C1577 1.388 . S
C1577 H1564 0.930 . S
C1577 C1576 1.388 . S
C1577 C1578 1.390 . S
C1578 C1577 1.390 . S
C1578 C1579 1.394 . S
C1578 C1584 1.465 . S
C1579 C1574 1.399 . S
C1579 C1578 1.394 . S
C1579 C1580 1.516 . S
C1580 C1579 1.516 . S
C1580 C1581 1.502 . S
C1580 C1582 1.561 . S
C1580 C1583 1.526 . S
C1581 H1565 0.959 . S
C1581 H1566 0.959 . S
C1581 H1567 0.961 . S
C1581 C1580 1.502 . S
C1582 H1568 0.960 . S
C1582 H1569 0.961 . S
C1582 H1570 0.959 . S
C1582 C1580 1.561 . S
C1583 C1580 1.526 . S
C1583 C1584 1.396 . S
C1583 C1588 1.390 . S
C1584 C1578 1.465 . S
C1584 C1583 1.396 . S
C1584 C1585 1.399 . S
C1585 H1571 0.929 . S
C1585 C1584 1.399 . S
C1585 C1586 1.385 . S
C1586 H1572 0.931 . S
C1586 C1585 1.385 . S
C1586 C1587 1.389 . S
C1587 C1586 1.389 . S
C1587 C1588 1.387 . S
C1588 H1573 0.930 . S
C1588 C1583 1.390 . S
C1588 C1587 1.387 . S
H1589 C1601 0.930 . S
H1590 C1603 0.930 . S
H1591 C1604 0.930 . S
H1592 C1608 0.959 . S
H1593 C1608 0.959 . S
H1594 C1608 0.961 . S
H1595 C1609 0.960 . S
H1596 C1609 0.961 . S
H1597 C1609 0.959 . S
H1598 C1612 0.929 . S
H1599 C1613 0.931 . S
H1600 C1615 0.930 . S
C1601 H1589 0.930 . S
C1601 C1602 1.399 . S
C1601 C1606 1.399 . S
C1602 C1601 1.399 . S
C1602 C1603 1.376 . S
C1603 H1590 0.930 . S
C1603 C1602 1.376 . S
C1603 C1604 1.388 . S
C1604 H1591 0.930 . S
C1604 C1603 1.388 . S
C1604 C1605 1.390 . S
C1605 C1604 1.390 . S
C1605 C1606 1.394 . S
C1605 C1611 1.465 . S
C1606 C1601 1.399 . S
C1606 C1605 1.394 . S
C1606 C1607 1.516 . S
C1607 C1606 1.516 . S
C1607 C1608 1.502 . S
C1607 C1609 1.561 . S
C1607 C1610 1.526 . S
C1608 H1592 0.959 . S
C1608 H1593 0.959 . S
C1608 H1594 0.961 . S
C1608 C1607 1.502 . S
C1609 H1595 0.960 . S
C1609 H1596 0.961 . S
C1609 H1597 0.959 . S
C1609 C1607 1.561 . S
C1610 C1607 1.526 . S
C1610 C1611 1.396 . S
C1610 C1615 1.390 . S
C1611 C1605 1.465 . S
C1611 C1610 1.396 . S
C1611 C1612 1.399 . S
C1612 H1598 0.929 . S
C1612 C1611 1.399 . S
C1612 C1613 1.385 . S
C1613 H1599 0.931 . S
C1613 C1612 1.385 . S
C1613 C1614 1.389 . S
C1614 C1613 1.389 . S
C1614 C1615 1.387 . S
C1615 H1600 0.930 . S
C1615 C1610 1.390 . S
C1615 C1614 1.387 . S
C333 C62 1.758 . S
C345 C18 1.799 . S
C360 C12 1.431 . S
C372 C22 1.443 . S
C387 C58 1.169 . S
C399 C38 1.107 . S
C414 C72 1.260 . S
C426 C52 1.267 . S
C441 C84 1.539 . S
C453 C104 1.494 . S
C468 C119 1.107 . S
C480 C139 1.131 . S
C495 C129 1.427 . S
C507 C144 1.366 . S
C522 C89 1.483 . S
C534 C159 1.479 . S
C549 C189 1.435 . S
C561 C2 1.398 . S
C576 C204 0.770 . S
C588 C32 0.701 . S
C603 C42 1.211 . S
C615 C269 1.155 . S
C630 C179 1.058 . S
C642 C78 1.009 . S
C657 C238 1.157 . S
C669 C99 1.164 . S
C684 C282 1.368 . S
C696 C109 1.421 . S
C711 C124 0.790 . S
C723 C252 0.786 . S
C738 C309 1.198 . S
C750 C149 1.104 . S
C765 C169 1.480 . S
C777 C279 1.474 . S
C792 C184 1.577 . S
C804 C164 1.604 . S
C819 C219 1.066 . S
C831 C199 1.073 . S
C846 C298 1.842 . S
C858 C222 1.746 . S
C873 C258 1.124 . S
C885 C319 1.132 . S
C900 C224 1.691 . S
C912 C19 1.806 . S
C927 C244 1.397 . S
C939 C9 1.452 . S
C954 C259 1.169 . S
C966 C59 1.086 . S
C981 C49 1.273 . S
C993 C229 1.243 . S
C1008 C182 1.501 . S
C1020 C82 1.506 . S
C1035 C198 1.102 . S
C1047 C138 1.093 . S
C1062 C262 1.441 . S
C1074 C132 1.479 . S
C1089 C92 1.508 . S
C1101 C278 1.539 . S
C1116 C112 1.386 . S
C1128 C4 1.333 . S
C1143 C202 0.671 . S
C1155 C249 0.780 . S
C1170 C44 1.275 . S
C1182 C152 1.189 . S
C1197 C178 1.058 . S
C1209 C239 1.067 . S
C1224 C79 1.138 . S
C1236 C98 1.195 . S
C1251 C192 1.421 . S
C1263 C284 1.407 . S
C1278 C122 0.652 . S
C1290 C29 0.761 . S
C1305 C312 1.220 . S
C1317 C272 1.110 . S
C1332 C172 1.524 . S
C1344 C158 1.542 . S
C1359 C162 1.525 . S
C1371 C102 1.526 . S
C1386 C218 1.074 . S
C1398 C118 1.089 . S
C1413 C64 1.802 . S
C1425 C299 1.809 . S
C1440 C39 1.108 . S
C1452 C318 1.044 . S
C1467 C242 1.276 . S
C1479 C292 1.277 . S
C1494 C232 1.346 . S
C1506 C304 1.269 . S
C1521 C209 1.479 . S
C1533 C264 1.388 . S
C1548 C289 1.266 . S
C1560 C24 1.160 . S
C1575 C69 1.374 . S
C1587 C302 1.235 . S
C1602 C142 1.401 . S
C1614 C212 1.429 . S
