# Generated by pormake.
# Topology fng, (5)-cn, num edge types: 1
# Building blocks:
#     Node 0, Type 0, BuildingBlock: XOMCOT_clean_sbu_0, # of connection points: 5
#     Node 1, Type 0, BuildingBlock: XOMCOT_clean_sbu_0, # of connection points: 5
#     Node 2, Type 0, BuildingBlock: XOMCOT_clean_sbu_0, # of connection points: 5
#     Node 3, Type 0, BuildingBlock: XOMCOT_clean_sbu_0, # of connection points: 5
#     Node 4, Type 0, BuildingBlock: XOMCOT_clean_sbu_0, # of connection points: 5
#     Node 5, Type 0, BuildingBlock: XOMCOT_clean_sbu_0, # of connection points: 5
#     Node 6, Type 0, BuildingBlock: XOMCOT_clean_sbu_0, # of connection points: 5
#     Node 7, Type 0, BuildingBlock: XOMCOT_clean_sbu_0, # of connection points: 5
#     Node 8, Type 0, BuildingBlock: XOMCOT_clean_sbu_0, # of connection points: 5
#     Node 9, Type 0, BuildingBlock: XOMCOT_clean_sbu_0, # of connection points: 5
#     Node 10, Type 0, BuildingBlock: XOMCOT_clean_sbu_0, # of connection points: 5
#     Node 11, Type 0, BuildingBlock: XOMCOT_clean_sbu_0, # of connection points: 5
#     Node 12, Type 0, BuildingBlock: XOMCOT_clean_sbu_0, # of connection points: 5
#     Node 13, Type 0, BuildingBlock: XOMCOT_clean_sbu_0, # of connection points: 5
#     Node 14, Type 0, BuildingBlock: XOMCOT_clean_sbu_0, # of connection points: 5
#     Node 15, Type 0, BuildingBlock: XOMCOT_clean_sbu_0, # of connection points: 5
#     Node 16, Type 0, BuildingBlock: XOMCOT_clean_sbu_0, # of connection points: 5
#     Node 17, Type 0, BuildingBlock: XOMCOT_clean_sbu_0, # of connection points: 5
#     Edge 18, Type (0, 0), BuildingBlock: XIVTED_clean_linker_0, # of connection points: 2
#     Edge 19, Type (0, 0), BuildingBlock: XIVTED_clean_linker_0, # of connection points: 2
#     Edge 20, Type (0, 0), BuildingBlock: XIVTED_clean_linker_0, # of connection points: 2
#     Edge 21, Type (0, 0), BuildingBlock: XIVTED_clean_linker_0, # of connection points: 2
#     Edge 22, Type (0, 0), BuildingBlock: XIVTED_clean_linker_0, # of connection points: 2
#     Edge 23, Type (0, 0), BuildingBlock: XIVTED_clean_linker_0, # of connection points: 2
#     Edge 24, Type (0, 0), BuildingBlock: XIVTED_clean_linker_0, # of connection points: 2
#     Edge 25, Type (0, 0), BuildingBlock: XIVTED_clean_linker_0, # of connection points: 2
#     Edge 26, Type (0, 0), BuildingBlock: XIVTED_clean_linker_0, # of connection points: 2
#     Edge 27, Type (0, 0), BuildingBlock: XIVTED_clean_linker_0, # of connection points: 2
#     Edge 28, Type (0, 0), BuildingBlock: XIVTED_clean_linker_0, # of connection points: 2
#     Edge 29, Type (0, 0), BuildingBlock: XIVTED_clean_linker_0, # of connection points: 2
#     Edge 30, Type (0, 0), BuildingBlock: XIVTED_clean_linker_0, # of connection points: 2
#     Edge 31, Type (0, 0), BuildingBlock: XIVTED_clean_linker_0, # of connection points: 2
#     Edge 32, Type (0, 0), BuildingBlock: XIVTED_clean_linker_0, # of connection points: 2
#     Edge 33, Type (0, 0), BuildingBlock: XIVTED_clean_linker_0, # of connection points: 2
#     Edge 34, Type (0, 0), BuildingBlock: XIVTED_clean_linker_0, # of connection points: 2
#     Edge 35, Type (0, 0), BuildingBlock: XIVTED_clean_linker_0, # of connection points: 2
#     Edge 36, Type (0, 0), BuildingBlock: XIVTED_clean_linker_0, # of connection points: 2
#     Edge 37, Type (0, 0), BuildingBlock: XIVTED_clean_linker_0, # of connection points: 2
#     Edge 38, Type (0, 0), BuildingBlock: XIVTED_clean_linker_0, # of connection points: 2
#     Edge 39, Type (0, 0), BuildingBlock: XIVTED_clean_linker_0, # of connection points: 2
#     Edge 40, Type (0, 0), BuildingBlock: XIVTED_clean_linker_0, # of connection points: 2
#     Edge 41, Type (0, 0), BuildingBlock: XIVTED_clean_linker_0, # of connection points: 2
#     Edge 42, Type (0, 0), BuildingBlock: XIVTED_clean_linker_0, # of connection points: 2
#     Edge 43, Type (0, 0), BuildingBlock: XIVTED_clean_linker_0, # of connection points: 2
#     Edge 44, Type (0, 0), BuildingBlock: XIVTED_clean_linker_0, # of connection points: 2
#     Edge 45, Type (0, 0), BuildingBlock: XIVTED_clean_linker_0, # of connection points: 2
#     Edge 46, Type (0, 0), BuildingBlock: XIVTED_clean_linker_0, # of connection points: 2
#     Edge 47, Type (0, 0), BuildingBlock: XIVTED_clean_linker_0, # of connection points: 2
#     Edge 48, Type (0, 0), BuildingBlock: XIVTED_clean_linker_0, # of connection points: 2
#     Edge 49, Type (0, 0), BuildingBlock: XIVTED_clean_linker_0, # of connection points: 2
#     Edge 50, Type (0, 0), BuildingBlock: XIVTED_clean_linker_0, # of connection points: 2
#     Edge 51, Type (0, 0), BuildingBlock: XIVTED_clean_linker_0, # of connection points: 2
#     Edge 52, Type (0, 0), BuildingBlock: XIVTED_clean_linker_0, # of connection points: 2
#     Edge 53, Type (0, 0), BuildingBlock: XIVTED_clean_linker_0, # of connection points: 2
#     Edge 54, Type (0, 0), BuildingBlock: XIVTED_clean_linker_0, # of connection points: 2
#     Edge 55, Type (0, 0), BuildingBlock: XIVTED_clean_linker_0, # of connection points: 2
#     Edge 56, Type (0, 0), BuildingBlock: XIVTED_clean_linker_0, # of connection points: 2
#     Edge 57, Type (0, 0), BuildingBlock: XIVTED_clean_linker_0, # of connection points: 2
#     Edge 58, Type (0, 0), BuildingBlock: XIVTED_clean_linker_0, # of connection points: 2
#     Edge 59, Type (0, 0), BuildingBlock: XIVTED_clean_linker_0, # of connection points: 2
#     Edge 60, Type (0, 0), BuildingBlock: XIVTED_clean_linker_0, # of connection points: 2
#     Edge 61, Type (0, 0), BuildingBlock: XIVTED_clean_linker_0, # of connection points: 2
#     Edge 62, Type (0, 0), BuildingBlock: XIVTED_clean_linker_0, # of connection points: 2
# Relax obj value: 0.101
# Max RMSD: 0.127
# Mean RMSD: 0.127
data_MOF--net-fng--node1-XOMCOT_clean_sbu_0--edge1-XIVTED_clean_linker_0
_symmetry_space_group_name_H-M    P1
_symmetry_Int_Tables_number       1
_symmetry_cell_setting            triclinic
loop_
_symmetry_equiv_pos_as_xyz
'x, y, z'
_cell_length_a     79.783016
_cell_length_b     79.752384
_cell_length_c     17.442786
_cell_angle_alpha  90.059662
_cell_angle_beta   89.99046
_cell_angle_gamma 119.97511
loop_
_atom_site_label
_atom_site_type_symbol
_atom_site_fract_x
_atom_site_fract_y
_atom_site_fract_z
_atom_type_partial_charge
Co0 Co 0.15656 0.2526 0.10813 0.0
C1 C 0.15861 0.25829 0.94075 0.0
C2 C 0.18176 0.2825 -0.0018 0.0
C3 C 0.18487 0.28508 0.92029 0.0
N4 N 0.16506 0.26583 0.01088 0.0
N5 N 0.17034 0.26969 0.88462 0.0
H6 H 0.14625 0.24425 0.93042 0.0
H7 H 0.19157 0.29158 0.04261 0.0
C8 C 0.16262 0.29269 0.14186 0.0
O9 O 0.15612 0.29363 0.07373 0.0
N10 N 0.14878 0.23969 0.20511 0.0
C11 C 0.13341 0.22233 0.22189 0.0
C12 C 0.13281 0.21983 0.30035 0.0
C13 C 0.15743 0.24738 0.27228 0.0
N14 N 0.14789 0.23571 0.33172 0.0
C15 C 0.11917 0.23134 0.038 0.0
C16 C 0.10119 0.2482 0.1154 0.0
C17 C 0.09076 0.23425 0.05901 0.0
C18 C 0.09999 0.22563 0.02106 0.0
C19 C 0.12059 0.2537 0.13001 0.0
N20 N 0.12969 0.24594 0.08881 0.0
H21 H 0.12534 0.22353 0.01096 0.0
H22 H 0.12794 0.26376 0.17605 0.0
H23 H 0.12309 0.21248 0.18047 0.0
H24 H 0.17036 0.2614 0.2773 0.0
O25 O 0.1558 0.23 0.06379 0.0
O26 O 0.18159 0.25419 0.11829 0.0
O27 O 0.16317 0.27761 0.16241 0.0
C28 C 0.17389 0.23762 0.08279 0.0
H29 H 0.19742 0.2967 0.89243 0.0
H30 H 0.12173 0.20765 0.33188 0.0
H31 H 0.09444 0.2548 0.14803 0.0
H32 H 0.09225 0.21408 0.97999 0.0
Co33 Co 0.7818 0.911 0.10349 0.0
C34 C 0.77643 0.9076 0.93553 0.0
C35 C 0.74994 0.9004 0.99243 0.0
C36 C 0.74689 0.89966 0.9143 0.0
N37 N 0.76841 0.90489 0.00567 0.0
N38 N 0.76362 0.90409 0.87898 0.0
H39 H 0.79167 0.91358 0.92519 0.0
H40 H 0.73958 0.89859 0.03616 0.0
C41 C 0.7432 0.87612 0.14776 0.0
O42 O 0.74425 0.86596 0.09049 0.0
N43 N 0.7949 0.91739 0.20062 0.0
C44 C 0.81304 0.92126 0.21541 0.0
C45 C 0.81595 0.92328 0.29357 0.0
C46 C 0.78709 0.91732 0.269 0.0
N47 N 0.79956 0.92073 0.32702 0.0
C48 C 0.80081 0.89257 0.03309 0.0
C49 C 0.78811 0.86145 0.13118 0.0
C50 C 0.79955 0.86264 0.06788 0.0
C51 C 0.80617 0.87869 0.01958 0.0
C52 C 0.78285 0.87569 0.14206 0.0
N53 N 0.78831 0.89048 0.0906 0.0
H54 H 0.80748 0.9054 -0.00143 0.0
H55 H 0.77466 0.87494 0.19252 0.0
H56 H 0.8232 0.92197 0.17266 0.0
H57 H 0.77228 0.914 0.27637 0.0
O58 O 0.80456 0.93202 0.05657 0.0
O59 O 0.78054 0.93472 0.1068 0.0
O60 O 0.75667 0.89356 0.15883 0.0
C61 C 0.7972 0.94295 0.07185 0.0
H62 H 0.73357 0.89651 0.8859 0.0
H63 H 0.82898 0.92606 0.32338 0.0
H64 H 0.78326 0.84965 0.17173 0.0
H65 H 0.81601 0.88089 0.97284 0.0
Co66 Co 0.12127 0.87511 0.09901 0.0
C67 C 0.12699 0.87406 0.93192 0.0
C68 C 0.12626 0.84994 0.98878 0.0
C69 C 0.12687 0.8475 0.9107 0.0
N70 N 0.12664 0.86679 0.00208 0.0
N71 N 0.12731 0.86273 0.87516 0.0
H72 H 0.12542 0.8865 0.92166 0.0
H73 H 0.12476 0.83972 0.03271 0.0
C74 C 0.15571 0.86977 0.13532 0.0
O75 O 0.16279 0.8751 0.06594 0.0
N76 N 0.11558 0.88286 0.19558 0.0
C77 C 0.11289 0.8979 0.2107 0.0
C78 C 0.11142 0.89916 0.28913 0.0
C79 C 0.11541 0.87501 0.26407 0.0
N80 N 0.11307 0.88476 0.32243 0.0
C81 C 0.13501 0.91216 0.03006 0.0
C82 C 0.17082 0.93182 0.09962 0.0
C83 C 0.16529 0.94187 0.04897 0.0
C84 C 0.14716 0.93165 0.01386 0.0
C85 C 0.15807 0.91206 0.11437 0.0
N86 N 0.14055 0.90225 0.07789 0.0
H87 H 0.12087 0.90521 0.00423 0.0
H88 H 0.16218 0.90509 0.15726 0.0
H89 H 0.11259 0.90759 0.16814 0.0
H90 H 0.11782 0.86291 0.27113 0.0
O91 O 0.09897 0.87446 0.05246 0.0
O92 O 0.09841 0.84961 0.11101 0.0
O93 O 0.1403 0.86976 0.15524 0.0
C94 C 0.08912 0.85648 0.0731 0.0
H95 H 0.12639 0.83518 0.88247 0.0
H96 H 0.1096 0.91002 0.31923 0.0
H97 H 0.1845 0.9393 0.12974 0.0
H98 H 0.14218 0.93871 0.9744 0.0
Co99 Co 0.25961 0.15117 0.89623 0.0
C100 C 0.26518 0.15253 0.06418 0.0
C101 C 0.29127 0.1727 0.00699 0.0
C102 C 0.29444 0.17495 0.08504 0.0
N103 N 0.273 0.1583 0.99394 0.0
N104 N 0.27797 0.16212 0.12057 0.0
H105 H 0.25008 0.14272 0.0748 0.0
H106 H 0.30138 0.18158 0.96309 0.0
C107 C 0.29807 0.15432 0.85396 0.0
O108 O 0.29693 0.1434 0.91234 0.0
N109 N 0.24656 0.1446 0.799 0.0
C110 C 0.22832 0.13054 0.78406 0.0
C111 C 0.22549 0.12963 0.70586 0.0
C112 C 0.25449 0.15221 0.73064 0.0
N113 N 0.24201 0.14324 0.67253 0.0
C114 C 0.23854 0.11371 0.96377 0.0
C115 C 0.25069 0.09418 0.86872 0.0
C116 C 0.237 0.08386 0.92594 0.0
C117 C 0.23108 0.09397 0.97379 0.0
C118 C 0.25782 0.11419 0.86034 0.0
N119 N 0.25228 0.12392 0.90964 0.0
H120 H 0.23223 0.12041 0.99732 0.0
H121 H 0.26711 0.12155 0.81223 0.0
H122 H 0.21804 0.12124 0.82674 0.0
H123 H 0.26938 0.1635 0.72335 0.0
O124 O 0.23715 0.15009 0.94272 0.0
O125 O 0.26148 0.17648 0.89247 0.0
O126 O 0.28461 0.15821 0.84125 0.0
C127 C 0.24478 0.16836 0.92712 0.0
H128 H 0.30763 0.18546 0.11327 0.0
H129 H 0.21241 0.1195 0.67592 0.0
H130 H 0.2551 0.08672 0.82871 0.0
H131 H 0.22019 0.08652 0.01752 0.0
Co132 Co 0.88403 0.11507 0.88622 0.0
C133 C 0.88268 0.1202 0.05385 0.0
C134 C 0.85863 0.11949 0.99656 0.0
C135 C 0.85612 0.12011 0.07453 0.0
N136 N 0.8755 0.1199 0.9836 0.0
N137 N 0.87132 0.12056 0.11027 0.0
H138 H 0.89507 0.11859 0.06448 0.0
H139 H 0.84846 0.11803 0.95245 0.0
C140 C 0.87741 0.14869 0.85181 0.0
O141 O 0.88393 0.15624 0.9198 0.0
N142 N 0.89195 0.10988 0.78925 0.0
C143 C 0.90727 0.10765 0.77421 0.0
C144 C 0.90857 0.10621 0.69585 0.0
C145 C 0.88398 0.10947 0.72085 0.0
N146 N 0.89392 0.10741 0.66259 0.0
C147 C 0.9215 0.13165 0.9558 0.0
C148 C 0.93909 0.1664 0.87797 0.0
C149 C 0.94967 0.16309 0.93436 0.0
C150 C 0.94064 0.1453 0.97253 0.0
C151 C 0.91973 0.15233 0.86362 0.0
N152 N 0.91082 0.13551 0.90506 0.0
H153 H 0.91547 0.11774 0.98319 0.0
H154 H 0.91227 0.15487 0.81763 0.0
H155 H 0.91711 0.10766 0.81687 0.0
H156 H 0.87163 0.11148 0.71377 0.0
O157 O 0.88511 0.09347 0.93126 0.0
O158 O 0.85915 0.09141 0.87654 0.0
O159 O 0.87706 0.13312 0.83141 0.0
C160 C 0.86704 0.08277 0.91227 0.0
H161 H 0.84381 0.11967 0.10257 0.0
H162 H 0.91962 0.10471 0.66577 0.0
H163 H 0.9457 0.1797 0.84517 0.0
H164 H 0.94849 0.14167 0.01365 0.0
Co165 Co 0.91742 0.77327 0.89595 0.0
C166 C 0.91137 0.76647 0.06266 0.0
C167 C 0.91291 0.7434 0.00655 0.0
C168 C 0.91222 0.74044 0.08471 0.0
N169 N 0.91207 0.75961 0.99275 0.0
N170 N 0.91125 0.75502 0.11971 0.0
H171 H 0.91262 0.78035 0.07264 0.0
H172 H 0.91481 0.73483 0.96296 0.0
C173 C 0.88378 0.73308 0.85814 0.0
O174 O 0.87644 0.73106 0.92718 0.0
N175 N 0.92309 0.7867 0.79954 0.0
C176 C 0.92499 0.80409 0.78381 0.0
C177 C 0.9266 0.80674 0.70535 0.0
C178 C 0.92389 0.77918 0.73146 0.0
N179 N 0.92584 0.791 0.67272 0.0
C180 C 0.90214 0.79548 0.9646 0.0
C181 C 0.86628 0.77757 0.89507 0.0
C182 C 0.87045 0.79209 0.94971 0.0
C183 C 0.88881 0.80126 0.98342 0.0
C184 C 0.88008 0.77205 0.87834 0.0
N185 N 0.8975 0.78035 0.9158 0.0
H186 H 0.91633 0.80339 0.98986 0.0
H187 H 0.87674 0.76144 0.834 0.0
H188 H 0.92459 0.81384 0.82592 0.0
H189 H 0.92211 0.76489 0.7249 0.0
O190 O 0.93932 0.79523 0.94348 0.0
O191 O 0.94061 0.77125 0.88515 0.0
O192 O 0.89902 0.74873 0.83901 0.0
C193 C 0.94953 0.7874 0.92335 0.0
H194 H 0.91303 0.72884 0.1134 0.0
H195 H 0.92783 0.8191 0.67475 0.0
H196 H 0.85248 0.77049 0.86571 0.0
H197 H 0.89308 0.81317 0.02311 0.0
Co198 Co 0.82279 0.5842 0.43559 0.0
C199 C 0.82375 0.59106 0.26882 0.0
C200 C 0.84852 0.61383 0.32508 0.0
C201 C 0.85084 0.61683 0.24695 0.0
N202 N 0.83135 0.5978 0.33876 0.0
N203 N 0.83518 0.60244 0.21186 0.0
H204 H 0.81096 0.57732 0.25873 0.0
H205 H 0.85902 0.62227 0.36873 0.0
C206 C 0.82986 0.62461 0.47274 0.0
O207 O 0.8246 0.62664 0.40359 0.0
N208 N 0.81482 0.57085 0.53208 0.0
C209 C 0.79915 0.55361 0.5479 0.0
C210 C 0.79807 0.55099 0.62638 0.0
C211 C 0.82318 0.57831 0.6001 0.0
N212 N 0.81319 0.56661 0.6589 0.0
C213 C 0.78531 0.56247 0.36666 0.0
C214 C 0.76775 0.58076 0.43642 0.0
C215 C 0.75725 0.56625 0.38197 0.0
C216 C 0.76625 0.5569 0.34809 0.0
C217 C 0.78702 0.58605 0.45298 0.0
N218 N 0.79593 0.57755 0.41545 0.0
H219 H 0.79143 0.5544 0.34135 0.0
H220 H 0.79438 0.59662 0.49735 0.0
H221 H 0.78892 0.54394 0.50584 0.0
H222 H 0.83584 0.59249 0.60656 0.0
O223 O 0.82234 0.56199 0.38845 0.0
O224 O 0.84778 0.58573 0.44683 0.0
O225 O 0.82928 0.60889 0.49219 0.0
C226 C 0.84032 0.56953 0.40888 0.0
H227 H 0.86333 0.62832 0.21832 0.0
H228 H 0.78682 0.53875 0.65707 0.0
H229 H 0.76119 0.58799 0.46591 0.0
H230 H 0.75848 0.54498 0.30856 0.0
Co231 Co 0.4474 0.24471 0.43387 0.0
C232 C 0.44273 0.24541 0.26635 0.0
C233 C 0.41517 0.23178 0.32192 0.0
C234 C 0.41232 0.23265 0.24445 0.0
N235 N 0.43427 0.23927 0.33545 0.0
N236 N 0.42974 0.2413 0.20992 0.0
H237 H 0.45817 0.25331 0.25733 0.0
H238 H 0.40401 0.2269 0.365 0.0
C239 C 0.40947 0.20924 0.48273 0.0
O240 O 0.4111 0.19833 0.4302 0.0
N241 N 0.46004 0.25057 0.53171 0.0
C242 C 0.47781 0.25378 0.55002 0.0
C243 C 0.47994 0.25588 0.62867 0.0
C244 C 0.45177 0.25103 0.59803 0.0
N245 N 0.46343 0.25393 0.65829 0.0
C246 C 0.46378 0.22467 0.35573 0.0
C247 C 0.45541 0.19634 0.46401 0.0
C248 C 0.46492 0.19625 0.3963 0.0
C249 C 0.46925 0.21085 0.34241 0.0
C250 C 0.45002 0.21048 0.47481 0.0
N251 N 0.45355 0.22401 0.41943 0.0
H252 H 0.46856 0.23635 0.31566 0.0
H253 H 0.44317 0.21065 0.52804 0.0
H254 H 0.48815 0.25393 0.50952 0.0
H255 H 0.43735 0.249 0.6022 0.0
O256 O 0.47053 0.26579 0.38928 0.0
O257 O 0.44645 0.26853 0.43884 0.0
O258 O 0.4221 0.2272 0.48812 0.0
C259 C 0.46327 0.2768 0.40512 0.0
H260 H 0.3986 0.22796 0.21628 0.0
H261 H 0.49228 0.25782 0.66162 0.0
H262 H 0.45215 0.18561 0.50818 0.0
H263 H 0.47746 0.21205 0.2912 0.0
Co264 Co 0.7891 0.21055 0.43892 0.0
C265 C 0.79486 0.20976 0.27162 0.0
C266 C 0.79369 0.18537 0.32789 0.0
C267 C 0.79451 0.18309 0.24985 0.0
N268 N 0.79424 0.2023 0.34153 0.0
N269 N 0.79526 0.19851 0.2148 0.0
H270 H 0.79342 0.22227 0.26137 0.0
H271 H 0.79197 0.17501 0.37155 0.0
C272 C 0.82265 0.20389 0.47413 0.0
O273 O 0.83031 0.2105 0.40642 0.0
N274 N 0.78362 0.21818 0.53591 0.0
C275 C 0.78156 0.23357 0.55179 0.0
C276 C 0.77992 0.23458 0.63019 0.0
C277 C 0.78291 0.20988 0.60379 0.0
N278 N 0.78083 0.21968 0.66256 0.0
C279 C 0.8057 0.2482 0.37115 0.0
C280 C 0.84038 0.26567 0.44948 0.0
C281 C 0.83711 0.27632 0.39334 0.0
C282 C 0.81934 0.26736 0.35498 0.0
C283 C 0.82631 0.24627 0.46321 0.0
N284 N 0.80953 0.23742 0.42147 0.0
H285 H 0.79182 0.2422 0.34344 0.0
H286 H 0.82884 0.23873 0.50891 0.0
H287 H 0.78185 0.24366 0.50973 0.0
H288 H 0.78479 0.19743 0.6102 0.0
O289 O 0.76763 0.21169 0.39318 0.0
O290 O 0.76545 0.1856 0.44703 0.0
O291 O 0.80706 0.20351 0.49414 0.0
C292 C 0.7569 0.19357 0.41121 0.0
H293 H 0.79398 0.17079 0.22123 0.0
H294 H 0.77855 0.24563 0.66095 0.0
H295 H 0.85366 0.27224 0.48245 0.0
H296 H 0.81574 0.27528 0.31404 0.0
Co297 Co 0.92496 0.48298 0.2197 0.0
C298 C 0.93176 0.4839 0.38667 0.0
C299 C 0.95471 0.5085 0.33045 0.0
C300 C 0.95774 0.51081 0.40858 0.0
N301 N 0.93854 0.49142 0.31672 0.0
N302 N 0.94324 0.49526 0.44363 0.0
H303 H 0.91792 0.47125 0.3968 0.0
H304 H 0.96323 0.51894 0.28682 0.0
C305 C 0.96523 0.48987 0.18297 0.0
O306 O 0.96682 0.48394 0.25139 0.0
N307 N 0.91164 0.47514 0.12307 0.0
C308 C 0.89435 0.45954 0.10712 0.0
C309 C 0.89173 0.45848 0.02865 0.0
C310 C 0.91912 0.4835 0.05513 0.0
N311 N 0.90738 0.47357 0.99626 0.0
C312 C 0.90367 0.4454 0.2882 0.0
C313 C 0.9213 0.42788 0.213 0.0
C314 C 0.90716 0.41728 0.26846 0.0
C315 C 0.89816 0.42627 0.30525 0.0
C316 C 0.92661 0.44723 0.19829 0.0
N317 N 0.91846 0.45612 0.23847 0.0
H318 H 0.89571 0.45145 0.31499 0.0
H319 H 0.93685 0.4547 0.15305 0.0
H320 H 0.88467 0.44932 0.14912 0.0
H321 H 0.93333 0.49611 0.04877 0.0
O322 O 0.90266 0.48228 0.26704 0.0
O323 O 0.92636 0.50792 0.20958 0.0
O324 O 0.94972 0.48972 0.16337 0.0
C325 C 0.91013 0.50031 0.24731 0.0
H326 H 0.96934 0.52324 0.43725 0.0
H327 H 0.87945 0.44728 -0.00213 0.0
H328 H 0.92821 0.42131 0.18126 0.0
H329 H 0.8865 0.4184 0.34566 0.0
Co330 Co 0.55002 0.44894 0.21907 0.0
C331 C 0.54808 0.45229 0.38705 0.0
C332 C 0.52912 0.45996 0.33028 0.0
C333 C 0.52684 0.46073 0.40841 0.0
N334 N 0.54286 0.45515 0.31696 0.0
N335 N 0.53894 0.45602 0.44364 0.0
H336 H 0.55716 0.44609 0.39728 0.0
H337 H 0.52068 0.46197 0.28659 0.0
C338 C 0.54698 0.48427 0.17552 0.0
O339 O 0.55832 0.49428 0.23267 0.0
N340 N 0.55661 0.44246 0.1219 0.0
C341 C 0.57066 0.43825 0.10713 0.0
C342 C 0.5715 0.43618 0.02898 0.0
C343 C 0.54896 0.44269 0.05353 0.0
N344 N 0.55786 0.43905 0.99553 0.0
C345 C 0.58744 0.46682 0.28957 0.0
C346 C 0.60618 0.49794 0.19169 0.0
C347 C 0.61635 0.49653 0.25482 0.0
C348 C 0.60675 0.48047 0.30301 0.0
C349 C 0.58662 0.4839 0.18081 0.0
N350 N 0.57714 0.46913 0.23219 0.0
H351 H 0.58111 0.45396 0.32399 0.0
H352 H 0.57927 0.48481 0.1304 0.0
H353 H 0.57997 0.43731 0.1499 0.0
H354 H 0.53765 0.44628 0.04617 0.0
O355 O 0.55131 0.42761 0.26563 0.0
O356 O 0.52487 0.42552 0.21525 0.0
O357 O 0.54272 0.46674 0.1641 0.0
C358 C 0.53301 0.41696 0.24996 0.0
H359 H 0.51684 0.46412 0.43688 0.0
H360 H 0.58158 0.43315 -0.00082 0.0
H361 H 0.61322 0.50974 0.15123 0.0
H362 H 0.61429 0.47808 0.34958 0.0
Co363 Co 0.5847 0.109 0.22717 0.0
C364 C 0.57917 0.10239 0.39436 0.0
C365 C 0.58129 0.07969 0.33788 0.0
C366 C 0.58056 0.07662 0.4159 0.0
N367 N 0.58011 0.09572 0.32442 0.0
N368 N 0.5792 0.09095 0.45108 0.0
H369 H 0.58001 0.11609 0.40466 0.0
H370 H 0.58334 0.07126 0.2941 0.0
C371 C 0.55149 0.06842 0.19317 0.0
O372 O 0.54421 0.06704 0.26197 0.0
N373 N 0.58964 0.12201 0.13025 0.0
C374 C 0.5913 0.1393 0.11449 0.0
C375 C 0.59282 0.14191 0.03607 0.0
C376 C 0.59048 0.11451 0.0623 0.0
N377 N 0.59226 0.12626 0.0036 0.0
C378 C 0.5685 0.13028 0.29617 0.0
C379 C 0.53279 0.11192 0.22562 0.0
C380 C 0.53661 0.12631 0.2805 0.0
C381 C 0.55491 0.13571 0.31468 0.0
C382 C 0.54688 0.10676 0.20913 0.0
N383 N 0.56423 0.11529 0.24711 0.0
H384 H 0.58264 0.13842 0.32169 0.0
H385 H 0.54385 0.09628 0.16453 0.0
H386 H 0.59087 0.14903 0.15664 0.0
H387 H 0.58896 0.10032 0.05582 0.0
O388 O 0.60627 0.13173 0.27183 0.0
O389 O 0.60847 0.10793 0.21683 0.0
O390 O 0.56667 0.08393 0.17236 0.0
C391 C 0.61706 0.12449 0.25252 0.0
H392 H 0.58152 0.06509 0.44441 0.0
H393 H 0.59393 0.15421 0.00538 0.0
H394 H 0.51904 0.10468 0.19583 0.0
H395 H 0.55894 0.14756 0.35447 0.0
Co396 Co 0.49023 0.91847 0.77782 0.0
C397 C 0.49182 0.92514 0.61047 0.0
C398 C 0.51609 0.94823 0.66785 0.0
C399 C 0.51866 0.95127 0.58981 0.0
N400 N 0.49904 0.93198 0.68079 0.0
N401 N 0.50332 0.93668 0.554 0.0
H402 H 0.47928 0.91125 0.59984 0.0
H403 H 0.52632 0.95684 0.71201 0.0
C404 C 0.497 0.95877 0.81292 0.0
O405 O 0.49106 0.96011 0.74417 0.0
N406 N 0.48202 0.90521 0.8744 0.0
C407 C 0.46651 0.8878 0.88937 0.0
C408 C 0.46518 0.88505 0.96776 0.0
C409 C 0.49006 0.91267 0.94289 0.0
N410 N 0.48001 0.90076 0.00115 0.0
C411 C 0.45293 0.89735 0.70687 0.0
C412 C 0.43521 0.91499 0.78053 0.0
C413 C 0.42484 0.90096 0.7243 0.0
C414 C 0.43391 0.89195 0.68833 0.0
C415 C 0.45448 0.92021 0.79669 0.0
N416 N 0.46348 0.91207 0.75721 0.0
H417 H 0.45902 0.88935 0.68077 0.0
H418 H 0.46178 0.93038 0.84241 0.0
H419 H 0.45657 0.87807 0.84668 0.0
H420 H 0.50257 0.92692 0.95002 0.0
O421 O 0.48956 0.89608 0.7314 0.0
O422 O 0.51508 0.91974 0.78976 0.0
O423 O 0.49691 0.94335 0.83347 0.0
C424 C 0.50751 0.90348 0.75208 0.0
H425 H 0.53111 0.96298 0.56178 0.0
H426 H 0.454 0.87261 -0.00223 0.0
H427 H 0.42854 0.92187 0.81171 0.0
H428 H 0.42619 0.88035 0.64739 0.0
Co429 Co 0.1162 0.57893 0.77357 0.0
C430 C 0.11078 0.57573 0.60633 0.0
C431 C 0.08652 0.57466 0.6633 0.0
C432 C 0.08418 0.57558 0.58539 0.0
N433 N 0.10306 0.57439 0.67622 0.0
N434 N 0.09961 0.57646 0.55011 0.0
H435 H 0.12482 0.57741 0.59633 0.0
H436 H 0.07741 0.57539 0.70758 0.0
C437 C 0.07578 0.54555 0.80796 0.0
O438 O 0.07461 0.53786 0.74016 0.0
N439 N 0.12899 0.5839 0.87071 0.0
C440 C 0.14582 0.58483 0.88896 0.0
C441 C 0.14809 0.5868 0.96753 0.0
C442 C 0.12144 0.58559 0.93698 0.0
N443 N 0.13262 0.58711 0.99738 0.0
C444 C 0.13648 0.56174 0.70372 0.0
C445 C 0.11903 0.52706 0.78201 0.0
C446 C 0.13267 0.53008 0.72494 0.0
C447 C 0.1416 0.54783 0.6866 0.0
C448 C 0.11408 0.54138 0.79666 0.0
N449 N 0.12212 0.55817 0.75497 0.0
H450 H 0.14458 0.57563 0.67647 0.0
H451 H 0.10422 0.53906 0.84302 0.0
H452 H 0.15538 0.5835 0.84858 0.0
H453 H 0.10778 0.58535 0.94065 0.0
O454 O 0.13916 0.60025 0.7292 0.0
O455 O 0.11545 0.60289 0.7826 0.0
O456 O 0.09103 0.56113 0.82789 0.0
C457 C 0.13206 0.61124 0.74732 0.0
H458 H 0.07275 0.57683 0.55738 0.0
H459 H 0.15977 0.5871 0.0002 0.0
H460 H 0.11228 0.51379 0.81502 0.0
H461 H 0.15295 0.55124 0.64504 0.0
Co462 Co 0.45616 0.54496 0.76719 0.0
C463 C 0.46039 0.54353 0.5994 0.0
C464 C 0.46504 0.52247 0.65639 0.0
C465 C 0.46586 0.52018 0.57831 0.0
N466 N 0.46202 0.53743 0.66955 0.0
N467 N 0.463 0.53355 0.54288 0.0
H468 H 0.45582 0.55394 0.58898 0.0
H469 H 0.46576 0.51328 0.70024 0.0
C470 C 0.49072 0.54037 0.80891 0.0
O471 O 0.50065 0.55088 0.74993 0.0
N472 N 0.45008 0.55195 0.86436 0.0
C473 C 0.44651 0.56644 0.87925 0.0
C474 C 0.44468 0.56747 0.95747 0.0
C475 C 0.45014 0.54422 0.93276 0.0
N476 N 0.44703 0.5535 0.99085 0.0
C477 C 0.47364 0.58251 0.69855 0.0
C478 C 0.50646 0.60059 0.78823 0.0
C479 C 0.50429 0.611 0.72776 0.0
C480 C 0.48735 0.60173 0.68399 0.0
C481 C 0.49225 0.58116 0.80068 0.0
N482 N 0.4766 0.57196 0.75297 0.0
H483 H 0.46028 0.57642 0.66716 0.0
H484 H 0.49376 0.57373 0.84953 0.0
H485 H 0.44588 0.57593 0.83652 0.0
H486 H 0.45325 0.53259 0.94006 0.0
O487 O 0.43497 0.5465 0.72072 0.0
O488 O 0.43248 0.51998 0.77181 0.0
O489 O 0.47367 0.5373 0.82212 0.0
C490 C 0.42412 0.52826 0.73677 0.0
H491 H 0.46792 0.50927 0.55 0.0
H492 H 0.44216 0.5779 0.98738 0.0
H493 H 0.51897 0.60735 0.82554 0.0
H494 H 0.48435 0.60944 0.63996 0.0
Co495 Co 0.59467 0.81879 0.57192 0.0
C496 C 0.59976 0.82384 0.73971 0.0
C497 C 0.62711 0.83874 0.68285 0.0
C498 C 0.63011 0.84222 0.7605 0.0
N499 N 0.60807 0.82668 0.66994 0.0
N500 N 0.61281 0.83284 0.7959 0.0
H501 H 0.58437 0.81591 0.74946 0.0
H502 H 0.63809 0.84541 0.63921 0.0
C503 C 0.63269 0.82135 0.52334 0.0
O504 O 0.6314 0.80934 0.57756 0.0
N505 N 0.58173 0.81171 0.47451 0.0
C506 C 0.56388 0.79715 0.45729 0.0
C507 C 0.5615 0.79679 0.37869 0.0
C508 C 0.58983 0.8201 0.40743 0.0
N509 N 0.57796 0.81116 0.34783 0.0
C510 C 0.57741 0.78228 0.64952 0.0
C511 C 0.58683 0.76238 0.54465 0.0
C512 C 0.57656 0.7527 0.61103 0.0
C513 C 0.5717 0.76295 0.6631 0.0
C514 C 0.59235 0.78193 0.5334 0.0
N515 N 0.58837 0.79192 0.58735 0.0
H516 H 0.57217 0.78914 0.68786 0.0
H517 H 0.5996 0.78891 0.48074 0.0
H518 H 0.55363 0.78718 0.49853 0.0
H519 H 0.60428 0.83241 0.40228 0.0
O520 O 0.57188 0.81715 0.61842 0.0
O521 O 0.59574 0.84359 0.56536 0.0
O522 O 0.61978 0.82628 0.51659 0.0
C523 C 0.57922 0.83535 0.60126 0.0
H524 H 0.64383 0.85151 0.78827 0.0
H525 H 0.549 0.78632 0.34664 0.0
H526 H 0.59052 0.75496 0.50167 0.0
H527 H 0.56286 0.75591 0.71292 0.0
Co528 Co 0.21831 0.78265 0.55237 0.0
C529 C 0.21705 0.78795 0.71989 0.0
C530 C 0.19314 0.78754 0.66261 0.0
C531 C 0.19064 0.78815 0.74061 0.0
N532 N 0.20992 0.78777 0.6496 0.0
N533 N 0.20575 0.78842 0.77636 0.0
H534 H 0.22932 0.78614 0.73049 0.0
H535 H 0.18299 0.78616 0.61853 0.0
C536 C 0.21158 0.81616 0.51527 0.0
O537 O 0.21795 0.82401 0.58298 0.0
N538 N 0.22609 0.7772 0.45556 0.0
C539 C 0.24148 0.77508 0.44045 0.0
C540 C 0.24274 0.77358 0.36209 0.0
C541 C 0.21805 0.77666 0.38715 0.0
N542 N 0.22802 0.77465 0.32883 0.0
C543 C 0.25578 0.79934 0.6217 0.0
C544 C 0.27336 0.83407 0.54384 0.0
C545 C 0.28385 0.83085 0.60086 0.0
C546 C 0.27484 0.81306 0.63895 0.0
C547 C 0.25403 0.81994 0.52911 0.0
N548 N 0.24512 0.80313 0.5706 0.0
H549 H 0.24978 0.78544 0.64921 0.0
H550 H 0.24658 0.82244 0.48294 0.0
H551 H 0.25141 0.77524 0.48305 0.0
H552 H 0.20566 0.77859 0.38011 0.0
O553 O 0.21945 0.7612 0.5984 0.0
O554 O 0.1934 0.75896 0.54378 0.0
O555 O 0.21131 0.80055 0.49648 0.0
C556 C 0.20136 0.75044 0.58003 0.0
H557 H 0.17837 0.78781 0.76866 0.0
H558 H 0.25385 0.77219 0.33202 0.0
H559 H 0.28 0.84738 0.51106 0.0
H560 H 0.28266 0.8095 0.68057 0.0
Co561 Co 0.25176 0.44255 0.55535 0.0
C562 C 0.24679 0.43609 0.72296 0.0
C563 C 0.24742 0.41271 0.66543 0.0
C564 C 0.24683 0.40958 0.74338 0.0
N565 N 0.24704 0.4292 0.65264 0.0
N566 N 0.24641 0.42434 0.77926 0.0
H567 H 0.24843 0.4501 0.73376 0.0
H568 H 0.24882 0.40397 0.6212 0.0
C569 C 0.2181 0.40237 0.52086 0.0
O570 O 0.2106 0.40137 0.58892 0.0
N571 N 0.25684 0.45563 0.45846 0.0
C572 C 0.25895 0.47313 0.44346 0.0
C573 C 0.26039 0.47587 0.36512 0.0
C574 C 0.2573 0.44809 0.39004 0.0
N575 N 0.25929 0.46005 0.33182 0.0
C576 C 0.23517 0.46336 0.62572 0.0
C577 C 0.20028 0.44605 0.54882 0.0
C578 C 0.20357 0.4598 0.60585 0.0
C579 C 0.22144 0.46867 0.64344 0.0
C580 C 0.21445 0.44093 0.53351 0.0
N581 N 0.23132 0.44887 0.57464 0.0
H582 H 0.24913 0.47131 0.65278 0.0
H583 H 0.2119 0.431 0.48713 0.0
H584 H 0.25889 0.48295 0.48615 0.0
H585 H 0.25539 0.43376 0.38295 0.0
O586 O 0.27337 0.46523 0.60031 0.0
O587 O 0.27541 0.44132 0.54525 0.0
O588 O 0.23368 0.41753 0.50052 0.0
C589 C 0.28407 0.45787 0.58102 0.0
H590 H 0.24723 0.39767 0.77131 0.0
H591 H 0.26182 0.48838 0.33508 0.0
H592 H 0.18692 0.43931 0.51637 0.0
H593 H 0.22505 0.48009 0.68497 0.0
H594 H 0.13771 0.21048 0.45066 0.0
H595 H 0.18296 0.29488 0.76565 0.0
H596 H 0.16752 0.27144 0.39644 0.0
H597 H 0.15392 0.23398 0.82004 0.0
H598 H 0.17861 0.28659 0.62916 0.0
H599 H 0.14423 0.21876 0.58651 0.0
C600 C 0.14559 0.22558 0.46718 0.0
C601 C 0.15205 0.24025 0.41183 0.0
C602 C 0.1732 0.27505 0.67106 0.0
C603 C 0.15968 0.24986 0.56698 0.0
C604 C 0.17577 0.27979 0.74884 0.0
C605 C 0.16857 0.26512 0.80422 0.0
C606 C 0.16342 0.25549 0.64871 0.0
C607 C 0.15927 0.24577 0.77943 0.0
C608 C 0.1494 0.23031 0.54469 0.0
C609 C 0.16244 0.2596 0.4366 0.0
N610 N 0.15691 0.24152 0.70355 0.0
N611 N 0.16587 0.26383 0.51227 0.0
H612 H 0.81627 0.91131 0.44204 0.0
H613 H 0.74657 0.91403 0.76642 0.0
H614 H 0.77278 0.92713 0.39662 0.0
H615 H 0.79028 0.8983 0.80719 0.0
H616 H 0.75555 0.91872 0.63042 0.0
H617 H 0.80723 0.90721 0.57693 0.0
C618 C 0.80497 0.91414 0.46046 0.0
C619 C 0.79525 0.91953 0.40769 0.0
C620 C 0.76316 0.91424 0.66926 0.0
C621 C 0.78454 0.91451 0.56226 0.0
C622 C 0.75794 0.91143 0.74667 0.0
C623 C 0.76781 0.90593 0.79821 0.0
C624 C 0.77828 0.91143 0.64346 0.0
C625 C 0.78255 0.90291 0.76973 0.0
C626 C 0.79967 0.91162 0.53753 0.0
C627 C 0.78047 0.92268 0.435 0.0
N628 N 0.78735 0.90573 0.69444 0.0
N629 N 0.77554 0.92008 0.51037 0.0
H630 H 0.11227 0.83515 0.76337 0.0
H631 H 0.12513 0.91135 0.43725 0.0
H632 H 0.13928 0.89676 0.80113 0.0
H633 H 0.10399 0.85083 0.39219 0.0
H634 H 0.12889 0.90589 0.5723 0.0
H635 H 0.10845 0.84032 0.62785 0.0
C636 C 0.11756 0.84977 0.74322 0.0
C637 C 0.126 0.86553 0.7941 0.0
C638 C 0.1234 0.89379 0.53289 0.0
C639 C 0.1214 0.87152 0.63908 0.0
C640 C 0.12109 0.89687 0.4558 0.0
C641 C 0.11426 0.88154 0.4031 0.0
C642 C 0.11879 0.87521 0.55775 0.0
C643 C 0.10954 0.86313 0.4305 0.0
C644 C 0.11525 0.8527 0.66585 0.0
C645 C 0.13237 0.88413 0.76453 0.0
N646 N 0.11189 0.86048 0.50585 0.0
N647 N 0.12987 0.88659 0.68921 0.0
H648 H 0.2253 0.11701 0.55774 0.0
H649 H 0.29455 0.18934 0.23273 0.0
H650 H 0.26892 0.17627 0.60293 0.0
H651 H 0.25196 0.12945 0.19309 0.0
H652 H 0.28563 0.18511 0.36867 0.0
H653 H 0.23442 0.12178 0.42285 0.0
C654 C 0.23665 0.13109 0.53925 0.0
C655 C 0.24638 0.14624 0.59191 0.0
C656 C 0.27826 0.1729 0.33012 0.0
C657 C 0.25716 0.15175 0.43743 0.0
C658 C 0.28345 0.17529 0.2527 0.0
C659 C 0.27387 0.15977 0.20144 0.0
C660 C 0.26344 0.15487 0.35625 0.0
C661 C 0.25946 0.1419 0.23029 0.0
C662 C 0.24199 0.13378 0.46221 0.0
C663 C 0.26122 0.16411 0.56459 0.0
N664 N 0.25466 0.13996 0.3056 0.0
N665 N 0.26618 0.16636 0.48925 0.0
H666 H 0.92055 0.12013 0.54821 0.0
H667 H 0.84377 0.10529 0.2217 0.0
H668 H 0.85976 0.09737 0.59274 0.0
H669 H 0.90542 0.13326 0.18437 0.0
H670 H 0.84906 0.10177 0.3574 0.0
H671 H 0.91492 0.12367 0.41323 0.0
C672 C 0.90598 0.11569 0.52953 0.0
C673 C 0.89062 0.10847 0.582 0.0
C674 C 0.86143 0.10871 0.31945 0.0
C675 C 0.88409 0.11274 0.42753 0.0
C676 C 0.85842 0.11085 0.24204 0.0
C677 C 0.87416 0.11946 0.19131 0.0
C678 C 0.8803 0.11521 0.3463 0.0
C679 C 0.89282 0.1262 0.22096 0.0
C680 C 0.9028 0.11787 0.4525 0.0
C681 C 0.87208 0.10323 0.55453 0.0
N682 N 0.89535 0.12387 0.29631 0.0
N683 N 0.86933 0.10547 0.47922 0.0
H684 H 0.89773 0.77594 0.19228 0.0
H685 H 0.93662 0.76724 0.60454 0.0
H686 H 0.92728 0.74386 0.23236 0.0
H687 H 0.91255 0.80401 0.55695 0.0
H688 H 0.93249 0.75765 0.46972 0.0
H689 H 0.9019 0.78524 0.32705 0.0
C690 C 0.90513 0.77086 0.22938 0.0
C691 C 0.91232 0.75923 0.20059 0.0
C692 C 0.92818 0.76788 0.4887 0.0
C693 C 0.91702 0.76973 0.35567 0.0
C694 C 0.93048 0.77332 0.56575 0.0
C695 C 0.92487 0.78642 0.59228 0.0
C696 C 0.92012 0.77551 0.43765 0.0
C697 C 0.91726 0.79405 0.53907 0.0
C698 C 0.90747 0.77615 0.30649 0.0
C699 C 0.9214 0.75273 0.25196 0.0
N700 N 0.91502 0.78841 0.46444 0.0
N701 N 0.92355 0.75814 0.32695 0.0
H702 H 0.80068 0.58216 0.13935 0.0
H703 H 0.84785 0.5899 0.7269 0.0
H704 H 0.86228 0.61319 0.09912 0.0
H705 H 0.78692 0.55407 0.77474 0.0
H706 H 0.85347 0.59952 0.86166 0.0
H707 H 0.79539 0.57294 0.00452 0.0
C708 C 0.81312 0.58702 0.10218 0.0
C709 C 0.83198 0.59833 0.13095 0.0
C710 C 0.83888 0.5895 0.84275 0.0
C711 C 0.82599 0.58792 0.97582 0.0
C712 C 0.83565 0.58404 0.76573 0.0
C713 C 0.81686 0.57119 0.7393 0.0
C714 C 0.82321 0.58213 0.89385 0.0
C715 C 0.80165 0.56383 0.79256 0.0
C716 C 0.81008 0.58178 0.02505 0.0
C717 C 0.84751 0.60457 0.07953 0.0
N718 N 0.80515 0.56949 0.86715 0.0
N719 N 0.84417 0.59922 0.0045 0.0
H720 H 0.4627 0.26992 0.14567 0.0
H721 H 0.42766 0.2327 0.71927 0.0
H722 H 0.40645 0.22159 0.09037 0.0
H723 H 0.48713 0.27276 0.77815 0.0
H724 H 0.41875 0.23124 0.85349 0.0
H725 H 0.47088 0.27395 0.00983 0.0
C726 C 0.45206 0.26012 0.10504 0.0
C727 C 0.43394 0.24516 0.12961 0.0
C728 C 0.43375 0.2404 0.83718 0.0
C729 C 0.44317 0.24991 0.97388 0.0
C730 C 0.43884 0.24136 0.76044 0.0
C731 C 0.45818 0.253 0.73757 0.0
C732 C 0.44807 0.25119 0.89164 0.0
C733 C 0.4721 0.26354 0.79363 0.0
C734 C 0.45673 0.2625 0.02743 0.0
C735 C 0.42054 0.23332 0.07403 0.0
N736 N 0.46677 0.26242 0.86828 0.0
N737 N 0.42547 0.23587 -0.00129 0.0
H738 H 0.77005 0.18516 0.73036 0.0
H739 H 0.80892 0.2329 0.1424 0.0
H740 H 0.79413 0.24601 0.77818 0.0
H741 H 0.77941 0.17127 0.10231 0.0
H742 H 0.80485 0.23798 0.00757 0.0
H743 H 0.77423 0.17974 0.86509 0.0
C744 C 0.7762 0.19738 0.76922 0.0
C745 C 0.7818 0.21609 0.74286 0.0
C746 C 0.79927 0.22334 0.02813 0.0
C747 C 0.78661 0.20999 0.89719 0.0
C748 C 0.80155 0.22042 0.10522 0.0
C749 C 0.79433 0.20161 0.13396 0.0
C750 C 0.78973 0.20734 0.979 0.0
C751 C 0.7853 0.18601 0.08264 0.0
C752 C 0.77853 0.19427 0.84617 0.0
C753 C 0.78942 0.23134 0.79602 0.0
N754 N 0.78319 0.18922 0.00765 0.0
N755 N 0.79169 0.22796 0.87055 0.0
H756 H 0.93083 0.50819 0.92848 0.0
H757 H 0.92273 0.46081 0.51599 0.0
H758 H 0.89468 0.44728 0.8803 0.0
H759 H 0.95422 0.52243 0.55641 0.0
H760 H 0.91351 0.4556 0.65074 0.0
H761 H 0.94046 0.51375 0.79378 0.0
C762 C 0.9249 0.49598 0.88958 0.0
C763 C 0.91196 0.47722 0.9159 0.0
C764 C 0.92245 0.47028 0.63028 0.0
C765 C 0.92292 0.48349 0.76145 0.0
C766 C 0.9277 0.47327 0.55319 0.0
C767 C 0.93913 0.49211 0.52451 0.0
C768 C 0.92871 0.48623 0.67954 0.0
C769 C 0.9455 0.50767 0.57596 0.0
C770 C 0.93037 0.49918 0.81261 0.0
C771 C 0.90452 0.462 0.86258 0.0
N772 N 0.94013 0.50438 0.65095 0.0
N773 N 0.91018 0.46546 0.78804 0.0
H774 H 0.58388 0.44798 0.88045 0.0
H775 H 0.51209 0.4466 0.55636 0.0
H776 H 0.52488 0.43321 0.92606 0.0
H777 H 0.57117 0.46117 0.51525 0.0
H778 H 0.51628 0.44183 0.69234 0.0
H779 H 0.57904 0.45215 0.74554 0.0
C780 C 0.56983 0.4454 0.86206 0.0
C781 C 0.55479 0.44029 0.91488 0.0
C782 C 0.52831 0.44607 0.65343 0.0
C783 C 0.54922 0.44539 0.76032 0.0
C784 C 0.52595 0.44892 0.57602 0.0
C785 C 0.54125 0.45413 0.52439 0.0
C786 C 0.5461 0.44852 0.67913 0.0
C787 C 0.55888 0.4568 0.55277 0.0
C788 C 0.56712 0.44796 0.78499 0.0
C789 C 0.53698 0.43745 0.88763 0.0
N790 N 0.56081 0.45394 0.62807 0.0
N791 N 0.53469 0.44008 0.81225 0.0
H792 H 0.56446 0.11076 0.52357 0.0
H793 H 0.60395 0.10321 0.9358 0.0
H794 H 0.59567 0.08032 0.56356 0.0
H795 H 0.57845 0.13871 0.88799 0.0
H796 H 0.6001 0.09366 0.801 0.0
H797 H 0.56816 0.11982 0.65851 0.0
C798 C 0.57212 0.10599 0.56074 0.0
C799 C 0.57993 0.09491 0.53195 0.0
C800 C 0.59541 0.10359 0.81993 0.0
C801 C 0.58411 0.10515 0.68702 0.0
C802 C 0.59755 0.10901 0.89692 0.0
C803 C 0.59145 0.12174 0.92329 0.0
C804 C 0.58702 0.11088 0.76889 0.0
C805 C 0.58353 0.12904 0.87012 0.0
C806 C 0.57419 0.11115 0.6379 0.0
C807 C 0.58932 0.08877 0.58327 0.0
N808 N 0.58146 0.12343 0.79554 0.0
N809 N 0.59122 0.09405 0.65831 0.0
H810 H 0.53081 0.94846 0.4423 0.0
H811 H 0.45346 0.88715 0.11598 0.0
H812 H 0.46913 0.9156 0.47995 0.0
H813 H 0.51432 0.92452 0.0709 0.0
H814 H 0.45928 0.8963 0.25105 0.0
H815 H 0.52535 0.93954 0.30658 0.0
C816 C 0.51612 0.93953 0.42205 0.0
C817 C 0.50042 0.93267 0.47291 0.0
C818 C 0.47138 0.90249 0.21164 0.0
C819 C 0.49408 0.92216 0.31784 0.0
C820 C 0.46808 0.89713 0.13453 0.0
C821 C 0.48341 0.9051 0.08183 0.0
C822 C 0.49017 0.91589 0.2365 0.0
C823 C 0.50203 0.91821 0.10923 0.0
C824 C 0.51302 0.93432 0.34462 0.0
C825 C 0.48171 0.92094 0.44332 0.0
N826 N 0.50488 0.9232 0.1846 0.0
N827 N 0.47908 0.91601 0.36797 0.0
H828 H 0.13558 0.59636 0.48865 0.0
H829 H 0.09673 0.57294 0.05877 0.0
H830 H 0.07499 0.56445 0.42923 0.0
H831 H 0.1573 0.60072 0.11863 0.0
H832 H 0.08865 0.57193 0.19326 0.0
H833 H 0.14383 0.60012 0.35311 0.0
C834 C 0.12399 0.59001 0.44704 0.0
C835 C 0.10454 0.57975 0.47021 0.0
C836 C 0.10372 0.57831 0.17708 0.0
C837 C 0.11392 0.58431 0.31469 0.0
C838 C 0.1084 0.57901 0.09994 0.0
C839 C 0.12779 0.58694 0.07698 0.0
C840 C 0.1185 0.5856 0.23206 0.0
C841 C 0.14217 0.59428 0.13368 0.0
C842 C 0.12872 0.5923 0.36957 0.0
C843 C 0.09014 0.57244 0.41369 0.0
N844 N 0.13723 0.59341 0.20871 0.0
N845 N 0.09512 0.57476 0.33838 0.0
H846 H 0.45139 0.50622 0.43069 0.0
H847 H 0.45732 0.57986 0.10566 0.0
H848 H 0.47091 0.56664 0.47034 0.0
H849 H 0.43981 0.5201 0.0605 0.0
H850 H 0.46136 0.57483 0.2406 0.0
H851 H 0.44697 0.51074 0.29482 0.0
C852 C 0.45489 0.52045 0.41075 0.0
C853 C 0.46138 0.53604 0.46202 0.0
C854 C 0.4566 0.56279 0.20123 0.0
C855 C 0.45615 0.54128 0.30722 0.0
C856 C 0.45412 0.56562 0.12417 0.0
C857 C 0.44826 0.5504 0.07149 0.0
C858 C 0.45318 0.54458 0.22602 0.0
C859 C 0.44462 0.53232 0.09884 0.0
C860 C 0.45223 0.523 0.33335 0.0
C861 C 0.46553 0.55414 0.43316 0.0
N862 N 0.44717 0.52992 0.17419 0.0
N863 N 0.46279 0.55624 0.35786 0.0
H864 H 0.55366 0.80562 0.22939 0.0
H865 H 0.63682 0.83722 0.91399 0.0
H866 H 0.61348 0.82568 0.28409 0.0
H867 H 0.57947 0.82687 0.86279 0.0
H868 H 0.62858 0.83307 0.05021 0.0
H869 H 0.56257 0.81253 0.09385 0.0
C870 C 0.56863 0.81145 0.21282 0.0
C871 C 0.58284 0.81518 0.26802 0.0
C872 C 0.61783 0.83179 0.0091 0.0
C873 C 0.59318 0.82316 0.1137 0.0
C874 C 0.62258 0.83428 0.93136 0.0
C875 C 0.60876 0.83214 0.87667 0.0
C876 C 0.5991 0.82707 0.03227 0.0
C877 C 0.59045 0.82815 0.90255 0.0
C878 C 0.57375 0.81552 0.13568 0.0
C879 C 0.60209 0.82289 0.24367 0.0
N880 N 0.58611 0.82561 0.97839 0.0
N881 N 0.60668 0.82655 0.16835 0.0
H882 H 0.25466 0.78732 0.2144 0.0
H883 H 0.17816 0.77331 0.88777 0.0
H884 H 0.19391 0.76482 0.2588 0.0
H885 H 0.23977 0.80068 0.85057 0.0
H886 H 0.18335 0.76962 0.02345 0.0
H887 H 0.2491 0.79098 0.07949 0.0
C888 C 0.24011 0.78295 0.19573 0.0
C889 C 0.22474 0.77577 0.2482 0.0
C890 C 0.19573 0.77647 0.98553 0.0
C891 C 0.21829 0.7802 0.09369 0.0
C892 C 0.19278 0.77871 0.90812 0.0
C893 C 0.20854 0.7872 0.85742 0.0
C894 C 0.21456 0.78276 0.01242 0.0
C895 C 0.22716 0.79372 0.88711 0.0
C896 C 0.23697 0.78521 0.11871 0.0
C897 C 0.20623 0.77065 0.22065 0.0
N898 N 0.22963 0.7913 0.96245 0.0
N899 N 0.20353 0.77297 0.14534 0.0
H900 H 0.26168 0.41206 0.89074 0.0
H901 H 0.24651 0.47387 0.21734 0.0
H902 H 0.23362 0.44568 0.85335 0.0
H903 H 0.26948 0.43601 0.262 0.0
H904 H 0.24304 0.46472 0.08232 0.0
H905 H 0.26514 0.42086 0.02656 0.0
C906 C 0.25609 0.42113 0.9111 0.0
C907 C 0.24747 0.42826 0.86034 0.0
C908 C 0.24887 0.45841 0.12162 0.0
C909 C 0.25165 0.43862 0.0154 0.0
C910 C 0.25102 0.46379 0.19868 0.0
C911 C 0.25827 0.45568 0.25121 0.0
C912 C 0.25407 0.44488 0.09668 0.0
C913 C 0.26359 0.44243 0.22375 0.0
C914 C 0.25819 0.42627 0.98856 0.0
C915 C 0.24069 0.44015 0.88998 0.0
N916 N 0.26138 0.43743 0.14841 0.0
N917 N 0.24299 0.44501 0.96536 0.0
H918 H 0.19177 0.36429 0.55098 0.0
H919 H 0.17573 0.33103 0.1107 0.0
H920 H 0.22207 0.40342 0.36472 0.0
H921 H 0.16431 0.29151 0.29799 0.0
H922 H 0.18809 0.3579 0.20295 0.0
H923 H 0.17691 0.33752 0.45857 0.0
C924 C 0.1952 0.36728 0.49069 0.0
C925 C 0.20829 0.38611 0.46569 0.0
C926 C 0.18282 0.34332 0.22376 0.0
C927 C 0.19122 0.3556 0.35965 0.0
C928 C 0.17569 0.32799 0.17122 0.0
C929 C 0.16914 0.30902 0.19667 0.0
C930 C 0.18308 0.33962 0.30242 0.0
C931 C 0.16946 0.30593 0.27581 0.0
C932 C 0.18678 0.35199 0.43805 0.0
C933 C 0.21222 0.38911 0.38675 0.0
N934 N 0.17627 0.32103 0.32584 0.0
N935 N 0.2037 0.37405 0.3366 0.0
H936 H 0.71895 0.83761 0.18065 0.0
H937 H 0.6469 0.85467 0.44008 0.0
H938 H 0.7297 0.89479 0.23805 0.0
H939 H 0.6558 0.80634 0.48117 0.0
H940 H 0.67366 0.86769 0.34824 0.0
H941 H 0.69211 0.82391 0.27342 0.0
C942 C 0.71559 0.84726 0.21232 0.0
C943 C 0.72657 0.86738 0.20155 0.0
C944 C 0.66978 0.85426 0.37751 0.0
C945 C 0.69586 0.8518 0.3067 0.0
C946 C 0.65449 0.84679 0.42981 0.0
C947 C 0.64918 0.82944 0.46881 0.0
C948 C 0.67962 0.84413 0.36252 0.0
C949 C 0.65953 0.81985 0.45295 0.0
C950 C 0.70039 0.83944 0.26548 0.0
C951 C 0.72167 0.87921 0.24461 0.0
N952 N 0.67417 0.82723 0.40049 0.0
N953 N 0.7066 0.87125 0.2947 0.0
H954 H 0.20919 0.81166 0.35937 0.0
H955 H 0.15242 0.86881 0.29177 0.0
H956 H 0.19895 0.84204 0.5417 0.0
H957 H 0.18137 0.85692 0.10864 0.0
H958 H 0.1673 0.85716 0.38435 0.0
H959 H 0.19704 0.82607 0.26694 0.0
C960 C 0.20438 0.82137 0.38006 0.0
C961 C 0.20501 0.82557 0.45862 0.0
C962 C 0.1705 0.85722 0.32398 0.0
C963 C 0.19094 0.84205 0.35273 0.0
C964 C 0.16194 0.86379 0.27096 0.0
C965 C 0.16559 0.86378 0.19211 0.0
C966 C 0.18256 0.85025 0.29813 0.0
C967 C 0.17819 0.85724 0.16878 0.0
C968 C 0.19754 0.82967 0.32709 0.0
C969 C 0.19876 0.83842 0.48176 0.0
N970 N 0.18605 0.85055 0.22143 0.0
N971 N 0.19181 0.84605 0.42919 0.0
H972 H 0.39467 0.22841 0.56229 0.0
H973 H 0.32263 0.14017 0.82484 0.0
H974 H 0.38665 0.17129 0.52713 0.0
H975 H 0.31155 0.18602 0.76139 0.0
H976 H 0.3497 0.15308 0.73317 0.0
H977 H 0.36771 0.21484 0.65317 0.0
C978 C 0.38724 0.213 0.57365 0.0
C979 C 0.39285 0.20094 0.53658 0.0
C980 C 0.3413 0.16026 0.73954 0.0
C981 C 0.36217 0.18539 0.64179 0.0
C982 C 0.32595 0.15299 0.79206 0.0
C983 C 0.31482 0.16203 0.80079 0.0
C984 C 0.3458 0.17693 0.69695 0.0
C985 C 0.31969 0.17854 0.75639 0.0
C986 C 0.37183 0.20527 0.6254 0.0
C987 C 0.38267 0.18107 0.55382 0.0
N988 N 0.33489 0.18554 0.70698 0.0
N989 N 0.36792 0.17392 0.6057 0.0
H990 H 0.86494 0.17444 0.88287 0.0
H991 H 0.8486 0.19166 0.44358 0.0
H992 H 0.87468 0.14496 0.69554 0.0
H993 H 0.81853 0.20076 0.63023 0.0
H994 H 0.86307 0.17926 0.53554 0.0
H995 H 0.85263 0.18901 0.79102 0.0
C996 C 0.86462 0.17113 0.82245 0.0
C997 C 0.87074 0.15836 0.79698 0.0
C998 C 0.85333 0.18403 0.55624 0.0
C999 C 0.85685 0.17512 0.69161 0.0
C1000 C 0.84514 0.19118 0.50387 0.0
C1001 C 0.83224 0.19715 0.52911 0.0
C1002 C 0.84887 0.18317 0.63463 0.0
C1003 C 0.82824 0.19614 0.60803 0.0
C1004 C 0.85751 0.17938 0.77015 0.0
C1005 C 0.86994 0.15457 0.71791 0.0
N1006 N 0.83657 0.18936 0.65793 0.0
N1007 N 0.8632 0.16295 0.6681 0.0
H1008 H 0.88784 0.73577 0.702 0.0
H1009 H 0.8311 0.62197 0.62895 0.0
H1010 H 0.85823 0.69445 0.88272 0.0
H1011 H 0.84302 0.66326 0.44786 0.0
H1012 H 0.84285 0.64826 0.72269 0.0
H1013 H 0.87348 0.70948 0.60815 0.0
C1014 C 0.87829 0.72116 0.72203 0.0
C1015 C 0.8743 0.71732 0.80058 0.0
C1016 C 0.8428 0.65156 0.66251 0.0
C1017 C 0.8579 0.68708 0.69306 0.0
C1018 C 0.83617 0.63657 0.6088 0.0
C1019 C 0.83613 0.6404 0.53019 0.0
C1020 C 0.84976 0.67065 0.63762 0.0
C1021 C 0.84274 0.65962 0.50779 0.0
C1022 C 0.87003 0.70617 0.66827 0.0
C1023 C 0.86168 0.6981 0.82285 0.0
N1024 N 0.84945 0.67404 0.56111 0.0
N1025 N 0.85408 0.68368 0.76949 0.0
H1026 H 0.96341 0.49246 0.02692 0.0
H1027 H 0.07753 0.54874 0.96392 0.0
H1028 H 1.00363 0.50245 0.21042 0.0
H1029 H 0.03724 0.52051 0.7788 0.0
H1030 H 0.0507 0.53408 0.05528 0.0
H1031 H 0.99018 0.50473 0.93533 0.0
C1032 C 0.97787 0.49722 0.04803 0.0
C1033 C 0.98127 0.49647 0.12669 0.0
C1034 C 0.04772 0.53101 0.99474 0.0
C1035 C 1.01205 0.51071 0.02182 0.0
C1036 C 0.06301 0.53948 0.9425 0.0
C1037 C 0.05961 0.53597 0.86355 0.0
C1038 C 0.02876 0.51913 0.96791 0.0
C1039 C 0.04053 0.5236 0.83913 0.0
C1040 C 0.99314 0.50414 0.99556 0.0
C1041 C 1.00032 0.50271 0.15041 0.0
N1042 N 0.0258 0.51578 0.89102 0.0
N1043 N 1.01501 0.50973 0.09833 0.0
H1044 H 0.4716 0.50835 0.89897 0.0
H1045 H 0.56221 0.52275 0.13975 0.0
H1046 H 0.52915 0.55374 0.84096 0.0
H1047 H 0.51393 0.46608 0.09021 0.0
H1048 H 0.54902 0.53679 0.0487 0.0
H1049 H 0.48555 0.49497 0.98827 0.0
C1050 C 0.48718 0.51552 0.90509 0.0
C1051 C 0.49924 0.53214 0.86212 0.0
C1052 C 0.54137 0.52129 0.05798 0.0
C1053 C 0.51525 0.51707 0.96541 0.0
C1054 C 0.5488 0.51329 0.11016 0.0
C1055 C 0.53914 0.49322 0.1226 0.0
C1056 C 0.52393 0.50918 0.01964 0.0
C1057 C 0.52188 0.48162 0.08223 0.0
C1058 C 0.49511 0.50784 0.95587 0.0
C1059 C 0.51935 0.54082 0.87247 0.0
N1060 N 0.51474 0.48977 0.03321 0.0
N1061 N 0.52674 0.53329 0.92365 0.0
H1062 H 0.52606 0.03009 0.22336 0.0
H1063 H 0.50953 0.99704 0.78294 0.0
H1064 H 0.55515 0.06959 0.03677 0.0
H1065 H 0.49955 0.95759 0.9693 0.0
H1066 H 0.52175 0.02381 0.87543 0.0
H1067 H 0.51165 1.00329 0.13093 0.0
C1068 C 0.52932 0.03315 0.16299 0.0
C1069 C 0.54192 0.05211 0.13793 0.0
C1070 C 0.51683 1.00927 0.89598 0.0
C1071 C 0.52537 0.02155 0.03182 0.0
C1072 C 0.50978 0.99398 0.84328 0.0
C1073 C 0.5036 0.97504 0.86826 0.0
C1074 C 0.51742 1.00558 0.97444 0.0
C1075 C 0.50432 0.97196 0.94727 0.0
C1076 C 0.52116 0.01785 0.11033 0.0
C1077 C 0.54566 0.0552 0.05888 0.0
N1078 N 0.51104 0.98703 0.99747 0.0
N1079 N 0.53739 0.04012 0.00872 0.0
H1080 H 0.2134 0.25301 0.08259 0.0
H1081 H 0.20713 0.15303 0.96871 0.0
H1082 H 0.15986 0.20043 0.03518 0.0
H1083 H 0.25937 0.20783 0.93543 0.0
H1084 H 0.19036 0.17015 0.00751 0.0
H1085 H 0.2313 0.23671 0.04324 0.0
C1086 C 0.20542 0.23803 0.06438 0.0
C1087 C 0.18511 0.22804 0.0623 0.0
C1088 C 0.20548 0.17848 0.99155 0.0
C1089 C 0.20543 0.20937 0.01761 0.0
C1090 C 0.2151 0.16871 0.96953 0.0
C1091 C 0.23469 0.17902 0.94861 0.0
C1092 C 0.21552 0.19879 0.99385 0.0
C1093 C 0.24423 0.19933 0.95072 0.0
C1094 C 0.21564 0.22879 0.04153 0.0
C1095 C 0.1755 0.2087 0.03767 0.0
N1096 N 0.23458 0.20859 0.97343 0.0
N1097 N 0.18572 0.2 0.01671 0.0
H1098 H 0.83473 0.96502 0.02691 0.0
H1099 H 0.82762 0.05835 0.91394 0.0
H1100 H 0.78274 0.96785 0.06394 0.0
H1101 H 0.88157 0.05991 0.95832 0.0
H1102 H 0.81012 0.02419 0.95351 0.0
H1103 H 0.85137 0.99885 0.9866 0.0
C1104 C 0.8268 0.97277 0.02659 0.0
C1105 C 0.80733 0.96361 0.04908 0.0
C1106 C 0.82578 0.03205 0.95448 0.0
C1107 C 0.82629 1.00239 0.00209 0.0
C1108 C 0.83577 0.05149 0.93152 0.0
C1109 C 0.85608 0.06198 0.93279 0.0
C1110 C 0.83621 0.02301 0.97768 0.0
C1111 C 0.86592 0.0524 0.95656 0.0
C1112 C 0.83634 0.99212 0.0037 0.0
C1113 C 0.7978 0.9744 0.04749 0.0
N1114 N 0.85591 0.03348 0.97767 0.0
N1115 N 0.80734 0.99321 0.02396 0.0
H1116 H 0.9656 0.8049 0.05876 0.0
H1117 H 0.07346 0.85582 0.93464 0.0
H1118 H 0.97975 0.78946 0.84109 0.0
H1119 H 0.05853 0.83011 0.15947 0.0
H1120 H 0.03921 0.83702 0.89741 0.0
H1121 H 0.99977 0.81977 0.09689 0.0
C1122 C 0.97595 0.8047 0.01903 0.0
C1123 C 0.96997 0.79603 0.94667 0.0
C1124 C 0.04349 0.83543 0.95466 0.0
C1125 C 1.00887 0.81325 0.98922 0.0
C1126 C 0.06293 0.84616 0.97603 0.0
C1127 C 0.0687 0.84443 0.05013 0.0
C1128 C 0.0297 0.82342 0.00866 0.0
C1129 C 0.05458 0.83172 0.10169 0.0
C1130 C 0.99532 0.81303 0.04101 0.0
C1131 C 0.98384 0.79598 0.89743 0.0
N1132 N 0.0356 0.82192 0.08044 0.0
N1133 N 1.00277 0.80479 0.91907 0.0
H1134 H 0.86209 0.80041 0.09218 0.0
H1135 H 0.80017 0.84631 0.93084 0.0
H1136 H 0.84679 0.79849 0.85388 0.0
H1137 H 0.81325 0.84611 0.1706 0.0
H1138 H 0.81446 0.82609 0.90348 0.0
H1139 H 0.84182 0.81442 0.12366 0.0
C1140 C 0.85437 0.80284 0.04645 0.0
C1141 C 0.85634 0.79845 0.97006 0.0
C1142 C 0.81405 0.83027 0.96223 0.0
C1143 C 0.833 0.81452 0.00588 0.0
C1144 C 0.80591 0.84185 0.9779 0.0
C1145 C 0.80569 0.84809 0.05308 0.0
C1146 C 0.82221 0.82492 0.02202 0.0
C1147 C 0.81307 0.84162 0.11188 0.0
C1148 C 0.84273 0.81078 0.06456 0.0
C1149 C 0.84569 0.80159 0.9135 0.0
N1150 N 0.82123 0.83059 0.09498 0.0
N1151 N 0.83466 0.80962 0.93243 0.0
H1152 H 0.19846 0.05863 0.92795 0.0
H1153 H 0.20471 0.96348 0.0212 0.0
H1154 H 0.25332 0.06052 0.94177 0.0
H1155 H 0.15362 0.96861 0.04432 0.0
H1156 H 0.22324 0.99801 0.98556 0.0
H1157 H 0.182 0.02432 0.95815 0.0
C1158 C 0.20704 0.05172 0.93694 0.0
C1159 C 0.22729 0.06247 0.93322 0.0
C1160 C 0.20798 0.9915 -0.0014 0.0
C1161 C 0.20847 0.02295 0.96885 0.0
C1162 C 0.19744 0.97187 0.01943 0.0
C1163 C 0.17751 0.96305 0.03467 0.0
C1164 C 0.19844 1.00228 0.99308 0.0
C1165 C 0.16883 0.9746 0.03135 0.0
C1166 C 0.19764 0.0321 0.95454 0.0
C1167 C 0.23767 0.0527 0.94419 0.0
N1168 N 0.17928 0.99346 0.01061 0.0
N1169 N 0.22815 0.03346 0.9622 0.0
H1170 H 0.97926 0.18435 0.83313 0.0
H1171 H 0.06108 0.2258 0.16002 0.0
H1172 H 0.96708 0.17423 0.07492 0.0
H1173 H 0.07332 0.22756 0.91835 0.0
H1174 H 0.02662 0.21157 0.12975 0.0
H1175 H 1.0137 0.20485 0.86329 0.0
C1176 C 0.98378 0.18668 0.89258 0.0
C1177 C 0.97027 0.17741 0.95153 0.0
C1178 C 0.03687 0.21523 0.0833 0.0
C1179 C 1.0097 0.20073 0.98652 0.0
C1180 C 0.05657 0.22348 0.10056 0.0
C1181 C 0.07011 0.22772 0.0417 0.0
C1182 C 0.03065 0.21128 0.00657 0.0
C1183 C 0.06336 0.22423 0.96564 0.0
C1184 C 1.00347 0.19828 0.90978 0.0
C1185 C 0.97702 0.18084 0.02758 0.0
N1186 N 0.04414 0.21614 0.95033 0.0
N1187 N 0.99622 0.19212 0.04283 0.0
H1188 H 0.90711 0.52777 0.16418 0.0
H1189 H 0.86753 0.56631 0.49316 0.0
H1190 H 0.89255 0.4987 0.38274 0.0
H1191 H 0.83923 0.5524 0.27289 0.0
H1192 H 0.88557 0.55 0.45402 0.0
H1193 H 0.89071 0.54567 0.20358 0.0
C1194 C 0.9006 0.52531 0.22055 0.0
C1195 C 0.90099 0.51169 0.27019 0.0
C1196 C 0.87546 0.55067 0.41441 0.0
C1197 C 0.88292 0.53237 0.316 0.0
C1198 C 0.86527 0.55997 0.43648 0.0
C1199 C 0.85183 0.5605 0.38626 0.0
C1200 C 0.87265 0.54256 0.34079 0.0
C1201 C 0.84935 0.55208 0.31342 0.0
C1202 C 0.89125 0.53543 0.24277 0.0
C1203 C 0.89235 0.50896 0.34265 0.0
N1204 N 0.85981 0.54361 0.29245 0.0
N1205 N 0.88382 0.51936 0.36381 0.0
H1206 H 0.49361 0.39258 0.25441 0.0
H1207 H 0.5009 0.29897 0.36066 0.0
H1208 H 0.54772 0.39418 0.29532 0.0
H1209 H 0.44897 0.30179 0.39966 0.0
H1210 H 0.51762 0.333 0.32247 0.0
H1211 H 0.47626 0.35839 0.29335 0.0
C1212 C 0.50183 0.38573 0.27127 0.0
C1213 C 0.52214 0.39624 0.27162 0.0
C1214 C 0.50258 0.32621 0.33959 0.0
C1215 C 0.50243 0.35721 0.31567 0.0
C1216 C 0.49301 0.30676 0.36126 0.0
C1217 C 0.47352 0.29754 0.38366 0.0
C1218 C 0.49255 0.33652 0.33912 0.0
C1219 C 0.46403 0.30837 0.38324 0.0
C1220 C 0.49193 0.36627 0.2938 0.0
C1221 C 0.53206 0.38666 0.29435 0.0
N1222 N 0.4736 0.32727 0.36089 0.0
N1223 N 0.52213 0.36771 0.31503 0.0
H1224 H 0.73238 0.15413 0.40803 0.0
H1225 H 0.6396 0.1621 0.29533 0.0
H1226 H 0.73431 0.20829 0.36424 0.0
H1227 H 0.64178 0.10977 0.25736 0.0
H1228 H 0.67349 0.17852 0.33438 0.0
H1229 H 0.6983 0.1368 0.36705 0.0
C1230 C 0.72561 0.16236 0.39025 0.0
C1231 C 0.73617 0.18268 0.38964 0.0
C1232 C 0.66662 0.16347 0.31724 0.0
C1233 C 0.69733 0.16303 0.34312 0.0
C1234 C 0.64724 0.15407 0.29502 0.0
C1235 C 0.63786 0.13455 0.2728 0.0
C1236 C 0.67673 0.15326 0.31851 0.0
C1237 C 0.64851 0.12487 0.27358 0.0
C1238 C 0.70624 0.15248 0.36647 0.0
C1239 C 0.72674 0.19263 0.36555 0.0
N1240 N 0.66738 0.13429 0.29661 0.0
N1241 N 0.70788 0.18272 0.34369 0.0
H1242 H 0.52801 0.13442 0.42281 0.0
H1243 H 0.4635 0.17767 0.26207 0.0
H1244 H 0.51265 0.13228 0.18445 0.0
H1245 H 0.48139 0.18231 0.49823 0.0
H1246 H 0.47802 0.1576 0.23554 0.0
H1247 H 0.50771 0.14839 0.45399 0.0
C1248 C 0.52026 0.13679 0.37699 0.0
C1249 C 0.52226 0.13239 0.30066 0.0
C1250 C 0.47864 0.16285 0.29334 0.0
C1251 C 0.49886 0.1484 0.33618 0.0
C1252 C 0.47039 0.17437 0.30856 0.0
C1253 C 0.47142 0.18192 0.38239 0.0
C1254 C 0.48808 0.15881 0.35226 0.0
C1255 C 0.48018 0.1768 0.44056 0.0
C1256 C 0.50862 0.14473 0.39493 0.0
C1257 C 0.51154 0.1354 0.24403 0.0
N1258 N 0.48834 0.16574 0.42407 0.0
N1259 N 0.50047 0.1434 0.26281 0.0
H1260 H 0.85808 0.30595 0.49499 0.0
H1261 H 0.89953 0.38768 0.16805 0.0
H1262 H 0.8485 0.29367 0.25301 0.0
H1263 H 0.90029 0.39996 0.40931 0.0
H1264 H 0.88571 0.35327 0.19866 0.0
H1265 H 0.87843 0.34045 0.46502 0.0
C1266 C 0.86051 0.31047 0.43555 0.0
C1267 C 0.85143 0.29693 0.37647 0.0
C1268 C 0.88906 0.36352 0.24496 0.0
C1269 C 0.87456 0.33638 0.34169 0.0
C1270 C 0.89708 0.38319 0.22751 0.0
C1271 C 0.90091 0.39671 0.28612 0.0
C1272 C 0.88494 0.35733 0.32163 0.0
C1273 C 0.89728 0.39 0.36219 0.0
C1274 C 0.87201 0.33018 0.41845 0.0
C1275 C 0.85498 0.30365 0.30043 0.0
N1276 N 0.88941 0.37082 0.37768 0.0
N1277 N 0.86615 0.32287 0.28528 0.0
H1278 H 0.72757 0.56057 0.4786 0.0
H1279 H 0.64634 0.51326 0.15118 0.0
H1280 H 0.74019 0.55756 0.24011 0.0
H1281 H 0.6337 0.51225 0.39214 0.0
H1282 H 0.68088 0.53352 0.18008 0.0
H1283 H 0.69336 0.54694 0.44557 0.0
C1284 C 0.72321 0.55732 0.41916 0.0
C1285 C 0.73678 0.56003 0.36223 0.0
C1286 C 0.67053 0.52901 0.22657 0.0
C1287 C 0.69755 0.5442 0.32397 0.0
C1288 C 0.65079 0.51756 0.20997 0.0
C1289 C 0.6371 0.51086 0.26939 0.0
C1290 C 0.67664 0.53388 0.30311 0.0
C1291 C 0.64376 0.51679 0.34465 0.0
C1292 C 0.70364 0.54941 0.40034 0.0
C1293 C 0.7302 0.55538 0.28615 0.0
N1294 N 0.66301 0.5278 0.35938 0.0
N1295 N 0.71109 0.5476 0.26937 0.0
H1296 H 0.56076 0.83242 0.73584 0.0
H1297 H 0.50657 0.88664 0.61565 0.0
H1298 H 0.57581 0.86285 0.52024 0.0
H1299 H 0.53423 0.89958 0.83716 0.0
H1300 H 0.5254 0.87119 0.57812 0.0
H1301 H 0.54443 0.85037 0.77439 0.0
C1302 C 0.56055 0.84284 0.69662 0.0
C1303 C 0.56958 0.84622 0.62481 0.0
C1304 C 0.52733 0.87746 0.63481 0.0
C1305 C 0.55067 0.86629 0.66767 0.0
C1306 C 0.51656 0.88613 0.65639 0.0
C1307 C 0.51891 0.89433 0.72955 0.0
C1308 C 0.53998 0.87639 0.68774 0.0
C1309 C 0.53211 0.89346 0.78015 0.0
C1310 C 0.55137 0.8531 0.7188 0.0
C1311 C 0.56905 0.85994 0.57618 0.0
N1312 N 0.54196 0.88434 0.75876 0.0
N1313 N 0.55944 0.86928 0.59797 0.0
H1314 H 0.16192 0.72601 0.58396 0.0
H1315 H 0.16961 0.63339 0.70314 0.0
H1316 H 0.21604 0.72786 0.62756 0.0
H1317 H 0.11758 0.63613 0.74039 0.0
H1318 H 0.1861 0.6671 0.66145 0.0
H1319 H 0.14458 0.69208 0.62672 0.0
C1320 C 0.17014 0.71925 0.60201 0.0
C1321 C 0.19045 0.72975 0.60212 0.0
C1322 C 0.1711 0.66039 0.67903 0.0
C1323 C 0.17077 0.69108 0.65072 0.0
C1324 C 0.16166 0.64112 0.70278 0.0
C1325 C 0.14221 0.63196 0.7256 0.0
C1326 C 0.16098 0.67059 0.67682 0.0
C1327 C 0.13263 0.6427 0.7238 0.0
C1328 C 0.16024 0.69996 0.62682 0.0
C1329 C 0.20038 0.72034 0.62662 0.0
N1330 N 0.14208 0.66144 0.69931 0.0
N1331 N 0.19046 0.70155 0.64953 0.0
H1332 H 0.30855 0.44292 0.58205 0.0
H1333 H 0.40187 0.54357 0.69243 0.0
H1334 H 0.30689 0.49528 0.62682 0.0
H1335 H 0.39932 0.48889 0.73 0.0
H1336 H 0.36796 0.52625 0.65317 0.0
H1337 H 0.34277 0.45967 0.62085 0.0
C1338 C 0.31541 0.45795 0.59956 0.0
C1339 C 0.30488 0.46773 0.60116 0.0
C1340 C 0.37477 0.51801 0.67018 0.0
C1341 C 0.3439 0.48693 0.64515 0.0
C1342 C 0.39416 0.52789 0.69246 0.0
C1343 C 0.40342 0.51766 0.71477 0.0
C1344 C 0.36455 0.49769 0.66899 0.0
C1345 C 0.39269 0.49734 0.71366 0.0
C1346 C 0.33487 0.46744 0.62209 0.0
C1347 C 0.31443 0.48715 0.62483 0.0
N1348 N 0.37383 0.48799 0.69069 0.0
N1349 N 0.33338 0.49612 0.64549 0.0
H1350 H 0.13747 0.51815 0.58384 0.0
H1351 H 0.19247 0.4654 0.74752 0.0
H1352 H 0.14179 0.50921 0.82513 0.0
H1353 H 0.18201 0.46825 0.5066 0.0
H1354 H 0.17191 0.4792 0.77731 0.0
H1355 H 0.15151 0.49778 0.55455 0.0
C1356 C 0.14122 0.51173 0.6307 0.0
C1357 C 0.13862 0.51554 0.7071 0.0
C1358 C 0.17391 0.47663 0.71794 0.0
C1359 C 0.15485 0.49224 0.67396 0.0
C1360 C 0.18571 0.4688 0.70086 0.0
C1361 C 0.18913 0.46584 0.62436 0.0
C1362 C 0.16557 0.48175 0.65812 0.0
C1363 C 0.17975 0.47024 0.56634 0.0
C1364 C 0.1492 0.50006 0.61392 0.0
C1365 C 0.14349 0.50663 0.76546 0.0
N1366 N 0.1686 0.47819 0.58437 0.0
N1367 N 0.1516 0.4956 0.74771 0.0
H1368 H 0.52487 0.6407 0.83035 0.0
H1369 H 0.56217 0.72266 0.5069 0.0
H1370 H 0.51668 0.62851 0.58785 0.0
H1371 H 0.57525 0.73493 0.74747 0.0
H1372 H 0.54771 0.6881 0.5345 0.0
H1373 H 0.54556 0.67512 0.80087 0.0
C1374 C 0.52764 0.64519 0.77094 0.0
C1375 C 0.51879 0.63165 0.71159 0.0
C1376 C 0.5539 0.69837 0.5812 0.0
C1377 C 0.54226 0.67114 0.67732 0.0
C1378 C 0.56229 0.71815 0.56534 0.0
C1379 C 0.56978 0.7318 0.62499 0.0
C1380 C 0.5529 0.69211 0.65733 0.0
C1381 C 0.56929 0.72496 0.69978 0.0
C1382 C 0.53937 0.66489 0.75408 0.0
C1383 C 0.52283 0.63843 0.6356 0.0
N1384 N 0.56085 0.70565 0.71385 0.0
N1385 N 0.53408 0.65765 0.62074 0.0
H1386 H 0.30037 0.84259 0.74233 0.0
H1387 H 0.40836 0.89478 0.58198 0.0
H1388 H 0.31404 0.85156 0.50137 0.0
H1389 H 0.39466 0.89286 0.82213 0.0
H1390 H 0.37407 0.88091 0.55099 0.0
H1391 H 0.33472 0.86281 0.77248 0.0
C1392 C 0.31062 0.84898 0.69572 0.0
C1393 C 0.30434 0.84524 0.61916 0.0
C1394 C 0.37855 0.8837 0.61043 0.0
C1395 C 0.34382 0.86837 0.65331 0.0
C1396 C 0.39813 0.89157 0.62821 0.0
C1397 C 0.40439 0.89483 0.70487 0.0
C1398 C 0.36499 0.87883 0.66973 0.0
C1399 C 0.39051 0.89065 0.76229 0.0
C1400 C 0.33024 0.86057 0.71299 0.0
C1401 C 0.31823 0.8541 0.56115 0.0
N1402 N 0.37145 0.88265 0.74362 0.0
N1403 N 0.33733 0.86504 0.57939 0.0
loop_
_geom_bond_atom_site_label_1
_geom_bond_atom_site_label_2
_geom_bond_distance
_geom_bond_site_symmetry_2
_ccdc_geom_bond_type
Co0 N4 2.148 1_554 S
Co0 N10 2.128 . S
Co0 N20 2.194 . S
Co0 O25 2.351 . S
Co0 O26 2.155 . S
Co0 O27 2.096 . S
C1 N4 1.301 . S
C1 N5 1.328 . S
C1 H6 0.930 . S
C2 C3 1.333 . S
C2 N4 1.317 . S
C2 H7 0.930 . S
C3 C2 1.333 . S
C3 N5 1.350 . S
C3 H29 0.931 . S
N4 Co0 2.148 1_556 S
N4 C1 1.301 . S
N4 C2 1.317 . S
N5 C1 1.328 . S
N5 C3 1.350 . S
H6 C1 0.930 . S
H7 C2 0.930 . S
C8 O9 1.224 . S
C8 O27 1.247 . S
O9 C8 1.224 . S
N10 Co0 2.128 . S
N10 C11 1.355 . S
N10 C13 1.311 . S
C11 N10 1.355 . S
C11 C12 1.363 . S
C11 H23 0.929 . S
C12 C11 1.363 . S
C12 N14 1.375 . S
C12 H30 0.931 . S
C13 N10 1.311 . S
C13 N14 1.347 . S
C13 H24 0.929 . S
N14 C12 1.375 . S
N14 C13 1.347 . S
C15 C18 1.365 . S
C15 N20 1.328 . S
C15 H21 0.929 . S
C16 C17 1.362 . S
C16 C19 1.378 . S
C16 H31 0.929 . S
C17 C16 1.362 . S
C17 C18 1.366 . S
C18 C15 1.365 . S
C18 C17 1.366 . S
C18 H32 0.930 . S
C19 C16 1.378 . S
C19 N20 1.315 . S
C19 H22 0.930 . S
N20 Co0 2.194 . S
N20 C15 1.328 . S
N20 C19 1.315 . S
H21 C15 0.929 . S
H22 C19 0.930 . S
H23 C11 0.929 . S
H24 C13 0.929 . S
O25 Co0 2.351 . S
O25 C28 1.244 . S
O26 Co0 2.155 . S
O26 C28 1.240 . S
O27 Co0 2.096 . S
O27 C8 1.247 . S
C28 O25 1.244 . S
C28 O26 1.240 . S
H29 C3 0.931 . S
H30 C12 0.931 . S
H31 C16 0.929 . S
H32 C18 0.930 . S
Co33 N37 2.148 1_554 S
Co33 N43 2.128 . S
Co33 N53 2.194 . S
Co33 O58 2.351 . S
Co33 O59 2.155 . S
Co33 O60 2.096 . S
C34 N37 1.301 . S
C34 N38 1.328 . S
C34 H39 0.930 . S
C35 C36 1.333 . S
C35 N37 1.317 . S
C35 H40 0.930 . S
C36 C35 1.333 . S
C36 N38 1.350 . S
C36 H62 0.931 . S
N37 Co33 2.148 1_556 S
N37 C34 1.301 . S
N37 C35 1.317 . S
N38 C34 1.328 . S
N38 C36 1.350 . S
H39 C34 0.930 . S
H40 C35 0.930 . S
C41 O42 1.224 . S
C41 O60 1.247 . S
O42 C41 1.224 . S
N43 Co33 2.128 . S
N43 C44 1.355 . S
N43 C46 1.311 . S
C44 N43 1.355 . S
C44 C45 1.363 . S
C44 H56 0.929 . S
C45 C44 1.363 . S
C45 N47 1.375 . S
C45 H63 0.931 . S
C46 N43 1.311 . S
C46 N47 1.347 . S
C46 H57 0.929 . S
N47 C45 1.375 . S
N47 C46 1.347 . S
C48 C51 1.365 . S
C48 N53 1.328 . S
C48 H54 0.929 . S
C49 C50 1.362 . S
C49 C52 1.378 . S
C49 H64 0.929 . S
C50 C49 1.362 . S
C50 C51 1.366 . S
C51 C48 1.365 . S
C51 C50 1.366 . S
C51 H65 0.930 . S
C52 C49 1.378 . S
C52 N53 1.315 . S
C52 H55 0.930 . S
N53 Co33 2.194 . S
N53 C48 1.328 . S
N53 C52 1.315 . S
H54 C48 0.929 . S
H55 C52 0.930 . S
H56 C44 0.929 . S
H57 C46 0.929 . S
O58 Co33 2.351 . S
O58 C61 1.244 . S
O59 Co33 2.155 . S
O59 C61 1.240 . S
O60 Co33 2.096 . S
O60 C41 1.247 . S
C61 O58 1.244 . S
C61 O59 1.240 . S
H62 C36 0.931 . S
H63 C45 0.931 . S
H64 C49 0.929 . S
H65 C51 0.930 . S
Co66 N70 2.148 1_554 S
Co66 N76 2.128 . S
Co66 N86 2.194 . S
Co66 O91 2.351 . S
Co66 O92 2.155 . S
Co66 O93 2.096 . S
C67 N70 1.301 . S
C67 N71 1.328 . S
C67 H72 0.930 . S
C68 C69 1.333 . S
C68 N70 1.317 . S
C68 H73 0.930 . S
C69 C68 1.333 . S
C69 N71 1.350 . S
C69 H95 0.931 . S
N70 Co66 2.148 1_556 S
N70 C67 1.301 . S
N70 C68 1.317 . S
N71 C67 1.328 . S
N71 C69 1.350 . S
H72 C67 0.930 . S
H73 C68 0.930 . S
C74 O75 1.224 . S
C74 O93 1.247 . S
O75 C74 1.224 . S
N76 Co66 2.128 . S
N76 C77 1.355 . S
N76 C79 1.311 . S
C77 N76 1.355 . S
C77 C78 1.363 . S
C77 H89 0.929 . S
C78 C77 1.363 . S
C78 N80 1.375 . S
C78 H96 0.931 . S
C79 N76 1.311 . S
C79 N80 1.347 . S
C79 H90 0.929 . S
N80 C78 1.375 . S
N80 C79 1.347 . S
C81 C84 1.365 . S
C81 N86 1.328 . S
C81 H87 0.929 . S
C82 C83 1.362 . S
C82 C85 1.378 . S
C82 H97 0.929 . S
C83 C82 1.362 . S
C83 C84 1.366 . S
C84 C81 1.365 . S
C84 C83 1.366 . S
C84 H98 0.930 . S
C85 C82 1.378 . S
C85 N86 1.315 . S
C85 H88 0.930 . S
N86 Co66 2.194 . S
N86 C81 1.328 . S
N86 C85 1.315 . S
H87 C81 0.929 . S
H88 C85 0.930 . S
H89 C77 0.929 . S
H90 C79 0.929 . S
O91 Co66 2.351 . S
O91 C94 1.244 . S
O92 Co66 2.155 . S
O92 C94 1.240 . S
O93 Co66 2.096 . S
O93 C74 1.247 . S
C94 O91 1.244 . S
C94 O92 1.240 . S
H95 C69 0.931 . S
H96 C78 0.931 . S
H97 C82 0.929 . S
H98 C84 0.930 . S
Co99 N103 2.148 1_556 S
Co99 N109 2.128 . S
Co99 N119 2.194 . S
Co99 O124 2.351 . S
Co99 O125 2.155 . S
Co99 O126 2.096 . S
C100 N103 1.301 . S
C100 N104 1.328 . S
C100 H105 0.930 . S
C101 C102 1.333 . S
C101 N103 1.317 . S
C101 H106 0.930 . S
C102 C101 1.333 . S
C102 N104 1.350 . S
C102 H128 0.931 . S
N103 Co99 2.148 1_554 S
N103 C100 1.301 . S
N103 C101 1.317 . S
N104 C100 1.328 . S
N104 C102 1.350 . S
H105 C100 0.930 . S
H106 C101 0.930 . S
C107 O108 1.224 . S
C107 O126 1.247 . S
O108 C107 1.224 . S
N109 Co99 2.128 . S
N109 C110 1.355 . S
N109 C112 1.311 . S
C110 N109 1.355 . S
C110 C111 1.363 . S
C110 H122 0.929 . S
C111 C110 1.363 . S
C111 N113 1.375 . S
C111 H129 0.931 . S
C112 N109 1.311 . S
C112 N113 1.347 . S
C112 H123 0.929 . S
N113 C111 1.375 . S
N113 C112 1.347 . S
C114 C117 1.365 . S
C114 N119 1.328 . S
C114 H120 0.929 . S
C115 C116 1.362 . S
C115 C118 1.378 . S
C115 H130 0.929 . S
C116 C115 1.362 . S
C116 C117 1.366 . S
C117 C114 1.365 . S
C117 C116 1.366 . S
C117 H131 0.930 . S
C118 C115 1.378 . S
C118 N119 1.315 . S
C118 H121 0.930 . S
N119 Co99 2.194 . S
N119 C114 1.328 . S
N119 C118 1.315 . S
H120 C114 0.929 . S
H121 C118 0.930 . S
H122 C110 0.929 . S
H123 C112 0.929 . S
O124 Co99 2.351 . S
O124 C127 1.244 . S
O125 Co99 2.155 . S
O125 C127 1.240 . S
O126 Co99 2.096 . S
O126 C107 1.247 . S
C127 O124 1.244 . S
C127 O125 1.240 . S
H128 C102 0.931 . S
H129 C111 0.931 . S
H130 C115 0.929 . S
H131 C117 0.930 . S
Co132 N136 2.148 1_556 S
Co132 N142 2.128 . S
Co132 N152 2.194 . S
Co132 O157 2.351 . S
Co132 O158 2.155 . S
Co132 O159 2.096 . S
C133 N136 1.301 . S
C133 N137 1.328 . S
C133 H138 0.930 . S
C134 C135 1.333 . S
C134 N136 1.317 . S
C134 H139 0.930 . S
C135 C134 1.333 . S
C135 N137 1.350 . S
C135 H161 0.931 . S
N136 Co132 2.148 1_554 S
N136 C133 1.301 . S
N136 C134 1.317 . S
N137 C133 1.328 . S
N137 C135 1.350 . S
H138 C133 0.930 . S
H139 C134 0.930 . S
C140 O141 1.224 . S
C140 O159 1.247 . S
O141 C140 1.224 . S
N142 Co132 2.128 . S
N142 C143 1.355 . S
N142 C145 1.311 . S
C143 N142 1.355 . S
C143 C144 1.363 . S
C143 H155 0.929 . S
C144 C143 1.363 . S
C144 N146 1.375 . S
C144 H162 0.931 . S
C145 N142 1.311 . S
C145 N146 1.347 . S
C145 H156 0.929 . S
N146 C144 1.375 . S
N146 C145 1.347 . S
C147 C150 1.365 . S
C147 N152 1.328 . S
C147 H153 0.929 . S
C148 C149 1.362 . S
C148 C151 1.378 . S
C148 H163 0.929 . S
C149 C148 1.362 . S
C149 C150 1.366 . S
C150 C147 1.365 . S
C150 C149 1.366 . S
C150 H164 0.930 . S
C151 C148 1.378 . S
C151 N152 1.315 . S
C151 H154 0.930 . S
N152 Co132 2.194 . S
N152 C147 1.328 . S
N152 C151 1.315 . S
H153 C147 0.929 . S
H154 C151 0.930 . S
H155 C143 0.929 . S
H156 C145 0.929 . S
O157 Co132 2.351 . S
O157 C160 1.244 . S
O158 Co132 2.155 . S
O158 C160 1.240 . S
O159 Co132 2.096 . S
O159 C140 1.247 . S
C160 O157 1.244 . S
C160 O158 1.240 . S
H161 C135 0.931 . S
H162 C144 0.931 . S
H163 C148 0.929 . S
H164 C150 0.930 . S
Co165 N169 2.148 1_556 S
Co165 N175 2.128 . S
Co165 N185 2.194 . S
Co165 O190 2.351 . S
Co165 O191 2.155 . S
Co165 O192 2.096 . S
C166 N169 1.301 . S
C166 N170 1.328 . S
C166 H171 0.930 . S
C167 C168 1.333 . S
C167 N169 1.317 . S
C167 H172 0.930 . S
C168 C167 1.333 . S
C168 N170 1.350 . S
C168 H194 0.931 . S
N169 Co165 2.148 1_554 S
N169 C166 1.301 . S
N169 C167 1.317 . S
N170 C166 1.328 . S
N170 C168 1.350 . S
H171 C166 0.930 . S
H172 C167 0.930 . S
C173 O174 1.224 . S
C173 O192 1.247 . S
O174 C173 1.224 . S
N175 Co165 2.128 . S
N175 C176 1.355 . S
N175 C178 1.311 . S
C176 N175 1.355 . S
C176 C177 1.363 . S
C176 H188 0.929 . S
C177 C176 1.363 . S
C177 N179 1.375 . S
C177 H195 0.931 . S
C178 N175 1.311 . S
C178 N179 1.347 . S
C178 H189 0.929 . S
N179 C177 1.375 . S
N179 C178 1.347 . S
C180 C183 1.365 . S
C180 N185 1.328 . S
C180 H186 0.929 . S
C181 C182 1.362 . S
C181 C184 1.378 . S
C181 H196 0.929 . S
C182 C181 1.362 . S
C182 C183 1.366 . S
C183 C180 1.365 . S
C183 C182 1.366 . S
C183 H197 0.930 . S
C184 C181 1.378 . S
C184 N185 1.315 . S
C184 H187 0.930 . S
N185 Co165 2.194 . S
N185 C180 1.328 . S
N185 C184 1.315 . S
H186 C180 0.929 . S
H187 C184 0.930 . S
H188 C176 0.929 . S
H189 C178 0.929 . S
O190 Co165 2.351 . S
O190 C193 1.244 . S
O191 Co165 2.155 . S
O191 C193 1.240 . S
O192 Co165 2.096 . S
O192 C173 1.247 . S
C193 O190 1.244 . S
C193 O191 1.240 . S
H194 C168 0.931 . S
H195 C177 0.931 . S
H196 C181 0.929 . S
H197 C183 0.930 . S
Co198 N202 2.148 . S
Co198 N208 2.128 . S
Co198 N218 2.194 . S
Co198 O223 2.351 . S
Co198 O224 2.155 . S
Co198 O225 2.096 . S
C199 N202 1.301 . S
C199 N203 1.328 . S
C199 H204 0.930 . S
C200 C201 1.333 . S
C200 N202 1.317 . S
C200 H205 0.930 . S
C201 C200 1.333 . S
C201 N203 1.350 . S
C201 H227 0.931 . S
N202 Co198 2.148 . S
N202 C199 1.301 . S
N202 C200 1.317 . S
N203 C199 1.328 . S
N203 C201 1.350 . S
H204 C199 0.930 . S
H205 C200 0.930 . S
C206 O207 1.224 . S
C206 O225 1.247 . S
O207 C206 1.224 . S
N208 Co198 2.128 . S
N208 C209 1.355 . S
N208 C211 1.311 . S
C209 N208 1.355 . S
C209 C210 1.363 . S
C209 H221 0.929 . S
C210 C209 1.363 . S
C210 N212 1.375 . S
C210 H228 0.931 . S
C211 N208 1.311 . S
C211 N212 1.347 . S
C211 H222 0.929 . S
N212 C210 1.375 . S
N212 C211 1.347 . S
C213 C216 1.365 . S
C213 N218 1.328 . S
C213 H219 0.929 . S
C214 C215 1.362 . S
C214 C217 1.378 . S
C214 H229 0.929 . S
C215 C214 1.362 . S
C215 C216 1.366 . S
C216 C213 1.365 . S
C216 C215 1.366 . S
C216 H230 0.930 . S
C217 C214 1.378 . S
C217 N218 1.315 . S
C217 H220 0.930 . S
N218 Co198 2.194 . S
N218 C213 1.328 . S
N218 C217 1.315 . S
H219 C213 0.929 . S
H220 C217 0.930 . S
H221 C209 0.929 . S
H222 C211 0.929 . S
O223 Co198 2.351 . S
O223 C226 1.244 . S
O224 Co198 2.155 . S
O224 C226 1.240 . S
O225 Co198 2.096 . S
O225 C206 1.247 . S
C226 O223 1.244 . S
C226 O224 1.240 . S
H227 C201 0.931 . S
H228 C210 0.931 . S
H229 C214 0.929 . S
H230 C216 0.930 . S
Co231 N235 2.148 . S
Co231 N241 2.128 . S
Co231 N251 2.194 . S
Co231 O256 2.351 . S
Co231 O257 2.155 . S
Co231 O258 2.096 . S
C232 N235 1.301 . S
C232 N236 1.328 . S
C232 H237 0.930 . S
C233 C234 1.333 . S
C233 N235 1.317 . S
C233 H238 0.930 . S
C234 C233 1.333 . S
C234 N236 1.350 . S
C234 H260 0.931 . S
N235 Co231 2.148 . S
N235 C232 1.301 . S
N235 C233 1.317 . S
N236 C232 1.328 . S
N236 C234 1.350 . S
H237 C232 0.930 . S
H238 C233 0.930 . S
C239 O240 1.224 . S
C239 O258 1.247 . S
O240 C239 1.224 . S
N241 Co231 2.128 . S
N241 C242 1.355 . S
N241 C244 1.311 . S
C242 N241 1.355 . S
C242 C243 1.363 . S
C242 H254 0.929 . S
C243 C242 1.363 . S
C243 N245 1.375 . S
C243 H261 0.931 . S
C244 N241 1.311 . S
C244 N245 1.347 . S
C244 H255 0.929 . S
N245 C243 1.375 . S
N245 C244 1.347 . S
C246 C249 1.365 . S
C246 N251 1.328 . S
C246 H252 0.929 . S
C247 C248 1.362 . S
C247 C250 1.378 . S
C247 H262 0.929 . S
C248 C247 1.362 . S
C248 C249 1.366 . S
C249 C246 1.365 . S
C249 C248 1.366 . S
C249 H263 0.930 . S
C250 C247 1.378 . S
C250 N251 1.315 . S
C250 H253 0.930 . S
N251 Co231 2.194 . S
N251 C246 1.328 . S
N251 C250 1.315 . S
H252 C246 0.929 . S
H253 C250 0.930 . S
H254 C242 0.929 . S
H255 C244 0.929 . S
O256 Co231 2.351 . S
O256 C259 1.244 . S
O257 Co231 2.155 . S
O257 C259 1.240 . S
O258 Co231 2.096 . S
O258 C239 1.247 . S
C259 O256 1.244 . S
C259 O257 1.240 . S
H260 C234 0.931 . S
H261 C243 0.931 . S
H262 C247 0.929 . S
H263 C249 0.930 . S
Co264 N268 2.148 . S
Co264 N274 2.128 . S
Co264 N284 2.194 . S
Co264 O289 2.351 . S
Co264 O290 2.155 . S
Co264 O291 2.096 . S
C265 N268 1.301 . S
C265 N269 1.328 . S
C265 H270 0.930 . S
C266 C267 1.333 . S
C266 N268 1.317 . S
C266 H271 0.930 . S
C267 C266 1.333 . S
C267 N269 1.350 . S
C267 H293 0.931 . S
N268 Co264 2.148 . S
N268 C265 1.301 . S
N268 C266 1.317 . S
N269 C265 1.328 . S
N269 C267 1.350 . S
H270 C265 0.930 . S
H271 C266 0.930 . S
C272 O273 1.224 . S
C272 O291 1.247 . S
O273 C272 1.224 . S
N274 Co264 2.128 . S
N274 C275 1.355 . S
N274 C277 1.311 . S
C275 N274 1.355 . S
C275 C276 1.363 . S
C275 H287 0.929 . S
C276 C275 1.363 . S
C276 N278 1.375 . S
C276 H294 0.931 . S
C277 N274 1.311 . S
C277 N278 1.347 . S
C277 H288 0.929 . S
N278 C276 1.375 . S
N278 C277 1.347 . S
C279 C282 1.365 . S
C279 N284 1.328 . S
C279 H285 0.929 . S
C280 C281 1.362 . S
C280 C283 1.378 . S
C280 H295 0.929 . S
C281 C280 1.362 . S
C281 C282 1.366 . S
C282 C279 1.365 . S
C282 C281 1.366 . S
C282 H296 0.930 . S
C283 C280 1.378 . S
C283 N284 1.315 . S
C283 H286 0.930 . S
N284 Co264 2.194 . S
N284 C279 1.328 . S
N284 C283 1.315 . S
H285 C279 0.929 . S
H286 C283 0.930 . S
H287 C275 0.929 . S
H288 C277 0.929 . S
O289 Co264 2.351 . S
O289 C292 1.244 . S
O290 Co264 2.155 . S
O290 C292 1.240 . S
O291 Co264 2.096 . S
O291 C272 1.247 . S
C292 O289 1.244 . S
C292 O290 1.240 . S
H293 C267 0.931 . S
H294 C276 0.931 . S
H295 C280 0.929 . S
H296 C282 0.930 . S
Co297 N301 2.148 . S
Co297 N307 2.128 . S
Co297 N317 2.194 . S
Co297 O322 2.351 . S
Co297 O323 2.155 . S
Co297 O324 2.096 . S
C298 N301 1.301 . S
C298 N302 1.328 . S
C298 H303 0.930 . S
C299 C300 1.333 . S
C299 N301 1.317 . S
C299 H304 0.930 . S
C300 C299 1.333 . S
C300 N302 1.350 . S
C300 H326 0.931 . S
N301 Co297 2.148 . S
N301 C298 1.301 . S
N301 C299 1.317 . S
N302 C298 1.328 . S
N302 C300 1.350 . S
H303 C298 0.930 . S
H304 C299 0.930 . S
C305 O306 1.224 . S
C305 O324 1.247 . S
O306 C305 1.224 . S
N307 Co297 2.128 . S
N307 C308 1.355 . S
N307 C310 1.311 . S
C308 N307 1.355 . S
C308 C309 1.363 . S
C308 H320 0.929 . S
C309 C308 1.363 . S
C309 N311 1.375 1_554 S
C309 H327 0.931 1_554 S
C310 N307 1.311 . S
C310 N311 1.347 1_554 S
C310 H321 0.929 . S
N311 C309 1.375 1_556 S
N311 C310 1.347 1_556 S
C312 C315 1.365 . S
C312 N317 1.328 . S
C312 H318 0.929 . S
C313 C314 1.362 . S
C313 C316 1.378 . S
C313 H328 0.929 . S
C314 C313 1.362 . S
C314 C315 1.366 . S
C315 C312 1.365 . S
C315 C314 1.366 . S
C315 H329 0.930 . S
C316 C313 1.378 . S
C316 N317 1.315 . S
C316 H319 0.930 . S
N317 Co297 2.194 . S
N317 C312 1.328 . S
N317 C316 1.315 . S
H318 C312 0.929 . S
H319 C316 0.930 . S
H320 C308 0.929 . S
H321 C310 0.929 . S
O322 Co297 2.351 . S
O322 C325 1.244 . S
O323 Co297 2.155 . S
O323 C325 1.240 . S
O324 Co297 2.096 . S
O324 C305 1.247 . S
C325 O322 1.244 . S
C325 O323 1.240 . S
H326 C300 0.931 . S
H327 C309 0.931 1_556 S
H328 C313 0.929 . S
H329 C315 0.930 . S
Co330 N334 2.148 . S
Co330 N340 2.128 . S
Co330 N350 2.194 . S
Co330 O355 2.351 . S
Co330 O356 2.155 . S
Co330 O357 2.096 . S
C331 N334 1.301 . S
C331 N335 1.328 . S
C331 H336 0.930 . S
C332 C333 1.333 . S
C332 N334 1.317 . S
C332 H337 0.930 . S
C333 C332 1.333 . S
C333 N335 1.350 . S
C333 H359 0.931 . S
N334 Co330 2.148 . S
N334 C331 1.301 . S
N334 C332 1.317 . S
N335 C331 1.328 . S
N335 C333 1.350 . S
H336 C331 0.930 . S
H337 C332 0.930 . S
C338 O339 1.224 . S
C338 O357 1.247 . S
O339 C338 1.224 . S
N340 Co330 2.128 . S
N340 C341 1.355 . S
N340 C343 1.311 . S
C341 N340 1.355 . S
C341 C342 1.363 . S
C341 H353 0.929 . S
C342 C341 1.363 . S
C342 N344 1.375 1_554 S
C342 H360 0.931 1_554 S
C343 N340 1.311 . S
C343 N344 1.347 1_554 S
C343 H354 0.929 . S
N344 C342 1.375 1_556 S
N344 C343 1.347 1_556 S
C345 C348 1.365 . S
C345 N350 1.328 . S
C345 H351 0.929 . S
C346 C347 1.362 . S
C346 C349 1.378 . S
C346 H361 0.929 . S
C347 C346 1.362 . S
C347 C348 1.366 . S
C348 C345 1.365 . S
C348 C347 1.366 . S
C348 H362 0.930 . S
C349 C346 1.378 . S
C349 N350 1.315 . S
C349 H352 0.930 . S
N350 Co330 2.194 . S
N350 C345 1.328 . S
N350 C349 1.315 . S
H351 C345 0.929 . S
H352 C349 0.930 . S
H353 C341 0.929 . S
H354 C343 0.929 . S
O355 Co330 2.351 . S
O355 C358 1.244 . S
O356 Co330 2.155 . S
O356 C358 1.240 . S
O357 Co330 2.096 . S
O357 C338 1.247 . S
C358 O355 1.244 . S
C358 O356 1.240 . S
H359 C333 0.931 . S
H360 C342 0.931 1_556 S
H361 C346 0.929 . S
H362 C348 0.930 . S
Co363 N367 2.148 . S
Co363 N373 2.128 . S
Co363 N383 2.194 . S
Co363 O388 2.351 . S
Co363 O389 2.155 . S
Co363 O390 2.096 . S
C364 N367 1.301 . S
C364 N368 1.328 . S
C364 H369 0.930 . S
C365 C366 1.333 . S
C365 N367 1.317 . S
C365 H370 0.930 . S
C366 C365 1.333 . S
C366 N368 1.350 . S
C366 H392 0.931 . S
N367 Co363 2.148 . S
N367 C364 1.301 . S
N367 C365 1.317 . S
N368 C364 1.328 . S
N368 C366 1.350 . S
H369 C364 0.930 . S
H370 C365 0.930 . S
C371 O372 1.224 . S
C371 O390 1.247 . S
O372 C371 1.224 . S
N373 Co363 2.128 . S
N373 C374 1.355 . S
N373 C376 1.311 . S
C374 N373 1.355 . S
C374 C375 1.363 . S
C374 H386 0.929 . S
C375 C374 1.363 . S
C375 N377 1.375 1_554 S
C375 H393 0.931 1_554 S
C376 N373 1.311 . S
C376 N377 1.347 1_554 S
C376 H387 0.929 . S
N377 C375 1.375 1_556 S
N377 C376 1.347 1_556 S
C378 C381 1.365 . S
C378 N383 1.328 . S
C378 H384 0.929 . S
C379 C380 1.362 . S
C379 C382 1.378 . S
C379 H394 0.929 . S
C380 C379 1.362 . S
C380 C381 1.366 . S
C381 C378 1.365 . S
C381 C380 1.366 . S
C381 H395 0.930 . S
C382 C379 1.378 . S
C382 N383 1.315 . S
C382 H385 0.930 . S
N383 Co363 2.194 . S
N383 C378 1.328 . S
N383 C382 1.315 . S
H384 C378 0.929 . S
H385 C382 0.930 . S
H386 C374 0.929 . S
H387 C376 0.929 . S
O388 Co363 2.351 . S
O388 C391 1.244 . S
O389 Co363 2.155 . S
O389 C391 1.240 . S
O390 Co363 2.096 . S
O390 C371 1.247 . S
C391 O388 1.244 . S
C391 O389 1.240 . S
H392 C366 0.931 . S
H393 C375 0.931 1_556 S
H394 C379 0.929 . S
H395 C381 0.930 . S
Co396 N400 2.148 . S
Co396 N406 2.128 . S
Co396 N416 2.194 . S
Co396 O421 2.351 . S
Co396 O422 2.155 . S
Co396 O423 2.096 . S
C397 N400 1.301 . S
C397 N401 1.328 . S
C397 H402 0.930 . S
C398 C399 1.333 . S
C398 N400 1.317 . S
C398 H403 0.930 . S
C399 C398 1.333 . S
C399 N401 1.350 . S
C399 H425 0.931 . S
N400 Co396 2.148 . S
N400 C397 1.301 . S
N400 C398 1.317 . S
N401 C397 1.328 . S
N401 C399 1.350 . S
H402 C397 0.930 . S
H403 C398 0.930 . S
C404 O405 1.224 . S
C404 O423 1.247 . S
O405 C404 1.224 . S
N406 Co396 2.128 . S
N406 C407 1.355 . S
N406 C409 1.311 . S
C407 N406 1.355 . S
C407 C408 1.363 . S
C407 H419 0.929 . S
C408 C407 1.363 . S
C408 N410 1.375 1_556 S
C408 H426 0.931 1_556 S
C409 N406 1.311 . S
C409 N410 1.347 1_556 S
C409 H420 0.929 . S
N410 C408 1.375 1_554 S
N410 C409 1.347 1_554 S
C411 C414 1.365 . S
C411 N416 1.328 . S
C411 H417 0.929 . S
C412 C413 1.362 . S
C412 C415 1.378 . S
C412 H427 0.929 . S
C413 C412 1.362 . S
C413 C414 1.366 . S
C414 C411 1.365 . S
C414 C413 1.366 . S
C414 H428 0.930 . S
C415 C412 1.378 . S
C415 N416 1.315 . S
C415 H418 0.930 . S
N416 Co396 2.194 . S
N416 C411 1.328 . S
N416 C415 1.315 . S
H417 C411 0.929 . S
H418 C415 0.930 . S
H419 C407 0.929 . S
H420 C409 0.929 . S
O421 Co396 2.351 . S
O421 C424 1.244 . S
O422 Co396 2.155 . S
O422 C424 1.240 . S
O423 Co396 2.096 . S
O423 C404 1.247 . S
C424 O421 1.244 . S
C424 O422 1.240 . S
H425 C399 0.931 . S
H426 C408 0.931 1_554 S
H427 C412 0.929 . S
H428 C414 0.930 . S
Co429 N433 2.148 . S
Co429 N439 2.128 . S
Co429 N449 2.194 . S
Co429 O454 2.351 . S
Co429 O455 2.155 . S
Co429 O456 2.096 . S
C430 N433 1.301 . S
C430 N434 1.328 . S
C430 H435 0.930 . S
C431 C432 1.333 . S
C431 N433 1.317 . S
C431 H436 0.930 . S
C432 C431 1.333 . S
C432 N434 1.350 . S
C432 H458 0.931 . S
N433 Co429 2.148 . S
N433 C430 1.301 . S
N433 C431 1.317 . S
N434 C430 1.328 . S
N434 C432 1.350 . S
H435 C430 0.930 . S
H436 C431 0.930 . S
C437 O438 1.224 . S
C437 O456 1.247 . S
O438 C437 1.224 . S
N439 Co429 2.128 . S
N439 C440 1.355 . S
N439 C442 1.311 . S
C440 N439 1.355 . S
C440 C441 1.363 . S
C440 H452 0.929 . S
C441 C440 1.363 . S
C441 N443 1.375 1_556 S
C441 H459 0.931 1_556 S
C442 N439 1.311 . S
C442 N443 1.347 1_556 S
C442 H453 0.929 . S
N443 C441 1.375 1_554 S
N443 C442 1.347 1_554 S
C444 C447 1.365 . S
C444 N449 1.328 . S
C444 H450 0.929 . S
C445 C446 1.362 . S
C445 C448 1.378 . S
C445 H460 0.929 . S
C446 C445 1.362 . S
C446 C447 1.366 . S
C447 C444 1.365 . S
C447 C446 1.366 . S
C447 H461 0.930 . S
C448 C445 1.378 . S
C448 N449 1.315 . S
C448 H451 0.930 . S
N449 Co429 2.194 . S
N449 C444 1.328 . S
N449 C448 1.315 . S
H450 C444 0.929 . S
H451 C448 0.930 . S
H452 C440 0.929 . S
H453 C442 0.929 . S
O454 Co429 2.351 . S
O454 C457 1.244 . S
O455 Co429 2.155 . S
O455 C457 1.240 . S
O456 Co429 2.096 . S
O456 C437 1.247 . S
C457 O454 1.244 . S
C457 O455 1.240 . S
H458 C432 0.931 . S
H459 C441 0.931 1_554 S
H460 C445 0.929 . S
H461 C447 0.930 . S
Co462 N466 2.148 . S
Co462 N472 2.128 . S
Co462 N482 2.194 . S
Co462 O487 2.351 . S
Co462 O488 2.155 . S
Co462 O489 2.096 . S
C463 N466 1.301 . S
C463 N467 1.328 . S
C463 H468 0.930 . S
C464 C465 1.333 . S
C464 N466 1.317 . S
C464 H469 0.930 . S
C465 C464 1.333 . S
C465 N467 1.350 . S
C465 H491 0.931 . S
N466 Co462 2.148 . S
N466 C463 1.301 . S
N466 C464 1.317 . S
N467 C463 1.328 . S
N467 C465 1.350 . S
H468 C463 0.930 . S
H469 C464 0.930 . S
C470 O471 1.224 . S
C470 O489 1.247 . S
O471 C470 1.224 . S
N472 Co462 2.128 . S
N472 C473 1.355 . S
N472 C475 1.311 . S
C473 N472 1.355 . S
C473 C474 1.363 . S
C473 H485 0.929 . S
C474 C473 1.363 . S
C474 N476 1.375 1_556 S
C474 H492 0.931 1_556 S
C475 N472 1.311 . S
C475 N476 1.347 1_556 S
C475 H486 0.929 . S
N476 C474 1.375 1_554 S
N476 C475 1.347 1_554 S
C477 C480 1.365 . S
C477 N482 1.328 . S
C477 H483 0.929 . S
C478 C479 1.362 . S
C478 C481 1.378 . S
C478 H493 0.929 . S
C479 C478 1.362 . S
C479 C480 1.366 . S
C480 C477 1.365 . S
C480 C479 1.366 . S
C480 H494 0.930 . S
C481 C478 1.378 . S
C481 N482 1.315 . S
C481 H484 0.930 . S
N482 Co462 2.194 . S
N482 C477 1.328 . S
N482 C481 1.315 . S
H483 C477 0.929 . S
H484 C481 0.930 . S
H485 C473 0.929 . S
H486 C475 0.929 . S
O487 Co462 2.351 . S
O487 C490 1.244 . S
O488 Co462 2.155 . S
O488 C490 1.240 . S
O489 Co462 2.096 . S
O489 C470 1.247 . S
C490 O487 1.244 . S
C490 O488 1.240 . S
H491 C465 0.931 . S
H492 C474 0.931 1_554 S
H493 C478 0.929 . S
H494 C480 0.930 . S
Co495 N499 2.148 . S
Co495 N505 2.128 . S
Co495 N515 2.194 . S
Co495 O520 2.351 . S
Co495 O521 2.155 . S
Co495 O522 2.096 . S
C496 N499 1.301 . S
C496 N500 1.328 . S
C496 H501 0.930 . S
C497 C498 1.333 . S
C497 N499 1.317 . S
C497 H502 0.930 . S
C498 C497 1.333 . S
C498 N500 1.350 . S
C498 H524 0.931 . S
N499 Co495 2.148 . S
N499 C496 1.301 . S
N499 C497 1.317 . S
N500 C496 1.328 . S
N500 C498 1.350 . S
H501 C496 0.930 . S
H502 C497 0.930 . S
C503 O504 1.224 . S
C503 O522 1.247 . S
O504 C503 1.224 . S
N505 Co495 2.128 . S
N505 C506 1.355 . S
N505 C508 1.311 . S
C506 N505 1.355 . S
C506 C507 1.363 . S
C506 H518 0.929 . S
C507 C506 1.363 . S
C507 N509 1.375 . S
C507 H525 0.931 . S
C508 N505 1.311 . S
C508 N509 1.347 . S
C508 H519 0.929 . S
N509 C507 1.375 . S
N509 C508 1.347 . S
C510 C513 1.365 . S
C510 N515 1.328 . S
C510 H516 0.929 . S
C511 C512 1.362 . S
C511 C514 1.378 . S
C511 H526 0.929 . S
C512 C511 1.362 . S
C512 C513 1.366 . S
C513 C510 1.365 . S
C513 C512 1.366 . S
C513 H527 0.930 . S
C514 C511 1.378 . S
C514 N515 1.315 . S
C514 H517 0.930 . S
N515 Co495 2.194 . S
N515 C510 1.328 . S
N515 C514 1.315 . S
H516 C510 0.929 . S
H517 C514 0.930 . S
H518 C506 0.929 . S
H519 C508 0.929 . S
O520 Co495 2.351 . S
O520 C523 1.244 . S
O521 Co495 2.155 . S
O521 C523 1.240 . S
O522 Co495 2.096 . S
O522 C503 1.247 . S
C523 O520 1.244 . S
C523 O521 1.240 . S
H524 C498 0.931 . S
H525 C507 0.931 . S
H526 C511 0.929 . S
H527 C513 0.930 . S
Co528 N532 2.148 . S
Co528 N538 2.128 . S
Co528 N548 2.194 . S
Co528 O553 2.351 . S
Co528 O554 2.155 . S
Co528 O555 2.096 . S
C529 N532 1.301 . S
C529 N533 1.328 . S
C529 H534 0.930 . S
C530 C531 1.333 . S
C530 N532 1.317 . S
C530 H535 0.930 . S
C531 C530 1.333 . S
C531 N533 1.350 . S
C531 H557 0.931 . S
N532 Co528 2.148 . S
N532 C529 1.301 . S
N532 C530 1.317 . S
N533 C529 1.328 . S
N533 C531 1.350 . S
H534 C529 0.930 . S
H535 C530 0.930 . S
C536 O537 1.224 . S
C536 O555 1.247 . S
O537 C536 1.224 . S
N538 Co528 2.128 . S
N538 C539 1.355 . S
N538 C541 1.311 . S
C539 N538 1.355 . S
C539 C540 1.363 . S
C539 H551 0.929 . S
C540 C539 1.363 . S
C540 N542 1.375 . S
C540 H558 0.931 . S
C541 N538 1.311 . S
C541 N542 1.347 . S
C541 H552 0.929 . S
N542 C540 1.375 . S
N542 C541 1.347 . S
C543 C546 1.365 . S
C543 N548 1.328 . S
C543 H549 0.929 . S
C544 C545 1.362 . S
C544 C547 1.378 . S
C544 H559 0.929 . S
C545 C544 1.362 . S
C545 C546 1.366 . S
C546 C543 1.365 . S
C546 C545 1.366 . S
C546 H560 0.930 . S
C547 C544 1.378 . S
C547 N548 1.315 . S
C547 H550 0.930 . S
N548 Co528 2.194 . S
N548 C543 1.328 . S
N548 C547 1.315 . S
H549 C543 0.929 . S
H550 C547 0.930 . S
H551 C539 0.929 . S
H552 C541 0.929 . S
O553 Co528 2.351 . S
O553 C556 1.244 . S
O554 Co528 2.155 . S
O554 C556 1.240 . S
O555 Co528 2.096 . S
O555 C536 1.247 . S
C556 O553 1.244 . S
C556 O554 1.240 . S
H557 C531 0.931 . S
H558 C540 0.931 . S
H559 C544 0.929 . S
H560 C546 0.930 . S
Co561 N565 2.148 . S
Co561 N571 2.128 . S
Co561 N581 2.194 . S
Co561 O586 2.351 . S
Co561 O587 2.155 . S
Co561 O588 2.096 . S
C562 N565 1.301 . S
C562 N566 1.328 . S
C562 H567 0.930 . S
C563 C564 1.333 . S
C563 N565 1.317 . S
C563 H568 0.930 . S
C564 C563 1.333 . S
C564 N566 1.350 . S
C564 H590 0.931 . S
N565 Co561 2.148 . S
N565 C562 1.301 . S
N565 C563 1.317 . S
N566 C562 1.328 . S
N566 C564 1.350 . S
H567 C562 0.930 . S
H568 C563 0.930 . S
C569 O570 1.224 . S
C569 O588 1.247 . S
O570 C569 1.224 . S
N571 Co561 2.128 . S
N571 C572 1.355 . S
N571 C574 1.311 . S
C572 N571 1.355 . S
C572 C573 1.363 . S
C572 H584 0.929 . S
C573 C572 1.363 . S
C573 N575 1.375 . S
C573 H591 0.931 . S
C574 N571 1.311 . S
C574 N575 1.347 . S
C574 H585 0.929 . S
N575 C573 1.375 . S
N575 C574 1.347 . S
C576 C579 1.365 . S
C576 N581 1.328 . S
C576 H582 0.929 . S
C577 C578 1.362 . S
C577 C580 1.378 . S
C577 H592 0.929 . S
C578 C577 1.362 . S
C578 C579 1.366 . S
C579 C576 1.365 . S
C579 C578 1.366 . S
C579 H593 0.930 . S
C580 C577 1.378 . S
C580 N581 1.315 . S
C580 H583 0.930 . S
N581 Co561 2.194 . S
N581 C576 1.328 . S
N581 C580 1.315 . S
H582 C576 0.929 . S
H583 C580 0.930 . S
H584 C572 0.929 . S
H585 C574 0.929 . S
O586 Co561 2.351 . S
O586 C589 1.244 . S
O587 Co561 2.155 . S
O587 C589 1.240 . S
O588 Co561 2.096 . S
O588 C569 1.247 . S
C589 O586 1.244 . S
C589 O587 1.240 . S
H590 C564 0.931 . S
H591 C573 0.931 . S
H592 C577 0.929 . S
H593 C579 0.930 . S
H594 C600 0.930 . S
H595 C604 0.930 . S
H596 C609 0.929 . S
H597 C607 0.929 . S
H598 C602 0.929 . S
H599 C608 0.929 . S
C600 H594 0.930 . S
C600 C601 1.367 . S
C600 C608 1.378 . S
C601 C600 1.367 . S
C601 C609 1.433 . S
C602 H598 0.929 . S
C602 C604 1.378 . S
C602 C606 1.350 . S
C603 C606 1.463 . S
C603 C608 1.350 . S
C603 N611 1.427 . S
C604 H595 0.930 . S
C604 C602 1.378 . S
C604 C605 1.367 . S
C605 C604 1.367 . S
C605 C607 1.433 . S
C606 C602 1.350 . S
C606 C603 1.463 . S
C606 N610 1.427 . S
C607 H597 0.929 . S
C607 C605 1.433 . S
C607 N610 1.384 . S
C608 H599 0.929 . S
C608 C600 1.378 . S
C608 C603 1.350 . S
C609 H596 0.929 . S
C609 C601 1.433 . S
C609 N611 1.384 . S
N610 C606 1.427 . S
N610 C607 1.384 . S
N611 C603 1.427 . S
N611 C609 1.384 . S
H612 C618 0.930 . S
H613 C622 0.930 . S
H614 C627 0.929 . S
H615 C625 0.929 . S
H616 C620 0.929 . S
H617 C626 0.929 . S
C618 H612 0.930 . S
C618 C619 1.367 . S
C618 C626 1.378 . S
C619 C618 1.367 . S
C619 C627 1.433 . S
C620 H616 0.929 . S
C620 C622 1.378 . S
C620 C624 1.350 . S
C621 C624 1.463 . S
C621 C626 1.350 . S
C621 N629 1.427 . S
C622 H613 0.930 . S
C622 C620 1.378 . S
C622 C623 1.367 . S
C623 C622 1.367 . S
C623 C625 1.433 . S
C624 C620 1.350 . S
C624 C621 1.463 . S
C624 N628 1.427 . S
C625 H615 0.929 . S
C625 C623 1.433 . S
C625 N628 1.384 . S
C626 H617 0.929 . S
C626 C618 1.378 . S
C626 C621 1.350 . S
C627 H614 0.929 . S
C627 C619 1.433 . S
C627 N629 1.384 . S
N628 C624 1.427 . S
N628 C625 1.384 . S
N629 C621 1.427 . S
N629 C627 1.384 . S
H630 C636 0.930 . S
H631 C640 0.930 . S
H632 C645 0.929 . S
H633 C643 0.929 . S
H634 C638 0.929 . S
H635 C644 0.929 . S
C636 H630 0.930 . S
C636 C637 1.367 . S
C636 C644 1.378 . S
C637 C636 1.367 . S
C637 C645 1.433 . S
C638 H634 0.929 . S
C638 C640 1.378 . S
C638 C642 1.350 . S
C639 C642 1.463 . S
C639 C644 1.350 . S
C639 N647 1.427 . S
C640 H631 0.930 . S
C640 C638 1.378 . S
C640 C641 1.367 . S
C641 C640 1.367 . S
C641 C643 1.433 . S
C642 C638 1.350 . S
C642 C639 1.463 . S
C642 N646 1.427 . S
C643 H633 0.929 . S
C643 C641 1.433 . S
C643 N646 1.384 . S
C644 H635 0.929 . S
C644 C636 1.378 . S
C644 C639 1.350 . S
C645 H632 0.929 . S
C645 C637 1.433 . S
C645 N647 1.384 . S
N646 C642 1.427 . S
N646 C643 1.384 . S
N647 C639 1.427 . S
N647 C645 1.384 . S
H648 C654 0.930 . S
H649 C658 0.930 . S
H650 C663 0.929 . S
H651 C661 0.929 . S
H652 C656 0.929 . S
H653 C662 0.929 . S
C654 H648 0.930 . S
C654 C655 1.367 . S
C654 C662 1.378 . S
C655 C654 1.367 . S
C655 C663 1.433 . S
C656 H652 0.929 . S
C656 C658 1.378 . S
C656 C660 1.350 . S
C657 C660 1.463 . S
C657 C662 1.350 . S
C657 N665 1.427 . S
C658 H649 0.930 . S
C658 C656 1.378 . S
C658 C659 1.367 . S
C659 C658 1.367 . S
C659 C661 1.433 . S
C660 C656 1.350 . S
C660 C657 1.463 . S
C660 N664 1.427 . S
C661 H651 0.929 . S
C661 C659 1.433 . S
C661 N664 1.384 . S
C662 H653 0.929 . S
C662 C654 1.378 . S
C662 C657 1.350 . S
C663 H650 0.929 . S
C663 C655 1.433 . S
C663 N665 1.384 . S
N664 C660 1.427 . S
N664 C661 1.384 . S
N665 C657 1.427 . S
N665 C663 1.384 . S
H666 C672 0.930 . S
H667 C676 0.930 . S
H668 C681 0.929 . S
H669 C679 0.929 . S
H670 C674 0.929 . S
H671 C680 0.929 . S
C672 H666 0.930 . S
C672 C673 1.367 . S
C672 C680 1.378 . S
C673 C672 1.367 . S
C673 C681 1.433 . S
C674 H670 0.929 . S
C674 C676 1.378 . S
C674 C678 1.350 . S
C675 C678 1.463 . S
C675 C680 1.350 . S
C675 N683 1.427 . S
C676 H667 0.930 . S
C676 C674 1.378 . S
C676 C677 1.367 . S
C677 C676 1.367 . S
C677 C679 1.433 . S
C678 C674 1.350 . S
C678 C675 1.463 . S
C678 N682 1.427 . S
C679 H669 0.929 . S
C679 C677 1.433 . S
C679 N682 1.384 . S
C680 H671 0.929 . S
C680 C672 1.378 . S
C680 C675 1.350 . S
C681 H668 0.929 . S
C681 C673 1.433 . S
C681 N683 1.384 . S
N682 C678 1.427 . S
N682 C679 1.384 . S
N683 C675 1.427 . S
N683 C681 1.384 . S
H684 C690 0.930 . S
H685 C694 0.930 . S
H686 C699 0.929 . S
H687 C697 0.929 . S
H688 C692 0.929 . S
H689 C698 0.929 . S
C690 H684 0.930 . S
C690 C691 1.367 . S
C690 C698 1.378 . S
C691 C690 1.367 . S
C691 C699 1.433 . S
C692 H688 0.929 . S
C692 C694 1.378 . S
C692 C696 1.350 . S
C693 C696 1.463 . S
C693 C698 1.350 . S
C693 N701 1.427 . S
C694 H685 0.930 . S
C694 C692 1.378 . S
C694 C695 1.367 . S
C695 C694 1.367 . S
C695 C697 1.433 . S
C696 C692 1.350 . S
C696 C693 1.463 . S
C696 N700 1.427 . S
C697 H687 0.929 . S
C697 C695 1.433 . S
C697 N700 1.384 . S
C698 H689 0.929 . S
C698 C690 1.378 . S
C698 C693 1.350 . S
C699 H686 0.929 . S
C699 C691 1.433 . S
C699 N701 1.384 . S
N700 C696 1.427 . S
N700 C697 1.384 . S
N701 C693 1.427 . S
N701 C699 1.384 . S
H702 C708 0.930 . S
H703 C712 0.930 . S
H704 C717 0.929 . S
H705 C715 0.929 . S
H706 C710 0.929 . S
H707 C716 0.929 . S
C708 H702 0.930 . S
C708 C709 1.367 . S
C708 C716 1.378 . S
C709 C708 1.367 . S
C709 C717 1.433 . S
C710 H706 0.929 . S
C710 C712 1.378 . S
C710 C714 1.350 . S
C711 C714 1.463 . S
C711 C716 1.350 1_556 S
C711 N719 1.427 1_556 S
C712 H703 0.930 . S
C712 C710 1.378 . S
C712 C713 1.367 . S
C713 C712 1.367 . S
C713 C715 1.433 . S
C714 C710 1.350 . S
C714 C711 1.463 . S
C714 N718 1.427 . S
C715 H705 0.929 . S
C715 C713 1.433 . S
C715 N718 1.384 . S
C716 H707 0.929 . S
C716 C708 1.378 . S
C716 C711 1.350 1_554 S
C717 H704 0.929 . S
C717 C709 1.433 . S
C717 N719 1.384 . S
N718 C714 1.427 . S
N718 C715 1.384 . S
N719 C711 1.427 1_554 S
N719 C717 1.384 . S
H720 C726 0.930 . S
H721 C730 0.930 . S
H722 C735 0.929 . S
H723 C733 0.929 . S
H724 C728 0.929 . S
H725 C734 0.929 . S
C726 H720 0.930 . S
C726 C727 1.367 . S
C726 C734 1.378 . S
C727 C726 1.367 . S
C727 C735 1.433 . S
C728 H724 0.929 . S
C728 C730 1.378 . S
C728 C732 1.350 . S
C729 C732 1.463 . S
C729 C734 1.350 1_556 S
C729 N737 1.427 1_556 S
C730 H721 0.930 . S
C730 C728 1.378 . S
C730 C731 1.367 . S
C731 C730 1.367 . S
C731 C733 1.433 . S
C732 C728 1.350 . S
C732 C729 1.463 . S
C732 N736 1.427 . S
C733 H723 0.929 . S
C733 C731 1.433 . S
C733 N736 1.384 . S
C734 H725 0.929 . S
C734 C726 1.378 . S
C734 C729 1.350 1_554 S
C735 H722 0.929 . S
C735 C727 1.433 . S
C735 N737 1.384 . S
N736 C732 1.427 . S
N736 C733 1.384 . S
N737 C729 1.427 1_554 S
N737 C735 1.384 . S
H738 C744 0.930 . S
H739 C748 0.930 . S
H740 C753 0.929 . S
H741 C751 0.929 . S
H742 C746 0.926 1_556 S
H743 C752 0.929 . S
C744 H738 0.930 . S
C744 C745 1.367 . S
C744 C752 1.378 . S
C745 C744 1.367 . S
C745 C753 1.433 . S
C746 H742 0.926 1_554 S
C746 C748 1.378 . S
C746 C750 1.350 1_554 S
C747 C750 1.463 . S
C747 C752 1.350 . S
C747 N755 1.427 . S
C748 H739 0.930 . S
C748 C746 1.378 . S
C748 C749 1.367 . S
C749 C748 1.367 . S
C749 C751 1.433 . S
C750 C746 1.350 1_556 S
C750 C747 1.463 . S
C750 N754 1.427 1_556 S
C751 H741 0.929 . S
C751 C749 1.433 . S
C751 N754 1.384 . S
C752 H743 0.929 . S
C752 C744 1.378 . S
C752 C747 1.350 . S
C753 H740 0.929 . S
C753 C745 1.433 . S
C753 N755 1.384 . S
N754 C750 1.427 1_554 S
N754 C751 1.384 . S
N755 C747 1.427 . S
N755 C753 1.384 . S
H756 C762 0.930 . S
H757 C766 0.930 . S
H758 C771 0.929 . S
H759 C769 0.929 . S
H760 C764 0.929 . S
H761 C770 0.929 . S
C762 H756 0.930 . S
C762 C763 1.367 . S
C762 C770 1.378 . S
C763 C762 1.367 . S
C763 C771 1.433 . S
C764 H760 0.929 . S
C764 C766 1.378 . S
C764 C768 1.350 . S
C765 C768 1.463 . S
C765 C770 1.350 . S
C765 N773 1.427 . S
C766 H757 0.930 . S
C766 C764 1.378 . S
C766 C767 1.367 . S
C767 C766 1.367 . S
C767 C769 1.433 . S
C768 C764 1.350 . S
C768 C765 1.463 . S
C768 N772 1.427 . S
C769 H759 0.929 . S
C769 C767 1.433 . S
C769 N772 1.384 . S
C770 H761 0.929 . S
C770 C762 1.378 . S
C770 C765 1.350 . S
C771 H758 0.929 . S
C771 C763 1.433 . S
C771 N773 1.384 . S
N772 C768 1.427 . S
N772 C769 1.384 . S
N773 C765 1.427 . S
N773 C771 1.384 . S
H774 C780 0.930 . S
H775 C784 0.930 . S
H776 C789 0.929 . S
H777 C787 0.929 . S
H778 C782 0.929 . S
H779 C788 0.929 . S
C780 H774 0.930 . S
C780 C781 1.367 . S
C780 C788 1.378 . S
C781 C780 1.367 . S
C781 C789 1.433 . S
C782 H778 0.929 . S
C782 C784 1.378 . S
C782 C786 1.350 . S
C783 C786 1.463 . S
C783 C788 1.350 . S
C783 N791 1.427 . S
C784 H775 0.930 . S
C784 C782 1.378 . S
C784 C785 1.367 . S
C785 C784 1.367 . S
C785 C787 1.433 . S
C786 C782 1.350 . S
C786 C783 1.463 . S
C786 N790 1.427 . S
C787 H777 0.929 . S
C787 C785 1.433 . S
C787 N790 1.384 . S
C788 H779 0.929 . S
C788 C780 1.378 . S
C788 C783 1.350 . S
C789 H776 0.929 . S
C789 C781 1.433 . S
C789 N791 1.384 . S
N790 C786 1.427 . S
N790 C787 1.384 . S
N791 C783 1.427 . S
N791 C789 1.384 . S
H792 C798 0.930 . S
H793 C802 0.930 . S
H794 C807 0.929 . S
H795 C805 0.929 . S
H796 C800 0.929 . S
H797 C806 0.929 . S
C798 H792 0.930 . S
C798 C799 1.367 . S
C798 C806 1.378 . S
C799 C798 1.367 . S
C799 C807 1.433 . S
C800 H796 0.929 . S
C800 C802 1.378 . S
C800 C804 1.350 . S
C801 C804 1.463 . S
C801 C806 1.350 . S
C801 N809 1.427 . S
C802 H793 0.930 . S
C802 C800 1.378 . S
C802 C803 1.367 . S
C803 C802 1.367 . S
C803 C805 1.433 . S
C804 C800 1.350 . S
C804 C801 1.463 . S
C804 N808 1.427 . S
C805 H795 0.929 . S
C805 C803 1.433 . S
C805 N808 1.384 . S
C806 H797 0.929 . S
C806 C798 1.378 . S
C806 C801 1.350 . S
C807 H794 0.929 . S
C807 C799 1.433 . S
C807 N809 1.384 . S
N808 C804 1.427 . S
N808 C805 1.384 . S
N809 C801 1.427 . S
N809 C807 1.384 . S
H810 C816 0.930 . S
H811 C820 0.930 . S
H812 C825 0.929 . S
H813 C823 0.929 . S
H814 C818 0.929 . S
H815 C824 0.929 . S
C816 H810 0.930 . S
C816 C817 1.367 . S
C816 C824 1.378 . S
C817 C816 1.367 . S
C817 C825 1.433 . S
C818 H814 0.929 . S
C818 C820 1.378 . S
C818 C822 1.350 . S
C819 C822 1.463 . S
C819 C824 1.350 . S
C819 N827 1.427 . S
C820 H811 0.930 . S
C820 C818 1.378 . S
C820 C821 1.367 . S
C821 C820 1.367 . S
C821 C823 1.433 . S
C822 C818 1.350 . S
C822 C819 1.463 . S
C822 N826 1.427 . S
C823 H813 0.929 . S
C823 C821 1.433 . S
C823 N826 1.384 . S
C824 H815 0.929 . S
C824 C816 1.378 . S
C824 C819 1.350 . S
C825 H812 0.929 . S
C825 C817 1.433 . S
C825 N827 1.384 . S
N826 C822 1.427 . S
N826 C823 1.384 . S
N827 C819 1.427 . S
N827 C825 1.384 . S
H828 C834 0.930 . S
H829 C838 0.930 . S
H830 C843 0.929 . S
H831 C841 0.929 . S
H832 C836 0.929 . S
H833 C842 0.929 . S
C834 H828 0.930 . S
C834 C835 1.367 . S
C834 C842 1.378 . S
C835 C834 1.367 . S
C835 C843 1.433 . S
C836 H832 0.929 . S
C836 C838 1.378 . S
C836 C840 1.350 . S
C837 C840 1.463 . S
C837 C842 1.350 . S
C837 N845 1.427 . S
C838 H829 0.930 . S
C838 C836 1.378 . S
C838 C839 1.367 . S
C839 C838 1.367 . S
C839 C841 1.433 . S
C840 C836 1.350 . S
C840 C837 1.463 . S
C840 N844 1.427 . S
C841 H831 0.929 . S
C841 C839 1.433 . S
C841 N844 1.384 . S
C842 H833 0.929 . S
C842 C834 1.378 . S
C842 C837 1.350 . S
C843 H830 0.929 . S
C843 C835 1.433 . S
C843 N845 1.384 . S
N844 C840 1.427 . S
N844 C841 1.384 . S
N845 C837 1.427 . S
N845 C843 1.384 . S
H846 C852 0.930 . S
H847 C856 0.930 . S
H848 C861 0.929 . S
H849 C859 0.929 . S
H850 C854 0.929 . S
H851 C860 0.929 . S
C852 H846 0.930 . S
C852 C853 1.367 . S
C852 C860 1.378 . S
C853 C852 1.367 . S
C853 C861 1.433 . S
C854 H850 0.929 . S
C854 C856 1.378 . S
C854 C858 1.350 . S
C855 C858 1.463 . S
C855 C860 1.350 . S
C855 N863 1.427 . S
C856 H847 0.930 . S
C856 C854 1.378 . S
C856 C857 1.367 . S
C857 C856 1.367 . S
C857 C859 1.433 . S
C858 C854 1.350 . S
C858 C855 1.463 . S
C858 N862 1.427 . S
C859 H849 0.929 . S
C859 C857 1.433 . S
C859 N862 1.384 . S
C860 H851 0.929 . S
C860 C852 1.378 . S
C860 C855 1.350 . S
C861 H848 0.929 . S
C861 C853 1.433 . S
C861 N863 1.384 . S
N862 C858 1.427 . S
N862 C859 1.384 . S
N863 C855 1.427 . S
N863 C861 1.384 . S
H864 C870 0.930 . S
H865 C874 0.930 . S
H866 C879 0.929 . S
H867 C877 0.929 . S
H868 C872 0.929 1_554 S
H869 C878 0.929 . S
C870 H864 0.930 . S
C870 C871 1.367 . S
C870 C878 1.378 . S
C871 C870 1.367 . S
C871 C879 1.433 . S
C872 H868 0.929 1_556 S
C872 C874 1.378 . S
C872 C876 1.350 1_556 S
C873 C876 1.463 . S
C873 C878 1.350 . S
C873 N881 1.427 . S
C874 H865 0.930 . S
C874 C872 1.378 . S
C874 C875 1.367 . S
C875 C874 1.367 . S
C875 C877 1.433 . S
C876 C872 1.350 1_554 S
C876 C873 1.463 . S
C876 N880 1.427 1_554 S
C877 H867 0.929 . S
C877 C875 1.433 . S
C877 N880 1.384 . S
C878 H869 0.929 . S
C878 C870 1.378 . S
C878 C873 1.350 . S
C879 H866 0.929 . S
C879 C871 1.433 . S
C879 N881 1.384 . S
N880 C876 1.427 1_556 S
N880 C877 1.384 . S
N881 C873 1.427 . S
N881 C879 1.384 . S
H882 C888 0.930 . S
H883 C892 0.930 . S
H884 C897 0.929 . S
H885 C895 0.929 . S
H886 C890 0.929 1_554 S
H887 C896 0.929 . S
C888 H882 0.930 . S
C888 C889 1.367 . S
C888 C896 1.378 . S
C889 C888 1.367 . S
C889 C897 1.433 . S
C890 H886 0.929 1_556 S
C890 C892 1.378 . S
C890 C894 1.350 1_556 S
C891 C894 1.463 . S
C891 C896 1.350 . S
C891 N899 1.427 . S
C892 H883 0.930 . S
C892 C890 1.378 . S
C892 C893 1.367 . S
C893 C892 1.367 . S
C893 C895 1.433 . S
C894 C890 1.350 1_554 S
C894 C891 1.463 . S
C894 N898 1.427 1_554 S
C895 H885 0.929 . S
C895 C893 1.433 . S
C895 N898 1.384 . S
C896 H887 0.929 . S
C896 C888 1.378 . S
C896 C891 1.350 . S
C897 H884 0.929 . S
C897 C889 1.433 . S
C897 N899 1.384 . S
N898 C894 1.427 1_556 S
N898 C895 1.384 . S
N899 C891 1.427 . S
N899 C897 1.384 . S
H900 C906 0.930 . S
H901 C910 0.930 . S
H902 C915 0.929 . S
H903 C913 0.929 . S
H904 C908 0.929 . S
H905 C914 0.929 1_554 S
C906 H900 0.930 . S
C906 C907 1.367 . S
C906 C914 1.378 . S
C907 C906 1.367 . S
C907 C915 1.433 . S
C908 H904 0.929 . S
C908 C910 1.378 . S
C908 C912 1.350 . S
C909 C912 1.463 . S
C909 C914 1.350 1_554 S
C909 N917 1.427 1_554 S
C910 H901 0.930 . S
C910 C908 1.378 . S
C910 C911 1.367 . S
C911 C910 1.367 . S
C911 C913 1.433 . S
C912 C908 1.350 . S
C912 C909 1.463 . S
C912 N916 1.427 . S
C913 H903 0.929 . S
C913 C911 1.433 . S
C913 N916 1.384 . S
C914 H905 0.929 1_556 S
C914 C906 1.378 . S
C914 C909 1.350 1_556 S
C915 H902 0.929 . S
C915 C907 1.433 . S
C915 N917 1.384 . S
N916 C912 1.427 . S
N916 C913 1.384 . S
N917 C909 1.427 1_556 S
N917 C915 1.384 . S
H918 C924 0.930 . S
H919 C928 0.930 . S
H920 C933 0.929 . S
H921 C931 0.929 . S
H922 C926 0.929 . S
H923 C932 0.929 . S
C924 H918 0.930 . S
C924 C925 1.367 . S
C924 C932 1.378 . S
C925 C924 1.367 . S
C925 C933 1.433 . S
C926 H922 0.929 . S
C926 C928 1.378 . S
C926 C930 1.350 . S
C927 C930 1.463 . S
C927 C932 1.350 . S
C927 N935 1.427 . S
C928 H919 0.930 . S
C928 C926 1.378 . S
C928 C929 1.367 . S
C929 C928 1.367 . S
C929 C931 1.433 . S
C930 C926 1.350 . S
C930 C927 1.463 . S
C930 N934 1.427 . S
C931 H921 0.929 . S
C931 C929 1.433 . S
C931 N934 1.384 . S
C932 H923 0.929 . S
C932 C924 1.378 . S
C932 C927 1.350 . S
C933 H920 0.929 . S
C933 C925 1.433 . S
C933 N935 1.384 . S
N934 C930 1.427 . S
N934 C931 1.384 . S
N935 C927 1.427 . S
N935 C933 1.384 . S
H936 C942 0.930 . S
H937 C946 0.930 . S
H938 C951 0.929 . S
H939 C949 0.929 . S
H940 C944 0.929 . S
H941 C950 0.929 . S
C942 H936 0.930 . S
C942 C943 1.367 . S
C942 C950 1.378 . S
C943 C942 1.367 . S
C943 C951 1.433 . S
C944 H940 0.929 . S
C944 C946 1.378 . S
C944 C948 1.350 . S
C945 C948 1.463 . S
C945 C950 1.350 . S
C945 N953 1.427 . S
C946 H937 0.930 . S
C946 C944 1.378 . S
C946 C947 1.367 . S
C947 C946 1.367 . S
C947 C949 1.433 . S
C948 C944 1.350 . S
C948 C945 1.463 . S
C948 N952 1.427 . S
C949 H939 0.929 . S
C949 C947 1.433 . S
C949 N952 1.384 . S
C950 H941 0.929 . S
C950 C942 1.378 . S
C950 C945 1.350 . S
C951 H938 0.929 . S
C951 C943 1.433 . S
C951 N953 1.384 . S
N952 C948 1.427 . S
N952 C949 1.384 . S
N953 C945 1.427 . S
N953 C951 1.384 . S
H954 C960 0.930 . S
H955 C964 0.930 . S
H956 C969 0.929 . S
H957 C967 0.929 . S
H958 C962 0.929 . S
H959 C968 0.929 . S
C960 H954 0.930 . S
C960 C961 1.367 . S
C960 C968 1.378 . S
C961 C960 1.367 . S
C961 C969 1.433 . S
C962 H958 0.929 . S
C962 C964 1.378 . S
C962 C966 1.350 . S
C963 C966 1.463 . S
C963 C968 1.350 . S
C963 N971 1.427 . S
C964 H955 0.930 . S
C964 C962 1.378 . S
C964 C965 1.367 . S
C965 C964 1.367 . S
C965 C967 1.433 . S
C966 C962 1.350 . S
C966 C963 1.463 . S
C966 N970 1.427 . S
C967 H957 0.929 . S
C967 C965 1.433 . S
C967 N970 1.384 . S
C968 H959 0.929 . S
C968 C960 1.378 . S
C968 C963 1.350 . S
C969 H956 0.929 . S
C969 C961 1.433 . S
C969 N971 1.384 . S
N970 C966 1.427 . S
N970 C967 1.384 . S
N971 C963 1.427 . S
N971 C969 1.384 . S
H972 C978 0.930 . S
H973 C982 0.930 . S
H974 C987 0.929 . S
H975 C985 0.929 . S
H976 C980 0.929 . S
H977 C986 0.929 . S
C978 H972 0.930 . S
C978 C979 1.367 . S
C978 C986 1.378 . S
C979 C978 1.367 . S
C979 C987 1.433 . S
C980 H976 0.929 . S
C980 C982 1.378 . S
C980 C984 1.350 . S
C981 C984 1.463 . S
C981 C986 1.350 . S
C981 N989 1.427 . S
C982 H973 0.930 . S
C982 C980 1.378 . S
C982 C983 1.367 . S
C983 C982 1.367 . S
C983 C985 1.433 . S
C984 C980 1.350 . S
C984 C981 1.463 . S
C984 N988 1.427 . S
C985 H975 0.929 . S
C985 C983 1.433 . S
C985 N988 1.384 . S
C986 H977 0.929 . S
C986 C978 1.378 . S
C986 C981 1.350 . S
C987 H974 0.929 . S
C987 C979 1.433 . S
C987 N989 1.384 . S
N988 C984 1.427 . S
N988 C985 1.384 . S
N989 C981 1.427 . S
N989 C987 1.384 . S
H990 C996 0.930 . S
H991 C1000 0.930 . S
H992 C1005 0.929 . S
H993 C1003 0.929 . S
H994 C998 0.929 . S
H995 C1004 0.929 . S
C996 H990 0.930 . S
C996 C997 1.367 . S
C996 C1004 1.378 . S
C997 C996 1.367 . S
C997 C1005 1.433 . S
C998 H994 0.929 . S
C998 C1000 1.378 . S
C998 C1002 1.350 . S
C999 C1002 1.463 . S
C999 C1004 1.350 . S
C999 N1007 1.427 . S
C1000 H991 0.930 . S
C1000 C998 1.378 . S
C1000 C1001 1.367 . S
C1001 C1000 1.367 . S
C1001 C1003 1.433 . S
C1002 C998 1.350 . S
C1002 C999 1.463 . S
C1002 N1006 1.427 . S
C1003 H993 0.929 . S
C1003 C1001 1.433 . S
C1003 N1006 1.384 . S
C1004 H995 0.929 . S
C1004 C996 1.378 . S
C1004 C999 1.350 . S
C1005 H992 0.929 . S
C1005 C997 1.433 . S
C1005 N1007 1.384 . S
N1006 C1002 1.427 . S
N1006 C1003 1.384 . S
N1007 C999 1.427 . S
N1007 C1005 1.384 . S
H1008 C1014 0.930 . S
H1009 C1018 0.930 . S
H1010 C1023 0.929 . S
H1011 C1021 0.929 . S
H1012 C1016 0.929 . S
H1013 C1022 0.929 . S
C1014 H1008 0.930 . S
C1014 C1015 1.367 . S
C1014 C1022 1.378 . S
C1015 C1014 1.367 . S
C1015 C1023 1.433 . S
C1016 H1012 0.929 . S
C1016 C1018 1.378 . S
C1016 C1020 1.350 . S
C1017 C1020 1.463 . S
C1017 C1022 1.350 . S
C1017 N1025 1.427 . S
C1018 H1009 0.930 . S
C1018 C1016 1.378 . S
C1018 C1019 1.367 . S
C1019 C1018 1.367 . S
C1019 C1021 1.433 . S
C1020 C1016 1.350 . S
C1020 C1017 1.463 . S
C1020 N1024 1.427 . S
C1021 H1011 0.929 . S
C1021 C1019 1.433 . S
C1021 N1024 1.384 . S
C1022 H1013 0.929 . S
C1022 C1014 1.378 . S
C1022 C1017 1.350 . S
C1023 H1010 0.929 . S
C1023 C1015 1.433 . S
C1023 N1025 1.384 . S
N1024 C1020 1.427 . S
N1024 C1021 1.384 . S
N1025 C1017 1.427 . S
N1025 C1023 1.384 . S
H1026 C1032 0.930 . S
H1027 C1036 0.930 . S
H1028 C1041 0.929 . S
H1029 C1039 0.929 . S
H1030 C1034 0.929 1_554 S
H1031 C1040 0.929 1_556 S
C1032 H1026 0.930 . S
C1032 C1033 1.367 . S
C1032 C1040 1.378 . S
C1033 C1032 1.367 . S
C1033 C1041 1.433 . S
C1034 H1030 0.929 1_556 S
C1034 C1036 1.378 . S
C1034 C1038 1.350 . S
C1035 C1038 1.463 1_654 S
C1035 C1040 1.350 . S
C1035 N1043 1.427 . S
C1036 H1027 0.930 . S
C1036 C1034 1.378 . S
C1036 C1037 1.367 . S
C1037 C1036 1.367 . S
C1037 C1039 1.433 . S
C1038 C1034 1.350 . S
C1038 C1035 1.463 1_456 S
C1038 N1042 1.427 . S
C1039 H1029 0.929 . S
C1039 C1037 1.433 . S
C1039 N1042 1.384 . S
C1040 H1031 0.929 1_554 S
C1040 C1032 1.378 . S
C1040 C1035 1.350 . S
C1041 H1028 0.929 . S
C1041 C1033 1.433 . S
C1041 N1043 1.384 . S
N1042 C1038 1.427 . S
N1042 C1039 1.384 . S
N1043 C1035 1.427 . S
N1043 C1041 1.384 . S
H1044 C1050 0.930 . S
H1045 C1054 0.930 . S
H1046 C1059 0.929 . S
H1047 C1057 0.929 . S
H1048 C1052 0.929 . S
H1049 C1058 0.929 . S
C1050 H1044 0.930 . S
C1050 C1051 1.367 . S
C1050 C1058 1.378 . S
C1051 C1050 1.367 . S
C1051 C1059 1.433 . S
C1052 H1048 0.929 . S
C1052 C1054 1.378 . S
C1052 C1056 1.350 . S
C1053 C1056 1.463 1_556 S
C1053 C1058 1.350 . S
C1053 N1061 1.427 . S
C1054 H1045 0.930 . S
C1054 C1052 1.378 . S
C1054 C1055 1.367 . S
C1055 C1054 1.367 . S
C1055 C1057 1.433 . S
C1056 C1052 1.350 . S
C1056 C1053 1.463 1_554 S
C1056 N1060 1.427 . S
C1057 H1047 0.929 . S
C1057 C1055 1.433 . S
C1057 N1060 1.384 . S
C1058 H1049 0.929 . S
C1058 C1050 1.378 . S
C1058 C1053 1.350 . S
C1059 H1046 0.929 . S
C1059 C1051 1.433 . S
C1059 N1061 1.384 . S
N1060 C1056 1.427 . S
N1060 C1057 1.384 . S
N1061 C1053 1.427 . S
N1061 C1059 1.384 . S
H1062 C1068 0.930 . S
H1063 C1072 0.930 . S
H1064 C1077 0.929 . S
H1065 C1075 0.929 . S
H1066 C1070 0.929 1_545 S
H1067 C1076 0.929 1_565 S
C1068 H1062 0.930 . S
C1068 C1069 1.367 . S
C1068 C1076 1.378 . S
C1069 C1068 1.367 . S
C1069 C1077 1.433 . S
C1070 H1066 0.929 1_565 S
C1070 C1072 1.378 . S
C1070 C1074 1.350 . S
C1071 C1074 1.463 1_544 S
C1071 C1076 1.350 . S
C1071 N1079 1.427 . S
C1072 H1063 0.930 . S
C1072 C1070 1.378 . S
C1072 C1073 1.367 . S
C1073 C1072 1.367 . S
C1073 C1075 1.433 . S
C1074 C1070 1.350 . S
C1074 C1071 1.463 1_566 S
C1074 N1078 1.427 . S
C1075 H1065 0.929 . S
C1075 C1073 1.433 . S
C1075 N1078 1.384 . S
C1076 H1067 0.929 1_545 S
C1076 C1068 1.378 . S
C1076 C1071 1.350 . S
C1077 H1064 0.929 . S
C1077 C1069 1.433 . S
C1077 N1079 1.384 . S
N1078 C1074 1.427 . S
N1078 C1075 1.384 . S
N1079 C1071 1.427 . S
N1079 C1077 1.384 . S
H1080 C1086 0.930 . S
H1081 C1090 0.930 . S
H1082 C1095 0.929 . S
H1083 C1093 0.929 . S
H1084 C1088 0.929 . S
H1085 C1094 0.929 . S
C1086 H1080 0.930 . S
C1086 C1087 1.367 1_556 S
C1086 C1094 1.378 . S
C1087 C1086 1.367 1_554 S
C1087 C1095 1.433 . S
C1088 H1084 0.929 . S
C1088 C1090 1.378 . S
C1088 C1092 1.350 1_554 S
C1089 C1092 1.463 1_554 S
C1089 C1094 1.350 1_554 S
C1089 N1097 1.427 . S
C1090 H1081 0.930 . S
C1090 C1088 1.378 . S
C1090 C1091 1.367 1_554 S
C1091 C1090 1.367 1_556 S
C1091 C1093 1.433 . S
C1092 C1088 1.350 1_556 S
C1092 C1089 1.463 1_556 S
C1092 N1096 1.427 . S
C1093 H1083 0.929 . S
C1093 C1091 1.433 . S
C1093 N1096 1.384 . S
C1094 H1085 0.929 . S
C1094 C1086 1.378 . S
C1094 C1089 1.350 1_556 S
C1095 H1082 0.929 . S
C1095 C1087 1.433 . S
C1095 N1097 1.384 . S
N1096 C1092 1.427 . S
N1096 C1093 1.384 . S
N1097 C1089 1.427 . S
N1097 C1095 1.384 . S
H1098 C1104 0.930 . S
H1099 C1108 0.930 . S
H1100 C1113 0.929 . S
H1101 C1111 0.929 . S
H1102 C1106 0.929 . S
H1103 C1112 0.929 . S
C1104 H1098 0.930 . S
C1104 C1105 1.367 . S
C1104 C1112 1.378 . S
C1105 C1104 1.367 . S
C1105 C1113 1.433 1_554 S
C1106 H1102 0.929 . S
C1106 C1108 1.378 . S
C1106 C1110 1.350 . S
C1107 C1110 1.463 1_564 S
C1107 C1112 1.350 . S
C1107 N1115 1.427 1_554 S
C1108 H1099 0.930 . S
C1108 C1106 1.378 . S
C1108 C1109 1.367 . S
C1109 C1108 1.367 . S
C1109 C1111 1.433 1_556 S
C1110 C1106 1.350 . S
C1110 C1107 1.463 1_546 S
C1110 N1114 1.427 1_556 S
C1111 H1101 0.929 . S
C1111 C1109 1.433 1_554 S
C1111 N1114 1.384 . S
C1112 H1103 0.929 . S
C1112 C1104 1.378 . S
C1112 C1107 1.350 . S
C1113 H1100 0.929 . S
C1113 C1105 1.433 1_556 S
C1113 N1115 1.384 . S
N1114 C1110 1.427 1_554 S
N1114 C1111 1.384 . S
N1115 C1107 1.427 1_556 S
N1115 C1113 1.384 . S
H1116 C1122 0.930 . S
H1117 C1126 0.930 . S
H1118 C1131 0.929 . S
H1119 C1129 0.929 . S
H1120 C1124 0.929 . S
H1121 C1130 0.929 . S
C1122 H1116 0.930 . S
C1122 C1123 1.367 1_554 S
C1122 C1130 1.378 . S
C1123 C1122 1.367 1_556 S
C1123 C1131 1.433 . S
C1124 H1120 0.929 . S
C1124 C1126 1.378 . S
C1124 C1128 1.350 1_556 S
C1125 C1128 1.463 1_656 S
C1125 C1130 1.350 1_556 S
C1125 N1133 1.427 . S
C1126 H1117 0.930 . S
C1126 C1124 1.378 . S
C1126 C1127 1.367 1_556 S
C1127 C1126 1.367 1_554 S
C1127 C1129 1.433 . S
C1128 C1124 1.350 1_554 S
C1128 C1125 1.463 1_454 S
C1128 N1132 1.427 . S
C1129 H1119 0.929 . S
C1129 C1127 1.433 . S
C1129 N1132 1.384 . S
C1130 H1121 0.929 . S
C1130 C1122 1.378 . S
C1130 C1125 1.350 1_554 S
C1131 H1118 0.929 . S
C1131 C1123 1.433 . S
C1131 N1133 1.384 . S
N1132 C1128 1.427 . S
N1132 C1129 1.384 . S
N1133 C1125 1.427 . S
N1133 C1131 1.384 . S
H1134 C1140 0.930 . S
H1135 C1144 0.930 . S
H1136 C1149 0.929 . S
H1137 C1147 0.929 . S
H1138 C1142 0.929 . S
H1139 C1148 0.929 . S
C1140 H1134 0.930 . S
C1140 C1141 1.367 1_554 S
C1140 C1148 1.378 . S
C1141 C1140 1.367 1_556 S
C1141 C1149 1.433 . S
C1142 H1138 0.929 . S
C1142 C1144 1.378 . S
C1142 C1146 1.350 1_556 S
C1143 C1146 1.463 1_556 S
C1143 C1148 1.350 1_556 S
C1143 N1151 1.427 . S
C1144 H1135 0.930 . S
C1144 C1142 1.378 . S
C1144 C1145 1.367 1_556 S
C1145 C1144 1.367 1_554 S
C1145 C1147 1.433 . S
C1146 C1142 1.350 1_554 S
C1146 C1143 1.463 1_554 S
C1146 N1150 1.427 . S
C1147 H1137 0.929 . S
C1147 C1145 1.433 . S
C1147 N1150 1.384 . S
C1148 H1139 0.929 . S
C1148 C1140 1.378 . S
C1148 C1143 1.350 1_554 S
C1149 H1136 0.929 . S
C1149 C1141 1.433 . S
C1149 N1151 1.384 . S
N1150 C1146 1.427 . S
N1150 C1147 1.384 . S
N1151 C1143 1.427 . S
N1151 C1149 1.384 . S
H1152 C1158 0.930 . S
H1153 C1162 0.930 . S
H1154 C1167 0.929 . S
H1155 C1165 0.929 . S
H1156 C1160 0.923 1_556 S
H1157 C1166 0.923 1_554 S
C1158 H1152 0.930 . S
C1158 C1159 1.367 . S
C1158 C1166 1.382 . S
C1159 C1158 1.367 . S
C1159 C1167 1.433 . S
C1160 H1156 0.923 1_554 S
C1160 C1162 1.381 . S
C1160 C1164 1.352 . S
C1161 C1164 1.463 1_546 S
C1161 C1166 1.352 . S
C1161 N1169 1.427 . S
C1162 H1153 0.930 . S
C1162 C1160 1.381 . S
C1162 C1163 1.367 . S
C1163 C1162 1.367 . S
C1163 C1165 1.433 . S
C1164 C1160 1.352 . S
C1164 C1161 1.463 1_564 S
C1164 N1168 1.427 . S
C1165 H1155 0.929 . S
C1165 C1163 1.433 . S
C1165 N1168 1.384 . S
C1166 H1157 0.923 1_556 S
C1166 C1158 1.382 . S
C1166 C1161 1.352 . S
C1167 H1154 0.929 . S
C1167 C1159 1.433 . S
C1167 N1169 1.384 . S
N1168 C1164 1.427 . S
N1168 C1165 1.384 . S
N1169 C1161 1.427 . S
N1169 C1167 1.384 . S
H1170 C1176 0.930 . S
H1171 C1180 0.930 . S
H1172 C1185 0.929 . S
H1173 C1183 0.929 . S
H1174 C1178 0.929 . S
H1175 C1184 0.929 . S
C1176 H1170 0.930 . S
C1176 C1177 1.367 . S
C1176 C1184 1.378 . S
C1177 C1176 1.367 . S
C1177 C1185 1.433 1_556 S
C1178 H1174 0.929 . S
C1178 C1180 1.378 . S
C1178 C1182 1.350 . S
C1179 C1182 1.463 1_656 S
C1179 C1184 1.350 . S
C1179 N1187 1.427 1_556 S
C1180 H1171 0.930 . S
C1180 C1178 1.378 . S
C1180 C1181 1.367 . S
C1181 C1180 1.367 . S
C1181 C1183 1.433 1_554 S
C1182 C1178 1.350 . S
C1182 C1179 1.463 1_454 S
C1182 N1186 1.427 1_554 S
C1183 H1173 0.929 . S
C1183 C1181 1.433 1_556 S
C1183 N1186 1.384 . S
C1184 H1175 0.929 . S
C1184 C1176 1.378 . S
C1184 C1179 1.350 . S
C1185 H1172 0.929 . S
C1185 C1177 1.433 1_554 S
C1185 N1187 1.384 . S
N1186 C1182 1.427 1_556 S
N1186 C1183 1.384 . S
N1187 C1179 1.427 1_554 S
N1187 C1185 1.384 . S
H1188 C1194 0.930 . S
H1189 C1198 0.930 . S
H1190 C1203 0.929 . S
H1191 C1201 0.929 . S
H1192 C1196 0.929 . S
H1193 C1202 0.929 . S
C1194 H1188 0.930 . S
C1194 C1195 1.367 . S
C1194 C1202 1.378 . S
C1195 C1194 1.367 . S
C1195 C1203 1.433 . S
C1196 H1192 0.929 . S
C1196 C1198 1.378 . S
C1196 C1200 1.350 . S
C1197 C1200 1.463 . S
C1197 C1202 1.350 . S
C1197 N1205 1.427 . S
C1198 H1189 0.930 . S
C1198 C1196 1.378 . S
C1198 C1199 1.367 . S
C1199 C1198 1.367 . S
C1199 C1201 1.433 . S
C1200 C1196 1.350 . S
C1200 C1197 1.463 . S
C1200 N1204 1.427 . S
C1201 H1191 0.929 . S
C1201 C1199 1.433 . S
C1201 N1204 1.384 . S
C1202 H1193 0.929 . S
C1202 C1194 1.378 . S
C1202 C1197 1.350 . S
C1203 H1190 0.929 . S
C1203 C1195 1.433 . S
C1203 N1205 1.384 . S
N1204 C1200 1.427 . S
N1204 C1201 1.384 . S
N1205 C1197 1.427 . S
N1205 C1203 1.384 . S
H1206 C1212 0.930 . S
H1207 C1216 0.930 . S
H1208 C1221 0.929 . S
H1209 C1219 0.929 . S
H1210 C1214 0.929 . S
H1211 C1220 0.929 . S
C1212 H1206 0.930 . S
C1212 C1213 1.367 . S
C1212 C1220 1.378 . S
C1213 C1212 1.367 . S
C1213 C1221 1.433 . S
C1214 H1210 0.929 . S
C1214 C1216 1.378 . S
C1214 C1218 1.350 . S
C1215 C1218 1.463 . S
C1215 C1220 1.350 . S
C1215 N1223 1.427 . S
C1216 H1207 0.930 . S
C1216 C1214 1.378 . S
C1216 C1217 1.367 . S
C1217 C1216 1.367 . S
C1217 C1219 1.433 . S
C1218 C1214 1.350 . S
C1218 C1215 1.463 . S
C1218 N1222 1.427 . S
C1219 H1209 0.929 . S
C1219 C1217 1.433 . S
C1219 N1222 1.384 . S
C1220 H1211 0.929 . S
C1220 C1212 1.378 . S
C1220 C1215 1.350 . S
C1221 H1208 0.929 . S
C1221 C1213 1.433 . S
C1221 N1223 1.384 . S
N1222 C1218 1.427 . S
N1222 C1219 1.384 . S
N1223 C1215 1.427 . S
N1223 C1221 1.384 . S
H1224 C1230 0.930 . S
H1225 C1234 0.930 . S
H1226 C1239 0.929 . S
H1227 C1237 0.929 . S
H1228 C1232 0.929 . S
H1229 C1238 0.929 . S
C1230 H1224 0.930 . S
C1230 C1231 1.367 . S
C1230 C1238 1.378 . S
C1231 C1230 1.367 . S
C1231 C1239 1.433 . S
C1232 H1228 0.929 . S
C1232 C1234 1.378 . S
C1232 C1236 1.350 . S
C1233 C1236 1.463 . S
C1233 C1238 1.350 . S
C1233 N1241 1.427 . S
C1234 H1225 0.930 . S
C1234 C1232 1.378 . S
C1234 C1235 1.367 . S
C1235 C1234 1.367 . S
C1235 C1237 1.433 . S
C1236 C1232 1.350 . S
C1236 C1233 1.463 . S
C1236 N1240 1.427 . S
C1237 H1227 0.929 . S
C1237 C1235 1.433 . S
C1237 N1240 1.384 . S
C1238 H1229 0.929 . S
C1238 C1230 1.378 . S
C1238 C1233 1.350 . S
C1239 H1226 0.929 . S
C1239 C1231 1.433 . S
C1239 N1241 1.384 . S
N1240 C1236 1.427 . S
N1240 C1237 1.384 . S
N1241 C1233 1.427 . S
N1241 C1239 1.384 . S
H1242 C1248 0.930 . S
H1243 C1252 0.930 . S
H1244 C1257 0.929 . S
H1245 C1255 0.929 . S
H1246 C1250 0.929 . S
H1247 C1256 0.929 . S
C1248 H1242 0.930 . S
C1248 C1249 1.367 . S
C1248 C1256 1.378 . S
C1249 C1248 1.367 . S
C1249 C1257 1.433 . S
C1250 H1246 0.929 . S
C1250 C1252 1.378 . S
C1250 C1254 1.350 . S
C1251 C1254 1.463 . S
C1251 C1256 1.350 . S
C1251 N1259 1.427 . S
C1252 H1243 0.930 . S
C1252 C1250 1.378 . S
C1252 C1253 1.367 . S
C1253 C1252 1.367 . S
C1253 C1255 1.433 . S
C1254 C1250 1.350 . S
C1254 C1251 1.463 . S
C1254 N1258 1.427 . S
C1255 H1245 0.929 . S
C1255 C1253 1.433 . S
C1255 N1258 1.384 . S
C1256 H1247 0.929 . S
C1256 C1248 1.378 . S
C1256 C1251 1.350 . S
C1257 H1244 0.929 . S
C1257 C1249 1.433 . S
C1257 N1259 1.384 . S
N1258 C1254 1.427 . S
N1258 C1255 1.384 . S
N1259 C1251 1.427 . S
N1259 C1257 1.384 . S
H1260 C1266 0.930 . S
H1261 C1270 0.930 . S
H1262 C1275 0.929 . S
H1263 C1273 0.929 . S
H1264 C1268 0.929 . S
H1265 C1274 0.929 . S
C1266 H1260 0.930 . S
C1266 C1267 1.367 . S
C1266 C1274 1.378 . S
C1267 C1266 1.367 . S
C1267 C1275 1.433 . S
C1268 H1264 0.929 . S
C1268 C1270 1.378 . S
C1268 C1272 1.350 . S
C1269 C1272 1.463 . S
C1269 C1274 1.350 . S
C1269 N1277 1.427 . S
C1270 H1261 0.930 . S
C1270 C1268 1.378 . S
C1270 C1271 1.367 . S
C1271 C1270 1.367 . S
C1271 C1273 1.433 . S
C1272 C1268 1.350 . S
C1272 C1269 1.463 . S
C1272 N1276 1.427 . S
C1273 H1263 0.929 . S
C1273 C1271 1.433 . S
C1273 N1276 1.384 . S
C1274 H1265 0.929 . S
C1274 C1266 1.378 . S
C1274 C1269 1.350 . S
C1275 H1262 0.929 . S
C1275 C1267 1.433 . S
C1275 N1277 1.384 . S
N1276 C1272 1.427 . S
N1276 C1273 1.384 . S
N1277 C1269 1.427 . S
N1277 C1275 1.384 . S
H1278 C1284 0.930 . S
H1279 C1288 0.930 . S
H1280 C1293 0.929 . S
H1281 C1291 0.929 . S
H1282 C1286 0.929 . S
H1283 C1292 0.929 . S
C1284 H1278 0.930 . S
C1284 C1285 1.367 . S
C1284 C1292 1.378 . S
C1285 C1284 1.367 . S
C1285 C1293 1.433 . S
C1286 H1282 0.929 . S
C1286 C1288 1.378 . S
C1286 C1290 1.350 . S
C1287 C1290 1.463 . S
C1287 C1292 1.350 . S
C1287 N1295 1.427 . S
C1288 H1279 0.930 . S
C1288 C1286 1.378 . S
C1288 C1289 1.367 . S
C1289 C1288 1.367 . S
C1289 C1291 1.433 . S
C1290 C1286 1.350 . S
C1290 C1287 1.463 . S
C1290 N1294 1.427 . S
C1291 H1281 0.929 . S
C1291 C1289 1.433 . S
C1291 N1294 1.384 . S
C1292 H1283 0.929 . S
C1292 C1284 1.378 . S
C1292 C1287 1.350 . S
C1293 H1280 0.929 . S
C1293 C1285 1.433 . S
C1293 N1295 1.384 . S
N1294 C1290 1.427 . S
N1294 C1291 1.384 . S
N1295 C1287 1.427 . S
N1295 C1293 1.384 . S
H1296 C1302 0.930 . S
H1297 C1306 0.930 . S
H1298 C1311 0.929 . S
H1299 C1309 0.929 . S
H1300 C1304 0.929 . S
H1301 C1310 0.929 . S
C1302 H1296 0.930 . S
C1302 C1303 1.367 . S
C1302 C1310 1.378 . S
C1303 C1302 1.367 . S
C1303 C1311 1.433 . S
C1304 H1300 0.929 . S
C1304 C1306 1.378 . S
C1304 C1308 1.350 . S
C1305 C1308 1.463 . S
C1305 C1310 1.350 . S
C1305 N1313 1.427 . S
C1306 H1297 0.930 . S
C1306 C1304 1.378 . S
C1306 C1307 1.367 . S
C1307 C1306 1.367 . S
C1307 C1309 1.433 . S
C1308 C1304 1.350 . S
C1308 C1305 1.463 . S
C1308 N1312 1.427 . S
C1309 H1299 0.929 . S
C1309 C1307 1.433 . S
C1309 N1312 1.384 . S
C1310 H1301 0.929 . S
C1310 C1302 1.378 . S
C1310 C1305 1.350 . S
C1311 H1298 0.929 . S
C1311 C1303 1.433 . S
C1311 N1313 1.384 . S
N1312 C1308 1.427 . S
N1312 C1309 1.384 . S
N1313 C1305 1.427 . S
N1313 C1311 1.384 . S
H1314 C1320 0.930 . S
H1315 C1324 0.930 . S
H1316 C1329 0.929 . S
H1317 C1327 0.929 . S
H1318 C1322 0.929 . S
H1319 C1328 0.929 . S
C1320 H1314 0.930 . S
C1320 C1321 1.367 . S
C1320 C1328 1.378 . S
C1321 C1320 1.367 . S
C1321 C1329 1.433 . S
C1322 H1318 0.929 . S
C1322 C1324 1.378 . S
C1322 C1326 1.350 . S
C1323 C1326 1.463 . S
C1323 C1328 1.350 . S
C1323 N1331 1.427 . S
C1324 H1315 0.930 . S
C1324 C1322 1.378 . S
C1324 C1325 1.367 . S
C1325 C1324 1.367 . S
C1325 C1327 1.433 . S
C1326 C1322 1.350 . S
C1326 C1323 1.463 . S
C1326 N1330 1.427 . S
C1327 H1317 0.929 . S
C1327 C1325 1.433 . S
C1327 N1330 1.384 . S
C1328 H1319 0.929 . S
C1328 C1320 1.378 . S
C1328 C1323 1.350 . S
C1329 H1316 0.929 . S
C1329 C1321 1.433 . S
C1329 N1331 1.384 . S
N1330 C1326 1.427 . S
N1330 C1327 1.384 . S
N1331 C1323 1.427 . S
N1331 C1329 1.384 . S
H1332 C1338 0.930 . S
H1333 C1342 0.930 . S
H1334 C1347 0.929 . S
H1335 C1345 0.929 . S
H1336 C1340 0.929 . S
H1337 C1346 0.929 . S
C1338 H1332 0.930 . S
C1338 C1339 1.367 . S
C1338 C1346 1.378 . S
C1339 C1338 1.367 . S
C1339 C1347 1.433 . S
C1340 H1336 0.929 . S
C1340 C1342 1.378 . S
C1340 C1344 1.350 . S
C1341 C1344 1.463 . S
C1341 C1346 1.350 . S
C1341 N1349 1.427 . S
C1342 H1333 0.930 . S
C1342 C1340 1.378 . S
C1342 C1343 1.367 . S
C1343 C1342 1.367 . S
C1343 C1345 1.433 . S
C1344 C1340 1.350 . S
C1344 C1341 1.463 . S
C1344 N1348 1.427 . S
C1345 H1335 0.929 . S
C1345 C1343 1.433 . S
C1345 N1348 1.384 . S
C1346 H1337 0.929 . S
C1346 C1338 1.378 . S
C1346 C1341 1.350 . S
C1347 H1334 0.929 . S
C1347 C1339 1.433 . S
C1347 N1349 1.384 . S
N1348 C1344 1.427 . S
N1348 C1345 1.384 . S
N1349 C1341 1.427 . S
N1349 C1347 1.384 . S
H1350 C1356 0.930 . S
H1351 C1360 0.930 . S
H1352 C1365 0.929 . S
H1353 C1363 0.929 . S
H1354 C1358 0.929 . S
H1355 C1364 0.929 . S
C1356 H1350 0.930 . S
C1356 C1357 1.367 . S
C1356 C1364 1.378 . S
C1357 C1356 1.367 . S
C1357 C1365 1.433 . S
C1358 H1354 0.929 . S
C1358 C1360 1.378 . S
C1358 C1362 1.350 . S
C1359 C1362 1.463 . S
C1359 C1364 1.350 . S
C1359 N1367 1.427 . S
C1360 H1351 0.930 . S
C1360 C1358 1.378 . S
C1360 C1361 1.367 . S
C1361 C1360 1.367 . S
C1361 C1363 1.433 . S
C1362 C1358 1.350 . S
C1362 C1359 1.463 . S
C1362 N1366 1.427 . S
C1363 H1353 0.929 . S
C1363 C1361 1.433 . S
C1363 N1366 1.384 . S
C1364 H1355 0.929 . S
C1364 C1356 1.378 . S
C1364 C1359 1.350 . S
C1365 H1352 0.929 . S
C1365 C1357 1.433 . S
C1365 N1367 1.384 . S
N1366 C1362 1.427 . S
N1366 C1363 1.384 . S
N1367 C1359 1.427 . S
N1367 C1365 1.384 . S
H1368 C1374 0.930 . S
H1369 C1378 0.930 . S
H1370 C1383 0.929 . S
H1371 C1381 0.929 . S
H1372 C1376 0.929 . S
H1373 C1382 0.929 . S
C1374 H1368 0.930 . S
C1374 C1375 1.367 . S
C1374 C1382 1.378 . S
C1375 C1374 1.367 . S
C1375 C1383 1.433 . S
C1376 H1372 0.929 . S
C1376 C1378 1.378 . S
C1376 C1380 1.350 . S
C1377 C1380 1.463 . S
C1377 C1382 1.350 . S
C1377 N1385 1.427 . S
C1378 H1369 0.930 . S
C1378 C1376 1.378 . S
C1378 C1379 1.367 . S
C1379 C1378 1.367 . S
C1379 C1381 1.433 . S
C1380 C1376 1.350 . S
C1380 C1377 1.463 . S
C1380 N1384 1.427 . S
C1381 H1371 0.929 . S
C1381 C1379 1.433 . S
C1381 N1384 1.384 . S
C1382 H1373 0.929 . S
C1382 C1374 1.378 . S
C1382 C1377 1.350 . S
C1383 H1370 0.929 . S
C1383 C1375 1.433 . S
C1383 N1385 1.384 . S
N1384 C1380 1.427 . S
N1384 C1381 1.384 . S
N1385 C1377 1.427 . S
N1385 C1383 1.384 . S
H1386 C1392 0.930 . S
H1387 C1396 0.930 . S
H1388 C1401 0.929 . S
H1389 C1399 0.929 . S
H1390 C1394 0.929 . S
H1391 C1400 0.929 . S
C1392 H1386 0.930 . S
C1392 C1393 1.367 . S
C1392 C1400 1.378 . S
C1393 C1392 1.367 . S
C1393 C1401 1.433 . S
C1394 H1390 0.929 . S
C1394 C1396 1.378 . S
C1394 C1398 1.350 . S
C1395 C1398 1.463 . S
C1395 C1400 1.350 . S
C1395 N1403 1.427 . S
C1396 H1387 0.930 . S
C1396 C1394 1.378 . S
C1396 C1397 1.367 . S
C1397 C1396 1.367 . S
C1397 C1399 1.433 . S
C1398 C1394 1.350 . S
C1398 C1395 1.463 . S
C1398 N1402 1.427 . S
C1399 H1389 0.929 . S
C1399 C1397 1.433 . S
C1399 N1402 1.384 . S
C1400 H1391 0.929 . S
C1400 C1392 1.378 . S
C1400 C1395 1.350 . S
C1401 H1388 0.929 . S
C1401 C1393 1.433 . S
C1401 N1403 1.384 . S
N1402 C1398 1.427 . S
N1402 C1399 1.384 . S
N1403 C1395 1.427 . S
N1403 C1401 1.384 . S
C601 N14 1.103 . S
C605 N5 1.105 . S
C619 N47 1.104 . S
C623 N38 1.106 . S
C637 N71 1.108 . S
C641 N80 1.107 . S
C655 N113 1.104 . S
C659 N104 1.106 . S
C673 N146 1.107 . S
C677 N137 1.108 . S
C691 N170 1.108 . S
C695 N179 1.109 . S
C709 N203 1.108 . S
C713 N212 1.108 . S
C727 N236 1.109 . S
C731 N245 1.109 . S
C745 N278 1.107 . S
C749 N269 1.106 . S
C763 N311 1.107 . S
C767 N302 1.107 . S
C781 N344 1.104 . S
C785 N335 1.105 . S
C799 N368 1.107 . S
C803 N377 1.108 . S
C817 N401 1.106 . S
C821 N410 1.104 . S
C835 N434 1.109 . S
C839 N443 1.109 . S
C853 N467 1.109 . S
C857 N476 1.107 . S
C871 N509 1.103 . S
C875 N500 1.104 . S
C889 N542 1.105 . S
C893 N533 1.107 . S
C907 N566 1.106 . S
C911 N575 1.105 . S
C925 C569 1.518 . S
C929 C8 1.519 . S
C943 C41 1.517 . S
C947 C503 1.518 . S
C961 C536 1.512 . S
C965 C74 1.511 . S
C979 C239 1.517 . S
C983 C107 1.516 . S
C997 C140 1.519 . S
C1001 C272 1.520 . S
C1015 C173 1.510 . S
C1019 C206 1.510 . S
C1033 C305 1.510 . S
C1037 C437 1.510 . S
C1051 C470 1.516 . S
C1055 C338 1.514 . S
C1069 C371 1.520 . S
C1073 C404 1.520 . S
C1087 C28 1.566 . S
C1091 C127 1.567 . S
C1105 C61 1.566 . S
C1109 C160 1.566 . S
C1123 C193 1.566 . S
C1127 C94 1.567 . S
C1141 C182 1.596 . S
C1145 C50 1.596 . S
C1159 C116 1.597 . S
C1163 C83 1.598 . S
C1177 C149 1.602 . S
C1181 C17 1.602 . S
C1195 C325 1.566 . S
C1199 C226 1.566 . S
C1213 C358 1.566 . S
C1217 C259 1.566 . S
C1231 C292 1.566 . S
C1235 C391 1.566 . S
C1249 C380 1.595 . S
C1253 C248 1.595 . S
C1267 C281 1.602 . S
C1271 C314 1.602 . S
C1285 C215 1.602 . S
C1289 C347 1.602 . S
C1303 C523 1.566 . S
C1307 C424 1.567 . S
C1321 C556 1.566 . S
C1325 C457 1.566 . S
C1339 C589 1.566 . S
C1343 C490 1.566 . S
C1357 C446 1.595 . S
C1361 C578 1.595 . S
C1375 C479 1.602 . S
C1379 C512 1.601 . S
C1393 C545 1.597 . S
C1397 C413 1.596 . S
