# Generated by pormake.
# Topology smm, (6)-cn, num edge types: 1
# Building blocks:
#     Node 0, Type 0, BuildingBlock: JUFBIX_clean_sbu_0, # of connection points: 6
#     Node 1, Type 0, BuildingBlock: JUFBIX_clean_sbu_0, # of connection points: 6
#     Node 2, Type 0, BuildingBlock: JUFBIX_clean_sbu_0, # of connection points: 6
#     Node 3, Type 0, BuildingBlock: JUFBIX_clean_sbu_0, # of connection points: 6
#     Node 4, Type 0, BuildingBlock: JUFBIX_clean_sbu_0, # of connection points: 6
#     Node 5, Type 0, BuildingBlock: JUFBIX_clean_sbu_0, # of connection points: 6
#     Node 6, Type 0, BuildingBlock: JUFBIX_clean_sbu_0, # of connection points: 6
#     Node 7, Type 0, BuildingBlock: JUFBIX_clean_sbu_0, # of connection points: 6
#     Node 8, Type 0, BuildingBlock: JUFBIX_clean_sbu_0, # of connection points: 6
#     Edge 9, Type (0, 0), None
#     Edge 10, Type (0, 0), None
#     Edge 11, Type (0, 0), None
#     Edge 12, Type (0, 0), None
#     Edge 13, Type (0, 0), None
#     Edge 14, Type (0, 0), None
#     Edge 15, Type (0, 0), None
#     Edge 16, Type (0, 0), None
#     Edge 17, Type (0, 0), None
#     Edge 18, Type (0, 0), None
#     Edge 19, Type (0, 0), None
#     Edge 20, Type (0, 0), None
#     Edge 21, Type (0, 0), None
#     Edge 22, Type (0, 0), None
#     Edge 23, Type (0, 0), None
#     Edge 24, Type (0, 0), None
#     Edge 25, Type (0, 0), None
#     Edge 26, Type (0, 0), None
#     Edge 27, Type (0, 0), None
#     Edge 28, Type (0, 0), None
#     Edge 29, Type (0, 0), None
#     Edge 30, Type (0, 0), None
#     Edge 31, Type (0, 0), None
#     Edge 32, Type (0, 0), None
#     Edge 33, Type (0, 0), None
#     Edge 34, Type (0, 0), None
#     Edge 35, Type (0, 0), None
# Relax obj value: 0.249
# Max RMSD: 0.191
# Mean RMSD: 0.191
data_MOF--net-smm--node1-JUFBIX_clean_sbu_0--edge1-none
_symmetry_space_group_name_H-M    P1
_symmetry_Int_Tables_number       1
_symmetry_cell_setting            triclinic
loop_
_symmetry_equiv_pos_as_xyz
'x, y, z'
_cell_length_a     30.092361
_cell_length_b     30.092311
_cell_length_c     6.3482142
_cell_angle_alpha  89.996528
_cell_angle_beta   90.00686
_cell_angle_gamma 119.99982
loop_
_atom_site_label
_atom_site_type_symbol
_atom_site_fract_x
_atom_site_fract_y
_atom_site_fract_z
_atom_type_partial_charge
Co0 Co 1.01325 0.16324 0.03446 0.0
C1 C 0.04409 0.20444 0.428 0.0
Co2 Co 0.07261 0.24625 0.02883 0.0
C3 C 0.96259 0.05085 0.03088 0.0
C4 C 0.90909 0.07794 0.01719 0.0
N5 N 0.95989 0.0945 0.03147 0.0
N6 N 0.91573 1.00841 0.0177 0.0
C7 C 0.88203 0.02534 0.00992 0.0
H8 H 0.99804 0.04994 0.03951 0.0
H9 H 0.89208 0.10211 0.00928 0.0
C10 C 0.0417 0.20471 0.63495 0.0
N11 N 0.12518 0.31453 0.00688 0.0
C12 C 0.12302 0.35103 0.8892 0.0
C13 C 0.17572 0.33339 0.04234 0.0
N14 N 0.17007 0.39101 0.84559 0.0
C15 C 0.20333 0.3801 0.94253 0.0
C16 C 0.11044 0.17743 0.01651 0.0
O17 O 1.01142 0.16411 0.73474 0.0
O18 O 0.07002 0.24567 0.73376 0.0
O19 O 0.12176 0.22416 0.01538 0.0
O20 O 0.06354 0.14251 0.02073 0.0
O21 O 0.07446 0.2456 0.32885 0.0
H22 H 0.19184 0.31337 0.12553 0.0
H23 H 0.08773 0.3471 0.82679 0.0
O24 O 1.0156 0.16301 0.32938 0.0
O25 O 0.96457 0.18605 0.06073 0.0
O26 O 1.02296 0.26756 0.05066 0.0
C27 C 0.97682 0.2328 0.08385 0.0
H28 H 0.84074 1.00141 0.99815 0.0
H29 H 0.24468 0.40446 0.94383 0.0
Co30 Co 0.91804 0.87551 0.03447 0.0
C31 C 0.87684 0.86515 0.42799 0.0
Co32 Co 0.83503 0.85187 0.0288 0.0
C33 C 1.03043 0.93724 0.03081 0.0
C34 C 1.00334 0.85665 0.01737 0.0
N35 N 0.98677 0.89089 0.03152 0.0
N36 N 0.07287 0.93282 0.01769 0.0
C37 C 0.05593 0.88219 0.01006 0.0
H38 H 1.03134 0.9736 0.03932 0.0
H39 H 0.97917 0.81547 0.0096 0.0
C40 C 0.87657 0.8625 0.63495 0.0
N41 N 0.76675 0.83615 0.00681 0.0
C42 C 0.73024 0.79749 0.88914 0.0
C43 C 0.74789 0.86783 0.04223 0.0
N44 N 0.69027 0.80456 0.84549 0.0
C45 C 0.70118 0.84874 0.94241 0.0
C46 C 0.90384 0.95851 0.01648 0.0
O47 O 0.91717 0.87281 0.73476 0.0
O48 O 0.8356 0.84985 0.73374 0.0
O49 O 0.85711 0.9231 0.01533 0.0
O50 O 0.93877 0.94654 0.02071 0.0
O51 O 0.83567 0.85436 0.32882 0.0
H52 H 0.76791 0.90397 0.12541 0.0
H53 H 0.73418 0.76613 0.82676 0.0
O54 O 0.91827 0.87809 0.32939 0.0
O55 O 0.89522 0.80402 0.06077 0.0
O56 O 0.81372 0.78091 0.05066 0.0
C57 C 0.84848 0.76952 0.08387 0.0
H58 H 0.07986 0.86482 0.99838 0.0
H59 H 0.67682 0.86572 0.94368 0.0
Co60 Co 0.20576 0.06802 0.03436 0.0
C61 C 0.21613 0.03719 0.42792 0.0
Co62 Co 0.22941 1.00866 0.02877 0.0
C63 C 0.14403 0.11868 0.03087 0.0
C64 C 0.22462 0.17218 0.01704 0.0
N65 N 0.19039 0.12138 0.03137 0.0
N66 N 0.14845 0.16555 0.01772 0.0
C67 C 0.19908 0.19924 0.00985 0.0
H68 H 0.10767 0.08323 0.03956 0.0
H69 H 0.2658 0.18919 0.00905 0.0
C70 C 0.21877 0.03957 0.63488 0.0
N71 N 0.24513 0.95609 0.00683 0.0
C72 C 0.28379 0.95826 0.88917 0.0
C73 C 0.21345 0.90555 0.04225 0.0
N74 N 0.27671 0.91121 0.84554 0.0
C75 C 0.23254 0.87794 0.94245 0.0
C76 C 0.12277 0.97083 0.01641 0.0
O77 O 0.20846 0.06985 0.73465 0.0
O78 O 0.23142 1.01125 0.7337 0.0
O79 O 0.15818 0.95951 0.01531 0.0
O80 O 0.13474 1.01773 0.02058 0.0
O81 O 0.22692 1.00681 0.32879 0.0
H82 H 0.17731 0.88943 0.12542 0.0
H83 H 0.31514 0.99355 0.82678 0.0
O84 O 0.20319 0.06568 0.32928 0.0
O85 O 0.27725 0.1167 0.06068 0.0
O86 O 0.30037 0.05831 0.05062 0.0
C87 C 0.31175 0.10445 0.08381 0.0
H88 H 0.21645 0.24054 0.99805 0.0
H89 H 0.21556 0.8366 0.94373 0.0
Co90 Co 0.67992 0.49657 0.36779 0.0
C91 C 0.71075 0.53777 0.76132 0.0
Co92 Co 0.73928 0.57958 0.36215 0.0
C93 C 0.62926 0.38418 0.36422 0.0
C94 C 0.57576 0.41127 0.35049 0.0
N95 N 0.62656 0.42784 0.36479 0.0
N96 N 0.58239 0.34174 0.35102 0.0
C97 C 0.5487 0.35868 0.34323 0.0
H98 H 0.66471 0.38327 0.37287 0.0
H99 H 0.55875 0.43544 0.34257 0.0
C100 C 0.70837 0.53804 0.96828 0.0
N101 N 0.79185 0.64786 0.34022 0.0
C102 C 0.78968 0.68438 0.22265 0.0
C103 C 0.84239 0.66672 0.37562 0.0
N104 N 0.83673 0.72437 0.17915 0.0
C105 C 0.87 0.71344 0.27589 0.0
C106 C 0.77711 0.51077 0.34984 0.0
O107 O 0.67809 0.49744 0.06808 0.0
O108 O 0.73669 0.57901 0.06709 0.0
O109 O 0.78843 0.5575 0.3487 0.0
O110 O 0.73021 0.47584 0.35406 0.0
O111 O 0.74113 0.57894 0.66217 0.0
H112 H 0.85852 0.64669 0.4587 0.0
H113 H 0.75439 0.68044 0.16023 0.0
O114 O 0.68226 0.49634 0.66271 0.0
O115 O 0.63124 0.51939 0.39406 0.0
O116 O 0.68963 0.60089 0.38398 0.0
C117 C 0.64349 0.56613 0.41717 0.0
H118 H 0.50741 0.33475 0.33145 0.0
H119 H 0.91135 0.73779 0.27711 0.0
Co120 Co 0.5847 0.20884 0.36782 0.0
C121 C 0.5435 0.19848 0.76133 0.0
Co122 Co 0.50169 0.1852 0.36213 0.0
C123 C 0.69709 0.27057 0.36416 0.0
C124 C 0.67 0.18998 0.35068 0.0
N125 N 0.65344 0.22422 0.36486 0.0
N126 N 0.73953 0.26615 0.35102 0.0
C127 C 0.7226 0.21552 0.34337 0.0
H128 H 0.698 0.30694 0.3727 0.0
H129 H 0.64583 0.1488 0.34288 0.0
C130 C 0.54323 0.19583 0.96829 0.0
N131 N 0.43341 0.16949 0.34017 0.0
C132 C 0.3969 0.13081 0.2226 0.0
C133 C 0.41456 0.20118 0.37553 0.0
N134 N 0.35691 0.13786 0.17908 0.0
C135 C 0.36784 0.18206 0.27579 0.0
C136 C 0.57051 0.29184 0.34981 0.0
O137 O 0.58383 0.20614 0.06811 0.0
O138 O 0.50227 0.18318 0.06707 0.0
O139 O 0.52378 0.25643 0.34866 0.0
O140 O 0.60543 0.27987 0.35405 0.0
O141 O 0.50234 0.18769 0.66216 0.0
H142 H 0.43459 0.23733 0.45859 0.0
H143 H 0.40083 0.09945 0.16021 0.0
O144 O 0.58493 0.21142 0.66274 0.0
O145 O 0.56189 0.13735 0.39412 0.0
O146 O 0.48038 0.11424 0.38399 0.0
C147 C 0.51514 0.10286 0.41722 0.0
H148 H 0.74653 0.19815 0.33166 0.0
H149 H 0.34349 0.19906 0.27698 0.0
Co150 Co 0.87243 0.40136 0.36771 0.0
C151 C 0.88279 0.37052 0.76126 0.0
Co152 Co 0.89607 0.34199 0.3621 0.0
C153 C 0.8107 0.45202 0.36421 0.0
C154 C 0.89129 0.50551 0.35036 0.0
N155 N 0.85705 0.45471 0.36471 0.0
N156 N 0.81512 0.49888 0.35105 0.0
C157 C 0.86575 0.53257 0.34316 0.0
H158 H 0.77434 0.41657 0.37291 0.0
H159 H 0.93247 0.52252 0.34237 0.0
C160 C 0.88544 0.3729 0.96822 0.0
N161 N 0.91179 0.28942 0.34018 0.0
C162 C 0.95047 0.29159 0.22262 0.0
C163 C 0.8801 0.23888 0.37554 0.0
N164 N 0.94341 0.24455 0.17911 0.0
C165 C 0.89921 0.21127 0.27582 0.0
C166 C 0.78943 0.30416 0.34975 0.0
O167 O 0.87513 0.40319 0.068 0.0
O168 O 0.89809 0.34458 0.06704 0.0
O169 O 0.82484 0.29284 0.34864 0.0
O170 O 0.8014 0.35106 0.35393 0.0
O171 O 0.89359 0.34014 0.66212 0.0
H172 H 0.84395 0.22275 0.4586 0.0
H173 H 0.98182 0.32688 0.16022 0.0
O174 O 0.86985 0.39901 0.66263 0.0
O175 O 0.94392 0.45004 0.39403 0.0
O176 O 0.96703 0.39164 0.38396 0.0
C177 C 0.97842 0.43778 0.41716 0.0
H178 H 0.88312 0.57387 0.33135 0.0
H179 H 0.88222 0.16993 0.27702 0.0
Co180 Co 0.34657 0.8299 0.70114 0.0
C181 C 0.37741 0.8711 0.09467 0.0
Co182 Co 0.40594 0.91291 0.6955 0.0
C183 C 0.29592 0.71751 0.69756 0.0
C184 C 0.24242 0.7446 0.68385 0.0
N185 N 0.29322 0.76116 0.69814 0.0
N186 N 0.24906 0.67507 0.68438 0.0
C187 C 0.21537 0.692 0.67659 0.0
H188 H 0.33137 0.7166 0.70621 0.0
H189 H 0.2254 0.76876 0.67594 0.0
C190 C 0.37503 0.87137 0.30163 0.0
N191 N 0.4585 0.98119 0.67357 0.0
C192 C 0.45634 1.01771 0.55598 0.0
C193 C 0.50905 1.00005 0.70899 0.0
N194 N 0.50339 0.0577 0.5125 0.0
C195 C 0.53666 0.04677 0.60926 0.0
C196 C 0.44377 0.8441 0.68319 0.0
O197 O 0.34475 0.83077 0.40142 0.0
O198 O 0.40334 0.91234 0.40043 0.0
O199 O 0.45509 0.89083 0.68205 0.0
O200 O 0.39687 0.80917 0.68742 0.0
O201 O 0.40778 0.91227 0.99552 0.0
H202 H 0.52517 0.98002 0.79208 0.0
H203 H 0.42105 1.01377 0.49355 0.0
O204 O 0.34892 0.82967 0.99606 0.0
O205 O 0.29789 0.85271 0.72739 0.0
O206 O 0.35628 0.93422 0.71731 0.0
C207 C 0.31014 0.89945 0.75048 0.0
H208 H 0.17407 0.66807 0.66482 0.0
H209 H 0.578 0.07112 0.61049 0.0
Co210 Co 0.25138 0.54217 0.70115 0.0
C211 C 0.21017 0.53181 0.09466 0.0
Co212 Co 0.16836 0.51853 0.69547 0.0
C213 C 0.36376 0.60391 0.69748 0.0
C214 C 0.33668 0.52332 0.68404 0.0
N215 N 0.32011 0.55755 0.69819 0.0
N216 N 0.40621 0.59949 0.68435 0.0
C217 C 0.38927 0.54886 0.67672 0.0
H218 H 0.36467 0.64027 0.706 0.0
H219 H 0.31251 0.48214 0.67626 0.0
C220 C 0.20991 0.52916 0.30163 0.0
N221 N 0.10008 0.50281 0.67351 0.0
C222 C 0.06357 0.46413 0.55593 0.0
C223 C 0.08123 0.5345 0.70889 0.0
N224 N 1.02358 0.47119 0.51243 0.0
C225 C 0.03451 0.51539 0.60916 0.0
C226 C 0.23718 0.62517 0.68317 0.0
O227 O 0.2505 0.53948 0.40144 0.0
O228 O 0.16894 0.51651 0.40041 0.0
O229 O 0.19045 0.58976 0.68201 0.0
O230 O 0.2721 0.6132 0.6874 0.0
O231 O 0.16901 0.52102 0.99549 0.0
H232 H 0.10126 0.57065 0.79196 0.0
H233 H 0.0675 0.43278 0.49353 0.0
O234 O 0.25161 0.54475 0.99608 0.0
O235 O 0.22857 0.47068 0.72743 0.0
O236 O 0.14705 0.44756 0.71731 0.0
C237 C 0.18182 0.43619 0.75051 0.0
H238 H 0.41321 0.53149 0.66503 0.0
H239 H 1.01015 0.53238 0.61036 0.0
Co240 Co 0.5391 0.7347 0.70101 0.0
C241 C 0.54947 0.70386 0.09456 0.0
Co242 Co 0.56275 0.67534 0.69541 0.0
C243 C 0.47736 0.78535 0.69755 0.0
C244 C 0.55795 0.83885 0.68365 0.0
N245 N 0.52372 0.78805 0.69802 0.0
N246 N 0.48178 0.83222 0.68439 0.0
C247 C 0.53241 0.86591 0.67647 0.0
H248 H 0.441 0.7499 0.70627 0.0
H249 H 0.59913 0.85586 0.67563 0.0
C250 C 0.55211 0.70624 0.30152 0.0
N251 N 0.57847 0.62277 0.67349 0.0
C252 C 0.61714 0.62493 0.55593 0.0
C253 C 0.54678 0.57223 0.70888 0.0
N254 N 0.61009 0.57789 0.51243 0.0
C255 C 0.56589 0.54462 0.60916 0.0
C256 C 0.45611 0.6375 0.68307 0.0
O257 O 0.5418 0.73653 0.4013 0.0
O258 O 0.56476 0.67792 0.40035 0.0
O259 O 0.49152 0.62619 0.68196 0.0
O260 O 0.46808 0.6844 0.68724 0.0
O261 O 0.56026 0.67349 0.99543 0.0
H262 H 0.51063 0.5561 0.79195 0.0
H263 H 0.6485 0.66022 0.49352 0.0
O264 O 0.53652 0.73235 0.99593 0.0
O265 O 0.61059 0.78338 0.72732 0.0
O266 O 0.63371 0.72499 0.71725 0.0
C267 C 0.64509 0.77113 0.75042 0.0
H268 H 0.54977 0.9072 0.66464 0.0
H269 H 0.54889 0.50327 0.61037 0.0
loop_
_geom_bond_atom_site_label_1
_geom_bond_atom_site_label_2
_geom_bond_distance
_geom_bond_site_symmetry_2
_ccdc_geom_bond_type
Co0 N5 2.057 . S
Co0 O17 2.021 1_554 S
Co0 O20 2.062 1_654 S
Co0 O24 2.117 . S
Co0 O25 2.020 . S
C1 O21 1.259 . S
C1 O24 1.258 1_455 S
Co2 N11 2.057 1_554 S
Co2 O18 2.117 1_554 S
Co2 O19 2.020 1_554 S
Co2 O21 2.021 . S
Co2 O26 2.062 1_455 S
C3 N5 1.316 1_556 S
C3 N6 1.347 1_546 S
C3 H8 0.931 . S
C4 N5 1.375 . S
C4 C7 1.350 1_545 S
C4 H9 0.930 . S
N5 Co0 2.057 . S
N5 C3 1.316 1_554 S
N5 C4 1.375 . S
N6 C3 1.347 1_564 S
N6 C7 1.373 . S
C7 C4 1.350 1_565 S
C7 N6 1.373 . S
C7 H28 0.931 . S
H8 C3 0.931 . S
H9 C4 0.930 . S
C10 O17 1.259 . S
C10 O18 1.258 1_655 S
N11 Co2 2.057 1_556 S
N11 C12 1.316 1_556 S
N11 C13 1.375 . S
C12 N11 1.316 1_554 S
C12 N14 1.347 1_554 S
C12 H23 0.931 . S
C13 N11 1.375 . S
C13 C15 1.350 . S
C13 H22 0.930 . S
N14 C12 1.347 1_556 S
N14 C15 1.373 . S
C15 C13 1.350 . S
C15 N14 1.373 . S
C15 H29 0.931 . S
C16 O19 1.256 . S
C16 O20 1.255 . S
O17 Co0 2.021 1_556 S
O17 C10 1.259 . S
O18 Co2 2.117 1_556 S
O18 C10 1.258 1_455 S
O19 Co2 2.020 1_556 S
O19 C16 1.256 . S
O20 Co0 2.062 1_456 S
O20 C16 1.255 . S
O21 C1 1.259 . S
O21 Co2 2.021 . S
H22 C13 0.930 . S
H23 C12 0.931 . S
O24 Co0 2.117 . S
O24 C1 1.258 1_655 S
O25 Co0 2.020 . S
O25 C27 1.256 . S
O26 Co2 2.062 1_655 S
O26 C27 1.255 . S
C27 O25 1.256 . S
C27 O26 1.255 . S
H28 C7 0.931 . S
H29 C15 0.931 . S
Co30 N35 2.057 . S
Co30 O47 2.021 1_554 S
Co30 O50 2.062 1_554 S
Co30 O54 2.117 . S
Co30 O55 2.020 . S
C31 O51 1.259 . S
C31 O54 1.258 . S
Co32 N41 2.057 1_554 S
Co32 O48 2.117 1_554 S
Co32 O49 2.020 1_554 S
Co32 O51 2.021 . S
Co32 O56 2.062 . S
C33 N35 1.316 1_456 S
C33 N36 1.347 1_556 S
C33 H38 0.931 . S
C34 N35 1.375 . S
C34 C37 1.350 1_655 S
C34 H39 0.930 . S
N35 Co30 2.057 . S
N35 C33 1.316 1_654 S
N35 C34 1.375 . S
N36 C33 1.347 1_554 S
N36 C37 1.373 . S
C37 C34 1.350 1_455 S
C37 N36 1.373 . S
C37 H58 0.931 . S
H38 C33 0.931 . S
H39 C34 0.930 . S
C40 O47 1.259 . S
C40 O48 1.258 . S
N41 Co32 2.057 1_556 S
N41 C42 1.316 1_556 S
N41 C43 1.375 . S
C42 N41 1.316 1_554 S
C42 N44 1.347 1_554 S
C42 H53 0.931 . S
C43 N41 1.375 . S
C43 C45 1.350 . S
C43 H52 0.930 . S
N44 C42 1.347 1_556 S
N44 C45 1.373 . S
C45 C43 1.350 . S
C45 N44 1.373 . S
C45 H59 0.931 . S
C46 O49 1.256 . S
C46 O50 1.255 . S
O47 Co30 2.021 1_556 S
O47 C40 1.259 . S
O48 Co32 2.117 1_556 S
O48 C40 1.258 . S
O49 Co32 2.020 1_556 S
O49 C46 1.256 . S
O50 Co30 2.062 1_556 S
O50 C46 1.255 . S
O51 C31 1.259 . S
O51 Co32 2.021 . S
H52 C43 0.930 . S
H53 C42 0.931 . S
O54 Co30 2.117 . S
O54 C31 1.258 . S
O55 Co30 2.020 . S
O55 C57 1.256 . S
O56 Co32 2.062 . S
O56 C57 1.255 . S
C57 O55 1.256 . S
C57 O56 1.255 . S
H58 C37 0.931 . S
H59 C45 0.931 . S
Co60 N65 2.057 . S
Co60 O77 2.021 1_554 S
Co60 O80 2.062 1_544 S
Co60 O84 2.117 . S
Co60 O85 2.020 . S
C61 O81 1.237 1_545 S
C61 O84 1.280 . S
Co62 N71 2.057 1_554 S
Co62 O78 2.117 1_554 S
Co62 O79 2.020 1_554 S
Co62 O81 2.021 . S
Co62 O86 2.062 1_565 S
C63 N65 1.316 1_556 S
C63 N66 1.347 1_556 S
C63 H68 0.931 . S
C64 N65 1.375 . S
C64 C67 1.350 . S
C64 H69 0.930 . S
N65 Co60 2.057 . S
N65 C63 1.316 1_554 S
N65 C64 1.375 . S
N66 C63 1.347 1_554 S
N66 C67 1.373 . S
C67 C64 1.350 . S
C67 N66 1.373 . S
C67 H88 0.931 . S
H68 C63 0.931 . S
H69 C64 0.930 . S
C70 O77 1.259 . S
C70 O78 1.258 1_545 S
N71 Co62 2.057 1_556 S
N71 C72 1.316 1_556 S
N71 C73 1.375 . S
C72 N71 1.316 1_554 S
C72 N74 1.347 1_554 S
C72 H83 0.931 . S
C73 N71 1.375 . S
C73 C75 1.350 . S
C73 H82 0.930 . S
N74 C72 1.347 1_556 S
N74 C75 1.373 . S
C75 C73 1.350 . S
C75 N74 1.373 . S
C75 H89 0.931 . S
C76 O79 1.256 . S
C76 O80 1.255 . S
O77 Co60 2.021 1_556 S
O77 C70 1.259 . S
O78 Co62 2.117 1_556 S
O78 C70 1.258 1_565 S
O79 Co62 2.020 1_556 S
O79 C76 1.256 . S
O80 Co60 2.062 1_566 S
O80 C76 1.255 . S
O81 C61 1.237 1_565 S
O81 Co62 2.021 . S
H82 C73 0.930 . S
H83 C72 0.931 . S
O84 Co60 2.117 . S
O84 C61 1.280 . S
O85 Co60 2.020 . S
O85 C87 1.256 . S
O86 Co62 2.062 1_545 S
O86 C87 1.255 . S
C87 O85 1.256 . S
C87 O86 1.255 . S
H88 C67 0.931 . S
H89 C75 0.931 . S
Co90 N95 2.057 . S
Co90 O107 2.021 . S
Co90 O110 2.062 . S
Co90 O114 2.117 . S
Co90 O115 2.020 . S
C91 O111 1.259 . S
C91 O114 1.258 . S
Co92 N101 2.057 . S
Co92 O108 2.117 . S
Co92 O109 2.020 . S
Co92 O111 2.021 . S
Co92 O116 2.062 . S
C93 N95 1.316 . S
C93 N96 1.347 . S
C93 H98 0.931 . S
C94 N95 1.375 . S
C94 C97 1.350 . S
C94 H99 0.930 . S
N95 Co90 2.057 . S
N95 C93 1.316 . S
N95 C94 1.375 . S
N96 C93 1.347 . S
N96 C97 1.373 . S
C97 C94 1.350 . S
C97 N96 1.373 . S
C97 H118 0.931 . S
H98 C93 0.931 . S
H99 C94 0.930 . S
C100 O107 1.259 1_556 S
C100 O108 1.258 1_556 S
N101 Co92 2.057 . S
N101 C102 1.316 . S
N101 C103 1.375 . S
C102 N101 1.316 . S
C102 N104 1.347 . S
C102 H113 0.931 . S
C103 N101 1.375 . S
C103 C105 1.350 . S
C103 H112 0.930 1_554 S
N104 C102 1.347 . S
N104 C105 1.373 . S
C105 C103 1.350 . S
C105 N104 1.373 . S
C105 H119 0.931 1_554 S
C106 O109 1.256 . S
C106 O110 1.255 . S
O107 Co90 2.021 . S
O107 C100 1.259 1_554 S
O108 Co92 2.117 . S
O108 C100 1.258 1_554 S
O109 Co92 2.020 . S
O109 C106 1.256 . S
O110 Co90 2.062 . S
O110 C106 1.255 . S
O111 C91 1.259 . S
O111 Co92 2.021 . S
H112 C103 0.930 1_556 S
H113 C102 0.931 . S
O114 Co90 2.117 . S
O114 C91 1.258 . S
O115 Co90 2.020 . S
O115 C117 1.256 . S
O116 Co92 2.062 . S
O116 C117 1.255 . S
C117 O115 1.256 . S
C117 O116 1.255 . S
H118 C97 0.931 . S
H119 C105 0.931 1_556 S
Co120 N125 2.057 . S
Co120 O137 2.021 . S
Co120 O140 2.062 . S
Co120 O144 2.117 . S
Co120 O145 2.020 . S
C121 O141 1.259 . S
C121 O144 1.258 . S
Co122 N131 2.057 . S
Co122 O138 2.117 . S
Co122 O139 2.020 . S
Co122 O141 2.021 . S
Co122 O146 2.062 . S
C123 N125 1.316 . S
C123 N126 1.347 . S
C123 H128 0.931 . S
C124 N125 1.375 . S
C124 C127 1.350 . S
C124 H129 0.930 . S
N125 Co120 2.057 . S
N125 C123 1.316 . S
N125 C124 1.375 . S
N126 C123 1.347 . S
N126 C127 1.373 . S
C127 C124 1.350 . S
C127 N126 1.373 . S
C127 H148 0.931 . S
H128 C123 0.931 . S
H129 C124 0.930 . S
C130 O137 1.259 1_556 S
C130 O138 1.258 1_556 S
N131 Co122 2.057 . S
N131 C132 1.316 . S
N131 C133 1.375 . S
C132 N131 1.316 . S
C132 N134 1.347 . S
C132 H143 0.931 . S
C133 N131 1.375 . S
C133 C135 1.350 . S
C133 H142 0.930 1_554 S
N134 C132 1.347 . S
N134 C135 1.373 . S
C135 C133 1.350 . S
C135 N134 1.373 . S
C135 H149 0.931 1_554 S
C136 O139 1.256 . S
C136 O140 1.255 . S
O137 Co120 2.021 . S
O137 C130 1.259 1_554 S
O138 Co122 2.117 . S
O138 C130 1.258 1_554 S
O139 Co122 2.020 . S
O139 C136 1.256 . S
O140 Co120 2.062 . S
O140 C136 1.255 . S
O141 C121 1.259 . S
O141 Co122 2.021 . S
H142 C133 0.930 1_556 S
H143 C132 0.931 . S
O144 Co120 2.117 . S
O144 C121 1.258 . S
O145 Co120 2.020 . S
O145 C147 1.256 . S
O146 Co122 2.062 . S
O146 C147 1.255 . S
C147 O145 1.256 . S
C147 O146 1.255 . S
H148 C127 0.931 . S
H149 C135 0.931 1_556 S
Co150 N155 2.057 . S
Co150 O167 2.021 . S
Co150 O170 2.062 . S
Co150 O174 2.117 . S
Co150 O175 2.020 . S
C151 O171 1.259 . S
C151 O174 1.258 . S
Co152 N161 2.057 . S
Co152 O168 2.117 . S
Co152 O169 2.020 . S
Co152 O171 2.021 . S
Co152 O176 2.062 . S
C153 N155 1.316 . S
C153 N156 1.347 . S
C153 H158 0.931 . S
C154 N155 1.375 . S
C154 C157 1.350 . S
C154 H159 0.930 . S
N155 Co150 2.057 . S
N155 C153 1.316 . S
N155 C154 1.375 . S
N156 C153 1.347 . S
N156 C157 1.373 . S
C157 C154 1.350 . S
C157 N156 1.373 . S
C157 H178 0.931 . S
H158 C153 0.931 . S
H159 C154 0.930 . S
C160 O167 1.259 1_556 S
C160 O168 1.258 1_556 S
N161 Co152 2.057 . S
N161 C162 1.316 . S
N161 C163 1.375 . S
C162 N161 1.316 . S
C162 N164 1.347 . S
C162 H173 0.931 . S
C163 N161 1.375 . S
C163 C165 1.350 . S
C163 H172 0.930 1_554 S
N164 C162 1.347 . S
N164 C165 1.373 . S
C165 C163 1.350 . S
C165 N164 1.373 . S
C165 H179 0.931 1_554 S
C166 O169 1.256 . S
C166 O170 1.255 . S
O167 Co150 2.021 . S
O167 C160 1.259 1_554 S
O168 Co152 2.117 . S
O168 C160 1.258 1_554 S
O169 Co152 2.020 . S
O169 C166 1.256 . S
O170 Co150 2.062 . S
O170 C166 1.255 . S
O171 C151 1.259 . S
O171 Co152 2.021 . S
H172 C163 0.930 1_556 S
H173 C162 0.931 . S
O174 Co150 2.117 . S
O174 C151 1.258 . S
O175 Co150 2.020 . S
O175 C177 1.256 . S
O176 Co152 2.062 . S
O176 C177 1.255 . S
C177 O175 1.256 . S
C177 O176 1.255 . S
H178 C157 0.931 . S
H179 C165 0.931 1_556 S
Co180 N185 2.057 . S
Co180 O197 2.021 . S
Co180 O200 2.062 . S
Co180 O204 2.117 . S
Co180 O205 2.020 . S
C181 O201 1.259 1_554 S
C181 O204 1.258 1_554 S
Co182 N191 2.057 . S
Co182 O198 2.117 . S
Co182 O199 2.020 . S
Co182 O201 2.022 . S
Co182 O206 2.062 . S
C183 N185 1.316 . S
C183 N186 1.347 . S
C183 H188 0.931 . S
C184 N185 1.375 . S
C184 C187 1.350 . S
C184 H189 0.930 1_556 S
N185 Co180 2.057 . S
N185 C183 1.316 . S
N185 C184 1.375 . S
N186 C183 1.347 . S
N186 C187 1.373 . S
C187 C184 1.350 . S
C187 N186 1.373 . S
C187 H208 0.931 1_556 S
H188 C183 0.931 . S
H189 C184 0.930 1_554 S
C190 O197 1.259 . S
C190 O198 1.258 . S
N191 Co182 2.057 . S
N191 C192 1.316 1_565 S
N191 C193 1.375 . S
C192 N191 1.316 1_545 S
C192 N194 1.347 . S
C192 H203 0.931 . S
C193 N191 1.375 . S
C193 C195 1.350 1_565 S
C193 H202 0.930 . S
N194 C192 1.347 . S
N194 C195 1.373 . S
C195 C193 1.350 1_545 S
C195 N194 1.373 . S
C195 H209 0.931 . S
C196 O199 1.256 . S
C196 O200 1.255 . S
O197 Co180 2.021 . S
O197 C190 1.259 . S
O198 Co182 2.117 . S
O198 C190 1.258 . S
O199 Co182 2.020 . S
O199 C196 1.256 . S
O200 Co180 2.062 . S
O200 C196 1.255 . S
O201 C181 1.259 1_556 S
O201 Co182 2.022 . S
H202 C193 0.930 . S
H203 C192 0.931 . S
O204 Co180 2.117 . S
O204 C181 1.258 1_556 S
O205 Co180 2.020 . S
O205 C207 1.256 . S
O206 Co182 2.062 . S
O206 C207 1.255 . S
C207 O205 1.256 . S
C207 O206 1.255 . S
H208 C187 0.931 1_554 S
H209 C195 0.931 . S
Co210 N215 2.057 . S
Co210 O227 2.021 . S
Co210 O230 2.062 . S
Co210 O234 2.117 . S
Co210 O235 2.020 . S
C211 O231 1.259 1_554 S
C211 O234 1.258 1_554 S
Co212 N221 2.057 . S
Co212 O228 2.117 . S
Co212 O229 2.020 . S
Co212 O231 2.022 . S
Co212 O236 2.062 . S
C213 N215 1.316 . S
C213 N216 1.347 . S
C213 H218 0.931 . S
C214 N215 1.375 . S
C214 C217 1.350 . S
C214 H219 0.930 1_556 S
N215 Co210 2.057 . S
N215 C213 1.316 . S
N215 C214 1.375 . S
N216 C213 1.347 . S
N216 C217 1.373 . S
C217 C214 1.350 . S
C217 N216 1.373 . S
C217 H238 0.931 1_556 S
H218 C213 0.931 . S
H219 C214 0.930 1_554 S
C220 O227 1.259 . S
C220 O228 1.258 . S
N221 Co212 2.057 . S
N221 C222 1.316 . S
N221 C223 1.375 . S
C222 N221 1.316 . S
C222 N224 1.347 1_455 S
C222 H233 0.931 . S
C223 N221 1.375 . S
C223 C225 1.350 1_455 S
C223 H232 0.930 . S
N224 C222 1.347 1_655 S
N224 C225 1.373 . S
C225 C223 1.350 1_655 S
C225 N224 1.373 . S
C225 H239 0.931 . S
C226 O229 1.256 . S
C226 O230 1.255 . S
O227 Co210 2.021 . S
O227 C220 1.259 . S
O228 Co212 2.117 . S
O228 C220 1.258 . S
O229 Co212 2.020 . S
O229 C226 1.256 . S
O230 Co210 2.062 . S
O230 C226 1.255 . S
O231 C211 1.259 1_556 S
O231 Co212 2.022 . S
H232 C223 0.930 . S
H233 C222 0.931 . S
O234 Co210 2.117 . S
O234 C211 1.258 1_556 S
O235 Co210 2.020 . S
O235 C237 1.256 . S
O236 Co212 2.062 . S
O236 C237 1.255 . S
C237 O235 1.256 . S
C237 O236 1.255 . S
H238 C217 0.931 1_554 S
H239 C225 0.931 . S
Co240 N245 2.057 . S
Co240 O257 2.021 . S
Co240 O260 2.062 . S
Co240 O264 2.117 . S
Co240 O265 2.020 . S
C241 O261 1.259 1_554 S
C241 O264 1.258 1_554 S
Co242 N251 2.057 . S
Co242 O258 2.117 . S
Co242 O259 2.020 . S
Co242 O261 2.022 . S
Co242 O266 2.062 . S
C243 N245 1.316 . S
C243 N246 1.347 . S
C243 H248 0.931 . S
C244 N245 1.375 . S
C244 C247 1.350 . S
C244 H249 0.930 1_556 S
N245 Co240 2.057 . S
N245 C243 1.316 . S
N245 C244 1.375 . S
N246 C243 1.347 . S
N246 C247 1.373 . S
C247 C244 1.350 . S
C247 N246 1.373 . S
C247 H268 0.931 1_556 S
H248 C243 0.931 . S
H249 C244 0.930 1_554 S
C250 O257 1.259 . S
C250 O258 1.258 . S
N251 Co242 2.057 . S
N251 C252 1.316 . S
N251 C253 1.375 . S
C252 N251 1.316 . S
C252 N254 1.347 . S
C252 H263 0.931 . S
C253 N251 1.375 . S
C253 C255 1.350 . S
C253 H262 0.930 . S
N254 C252 1.347 . S
N254 C255 1.373 . S
C255 C253 1.350 . S
C255 N254 1.373 . S
C255 H269 0.931 . S
C256 O259 1.256 . S
C256 O260 1.255 . S
O257 Co240 2.021 . S
O257 C250 1.259 . S
O258 Co242 2.117 . S
O258 C250 1.258 . S
O259 Co242 2.020 . S
O259 C256 1.256 . S
O260 Co240 2.062 . S
O260 C256 1.255 . S
O261 C241 1.259 1_556 S
O261 Co242 2.022 . S
H262 C253 0.930 . S
H263 C252 0.931 . S
O264 Co240 2.117 . S
O264 C241 1.258 1_556 S
O265 Co240 2.020 . S
O265 C267 1.256 . S
O266 Co242 2.062 . S
O266 C267 1.255 . S
C267 O265 1.256 . S
C267 O266 1.255 . S
H268 C247 0.931 1_554 S
H269 C255 0.931 . S
N14 C237 1.842 . S
N44 C267 1.843 . S
N74 C207 1.843 . S
N134 C87 1.843 . S
N164 C27 1.843 . S
C57 N104 1.843 . S
N224 C177 1.843 . S
N254 C117 1.843 . S
C147 N194 1.843 . S
N66 C16 1.527 1_554 S
C46 N6 1.527 1_556 S
N36 C76 1.527 1_554 S
C106 N156 1.527 . S
N96 C136 1.527 . S
N126 C166 1.526 . S
N246 C196 1.527 . S
C226 N186 1.526 . S
C256 N216 1.527 . S
C10 C1 1.384 1_655 S
C40 C31 1.384 . S
C70 C61 1.397 . S
C91 C100 1.384 . S
C121 C130 1.384 . S
C151 C160 1.384 . S
C190 C181 1.384 . S
C211 C220 1.384 . S
C250 C241 1.384 . S
