# Generated by pormake.
# Topology smd, (6)-cn, num edge types: 1
# Building blocks:
#     Node 0, Type 0, BuildingBlock: CUWYAW_clean_sbu_0, # of connection points: 6
#     Node 1, Type 0, BuildingBlock: CUWYAW_clean_sbu_0, # of connection points: 6
#     Node 2, Type 0, BuildingBlock: CUWYAW_clean_sbu_0, # of connection points: 6
#     Node 3, Type 0, BuildingBlock: CUWYAW_clean_sbu_0, # of connection points: 6
#     Node 4, Type 0, BuildingBlock: CUWYAW_clean_sbu_0, # of connection points: 6
#     Node 5, Type 0, BuildingBlock: CUWYAW_clean_sbu_0, # of connection points: 6
#     Node 6, Type 0, BuildingBlock: CUWYAW_clean_sbu_0, # of connection points: 6
#     Node 7, Type 0, BuildingBlock: CUWYAW_clean_sbu_0, # of connection points: 6
#     Node 8, Type 0, BuildingBlock: CUWYAW_clean_sbu_0, # of connection points: 6
#     Node 9, Type 0, BuildingBlock: CUWYAW_clean_sbu_0, # of connection points: 6
#     Node 10, Type 0, BuildingBlock: CUWYAW_clean_sbu_0, # of connection points: 6
#     Node 11, Type 0, BuildingBlock: CUWYAW_clean_sbu_0, # of connection points: 6
#     Node 12, Type 0, BuildingBlock: CUWYAW_clean_sbu_0, # of connection points: 6
#     Node 13, Type 0, BuildingBlock: CUWYAW_clean_sbu_0, # of connection points: 6
#     Node 14, Type 0, BuildingBlock: CUWYAW_clean_sbu_0, # of connection points: 6
#     Node 15, Type 0, BuildingBlock: CUWYAW_clean_sbu_0, # of connection points: 6
#     Node 16, Type 0, BuildingBlock: CUWYAW_clean_sbu_0, # of connection points: 6
#     Node 17, Type 0, BuildingBlock: CUWYAW_clean_sbu_0, # of connection points: 6
#     Edge 18, Type (0, 0), BuildingBlock: OJICUG_clean_linker_0, # of connection points: 2
#     Edge 19, Type (0, 0), BuildingBlock: OJICUG_clean_linker_0, # of connection points: 2
#     Edge 20, Type (0, 0), BuildingBlock: OJICUG_clean_linker_0, # of connection points: 2
#     Edge 21, Type (0, 0), BuildingBlock: OJICUG_clean_linker_0, # of connection points: 2
#     Edge 22, Type (0, 0), BuildingBlock: OJICUG_clean_linker_0, # of connection points: 2
#     Edge 23, Type (0, 0), BuildingBlock: OJICUG_clean_linker_0, # of connection points: 2
#     Edge 24, Type (0, 0), BuildingBlock: OJICUG_clean_linker_0, # of connection points: 2
#     Edge 25, Type (0, 0), BuildingBlock: OJICUG_clean_linker_0, # of connection points: 2
#     Edge 26, Type (0, 0), BuildingBlock: OJICUG_clean_linker_0, # of connection points: 2
#     Edge 27, Type (0, 0), BuildingBlock: OJICUG_clean_linker_0, # of connection points: 2
#     Edge 28, Type (0, 0), BuildingBlock: OJICUG_clean_linker_0, # of connection points: 2
#     Edge 29, Type (0, 0), BuildingBlock: OJICUG_clean_linker_0, # of connection points: 2
#     Edge 30, Type (0, 0), BuildingBlock: OJICUG_clean_linker_0, # of connection points: 2
#     Edge 31, Type (0, 0), BuildingBlock: OJICUG_clean_linker_0, # of connection points: 2
#     Edge 32, Type (0, 0), BuildingBlock: OJICUG_clean_linker_0, # of connection points: 2
#     Edge 33, Type (0, 0), BuildingBlock: OJICUG_clean_linker_0, # of connection points: 2
#     Edge 34, Type (0, 0), BuildingBlock: OJICUG_clean_linker_0, # of connection points: 2
#     Edge 35, Type (0, 0), BuildingBlock: OJICUG_clean_linker_0, # of connection points: 2
#     Edge 36, Type (0, 0), BuildingBlock: OJICUG_clean_linker_0, # of connection points: 2
#     Edge 37, Type (0, 0), BuildingBlock: OJICUG_clean_linker_0, # of connection points: 2
#     Edge 38, Type (0, 0), BuildingBlock: OJICUG_clean_linker_0, # of connection points: 2
#     Edge 39, Type (0, 0), BuildingBlock: OJICUG_clean_linker_0, # of connection points: 2
#     Edge 40, Type (0, 0), BuildingBlock: OJICUG_clean_linker_0, # of connection points: 2
#     Edge 41, Type (0, 0), BuildingBlock: OJICUG_clean_linker_0, # of connection points: 2
#     Edge 42, Type (0, 0), BuildingBlock: OJICUG_clean_linker_0, # of connection points: 2
#     Edge 43, Type (0, 0), BuildingBlock: OJICUG_clean_linker_0, # of connection points: 2
#     Edge 44, Type (0, 0), BuildingBlock: OJICUG_clean_linker_0, # of connection points: 2
#     Edge 45, Type (0, 0), BuildingBlock: OJICUG_clean_linker_0, # of connection points: 2
#     Edge 46, Type (0, 0), BuildingBlock: OJICUG_clean_linker_0, # of connection points: 2
#     Edge 47, Type (0, 0), BuildingBlock: OJICUG_clean_linker_0, # of connection points: 2
#     Edge 48, Type (0, 0), BuildingBlock: OJICUG_clean_linker_0, # of connection points: 2
#     Edge 49, Type (0, 0), BuildingBlock: OJICUG_clean_linker_0, # of connection points: 2
#     Edge 50, Type (0, 0), BuildingBlock: OJICUG_clean_linker_0, # of connection points: 2
#     Edge 51, Type (0, 0), BuildingBlock: OJICUG_clean_linker_0, # of connection points: 2
#     Edge 52, Type (0, 0), BuildingBlock: OJICUG_clean_linker_0, # of connection points: 2
#     Edge 53, Type (0, 0), BuildingBlock: OJICUG_clean_linker_0, # of connection points: 2
#     Edge 54, Type (0, 0), BuildingBlock: OJICUG_clean_linker_0, # of connection points: 2
#     Edge 55, Type (0, 0), BuildingBlock: OJICUG_clean_linker_0, # of connection points: 2
#     Edge 56, Type (0, 0), BuildingBlock: OJICUG_clean_linker_0, # of connection points: 2
#     Edge 57, Type (0, 0), BuildingBlock: OJICUG_clean_linker_0, # of connection points: 2
#     Edge 58, Type (0, 0), BuildingBlock: OJICUG_clean_linker_0, # of connection points: 2
#     Edge 59, Type (0, 0), BuildingBlock: OJICUG_clean_linker_0, # of connection points: 2
#     Edge 60, Type (0, 0), BuildingBlock: OJICUG_clean_linker_0, # of connection points: 2
#     Edge 61, Type (0, 0), BuildingBlock: OJICUG_clean_linker_0, # of connection points: 2
#     Edge 62, Type (0, 0), BuildingBlock: OJICUG_clean_linker_0, # of connection points: 2
#     Edge 63, Type (0, 0), BuildingBlock: OJICUG_clean_linker_0, # of connection points: 2
#     Edge 64, Type (0, 0), BuildingBlock: OJICUG_clean_linker_0, # of connection points: 2
#     Edge 65, Type (0, 0), BuildingBlock: OJICUG_clean_linker_0, # of connection points: 2
#     Edge 66, Type (0, 0), BuildingBlock: OJICUG_clean_linker_0, # of connection points: 2
#     Edge 67, Type (0, 0), BuildingBlock: OJICUG_clean_linker_0, # of connection points: 2
#     Edge 68, Type (0, 0), BuildingBlock: OJICUG_clean_linker_0, # of connection points: 2
#     Edge 69, Type (0, 0), BuildingBlock: OJICUG_clean_linker_0, # of connection points: 2
#     Edge 70, Type (0, 0), BuildingBlock: OJICUG_clean_linker_0, # of connection points: 2
#     Edge 71, Type (0, 0), BuildingBlock: OJICUG_clean_linker_0, # of connection points: 2
# Relax obj value: 0.294
# Max RMSD: 0.377
# Mean RMSD: 0.350
data_MOF--net-smd--node1-CUWYAW_clean_sbu_0--edge1-OJICUG_clean_linker_0
_symmetry_space_group_name_H-M    P1
_symmetry_Int_Tables_number       1
_symmetry_cell_setting            triclinic
loop_
_symmetry_equiv_pos_as_xyz
'x, y, z'
_cell_length_a     46.211074
_cell_length_b     46.668989
_cell_length_c     20.632226
_cell_angle_alpha  92.512772
_cell_angle_beta   92.410563
_cell_angle_gamma 120.16786
loop_
_atom_site_label
_atom_site_type_symbol
_atom_site_fract_x
_atom_site_fract_y
_atom_site_fract_z
_atom_type_partial_charge
C0 C 0.97847 0.2203 0.36388 0.0
Eu1 Eu 1.01013 0.23726 0.4797 0.0
C2 C 0.98807 0.22683 0.29659 0.0
C3 C 0.96471 0.2247 0.24818 0.0
C4 C 0.97385 0.23194 0.18449 0.0
C5 C 1.00663 0.24157 0.1681 0.0
C6 C 1.03003 0.24393 0.2172 0.0
C7 C 1.02082 0.23657 0.28072 0.0
C8 C 0.98526 0.26194 0.57521 0.0
C9 C 0.07305 0.30787 0.46304 0.0
C10 C 0.07841 0.28795 0.71013 0.0
Eu11 Eu 0.05258 0.26622 0.59062 0.0
C12 C 0.06714 0.28235 0.7765 0.0
C13 C 0.09037 0.28792 0.82831 0.0
C14 C 0.0802 0.28189 0.89155 0.0
C15 C 0.04655 0.27023 0.90428 0.0
C16 C 1.02336 0.26516 0.85226 0.0
C17 C 0.03353 0.27097 0.78878 0.0
C18 C 0.08446 0.2464 0.5073 0.0
C19 C 0.98935 0.18746 0.58249 0.0
O20 O 0.9876 0.20185 0.39442 0.0
O21 O 0.98333 0.24601 0.40059 0.0
O22 O 0.96829 0.23288 0.5442 0.0
O23 O 1.01407 0.27629 0.55458 0.0
O24 O 0.05378 0.27818 0.43429 0.0
O25 O 0.07435 0.31158 0.5276 0.0
O26 O 0.06692 0.3026 0.67334 0.0
O27 O 0.07868 0.26324 0.67859 0.0
O28 O 0.09798 0.27465 0.54104 0.0
O29 O 0.0531 0.22933 0.51689 0.0
O30 O 1.00684 0.21591 0.61977 0.0
O31 O 0.99199 0.18835 0.51987 0.0
H32 H 0.93937 0.21746 0.25966 0.0
H33 H 0.95508 0.22955 0.14797 0.0
H34 H 0.05566 0.25189 0.20682 0.0
H35 H 0.03936 0.23873 0.31755 0.0
H36 H 0.1164 0.29675 0.81978 0.0
H37 H 0.09876 0.28646 0.9306 0.0
H38 H 0.99722 0.25593 0.86036 0.0
H39 H 1.01512 0.26623 0.74931 0.0
C40 C 0.77965 0.82486 0.70636 0.0
Eu41 Eu 0.78837 0.80659 0.59066 0.0
C42 C 0.7792 0.81434 0.77282 0.0
C43 C 0.76814 0.82712 0.82243 0.0
C44 C 0.76801 0.81784 0.88604 0.0
C45 C 0.77895 0.79553 0.90136 0.0
C46 C 0.78946 0.78229 0.85103 0.0
C47 C 0.78964 0.79166 0.78737 0.0
C48 C 0.74168 0.78842 0.48474 0.0
C49 C 0.77793 0.7343 0.60274 0.0
C50 C 0.80291 0.75049 0.36957 0.0
Eu51 Eu 0.80436 0.78186 0.47944 0.0
C52 C 0.79593 0.754 0.30096 0.0
C53 C 0.80312 0.73775 0.25093 0.0
C54 C 0.79837 0.74271 0.18572 0.0
C55 C 0.78638 0.76411 0.16949 0.0
C56 C 0.77821 0.77948 0.22006 0.0
C57 C 0.78306 0.77457 0.28506 0.0
C58 C 0.86094 0.81616 0.56082 0.0
C59 C 0.81952 0.85791 0.48742 0.0
O60 O 0.80864 0.83855 0.6807 0.0
O61 O 0.75504 0.80384 0.6651 0.0
O62 O 0.75276 0.81541 0.52234 0.0
O63 O 0.7553 0.77279 0.50547 0.0
O64 O 0.77038 0.75616 0.62535 0.0
O65 O 0.79394 0.73941 0.54825 0.0
O66 O 0.77766 0.74027 0.40589 0.0
O67 O 0.83019 0.77521 0.39875 0.0
O68 O 0.85869 0.8208 0.49981 0.0
O69 O 0.83156 0.79629 0.57836 0.0
O70 O 0.80674 0.8305 0.44732 0.0
O71 O 0.82268 0.85509 0.54986 0.0
H72 H 0.75973 0.84445 0.81203 0.0
H73 H 0.75922 0.8281 0.92325 0.0
H74 H 0.79832 0.76529 0.86109 0.0
H75 H 0.79827 0.78148 0.74969 0.0
H76 H 0.81303 0.72173 0.26233 0.0
H77 H 0.80511 0.73062 0.14823 0.0
H78 H 0.76827 0.79554 0.20948 0.0
H79 H 0.77721 0.78723 0.32304 0.0
C80 C 0.27668 0.07102 0.36504 0.0
Eu81 Eu 0.26669 0.04088 0.47282 0.0
C82 C 0.27691 0.06253 0.29572 0.0
C83 C 0.29423 0.08795 0.2545 0.0
C84 C 0.2954 0.08027 0.18873 0.0
C85 C 0.27935 0.04697 0.1632 0.0
C86 C 0.26221 1.02155 0.20498 0.0
C87 C 0.26098 0.02927 0.27065 0.0
C88 C 0.31775 0.07053 0.57303 0.0
C89 C 0.28022 0.98148 0.44188 0.0
C90 C 0.25534 0.97671 0.68653 0.0
Eu91 Eu 0.25714 1.00118 0.57416 0.0
C92 C 0.26223 0.98839 0.75567 0.0
C93 C 0.2498 0.9651 0.80255 0.0
C94 C 0.25506 0.97561 0.86859 0.0
C95 C 0.27295 1.0097 0.88897 0.0
C96 C 0.2858 0.03301 0.84159 0.0
C97 C 0.28039 0.02243 0.77542 0.0
C98 C 0.20318 0.9666 0.48567 0.0
C99 C 0.23761 0.06102 0.58264 0.0
O100 O 0.2477 0.05602 0.39039 0.0
O101 O 0.30065 0.0723 0.40291 0.0
O102 O 0.30359 0.08507 0.54488 0.0
O103 O 0.30468 0.04141 0.54686 0.0
O104 O 0.26957 1.00009 0.41706 0.0
O105 O 0.28168 0.97991 0.50599 0.0
O106 O 0.28118 0.98824 0.65141 0.0
O107 O 0.22953 0.97611 0.65683 0.0
O108 O 0.22052 0.95506 0.51271 0.0
O109 O 0.21697 0.99771 0.50305 0.0
O110 O 0.25084 0.04578 0.61567 0.0
O111 O 0.23425 0.05656 0.51943 0.0
H112 H 0.30697 0.11376 0.27325 0.0
H113 H 0.30914 0.10039 0.15801 0.0
H114 H 0.24925 0.99568 0.18669 0.0
H115 H 0.2475 1.00927 0.30173 0.0
H116 H 0.2356 0.93873 0.788 0.0
H117 H 0.24435 0.957 0.90356 0.0
H118 H 0.30002 0.05941 0.85561 0.0
H119 H 0.29013 0.04077 0.73972 0.0
C120 C 0.98196 0.75336 0.386 0.0
Eu121 Eu 1.00759 0.77736 0.50472 0.0
C122 C 0.99285 0.75854 0.31954 0.0
C123 C 0.96859 0.74717 0.26708 0.0
C124 C 0.97826 0.75316 0.20358 0.0
C125 C 1.01244 0.77065 0.19138 0.0
C126 C 0.03675 0.78129 0.24414 0.0
C127 C 1.02702 0.77539 0.30782 0.0
C128 C 0.97338 0.79532 0.58613 0.0
C129 C 0.07005 0.85661 0.50865 0.0
C130 C 0.07839 0.831 0.7351 0.0
Eu131 Eu 0.04894 0.80961 0.61792 0.0
C132 C 0.06875 0.82173 0.80137 0.0
C133 C 0.0936 0.82993 0.85165 0.0
C134 C 0.08469 0.82088 0.91471 0.0
C135 C 0.05072 0.80341 0.92848 0.0
C136 C 1.02591 0.79487 0.8775 0.0
C137 C 0.03484 0.80398 0.81461 0.0
C138 C 0.07617 0.78571 0.5268 0.0
C139 C 0.99059 0.7349 0.63069 0.0
O140 O 0.99509 0.7405 0.42376 0.0
O141 O 0.98034 0.77767 0.41597 0.0
O142 O 0.9615 0.76669 0.5546 0.0
O143 O 1.00447 0.81368 0.57603 0.0
O144 O 0.05287 0.82749 0.47329 0.0
O145 O 0.06677 0.85704 0.57115 0.0
O146 O 0.06298 0.84393 0.70412 0.0
O147 O 0.081 0.80914 0.69818 0.0
O148 O 0.09239 0.81506 0.55695 0.0
O149 O 0.04733 0.77083 0.54688 0.0
O150 O 1.00822 0.76447 0.66118 0.0
O151 O 0.98898 0.73186 0.56617 0.0
H152 H 0.94211 0.73398 0.2753 0.0
H153 H 0.95894 0.74418 0.16397 0.0
H154 H 0.06326 0.79501 0.23639 0.0
H155 H 0.04611 0.78438 0.3479 0.0
H156 H 0.1199 0.84348 0.84218 0.0
H157 H 0.10443 0.82811 0.95288 0.0
H158 H 0.99951 0.78095 0.88609 0.0
H159 H 1.01524 0.79719 0.77639 0.0
C160 C 0.25761 0.29123 0.70892 0.0
Eu161 Eu 0.25455 0.25997 0.59786 0.0
C162 C 0.26018 0.28462 0.77772 0.0
C163 C 0.24345 0.29253 0.82406 0.0
C164 C 0.24551 0.28602 0.88925 0.0
C165 C 0.26455 0.27164 0.90937 0.0
C166 C 0.28143 0.26393 0.86274 0.0
C167 C 0.27913 0.27017 0.79759 0.0
C168 C 0.1955 0.22331 0.52363 0.0
C169 C 0.23974 0.18399 0.59305 0.0
C170 C 0.27702 0.21342 0.37285 0.0
Eu171 Eu 0.2674 0.23292 0.4864 0.0
C172 C 0.27378 0.22084 0.30505 0.0
C173 C 0.29301 0.21693 0.25855 0.0
C174 C 0.29149 0.22548 0.19479 0.0
C175 C 0.27078 0.23832 0.1763 0.0
C176 C 0.25142 0.24206 0.22328 0.0
C177 C 0.25285 0.23333 0.28692 0.0
C178 C 0.31838 0.2576 0.58711 0.0
C179 C 0.27278 0.30279 0.46656 0.0
O180 O 0.28352 0.29806 0.67622 0.0
O181 O 0.22953 0.27101 0.67512 0.0
O182 O 0.20001 0.22026 0.58472 0.0
O183 O 0.22398 0.24254 0.50199 0.0
O184 O 0.25393 0.21224 0.63095 0.0
O185 O 0.23421 0.18542 0.53087 0.0
O186 O 0.24917 0.197 0.40184 0.0
O187 O 0.30076 0.23798 0.41045 0.0
O188 O 0.30635 0.2289 0.55528 0.0
O189 O 0.30289 0.27101 0.56445 0.0
O190 O 0.27319 0.27729 0.43882 0.0
O191 O 0.26646 0.30287 0.52926 0.0
H192 H 0.22873 0.3037 0.8098 0.0
H193 H 0.23245 0.29252 0.92403 0.0
H194 H 0.29593 0.25244 0.87636 0.0
H195 H 0.29206 0.26352 0.76271 0.0
H196 H 0.30939 0.20741 0.27164 0.0
H197 H 0.30636 0.22175 0.15988 0.0
H198 H 0.23558 0.2523 0.21128 0.0
H199 H 0.23791 0.23671 0.3222 0.0
C200 C 0.81234 0.06891 0.38619 0.0
Eu201 Eu 0.80632 0.0438 0.49894 0.0
C202 C 0.8051 0.05699 0.31725 0.0
C203 C 0.81807 0.07999 0.26998 0.0
C204 C 0.81149 0.06921 0.20403 0.0
C205 C 0.79165 0.03515 0.18418 0.0
C206 C 0.77853 1.01213 0.232 0.0
C207 C 0.78532 0.02298 0.29806 0.0
C208 C 0.85741 0.07694 0.59334 0.0
C209 C 0.82289 0.98194 0.49672 0.0
C210 C 0.77546 0.97155 0.70589 0.0
Eu211 Eu 0.7913 1.00319 0.59977 0.0
C212 C 0.77663 0.98023 0.77554 0.0
C213 C 0.75844 0.95518 0.81691 0.0
C214 C 0.75891 0.96318 0.8832 0.0
C215 C 0.77749 0.99643 0.90898 0.0
C216 C 0.79548 1.02149 0.86704 0.0
C217 C 0.79509 1.01344 0.80088 0.0
C218 C 0.74331 0.97656 0.49413 0.0
C219 C 0.78212 0.06548 0.62707 0.0
O220 O 0.78631 0.05985 0.42014 0.0
O221 O 0.83628 0.06677 0.41727 0.0
O222 O 0.84236 0.08944 0.56136 0.0
O223 O 0.84326 0.04571 0.57662 0.0
O224 O 0.81184 0.99819 0.46095 0.0
O225 O 0.82401 0.98601 0.55978 0.0
O226 O 0.80431 0.98228 0.68085 0.0
O227 O 0.75439 0.97546 0.6687 0.0
O228 O 0.75535 0.96053 0.52373 0.0
O229 O 0.75688 1.00541 0.52148 0.0
O230 O 0.7904 0.0455 0.65385 0.0
O231 O 0.7824 0.06725 0.56301 0.0
H232 H 0.83349 0.10633 0.28412 0.0
H233 H 0.82248 0.08755 0.16864 0.0
H234 H 0.76288 0.98578 0.21842 0.0
H235 H 0.77519 1.00487 0.33412 0.0
H236 H 0.74381 0.92943 0.79792 0.0
H237 H 0.74451 0.94339 0.91417 0.0
H238 H 0.81035 0.04728 0.88557 0.0
H239 H 0.8093 0.03313 0.76962 0.0
C240 C 0.75951 0.62033 1.01793 0.0
Eu241 Eu 0.72696 0.59674 0.90352 0.0
C242 C 0.75006 0.61775 0.08584 0.0
C243 C 0.77324 0.63943 0.13599 0.0
C244 C 0.76404 0.63772 0.20028 0.0
C245 C 0.73126 0.6145 0.21563 0.0
C246 C 0.70804 0.59321 0.16455 0.0
C247 C 0.71746 0.59459 0.10069 0.0
C248 C 0.747 0.63976 0.8036 0.0
C249 C 0.6581 0.59491 0.92174 0.0
C250 C 0.6581 0.57443 0.67221 0.0
Eu251 Eu 0.68195 0.57477 0.78987 0.0
C252 C 0.66988 0.5869 0.60844 0.0
C253 C 0.64624 0.57713 0.55518 0.0
C254 C 0.65667 0.5845 0.49236 0.0
C255 C 0.69101 0.60209 0.48164 0.0
C256 C 0.71473 0.61333 0.53552 0.0
C257 C 0.70423 0.60542 0.59841 0.0
C258 C 0.65079 0.52071 0.85893 0.0
C259 C 0.74512 0.56047 0.80159 0.0
O260 O 0.75542 0.59326 0.98715 0.0
O261 O 0.74925 0.63624 0.98179 0.0
O262 O 0.76623 0.63107 0.83355 0.0
O263 O 0.71894 0.62499 0.82689 0.0
O264 O 0.68184 0.59132 0.94982 0.0
O265 O 0.6543 0.59296 0.85702 0.0
O266 O 0.66247 0.59604 0.71967 0.0
O267 O 0.66466 0.55187 0.69134 0.0
O268 O 0.64118 0.52364 0.80148 0.0
O269 O 0.67819 0.54701 0.88132 0.0
O270 O 0.72831 0.57007 0.76273 0.0
O271 O 0.74256 0.56203 0.86428 0.0
H272 H 0.79852 0.65764 0.12549 0.0
H273 H 0.78283 0.65428 0.23794 0.0
H274 H 0.68236 0.57551 0.17353 0.0
H275 H 0.69917 0.57759 0.0628 0.0
H276 H 0.61963 0.56267 0.56184 0.0
H277 H 0.63787 0.57573 0.45182 0.0
H278 H 0.74135 0.62672 0.52862 0.0
H279 H 0.72286 0.61262 0.63873 0.0
C280 C 0.44839 0.16845 1.02267 0.0
Eu281 Eu 0.46125 0.15025 0.91079 0.0
C282 C 0.45164 0.16224 0.09128 0.0
C283 C 0.43039 0.16425 0.13547 0.0
C284 C 0.43199 0.15677 0.20005 0.0
C285 C 0.45482 0.14698 0.22162 0.0
C286 C 0.47611 0.14504 0.17689 0.0
C287 C 0.47458 0.15267 0.11246 0.0
C288 C 0.40965 0.12336 0.81117 0.0
C289 C 0.4543 0.08084 0.93558 0.0
C290 C 0.47461 0.0968 0.6878 0.0
Eu291 Eu 0.47277 0.12013 0.80431 0.0
C292 C 0.46941 0.10243 0.61966 0.0
C293 C 0.48747 0.09718 0.57235 0.0
C294 C 0.48416 0.10363 0.50778 0.0
C295 C 0.46259 0.1154 0.48914 0.0
C296 C 0.44398 0.12006 0.53655 0.0
C297 C 0.44751 0.11382 0.60138 0.0
C298 C 0.5262 0.14151 0.89222 0.0
C299 C 0.48932 0.19865 0.80565 0.0
O300 O 0.47619 0.18628 0.99463 0.0
O301 O 0.42638 0.14271 0.98519 0.0
O302 O 0.42247 0.15289 0.83975 0.0
O303 O 0.42463 0.10984 0.83601 0.0
O304 O 0.46504 0.11075 0.96193 0.0
O305 O 0.45063 0.07601 0.87091 0.0
O306 O 0.44824 0.08346 0.72154 0.0
O307 O 0.50084 0.12095 0.72113 0.0
O308 O 0.51081 0.11296 0.85939 0.0
O309 O 0.51183 0.15825 0.87893 0.0
O310 O 0.47798 0.17006 0.76955 0.0
O311 O 0.49127 0.19843 0.8688 0.0
H312 H 0.4124 0.17144 0.11993 0.0
H313 H 0.41552 0.15896 0.23318 0.0
H314 H 0.49361 0.13708 0.19131 0.0
H315 H 0.49106 0.15072 0.079 0.0
H316 H 0.50444 0.08836 0.58551 0.0
H317 H 0.49848 0.09935 0.47235 0.0
H318 H 0.42736 0.12935 0.52388 0.0
H319 H 0.43351 0.1183 0.63728 0.0
C320 C 0.91264 0.30393 1.01197 0.0
Eu321 Eu 0.92483 0.33632 0.90676 0.0
C322 C 0.918 0.31276 0.08242 0.0
C323 C 0.91465 0.28908 0.12558 0.0
C324 C 0.92087 0.29758 0.19264 0.0
C325 C 0.93081 0.33003 0.21751 0.0
C326 C 0.93421 0.35369 0.17386 0.0
C327 C 0.92781 0.34512 0.10692 0.0
C328 C 0.94445 0.31039 0.80372 0.0
C329 C 0.99479 0.40049 0.94492 0.0
C330 C 0.96729 0.40206 0.69658 0.0
Eu331 Eu 0.94904 0.37736 0.80902 0.0
C332 C 0.96186 0.3903 0.62749 0.0
C333 C 0.96856 0.41299 0.58014 0.0
C334 C 0.96411 0.40256 0.51414 0.0
C335 C 0.95304 0.36918 0.49417 0.0
C336 C 0.94624 0.34643 0.54208 0.0
C337 C 0.95048 0.35689 0.60818 0.0
C338 C 0.93246 0.41001 0.89861 0.0
C339 C 0.86884 0.3175 0.80434 0.0
O340 O 0.89065 0.30886 0.98023 0.0
O341 O 0.93985 0.31378 0.98147 0.0
O342 O 0.91618 0.29448 0.82995 0.0
O343 O 0.96068 0.33908 0.83205 0.0
O344 O 0.96615 0.37973 0.96692 0.0
O345 O 0.99683 0.40223 0.88099 0.0
O346 O 0.9845 0.39315 0.73375 0.0
O347 O 0.94146 0.39995 0.72417 0.0
O348 O 0.95932 0.42308 0.86752 0.0
O349 O 0.91485 0.37864 0.88261 0.0
O350 O 0.89548 0.33301 0.76933 0.0
O351 O 0.87372 0.32082 0.86738 0.0
H352 H 0.90747 0.26408 0.10738 0.0
H353 H 0.91843 0.27893 0.22496 0.0
H354 H 0.94144 0.37877 0.19152 0.0
H355 H 0.93057 0.36376 0.07431 0.0
H356 H 0.97721 0.43884 0.59423 0.0
H357 H 0.96896 0.42063 0.47874 0.0
H358 H 0.93801 0.32064 0.52861 0.0
H359 H 0.94499 0.33897 0.64417 0.0
C360 C 0.65574 0.0977 0.69419 0.0
Eu361 Eu 0.68081 0.12303 0.81283 0.0
C362 C 0.667 0.10392 0.62762 0.0
C363 C 0.64344 0.097 0.57549 0.0
C364 C 0.65356 0.10378 0.51225 0.0
C365 C 0.68758 0.11764 0.4996 0.0
C366 C 0.71113 0.12421 0.55213 0.0
C367 C 0.70096 0.11751 0.6155 0.0
C368 C 0.64841 0.14345 0.89327 0.0
C369 C 0.74304 0.20175 0.81062 0.0
C370 C 0.75384 0.18024 0.04197 0.0
Eu371 Eu 0.72399 0.15791 0.92506 0.0
C372 C 0.74441 0.17176 0.10907 0.0
C373 C 0.76885 0.17589 0.15718 0.0
C374 C 0.76013 0.16681 0.22041 0.0
C375 C 0.72666 0.15316 0.23675 0.0
C376 C 0.70224 0.14908 0.18825 0.0
C377 C 0.71104 0.15837 0.12518 0.0
C378 C 0.7484 0.13 0.83592 0.0
C379 C 0.66527 0.08476 0.9448 0.0
O380 O 0.67006 0.08618 0.73259 0.0
O381 O 0.65183 0.12061 0.72411 0.0
O382 O 0.63531 0.11458 0.86185 0.0
O383 O 0.67938 0.16126 0.88179 0.0
O384 O 0.72548 0.1721 0.77749 0.0
O385 O 0.74139 0.20377 0.87357 0.0
O386 O 0.73888 0.19333 1.00994 0.0
O387 O 0.75616 0.15793 1.00588 0.0
O388 O 0.76577 0.16017 0.86228 0.0
O389 O 0.72007 0.11678 0.85812 0.0
O390 O 0.68245 0.11524 0.97131 0.0
O391 O 0.66326 0.07967 0.88032 0.0
H392 H 0.61715 0.0867 0.58382 0.0
H393 H 0.63474 0.09886 0.47352 0.0
H394 H 0.73745 0.13445 0.54434 0.0
H395 H 0.71965 0.12316 0.65503 0.0
H396 H 0.79471 0.18594 0.14571 0.0
H397 H 0.77952 0.16996 0.25623 0.0
H398 H 0.67632 0.13902 0.19919 0.0
H399 H 0.69168 0.15487 0.08889 0.0
C400 C 0.96625 0.57173 0.70397 0.0
Eu401 Eu 0.94615 0.57728 0.81798 0.0
C402 C 0.96067 0.57741 0.6363 0.0
C403 C 0.96879 0.5622 0.58595 0.0
C404 C 0.96324 0.56678 0.52116 0.0
C405 C 0.94952 0.58677 0.50553 0.0
C406 C 0.94182 0.6024 0.55632 0.0
C407 C 0.94719 0.5976 0.62125 0.0
C408 C 0.93024 0.52859 0.90111 0.0
C409 C 0.86625 0.55777 0.81 0.0
C410 C 0.90299 0.60784 1.03289 0.0
Eu411 Eu 0.91888 0.59192 0.92224 0.0
C412 C 0.9095 0.60476 0.10182 0.0
C413 C 0.90405 0.62318 0.15022 0.0
C414 C 0.91089 0.62094 0.21594 0.0
C415 C 0.92336 0.60024 0.23427 0.0
C416 C 0.9291 0.5821 0.18525 0.0
C417 C 0.9222 0.58431 0.11969 0.0
C418 C 0.94002 0.63854 0.82878 0.0
C419 C 0.99153 0.60386 0.95351 0.0
O420 O 0.98224 0.5981 0.74443 0.0
O421 O 0.94081 0.54733 0.72904 0.0
O422 O 0.95735 0.54294 0.8709 0.0
O423 O 0.91176 0.54109 0.88729 0.0
O424 O 0.89397 0.56972 0.7777 0.0
O425 O 0.86917 0.55718 0.87289 0.0
O426 O 0.88354 0.58016 0.99749 0.0
O427 O 0.92925 0.62814 1.00332 0.0
O428 O 0.91143 0.62638 0.85422 0.0
O429 O 0.95575 0.62582 0.85375 0.0
O430 O 0.96233 0.59304 0.97699 0.0
O431 O 0.99363 0.6046 0.88955 0.0
H432 H 0.97933 0.54664 0.59677 0.0
H433 H 0.96985 0.55478 0.48321 0.0
H434 H 0.93097 0.6177 0.54583 0.0
H435 H 0.94059 0.6094 0.65961 0.0
H436 H 0.89446 0.63926 0.13718 0.0
H437 H 0.9059 0.63502 0.25237 0.0
H438 H 0.93923 0.56638 0.1975 0.0
H439 H 0.92683 0.5701 0.08295 0.0
C440 C 0.46992 0.40294 0.7111 0.0
Eu441 Eu 0.46975 0.3788 0.82329 0.0
C442 C 0.4629 0.39122 0.64189 0.0
C443 C 0.47379 0.41449 0.59483 0.0
C444 C 0.46891 0.40401 0.52877 0.0
C445 C 0.45294 0.36995 0.50848 0.0
C446 C 0.44141 0.34663 0.55605 0.0
C447 C 0.44646 0.35719 0.62222 0.0
C448 C 0.52491 0.41289 0.90899 0.0
C449 C 0.49019 0.3196 0.81223 0.0
C450 C 0.45338 0.30923 1.03296 0.0
Eu451 Eu 0.46163 0.3388 0.92472 0.0
C452 C 0.45263 0.31767 0.10222 0.0
C453 C 0.43617 0.29219 0.1438 0.0
C454 C 0.43452 0.29978 0.20942 0.0
C455 C 0.44917 0.33305 0.23451 0.0
C456 C 0.46547 0.35852 0.19241 0.0
C457 C 0.46724 0.3509 0.12692 0.0
C458 C 0.41003 0.3091 0.82583 0.0
C459 C 0.44862 0.39867 0.95815 0.0
O460 O 0.44432 0.39075 0.74689 0.0
O461 O 0.49631 0.40442 0.74011 0.0
O462 O 0.50729 0.42466 0.88409 0.0
O463 O 0.51063 0.38176 0.89163 0.0
O464 O 0.47654 0.33478 0.78031 0.0
O465 O 0.49376 0.32352 0.87555 0.0
O466 O 0.48225 0.32547 1.00756 0.0
O467 O 0.4287 0.30625 0.99471 0.0
O468 O 0.42444 0.29459 0.85317 0.0
O469 O 0.42302 0.33817 0.8525 0.0
O470 O 0.45877 0.37938 0.98151 0.0
O471 O 0.44687 0.40078 0.89421 0.0
H472 H 0.48661 0.44086 0.60925 0.0
H473 H 0.47855 0.42269 0.49375 0.0
H474 H 0.42859 0.32022 0.54221 0.0
H475 H 0.43788 0.33885 0.65801 0.0
H476 H 0.42448 0.26639 0.12544 0.0
H477 H 0.42146 0.27959 0.24036 0.0
H478 H 0.47738 0.38439 0.21033 0.0
H479 H 0.48014 0.37098 0.09573 0.0
C480 C 0.31768 0.87853 1.01572 0.0
Eu481 Eu 0.34568 0.90147 0.13338 0.0
C482 C 0.32848 0.88728 0.94929 0.0
C483 C 0.30487 0.88263 0.89886 0.0
C484 C 0.31491 0.8922 0.83641 0.0
C485 C 0.34892 0.90687 0.82293 0.0
C486 C 0.3725 0.91138 0.87382 0.0
C487 C 0.36239 0.90163 0.93616 0.0
C488 C 0.31892 0.92534 0.22551 0.0
C489 C 0.40669 0.97503 0.11606 0.0
C490 C 0.41514 0.96809 0.3635 0.0
Eu491 Eu 0.38849 0.93511 0.25051 0.0
C492 C 0.40598 0.96007 0.43121 0.0
C493 C 0.43097 0.96863 0.48153 0.0
C494 C 0.42236 0.96087 0.5455 0.0
C495 C 0.38853 0.94456 0.56063 0.0
C496 C 0.36358 0.93614 0.51002 0.0
C497 C 0.37216 0.94362 0.44614 0.0
C498 C 0.41079 0.8985 0.18521 0.0
C499 C 0.32849 0.85772 0.24938 0.0
O500 O 0.33235 0.86568 0.04976 0.0
O501 O 0.3142 0.90057 0.05041 0.0
O502 O 0.3022 0.89609 0.19484 0.0
O503 O 0.34777 0.93965 0.20551 0.0
O504 O 0.38123 0.94765 0.08828 0.0
O505 O 0.4153 0.97722 0.17965 0.0
O506 O 0.39394 0.97182 0.32631 0.0
O507 O 0.42647 0.95113 0.33276 0.0
O508 O 0.40598 0.89792 0.24664 0.0
O509 O 0.40019 0.91616 0.15922 0.0
O510 O 0.34303 0.88709 0.28347 0.0
O511 O 0.33389 0.85682 0.18761 0.0
H512 H 0.27859 0.87168 0.90785 0.0
H513 H 0.29588 0.8878 0.79856 0.0
H514 H 0.39894 0.92303 0.86594 0.0
H515 H 0.38118 0.9058 0.97441 0.0
H516 H 0.45719 0.98131 0.47135 0.0
H517 H 0.44225 0.96799 0.58329 0.0
H518 H 0.33728 0.92318 0.51953 0.0
H519 H 0.35224 0.93637 0.40835 0.0
C520 C 0.1341 0.51122 0.38681 0.0
Eu521 Eu 0.14062 0.48943 0.27278 0.0
C522 C 0.13703 0.50338 0.45444 0.0
C523 C 0.11926 0.50907 0.50179 0.0
C524 C 0.12038 0.50013 0.56535 0.0
C525 C 0.13919 0.48509 0.58283 0.0
C526 C 0.15718 0.47967 0.53507 0.0
C527 C 0.15615 0.48879 0.47161 0.0
C528 C 0.08864 0.46316 0.17457 0.0
C529 C 0.13089 0.41761 0.29222 0.0
C530 C 0.14549 0.427 0.04868 0.0
Eu531 Eu 0.15066 0.45917 0.1597 0.0
C532 C 0.1449 0.43507 0.98025 0.0
C533 C 0.16063 0.42578 0.93395 0.0
C534 C 0.15973 0.43312 0.86894 0.0
C535 C 0.14282 0.44969 0.84898 0.0
C536 C 0.12717 0.459 0.89567 0.0
C537 C 0.12833 0.45194 0.96054 0.0
C538 C 0.21037 0.49734 0.23066 0.0
C539 C 0.16657 0.5357 0.16132 0.0
O540 O 0.16184 0.52567 0.35683 0.0
O541 O 0.10897 0.4877 0.34983 0.0
O542 O 0.10108 0.49262 0.2035 0.0
O543 O 0.10434 0.45035 0.19847 0.0
O544 O 0.13293 0.44437 0.32004 0.0
O545 O 0.1365 0.41645 0.22934 0.0
O546 O 0.11997 0.42278 0.08021 0.0
O547 O 0.17377 0.44438 0.0841 0.0
O548 O 0.20496 0.49898 0.16923 0.0
O549 O 0.18252 0.47804 0.25419 0.0
O550 O 0.15161 0.50686 0.12513 0.0
O551 O 0.17312 0.53545 0.22359 0.0
H552 H 0.10431 0.52027 0.48948 0.0
H553 H 0.10664 0.50521 0.6009 0.0
H554 H 0.17155 0.46777 0.5463 0.0
H555 H 0.16995 0.48401 0.43569 0.0
H556 H 0.17352 0.41275 0.94802 0.0
H557 H 0.17184 0.42541 0.8341 0.0
H558 H 0.11438 0.47221 0.88225 0.0
H559 H 0.1162 0.45969 0.9953 0.0
C560 C 0.61024 0.74754 1.03321 0.0
Eu561 Eu 0.60299 0.71897 0.14213 0.0
C562 C 0.60736 0.73734 0.96354 0.0
C563 C 0.6254 0.76125 0.91998 0.0
C564 C 0.6244 0.75177 0.85426 0.0
C565 C 0.60553 0.71811 0.83096 0.0
C566 C 0.5874 0.6942 0.87488 0.0
C567 C 0.58818 0.70376 0.94051 0.0
C568 C 0.65451 0.74749 0.24146 0.0
C569 C 0.60988 0.65525 0.10952 0.0
C570 C 0.59744 0.65235 0.35345 0.0
Eu571 Eu 0.59256 0.67961 0.24834 0.0
C572 C 0.59982 0.66176 0.42358 0.0
C573 C 0.58491 0.63719 0.46763 0.0
C574 C 0.58636 0.64606 0.53398 0.0
C575 C 0.60285 0.67975 0.55759 0.0
C576 C 0.61818 0.70425 0.51314 0.0
C577 C 0.6165 0.69538 0.44692 0.0
C578 C 0.53277 0.65718 0.1791 0.0
C579 C 0.57572 0.7393 0.25751 0.0
O580 O 0.58241 0.73455 0.06304 0.0
O581 O 0.63496 0.74825 0.06774 0.0
O582 O 0.64143 0.76313 0.2137 0.0
O583 O 0.63973 0.7183 0.21575 0.0
O584 O 0.61049 0.68134 0.08733 0.0
O585 O 0.60357 0.64856 0.17139 0.0
O586 O 0.62293 0.6721 0.32164 0.0
O587 O 0.56897 0.64326 0.32106 0.0
O588 O 0.53829 0.66506 0.24116 0.0
O589 O 0.56063 0.66573 0.15443 0.0
O590 O 0.59098 0.72614 0.29074 0.0
O591 O 0.56943 0.73189 0.19468 0.0
H592 H 0.64056 0.78726 0.93696 0.0
H593 H 0.63894 0.77075 0.8219 0.0
H594 H 0.57237 0.66813 0.85839 0.0
H595 H 0.57403 0.68491 0.9734 0.0
H596 H 0.57183 0.61113 0.45061 0.0
H597 H 0.57393 0.6265 0.5665 0.0
H598 H 0.63163 0.73039 0.52946 0.0
H599 H 0.62817 0.71487 0.41392 0.0
C600 C 0.32191 0.42305 0.04995 0.0
Eu601 Eu 0.35026 0.45386 0.16396 0.0
C602 C 0.33161 0.43024 0.98242 0.0
C603 C 0.30713 0.4228 0.93172 0.0
C604 C 0.3162 0.42928 0.86765 0.0
C605 C 0.34994 0.44309 0.85293 0.0
C606 C 0.37437 0.45045 0.90395 0.0
C607 C 0.36535 0.44431 0.96794 0.0
C608 C 0.33186 0.49265 0.23246 0.0
C609 C 0.41251 0.53037 0.17326 0.0
C610 C 0.42308 0.49936 0.39647 0.0
Eu611 Eu 0.3926 0.48115 0.27985 0.0
C612 C 0.41218 0.49168 0.46297 0.0
C613 C 0.43501 0.49438 0.51319 0.0
C614 C 0.42465 0.48602 0.57592 0.0
C615 C 0.3911 0.47457 0.58973 0.0
C616 C 0.3683 0.47183 0.53889 0.0
C617 C 0.37876 0.48039 0.47634 0.0
C618 C 0.41625 0.45652 0.18201 0.0
C619 C 0.32608 0.41146 0.2949 0.0
O620 O 0.34093 0.41626 0.08679 0.0
O621 O 0.31379 0.44265 0.08097 0.0
O622 O 0.33724 0.49403 0.1713 0.0
O623 O 0.33967 0.47261 0.25724 0.0
O624 O 0.39748 0.50226 0.13476 0.0
O625 O 0.40716 0.52876 0.23516 0.0
O626 O 0.4128 0.51676 0.36498 0.0
O627 O 0.4208 0.47467 0.35977 0.0
O628 O 0.43424 0.48535 0.21357 0.0
O629 O 0.38781 0.44327 0.20356 0.0
O630 O 0.35288 0.43693 0.3244 0.0
O631 O 0.3189 0.41124 0.23132 0.0
H632 H 0.28098 0.41192 0.94165 0.0
H633 H 0.29673 0.42308 0.82945 0.0
H634 H 0.40061 0.46151 0.89459 0.0
H635 H 0.38485 0.45064 1.00613 0.0
H636 H 0.4609 0.50292 0.50387 0.0
H637 H 0.44309 0.48893 0.61374 0.0
H638 H 0.34217 0.46259 0.54705 0.0
H639 H 0.36062 0.4779 0.4382 0.0
C640 C 0.59759 0.96448 0.37445 0.0
Eu641 Eu 0.59773 0.94016 0.25768 0.0
C642 C 0.60323 0.95877 0.44236 0.0
C643 C 0.58851 0.96748 0.49165 0.0
C644 C 0.59235 0.96113 0.55614 0.0
C645 C 0.61118 0.94603 0.57286 0.0
C646 C 0.62632 0.93774 0.52313 0.0
C647 C 0.62222 0.94389 0.45848 0.0
C648 C 0.54371 0.91948 0.17093 0.0
C649 C 0.57741 0.86073 0.25852 0.0
C650 C 0.6151 0.88587 1.03732 0.0
Eu651 Eu 0.60601 0.90704 0.15005 0.0
C652 C 0.61389 0.89359 0.969 0.0
C653 C 0.63417 0.88938 0.92539 0.0
C654 C 0.6346 0.89814 0.86122 0.0
C655 C 0.61494 0.91158 0.83962 0.0
C656 C 0.59457 0.91568 0.88354 0.0
C657 C 0.59393 0.90662 0.9475 0.0
C658 C 0.65779 0.93147 0.24853 0.0
C659 C 0.61875 0.97918 0.12678 0.0
O660 O 0.6236 0.97708 0.33969 0.0
O661 O 0.5708 0.94065 0.34189 0.0
O662 O 0.5606 0.94859 0.2015 0.0
O663 O 0.55731 0.90219 0.185 0.0
O664 O 0.59075 0.88985 0.29354 0.0
O665 O 0.57435 0.8602 0.19528 0.0
O666 O 0.58667 0.87139 0.06482 0.0
O667 O 0.63928 0.90942 0.07575 0.0
O668 O 0.64368 0.90192 0.21941 0.0
O669 O 0.6442 0.94641 0.22401 0.0
O670 O 0.60644 0.94897 0.10035 0.0
O671 O 0.62207 0.98407 0.19138 0.0
H672 H 0.57358 0.97878 0.4801 0.0
H673 H 0.57982 0.96736 0.59259 0.0
H674 H 0.64136 0.92652 0.53408 0.0
H675 H 0.63363 0.93676 0.42106 0.0
H676 H 0.64996 0.8796 0.94117 0.0
H677 H 0.65079 0.89496 0.82883 0.0
H678 H 0.57886 0.92562 0.86829 0.0
H679 H 0.57807 0.9101 0.98032 0.0
C680 C 0.14603 0.73977 0.0701 0.0
Eu681 Eu 0.1444 0.71521 0.18228 0.0
C682 C 0.13906 0.72768 1.00113 0.0
C683 C 0.14931 0.75058 0.95342 0.0
C684 C 0.14369 0.73962 0.88754 0.0
C685 C 0.12765 0.70546 0.8682 0.0
C686 C 0.11696 0.68252 0.91644 0.0
C687 C 0.12269 0.69355 0.98239 0.0
C688 C 0.19714 0.74838 0.2732 0.0
C689 C 0.16435 0.65572 0.17285 0.0
C690 C 0.1254 0.64407 0.3927 0.0
Eu691 Eu 0.1345 0.67411 0.28497 0.0
C692 C 0.12409 0.65229 0.46174 0.0
C693 C 0.10864 0.62676 0.50361 0.0
C694 C 0.10704 0.63424 0.56931 0.0
C695 C 0.12076 0.66744 0.59413 0.0
C696 C 0.13594 0.69294 0.55166 0.0
C697 C 0.13764 0.68543 0.48611 0.0
C698 C 0.08451 0.64675 0.18345 0.0
C699 C 0.11909 0.73281 0.31336 0.0
O700 O 0.1202 0.72807 0.10523 0.0
O701 O 0.17205 0.74084 0.10002 0.0
O702 O 0.18059 0.76061 0.24547 0.0
O703 O 0.18348 0.71753 0.25451 0.0
O704 O 0.15136 0.67125 0.14012 0.0
O705 O 0.1669 0.659 0.23625 0.0
O706 O 0.15453 0.66068 0.36842 0.0
O707 O 0.10093 0.64099 0.35358 0.0
O708 O 0.0978 0.63102 0.2101 0.0
O709 O 0.09777 0.67523 0.21201 0.0
O710 O 0.12979 0.71435 0.33903 0.0
O711 O 0.11849 0.73501 0.24943 0.0
H712 H 0.16204 0.77702 0.96714 0.0
H713 H 0.1527 0.75798 0.85185 0.0
H714 H 0.10417 0.65604 0.90325 0.0
H715 H 0.11457 0.6755 1.01872 0.0
H716 H 0.09784 0.60101 0.48549 0.0
H717 H 0.09487 0.61402 0.60058 0.0
H718 H 0.14715 0.71877 0.56937 0.0
H719 H 0.14978 0.70554 0.45465 0.0
C720 C 0.12354 0.39532 0.40359 0.0
C721 C 0.12077 0.38912 0.33503 0.0
H722 H 0.11126 0.37547 0.49729 0.0
C723 C 0.10469 0.35582 0.31007 0.0
H724 H 0.1359 0.42055 0.42529 0.0
C725 C 0.09045 0.32977 0.35204 0.0
C726 C 0.09186 0.33609 0.42038 0.0
H727 H 0.10172 0.34981 0.25802 0.0
H728 H 0.07739 0.3045 0.33036 0.0
C729 C 0.10939 0.36937 0.44545 0.0
C730 C 0.70778 0.79905 0.39755 0.0
C731 C 0.71931 0.7786 0.42259 0.0
H732 H 0.67872 0.8057 0.32118 0.0
C733 C 0.70988 0.74852 0.38638 0.0
H734 H 0.71456 0.82247 0.42362 0.0
C735 C 0.68999 0.73926 0.3272 0.0
C736 C 0.67782 0.75922 0.30261 0.0
H737 H 0.71786 0.73188 0.40382 0.0
H738 H 0.68399 0.71618 0.30071 0.0
C739 C 0.6873 0.78947 0.3385 0.0
C740 C 0.31982 0.98544 0.3591 0.0
C741 C 0.29246 0.96511 0.39496 0.0
H742 H 0.34911 0.98914 0.27855 0.0
C743 C 0.27336 0.93099 0.37443 0.0
H744 H 0.33437 1.01197 0.37186 0.0
C745 C 0.28148 0.91779 0.3194 0.0
C746 C 0.30898 0.93837 0.28366 0.0
H747 H 0.25131 0.91479 0.39915 0.0
H748 H 0.266 0.89159 0.30442 0.0
C749 C 0.32805 0.97233 0.30492 0.0
C750 C 0.35261 0.11641 0.6622 0.0
C751 C 0.34168 0.08426 0.63348 0.0
H752 H 0.38216 0.15383 0.73982 0.0
C753 C 0.35318 0.0651 0.66447 0.0
H754 H 0.3444 0.132 0.64016 0.0
C755 C 0.37458 0.07752 0.72223 0.0
C756 C 0.38566 0.10973 0.75079 0.0
H757 H 0.3455 0.04031 0.64421 0.0
H758 H 0.38255 0.0618 0.7445 0.0
C759 C 0.37425 0.12894 0.71975 0.0
C760 C 0.9337 0.26595 0.7141 0.0
C761 C 0.95499 0.29783 0.74553 0.0
H762 H 0.92621 0.22974 0.63669 0.0
C763 C 0.98619 0.31782 0.71963 0.0
H764 H 0.90946 0.24977 0.73213 0.0
C765 C 0.99568 0.30641 0.66434 0.0
C766 C 0.97447 0.27448 0.63304 0.0
H767 H 1.00333 0.3425 0.74199 0.0
H768 H 1.01984 0.3227 0.64615 0.0
C769 C 0.94327 0.25447 0.65894 0.0
C770 C 0.73872 0.69253 0.6755 0.0
C771 C 0.76887 0.70546 0.64413 0.0
H772 H 0.70866 0.66271 0.74908 0.0
C773 C 0.79173 0.69529 0.66398 0.0
H774 H 0.7206 0.69998 0.66255 0.0
C775 C 0.7849 0.67379 0.7152 0.0
C776 C 0.75501 0.66184 0.74764 0.0
H777 H 0.81557 0.70526 0.6424 0.0
H778 H 0.80328 0.66703 0.7302 0.0
C779 C 0.73191 0.6712 0.72586 0.0
C780 C 0.99475 0.69402 0.70007 0.0
C781 C 0.97487 0.70585 0.67186 0.0
H782 H 0.9997 0.66411 0.77112 0.0
C783 C 0.94293 0.69481 0.69491 0.0
H784 H 1.01988 0.70281 0.68513 0.0
C785 C 0.9313 0.67263 0.74487 0.0
C786 C 0.95153 0.6613 0.77398 0.0
H787 H 0.92742 0.70428 0.67591 0.0
H788 H 0.90675 0.66496 0.76175 0.0
C789 C 0.98327 0.67206 0.75007 0.0
C790 C 0.35381 0.30292 0.6764 0.0
C791 C 0.3424 0.2707 0.64752 0.0
H792 H 0.38263 0.33969 0.7551 0.0
C793 C 0.35353 0.25119 0.67827 0.0
H794 H 0.34638 0.31901 0.65405 0.0
C795 C 0.3751 0.26346 0.736 0.0
C796 C 0.38616 0.29557 0.76521 0.0
H797 H 0.34542 0.22631 0.65789 0.0
H798 H 0.3831 0.24766 0.75787 0.0
C799 C 0.37493 0.31497 0.73447 0.0
C800 C 0.78502 0.13344 0.74323 0.0
C801 C 0.75693 0.11484 0.77918 0.0
H802 H 0.81462 0.13286 0.66519 0.0
C803 C 0.73599 0.08085 0.75964 0.0
H804 H 0.80181 0.15962 0.75678 0.0
C805 C 0.74322 0.06571 0.70735 0.0
C806 C 0.77132 0.08403 0.67166 0.0
H807 H 0.71422 0.06558 0.78594 0.0
H808 H 0.72726 0.03918 0.69597 0.0
C809 C 0.7921 0.11823 0.69002 0.0
C810 C 0.68966 0.92226 0.3414 0.0
C811 C 0.68053 0.9432 0.31038 0.0
H812 H 0.71623 0.91606 0.42295 0.0
C813 C 0.69244 0.97523 0.34057 0.0
H814 H 0.68116 0.8975 0.31982 0.0
C815 C 0.71215 0.98571 0.4003 0.0
C816 C 0.72121 0.96477 0.43147 0.0
H817 H 0.68638 0.99229 0.31815 0.0
H818 H 0.72044 1.01041 0.42196 0.0
C819 C 0.70971 0.93289 0.40088 0.0
C820 C 0.11683 0.79404 0.43959 0.0
C821 C 0.08677 0.7735 0.46872 0.0
H822 H 0.15035 0.79771 0.36624 0.0
C823 C 0.06627 0.7407 0.44116 0.0
H824 H 0.13331 0.81939 0.45936 0.0
C825 C 0.07585 0.72851 0.38759 0.0
C826 C 0.10602 0.74876 0.35897 0.0
H827 H 0.04307 0.72402 0.46215 0.0
H828 H 0.06011 0.70267 0.36986 0.0
C829 C 0.12637 0.78179 0.38552 0.0
C830 C 0.28787 0.35007 0.31234 0.0
C831 C 0.30567 0.38342 0.33697 0.0
H832 H 0.26324 0.29893 0.3337 0.0
C833 C 0.30832 0.38988 0.40552 0.0
H834 H 0.28535 0.34386 0.26043 0.0
C835 C 0.29565 0.36405 0.4481 0.0
C836 C 0.28006 0.33074 0.4236 0.0
H837 H 0.32159 0.41522 0.42677 0.0
H838 H 0.29989 0.37029 0.50012 0.0
C839 C 0.27541 0.32424 0.35493 0.0
C840 C 0.03749 0.45318 1.01326 0.0
C841 C 1.02366 0.41904 0.99507 0.0
H842 H 0.06831 0.49408 0.08461 0.0
C843 C 1.03134 0.40029 1.03657 0.0
H844 H 1.03094 0.46809 0.98403 0.0
C845 C 0.05201 0.41485 0.09417 0.0
C846 C 0.06582 0.44882 0.11309 0.0
H847 H 1.02019 0.37375 1.02559 0.0
H848 H 0.05674 0.39915 0.12477 0.0
C849 C 0.05838 0.46793 0.07162 0.0
C850 C 0.63869 0.59807 1.0334 0.0
C851 C 0.63881 0.60423 0.96662 0.0
H852 H 0.62954 0.60872 0.13081 0.0
C853 C 0.62533 0.62378 0.94728 0.0
H854 H 0.64852 0.58281 0.05039 0.0
C855 C 0.61441 0.63857 0.99373 0.0
C856 C 0.61642 0.63432 0.06115 0.0
H857 H 0.62508 0.62934 0.8969 0.0
H858 H 0.60554 0.65457 0.97665 0.0
C859 C 0.62764 0.61282 0.07993 0.0
C860 C 0.45267 0.06145 0.04946 0.0
C861 C 0.44602 0.05368 0.98115 0.0
H862 H 0.44625 0.04353 0.14562 0.0
C863 C 0.42966 1.02004 0.95883 0.0
H864 H 0.4655 0.08706 0.06912 0.0
C865 C 0.41892 0.99513 1.00313 0.0
C866 C 0.42402 1.00274 0.0715 0.0
H867 H 0.42412 1.01282 0.90719 0.0
H868 H 0.40554 0.96955 0.98333 0.0
C869 C 0.44189 0.03644 0.09389 0.0
C870 C 0.63534 0.02361 0.96831 0.0
C871 C 0.65052 0.05724 0.99039 0.0
H872 H 0.61347 0.97329 0.99319 0.0
C873 C 0.65379 0.06494 0.05858 0.0
H874 H 0.63239 1.01647 0.91673 0.0
C875 C 0.64315 0.04008 0.10311 0.0
C876 C 0.62866 1.0065 0.08104 0.0
H877 H 0.66524 0.09048 0.07808 0.0
H878 H 0.64679 0.04726 0.15476 0.0
C879 C 0.62456 0.99876 1.01279 0.0
C880 C 0.05365 0.60631 0.08405 0.0
C881 C 0.06295 0.63633 0.12057 0.0
H882 H 1.02436 0.57269 1.00097 0.0
C883 C 0.05154 0.6569 0.09611 0.0
H884 H 0.06176 0.58973 0.1014 0.0
C885 C 1.03091 0.64751 0.03803 0.0
C886 C 1.021 0.61729 1.00217 0.0
H887 H 0.05772 0.67995 0.12299 0.0
H888 H 1.02124 0.66323 1.02277 0.0
C889 C 0.03271 0.5968 1.0258 0.0
C890 C 0.40419 0.40931 0.10014 0.0
C891 C 0.42445 0.44313 0.12177 0.0
H892 H 0.3955 0.36937 1.03137 0.0
C893 C 0.45137 0.46324 0.08432 0.0
H894 H 0.38339 0.39286 0.1275 0.0
C895 C 0.45793 0.44968 1.02761 0.0
C896 C 0.43776 0.41566 1.0069 0.0
H897 H 0.46756 0.48938 0.09917 0.0
H898 H 0.47963 0.46549 1.00166 0.0
C899 C 0.41087 0.39583 0.04427 0.0
C900 C 0.10538 0.2062 0.52448 0.0
C901 C 0.10732 0.23311 0.49269 0.0
H902 H 0.13162 0.18186 0.55857 0.0
C903 C 0.13684 0.25315 0.46146 0.0
H904 H 0.08359 0.19079 0.55059 0.0
C905 C 0.16439 0.24791 0.46545 0.0
C906 C 0.1636 0.22282 0.50211 0.0
H907 H 0.13957 0.27455 0.43774 0.0
H908 H 0.18729 0.26532 0.44442 0.0
C909 C 0.13317 0.20127 0.52941 0.0
C910 C 0.80127 0.92543 0.43525 0.0
C911 C 0.82742 0.95378 0.47139 0.0
H912 H 0.77835 0.87259 0.41035 0.0
C913 C 0.85374 0.95078 0.50078 0.0
H914 H 0.78 0.92636 0.41368 0.0
C915 C 0.85268 0.92012 0.49931 0.0
C916 C 0.82532 0.89109 0.46813 0.0
H917 H 0.87395 0.97168 0.53008 0.0
H918 H 0.87221 0.9186 0.52721 0.0
C919 C 0.80027 0.89445 0.43352 0.0
C920 C 0.11029 0.91883 0.51614 0.0
C921 C 0.09964 0.88707 0.48524 0.0
H922 H 0.15062 0.96926 0.53865 0.0
C923 C 0.12183 0.88427 0.44423 0.0
H924 H 0.09421 0.92203 0.54881 0.0
C925 C 0.15458 0.91142 0.43939 0.0
C926 C 0.16599 0.94252 0.47388 0.0
H927 H 0.11504 0.86034 0.4205 0.0
H928 H 0.1719 0.90737 0.41205 0.0
C929 C 0.14276 0.94616 0.51011 0.0
C930 C 0.26148 0.14889 0.64426 0.0
C931 C 0.23501 0.15142 0.61369 0.0
H932 H 0.28291 0.11768 0.6604 0.0
C933 C 0.20668 0.12183 0.58693 0.0
H934 H 0.28409 0.17118 0.66391 0.0
C935 C 0.20592 0.09132 0.58533 0.0
C936 C 0.23351 0.08908 0.61015 0.0
H937 H 0.18602 0.12271 0.56219 0.0
H938 H 0.1848 0.06988 0.55903 0.0
C939 C 0.26076 0.11806 0.64242 0.0
C940 C 0.91835 0.09742 0.57614 0.0
C941 C 0.89419 0.10016 0.61081 0.0
H942 H 0.96761 0.12289 0.54076 0.0
C943 C 0.90456 0.13061 0.64698 0.0
H944 H 0.91121 0.07487 0.54624 0.0
C945 C 0.93721 0.15821 0.64463 0.0
C946 C 0.96028 0.15642 0.60473 0.0
H947 H 0.88642 0.13395 0.67289 0.0
H948 H 0.94314 0.18181 0.66879 0.0
C949 C 0.95077 0.12519 0.57274 0.0
C950 C 0.95172 0.83515 0.57084 0.0
C951 C 0.9489 0.8069 0.5984 0.0
H952 H 0.92615 0.86034 0.53807 0.0
C953 C 0.91814 0.78496 0.62403 0.0
H954 H 0.9746 0.8522 0.5493 0.0
C955 C 0.89035 0.78976 0.61831 0.0
C956 C 0.89224 0.81641 0.58556 0.0
H957 H 0.91483 0.76263 0.64468 0.0
H958 H 0.86663 0.77103 0.63466 0.0
C959 C 0.92374 0.83969 0.56415 0.0
C960 C 0.80379 0.52643 0.80641 0.0
C961 C 0.83304 0.55217 0.78277 0.0
H962 H 0.75296 0.5086 0.8294 0.0
C963 C 0.83039 0.57719 0.75173 0.0
H964 H 0.80493 0.50709 0.83162 0.0
C965 C 0.80008 0.57797 0.75021 0.0
C966 C 0.7719 0.55381 0.77989 0.0
H967 H 0.85256 0.59795 0.73473 0.0
H968 H 0.79981 0.59922 0.73178 0.0
C969 C 0.77386 0.52732 0.80526 0.0
C970 C 0.467 0.26263 0.75332 0.0
C971 C 0.49461 0.29208 0.78316 0.0
H972 H 0.44379 0.2094 0.73514 0.0
C973 C 0.52308 0.29064 0.8052 0.0
H974 H 0.44425 0.26244 0.7376 0.0
C975 C 0.52281 0.26036 0.80386 0.0
C976 C 0.49411 0.23031 0.78021 0.0
H977 H 0.5445 0.3125 0.82975 0.0
H978 H 0.54404 0.26001 0.82736 0.0
C979 C 0.46674 0.23207 0.75191 0.0
C980 C 0.77566 0.26341 0.80544 0.0
C981 C 0.77046 0.23211 0.7833 0.0
H982 H 0.81071 0.31539 0.82632 0.0
C983 C 0.79663 0.23124 0.75206 0.0
H984 H 0.75638 0.2651 0.83057 0.0
C985 C 0.82829 0.26051 0.74975 0.0
C986 C 0.8343 0.29128 0.77807 0.0
H987 H 0.79386 0.20758 0.7357 0.0
H988 H 0.84895 0.25836 0.7323 0.0
C989 C 0.80694 0.29244 0.80272 0.0
C990 C 0.8964 0.46619 0.8764 0.0
C991 C 0.91892 0.49387 0.91882 0.0
H992 H 0.88197 0.41667 0.83793 0.0
C993 C 0.93945 0.48941 0.96474 0.0
H994 H 0.88115 0.469 0.83874 0.0
C995 C 0.93987 0.45947 0.96437 0.0
C996 C 0.91982 0.43285 0.918 0.0
H997 H 0.95784 0.51036 0.99675 0.0
H998 H 0.95863 0.45847 0.996 0.0
C999 C 0.89684 0.43603 0.87599 0.0
C1000 C 0.57466 0.4683 0.94949 0.0
C1001 C 0.56224 0.43659 0.91694 0.0
H1002 H 0.61363 0.51985 0.95961 0.0
C1003 C 0.58404 0.43205 0.87779 0.0
H1004 H 0.55839 0.473 0.97888 0.0
C1005 C 0.61573 0.4592 0.8662 0.0
C1006 C 0.62698 0.49154 0.89444 0.0
H1007 H 0.57525 0.40843 0.85051 0.0
H1008 H 0.6301 0.45549 0.83003 0.0
C1009 C 0.60661 0.4953 0.93881 0.0
C1010 C 0.60123 0.13783 0.95619 0.0
C1011 C 0.62493 0.15538 0.91127 0.0
H1012 H 0.55182 0.12103 0.98721 0.0
C1013 C 0.61838 0.17523 0.87035 0.0
H1014 H 0.60488 0.12153 0.98705 0.0
C1015 C 0.58756 0.17494 0.87044 0.0
C1016 C 0.5626 0.15484 0.91151 0.0
H1017 H 0.6354 0.1881 0.83349 0.0
H1018 H 0.58184 0.18751 0.83348 0.0
C1019 C 0.57068 0.13761 0.95638 0.0
C1020 C 0.48292 0.88067 0.19117 0.0
C1021 C 0.5069 0.90636 0.15666 0.0
H1022 H 0.43365 0.85797 0.22684 0.0
C1023 C 0.49658 0.92558 0.12227 0.0
H1024 H 0.4901 0.86595 0.21959 0.0
C1025 C 0.46404 0.92081 0.12575 0.0
C1026 C 0.44103 0.89712 0.16507 0.0
H1027 H 0.51458 0.94604 0.09631 0.0
H1028 H 0.45798 0.9376 0.10211 0.0
C1029 C 0.45055 0.87629 0.19567 0.0
C1030 C 0.19813 0.62772 0.16774 0.0
C1031 C 0.16978 0.62886 0.14382 0.0
H1032 H 0.21964 0.59761 0.19002 0.0
C1033 C 0.14307 0.59958 0.11141 0.0
H1034 H 0.2189 0.64947 0.19404 0.0
C1035 C 0.14347 0.56933 0.1091 0.0
C1036 C 0.17054 0.56773 0.1394 0.0
H1037 H 0.12045 0.59918 0.0939 0.0
H1038 H 0.12123 0.54672 0.08956 0.0
C1039 C 0.1985 0.59778 0.16562 0.0
C1040 C 0.49742 0.59851 0.12391 0.0
C1041 C 0.49967 0.62689 0.15662 0.0
H1042 H 0.46756 0.54532 0.10187 0.0
C1043 C 0.47047 0.62346 0.18233 0.0
H1044 H 0.51953 0.59996 0.10466 0.0
C1045 C 0.44096 0.59235 0.18088 0.0
C1046 C 0.43936 0.5634 0.15338 0.0
H1047 H 0.47123 0.64453 0.20839 0.0
H1048 H 0.42001 0.59055 0.20587 0.0
C1049 C 0.46753 0.56708 0.12225 0.0
C1050 C 0.54339 0.76891 0.25939 0.0
C1051 C 0.57156 0.76747 0.28339 0.0
H1052 H 0.52278 0.79954 0.23516 0.0
C1053 C 0.59876 0.79676 0.31461 0.0
H1054 H 0.52217 0.74705 0.23436 0.0
C1055 C 0.59908 0.82732 0.31515 0.0
C1056 C 0.57218 0.82912 0.28461 0.0
H1057 H 0.62115 0.79682 0.33244 0.0
H1058 H 0.62176 0.84994 0.3332 0.0
C1059 C 0.5437 0.79914 0.25998 0.0
C1060 C 0.28893 0.79563 0.24078 0.0
C1061 C 0.29946 0.82712 0.27256 0.0
H1062 H 0.24866 0.74534 0.21814 0.0
C1063 C 0.27805 0.82956 0.3161 0.0
H1064 H 0.30467 0.79274 0.20676 0.0
C1065 C 0.24562 0.80235 0.32183 0.0
C1066 C 0.23408 0.77171 0.28574 0.0
H1067 H 0.28509 0.85326 0.34123 0.0
H1068 H 0.22857 0.80607 0.35073 0.0
C1069 C 0.25681 0.76823 0.24768 0.0
C1070 C 0.30251 0.52524 0.22838 0.0
C1071 C 0.30427 0.49843 0.25277 0.0
H1072 H 0.27183 0.54623 0.20418 0.0
C1073 C 0.27604 0.47417 0.28214 0.0
H1074 H 0.32355 0.5442 0.20493 0.0
C1075 C 0.24596 0.47535 0.2817 0.0
C1076 C 0.24355 0.50082 0.2519 0.0
H1077 H 0.27619 0.45282 0.30032 0.0
H1078 H 0.22388 0.45487 0.29956 0.0
C1079 C 0.27274 0.52642 0.22797 0.0
C1080 C 0.03772 0.23882 0.07308 0.0
C1081 C 1.01638 0.24872 0.10007 0.0
H1082 H 0.06356 0.23746 0.9904 0.0
C1083 C 1.00457 0.26544 0.06155 0.0
H1084 H 0.04674 0.22527 0.10062 0.0
C1085 C 1.01407 0.27223 0.99787 0.0
C1086 C 0.03575 0.26263 0.97141 0.0
H1087 H 0.98844 0.27383 0.08092 0.0
H1088 H 1.00497 0.28556 0.96979 0.0
C1089 C 0.04733 0.24575 1.00973 0.0
C1090 C 0.77269 0.74683 0.0491 0.0
C1091 C 0.78381 0.77165 0.10059 0.0
H1092 H 0.76196 0.73467 0.94614 0.0
C1093 C 0.79317 0.8042 0.08575 0.0
H1094 H 0.76494 0.72142 0.05871 0.0
C1095 C 0.79142 0.81175 1.02142 0.0
C1096 C 0.78031 0.78702 0.9699 0.0
H1097 H 0.80257 0.82414 0.12382 0.0
H1098 H 0.79946 0.83724 1.01199 0.0
C1099 C 0.77098 0.75443 0.98453 0.0
C1100 C 0.28434 1.01213 0.07295 0.0
C1101 C 0.27982 0.03871 0.09301 0.0
H1102 H 0.28656 0.98266 0.99303 0.0
C1103 C 0.27473 0.05672 0.04546 0.0
H1104 H 0.28891 0.99815 0.10841 0.0
C1105 C 0.27328 0.04779 0.97933 0.0
C1106 C 0.27696 1.02069 0.9592 0.0
H1107 H 0.27078 0.07708 0.05931 0.0
H1108 H 0.26815 0.06147 0.94403 0.0
C1109 C 0.28299 1.00327 1.00683 0.0
C1110 C 0.0581 0.78369 1.03654 0.0
C1111 C 0.04109 0.7948 0.99591 0.0
H1112 H 0.0622 0.76699 0.12991 0.0
C1113 C 1.01477 0.79791 1.02031 0.0
H1114 H 0.07823 0.78063 1.01901 0.0
C1115 C 1.00556 0.79 0.08349 0.0
C1116 C 1.02246 0.77883 0.12409 0.0
H1117 H 1.00157 0.80702 0.99091 0.0
H1118 H 0.9855 0.79318 0.10095 0.0
C1119 C 0.04892 0.77584 0.10001 0.0
C1120 C 0.29844 0.26263 0.07383 0.0
C1121 C 0.26936 0.24768 0.10837 0.0
H1122 H 0.31983 0.28226 0.98463 0.0
C1123 C 0.23885 0.24147 0.07721 0.0
H1124 H 0.32252 0.26844 0.09652 0.0
C1125 C 0.2374 0.24967 1.01315 0.0
C1126 C 0.26637 0.26413 0.9784 0.0
H1127 H 0.21584 0.22956 0.10177 0.0
H1128 H 0.21337 0.24391 0.99026 0.0
C1129 C 0.29694 0.27066 1.00965 0.0
C1130 C 0.78002 0.04211 0.06762 0.0
C1131 C 0.78561 0.02383 0.1139 0.0
H1132 H 0.77266 0.04756 0.96676 0.0
C1133 C 0.78677 0.99545 0.09226 0.0
H1134 H 0.77831 0.0637 0.08267 0.0
C1135 C 0.78335 0.98612 1.02583 0.0
C1136 C 0.77882 1.00502 0.97958 0.0
H1137 H 0.79144 0.98104 0.1265 0.0
H1138 H 0.78538 0.96473 1.01062 0.0
C1139 C 0.77675 0.03286 1.00122 0.0
C1140 C 0.73496 0.63997 0.32936 0.0
C1141 C 0.72134 0.61184 0.28439 0.0
H1142 H 0.73624 0.659 0.42705 0.0
C1143 C 0.69802 0.58078 0.30582 0.0
H1144 H 0.75261 0.66442 0.31486 0.0
C1145 C 0.68815 0.57795 0.3694 0.0
C1146 C 0.70172 0.60594 0.41403 0.0
H1147 H 0.68759 0.55833 0.2738 0.0
H1148 H 0.67024 0.55361 0.3841 0.0
C1149 C 0.72547 0.63698 0.39363 0.0
C1150 C 0.48956 0.14078 0.38756 0.0
C1151 C 0.46033 0.12357 0.42083 0.0
H1152 H 0.51087 0.16224 0.29978 0.0
C1153 C 0.42918 0.1143 0.38832 0.0
H1154 H 0.51401 0.1488 0.41156 0.0
C1155 C 0.42732 0.12182 0.32381 0.0
C1156 C 0.4566 0.13898 0.29042 0.0
H1157 H 0.40617 0.1007 0.41236 0.0
H1158 H 0.40286 0.11369 0.2998 0.0
C1159 C 0.48774 0.14845 0.32333 0.0
C1160 C 0.96519 0.3697 0.31306 0.0
C1161 C 0.93737 0.33922 0.28868 0.0
H1162 H 0.99245 0.40263 0.39679 0.0
C1163 C 0.91546 0.318 0.33262 0.0
H1164 H 0.98287 0.38632 0.28056 0.0
C1165 C 0.92078 0.32744 0.39931 0.0
C1166 C 0.94824 0.35827 0.42364 0.0
H1167 H 0.89363 0.29448 0.31525 0.0
H1168 H 0.9028 0.31097 0.43153 0.0
C1169 C 0.97063 0.37906 0.37971 0.0
C1170 C 0.73783 0.1637 0.3587 0.0
C1171 C 0.71727 0.14342 0.3041 0.0
H1172 H 0.74449 0.17191 0.46253 0.0
C1173 C 0.68744 0.11399 0.31441 0.0
H1174 H 0.76078 0.18673 0.35265 0.0
C1175 C 0.67816 0.10534 0.37756 0.0
C1176 C 0.69837 0.12596 0.43225 0.0
H1177 H 0.67131 0.09744 0.27357 0.0
H1178 H 0.65515 0.08235 0.38345 0.0
C1179 C 0.72848 0.15514 0.42186 0.0
C1180 C 0.92161 0.56589 0.32587 0.0
C1181 C 0.92987 0.59705 0.3041 0.0
H1182 H 0.92093 0.53822 0.40628 0.0
C1183 C 0.94432 0.62492 0.34948 0.0
H1184 H 0.90982 0.54379 0.29261 0.0
C1185 C 0.95054 0.62165 0.41498 0.0
C1186 C 0.94257 0.59049 0.43639 0.0
H1187 H 0.95137 0.64936 0.33424 0.0
H1188 H 0.96216 0.64361 0.44861 0.0
C1189 C 0.92793 0.56267 0.3911 0.0
C1190 C 0.44204 0.36686 0.32402 0.0
C1191 C 0.44816 0.34125 0.30459 0.0
H1192 H 0.43784 0.39542 0.40325 0.0
C1193 C 0.45427 0.32412 0.3527 0.0
H1194 H 0.43668 0.38016 0.28815 0.0
C1195 C 0.4551 0.33295 0.41868 0.0
C1196 C 0.44971 0.35906 0.43824 0.0
H1197 H 0.45947 0.30453 0.33939 0.0
H1198 H 0.46105 0.31998 0.45434 0.0
C1199 C 0.44273 0.37561 0.39003 0.0
C1200 C 0.39505 0.92294 0.66712 0.0
C1201 C 0.37912 0.93589 0.62855 0.0
H1202 H 0.39771 0.90303 0.75729 0.0
C1203 C 0.35362 0.93981 0.65496 0.0
H1204 H 0.41448 0.91916 0.64816 0.0
C1205 C 0.34411 0.93077 0.71788 0.0
C1206 C 0.35967 0.91732 0.75622 0.0
H1207 H 0.34116 0.95021 0.62714 0.0
H1208 H 0.32471 0.93464 0.73665 0.0
C1209 C 0.38541 0.91371 0.72992 0.0
C1210 C 0.11183 0.45325 0.74925 0.0
C1211 C 0.14166 0.45758 0.78 0.0
H1212 H 0.08742 0.45773 0.66309 0.0
C1213 C 0.17049 0.47027 0.74487 0.0
H1214 H 0.08902 0.443 0.77452 0.0
C1215 C 0.16967 0.479 0.68099 0.0
C1216 C 0.13994 0.47511 0.65045 0.0
H1217 H 0.19396 0.47427 0.76734 0.0
H1218 H 0.1926 0.48954 0.65611 0.0
C1219 C 0.11096 0.46181 0.68533 0.0
C1220 C 0.6013 0.72642 0.71222 0.0
C1221 C 0.60474 0.70807 0.7611 0.0
H1222 H 0.59718 0.73152 0.61034 0.0
C1223 C 0.60751 0.68022 0.74267 0.0
H1224 H 0.59861 0.7477 0.72472 0.0
C1225 C 0.60703 0.67105 0.67688 0.0
C1226 C 0.60355 0.68941 0.62787 0.0
H1227 H 0.61064 0.66581 0.7792 0.0
H1228 H 0.6099 0.64987 0.66452 0.0
C1229 C 0.60059 0.71715 0.64654 0.0
C1230 C 0.34626 0.46512 0.74544 0.0
C1231 C 0.35979 0.45027 0.78494 0.0
H1232 H 0.34599 0.48513 0.65424 0.0
C1233 C 0.38329 0.44295 0.75939 0.0
H1234 H 0.32845 0.4715 0.76386 0.0
C1235 C 0.39318 0.45048 0.69614 0.0
C1236 C 0.38001 0.46579 0.6568 0.0
H1237 H 0.39385 0.43107 0.78813 0.0
H1238 H 0.41093 0.44399 0.67792 0.0
C1239 C 0.35632 0.47288 0.68239 0.0
C1240 C 0.6168 0.95102 0.75831 0.0
C1241 C 0.61546 0.92109 0.77149 0.0
H1242 H 0.61758 0.98287 0.68602 0.0
C1243 C 0.61408 0.90007 0.71902 0.0
H1244 H 0.61848 0.96805 0.79769 0.0
C1245 C 0.61322 0.90837 0.65485 0.0
C1246 C 0.61398 0.93806 0.64144 0.0
H1247 H 0.61271 0.87669 0.72748 0.0
H1248 H 0.61099 0.89099 0.61571 0.0
C1249 C 0.61622 0.95947 0.69418 0.0
C1250 C 0.12776 0.65928 0.71205 0.0
C1251 C 0.12019 0.67562 0.66436 0.0
H1252 H 0.13645 0.65612 0.81346 0.0
C1253 C 0.11332 0.70065 0.68434 0.0
H1254 H 0.13356 0.64016 0.69829 0.0
C1255 C 0.11486 0.70973 0.75043 0.0
C1256 C 0.1234 0.69407 0.79812 0.0
H1257 H 0.10683 0.71331 0.64882 0.0
H1258 H 0.1095 0.72916 0.76416 0.0
C1259 C 0.12938 0.66841 0.77813 0.0
loop_
_geom_bond_atom_site_label_1
_geom_bond_atom_site_label_2
_geom_bond_distance
_geom_bond_site_symmetry_2
_ccdc_geom_bond_type
C0 Eu1 2.835 . S
C0 C2 1.500 . S
C0 O20 1.257 1_655 S
C0 O21 1.260 . S
Eu1 C0 2.835 . S
Eu1 O20 2.473 1_655 S
Eu1 O21 2.480 . S
Eu1 O22 2.430 . S
Eu1 O23 2.670 . S
Eu1 O24 2.394 1_655 S
Eu1 O29 2.355 1_655 S
Eu1 O31 2.374 . S
C2 C0 1.500 . S
C2 C3 1.377 . S
C2 C7 1.377 1_655 S
C3 C2 1.377 . S
C3 C4 1.395 . S
C3 H32 0.931 . S
C4 C3 1.395 . S
C4 C5 1.383 1_655 S
C4 H33 0.931 . S
C5 C4 1.383 1_455 S
C5 C6 1.394 . S
C6 C5 1.394 . S
C6 C7 1.378 . S
C6 H34 0.931 . S
C7 C2 1.377 1_455 S
C7 C6 1.378 . S
C7 H35 0.931 . S
C8 O22 1.259 . S
C8 O23 1.270 . S
C9 O24 1.251 . S
C9 O25 1.251 . S
C10 Eu11 2.835 . S
C10 C12 1.500 . S
C10 O26 1.255 1_455 S
C10 O27 1.260 . S
Eu11 C10 2.835 . S
Eu11 O23 2.355 1_455 S
Eu11 O25 2.374 . S
Eu11 O26 2.471 1_455 S
Eu11 O27 2.480 . S
Eu11 O28 2.430 . S
Eu11 O29 2.670 . S
Eu11 O30 2.394 1_455 S
C12 C10 1.500 . S
C12 C13 1.377 . S
C12 C17 1.377 1_455 S
C13 C12 1.377 . S
C13 C14 1.395 . S
C13 H36 0.931 . S
C14 C13 1.395 . S
C14 C15 1.383 . S
C14 H37 0.931 . S
C15 C14 1.383 . S
C15 C16 1.394 1_455 S
C16 C15 1.394 1_655 S
C16 C17 1.378 . S
C16 H38 0.931 . S
C17 C12 1.377 1_655 S
C17 C16 1.378 . S
C17 H39 0.931 . S
C18 O28 1.259 . S
C18 O29 1.270 . S
C19 O30 1.251 . S
C19 O31 1.251 . S
O20 C0 1.257 1_455 S
O20 Eu1 2.473 1_455 S
O21 C0 1.260 . S
O21 Eu1 2.480 . S
O22 Eu1 2.430 . S
O22 C8 1.259 . S
O23 Eu1 2.670 . S
O23 C8 1.270 . S
O23 Eu11 2.355 1_655 S
O24 Eu1 2.394 1_455 S
O24 C9 1.251 . S
O25 C9 1.251 . S
O25 Eu11 2.374 . S
O26 C10 1.255 1_655 S
O26 Eu11 2.471 1_655 S
O27 C10 1.260 . S
O27 Eu11 2.480 . S
O28 Eu11 2.430 . S
O28 C18 1.259 . S
O29 Eu1 2.355 1_455 S
O29 Eu11 2.670 . S
O29 C18 1.270 . S
O30 Eu11 2.394 1_655 S
O30 C19 1.251 . S
O31 Eu1 2.374 . S
O31 C19 1.251 . S
H32 C3 0.931 . S
H33 C4 0.931 . S
H34 C6 0.931 . S
H35 C7 0.931 . S
H36 C13 0.931 . S
H37 C14 0.931 . S
H38 C16 0.931 . S
H39 C17 0.931 . S
C40 Eu41 2.835 . S
C40 C42 1.500 . S
C40 O60 1.257 . S
C40 O61 1.260 . S
Eu41 C40 2.835 . S
Eu41 O60 2.473 . S
Eu41 O61 2.480 . S
Eu41 O62 2.430 . S
Eu41 O63 2.670 . S
Eu41 O64 2.394 . S
Eu41 O69 2.355 . S
Eu41 O71 2.374 . S
C42 C40 1.500 . S
C42 C43 1.377 . S
C42 C47 1.377 . S
C43 C42 1.377 . S
C43 C44 1.395 . S
C43 H72 0.931 . S
C44 C43 1.395 . S
C44 C45 1.383 . S
C44 H73 0.931 . S
C45 C44 1.383 . S
C45 C46 1.394 . S
C46 C45 1.394 . S
C46 C47 1.378 . S
C46 H74 0.931 . S
C47 C42 1.377 . S
C47 C46 1.378 . S
C47 H75 0.931 . S
C48 O62 1.259 . S
C48 O63 1.270 . S
C49 O64 1.251 . S
C49 O65 1.251 . S
C50 Eu51 2.835 . S
C50 C52 1.500 . S
C50 O66 1.257 . S
C50 O67 1.260 . S
Eu51 C50 2.835 . S
Eu51 O63 2.355 . S
Eu51 O65 2.374 . S
Eu51 O66 2.473 . S
Eu51 O67 2.480 . S
Eu51 O68 2.430 . S
Eu51 O69 2.670 . S
Eu51 O70 2.394 . S
C52 C50 1.500 . S
C52 C53 1.377 . S
C52 C57 1.377 . S
C53 C52 1.377 . S
C53 C54 1.395 . S
C53 H76 0.931 . S
C54 C53 1.395 . S
C54 C55 1.383 . S
C54 H77 0.931 . S
C55 C54 1.383 . S
C55 C56 1.394 . S
C56 C55 1.394 . S
C56 C57 1.378 . S
C56 H78 0.931 . S
C57 C52 1.377 . S
C57 C56 1.378 . S
C57 H79 0.931 . S
C58 O68 1.259 . S
C58 O69 1.270 . S
C59 O70 1.251 . S
C59 O71 1.251 . S
O60 C40 1.257 . S
O60 Eu41 2.473 . S
O61 C40 1.260 . S
O61 Eu41 2.480 . S
O62 Eu41 2.430 . S
O62 C48 1.259 . S
O63 Eu41 2.670 . S
O63 C48 1.270 . S
O63 Eu51 2.355 . S
O64 Eu41 2.394 . S
O64 C49 1.251 . S
O65 C49 1.251 . S
O65 Eu51 2.374 . S
O66 C50 1.257 . S
O66 Eu51 2.473 . S
O67 C50 1.260 . S
O67 Eu51 2.480 . S
O68 Eu51 2.430 . S
O68 C58 1.259 . S
O69 Eu41 2.355 . S
O69 Eu51 2.670 . S
O69 C58 1.270 . S
O70 Eu51 2.394 . S
O70 C59 1.251 . S
O71 Eu41 2.374 . S
O71 C59 1.251 . S
H72 C43 0.931 . S
H73 C44 0.931 . S
H74 C46 0.931 . S
H75 C47 0.931 . S
H76 C53 0.931 . S
H77 C54 0.931 . S
H78 C56 0.931 . S
H79 C57 0.931 . S
C80 Eu81 2.835 . S
C80 C82 1.509 . S
C80 O100 1.257 1_545 S
C80 O101 1.260 . S
Eu81 C80 2.835 . S
Eu81 O100 2.473 1_545 S
Eu81 O101 2.480 . S
Eu81 O102 2.430 . S
Eu81 O103 2.670 . S
Eu81 O104 2.394 1_545 S
Eu81 O109 2.355 1_545 S
Eu81 O111 2.374 . S
C82 C80 1.509 . S
C82 C83 1.388 . S
C82 C87 1.360 1_545 S
C83 C82 1.388 . S
C83 C84 1.395 . S
C83 H112 0.931 . S
C84 C83 1.395 . S
C84 C85 1.383 1_545 S
C84 H113 0.931 . S
C85 C84 1.383 1_565 S
C85 C86 1.394 . S
C86 C85 1.394 . S
C86 C87 1.378 . S
C86 H114 0.931 . S
C87 C82 1.360 1_565 S
C87 C86 1.378 . S
C87 H115 0.931 . S
C88 O102 1.259 . S
C88 O103 1.270 . S
C89 O104 1.251 . S
C89 O105 1.251 . S
C90 Eu91 2.835 . S
C90 C92 1.500 1_565 S
C90 O106 1.257 1_565 S
C90 O107 1.260 . S
Eu91 C90 2.835 . S
Eu91 O103 2.355 1_565 S
Eu91 O105 2.374 . S
Eu91 O106 2.473 1_565 S
Eu91 O107 2.480 . S
Eu91 O108 2.430 . S
Eu91 O109 2.670 . S
Eu91 O110 2.394 1_565 S
C92 C90 1.500 1_545 S
C92 C93 1.377 1_545 S
C92 C97 1.377 . S
C93 C92 1.377 1_565 S
C93 C94 1.395 . S
C93 H116 0.931 . S
C94 C93 1.395 . S
C94 C95 1.383 1_565 S
C94 H117 0.931 . S
C95 C94 1.383 1_545 S
C95 C96 1.394 . S
C96 C95 1.394 . S
C96 C97 1.378 . S
C96 H118 0.931 . S
C97 C92 1.377 . S
C97 C96 1.378 . S
C97 H119 0.931 . S
C98 O108 1.259 . S
C98 O109 1.270 . S
C99 O110 1.251 . S
C99 O111 1.251 . S
O100 C80 1.257 1_565 S
O100 Eu81 2.473 1_565 S
O101 C80 1.260 . S
O101 Eu81 2.480 . S
O102 Eu81 2.430 . S
O102 C88 1.259 . S
O103 Eu81 2.670 . S
O103 C88 1.270 . S
O103 Eu91 2.355 1_545 S
O104 Eu81 2.394 1_565 S
O104 C89 1.251 . S
O105 C89 1.251 . S
O105 Eu91 2.374 . S
O106 C90 1.257 1_545 S
O106 Eu91 2.473 1_545 S
O107 C90 1.260 . S
O107 Eu91 2.480 . S
O108 Eu91 2.430 . S
O108 C98 1.259 . S
O109 Eu81 2.355 1_565 S
O109 Eu91 2.670 . S
O109 C98 1.270 . S
O110 Eu91 2.394 1_545 S
O110 C99 1.251 . S
O111 Eu81 2.374 . S
O111 C99 1.251 . S
H112 C83 0.931 . S
H113 C84 0.931 . S
H114 C86 0.931 . S
H115 C87 0.931 . S
H116 C93 0.931 . S
H117 C94 0.931 . S
H118 C96 0.931 . S
H119 C97 0.931 . S
C120 Eu121 2.835 . S
C120 C122 1.500 . S
C120 O140 1.257 1_655 S
C120 O141 1.260 . S
Eu121 C120 2.835 . S
Eu121 O140 2.473 1_655 S
Eu121 O141 2.480 . S
Eu121 O142 2.430 . S
Eu121 O143 2.670 . S
Eu121 O144 2.394 1_655 S
Eu121 O149 2.355 1_655 S
Eu121 O151 2.374 . S
C122 C120 1.500 . S
C122 C123 1.377 . S
C122 C127 1.377 1_655 S
C123 C122 1.377 . S
C123 C124 1.395 . S
C123 H152 0.931 . S
C124 C123 1.395 . S
C124 C125 1.348 1_655 S
C124 H153 0.931 . S
C125 C124 1.348 1_455 S
C125 C126 1.426 . S
C126 C125 1.426 . S
C126 C127 1.378 . S
C126 H154 0.931 . S
C127 C122 1.377 1_455 S
C127 C126 1.378 . S
C127 H155 0.931 . S
C128 O142 1.259 . S
C128 O143 1.270 . S
C129 O144 1.251 . S
C129 O145 1.251 . S
C130 Eu131 2.835 . S
C130 C132 1.500 . S
C130 O146 1.257 1_455 S
C130 O147 1.260 . S
Eu131 C130 2.835 . S
Eu131 O143 2.355 1_455 S
Eu131 O145 2.374 . S
Eu131 O146 2.473 1_455 S
Eu131 O147 2.480 . S
Eu131 O148 2.430 . S
Eu131 O149 2.670 . S
Eu131 O150 2.394 1_455 S
C132 C130 1.500 . S
C132 C133 1.377 . S
C132 C137 1.377 1_455 S
C133 C132 1.377 . S
C133 C134 1.395 . S
C133 H156 0.931 . S
C134 C133 1.395 . S
C134 C135 1.383 . S
C134 H157 0.931 . S
C135 C134 1.383 . S
C135 C136 1.394 1_455 S
C136 C135 1.394 1_655 S
C136 C137 1.378 . S
C136 H158 0.931 . S
C137 C132 1.377 1_655 S
C137 C136 1.378 . S
C137 H159 0.931 . S
C138 O148 1.259 . S
C138 O149 1.270 . S
C139 O150 1.251 . S
C139 O151 1.251 . S
O140 C120 1.257 1_455 S
O140 Eu121 2.473 1_455 S
O141 C120 1.260 . S
O141 Eu121 2.480 . S
O142 Eu121 2.430 . S
O142 C128 1.259 . S
O143 Eu121 2.670 . S
O143 C128 1.270 . S
O143 Eu131 2.355 1_655 S
O144 Eu121 2.394 1_455 S
O144 C129 1.251 . S
O145 C129 1.251 . S
O145 Eu131 2.374 . S
O146 C130 1.257 1_655 S
O146 Eu131 2.473 1_655 S
O147 C130 1.260 . S
O147 Eu131 2.480 . S
O148 Eu131 2.430 . S
O148 C138 1.259 . S
O149 Eu121 2.355 1_455 S
O149 Eu131 2.670 . S
O149 C138 1.270 . S
O150 Eu131 2.394 1_655 S
O150 C139 1.251 . S
O151 Eu121 2.374 . S
O151 C139 1.251 . S
H152 C123 0.931 . S
H153 C124 0.931 . S
H154 C126 0.931 . S
H155 C127 0.931 . S
H156 C133 0.931 . S
H157 C134 0.931 . S
H158 C136 0.931 . S
H159 C137 0.931 . S
C160 Eu161 2.835 . S
C160 C162 1.500 . S
C160 O180 1.257 . S
C160 O181 1.260 . S
Eu161 C160 2.835 . S
Eu161 O180 2.473 . S
Eu161 O181 2.480 . S
Eu161 O182 2.430 . S
Eu161 O183 2.670 . S
Eu161 O184 2.394 . S
Eu161 O189 2.355 . S
Eu161 O191 2.374 . S
C162 C160 1.500 . S
C162 C163 1.377 . S
C162 C167 1.377 . S
C163 C162 1.377 . S
C163 C164 1.395 . S
C163 H192 0.931 . S
C164 C163 1.395 . S
C164 C165 1.383 . S
C164 H193 0.931 . S
C165 C164 1.383 . S
C165 C166 1.394 . S
C166 C165 1.394 . S
C166 C167 1.378 . S
C166 H194 0.931 . S
C167 C162 1.377 . S
C167 C166 1.378 . S
C167 H195 0.931 . S
C168 O182 1.259 . S
C168 O183 1.270 . S
C169 O184 1.251 . S
C169 O185 1.251 . S
C170 Eu171 2.835 . S
C170 C172 1.500 . S
C170 O186 1.257 . S
C170 O187 1.260 . S
Eu171 C170 2.835 . S
Eu171 O183 2.355 . S
Eu171 O185 2.374 . S
Eu171 O186 2.473 . S
Eu171 O187 2.480 . S
Eu171 O188 2.430 . S
Eu171 O189 2.670 . S
Eu171 O190 2.394 . S
C172 C170 1.500 . S
C172 C173 1.377 . S
C172 C177 1.377 . S
C173 C172 1.377 . S
C173 C174 1.395 . S
C173 H196 0.931 . S
C174 C173 1.395 . S
C174 C175 1.383 . S
C174 H197 0.931 . S
C175 C174 1.383 . S
C175 C176 1.394 . S
C176 C175 1.394 . S
C176 C177 1.378 . S
C176 H198 0.931 . S
C177 C172 1.377 . S
C177 C176 1.378 . S
C177 H199 0.931 . S
C178 O188 1.259 . S
C178 O189 1.270 . S
C179 O190 1.251 . S
C179 O191 1.251 . S
O180 C160 1.257 . S
O180 Eu161 2.473 . S
O181 C160 1.260 . S
O181 Eu161 2.480 . S
O182 Eu161 2.430 . S
O182 C168 1.259 . S
O183 Eu161 2.670 . S
O183 C168 1.270 . S
O183 Eu171 2.355 . S
O184 Eu161 2.394 . S
O184 C169 1.251 . S
O185 C169 1.251 . S
O185 Eu171 2.374 . S
O186 C170 1.257 . S
O186 Eu171 2.473 . S
O187 C170 1.260 . S
O187 Eu171 2.480 . S
O188 Eu171 2.430 . S
O188 C178 1.259 . S
O189 Eu161 2.355 . S
O189 Eu171 2.670 . S
O189 C178 1.270 . S
O190 Eu171 2.394 . S
O190 C179 1.251 . S
O191 Eu161 2.374 . S
O191 C179 1.251 . S
H192 C163 0.931 . S
H193 C164 0.931 . S
H194 C166 0.931 . S
H195 C167 0.931 . S
H196 C173 0.931 . S
H197 C174 0.931 . S
H198 C176 0.931 . S
H199 C177 0.931 . S
C200 Eu201 2.835 . S
C200 C202 1.500 . S
C200 O220 1.257 1_545 S
C200 O221 1.260 . S
Eu201 C200 2.835 . S
Eu201 O220 2.473 1_545 S
Eu201 O221 2.480 . S
Eu201 O222 2.430 . S
Eu201 O223 2.670 . S
Eu201 O224 2.394 1_545 S
Eu201 O229 2.355 1_545 S
Eu201 O231 2.374 . S
C202 C200 1.500 . S
C202 C203 1.377 . S
C202 C207 1.377 1_545 S
C203 C202 1.377 . S
C203 C204 1.395 . S
C203 H232 0.931 . S
C204 C203 1.395 . S
C204 C205 1.383 1_545 S
C204 H233 0.931 . S
C205 C204 1.383 1_565 S
C205 C206 1.394 . S
C206 C205 1.394 . S
C206 C207 1.378 . S
C206 H234 0.931 . S
C207 C202 1.377 1_565 S
C207 C206 1.378 . S
C207 H235 0.931 . S
C208 O222 1.259 . S
C208 O223 1.270 . S
C209 O224 1.251 . S
C209 O225 1.251 . S
C210 Eu211 2.835 . S
C210 C212 1.500 1_565 S
C210 O226 1.257 1_565 S
C210 O227 1.260 . S
Eu211 C210 2.835 . S
Eu211 O223 2.355 1_565 S
Eu211 O225 2.374 . S
Eu211 O226 2.473 1_565 S
Eu211 O227 2.480 . S
Eu211 O228 2.430 . S
Eu211 O229 2.670 . S
Eu211 O230 2.394 1_565 S
C212 C210 1.500 1_545 S
C212 C213 1.377 1_545 S
C212 C217 1.377 . S
C213 C212 1.377 1_565 S
C213 C214 1.395 . S
C213 H236 0.931 . S
C214 C213 1.395 . S
C214 C215 1.383 1_565 S
C214 H237 0.931 . S
C215 C214 1.383 1_545 S
C215 C216 1.394 . S
C216 C215 1.394 . S
C216 C217 1.378 . S
C216 H238 0.931 . S
C217 C212 1.377 . S
C217 C216 1.378 . S
C217 H239 0.931 . S
C218 O228 1.259 . S
C218 O229 1.270 . S
C219 O230 1.251 . S
C219 O231 1.251 . S
O220 C200 1.257 1_565 S
O220 Eu201 2.473 1_565 S
O221 C200 1.260 . S
O221 Eu201 2.480 . S
O222 Eu201 2.430 . S
O222 C208 1.259 . S
O223 Eu201 2.670 . S
O223 C208 1.270 . S
O223 Eu211 2.355 1_545 S
O224 Eu201 2.394 1_565 S
O224 C209 1.251 . S
O225 C209 1.251 . S
O225 Eu211 2.374 . S
O226 C210 1.257 1_545 S
O226 Eu211 2.473 1_545 S
O227 C210 1.260 . S
O227 Eu211 2.480 . S
O228 Eu211 2.430 . S
O228 C218 1.259 . S
O229 Eu201 2.355 1_565 S
O229 Eu211 2.670 . S
O229 C218 1.270 . S
O230 Eu211 2.394 1_545 S
O230 C219 1.251 . S
O231 Eu201 2.374 . S
O231 C219 1.251 . S
H232 C203 0.931 . S
H233 C204 0.931 . S
H234 C206 0.931 . S
H235 C207 0.931 . S
H236 C213 0.931 . S
H237 C214 0.931 . S
H238 C216 0.931 . S
H239 C217 0.931 . S
C240 Eu241 2.835 . S
C240 C242 1.500 1_556 S
C240 O260 1.257 . S
C240 O261 1.260 . S
Eu241 C240 2.835 . S
Eu241 O260 2.473 . S
Eu241 O261 2.480 . S
Eu241 O262 2.430 . S
Eu241 O263 2.670 . S
Eu241 O264 2.394 . S
Eu241 O269 2.355 . S
Eu241 O271 2.374 . S
C242 C240 1.500 1_554 S
C242 C243 1.377 . S
C242 C247 1.377 . S
C243 C242 1.377 . S
C243 C244 1.395 . S
C243 H272 0.931 . S
C244 C243 1.395 . S
C244 C245 1.383 . S
C244 H273 0.931 . S
C245 C244 1.383 . S
C245 C246 1.394 . S
C246 C245 1.394 . S
C246 C247 1.378 . S
C246 H274 0.931 . S
C247 C242 1.377 . S
C247 C246 1.378 . S
C247 H275 0.931 . S
C248 O262 1.259 . S
C248 O263 1.270 . S
C249 O264 1.251 . S
C249 O265 1.251 . S
C250 Eu251 2.835 . S
C250 C252 1.500 . S
C250 O266 1.257 . S
C250 O267 1.260 . S
Eu251 C250 2.835 . S
Eu251 O263 2.355 . S
Eu251 O265 2.374 . S
Eu251 O266 2.473 . S
Eu251 O267 2.480 . S
Eu251 O268 2.430 . S
Eu251 O269 2.670 . S
Eu251 O270 2.394 . S
C252 C250 1.500 . S
C252 C253 1.377 . S
C252 C257 1.377 . S
C253 C252 1.377 . S
C253 C254 1.395 . S
C253 H276 0.931 . S
C254 C253 1.395 . S
C254 C255 1.383 . S
C254 H277 0.931 . S
C255 C254 1.383 . S
C255 C256 1.394 . S
C256 C255 1.394 . S
C256 C257 1.378 . S
C256 H278 0.931 . S
C257 C252 1.377 . S
C257 C256 1.378 . S
C257 H279 0.931 . S
C258 O268 1.259 . S
C258 O269 1.270 . S
C259 O270 1.251 . S
C259 O271 1.251 . S
O260 C240 1.257 . S
O260 Eu241 2.473 . S
O261 C240 1.260 . S
O261 Eu241 2.480 . S
O262 Eu241 2.430 . S
O262 C248 1.259 . S
O263 Eu241 2.670 . S
O263 C248 1.270 . S
O263 Eu251 2.355 . S
O264 Eu241 2.394 . S
O264 C249 1.251 . S
O265 C249 1.251 . S
O265 Eu251 2.374 . S
O266 C250 1.257 . S
O266 Eu251 2.473 . S
O267 C250 1.260 . S
O267 Eu251 2.480 . S
O268 Eu251 2.430 . S
O268 C258 1.259 . S
O269 Eu241 2.355 . S
O269 Eu251 2.670 . S
O269 C258 1.270 . S
O270 Eu251 2.394 . S
O270 C259 1.251 . S
O271 Eu241 2.374 . S
O271 C259 1.251 . S
H272 C243 0.931 . S
H273 C244 0.931 . S
H274 C246 0.931 . S
H275 C247 0.931 . S
H276 C253 0.931 . S
H277 C254 0.931 . S
H278 C256 0.931 . S
H279 C257 0.931 . S
C280 Eu281 2.835 . S
C280 C282 1.500 1_556 S
C280 O300 1.257 . S
C280 O301 1.260 . S
Eu281 C280 2.835 . S
Eu281 O300 2.473 . S
Eu281 O301 2.480 . S
Eu281 O302 2.430 . S
Eu281 O303 2.670 . S
Eu281 O304 2.394 . S
Eu281 O309 2.355 . S
Eu281 O311 2.374 . S
C282 C280 1.500 1_554 S
C282 C283 1.377 . S
C282 C287 1.377 . S
C283 C282 1.377 . S
C283 C284 1.395 . S
C283 H312 0.931 . S
C284 C283 1.395 . S
C284 C285 1.383 . S
C284 H313 0.931 . S
C285 C284 1.383 . S
C285 C286 1.394 . S
C286 C285 1.394 . S
C286 C287 1.378 . S
C286 H314 0.931 . S
C287 C282 1.377 . S
C287 C286 1.378 . S
C287 H315 0.931 . S
C288 O302 1.259 . S
C288 O303 1.270 . S
C289 O304 1.251 . S
C289 O305 1.251 . S
C290 Eu291 2.835 . S
C290 C292 1.500 . S
C290 O306 1.257 . S
C290 O307 1.260 . S
Eu291 C290 2.835 . S
Eu291 O303 2.355 . S
Eu291 O305 2.374 . S
Eu291 O306 2.473 . S
Eu291 O307 2.480 . S
Eu291 O308 2.430 . S
Eu291 O309 2.670 . S
Eu291 O310 2.394 . S
C292 C290 1.500 . S
C292 C293 1.377 . S
C292 C297 1.377 . S
C293 C292 1.377 . S
C293 C294 1.395 . S
C293 H316 0.931 . S
C294 C293 1.395 . S
C294 C295 1.383 . S
C294 H317 0.931 . S
C295 C294 1.383 . S
C295 C296 1.394 . S
C296 C295 1.394 . S
C296 C297 1.378 . S
C296 H318 0.931 . S
C297 C292 1.377 . S
C297 C296 1.378 . S
C297 H319 0.931 . S
C298 O308 1.259 . S
C298 O309 1.270 . S
C299 O310 1.251 . S
C299 O311 1.251 . S
O300 C280 1.257 . S
O300 Eu281 2.473 . S
O301 C280 1.260 . S
O301 Eu281 2.480 . S
O302 Eu281 2.430 . S
O302 C288 1.259 . S
O303 Eu281 2.670 . S
O303 C288 1.270 . S
O303 Eu291 2.355 . S
O304 Eu281 2.394 . S
O304 C289 1.251 . S
O305 C289 1.251 . S
O305 Eu291 2.374 . S
O306 C290 1.257 . S
O306 Eu291 2.473 . S
O307 C290 1.260 . S
O307 Eu291 2.480 . S
O308 Eu291 2.430 . S
O308 C298 1.259 . S
O309 Eu281 2.355 . S
O309 Eu291 2.670 . S
O309 C298 1.270 . S
O310 Eu291 2.394 . S
O310 C299 1.251 . S
O311 Eu281 2.374 . S
O311 C299 1.251 . S
H312 C283 0.931 . S
H313 C284 0.931 . S
H314 C286 0.931 . S
H315 C287 0.931 . S
H316 C293 0.931 . S
H317 C294 0.931 . S
H318 C296 0.931 . S
H319 C297 0.931 . S
C320 Eu321 2.835 . S
C320 C322 1.500 1_556 S
C320 O340 1.257 . S
C320 O341 1.260 . S
Eu321 C320 2.835 . S
Eu321 O340 2.473 . S
Eu321 O341 2.480 . S
Eu321 O342 2.430 . S
Eu321 O343 2.670 . S
Eu321 O344 2.394 . S
Eu321 O349 2.355 . S
Eu321 O351 2.374 . S
C322 C320 1.500 1_554 S
C322 C323 1.377 . S
C322 C327 1.377 . S
C323 C322 1.377 . S
C323 C324 1.395 . S
C323 H352 0.931 . S
C324 C323 1.395 . S
C324 C325 1.383 . S
C324 H353 0.931 . S
C325 C324 1.383 . S
C325 C326 1.394 . S
C326 C325 1.394 . S
C326 C327 1.378 . S
C326 H354 0.931 . S
C327 C322 1.377 . S
C327 C326 1.378 . S
C327 H355 0.931 . S
C328 O342 1.259 . S
C328 O343 1.270 . S
C329 O344 1.251 . S
C329 O345 1.251 . S
C330 Eu331 2.835 . S
C330 C332 1.500 . S
C330 O346 1.257 . S
C330 O347 1.260 . S
Eu331 C330 2.835 . S
Eu331 O343 2.355 . S
Eu331 O345 2.374 . S
Eu331 O346 2.473 . S
Eu331 O347 2.480 . S
Eu331 O348 2.430 . S
Eu331 O349 2.670 . S
Eu331 O350 2.394 . S
C332 C330 1.500 . S
C332 C333 1.377 . S
C332 C337 1.377 . S
C333 C332 1.377 . S
C333 C334 1.395 . S
C333 H356 0.931 . S
C334 C333 1.395 . S
C334 C335 1.383 . S
C334 H357 0.931 . S
C335 C334 1.383 . S
C335 C336 1.394 . S
C336 C335 1.394 . S
C336 C337 1.378 . S
C336 H358 0.931 . S
C337 C332 1.377 . S
C337 C336 1.378 . S
C337 H359 0.931 . S
C338 O348 1.259 . S
C338 O349 1.270 . S
C339 O350 1.251 . S
C339 O351 1.251 . S
O340 C320 1.257 . S
O340 Eu321 2.473 . S
O341 C320 1.260 . S
O341 Eu321 2.480 . S
O342 Eu321 2.430 . S
O342 C328 1.259 . S
O343 Eu321 2.670 . S
O343 C328 1.270 . S
O343 Eu331 2.355 . S
O344 Eu321 2.394 . S
O344 C329 1.251 . S
O345 C329 1.251 . S
O345 Eu331 2.374 . S
O346 C330 1.257 . S
O346 Eu331 2.473 . S
O347 C330 1.260 . S
O347 Eu331 2.480 . S
O348 Eu331 2.430 . S
O348 C338 1.259 . S
O349 Eu321 2.355 . S
O349 Eu331 2.670 . S
O349 C338 1.270 . S
O350 Eu331 2.394 . S
O350 C339 1.251 . S
O351 Eu321 2.374 . S
O351 C339 1.251 . S
H352 C323 0.931 . S
H353 C324 0.931 . S
H354 C326 0.931 . S
H355 C327 0.931 . S
H356 C333 0.931 . S
H357 C334 0.931 . S
H358 C336 0.931 . S
H359 C337 0.931 . S
C360 Eu361 2.835 . S
C360 C362 1.500 . S
C360 O380 1.257 . S
C360 O381 1.260 . S
Eu361 C360 2.835 . S
Eu361 O380 2.473 . S
Eu361 O381 2.480 . S
Eu361 O382 2.430 . S
Eu361 O383 2.670 . S
Eu361 O384 2.394 . S
Eu361 O389 2.355 . S
Eu361 O391 2.374 . S
C362 C360 1.500 . S
C362 C363 1.377 . S
C362 C367 1.377 . S
C363 C362 1.377 . S
C363 C364 1.395 . S
C363 H392 0.931 . S
C364 C363 1.395 . S
C364 C365 1.383 . S
C364 H393 0.931 . S
C365 C364 1.383 . S
C365 C366 1.394 . S
C366 C365 1.394 . S
C366 C367 1.378 . S
C366 H394 0.931 . S
C367 C362 1.377 . S
C367 C366 1.378 . S
C367 H395 0.931 . S
C368 O382 1.259 . S
C368 O383 1.270 . S
C369 O384 1.251 . S
C369 O385 1.251 . S
C370 Eu371 2.835 1_554 S
C370 C372 1.500 . S
C370 O386 1.257 1_554 S
C370 O387 1.260 1_554 S
Eu371 C370 2.835 1_556 S
Eu371 O383 2.355 . S
Eu371 O385 2.374 . S
Eu371 O386 2.473 . S
Eu371 O387 2.480 . S
Eu371 O388 2.430 . S
Eu371 O389 2.670 . S
Eu371 O390 2.394 . S
C372 C370 1.500 . S
C372 C373 1.377 . S
C372 C377 1.377 . S
C373 C372 1.377 . S
C373 C374 1.395 . S
C373 H396 0.931 . S
C374 C373 1.395 . S
C374 C375 1.383 . S
C374 H397 0.931 . S
C375 C374 1.383 . S
C375 C376 1.394 . S
C376 C375 1.394 . S
C376 C377 1.378 . S
C376 H398 0.931 . S
C377 C372 1.377 . S
C377 C376 1.378 . S
C377 H399 0.931 . S
C378 O388 1.259 . S
C378 O389 1.270 . S
C379 O390 1.251 . S
C379 O391 1.251 . S
O380 C360 1.257 . S
O380 Eu361 2.473 . S
O381 C360 1.260 . S
O381 Eu361 2.480 . S
O382 Eu361 2.430 . S
O382 C368 1.259 . S
O383 Eu361 2.670 . S
O383 C368 1.270 . S
O383 Eu371 2.355 . S
O384 Eu361 2.394 . S
O384 C369 1.251 . S
O385 C369 1.251 . S
O385 Eu371 2.374 . S
O386 C370 1.257 1_556 S
O386 Eu371 2.473 . S
O387 C370 1.260 1_556 S
O387 Eu371 2.480 . S
O388 Eu371 2.430 . S
O388 C378 1.259 . S
O389 Eu361 2.355 . S
O389 Eu371 2.670 . S
O389 C378 1.270 . S
O390 Eu371 2.394 . S
O390 C379 1.251 . S
O391 Eu361 2.374 . S
O391 C379 1.251 . S
H392 C363 0.931 . S
H393 C364 0.931 . S
H394 C366 0.931 . S
H395 C367 0.931 . S
H396 C373 0.931 . S
H397 C374 0.931 . S
H398 C376 0.931 . S
H399 C377 0.931 . S
C400 Eu401 2.835 . S
C400 C402 1.500 . S
C400 O420 1.257 . S
C400 O421 1.260 . S
Eu401 C400 2.835 . S
Eu401 O420 2.473 . S
Eu401 O421 2.480 . S
Eu401 O422 2.430 . S
Eu401 O423 2.670 . S
Eu401 O424 2.394 . S
Eu401 O429 2.355 . S
Eu401 O431 2.374 . S
C402 C400 1.500 . S
C402 C403 1.377 . S
C402 C407 1.377 . S
C403 C402 1.377 . S
C403 C404 1.395 . S
C403 H432 0.931 . S
C404 C403 1.395 . S
C404 C405 1.383 . S
C404 H433 0.931 . S
C405 C404 1.383 . S
C405 C406 1.394 . S
C406 C405 1.394 . S
C406 C407 1.378 . S
C406 H434 0.931 . S
C407 C402 1.377 . S
C407 C406 1.378 . S
C407 H435 0.931 . S
C408 O422 1.259 . S
C408 O423 1.270 . S
C409 O424 1.251 . S
C409 O425 1.251 . S
C410 Eu411 2.835 1_554 S
C410 C412 1.500 . S
C410 O426 1.257 1_554 S
C410 O427 1.260 . S
Eu411 C410 2.835 1_556 S
Eu411 O423 2.355 . S
Eu411 O425 2.374 . S
Eu411 O426 2.473 . S
Eu411 O427 2.480 1_556 S
Eu411 O428 2.430 . S
Eu411 O429 2.670 . S
Eu411 O430 2.394 . S
C412 C410 1.500 . S
C412 C413 1.377 . S
C412 C417 1.377 . S
C413 C412 1.377 . S
C413 C414 1.395 . S
C413 H436 0.931 . S
C414 C413 1.395 . S
C414 C415 1.383 . S
C414 H437 0.931 . S
C415 C414 1.383 . S
C415 C416 1.394 . S
C416 C415 1.394 . S
C416 C417 1.378 . S
C416 H438 0.931 . S
C417 C412 1.377 . S
C417 C416 1.378 . S
C417 H439 0.931 . S
C418 O428 1.259 . S
C418 O429 1.270 . S
C419 O430 1.251 . S
C419 O431 1.251 . S
O420 C400 1.257 . S
O420 Eu401 2.473 . S
O421 C400 1.260 . S
O421 Eu401 2.480 . S
O422 Eu401 2.430 . S
O422 C408 1.259 . S
O423 Eu401 2.670 . S
O423 C408 1.270 . S
O423 Eu411 2.355 . S
O424 Eu401 2.394 . S
O424 C409 1.251 . S
O425 C409 1.251 . S
O425 Eu411 2.374 . S
O426 C410 1.257 1_556 S
O426 Eu411 2.473 . S
O427 C410 1.260 . S
O427 Eu411 2.480 1_554 S
O428 Eu411 2.430 . S
O428 C418 1.259 . S
O429 Eu401 2.355 . S
O429 Eu411 2.670 . S
O429 C418 1.270 . S
O430 Eu411 2.394 . S
O430 C419 1.251 . S
O431 Eu401 2.374 . S
O431 C419 1.251 . S
H432 C403 0.931 . S
H433 C404 0.931 . S
H434 C406 0.931 . S
H435 C407 0.931 . S
H436 C413 0.931 . S
H437 C414 0.931 . S
H438 C416 0.931 . S
H439 C417 0.931 . S
C440 Eu441 2.835 . S
C440 C442 1.500 . S
C440 O460 1.257 . S
C440 O461 1.260 . S
Eu441 C440 2.835 . S
Eu441 O460 2.473 . S
Eu441 O461 2.480 . S
Eu441 O462 2.430 . S
Eu441 O463 2.670 . S
Eu441 O464 2.394 . S
Eu441 O469 2.355 . S
Eu441 O471 2.374 . S
C442 C440 1.500 . S
C442 C443 1.377 . S
C442 C447 1.377 . S
C443 C442 1.377 . S
C443 C444 1.395 . S
C443 H472 0.931 . S
C444 C443 1.395 . S
C444 C445 1.383 . S
C444 H473 0.931 . S
C445 C444 1.383 . S
C445 C446 1.394 . S
C446 C445 1.394 . S
C446 C447 1.378 . S
C446 H474 0.931 . S
C447 C442 1.377 . S
C447 C446 1.378 . S
C447 H475 0.931 . S
C448 O462 1.259 . S
C448 O463 1.270 . S
C449 O464 1.251 . S
C449 O465 1.251 . S
C450 Eu451 2.835 1_554 S
C450 C452 1.500 . S
C450 O466 1.257 1_554 S
C450 O467 1.260 1_554 S
Eu451 C450 2.835 1_556 S
Eu451 O463 2.355 . S
Eu451 O465 2.374 . S
Eu451 O466 2.473 . S
Eu451 O467 2.480 . S
Eu451 O468 2.430 . S
Eu451 O469 2.670 . S
Eu451 O470 2.394 . S
C452 C450 1.500 . S
C452 C453 1.377 . S
C452 C457 1.377 . S
C453 C452 1.377 . S
C453 C454 1.395 . S
C453 H476 0.931 . S
C454 C453 1.395 . S
C454 C455 1.383 . S
C454 H477 0.931 . S
C455 C454 1.383 . S
C455 C456 1.394 . S
C456 C455 1.394 . S
C456 C457 1.378 . S
C456 H478 0.931 . S
C457 C452 1.377 . S
C457 C456 1.378 . S
C457 H479 0.931 . S
C458 O468 1.259 . S
C458 O469 1.270 . S
C459 O470 1.251 . S
C459 O471 1.251 . S
O460 C440 1.257 . S
O460 Eu441 2.473 . S
O461 C440 1.260 . S
O461 Eu441 2.480 . S
O462 Eu441 2.430 . S
O462 C448 1.259 . S
O463 Eu441 2.670 . S
O463 C448 1.270 . S
O463 Eu451 2.355 . S
O464 Eu441 2.394 . S
O464 C449 1.251 . S
O465 C449 1.251 . S
O465 Eu451 2.374 . S
O466 C450 1.257 1_556 S
O466 Eu451 2.473 . S
O467 C450 1.260 1_556 S
O467 Eu451 2.480 . S
O468 Eu451 2.430 . S
O468 C458 1.259 . S
O469 Eu441 2.355 . S
O469 Eu451 2.670 . S
O469 C458 1.270 . S
O470 Eu451 2.394 . S
O470 C459 1.251 . S
O471 Eu441 2.374 . S
O471 C459 1.251 . S
H472 C443 0.931 . S
H473 C444 0.931 . S
H474 C446 0.931 . S
H475 C447 0.931 . S
H476 C453 0.931 . S
H477 C454 0.931 . S
H478 C456 0.931 . S
H479 C457 0.931 . S
C480 Eu481 2.835 1_556 S
C480 C482 1.500 . S
C480 O500 1.257 . S
C480 O501 1.260 . S
Eu481 C480 2.835 1_554 S
Eu481 O500 2.473 1_554 S
Eu481 O501 2.480 1_554 S
Eu481 O502 2.430 . S
Eu481 O503 2.670 . S
Eu481 O504 2.394 . S
Eu481 O509 2.355 . S
Eu481 O511 2.374 . S
C482 C480 1.500 . S
C482 C483 1.377 . S
C482 C487 1.377 . S
C483 C482 1.377 . S
C483 C484 1.395 . S
C483 H512 0.931 . S
C484 C483 1.395 . S
C484 C485 1.383 . S
C484 H513 0.931 . S
C485 C484 1.383 . S
C485 C486 1.394 . S
C486 C485 1.394 . S
C486 C487 1.378 . S
C486 H514 0.931 . S
C487 C482 1.377 . S
C487 C486 1.378 . S
C487 H515 0.931 . S
C488 O502 1.259 . S
C488 O503 1.270 . S
C489 O504 1.251 . S
C489 O505 1.251 . S
C490 Eu491 2.835 . S
C490 C492 1.500 . S
C490 O506 1.257 . S
C490 O507 1.260 . S
Eu491 C490 2.835 . S
Eu491 O503 2.355 . S
Eu491 O505 2.374 . S
Eu491 O506 2.473 . S
Eu491 O507 2.480 . S
Eu491 O508 2.430 . S
Eu491 O509 2.670 . S
Eu491 O510 2.394 . S
C492 C490 1.500 . S
C492 C493 1.377 . S
C492 C497 1.377 . S
C493 C492 1.377 . S
C493 C494 1.395 . S
C493 H516 0.931 . S
C494 C493 1.395 . S
C494 C495 1.383 . S
C494 H517 0.931 . S
C495 C494 1.383 . S
C495 C496 1.394 . S
C496 C495 1.394 . S
C496 C497 1.378 . S
C496 H518 0.931 . S
C497 C492 1.377 . S
C497 C496 1.378 . S
C497 H519 0.931 . S
C498 O508 1.259 . S
C498 O509 1.270 . S
C499 O510 1.251 . S
C499 O511 1.251 . S
O500 C480 1.257 . S
O500 Eu481 2.473 1_556 S
O501 C480 1.260 . S
O501 Eu481 2.480 1_556 S
O502 Eu481 2.430 . S
O502 C488 1.259 . S
O503 Eu481 2.670 . S
O503 C488 1.270 . S
O503 Eu491 2.355 . S
O504 Eu481 2.394 . S
O504 C489 1.251 . S
O505 C489 1.251 . S
O505 Eu491 2.374 . S
O506 C490 1.257 . S
O506 Eu491 2.473 . S
O507 C490 1.260 . S
O507 Eu491 2.480 . S
O508 Eu491 2.430 . S
O508 C498 1.259 . S
O509 Eu481 2.355 . S
O509 Eu491 2.670 . S
O509 C498 1.270 . S
O510 Eu491 2.394 . S
O510 C499 1.251 . S
O511 Eu481 2.374 . S
O511 C499 1.251 . S
H512 C483 0.931 . S
H513 C484 0.931 . S
H514 C486 0.931 . S
H515 C487 0.931 . S
H516 C493 0.931 . S
H517 C494 0.931 . S
H518 C496 0.931 . S
H519 C497 0.931 . S
C520 Eu521 2.835 . S
C520 C522 1.500 . S
C520 O540 1.257 . S
C520 O541 1.260 . S
Eu521 C520 2.835 . S
Eu521 O540 2.473 . S
Eu521 O541 2.480 . S
Eu521 O542 2.430 . S
Eu521 O543 2.670 . S
Eu521 O544 2.394 . S
Eu521 O549 2.355 . S
Eu521 O551 2.374 . S
C522 C520 1.500 . S
C522 C523 1.377 . S
C522 C527 1.377 . S
C523 C522 1.377 . S
C523 C524 1.395 . S
C523 H552 0.931 . S
C524 C523 1.395 . S
C524 C525 1.383 . S
C524 H553 0.931 . S
C525 C524 1.383 . S
C525 C526 1.394 . S
C526 C525 1.394 . S
C526 C527 1.378 . S
C526 H554 0.931 . S
C527 C522 1.377 . S
C527 C526 1.378 . S
C527 H555 0.931 . S
C528 O542 1.259 . S
C528 O543 1.270 . S
C529 O544 1.251 . S
C529 O545 1.251 . S
C530 Eu531 2.835 1_556 S
C530 C532 1.500 . S
C530 O546 1.257 . S
C530 O547 1.260 . S
Eu531 C530 2.835 1_554 S
Eu531 O543 2.355 . S
Eu531 O545 2.374 . S
Eu531 O546 2.473 1_554 S
Eu531 O547 2.480 1_554 S
Eu531 O548 2.430 . S
Eu531 O549 2.670 . S
Eu531 O550 2.394 . S
C532 C530 1.500 . S
C532 C533 1.377 . S
C532 C537 1.377 . S
C533 C532 1.377 . S
C533 C534 1.395 . S
C533 H556 0.931 . S
C534 C533 1.395 . S
C534 C535 1.383 . S
C534 H557 0.931 . S
C535 C534 1.383 . S
C535 C536 1.394 . S
C536 C535 1.394 . S
C536 C537 1.378 . S
C536 H558 0.931 . S
C537 C532 1.377 . S
C537 C536 1.378 . S
C537 H559 0.931 . S
C538 O548 1.259 . S
C538 O549 1.270 . S
C539 O550 1.251 . S
C539 O551 1.251 . S
O540 C520 1.257 . S
O540 Eu521 2.473 . S
O541 C520 1.260 . S
O541 Eu521 2.480 . S
O542 Eu521 2.430 . S
O542 C528 1.259 . S
O543 Eu521 2.670 . S
O543 C528 1.270 . S
O543 Eu531 2.355 . S
O544 Eu521 2.394 . S
O544 C529 1.251 . S
O545 C529 1.251 . S
O545 Eu531 2.374 . S
O546 C530 1.257 . S
O546 Eu531 2.473 1_556 S
O547 C530 1.260 . S
O547 Eu531 2.480 1_556 S
O548 Eu531 2.430 . S
O548 C538 1.259 . S
O549 Eu521 2.355 . S
O549 Eu531 2.670 . S
O549 C538 1.270 . S
O550 Eu531 2.394 . S
O550 C539 1.251 . S
O551 Eu521 2.374 . S
O551 C539 1.251 . S
H552 C523 0.931 . S
H553 C524 0.931 . S
H554 C526 0.931 . S
H555 C527 0.931 . S
H556 C533 0.931 . S
H557 C534 0.931 . S
H558 C536 0.931 . S
H559 C537 0.931 . S
C560 Eu561 2.835 1_556 S
C560 C562 1.500 . S
C560 O580 1.257 1_556 S
C560 O581 1.260 1_556 S
Eu561 C560 2.835 1_554 S
Eu561 O580 2.473 . S
Eu561 O581 2.480 . S
Eu561 O582 2.430 . S
Eu561 O583 2.670 . S
Eu561 O584 2.394 . S
Eu561 O589 2.355 . S
Eu561 O591 2.374 . S
C562 C560 1.500 . S
C562 C563 1.377 . S
C562 C567 1.377 . S
C563 C562 1.377 . S
C563 C564 1.395 . S
C563 H592 0.931 . S
C564 C563 1.395 . S
C564 C565 1.383 . S
C564 H593 0.931 . S
C565 C564 1.383 . S
C565 C566 1.394 . S
C566 C565 1.394 . S
C566 C567 1.378 . S
C566 H594 0.931 . S
C567 C562 1.377 . S
C567 C566 1.378 . S
C567 H595 0.931 . S
C568 O582 1.259 . S
C568 O583 1.270 . S
C569 O584 1.251 . S
C569 O585 1.251 . S
C570 Eu571 2.835 . S
C570 C572 1.500 . S
C570 O586 1.257 . S
C570 O587 1.260 . S
Eu571 C570 2.835 . S
Eu571 O583 2.355 . S
Eu571 O585 2.374 . S
Eu571 O586 2.473 . S
Eu571 O587 2.480 . S
Eu571 O588 2.430 . S
Eu571 O589 2.670 . S
Eu571 O590 2.394 . S
C572 C570 1.500 . S
C572 C573 1.377 . S
C572 C577 1.377 . S
C573 C572 1.377 . S
C573 C574 1.395 . S
C573 H596 0.931 . S
C574 C573 1.395 . S
C574 C575 1.383 . S
C574 H597 0.931 . S
C575 C574 1.383 . S
C575 C576 1.394 . S
C576 C575 1.394 . S
C576 C577 1.378 . S
C576 H598 0.931 . S
C577 C572 1.377 . S
C577 C576 1.378 . S
C577 H599 0.931 . S
C578 O588 1.259 . S
C578 O589 1.270 . S
C579 O590 1.251 . S
C579 O591 1.251 . S
O580 C560 1.257 1_554 S
O580 Eu561 2.473 . S
O581 C560 1.260 1_554 S
O581 Eu561 2.480 . S
O582 Eu561 2.430 . S
O582 C568 1.259 . S
O583 Eu561 2.670 . S
O583 C568 1.270 . S
O583 Eu571 2.355 . S
O584 Eu561 2.394 . S
O584 C569 1.251 . S
O585 C569 1.251 . S
O585 Eu571 2.374 . S
O586 C570 1.257 . S
O586 Eu571 2.473 . S
O587 C570 1.260 . S
O587 Eu571 2.480 . S
O588 Eu571 2.430 . S
O588 C578 1.259 . S
O589 Eu561 2.355 . S
O589 Eu571 2.670 . S
O589 C578 1.270 . S
O590 Eu571 2.394 . S
O590 C579 1.251 . S
O591 Eu561 2.374 . S
O591 C579 1.251 . S
H592 C563 0.931 . S
H593 C564 0.931 . S
H594 C566 0.931 . S
H595 C567 0.931 . S
H596 C573 0.931 . S
H597 C574 0.931 . S
H598 C576 0.931 . S
H599 C577 0.931 . S
C600 Eu601 2.835 1_556 S
C600 C602 1.500 . S
C600 O620 1.257 1_556 S
C600 O621 1.260 1_556 S
Eu601 C600 2.835 1_554 S
Eu601 O620 2.473 . S
Eu601 O621 2.479 . S
Eu601 O622 2.430 . S
Eu601 O623 2.670 . S
Eu601 O624 2.394 . S
Eu601 O629 2.355 . S
Eu601 O631 2.374 . S
C602 C600 1.500 . S
C602 C603 1.377 . S
C602 C607 1.377 . S
C603 C602 1.377 . S
C603 C604 1.395 . S
C603 H632 0.931 . S
C604 C603 1.395 . S
C604 C605 1.383 . S
C604 H633 0.931 . S
C605 C604 1.383 . S
C605 C606 1.394 . S
C606 C605 1.394 . S
C606 C607 1.378 . S
C606 H634 0.931 . S
C607 C602 1.377 . S
C607 C606 1.378 . S
C607 H635 0.931 . S
C608 O622 1.259 . S
C608 O623 1.270 . S
C609 O624 1.251 . S
C609 O625 1.251 . S
C610 Eu611 2.835 . S
C610 C612 1.500 . S
C610 O626 1.257 . S
C610 O627 1.260 . S
Eu611 C610 2.835 . S
Eu611 O623 2.355 . S
Eu611 O625 2.374 . S
Eu611 O626 2.473 . S
Eu611 O627 2.480 . S
Eu611 O628 2.430 . S
Eu611 O629 2.670 . S
Eu611 O630 2.394 . S
C612 C610 1.500 . S
C612 C613 1.377 . S
C612 C617 1.377 . S
C613 C612 1.377 . S
C613 C614 1.395 . S
C613 H636 0.931 . S
C614 C613 1.395 . S
C614 C615 1.383 . S
C614 H637 0.931 . S
C615 C614 1.383 . S
C615 C616 1.394 . S
C616 C615 1.394 . S
C616 C617 1.378 . S
C616 H638 0.931 . S
C617 C612 1.377 . S
C617 C616 1.378 . S
C617 H639 0.931 . S
C618 O628 1.259 . S
C618 O629 1.270 . S
C619 O630 1.251 . S
C619 O631 1.251 . S
O620 C600 1.257 1_554 S
O620 Eu601 2.473 . S
O621 C600 1.260 1_554 S
O621 Eu601 2.479 . S
O622 Eu601 2.430 . S
O622 C608 1.259 . S
O623 Eu601 2.670 . S
O623 C608 1.270 . S
O623 Eu611 2.355 . S
O624 Eu601 2.394 . S
O624 C609 1.251 . S
O625 C609 1.251 . S
O625 Eu611 2.374 . S
O626 C610 1.257 . S
O626 Eu611 2.473 . S
O627 C610 1.260 . S
O627 Eu611 2.480 . S
O628 Eu611 2.430 . S
O628 C618 1.259 . S
O629 Eu601 2.355 . S
O629 Eu611 2.670 . S
O629 C618 1.270 . S
O630 Eu611 2.394 . S
O630 C619 1.251 . S
O631 Eu601 2.374 . S
O631 C619 1.251 . S
H632 C603 0.931 . S
H633 C604 0.931 . S
H634 C606 0.931 . S
H635 C607 0.931 . S
H636 C613 0.931 . S
H637 C614 0.931 . S
H638 C616 0.931 . S
H639 C617 0.931 . S
C640 Eu641 2.835 . S
C640 C642 1.500 . S
C640 O660 1.257 . S
C640 O661 1.260 . S
Eu641 C640 2.835 . S
Eu641 O660 2.473 . S
Eu641 O661 2.480 . S
Eu641 O662 2.430 . S
Eu641 O663 2.670 . S
Eu641 O664 2.394 . S
Eu641 O669 2.355 . S
Eu641 O671 2.374 . S
C642 C640 1.500 . S
C642 C643 1.377 . S
C642 C647 1.377 . S
C643 C642 1.377 . S
C643 C644 1.395 . S
C643 H672 0.931 . S
C644 C643 1.395 . S
C644 C645 1.383 . S
C644 H673 0.931 . S
C645 C644 1.383 . S
C645 C646 1.394 . S
C646 C645 1.394 . S
C646 C647 1.378 . S
C646 H674 0.931 . S
C647 C642 1.377 . S
C647 C646 1.378 . S
C647 H675 0.931 . S
C648 O662 1.259 . S
C648 O663 1.270 . S
C649 O664 1.251 . S
C649 O665 1.251 . S
C650 Eu651 2.835 . S
C650 C652 1.500 1_554 S
C650 O666 1.257 . S
C650 O667 1.260 . S
Eu651 C650 2.835 . S
Eu651 O663 2.355 . S
Eu651 O665 2.374 . S
Eu651 O666 2.473 . S
Eu651 O667 2.480 . S
Eu651 O668 2.430 . S
Eu651 O669 2.670 . S
Eu651 O670 2.394 . S
C652 C650 1.500 1_556 S
C652 C653 1.377 . S
C652 C657 1.377 . S
C653 C652 1.377 . S
C653 C654 1.395 . S
C653 H676 0.931 . S
C654 C653 1.395 . S
C654 C655 1.383 . S
C654 H677 0.931 . S
C655 C654 1.383 . S
C655 C656 1.394 . S
C656 C655 1.394 . S
C656 C657 1.378 . S
C656 H678 0.931 . S
C657 C652 1.377 . S
C657 C656 1.378 . S
C657 H679 0.931 . S
C658 O668 1.259 . S
C658 O669 1.270 . S
C659 O670 1.251 . S
C659 O671 1.251 . S
O660 C640 1.257 . S
O660 Eu641 2.473 . S
O661 C640 1.260 . S
O661 Eu641 2.480 . S
O662 Eu641 2.430 . S
O662 C648 1.259 . S
O663 Eu641 2.670 . S
O663 C648 1.270 . S
O663 Eu651 2.355 . S
O664 Eu641 2.394 . S
O664 C649 1.251 . S
O665 C649 1.251 . S
O665 Eu651 2.374 . S
O666 C650 1.257 . S
O666 Eu651 2.473 . S
O667 C650 1.260 . S
O667 Eu651 2.480 . S
O668 Eu651 2.430 . S
O668 C658 1.259 . S
O669 Eu641 2.355 . S
O669 Eu651 2.670 . S
O669 C658 1.270 . S
O670 Eu651 2.394 . S
O670 C659 1.251 . S
O671 Eu641 2.374 . S
O671 C659 1.251 . S
H672 C643 0.931 . S
H673 C644 0.931 . S
H674 C646 0.931 . S
H675 C647 0.931 . S
H676 C653 0.931 . S
H677 C654 0.931 . S
H678 C656 0.931 . S
H679 C657 0.931 . S
C680 Eu681 2.835 . S
C680 C682 1.500 1_554 S
C680 O700 1.257 . S
C680 O701 1.260 . S
Eu681 C680 2.835 . S
Eu681 O700 2.473 . S
Eu681 O701 2.480 . S
Eu681 O702 2.430 . S
Eu681 O703 2.670 . S
Eu681 O704 2.394 . S
Eu681 O709 2.355 . S
Eu681 O711 2.374 . S
C682 C680 1.500 1_556 S
C682 C683 1.377 . S
C682 C687 1.377 . S
C683 C682 1.377 . S
C683 C684 1.395 . S
C683 H712 0.931 . S
C684 C683 1.395 . S
C684 C685 1.383 . S
C684 H713 0.931 . S
C685 C684 1.383 . S
C685 C686 1.394 . S
C686 C685 1.394 . S
C686 C687 1.378 . S
C686 H714 0.931 . S
C687 C682 1.377 . S
C687 C686 1.378 . S
C687 H715 0.931 . S
C688 O702 1.259 . S
C688 O703 1.270 . S
C689 O704 1.251 . S
C689 O705 1.251 . S
C690 Eu691 2.835 . S
C690 C692 1.500 . S
C690 O706 1.257 . S
C690 O707 1.260 . S
Eu691 C690 2.835 . S
Eu691 O703 2.355 . S
Eu691 O705 2.374 . S
Eu691 O706 2.473 . S
Eu691 O707 2.480 . S
Eu691 O708 2.430 . S
Eu691 O709 2.670 . S
Eu691 O710 2.394 . S
C692 C690 1.500 . S
C692 C693 1.377 . S
C692 C697 1.377 . S
C693 C692 1.377 . S
C693 C694 1.395 . S
C693 H716 0.931 . S
C694 C693 1.395 . S
C694 C695 1.383 . S
C694 H717 0.931 . S
C695 C694 1.383 . S
C695 C696 1.394 . S
C696 C695 1.394 . S
C696 C697 1.378 . S
C696 H718 0.931 . S
C697 C692 1.377 . S
C697 C696 1.378 . S
C697 H719 0.931 . S
C698 O708 1.259 . S
C698 O709 1.270 . S
C699 O710 1.251 . S
C699 O711 1.251 . S
O700 C680 1.257 . S
O700 Eu681 2.473 . S
O701 C680 1.260 . S
O701 Eu681 2.480 . S
O702 Eu681 2.430 . S
O702 C688 1.259 . S
O703 Eu681 2.670 . S
O703 C688 1.270 . S
O703 Eu691 2.355 . S
O704 Eu681 2.394 . S
O704 C689 1.251 . S
O705 C689 1.251 . S
O705 Eu691 2.374 . S
O706 C690 1.257 . S
O706 Eu691 2.473 . S
O707 C690 1.260 . S
O707 Eu691 2.480 . S
O708 Eu691 2.430 . S
O708 C698 1.259 . S
O709 Eu681 2.355 . S
O709 Eu691 2.670 . S
O709 C698 1.270 . S
O710 Eu691 2.394 . S
O710 C699 1.251 . S
O711 Eu681 2.374 . S
O711 C699 1.251 . S
H712 C683 0.931 . S
H713 C684 0.931 . S
H714 C686 0.931 . S
H715 C687 0.931 . S
H716 C693 0.931 . S
H717 C694 0.931 . S
H718 C696 0.931 . S
H719 C697 0.931 . S
C720 C721 1.387 . S
C720 H724 0.950 . S
C720 C729 1.390 . S
C721 C720 1.387 . S
C721 C723 1.387 . S
H722 C729 0.950 . S
C723 C721 1.387 . S
C723 C725 1.390 . S
C723 H727 0.950 . S
H724 C720 0.950 . S
C725 C723 1.390 . S
C725 C726 1.387 . S
C725 H728 0.950 . S
C726 C725 1.387 . S
C726 C729 1.387 . S
H727 C723 0.950 . S
H728 C725 0.950 . S
C729 C720 1.390 . S
C729 H722 0.950 . S
C729 C726 1.387 . S
C730 C731 1.387 . S
C730 H734 0.950 . S
C730 C739 1.390 . S
C731 C730 1.387 . S
C731 C733 1.387 . S
H732 C739 0.950 . S
C733 C731 1.387 . S
C733 C735 1.390 . S
C733 H737 0.950 . S
H734 C730 0.950 . S
C735 C733 1.390 . S
C735 C736 1.387 . S
C735 H738 0.950 . S
C736 C735 1.387 . S
C736 C739 1.387 . S
H737 C733 0.950 . S
H738 C735 0.950 . S
C739 C730 1.390 . S
C739 H732 0.950 . S
C739 C736 1.387 . S
C740 C741 1.387 . S
C740 H744 0.950 . S
C740 C749 1.390 . S
C741 C740 1.387 . S
C741 C743 1.387 . S
H742 C749 0.950 . S
C743 C741 1.387 . S
C743 C745 1.390 . S
C743 H747 0.950 . S
H744 C740 0.950 . S
C745 C743 1.390 . S
C745 C746 1.387 . S
C745 H748 0.950 . S
C746 C745 1.387 . S
C746 C749 1.387 . S
H747 C743 0.950 . S
H748 C745 0.950 . S
C749 C740 1.390 . S
C749 H742 0.950 . S
C749 C746 1.387 . S
C750 C751 1.387 . S
C750 H754 0.950 . S
C750 C759 1.390 . S
C751 C750 1.387 . S
C751 C753 1.387 . S
H752 C759 0.950 . S
C753 C751 1.387 . S
C753 C755 1.390 . S
C753 H757 0.950 . S
H754 C750 0.950 . S
C755 C753 1.390 . S
C755 C756 1.387 . S
C755 H758 0.950 . S
C756 C755 1.387 . S
C756 C759 1.387 . S
H757 C753 0.950 . S
H758 C755 0.950 . S
C759 C750 1.390 . S
C759 H752 0.950 . S
C759 C756 1.387 . S
C760 C761 1.387 . S
C760 H764 0.950 . S
C760 C769 1.390 . S
C761 C760 1.387 . S
C761 C763 1.387 . S
H762 C769 0.950 . S
C763 C761 1.387 . S
C763 C765 1.390 . S
C763 H767 0.950 . S
H764 C760 0.950 . S
C765 C763 1.390 . S
C765 C766 1.387 . S
C765 H768 0.950 . S
C766 C765 1.387 . S
C766 C769 1.387 . S
H767 C763 0.950 . S
H768 C765 0.950 . S
C769 C760 1.390 . S
C769 H762 0.950 . S
C769 C766 1.387 . S
C770 C771 1.387 . S
C770 H774 0.950 . S
C770 C779 1.390 . S
C771 C770 1.387 . S
C771 C773 1.387 . S
H772 C779 0.950 . S
C773 C771 1.387 . S
C773 C775 1.390 . S
C773 H777 0.950 . S
H774 C770 0.950 . S
C775 C773 1.390 . S
C775 C776 1.387 . S
C775 H778 0.950 . S
C776 C775 1.387 . S
C776 C779 1.387 . S
H777 C773 0.950 . S
H778 C775 0.950 . S
C779 C770 1.390 . S
C779 H772 0.950 . S
C779 C776 1.387 . S
C780 C781 1.387 . S
C780 H784 0.950 . S
C780 C789 1.390 . S
C781 C780 1.387 . S
C781 C783 1.387 . S
H782 C789 0.950 . S
C783 C781 1.387 . S
C783 C785 1.390 . S
C783 H787 0.950 . S
H784 C780 0.950 . S
C785 C783 1.390 . S
C785 C786 1.387 . S
C785 H788 0.950 . S
C786 C785 1.387 . S
C786 C789 1.387 . S
H787 C783 0.950 . S
H788 C785 0.950 . S
C789 C780 1.390 . S
C789 H782 0.950 . S
C789 C786 1.387 . S
C790 C791 1.387 . S
C790 H794 0.950 . S
C790 C799 1.390 . S
C791 C790 1.387 . S
C791 C793 1.387 . S
H792 C799 0.950 . S
C793 C791 1.387 . S
C793 C795 1.390 . S
C793 H797 0.950 . S
H794 C790 0.950 . S
C795 C793 1.390 . S
C795 C796 1.387 . S
C795 H798 0.950 . S
C796 C795 1.387 . S
C796 C799 1.387 . S
H797 C793 0.950 . S
H798 C795 0.950 . S
C799 C790 1.390 . S
C799 H792 0.950 . S
C799 C796 1.387 . S
C800 C801 1.387 . S
C800 H804 0.950 . S
C800 C809 1.390 . S
C801 C800 1.387 . S
C801 C803 1.387 . S
H802 C809 0.950 . S
C803 C801 1.387 . S
C803 C805 1.390 . S
C803 H807 0.950 . S
H804 C800 0.950 . S
C805 C803 1.390 . S
C805 C806 1.387 . S
C805 H808 0.950 . S
C806 C805 1.387 . S
C806 C809 1.387 . S
H807 C803 0.950 . S
H808 C805 0.950 . S
C809 C800 1.390 . S
C809 H802 0.950 . S
C809 C806 1.387 . S
C810 C811 1.387 . S
C810 H814 0.950 . S
C810 C819 1.390 . S
C811 C810 1.387 . S
C811 C813 1.387 . S
H812 C819 0.950 . S
C813 C811 1.387 . S
C813 C815 1.390 . S
C813 H817 0.950 . S
H814 C810 0.950 . S
C815 C813 1.390 . S
C815 C816 1.387 . S
C815 H818 0.950 . S
C816 C815 1.387 . S
C816 C819 1.387 . S
H817 C813 0.950 . S
H818 C815 0.950 . S
C819 C810 1.390 . S
C819 H812 0.950 . S
C819 C816 1.387 . S
C820 C821 1.387 . S
C820 H824 0.950 . S
C820 C829 1.390 . S
C821 C820 1.387 . S
C821 C823 1.387 . S
H822 C829 0.950 . S
C823 C821 1.387 . S
C823 C825 1.390 . S
C823 H827 0.950 . S
H824 C820 0.950 . S
C825 C823 1.390 . S
C825 C826 1.387 . S
C825 H828 0.950 . S
C826 C825 1.387 . S
C826 C829 1.387 . S
H827 C823 0.950 . S
H828 C825 0.950 . S
C829 C820 1.390 . S
C829 H822 0.950 . S
C829 C826 1.387 . S
C830 C831 1.387 . S
C830 H834 0.950 . S
C830 C839 1.390 . S
C831 C830 1.387 . S
C831 C833 1.387 . S
H832 C839 0.950 . S
C833 C831 1.387 . S
C833 C835 1.390 . S
C833 H837 0.950 . S
H834 C830 0.950 . S
C835 C833 1.390 . S
C835 C836 1.387 . S
C835 H838 0.950 . S
C836 C835 1.387 . S
C836 C839 1.387 . S
H837 C833 0.950 . S
H838 C835 0.950 . S
C839 C830 1.390 . S
C839 H832 0.950 . S
C839 C836 1.387 . S
C840 C841 1.387 1_455 S
C840 H844 0.950 . S
C840 C849 1.390 1_556 S
C841 C840 1.387 1_655 S
C841 C843 1.387 . S
H842 C849 0.950 . S
C843 C841 1.387 . S
C843 C845 1.390 1_556 S
C843 H847 0.950 . S
H844 C840 0.950 . S
C845 C843 1.390 1_554 S
C845 C846 1.387 1_655 S
C845 H848 0.950 . S
C846 C845 1.387 1_455 S
C846 C849 1.387 . S
H847 C843 0.950 . S
H848 C845 0.950 . S
C849 C840 1.390 1_554 S
C849 H842 0.950 . S
C849 C846 1.387 . S
C850 C851 1.387 . S
C850 H854 0.950 . S
C850 C859 1.390 1_556 S
C851 C850 1.387 . S
C851 C853 1.387 . S
H852 C859 0.950 . S
C853 C851 1.387 . S
C853 C855 1.390 1_556 S
C853 H857 0.950 . S
H854 C850 0.950 . S
C855 C853 1.390 1_554 S
C855 C856 1.387 . S
C855 H858 0.950 . S
C856 C855 1.387 . S
C856 C859 1.387 . S
H857 C853 0.950 . S
H858 C855 0.950 . S
C859 C850 1.390 1_554 S
C859 H852 0.950 . S
C859 C856 1.387 . S
C860 C861 1.387 . S
C860 H864 0.950 . S
C860 C869 1.400 1_545 S
C861 C860 1.387 . S
C861 C863 1.387 . S
H862 C869 0.935 1_554 S
C863 C861 1.387 . S
C863 C865 1.390 1_545 S
C863 H867 0.950 . S
H864 C860 0.950 . S
C865 C863 1.390 1_565 S
C865 C866 1.387 1_556 S
C865 H868 0.950 1_556 S
C866 C865 1.387 1_554 S
C866 C869 1.392 1_554 S
H867 C863 0.950 . S
H868 C865 0.950 1_554 S
C869 C860 1.400 1_565 S
C869 H862 0.935 1_556 S
C869 C866 1.392 1_556 S
C870 C871 1.387 . S
C870 H874 0.950 . S
C870 C879 1.390 1_546 S
C871 C870 1.387 . S
C871 C873 1.387 . S
H872 C879 0.950 . S
C873 C871 1.387 . S
C873 C875 1.390 1_556 S
C873 H877 0.950 . S
H874 C870 0.950 . S
C875 C873 1.390 1_554 S
C875 C876 1.387 1_545 S
C875 H878 0.931 1_545 S
C876 C875 1.387 1_565 S
C876 C879 1.387 . S
H877 C873 0.950 . S
H878 C875 0.931 1_565 S
C879 C870 1.390 1_564 S
C879 H872 0.950 . S
C879 C876 1.387 . S
C880 C881 1.387 . S
C880 H884 0.950 . S
C880 C889 1.390 1_455 S
C881 C880 1.387 . S
C881 C883 1.387 . S
H882 C889 0.950 1_556 S
C883 C881 1.387 . S
C883 C885 1.384 1_455 S
C883 H887 0.950 . S
H884 C880 0.950 . S
C885 C883 1.384 1_655 S
C885 C886 1.386 1_554 S
C885 H888 0.959 1_554 S
C886 C885 1.386 1_556 S
C886 C889 1.387 1_556 S
H887 C883 0.950 . S
H888 C885 0.959 1_556 S
C889 C880 1.390 1_655 S
C889 H882 0.950 1_554 S
C889 C886 1.387 1_554 S
C890 C891 1.387 . S
C890 H894 0.950 . S
C890 C899 1.375 1_554 S
C891 C890 1.387 . S
C891 C893 1.387 . S
H892 C899 0.953 . S
C893 C891 1.387 . S
C893 C895 1.390 1_554 S
C893 H897 0.950 . S
H894 C890 0.950 . S
C895 C893 1.390 1_556 S
C895 C896 1.387 . S
C895 H898 0.950 . S
C896 C895 1.387 . S
C896 C899 1.400 . S
H897 C893 0.950 . S
H898 C895 0.950 . S
C899 C890 1.375 1_556 S
C899 H892 0.953 . S
C899 C896 1.400 . S
C900 C901 1.387 . S
C900 H904 0.950 . S
C900 C909 1.390 . S
C901 C900 1.387 . S
C901 C903 1.387 . S
H902 C909 0.950 . S
C903 C901 1.387 . S
C903 C905 1.390 . S
C903 H907 0.950 . S
H904 C900 0.950 . S
C905 C903 1.390 . S
C905 C906 1.387 . S
C905 H908 0.950 . S
C906 C905 1.387 . S
C906 C909 1.387 . S
H907 C903 0.950 . S
H908 C905 0.950 . S
C909 C900 1.390 . S
C909 H902 0.950 . S
C909 C906 1.387 . S
C910 C911 1.387 . S
C910 H914 0.950 . S
C910 C919 1.390 . S
C911 C910 1.387 . S
C911 C913 1.387 . S
H912 C919 0.950 . S
C913 C911 1.387 . S
C913 C915 1.390 . S
C913 H917 0.950 . S
H914 C910 0.950 . S
C915 C913 1.390 . S
C915 C916 1.387 . S
C915 H918 0.950 . S
C916 C915 1.387 . S
C916 C919 1.387 . S
H917 C913 0.950 . S
H918 C915 0.950 . S
C919 C910 1.390 . S
C919 H912 0.950 . S
C919 C916 1.387 . S
C920 C921 1.387 . S
C920 H924 0.950 . S
C920 C929 1.390 . S
C921 C920 1.387 . S
C921 C923 1.387 . S
H922 C929 0.950 . S
C923 C921 1.387 . S
C923 C925 1.390 . S
C923 H927 0.950 . S
H924 C920 0.950 . S
C925 C923 1.390 . S
C925 C926 1.387 . S
C925 H928 0.950 . S
C926 C925 1.387 . S
C926 C929 1.387 . S
H927 C923 0.950 . S
H928 C925 0.950 . S
C929 C920 1.390 . S
C929 H922 0.950 . S
C929 C926 1.387 . S
C930 C931 1.387 . S
C930 H934 0.950 . S
C930 C939 1.390 . S
C931 C930 1.387 . S
C931 C933 1.387 . S
H932 C939 0.950 . S
C933 C931 1.387 . S
C933 C935 1.390 . S
C933 H937 0.950 . S
H934 C930 0.950 . S
C935 C933 1.390 . S
C935 C936 1.387 . S
C935 H938 0.950 . S
C936 C935 1.387 . S
C936 C939 1.387 . S
H937 C933 0.950 . S
H938 C935 0.950 . S
C939 C930 1.390 . S
C939 H932 0.950 . S
C939 C936 1.387 . S
C940 C941 1.387 . S
C940 H944 0.950 . S
C940 C949 1.390 . S
C941 C940 1.387 . S
C941 C943 1.387 . S
H942 C949 0.950 . S
C943 C941 1.387 . S
C943 C945 1.390 . S
C943 H947 0.950 . S
H944 C940 0.950 . S
C945 C943 1.390 . S
C945 C946 1.387 . S
C945 H948 0.950 . S
C946 C945 1.387 . S
C946 C949 1.387 . S
H947 C943 0.950 . S
H948 C945 0.950 . S
C949 C940 1.390 . S
C949 H942 0.950 . S
C949 C946 1.387 . S
C950 C951 1.387 . S
C950 H954 0.950 . S
C950 C959 1.390 . S
C951 C950 1.387 . S
C951 C953 1.387 . S
H952 C959 0.950 . S
C953 C951 1.387 . S
C953 C955 1.390 . S
C953 H957 0.950 . S
H954 C950 0.950 . S
C955 C953 1.390 . S
C955 C956 1.387 . S
C955 H958 0.950 . S
C956 C955 1.387 . S
C956 C959 1.387 . S
H957 C953 0.950 . S
H958 C955 0.950 . S
C959 C950 1.390 . S
C959 H952 0.950 . S
C959 C956 1.387 . S
C960 C961 1.387 . S
C960 H964 0.950 . S
C960 C969 1.390 . S
C961 C960 1.387 . S
C961 C963 1.387 . S
H962 C969 0.950 . S
C963 C961 1.387 . S
C963 C965 1.390 . S
C963 H967 0.950 . S
H964 C960 0.950 . S
C965 C963 1.390 . S
C965 C966 1.387 . S
C965 H968 0.950 . S
C966 C965 1.387 . S
C966 C969 1.387 . S
H967 C963 0.950 . S
H968 C965 0.950 . S
C969 C960 1.390 . S
C969 H962 0.950 . S
C969 C966 1.387 . S
C970 C971 1.387 . S
C970 H974 0.950 . S
C970 C979 1.390 . S
C971 C970 1.387 . S
C971 C973 1.387 . S
H972 C979 0.950 . S
C973 C971 1.387 . S
C973 C975 1.390 . S
C973 H977 0.950 . S
H974 C970 0.950 . S
C975 C973 1.390 . S
C975 C976 1.387 . S
C975 H978 0.950 . S
C976 C975 1.387 . S
C976 C979 1.387 . S
H977 C973 0.950 . S
H978 C975 0.950 . S
C979 C970 1.390 . S
C979 H972 0.950 . S
C979 C976 1.387 . S
C980 C981 1.387 . S
C980 H984 0.950 . S
C980 C989 1.390 . S
C981 C980 1.387 . S
C981 C983 1.387 . S
H982 C989 0.950 . S
C983 C981 1.387 . S
C983 C985 1.390 . S
C983 H987 0.950 . S
H984 C980 0.950 . S
C985 C983 1.390 . S
C985 C986 1.387 . S
C985 H988 0.950 . S
C986 C985 1.387 . S
C986 C989 1.387 . S
H987 C983 0.950 . S
H988 C985 0.950 . S
C989 C980 1.390 . S
C989 H982 0.950 . S
C989 C986 1.387 . S
C990 C991 1.387 . S
C990 H994 0.950 . S
C990 C999 1.390 . S
C991 C990 1.387 . S
C991 C993 1.387 . S
H992 C999 0.950 . S
C993 C991 1.387 . S
C993 C995 1.390 . S
C993 H997 0.950 . S
H994 C990 0.950 . S
C995 C993 1.390 . S
C995 C996 1.387 . S
C995 H998 0.950 . S
C996 C995 1.387 . S
C996 C999 1.387 . S
H997 C993 0.950 . S
H998 C995 0.950 . S
C999 C990 1.390 . S
C999 H992 0.950 . S
C999 C996 1.387 . S
C1000 C1001 1.387 . S
C1000 H1004 0.950 . S
C1000 C1009 1.390 . S
C1001 C1000 1.387 . S
C1001 C1003 1.387 . S
H1002 C1009 0.950 . S
C1003 C1001 1.387 . S
C1003 C1005 1.390 . S
C1003 H1007 0.950 . S
H1004 C1000 0.950 . S
C1005 C1003 1.390 . S
C1005 C1006 1.387 . S
C1005 H1008 0.950 . S
C1006 C1005 1.387 . S
C1006 C1009 1.387 . S
H1007 C1003 0.950 . S
H1008 C1005 0.950 . S
C1009 C1000 1.390 . S
C1009 H1002 0.950 . S
C1009 C1006 1.387 . S
C1010 C1011 1.387 . S
C1010 H1014 0.950 . S
C1010 C1019 1.390 . S
C1011 C1010 1.387 . S
C1011 C1013 1.387 . S
H1012 C1019 0.950 . S
C1013 C1011 1.387 . S
C1013 C1015 1.390 . S
C1013 H1017 0.950 . S
H1014 C1010 0.950 . S
C1015 C1013 1.390 . S
C1015 C1016 1.387 . S
C1015 H1018 0.950 . S
C1016 C1015 1.387 . S
C1016 C1019 1.387 . S
H1017 C1013 0.950 . S
H1018 C1015 0.950 . S
C1019 C1010 1.390 . S
C1019 H1012 0.950 . S
C1019 C1016 1.387 . S
C1020 C1021 1.387 . S
C1020 H1024 0.950 . S
C1020 C1029 1.390 . S
C1021 C1020 1.387 . S
C1021 C1023 1.387 . S
H1022 C1029 0.950 . S
C1023 C1021 1.387 . S
C1023 C1025 1.390 . S
C1023 H1027 0.950 . S
H1024 C1020 0.950 . S
C1025 C1023 1.390 . S
C1025 C1026 1.387 . S
C1025 H1028 0.950 . S
C1026 C1025 1.387 . S
C1026 C1029 1.387 . S
H1027 C1023 0.950 . S
H1028 C1025 0.950 . S
C1029 C1020 1.390 . S
C1029 H1022 0.950 . S
C1029 C1026 1.387 . S
C1030 C1031 1.387 . S
C1030 H1034 0.950 . S
C1030 C1039 1.390 . S
C1031 C1030 1.387 . S
C1031 C1033 1.387 . S
H1032 C1039 0.950 . S
C1033 C1031 1.387 . S
C1033 C1035 1.390 . S
C1033 H1037 0.950 . S
H1034 C1030 0.950 . S
C1035 C1033 1.390 . S
C1035 C1036 1.387 . S
C1035 H1038 0.950 . S
C1036 C1035 1.387 . S
C1036 C1039 1.387 . S
H1037 C1033 0.950 . S
H1038 C1035 0.950 . S
C1039 C1030 1.390 . S
C1039 H1032 0.950 . S
C1039 C1036 1.387 . S
C1040 C1041 1.387 . S
C1040 H1044 0.950 . S
C1040 C1049 1.390 . S
C1041 C1040 1.387 . S
C1041 C1043 1.387 . S
H1042 C1049 0.950 . S
C1043 C1041 1.387 . S
C1043 C1045 1.390 . S
C1043 H1047 0.950 . S
H1044 C1040 0.950 . S
C1045 C1043 1.390 . S
C1045 C1046 1.387 . S
C1045 H1048 0.950 . S
C1046 C1045 1.387 . S
C1046 C1049 1.387 . S
H1047 C1043 0.950 . S
H1048 C1045 0.950 . S
C1049 C1040 1.390 . S
C1049 H1042 0.950 . S
C1049 C1046 1.387 . S
C1050 C1051 1.387 . S
C1050 H1054 0.950 . S
C1050 C1059 1.390 . S
C1051 C1050 1.387 . S
C1051 C1053 1.387 . S
H1052 C1059 0.950 . S
C1053 C1051 1.387 . S
C1053 C1055 1.390 . S
C1053 H1057 0.950 . S
H1054 C1050 0.950 . S
C1055 C1053 1.390 . S
C1055 C1056 1.387 . S
C1055 H1058 0.950 . S
C1056 C1055 1.387 . S
C1056 C1059 1.387 . S
H1057 C1053 0.950 . S
H1058 C1055 0.950 . S
C1059 C1050 1.390 . S
C1059 H1052 0.950 . S
C1059 C1056 1.387 . S
C1060 C1061 1.387 . S
C1060 H1064 0.950 . S
C1060 C1069 1.390 . S
C1061 C1060 1.387 . S
C1061 C1063 1.387 . S
H1062 C1069 0.950 . S
C1063 C1061 1.387 . S
C1063 C1065 1.390 . S
C1063 H1067 0.950 . S
H1064 C1060 0.950 . S
C1065 C1063 1.390 . S
C1065 C1066 1.387 . S
C1065 H1068 0.950 . S
C1066 C1065 1.387 . S
C1066 C1069 1.387 . S
H1067 C1063 0.950 . S
H1068 C1065 0.950 . S
C1069 C1060 1.390 . S
C1069 H1062 0.950 . S
C1069 C1066 1.387 . S
C1070 C1071 1.387 . S
C1070 H1074 0.950 . S
C1070 C1079 1.390 . S
C1071 C1070 1.387 . S
C1071 C1073 1.387 . S
H1072 C1079 0.950 . S
C1073 C1071 1.387 . S
C1073 C1075 1.390 . S
C1073 H1077 0.950 . S
H1074 C1070 0.950 . S
C1075 C1073 1.390 . S
C1075 C1076 1.387 . S
C1075 H1078 0.950 . S
C1076 C1075 1.387 . S
C1076 C1079 1.387 . S
H1077 C1073 0.950 . S
H1078 C1075 0.950 . S
C1079 C1070 1.390 . S
C1079 H1072 0.950 . S
C1079 C1076 1.387 . S
C1080 C1081 1.387 . S
C1080 H1084 0.950 . S
C1080 C1089 1.390 . S
C1081 C1080 1.387 . S
C1081 C1083 1.387 . S
H1082 C1089 0.950 . S
C1083 C1081 1.387 . S
C1083 C1085 1.390 1_554 S
C1083 H1087 0.950 . S
H1084 C1080 0.950 . S
C1085 C1083 1.390 1_556 S
C1085 C1086 1.387 . S
C1085 H1088 0.950 . S
C1086 C1085 1.387 . S
C1086 C1089 1.387 1_556 S
H1087 C1083 0.950 . S
H1088 C1085 0.950 . S
C1089 C1080 1.390 . S
C1089 H1082 0.950 . S
C1089 C1086 1.387 1_554 S
C1090 C1091 1.387 . S
C1090 H1094 0.950 . S
C1090 C1099 1.390 1_554 S
C1091 C1090 1.387 . S
C1091 C1093 1.387 . S
H1092 C1099 0.950 . S
C1093 C1091 1.387 . S
C1093 C1095 1.390 1_554 S
C1093 H1097 0.950 . S
H1094 C1090 0.950 . S
C1095 C1093 1.390 1_556 S
C1095 C1096 1.387 . S
C1095 H1098 0.950 . S
C1096 C1095 1.387 . S
C1096 C1099 1.387 . S
H1097 C1093 0.950 . S
H1098 C1095 0.950 . S
C1099 C1090 1.390 1_556 S
C1099 H1092 0.950 . S
C1099 C1096 1.387 . S
C1100 C1101 1.387 1_556 S
C1100 H1104 0.950 . S
C1100 C1109 1.390 . S
C1101 C1100 1.387 1_554 S
C1101 C1103 1.387 1_565 S
H1102 C1109 0.950 . S
C1103 C1101 1.387 1_545 S
C1103 C1105 1.390 1_554 S
C1103 H1107 0.950 . S
H1104 C1100 0.950 . S
C1105 C1103 1.390 1_556 S
C1105 C1106 1.387 . S
C1105 H1108 0.950 . S
C1106 C1105 1.387 . S
C1106 C1109 1.387 1_545 S
H1107 C1103 0.950 . S
H1108 C1105 0.950 . S
C1109 C1100 1.390 . S
C1109 H1102 0.950 . S
C1109 C1106 1.387 1_565 S
C1110 C1111 1.387 1_654 S
C1110 H1114 0.950 . S
C1110 C1119 1.390 . S
C1111 C1110 1.387 1_456 S
C1111 C1113 1.387 . S
H1112 C1119 0.950 . S
C1113 C1111 1.387 . S
C1113 C1115 1.390 1_556 S
C1113 H1117 0.950 . S
H1114 C1110 0.950 . S
C1115 C1113 1.390 1_554 S
C1115 C1116 1.387 . S
C1115 H1118 0.950 . S
C1116 C1115 1.387 . S
C1116 C1119 1.387 1_455 S
H1117 C1113 0.950 . S
H1118 C1115 0.950 . S
C1119 C1110 1.390 . S
C1119 H1112 0.950 . S
C1119 C1116 1.387 1_655 S
C1120 C1121 1.387 . S
C1120 H1124 0.950 . S
C1120 C1129 1.390 . S
C1121 C1120 1.387 . S
C1121 C1123 1.387 . S
H1122 C1129 0.950 1_556 S
C1123 C1121 1.387 . S
C1123 C1125 1.390 . S
C1123 H1127 0.950 . S
H1124 C1120 0.950 . S
C1125 C1123 1.390 . S
C1125 C1126 1.387 1_554 S
C1125 H1128 0.950 . S
C1126 C1125 1.387 1_556 S
C1126 C1129 1.387 1_556 S
H1127 C1123 0.950 . S
H1128 C1125 0.950 . S
C1129 C1120 1.390 . S
C1129 H1122 0.950 1_554 S
C1129 C1126 1.387 1_554 S
C1130 C1131 1.387 1_545 S
C1130 H1134 0.950 . S
C1130 C1139 1.390 . S
C1131 C1130 1.387 1_565 S
C1131 C1133 1.387 . S
H1132 C1139 0.950 . S
C1133 C1131 1.387 . S
C1133 C1135 1.390 1_554 S
C1133 H1137 0.950 . S
H1134 C1130 0.950 . S
C1135 C1133 1.390 1_556 S
C1135 C1136 1.387 1_565 S
C1135 H1138 0.950 . S
C1136 C1135 1.387 1_545 S
C1136 C1139 1.387 1_556 S
H1137 C1133 0.950 . S
H1138 C1135 0.950 . S
C1139 C1130 1.390 . S
C1139 H1132 0.950 . S
C1139 C1136 1.387 1_554 S
C1140 C1141 1.387 . S
C1140 H1144 0.950 . S
C1140 C1149 1.390 . S
C1141 C1140 1.387 . S
C1141 C1143 1.387 . S
H1142 C1149 0.950 . S
C1143 C1141 1.387 . S
C1143 C1145 1.390 . S
C1143 H1147 0.950 . S
H1144 C1140 0.950 . S
C1145 C1143 1.390 . S
C1145 C1146 1.387 . S
C1145 H1148 0.950 . S
C1146 C1145 1.387 . S
C1146 C1149 1.387 . S
H1147 C1143 0.950 . S
H1148 C1145 0.950 . S
C1149 C1140 1.390 . S
C1149 H1142 0.950 . S
C1149 C1146 1.387 . S
C1150 C1151 1.387 . S
C1150 H1154 0.950 . S
C1150 C1159 1.390 . S
C1151 C1150 1.387 . S
C1151 C1153 1.387 . S
H1152 C1159 0.950 . S
C1153 C1151 1.387 . S
C1153 C1155 1.390 . S
C1153 H1157 0.950 . S
H1154 C1150 0.950 . S
C1155 C1153 1.390 . S
C1155 C1156 1.387 . S
C1155 H1158 0.950 . S
C1156 C1155 1.387 . S
C1156 C1159 1.387 . S
H1157 C1153 0.950 . S
H1158 C1155 0.950 . S
C1159 C1150 1.390 . S
C1159 H1152 0.950 . S
C1159 C1156 1.387 . S
C1160 C1161 1.387 . S
C1160 H1164 0.950 . S
C1160 C1169 1.390 . S
C1161 C1160 1.387 . S
C1161 C1163 1.387 . S
H1162 C1169 0.950 . S
C1163 C1161 1.387 . S
C1163 C1165 1.390 . S
C1163 H1167 0.950 . S
H1164 C1160 0.950 . S
C1165 C1163 1.390 . S
C1165 C1166 1.387 . S
C1165 H1168 0.950 . S
C1166 C1165 1.387 . S
C1166 C1169 1.387 . S
H1167 C1163 0.950 . S
H1168 C1165 0.950 . S
C1169 C1160 1.390 . S
C1169 H1162 0.950 . S
C1169 C1166 1.387 . S
C1170 C1171 1.387 . S
C1170 H1174 0.950 . S
C1170 C1179 1.390 . S
C1171 C1170 1.387 . S
C1171 C1173 1.387 . S
H1172 C1179 0.950 . S
C1173 C1171 1.387 . S
C1173 C1175 1.390 . S
C1173 H1177 0.950 . S
H1174 C1170 0.950 . S
C1175 C1173 1.390 . S
C1175 C1176 1.387 . S
C1175 H1178 0.950 . S
C1176 C1175 1.387 . S
C1176 C1179 1.387 . S
H1177 C1173 0.950 . S
H1178 C1175 0.950 . S
C1179 C1170 1.390 . S
C1179 H1172 0.950 . S
C1179 C1176 1.387 . S
C1180 C1181 1.387 . S
C1180 H1184 0.950 . S
C1180 C1189 1.390 . S
C1181 C1180 1.387 . S
C1181 C1183 1.387 . S
H1182 C1189 0.950 . S
C1183 C1181 1.387 . S
C1183 C1185 1.390 . S
C1183 H1187 0.950 . S
H1184 C1180 0.950 . S
C1185 C1183 1.390 . S
C1185 C1186 1.387 . S
C1185 H1188 0.950 . S
C1186 C1185 1.387 . S
C1186 C1189 1.387 . S
H1187 C1183 0.950 . S
H1188 C1185 0.950 . S
C1189 C1180 1.390 . S
C1189 H1182 0.950 . S
C1189 C1186 1.387 . S
C1190 C1191 1.387 . S
C1190 H1194 0.950 . S
C1190 C1199 1.390 . S
C1191 C1190 1.387 . S
C1191 C1193 1.387 . S
H1192 C1199 0.950 . S
C1193 C1191 1.387 . S
C1193 C1195 1.390 . S
C1193 H1197 0.950 . S
H1194 C1190 0.950 . S
C1195 C1193 1.390 . S
C1195 C1196 1.387 . S
C1195 H1198 0.950 . S
C1196 C1195 1.387 . S
C1196 C1199 1.387 . S
H1197 C1193 0.950 . S
H1198 C1195 0.950 . S
C1199 C1190 1.390 . S
C1199 H1192 0.950 . S
C1199 C1196 1.387 . S
C1200 C1201 1.387 . S
C1200 H1204 0.950 . S
C1200 C1209 1.390 . S
C1201 C1200 1.387 . S
C1201 C1203 1.387 . S
H1202 C1209 0.950 . S
C1203 C1201 1.387 . S
C1203 C1205 1.390 . S
C1203 H1207 0.950 . S
H1204 C1200 0.950 . S
C1205 C1203 1.390 . S
C1205 C1206 1.387 . S
C1205 H1208 0.950 . S
C1206 C1205 1.387 . S
C1206 C1209 1.387 . S
H1207 C1203 0.950 . S
H1208 C1205 0.950 . S
C1209 C1200 1.390 . S
C1209 H1202 0.950 . S
C1209 C1206 1.387 . S
C1210 C1211 1.387 . S
C1210 H1214 0.950 . S
C1210 C1219 1.390 . S
C1211 C1210 1.387 . S
C1211 C1213 1.387 . S
H1212 C1219 0.950 . S
C1213 C1211 1.387 . S
C1213 C1215 1.390 . S
C1213 H1217 0.950 . S
H1214 C1210 0.950 . S
C1215 C1213 1.390 . S
C1215 C1216 1.387 . S
C1215 H1218 0.950 . S
C1216 C1215 1.387 . S
C1216 C1219 1.387 . S
H1217 C1213 0.950 . S
H1218 C1215 0.950 . S
C1219 C1210 1.390 . S
C1219 H1212 0.950 . S
C1219 C1216 1.387 . S
C1220 C1221 1.387 . S
C1220 H1224 0.950 . S
C1220 C1229 1.390 . S
C1221 C1220 1.387 . S
C1221 C1223 1.387 . S
H1222 C1229 0.950 . S
C1223 C1221 1.387 . S
C1223 C1225 1.390 . S
C1223 H1227 0.950 . S
H1224 C1220 0.950 . S
C1225 C1223 1.390 . S
C1225 C1226 1.387 . S
C1225 H1228 0.950 . S
C1226 C1225 1.387 . S
C1226 C1229 1.387 . S
H1227 C1223 0.950 . S
H1228 C1225 0.950 . S
C1229 C1220 1.390 . S
C1229 H1222 0.950 . S
C1229 C1226 1.387 . S
C1230 C1231 1.387 . S
C1230 H1234 0.950 . S
C1230 C1239 1.390 . S
C1231 C1230 1.387 . S
C1231 C1233 1.387 . S
H1232 C1239 0.950 . S
C1233 C1231 1.387 . S
C1233 C1235 1.390 . S
C1233 H1237 0.950 . S
H1234 C1230 0.950 . S
C1235 C1233 1.390 . S
C1235 C1236 1.387 . S
C1235 H1238 0.950 . S
C1236 C1235 1.387 . S
C1236 C1239 1.387 . S
H1237 C1233 0.950 . S
H1238 C1235 0.950 . S
C1239 C1230 1.390 . S
C1239 H1232 0.950 . S
C1239 C1236 1.387 . S
C1240 C1241 1.387 . S
C1240 H1244 0.950 . S
C1240 C1249 1.390 . S
C1241 C1240 1.387 . S
C1241 C1243 1.387 . S
H1242 C1249 0.950 . S
C1243 C1241 1.387 . S
C1243 C1245 1.390 . S
C1243 H1247 0.950 . S
H1244 C1240 0.950 . S
C1245 C1243 1.390 . S
C1245 C1246 1.387 . S
C1245 H1248 0.950 . S
C1246 C1245 1.387 . S
C1246 C1249 1.387 . S
H1247 C1243 0.950 . S
H1248 C1245 0.950 . S
C1249 C1240 1.390 . S
C1249 H1242 0.950 . S
C1249 C1246 1.387 . S
C1250 C1251 1.387 . S
C1250 H1254 0.950 . S
C1250 C1259 1.390 . S
C1251 C1250 1.387 . S
C1251 C1253 1.387 . S
H1252 C1259 0.950 . S
C1253 C1251 1.387 . S
C1253 C1255 1.390 . S
C1253 H1257 0.950 . S
H1254 C1250 0.950 . S
C1255 C1253 1.390 . S
C1255 C1256 1.387 . S
C1255 H1258 0.950 . S
C1256 C1255 1.387 . S
C1256 C1259 1.387 . S
H1257 C1253 0.950 . S
H1258 C1255 0.950 . S
C1259 C1250 1.390 . S
C1259 H1252 0.950 . S
C1259 C1256 1.387 . S
C721 C529 2.487 . S
C726 C9 2.497 . S
C731 C48 2.099 . S
C736 C568 2.097 . S
C741 C89 2.296 . S
C746 C488 2.317 . S
C751 C88 1.973 . S
C756 C288 1.966 . S
C761 C328 2.238 . S
C766 C8 2.224 . S
C771 C49 2.367 . S
C776 C248 2.397 . S
C781 C139 2.299 . S
C786 C418 2.312 . S
C791 C178 1.859 . S
C796 C458 1.861 . S
C801 C378 2.056 . S
C806 C219 2.030 . S
C811 C658 2.099 . S
C816 C218 2.114 . S
C821 C138 2.321 . S
C826 C699 2.302 . S
C831 C619 2.510 . S
C836 C179 2.483 . S
C841 C329 2.193 . S
C846 C528 2.226 . S
C851 C249 2.393 . S
C856 C569 2.385 . S
C861 C289 2.614 . S
C866 C489 2.637 . S
C871 C379 2.730 . S
C876 C659 2.720 . S
C881 C698 2.339 . S
C886 C419 2.324 . S
C891 C618 2.580 . S
C896 C459 2.555 . S
C901 C18 1.448 . S
C906 C168 1.452 . S
C911 C209 1.870 . S
C916 C59 1.874 . S
C921 C129 1.690 . S
C926 C98 1.525 . S
C931 C169 1.890 . S
C936 C99 1.932 . S
C941 C208 1.665 . S
C946 C19 1.736 . S
C951 C128 1.535 . S
C956 C58 1.580 . S
C961 C409 1.927 . S
C966 C259 1.914 . S
C971 C449 2.000 . S
C976 C299 1.992 . S
C981 C369 2.011 . S
C986 C339 1.916 . S
C991 C408 1.518 . S
C996 C338 1.515 . S
C1001 C448 1.439 . S
C1006 C258 1.561 . S
C1011 C368 1.456 . S
C1016 C298 1.469 . S
C1021 C648 1.560 . S
C1026 C498 1.507 . S
C1031 C689 1.907 . S
C1036 C539 1.865 . S
C1041 C578 1.640 . S
C1046 C609 1.710 . S
C1051 C579 2.015 . S
C1056 C649 2.020 . S
C1061 C499 1.808 . S
C1066 C688 1.646 . S
C1071 C608 1.538 . S
C1076 C538 1.533 . S
C1081 C5 1.299 . S
C1086 C15 1.299 . S
C1091 C55 1.427 . S
C1096 C45 1.427 . S
C1101 C85 1.340 . S
C1106 C95 1.340 . S
C1111 C135 1.383 . S
C1116 C125 1.391 . S
C1121 C175 1.306 . S
C1126 C165 1.306 . S
C1131 C205 1.492 . S
C1136 C215 1.492 . S
C1141 C245 1.604 . S
C1146 C255 1.604 . S
C1151 C295 1.276 . S
C1156 C285 1.276 . S
C1161 C325 1.642 . S
C1166 C335 1.642 . S
C1171 C375 1.253 . S
C1176 C365 1.253 . S
C1181 C415 1.571 . S
C1186 C405 1.571 . S
C1191 C455 1.308 . S
C1196 C445 1.308 . S
C1201 C495 1.269 . S
C1206 C485 1.269 . S
C1211 C535 1.399 . S
C1216 C525 1.399 . S
C1221 C565 1.329 . S
C1226 C575 1.329 . S
C1231 C605 1.426 . S
C1236 C615 1.426 . S
C1241 C655 1.283 . S
C1246 C645 1.283 . S
C1251 C695 1.410 . S
C1256 C685 1.410 . S
