# Generated by pormake.
# Topology snw, (6)-cn, num edge types: 1
# Building blocks:
#     Node 0, Type 0, BuildingBlock: OJICUG_clean_sbu_0, # of connection points: 6
#     Node 1, Type 0, BuildingBlock: OJICUG_clean_sbu_0, # of connection points: 6
#     Node 2, Type 0, BuildingBlock: OJICUG_clean_sbu_0, # of connection points: 6
#     Node 3, Type 0, BuildingBlock: OJICUG_clean_sbu_0, # of connection points: 6
#     Node 4, Type 0, BuildingBlock: OJICUG_clean_sbu_0, # of connection points: 6
#     Node 5, Type 0, BuildingBlock: OJICUG_clean_sbu_0, # of connection points: 6
#     Node 6, Type 0, BuildingBlock: OJICUG_clean_sbu_0, # of connection points: 6
#     Node 7, Type 0, BuildingBlock: OJICUG_clean_sbu_0, # of connection points: 6
#     Edge 8, Type (0, 0), BuildingBlock: ZUJKAS_clean_linker_0, # of connection points: 2
#     Edge 9, Type (0, 0), BuildingBlock: ZUJKAS_clean_linker_0, # of connection points: 2
#     Edge 10, Type (0, 0), BuildingBlock: ZUJKAS_clean_linker_0, # of connection points: 2
#     Edge 11, Type (0, 0), BuildingBlock: ZUJKAS_clean_linker_0, # of connection points: 2
#     Edge 12, Type (0, 0), BuildingBlock: ZUJKAS_clean_linker_0, # of connection points: 2
#     Edge 13, Type (0, 0), BuildingBlock: ZUJKAS_clean_linker_0, # of connection points: 2
#     Edge 14, Type (0, 0), BuildingBlock: ZUJKAS_clean_linker_0, # of connection points: 2
#     Edge 15, Type (0, 0), BuildingBlock: ZUJKAS_clean_linker_0, # of connection points: 2
#     Edge 16, Type (0, 0), BuildingBlock: ZUJKAS_clean_linker_0, # of connection points: 2
#     Edge 17, Type (0, 0), BuildingBlock: ZUJKAS_clean_linker_0, # of connection points: 2
#     Edge 18, Type (0, 0), BuildingBlock: ZUJKAS_clean_linker_0, # of connection points: 2
#     Edge 19, Type (0, 0), BuildingBlock: ZUJKAS_clean_linker_0, # of connection points: 2
#     Edge 20, Type (0, 0), BuildingBlock: ZUJKAS_clean_linker_0, # of connection points: 2
#     Edge 21, Type (0, 0), BuildingBlock: ZUJKAS_clean_linker_0, # of connection points: 2
#     Edge 22, Type (0, 0), BuildingBlock: ZUJKAS_clean_linker_0, # of connection points: 2
#     Edge 23, Type (0, 0), BuildingBlock: ZUJKAS_clean_linker_0, # of connection points: 2
#     Edge 24, Type (0, 0), BuildingBlock: ZUJKAS_clean_linker_0, # of connection points: 2
#     Edge 25, Type (0, 0), BuildingBlock: ZUJKAS_clean_linker_0, # of connection points: 2
#     Edge 26, Type (0, 0), BuildingBlock: ZUJKAS_clean_linker_0, # of connection points: 2
#     Edge 27, Type (0, 0), BuildingBlock: ZUJKAS_clean_linker_0, # of connection points: 2
#     Edge 28, Type (0, 0), BuildingBlock: ZUJKAS_clean_linker_0, # of connection points: 2
#     Edge 29, Type (0, 0), BuildingBlock: ZUJKAS_clean_linker_0, # of connection points: 2
#     Edge 30, Type (0, 0), BuildingBlock: ZUJKAS_clean_linker_0, # of connection points: 2
#     Edge 31, Type (0, 0), BuildingBlock: ZUJKAS_clean_linker_0, # of connection points: 2
# Relax obj value: 0.000
# Max RMSD: 0.008
# Mean RMSD: 0.008
data_MOF--net-snw--node1-OJICUG_clean_sbu_0--edge1-ZUJKAS_clean_linker_0
_symmetry_space_group_name_H-M    P1
_symmetry_Int_Tables_number       1
_symmetry_cell_setting            triclinic
loop_
_symmetry_equiv_pos_as_xyz
'x, y, z'
_cell_length_a     27.80574
_cell_length_b     27.810374
_cell_length_c     94.749042
_cell_angle_alpha  89.985499
_cell_angle_beta   90.065677
_cell_angle_gamma 90.020764
loop_
_atom_site_label
_atom_site_type_symbol
_atom_site_fract_x
_atom_site_fract_y
_atom_site_fract_z
_atom_type_partial_charge
Sc0 Sc 0.05736 0.23941 0.06873 0.0
Sc1 Sc 0.93078 0.243 0.06889 0.0
Sc2 Sc -0.0054 0.23796 0.10106 0.0
O3 O -0.00576 0.2401 0.07956 0.0
C4 C 0.07881 0.1643 0.09344 0.0
C5 C 0.99169 0.17156 0.04956 0.0
C6 C 0.90626 0.16908 0.09365 0.0
C7 C -0.00418 0.31489 0.05089 0.0
C8 C 0.08279 0.30819 0.09466 0.0
C9 C 0.91024 0.31294 0.09493 0.0
O10 O 0.08645 0.18182 0.08126 0.0
O11 O 0.95211 0.18858 0.05402 0.0
O12 O 0.93913 0.18396 0.1019 0.0
O13 O 0.03552 0.29691 0.05494 0.0
O14 O 0.04995 0.29194 0.10269 0.0
O15 O 0.90216 0.29796 0.08248 0.0
O16 O 0.08958 0.29265 0.08221 0.0
O17 O 0.95528 0.29931 0.05507 0.0
O18 O 0.94234 0.29478 0.10287 0.0
O19 O 0.03234 0.18619 0.05397 0.0
O20 O 0.0469 0.18076 0.10175 0.0
O21 O 0.89919 0.18679 0.08145 0.0
Sc22 Sc -0.00219 0.80978 0.31865 0.0
Sc23 Sc -0.00417 0.68313 0.3195 0.0
Sc24 Sc 0.99311 0.74915 0.3513 0.0
O25 O -0.00442 0.74734 0.32982 0.0
C26 C 0.06774 0.83332 0.34451 0.0
C27 C 0.06979 0.74408 0.30095 0.0
C28 C 0.06488 0.66134 0.34563 0.0
C29 C 0.92641 0.74599 0.30001 0.0
C30 C 0.92365 0.83626 0.34315 0.0
C31 C 0.92101 0.66311 0.34439 0.0
O32 O 0.05276 0.83998 0.33197 0.0
O33 O 0.05234 0.70453 0.3053 0.0
O34 O 0.04747 0.69416 0.35346 0.0
O35 O 0.94331 0.78618 0.30406 0.0
O36 O 0.93852 0.8041 0.35163 0.0
O37 O 0.93948 0.65363 0.33244 0.0
O38 O 0.94167 0.84244 0.33096 0.0
O39 O 0.9415 0.7059 0.30472 0.0
O40 O 0.93597 0.69691 0.35228 0.0
O41 O 0.05405 0.78471 0.30497 0.0
O42 O 0.04968 0.80202 0.35273 0.0
O43 O 0.05013 0.65362 0.33313 0.0
Sc44 Sc 0.55569 0.7463 0.57002 0.0
Sc45 Sc 0.42909 0.74565 0.56838 0.0
Sc46 Sc 0.48757 0.74844 0.60141 0.0
O47 O 0.49079 0.74684 0.57994 0.0
C48 C 0.5751 0.67609 0.59601 0.0
C49 C 0.49539 0.67377 0.55081 0.0
C50 C 0.40343 0.67466 0.59375 0.0
C51 C 0.49483 0.81727 0.55045 0.0
C52 C 0.57492 0.8197 0.59534 0.0
C53 C 0.4014 0.81879 0.59306 0.0
O54 O 0.58381 0.69126 0.58362 0.0
O55 O 0.45467 0.68995 0.55458 0.0
O56 O 0.43413 0.69233 0.60225 0.0
O57 O 0.53443 0.80141 0.55531 0.0
O58 O 0.5404 0.80489 0.60298 0.0
O59 O 0.39578 0.80127 0.58078 0.0
O60 O 0.58485 0.80171 0.58337 0.0
O61 O 0.45416 0.80075 0.55422 0.0
O62 O 0.43311 0.80352 0.60163 0.0
O63 O 0.53481 0.69052 0.5555 0.0
O64 O 0.54187 0.69345 0.6037 0.0
O65 O 0.39772 0.69014 0.58123 0.0
Sc66 Sc 0.49515 0.30455 0.82003 0.0
Sc67 Sc 0.49206 0.17792 0.8184 0.0
Sc68 Sc 0.49625 0.23609 0.8514 0.0
O69 O 0.49446 0.23955 0.82995 0.0
C70 C 0.56937 0.32188 0.84523 0.0
C71 C 0.56456 0.24233 0.8004 0.0
C72 C 0.56517 0.14892 0.84298 0.0
C73 C 0.42119 0.24571 0.80088 0.0
C74 C 0.42582 0.32519 0.84611 0.0
C75 C 0.42109 0.15315 0.84381 0.0
O76 O 0.55163 0.33217 0.83324 0.0
O77 O 0.54745 0.20197 0.80422 0.0
O78 O 0.55058 0.18082 0.85158 0.0
O79 O 0.43852 0.28486 0.80559 0.0
O80 O 0.44189 0.291 0.85369 0.0
O81 O 0.43621 0.14727 0.83128 0.0
O82 O 0.44141 0.3342 0.83379 0.0
O83 O 0.43677 0.20471 0.80464 0.0
O84 O 0.43941 0.18357 0.85227 0.0
O85 O 0.54934 0.28218 0.80522 0.0
O86 O 0.5536 0.28796 0.85293 0.0
O87 O 0.54727 0.14365 0.83074 0.0
Sc88 Sc -0.00402 0.73476 0.88999 0.0
Sc89 Sc 0.05788 0.7436 0.92238 0.0
Sc90 Sc 0.93115 0.73996 0.92193 0.0
O91 O -0.00501 0.73943 0.91144 0.0
C92 C 0.90765 0.80603 0.89522 0.0
C93 C 0.07932 0.81135 0.89602 0.0
C94 C 0.99144 0.81636 0.9397 0.0
C95 C 0.08412 0.66737 0.89838 0.0
C96 C 0.91112 0.66239 0.89787 0.0
C97 C -0.00398 0.67324 0.94176 0.0
O98 O 0.94108 0.78905 0.88754 0.0
O99 O 0.08587 0.79855 0.90876 0.0
O100 O 0.95194 0.79883 0.93534 0.0
O101 O 0.05036 0.67975 0.8901 0.0
O102 O 0.90233 0.6813 0.90979 0.0
O103 O 0.03595 0.68929 0.93723 0.0
O104 O 0.94369 0.6777 0.88962 0.0
O105 O 0.09187 0.68781 0.91016 0.0
O106 O 0.95559 0.68829 0.93728 0.0
O107 O 0.04897 0.79108 0.88791 0.0
O108 O 0.89998 0.79168 0.90776 0.0
O109 O 0.03211 0.7999 0.93598 0.0
Sc110 Sc 0.49384 0.73829 0.13996 0.0
Sc111 Sc 0.49499 0.80382 0.17184 0.0
Sc112 Sc 0.4967 0.67721 0.17258 0.0
O113 O 0.49516 0.73978 0.16146 0.0
C114 C 0.42425 0.65086 0.14755 0.0
C115 C 0.42136 0.82425 0.1466 0.0
C116 C 0.42435 0.74063 0.19088 0.0
C117 C 0.56526 0.8259 0.14604 0.0
C118 C 0.56831 0.65426 0.14717 0.0
C119 C 0.56781 0.74283 0.19073 0.0
O120 O 0.43918 0.68354 0.13927 0.0
O121 O 0.43881 0.83302 0.15874 0.0
O122 O 0.44096 0.70043 0.18675 0.0
O123 O 0.54826 0.79308 0.13813 0.0
O124 O 0.55285 0.6476 0.15964 0.0
O125 O 0.55108 0.78245 0.1862 0.0
O126 O 0.55033 0.68528 0.13882 0.0
O127 O 0.54992 0.83367 0.15846 0.0
O128 O 0.55175 0.70228 0.18674 0.0
O129 O 0.43726 0.79099 0.13867 0.0
O130 O 0.44177 0.6443 0.1598 0.0
O131 O 0.44023 0.78075 0.18642 0.0
Sc132 Sc 0.49434 0.2502 0.39023 0.0
Sc133 Sc 0.56045 0.24645 0.42202 0.0
Sc134 Sc 0.43373 0.24534 0.42286 0.0
O135 O 0.49618 0.24732 0.4117 0.0
C136 C 0.40745 0.31988 0.39842 0.0
C137 C 0.58072 0.32169 0.39723 0.0
C138 C 0.49824 0.31609 0.44153 0.0
C139 C 0.58178 0.17781 0.39584 0.0
C140 C 0.40975 0.17593 0.39692 0.0
C141 C 0.49901 0.17266 0.4405 0.0
O142 O 0.43945 0.30486 0.38992 0.0
O143 O 0.59037 0.3027 0.4091 0.0
O144 O 0.45788 0.29944 0.43751 0.0
O145 O 0.54921 0.19575 0.388 0.0
O146 O 0.40296 0.19087 0.40945 0.0
O147 O 0.53868 0.18999 0.43621 0.0
O148 O 0.44138 0.1938 0.38877 0.0
O149 O 0.58945 0.19207 0.40839 0.0
O150 O 0.45848 0.18866 0.43647 0.0
O151 O 0.54664 0.30725 0.38935 0.0
O152 O 0.40135 0.30191 0.41061 0.0
O153 O 0.53817 0.30082 0.43679 0.0
Sc154 Sc 0.98707 0.24773 0.64034 0.0
Sc155 Sc -0.00595 0.31091 0.67252 0.0
Sc156 Sc 0.99387 0.18421 0.67253 0.0
O157 O 0.99169 0.2476 0.6618 0.0
C158 C 0.91697 0.16142 0.64832 0.0
C159 C 0.91734 0.33471 0.64845 0.0
C160 C 0.92507 0.24738 0.692 0.0
C161 C 0.06133 0.33307 0.64598 0.0
C162 C 0.06063 0.1612 0.6461 0.0
C163 C 0.06836 0.24788 0.6902 0.0
O164 O 0.93011 0.19534 0.64021 0.0
O165 O 0.93606 0.34158 0.66052 0.0
O166 O 0.93997 0.20719 0.68733 0.0
O167 O 0.04327 0.30054 0.63817 0.0
O168 O 0.04785 0.15479 0.65884 0.0
O169 O 0.05211 0.28792 0.68587 0.0
O170 O 0.04142 0.19267 0.63813 0.0
O171 O 0.04701 0.34099 0.65851 0.0
O172 O 0.05079 0.20776 0.68636 0.0
O173 O 0.93219 0.3025 0.64 0.0
O174 O 0.93732 0.15248 0.66005 0.0
O175 O 0.94154 0.2875 0.68773 0.0
H176 H 0.91914 0.36179 0.039 0.0
H177 H 0.92105 0.42393 0.02079 0.0
H178 H 0.07607 0.42066 0.02104 0.0
H179 H 0.07478 0.35815 0.03914 0.0
H180 H 0.96542 0.51586 0.02105 0.0
H181 H 0.04053 0.39707 0.97936 0.0
H182 H 0.01505 0.3739 0.99551 0.0
H183 H 0.07462 0.39896 0.99547 0.0
C184 C 0.95372 0.37427 0.03523 0.0
C185 C -0.00318 0.35457 0.04046 0.0
C186 C 0.95468 0.40982 0.02483 0.0
C187 C -0.00134 0.42617 0.01943 0.0
C188 C 0.04175 0.40774 0.02489 0.0
H189 H 0.0745 0.63087 0.95411 0.0
H190 H 0.07514 0.57194 0.97323 0.0
C191 C 0.04088 0.37217 0.03529 0.0
C192 C -0.00065 0.46235 0.00801 0.0
H193 H 0.03239 0.47955 0.9737 0.0
C194 C 0.97995 0.50799 0.01068 0.0
C195 C 0.01838 0.45177 0.99453 0.0
C196 C 0.03798 0.40267 0.99095 0.0
C197 C 0.97959 0.5437 0.00023 0.0
C198 C -0.00158 0.53304 0.98673 0.0
C199 C 0.01804 0.48749 0.98409 0.0
C200 C -0.00229 0.56857 0.97514 0.0
C201 C 0.95983 0.59276 0.00378 0.0
C202 C 0.95389 0.58544 0.96975 0.0
C203 C 0.95329 0.61908 0.95882 0.0
C204 C -0.0034 0.6363 0.95303 0.0
C205 C 0.04046 0.61858 0.95833 0.0
C206 C 0.04097 0.5849 0.96926 0.0
H207 H 0.95804 0.59869 0.01536 0.0
H208 H 0.98216 0.62157 -0.00101 0.0
H209 H 0.92284 0.59597 -0.00053 0.0
H210 H 0.92011 0.57247 0.97399 0.0
H211 H 0.91885 0.6317 0.95497 0.0
H212 H 0.61247 0.66622 0.20333 0.0
H213 H 0.67355 0.6682 0.22186 0.0
H214 H 0.67278 0.82319 0.22088 0.0
H215 H 0.61126 0.82184 0.20245 0.0
H216 H 0.76591 0.71056 0.22157 0.0
H217 H 0.64837 0.79092 0.26269 0.0
H218 H 0.62482 0.765 0.24664 0.0
H219 H 0.65117 0.824 0.24642 0.0
C220 C 0.62522 0.70081 0.20702 0.0
C221 C 0.60659 0.7439 0.20146 0.0
C222 C 0.66017 0.70181 0.21761 0.0
C223 C 0.67698 0.74581 0.22287 0.0
C224 C 0.65947 0.78887 0.21714 0.0
H225 H 0.88395 0.82368 0.2873 0.0
H226 H 0.82388 0.82319 0.26847 0.0
C227 C 0.62451 0.78797 0.20655 0.0
C228 C 0.71302 0.74652 0.23435 0.0
H229 H 0.73076 0.78177 0.26846 0.0
C230 C 0.75827 0.72598 0.23184 0.0
C231 C 0.70275 0.76671 0.2477 0.0
C232 C 0.65403 0.78756 0.25112 0.0
C233 C 0.79393 0.72569 0.24232 0.0
C234 C 0.78362 0.74576 0.25569 0.0
C235 C 0.73843 0.76644 0.25818 0.0
C236 C 0.81935 0.74568 0.26724 0.0
C237 C 0.84262 0.70473 0.23892 0.0
C238 C 0.8359 0.70219 0.27294 0.0
C239 C 0.87023 0.70224 0.28371 0.0
C240 C 0.88848 0.74586 0.28901 0.0
C241 C 0.87091 0.7894 0.28345 0.0
C242 C 0.83656 0.78926 0.27269 0.0
H243 H 0.84844 0.7017 0.22735 0.0
H244 H 0.87185 0.72704 0.24351 0.0
H245 H 0.84524 0.66815 0.24353 0.0
H246 H 0.82227 0.66819 0.26905 0.0
H247 H 0.88269 0.66804 0.28778 0.0
H248 H 0.41928 0.62768 0.5384 0.0
H249 H 0.42185 0.56582 0.52015 0.0
H250 H 0.57686 0.57005 0.52063 0.0
H251 H 0.57489 0.63158 0.53902 0.0
H252 H 0.46404 0.57511 0.49333 0.0
H253 H 0.54641 0.42588 0.52397 0.0
H254 H 0.52013 0.478 0.5323 0.0
H255 H 0.57896 0.48166 0.52455 0.0
C256 C 0.454 0.61526 0.53474 0.0
C257 C 0.4969 0.63468 0.5402 0.0
C258 C 0.45534 0.57992 0.52429 0.0
C259 C 0.49951 0.56309 0.51917 0.0
C260 C 0.54241 0.582 0.52464 0.0
H261 H 0.57669 0.3596 0.45356 0.0
H262 H 0.57726 0.42098 0.47201 0.0
C263 C 0.54116 0.61735 0.5351 0.0
C264 C 0.50052 0.52728 0.50765 0.0
H265 H 0.5371 0.41366 0.49936 0.0
C266 C 0.47985 0.53973 0.49464 0.0
C267 C 0.52141 0.48134 0.50943 0.0
C268 C 0.54265 0.4656 0.52334 0.0
C269 C 0.47987 0.50751 0.48326 0.0
C270 C 0.50043 0.46144 0.48507 0.0
C271 C 0.52142 0.44909 0.49804 0.0
C272 C 0.49981 0.4252 0.47367 0.0
C273 C 0.45861 0.5233 0.46935 0.0
C274 C 0.45602 0.40714 0.46859 0.0
C275 C 0.45546 0.37211 0.45804 0.0
C276 C 0.49878 0.35426 0.45244 0.0
C277 C 0.54264 0.37254 0.45759 0.0
C278 C 0.5431 0.40757 0.46815 0.0
H279 H 0.45578 0.56308 0.46863 0.0
H280 H 0.48057 0.51011 0.46037 0.0
H281 H 0.42189 0.50809 0.46828 0.0
H282 H 0.42224 0.41972 0.47291 0.0
H283 H 0.42104 0.35876 0.45438 0.0
H284 H 0.61111 0.32073 0.78941 0.0
H285 H 0.67235 0.32163 0.77094 0.0
H286 H 0.66703 0.1669 0.76859 0.0
H287 H 0.60549 0.16539 0.78694 0.0
H288 H 0.76369 0.27577 0.7706 0.0
H289 H 0.64444 0.21091 0.72752 0.0
H290 H 0.62144 0.23385 0.74401 0.0
H291 H 0.64499 0.17378 0.74304 0.0
C292 C 0.62288 0.28682 0.78499 0.0
C293 C 0.60304 0.24298 0.78961 0.0
C294 C 0.6579 0.28746 0.77444 0.0
C295 C 0.67351 0.24441 0.76828 0.0
C296 C 0.65468 0.20056 0.77305 0.0
H297 H 0.87904 0.16976 0.7036 0.0
H298 H 0.81858 0.17002 0.72228 0.0
C299 C 0.61968 0.19982 0.7836 0.0
C300 C 0.70982 0.24532 0.75692 0.0
H301 H 0.72762 0.21672 0.72231 0.0
C302 C 0.75585 0.26309 0.76002 0.0
C303 C 0.69925 0.22873 0.74316 0.0
C304 C 0.64975 0.21111 0.73915 0.0
C305 C 0.79206 0.26384 0.74973 0.0
C306 C 0.78153 0.24708 0.73598 0.0
C307 C 0.73546 0.22944 0.73288 0.0
C308 C 0.81795 0.24736 0.72465 0.0
C309 C 0.84155 0.28155 0.75372 0.0
C310 C 0.83694 0.29088 0.71969 0.0
C311 C 0.87149 0.29096 0.70901 0.0
C312 C 0.88751 0.24744 0.70307 0.0
C313 C 0.86773 0.20392 0.70795 0.0
C314 C 0.83315 0.20394 0.71862 0.0
H315 H 0.84673 0.28233 0.76535 0.0
H316 H 0.86983 0.25848 0.74898 0.0
H317 H 0.84647 0.31865 0.74966 0.0
H318 H 0.82492 0.3248 0.72405 0.0
H319 H 0.88572 0.32515 0.70547 0.0
H320 H 0.38364 0.32548 0.78788 0.0
H321 H 0.32393 0.32773 0.76894 0.0
H322 H 0.31173 0.17325 0.77048 0.0
H323 H 0.37172 0.17037 0.78927 0.0
H324 H 0.3258 0.21011 0.74328 0.0
H325 H 0.17829 0.3056 0.77115 0.0
H326 H 0.23561 0.33535 0.77172 0.0
H327 H 0.22817 0.27835 0.78038 0.0
C328 C 0.36794 0.29197 0.78431 0.0
C329 C 0.38259 0.24773 0.79011 0.0
C330 C 0.33367 0.29339 0.77352 0.0
C331 C 0.31315 0.25069 0.76843 0.0
C332 C 0.32715 0.20659 0.7743 0.0
H333 H 0.10967 0.17071 0.70353 0.0
H334 H 0.17109 0.17214 0.72196 0.0
C335 C 0.36142 0.20508 0.78506 0.0
C336 C 0.27865 0.25161 0.75655 0.0
H337 H 0.16787 0.2922 0.74665 0.0
C338 C 0.29119 0.22793 0.74401 0.0
C339 C 0.23372 0.27512 0.75756 0.0
C340 C 0.21781 0.29973 0.77096 0.0
C341 C 0.26006 0.2274 0.73236 0.0
C342 C 0.21495 0.25052 0.73341 0.0
C343 C 0.20257 0.27456 0.74591 0.0
C344 C 0.17957 0.24949 0.72175 0.0
C345 C 0.27599 0.20276 0.71897 0.0
C346 C 0.16369 0.29256 0.71565 0.0
C347 C 0.12839 0.29196 0.70516 0.0
C348 C 0.10807 0.2482 0.70064 0.0
C349 C 0.12463 0.20503 0.70668 0.0
C350 C 0.15991 0.20572 0.71718 0.0
H351 H 0.31568 0.19827 0.7186 0.0
H352 H 0.25945 0.16648 0.71845 0.0
H353 H 0.26435 0.2233 0.70951 0.0
H354 H 0.17838 0.32671 0.71908 0.0
H355 H 0.11658 0.32591 0.70075 0.0
H356 H 0.37935 0.66293 0.2028 0.0
H357 H 0.31831 0.66328 0.22131 0.0
H358 H 0.32192 0.81824 0.22225 0.0
H359 H 0.38248 0.81852 0.20362 0.0
H360 H 0.32749 0.702 0.24847 0.0
H361 H 0.17813 0.78833 0.21891 0.0
H362 H 0.23025 0.7633 0.21026 0.0
H363 H 0.23361 0.82137 0.21854 0.0
C364 C 0.36695 0.69717 0.20683 0.0
C365 C 0.38584 0.74073 0.20167 0.0
C366 C 0.3321 0.69724 0.21743 0.0
C367 C 0.31528 0.74077 0.22301 0.0
C368 C 0.3338 0.78429 0.21788 0.0
H369 H 0.11715 0.82052 0.28917 0.0
H370 H 0.17846 0.81861 0.27075 0.0
C371 C 0.36861 0.78431 0.20727 0.0
C372 C 0.27973 0.74059 0.2346 0.0
H373 H 0.16739 0.77899 0.24362 0.0
C374 C 0.29235 0.71856 0.24741 0.0
C375 C 0.23406 0.76235 0.23315 0.0
C376 C 0.2179 0.78482 0.21944 0.0
C377 C 0.26076 0.71852 0.25894 0.0
C378 C 0.21518 0.74046 0.2575 0.0
C379 C 0.2025 0.76235 0.24468 0.0
C380 C 0.17988 0.74106 0.26915 0.0
C381 C 0.2768 0.69596 0.27264 0.0
C382 C 0.16047 0.698 0.27433 0.0
C383 C 0.12544 0.69886 0.28488 0.0
C384 C 0.10893 0.7429 0.29036 0.0
C385 C 0.12894 0.78596 0.28521 0.0
C386 C 0.16396 0.785 0.27467 0.0
H387 H 0.31648 0.69156 0.27309 0.0
H388 H 0.26515 0.71795 0.2818 0.0
H389 H 0.26024 0.65981 0.27365 0.0
H390 H 0.17172 0.66374 0.27001 0.0
H391 H 0.11073 0.66503 0.28854 0.0
H392 H 0.57781 0.13108 0.45294 0.0
H393 H 0.57865 0.06991 0.47145 0.0
H394 H 0.42372 0.06407 0.47056 0.0
H395 H 0.42226 0.12555 0.45218 0.0
H396 H 0.46319 0.075 0.49771 0.0
H397 H 0.55006 0.92529 0.46845 0.0
H398 H 0.58207 0.98139 0.46792 0.0
H399 H 0.52405 0.97674 0.45967 0.0
C400 C 0.54387 0.11652 0.45657 0.0
C401 C 0.49995 0.13335 0.45106 0.0
C402 C 0.54448 0.08138 0.4671 0.0
C403 C 0.50127 0.0622 0.47225 0.0
C404 C 0.45745 0.0784 0.46668 0.0
H405 H 0.41856 0.85995 0.53708 0.0
H406 H 0.42106 0.92062 0.51849 0.0
C407 C 0.45675 0.11352 0.45616 0.0
C408 C 0.50154 0.02692 0.48391 0.0
H409 H 0.53856 0.91412 0.49302 0.0
C410 C 0.47951 0.03974 0.49669 0.0
C411 C 0.5231 0.98114 0.48253 0.0
C412 C 0.54583 0.96499 0.46887 0.0
C413 C 0.47882 0.00808 0.5082 0.0
C414 C 0.50005 0.96216 0.50678 0.0
C415 C 0.52239 0.94944 0.49404 0.0
C416 C 0.49865 0.92637 0.51831 0.0
C417 C 0.45609 0.0243 0.52185 0.0
C418 C 0.54153 0.90901 0.5242 0.0
C419 C 0.54034 0.87412 0.53479 0.0
C420 C 0.49615 0.85571 0.53962 0.0
C421 C 0.45323 0.87341 0.53369 0.0
C422 C 0.45452 0.90828 0.5231 0.0
H423 H 0.45304 0.0641 0.5224 0.0
H424 H 0.41931 0.00902 0.52261 0.0
H425 H 0.47714 0.01156 0.53108 0.0
H426 H 0.57595 0.92245 0.52057 0.0
H427 H 0.57409 0.8613 0.53909 0.0
H428 H 0.9125 0.13072 0.03713 0.0
H429 H 0.91096 0.07031 0.01841 0.0
H430 H 0.06599 0.0676 0.01796 0.0
H431 H 0.06814 0.12748 0.03676 0.0
H432 H 0.95165 0.07741 0.99124 0.0
H433 H 0.02926 0.92521 0.02157 0.0
H434 H 0.00574 0.97849 0.02997 0.0
H435 H 0.06463 0.97921 0.02216 0.0
C436 C 0.94633 0.11709 0.03314 0.0
C437 C 0.99047 0.1339 0.03851 0.0
C438 C 0.94532 0.08263 0.02242 0.0
C439 C 0.98833 0.06415 0.01695 0.0
C440 C 0.03239 0.08081 0.02224 0.0
H441 H 0.06774 0.86301 0.95183 0.0
H442 H 0.06539 0.92524 0.96998 0.0
C443 C 0.0335 0.11522 0.03295 0.0
C444 C 0.98723 0.02841 0.00542 0.0
H445 H 0.02219 0.91464 -0.00323 0.0
C446 C 0.96676 0.04168 0.99244 0.0
C447 C 0.007 0.98193 0.00708 0.0
C448 C 0.02752 0.96507 0.02098 0.0
C449 C 0.96661 0.00997 0.98093 0.0
C450 C 0.98687 0.9637 0.98256 0.0
C451 C 0.00693 0.9503 0.99557 0.0
C452 C 0.98775 0.9284 0.97091 0.0
C453 C 0.94586 0.02657 0.96704 0.0
C454 C 0.94478 0.90978 0.96541 0.0
C455 C 0.9459 0.87419 0.95502 0.0
C456 C 0.99009 0.85636 0.95001 0.0
C457 C 0.03306 0.87578 0.95543 0.0
C458 C 0.03185 0.91134 0.96581 0.0
H459 H 0.94228 0.06634 0.96659 0.0
H460 H 0.96863 0.01455 0.95809 0.0
H461 H 0.90954 0.0107 0.96565 0.0
H462 H 0.91037 0.92196 0.96939 0.0
H463 H 0.91211 0.86001 0.95113 0.0
H464 H 0.37012 0.81455 0.122 0.0
H465 H 0.30825 0.86857 0.11272 0.0
H466 H 0.32094 0.95753 0.14979 0.0
H467 H 0.38284 0.90407 0.15918 0.0
H468 H 0.21739 0.9003 0.12571 0.0
H469 H 0.34722 0.04822 0.11528 0.0
H470 H 0.36593 0.98675 0.11804 0.0
H471 H 0.34891 0.02342 0.13281 0.0
C472 C 0.35969 0.84548 0.12823 0.0
C473 C 0.38184 0.85515 0.1413 0.0
C474 C 0.32424 0.87619 0.12291 0.0
C475 C 0.3106 0.91719 0.13051 0.0
C476 C 0.33152 0.92629 0.14371 0.0
H477 H 0.07457 0.116 0.11868 0.0
H478 H 0.1288 0.0531 0.12714 0.0
C479 C 0.36681 0.89558 0.14906 0.0
C480 C 0.27547 0.95132 0.12448 0.0
H481 H 0.2647 0.06606 0.11215 0.0
C482 C 0.22761 0.93652 0.1227 0.0
C483 C 0.28927 -0.00176 0.12042 0.0
C484 C 0.34069 0.01519 0.1216 0.0
C485 C 0.19279 0.96798 0.11721 0.0
C486 C 0.20636 0.01535 0.11353 0.0
C487 C 0.25443 0.02976 0.11507 0.0
C488 C 0.17139 0.05082 0.10806 0.0
C489 C 0.14196 0.95022 0.11524 0.0
C490 C 0.17766 0.07054 0.09457 0.0
C491 C 0.14693 0.10661 0.08971 0.0
C492 C 0.10952 0.12398 0.09831 0.0
C493 C 0.10293 0.10352 0.11176 0.0
C494 C 0.13369 0.06733 0.1166 0.0
H495 H 0.14 0.91031 0.11538 0.0
H496 H 0.11923 0.96406 0.12396 0.0
H497 H 0.12667 0.96347 0.10513 0.0
H498 H 0.20673 0.05836 0.08786 0.0
H499 H 0.15312 0.12142 0.07929 0.0
H500 H 0.12668 0.89223 0.32918 0.0
H501 H 0.18972 0.94546 0.33799 0.0
H502 H 0.16051 0.89894 0.38056 0.0
H503 H 0.09816 0.84465 0.37183 0.0
H504 H 0.17928 0.02029 0.35572 0.0
H505 H 0.30517 0.888 0.37924 0.0
H506 H 0.2569 0.87054 0.36756 0.0
H507 H 0.24501 0.88263 0.38588 0.0
C508 C 0.13389 0.89294 0.34041 0.0
C509 C 0.10733 0.86411 0.34979 0.0
C510 C 0.17001 0.92337 0.34542 0.0
C511 C 0.1803 0.92568 0.35991 0.0
C512 C 0.15404 0.89685 0.36931 0.0
H513 H 0.34624 0.12017 0.41178 0.0
H514 H 0.29223 0.05826 0.40254 0.0
C515 C 0.11815 0.86605 0.36429 0.0
C516 C 0.21642 0.96046 0.36521 0.0
H517 H 0.31886 0.97055 0.38494 0.0
C518 C 0.21002 0.00934 0.362 0.0
C519 C 0.25648 0.94608 0.37343 0.0
C520 C 0.26665 0.89391 0.37662 0.0
C521 C 0.2421 0.04433 0.36699 0.0
C522 C 0.28166 0.02999 0.37534 0.0
C523 C 0.2883 0.98123 0.37855 0.0
C524 C 0.31621 0.06551 0.38095 0.0
C525 C 0.23306 0.09653 0.36354 0.0
C526 C 0.34798 0.08934 0.37185 0.0
C527 C 0.37902 0.12463 0.37707 0.0
C528 C 0.37863 0.1368 0.39149 0.0
C529 C 0.3473 0.11198 0.40061 0.0
C530 C 0.31651 0.07648 0.39538 0.0
H531 H 0.19676 0.10237 0.35894 0.0
H532 H 0.23674 0.11904 0.37317 0.0
H533 H 0.26024 0.109 0.3558 0.0
H534 H 0.34838 0.08095 0.36068 0.0
H535 H 0.40269 0.1429 0.36975 0.0
H536 H 0.10705 0.08709 0.65934 0.0
H537 H 0.16748 0.03317 0.64951 0.0
H538 H 0.16095 0.10888 0.60984 0.0
H539 H 0.10044 0.16346 0.61958 0.0
H540 H 0.15447 0.97379 0.62515 0.0
H541 H 0.30708 0.10175 0.61942 0.0
H542 H 0.25618 0.1137 0.63072 0.0
H543 H 0.25064 0.12061 0.61196 0.0
C544 C 0.11858 0.09267 0.64855 0.0
C545 C 0.09876 0.12972 0.64025 0.0
C546 C 0.15313 0.06173 0.64296 0.0
C547 C 0.16889 0.06736 0.62901 0.0
C548 C 0.14968 0.10444 0.62071 0.0
H549 H 0.3217 0.85347 0.57941 0.0
H550 H 0.26583 0.91518 0.58765 0.0
C551 C 0.11494 0.13543 0.62628 0.0
C552 C 0.20391 0.03295 0.62305 0.0
H553 H 0.31851 0.02309 0.61048 0.0
C554 C 0.1903 0.98453 0.62191 0.0
C555 C 0.25066 0.04718 0.61895 0.0
C556 C 0.26739 0.09855 0.62039 0.0
C557 C 0.22226 0.94983 0.61671 0.0
C558 C 0.26883 0.96412 0.61247 0.0
C559 C 0.28258 0.01249 0.61366 0.0
C560 C 0.30407 0.92886 0.60712 0.0
C561 C 0.20641 0.89798 0.61604 0.0
C562 C 0.34453 0.91701 0.61524 0.0
C563 C 0.37652 0.88166 0.61061 0.0
C564 C 0.36876 0.85783 0.5977 0.0
C565 C 0.32876 0.87091 0.58942 0.0
C566 C 0.29669 0.90607 0.59411 0.0
H567 H 0.17279 0.89163 0.62209 0.0
H568 H 0.19977 0.88791 0.60487 0.0
H569 H 0.23495 0.87395 0.62023 0.0
H570 H 0.35078 0.93441 0.62531 0.0
H571 H 0.40707 0.87276 0.61721 0.0
H572 H 0.13412 0.87511 0.91094 0.0
H573 H 0.18631 0.93813 0.90168 0.0
H574 H 0.1456 0.89984 0.8592 0.0
H575 H 0.09229 0.83733 0.86837 0.0
H576 H 0.26338 0.92512 0.88482 0.0
H577 H 0.13173 0.04469 0.85823 0.0
H578 H 0.11379 -0.00162 0.8705 0.0
H579 H 0.12832 0.98322 0.85255 0.0
C580 C 0.13586 0.88031 0.89962 0.0
C581 C 0.10907 0.85108 0.89039 0.0
C582 C 0.16566 0.91643 0.89435 0.0
C583 C 0.16938 0.92406 0.87977 0.0
C584 C 0.14239 0.89533 0.87051 0.0
H585 H 0.36687 0.08936 0.82853 0.0
H586 H 0.30417 0.03542 0.8373 0.0
C587 C 0.11218 0.85939 0.87577 0.0
C588 C 0.20409 0.95984 0.87429 0.0
H589 H 0.21465 0.05991 0.85361 0.0
C590 C 0.25265 0.95479 0.87808 0.0
C591 C 0.18997 -0.0016 0.86546 0.0
C592 C 0.13805 0.00688 0.86154 0.0
C593 C 0.2876 0.98691 0.87315 0.0
C594 C 0.27353 0.02523 0.86428 0.0
C595 C 0.22511 0.03035 0.86042 0.0
C596 C 0.309 0.06012 0.85888 0.0
C597 C 0.3395 0.97926 0.87726 0.0
C598 C 0.33163 0.09233 0.86812 0.0
C599 C 0.36741 0.12324 0.86318 0.0
C600 C 0.38124 0.12235 0.8489 0.0
C601 C 0.35741 0.09079 0.83961 0.0
C602 C 0.32146 0.06006 0.84456 0.0
H603 H 0.34557 0.94314 0.88195 0.0
H604 H 0.36336 0.98348 0.86795 0.0
H605 H 0.35007 0.00673 0.88517 0.0
H606 H 0.32202 0.09307 0.8792 0.0
H607 H 0.38479 0.14718 0.87062 0.0
H608 H 0.91342 0.85041 0.86936 0.0
H609 H 0.8586 0.91073 0.85957 0.0
H610 H 0.77469 0.90691 0.89778 0.0
H611 H 0.8288 0.84666 0.90766 0.0
H612 H 0.72086 0.89744 0.87211 0.0
H613 H 0.84512 0.05434 0.87167 0.0
H614 H 0.8671 9e-05 0.8636 0.0
H615 H 0.85614 0.00143 0.88226 0.0
C616 C 0.88345 0.86253 0.87572 0.0
C617 C 0.8756 0.8436 0.88931 0.0
C618 C 0.85233 0.89717 0.87013 0.0
C619 C 0.81295 0.91348 0.87802 0.0
C620 C 0.80503 0.89482 0.89156 0.0
H621 H 0.61667 0.15071 0.86769 0.0
H622 H 0.67809 0.09363 0.87548 0.0
C623 C 0.8361 0.86039 0.89718 0.0
C624 C 0.77878 0.9488 0.87207 0.0
H625 H 0.76788 0.06594 0.86176 0.0
C626 C 0.7311 0.93424 0.8698 0.0
C627 C 0.79236 -0.00321 0.86919 0.0
C628 C 0.84285 0.01446 0.87188 0.0
C629 C 0.69646 0.96652 0.86471 0.0
C630 C 0.71009 0.01441 0.86171 0.0
C631 C 0.75777 0.02904 0.864 0.0
C632 C 0.6748 0.05013 0.85659 0.0
C633 C 0.64529 0.94948 0.86287 0.0
C634 C 0.65336 0.04489 0.84329 0.0
C635 C 0.61826 0.07737 0.83878 0.0
C636 C 0.60397 0.11575 0.84752 0.0
C637 C 0.62651 0.12146 0.86072 0.0
C638 C 0.66173 0.08899 0.86519 0.0
H639 H 0.63874 0.91468 0.86831 0.0
H640 H 0.61959 0.97656 0.86702 0.0
H641 H 0.63769 0.94451 0.85147 0.0
H642 H 0.6635 0.0154 0.83645 0.0
H643 H 0.60193 0.07195 0.82852 0.0
H644 H 0.90256 0.0673 0.65509 0.0
H645 H 0.8398 0.01377 0.64618 0.0
H646 H 0.77721 0.13165 0.62291 0.0
H647 H 0.84148 0.18475 0.6312 0.0
H648 H 0.74668 0.01106 0.64856 0.0
H649 H 0.79073 0.03625 0.592 0.0
H650 H 0.82831 0.0595 0.60592 0.0
H651 H 0.77498 0.09148 0.60057 0.0
C652 C 0.87539 0.08178 0.64807 0.0
C653 C 0.87719 0.13 0.64369 0.0
C654 C 0.83952 0.05118 0.64299 0.0
C655 C 0.80436 0.06837 0.63361 0.0
C656 C 0.80485 0.11713 0.62974 0.0
H657 H 0.55163 0.89014 0.6143 0.0
H658 H 0.60425 0.95338 0.62353 0.0
C659 C 0.84138 0.14751 0.63456 0.0
C660 C 0.76767 0.03492 0.62784 0.0
H661 H 0.72054 0.99142 0.59712 0.0
C662 C 0.741 0.00669 0.63731 0.0
C663 C 0.76071 0.02878 0.61314 0.0
C664 C 0.79053 0.05524 0.60232 0.0
C665 C 0.70808 0.97207 0.63252 0.0
C666 C 0.70015 0.96691 0.61783 0.0
C667 C 0.72631 -0.00434 0.60837 0.0
C668 C 0.66717 0.93001 0.61194 0.0
C669 C 0.68374 0.94016 0.64325 0.0
C670 C 0.68435 0.89717 0.60189 0.0
C671 C 0.65405 0.86198 0.59631 0.0
C672 C 0.60607 0.85847 0.60082 0.0
C673 C 0.58865 0.89164 0.61077 0.0
C674 C 0.61878 0.92755 0.61613 0.0
H675 H 0.70392 0.93922 0.65337 0.0
H676 H 0.64728 0.95441 0.64549 0.0
H677 H 0.6801 0.90278 0.63928 0.0
H678 H 0.72149 0.89838 0.59846 0.0
H679 H 0.66856 0.83682 0.5887 0.0
H680 H 0.88669 0.91405 0.32909 0.0
H681 H 0.8246 0.96959 0.33724 0.0
H682 H 0.8094 0.88796 0.37566 0.0
H683 H 0.87135 0.8319 0.36764 0.0
H684 H 0.71954 0.91727 0.36172 0.0
H685 H 0.84945 0.06681 0.37021 0.0
H686 H 0.85116 0.03854 0.35314 0.0
H687 H 0.8682 0.00491 0.36853 0.0
C688 C 0.87008 0.90765 0.33926 0.0
C689 C 0.8844 0.86867 0.34777 0.0
C690 C 0.83468 0.93953 0.34389 0.0
C691 C 0.81295 0.93304 0.35709 0.0
C692 C 0.82598 0.89353 0.36544 0.0
H693 H 0.65828 0.13424 0.40874 0.0
H694 H 0.7117 0.07323 0.39899 0.0
C695 C 0.86151 0.86167 0.36085 0.0
C696 C 0.77768 0.96835 0.3624 0.0
H697 H 0.7673 0.08426 0.37377 0.0
C698 C 0.72981 0.95384 0.36433 0.0
C699 C 0.79155 0.01577 0.3659 0.0
C700 C 0.84293 0.03257 0.36447 0.0
C701 C 0.69519 0.98582 0.36963 0.0
C702 C 0.70899 0.03339 0.37298 0.0
C703 C 0.7569 0.04778 0.37109 0.0
C704 C 0.67476 0.06855 0.37894 0.0
C705 C 0.64442 0.96834 0.3719 0.0
C706 C 0.63628 0.08606 0.37086 0.0
C707 C 0.60558 0.12114 0.37638 0.0
C708 C 0.61298 0.13934 0.39008 0.0
C709 C 0.65139 0.12115 0.39816 0.0
C710 C 0.68205 0.08627 0.39262 0.0
H711 H 0.64188 0.92851 0.37138 0.0
H712 H 0.63061 0.98058 0.38229 0.0
H713 H 0.62079 0.98361 0.36359 0.0
H714 H 0.63054 0.07323 0.36019 0.0
H715 H 0.57644 0.13432 0.36985 0.0
H716 H 0.59525 0.83444 0.11863 0.0
H717 H 0.65668 0.88886 0.10931 0.0
H718 H 0.68407 0.94237 0.15124 0.0
H719 H 0.62259 0.88841 0.16072 0.0
H720 H 0.65436 -0.00249 0.11477 0.0
H721 H 0.81956 0.90263 0.13292 0.0
H722 H 0.76313 0.87175 0.13011 0.0
H723 H 0.77108 0.90905 0.14537 0.0
C724 C 0.61457 0.85747 0.12591 0.0
C725 C 0.60391 0.85713 0.14043 0.0
C726 C 0.64957 0.88852 0.12055 0.0
C727 C 0.67492 0.91918 0.12963 0.0
C728 C 0.66503 0.91853 0.14412 0.0
H729 H 0.89528 0.1353 0.12059 0.0
H730 H 0.83909 0.07387 0.12883 0.0
C731 C 0.62975 0.88784 0.14949 0.0
C732 C 0.71007 0.95369 0.12387 0.0
H733 H 0.82996 0.97904 0.12245 0.0
C734 C 0.69281 0.99348 0.11635 0.0
C735 C 0.75995 0.94821 0.12611 0.0
C736 C 0.77988 0.90552 0.13399 0.0
C737 C 0.72426 0.02878 0.1112 0.0
C738 C 0.77437 0.02322 0.11333 0.0
C739 C 0.79157 0.98313 0.1208 0.0
C740 C 0.80943 0.05919 0.10814 0.0
C741 C 0.70333 0.07241 0.10397 0.0
C742 C 0.81206 0.07059 0.09374 0.0
C743 C 0.84376 0.10603 0.08901 0.0
C744 C 0.87403 0.13018 0.09857 0.0
C745 C 0.87244 0.11747 0.11294 0.0
C746 C 0.84037 0.08236 0.11767 0.0
H747 H 0.66484 0.07761 0.10671 0.0
H748 H 0.7234 0.10551 0.10686 0.0
H749 H 0.70571 0.06759 0.09237 0.0
H750 H 0.78942 0.0522 0.08616 0.0
H751 H 0.84452 0.11447 0.07785 0.0
H752 H 0.87779 0.40991 0.66303 0.0
H753 H 0.81406 0.46413 0.65525 0.0
H754 H 0.80238 0.38629 0.61605 0.0
H755 H 0.8659 0.33144 0.62373 0.0
H756 H 0.81807 0.5222 0.63106 0.0
H757 H 0.66165 0.39809 0.62952 0.0
H758 H 0.71628 0.38436 0.63904 0.0
H759 H 0.71382 0.37701 0.62021 0.0
C760 C 0.86147 0.40391 0.6528 0.0
C761 C 0.87715 0.36628 0.64399 0.0
C762 C 0.825 0.43497 0.64839 0.0
C763 C 0.80321 0.42884 0.63517 0.0
C764 C 0.81819 0.39105 0.62641 0.0
H765 H 0.65445 0.63549 0.58383 0.0
H766 H 0.70789 0.5749 0.59386 0.0
C767 C 0.85476 0.35996 0.63079 0.0
C768 C 0.7671 0.46395 0.63016 0.0
H769 H 0.65094 0.47506 0.61888 0.0
C770 C 0.78145 0.51198 0.62848 0.0
C771 C 0.71928 0.45049 0.62694 0.0
C772 C 0.70155 0.39978 0.62913 0.0
C773 C 0.74952 0.54677 0.62331 0.0
C774 C 0.70225 0.53298 0.61962 0.0
C775 C 0.68741 0.48527 0.62164 0.0
C776 C 0.66819 0.56769 0.61336 0.0
C777 C 0.76654 0.59806 0.62185 0.0
C778 C 0.62756 0.58274 0.6209 0.0
C779 C 0.59682 0.61753 0.61522 0.0
C780 C 0.60609 0.63752 0.60184 0.0
C781 C 0.64622 0.62114 0.59418 0.0
C782 C 0.67694 0.58658 0.59989 0.0
H783 H 0.79988 0.60482 0.62801 0.0
H784 H 0.77429 0.60564 0.61058 0.0
H785 H 0.73832 0.62358 0.6254 0.0
H786 H 0.62022 0.56829 0.6313 0.0
H787 H 0.56613 0.62908 0.62138 0.0
H788 H 0.93646 0.58877 0.88033 0.0
H789 H 0.88533 0.52292 0.872 0.0
H790 H 0.76646 0.57995 0.896 0.0
H791 H 0.81809 0.64414 0.90494 0.0
H792 H 0.76737 0.48678 0.89803 0.0
H793 H 0.78799 0.53475 0.84152 0.0
H794 H 0.84392 0.52005 0.84989 0.0
H795 H 0.81078 0.57229 0.8555 0.0
C796 C 0.89942 0.58707 0.88384 0.0
C797 C 0.88105 0.62172 0.89318 0.0
C798 C 0.87017 0.54964 0.879 0.0
C799 C 0.82168 0.54716 0.88308 0.0
C800 C 0.8037 0.58119 0.89267 0.0
H801 H 0.58736 0.41567 0.83914 0.0
H802 H 0.65092 0.4666 0.84871 0.0
C803 C 0.83319 0.6179 0.89775 0.0
C804 C 0.78915 0.50974 0.87729 0.0
H805 H 0.7437 0.46443 0.84658 0.0
C806 C 0.76216 0.48186 0.88677 0.0
C807 C 0.78207 0.50368 0.86259 0.0
C808 C 0.80735 0.53459 0.85179 0.0
C809 C 0.72744 0.44903 0.88201 0.0
C810 C 0.72096 0.44239 0.86731 0.0
C811 C 0.74889 0.46933 0.85783 0.0
C812 C 0.68308 0.41048 0.86148 0.0
C813 C 0.69664 0.42362 0.89281 0.0
C814 C 0.68021 0.36178 0.86533 0.0
C815 C 0.64309 0.33284 0.86011 0.0
C816 C 0.60917 0.3518 0.85061 0.0
C817 C 0.6131 0.40005 0.8464 0.0
C818 C 0.64945 0.42917 0.85187 0.0
H819 H 0.69692 0.4426 0.90312 0.0
H820 H 0.6588 0.42059 0.88916 0.0
H821 H 0.71094 0.38686 0.89457 0.0
H822 H 0.70659 0.34611 0.87237 0.0
H823 H 0.64125 0.29555 0.86337 0.0
H824 H 0.62705 0.59616 0.16285 0.0
H825 H 0.69118 0.54366 0.15439 0.0
H826 H 0.66374 0.5896 0.11165 0.0
H827 H 0.60029 0.64314 0.12002 0.0
H828 H 0.68227 0.46868 0.13669 0.0
H829 H 0.80822 0.60173 0.11368 0.0
H830 H 0.75929 0.61889 0.12512 0.0
H831 H 0.7484 0.60683 0.10673 0.0
C832 C 0.63489 0.59548 0.15165 0.0
C833 C 0.60849 0.6239 0.14211 0.0
C834 C 0.67163 0.56548 0.14685 0.0
C835 C 0.68272 0.56323 0.13243 0.0
C836 C 0.65664 0.59168 0.12287 0.0
H837 H 0.84656 0.36956 0.08042 0.0
H838 H 0.79373 0.43181 0.08996 0.0
C839 C 0.62013 0.62203 0.12767 0.0
C840 C 0.71934 0.52874 0.12731 0.0
H841 H 0.82204 0.51926 0.10775 0.0
C842 C 0.71309 0.47982 0.13049 0.0
C843 C 0.75953 0.54338 0.11922 0.0
C844 C 0.7696 0.59563 0.1161 0.0
C845 C 0.74531 0.44501 0.12552 0.0
C846 C 0.78484 0.45957 0.11722 0.0
C847 C 0.79148 0.50841 0.11411 0.0
C848 C 0.81902 0.42415 0.11143 0.0
C849 C 0.73637 0.39272 0.12889 0.0
C850 C 0.85116 0.40001 0.12035 0.0
C851 C 0.88154 0.3645 0.11496 0.0
C852 C 0.88005 0.35243 0.10054 0.0
C853 C 0.84844 0.37765 0.09159 0.0
C854 C 0.81833 0.41335 0.09699 0.0
H855 H 0.70032 0.38677 0.13363 0.0
H856 H 0.73946 0.3705 0.11919 0.0
H857 H 0.76399 0.37999 0.13648 0.0
H858 H 0.85228 0.40824 0.13153 0.0
H859 H 0.90547 0.34592 0.12215 0.0
H860 H 0.90175 0.57021 0.33723 0.0
H861 H 0.83764 0.51887 0.34624 0.0
H862 H 0.78451 0.63635 0.37157 0.0
H863 H 0.85025 0.68728 0.36309 0.0
H864 H 0.7854 0.55929 0.38656 0.0
H865 H 0.69992 0.51266 0.33583 0.0
H866 H 0.76224 0.49649 0.33553 0.0
H867 H 0.74523 0.55883 0.3372 0.0
C868 C 0.87616 0.58524 0.34462 0.0
C869 C 0.88089 0.63281 0.34942 0.0
C870 C 0.83923 0.55595 0.34968 0.0
C871 C 0.80541 0.57402 0.35932 0.0
C872 C 0.80997 0.62166 0.36407 0.0
H873 H 0.55591 0.39395 0.37909 0.0
H874 H 0.60677 0.45993 0.37075 0.0
C875 C 0.84753 0.65071 0.35923 0.0
C876 C 0.76708 0.54232 0.36502 0.0
H877 H 0.68258 0.45966 0.35533 0.0
C878 C 0.76244 0.53803 0.37972 0.0
C879 C 0.73622 0.51533 0.35614 0.0
C880 C 0.73579 0.52151 0.34031 0.0
C881 C 0.72928 0.50611 0.38577 0.0
C882 C 0.70137 0.47615 0.37688 0.0
C883 C 0.70454 0.48192 0.36218 0.0
C884 C 0.66976 0.43764 0.38253 0.0
C885 C 0.72435 0.50533 0.40164 0.0
C886 C 0.68821 0.40297 0.39185 0.0
C887 C 0.65896 0.36589 0.39685 0.0
C888 C 0.61105 0.36188 0.39227 0.0
C889 C 0.59276 0.3961 0.38276 0.0
C890 C 0.62177 0.4338 0.378 0.0
H891 H 0.73383 0.54077 0.40629 0.0
H892 H 0.68721 0.49592 0.40493 0.0
H893 H 0.74954 0.47835 0.40608 0.0
H894 H 0.72553 0.40402 0.3951 0.0
H895 H 0.67425 0.33963 0.40401 0.0
H896 H 0.32972 0.35694 0.41245 0.0
H897 H 0.27397 0.41878 0.40421 0.0
H898 H 0.3554 0.43374 0.36577 0.0
H899 H 0.41165 0.37204 0.37388 0.0
H900 H 0.32597 0.52359 0.37949 0.0
H901 H 0.1765 0.39339 0.37135 0.0
H902 H 0.20484 0.39204 0.38842 0.0
H903 H 0.23843 0.37475 0.37307 0.0
C904 C 0.33604 0.37346 0.40226 0.0
C905 C 0.37502 0.35913 0.39377 0.0
C906 C 0.30403 0.40871 0.39757 0.0
C907 C 0.31038 0.43028 0.38434 0.0
C908 C 0.34992 0.41727 0.37601 0.0
H909 H 0.10744 0.58425 0.33278 0.0
H910 H 0.16858 0.53071 0.34246 0.0
C911 C 0.3819 0.3819 0.38066 0.0
C912 C 0.27494 0.4654 0.37897 0.0
H913 H 0.1588 0.47549 0.36771 0.0
C914 C 0.28938 0.51324 0.37693 0.0
C915 C 0.22747 0.45143 0.37554 0.0
C916 C 0.21075 0.40006 0.37708 0.0
C917 C 0.25727 0.54773 0.3716 0.0
C918 C 0.20962 0.53385 0.36834 0.0
C919 C 0.19533 0.48596 0.37032 0.0
C920 C 0.17426 0.56803 0.36241 0.0
C921 C 0.2747 0.59846 0.36922 0.0
C922 C 0.15722 0.60673 0.37047 0.0
C923 C 0.12208 0.6375 0.36499 0.0
C924 C 0.10333 0.62995 0.35135 0.0
C925 C 0.12098 0.59126 0.3433 0.0
C926 C 0.15593 0.56054 0.34881 0.0
H927 H 0.31456 0.60094 0.36958 0.0
H928 H 0.26198 0.61224 0.35887 0.0
H929 H 0.25989 0.62215 0.37757 0.0
H930 H 0.17049 0.61263 0.38108 0.0
H931 H 0.10931 0.66684 0.37149 0.0
H932 H 0.07909 0.35367 0.12034 0.0
H933 H 0.13419 0.4148 0.12944 0.0
H934 H 0.21442 0.4104 0.09055 0.0
H935 H 0.15994 0.34913 0.08134 0.0
H936 H 0.27091 0.40235 0.11545 0.0
H937 H 0.14542 0.5578 0.11738 0.0
H938 H 0.12439 0.50385 0.12582 0.0
H939 H 0.13332 0.50455 0.10705 0.0
C940 C 0.10826 0.36584 0.11367 0.0
C941 C 0.11503 0.34638 0.1001 0.0
C942 C 0.13953 0.40098 0.11887 0.0
C943 C 0.17795 0.41738 0.11059 0.0
C944 C 0.18478 0.39827 0.09706 0.0
H945 H 0.37286 0.65619 0.1229 0.0
H946 H 0.31212 0.59978 0.11427 0.0
C947 C 0.15354 0.36325 0.09183 0.0
C948 C 0.21241 0.45296 0.11625 0.0
H949 H 0.22253 0.56901 0.12761 0.0
C950 C 0.26041 0.4388 0.1181 0.0
C951 C 0.19849 0.50052 0.11957 0.0
C952 C 0.14771 0.51792 0.11726 0.0
C953 C 0.29493 0.47091 0.12335 0.0
C954 C 0.28083 0.51816 0.12694 0.0
C955 C 0.23297 0.53255 0.12494 0.0
C956 C 0.31572 0.55336 0.13255 0.0
C957 C 0.34637 0.45432 0.12481 0.0
C958 C 0.33704 0.54623 0.14579 0.0
C959 C 0.37171 0.57834 0.15078 0.0
C960 C 0.38569 0.61819 0.14259 0.0
C961 C 0.36324 0.62577 0.12945 0.0
C962 C 0.32844 0.59368 0.1245 0.0
H963 H 0.35316 0.42054 0.11888 0.0
H964 H 0.37159 0.48241 0.12098 0.0
H965 H 0.35439 0.44758 0.13611 0.0
H966 H 0.32713 0.51555 0.15221 0.0
H967 H 0.38802 0.57146 0.16097 0.0
H968 H 0.06176 0.59086 0.88163 0.0
H969 H 0.11495 0.52568 0.87415 0.0
H970 H 0.23227 0.59091 0.89709 0.0
H971 H 0.17853 0.65458 0.90522 0.0
H972 H 0.18891 0.52724 0.85832 0.0
H973 H 0.24887 0.45673 0.90987 0.0
H974 H 0.20022 0.49926 0.90833 0.0
H975 H 0.26181 0.51965 0.90855 0.0
C976 C 0.0988 0.59093 0.88519 0.0
C977 C 0.11601 0.62761 0.89405 0.0
C978 C 0.12916 0.55367 0.88093 0.0
C979 C 0.17749 0.55274 0.88527 0.0
C980 C 0.1948 0.58974 0.894 0.0
H981 H 0.40678 0.41808 0.839 0.0
H982 H 0.34489 0.47061 0.84868 0.0
C983 C 0.16416 0.62641 0.89854 0.0
C984 C 0.21046 0.51491 0.87989 0.0
H985 H 0.29813 0.43596 0.88988 0.0
C986 C 0.21231 0.50686 0.86527 0.0
C987 C 0.24041 0.48746 0.88892 0.0
C988 C 0.23732 0.49084 0.90479 0.0
C989 C 0.24423 0.4734 0.8594 0.0
C990 C 0.27678 0.44874 0.86833 0.0
C991 C 0.27381 0.45547 0.88299 0.0
C992 C 0.31487 0.41677 0.86265 0.0
C993 C 0.24214 0.46455 0.84369 0.0
C994 C 0.32019 0.36962 0.86775 0.0
C995 C 0.3565 0.33982 0.86248 0.0
C996 C 0.38779 0.35655 0.85192 0.0
C997 C 0.38268 0.40388 0.84695 0.0
C998 C 0.34706 0.43387 0.85241 0.0
H999 H 0.20571 0.47223 0.83941 0.0
H1000 H 0.26779 0.48897 0.8383 0.0
H1001 H 0.25166 0.42684 0.84104 0.0
H1002 H 0.29603 0.35574 0.87573 0.0
H1003 H 0.35962 0.30351 0.86652 0.0
H1004 H 0.11735 0.39815 0.66014 0.0
H1005 H 0.17914 0.45096 0.65033 0.0
H1006 H 0.15543 0.39048 0.60902 0.0
H1007 H 0.09351 0.33732 0.61867 0.0
H1008 H 0.26626 0.42218 0.63306 0.0
H1009 H 0.13489 0.5416 0.60576 0.0
H1010 H 0.11785 0.50317 0.6203 0.0
H1011 H 0.12857 0.47777 0.60319 0.0
C1012 C 0.12525 0.3959 0.64896 0.0
C1013 C 0.10016 0.36368 0.64017 0.0
C1014 C 0.16068 0.426 0.64341 0.0
C1015 C 0.17138 0.42472 0.62897 0.0
C1016 C 0.14725 0.39211 0.62019 0.0
H1017 H 0.34639 0.61575 0.57777 0.0
H1018 H 0.2933 0.55163 0.58598 0.0
C1019 C 0.11198 0.36174 0.62574 0.0
C1020 C 0.207 0.45849 0.62306 0.0
H1021 H 0.21691 0.55993 0.60307 0.0
C1022 C 0.25567 0.45227 0.62647 0.0
C1023 C 0.19279 0.49739 0.61444 0.0
C1024 C 0.14069 0.50585 0.61072 0.0
C1025 C 0.29082 0.48409 0.62139 0.0
C1026 C 0.27651 0.52378 0.61302 0.0
C1027 C 0.22779 0.52951 0.60949 0.0
C1028 C 0.31113 0.56056 0.60806 0.0
C1029 C 0.34291 0.47444 0.62486 0.0
C1030 C 0.3387 0.58695 0.61776 0.0
C1031 C 0.36939 0.62341 0.6131 0.0
C1032 C 0.37245 0.63473 0.59866 0.0
C1033 C 0.34478 0.60814 0.58897 0.0
C1034 C 0.31446 0.57141 0.59363 0.0
H1035 H 0.34905 0.4359 0.62738 0.0
H1036 H 0.36678 0.48477 0.61597 0.0
H1037 H 0.35329 0.49582 0.63427 0.0
H1038 H 0.33574 0.58007 0.62898 0.0
H1039 H 0.38987 0.64342 0.62086 0.0
loop_
_geom_bond_atom_site_label_1
_geom_bond_atom_site_label_2
_geom_bond_distance
_geom_bond_site_symmetry_2
_ccdc_geom_bond_type
Sc0 O3 2.025 . S
Sc0 O10 2.105 . S
Sc0 O13 2.105 . S
Sc0 O16 2.105 . S
Sc0 O19 2.105 . S
Sc1 O3 2.025 1_655 S
Sc1 O11 2.105 . S
Sc1 O15 2.105 . S
Sc1 O17 2.105 . S
Sc1 O21 2.105 . S
Sc2 O3 2.025 . S
Sc2 O12 2.105 1_455 S
Sc2 O14 2.105 . S
Sc2 O18 2.105 1_455 S
Sc2 O20 2.105 . S
O3 Sc0 2.025 . S
O3 Sc1 2.025 1_455 S
O3 Sc2 2.025 . S
C4 O10 1.268 . S
C4 O20 1.268 . S
C5 O11 1.268 1_455 S
C5 O19 1.268 . S
C6 O12 1.268 . S
C6 O21 1.268 . S
C7 O13 1.268 . S
C7 O17 1.268 1_455 S
C8 O14 1.268 . S
C8 O16 1.268 . S
C9 O15 1.268 . S
C9 O18 1.268 . S
O10 Sc0 2.105 . S
O10 C4 1.268 . S
O11 Sc1 2.105 . S
O11 C5 1.268 1_655 S
O12 Sc2 2.105 1_655 S
O12 C6 1.268 . S
O13 Sc0 2.105 . S
O13 C7 1.268 . S
O14 Sc2 2.105 . S
O14 C8 1.268 . S
O15 Sc1 2.105 . S
O15 C9 1.268 . S
O16 Sc0 2.105 . S
O16 C8 1.268 . S
O17 Sc1 2.105 . S
O17 C7 1.268 1_655 S
O18 Sc2 2.105 1_655 S
O18 C9 1.268 . S
O19 Sc0 2.105 . S
O19 C5 1.268 . S
O20 Sc2 2.105 . S
O20 C4 1.268 . S
O21 Sc1 2.105 . S
O21 C6 1.268 . S
Sc22 O25 2.025 . S
Sc22 O32 2.105 . S
Sc22 O35 2.105 1_455 S
Sc22 O38 2.105 1_455 S
Sc22 O41 2.105 . S
Sc23 O25 2.025 . S
Sc23 O33 2.105 . S
Sc23 O37 2.105 1_455 S
Sc23 O39 2.105 1_455 S
Sc23 O43 2.105 . S
Sc24 O25 2.025 . S
Sc24 O34 2.105 . S
Sc24 O36 2.105 1_455 S
Sc24 O40 2.105 1_455 S
Sc24 O42 2.105 . S
O25 Sc22 2.025 . S
O25 Sc23 2.025 . S
O25 Sc24 2.025 . S
C26 O32 1.268 . S
C26 O42 1.268 . S
C27 O33 1.268 . S
C27 O41 1.268 . S
C28 O34 1.268 . S
C28 O43 1.268 . S
C29 O35 1.268 . S
C29 O39 1.268 . S
C30 O36 1.268 . S
C30 O38 1.268 . S
C31 O37 1.268 . S
C31 O40 1.268 . S
O32 Sc22 2.105 . S
O32 C26 1.268 . S
O33 Sc23 2.105 . S
O33 C27 1.268 . S
O34 Sc24 2.105 . S
O34 C28 1.268 . S
O35 Sc22 2.105 1_655 S
O35 C29 1.268 . S
O36 Sc24 2.105 1_655 S
O36 C30 1.268 . S
O37 Sc23 2.105 1_655 S
O37 C31 1.268 . S
O38 Sc22 2.105 1_655 S
O38 C30 1.268 . S
O39 Sc23 2.105 1_655 S
O39 C29 1.268 . S
O40 Sc24 2.105 1_655 S
O40 C31 1.268 . S
O41 Sc22 2.105 . S
O41 C27 1.268 . S
O42 Sc24 2.105 . S
O42 C26 1.268 . S
O43 Sc23 2.105 . S
O43 C28 1.268 . S
Sc44 O47 2.025 . S
Sc44 O54 2.105 . S
Sc44 O57 2.105 . S
Sc44 O60 2.105 . S
Sc44 O63 2.105 . S
Sc45 O47 2.025 . S
Sc45 O55 2.105 . S
Sc45 O59 2.105 . S
Sc45 O61 2.105 . S
Sc45 O65 2.105 . S
Sc46 O47 2.025 . S
Sc46 O56 2.105 . S
Sc46 O58 2.105 . S
Sc46 O62 2.105 . S
Sc46 O64 2.105 . S
O47 Sc44 2.025 . S
O47 Sc45 2.025 . S
O47 Sc46 2.025 . S
C48 O54 1.268 . S
C48 O64 1.268 . S
C49 O55 1.268 . S
C49 O63 1.268 . S
C50 O56 1.268 . S
C50 O65 1.268 . S
C51 O57 1.268 . S
C51 O61 1.268 . S
C52 O58 1.268 . S
C52 O60 1.268 . S
C53 O59 1.268 . S
C53 O62 1.268 . S
O54 Sc44 2.105 . S
O54 C48 1.268 . S
O55 Sc45 2.105 . S
O55 C49 1.268 . S
O56 Sc46 2.105 . S
O56 C50 1.268 . S
O57 Sc44 2.105 . S
O57 C51 1.268 . S
O58 Sc46 2.105 . S
O58 C52 1.268 . S
O59 Sc45 2.105 . S
O59 C53 1.268 . S
O60 Sc44 2.105 . S
O60 C52 1.268 . S
O61 Sc45 2.105 . S
O61 C51 1.268 . S
O62 Sc46 2.105 . S
O62 C53 1.268 . S
O63 Sc44 2.105 . S
O63 C49 1.268 . S
O64 Sc46 2.105 . S
O64 C48 1.268 . S
O65 Sc45 2.105 . S
O65 C50 1.268 . S
Sc66 O69 2.025 . S
Sc66 O76 2.105 . S
Sc66 O79 2.105 . S
Sc66 O82 2.105 . S
Sc66 O85 2.105 . S
Sc67 O69 2.025 . S
Sc67 O77 2.105 . S
Sc67 O81 2.105 . S
Sc67 O83 2.105 . S
Sc67 O87 2.105 . S
Sc68 O69 2.025 . S
Sc68 O78 2.105 . S
Sc68 O80 2.105 . S
Sc68 O84 2.105 . S
Sc68 O86 2.105 . S
O69 Sc66 2.025 . S
O69 Sc67 2.025 . S
O69 Sc68 2.025 . S
C70 O76 1.268 . S
C70 O86 1.268 . S
C71 O77 1.268 . S
C71 O85 1.268 . S
C72 O78 1.268 . S
C72 O87 1.268 . S
C73 O79 1.268 . S
C73 O83 1.268 . S
C74 O80 1.268 . S
C74 O82 1.268 . S
C75 O81 1.268 . S
C75 O84 1.268 . S
O76 Sc66 2.105 . S
O76 C70 1.268 . S
O77 Sc67 2.105 . S
O77 C71 1.268 . S
O78 Sc68 2.105 . S
O78 C72 1.268 . S
O79 Sc66 2.105 . S
O79 C73 1.268 . S
O80 Sc68 2.105 . S
O80 C74 1.268 . S
O81 Sc67 2.105 . S
O81 C75 1.268 . S
O82 Sc66 2.105 . S
O82 C74 1.268 . S
O83 Sc67 2.105 . S
O83 C73 1.268 . S
O84 Sc68 2.105 . S
O84 C75 1.268 . S
O85 Sc66 2.105 . S
O85 C71 1.268 . S
O86 Sc68 2.105 . S
O86 C70 1.268 . S
O87 Sc67 2.105 . S
O87 C72 1.268 . S
Sc88 O91 2.025 . S
Sc88 O98 2.105 1_455 S
Sc88 O101 2.105 . S
Sc88 O104 2.105 1_455 S
Sc88 O107 2.105 . S
Sc89 O91 2.025 . S
Sc89 O99 2.105 . S
Sc89 O103 2.105 . S
Sc89 O105 2.105 . S
Sc89 O109 2.105 . S
Sc90 O91 2.025 1_655 S
Sc90 O100 2.105 . S
Sc90 O102 2.105 . S
Sc90 O106 2.105 . S
Sc90 O108 2.105 . S
O91 Sc88 2.025 . S
O91 Sc89 2.025 . S
O91 Sc90 2.025 1_455 S
C92 O98 1.268 . S
C92 O108 1.268 . S
C93 O99 1.268 . S
C93 O107 1.268 . S
C94 O100 1.268 1_455 S
C94 O109 1.268 . S
C95 O101 1.268 . S
C95 O105 1.268 . S
C96 O102 1.268 . S
C96 O104 1.268 . S
C97 O103 1.268 . S
C97 O106 1.268 1_455 S
O98 Sc88 2.105 1_655 S
O98 C92 1.268 . S
O99 Sc89 2.105 . S
O99 C93 1.268 . S
O100 Sc90 2.105 . S
O100 C94 1.268 1_655 S
O101 Sc88 2.105 . S
O101 C95 1.268 . S
O102 Sc90 2.105 . S
O102 C96 1.268 . S
O103 Sc89 2.105 . S
O103 C97 1.268 . S
O104 Sc88 2.105 1_655 S
O104 C96 1.268 . S
O105 Sc89 2.105 . S
O105 C95 1.268 . S
O106 Sc90 2.105 . S
O106 C97 1.268 1_655 S
O107 Sc88 2.105 . S
O107 C93 1.268 . S
O108 Sc90 2.105 . S
O108 C92 1.268 . S
O109 Sc89 2.105 . S
O109 C94 1.268 . S
Sc110 O113 2.025 . S
Sc110 O120 2.105 . S
Sc110 O123 2.105 . S
Sc110 O126 2.105 . S
Sc110 O129 2.105 . S
Sc111 O113 2.025 . S
Sc111 O121 2.105 . S
Sc111 O125 2.105 . S
Sc111 O127 2.105 . S
Sc111 O131 2.105 . S
Sc112 O113 2.025 . S
Sc112 O122 2.105 . S
Sc112 O124 2.105 . S
Sc112 O128 2.105 . S
Sc112 O130 2.105 . S
O113 Sc110 2.025 . S
O113 Sc111 2.025 . S
O113 Sc112 2.025 . S
C114 O120 1.268 . S
C114 O130 1.268 . S
C115 O121 1.268 . S
C115 O129 1.268 . S
C116 O122 1.268 . S
C116 O131 1.268 . S
C117 O123 1.268 . S
C117 O127 1.268 . S
C118 O124 1.268 . S
C118 O126 1.268 . S
C119 O125 1.268 . S
C119 O128 1.268 . S
O120 Sc110 2.105 . S
O120 C114 1.268 . S
O121 Sc111 2.105 . S
O121 C115 1.268 . S
O122 Sc112 2.105 . S
O122 C116 1.268 . S
O123 Sc110 2.105 . S
O123 C117 1.268 . S
O124 Sc112 2.105 . S
O124 C118 1.268 . S
O125 Sc111 2.105 . S
O125 C119 1.268 . S
O126 Sc110 2.105 . S
O126 C118 1.268 . S
O127 Sc111 2.105 . S
O127 C117 1.268 . S
O128 Sc112 2.105 . S
O128 C119 1.268 . S
O129 Sc110 2.105 . S
O129 C115 1.268 . S
O130 Sc112 2.105 . S
O130 C114 1.268 . S
O131 Sc111 2.105 . S
O131 C116 1.268 . S
Sc132 O135 2.025 . S
Sc132 O142 2.105 . S
Sc132 O145 2.105 . S
Sc132 O148 2.105 . S
Sc132 O151 2.105 . S
Sc133 O135 2.025 . S
Sc133 O143 2.105 . S
Sc133 O147 2.105 . S
Sc133 O149 2.105 . S
Sc133 O153 2.105 . S
Sc134 O135 2.025 . S
Sc134 O144 2.105 . S
Sc134 O146 2.105 . S
Sc134 O150 2.105 . S
Sc134 O152 2.105 . S
O135 Sc132 2.025 . S
O135 Sc133 2.025 . S
O135 Sc134 2.025 . S
C136 O142 1.268 . S
C136 O152 1.268 . S
C137 O143 1.268 . S
C137 O151 1.268 . S
C138 O144 1.268 . S
C138 O153 1.268 . S
C139 O145 1.268 . S
C139 O149 1.268 . S
C140 O146 1.268 . S
C140 O148 1.268 . S
C141 O147 1.268 . S
C141 O150 1.268 . S
O142 Sc132 2.105 . S
O142 C136 1.268 . S
O143 Sc133 2.105 . S
O143 C137 1.268 . S
O144 Sc134 2.105 . S
O144 C138 1.268 . S
O145 Sc132 2.105 . S
O145 C139 1.268 . S
O146 Sc134 2.105 . S
O146 C140 1.268 . S
O147 Sc133 2.105 . S
O147 C141 1.268 . S
O148 Sc132 2.105 . S
O148 C140 1.268 . S
O149 Sc133 2.105 . S
O149 C139 1.268 . S
O150 Sc134 2.105 . S
O150 C141 1.268 . S
O151 Sc132 2.105 . S
O151 C137 1.268 . S
O152 Sc134 2.105 . S
O152 C136 1.268 . S
O153 Sc133 2.105 . S
O153 C138 1.268 . S
Sc154 O157 2.025 . S
Sc154 O164 2.105 1_455 S
Sc154 O167 2.105 . S
Sc154 O170 2.105 . S
Sc154 O173 2.105 1_455 S
Sc155 O157 2.025 . S
Sc155 O165 2.105 1_455 S
Sc155 O169 2.105 . S
Sc155 O171 2.105 . S
Sc155 O175 2.105 1_455 S
Sc156 O157 2.025 . S
Sc156 O166 2.105 1_455 S
Sc156 O168 2.105 . S
Sc156 O172 2.105 . S
Sc156 O174 2.105 1_455 S
O157 Sc154 2.025 . S
O157 Sc155 2.025 . S
O157 Sc156 2.025 . S
C158 O164 1.268 . S
C158 O174 1.268 . S
C159 O165 1.268 . S
C159 O173 1.268 . S
C160 O166 1.268 . S
C160 O175 1.268 . S
C161 O167 1.268 . S
C161 O171 1.268 . S
C162 O168 1.268 . S
C162 O170 1.268 . S
C163 O169 1.268 . S
C163 O172 1.268 . S
O164 Sc154 2.105 1_655 S
O164 C158 1.268 . S
O165 Sc155 2.105 1_655 S
O165 C159 1.268 . S
O166 Sc156 2.105 1_655 S
O166 C160 1.268 . S
O167 Sc154 2.105 . S
O167 C161 1.268 . S
O168 Sc156 2.105 . S
O168 C162 1.268 . S
O169 Sc155 2.105 . S
O169 C163 1.268 . S
O170 Sc154 2.105 . S
O170 C162 1.268 . S
O171 Sc155 2.105 . S
O171 C161 1.268 . S
O172 Sc156 2.105 . S
O172 C163 1.268 . S
O173 Sc154 2.105 1_655 S
O173 C159 1.268 . S
O174 Sc156 2.105 1_655 S
O174 C158 1.268 . S
O175 Sc155 2.105 1_655 S
O175 C160 1.268 . S
H176 C184 0.929 . S
H177 C186 0.930 . S
H178 C188 0.930 . S
H179 C191 0.929 . S
H180 C194 0.930 . S
H181 C196 0.960 . S
H182 C196 0.960 1_655 S
H183 C196 0.960 . S
C184 H176 0.929 . S
C184 C185 1.388 . S
C184 C186 1.384 . S
C185 C184 1.388 . S
C185 C191 1.380 1_655 S
C186 H177 0.930 . S
C186 C184 1.384 . S
C186 C187 1.372 . S
C187 C186 1.372 . S
C187 C188 1.400 1_655 S
C187 C192 1.490 . S
C188 H178 0.930 . S
C188 C187 1.400 1_455 S
C188 C191 1.386 . S
H189 C205 0.930 . S
H190 C206 0.931 . S
C191 H179 0.929 . S
C191 C185 1.380 1_455 S
C191 C188 1.386 . S
C192 C187 1.490 . S
C192 C194 1.395 . S
C192 C195 1.403 1_654 S
H193 C199 0.930 . S
C194 H180 0.930 . S
C194 C192 1.395 . S
C194 C197 1.403 . S
C195 C192 1.403 1_456 S
C195 C196 1.524 . S
C195 C199 1.400 . S
C196 H181 0.960 . S
C196 H182 0.960 1_455 S
C196 H183 0.960 . S
C196 C195 1.524 . S
C197 C194 1.403 . S
C197 C198 1.392 1_554 S
C197 C201 1.495 . S
C198 C197 1.392 1_556 S
C198 C199 1.385 1_655 S
C198 C200 1.478 . S
C199 H193 0.930 . S
C199 C195 1.400 . S
C199 C198 1.385 1_455 S
C200 C198 1.478 . S
C200 C202 1.381 . S
C200 C206 1.383 1_655 S
C201 C197 1.495 . S
C201 H207 0.959 . S
C201 H208 0.961 1_655 S
C201 H209 0.960 . S
C202 C200 1.381 . S
C202 C203 1.394 . S
C202 H210 0.930 . S
C203 C202 1.394 . S
C203 C204 1.382 . S
C203 H211 0.929 . S
C204 C203 1.382 . S
C204 C205 1.378 1_655 S
C205 H189 0.930 . S
C205 C204 1.378 1_455 S
C205 C206 1.379 . S
C206 H190 0.931 . S
C206 C200 1.383 1_455 S
C206 C205 1.379 . S
H207 C201 0.959 . S
H208 C201 0.961 1_455 S
H209 C201 0.960 . S
H210 C202 0.930 . S
H211 C203 0.929 . S
H212 C220 0.929 . S
H213 C222 0.930 . S
H214 C224 0.930 . S
H215 C227 0.929 . S
H216 C230 0.930 . S
H217 C232 0.960 . S
H218 C232 0.960 . S
H219 C232 0.960 . S
C220 H212 0.929 . S
C220 C221 1.377 . S
C220 C222 1.384 . S
C221 C220 1.377 . S
C221 C227 1.390 . S
C222 H213 0.930 . S
C222 C220 1.384 . S
C222 C223 1.372 . S
C223 C222 1.372 . S
C223 C224 1.400 . S
C223 C228 1.490 . S
C224 H214 0.930 . S
C224 C223 1.400 . S
C224 C227 1.386 . S
H225 C241 0.930 . S
H226 C242 0.931 . S
C227 H215 0.929 . S
C227 C221 1.390 . S
C227 C224 1.386 . S
C228 C223 1.490 . S
C228 C230 1.395 . S
C228 C231 1.403 . S
H229 C235 0.930 . S
C230 H216 0.930 . S
C230 C228 1.395 . S
C230 C233 1.403 . S
C231 C228 1.403 . S
C231 C232 1.524 . S
C231 C235 1.400 . S
C232 H217 0.960 . S
C232 H218 0.960 . S
C232 H219 0.960 . S
C232 C231 1.524 . S
C233 C230 1.403 . S
C233 C234 1.392 . S
C233 C237 1.495 . S
C234 C233 1.392 . S
C234 C235 1.385 . S
C234 C236 1.478 . S
C235 H229 0.930 . S
C235 C231 1.400 . S
C235 C234 1.385 . S
C236 C234 1.478 . S
C236 C238 1.381 . S
C236 C242 1.383 . S
C237 C233 1.495 . S
C237 H243 0.959 . S
C237 H244 0.961 . S
C237 H245 0.960 . S
C238 C236 1.381 . S
C238 C239 1.394 . S
C238 H246 0.930 . S
C239 C238 1.394 . S
C239 C240 1.383 . S
C239 H247 0.929 . S
C240 C239 1.383 . S
C240 C241 1.377 . S
C241 H225 0.930 . S
C241 C240 1.377 . S
C241 C242 1.379 . S
C242 H226 0.931 . S
C242 C236 1.383 . S
C242 C241 1.379 . S
H243 C237 0.959 . S
H244 C237 0.961 . S
H245 C237 0.960 . S
H246 C238 0.930 . S
H247 C239 0.929 . S
H248 C256 0.929 . S
H249 C258 0.930 . S
H250 C260 0.930 . S
H251 C263 0.929 . S
H252 C266 0.930 . S
H253 C268 0.960 . S
H254 C268 0.960 . S
H255 C268 0.960 . S
C256 H248 0.929 . S
C256 C257 1.377 . S
C256 C258 1.384 . S
C257 C256 1.377 . S
C257 C263 1.390 . S
C258 H249 0.930 . S
C258 C256 1.384 . S
C258 C259 1.372 . S
C259 C258 1.372 . S
C259 C260 1.400 . S
C259 C264 1.490 . S
C260 H250 0.930 . S
C260 C259 1.400 . S
C260 C263 1.386 . S
H261 C277 0.930 . S
H262 C278 0.931 . S
C263 H251 0.929 . S
C263 C257 1.390 . S
C263 C260 1.386 . S
C264 C259 1.490 . S
C264 C266 1.395 . S
C264 C267 1.403 . S
H265 C271 0.930 . S
C266 H252 0.930 . S
C266 C264 1.395 . S
C266 C269 1.403 . S
C267 C264 1.403 . S
C267 C268 1.524 . S
C267 C271 1.400 . S
C268 H253 0.960 . S
C268 H254 0.960 . S
C268 H255 0.960 . S
C268 C267 1.524 . S
C269 C266 1.403 . S
C269 C270 1.392 . S
C269 C273 1.495 . S
C270 C269 1.392 . S
C270 C271 1.385 . S
C270 C272 1.478 . S
C271 H265 0.930 . S
C271 C267 1.400 . S
C271 C270 1.385 . S
C272 C270 1.478 . S
C272 C274 1.381 . S
C272 C278 1.383 . S
C273 C269 1.495 . S
C273 H279 0.959 . S
C273 H280 0.961 . S
C273 H281 0.960 . S
C274 C272 1.381 . S
C274 C275 1.394 . S
C274 H282 0.930 . S
C275 C274 1.394 . S
C275 C276 1.383 . S
C275 H283 0.929 . S
C276 C275 1.383 . S
C276 C277 1.377 . S
C277 H261 0.930 . S
C277 C276 1.377 . S
C277 C278 1.379 . S
C278 H262 0.931 . S
C278 C272 1.383 . S
C278 C277 1.379 . S
H279 C273 0.959 . S
H280 C273 0.961 . S
H281 C273 0.960 . S
H282 C274 0.930 . S
H283 C275 0.929 . S
H284 C292 0.929 . S
H285 C294 0.930 . S
H286 C296 0.930 . S
H287 C299 0.929 . S
H288 C302 0.930 . S
H289 C304 0.960 . S
H290 C304 0.960 . S
H291 C304 0.960 . S
C292 H284 0.929 . S
C292 C293 1.377 . S
C292 C294 1.384 . S
C293 C292 1.377 . S
C293 C299 1.390 . S
C294 H285 0.930 . S
C294 C292 1.384 . S
C294 C295 1.372 . S
C295 C294 1.372 . S
C295 C296 1.400 . S
C295 C300 1.490 . S
C296 H286 0.930 . S
C296 C295 1.400 . S
C296 C299 1.386 . S
H297 C313 0.930 . S
H298 C314 0.931 . S
C299 H287 0.929 . S
C299 C293 1.390 . S
C299 C296 1.386 . S
C300 C295 1.490 . S
C300 C302 1.395 . S
C300 C303 1.403 . S
H301 C307 0.930 . S
C302 H288 0.930 . S
C302 C300 1.395 . S
C302 C305 1.403 . S
C303 C300 1.403 . S
C303 C304 1.524 . S
C303 C307 1.400 . S
C304 H289 0.960 . S
C304 H290 0.960 . S
C304 H291 0.960 . S
C304 C303 1.524 . S
C305 C302 1.403 . S
C305 C306 1.392 . S
C305 C309 1.495 . S
C306 C305 1.392 . S
C306 C307 1.385 . S
C306 C308 1.478 . S
C307 H301 0.930 . S
C307 C303 1.400 . S
C307 C306 1.385 . S
C308 C306 1.478 . S
C308 C310 1.381 . S
C308 C314 1.383 . S
C309 C305 1.495 . S
C309 H315 0.959 . S
C309 H316 0.961 . S
C309 H317 0.960 . S
C310 C308 1.381 . S
C310 C311 1.394 . S
C310 H318 0.930 . S
C311 C310 1.394 . S
C311 C312 1.383 . S
C311 H319 0.929 . S
C312 C311 1.383 . S
C312 C313 1.377 . S
C313 H297 0.930 . S
C313 C312 1.377 . S
C313 C314 1.379 . S
C314 H298 0.931 . S
C314 C308 1.383 . S
C314 C313 1.379 . S
H315 C309 0.959 . S
H316 C309 0.961 . S
H317 C309 0.960 . S
H318 C310 0.930 . S
H319 C311 0.929 . S
H320 C328 0.929 . S
H321 C330 0.930 . S
H322 C332 0.930 . S
H323 C335 0.929 . S
H324 C338 0.930 . S
H325 C340 0.960 . S
H326 C340 0.960 . S
H327 C340 0.960 . S
C328 H320 0.929 . S
C328 C329 1.377 . S
C328 C330 1.384 . S
C329 C328 1.377 . S
C329 C335 1.390 . S
C330 H321 0.930 . S
C330 C328 1.384 . S
C330 C331 1.372 . S
C331 C330 1.372 . S
C331 C332 1.400 . S
C331 C336 1.490 . S
C332 H322 0.930 . S
C332 C331 1.400 . S
C332 C335 1.386 . S
H333 C349 0.930 . S
H334 C350 0.931 . S
C335 H323 0.929 . S
C335 C329 1.390 . S
C335 C332 1.386 . S
C336 C331 1.490 . S
C336 C338 1.395 . S
C336 C339 1.403 . S
H337 C343 0.930 . S
C338 H324 0.930 . S
C338 C336 1.395 . S
C338 C341 1.403 . S
C339 C336 1.403 . S
C339 C340 1.524 . S
C339 C343 1.400 . S
C340 H325 0.960 . S
C340 H326 0.960 . S
C340 H327 0.960 . S
C340 C339 1.524 . S
C341 C338 1.403 . S
C341 C342 1.392 . S
C341 C345 1.495 . S
C342 C341 1.392 . S
C342 C343 1.385 . S
C342 C344 1.478 . S
C343 H337 0.930 . S
C343 C339 1.400 . S
C343 C342 1.385 . S
C344 C342 1.478 . S
C344 C346 1.381 . S
C344 C350 1.383 . S
C345 C341 1.495 . S
C345 H351 0.959 . S
C345 H352 0.961 . S
C345 H353 0.960 . S
C346 C344 1.381 . S
C346 C347 1.394 . S
C346 H354 0.930 . S
C347 C346 1.394 . S
C347 C348 1.383 . S
C347 H355 0.929 . S
C348 C347 1.383 . S
C348 C349 1.377 . S
C349 H333 0.930 . S
C349 C348 1.377 . S
C349 C350 1.379 . S
C350 H334 0.931 . S
C350 C344 1.383 . S
C350 C349 1.379 . S
H351 C345 0.959 . S
H352 C345 0.961 . S
H353 C345 0.960 . S
H354 C346 0.930 . S
H355 C347 0.929 . S
H356 C364 0.929 . S
H357 C366 0.930 . S
H358 C368 0.930 . S
H359 C371 0.929 . S
H360 C374 0.930 . S
H361 C376 0.960 . S
H362 C376 0.960 . S
H363 C376 0.960 . S
C364 H356 0.929 . S
C364 C365 1.377 . S
C364 C366 1.384 . S
C365 C364 1.377 . S
C365 C371 1.390 . S
C366 H357 0.930 . S
C366 C364 1.384 . S
C366 C367 1.372 . S
C367 C366 1.372 . S
C367 C368 1.400 . S
C367 C372 1.490 . S
C368 H358 0.930 . S
C368 C367 1.400 . S
C368 C371 1.386 . S
H369 C385 0.930 . S
H370 C386 0.931 . S
C371 H359 0.929 . S
C371 C365 1.390 . S
C371 C368 1.386 . S
C372 C367 1.490 . S
C372 C374 1.395 . S
C372 C375 1.403 . S
H373 C379 0.930 . S
C374 H360 0.930 . S
C374 C372 1.395 . S
C374 C377 1.403 . S
C375 C372 1.403 . S
C375 C376 1.524 . S
C375 C379 1.400 . S
C376 H361 0.960 . S
C376 H362 0.960 . S
C376 H363 0.960 . S
C376 C375 1.524 . S
C377 C374 1.403 . S
C377 C378 1.392 . S
C377 C381 1.495 . S
C378 C377 1.392 . S
C378 C379 1.385 . S
C378 C380 1.478 . S
C379 H373 0.930 . S
C379 C375 1.400 . S
C379 C378 1.385 . S
C380 C378 1.478 . S
C380 C382 1.381 . S
C380 C386 1.383 . S
C381 C377 1.495 . S
C381 H387 0.959 . S
C381 H388 0.961 . S
C381 H389 0.960 . S
C382 C380 1.381 . S
C382 C383 1.394 . S
C382 H390 0.930 . S
C383 C382 1.394 . S
C383 C384 1.383 . S
C383 H391 0.929 . S
C384 C383 1.383 . S
C384 C385 1.377 . S
C385 H369 0.930 . S
C385 C384 1.377 . S
C385 C386 1.379 . S
C386 H370 0.931 . S
C386 C380 1.383 . S
C386 C385 1.379 . S
H387 C381 0.959 . S
H388 C381 0.961 . S
H389 C381 0.960 . S
H390 C382 0.930 . S
H391 C383 0.929 . S
H392 C400 0.929 . S
H393 C402 0.930 . S
H394 C404 0.930 . S
H395 C407 0.929 . S
H396 C410 0.930 . S
H397 C412 0.960 . S
H398 C412 0.960 1_545 S
H399 C412 0.960 . S
C400 H392 0.929 . S
C400 C401 1.377 . S
C400 C402 1.384 . S
C401 C400 1.377 . S
C401 C407 1.390 . S
C402 H393 0.930 . S
C402 C400 1.384 . S
C402 C403 1.372 . S
C403 C402 1.372 . S
C403 C404 1.400 . S
C403 C408 1.490 . S
C404 H394 0.930 . S
C404 C403 1.400 . S
C404 C407 1.386 . S
H405 C421 0.930 . S
H406 C422 0.931 . S
C407 H395 0.929 . S
C407 C401 1.390 . S
C407 C404 1.386 . S
C408 C403 1.490 . S
C408 C410 1.395 . S
C408 C411 1.398 1_545 S
H409 C415 0.930 . S
C410 H396 0.930 . S
C410 C408 1.395 . S
C410 C413 1.403 . S
C411 C408 1.398 1_565 S
C411 C412 1.524 . S
C411 C415 1.404 . S
C412 H397 0.960 . S
C412 H398 0.960 1_565 S
C412 H399 0.960 . S
C412 C411 1.524 . S
C413 C410 1.403 . S
C413 C414 1.392 1_545 S
C413 C417 1.495 . S
C414 C413 1.392 1_565 S
C414 C415 1.385 . S
C414 C416 1.478 . S
C415 H409 0.930 . S
C415 C411 1.404 . S
C415 C414 1.385 . S
C416 C414 1.478 . S
C416 C418 1.381 . S
C416 C422 1.383 . S
C417 C413 1.495 . S
C417 H423 0.959 . S
C417 H424 0.961 1_545 S
C417 H425 0.960 . S
C418 C416 1.381 . S
C418 C419 1.394 . S
C418 H426 0.930 . S
C419 C418 1.394 . S
C419 C420 1.383 . S
C419 H427 0.929 . S
C420 C419 1.383 . S
C420 C421 1.377 . S
C421 H405 0.930 . S
C421 C420 1.377 . S
C421 C422 1.379 . S
C422 H406 0.931 . S
C422 C416 1.383 . S
C422 C421 1.379 . S
H423 C417 0.959 . S
H424 C417 0.961 1_565 S
H425 C417 0.960 . S
H426 C418 0.930 . S
H427 C419 0.929 . S
H428 C436 0.929 . S
H429 C438 0.930 . S
H430 C440 0.930 . S
H431 C443 0.929 . S
H432 C446 0.928 . S
H433 C448 0.960 . S
H434 C448 0.960 . S
H435 C448 0.960 1_545 S
C436 H428 0.929 . S
C436 C437 1.379 . S
C436 C438 1.384 . S
C437 C436 1.379 . S
C437 C443 1.388 1_655 S
C438 H429 0.930 . S
C438 C436 1.384 . S
C438 C439 1.372 . S
C439 C438 1.372 . S
C439 C440 1.400 1_655 S
C439 C444 1.490 . S
C440 H430 0.930 . S
C440 C439 1.400 1_455 S
C440 C443 1.386 . S
H441 C457 0.930 . S
H442 C458 0.931 . S
C443 H431 0.929 . S
C443 C437 1.388 1_455 S
C443 C440 1.386 . S
C444 C439 1.490 . S
C444 C446 1.397 . S
C444 C447 1.403 1_645 S
H445 C451 0.930 . S
C446 H432 0.928 . S
C446 C444 1.397 . S
C446 C449 1.401 1_554 S
C447 C444 1.403 1_465 S
C447 C448 1.524 . S
C447 C451 1.400 1_554 S
C448 H433 0.960 . S
C448 H434 0.960 . S
C448 H435 0.960 1_565 S
C448 C447 1.524 . S
C449 C446 1.401 1_556 S
C449 C450 1.392 1_545 S
C449 C453 1.495 . S
C450 C449 1.392 1_565 S
C450 C451 1.385 1_655 S
C450 C452 1.478 . S
C451 H445 0.930 . S
C451 C447 1.400 1_556 S
C451 C450 1.385 1_455 S
C452 C450 1.478 . S
C452 C454 1.381 . S
C452 C458 1.383 1_655 S
C453 C449 1.495 . S
C453 H459 0.959 . S
C453 H460 0.961 . S
C453 H461 0.960 1_545 S
C454 C452 1.381 . S
C454 C455 1.394 . S
C454 H462 0.930 . S
C455 C454 1.394 . S
C455 C456 1.383 . S
C455 H463 0.929 . S
C456 C455 1.383 . S
C456 C457 1.377 1_655 S
C457 H441 0.930 . S
C457 C456 1.377 1_455 S
C457 C458 1.379 . S
C458 H442 0.931 . S
C458 C452 1.383 1_455 S
C458 C457 1.379 . S
H459 C453 0.959 . S
H460 C453 0.961 . S
H461 C453 0.960 1_565 S
H462 C454 0.930 . S
H463 C455 0.929 . S
H464 C472 0.929 . S
H465 C474 0.930 . S
H466 C476 0.930 . S
H467 C479 0.929 . S
H468 C482 0.930 . S
H469 C484 0.960 . S
H470 C484 0.954 1_565 S
H471 C484 0.960 . S
C472 H464 0.929 . S
C472 C473 1.377 . S
C472 C474 1.384 . S
C473 C472 1.377 . S
C473 C479 1.390 . S
C474 H465 0.930 . S
C474 C472 1.384 . S
C474 C475 1.372 . S
C475 C474 1.372 . S
C475 C476 1.400 . S
C475 C480 1.490 . S
C476 H466 0.930 . S
C476 C475 1.400 . S
C476 C479 1.386 . S
H477 C493 0.930 . S
H478 C494 0.931 . S
C479 H467 0.929 . S
C479 C473 1.390 . S
C479 C476 1.386 . S
C480 C475 1.490 . S
C480 C482 1.395 . S
C480 C483 1.403 1_565 S
H481 C487 0.930 . S
C482 H468 0.930 . S
C482 C480 1.395 . S
C482 C485 1.403 . S
C483 C480 1.403 1_545 S
C483 C484 1.524 . S
C483 C487 1.400 . S
C484 H469 0.960 . S
C484 H470 0.954 1_545 S
C484 H471 0.960 . S
C484 C483 1.524 . S
C485 C482 1.403 . S
C485 C486 1.392 1_565 S
C485 C489 1.495 . S
C486 C485 1.392 1_545 S
C486 C487 1.385 . S
C486 C488 1.478 . S
C487 H481 0.930 . S
C487 C483 1.400 . S
C487 C486 1.385 . S
C488 C486 1.478 . S
C488 C490 1.381 . S
C488 C494 1.383 . S
C489 C485 1.495 . S
C489 H495 0.959 . S
C489 H496 0.961 . S
C489 H497 0.960 . S
C490 C488 1.381 . S
C490 C491 1.394 . S
C490 H498 0.930 . S
C491 C490 1.394 . S
C491 C492 1.383 . S
C491 H499 0.929 . S
C492 C491 1.383 . S
C492 C493 1.377 . S
C493 H477 0.930 . S
C493 C492 1.377 . S
C493 C494 1.379 . S
C494 H478 0.931 . S
C494 C488 1.383 . S
C494 C493 1.379 . S
H495 C489 0.959 . S
H496 C489 0.961 . S
H497 C489 0.960 . S
H498 C490 0.930 . S
H499 C491 0.929 . S
H500 C508 0.929 . S
H501 C510 0.930 . S
H502 C512 0.930 . S
H503 C515 0.929 . S
H504 C518 0.930 . S
H505 C520 0.960 . S
H506 C520 0.960 . S
H507 C520 0.960 . S
C508 H500 0.929 . S
C508 C509 1.377 . S
C508 C510 1.384 . S
C509 C508 1.377 . S
C509 C515 1.390 . S
C510 H501 0.930 . S
C510 C508 1.384 . S
C510 C511 1.372 . S
C511 C510 1.372 . S
C511 C512 1.400 . S
C511 C516 1.490 . S
C512 H502 0.930 . S
C512 C511 1.400 . S
C512 C515 1.386 . S
H513 C529 0.930 . S
H514 C530 0.931 . S
C515 H503 0.929 . S
C515 C509 1.390 . S
C515 C512 1.386 . S
C516 C511 1.490 . S
C516 C518 1.381 1_565 S
C516 C519 1.403 . S
H517 C523 0.930 . S
C518 H504 0.930 . S
C518 C516 1.381 1_545 S
C518 C521 1.417 . S
C519 C516 1.403 . S
C519 C520 1.524 . S
C519 C523 1.400 1_565 S
C520 H505 0.960 . S
C520 H506 0.960 . S
C520 H507 0.960 . S
C520 C519 1.524 . S
C521 C518 1.417 . S
C521 C522 1.392 . S
C521 C525 1.495 . S
C522 C521 1.392 . S
C522 C523 1.385 . S
C522 C524 1.478 . S
C523 H517 0.930 . S
C523 C519 1.400 1_545 S
C523 C522 1.385 . S
C524 C522 1.478 . S
C524 C526 1.381 . S
C524 C530 1.383 . S
C525 C521 1.495 . S
C525 H531 0.959 . S
C525 H532 0.961 . S
C525 H533 0.960 . S
C526 C524 1.381 . S
C526 C527 1.394 . S
C526 H534 0.930 . S
C527 C526 1.394 . S
C527 C528 1.383 . S
C527 H535 0.929 . S
C528 C527 1.383 . S
C528 C529 1.377 . S
C529 H513 0.930 . S
C529 C528 1.377 . S
C529 C530 1.379 . S
C530 H514 0.931 . S
C530 C524 1.383 . S
C530 C529 1.379 . S
H531 C525 0.959 . S
H532 C525 0.961 . S
H533 C525 0.960 . S
H534 C526 0.930 . S
H535 C527 0.929 . S
H536 C544 0.929 . S
H537 C546 0.930 . S
H538 C548 0.930 . S
H539 C551 0.929 . S
H540 C554 0.930 . S
H541 C556 0.960 . S
H542 C556 0.960 . S
H543 C556 0.960 . S
C544 H536 0.929 . S
C544 C545 1.377 . S
C544 C546 1.384 . S
C545 C544 1.377 . S
C545 C551 1.390 . S
C546 H537 0.930 . S
C546 C544 1.384 . S
C546 C547 1.372 . S
C547 C546 1.372 . S
C547 C548 1.400 . S
C547 C552 1.490 . S
C548 H538 0.930 . S
C548 C547 1.400 . S
C548 C551 1.386 . S
H549 C565 0.930 . S
H550 C566 0.931 . S
C551 H539 0.929 . S
C551 C545 1.390 . S
C551 C548 1.386 . S
C552 C547 1.490 . S
C552 C554 1.395 1_545 S
C552 C555 1.403 . S
H553 C559 0.930 . S
C554 H540 0.930 . S
C554 C552 1.395 1_565 S
C554 C557 1.403 . S
C555 C552 1.403 . S
C555 C556 1.524 . S
C555 C559 1.400 . S
C556 H541 0.960 . S
C556 H542 0.960 . S
C556 H543 0.960 . S
C556 C555 1.524 . S
C557 C554 1.403 . S
C557 C558 1.392 . S
C557 C561 1.495 . S
C558 C557 1.392 . S
C558 C559 1.385 1_565 S
C558 C560 1.478 . S
C559 H553 0.930 . S
C559 C555 1.400 . S
C559 C558 1.385 1_545 S
C560 C558 1.478 . S
C560 C562 1.381 . S
C560 C566 1.383 . S
C561 C557 1.495 . S
C561 H567 0.959 . S
C561 H568 0.961 . S
C561 H569 0.960 . S
C562 C560 1.381 . S
C562 C563 1.394 . S
C562 H570 0.930 . S
C563 C562 1.394 . S
C563 C564 1.383 . S
C563 H571 0.929 . S
C564 C563 1.383 . S
C564 C565 1.377 . S
C565 H549 0.930 . S
C565 C564 1.377 . S
C565 C566 1.379 . S
C566 H550 0.931 . S
C566 C560 1.383 . S
C566 C565 1.379 . S
H567 C561 0.959 . S
H568 C561 0.961 . S
H569 C561 0.960 . S
H570 C562 0.930 . S
H571 C563 0.929 . S
H572 C580 0.929 . S
H573 C582 0.930 . S
H574 C584 0.930 . S
H575 C587 0.929 . S
H576 C590 0.930 . S
H577 C592 0.960 1_545 S
H578 C592 0.960 . S
H579 C592 0.960 . S
C580 H572 0.929 . S
C580 C581 1.377 . S
C580 C582 1.384 . S
C581 C580 1.377 . S
C581 C587 1.390 . S
C582 H573 0.930 . S
C582 C580 1.384 . S
C582 C583 1.372 . S
C583 C582 1.372 . S
C583 C584 1.400 . S
C583 C588 1.490 . S
C584 H574 0.930 . S
C584 C583 1.400 . S
C584 C587 1.386 . S
H585 C601 0.930 . S
H586 C602 0.931 . S
C587 H575 0.929 . S
C587 C581 1.390 . S
C587 C584 1.386 . S
C588 C583 1.490 . S
C588 C590 1.395 . S
C588 C591 1.403 . S
H589 C595 0.930 . S
C590 H576 0.930 . S
C590 C588 1.395 . S
C590 C593 1.403 1_565 S
C591 C588 1.403 . S
C591 C592 1.524 . S
C591 C595 1.400 1_565 S
C592 H577 0.960 1_565 S
C592 H578 0.960 . S
C592 H579 0.960 . S
C592 C591 1.524 . S
C593 C590 1.403 1_545 S
C593 C594 1.392 . S
C593 C597 1.495 . S
C594 C593 1.392 . S
C594 C595 1.385 . S
C594 C596 1.478 . S
C595 H589 0.930 . S
C595 C591 1.400 1_545 S
C595 C594 1.385 . S
C596 C594 1.478 . S
C596 C598 1.381 . S
C596 C602 1.383 . S
C597 C593 1.495 . S
C597 H603 0.959 . S
C597 H604 0.961 . S
C597 H605 0.960 . S
C598 C596 1.381 . S
C598 C599 1.394 . S
C598 H606 0.930 . S
C599 C598 1.394 . S
C599 C600 1.383 . S
C599 H607 0.929 . S
C600 C599 1.383 . S
C600 C601 1.377 . S
C601 H585 0.930 . S
C601 C600 1.377 . S
C601 C602 1.379 . S
C602 H586 0.931 . S
C602 C596 1.383 . S
C602 C601 1.379 . S
H603 C597 0.959 . S
H604 C597 0.961 . S
H605 C597 0.960 . S
H606 C598 0.930 . S
H607 C599 0.929 . S
H608 C616 0.929 . S
H609 C618 0.930 . S
H610 C620 0.930 . S
H611 C623 0.929 . S
H612 C626 0.930 . S
H613 C628 0.960 . S
H614 C628 0.960 1_565 S
H615 C628 0.960 . S
C616 H608 0.929 . S
C616 C617 1.377 . S
C616 C618 1.384 . S
C617 C616 1.377 . S
C617 C623 1.390 . S
C618 H609 0.930 . S
C618 C616 1.384 . S
C618 C619 1.372 . S
C619 C618 1.372 . S
C619 C620 1.400 . S
C619 C624 1.490 . S
C620 H610 0.930 . S
C620 C619 1.400 . S
C620 C623 1.386 . S
H621 C637 0.930 . S
H622 C638 0.931 . S
C623 H611 0.929 . S
C623 C617 1.390 . S
C623 C620 1.386 . S
C624 C619 1.490 . S
C624 C626 1.395 . S
C624 C627 1.403 1_565 S
H625 C631 0.930 . S
C626 H612 0.930 . S
C626 C624 1.395 . S
C626 C629 1.403 . S
C627 C624 1.403 1_545 S
C627 C628 1.524 . S
C627 C631 1.400 . S
C628 H613 0.960 . S
C628 H614 0.960 1_545 S
C628 H615 0.960 . S
C628 C627 1.524 . S
C629 C626 1.403 . S
C629 C630 1.392 1_565 S
C629 C633 1.495 . S
C630 C629 1.392 1_545 S
C630 C631 1.385 . S
C630 C632 1.478 . S
C631 H625 0.930 . S
C631 C627 1.400 . S
C631 C630 1.385 . S
C632 C630 1.478 . S
C632 C634 1.381 . S
C632 C638 1.383 . S
C633 C629 1.495 . S
C633 H639 0.959 . S
C633 H640 0.961 . S
C633 H641 0.960 . S
C634 C632 1.381 . S
C634 C635 1.394 . S
C634 H642 0.930 . S
C635 C634 1.394 . S
C635 C636 1.383 . S
C635 H643 0.929 . S
C636 C635 1.383 . S
C636 C637 1.377 . S
C637 H621 0.930 . S
C637 C636 1.377 . S
C637 C638 1.379 . S
C638 H622 0.931 . S
C638 C632 1.383 . S
C638 C637 1.379 . S
H639 C633 0.959 . S
H640 C633 0.961 . S
H641 C633 0.960 . S
H642 C634 0.930 . S
H643 C635 0.929 . S
H644 C652 0.929 . S
H645 C654 0.930 . S
H646 C656 0.930 . S
H647 C659 0.929 . S
H648 C662 0.930 . S
H649 C664 0.960 . S
H650 C664 0.960 . S
H651 C664 0.960 . S
C652 H644 0.929 . S
C652 C653 1.377 . S
C652 C654 1.384 . S
C653 C652 1.377 . S
C653 C659 1.390 . S
C654 H645 0.930 . S
C654 C652 1.384 . S
C654 C655 1.372 . S
C655 C654 1.372 . S
C655 C656 1.400 . S
C655 C660 1.490 . S
C656 H646 0.930 . S
C656 C655 1.400 . S
C656 C659 1.386 . S
H657 C673 0.930 . S
H658 C674 0.931 . S
C659 H647 0.929 . S
C659 C653 1.390 . S
C659 C656 1.386 . S
C660 C655 1.490 . S
C660 C662 1.395 1_545 S
C660 C663 1.403 . S
H661 C667 0.930 . S
C662 H648 0.930 . S
C662 C660 1.395 1_565 S
C662 C665 1.403 . S
C663 C660 1.403 . S
C663 C664 1.524 . S
C663 C667 1.400 . S
C664 H649 0.960 . S
C664 H650 0.960 . S
C664 H651 0.960 . S
C664 C663 1.524 . S
C665 C662 1.403 . S
C665 C666 1.392 . S
C665 C669 1.495 . S
C666 C665 1.392 . S
C666 C667 1.385 1_565 S
C666 C668 1.478 . S
C667 H661 0.930 . S
C667 C663 1.400 . S
C667 C666 1.385 1_545 S
C668 C666 1.478 . S
C668 C670 1.381 . S
C668 C674 1.383 . S
C669 C665 1.495 . S
C669 H675 0.959 . S
C669 H676 0.961 . S
C669 H677 0.960 . S
C670 C668 1.381 . S
C670 C671 1.394 . S
C670 H678 0.930 . S
C671 C670 1.394 . S
C671 C672 1.383 . S
C671 H679 0.929 . S
C672 C671 1.383 . S
C672 C673 1.377 . S
C673 H657 0.930 . S
C673 C672 1.377 . S
C673 C674 1.379 . S
C674 H658 0.931 . S
C674 C668 1.383 . S
C674 C673 1.379 . S
H675 C669 0.959 . S
H676 C669 0.961 . S
H677 C669 0.960 . S
H678 C670 0.930 . S
H679 C671 0.929 . S
H680 C688 0.929 . S
H681 C690 0.930 . S
H682 C692 0.930 . S
H683 C695 0.929 . S
H684 C698 0.930 . S
H685 C700 0.960 . S
H686 C700 0.960 . S
H687 C700 0.960 . S
C688 H680 0.929 . S
C688 C689 1.377 . S
C688 C690 1.384 . S
C689 C688 1.377 . S
C689 C695 1.390 . S
C690 H681 0.930 . S
C690 C688 1.384 . S
C690 C691 1.372 . S
C691 C690 1.372 . S
C691 C692 1.400 . S
C691 C696 1.490 . S
C692 H682 0.930 . S
C692 C691 1.400 . S
C692 C695 1.386 . S
H693 C709 0.930 . S
H694 C710 0.931 . S
C695 H683 0.929 . S
C695 C689 1.390 . S
C695 C692 1.386 . S
C696 C691 1.490 . S
C696 C698 1.395 . S
C696 C699 1.403 1_565 S
H697 C703 0.930 . S
C698 H684 0.930 . S
C698 C696 1.395 . S
C698 C701 1.403 . S
C699 C696 1.403 1_545 S
C699 C700 1.524 . S
C699 C703 1.400 . S
C700 H685 0.960 . S
C700 H686 0.960 . S
C700 H687 0.960 . S
C700 C699 1.524 . S
C701 C698 1.403 . S
C701 C702 1.392 1_565 S
C701 C705 1.495 . S
C702 C701 1.392 1_545 S
C702 C703 1.385 . S
C702 C704 1.478 . S
C703 H697 0.930 . S
C703 C699 1.400 . S
C703 C702 1.385 . S
C704 C702 1.478 . S
C704 C706 1.381 . S
C704 C710 1.383 . S
C705 C701 1.495 . S
C705 H711 0.959 . S
C705 H712 0.961 . S
C705 H713 0.960 . S
C706 C704 1.381 . S
C706 C707 1.394 . S
C706 H714 0.930 . S
C707 C706 1.394 . S
C707 C708 1.383 . S
C707 H715 0.929 . S
C708 C707 1.383 . S
C708 C709 1.377 . S
C709 H693 0.930 . S
C709 C708 1.377 . S
C709 C710 1.379 . S
C710 H694 0.931 . S
C710 C704 1.383 . S
C710 C709 1.379 . S
H711 C705 0.959 . S
H712 C705 0.961 . S
H713 C705 0.960 . S
H714 C706 0.930 . S
H715 C707 0.929 . S
H716 C724 0.929 . S
H717 C726 0.930 . S
H718 C728 0.930 . S
H719 C731 0.929 . S
H720 C734 0.930 . S
H721 C736 0.960 . S
H722 C736 0.960 . S
H723 C736 0.960 . S
C724 H716 0.929 . S
C724 C725 1.377 . S
C724 C726 1.384 . S
C725 C724 1.377 . S
C725 C731 1.390 . S
C726 H717 0.930 . S
C726 C724 1.384 . S
C726 C727 1.372 . S
C727 C726 1.372 . S
C727 C728 1.400 . S
C727 C732 1.490 . S
C728 H718 0.930 . S
C728 C727 1.400 . S
C728 C731 1.386 . S
H729 C745 0.930 . S
H730 C746 0.931 . S
C731 H719 0.929 . S
C731 C725 1.390 . S
C731 C728 1.386 . S
C732 C727 1.490 . S
C732 C734 1.395 . S
C732 C735 1.403 . S
H733 C739 0.930 . S
C734 H720 0.930 . S
C734 C732 1.395 . S
C734 C737 1.403 1_565 S
C735 C732 1.403 . S
C735 C736 1.524 . S
C735 C739 1.400 1_565 S
C736 H721 0.960 . S
C736 H722 0.960 . S
C736 H723 0.960 . S
C736 C735 1.524 . S
C737 C734 1.403 1_545 S
C737 C738 1.392 . S
C737 C741 1.495 . S
C738 C737 1.392 . S
C738 C739 1.385 . S
C738 C740 1.478 . S
C739 H733 0.930 . S
C739 C735 1.400 1_545 S
C739 C738 1.385 . S
C740 C738 1.478 . S
C740 C742 1.381 . S
C740 C746 1.383 . S
C741 C737 1.495 . S
C741 H747 0.959 . S
C741 H748 0.961 . S
C741 H749 0.960 . S
C742 C740 1.381 . S
C742 C743 1.394 . S
C742 H750 0.930 . S
C743 C742 1.394 . S
C743 C744 1.383 . S
C743 H751 0.929 . S
C744 C743 1.383 . S
C744 C745 1.377 . S
C745 H729 0.930 . S
C745 C744 1.377 . S
C745 C746 1.379 . S
C746 H730 0.931 . S
C746 C740 1.383 . S
C746 C745 1.379 . S
H747 C741 0.959 . S
H748 C741 0.961 . S
H749 C741 0.960 . S
H750 C742 0.930 . S
H751 C743 0.929 . S
H752 C760 0.929 . S
H753 C762 0.930 . S
H754 C764 0.930 . S
H755 C767 0.929 . S
H756 C770 0.930 . S
H757 C772 0.960 . S
H758 C772 0.960 . S
H759 C772 0.960 . S
C760 H752 0.929 . S
C760 C761 1.377 . S
C760 C762 1.384 . S
C761 C760 1.377 . S
C761 C767 1.390 . S
C762 H753 0.930 . S
C762 C760 1.384 . S
C762 C763 1.372 . S
C763 C762 1.372 . S
C763 C764 1.400 . S
C763 C768 1.490 . S
C764 H754 0.930 . S
C764 C763 1.400 . S
C764 C767 1.386 . S
H765 C781 0.930 . S
H766 C782 0.931 . S
C767 H755 0.929 . S
C767 C761 1.390 . S
C767 C764 1.386 . S
C768 C763 1.490 . S
C768 C770 1.395 . S
C768 C771 1.403 . S
H769 C775 0.930 . S
C770 H756 0.930 . S
C770 C768 1.395 . S
C770 C773 1.403 . S
C771 C768 1.403 . S
C771 C772 1.524 . S
C771 C775 1.400 . S
C772 H757 0.960 . S
C772 H758 0.960 . S
C772 H759 0.960 . S
C772 C771 1.524 . S
C773 C770 1.403 . S
C773 C774 1.392 . S
C773 C777 1.495 . S
C774 C773 1.392 . S
C774 C775 1.385 . S
C774 C776 1.478 . S
C775 H769 0.930 . S
C775 C771 1.400 . S
C775 C774 1.385 . S
C776 C774 1.478 . S
C776 C778 1.381 . S
C776 C782 1.383 . S
C777 C773 1.495 . S
C777 H783 0.959 . S
C777 H784 0.961 . S
C777 H785 0.960 . S
C778 C776 1.381 . S
C778 C779 1.394 . S
C778 H786 0.930 . S
C779 C778 1.394 . S
C779 C780 1.383 . S
C779 H787 0.929 . S
C780 C779 1.383 . S
C780 C781 1.377 . S
C781 H765 0.930 . S
C781 C780 1.377 . S
C781 C782 1.379 . S
C782 H766 0.931 . S
C782 C776 1.383 . S
C782 C781 1.379 . S
H783 C777 0.959 . S
H784 C777 0.961 . S
H785 C777 0.960 . S
H786 C778 0.930 . S
H787 C779 0.929 . S
H788 C796 0.929 . S
H789 C798 0.930 . S
H790 C800 0.930 . S
H791 C803 0.929 . S
H792 C806 0.930 . S
H793 C808 0.960 . S
H794 C808 0.960 . S
H795 C808 0.960 . S
C796 H788 0.929 . S
C796 C797 1.377 . S
C796 C798 1.384 . S
C797 C796 1.377 . S
C797 C803 1.390 . S
C798 H789 0.930 . S
C798 C796 1.384 . S
C798 C799 1.372 . S
C799 C798 1.372 . S
C799 C800 1.400 . S
C799 C804 1.490 . S
C800 H790 0.930 . S
C800 C799 1.400 . S
C800 C803 1.386 . S
H801 C817 0.930 . S
H802 C818 0.931 . S
C803 H791 0.929 . S
C803 C797 1.390 . S
C803 C800 1.386 . S
C804 C799 1.490 . S
C804 C806 1.395 . S
C804 C807 1.403 . S
H805 C811 0.930 . S
C806 H792 0.930 . S
C806 C804 1.395 . S
C806 C809 1.403 . S
C807 C804 1.403 . S
C807 C808 1.524 . S
C807 C811 1.400 . S
C808 H793 0.960 . S
C808 H794 0.960 . S
C808 H795 0.960 . S
C808 C807 1.524 . S
C809 C806 1.403 . S
C809 C810 1.392 . S
C809 C813 1.495 . S
C810 C809 1.392 . S
C810 C811 1.385 . S
C810 C812 1.478 . S
C811 H805 0.930 . S
C811 C807 1.400 . S
C811 C810 1.385 . S
C812 C810 1.478 . S
C812 C814 1.381 . S
C812 C818 1.383 . S
C813 C809 1.495 . S
C813 H819 0.959 . S
C813 H820 0.961 . S
C813 H821 0.960 . S
C814 C812 1.381 . S
C814 C815 1.394 . S
C814 H822 0.930 . S
C815 C814 1.394 . S
C815 C816 1.383 . S
C815 H823 0.929 . S
C816 C815 1.383 . S
C816 C817 1.377 . S
C817 H801 0.930 . S
C817 C816 1.377 . S
C817 C818 1.379 . S
C818 H802 0.931 . S
C818 C812 1.383 . S
C818 C817 1.379 . S
H819 C813 0.959 . S
H820 C813 0.961 . S
H821 C813 0.960 . S
H822 C814 0.930 . S
H823 C815 0.929 . S
H824 C832 0.929 . S
H825 C834 0.930 . S
H826 C836 0.930 . S
H827 C839 0.929 . S
H828 C842 0.930 . S
H829 C844 0.960 . S
H830 C844 0.960 . S
H831 C844 0.960 . S
C832 H824 0.929 . S
C832 C833 1.377 . S
C832 C834 1.384 . S
C833 C832 1.377 . S
C833 C839 1.390 . S
C834 H825 0.930 . S
C834 C832 1.384 . S
C834 C835 1.372 . S
C835 C834 1.372 . S
C835 C836 1.400 . S
C835 C840 1.490 . S
C836 H826 0.930 . S
C836 C835 1.400 . S
C836 C839 1.386 . S
H837 C853 0.930 . S
H838 C854 0.931 . S
C839 H827 0.929 . S
C839 C833 1.390 . S
C839 C836 1.386 . S
C840 C835 1.490 . S
C840 C842 1.395 . S
C840 C843 1.403 . S
H841 C847 0.930 . S
C842 H828 0.930 . S
C842 C840 1.395 . S
C842 C845 1.403 . S
C843 C840 1.403 . S
C843 C844 1.524 . S
C843 C847 1.400 . S
C844 H829 0.960 . S
C844 H830 0.960 . S
C844 H831 0.960 . S
C844 C843 1.524 . S
C845 C842 1.403 . S
C845 C846 1.392 . S
C845 C849 1.495 . S
C846 C845 1.392 . S
C846 C847 1.385 . S
C846 C848 1.478 . S
C847 H841 0.930 . S
C847 C843 1.400 . S
C847 C846 1.385 . S
C848 C846 1.478 . S
C848 C850 1.381 . S
C848 C854 1.383 . S
C849 C845 1.495 . S
C849 H855 0.959 . S
C849 H856 0.961 . S
C849 H857 0.960 . S
C850 C848 1.381 . S
C850 C851 1.394 . S
C850 H858 0.930 . S
C851 C850 1.394 . S
C851 C852 1.383 . S
C851 H859 0.929 . S
C852 C851 1.383 . S
C852 C853 1.377 . S
C853 H837 0.930 . S
C853 C852 1.377 . S
C853 C854 1.379 . S
C854 H838 0.931 . S
C854 C848 1.383 . S
C854 C853 1.379 . S
H855 C849 0.959 . S
H856 C849 0.961 . S
H857 C849 0.960 . S
H858 C850 0.930 . S
H859 C851 0.929 . S
H860 C868 0.929 . S
H861 C870 0.930 . S
H862 C872 0.930 . S
H863 C875 0.929 . S
H864 C878 0.930 . S
H865 C880 0.960 . S
H866 C880 0.960 . S
H867 C880 0.960 . S
C868 H860 0.929 . S
C868 C869 1.377 . S
C868 C870 1.384 . S
C869 C868 1.377 . S
C869 C875 1.390 . S
C870 H861 0.930 . S
C870 C868 1.384 . S
C870 C871 1.372 . S
C871 C870 1.372 . S
C871 C872 1.400 . S
C871 C876 1.490 . S
C872 H862 0.930 . S
C872 C871 1.400 . S
C872 C875 1.386 . S
H873 C889 0.930 . S
H874 C890 0.931 . S
C875 H863 0.929 . S
C875 C869 1.390 . S
C875 C872 1.386 . S
C876 C871 1.490 . S
C876 C878 1.395 . S
C876 C879 1.403 . S
H877 C883 0.930 . S
C878 H864 0.930 . S
C878 C876 1.395 . S
C878 C881 1.403 . S
C879 C876 1.403 . S
C879 C880 1.524 . S
C879 C883 1.400 . S
C880 H865 0.960 . S
C880 H866 0.960 . S
C880 H867 0.960 . S
C880 C879 1.524 . S
C881 C878 1.403 . S
C881 C882 1.392 . S
C881 C885 1.495 . S
C882 C881 1.392 . S
C882 C883 1.385 . S
C882 C884 1.478 . S
C883 H877 0.930 . S
C883 C879 1.400 . S
C883 C882 1.385 . S
C884 C882 1.478 . S
C884 C886 1.381 . S
C884 C890 1.383 . S
C885 C881 1.495 . S
C885 H891 0.959 . S
C885 H892 0.961 . S
C885 H893 0.960 . S
C886 C884 1.381 . S
C886 C887 1.394 . S
C886 H894 0.930 . S
C887 C886 1.394 . S
C887 C888 1.383 . S
C887 H895 0.929 . S
C888 C887 1.383 . S
C888 C889 1.377 . S
C889 H873 0.930 . S
C889 C888 1.377 . S
C889 C890 1.379 . S
C890 H874 0.931 . S
C890 C884 1.383 . S
C890 C889 1.379 . S
H891 C885 0.959 . S
H892 C885 0.961 . S
H893 C885 0.960 . S
H894 C886 0.930 . S
H895 C887 0.929 . S
H896 C904 0.929 . S
H897 C906 0.930 . S
H898 C908 0.930 . S
H899 C911 0.929 . S
H900 C914 0.930 . S
H901 C916 0.960 . S
H902 C916 0.960 . S
H903 C916 0.960 . S
C904 H896 0.929 . S
C904 C905 1.377 . S
C904 C906 1.384 . S
C905 C904 1.377 . S
C905 C911 1.390 . S
C906 H897 0.930 . S
C906 C904 1.384 . S
C906 C907 1.372 . S
C907 C906 1.372 . S
C907 C908 1.400 . S
C907 C912 1.490 . S
C908 H898 0.930 . S
C908 C907 1.400 . S
C908 C911 1.386 . S
H909 C925 0.930 . S
H910 C926 0.931 . S
C911 H899 0.929 . S
C911 C905 1.390 . S
C911 C908 1.386 . S
C912 C907 1.490 . S
C912 C914 1.395 . S
C912 C915 1.403 . S
H913 C919 0.930 . S
C914 H900 0.930 . S
C914 C912 1.395 . S
C914 C917 1.403 . S
C915 C912 1.403 . S
C915 C916 1.524 . S
C915 C919 1.400 . S
C916 H901 0.960 . S
C916 H902 0.960 . S
C916 H903 0.960 . S
C916 C915 1.524 . S
C917 C914 1.403 . S
C917 C918 1.392 . S
C917 C921 1.495 . S
C918 C917 1.392 . S
C918 C919 1.385 . S
C918 C920 1.478 . S
C919 H913 0.930 . S
C919 C915 1.400 . S
C919 C918 1.385 . S
C920 C918 1.478 . S
C920 C922 1.381 . S
C920 C926 1.383 . S
C921 C917 1.495 . S
C921 H927 0.959 . S
C921 H928 0.961 . S
C921 H929 0.960 . S
C922 C920 1.381 . S
C922 C923 1.394 . S
C922 H930 0.930 . S
C923 C922 1.394 . S
C923 C924 1.383 . S
C923 H931 0.929 . S
C924 C923 1.383 . S
C924 C925 1.377 . S
C925 H909 0.930 . S
C925 C924 1.377 . S
C925 C926 1.379 . S
C926 H910 0.931 . S
C926 C920 1.383 . S
C926 C925 1.379 . S
H927 C921 0.959 . S
H928 C921 0.961 . S
H929 C921 0.960 . S
H930 C922 0.930 . S
H931 C923 0.929 . S
H932 C940 0.929 . S
H933 C942 0.930 . S
H934 C944 0.930 . S
H935 C947 0.929 . S
H936 C950 0.930 . S
H937 C952 0.960 . S
H938 C952 0.960 . S
H939 C952 0.960 . S
C940 H932 0.929 . S
C940 C941 1.377 . S
C940 C942 1.384 . S
C941 C940 1.377 . S
C941 C947 1.390 . S
C942 H933 0.930 . S
C942 C940 1.384 . S
C942 C943 1.372 . S
C943 C942 1.372 . S
C943 C944 1.400 . S
C943 C948 1.490 . S
C944 H934 0.930 . S
C944 C943 1.400 . S
C944 C947 1.386 . S
H945 C961 0.930 . S
H946 C962 0.931 . S
C947 H935 0.929 . S
C947 C941 1.390 . S
C947 C944 1.386 . S
C948 C943 1.490 . S
C948 C950 1.395 . S
C948 C951 1.403 . S
H949 C955 0.930 . S
C950 H936 0.930 . S
C950 C948 1.395 . S
C950 C953 1.403 . S
C951 C948 1.403 . S
C951 C952 1.524 . S
C951 C955 1.400 . S
C952 H937 0.960 . S
C952 H938 0.960 . S
C952 H939 0.960 . S
C952 C951 1.524 . S
C953 C950 1.403 . S
C953 C954 1.392 . S
C953 C957 1.495 . S
C954 C953 1.392 . S
C954 C955 1.385 . S
C954 C956 1.478 . S
C955 H949 0.930 . S
C955 C951 1.400 . S
C955 C954 1.385 . S
C956 C954 1.478 . S
C956 C958 1.381 . S
C956 C962 1.383 . S
C957 C953 1.495 . S
C957 H963 0.959 . S
C957 H964 0.961 . S
C957 H965 0.960 . S
C958 C956 1.381 . S
C958 C959 1.394 . S
C958 H966 0.930 . S
C959 C958 1.394 . S
C959 C960 1.383 . S
C959 H967 0.929 . S
C960 C959 1.383 . S
C960 C961 1.377 . S
C961 H945 0.930 . S
C961 C960 1.377 . S
C961 C962 1.379 . S
C962 H946 0.931 . S
C962 C956 1.383 . S
C962 C961 1.379 . S
H963 C957 0.959 . S
H964 C957 0.961 . S
H965 C957 0.960 . S
H966 C958 0.930 . S
H967 C959 0.929 . S
H968 C976 0.929 . S
H969 C978 0.930 . S
H970 C980 0.930 . S
H971 C983 0.929 . S
H972 C986 0.930 . S
H973 C988 0.960 . S
H974 C988 0.960 . S
H975 C988 0.960 . S
C976 H968 0.929 . S
C976 C977 1.377 . S
C976 C978 1.384 . S
C977 C976 1.377 . S
C977 C983 1.390 . S
C978 H969 0.930 . S
C978 C976 1.384 . S
C978 C979 1.372 . S
C979 C978 1.372 . S
C979 C980 1.400 . S
C979 C984 1.490 . S
C980 H970 0.930 . S
C980 C979 1.400 . S
C980 C983 1.386 . S
H981 C997 0.930 . S
H982 C998 0.931 . S
C983 H971 0.929 . S
C983 C977 1.390 . S
C983 C980 1.386 . S
C984 C979 1.490 . S
C984 C986 1.395 . S
C984 C987 1.403 . S
H985 C991 0.930 . S
C986 H972 0.930 . S
C986 C984 1.395 . S
C986 C989 1.403 . S
C987 C984 1.403 . S
C987 C988 1.524 . S
C987 C991 1.400 . S
C988 H973 0.960 . S
C988 H974 0.960 . S
C988 H975 0.960 . S
C988 C987 1.524 . S
C989 C986 1.403 . S
C989 C990 1.392 . S
C989 C993 1.495 . S
C990 C989 1.392 . S
C990 C991 1.385 . S
C990 C992 1.478 . S
C991 H985 0.930 . S
C991 C987 1.400 . S
C991 C990 1.385 . S
C992 C990 1.478 . S
C992 C994 1.381 . S
C992 C998 1.383 . S
C993 C989 1.495 . S
C993 H999 0.959 . S
C993 H1000 0.961 . S
C993 H1001 0.960 . S
C994 C992 1.381 . S
C994 C995 1.394 . S
C994 H1002 0.930 . S
C995 C994 1.394 . S
C995 C996 1.383 . S
C995 H1003 0.929 . S
C996 C995 1.383 . S
C996 C997 1.377 . S
C997 H981 0.930 . S
C997 C996 1.377 . S
C997 C998 1.379 . S
C998 H982 0.931 . S
C998 C992 1.383 . S
C998 C997 1.379 . S
H999 C993 0.959 . S
H1000 C993 0.961 . S
H1001 C993 0.960 . S
H1002 C994 0.930 . S
H1003 C995 0.929 . S
H1004 C1012 0.929 . S
H1005 C1014 0.930 . S
H1006 C1016 0.930 . S
H1007 C1019 0.929 . S
H1008 C1022 0.930 . S
H1009 C1024 0.960 . S
H1010 C1024 0.960 . S
H1011 C1024 0.960 . S
C1012 H1004 0.929 . S
C1012 C1013 1.377 . S
C1012 C1014 1.384 . S
C1013 C1012 1.377 . S
C1013 C1019 1.390 . S
C1014 H1005 0.930 . S
C1014 C1012 1.384 . S
C1014 C1015 1.372 . S
C1015 C1014 1.372 . S
C1015 C1016 1.400 . S
C1015 C1020 1.490 . S
C1016 H1006 0.930 . S
C1016 C1015 1.400 . S
C1016 C1019 1.386 . S
H1017 C1033 0.930 . S
H1018 C1034 0.931 . S
C1019 H1007 0.929 . S
C1019 C1013 1.390 . S
C1019 C1016 1.386 . S
C1020 C1015 1.490 . S
C1020 C1022 1.395 . S
C1020 C1023 1.403 . S
H1021 C1027 0.930 . S
C1022 H1008 0.930 . S
C1022 C1020 1.395 . S
C1022 C1025 1.403 . S
C1023 C1020 1.403 . S
C1023 C1024 1.524 . S
C1023 C1027 1.400 . S
C1024 H1009 0.960 . S
C1024 H1010 0.960 . S
C1024 H1011 0.960 . S
C1024 C1023 1.524 . S
C1025 C1022 1.403 . S
C1025 C1026 1.392 . S
C1025 C1029 1.495 . S
C1026 C1025 1.392 . S
C1026 C1027 1.385 . S
C1026 C1028 1.478 . S
C1027 H1021 0.930 . S
C1027 C1023 1.400 . S
C1027 C1026 1.385 . S
C1028 C1026 1.478 . S
C1028 C1030 1.381 . S
C1028 C1034 1.383 . S
C1029 C1025 1.495 . S
C1029 H1035 0.959 . S
C1029 H1036 0.961 . S
C1029 H1037 0.960 . S
C1030 C1028 1.381 . S
C1030 C1031 1.394 . S
C1030 H1038 0.930 . S
C1031 C1030 1.394 . S
C1031 C1032 1.383 . S
C1031 H1039 0.929 . S
C1032 C1031 1.383 . S
C1032 C1033 1.377 . S
C1033 H1017 0.930 . S
C1033 C1032 1.377 . S
C1033 C1034 1.379 . S
C1034 H1018 0.931 . S
C1034 C1028 1.383 . S
C1034 C1033 1.379 . S
H1035 C1029 0.959 . S
H1036 C1029 0.961 . S
H1037 C1029 0.960 . S
H1038 C1030 0.930 . S
H1039 C1031 0.929 . S
C185 C7 1.457 1_655 S
C204 C97 1.439 1_655 S
C221 C119 1.458 . S
C240 C29 1.441 . S
C257 C49 1.461 . S
C276 C138 1.473 . S
C293 C71 1.459 . S
C312 C160 1.442 . S
C329 C73 1.459 . S
C348 C163 1.467 . S
C365 C116 1.463 . S
C384 C27 1.454 . S
C401 C141 1.457 . S
C420 C51 1.464 . S
C437 C5 1.463 1_655 S
C456 C94 1.469 1_655 S
C473 C115 1.502 . S
C492 C4 1.511 . S
C509 C26 1.506 . S
C528 C140 1.488 . S
C545 C162 1.507 . S
C564 C53 1.482 . S
C581 C93 1.507 . S
C600 C75 1.485 . S
C617 C92 1.502 . S
C636 C72 1.486 . S
C653 C158 1.501 . S
C672 C52 1.489 . S
C689 C30 1.503 . S
C708 C139 1.518 . S
C725 C117 1.506 . S
C744 C6 1.492 . S
C761 C159 1.506 . S
C780 C48 1.487 . S
C797 C96 1.504 . S
C816 C70 1.504 . S
C833 C118 1.507 . S
C852 C9 1.485 . S
C869 C31 1.502 . S
C888 C137 1.502 . S
C905 C136 1.503 . S
C924 C28 1.513 . S
C941 C8 1.502 . S
C960 C114 1.482 . S
C977 C95 1.506 . S
C996 C74 1.512 . S
C1013 C161 1.500 . S
C1032 C50 1.498 . S
