# Generated by pormake.
# Topology wjt, (5)-cn, num edge types: 1
# Building blocks:
#     Node 0, Type 0, BuildingBlock: XOMCOT_clean_sbu_0, # of connection points: 5
#     Node 1, Type 0, BuildingBlock: XOMCOT_clean_sbu_0, # of connection points: 5
#     Node 2, Type 0, BuildingBlock: XOMCOT_clean_sbu_0, # of connection points: 5
#     Node 3, Type 0, BuildingBlock: XOMCOT_clean_sbu_0, # of connection points: 5
#     Node 4, Type 0, BuildingBlock: XOMCOT_clean_sbu_0, # of connection points: 5
#     Node 5, Type 0, BuildingBlock: XOMCOT_clean_sbu_0, # of connection points: 5
#     Node 6, Type 0, BuildingBlock: XOMCOT_clean_sbu_0, # of connection points: 5
#     Node 7, Type 0, BuildingBlock: XOMCOT_clean_sbu_0, # of connection points: 5
#     Node 8, Type 0, BuildingBlock: XOMCOT_clean_sbu_0, # of connection points: 5
#     Node 9, Type 0, BuildingBlock: XOMCOT_clean_sbu_0, # of connection points: 5
#     Node 10, Type 0, BuildingBlock: XOMCOT_clean_sbu_0, # of connection points: 5
#     Node 11, Type 0, BuildingBlock: XOMCOT_clean_sbu_0, # of connection points: 5
#     Edge 12, Type (0, 0), BuildingBlock: XUDNAN_clean_linker_2, # of connection points: 2
#     Edge 13, Type (0, 0), BuildingBlock: XUDNAN_clean_linker_2, # of connection points: 2
#     Edge 14, Type (0, 0), BuildingBlock: XUDNAN_clean_linker_2, # of connection points: 2
#     Edge 15, Type (0, 0), BuildingBlock: XUDNAN_clean_linker_2, # of connection points: 2
#     Edge 16, Type (0, 0), BuildingBlock: XUDNAN_clean_linker_2, # of connection points: 2
#     Edge 17, Type (0, 0), BuildingBlock: XUDNAN_clean_linker_2, # of connection points: 2
#     Edge 18, Type (0, 0), BuildingBlock: XUDNAN_clean_linker_2, # of connection points: 2
#     Edge 19, Type (0, 0), BuildingBlock: XUDNAN_clean_linker_2, # of connection points: 2
#     Edge 20, Type (0, 0), BuildingBlock: XUDNAN_clean_linker_2, # of connection points: 2
#     Edge 21, Type (0, 0), BuildingBlock: XUDNAN_clean_linker_2, # of connection points: 2
#     Edge 22, Type (0, 0), BuildingBlock: XUDNAN_clean_linker_2, # of connection points: 2
#     Edge 23, Type (0, 0), BuildingBlock: XUDNAN_clean_linker_2, # of connection points: 2
#     Edge 24, Type (0, 0), BuildingBlock: XUDNAN_clean_linker_2, # of connection points: 2
#     Edge 25, Type (0, 0), BuildingBlock: XUDNAN_clean_linker_2, # of connection points: 2
#     Edge 26, Type (0, 0), BuildingBlock: XUDNAN_clean_linker_2, # of connection points: 2
#     Edge 27, Type (0, 0), BuildingBlock: XUDNAN_clean_linker_2, # of connection points: 2
#     Edge 28, Type (0, 0), BuildingBlock: XUDNAN_clean_linker_2, # of connection points: 2
#     Edge 29, Type (0, 0), BuildingBlock: XUDNAN_clean_linker_2, # of connection points: 2
#     Edge 30, Type (0, 0), BuildingBlock: XUDNAN_clean_linker_2, # of connection points: 2
#     Edge 31, Type (0, 0), BuildingBlock: XUDNAN_clean_linker_2, # of connection points: 2
#     Edge 32, Type (0, 0), BuildingBlock: XUDNAN_clean_linker_2, # of connection points: 2
#     Edge 33, Type (0, 0), BuildingBlock: XUDNAN_clean_linker_2, # of connection points: 2
#     Edge 34, Type (0, 0), BuildingBlock: XUDNAN_clean_linker_2, # of connection points: 2
#     Edge 35, Type (0, 0), BuildingBlock: XUDNAN_clean_linker_2, # of connection points: 2
#     Edge 36, Type (0, 0), BuildingBlock: XUDNAN_clean_linker_2, # of connection points: 2
#     Edge 37, Type (0, 0), BuildingBlock: XUDNAN_clean_linker_2, # of connection points: 2
#     Edge 38, Type (0, 0), BuildingBlock: XUDNAN_clean_linker_2, # of connection points: 2
#     Edge 39, Type (0, 0), BuildingBlock: XUDNAN_clean_linker_2, # of connection points: 2
#     Edge 40, Type (0, 0), BuildingBlock: XUDNAN_clean_linker_2, # of connection points: 2
#     Edge 41, Type (0, 0), BuildingBlock: XUDNAN_clean_linker_2, # of connection points: 2
# Relax obj value: 0.231
# Max RMSD: 0.184
# Mean RMSD: 0.184
data_MOF--net-wjt--node1-XOMCOT_clean_sbu_0--edge1-XUDNAN_clean_linker_2
_symmetry_space_group_name_H-M    P1
_symmetry_Int_Tables_number       1
_symmetry_cell_setting            triclinic
loop_
_symmetry_equiv_pos_as_xyz
'x, y, z'
_cell_length_a     67.610372
_cell_length_b     67.672911
_cell_length_c     17.286206
_cell_angle_alpha  89.943468
_cell_angle_beta   89.973868
_cell_angle_gamma 119.95384
loop_
_atom_site_label
_atom_site_type_symbol
_atom_site_fract_x
_atom_site_fract_y
_atom_site_fract_z
_atom_type_partial_charge
Co0 Co 0.30924 0.42044 0.21166 0.0
C1 C 0.30437 0.42595 0.38009 0.0
C2 C 0.2743 0.39774 0.33269 0.0
C3 C 0.27096 0.39889 0.41099 0.0
N4 N 0.29521 0.41494 0.31327 0.0
N5 N 0.28991 0.41679 0.44028 0.0
H6 H 0.32155 0.43979 0.38627 0.0
H7 H 0.26237 0.38517 0.29265 0.0
C8 C 0.26927 0.42768 0.19247 0.0
O9 O 0.27424 0.43764 0.2605 0.0
N10 N 0.32314 0.42556 0.11102 0.0
C11 C 0.34574 0.43727 0.09641 0.0
C12 C 0.34893 0.44126 0.01814 0.0
C13 C 0.31287 0.42222 0.04164 0.0
N14 N 0.32826 0.43184 0.98415 0.0
C15 C 0.34492 0.46264 0.27079 0.0
C16 C 0.33458 0.49185 0.19216 0.0
C17 C 0.35382 0.50093 0.2401 0.0
C18 C 0.35893 0.48602 0.2793 0.0
C19 C 0.32102 0.46807 0.18438 0.0
N20 N 0.32565 0.45364 0.22631 0.0
H21 H 0.35001 0.45182 0.29996 0.0
H22 H 0.30754 0.46156 0.14208 0.0
H23 H 0.35895 0.44362 0.14005 0.0
H24 H 0.29461 0.41425 0.03361 0.0
O25 O 0.33213 0.41441 0.25248 0.0
O26 O 0.29925 0.38784 0.20469 0.0
O27 O 0.28169 0.42017 0.16379 0.0
C28 C 0.31875 0.39309 0.2366 0.0
H29 H 0.25584 0.38745 0.44365 0.0
H30 H 0.36515 0.45105 0.98878 0.0
H31 H 0.33064 0.50299 0.1587 0.0
H32 H 0.37393 0.49244 0.31569 0.0
Co33 Co 0.88094 0.31467 0.55163 0.0
C34 C 0.87226 0.31482 0.71633 0.0
C35 C 0.85624 0.28039 0.67496 0.0
C36 C 0.85218 0.28004 0.75347 0.0
N37 N 0.86881 0.30227 0.65227 0.0
N38 N 0.86228 0.30178 0.77928 0.0
H39 H 0.88248 0.33322 0.71658 0.0
H40 H 0.85066 0.26574 0.63771 0.0
C41 C 0.85013 0.27061 0.47265 0.0
O42 O 0.86567 0.26465 0.48315 0.0
N43 N 0.89329 0.32751 0.45033 0.0
C44 C 0.91422 0.34528 0.43368 0.0
C45 C 0.91538 0.35004 0.35586 0.0
C46 C 0.88216 0.32171 0.38196 0.0
N47 N 0.89526 0.33511 0.32388 0.0
C48 C 0.87933 0.35587 0.55162 0.0
C49 C 0.83395 0.33679 0.59415 0.0
C50 C 0.84762 0.36062 0.59108 0.0
C51 C 0.87044 0.37007 0.56777 0.0
C52 C 0.84348 0.32311 0.57632 0.0
N53 N 0.86603 0.33276 0.55699 0.0
H54 H 0.89727 0.36352 0.53845 0.0
H55 H 0.83304 0.30482 0.58224 0.0
H56 H 0.92767 0.3547 0.47504 0.0
H57 H 0.86461 0.3086 0.37441 0.0
O58 O 0.90925 0.336 0.59979 0.0
O59 O 0.90134 0.30198 0.55768 0.0
O60 O 0.85314 0.2894 0.50019 0.0
C61 C 0.91587 0.32118 0.59059 0.0
H62 H 0.84264 0.26492 0.78855 0.0
H63 H 0.92983 0.36343 0.32512 0.0
H64 H 0.81625 0.32883 0.61199 0.0
H65 H 0.88175 0.38837 0.56611 0.0
Co66 Co 0.57734 0.88121 0.92106 0.0
C67 C 0.58643 0.88561 0.08947 0.0
C68 C 0.59236 0.85989 0.04228 0.0
C69 C 0.59764 0.8621 0.12012 0.0
N70 N 0.58443 0.87408 0.02345 0.0
N71 N 0.59396 0.87841 0.14926 0.0
H72 H 0.58317 0.89964 0.09379 0.0
H73 H 0.59526 0.84937 0.00223 0.0
C74 C 0.5629 0.832 0.89574 0.0
O75 O 0.54997 0.82712 0.9576 0.0
N76 N 0.5713 0.88899 0.82007 0.0
C77 C 0.56015 0.90039 0.80462 0.0
C78 C 0.56208 0.90527 0.72678 0.0
C79 C 0.57981 0.887 0.75188 0.0
N80 N 0.57443 0.89685 0.69397 0.0
C81 C 0.53768 0.87291 0.00612 0.0
C82 C 0.50515 0.84293 0.90397 0.0
C83 C 0.49818 0.85059 0.9682 0.0
C84 C 0.51478 0.86539 0.02015 0.0
C85 C 0.52854 0.85098 0.89192 0.0
N86 N 0.54455 0.86565 0.94342 0.0
H87 H 0.54985 0.88584 0.04355 0.0
H88 H 0.5338 0.84615 0.83958 0.0
H89 H 0.55183 0.90541 0.84744 0.0
H90 H 0.5906 0.8795 0.74541 0.0
O91 O 0.58449 0.91093 0.95636 0.0
O92 O 0.60986 0.90286 0.90696 0.0
O93 O 0.57556 0.85279 0.87499 0.0
C94 C 0.60547 0.91802 0.93644 0.0
H95 H 0.60451 0.8531 0.15196 0.0
H96 H 0.55524 0.91459 0.69673 0.0
H97 H 0.49283 0.83185 0.86152 0.0
H98 H 0.51018 0.87195 0.06999 0.0
Co99 Co 0.69286 0.57744 0.23301 0.0
C100 C 0.6987 0.58161 0.40472 0.0
C101 C 0.73005 0.60104 0.34266 0.0
C102 C 0.73429 0.6061 0.41983 0.0
N103 N 0.70783 0.58532 0.33298 0.0
N104 N 0.71453 0.59392 0.45865 0.0
H105 H 0.68071 0.57182 0.41728 0.0
H106 H 0.74216 0.60927 0.29617 0.0
C107 C 0.73219 0.56932 0.21357 0.0
O108 O 0.72658 0.55896 0.28103 0.0
N109 N 0.67893 0.57091 0.13261 0.0
C110 C 0.65744 0.55565 0.11139 0.0
C111 C 0.65563 0.55733 0.03228 0.0
C112 C 0.68974 0.58176 0.06752 0.0
N113 N 0.67597 0.57388 0.00535 0.0
C114 C 0.66045 0.53618 0.30842 0.0
C115 C 0.66779 0.50621 0.22191 0.0
C116 C 0.65042 0.49732 0.27817 0.0
C117 C 0.64693 0.51283 0.32134 0.0
C118 C 0.68076 0.52984 0.20989 0.0
N119 N 0.67758 0.54466 0.25481 0.0
H120 H 0.65599 0.54727 0.3387 0.0
H121 H 0.69267 0.53601 0.16223 0.0
H122 H 0.64412 0.54416 0.1504 0.0
H123 H 0.70751 0.59499 0.06582 0.0
O124 O 0.66943 0.58307 0.27125 0.0
O125 O 0.70191 0.6096 0.21997 0.0
O126 O 0.72044 0.57767 0.18531 0.0
C127 C 0.68239 0.60426 0.25194 0.0
H128 H 0.75047 0.6184 0.44504 0.0
H129 H 0.64052 0.54741 0.99755 0.0
H130 H 0.67105 0.49506 0.18592 0.0
H131 H 0.63302 0.5071 0.36232 0.0
Co132 Co 0.12383 0.68983 0.55857 0.0
C133 C 0.13397 0.69488 0.72709 0.0
C134 C 0.13692 0.7253 0.67832 0.0
C135 C 0.14112 0.7286 0.75684 0.0
N136 N 0.13271 0.70418 0.65963 0.0
N137 N 0.1394 0.70942 0.7869 0.0
H138 H 0.12999 0.67753 0.7342 0.0
H139 H 0.13674 0.73738 0.63773 0.0
C140 C 0.17143 0.72931 0.5368 0.0
O141 O 0.17666 0.72503 0.60561 0.0
N142 N 0.11473 0.67567 0.45853 0.0
C143 C 0.10385 0.65308 0.44446 0.0
C144 C 0.10423 0.64979 0.36607 0.0
C145 C 0.12122 0.68585 0.38876 0.0
N146 N 0.1152 0.6704 0.33147 0.0
C147 C 0.12896 0.65362 0.62191 0.0
C148 C 0.16961 0.66364 0.55194 0.0
C149 C 0.15961 0.64563 0.60517 0.0
C150 C 0.13886 0.64043 0.63893 0.0
C151 C 0.15915 0.67677 0.53716 0.0
N152 N 0.13969 0.67253 0.57575 0.0
H153 H 0.11269 0.64869 0.6481 0.0
H154 H 0.16656 0.68992 0.49366 0.0
H155 H 0.09723 0.63995 0.48845 0.0
H156 H 0.13138 0.70409 0.38024 0.0
O157 O 0.09456 0.66791 0.6 0.0
O158 O 0.1022 0.70101 0.54995 0.0
O159 O 0.15146 0.71661 0.50916 0.0
C160 C 0.08745 0.68196 0.5831 0.0
H161 H 0.14503 0.74381 0.78915 0.0
H162 H 0.09774 0.63356 0.33698 0.0
H163 H 0.18527 0.66752 0.52238 0.0
H164 H 0.13024 0.62611 0.67824 0.0
Co165 Co 0.43288 0.12382 0.89948 0.0
C166 C 0.42382 0.12092 0.06781 0.0
C167 C 0.4222 0.1492 0.02013 0.0
C168 C 0.41742 0.14789 0.0984 0.0
N169 N 0.42697 0.13263 0.00118 0.0
N170 N 0.41837 0.12996 0.12783 0.0
H171 H 0.42551 0.10593 0.07295 0.0
H172 H 0.42129 0.16098 0.98027 0.0
C173 C 0.44812 0.17266 0.85791 0.0
O174 O 0.4629 0.17955 0.91493 0.0
N175 N 0.43776 0.1145 0.79924 0.0
C176 C 0.44737 0.10163 0.78415 0.0
C177 C 0.44554 0.09703 0.70603 0.0
C178 C 0.43031 0.11769 0.73056 0.0
N179 N 0.43489 0.10722 0.67276 0.0
C180 C 0.47313 0.13515 0.98605 0.0
C181 C 0.50507 0.16191 0.87633 0.0
C182 C 0.51257 0.15826 0.94785 0.0
C183 C 0.49619 0.14455 0.00253 0.0
C184 C 0.48154 0.15234 0.8625 0.0
N185 N 0.46584 0.13966 0.91823 0.0
H186 H 0.46122 0.12339 0.02722 0.0
H187 H 0.47594 0.15496 0.80682 0.0
H188 H 0.45474 0.09561 0.82719 0.0
H189 H 0.42092 0.12666 0.72334 0.0
O190 O 0.42615 0.09468 0.93994 0.0
O191 O 0.40025 0.10199 0.89056 0.0
O192 O 0.43418 0.15141 0.84774 0.0
C193 C 0.40494 0.0873 0.92239 0.0
H194 H 0.41289 0.15878 0.13051 0.0
H195 H 0.45137 0.08684 0.67602 0.0
H196 H 0.5172 0.17198 0.8317 0.0
H197 H 0.50113 0.14032 0.05696 0.0
Co198 Co 0.56789 0.6841 0.45751 0.0
C199 C 0.56351 0.68636 0.29112 0.0
C200 C 0.57846 0.71999 0.33888 0.0
C201 C 0.57936 0.72166 0.25903 0.0
N202 N 0.56864 0.69777 0.35856 0.0
N203 N 0.57019 0.70045 0.22964 0.0
H204 H 0.55668 0.66812 0.28703 0.0
H205 H 0.58604 0.73409 0.37887 0.0
C206 C 0.57941 0.7275 0.53818 0.0
O207 O 0.601 0.73491 0.52255 0.0
N208 N 0.56726 0.66998 0.55655 0.0
C209 C 0.56756 0.65036 0.56733 0.0
C210 C 0.56894 0.64706 0.64494 0.0
C211 C 0.56873 0.67841 0.62858 0.0
N212 N 0.56984 0.66478 0.68354 0.0
C213 C 0.52601 0.64226 0.44424 0.0
C214 C 0.49865 0.66075 0.41012 0.0
C215 C 0.4896 0.63712 0.40279 0.0
C216 C 0.50342 0.62793 0.42289 0.0
C217 C 0.52151 0.67461 0.4326 0.0
N218 N 0.53497 0.66529 0.44792 0.0
H219 H 0.5366 0.63478 0.45349 0.0
H220 H 0.5287 0.6929 0.43311 0.0
H221 H 0.56745 0.63929 0.52215 0.0
H222 H 0.56987 0.69453 0.64103 0.0
O223 O 0.57608 0.66407 0.40639 0.0
O224 O 0.60124 0.69762 0.45402 0.0
O225 O 0.56407 0.70805 0.51347 0.0
C226 C 0.59729 0.67901 0.41824 0.0
H227 H 0.58798 0.73726 0.22557 0.0
H228 H 0.56948 0.63275 0.6706 0.0
H229 H 0.48859 0.66857 0.39477 0.0
H230 H 0.49708 0.60975 0.4195 0.0
Co231 Co 0.89348 0.57934 0.80422 0.0
C232 C 0.88127 0.57227 0.63951 0.0
C233 C 0.88094 0.60177 0.68212 0.0
C234 C 0.87788 0.60071 0.60288 0.0
N235 N 0.88268 0.58366 0.70516 0.0
N236 N 0.87819 0.58212 0.57614 0.0
H237 H 0.88444 0.55819 0.63711 0.0
H238 H 0.88282 0.61536 0.71977 0.0
C239 C 0.84853 0.5782 0.84709 0.0
O240 O 0.84142 0.57591 0.77531 0.0
N241 N 0.90477 0.57508 0.90216 0.0
C242 C 0.91623 0.56377 0.91354 0.0
C243 C 0.91741 0.56069 0.99177 0.0
C244 C 0.89981 0.57938 0.97373 0.0
N245 N 0.90692 0.57036 0.0294 0.0
C246 C 0.88806 0.5366 0.75587 0.0
C247 C 0.84308 0.50853 0.79772 0.0
C248 C 0.85463 0.49914 0.75863 0.0
C249 C 0.87752 0.51349 0.73931 0.0
C250 C 0.85434 0.53207 0.8131 0.0
N251 N 0.87649 0.54605 0.79017 0.0
H252 H 0.90564 0.54685 0.7389 0.0
H253 H 0.84497 0.53859 0.84351 0.0
H254 H 0.92241 0.55725 0.86826 0.0
H255 H 0.89018 0.58788 0.98504 0.0
O256 O 0.92142 0.58556 0.75461 0.0
O257 O 0.91599 0.6121 0.80757 0.0
O258 O 0.86758 0.57941 0.8633 0.0
C259 C 0.92959 0.60688 0.77068 0.0
H260 H 0.87645 0.61316 0.56771 0.0
H261 H 0.92465 0.55131 0.01877 0.0
H262 H 0.82544 0.49788 0.81513 0.0
H263 H 0.88741 0.50691 0.71151 0.0
Co264 Co 0.31326 0.89011 0.11082 0.0
C265 C 0.30827 0.89163 0.94176 0.0
C266 C 0.27634 0.86729 0.99149 0.0
C267 C 0.2733 0.8687 0.91285 0.0
N268 N 0.29856 0.88126 0.00938 0.0
N269 N 0.29348 0.88422 0.88228 0.0
H270 H 0.32573 0.90519 0.9359 0.0
H271 H 0.26287 0.85768 0.03261 0.0
C272 C 0.27559 0.84213 0.15547 0.0
O273 O 0.27922 0.83286 0.09436 0.0
N274 N 0.3277 0.89953 0.21058 0.0
C275 C 0.35024 0.91017 0.22591 0.0
C276 C 0.35333 0.91494 0.30395 0.0
C277 C 0.31739 0.89798 0.27889 0.0
N278 N 0.33265 0.90711 0.33686 0.0
C279 C 0.34333 0.87888 0.03226 0.0
C280 C 0.34309 0.84833 0.13883 0.0
C281 C 0.35804 0.85484 0.0755 0.0
C282 C 0.35769 0.86997 0.02137 0.0
C283 C 0.32884 0.85781 0.14778 0.0
N284 N 0.32892 0.87278 0.09418 0.0
H285 H 0.34506 0.89188 0.99291 0.0
H286 H 0.31868 0.854 0.19972 0.0
H287 H 0.36346 0.91435 0.18322 0.0
H288 H 0.29918 0.89094 0.28579 0.0
O289 O 0.33639 0.91873 0.0686 0.0
O290 O 0.30368 0.91292 0.11774 0.0
O291 O 0.28657 0.86376 0.16504 0.0
C292 C 0.32315 0.92691 0.085 0.0
H293 H 0.25734 0.85995 0.88153 0.0
H294 H 0.36948 0.92341 0.3343 0.0
H295 H 0.34331 0.83706 0.18294 0.0
H296 H 0.36922 0.87569 0.97229 0.0
Co297 Co 0.43239 0.31101 0.43224 0.0
C298 C 0.43766 0.30686 0.26328 0.0
C299 C 0.41342 0.27489 0.31339 0.0
C300 C 0.41454 0.27185 0.23474 0.0
N301 N 0.42825 0.29685 0.33132 0.0
N302 N 0.43001 0.29203 0.20395 0.0
H303 H 0.449 0.32479 0.25527 0.0
H304 H 0.40241 0.26203 0.35458 0.0
C305 C 0.44492 0.27484 0.4575 0.0
O306 O 0.45601 0.28112 0.39144 0.0
N307 N 0.43609 0.3249 0.53227 0.0
C308 C 0.44614 0.34746 0.5461 0.0
C309 C 0.44946 0.35099 0.6245 0.0
C310 C 0.43311 0.31494 0.60219 0.0
N311 N 0.44131 0.33054 0.65936 0.0
C312 C 0.47353 0.3477 0.36898 0.0
C313 C 0.50465 0.3407 0.44994 0.0
C314 C 0.51248 0.35752 0.39233 0.0
C315 C 0.49666 0.36131 0.35326 0.0
C316 C 0.48103 0.32706 0.46299 0.0
N317 N 0.46563 0.32951 0.41833 0.0
H318 H 0.46201 0.35196 0.34044 0.0
H319 H 0.47534 0.31487 0.50974 0.0
H320 H 0.45186 0.36051 0.50195 0.0
H321 H 0.42652 0.29688 0.61095 0.0
O322 O 0.42443 0.33227 0.38929 0.0
O323 O 0.39929 0.29877 0.4376 0.0
O324 O 0.43434 0.28485 0.48214 0.0
C325 C 0.4033 0.31778 0.40468 0.0
H326 H 0.40477 0.25612 0.20286 0.0
H327 H 0.45805 0.36734 0.65343 0.0
H328 H 0.51658 0.33806 0.48399 0.0
H329 H 0.50218 0.37496 0.3112 0.0
Co330 Co 0.11353 0.4249 0.77591 0.0
C331 C 0.11798 0.42234 0.60514 0.0
C332 C 0.12953 0.40268 0.66777 0.0
C333 C 0.12956 0.39826 0.59017 0.0
N334 N 0.12264 0.41809 0.67742 0.0
N335 N 0.1222 0.41057 0.5509 0.0
H336 H 0.10968 0.43204 0.59235 0.0
H337 H 0.13284 0.39403 0.71427 0.0
C338 C 0.15984 0.42953 0.8188 0.0
O339 O 0.16927 0.43839 0.75176 0.0
N340 N 0.10432 0.43065 0.87506 0.0
C341 C 0.10036 0.44742 0.89755 0.0
C342 C 0.09724 0.44598 0.97698 0.0
C343 C 0.10325 0.41918 0.93996 0.0
N344 N 0.09908 0.42816 0.00327 0.0
C345 C 0.12365 0.46678 0.70338 0.0
C346 C 0.16184 0.49581 0.78789 0.0
C347 C 0.15381 0.50517 0.73175 0.0
C348 C 0.13432 0.49013 0.68979 0.0
C349 C 0.15037 0.47212 0.80043 0.0
N350 N 0.1318 0.45777 0.75682 0.0
H351 H 0.10804 0.45611 0.67274 0.0
H352 H 0.15599 0.46565 0.84741 0.0
H353 H 0.10049 0.46021 0.85965 0.0
H354 H 0.10666 0.40516 0.94102 0.0
O355 O 0.08525 0.41967 0.73097 0.0
O356 O 0.09017 0.39277 0.78463 0.0
O357 O 0.13906 0.4237 0.83251 0.0
C358 C 0.0766 0.39836 0.7496 0.0
H359 H 0.13366 0.3861 0.56497 0.0
H360 H 0.0942 0.45735 0.01256 0.0
H361 H 0.17659 0.50664 0.82299 0.0
H362 H 0.12655 0.4963 0.64876 0.0
Co363 Co 0.69607 0.11797 0.08045 0.0
C364 C 0.69941 0.1172 0.91059 0.0
C365 C 0.73252 0.13648 0.96113 0.0
C366 C 0.73511 0.13465 0.88266 0.0
N367 N 0.71002 0.12603 0.97836 0.0
N368 N 0.71419 0.12228 0.85161 0.0
H369 H 0.68131 0.10582 0.90466 0.0
H370 H 0.74619 0.14365 0.00305 0.0
C371 C 0.7331 0.16628 0.1047 0.0
O372 O 0.72626 0.17152 0.04067 0.0
N373 N 0.68229 0.10934 0.18109 0.0
C374 C 0.65975 0.09849 0.19635 0.0
C375 C 0.65662 0.09346 0.274 0.0
C376 C 0.69265 0.11088 0.24917 0.0
N377 N 0.67729 0.10124 0.30688 0.0
C378 C 0.66243 0.12603 0.00943 0.0
C379 C 0.66792 0.16134 0.10328 0.0
C380 C 0.65077 0.15329 0.04633 0.0
C381 C 0.64814 0.13517 0.99976 0.0
C382 C 0.68143 0.15115 0.11259 0.0
N383 N 0.67937 0.13436 0.06356 0.0
H384 H 0.65867 0.11117 0.97625 0.0
H385 H 0.69307 0.15639 0.16092 0.0
H386 H 0.64652 0.09414 0.15364 0.0
H387 H 0.7109 0.11813 0.25584 0.0
O388 O 0.67326 0.0887 0.04191 0.0
O389 O 0.70657 0.09589 0.0895 0.0
O390 O 0.72322 0.14559 0.12813 0.0
C391 C 0.68703 0.08121 0.05892 0.0
H392 H 0.75104 0.14052 0.85194 0.0
H393 H 0.6404 0.08468 0.30398 0.0
H394 H 0.6707 0.17508 0.14183 0.0
H395 H 0.63441 0.12713 0.95823 0.0
H396 H 0.26298 0.42447 0.03373 0.0
H397 H 0.23267 0.42937 0.24914 0.0
H398 H 0.20139 0.42946 0.17631 0.0
H399 H 0.25081 0.46214 0.92527 0.0
H400 H 0.24441 0.44627 0.83622 0.0
H401 H 0.26389 0.44512 0.90464 0.0
H402 H 0.23939 0.40115 0.90976 0.0
H403 H 0.22002 0.40213 0.84028 0.0
H404 H 0.20938 0.38795 0.93183 0.0
H405 H 0.17361 0.42908 0.08255 0.0
H406 H 0.15135 0.43008 0.97204 0.0
H407 H 0.19981 0.4273 0.81367 0.0
C408 C 0.2496 0.42529 0.06548 0.0
C409 C 0.25018 0.42676 0.14733 0.0
C410 C 0.23259 0.42823 0.18663 0.0
C411 C 0.21472 0.42824 0.14576 0.0
C412 C 0.21472 0.42697 0.06535 0.0
C413 C 0.2317 0.42563 0.02532 0.0
C414 C 0.22788 0.4253 0.93847 0.0
C415 C 0.24794 0.44595 0.89885 0.0
C416 C 0.22392 0.40279 0.90298 0.0
C417 C 0.20624 0.42692 0.93621 0.0
C418 C 0.19889 0.42754 0.01035 0.0
C419 C 0.17918 0.42862 0.02421 0.0
C420 C 0.16659 0.42908 0.9608 0.0
C421 C 0.17376 0.42873 0.88394 0.0
C422 C 0.19396 0.42772 0.87164 0.0
H423 H 0.76274 0.16448 0.21058 0.0
H424 H 0.74124 0.20982 0.11268 0.0
H425 H 0.76761 0.24054 0.19992 0.0
H426 H 0.77033 0.18466 0.4071 0.0
H427 H 0.79573 0.18291 0.42381 0.0
H428 H 0.77469 0.16404 0.3553 0.0
H429 H 0.80559 0.17777 0.24817 0.0
H430 H 0.82677 0.19656 0.3164 0.0
H431 H 0.82255 0.20783 0.22732 0.0
H432 H 0.79433 0.26553 0.30217 0.0
H433 H 0.82406 0.28546 0.40038 0.0
H434 H 0.8318 0.22578 0.42474 0.0
C435 C 0.76364 0.1809 0.20762 0.0
C436 C 0.74989 0.18476 0.15499 0.0
C437 C 0.75169 0.20652 0.15219 0.0
C438 C 0.76651 0.22403 0.20187 0.0
C439 C 0.77973 0.21968 0.25333 0.0
C440 C 0.77881 0.19883 0.25571 0.0
C441 C 0.79576 0.19916 0.31411 0.0
C442 C 0.78339 0.18166 0.37891 0.0
C443 C 0.81374 0.19509 0.27409 0.0
C444 C 0.80624 0.22341 0.34426 0.0
C445 C 0.79638 0.23474 0.30924 0.0
C446 C 0.80243 0.25696 0.32923 0.0
C447 C 0.81935 0.26813 0.38536 0.0
C448 C 0.83059 0.25736 0.41962 0.0
C449 C 0.82373 0.23458 0.39907 0.0
H450 H 0.60371 0.77311 0.57836 0.0
H451 H 0.54035 0.71025 0.62368 0.0
H452 H 0.52994 0.72997 0.72128 0.0
H453 H 0.6147 0.79392 0.77393 0.0
H454 H 0.62542 0.82333 0.74761 0.0
H455 H 0.62829 0.80437 0.68139 0.0
H456 H 0.60737 0.81404 0.57523 0.0
H457 H 0.60461 0.8331 0.64127 0.0
H458 H 0.5796 0.81043 0.59558 0.0
H459 H 0.52681 0.7559 0.81711 0.0
H460 H 0.52965 0.78724 0.89778 0.0
H461 H 0.59386 0.83425 0.78657 0.0
C462 C 0.58761 0.76355 0.60861 0.0
C463 C 0.57286 0.7401 0.59323 0.0
C464 C 0.55189 0.72823 0.63389 0.0
C465 C 0.54585 0.73926 0.68983 0.0
C466 C 0.56077 0.76231 0.70387 0.0
C467 C 0.58107 0.77444 0.66385 0.0
C468 C 0.59369 0.79925 0.6891 0.0
C469 C 0.6169 0.80558 0.72515 0.0
C470 C 0.59647 0.81513 0.62122 0.0
C471 C 0.5773 0.79911 0.74948 0.0
C472 C 0.55857 0.77753 0.7576 0.0
C473 C 0.54133 0.77291 0.81094 0.0
C474 C 0.54315 0.79083 0.85675 0.0
C475 C 0.56194 0.81323 0.84849 0.0
C476 C 0.57923 0.81735 0.79398 0.0
H477 H 0.81093 0.58439 0.84366 0.0
H478 H 0.85088 0.56718 0.9974 0.0
H479 H 0.82638 0.56441 0.10636 0.0
H480 H 0.79995 0.61821 0.98176 0.0
H481 H 0.77107 0.60801 0.94985 0.0
H482 H 0.79211 0.6093 0.88287 0.0
H483 H 0.76617 0.56639 0.85225 0.0
H484 H 0.74507 0.56502 0.91909 0.0
H485 H 0.75625 0.54594 0.93024 0.0
H486 H 0.7973 0.5623 0.19848 0.0
H487 H 0.76523 0.56135 0.26934 0.0
H488 H 0.74324 0.57986 0.05892 0.0
C489 C 0.81453 0.5801 0.90029 0.0
C490 C 0.83324 0.57648 0.9119 0.0
C491 C 0.8372 0.57072 0.98698 0.0
C492 C 0.82319 0.56888 0.04942 0.0
C493 C 0.80508 0.5727 0.03626 0.0
C494 C 0.80062 0.57818 0.96375 0.0
C495 C 0.77976 0.58115 0.96606 0.0
C496 C 0.78611 0.60563 0.94383 0.0
C497 C 0.76069 0.56357 0.91381 0.0
C498 C 0.77327 0.57643 0.05105 0.0
C499 C 0.78814 0.57155 0.09016 0.0
C500 C 0.78556 0.56615 0.16862 0.0
C501 C 0.76724 0.56562 0.20836 0.0
C502 C 0.75171 0.57058 0.16995 0.0
C503 C 0.75491 0.57618 0.09014 0.0
H504 H 0.17317 0.73543 0.37813 0.0
H505 H 0.20974 0.76655 0.59052 0.0
H506 H 0.23948 0.79869 0.51546 0.0
H507 H 0.22274 0.75033 0.2619 0.0
H508 H 0.2115 0.75603 0.1755 0.0
H509 H 0.19235 0.73579 0.24554 0.0
H510 H 0.17073 0.75818 0.25696 0.0
H511 H 0.18964 0.77836 0.18612 0.0
H512 H 0.18631 0.78818 0.27949 0.0
H513 H 0.26492 0.8274 0.41953 0.0
H514 H 0.28614 0.85051 0.3069 0.0
H515 H 0.23476 0.80081 0.15317 0.0
C516 C 0.18737 0.74908 0.40879 0.0
C517 C 0.18908 0.74851 0.49043 0.0
C518 C 0.20809 0.76656 0.5282 0.0
C519 C 0.22504 0.78493 0.48605 0.0
C520 C 0.22292 0.78494 0.40588 0.0
C521 C 0.2047 0.76746 0.36733 0.0
C522 C 0.20704 0.77153 0.28036 0.0
C523 C 0.2085 0.75227 0.23838 0.0
C524 C 0.18725 0.77423 0.24886 0.0
C525 C 0.22954 0.79391 0.27621 0.0
C526 C 0.23813 0.8014 0.34964 0.0
C527 C 0.25836 0.82177 0.36181 0.0
C528 C 0.2702 0.8349 0.29741 0.0
C529 C 0.26199 0.82766 0.22139 0.0
C530 C 0.24144 0.80675 0.21064 0.0
H531 H 0.41624 0.24639 0.57213 0.0
H532 H 0.48164 0.26863 0.46115 0.0
H533 H 0.48931 0.24517 0.55205 0.0
H534 H 0.43323 0.24445 0.76596 0.0
H535 H 0.4074 0.21874 0.79241 0.0
H536 H 0.40672 0.23719 0.71857 0.0
H537 H 0.38913 0.20349 0.62186 0.0
H538 H 0.38957 0.18485 0.69549 0.0
H539 H 0.40347 0.18752 0.60391 0.0
H540 H 0.49144 0.22199 0.66054 0.0
H541 H 0.48576 0.19624 0.77033 0.0
H542 H 0.41751 0.18534 0.80482 0.0
C543 C 0.43209 0.24616 0.56682 0.0
C544 C 0.44837 0.25937 0.50954 0.0
C545 C 0.46885 0.25855 0.50409 0.0
C546 C 0.47343 0.24536 0.55577 0.0
C547 C 0.45717 0.23269 0.61184 0.0
C548 C 0.43671 0.23256 0.61688 0.0
C549 C 0.42194 0.21678 0.68136 0.0
C550 C 0.41703 0.23008 0.74323 0.0
C551 C 0.39971 0.19698 0.64868 0.0
C552 C 0.43748 0.2084 0.71248 0.0
C553 C 0.45784 0.21809 0.67195 0.0
C554 C 0.47546 0.21404 0.692 0.0
C555 C 0.47214 0.19951 0.75456 0.0
C556 C 0.45122 0.18882 0.79537 0.0
C557 C 0.43361 0.19323 0.77393 0.0
H558 H 0.47786 0.60323 0.29726 0.0
H559 H 0.44921 0.63644 0.43468 0.0
H560 H 0.41045 0.60798 0.38921 0.0
H561 H 0.43653 0.58444 0.13519 0.0
H562 H 0.43639 0.55783 0.12635 0.0
H563 H 0.46176 0.58303 0.15898 0.0
H564 H 0.46224 0.56165 0.28298 0.0
H565 H 0.43704 0.53646 0.2506 0.0
H566 H 0.43725 0.54843 0.34391 0.0
H567 H 0.37438 0.57242 0.34177 0.0
H568 H 0.34529 0.53317 0.3024 0.0
H569 H 0.39836 0.52369 0.19993 0.0
C570 C 0.46348 0.60474 0.31721 0.0
C571 C 0.46652 0.62196 0.36995 0.0
C572 C 0.44728 0.62347 0.39384 0.0
C573 C 0.42523 0.60738 0.36827 0.0
C574 C 0.4228 0.59012 0.31813 0.0
C575 C 0.44154 0.58887 0.29269 0.0
C576 C 0.43457 0.56758 0.24569 0.0
C577 C 0.4428 0.57359 0.16156 0.0
C578 C 0.44328 0.55266 0.28306 0.0
C579 C 0.40891 0.55646 0.25095 0.0
C580 C 0.40231 0.56983 0.29152 0.0
C581 C 0.37937 0.56205 0.30868 0.0
C582 C 0.36295 0.53984 0.28587 0.0
C583 C 0.36969 0.52571 0.24741 0.0
C584 C 0.39282 0.53441 0.22801 0.0
H585 H 0.85749 0.48112 0.62143 0.0
H586 H 0.82814 0.46195 0.85096 0.0
H587 H 0.8168 0.42171 0.82349 0.0
H588 H 0.81685 0.42654 0.51948 0.0
H589 H 0.83964 0.42808 0.46087 0.0
H590 H 0.84055 0.45391 0.49243 0.0
H591 H 0.88034 0.46763 0.55337 0.0
H592 H 0.8795 0.44188 0.52273 0.0
H593 H 0.88372 0.44979 0.62346 0.0
H594 H 0.81494 0.38515 0.77868 0.0
H595 H 0.82292 0.35627 0.72224 0.0
H596 H 0.85423 0.39998 0.52319 0.0
C597 C 0.84809 0.46833 0.66517 0.0
C598 C 0.84365 0.47459 0.73829 0.0
C599 C 0.83142 0.45744 0.7942 0.0
C600 C 0.82498 0.43458 0.77906 0.0
C601 C 0.83066 0.42918 0.70746 0.0
C602 C 0.84174 0.44562 0.65114 0.0
C603 C 0.84851 0.4363 0.58289 0.0
C604 C 0.83561 0.4362 0.50958 0.0
C605 C 0.87455 0.44969 0.56994 0.0
C606 C 0.84055 0.41233 0.61094 0.0
C607 C 0.82984 0.4083 0.68211 0.0
C608 C 0.82282 0.38796 0.7222 0.0
C609 C 0.82735 0.3716 0.68957 0.0
C610 C 0.83907 0.37584 0.6181 0.0
C611 C 0.84513 0.39622 0.57767 0.0
H612 H 0.484 0.88113 0.99141 0.0
H613 H 0.45862 0.80862 0.96912 0.0
H614 H 0.41941 0.80093 0.99969 0.0
H615 H 0.44964 0.87828 0.15088 0.0
H616 H 0.44554 0.90114 0.11657 0.0
H617 H 0.47105 0.90053 0.09105 0.0
H618 H 0.46281 0.90217 0.94537 0.0
H619 H 0.43746 0.90312 0.97046 0.0
H620 H 0.43558 0.88133 0.90604 0.0
H621 H 0.38281 0.80192 0.03897 0.0
H622 H 0.35264 0.81167 0.06867 0.0
H623 H 0.40352 0.88346 0.06374 0.0
C624 C 0.47018 0.8636 0.99282 0.0
C625 C 0.47428 0.84543 0.97864 0.0
C626 C 0.45575 0.82276 0.9797 0.0
C627 C 0.43352 0.81827 0.99754 0.0
C628 C 0.43021 0.83668 0.0134 0.0
C629 C 0.44811 0.85891 0.01006 0.0
C630 C 0.44044 0.87587 0.02812 0.0
C631 C 0.45238 0.88976 0.10099 0.0
C632 C 0.4443 0.89153 0.95834 0.0
C633 C 0.41536 0.85983 0.0425 0.0
C634 C 0.40963 0.83725 0.03442 0.0
C635 C 0.38718 0.81955 0.04516 0.0
C636 C 0.3702 0.82518 0.06254 0.0
C637 C 0.37584 0.84827 0.06821 0.0
C638 C 0.39876 0.86566 0.0594 0.0
H639 H 0.62844 0.47363 0.41087 0.0
H640 H 0.63521 0.46396 0.1658 0.0
H641 H 0.60502 0.42388 0.1774 0.0
H642 H 0.61087 0.41449 0.47793 0.0
H643 H 0.59042 0.41438 0.54511 0.0
H644 H 0.6161 0.44073 0.52254 0.0
H645 H 0.59182 0.45893 0.48222 0.0
H646 H 0.56618 0.43276 0.50484 0.0
H647 H 0.56998 0.44509 0.40972 0.0
H648 H 0.5701 0.38718 0.20885 0.0
H649 H 0.53235 0.35752 0.25669 0.0
H650 H 0.54641 0.39103 0.47938 0.0
C651 C 0.6239 0.46308 0.35963 0.0
C652 C 0.63452 0.47222 0.28739 0.0
C653 C 0.62794 0.45753 0.22232 0.0
C654 C 0.61064 0.43462 0.22823 0.0
C655 C 0.59999 0.42651 0.29956 0.0
C656 C 0.60638 0.4403 0.36421 0.0
C657 C 0.59023 0.42846 0.43131 0.0
C658 C 0.60265 0.42427 0.49818 0.0
C659 C 0.57888 0.44212 0.45856 0.0
C660 C 0.57313 0.40622 0.39327 0.0
C661 C 0.57942 0.40525 0.31775 0.0
C662 C 0.56529 0.38748 0.26837 0.0
C663 C 0.54394 0.37069 0.29598 0.0
C664 C 0.53687 0.37179 0.3721 0.0
C665 C 0.55187 0.38943 0.42196 0.0
H666 H 0.15672 0.52843 0.59705 0.0
H667 H 0.17331 0.53915 0.8417 0.0
H668 H 0.18454 0.5796 0.8268 0.0
H669 H 0.19959 0.58674 0.52596 0.0
H670 H 0.1795 0.58701 0.45804 0.0
H671 H 0.17807 0.56045 0.48307 0.0
H672 H 0.13573 0.54355 0.52351 0.0
H673 H 0.13703 0.56993 0.49842 0.0
H674 H 0.12834 0.55832 0.59438 0.0
H675 H 0.18734 0.61671 0.7918 0.0
H676 H 0.17991 0.64655 0.7409 0.0
H677 H 0.15963 0.61156 0.52102 0.0
C678 C 0.16306 0.53928 0.64749 0.0
C679 C 0.16412 0.53036 0.72065 0.0
C680 C 0.17273 0.54543 0.78463 0.0
C681 C 0.17909 0.56852 0.77678 0.0
C682 C 0.17685 0.57643 0.70458 0.0
C683 C 0.16907 0.56224 0.64095 0.0
C684 C 0.16513 0.57393 0.57261 0.0
C685 C 0.18156 0.57723 0.50598 0.0
C686 C 0.14008 0.56065 0.54573 0.0
C687 C 0.1709 0.59658 0.60871 0.0
C688 C 0.17818 0.59789 0.68436 0.0
C689 C 0.18226 0.61614 0.73212 0.0
C690 C 0.1781 0.63306 0.70275 0.0
C691 C 0.1699 0.63159 0.62653 0.0
C692 C 0.16681 0.61346 0.57837 0.0
H693 H 0.62698 0.15406 0.9165 0.0
H694 H 0.63627 0.17178 0.16083 0.0
H695 H 0.60652 0.18229 0.1523 0.0
H696 H 0.60936 0.19522 0.85022 0.0
H697 H 0.58788 0.17457 0.78661 0.0
H698 H 0.61348 0.17342 0.80609 0.0
H699 H 0.58905 0.13148 0.85167 0.0
H700 H 0.56347 0.13248 0.83194 0.0
H701 H 0.56814 0.12463 0.92701 0.0
H702 H 0.57254 0.18606 0.12351 0.0
H703 H 0.535 0.17947 0.08 0.0
H704 H 0.54486 0.15566 0.85838 0.0
C705 C 0.62303 0.1603 0.96846 0.0
C706 C 0.63444 0.16214 0.03932 0.0
C707 C 0.62856 0.17071 0.10507 0.0
C708 C 0.61146 0.17667 0.10099 0.0
C709 C 0.60015 0.17387 0.03101 0.0
C710 C 0.60559 0.16574 0.96598 0.0
C711 C 0.58873 0.16119 0.90107 0.0
C712 C 0.60057 0.17705 0.8319 0.0
C713 C 0.57663 0.13595 0.87654 0.0
C714 C 0.57242 0.16718 0.94083 0.0
C715 C 0.57973 0.17507 0.01506 0.0
C716 C 0.5668 0.18017 0.06523 0.0
C717 C 0.54548 0.17632 0.04006 0.0
C718 C 0.53706 0.1671 0.9658 0.0
C719 C 0.55108 0.1632 0.91472 0.0
H720 H 0.36177 0.40241 0.26558 0.0
H721 H 0.29225 0.34607 0.25296 0.0
H722 H 0.30557 0.31961 0.29704 0.0
H723 H 0.38921 0.37193 0.19687 0.0
H724 H 0.41341 0.38719 0.25996 0.0
H725 H 0.39789 0.4007 0.226 0.0
H726 H 0.39144 0.40865 0.36789 0.0
H727 H 0.40672 0.39494 0.40233 0.0
H728 H 0.37802 0.38525 0.43532 0.0
H729 H 0.32786 0.29982 0.34968 0.0
H730 H 0.35632 0.28908 0.39381 0.0
H731 H 0.41001 0.35946 0.36785 0.0
C732 C 0.34925 0.38448 0.27162 0.0
C733 C 0.32596 0.37629 0.25608 0.0
C734 C 0.31022 0.35267 0.26422 0.0
C735 C 0.31765 0.33759 0.28961 0.0
C736 C 0.34084 0.34644 0.30585 0.0
C737 C 0.35634 0.36938 0.29614 0.0
C738 C 0.3803 0.37508 0.31659 0.0
C739 C 0.39612 0.38426 0.24563 0.0
C740 C 0.38966 0.39197 0.38457 0.0
C741 C 0.37607 0.35181 0.34002 0.0
C742 C 0.35329 0.33536 0.33408 0.0
C743 C 0.34573 0.31263 0.35403 0.0
C744 C 0.36195 0.30668 0.3794 0.0
C745 C 0.38538 0.3234 0.38398 0.0
C746 C 0.39226 0.34619 0.36456 0.0
H747 H 0.04348 0.40804 0.71144 0.0
H748 H 0.05536 0.3513 0.7445 0.0
H749 H 0.01527 0.32443 0.7057 0.0
H750 H 0.98637 0.3802 0.78697 0.0
H751 H 0.97688 0.39391 0.71891 0.0
H752 H 0.00629 0.40799 0.74895 0.0
H753 H 0.01902 0.41194 0.60551 0.0
H754 H 0.98966 0.39775 0.57503 0.0
H755 H 0.00796 0.38682 0.54575 0.0
H756 H 0.97318 0.30402 0.65671 0.0
H757 H 0.93377 0.29259 0.61343 0.0
H758 H 0.95104 0.36349 0.61937 0.0
C759 C 0.03771 0.38995 0.71069 0.0
C760 C 0.05254 0.38174 0.73062 0.0
C761 C 0.04422 0.35793 0.72956 0.0
C762 C 0.02153 0.34259 0.70732 0.0
C763 C 0.00739 0.35137 0.6872 0.0
C764 C 0.01524 0.37455 0.68968 0.0
C765 C 0.99692 0.37998 0.66702 0.0
C766 C 0.99128 0.39117 0.73449 0.0
C767 C 1.00381 0.395 0.59399 0.0
C768 C 0.97742 0.35628 0.65083 0.0
C769 C 0.98362 0.33988 0.662 0.0
C770 C 0.96819 0.31679 0.64842 0.0
C771 C 0.94589 0.31043 0.62365 0.0
C772 C 0.93929 0.3271 0.61367 0.0
C773 C 0.95541 0.35024 0.62727 0.0
H774 H 0.64444 0.04695 0.02643 0.0
H775 H 0.71401 0.06106 0.05485 0.0
H776 H 0.70151 0.02074 0.02146 0.0
H777 H 0.61726 0.99131 0.11043 0.0
H778 H 0.59339 0.98039 0.04484 0.0
H779 H 0.60839 0.01018 0.06968 0.0
H780 H 0.61555 0.02072 0.92405 0.0
H781 H 0.60075 0.99094 0.89877 0.0
H782 H 0.62957 0.00929 0.86561 0.0
H783 H 0.68021 0.97789 0.98095 0.0
H784 H 0.6524 0.93742 0.94903 0.0
H785 H 0.59769 0.95325 0.95225 0.0
C786 C 0.65715 0.04166 0.02565 0.0
C787 C 0.68023 0.05715 0.04288 0.0
C788 C 0.69622 0.04942 0.04193 0.0
C789 C 0.68927 0.0266 0.0227 0.0
C790 C 0.66628 0.0118 0.00521 0.0
C791 C 0.65052 0.01913 0.00741 0.0
C792 C 0.62675 1.00015 0.98859 0.0
C793 C 0.6105 0.99522 0.05749 0.0
C794 C 0.61763 0.00561 0.91487 0.0
C795 C 0.63142 0.98082 0.97532 0.0
C796 C 0.65428 0.9877 0.98429 0.0
C797 C 0.66229 0.9724 0.97409 0.0
C798 C 0.64644 0.94951 0.9556 0.0
C799 C 0.62292 0.94223 0.94851 0.0
C800 C 0.61555 0.95824 0.95778 0.0
H801 H 0.59062 0.63774 0.37683 0.0
H802 H 0.64422 0.70808 0.40426 0.0
H803 H 0.67269 0.69753 0.35835 0.0
H804 H 0.62228 0.61236 0.44479 0.0
H805 H 0.60899 0.58881 0.37816 0.0
H806 H 0.59367 0.60264 0.4109 0.0
H807 H 0.5873 0.61021 0.26843 0.0
H808 H 0.60278 0.59657 0.23519 0.0
H809 H 0.61157 0.62533 0.2053 0.0
H810 H 0.69507 0.67778 0.30638 0.0
H811 H 0.7086 0.65125 0.26544 0.0
H812 H 0.63912 0.59482 0.27763 0.0
C813 C 0.60832 0.65109 0.37302 0.0
C814 C 0.6152 0.67379 0.39362 0.0
C815 C 0.6386 0.69057 0.3887 0.0
C816 C 0.65482 0.68471 0.3624 0.0
C817 C 0.64728 0.66203 0.3419 0.0
C818 C 0.62451 0.64555 0.3478 0.0
C819 C 0.62035 0.62225 0.32524 0.0
C820 C 0.61077 0.60554 0.39386 0.0
C821 C 0.60457 0.61306 0.25432 0.0
C822 C 0.64435 0.62795 0.30552 0.0
C823 C 0.65979 0.65094 0.31457 0.0
C824 C 0.68303 0.65978 0.29934 0.0
C825 C 0.69057 0.64465 0.27574 0.0
C826 C 0.67491 0.621 0.26855 0.0
C827 C 0.65155 0.61279 0.28288 0.0
H828 H 0.05223 0.63993 0.61464 0.0
H829 H 0.06963 0.71076 0.60071 0.0
H830 H 0.03085 0.70004 0.64921 0.0
H831 H 0.99365 0.61545 0.55309 0.0
H832 H 0.98408 0.59138 0.61731 0.0
H833 H 0.0127 0.60514 0.57938 0.0
H834 H 0.02863 0.61134 0.71921 0.0
H835 H 1.00007 0.59786 0.7576 0.0
H836 H 0.02079 0.62627 0.78797 0.0
H837 H 0.98949 0.68038 0.70759 0.0
H838 H 0.95032 0.65405 0.75748 0.0
H839 H 0.96223 0.5972 0.72874 0.0
C840 C 0.04792 0.65326 0.62113 0.0
C841 C 0.06392 0.67618 0.60407 0.0
C842 C 0.05752 0.69304 0.61303 0.0
C843 C 0.03559 0.6871 0.64095 0.0
C844 C 0.02033 0.66425 0.65882 0.0
C845 C 0.0263 0.64764 0.64813 0.0
C846 C 0.00727 0.62431 0.67105 0.0
C847 C 0.99893 0.60813 0.60103 0.0
C848 C 0.01464 0.61438 0.73793 0.0
C849 C 0.98955 0.6302 0.69708 0.0
C850 C 0.99718 0.65325 0.69027 0.0
C851 C 0.9834 0.6623 0.71257 0.0
C852 C 0.96126 0.64729 0.74122 0.0
C853 C 0.9532 0.62359 0.74666 0.0
C854 C 0.96775 0.6152 0.7248 0.0
H855 H 0.41265 0.05235 0.94941 0.0
H856 H 0.35817 0.06843 0.9384 0.0
H857 H 0.33048 0.02889 0.98086 0.0
H858 H 0.37999 0.99472 0.87784 0.0
H859 H 0.39435 0.9845 0.94005 0.0
H860 H 0.40904 0.01367 0.90741 0.0
H861 H 0.41744 0.02736 0.04993 0.0
H862 H 0.40256 0.99824 0.08304 0.0
H863 H 0.3941 0.01808 0.11732 0.0
H864 H 0.30924 0.98707 0.03208 0.0
H865 H 0.2966 0.94743 0.07513 0.0
H866 H 0.36581 0.96036 0.04752 0.0
C867 C 0.39487 0.04759 0.95543 0.0
C868 C 0.38754 0.06345 0.94084 0.0
C869 C 0.3641 0.05647 0.94893 0.0
C870 C 0.34832 0.03411 0.97339 0.0
C871 C 0.35629 0.01898 0.98863 0.0
C872 C 0.37904 0.0255 0.97887 0.0
C873 C 0.38362 0.00638 0.99814 0.0
C874 C 0.39225 0.99941 0.92659 0.0
C875 C 0.40042 0.01291 0.06614 0.0
C876 C 0.35994 0.98797 0.02103 0.0
C877 C 0.3443 0.99541 0.01582 0.0
C878 C 0.32139 0.98113 0.0358 0.0
C879 C 0.31437 0.9587 0.06055 0.0
C880 C 0.3302 0.9508 0.06444 0.0
C881 C 0.35323 0.96579 0.04476 0.0
H882 H 0.2723 0.39086 0.57028 0.0
H883 H 0.31897 0.45963 0.49033 0.0
H884 H 0.33185 0.47149 0.62388 0.0
H885 H 0.25788 0.40897 0.75836 0.0
H886 H 0.25612 0.38482 0.80887 0.0
H887 H 0.24863 0.38247 0.7079 0.0
H888 H 0.27793 0.3693 0.67865 0.0
H889 H 0.28575 0.37211 0.77916 0.0
H890 H 0.30733 0.38725 0.7067 0.0
H891 H 0.34354 0.47471 0.76087 0.0
H892 H 0.35084 0.46989 0.89764 0.0
H893 H 0.29527 0.39993 0.89267 0.0
C894 C 0.28473 0.40854 0.58115 0.0
C895 C 0.29486 0.42421 0.51955 0.0
C896 C 0.31134 0.44717 0.53621 0.0
C897 C 0.31863 0.45415 0.61203 0.0
C898 C 0.30896 0.43811 0.67097 0.0
C899 C 0.29206 0.41589 0.65691 0.0
C900 C 0.28538 0.40185 0.73065 0.0
C901 C 0.26053 0.39408 0.75274 0.0
C902 C 0.28935 0.38143 0.7233 0.0
C903 C 0.30192 0.4194 0.78728 0.0
C904 C 0.31525 0.44023 0.75155 0.0
C905 C 0.33294 0.45863 0.79 0.0
C906 C 0.33712 0.45569 0.86722 0.0
C907 C 0.32359 0.43458 0.90514 0.0
C908 C 0.3056 0.41631 0.86492 0.0
H909 H 0.87399 0.29726 0.23557 0.0
H910 H 0.90259 0.37052 0.23324 0.0
H911 H 0.89267 0.36894 0.09461 0.0
H912 H 0.89649 0.29457 0.05553 0.0
H913 H 0.87242 0.26769 0.02682 0.0
H914 H 0.8787 0.27415 0.1278 0.0
H915 H 0.83776 0.26699 0.15093 0.0
H916 H 0.83134 0.26054 0.04977 0.0
H917 H 0.82753 0.28245 0.09449 0.0
H918 H 0.88112 0.35968 0.95709 0.0
H919 H 0.87305 0.34451 0.82504 0.0
H920 H 0.85515 0.27741 0.9132 0.0
C921 C 0.8777 0.31283 0.20579 0.0
C922 C 0.88879 0.33401 0.2444 0.0
C923 C 0.89406 0.35421 0.20399 0.0
C924 C 0.88833 0.35341 0.12576 0.0
C925 C 0.87758 0.33228 0.08891 0.0
C926 C 0.87254 0.31237 0.12723 0.0
C927 C 0.86324 0.2923 0.0721 0.0
C928 C 0.87864 0.28156 0.07047 0.0
C929 C 0.8385 0.27452 0.09308 0.0
C930 C 0.86438 0.30419 0.99644 0.0
C931 C 0.87215 0.32711 0.00802 0.0
C932 C 0.87514 0.34178 0.94713 0.0
C933 C 0.87071 0.33297 0.87199 0.0
C934 C 0.86391 0.30978 0.85776 0.0
C935 C 0.8602 0.29515 0.92147 0.0
H936 H 0.5885 0.85424 0.28119 0.0
H937 H 0.60593 0.92125 0.19494 0.0
H938 H 0.60558 0.93402 0.3279 0.0
H939 H 0.5502 0.8498 0.42254 0.0
H940 H 0.55861 0.83613 0.49449 0.0
H941 H 0.56265 0.8328 0.39348 0.0
H942 H 0.6055 0.84782 0.41822 0.0
H943 H 0.6019 0.85171 0.51933 0.0
H944 H 0.62268 0.87534 0.46275 0.0
H945 H 0.5985 0.9381 0.46616 0.0
H946 H 0.58788 0.93406 0.6044 0.0
H947 H 0.57686 0.86524 0.60434 0.0
C948 C 0.59286 0.87176 0.29063 0.0
C949 C 0.597 0.88666 0.2276 0.0
C950 C 0.60227 0.90939 0.24212 0.0
C951 C 0.6023 0.91688 0.31754 0.0
C952 C 0.59735 0.90155 0.3781 0.0
C953 C 0.59307 0.87957 0.36586 0.0
C954 C 0.58717 0.86627 0.4411 0.0
C955 C 0.56323 0.845 0.43765 0.0
C956 C 0.60541 0.85991 0.4615 0.0
C957 C 0.58786 0.8839 0.49676 0.0
C958 C 0.59393 0.90418 0.45911 0.0
C959 C 0.59413 0.92247 0.49667 0.0
C960 C 0.58791 0.91997 0.57485 0.0
C961 C 0.58168 0.8994 0.61468 0.0
C962 C 0.58196 0.88126 0.57532 0.0
H963 H 0.66005 0.54862 0.87409 0.0
H964 H 0.70654 0.61665 0.95947 0.0
H965 H 0.72029 0.62948 0.82678 0.0
H966 H 0.69737 0.54695 0.7357 0.0
H967 H 0.67583 0.53172 0.66342 0.0
H968 H 0.66818 0.52809 0.7643 0.0
H969 H 0.63774 0.53987 0.73785 0.0
H970 H 0.6452 0.54339 0.63667 0.0
H971 H 0.64605 0.56663 0.69033 0.0
H972 H 0.73084 0.63441 0.68789 0.0
H973 H 0.73683 0.63145 0.54869 0.0
H974 H 0.68347 0.56038 0.55151 0.0
C975 C 0.67275 0.56631 0.86446 0.0
C976 C 0.6823 0.58163 0.927 0.0
C977 C 0.69922 0.60457 0.91246 0.0
C978 C 0.70703 0.61205 0.8373 0.0
C979 C 0.69766 0.59643 0.77717 0.0
C980 C 0.6808 0.57408 0.78957 0.0
C981 C 0.67441 0.56057 0.71489 0.0
C982 C 0.67925 0.54066 0.71991 0.0
C983 C 0.64936 0.55212 0.69369 0.0
C984 C 0.69058 0.57877 0.65905 0.0
C985 C 0.70376 0.59932 0.6963 0.0
C986 C 0.72053 0.61846 0.65783 0.0
C987 C 0.72394 0.61656 0.57898 0.0
C988 C 0.71065 0.59568 0.53947 0.0
C989 C 0.69366 0.57661 0.58013 0.0
H990 H 0.11542 0.70293 0.23912 0.0
H991 H 0.131 0.64812 0.24511 0.0
H992 H 0.14302 0.65544 0.10824 0.0
H993 H 0.09072 0.69027 0.05299 0.0
H994 H 0.10155 0.71952 0.02437 0.0
H995 H 0.09666 0.71177 0.12505 0.0
H996 H 0.13858 0.74184 0.15531 0.0
H997 H 0.14385 0.74955 0.0545 0.0
H998 H 0.16142 0.74071 0.10533 0.0
H999 H 0.15174 0.66733 0.97146 0.0
H1000 H 0.15328 0.68054 0.83788 0.0
H1001 H 0.12998 0.72641 0.9162 0.0
C1002 C 0.12168 0.69275 0.21151 0.0
C1003 C 0.12234 0.67498 0.25213 0.0
C1004 C 0.13021 0.66166 0.21441 0.0
C1005 C 0.13727 0.66585 0.13712 0.0
C1006 C 0.13623 0.68335 0.09833 0.0
C1007 C 0.12845 0.69648 0.13377 0.0
C1008 C 0.12716 0.71284 0.07665 0.0
C1009 C 0.10256 0.70832 0.06934 0.0
C1010 C 0.14375 0.73771 0.09932 0.0
C1011 C 0.1349 0.70641 0.00327 0.0
C1012 C 0.14049 0.6897 0.01776 0.0
C1013 C 0.14741 0.6804 0.95929 0.0
C1014 C 0.14806 0.6879 0.8835 0.0
C1015 C 0.14146 0.70429 0.86638 0.0
C1016 C 0.13533 0.71405 0.92753 0.0
H1017 H 0.4382 0.14164 0.58304 0.0
H1018 H 0.41735 0.06983 0.58262 0.0
H1019 H 0.40689 0.0673 0.44448 0.0
H1020 H 0.39522 0.13884 0.44548 0.0
H1021 H 0.41499 0.16523 0.39846 0.0
H1022 H 0.41859 0.16101 0.49932 0.0
H1023 H 0.45982 0.16974 0.47213 0.0
H1024 H 0.45644 0.17409 0.37139 0.0
H1025 H 0.46473 0.15359 0.39936 0.0
H1026 H 0.40021 0.07269 0.30723 0.0
H1027 H 0.40099 0.08622 0.17453 0.0
H1028 H 0.4282 0.15529 0.25969 0.0
C1029 C 0.43106 0.12537 0.55379 0.0
C1030 C 0.42837 0.10584 0.59305 0.0
C1031 C 0.41954 0.08491 0.55309 0.0
C1032 C 0.41341 0.08331 0.47503 0.0
C1033 C 0.4164 0.10287 0.43767 0.0
C1034 C 0.42522 0.12358 0.4753 0.0
C1035 C 0.4286 0.14238 0.41962 0.0
C1036 C 0.41344 0.15245 0.44207 0.0
C1037 C 0.4539 0.16104 0.41538 0.0
C1038 C 0.42066 0.12903 0.3446 0.0
C1039 C 0.41333 0.10621 0.35695 0.0
C1040 C 0.40591 0.09051 0.29674 0.0
C1041 C 0.40657 0.0984 0.22146 0.0
C1042 C 0.41489 0.12186 0.20657 0.0
C1043 C 0.42151 0.13725 0.26938 0.0
H1044 H 0.56006 0.71382 0.09384 0.0
H1045 H 0.58725 0.6734 0.19263 0.0
H1046 H 0.59163 0.66146 0.06215 0.0
H1047 H 0.52718 0.67382 0.94634 0.0
H1048 H 0.53237 0.69495 0.87344 0.0
H1049 H 0.53278 0.70182 0.97426 0.0
H1050 H 0.57355 0.73642 0.95778 0.0
H1051 H 0.57316 0.72957 0.85686 0.0
H1052 H 0.5958 0.73209 0.91852 0.0
H1053 H 0.59229 0.65307 0.92428 0.0
H1054 H 0.58816 0.64743 0.78387 0.0
H1055 H 0.55881 0.6917 0.77067 0.0
C1056 C 0.56714 0.70267 0.08731 0.0
C1057 C 0.57323 0.69439 0.1528 0.0
C1058 C 0.58224 0.67964 0.14294 0.0
C1059 C 0.58493 0.67291 0.0692 0.0
C1060 C 0.57847 0.68103 0.00578 0.0
C1061 C 0.5697 0.69552 0.01362 0.0
C1062 C 0.56303 0.70064 0.93538 0.0
C1063 C 0.53731 0.6923 0.9322 0.0
C1064 C 0.57724 0.7262 0.91601 0.0
C1065 C 0.56926 0.68657 0.883 0.0
C1066 C 0.57832 0.67563 0.92508 0.0
C1067 C 0.58515 0.66147 0.89049 0.0
C1068 C 0.58251 0.65821 0.81054 0.0
C1069 C 0.57291 0.66888 0.76573 0.0
C1070 C 0.56636 0.68341 0.80281 0.0
H1071 H 0.90502 0.60166 0.12334 0.0
H1072 H 0.89479 0.53313 0.11782 0.0
H1073 H 0.88362 0.528 0.25544 0.0
H1074 H 0.93005 0.61556 0.31176 0.0
H1075 H 0.91691 0.63204 0.33925 0.0
H1076 H 0.92266 0.62983 0.23888 0.0
H1077 H 0.88005 0.61465 0.20634 0.0
H1078 H 0.87412 0.61665 0.30682 0.0
H1079 H 0.85835 0.5899 0.25637 0.0
H1080 H 0.8735 0.53007 0.39238 0.0
H1081 H 0.86878 0.54035 0.52445 0.0
H1082 H 0.88796 0.60864 0.44563 0.0
C1083 C 0.90028 0.58557 0.15127 0.0
C1084 C 0.90083 0.5678 0.11013 0.0
C1085 C 0.89476 0.54704 0.14856 0.0
C1086 C 0.88818 0.5439 0.22646 0.0
C1087 C 0.88788 0.56173 0.26548 0.0
C1088 C 0.89398 0.58226 0.22964 0.0
C1089 C 0.89343 0.59906 0.28648 0.0
C1090 C 0.91718 0.62038 0.29457 0.0
C1091 C 0.87541 0.60544 0.26257 0.0
C1092 C 0.88642 0.58486 0.35999 0.0
C1093 C 0.88292 0.56326 0.34596 0.0
C1094 C 0.8764 0.54701 0.4043 0.0
C1095 C 0.87393 0.55313 0.47953 0.0
C1096 C 0.87841 0.5755 0.49663 0.0
C1097 C 0.88431 0.59139 0.43522 0.0
H1098 H 0.29982 0.87377 0.42559 0.0
H1099 H 0.35528 0.94373 0.42908 0.0
H1100 H 0.3482 0.94638 0.56813 0.0
H1101 H 0.26218 0.87971 0.56607 0.0
H1102 H 0.25344 0.85248 0.61076 0.0
H1103 H 0.26121 0.85682 0.50987 0.0
H1104 H 0.29139 0.84449 0.53437 0.0
H1105 H 0.28343 0.83998 0.63491 0.0
H1106 H 0.31276 0.85884 0.60786 0.0
H1107 H 0.33637 0.94112 0.70582 0.0
H1108 H 0.32296 0.92749 0.83801 0.0
H1109 H 0.27618 0.85999 0.74924 0.0
C1110 C 0.31012 0.88971 0.45561 0.0
C1111 C 0.32793 0.90868 0.41695 0.0
C1112 C 0.34157 0.92911 0.45809 0.0
C1113 C 0.33756 0.93077 0.53669 0.0
C1114 C 0.31997 0.91175 0.57339 0.0
C1115 C 0.30659 0.8915 0.5346 0.0
C1116 C 0.29019 0.87304 0.58955 0.0
C1117 C 0.26528 0.86505 0.56775 0.0
C1118 C 0.29472 0.8529 0.5918 0.0
C1119 C 0.29664 0.88603 0.66544 0.0
C1120 C 0.31363 0.90841 0.65423 0.0
C1121 C 0.32308 0.92365 0.71538 0.0
C1122 C 0.31545 0.91569 0.79033 0.0
C1123 C 0.2987 0.89262 0.80397 0.0
C1124 C 0.2888 0.87775 0.74036 0.0
H1125 H 0.41071 0.2966 0.75192 0.0
H1126 H 0.47881 0.35553 0.74584 0.0
H1127 H 0.48441 0.34918 0.88278 0.0
H1128 H 0.39684 0.30742 0.93867 0.0
H1129 H 0.38053 0.2779 0.96729 0.0
H1130 H 0.38267 0.28552 0.86663 0.0
H1131 H 0.39827 0.25836 0.83535 0.0
H1132 H 0.39615 0.25068 0.93613 0.0
H1133 H 0.42302 0.26165 0.88624 0.0
H1134 H 0.48234 0.33767 0.01927 0.0
H1135 H 0.47159 0.32387 0.15285 0.0
H1136 H 0.40393 0.27327 0.0751 0.0
C1137 C 0.42685 0.30791 0.77956 0.0
C1138 C 0.44437 0.32654 0.73884 0.0
C1139 C 0.46517 0.34131 0.77658 0.0
C1140 C 0.46856 0.33769 0.85392 0.0
C1141 C 0.45092 0.31929 0.89275 0.0
C1142 C 0.43038 0.30473 0.85736 0.0
C1143 C 0.4136 0.28745 0.91454 0.0
C1144 C 0.39215 0.28972 0.92223 0.0
C1145 C 0.4074 0.26309 0.89167 0.0
C1146 C 0.42782 0.29492 0.9878 0.0
C1147 C 0.44941 0.31304 0.97323 0.0
C1148 C 0.46549 0.32348 0.03152 0.0
C1149 C 0.45917 0.31561 0.10725 0.0
C1150 C 0.43685 0.29767 0.12444 0.0
C1151 C 0.42116 0.28684 0.06352 0.0
H1152 H 0.12487 0.44409 0.45663 0.0
H1153 H 0.10677 0.37292 0.46129 0.0
H1154 H 0.09718 0.36954 0.32262 0.0
H1155 H 0.08087 0.43785 0.32142 0.0
H1156 H 0.09909 0.46434 0.27206 0.0
H1157 H 0.1039 0.46117 0.3727 0.0
H1158 H 0.14567 0.47217 0.3419 0.0
H1159 H 0.14102 0.47548 0.24131 0.0
H1160 H 0.15121 0.45645 0.26919 0.0
H1161 H 0.0898 0.37368 0.18435 0.0
H1162 H 0.08698 0.38558 0.05217 0.0
H1163 H 0.1107 0.45446 0.13383 0.0
C1164 C 0.11871 0.42779 0.4284 0.0
C1165 C 0.11663 0.40878 0.46974 0.0
C1166 C 0.1088 0.38778 0.43068 0.0
C1167 C 0.10312 0.38564 0.35203 0.0
C1168 C 0.10542 0.40468 0.31296 0.0
C1169 C 0.11315 0.4254 0.34947 0.0
C1170 C 0.11488 0.44337 0.29288 0.0
C1171 C 0.09872 0.4522 0.31617 0.0
C1172 C 0.13967 0.46302 0.28592 0.0
C1173 C 0.10699 0.42949 0.21891 0.0
C1174 C 0.10148 0.40718 0.23222 0.0
C1175 C 0.09412 0.39112 0.17312 0.0
C1176 C 0.09269 0.39809 0.09806 0.0
C1177 C 0.09875 0.42099 0.0822 0.0
C1178 C 0.10569 0.43679 0.14399 0.0
H1179 H 0.71248 0.13208 0.39465 0.0
H1180 H 0.65177 0.06518 0.39925 0.0
H1181 H 0.65744 0.06188 0.53862 0.0
H1182 H 0.74562 0.11998 0.54198 0.0
H1183 H 0.75769 0.14818 0.58267 0.0
H1184 H 0.75044 0.14365 0.48141 0.0
H1185 H 0.7253 0.16234 0.49945 0.0
H1186 H 0.73209 0.16632 0.60088 0.0
H1187 H 0.70269 0.15074 0.57034 0.0
H1188 H 0.66748 0.06688 0.6771 0.0
H1189 H 0.68054 0.08047 0.80954 0.0
H1190 H 0.73449 0.14466 0.71858 0.0
C1191 C 0.70075 0.11656 0.42491 0.0
C1192 C 0.68171 0.09883 0.38656 0.0
C1193 C 0.66634 0.07897 0.42797 0.0
C1194 C 0.66954 0.07688 0.50683 0.0
C1195 C 0.68821 0.09481 0.54339 0.0
C1196 C 0.70359 0.11429 0.50406 0.0
C1197 C 0.72106 0.1318 0.55885 0.0
C1198 C 0.74514 0.13616 0.54013 0.0
C1199 C 0.72021 0.15411 0.55728 0.0
C1200 C 0.71256 0.11939 0.63535 0.0
C1201 C 0.69384 0.09793 0.6246 0.0
C1202 C 0.68221 0.08358 0.68633 0.0
C1203 C 0.68964 0.09152 0.7613 0.0
C1204 C 0.70839 0.11367 0.77404 0.0
C1205 C 0.72029 0.12758 0.71014 0.0
loop_
_geom_bond_atom_site_label_1
_geom_bond_atom_site_label_2
_geom_bond_distance
_geom_bond_site_symmetry_2
_ccdc_geom_bond_type
Co0 N4 2.148 . S
Co0 N10 2.128 . S
Co0 N20 2.194 . S
Co0 O25 2.351 . S
Co0 O26 2.155 . S
Co0 O27 2.096 . S
C1 N4 1.301 . S
C1 N5 1.328 . S
C1 H6 0.930 . S
C2 C3 1.333 . S
C2 N4 1.317 . S
C2 H7 0.930 . S
C3 C2 1.333 . S
C3 N5 1.350 . S
C3 H29 0.931 . S
N4 Co0 2.148 . S
N4 C1 1.301 . S
N4 C2 1.317 . S
N5 C1 1.328 . S
N5 C3 1.350 . S
H6 C1 0.930 . S
H7 C2 0.930 . S
C8 O9 1.224 . S
C8 O27 1.247 . S
O9 C8 1.224 . S
N10 Co0 2.128 . S
N10 C11 1.355 . S
N10 C13 1.311 . S
C11 N10 1.355 . S
C11 C12 1.363 . S
C11 H23 0.929 . S
C12 C11 1.363 . S
C12 N14 1.375 . S
C12 H30 0.931 . S
C13 N10 1.311 . S
C13 N14 1.347 . S
C13 H24 0.929 . S
N14 C12 1.375 . S
N14 C13 1.347 . S
C15 C18 1.365 . S
C15 N20 1.328 . S
C15 H21 0.929 . S
C16 C17 1.362 . S
C16 C19 1.378 . S
C16 H31 0.929 . S
C17 C16 1.362 . S
C17 C18 1.366 . S
C18 C15 1.365 . S
C18 C17 1.366 . S
C18 H32 0.930 . S
C19 C16 1.378 . S
C19 N20 1.315 . S
C19 H22 0.930 . S
N20 Co0 2.194 . S
N20 C15 1.328 . S
N20 C19 1.315 . S
H21 C15 0.929 . S
H22 C19 0.930 . S
H23 C11 0.929 . S
H24 C13 0.929 . S
O25 Co0 2.351 . S
O25 C28 1.244 . S
O26 Co0 2.155 . S
O26 C28 1.240 . S
O27 Co0 2.096 . S
O27 C8 1.247 . S
C28 O25 1.244 . S
C28 O26 1.240 . S
H29 C3 0.931 . S
H30 C12 0.931 . S
H31 C16 0.929 . S
H32 C18 0.930 . S
Co33 N37 2.148 . S
Co33 N43 2.128 . S
Co33 N53 2.194 . S
Co33 O58 2.351 . S
Co33 O59 2.155 . S
Co33 O60 2.096 . S
C34 N37 1.301 . S
C34 N38 1.328 . S
C34 H39 0.930 . S
C35 C36 1.333 . S
C35 N37 1.317 . S
C35 H40 0.930 . S
C36 C35 1.333 . S
C36 N38 1.350 . S
C36 H62 0.931 . S
N37 Co33 2.148 . S
N37 C34 1.301 . S
N37 C35 1.317 . S
N38 C34 1.328 . S
N38 C36 1.350 . S
H39 C34 0.930 . S
H40 C35 0.930 . S
C41 O42 1.224 . S
C41 O60 1.247 . S
O42 C41 1.224 . S
N43 Co33 2.128 . S
N43 C44 1.355 . S
N43 C46 1.311 . S
C44 N43 1.355 . S
C44 C45 1.363 . S
C44 H56 0.929 . S
C45 C44 1.363 . S
C45 N47 1.375 . S
C45 H63 0.931 . S
C46 N43 1.311 . S
C46 N47 1.347 . S
C46 H57 0.929 . S
N47 C45 1.375 . S
N47 C46 1.347 . S
C48 C51 1.365 . S
C48 N53 1.328 . S
C48 H54 0.929 . S
C49 C50 1.362 . S
C49 C52 1.378 . S
C49 H64 0.929 . S
C50 C49 1.362 . S
C50 C51 1.366 . S
C51 C48 1.365 . S
C51 C50 1.366 . S
C51 H65 0.930 . S
C52 C49 1.378 . S
C52 N53 1.315 . S
C52 H55 0.930 . S
N53 Co33 2.194 . S
N53 C48 1.328 . S
N53 C52 1.315 . S
H54 C48 0.929 . S
H55 C52 0.930 . S
H56 C44 0.929 . S
H57 C46 0.929 . S
O58 Co33 2.351 . S
O58 C61 1.244 . S
O59 Co33 2.155 . S
O59 C61 1.240 . S
O60 Co33 2.096 . S
O60 C41 1.247 . S
C61 O58 1.244 . S
C61 O59 1.240 . S
H62 C36 0.931 . S
H63 C45 0.931 . S
H64 C49 0.929 . S
H65 C51 0.930 . S
Co66 N70 2.148 1_556 S
Co66 N76 2.128 . S
Co66 N86 2.194 . S
Co66 O91 2.351 . S
Co66 O92 2.155 . S
Co66 O93 2.096 . S
C67 N70 1.301 . S
C67 N71 1.328 . S
C67 H72 0.930 . S
C68 C69 1.333 . S
C68 N70 1.317 . S
C68 H73 0.930 . S
C69 C68 1.333 . S
C69 N71 1.350 . S
C69 H95 0.931 . S
N70 Co66 2.148 1_554 S
N70 C67 1.301 . S
N70 C68 1.317 . S
N71 C67 1.328 . S
N71 C69 1.350 . S
H72 C67 0.930 . S
H73 C68 0.930 . S
C74 O75 1.224 . S
C74 O93 1.247 . S
O75 C74 1.224 . S
N76 Co66 2.128 . S
N76 C77 1.355 . S
N76 C79 1.311 . S
C77 N76 1.355 . S
C77 C78 1.363 . S
C77 H89 0.929 . S
C78 C77 1.363 . S
C78 N80 1.375 . S
C78 H96 0.931 . S
C79 N76 1.311 . S
C79 N80 1.347 . S
C79 H90 0.929 . S
N80 C78 1.375 . S
N80 C79 1.347 . S
C81 C84 1.365 . S
C81 N86 1.328 . S
C81 H87 0.929 . S
C82 C83 1.362 . S
C82 C85 1.378 . S
C82 H97 0.929 . S
C83 C82 1.362 . S
C83 C84 1.366 . S
C84 C81 1.365 . S
C84 C83 1.366 . S
C84 H98 0.930 . S
C85 C82 1.378 . S
C85 N86 1.315 . S
C85 H88 0.930 . S
N86 Co66 2.194 . S
N86 C81 1.328 . S
N86 C85 1.315 . S
H87 C81 0.929 . S
H88 C85 0.930 . S
H89 C77 0.929 . S
H90 C79 0.929 . S
O91 Co66 2.351 . S
O91 C94 1.244 . S
O92 Co66 2.155 . S
O92 C94 1.240 . S
O93 Co66 2.096 . S
O93 C74 1.247 . S
C94 O91 1.244 . S
C94 O92 1.240 . S
H95 C69 0.931 . S
H96 C78 0.931 . S
H97 C82 0.929 . S
H98 C84 0.930 . S
Co99 N103 2.148 . S
Co99 N109 2.128 . S
Co99 N119 2.194 . S
Co99 O124 2.351 . S
Co99 O125 2.155 . S
Co99 O126 2.096 . S
C100 N103 1.301 . S
C100 N104 1.328 . S
C100 H105 0.930 . S
C101 C102 1.333 . S
C101 N103 1.317 . S
C101 H106 0.930 . S
C102 C101 1.333 . S
C102 N104 1.350 . S
C102 H128 0.931 . S
N103 Co99 2.148 . S
N103 C100 1.301 . S
N103 C101 1.317 . S
N104 C100 1.328 . S
N104 C102 1.350 . S
H105 C100 0.930 . S
H106 C101 0.930 . S
C107 O108 1.224 . S
C107 O126 1.247 . S
O108 C107 1.224 . S
N109 Co99 2.128 . S
N109 C110 1.355 . S
N109 C112 1.311 . S
C110 N109 1.355 . S
C110 C111 1.363 . S
C110 H122 0.929 . S
C111 C110 1.363 . S
C111 N113 1.375 . S
C111 H129 0.931 . S
C112 N109 1.311 . S
C112 N113 1.347 . S
C112 H123 0.929 . S
N113 C111 1.375 . S
N113 C112 1.347 . S
C114 C117 1.365 . S
C114 N119 1.328 . S
C114 H120 0.929 . S
C115 C116 1.362 . S
C115 C118 1.378 . S
C115 H130 0.929 . S
C116 C115 1.362 . S
C116 C117 1.366 . S
C117 C114 1.365 . S
C117 C116 1.366 . S
C117 H131 0.930 . S
C118 C115 1.378 . S
C118 N119 1.315 . S
C118 H121 0.930 . S
N119 Co99 2.194 . S
N119 C114 1.328 . S
N119 C118 1.315 . S
H120 C114 0.929 . S
H121 C118 0.930 . S
H122 C110 0.929 . S
H123 C112 0.929 . S
O124 Co99 2.351 . S
O124 C127 1.244 . S
O125 Co99 2.155 . S
O125 C127 1.240 . S
O126 Co99 2.096 . S
O126 C107 1.247 . S
C127 O124 1.244 . S
C127 O125 1.240 . S
H128 C102 0.931 . S
H129 C111 0.931 . S
H130 C115 0.929 . S
H131 C117 0.930 . S
Co132 N136 2.148 . S
Co132 N142 2.128 . S
Co132 N152 2.194 . S
Co132 O157 2.351 . S
Co132 O158 2.155 . S
Co132 O159 2.096 . S
C133 N136 1.301 . S
C133 N137 1.328 . S
C133 H138 0.930 . S
C134 C135 1.333 . S
C134 N136 1.317 . S
C134 H139 0.930 . S
C135 C134 1.333 . S
C135 N137 1.350 . S
C135 H161 0.931 . S
N136 Co132 2.148 . S
N136 C133 1.301 . S
N136 C134 1.317 . S
N137 C133 1.328 . S
N137 C135 1.350 . S
H138 C133 0.930 . S
H139 C134 0.930 . S
C140 O141 1.224 . S
C140 O159 1.247 . S
O141 C140 1.224 . S
N142 Co132 2.128 . S
N142 C143 1.355 . S
N142 C145 1.311 . S
C143 N142 1.355 . S
C143 C144 1.363 . S
C143 H155 0.929 . S
C144 C143 1.363 . S
C144 N146 1.375 . S
C144 H162 0.931 . S
C145 N142 1.311 . S
C145 N146 1.347 . S
C145 H156 0.929 . S
N146 C144 1.375 . S
N146 C145 1.347 . S
C147 C150 1.365 . S
C147 N152 1.328 . S
C147 H153 0.929 . S
C148 C149 1.362 . S
C148 C151 1.378 . S
C148 H163 0.929 . S
C149 C148 1.362 . S
C149 C150 1.366 . S
C150 C147 1.365 . S
C150 C149 1.366 . S
C150 H164 0.930 . S
C151 C148 1.378 . S
C151 N152 1.315 . S
C151 H154 0.930 . S
N152 Co132 2.194 . S
N152 C147 1.328 . S
N152 C151 1.315 . S
H153 C147 0.929 . S
H154 C151 0.930 . S
H155 C143 0.929 . S
H156 C145 0.929 . S
O157 Co132 2.351 . S
O157 C160 1.244 . S
O158 Co132 2.155 . S
O158 C160 1.240 . S
O159 Co132 2.096 . S
O159 C140 1.247 . S
C160 O157 1.244 . S
C160 O158 1.240 . S
H161 C135 0.931 . S
H162 C144 0.931 . S
H163 C148 0.929 . S
H164 C150 0.930 . S
Co165 N169 2.148 1_556 S
Co165 N175 2.128 . S
Co165 N185 2.194 . S
Co165 O190 2.351 . S
Co165 O191 2.155 . S
Co165 O192 2.096 . S
C166 N169 1.301 . S
C166 N170 1.328 . S
C166 H171 0.930 . S
C167 C168 1.333 . S
C167 N169 1.317 . S
C167 H172 0.930 . S
C168 C167 1.333 . S
C168 N170 1.350 . S
C168 H194 0.931 . S
N169 Co165 2.148 1_554 S
N169 C166 1.301 . S
N169 C167 1.317 . S
N170 C166 1.328 . S
N170 C168 1.350 . S
H171 C166 0.930 . S
H172 C167 0.930 . S
C173 O174 1.224 . S
C173 O192 1.247 . S
O174 C173 1.224 . S
N175 Co165 2.128 . S
N175 C176 1.355 . S
N175 C178 1.311 . S
C176 N175 1.355 . S
C176 C177 1.363 . S
C176 H188 0.929 . S
C177 C176 1.363 . S
C177 N179 1.375 . S
C177 H195 0.931 . S
C178 N175 1.311 . S
C178 N179 1.347 . S
C178 H189 0.929 . S
N179 C177 1.375 . S
N179 C178 1.347 . S
C180 C183 1.365 . S
C180 N185 1.328 . S
C180 H186 0.929 . S
C181 C182 1.362 . S
C181 C184 1.378 . S
C181 H196 0.929 . S
C182 C181 1.362 . S
C182 C183 1.366 . S
C183 C180 1.365 . S
C183 C182 1.366 . S
C183 H197 0.930 . S
C184 C181 1.378 . S
C184 N185 1.315 . S
C184 H187 0.930 . S
N185 Co165 2.194 . S
N185 C180 1.328 . S
N185 C184 1.315 . S
H186 C180 0.929 . S
H187 C184 0.930 . S
H188 C176 0.929 . S
H189 C178 0.929 . S
O190 Co165 2.351 . S
O190 C193 1.244 . S
O191 Co165 2.155 . S
O191 C193 1.240 . S
O192 Co165 2.096 . S
O192 C173 1.247 . S
C193 O190 1.244 . S
C193 O191 1.240 . S
H194 C168 0.931 . S
H195 C177 0.931 . S
H196 C181 0.929 . S
H197 C183 0.930 . S
Co198 N202 2.148 . S
Co198 N208 2.128 . S
Co198 N218 2.194 . S
Co198 O223 2.351 . S
Co198 O224 2.155 . S
Co198 O225 2.096 . S
C199 N202 1.301 . S
C199 N203 1.328 . S
C199 H204 0.930 . S
C200 C201 1.333 . S
C200 N202 1.317 . S
C200 H205 0.930 . S
C201 C200 1.333 . S
C201 N203 1.350 . S
C201 H227 0.931 . S
N202 Co198 2.148 . S
N202 C199 1.301 . S
N202 C200 1.317 . S
N203 C199 1.328 . S
N203 C201 1.350 . S
H204 C199 0.930 . S
H205 C200 0.930 . S
C206 O207 1.224 . S
C206 O225 1.247 . S
O207 C206 1.224 . S
N208 Co198 2.128 . S
N208 C209 1.355 . S
N208 C211 1.311 . S
C209 N208 1.355 . S
C209 C210 1.363 . S
C209 H221 0.929 . S
C210 C209 1.363 . S
C210 N212 1.375 . S
C210 H228 0.931 . S
C211 N208 1.311 . S
C211 N212 1.347 . S
C211 H222 0.929 . S
N212 C210 1.375 . S
N212 C211 1.347 . S
C213 C216 1.365 . S
C213 N218 1.328 . S
C213 H219 0.929 . S
C214 C215 1.362 . S
C214 C217 1.378 . S
C214 H229 0.929 . S
C215 C214 1.362 . S
C215 C216 1.366 . S
C216 C213 1.365 . S
C216 C215 1.366 . S
C216 H230 0.930 . S
C217 C214 1.378 . S
C217 N218 1.315 . S
C217 H220 0.930 . S
N218 Co198 2.194 . S
N218 C213 1.328 . S
N218 C217 1.315 . S
H219 C213 0.929 . S
H220 C217 0.930 . S
H221 C209 0.929 . S
H222 C211 0.929 . S
O223 Co198 2.351 . S
O223 C226 1.244 . S
O224 Co198 2.155 . S
O224 C226 1.240 . S
O225 Co198 2.096 . S
O225 C206 1.247 . S
C226 O223 1.244 . S
C226 O224 1.240 . S
H227 C201 0.931 . S
H228 C210 0.931 . S
H229 C214 0.929 . S
H230 C216 0.930 . S
Co231 N235 2.148 . S
Co231 N241 2.128 . S
Co231 N251 2.194 . S
Co231 O256 2.351 . S
Co231 O257 2.155 . S
Co231 O258 2.096 . S
C232 N235 1.301 . S
C232 N236 1.328 . S
C232 H237 0.930 . S
C233 C234 1.333 . S
C233 N235 1.317 . S
C233 H238 0.930 . S
C234 C233 1.333 . S
C234 N236 1.350 . S
C234 H260 0.931 . S
N235 Co231 2.148 . S
N235 C232 1.301 . S
N235 C233 1.317 . S
N236 C232 1.328 . S
N236 C234 1.350 . S
H237 C232 0.930 . S
H238 C233 0.930 . S
C239 O240 1.224 . S
C239 O258 1.247 . S
O240 C239 1.224 . S
N241 Co231 2.128 . S
N241 C242 1.355 . S
N241 C244 1.311 . S
C242 N241 1.355 . S
C242 C243 1.363 . S
C242 H254 0.929 . S
C243 C242 1.363 . S
C243 N245 1.375 . S
C243 H261 0.931 . S
C244 N241 1.311 . S
C244 N245 1.347 . S
C244 H255 0.929 . S
N245 C243 1.375 . S
N245 C244 1.347 . S
C246 C249 1.365 . S
C246 N251 1.328 . S
C246 H252 0.929 . S
C247 C248 1.362 . S
C247 C250 1.378 . S
C247 H262 0.929 . S
C248 C247 1.362 . S
C248 C249 1.366 . S
C249 C246 1.365 . S
C249 C248 1.366 . S
C249 H263 0.930 . S
C250 C247 1.378 . S
C250 N251 1.315 . S
C250 H253 0.930 . S
N251 Co231 2.194 . S
N251 C246 1.328 . S
N251 C250 1.315 . S
H252 C246 0.929 . S
H253 C250 0.930 . S
H254 C242 0.929 . S
H255 C244 0.929 . S
O256 Co231 2.351 . S
O256 C259 1.244 . S
O257 Co231 2.155 . S
O257 C259 1.240 . S
O258 Co231 2.096 . S
O258 C239 1.247 . S
C259 O256 1.244 . S
C259 O257 1.240 . S
H260 C234 0.931 . S
H261 C243 0.931 . S
H262 C247 0.929 . S
H263 C249 0.930 . S
Co264 N268 2.148 1_554 S
Co264 N274 2.128 . S
Co264 N284 2.194 . S
Co264 O289 2.351 . S
Co264 O290 2.155 . S
Co264 O291 2.096 . S
C265 N268 1.301 . S
C265 N269 1.328 . S
C265 H270 0.930 . S
C266 C267 1.333 . S
C266 N268 1.317 . S
C266 H271 0.930 . S
C267 C266 1.333 . S
C267 N269 1.350 . S
C267 H293 0.931 . S
N268 Co264 2.148 1_556 S
N268 C265 1.301 . S
N268 C266 1.317 . S
N269 C265 1.328 . S
N269 C267 1.350 . S
H270 C265 0.930 . S
H271 C266 0.930 . S
C272 O273 1.224 . S
C272 O291 1.247 . S
O273 C272 1.224 . S
N274 Co264 2.128 . S
N274 C275 1.355 . S
N274 C277 1.311 . S
C275 N274 1.355 . S
C275 C276 1.363 . S
C275 H287 0.929 . S
C276 C275 1.363 . S
C276 N278 1.375 . S
C276 H294 0.931 . S
C277 N274 1.311 . S
C277 N278 1.347 . S
C277 H288 0.929 . S
N278 C276 1.375 . S
N278 C277 1.347 . S
C279 C282 1.365 . S
C279 N284 1.328 . S
C279 H285 0.929 . S
C280 C281 1.362 . S
C280 C283 1.378 . S
C280 H295 0.929 . S
C281 C280 1.362 . S
C281 C282 1.366 . S
C282 C279 1.365 . S
C282 C281 1.366 . S
C282 H296 0.930 . S
C283 C280 1.378 . S
C283 N284 1.315 . S
C283 H286 0.930 . S
N284 Co264 2.194 . S
N284 C279 1.328 . S
N284 C283 1.315 . S
H285 C279 0.929 . S
H286 C283 0.930 . S
H287 C275 0.929 . S
H288 C277 0.929 . S
O289 Co264 2.351 . S
O289 C292 1.244 . S
O290 Co264 2.155 . S
O290 C292 1.240 . S
O291 Co264 2.096 . S
O291 C272 1.247 . S
C292 O289 1.244 . S
C292 O290 1.240 . S
H293 C267 0.931 . S
H294 C276 0.931 . S
H295 C280 0.929 . S
H296 C282 0.930 . S
Co297 N301 2.148 . S
Co297 N307 2.128 . S
Co297 N317 2.194 . S
Co297 O322 2.351 . S
Co297 O323 2.155 . S
Co297 O324 2.096 . S
C298 N301 1.301 . S
C298 N302 1.328 . S
C298 H303 0.930 . S
C299 C300 1.333 . S
C299 N301 1.317 . S
C299 H304 0.930 . S
C300 C299 1.333 . S
C300 N302 1.350 . S
C300 H326 0.931 . S
N301 Co297 2.148 . S
N301 C298 1.301 . S
N301 C299 1.317 . S
N302 C298 1.328 . S
N302 C300 1.350 . S
H303 C298 0.930 . S
H304 C299 0.930 . S
C305 O306 1.224 . S
C305 O324 1.247 . S
O306 C305 1.224 . S
N307 Co297 2.128 . S
N307 C308 1.355 . S
N307 C310 1.311 . S
C308 N307 1.355 . S
C308 C309 1.363 . S
C308 H320 0.929 . S
C309 C308 1.363 . S
C309 N311 1.375 . S
C309 H327 0.931 . S
C310 N307 1.311 . S
C310 N311 1.347 . S
C310 H321 0.929 . S
N311 C309 1.375 . S
N311 C310 1.347 . S
C312 C315 1.365 . S
C312 N317 1.328 . S
C312 H318 0.929 . S
C313 C314 1.362 . S
C313 C316 1.378 . S
C313 H328 0.929 . S
C314 C313 1.362 . S
C314 C315 1.366 . S
C315 C312 1.365 . S
C315 C314 1.366 . S
C315 H329 0.930 . S
C316 C313 1.378 . S
C316 N317 1.315 . S
C316 H319 0.930 . S
N317 Co297 2.194 . S
N317 C312 1.328 . S
N317 C316 1.315 . S
H318 C312 0.929 . S
H319 C316 0.930 . S
H320 C308 0.929 . S
H321 C310 0.929 . S
O322 Co297 2.351 . S
O322 C325 1.244 . S
O323 Co297 2.155 . S
O323 C325 1.240 . S
O324 Co297 2.096 . S
O324 C305 1.247 . S
C325 O322 1.244 . S
C325 O323 1.240 . S
H326 C300 0.931 . S
H327 C309 0.931 . S
H328 C313 0.929 . S
H329 C315 0.930 . S
Co330 N334 2.148 . S
Co330 N340 2.128 . S
Co330 N350 2.194 . S
Co330 O355 2.351 . S
Co330 O356 2.155 . S
Co330 O357 2.096 . S
C331 N334 1.301 . S
C331 N335 1.328 . S
C331 H336 0.930 . S
C332 C333 1.333 . S
C332 N334 1.317 . S
C332 H337 0.930 . S
C333 C332 1.333 . S
C333 N335 1.350 . S
C333 H359 0.931 . S
N334 Co330 2.148 . S
N334 C331 1.301 . S
N334 C332 1.317 . S
N335 C331 1.328 . S
N335 C333 1.350 . S
H336 C331 0.930 . S
H337 C332 0.930 . S
C338 O339 1.224 . S
C338 O357 1.247 . S
O339 C338 1.224 . S
N340 Co330 2.128 . S
N340 C341 1.355 . S
N340 C343 1.311 . S
C341 N340 1.355 . S
C341 C342 1.363 . S
C341 H353 0.929 . S
C342 C341 1.363 . S
C342 N344 1.375 . S
C342 H360 0.931 . S
C343 N340 1.311 . S
C343 N344 1.347 . S
C343 H354 0.929 . S
N344 C342 1.375 . S
N344 C343 1.347 . S
C345 C348 1.365 . S
C345 N350 1.328 . S
C345 H351 0.929 . S
C346 C347 1.362 . S
C346 C349 1.378 . S
C346 H361 0.929 . S
C347 C346 1.362 . S
C347 C348 1.366 . S
C348 C345 1.365 . S
C348 C347 1.366 . S
C348 H362 0.930 . S
C349 C346 1.378 . S
C349 N350 1.315 . S
C349 H352 0.930 . S
N350 Co330 2.194 . S
N350 C345 1.328 . S
N350 C349 1.315 . S
H351 C345 0.929 . S
H352 C349 0.930 . S
H353 C341 0.929 . S
H354 C343 0.929 . S
O355 Co330 2.351 . S
O355 C358 1.244 . S
O356 Co330 2.155 . S
O356 C358 1.240 . S
O357 Co330 2.096 . S
O357 C338 1.247 . S
C358 O355 1.244 . S
C358 O356 1.240 . S
H359 C333 0.931 . S
H360 C342 0.931 . S
H361 C346 0.929 . S
H362 C348 0.930 . S
Co363 N367 2.148 1_554 S
Co363 N373 2.128 . S
Co363 N383 2.194 . S
Co363 O388 2.351 . S
Co363 O389 2.155 . S
Co363 O390 2.096 . S
C364 N367 1.301 . S
C364 N368 1.328 . S
C364 H369 0.930 . S
C365 C366 1.333 . S
C365 N367 1.317 . S
C365 H370 0.930 . S
C366 C365 1.333 . S
C366 N368 1.350 . S
C366 H392 0.931 . S
N367 Co363 2.148 1_556 S
N367 C364 1.301 . S
N367 C365 1.317 . S
N368 C364 1.328 . S
N368 C366 1.350 . S
H369 C364 0.930 . S
H370 C365 0.930 . S
C371 O372 1.224 . S
C371 O390 1.247 . S
O372 C371 1.224 . S
N373 Co363 2.128 . S
N373 C374 1.355 . S
N373 C376 1.311 . S
C374 N373 1.355 . S
C374 C375 1.363 . S
C374 H386 0.929 . S
C375 C374 1.363 . S
C375 N377 1.375 . S
C375 H393 0.931 . S
C376 N373 1.311 . S
C376 N377 1.347 . S
C376 H387 0.929 . S
N377 C375 1.375 . S
N377 C376 1.347 . S
C378 C381 1.365 . S
C378 N383 1.328 . S
C378 H384 0.929 . S
C379 C380 1.362 . S
C379 C382 1.378 . S
C379 H394 0.929 . S
C380 C379 1.362 . S
C380 C381 1.366 . S
C381 C378 1.365 . S
C381 C380 1.366 . S
C381 H395 0.930 . S
C382 C379 1.378 . S
C382 N383 1.315 . S
C382 H385 0.930 . S
N383 Co363 2.194 . S
N383 C378 1.328 . S
N383 C382 1.315 . S
H384 C378 0.929 . S
H385 C382 0.930 . S
H386 C374 0.929 . S
H387 C376 0.929 . S
O388 Co363 2.351 . S
O388 C391 1.244 . S
O389 Co363 2.155 . S
O389 C391 1.240 . S
O390 Co363 2.096 . S
O390 C371 1.247 . S
C391 O388 1.244 . S
C391 O389 1.240 . S
H392 C366 0.931 . S
H393 C375 0.931 . S
H394 C379 0.929 . S
H395 C381 0.930 . S
H396 C408 0.930 . S
H397 C410 0.930 . S
H398 C411 0.930 . S
H399 C415 0.959 . S
H400 C415 0.959 . S
H401 C415 0.961 . S
H402 C416 0.960 . S
H403 C416 0.961 1_556 S
H404 C416 0.959 . S
H405 C419 0.929 . S
H406 C420 0.931 . S
H407 C422 0.930 . S
C408 H396 0.930 . S
C408 C409 1.399 . S
C408 C413 1.399 . S
C409 C408 1.399 . S
C409 C410 1.376 . S
C410 H397 0.930 . S
C410 C409 1.376 . S
C410 C411 1.388 . S
C411 H398 0.930 . S
C411 C410 1.388 . S
C411 C412 1.390 . S
C412 C411 1.390 . S
C412 C413 1.394 . S
C412 C418 1.465 1_554 S
C413 C408 1.399 . S
C413 C412 1.394 . S
C413 C414 1.516 1_554 S
C414 C413 1.516 1_556 S
C414 C415 1.502 . S
C414 C416 1.561 1_556 S
C414 C417 1.526 . S
C415 H399 0.959 . S
C415 H400 0.959 . S
C415 H401 0.961 . S
C415 C414 1.502 . S
C416 H402 0.960 . S
C416 H403 0.961 1_554 S
C416 H404 0.959 . S
C416 C414 1.561 1_554 S
C417 C414 1.526 . S
C417 C418 1.396 . S
C417 C422 1.390 . S
C418 C412 1.465 1_556 S
C418 C417 1.396 . S
C418 C419 1.399 . S
C419 H405 0.929 . S
C419 C418 1.399 . S
C419 C420 1.385 . S
C420 H406 0.931 . S
C420 C419 1.385 . S
C420 C421 1.389 . S
C421 C420 1.389 . S
C421 C422 1.387 . S
C422 H407 0.930 . S
C422 C417 1.390 . S
C422 C421 1.387 . S
H423 C435 0.930 . S
H424 C437 0.930 . S
H425 C438 0.930 . S
H426 C442 0.959 . S
H427 C442 0.959 . S
H428 C442 0.961 . S
H429 C443 0.960 . S
H430 C443 0.961 . S
H431 C443 0.959 . S
H432 C446 0.929 . S
H433 C447 0.931 . S
H434 C449 0.930 . S
C435 H423 0.930 . S
C435 C436 1.399 . S
C435 C440 1.399 . S
C436 C435 1.399 . S
C436 C437 1.376 . S
C437 H424 0.930 . S
C437 C436 1.376 . S
C437 C438 1.388 . S
C438 H425 0.930 . S
C438 C437 1.388 . S
C438 C439 1.390 . S
C439 C438 1.390 . S
C439 C440 1.394 . S
C439 C445 1.465 . S
C440 C435 1.399 . S
C440 C439 1.394 . S
C440 C441 1.516 . S
C441 C440 1.516 . S
C441 C442 1.502 . S
C441 C443 1.561 . S
C441 C444 1.526 . S
C442 H426 0.959 . S
C442 H427 0.959 . S
C442 H428 0.961 . S
C442 C441 1.502 . S
C443 H429 0.960 . S
C443 H430 0.961 . S
C443 H431 0.959 . S
C443 C441 1.561 . S
C444 C441 1.526 . S
C444 C445 1.396 . S
C444 C449 1.390 . S
C445 C439 1.465 . S
C445 C444 1.396 . S
C445 C446 1.399 . S
C446 H432 0.929 . S
C446 C445 1.399 . S
C446 C447 1.385 . S
C447 H433 0.931 . S
C447 C446 1.385 . S
C447 C448 1.389 . S
C448 C447 1.389 . S
C448 C449 1.387 . S
C449 H434 0.930 . S
C449 C444 1.390 . S
C449 C448 1.387 . S
H450 C462 0.930 . S
H451 C464 0.930 . S
H452 C465 0.930 . S
H453 C469 0.959 . S
H454 C469 0.959 . S
H455 C469 0.961 . S
H456 C470 0.960 . S
H457 C470 0.961 . S
H458 C470 0.959 . S
H459 C473 0.929 . S
H460 C474 0.931 . S
H461 C476 0.930 . S
C462 H450 0.930 . S
C462 C463 1.399 . S
C462 C467 1.399 . S
C463 C462 1.399 . S
C463 C464 1.376 . S
C464 H451 0.930 . S
C464 C463 1.376 . S
C464 C465 1.388 . S
C465 H452 0.930 . S
C465 C464 1.388 . S
C465 C466 1.390 . S
C466 C465 1.390 . S
C466 C467 1.394 . S
C466 C472 1.465 . S
C467 C462 1.399 . S
C467 C466 1.394 . S
C467 C468 1.516 . S
C468 C467 1.516 . S
C468 C469 1.502 . S
C468 C470 1.561 . S
C468 C471 1.526 . S
C469 H453 0.959 . S
C469 H454 0.959 . S
C469 H455 0.961 . S
C469 C468 1.502 . S
C470 H456 0.960 . S
C470 H457 0.961 . S
C470 H458 0.959 . S
C470 C468 1.561 . S
C471 C468 1.526 . S
C471 C472 1.396 . S
C471 C476 1.390 . S
C472 C466 1.465 . S
C472 C471 1.396 . S
C472 C473 1.399 . S
C473 H459 0.929 . S
C473 C472 1.399 . S
C473 C474 1.385 . S
C474 H460 0.931 . S
C474 C473 1.385 . S
C474 C475 1.389 . S
C475 C474 1.389 . S
C475 C476 1.387 . S
C476 H461 0.930 . S
C476 C471 1.390 . S
C476 C475 1.387 . S
H477 C489 0.930 . S
H478 C491 0.930 . S
H479 C492 0.930 . S
H480 C496 0.959 . S
H481 C496 0.959 . S
H482 C496 0.961 . S
H483 C497 0.966 . S
H484 C497 0.958 1_554 S
H485 C497 0.954 1_554 S
H486 C500 0.929 . S
H487 C501 0.931 . S
H488 C503 0.930 . S
C489 H477 0.930 . S
C489 C490 1.399 . S
C489 C494 1.399 . S
C490 C489 1.399 . S
C490 C491 1.376 . S
C491 H478 0.930 . S
C491 C490 1.376 . S
C491 C492 1.388 . S
C492 H479 0.930 . S
C492 C491 1.388 . S
C492 C493 1.390 . S
C493 C492 1.390 . S
C493 C494 1.394 . S
C493 C499 1.465 1_556 S
C494 C489 1.399 . S
C494 C493 1.394 . S
C494 C495 1.516 . S
C495 C494 1.516 . S
C495 C496 1.502 . S
C495 C497 1.563 . S
C495 C498 1.526 1_556 S
C496 H480 0.959 . S
C496 H481 0.959 . S
C496 H482 0.961 . S
C496 C495 1.502 . S
C497 H483 0.966 . S
C497 H484 0.958 1_556 S
C497 H485 0.954 1_556 S
C497 C495 1.563 . S
C498 C495 1.526 1_554 S
C498 C499 1.396 . S
C498 C503 1.390 . S
C499 C493 1.465 1_554 S
C499 C498 1.396 . S
C499 C500 1.399 . S
C500 H486 0.929 . S
C500 C499 1.399 . S
C500 C501 1.385 . S
C501 H487 0.931 . S
C501 C500 1.385 . S
C501 C502 1.389 . S
C502 C501 1.389 . S
C502 C503 1.387 . S
C503 H488 0.930 . S
C503 C498 1.390 . S
C503 C502 1.387 . S
H504 C516 0.930 . S
H505 C518 0.930 . S
H506 C519 0.930 . S
H507 C523 0.959 . S
H508 C523 0.959 . S
H509 C523 0.961 . S
H510 C524 0.960 . S
H511 C524 0.961 . S
H512 C524 0.959 . S
H513 C527 0.929 . S
H514 C528 0.931 . S
H515 C530 0.930 . S
C516 H504 0.930 . S
C516 C517 1.399 . S
C516 C521 1.399 . S
C517 C516 1.399 . S
C517 C518 1.376 . S
C518 H505 0.930 . S
C518 C517 1.376 . S
C518 C519 1.388 . S
C519 H506 0.930 . S
C519 C518 1.388 . S
C519 C520 1.390 . S
C520 C519 1.390 . S
C520 C521 1.394 . S
C520 C526 1.465 . S
C521 C516 1.399 . S
C521 C520 1.394 . S
C521 C522 1.516 . S
C522 C521 1.516 . S
C522 C523 1.502 . S
C522 C524 1.561 . S
C522 C525 1.526 . S
C523 H507 0.959 . S
C523 H508 0.959 . S
C523 H509 0.961 . S
C523 C522 1.502 . S
C524 H510 0.960 . S
C524 H511 0.961 . S
C524 H512 0.959 . S
C524 C522 1.561 . S
C525 C522 1.526 . S
C525 C526 1.396 . S
C525 C530 1.390 . S
C526 C520 1.465 . S
C526 C525 1.396 . S
C526 C527 1.399 . S
C527 H513 0.929 . S
C527 C526 1.399 . S
C527 C528 1.385 . S
C528 H514 0.931 . S
C528 C527 1.385 . S
C528 C529 1.389 . S
C529 C528 1.389 . S
C529 C530 1.387 . S
C530 H515 0.930 . S
C530 C525 1.390 . S
C530 C529 1.387 . S
H531 C543 0.930 . S
H532 C545 0.930 . S
H533 C546 0.930 . S
H534 C550 0.959 . S
H535 C550 0.959 . S
H536 C550 0.961 . S
H537 C551 0.960 . S
H538 C551 0.961 . S
H539 C551 0.959 . S
H540 C554 0.929 . S
H541 C555 0.931 . S
H542 C557 0.930 . S
C543 H531 0.930 . S
C543 C544 1.399 . S
C543 C548 1.399 . S
C544 C543 1.399 . S
C544 C545 1.376 . S
C545 H532 0.930 . S
C545 C544 1.376 . S
C545 C546 1.388 . S
C546 H533 0.930 . S
C546 C545 1.388 . S
C546 C547 1.390 . S
C547 C546 1.390 . S
C547 C548 1.394 . S
C547 C553 1.465 . S
C548 C543 1.399 . S
C548 C547 1.394 . S
C548 C549 1.516 . S
C549 C548 1.516 . S
C549 C550 1.502 . S
C549 C551 1.561 . S
C549 C552 1.526 . S
C550 H534 0.959 . S
C550 H535 0.959 . S
C550 H536 0.961 . S
C550 C549 1.502 . S
C551 H537 0.960 . S
C551 H538 0.961 . S
C551 H539 0.959 . S
C551 C549 1.561 . S
C552 C549 1.526 . S
C552 C553 1.396 . S
C552 C557 1.390 . S
C553 C547 1.465 . S
C553 C552 1.396 . S
C553 C554 1.399 . S
C554 H540 0.929 . S
C554 C553 1.399 . S
C554 C555 1.385 . S
C555 H541 0.931 . S
C555 C554 1.385 . S
C555 C556 1.389 . S
C556 C555 1.389 . S
C556 C557 1.387 . S
C557 H542 0.930 . S
C557 C552 1.390 . S
C557 C556 1.387 . S
H558 C570 0.930 . S
H559 C572 0.930 . S
H560 C573 0.930 . S
H561 C577 0.959 . S
H562 C577 0.959 . S
H563 C577 0.961 . S
H564 C578 0.960 . S
H565 C578 0.961 . S
H566 C578 0.959 . S
H567 C581 0.929 . S
H568 C582 0.931 . S
H569 C584 0.930 . S
C570 H558 0.930 . S
C570 C571 1.399 . S
C570 C575 1.399 . S
C571 C570 1.399 . S
C571 C572 1.376 . S
C572 H559 0.930 . S
C572 C571 1.376 . S
C572 C573 1.388 . S
C573 H560 0.930 . S
C573 C572 1.388 . S
C573 C574 1.390 . S
C574 C573 1.390 . S
C574 C575 1.394 . S
C574 C580 1.465 . S
C575 C570 1.399 . S
C575 C574 1.394 . S
C575 C576 1.516 . S
C576 C575 1.516 . S
C576 C577 1.502 . S
C576 C578 1.561 . S
C576 C579 1.526 . S
C577 H561 0.959 . S
C577 H562 0.959 . S
C577 H563 0.961 . S
C577 C576 1.502 . S
C578 H564 0.960 . S
C578 H565 0.961 . S
C578 H566 0.959 . S
C578 C576 1.561 . S
C579 C576 1.526 . S
C579 C580 1.396 . S
C579 C584 1.390 . S
C580 C574 1.465 . S
C580 C579 1.396 . S
C580 C581 1.399 . S
C581 H567 0.929 . S
C581 C580 1.399 . S
C581 C582 1.385 . S
C582 H568 0.931 . S
C582 C581 1.385 . S
C582 C583 1.389 . S
C583 C582 1.389 . S
C583 C584 1.387 . S
C584 H569 0.930 . S
C584 C579 1.390 . S
C584 C583 1.387 . S
H585 C597 0.930 . S
H586 C599 0.930 . S
H587 C600 0.930 . S
H588 C604 0.959 . S
H589 C604 0.959 . S
H590 C604 0.961 . S
H591 C605 0.960 . S
H592 C605 0.961 . S
H593 C605 0.959 . S
H594 C608 0.929 . S
H595 C609 0.931 . S
H596 C611 0.930 . S
C597 H585 0.930 . S
C597 C598 1.399 . S
C597 C602 1.399 . S
C598 C597 1.399 . S
C598 C599 1.376 . S
C599 H586 0.930 . S
C599 C598 1.376 . S
C599 C600 1.388 . S
C600 H587 0.930 . S
C600 C599 1.388 . S
C600 C601 1.390 . S
C601 C600 1.390 . S
C601 C602 1.394 . S
C601 C607 1.465 . S
C602 C597 1.399 . S
C602 C601 1.394 . S
C602 C603 1.516 . S
C603 C602 1.516 . S
C603 C604 1.502 . S
C603 C605 1.561 . S
C603 C606 1.526 . S
C604 H588 0.959 . S
C604 H589 0.959 . S
C604 H590 0.961 . S
C604 C603 1.502 . S
C605 H591 0.960 . S
C605 H592 0.961 . S
C605 H593 0.959 . S
C605 C603 1.561 . S
C606 C603 1.526 . S
C606 C607 1.396 . S
C606 C611 1.390 . S
C607 C601 1.465 . S
C607 C606 1.396 . S
C607 C608 1.399 . S
C608 H594 0.929 . S
C608 C607 1.399 . S
C608 C609 1.385 . S
C609 H595 0.931 . S
C609 C608 1.385 . S
C609 C610 1.389 . S
C610 C609 1.389 . S
C610 C611 1.387 . S
C611 H596 0.930 . S
C611 C606 1.390 . S
C611 C610 1.387 . S
H612 C624 0.930 . S
H613 C626 0.930 . S
H614 C627 0.930 . S
H615 C631 0.959 . S
H616 C631 0.959 . S
H617 C631 0.961 . S
H618 C632 0.960 . S
H619 C632 0.961 . S
H620 C632 0.959 1_556 S
H621 C635 0.929 . S
H622 C636 0.931 . S
H623 C638 0.930 . S
C624 H612 0.930 . S
C624 C625 1.399 1_554 S
C624 C629 1.399 . S
C625 C624 1.399 1_556 S
C625 C626 1.376 . S
C626 H613 0.930 . S
C626 C625 1.376 . S
C626 C627 1.388 . S
C627 H614 0.930 . S
C627 C626 1.388 . S
C627 C628 1.390 . S
C628 C627 1.390 . S
C628 C629 1.394 1_556 S
C628 C634 1.465 . S
C629 C624 1.399 . S
C629 C628 1.394 1_554 S
C629 C630 1.516 . S
C630 C629 1.516 . S
C630 C631 1.502 . S
C630 C632 1.561 . S
C630 C633 1.526 . S
C631 H615 0.959 . S
C631 H616 0.959 . S
C631 H617 0.961 . S
C631 C630 1.502 . S
C632 H618 0.960 . S
C632 H619 0.961 . S
C632 H620 0.959 1_554 S
C632 C630 1.561 . S
C633 C630 1.526 . S
C633 C634 1.396 1_554 S
C633 C638 1.390 . S
C634 C628 1.465 . S
C634 C633 1.396 1_556 S
C634 C635 1.399 . S
C635 H621 0.929 . S
C635 C634 1.399 . S
C635 C636 1.385 . S
C636 H622 0.931 . S
C636 C635 1.385 . S
C636 C637 1.389 1_556 S
C637 C636 1.389 1_554 S
C637 C638 1.387 . S
C638 H623 0.930 . S
C638 C633 1.390 . S
C638 C637 1.387 . S
H639 C651 0.930 . S
H640 C653 0.930 . S
H641 C654 0.930 . S
H642 C658 0.959 . S
H643 C658 0.959 . S
H644 C658 0.961 . S
H645 C659 0.960 . S
H646 C659 0.961 . S
H647 C659 0.959 . S
H648 C662 0.929 . S
H649 C663 0.931 . S
H650 C665 0.930 . S
C651 H639 0.930 . S
C651 C652 1.399 . S
C651 C656 1.399 . S
C652 C651 1.399 . S
C652 C653 1.376 . S
C653 H640 0.930 . S
C653 C652 1.376 . S
C653 C654 1.388 . S
C654 H641 0.930 . S
C654 C653 1.388 . S
C654 C655 1.390 . S
C655 C654 1.390 . S
C655 C656 1.394 . S
C655 C661 1.465 . S
C656 C651 1.399 . S
C656 C655 1.394 . S
C656 C657 1.516 . S
C657 C656 1.516 . S
C657 C658 1.502 . S
C657 C659 1.561 . S
C657 C660 1.526 . S
C658 H642 0.959 . S
C658 H643 0.959 . S
C658 H644 0.961 . S
C658 C657 1.502 . S
C659 H645 0.960 . S
C659 H646 0.961 . S
C659 H647 0.959 . S
C659 C657 1.561 . S
C660 C657 1.526 . S
C660 C661 1.396 . S
C660 C665 1.390 . S
C661 C655 1.465 . S
C661 C660 1.396 . S
C661 C662 1.399 . S
C662 H648 0.929 . S
C662 C661 1.399 . S
C662 C663 1.385 . S
C663 H649 0.931 . S
C663 C662 1.385 . S
C663 C664 1.389 . S
C664 C663 1.389 . S
C664 C665 1.387 . S
C665 H650 0.930 . S
C665 C660 1.390 . S
C665 C664 1.387 . S
H666 C678 0.930 . S
H667 C680 0.930 . S
H668 C681 0.930 . S
H669 C685 0.959 . S
H670 C685 0.959 . S
H671 C685 0.961 . S
H672 C686 0.960 . S
H673 C686 0.961 . S
H674 C686 0.959 . S
H675 C689 0.929 . S
H676 C690 0.931 . S
H677 C692 0.930 . S
C678 H666 0.930 . S
C678 C679 1.399 . S
C678 C683 1.399 . S
C679 C678 1.399 . S
C679 C680 1.376 . S
C680 H667 0.930 . S
C680 C679 1.376 . S
C680 C681 1.388 . S
C681 H668 0.930 . S
C681 C680 1.388 . S
C681 C682 1.390 . S
C682 C681 1.390 . S
C682 C683 1.394 . S
C682 C688 1.465 . S
C683 C678 1.399 . S
C683 C682 1.394 . S
C683 C684 1.516 . S
C684 C683 1.516 . S
C684 C685 1.502 . S
C684 C686 1.561 . S
C684 C687 1.526 . S
C685 H669 0.959 . S
C685 H670 0.959 . S
C685 H671 0.961 . S
C685 C684 1.502 . S
C686 H672 0.960 . S
C686 H673 0.961 . S
C686 H674 0.959 . S
C686 C684 1.561 . S
C687 C684 1.526 . S
C687 C688 1.396 . S
C687 C692 1.390 . S
C688 C682 1.465 . S
C688 C687 1.396 . S
C688 C689 1.399 . S
C689 H675 0.929 . S
C689 C688 1.399 . S
C689 C690 1.385 . S
C690 H676 0.931 . S
C690 C689 1.385 . S
C690 C691 1.389 . S
C691 C690 1.389 . S
C691 C692 1.387 . S
C692 H677 0.930 . S
C692 C687 1.390 . S
C692 C691 1.387 . S
H693 C705 0.930 . S
H694 C707 0.930 . S
H695 C708 0.930 . S
H696 C712 0.959 . S
H697 C712 0.959 . S
H698 C712 0.961 . S
H699 C713 0.960 . S
H700 C713 0.961 . S
H701 C713 0.959 . S
H702 C716 0.929 . S
H703 C717 0.931 . S
H704 C719 0.930 . S
C705 H693 0.930 . S
C705 C706 1.399 1_556 S
C705 C710 1.399 . S
C706 C705 1.399 1_554 S
C706 C707 1.376 . S
C707 H694 0.930 . S
C707 C706 1.376 . S
C707 C708 1.388 . S
C708 H695 0.930 . S
C708 C707 1.388 . S
C708 C709 1.390 . S
C709 C708 1.390 . S
C709 C710 1.394 1_554 S
C709 C715 1.465 . S
C710 C705 1.399 . S
C710 C709 1.394 1_556 S
C710 C711 1.516 . S
C711 C710 1.516 . S
C711 C712 1.502 . S
C711 C713 1.561 . S
C711 C714 1.526 . S
C712 H696 0.959 . S
C712 H697 0.959 . S
C712 H698 0.961 . S
C712 C711 1.502 . S
C713 H699 0.960 . S
C713 H700 0.961 . S
C713 H701 0.959 . S
C713 C711 1.561 . S
C714 C711 1.526 . S
C714 C715 1.396 1_556 S
C714 C719 1.390 . S
C715 C709 1.465 . S
C715 C714 1.396 1_554 S
C715 C716 1.399 . S
C716 H702 0.929 . S
C716 C715 1.399 . S
C716 C717 1.385 . S
C717 H703 0.931 . S
C717 C716 1.385 . S
C717 C718 1.389 1_554 S
C718 C717 1.389 1_556 S
C718 C719 1.387 . S
C719 H704 0.930 . S
C719 C714 1.390 . S
C719 C718 1.387 . S
H720 C732 0.930 . S
H721 C734 0.930 . S
H722 C735 0.930 . S
H723 C739 0.959 . S
H724 C739 0.959 . S
H725 C739 0.961 . S
H726 C740 0.960 . S
H727 C740 0.961 . S
H728 C740 0.959 . S
H729 C743 0.929 . S
H730 C744 0.931 . S
H731 C746 0.930 . S
C732 H720 0.930 . S
C732 C733 1.399 . S
C732 C737 1.399 . S
C733 C732 1.399 . S
C733 C734 1.376 . S
C734 H721 0.930 . S
C734 C733 1.376 . S
C734 C735 1.388 . S
C735 H722 0.930 . S
C735 C734 1.388 . S
C735 C736 1.390 . S
C736 C735 1.390 . S
C736 C737 1.394 . S
C736 C742 1.465 . S
C737 C732 1.399 . S
C737 C736 1.394 . S
C737 C738 1.516 . S
C738 C737 1.516 . S
C738 C739 1.502 . S
C738 C740 1.561 . S
C738 C741 1.526 . S
C739 H723 0.959 . S
C739 H724 0.959 . S
C739 H725 0.961 . S
C739 C738 1.502 . S
C740 H726 0.960 . S
C740 H727 0.961 . S
C740 H728 0.959 . S
C740 C738 1.561 . S
C741 C738 1.526 . S
C741 C742 1.396 . S
C741 C746 1.390 . S
C742 C736 1.465 . S
C742 C741 1.396 . S
C742 C743 1.399 . S
C743 H729 0.929 . S
C743 C742 1.399 . S
C743 C744 1.385 . S
C744 H730 0.931 . S
C744 C743 1.385 . S
C744 C745 1.389 . S
C745 C744 1.389 . S
C745 C746 1.387 . S
C746 H731 0.930 . S
C746 C741 1.390 . S
C746 C745 1.387 . S
H747 C759 0.930 . S
H748 C761 0.930 . S
H749 C762 0.930 . S
H750 C766 0.959 . S
H751 C766 0.959 . S
H752 C766 0.961 1_455 S
H753 C767 0.960 1_455 S
H754 C767 0.961 . S
H755 C767 0.959 . S
H756 C770 0.929 . S
H757 C771 0.931 . S
H758 C773 0.930 . S
C759 H747 0.930 . S
C759 C760 1.399 . S
C759 C764 1.399 . S
C760 C759 1.399 . S
C760 C761 1.376 . S
C761 H748 0.930 . S
C761 C760 1.376 . S
C761 C762 1.388 . S
C762 H749 0.930 . S
C762 C761 1.388 . S
C762 C763 1.390 . S
C763 C762 1.390 . S
C763 C764 1.394 . S
C763 C769 1.465 1_455 S
C764 C759 1.399 . S
C764 C763 1.394 . S
C764 C765 1.516 1_455 S
C765 C764 1.516 1_655 S
C765 C766 1.502 . S
C765 C767 1.561 . S
C765 C768 1.526 . S
C766 H750 0.959 . S
C766 H751 0.959 . S
C766 H752 0.961 1_655 S
C766 C765 1.502 . S
C767 H753 0.960 1_655 S
C767 H754 0.961 . S
C767 H755 0.959 . S
C767 C765 1.561 . S
C768 C765 1.526 . S
C768 C769 1.396 . S
C768 C773 1.390 . S
C769 C763 1.465 1_655 S
C769 C768 1.396 . S
C769 C770 1.399 . S
C770 H756 0.929 . S
C770 C769 1.399 . S
C770 C771 1.385 . S
C771 H757 0.931 . S
C771 C770 1.385 . S
C771 C772 1.389 . S
C772 C771 1.389 . S
C772 C773 1.387 . S
C773 H758 0.930 . S
C773 C768 1.390 . S
C773 C772 1.387 . S
H774 C786 0.930 . S
H775 C788 0.930 . S
H776 C789 0.930 . S
H777 C793 0.958 1_565 S
H778 C793 0.959 1_565 S
H779 C793 0.961 . S
H780 C794 0.960 . S
H781 C794 0.961 1_565 S
H782 C794 0.959 . S
H783 C797 0.929 . S
H784 C798 0.931 . S
H785 C800 0.930 . S
C786 H774 0.930 . S
C786 C787 1.399 1_556 S
C786 C791 1.399 . S
C787 C786 1.399 1_554 S
C787 C788 1.376 . S
C788 H775 0.930 . S
C788 C787 1.376 . S
C788 C789 1.388 . S
C789 H776 0.930 . S
C789 C788 1.388 . S
C789 C790 1.390 . S
C790 C789 1.390 . S
C790 C791 1.394 1_554 S
C790 C796 1.465 1_545 S
C791 C786 1.399 . S
C791 C790 1.394 1_556 S
C791 C792 1.516 . S
C792 C791 1.516 . S
C792 C793 1.502 . S
C792 C794 1.561 . S
C792 C795 1.526 1_545 S
C793 H777 0.958 1_545 S
C793 H778 0.959 1_545 S
C793 H779 0.961 . S
C793 C792 1.502 . S
C794 H780 0.960 . S
C794 H781 0.961 1_545 S
C794 H782 0.959 . S
C794 C792 1.561 . S
C795 C792 1.526 1_565 S
C795 C796 1.396 1_556 S
C795 C800 1.390 . S
C796 C790 1.465 1_565 S
C796 C795 1.396 1_554 S
C796 C797 1.399 . S
C797 H783 0.929 . S
C797 C796 1.399 . S
C797 C798 1.385 . S
C798 H784 0.931 . S
C798 C797 1.385 . S
C798 C799 1.389 1_554 S
C799 C798 1.389 1_556 S
C799 C800 1.387 . S
C800 H785 0.930 . S
C800 C795 1.390 . S
C800 C799 1.387 . S
H801 C813 0.930 . S
H802 C815 0.930 . S
H803 C816 0.930 . S
H804 C820 0.959 . S
H805 C820 0.959 . S
H806 C820 0.961 . S
H807 C821 0.960 . S
H808 C821 0.961 . S
H809 C821 0.959 . S
H810 C824 0.929 . S
H811 C825 0.931 . S
H812 C827 0.930 . S
C813 H801 0.930 . S
C813 C814 1.399 . S
C813 C818 1.399 . S
C814 C813 1.399 . S
C814 C815 1.376 . S
C815 H802 0.930 . S
C815 C814 1.376 . S
C815 C816 1.388 . S
C816 H803 0.930 . S
C816 C815 1.388 . S
C816 C817 1.390 . S
C817 C816 1.390 . S
C817 C818 1.394 . S
C817 C823 1.465 . S
C818 C813 1.399 . S
C818 C817 1.394 . S
C818 C819 1.516 . S
C819 C818 1.516 . S
C819 C820 1.502 . S
C819 C821 1.561 . S
C819 C822 1.526 . S
C820 H804 0.959 . S
C820 H805 0.959 . S
C820 H806 0.961 . S
C820 C819 1.502 . S
C821 H807 0.960 . S
C821 H808 0.961 . S
C821 H809 0.959 . S
C821 C819 1.561 . S
C822 C819 1.526 . S
C822 C823 1.396 . S
C822 C827 1.390 . S
C823 C817 1.465 . S
C823 C822 1.396 . S
C823 C824 1.399 . S
C824 H810 0.929 . S
C824 C823 1.399 . S
C824 C825 1.385 . S
C825 H811 0.931 . S
C825 C824 1.385 . S
C825 C826 1.389 . S
C826 C825 1.389 . S
C826 C827 1.387 . S
C827 H812 0.930 . S
C827 C822 1.390 . S
C827 C826 1.387 . S
H828 C840 0.930 . S
H829 C842 0.930 . S
H830 C843 0.930 . S
H831 C847 0.959 . S
H832 C847 0.959 1_655 S
H833 C847 0.961 . S
H834 C848 0.960 . S
H835 C848 0.961 1_655 S
H836 C848 0.959 . S
H837 C851 0.929 . S
H838 C852 0.931 . S
H839 C854 0.930 . S
C840 H828 0.930 . S
C840 C841 1.399 . S
C840 C845 1.399 . S
C841 C840 1.399 . S
C841 C842 1.376 . S
C842 H829 0.930 . S
C842 C841 1.376 . S
C842 C843 1.388 . S
C843 H830 0.930 . S
C843 C842 1.388 . S
C843 C844 1.390 . S
C844 C843 1.390 . S
C844 C845 1.394 . S
C844 C850 1.465 1_455 S
C845 C840 1.399 . S
C845 C844 1.394 . S
C845 C846 1.516 . S
C846 C845 1.516 . S
C846 C847 1.502 . S
C846 C848 1.561 . S
C846 C849 1.526 1_455 S
C847 H831 0.959 . S
C847 H832 0.959 1_455 S
C847 H833 0.961 . S
C847 C846 1.502 . S
C848 H834 0.960 . S
C848 H835 0.961 1_455 S
C848 H836 0.959 . S
C848 C846 1.561 . S
C849 C846 1.526 1_655 S
C849 C850 1.396 . S
C849 C854 1.390 . S
C850 C844 1.465 1_655 S
C850 C849 1.396 . S
C850 C851 1.399 . S
C851 H837 0.929 . S
C851 C850 1.399 . S
C851 C852 1.385 . S
C852 H838 0.931 . S
C852 C851 1.385 . S
C852 C853 1.389 . S
C853 C852 1.389 . S
C853 C854 1.387 . S
C854 H839 0.930 . S
C854 C849 1.390 . S
C854 C853 1.387 . S
H855 C867 0.930 . S
H856 C869 0.930 . S
H857 C870 0.930 . S
H858 C874 0.959 . S
H859 C874 0.959 1_565 S
H860 C874 0.961 . S
H861 C875 0.960 . S
H862 C875 0.961 1_565 S
H863 C875 0.959 . S
H864 C878 0.929 . S
H865 C879 0.931 . S
H866 C881 0.930 . S
C867 H855 0.930 . S
C867 C868 1.399 1_554 S
C867 C872 1.399 . S
C868 C867 1.399 1_556 S
C868 C869 1.376 . S
C869 H856 0.930 . S
C869 C868 1.376 . S
C869 C870 1.388 . S
C870 H857 0.930 . S
C870 C869 1.388 . S
C870 C871 1.390 . S
C871 C870 1.390 . S
C871 C872 1.394 1_556 S
C871 C877 1.465 1_545 S
C872 C867 1.399 . S
C872 C871 1.394 1_554 S
C872 C873 1.516 . S
C873 C872 1.516 . S
C873 C874 1.502 . S
C873 C875 1.561 . S
C873 C876 1.526 1_545 S
C874 H858 0.959 . S
C874 H859 0.959 1_545 S
C874 H860 0.961 . S
C874 C873 1.502 . S
C875 H861 0.960 . S
C875 H862 0.961 1_545 S
C875 H863 0.959 . S
C875 C873 1.561 . S
C876 C873 1.526 1_565 S
C876 C877 1.396 1_554 S
C876 C881 1.390 . S
C877 C871 1.465 1_565 S
C877 C876 1.396 1_556 S
C877 C878 1.399 . S
C878 H864 0.929 . S
C878 C877 1.399 . S
C878 C879 1.385 . S
C879 H865 0.931 . S
C879 C878 1.385 . S
C879 C880 1.389 1_556 S
C880 C879 1.389 1_554 S
C880 C881 1.387 . S
C881 H866 0.930 . S
C881 C876 1.390 . S
C881 C880 1.387 . S
H882 C894 0.930 . S
H883 C896 0.930 . S
H884 C897 0.930 . S
H885 C901 0.959 . S
H886 C901 0.959 . S
H887 C901 0.961 . S
H888 C902 0.960 . S
H889 C902 0.961 . S
H890 C902 0.959 . S
H891 C905 0.929 . S
H892 C906 0.931 . S
H893 C908 0.930 . S
C894 H882 0.930 . S
C894 C895 1.399 . S
C894 C899 1.399 . S
C895 C894 1.399 . S
C895 C896 1.376 . S
C896 H883 0.930 . S
C896 C895 1.376 . S
C896 C897 1.388 . S
C897 H884 0.930 . S
C897 C896 1.388 . S
C897 C898 1.390 . S
C898 C897 1.390 . S
C898 C899 1.394 . S
C898 C904 1.465 . S
C899 C894 1.399 . S
C899 C898 1.394 . S
C899 C900 1.516 . S
C900 C899 1.516 . S
C900 C901 1.502 . S
C900 C902 1.561 . S
C900 C903 1.526 . S
C901 H885 0.959 . S
C901 H886 0.959 . S
C901 H887 0.961 . S
C901 C900 1.502 . S
C902 H888 0.960 . S
C902 H889 0.961 . S
C902 H890 0.959 . S
C902 C900 1.561 . S
C903 C900 1.526 . S
C903 C904 1.396 . S
C903 C908 1.390 . S
C904 C898 1.465 . S
C904 C903 1.396 . S
C904 C905 1.399 . S
C905 H891 0.929 . S
C905 C904 1.399 . S
C905 C906 1.385 . S
C906 H892 0.931 . S
C906 C905 1.385 . S
C906 C907 1.389 . S
C907 C906 1.389 . S
C907 C908 1.387 . S
C908 H893 0.930 . S
C908 C903 1.390 . S
C908 C907 1.387 . S
H909 C921 0.930 . S
H910 C923 0.930 . S
H911 C924 0.930 . S
H912 C928 0.959 . S
H913 C928 0.959 . S
H914 C928 0.961 . S
H915 C929 0.960 . S
H916 C929 0.961 . S
H917 C929 0.959 . S
H918 C932 0.929 . S
H919 C933 0.931 . S
H920 C935 0.930 . S
C921 H909 0.930 . S
C921 C922 1.399 . S
C921 C926 1.399 . S
C922 C921 1.399 . S
C922 C923 1.376 . S
C923 H910 0.930 . S
C923 C922 1.376 . S
C923 C924 1.388 . S
C924 H911 0.930 . S
C924 C923 1.388 . S
C924 C925 1.390 . S
C925 C924 1.390 . S
C925 C926 1.394 . S
C925 C931 1.465 . S
C926 C921 1.399 . S
C926 C925 1.394 . S
C926 C927 1.516 . S
C927 C926 1.516 . S
C927 C928 1.502 . S
C927 C929 1.561 . S
C927 C930 1.526 . S
C928 H912 0.959 . S
C928 H913 0.959 . S
C928 H914 0.961 . S
C928 C927 1.502 . S
C929 H915 0.960 . S
C929 H916 0.961 . S
C929 H917 0.959 . S
C929 C927 1.561 . S
C930 C927 1.526 . S
C930 C931 1.396 . S
C930 C935 1.390 1_554 S
C931 C925 1.465 . S
C931 C930 1.396 . S
C931 C932 1.399 1_554 S
C932 H918 0.929 . S
C932 C931 1.399 1_556 S
C932 C933 1.385 . S
C933 H919 0.931 . S
C933 C932 1.385 . S
C933 C934 1.389 . S
C934 C933 1.389 . S
C934 C935 1.387 . S
C935 H920 0.930 . S
C935 C930 1.390 1_556 S
C935 C934 1.387 . S
H936 C948 0.930 . S
H937 C950 0.930 . S
H938 C951 0.930 . S
H939 C955 0.959 . S
H940 C955 0.959 . S
H941 C955 0.961 . S
H942 C956 0.960 . S
H943 C956 0.961 . S
H944 C956 0.959 . S
H945 C959 0.929 . S
H946 C960 0.931 . S
H947 C962 0.930 . S
C948 H936 0.930 . S
C948 C949 1.399 . S
C948 C953 1.399 . S
C949 C948 1.399 . S
C949 C950 1.376 . S
C950 H937 0.930 . S
C950 C949 1.376 . S
C950 C951 1.388 . S
C951 H938 0.930 . S
C951 C950 1.388 . S
C951 C952 1.390 . S
C952 C951 1.390 . S
C952 C953 1.394 . S
C952 C958 1.465 . S
C953 C948 1.399 . S
C953 C952 1.394 . S
C953 C954 1.516 . S
C954 C953 1.516 . S
C954 C955 1.502 . S
C954 C956 1.561 . S
C954 C957 1.526 . S
C955 H939 0.959 . S
C955 H940 0.959 . S
C955 H941 0.961 . S
C955 C954 1.502 . S
C956 H942 0.960 . S
C956 H943 0.961 . S
C956 H944 0.959 . S
C956 C954 1.561 . S
C957 C954 1.526 . S
C957 C958 1.396 . S
C957 C962 1.390 . S
C958 C952 1.465 . S
C958 C957 1.396 . S
C958 C959 1.399 . S
C959 H945 0.929 . S
C959 C958 1.399 . S
C959 C960 1.385 . S
C960 H946 0.931 . S
C960 C959 1.385 . S
C960 C961 1.389 . S
C961 C960 1.389 . S
C961 C962 1.387 . S
C962 H947 0.930 . S
C962 C957 1.390 . S
C962 C961 1.387 . S
H963 C975 0.930 . S
H964 C977 0.930 . S
H965 C978 0.930 . S
H966 C982 0.959 . S
H967 C982 0.959 . S
H968 C982 0.961 . S
H969 C983 0.960 . S
H970 C983 0.961 . S
H971 C983 0.959 . S
H972 C986 0.929 . S
H973 C987 0.931 . S
H974 C989 0.930 . S
C975 H963 0.930 . S
C975 C976 1.399 . S
C975 C980 1.399 . S
C976 C975 1.399 . S
C976 C977 1.376 . S
C977 H964 0.930 . S
C977 C976 1.376 . S
C977 C978 1.388 . S
C978 H965 0.930 . S
C978 C977 1.388 . S
C978 C979 1.390 . S
C979 C978 1.390 . S
C979 C980 1.394 . S
C979 C985 1.465 . S
C980 C975 1.399 . S
C980 C979 1.394 . S
C980 C981 1.516 . S
C981 C980 1.516 . S
C981 C982 1.502 . S
C981 C983 1.561 . S
C981 C984 1.526 . S
C982 H966 0.959 . S
C982 H967 0.959 . S
C982 H968 0.961 . S
C982 C981 1.502 . S
C983 H969 0.960 . S
C983 H970 0.961 . S
C983 H971 0.959 . S
C983 C981 1.561 . S
C984 C981 1.526 . S
C984 C985 1.396 . S
C984 C989 1.390 . S
C985 C979 1.465 . S
C985 C984 1.396 . S
C985 C986 1.399 . S
C986 H972 0.929 . S
C986 C985 1.399 . S
C986 C987 1.385 . S
C987 H973 0.931 . S
C987 C986 1.385 . S
C987 C988 1.389 . S
C988 C987 1.389 . S
C988 C989 1.387 . S
C989 H974 0.930 . S
C989 C984 1.390 . S
C989 C988 1.387 . S
H990 C1002 0.930 . S
H991 C1004 0.930 . S
H992 C1005 0.930 . S
H993 C1009 0.959 . S
H994 C1009 0.959 . S
H995 C1009 0.961 . S
H996 C1010 0.960 . S
H997 C1010 0.961 . S
H998 C1010 0.959 . S
H999 C1013 0.929 . S
H1000 C1014 0.931 . S
H1001 C1016 0.930 . S
C1002 H990 0.930 . S
C1002 C1003 1.399 . S
C1002 C1007 1.399 . S
C1003 C1002 1.399 . S
C1003 C1004 1.376 . S
C1004 H991 0.930 . S
C1004 C1003 1.376 . S
C1004 C1005 1.388 . S
C1005 H992 0.930 . S
C1005 C1004 1.388 . S
C1005 C1006 1.390 . S
C1006 C1005 1.390 . S
C1006 C1007 1.394 . S
C1006 C1012 1.465 . S
C1007 C1002 1.399 . S
C1007 C1006 1.394 . S
C1007 C1008 1.516 . S
C1008 C1007 1.516 . S
C1008 C1009 1.502 . S
C1008 C1010 1.561 . S
C1008 C1011 1.526 . S
C1009 H993 0.959 . S
C1009 H994 0.959 . S
C1009 H995 0.961 . S
C1009 C1008 1.502 . S
C1010 H996 0.960 . S
C1010 H997 0.961 . S
C1010 H998 0.959 . S
C1010 C1008 1.561 . S
C1011 C1008 1.526 . S
C1011 C1012 1.396 . S
C1011 C1016 1.390 1_554 S
C1012 C1006 1.465 . S
C1012 C1011 1.396 . S
C1012 C1013 1.399 1_554 S
C1013 H999 0.929 . S
C1013 C1012 1.399 1_556 S
C1013 C1014 1.385 . S
C1014 H1000 0.931 . S
C1014 C1013 1.385 . S
C1014 C1015 1.389 . S
C1015 C1014 1.389 . S
C1015 C1016 1.387 . S
C1016 H1001 0.930 . S
C1016 C1011 1.390 1_556 S
C1016 C1015 1.387 . S
H1017 C1029 0.930 . S
H1018 C1031 0.930 . S
H1019 C1032 0.930 . S
H1020 C1036 0.959 . S
H1021 C1036 0.959 . S
H1022 C1036 0.961 . S
H1023 C1037 0.960 . S
H1024 C1037 0.961 . S
H1025 C1037 0.959 . S
H1026 C1040 0.929 . S
H1027 C1041 0.931 . S
H1028 C1043 0.930 . S
C1029 H1017 0.930 . S
C1029 C1030 1.399 . S
C1029 C1034 1.399 . S
C1030 C1029 1.399 . S
C1030 C1031 1.376 . S
C1031 H1018 0.930 . S
C1031 C1030 1.376 . S
C1031 C1032 1.388 . S
C1032 H1019 0.930 . S
C1032 C1031 1.388 . S
C1032 C1033 1.390 . S
C1033 C1032 1.390 . S
C1033 C1034 1.394 . S
C1033 C1039 1.465 . S
C1034 C1029 1.399 . S
C1034 C1033 1.394 . S
C1034 C1035 1.516 . S
C1035 C1034 1.516 . S
C1035 C1036 1.502 . S
C1035 C1037 1.561 . S
C1035 C1038 1.526 . S
C1036 H1020 0.959 . S
C1036 H1021 0.959 . S
C1036 H1022 0.961 . S
C1036 C1035 1.502 . S
C1037 H1023 0.960 . S
C1037 H1024 0.961 . S
C1037 H1025 0.959 . S
C1037 C1035 1.561 . S
C1038 C1035 1.526 . S
C1038 C1039 1.396 . S
C1038 C1043 1.390 . S
C1039 C1033 1.465 . S
C1039 C1038 1.396 . S
C1039 C1040 1.399 . S
C1040 H1026 0.929 . S
C1040 C1039 1.399 . S
C1040 C1041 1.385 . S
C1041 H1027 0.931 . S
C1041 C1040 1.385 . S
C1041 C1042 1.389 . S
C1042 C1041 1.389 . S
C1042 C1043 1.387 . S
C1043 H1028 0.930 . S
C1043 C1038 1.390 . S
C1043 C1042 1.387 . S
H1044 C1056 0.930 . S
H1045 C1058 0.930 . S
H1046 C1059 0.930 . S
H1047 C1063 0.959 . S
H1048 C1063 0.959 . S
H1049 C1063 0.961 . S
H1050 C1064 0.960 . S
H1051 C1064 0.961 . S
H1052 C1064 0.959 . S
H1053 C1067 0.929 . S
H1054 C1068 0.931 . S
H1055 C1070 0.930 . S
C1056 H1044 0.930 . S
C1056 C1057 1.399 . S
C1056 C1061 1.399 1_554 S
C1057 C1056 1.399 . S
C1057 C1058 1.376 . S
C1058 H1045 0.930 . S
C1058 C1057 1.376 . S
C1058 C1059 1.388 . S
C1059 H1046 0.930 . S
C1059 C1058 1.388 . S
C1059 C1060 1.390 1_554 S
C1060 C1059 1.390 1_556 S
C1060 C1061 1.394 . S
C1060 C1066 1.465 . S
C1061 C1056 1.399 1_556 S
C1061 C1060 1.394 . S
C1061 C1062 1.516 . S
C1062 C1061 1.516 . S
C1062 C1063 1.502 . S
C1062 C1064 1.561 . S
C1062 C1065 1.526 . S
C1063 H1047 0.959 . S
C1063 H1048 0.959 . S
C1063 H1049 0.961 . S
C1063 C1062 1.502 . S
C1064 H1050 0.960 . S
C1064 H1051 0.961 . S
C1064 H1052 0.959 . S
C1064 C1062 1.561 . S
C1065 C1062 1.526 . S
C1065 C1066 1.396 . S
C1065 C1070 1.390 . S
C1066 C1060 1.465 . S
C1066 C1065 1.396 . S
C1066 C1067 1.399 . S
C1067 H1053 0.929 . S
C1067 C1066 1.399 . S
C1067 C1068 1.385 . S
C1068 H1054 0.931 . S
C1068 C1067 1.385 . S
C1068 C1069 1.389 . S
C1069 C1068 1.389 . S
C1069 C1070 1.387 . S
C1070 H1055 0.930 . S
C1070 C1065 1.390 . S
C1070 C1069 1.387 . S
H1071 C1083 0.930 . S
H1072 C1085 0.930 . S
H1073 C1086 0.930 . S
H1074 C1090 0.959 . S
H1075 C1090 0.959 . S
H1076 C1090 0.961 . S
H1077 C1091 0.960 . S
H1078 C1091 0.961 . S
H1079 C1091 0.959 . S
H1080 C1094 0.929 . S
H1081 C1095 0.931 . S
H1082 C1097 0.930 . S
C1083 H1071 0.930 . S
C1083 C1084 1.399 . S
C1083 C1088 1.399 . S
C1084 C1083 1.399 . S
C1084 C1085 1.376 . S
C1085 H1072 0.930 . S
C1085 C1084 1.376 . S
C1085 C1086 1.388 . S
C1086 H1073 0.930 . S
C1086 C1085 1.388 . S
C1086 C1087 1.390 . S
C1087 C1086 1.390 . S
C1087 C1088 1.394 . S
C1087 C1093 1.465 . S
C1088 C1083 1.399 . S
C1088 C1087 1.394 . S
C1088 C1089 1.516 . S
C1089 C1088 1.516 . S
C1089 C1090 1.502 . S
C1089 C1091 1.561 . S
C1089 C1092 1.526 . S
C1090 H1074 0.959 . S
C1090 H1075 0.959 . S
C1090 H1076 0.961 . S
C1090 C1089 1.502 . S
C1091 H1077 0.960 . S
C1091 H1078 0.961 . S
C1091 H1079 0.959 . S
C1091 C1089 1.561 . S
C1092 C1089 1.526 . S
C1092 C1093 1.396 . S
C1092 C1097 1.390 . S
C1093 C1087 1.465 . S
C1093 C1092 1.396 . S
C1093 C1094 1.399 . S
C1094 H1080 0.929 . S
C1094 C1093 1.399 . S
C1094 C1095 1.385 . S
C1095 H1081 0.931 . S
C1095 C1094 1.385 . S
C1095 C1096 1.389 . S
C1096 C1095 1.389 . S
C1096 C1097 1.387 . S
C1097 H1082 0.930 . S
C1097 C1092 1.390 . S
C1097 C1096 1.387 . S
H1098 C1110 0.930 . S
H1099 C1112 0.930 . S
H1100 C1113 0.930 . S
H1101 C1117 0.959 . S
H1102 C1117 0.959 . S
H1103 C1117 0.961 . S
H1104 C1118 0.960 . S
H1105 C1118 0.961 . S
H1106 C1118 0.959 . S
H1107 C1121 0.929 . S
H1108 C1122 0.931 . S
H1109 C1124 0.930 . S
C1110 H1098 0.930 . S
C1110 C1111 1.399 . S
C1110 C1115 1.399 . S
C1111 C1110 1.399 . S
C1111 C1112 1.376 . S
C1112 H1099 0.930 . S
C1112 C1111 1.376 . S
C1112 C1113 1.388 . S
C1113 H1100 0.930 . S
C1113 C1112 1.388 . S
C1113 C1114 1.390 . S
C1114 C1113 1.390 . S
C1114 C1115 1.394 . S
C1114 C1120 1.465 . S
C1115 C1110 1.399 . S
C1115 C1114 1.394 . S
C1115 C1116 1.516 . S
C1116 C1115 1.516 . S
C1116 C1117 1.502 . S
C1116 C1118 1.561 . S
C1116 C1119 1.526 . S
C1117 H1101 0.959 . S
C1117 H1102 0.959 . S
C1117 H1103 0.961 . S
C1117 C1116 1.502 . S
C1118 H1104 0.960 . S
C1118 H1105 0.961 . S
C1118 H1106 0.959 . S
C1118 C1116 1.561 . S
C1119 C1116 1.526 . S
C1119 C1120 1.396 . S
C1119 C1124 1.390 . S
C1120 C1114 1.465 . S
C1120 C1119 1.396 . S
C1120 C1121 1.399 . S
C1121 H1107 0.929 . S
C1121 C1120 1.399 . S
C1121 C1122 1.385 . S
C1122 H1108 0.931 . S
C1122 C1121 1.385 . S
C1122 C1123 1.389 . S
C1123 C1122 1.389 . S
C1123 C1124 1.387 . S
C1124 H1109 0.930 . S
C1124 C1119 1.390 . S
C1124 C1123 1.387 . S
H1125 C1137 0.930 . S
H1126 C1139 0.930 . S
H1127 C1140 0.930 . S
H1128 C1144 0.959 . S
H1129 C1144 0.959 . S
H1130 C1144 0.961 . S
H1131 C1145 0.960 . S
H1132 C1145 0.961 . S
H1133 C1145 0.959 . S
H1134 C1148 0.929 . S
H1135 C1149 0.931 . S
H1136 C1151 0.930 . S
C1137 H1125 0.930 . S
C1137 C1138 1.399 . S
C1137 C1142 1.399 . S
C1138 C1137 1.399 . S
C1138 C1139 1.376 . S
C1139 H1126 0.930 . S
C1139 C1138 1.376 . S
C1139 C1140 1.388 . S
C1140 H1127 0.930 . S
C1140 C1139 1.388 . S
C1140 C1141 1.390 . S
C1141 C1140 1.390 . S
C1141 C1142 1.394 . S
C1141 C1147 1.465 . S
C1142 C1137 1.399 . S
C1142 C1141 1.394 . S
C1142 C1143 1.516 . S
C1143 C1142 1.516 . S
C1143 C1144 1.502 . S
C1143 C1145 1.561 . S
C1143 C1146 1.526 . S
C1144 H1128 0.959 . S
C1144 H1129 0.959 . S
C1144 H1130 0.961 . S
C1144 C1143 1.502 . S
C1145 H1131 0.960 . S
C1145 H1132 0.961 . S
C1145 H1133 0.959 . S
C1145 C1143 1.561 . S
C1146 C1143 1.526 . S
C1146 C1147 1.396 . S
C1146 C1151 1.390 1_556 S
C1147 C1141 1.465 . S
C1147 C1146 1.396 . S
C1147 C1148 1.399 1_556 S
C1148 H1134 0.929 . S
C1148 C1147 1.399 1_554 S
C1148 C1149 1.385 . S
C1149 H1135 0.931 . S
C1149 C1148 1.385 . S
C1149 C1150 1.389 . S
C1150 C1149 1.389 . S
C1150 C1151 1.387 . S
C1151 H1136 0.930 . S
C1151 C1146 1.390 1_554 S
C1151 C1150 1.387 . S
H1152 C1164 0.930 . S
H1153 C1166 0.930 . S
H1154 C1167 0.930 . S
H1155 C1171 0.959 . S
H1156 C1171 0.959 . S
H1157 C1171 0.961 . S
H1158 C1172 0.960 . S
H1159 C1172 0.961 . S
H1160 C1172 0.959 . S
H1161 C1175 0.929 . S
H1162 C1176 0.931 . S
H1163 C1178 0.930 . S
C1164 H1152 0.930 . S
C1164 C1165 1.399 . S
C1164 C1169 1.399 . S
C1165 C1164 1.399 . S
C1165 C1166 1.376 . S
C1166 H1153 0.930 . S
C1166 C1165 1.376 . S
C1166 C1167 1.388 . S
C1167 H1154 0.930 . S
C1167 C1166 1.388 . S
C1167 C1168 1.390 . S
C1168 C1167 1.390 . S
C1168 C1169 1.394 . S
C1168 C1174 1.465 . S
C1169 C1164 1.399 . S
C1169 C1168 1.394 . S
C1169 C1170 1.516 . S
C1170 C1169 1.516 . S
C1170 C1171 1.502 . S
C1170 C1172 1.561 . S
C1170 C1173 1.526 . S
C1171 H1155 0.959 . S
C1171 H1156 0.959 . S
C1171 H1157 0.961 . S
C1171 C1170 1.502 . S
C1172 H1158 0.960 . S
C1172 H1159 0.961 . S
C1172 H1160 0.959 . S
C1172 C1170 1.561 . S
C1173 C1170 1.526 . S
C1173 C1174 1.396 . S
C1173 C1178 1.390 . S
C1174 C1168 1.465 . S
C1174 C1173 1.396 . S
C1174 C1175 1.399 . S
C1175 H1161 0.929 . S
C1175 C1174 1.399 . S
C1175 C1176 1.385 . S
C1176 H1162 0.931 . S
C1176 C1175 1.385 . S
C1176 C1177 1.389 . S
C1177 C1176 1.389 . S
C1177 C1178 1.387 . S
C1178 H1163 0.930 . S
C1178 C1173 1.390 . S
C1178 C1177 1.387 . S
H1179 C1191 0.930 . S
H1180 C1193 0.930 . S
H1181 C1194 0.930 . S
H1182 C1198 0.959 . S
H1183 C1198 0.959 . S
H1184 C1198 0.961 . S
H1185 C1199 0.960 . S
H1186 C1199 0.961 . S
H1187 C1199 0.959 . S
H1188 C1202 0.929 . S
H1189 C1203 0.931 . S
H1190 C1205 0.930 . S
C1191 H1179 0.930 . S
C1191 C1192 1.399 . S
C1191 C1196 1.399 . S
C1192 C1191 1.399 . S
C1192 C1193 1.376 . S
C1193 H1180 0.930 . S
C1193 C1192 1.376 . S
C1193 C1194 1.388 . S
C1194 H1181 0.930 . S
C1194 C1193 1.388 . S
C1194 C1195 1.390 . S
C1195 C1194 1.390 . S
C1195 C1196 1.394 . S
C1195 C1201 1.465 . S
C1196 C1191 1.399 . S
C1196 C1195 1.394 . S
C1196 C1197 1.516 . S
C1197 C1196 1.516 . S
C1197 C1198 1.502 . S
C1197 C1199 1.561 . S
C1197 C1200 1.526 . S
C1198 H1182 0.959 . S
C1198 H1183 0.959 . S
C1198 H1184 0.961 . S
C1198 C1197 1.502 . S
C1199 H1185 0.960 . S
C1199 H1186 0.961 . S
C1199 H1187 0.959 . S
C1199 C1197 1.561 . S
C1200 C1197 1.526 . S
C1200 C1201 1.396 . S
C1200 C1205 1.390 . S
C1201 C1195 1.465 . S
C1201 C1200 1.396 . S
C1201 C1202 1.399 . S
C1202 H1188 0.929 . S
C1202 C1201 1.399 . S
C1202 C1203 1.385 . S
C1203 H1189 0.931 . S
C1203 C1202 1.385 . S
C1203 C1204 1.389 . S
C1204 C1203 1.389 . S
C1204 C1205 1.387 . S
C1205 H1190 0.930 . S
C1205 C1200 1.390 . S
C1205 C1204 1.387 . S
C409 C8 1.323 . S
C421 C338 1.271 . S
C436 C371 1.354 . S
C448 C41 1.263 . S
C463 C206 1.262 . S
C475 C74 1.334 . S
C490 C239 1.274 . S
C502 C107 1.348 . S
C517 C140 1.340 . S
C529 C272 1.288 . S
C544 C305 1.305 . S
C556 C173 1.287 . S
C571 C215 1.622 . S
C583 C17 1.601 . S
C598 C248 1.622 . S
C610 C50 1.601 . S
C625 C83 1.635 . S
C637 C281 1.616 . S
C652 C116 1.614 . S
C664 C314 1.599 . S
C679 C347 1.618 . S
C691 C149 1.600 . S
C706 C380 1.609 . S
C718 C182 1.600 . S
C733 C28 1.381 . S
C745 C325 1.380 . S
C760 C358 1.400 . S
C772 C61 1.393 . S
C787 C391 1.424 . S
C799 C94 1.427 . S
C814 C226 1.399 . S
C826 C127 1.392 . S
C841 C160 1.412 . S
C853 C259 1.419 . S
C868 C193 1.403 . S
C880 C292 1.411 . S
C895 N5 1.083 . S
C907 N14 1.069 1_556 S
C922 N47 1.078 . S
C934 N38 1.074 . S
C949 N71 1.086 . S
C961 N80 1.065 . S
C976 N113 1.062 1_556 S
C988 N104 1.089 . S
C1003 N146 1.074 . S
C1015 N137 1.078 . S
C1030 N179 1.060 . S
C1042 N170 1.090 . S
C1057 N203 1.093 . S
C1069 N212 1.057 . S
C1084 N245 1.091 1_554 S
C1096 N236 1.062 . S
C1111 N278 1.057 . S
C1123 N269 1.092 . S
C1138 N311 1.075 . S
C1150 N302 1.077 . S
C1165 N335 1.069 . S
C1177 N344 1.084 1_554 S
C1192 N377 1.059 . S
C1204 N368 1.091 . S
