# Generated by pormake.
# Topology ukc, (4)-cn, num edge types: 1
# Building blocks:
#     Node 0, Type 0, BuildingBlock: TATPOV_clean_sbu_0, # of connection points: 4
#     Node 1, Type 0, BuildingBlock: TATPOV_clean_sbu_0, # of connection points: 4
#     Node 2, Type 0, BuildingBlock: TATPOV_clean_sbu_0, # of connection points: 4
#     Node 3, Type 0, BuildingBlock: TATPOV_clean_sbu_0, # of connection points: 4
#     Node 4, Type 0, BuildingBlock: TATPOV_clean_sbu_0, # of connection points: 4
#     Node 5, Type 0, BuildingBlock: TATPOV_clean_sbu_0, # of connection points: 4
#     Node 6, Type 0, BuildingBlock: TATPOV_clean_sbu_0, # of connection points: 4
#     Node 7, Type 0, BuildingBlock: TATPOV_clean_sbu_0, # of connection points: 4
#     Node 8, Type 0, BuildingBlock: TATPOV_clean_sbu_0, # of connection points: 4
#     Node 9, Type 0, BuildingBlock: TATPOV_clean_sbu_0, # of connection points: 4
#     Node 10, Type 0, BuildingBlock: TATPOV_clean_sbu_0, # of connection points: 4
#     Node 11, Type 0, BuildingBlock: TATPOV_clean_sbu_0, # of connection points: 4
#     Node 12, Type 0, BuildingBlock: TATPOV_clean_sbu_0, # of connection points: 4
#     Node 13, Type 0, BuildingBlock: TATPOV_clean_sbu_0, # of connection points: 4
#     Node 14, Type 0, BuildingBlock: TATPOV_clean_sbu_0, # of connection points: 4
#     Node 15, Type 0, BuildingBlock: TATPOV_clean_sbu_0, # of connection points: 4
#     Node 16, Type 0, BuildingBlock: TATPOV_clean_sbu_0, # of connection points: 4
#     Node 17, Type 0, BuildingBlock: TATPOV_clean_sbu_0, # of connection points: 4
#     Node 18, Type 0, BuildingBlock: TATPOV_clean_sbu_0, # of connection points: 4
#     Node 19, Type 0, BuildingBlock: TATPOV_clean_sbu_0, # of connection points: 4
#     Node 20, Type 0, BuildingBlock: TATPOV_clean_sbu_0, # of connection points: 4
#     Node 21, Type 0, BuildingBlock: TATPOV_clean_sbu_0, # of connection points: 4
#     Node 22, Type 0, BuildingBlock: TATPOV_clean_sbu_0, # of connection points: 4
#     Node 23, Type 0, BuildingBlock: TATPOV_clean_sbu_0, # of connection points: 4
#     Node 24, Type 0, BuildingBlock: TATPOV_clean_sbu_0, # of connection points: 4
#     Node 25, Type 0, BuildingBlock: TATPOV_clean_sbu_0, # of connection points: 4
#     Node 26, Type 0, BuildingBlock: TATPOV_clean_sbu_0, # of connection points: 4
#     Node 27, Type 0, BuildingBlock: TATPOV_clean_sbu_0, # of connection points: 4
#     Node 28, Type 0, BuildingBlock: TATPOV_clean_sbu_0, # of connection points: 4
#     Node 29, Type 0, BuildingBlock: TATPOV_clean_sbu_0, # of connection points: 4
#     Node 30, Type 0, BuildingBlock: TATPOV_clean_sbu_0, # of connection points: 4
#     Node 31, Type 0, BuildingBlock: TATPOV_clean_sbu_0, # of connection points: 4
#     Edge 32, Type (0, 0), BuildingBlock: OJICUG_clean_linker_0, # of connection points: 2
#     Edge 33, Type (0, 0), BuildingBlock: OJICUG_clean_linker_0, # of connection points: 2
#     Edge 34, Type (0, 0), BuildingBlock: OJICUG_clean_linker_0, # of connection points: 2
#     Edge 35, Type (0, 0), BuildingBlock: OJICUG_clean_linker_0, # of connection points: 2
#     Edge 36, Type (0, 0), BuildingBlock: OJICUG_clean_linker_0, # of connection points: 2
#     Edge 37, Type (0, 0), BuildingBlock: OJICUG_clean_linker_0, # of connection points: 2
#     Edge 38, Type (0, 0), BuildingBlock: OJICUG_clean_linker_0, # of connection points: 2
#     Edge 39, Type (0, 0), BuildingBlock: OJICUG_clean_linker_0, # of connection points: 2
#     Edge 40, Type (0, 0), BuildingBlock: OJICUG_clean_linker_0, # of connection points: 2
#     Edge 41, Type (0, 0), BuildingBlock: OJICUG_clean_linker_0, # of connection points: 2
#     Edge 42, Type (0, 0), BuildingBlock: OJICUG_clean_linker_0, # of connection points: 2
#     Edge 43, Type (0, 0), BuildingBlock: OJICUG_clean_linker_0, # of connection points: 2
#     Edge 44, Type (0, 0), BuildingBlock: OJICUG_clean_linker_0, # of connection points: 2
#     Edge 45, Type (0, 0), BuildingBlock: OJICUG_clean_linker_0, # of connection points: 2
#     Edge 46, Type (0, 0), BuildingBlock: OJICUG_clean_linker_0, # of connection points: 2
#     Edge 47, Type (0, 0), BuildingBlock: OJICUG_clean_linker_0, # of connection points: 2
#     Edge 48, Type (0, 0), BuildingBlock: OJICUG_clean_linker_0, # of connection points: 2
#     Edge 49, Type (0, 0), BuildingBlock: OJICUG_clean_linker_0, # of connection points: 2
#     Edge 50, Type (0, 0), BuildingBlock: OJICUG_clean_linker_0, # of connection points: 2
#     Edge 51, Type (0, 0), BuildingBlock: OJICUG_clean_linker_0, # of connection points: 2
#     Edge 52, Type (0, 0), BuildingBlock: OJICUG_clean_linker_0, # of connection points: 2
#     Edge 53, Type (0, 0), BuildingBlock: OJICUG_clean_linker_0, # of connection points: 2
#     Edge 54, Type (0, 0), BuildingBlock: OJICUG_clean_linker_0, # of connection points: 2
#     Edge 55, Type (0, 0), BuildingBlock: OJICUG_clean_linker_0, # of connection points: 2
#     Edge 56, Type (0, 0), BuildingBlock: OJICUG_clean_linker_0, # of connection points: 2
#     Edge 57, Type (0, 0), BuildingBlock: OJICUG_clean_linker_0, # of connection points: 2
#     Edge 58, Type (0, 0), BuildingBlock: OJICUG_clean_linker_0, # of connection points: 2
#     Edge 59, Type (0, 0), BuildingBlock: OJICUG_clean_linker_0, # of connection points: 2
#     Edge 60, Type (0, 0), BuildingBlock: OJICUG_clean_linker_0, # of connection points: 2
#     Edge 61, Type (0, 0), BuildingBlock: OJICUG_clean_linker_0, # of connection points: 2
#     Edge 62, Type (0, 0), BuildingBlock: OJICUG_clean_linker_0, # of connection points: 2
#     Edge 63, Type (0, 0), BuildingBlock: OJICUG_clean_linker_0, # of connection points: 2
#     Edge 64, Type (0, 0), BuildingBlock: OJICUG_clean_linker_0, # of connection points: 2
#     Edge 65, Type (0, 0), BuildingBlock: OJICUG_clean_linker_0, # of connection points: 2
#     Edge 66, Type (0, 0), BuildingBlock: OJICUG_clean_linker_0, # of connection points: 2
#     Edge 67, Type (0, 0), BuildingBlock: OJICUG_clean_linker_0, # of connection points: 2
#     Edge 68, Type (0, 0), BuildingBlock: OJICUG_clean_linker_0, # of connection points: 2
#     Edge 69, Type (0, 0), BuildingBlock: OJICUG_clean_linker_0, # of connection points: 2
#     Edge 70, Type (0, 0), BuildingBlock: OJICUG_clean_linker_0, # of connection points: 2
#     Edge 71, Type (0, 0), BuildingBlock: OJICUG_clean_linker_0, # of connection points: 2
#     Edge 72, Type (0, 0), BuildingBlock: OJICUG_clean_linker_0, # of connection points: 2
#     Edge 73, Type (0, 0), BuildingBlock: OJICUG_clean_linker_0, # of connection points: 2
#     Edge 74, Type (0, 0), BuildingBlock: OJICUG_clean_linker_0, # of connection points: 2
#     Edge 75, Type (0, 0), BuildingBlock: OJICUG_clean_linker_0, # of connection points: 2
#     Edge 76, Type (0, 0), BuildingBlock: OJICUG_clean_linker_0, # of connection points: 2
#     Edge 77, Type (0, 0), BuildingBlock: OJICUG_clean_linker_0, # of connection points: 2
#     Edge 78, Type (0, 0), BuildingBlock: OJICUG_clean_linker_0, # of connection points: 2
#     Edge 79, Type (0, 0), BuildingBlock: OJICUG_clean_linker_0, # of connection points: 2
#     Edge 80, Type (0, 0), BuildingBlock: OJICUG_clean_linker_0, # of connection points: 2
#     Edge 81, Type (0, 0), BuildingBlock: OJICUG_clean_linker_0, # of connection points: 2
#     Edge 82, Type (0, 0), BuildingBlock: OJICUG_clean_linker_0, # of connection points: 2
#     Edge 83, Type (0, 0), BuildingBlock: OJICUG_clean_linker_0, # of connection points: 2
#     Edge 84, Type (0, 0), BuildingBlock: OJICUG_clean_linker_0, # of connection points: 2
#     Edge 85, Type (0, 0), BuildingBlock: OJICUG_clean_linker_0, # of connection points: 2
#     Edge 86, Type (0, 0), BuildingBlock: OJICUG_clean_linker_0, # of connection points: 2
#     Edge 87, Type (0, 0), BuildingBlock: OJICUG_clean_linker_0, # of connection points: 2
#     Edge 88, Type (0, 0), BuildingBlock: OJICUG_clean_linker_0, # of connection points: 2
#     Edge 89, Type (0, 0), BuildingBlock: OJICUG_clean_linker_0, # of connection points: 2
#     Edge 90, Type (0, 0), BuildingBlock: OJICUG_clean_linker_0, # of connection points: 2
#     Edge 91, Type (0, 0), BuildingBlock: OJICUG_clean_linker_0, # of connection points: 2
#     Edge 92, Type (0, 0), BuildingBlock: OJICUG_clean_linker_0, # of connection points: 2
#     Edge 93, Type (0, 0), BuildingBlock: OJICUG_clean_linker_0, # of connection points: 2
#     Edge 94, Type (0, 0), BuildingBlock: OJICUG_clean_linker_0, # of connection points: 2
#     Edge 95, Type (0, 0), BuildingBlock: OJICUG_clean_linker_0, # of connection points: 2
# Relax obj value: 0.024
# Max RMSD: 0.063
# Mean RMSD: 0.063
data_MOF--net-ukc--node1-TATPOV_clean_sbu_0--edge1-OJICUG_clean_linker_0
_symmetry_space_group_name_H-M    P1
_symmetry_Int_Tables_number       1
_symmetry_cell_setting            triclinic
loop_
_symmetry_equiv_pos_as_xyz
'x, y, z'
_cell_length_a     32.27043
_cell_length_b     32.174356
_cell_length_c     67.624859
_cell_angle_alpha  90.036426
_cell_angle_beta   89.982061
_cell_angle_gamma 89.517437
loop_
_atom_site_label
_atom_site_type_symbol
_atom_site_fract_x
_atom_site_fract_y
_atom_site_fract_z
_atom_type_partial_charge
Zn0 Zn 0.0537 0.43177 0.03416 0.0
Zn1 Zn 0.11602 0.40629 0.01104 0.0
O2 O 0.14057 0.42494 0.03787 0.0
O3 O 0.09092 0.45571 0.05476 0.0
O4 O 0.16834 0.39466 -0.00511 0.0
O5 O 0.02982 0.46689 0.01267 0.0
O6 O 0.083 0.4481 -0.00581 0.0
C7 C 0.12848 0.44471 0.05321 0.0
C8 C 0.05266 0.34368 0.0245 0.0
O9 O 0.08319 0.35197 0.01322 0.0
O10 O 0.03697 0.37137 0.03562 0.0
C11 C 0.1693 0.37775 -0.02213 0.0
O12 O 0.13445 0.36525 -0.03012 0.0
C13 C 0.04912 0.46828 -0.00358 0.0
Zn14 Zn 0.84356 0.80567 0.28095 0.0
Zn15 Zn 0.86746 0.87151 0.2596 0.0
O16 O 0.84975 0.89443 0.28695 0.0
O17 O 0.82685 0.84117 0.30399 0.0
O18 O 0.87778 0.92458 0.24379 0.0
O19 O 0.80279 0.78753 0.26094 0.0
O20 O 0.82576 0.83872 0.24244 0.0
C21 C 0.83438 0.87961 0.30281 0.0
C22 C 0.93044 0.80405 0.269 0.0
O23 O 0.92276 0.83956 0.26136 0.0
O24 O 0.90227 0.78419 0.2779 0.0
C25 C 0.89562 0.92537 0.227 0.0
O26 O 0.90938 0.89033 0.21934 0.0
C27 C 0.80307 0.80672 0.24465 0.0
Zn28 Zn 0.47176 0.59221 0.53197 0.0
Zn29 Zn 0.4064 0.61698 0.50998 0.0
O30 O 0.38304 0.60135 0.53731 0.0
O31 O 0.43539 0.57756 0.55489 0.0
O32 O 0.35381 0.6271 0.4938 0.0
O33 O 0.48991 0.5499 0.51249 0.0
O34 O 0.4394 0.57375 0.49364 0.0
C35 C 0.39723 0.58623 0.55339 0.0
C36 C 0.47374 0.67888 0.51891 0.0
O37 O 0.43839 0.67172 0.51122 0.0
O38 O 0.49318 0.6506 0.52819 0.0
C39 C 0.35284 0.64484 0.47699 0.0
O40 O 0.38753 0.65884 0.46941 0.0
C41 C 0.47102 0.55022 0.49614 0.0
Zn42 Zn 0.67949 0.2288 0.78221 0.0
Zn43 Zn 0.65596 0.16281 0.76023 0.0
O44 O 0.67557 0.13879 0.78702 0.0
O45 O 0.69765 0.19182 0.8045 0.0
O46 O 0.64589 0.1111 0.74325 0.0
O47 O 0.71905 0.24871 0.76194 0.0
O48 O 0.69637 0.19751 0.74332 0.0
C49 C 0.69115 0.15324 0.80291 0.0
C50 C 0.59204 0.22856 0.77103 0.0
O51 O 0.6002 0.19353 0.76298 0.0
O52 O 0.6201 0.24878 0.77982 0.0
C53 C 0.6313 0.07761 0.75038 0.0
O54 O 0.62046 0.0768 0.76911 0.0
C55 C 0.71848 0.22993 0.74553 0.0
Zn56 Zn 0.06289 0.59436 0.39232 0.0
Zn57 Zn 0.12012 0.62001 0.41738 0.0
O58 O 0.1483 0.6077 0.39036 0.0
O59 O 0.10323 0.5748 0.3719 0.0
O60 O 0.16927 0.63005 0.43586 0.0
O61 O 0.03715 0.55549 0.41149 0.0
O62 O 0.08619 0.5754 0.43194 0.0
C63 C 0.13924 0.58914 0.37427 0.0
C64 C 0.05539 0.68142 0.40418 0.0
O65 O 0.08513 0.67342 0.41604 0.0
O66 O 0.04274 0.65416 0.39211 0.0
C67 C 0.20174 0.64886 0.43016 0.0
O68 O 0.20259 0.66463 0.41225 0.0
C69 C 0.05399 0.55391 0.42833 0.0
Zn70 Zn 0.67377 0.80889 0.64695 0.0
Zn71 Zn 0.6494 0.87221 0.66956 0.0
O72 O 0.66326 0.89684 0.64209 0.0
O73 O 0.68739 0.84522 0.62403 0.0
O74 O 0.6402 0.92458 0.68619 0.0
O75 O 0.71716 0.78956 0.66529 0.0
O76 O 0.69328 0.8383 0.68525 0.0
C77 C 0.67812 0.88329 0.62582 0.0
C78 C 0.5882 0.80436 0.66087 0.0
O79 O 0.59486 0.83973 0.66877 0.0
O80 O 0.61637 0.78591 0.65109 0.0
C81 C 0.63072 0.92465 0.70447 0.0
O82 O 0.62473 0.88898 0.71344 0.0
C83 C 0.71703 0.80706 0.682 0.0
Zn84 Zn 0.46012 0.42858 0.8944 0.0
Zn85 Zn 0.40311 0.40253 0.91943 0.0
O86 O 0.37464 0.41653 0.89266 0.0
O87 O 0.41981 0.44952 0.87431 0.0
O88 O 0.35391 0.39179 0.9378 0.0
O89 O 0.48628 0.46632 0.91396 0.0
O90 O 0.43726 0.44642 0.93443 0.0
C91 C 0.38362 0.43569 0.87673 0.0
C92 C 0.46741 0.3412 0.90541 0.0
O93 O 0.43795 0.34901 0.91748 0.0
O94 O 0.47993 0.36874 0.89347 0.0
C95 C 0.32144 0.37334 0.93182 0.0
O96 O 0.3208 0.35832 0.91375 0.0
C97 C 0.46966 0.46765 0.93087 0.0
Zn98 Zn 0.84763 0.2184 0.14283 0.0
Zn99 Zn 0.87287 0.1598 0.16782 0.0
O100 O 0.8572 0.13133 0.14134 0.0
O101 O 0.82551 0.17822 0.1231 0.0
O102 O 0.88315 0.11043 0.18634 0.0
O103 O 0.81078 0.24561 0.16258 0.0
O104 O 0.82972 0.19525 0.18277 0.0
C105 C 0.83784 0.1412 0.12556 0.0
C106 C 0.93486 0.22264 0.15356 0.0
O107 O 0.92668 0.19325 0.16557 0.0
O108 O 0.90755 0.2362 0.14169 0.0
C109 C 0.90095 0.07716 0.18044 0.0
O110 O 0.91567 0.07569 0.16233 0.0
C111 C 0.80911 0.2285 0.17937 0.0
Zn112 Zn 0.97552 0.59575 0.89441 0.0
Zn113 Zn 0.9093 0.61911 0.91637 0.0
O114 O 0.88639 0.60283 0.88909 0.0
O115 O 0.93931 0.5806 0.87142 0.0
O116 O 0.85631 0.62868 0.93219 0.0
O117 O 0.99346 0.55363 0.9141 0.0
O118 O 0.94196 0.5759 0.9328 0.0
C119 C 0.90091 0.58816 0.87298 0.0
C120 C 0.97573 0.68237 0.90763 0.0
O121 O 0.9405 0.67438 0.91525 0.0
O122 O 0.99586 0.65455 0.89834 0.0
C123 C 0.85415 0.64727 0.94878 0.0
O124 O 0.88806 0.66273 0.9565 0.0
C125 C 0.97399 0.55295 0.93031 0.0
Zn126 Zn 0.17821 0.22552 0.64405 0.0
Zn127 Zn 0.15448 0.15962 0.66571 0.0
O128 O 0.1711 0.13656 0.63833 0.0
O129 O 0.1938 0.18943 0.62095 0.0
O130 O 0.1447 0.1067 0.68163 0.0
O131 O 0.21967 0.24343 0.66389 0.0
O132 O 0.19665 0.1924 0.68249 0.0
C133 C 0.18597 0.15108 0.6223 0.0
C134 C 0.09149 0.22701 0.65672 0.0
O135 O 0.09927 0.1915 0.66432 0.0
O136 O 0.11946 0.24683 0.64766 0.0
C137 C 0.12649 0.10571 0.69832 0.0
O138 O 0.11192 0.14053 0.70586 0.0
C139 C 0.21951 0.22424 0.68019 0.0
Zn140 Zn 0.54793 0.42784 0.3933 0.0
Zn141 Zn 0.61376 0.40386 0.4151 0.0
O142 O 0.63657 0.42146 0.38794 0.0
O143 O 0.58373 0.44473 0.37055 0.0
O144 O 0.66686 0.39437 0.43093 0.0
O145 O 0.52868 0.46863 0.41325 0.0
O146 O 0.5798 0.44552 0.43194 0.0
C147 C 0.6221 0.43701 0.37202 0.0
C148 C 0.54824 0.34057 0.40548 0.0
O149 O 0.5833 0.3483 0.41332 0.0
O150 O 0.52815 0.36874 0.39643 0.0
C151 C 0.66892 0.37641 0.44767 0.0
O152 O 0.63488 0.36164 0.45556 0.0
C153 C 0.54754 0.46824 0.42961 0.0
Zn154 Zn 0.3428 0.8024 0.14142 0.0
Zn155 Zn 0.36583 0.86839 0.16339 0.0
O156 O 0.34946 0.89169 0.13613 0.0
O157 O 0.32715 0.83901 0.1185 0.0
O158 O 0.37517 0.92117 0.17943 0.0
O159 O 0.3014 0.78388 0.16121 0.0
O160 O 0.32383 0.835 0.17995 0.0
C161 C 0.33486 0.87737 0.12002 0.0
C162 C 0.42954 0.80196 0.15416 0.0
O163 O 0.42126 0.83723 0.1619 0.0
O164 O 0.40187 0.78185 0.14502 0.0
C165 C 0.39633 0.92309 0.19528 0.0
O166 O 0.41428 0.88915 0.20202 0.0
C167 C 0.30129 0.80296 0.17755 0.0
Zn168 Zn 0.96823 0.425 0.52677 0.0
Zn169 Zn 0.90558 0.40158 0.50368 0.0
O170 O 0.87977 0.4157 0.53094 0.0
O171 O 0.93075 0.43857 0.54944 0.0
O172 O 0.85482 0.3925 0.48615 0.0
O173 O 0.98768 0.46851 0.50851 0.0
O174 O 0.93951 0.44557 0.4883 0.0
C175 C 0.89284 0.42999 0.54737 0.0
C176 C 0.97324 0.3392 0.51281 0.0
O177 O 0.93819 0.34654 0.50474 0.0
O178 O 0.99148 0.36711 0.52266 0.0
C179 C 0.82285 0.3735 0.49234 0.0
O180 O 0.82347 0.35728 0.51017 0.0
C181 C 0.97049 0.46896 0.49173 0.0
Zn182 Zn 0.34831 0.22087 0.27736 0.0
Zn183 Zn 0.37236 0.15821 0.25356 0.0
O184 O 0.35965 0.13124 0.28054 0.0
O185 O 0.33653 0.18173 0.29961 0.0
O186 O 0.38157 0.10814 0.2355 0.0
O187 O 0.3038 0.24015 0.25943 0.0
O188 O 0.32695 0.19196 0.23899 0.0
C189 C 0.34559 0.14376 0.29714 0.0
C190 C 0.43333 0.22632 0.26261 0.0
O191 O 0.42644 0.1913 0.25441 0.0
O192 O 0.4055 0.2443 0.2728 0.0
C193 C 0.40148 0.07587 0.24107 0.0
O194 O 0.41893 0.07575 0.25862 0.0
C195 C 0.30297 0.22276 0.24268 0.0
Zn196 Zn 0.55608 0.59767 0.02896 0.0
Zn197 Zn 0.61863 0.62055 0.00542 0.0
O198 O 0.64495 0.60745 0.03258 0.0
O199 O 0.59443 0.58508 0.0515 0.0
O200 O 0.66899 0.6295 -0.01231 0.0
O201 O 0.53667 0.55358 0.01088 0.0
O202 O 0.58467 0.57606 -0.00954 0.0
C203 C 0.63228 0.59375 0.04918 0.0
C204 C 0.55117 0.68317 0.01446 0.0
O205 O 0.58607 0.67547 0.00631 0.0
O206 O 0.53292 0.6556 0.02452 0.0
C207 C 0.7005 0.64957 -0.00638 0.0
O208 O 0.69953 0.66682 0.01123 0.0
C209 C 0.55378 0.5527 -0.00592 0.0
Zn210 Zn 0.17399 0.80835 0.78073 0.0
Zn211 Zn 0.14952 0.87071 0.75698 0.0
O212 O 0.16339 0.89769 0.78385 0.0
O213 O 0.18739 0.84741 0.80276 0.0
O214 O 0.14059 0.92074 0.73879 0.0
O215 O 0.21731 0.78743 0.7626 0.0
O216 O 0.1933 0.83516 0.74217 0.0
C217 C 0.17816 0.88533 0.80033 0.0
C218 C 0.08812 0.80394 0.76687 0.0
O219 O 0.09498 0.83871 0.75846 0.0
O220 O 0.11622 0.78584 0.77682 0.0
C221 C 0.12181 0.95355 0.74458 0.0
O222 O 0.10561 0.95427 0.7624 0.0
C223 C 0.21702 0.80407 0.74569 0.0
Zn224 Zn 0.54981 0.92772 0.53036 0.0
Zn225 Zn 0.61554 0.9026 0.50898 0.0
O226 O 0.638 0.91989 0.53632 0.0
O227 O 0.58505 0.94414 0.55336 0.0
O228 O 0.66874 0.89236 0.49327 0.0
O229 O 0.53144 0.96873 0.5104 0.0
O230 O 0.58244 0.94457 0.49191 0.0
C231 C 0.62331 0.93573 0.55216 0.0
C232 C 0.54874 0.84044 0.51828 0.0
O233 O 0.58415 0.8475 0.51062 0.0
O234 O 0.52895 0.86902 0.5272 0.0
C235 C 0.67021 0.87548 0.47625 0.0
O236 O 0.63566 0.8624 0.46817 0.0
C237 C 0.55049 0.96781 0.49409 0.0
Zn238 Zn 0.34067 0.30018 0.78343 0.0
Zn239 Zn 0.36397 0.36619 0.7614 0.0
O240 O 0.34556 0.39026 0.78837 0.0
O241 O 0.32368 0.3373 0.80594 0.0
O242 O 0.37382 0.41779 0.74435 0.0
O243 O 0.30021 0.2807 0.76344 0.0
O244 O 0.32282 0.3318 0.74477 0.0
C245 C 0.33047 0.37584 0.80437 0.0
C246 C 0.42779 0.29998 0.77157 0.0
O247 O 0.41957 0.33512 0.76368 0.0
O248 O 0.39989 0.27981 0.78051 0.0
C249 C 0.38852 0.45134 0.75137 0.0
O250 O 0.39966 0.45237 0.77005 0.0
C251 C 0.30049 0.29957 0.74707 0.0
Zn252 Zn 0.9698 0.09752 0.03443 0.0
Zn253 Zn 0.90767 0.12315 0.0112 0.0
O254 O 0.88287 0.10523 0.03807 0.0
O255 O 0.93221 0.07428 0.05507 0.0
O256 O 0.85557 0.13462 -0.00514 0.0
O257 O 0.9936 0.06184 0.0131 0.0
O258 O 0.94063 0.0809 -0.00543 0.0
C259 C 0.89476 0.08562 0.05349 0.0
C260 C 0.97132 0.18555 0.02453 0.0
O261 O 0.94075 0.17733 0.01325 0.0
O262 O 0.98684 0.15788 0.03568 0.0
C263 C 0.85517 0.15002 -0.02247 0.0
O264 O 0.89039 0.16104 -0.0306 0.0
C265 C 0.97433 0.06045 -0.00316 0.0
Zn266 Zn 0.18029 0.72778 0.28088 0.0
Zn267 Zn 0.15608 0.66218 0.25902 0.0
O268 O 0.17437 0.63855 0.28604 0.0
O269 O 0.19706 0.69119 0.30359 0.0
O270 O 0.14562 0.60937 0.24304 0.0
O271 O 0.22079 0.74611 0.26067 0.0
O272 O 0.19751 0.69531 0.24198 0.0
C273 C 0.18978 0.65275 0.30201 0.0
C274 C 0.09323 0.7294 0.26897 0.0
O275 O 0.10087 0.69407 0.26111 0.0
O276 O 0.12142 0.74906 0.27795 0.0
C277 C 0.12765 0.60843 0.22629 0.0
O278 O 0.1137 0.64336 0.21863 0.0
C279 C 0.22024 0.72725 0.24428 0.0
Zn280 Zn 0.56481 0.09938 0.8934 0.0
Zn281 Zn 0.62206 0.12478 0.91837 0.0
O282 O 0.65028 0.11133 0.89143 0.0
O283 O 0.6048 0.07862 0.87313 0.0
O284 O 0.67129 0.13532 0.93676 0.0
O285 O 0.53866 0.06129 0.91274 0.0
O286 O 0.588 0.08052 0.93318 0.0
C287 C 0.64103 0.09239 0.87546 0.0
C288 C 0.55763 0.18646 0.90482 0.0
O289 O 0.58717 0.17833 0.91679 0.0
O290 O 0.54501 0.15922 0.89274 0.0
C291 C 0.70396 0.15345 0.9308 0.0
O292 O 0.70494 0.16813 0.91268 0.0
C293 C 0.5555 0.05947 0.92958 0.0
Zn294 Zn 0.17658 0.31476 0.14302 0.0
Zn295 Zn 0.15114 0.37329 0.16781 0.0
O296 O 0.16666 0.40144 0.14123 0.0
O297 O 0.19879 0.35451 0.12316 0.0
O298 O 0.14048 0.42291 0.18614 0.0
O299 O 0.21337 0.28789 0.16284 0.0
O300 O 0.19453 0.33846 0.18296 0.0
C301 C 0.18615 0.39146 0.12548 0.0
C302 C 0.08944 0.31005 0.15363 0.0
O303 O 0.0975 0.3395 0.16565 0.0
O304 O 0.11682 0.2966 0.14175 0.0
C305 C 0.12263 0.45604 0.18011 0.0
O306 O 0.10804 0.4572 0.16198 0.0
C307 C 0.21517 0.30519 0.17959 0.0
Zn308 Zn 0.96332 0.9251 0.39392 0.0
Zn309 Zn 0.90511 0.90066 0.41861 0.0
O310 O 0.87745 0.91593 0.39178 0.0
O311 O 0.92407 0.94782 0.37381 0.0
O312 O 0.85538 0.89073 0.43676 0.0
O313 O 0.99041 0.96161 0.41368 0.0
O314 O 0.94019 0.94343 0.43386 0.0
C315 C 0.88739 0.93514 0.37599 0.0
C316 C 0.96775 0.83756 0.40461 0.0
O317 O 0.93846 0.84623 0.41664 0.0
O318 O 0.98123 0.86474 0.39274 0.0
C319 C 0.82302 0.87229 0.43065 0.0
O320 O 0.82277 0.85708 0.41262 0.0
C321 C 0.9734 0.96351 0.43049 0.0
Zn322 Zn 0.34474 0.71808 0.64683 0.0
Zn323 Zn 0.36938 0.6552 0.66991 0.0
O324 O 0.3558 0.62975 0.64264 0.0
O325 O 0.33171 0.68065 0.62416 0.0
O326 O 0.37885 0.60334 0.6868 0.0
O327 O 0.3011 0.7373 0.66515 0.0
O328 O 0.32512 0.68907 0.68531 0.0
C329 C 0.34108 0.64268 0.62625 0.0
C330 C 0.43021 0.72327 0.66094 0.0
O331 O 0.42364 0.68806 0.66901 0.0
O332 O 0.40206 0.74135 0.65102 0.0
C333 C 0.38844 0.60362 0.70505 0.0
O334 O 0.39439 0.63945 0.71389 0.0
C335 C 0.30118 0.72006 0.68192 0.0
Zn336 Zn 0.47575 0.09096 0.39133 0.0
Zn337 Zn 0.40965 0.11488 0.41321 0.0
O338 O 0.38688 0.09951 0.38575 0.0
O339 O 0.43968 0.07643 0.36823 0.0
O340 O 0.35688 0.12421 0.42936 0.0
O341 O 0.49407 0.0486 0.4108 0.0
O342 O 0.44302 0.07198 0.42948 0.0
C343 C 0.40143 0.08486 0.36964 0.0
C344 C 0.47624 0.17765 0.40466 0.0
O345 O 0.44086 0.16998 0.41219 0.0
O346 O 0.49627 0.14968 0.39542 0.0
C347 C 0.35609 0.14039 0.44654 0.0
O348 O 0.39096 0.15316 0.45442 0.0
C349 C 0.4749 0.04876 0.42709 0.0
Zn350 Zn 0.68046 0.7297 0.14197 0.0
Zn351 Zn 0.65708 0.66443 0.16457 0.0
O352 O 0.67366 0.63954 0.13762 0.0
O353 O 0.69599 0.69156 0.11955 0.0
O354 O 0.64754 0.61334 0.18183 0.0
O355 O 0.72186 0.7493 0.16156 0.0
O356 O 0.69906 0.69889 0.1806 0.0
C357 C 0.68831 0.65325 0.1214 0.0
C358 C 0.59356 0.73056 0.15459 0.0
O359 O 0.60173 0.69557 0.16261 0.0
O360 O 0.62134 0.75035 0.14538 0.0
C361 C 0.6294 0.58106 0.17536 0.0
O362 O 0.61464 0.58135 0.15726 0.0
C363 C 0.72172 0.73078 0.17804 0.0
Zn364 Zn 0.04684 0.93244 0.89478 0.0
Zn365 Zn 0.11332 0.90908 0.9164 0.0
O366 O 0.13568 0.92552 0.88903 0.0
O367 O 0.08244 0.94784 0.87164 0.0
O368 O 0.16668 0.89947 0.93193 0.0
O369 O 0.02914 0.97443 0.91455 0.0
O370 O 0.08092 0.95222 0.93307 0.0
C371 C 0.12086 0.94029 0.87302 0.0
C372 C 0.04683 0.84578 0.90779 0.0
O373 O 0.08216 0.85375 0.91531 0.0
O374 O 0.02656 0.87364 0.89862 0.0
C375 C 0.16948 0.87997 0.94824 0.0
O376 O 0.13598 0.86354 0.95591 0.0
C377 C 0.04882 0.97513 0.93069 0.0
Zn378 Zn 0.84237 0.30281 0.64304 0.0
Zn379 Zn 0.86566 0.369 0.66451 0.0
O380 O 0.8506 0.39155 0.63683 0.0
O381 O 0.82794 0.33834 0.61964 0.0
O382 O 0.87495 0.42203 0.68049 0.0
O383 O 0.79992 0.28532 0.66244 0.0
O384 O 0.82265 0.33659 0.68099 0.0
C385 C 0.83622 0.37663 0.62078 0.0
C386 C 0.92864 0.30115 0.65633 0.0
O387 O 0.92078 0.33688 0.6637 0.0
O388 O 0.90085 0.28123 0.64718 0.0
C389 C 0.89215 0.42266 0.69742 0.0
O390 O 0.90586 0.38759 0.70504 0.0
C391 C 0.79965 0.30486 0.67865 0.0
Zn392 Zn 0.46784 0.9301 0.02766 0.0
Zn393 Zn 0.40578 0.90677 0.00399 0.0
O394 O 0.37908 0.92057 0.031 0.0
O395 O 0.42922 0.94355 0.04997 0.0
O396 O 0.35548 0.89764 -0.01374 0.0
O397 O 0.48783 0.97357 0.00945 0.0
O398 O 0.44009 0.95088 -0.01106 0.0
C399 C 0.39143 0.93478 0.04756 0.0
C400 C 0.47283 0.8442 0.01368 0.0
O401 O 0.43817 0.85175 0.00529 0.0
O402 O 0.49088 0.872 0.02369 0.0
C403 C 0.32416 0.87734 -0.00777 0.0
O404 O 0.32547 0.85993 0.00979 0.0
C405 C 0.47101 0.97419 -0.00741 0.0
Zn406 Zn 0.84382 0.71919 0.78087 0.0
Zn407 Zn 0.86851 0.65688 0.75706 0.0
O408 O 0.85542 0.62993 0.78402 0.0
O409 O 0.83117 0.68008 0.80298 0.0
O410 O 0.87743 0.60697 0.73873 0.0
O411 O 0.80007 0.73988 0.76291 0.0
O412 O 0.82442 0.69232 0.74244 0.0
C413 C 0.84085 0.64225 0.80056 0.0
C414 C 0.92958 0.72404 0.76678 0.0
O415 O 0.92286 0.68918 0.7584 0.0
O416 O 0.90143 0.74204 0.77677 0.0
C417 C 0.89603 0.574 0.74443 0.0
O418 O 0.91202 0.57295 0.76229 0.0
C419 C 0.80047 0.72324 0.74599 0.0
Zn420 Zn 0.05893 0.09391 0.52824 0.0
Zn421 Zn 0.1216 0.11688 0.50505 0.0
O422 O 0.14733 0.10501 0.53256 0.0
O423 O 0.09638 0.08226 0.55112 0.0
O424 O 0.17207 0.12541 0.48721 0.0
O425 O 0.03999 0.04901 0.5106 0.0
O426 O 0.08806 0.07168 0.49027 0.0
C427 C 0.13415 0.09149 0.54912 0.0
C428 C 0.0532 0.17897 0.51333 0.0
O429 O 0.08843 0.17157 0.50544 0.0
O430 O 0.03506 0.15133 0.5234 0.0
C431 C 0.20462 0.14376 0.49315 0.0
O432 O 0.20509 0.15965 0.51105 0.0
C433 C 0.05738 0.04801 0.49387 0.0
Zn434 Zn 0.67679 0.31091 0.27745 0.0
Zn435 Zn 0.6531 0.3746 0.25482 0.0
O436 O 0.66571 0.39916 0.28237 0.0
O437 O 0.68907 0.34743 0.30054 0.0
O438 O 0.64397 0.42696 0.23836 0.0
O439 O 0.72117 0.2927 0.25934 0.0
O440 O 0.69832 0.34192 0.23942 0.0
C441 C 0.67987 0.38551 0.29874 0.0
C442 C 0.59183 0.30627 0.26278 0.0
O443 O 0.59878 0.34173 0.25506 0.0
O444 O 0.61966 0.28769 0.27271 0.0
C445 C 0.62901 0.42797 0.22095 0.0
O446 O 0.617 0.39312 0.21269 0.0
C447 C 0.72216 0.31084 0.24279 0.0
C448 C 0.02885 0.50673 0.94455 0.0
C449 C 0.9916 0.52919 0.947 0.0
H450 H 0.0766 0.47049 0.95827 0.0
C451 C 0.97361 0.53169 -0.03414 0.0
H452 H 0.04366 0.50436 0.93021 0.0
C453 C 0.99272 0.51249 -0.01801 0.0
C454 C 0.03022 0.49045 -0.02044 0.0
H455 H 0.94511 0.54901 -0.03174 0.0
H456 H 0.97805 0.51497 -0.00365 0.0
C457 C 0.04799 0.48763 0.96067 0.0
C458 C 0.73962 0.7326 0.21395 0.0
C459 C 0.74403 0.74926 0.1949 0.0
H460 H 0.75392 0.73823 0.24461 0.0
C461 C 0.76702 0.78586 0.1924 0.0
H462 H 0.72177 0.70472 0.21642 0.0
C463 C 0.78522 0.80538 0.20863 0.0
C464 C 0.78079 0.78867 0.22767 0.0
H465 H 0.77074 0.7997 0.17792 0.0
H466 H 0.80315 0.83324 0.2062 0.0
C467 C 0.75773 0.75212 0.23015 0.0
C468 C 0.49243 0.51399 0.44402 0.0
C469 C 0.52898 0.49043 0.44655 0.0
H470 H 0.44493 0.55064 0.45774 0.0
C471 C 0.54534 0.48542 0.46563 0.0
H472 H 0.47881 0.51818 0.42952 0.0
C473 C 0.52561 0.50365 0.48184 0.0
C474 C 0.48916 0.52736 0.47929 0.0
H475 H 0.57316 0.46706 0.4681 0.0
H476 H 0.53927 0.49954 0.49634 0.0
C477 C 0.4727 0.53223 0.46022 0.0
C478 C 0.75368 0.25075 0.69319 0.0
C479 C 0.77674 0.28735 0.69556 0.0
H480 H 0.71785 0.20345 0.70714 0.0
C481 C 0.78095 0.3045 0.71453 0.0
H482 H 0.75003 0.23656 0.67878 0.0
C483 C 0.76282 0.28523 0.73081 0.0
C484 C 0.74006 0.24844 0.72847 0.0
H485 H 0.79882 0.33242 0.71688 0.0
H486 H 0.76658 0.29934 0.74524 0.0
C487 C 0.73557 0.23148 0.70948 0.0
C488 C 0.9757 0.48926 0.45608 0.0
C489 C 0.99014 0.49257 0.47559 0.0
H490 H 0.98504 0.50536 0.42576 0.0
C491 C 0.02624 0.5155 0.47934 0.0
H492 H 0.94824 0.4715 0.45268 0.0
C493 C 0.04765 0.53438 0.46392 0.0
C494 C 0.03336 0.53096 0.4444 0.0
H495 H 0.03841 0.51847 0.49419 0.0
H496 H 0.07518 0.55201 0.46736 0.0
C497 C 0.99709 0.50829 0.44064 0.0
C498 C 0.76453 0.75165 0.69466 0.0
C499 C 0.74014 0.78728 0.69832 0.0
H500 H 0.80185 0.70288 0.70684 0.0
C501 C 0.73472 0.80091 0.71787 0.0
H502 H 0.76909 0.74011 0.67975 0.0
C503 C 0.75319 0.77921 0.73344 0.0
C504 C 0.77749 0.7435 0.72976 0.0
H505 H 0.71571 0.82794 0.7212 0.0
H506 H 0.7487 0.79069 0.74836 0.0
C507 C 0.78292 0.72995 0.71021 0.0
C508 C 0.47641 0.48697 -0.0335 0.0
C509 C 0.49061 0.49026 0.94696 0.0
H510 H 0.48582 0.50317 -0.00324 0.0
C511 C 0.52699 0.5127 0.94314 0.0
H512 H 0.4488 0.4695 -0.03002 0.0
C513 C 0.54851 0.53175 0.95853 0.0
C514 C 0.53409 0.52874 -0.02194 0.0
H515 H 0.53899 0.51552 0.92825 0.0
H516 H 0.57601 0.5494 0.95507 0.0
C517 C 0.49795 0.50592 -0.01812 0.0
C518 C 0.7635 0.28603 0.19185 0.0
C519 C 0.78646 0.24947 0.19551 0.0
H520 H 0.72565 0.33466 0.20399 0.0
C521 C 0.78991 0.23476 0.21497 0.0
H522 H 0.76057 0.29837 0.17701 0.0
C523 C 0.77046 0.25588 0.23041 0.0
C524 C 0.74689 0.29203 0.22674 0.0
H525 H 0.80782 0.20702 0.21832 0.0
H526 H 0.77332 0.2433 0.24521 0.0
C527 C 0.74385 0.3071 0.20732 0.0
C528 C 0.28298 0.29813 0.71107 0.0
C529 C 0.27855 0.28122 0.73006 0.0
H530 H 0.26865 0.29287 0.68036 0.0
C531 C 0.2557 0.24448 0.73243 0.0
H532 H 0.30074 0.32612 0.70871 0.0
C533 C 0.23762 0.22513 0.71614 0.0
C534 C 0.24196 0.24213 0.69715 0.0
H535 H 0.25195 0.23043 0.74686 0.0
H536 H 0.21978 0.19719 0.7185 0.0
C537 C 0.26493 0.27877 0.69479 0.0
C538 C 0.2653 0.78211 0.22973 0.0
C539 C 0.24229 0.7455 0.22729 0.0
H540 H 0.30127 0.82945 0.21592 0.0
C541 C 0.23773 0.72878 0.20825 0.0
H542 H 0.26916 0.79602 0.2442 0.0
C543 C 0.25582 0.74825 0.192 0.0
C544 C 0.27888 0.78482 0.19446 0.0
H545 H 0.21983 0.70089 0.20584 0.0
H546 H 0.25202 0.73433 0.17753 0.0
C547 C 0.28335 0.80158 0.21349 0.0
C548 C 0.2805 0.2266 0.20736 0.0
C549 C 0.27817 0.24194 0.22676 0.0
H550 H 0.26303 0.23499 0.17716 0.0
C551 C 0.25514 0.27843 0.2305 0.0
H552 H 0.29824 0.19876 0.20398 0.0
C553 C 0.2354 0.2995 0.21512 0.0
C554 C 0.23811 0.28443 0.19568 0.0
H555 H 0.25289 0.29124 0.24528 0.0
H556 H 0.21787 0.32748 0.2185 0.0
C557 C 0.26065 0.24763 0.19197 0.0
C558 C 0.26431 0.74804 0.73323 0.0
C559 C 0.24003 0.78371 0.72948 0.0
H560 H 0.30197 0.69933 0.72109 0.0
C561 C 0.23476 0.79718 0.70992 0.0
H562 H 0.26869 0.73662 0.74815 0.0
C563 C 0.25337 0.77545 0.69441 0.0
C564 C 0.27778 0.73988 0.69814 0.0
H565 H 0.21584 0.82422 0.70652 0.0
H566 H 0.24898 0.78692 0.67949 0.0
C567 C 0.28297 0.72632 0.71771 0.0
C568 C 0.49573 0.01341 0.47935 0.0
C569 C 0.53233 0.98984 0.47701 0.0
H570 H 0.44836 0.04971 0.4654 0.0
C571 C 0.54901 0.98458 0.458 0.0
H572 H 0.48185 0.0178 0.4938 0.0
C573 C 0.5295 1.00256 0.44167 0.0
C574 C 0.49294 0.02619 0.44404 0.0
H575 H 0.57689 0.96621 0.45568 0.0
H576 H 0.54337 0.99827 0.42722 0.0
C577 C 0.47621 0.03133 0.46304 0.0
C578 C 0.99427 0.02163 0.945 0.0
C579 C 0.0314 0.99896 0.94742 0.0
H580 H 0.94676 0.05819 0.95874 0.0
C581 C 0.04941 0.9964 -0.03373 0.0
H582 H 0.97945 0.02407 0.93068 0.0
C583 C 0.03043 0.01576 -0.01759 0.0
C584 C 0.99307 0.03803 -0.01999 0.0
H585 H 0.07781 0.97891 -0.03135 0.0
H586 H 0.04511 0.01326 -0.00324 0.0
C587 C 0.97528 0.04088 0.96113 0.0
C588 C 0.49825 0.01414 0.9417 0.0
C589 C 0.53461 0.03657 0.94559 0.0
H590 H 0.44913 0.97745 0.95353 0.0
C591 C 0.54879 0.03966 -0.03486 0.0
H592 H 0.48629 1.01146 0.92679 0.0
C593 C 0.52716 0.02065 -0.01953 0.0
C594 C 0.49097 0.99795 -0.02342 0.0
H595 H 0.57639 0.0571 -0.03133 0.0
H596 H 0.53923 0.02332 -0.00464 0.0
C597 C 0.47666 0.99501 0.95704 0.0
C598 C 0.05273 0.02661 0.45837 0.0
C599 C 0.038 0.02381 0.47785 0.0
H600 H 0.04342 1.01041 0.42806 0.0
C601 C 1.0017 1.00119 0.48159 0.0
H602 H 0.08038 0.04408 0.45497 0.0
C603 C 0.98018 0.98241 0.46616 0.0
C604 C 0.9946 0.98562 0.44666 0.0
H605 H 0.98934 0.99858 0.49643 0.0
H606 H 0.95238 0.96519 0.46957 0.0
C607 C 0.03125 1.00768 0.44293 0.0
C608 C 1.00179 0.24562 0.0422 0.0
C609 C 0.99055 0.22677 0.0243 0.0
H610 H 0.03001 0.29802 0.05619 0.0
C611 C 1.00103 0.2459 0.00635 0.0
H612 H 0.99427 0.23116 0.0562 0.0
C613 C 0.02304 0.28323 0.00634 0.0
C614 C 0.03359 0.30239 0.02429 0.0
H615 H 0.99314 0.23148 -0.00762 0.0
H616 H 0.03085 0.29766 -0.00763 0.0
C617 C 0.02244 0.28354 0.0422 0.0
C618 C 0.01616 0.72338 0.26711 0.0
C619 C 0.05156 0.7483 0.26767 0.0
H620 H 0.94986 0.72177 0.26742 0.0
C621 C 0.04693 0.79183 0.26767 0.0
H622 H 0.01891 0.6898 0.26711 0.0
C623 C 1.00753 0.81015 0.26739 0.0
C624 C 0.97212 0.78522 0.26764 0.0
H625 H 0.07382 0.81175 0.26795 0.0
H626 H 1.00476 0.84373 0.26762 0.0
C627 C 0.97676 0.7417 0.26737 0.0
C628 C 0.46806 0.75616 0.51644 0.0
C629 C 0.49277 0.72017 0.51722 0.0
H630 H 0.46671 0.82268 0.51647 0.0
C631 C 0.53619 0.72389 0.51722 0.0
H632 H 0.43457 0.7541 0.51644 0.0
C633 C 0.55461 0.76302 0.51679 0.0
C634 C 0.52987 0.79902 0.5169 0.0
H635 H 0.55593 0.69651 0.51766 0.0
H636 H 0.5881 0.76511 0.51707 0.0
C637 C 0.48647 0.79528 0.51655 0.0
C638 C 0.54446 0.29 0.77 0.0
C639 C 0.54995 0.24657 0.77007 0.0
H640 H 0.50129 0.34105 0.76995 0.0
C641 C 0.51506 0.22093 0.76984 0.0
H642 H 0.57095 0.31046 0.77004 0.0
C643 C 0.4753 0.23846 0.77024 0.0
C644 C 0.46982 0.28189 0.77034 0.0
H645 H 0.51849 0.18741 0.76992 0.0
H646 H 0.44881 0.218 0.77047 0.0
C647 C 0.50471 0.30752 0.76986 0.0
C648 C 0.99921 0.77769 0.38684 0.0
C649 C 0.98807 0.79655 0.4048 0.0
H650 H 0.02905 0.72598 0.37269 0.0
C651 C 0.99996 0.77783 0.42269 0.0
H652 H 0.99061 0.79181 0.37288 0.0
C653 C 0.02339 0.741 0.42258 0.0
C654 C 0.03403 0.72193 0.40457 0.0
H655 H 0.99217 0.79229 0.4367 0.0
H656 H 0.0324 0.72697 0.4365 0.0
C657 C 0.02137 0.74032 0.38674 0.0
C658 C 0.51097 0.80743 0.6632 0.0
C659 C 0.54774 0.78397 0.66286 0.0
H660 H 0.44466 0.80623 0.66254 0.0
C661 C 0.54565 0.74031 0.6633 0.0
H662 H 0.51181 0.84108 0.66284 0.0
C663 C 0.50737 0.72037 0.66359 0.0
C664 C 0.47062 0.7438 0.66288 0.0
H665 H 0.57369 0.72154 0.6632 0.0
H666 H 0.50655 0.68672 0.66355 0.0
C667 C 0.4727 0.78748 0.66293 0.0
C668 C 0.52385 0.24556 0.88744 0.0
C669 C 0.53616 0.22692 0.90526 0.0
H670 H 0.4926 0.29681 0.87362 0.0
C671 C 0.52465 0.24539 0.92328 0.0
H672 H 0.53216 0.23165 0.87337 0.0
C673 C 0.50058 0.28182 0.92343 0.0
C674 C 0.4889 0.30074 0.90555 0.0
H675 H 0.53335 0.23112 0.9372 0.0
H676 H 0.49202 0.29574 0.93745 0.0
C677 C 0.50104 0.28254 0.88758 0.0
C678 C 0.03027 0.2781 0.17181 0.0
C679 C 0.04898 0.2894 0.15387 0.0
H680 H 0.97982 0.24623 0.18576 0.0
C681 C 0.03068 0.27737 0.13597 0.0
H682 H 0.04429 0.28654 0.18579 0.0
C683 C 0.9938 0.25511 0.13595 0.0
C684 C 0.97537 0.2432 0.15384 0.0
H685 H 0.0448 0.28548 0.12196 0.0
H686 H 0.97977 0.24695 0.12193 0.0
C687 C 0.99395 0.25458 0.1718 0.0
C688 C 0.03703 0.72896 0.90943 0.0
C689 C 0.99373 0.72416 0.90933 0.0
H690 H 0.0879 0.77143 0.90952 0.0
C691 C 0.96816 0.75957 0.90993 0.0
H692 H 0.05743 0.70205 0.90912 0.0
C693 C 0.9856 0.79916 0.90971 0.0
C694 C 0.02889 0.80396 0.90943 0.0
H695 H 0.93473 0.75669 0.90984 0.0
H696 H 0.96519 0.82607 0.90961 0.0
C697 C 0.05448 0.76854 0.90975 0.0
C698 C 0.97503 0.23889 0.65834 0.0
C699 C 0.97028 0.2824 0.65808 0.0
H700 H 0.01735 0.18714 0.65859 0.0
C701 C 1.00559 0.30745 0.65854 0.0
H702 H 0.94819 0.21889 0.65813 0.0
C703 C 0.04504 0.28927 0.65835 0.0
C704 C 0.0498 0.24576 0.65823 0.0
H705 H 1.00274 0.34102 0.65832 0.0
H706 H 0.07188 0.30927 0.65816 0.0
C707 C 0.01449 0.22072 0.65868 0.0
C708 C 0.55552 0.26327 0.40703 0.0
C709 C 0.53013 0.29882 0.4068 0.0
H710 H 0.55809 0.19677 0.40621 0.0
C711 C 0.48681 0.29428 0.40698 0.0
H712 H 0.58896 0.26599 0.40687 0.0
C713 C 0.46914 0.25482 0.40705 0.0
C714 C 0.49451 0.21928 0.4064 0.0
H715 H 0.46655 0.3213 0.40696 0.0
H716 H 0.43569 0.25214 0.40692 0.0
C717 C 0.53784 0.2238 0.40656 0.0
C718 C 0.50638 0.80958 0.15601 0.0
C719 C 0.4715 0.78391 0.15562 0.0
H720 H 0.57263 0.81252 0.15565 0.0
C721 C 0.47696 0.7405 0.15586 0.0
H722 H 0.50294 0.8431 0.1558 0.0
C723 C 0.51671 0.72301 0.15623 0.0
C724 C 0.55159 0.74866 0.15582 0.0
H725 H 0.45046 0.72005 0.15569 0.0
H726 H 0.52014 0.68948 0.1562 0.0
C727 C 0.54613 0.79208 0.15583 0.0
C728 C 0.96978 0.26181 0.5106 0.0
C729 C 0.99339 0.29816 0.51095 0.0
H730 H 0.97056 0.19527 0.51139 0.0
C731 C 0.0369 0.29507 0.51065 0.0
H732 H 0.93623 0.26343 0.51085 0.0
C733 C 0.05653 0.25622 0.51048 0.0
C734 C 0.03294 0.21989 0.51118 0.0
H735 H 0.05577 0.32276 0.51077 0.0
H736 H 0.09008 0.25463 0.51064 0.0
C737 C 0.98942 0.22296 0.511 0.0
C738 C 0.47624 0.29026 0.26065 0.0
C739 C 0.47384 0.24661 0.26058 0.0
H740 H 0.51575 0.34355 0.26087 0.0
C741 C 0.51043 0.22292 0.25971 0.0
H742 H 0.44834 0.3092 0.26117 0.0
C743 C 0.54886 0.24256 0.26 0.0
C744 C 0.55127 0.28619 0.26059 0.0
H745 H 0.50936 0.18927 0.25966 0.0
H746 H 0.57677 0.22359 0.26003 0.0
C747 C 0.51467 0.30992 0.26038 0.0
C748 C 0.46865 0.76687 0.01168 0.0
C749 C 0.49263 0.80297 0.01204 0.0
H750 H 0.46873 0.70033 0.01251 0.0
C751 C 0.53611 0.79945 0.01192 0.0
H752 H 0.43511 0.76884 0.0118 0.0
C753 C 0.55534 0.7604 0.01184 0.0
C754 C 0.53135 0.72432 0.01246 0.0
H755 H 0.55525 0.82696 0.01208 0.0
H756 H 0.58887 0.75846 0.01208 0.0
C757 C 0.48788 0.72783 0.01218 0.0
C758 C 0.97252 0.7879 0.76493 0.0
C759 C 0.97014 0.74425 0.76506 0.0
H760 H 0.01206 0.84118 0.76489 0.0
C761 C 1.00672 0.72052 0.76455 0.0
H762 H 0.94462 0.80685 0.76519 0.0
C763 C 0.04514 0.74015 0.76488 0.0
C764 C 0.04753 0.78379 0.76513 0.0
H765 H 1.00563 0.68687 0.76468 0.0
H766 H 0.07305 0.72119 0.76507 0.0
C767 C 1.01096 0.80754 0.76468 0.0
C768 C 0.28263 0.38987 -0.03672 0.0
C769 C 0.28346 0.37191 0.94431 0.0
H770 H 0.24623 0.40568 -0.01123 0.0
C771 C 0.24684 0.35426 0.93691 0.0
H772 H 0.31022 0.40373 -0.03053 0.0
C773 C 0.21011 0.35549 0.94795 0.0
C774 C 0.20899 0.37431 -0.03329 0.0
H775 H 0.24623 0.34011 0.92238 0.0
H776 H 0.18242 0.34217 0.9416 0.0
C777 C 0.24587 0.391 -0.02564 0.0
C778 C 0.91996 1.00216 0.18596 0.0
C779 C 0.902 0.03926 0.19309 0.0
H780 H 0.93215 0.93752 0.19097 0.0
C781 C 0.8834 0.03898 0.21191 0.0
H782 H 0.93462 1.00112 0.17156 0.0
C783 C 0.88198 1.00229 0.2231 0.0
C784 C 0.89908 0.96497 0.21573 0.0
H785 H 0.86926 0.06694 0.21788 0.0
H786 H 0.86684 1.00307 0.23739 0.0
C787 C 0.91851 0.96555 0.19712 0.0
C788 C 0.24016 0.63121 0.46159 0.0
C789 C 0.23946 0.65012 0.44284 0.0
H790 H 0.27622 0.61478 0.48709 0.0
C791 C 0.27595 0.6687 0.43584 0.0
H792 H 0.21267 0.61659 0.46747 0.0
C793 C 0.31241 0.66758 0.44706 0.0
C794 C 0.31341 0.64789 0.46561 0.0
H795 H 0.27665 0.6836 0.42148 0.0
H796 H 0.34 0.68171 0.44102 0.0
C797 C 0.27667 0.63014 0.47285 0.0
C798 C 0.64028 0.03916 0.7181 0.0
C799 C 0.62898 0.0391 0.7382 0.0
H800 H 0.64945 1.00337 0.69166 0.0
C801 C 0.61677 1.00134 0.74683 0.0
H802 H 0.6498 0.06764 0.71095 0.0
C803 C 0.61673 0.96448 0.7358 0.0
C804 C 0.62871 0.96434 0.71581 0.0
H805 H 0.60785 1.00002 0.76225 0.0
H806 H 0.60771 0.93596 0.74307 0.0
C807 C 0.64004 1.00226 0.70703 0.0
C808 C 0.74123 0.63122 -0.03701 0.0
C809 C 0.73898 0.65102 -0.01848 0.0
H810 H 0.77908 0.61458 0.93812 0.0
C811 C 0.77455 0.67091 -0.01121 0.0
H812 H 0.71448 0.61562 0.95692 0.0
C813 C 0.81164 0.67023 -0.02197 0.0
C814 C 0.81415 0.64972 0.9597 0.0
H815 H 0.77401 0.68651 0.00298 0.0
H816 H 0.8385 0.68539 -0.01576 0.0
C817 C 0.77834 0.63061 0.95221 0.0
C818 C 0.10207 0.02838 0.73912 0.0
C819 C 0.12088 0.99163 0.73208 0.0
H820 H 0.08899 0.09287 0.73408 0.0
C821 C 0.1402 0.99234 0.71343 0.0
H822 H 0.08685 0.02907 0.75339 0.0
C823 C 0.14142 0.0291 0.7023 0.0
C824 C 0.1234 0.06608 0.70957 0.0
H825 H 0.15499 0.96465 0.70752 0.0
H826 H 0.15707 0.02865 0.68813 0.0
C827 C 0.10334 0.06509 0.72803 0.0
C828 C 0.78225 0.39124 0.46158 0.0
C829 C 0.78428 0.3722 0.48028 0.0
H830 H 0.74451 0.40744 0.43661 0.0
C831 C 0.74841 0.35325 0.48778 0.0
H832 H 0.80923 0.40613 0.45533 0.0
C833 C 0.71127 0.35407 0.47707 0.0
C834 C 0.70897 0.37382 0.45855 0.0
H835 H 0.74875 0.33824 0.50211 0.0
H836 H 0.6842 0.33962 0.48346 0.0
C837 C 0.74507 0.39202 0.45084 0.0
C838 C 0.42316 1.00167 0.23521 0.0
C839 C 0.40225 0.03765 0.22866 0.0
H840 H 0.4378 0.93758 0.2299 0.0
C841 C 0.38062 0.03602 0.21062 0.0
H842 H 0.44018 1.00173 0.24901 0.0
C843 C 0.37919 0.99909 0.19964 0.0
C844 C 0.39938 0.96286 0.20642 0.0
H845 H 0.36415 0.06311 0.20511 0.0
H846 H 0.36176 0.99883 0.18596 0.0
C847 C 0.42175 0.96477 0.22424 0.0
C848 C 0.74847 0.85277 0.43552 0.0
C849 C 0.78483 0.87079 0.443 0.0
H850 H 0.68415 0.84002 0.44003 0.0
C851 C 0.78358 0.88888 0.46195 0.0
H852 H 0.7482 0.8385 0.42101 0.0
C853 C 0.74666 0.88971 0.47292 0.0
C854 C 0.71006 0.87256 0.4652 0.0
H855 H 0.81095 0.90303 0.4682 0.0
H856 H 0.74668 0.90445 0.48732 0.0
C857 C 0.71161 0.85368 0.44645 0.0
C858 C 0.40277 0.5643 0.73647 0.0
C859 C 0.39061 0.56413 0.71651 0.0
H860 H 0.41196 0.52914 0.763 0.0
C861 C 0.37925 0.52606 0.70786 0.0
H862 H 0.41181 0.59295 0.74364 0.0
C863 C 0.37918 0.48933 0.71902 0.0
C864 C 0.39066 0.48969 0.73909 0.0
H865 H 0.36971 0.52471 0.69252 0.0
H866 H 0.36964 0.46073 0.71197 0.0
C867 C 0.40289 0.52759 0.7476 0.0
C868 C 0.77852 0.13732 -0.02614 0.0
C869 C 0.81572 0.15323 -0.03382 0.0
H870 H 0.71415 0.12494 -0.03116 0.0
C871 C 0.81518 0.17096 0.94718 0.0
H872 H 0.77773 0.12347 -0.01156 0.0
C873 C 0.77869 0.17193 0.93598 0.0
C874 C 0.74174 0.15507 0.94342 0.0
H875 H 0.84313 0.18364 0.94079 0.0
H876 H 0.77973 0.18526 0.92128 0.0
C877 C 0.742 0.13816 -0.03739 0.0
C878 C 0.14131 0.5315 0.22258 0.0
C879 C 0.12424 0.56872 0.2151 0.0
H880 H 0.15408 0.46681 0.21755 0.0
C881 C 0.1049 0.56788 0.19647 0.0
H882 H 0.15638 0.53092 0.23688 0.0
C883 C 0.10351 0.53111 0.18541 0.0
C884 C 0.12145 0.49412 0.19265 0.0
H885 H 0.09128 0.59583 0.19025 0.0
H886 H 0.08894 0.53193 0.17099 0.0
C887 C 0.13995 0.49467 0.21149 0.0
C888 C 0.24323 0.12692 0.46166 0.0
C889 C 0.24259 0.14486 0.48064 0.0
H890 H 0.27927 0.11155 0.43599 0.0
C891 C 0.27925 0.1626 0.48794 0.0
H892 H 0.2156 0.11299 0.45555 0.0
C893 C 0.31578 0.16167 0.47676 0.0
C894 C 0.31666 0.14308 0.45793 0.0
H895 H 0.28 0.17673 0.50247 0.0
H896 H 0.34348 0.17518 0.48301 0.0
C897 C 0.27979 0.1261 0.45043 0.0
C898 C 0.64354 0.5045 0.21778 0.0
C899 C 0.62714 0.46776 0.20975 0.0
H900 H 0.65712 0.56894 0.21334 0.0
C901 C 0.61004 0.46916 0.19064 0.0
H902 H 0.65694 0.50462 0.23247 0.0
C903 C 0.61004 0.5061 0.17969 0.0
C904 C 0.62725 0.54261 0.18754 0.0
H905 H 0.59703 0.44156 0.18399 0.0
H906 H 0.59708 0.50579 0.16492 0.0
C907 C 0.64366 0.54144 0.2068 0.0
C908 C 0.21289 0.85622 -0.02297 0.0
C909 C 0.20976 0.87744 0.95891 0.0
H910 H 0.25123 0.83931 0.00161 0.0
C911 C 0.24523 0.89714 0.9514 0.0
H912 H 0.18631 0.84059 -0.01675 0.0
C913 C 0.28261 0.89641 0.96197 0.0
C914 C 0.28545 0.87592 -0.01971 0.0
H915 H 0.24402 0.91371 0.93748 0.0
H916 H 0.30908 0.91248 0.9559 0.0
C917 C 0.25023 0.85545 -0.01243 0.0
C918 C 0.91444 0.46267 0.72748 0.0
C919 C 0.89501 0.4621 0.70887 0.0
H920 H 0.93025 0.49814 0.75313 0.0
C921 C 0.87739 0.49929 0.70165 0.0
H922 H 0.92846 0.43472 0.73351 0.0
C923 C 0.87838 0.53584 0.71296 0.0
C924 C 0.8971 0.53613 0.73175 0.0
H925 H 0.86221 0.50006 0.68737 0.0
H926 H 0.86392 0.56371 0.70709 0.0
C927 C 0.91551 0.49916 0.73875 0.0
C928 C 0.19022 0.41998 0.07214 0.0
C929 C 0.1549 0.44568 0.07108 0.0
H930 H 0.22907 0.38299 0.09084 0.0
C931 C 0.13958 0.46383 0.08858 0.0
H932 H 0.20346 0.40626 0.05891 0.0
C933 C 0.1544 0.45055 0.10695 0.0
C934 C 0.18453 0.41887 0.10796 0.0
H935 H 0.11306 0.48469 0.08823 0.0
H936 H 0.13867 0.4614 0.12016 0.0
C937 C 0.20492 0.40659 0.09049 0.0
C938 C 0.8301 0.90221 0.35707 0.0
C939 C 0.86048 0.93312 0.35833 0.0
H940 H 0.79717 0.86101 0.33801 0.0
C941 C 0.872 0.95431 0.34101 0.0
H942 H 0.82002 0.88572 0.37015 0.0
C943 C 0.85876 0.94022 0.32254 0.0
C944 C 0.83405 0.9046 0.32118 0.0
H945 H 0.89471 0.9789 0.34155 0.0
H946 H 0.87172 0.95433 0.30941 0.0
C947 C 0.81711 0.88791 0.33859 0.0
C948 C 0.37292 0.58398 0.60746 0.0
C949 C 0.34346 0.61629 0.60842 0.0
H950 H 0.4131 0.54827 0.58877 0.0
C951 C 0.32369 0.62928 0.59094 0.0
H952 H 0.38833 0.5729 0.6207 0.0
C953 C 0.33764 0.61487 0.57261 0.0
C954 C 0.37189 0.58772 0.57158 0.0
H955 H 0.30026 0.65359 0.59128 0.0
H956 H 0.32466 0.62865 0.55935 0.0
C957 C 0.38723 0.56994 0.58913 0.0
C958 C 0.66957 0.09065 0.82197 0.0
C959 C 0.69282 0.12731 0.82096 0.0
H960 H 0.6353 0.04974 0.8406 0.0
C961 C 0.70931 0.14379 0.83853 0.0
H962 H 0.65707 0.07664 0.80871 0.0
C963 C 0.69706 0.12813 0.85686 0.0
C964 C 0.66786 0.09605 0.85782 0.0
H965 H 0.72819 0.17147 0.83821 0.0
H966 H 0.70661 0.14442 0.8701 0.0
C967 C 0.65706 0.0752 0.8403 0.0
C968 C 0.16773 0.58986 0.32074 0.0
C969 C 0.19076 0.62669 0.32003 0.0
H970 H 0.13378 0.54796 0.33901 0.0
C971 C 0.20686 0.64284 0.33775 0.0
H972 H 0.15551 0.57612 0.30735 0.0
C973 C 0.19465 0.62643 0.35594 0.0
C974 C 0.16585 0.59395 0.35663 0.0
H975 H 0.22553 0.67067 0.33767 0.0
H976 H 0.204 0.64235 0.36931 0.0
C977 C 0.15526 0.57366 0.33893 0.0
C978 C 0.64618 0.94083 0.60633 0.0
C979 C 0.67602 0.90896 0.60777 0.0
H980 H 0.60605 0.97514 0.58707 0.0
C981 C 0.69642 0.89544 0.59053 0.0
H982 H 0.63026 0.95228 0.61938 0.0
C983 C 0.68277 0.90881 0.57199 0.0
C984 C 0.6482 0.93544 0.57049 0.0
H985 H 0.72014 0.87145 0.59124 0.0
H986 H 0.69627 0.89459 0.55894 0.0
C987 C 0.63219 0.95384 0.58778 0.0
C988 C 0.35367 0.43792 0.82339 0.0
C989 C 0.32981 0.40164 0.82249 0.0
H990 H 0.38912 0.47821 0.84184 0.0
C991 C 0.31366 0.38528 0.84014 0.0
H992 H 0.36596 0.45182 0.81006 0.0
C993 C 0.32671 0.40066 0.85841 0.0
C994 C 0.35639 0.43231 0.85922 0.0
H995 H 0.29436 0.3579 0.83991 0.0
H996 H 0.31728 0.38447 0.87169 0.0
C997 C 0.367 0.45307 0.84166 0.0
C998 C 0.81887 0.12552 0.09064 0.0
C999 C 0.83918 0.11342 0.10815 0.0
H1000 H 0.82021 0.12505 0.05907 0.0
C1001 C 0.86893 0.08136 0.10726 0.0
H1002 H 0.795 0.14939 0.0909 0.0
C1003 C 0.88352 0.06745 0.08895 0.0
C1004 C 0.86836 0.08534 0.07137 0.0
H1005 H 0.88456 0.07065 0.12051 0.0
H1006 H 0.9098 0.04628 0.08868 0.0
C1007 C 0.83333 0.11149 0.07234 0.0
C1008 C 0.87543 0.58476 0.819 0.0
C1009 C 0.84441 0.61561 0.81824 0.0
H1010 H 0.91786 0.55117 0.83743 0.0
C1011 C 0.82451 0.62764 0.83585 0.0
H1012 H 0.89104 0.57446 0.80567 0.0
C1013 C 0.83966 0.61401 0.85408 0.0
C1014 C 0.87525 0.58861 0.85489 0.0
H1015 H 0.79997 0.65084 0.83566 0.0
H1016 H 0.82635 0.62715 0.86742 0.0
C1017 C 0.89096 0.57154 0.83724 0.0
C1018 C 0.14712 0.07561 0.58465 0.0
C1019 C 0.15971 0.09534 0.56713 0.0
H1020 H 0.14677 0.07725 0.61623 0.0
C1021 C 0.19021 0.12615 0.56816 0.0
H1022 H 0.12413 0.05128 0.58426 0.0
C1023 C 0.20286 0.14143 0.58652 0.0
C1024 C 0.18555 0.12571 0.60406 0.0
H1025 H 0.20083 0.14169 0.55491 0.0
H1026 H 0.22313 0.16808 0.58689 0.0
C1027 C 0.16018 0.09051 0.603 0.0
C1028 C 0.68251 0.41088 0.35261 0.0
C1029 C 0.64759 0.43712 0.35388 0.0
H1030 H 0.72088 0.37396 0.33359 0.0
C1031 C 0.63196 0.45542 0.33651 0.0
H1032 H 0.69572 0.39677 0.36573 0.0
C1033 C 0.64674 0.44266 0.31805 0.0
C1034 C 0.67695 0.41109 0.3168 0.0
H1035 H 0.60556 0.47642 0.33707 0.0
H1036 H 0.63114 0.45398 0.30491 0.0
C1037 C 0.69692 0.39772 0.33416 0.0
C1038 C 0.37662 0.95186 0.08281 0.0
C1039 C 0.36466 0.93207 0.06521 0.0
H1040 H 0.3752 0.95068 0.11438 0.0
C1041 C 0.33331 0.90207 0.06593 0.0
H1042 H 0.40021 0.97564 0.08265 0.0
C1043 C 0.31931 0.88735 0.08416 0.0
C1044 C 0.3361 0.90285 0.10185 0.0
H1045 H 0.32306 0.88657 0.05259 0.0
H1046 H 0.2985 0.8611 0.08434 0.0
C1047 C 0.36219 0.93756 0.10102 0.0
C1048 C 0.82076 0.38513 0.58482 0.0
C1049 C 0.83808 0.40109 0.6023 0.0
H1050 H 0.82394 0.38291 0.55325 0.0
C1051 C 0.86499 0.43509 0.60104 0.0
H1052 H 0.79935 0.35939 0.58534 0.0
C1053 C 0.87939 0.4483 0.58263 0.0
C1054 C 0.86663 0.42809 0.56525 0.0
H1055 H 0.87849 0.44849 0.61422 0.0
H1056 H 0.90343 0.47159 0.58215 0.0
C1057 C 0.83476 0.39873 0.56639 0.0
C1058 C 0.32807 0.12877 0.33227 0.0
C1059 C 0.3482 0.11674 0.31472 0.0
H1060 H 0.32851 0.12672 0.36384 0.0
C1061 C 0.37806 0.08477 0.31544 0.0
H1062 H 0.30436 0.15281 0.3321 0.0
C1063 C 0.39227 0.07009 0.33367 0.0
C1064 C 0.37642 0.08688 0.35136 0.0
H1065 H 0.39378 0.07446 0.30213 0.0
H1066 H 0.4184 0.04873 0.33389 0.0
C1067 C 0.34188 0.11369 0.35048 0.0
C1068 C 0.70429 0.64183 0.08567 0.0
C1069 C 0.68712 0.6271 0.10342 0.0
H1070 H 0.70098 0.64157 0.0541 0.0
C1071 C 0.6607 0.59263 0.10277 0.0
H1072 H 0.72535 0.66788 0.08572 0.0
C1073 C 0.64637 0.57785 0.08462 0.0
C1074 C 0.65876 0.59692 0.06691 0.0
H1075 H 0.64739 0.5801 0.11619 0.0
H1076 H 0.62256 0.5543 0.08457 0.0
C1077 C 0.69039 0.62663 0.06751 0.0
C1078 C 0.19589 0.90016 0.83543 0.0
C1079 C 0.17549 0.91221 0.81797 0.0
H1080 H 0.19507 0.9009 0.86701 0.0
C1081 C 0.14483 0.94339 0.81892 0.0
H1082 H 0.2202 0.87672 0.83508 0.0
C1083 C 0.13003 0.9569 0.83726 0.0
C1084 C 0.14612 0.93977 0.8548 0.0
H1085 H 0.12888 0.95372 0.80569 0.0
H1086 H 0.10331 0.9775 0.83763 0.0
C1087 C 0.18147 0.91408 0.85375 0.0
loop_
_geom_bond_atom_site_label_1
_geom_bond_atom_site_label_2
_geom_bond_distance
_geom_bond_site_symmetry_2
_ccdc_geom_bond_type
Zn0 O3 2.031 . S
Zn0 O5 2.049 . S
Zn0 O10 2.067 . S
Zn1 O2 1.962 . S
Zn1 O4 1.986 . S
Zn1 O6 1.996 . S
Zn1 O9 1.943 . S
O2 Zn1 1.962 . S
O2 C7 1.254 . S
O3 Zn0 2.031 . S
O3 C7 1.269 . S
O4 Zn1 1.986 . S
O4 C11 1.262 . S
O5 Zn0 2.049 . S
O5 C13 1.260 . S
O6 Zn1 1.996 . S
O6 C13 1.257 . S
C7 O2 1.254 . S
C7 O3 1.269 . S
C8 O9 1.249 . S
C8 O10 1.270 . S
O9 Zn1 1.943 . S
O9 C8 1.249 . S
O10 Zn0 2.067 . S
O10 C8 1.270 . S
C11 O4 1.262 . S
C11 O12 1.232 . S
O12 C11 1.232 . S
C13 O5 1.260 . S
C13 O6 1.257 . S
Zn14 O17 2.031 . S
Zn14 O19 2.049 . S
Zn14 O24 2.067 . S
Zn15 O16 1.962 . S
Zn15 O18 1.986 . S
Zn15 O20 1.996 . S
Zn15 O23 1.943 . S
O16 Zn15 1.962 . S
O16 C21 1.254 . S
O17 Zn14 2.031 . S
O17 C21 1.269 . S
O18 Zn15 1.986 . S
O18 C25 1.262 . S
O19 Zn14 2.049 . S
O19 C27 1.260 . S
O20 Zn15 1.996 . S
O20 C27 1.257 . S
C21 O16 1.254 . S
C21 O17 1.269 . S
C22 O23 1.249 . S
C22 O24 1.270 . S
O23 Zn15 1.943 . S
O23 C22 1.249 . S
O24 Zn14 2.067 . S
O24 C22 1.270 . S
C25 O18 1.262 . S
C25 O26 1.232 . S
O26 C25 1.232 . S
C27 O19 1.260 . S
C27 O20 1.257 . S
Zn28 O31 2.031 . S
Zn28 O33 2.049 . S
Zn28 O38 2.067 . S
Zn29 O30 1.962 . S
Zn29 O32 1.986 . S
Zn29 O34 1.996 . S
Zn29 O37 1.943 . S
O30 Zn29 1.962 . S
O30 C35 1.254 . S
O31 Zn28 2.031 . S
O31 C35 1.269 . S
O32 Zn29 1.986 . S
O32 C39 1.262 . S
O33 Zn28 2.049 . S
O33 C41 1.260 . S
O34 Zn29 1.996 . S
O34 C41 1.257 . S
C35 O30 1.254 . S
C35 O31 1.269 . S
C36 O37 1.249 . S
C36 O38 1.270 . S
O37 Zn29 1.943 . S
O37 C36 1.249 . S
O38 Zn28 2.067 . S
O38 C36 1.270 . S
C39 O32 1.262 . S
C39 O40 1.232 . S
O40 C39 1.232 . S
C41 O33 1.260 . S
C41 O34 1.257 . S
Zn42 O45 2.031 . S
Zn42 O47 2.049 . S
Zn42 O52 2.067 . S
Zn43 O44 1.962 . S
Zn43 O46 1.986 . S
Zn43 O48 1.996 . S
Zn43 O51 1.943 . S
O44 Zn43 1.962 . S
O44 C49 1.254 . S
O45 Zn42 2.031 . S
O45 C49 1.269 . S
O46 Zn43 1.986 . S
O46 C53 1.262 . S
O47 Zn42 2.049 . S
O47 C55 1.260 . S
O48 Zn43 1.996 . S
O48 C55 1.257 . S
C49 O44 1.254 . S
C49 O45 1.269 . S
C50 O51 1.249 . S
C50 O52 1.270 . S
O51 Zn43 1.943 . S
O51 C50 1.249 . S
O52 Zn42 2.067 . S
O52 C50 1.270 . S
C53 O46 1.262 . S
C53 O54 1.232 . S
O54 C53 1.232 . S
C55 O47 1.260 . S
C55 O48 1.257 . S
Zn56 O59 2.031 . S
Zn56 O61 2.049 . S
Zn56 O66 2.067 . S
Zn57 O58 1.962 . S
Zn57 O60 1.986 . S
Zn57 O62 1.996 . S
Zn57 O65 1.943 . S
O58 Zn57 1.962 . S
O58 C63 1.254 . S
O59 Zn56 2.031 . S
O59 C63 1.269 . S
O60 Zn57 1.986 . S
O60 C67 1.262 . S
O61 Zn56 2.049 . S
O61 C69 1.260 . S
O62 Zn57 1.996 . S
O62 C69 1.257 . S
C63 O58 1.254 . S
C63 O59 1.269 . S
C64 O65 1.249 . S
C64 O66 1.270 . S
O65 Zn57 1.943 . S
O65 C64 1.249 . S
O66 Zn56 2.067 . S
O66 C64 1.270 . S
C67 O60 1.262 . S
C67 O68 1.232 . S
O68 C67 1.232 . S
C69 O61 1.260 . S
C69 O62 1.257 . S
Zn70 O73 2.031 . S
Zn70 O75 2.049 . S
Zn70 O80 2.067 . S
Zn71 O72 1.962 . S
Zn71 O74 1.986 . S
Zn71 O76 1.996 . S
Zn71 O79 1.943 . S
O72 Zn71 1.962 . S
O72 C77 1.254 . S
O73 Zn70 2.031 . S
O73 C77 1.269 . S
O74 Zn71 1.986 . S
O74 C81 1.262 . S
O75 Zn70 2.049 . S
O75 C83 1.260 . S
O76 Zn71 1.996 . S
O76 C83 1.257 . S
C77 O72 1.254 . S
C77 O73 1.269 . S
C78 O79 1.249 . S
C78 O80 1.270 . S
O79 Zn71 1.943 . S
O79 C78 1.249 . S
O80 Zn70 2.067 . S
O80 C78 1.270 . S
C81 O74 1.262 . S
C81 O82 1.232 . S
O82 C81 1.232 . S
C83 O75 1.260 . S
C83 O76 1.257 . S
Zn84 O87 2.031 . S
Zn84 O89 2.049 . S
Zn84 O94 2.067 . S
Zn85 O86 1.962 . S
Zn85 O88 1.986 . S
Zn85 O90 1.996 . S
Zn85 O93 1.943 . S
O86 Zn85 1.962 . S
O86 C91 1.254 . S
O87 Zn84 2.031 . S
O87 C91 1.269 . S
O88 Zn85 1.986 . S
O88 C95 1.262 . S
O89 Zn84 2.049 . S
O89 C97 1.260 . S
O90 Zn85 1.996 . S
O90 C97 1.257 . S
C91 O86 1.254 . S
C91 O87 1.269 . S
C92 O93 1.249 . S
C92 O94 1.270 . S
O93 Zn85 1.943 . S
O93 C92 1.249 . S
O94 Zn84 2.067 . S
O94 C92 1.270 . S
C95 O88 1.262 . S
C95 O96 1.232 . S
O96 C95 1.232 . S
C97 O89 1.260 . S
C97 O90 1.257 . S
Zn98 O101 2.031 . S
Zn98 O103 2.049 . S
Zn98 O108 2.067 . S
Zn99 O100 1.962 . S
Zn99 O102 1.986 . S
Zn99 O104 1.996 . S
Zn99 O107 1.943 . S
O100 Zn99 1.962 . S
O100 C105 1.254 . S
O101 Zn98 2.031 . S
O101 C105 1.269 . S
O102 Zn99 1.986 . S
O102 C109 1.262 . S
O103 Zn98 2.049 . S
O103 C111 1.260 . S
O104 Zn99 1.996 . S
O104 C111 1.257 . S
C105 O100 1.254 . S
C105 O101 1.269 . S
C106 O107 1.249 . S
C106 O108 1.270 . S
O107 Zn99 1.943 . S
O107 C106 1.249 . S
O108 Zn98 2.067 . S
O108 C106 1.270 . S
C109 O102 1.262 . S
C109 O110 1.232 . S
O110 C109 1.232 . S
C111 O103 1.260 . S
C111 O104 1.257 . S
Zn112 O115 2.031 . S
Zn112 O117 2.049 . S
Zn112 O122 2.067 . S
Zn113 O114 1.962 . S
Zn113 O116 1.986 . S
Zn113 O118 1.996 . S
Zn113 O121 1.943 . S
O114 Zn113 1.962 . S
O114 C119 1.254 . S
O115 Zn112 2.031 . S
O115 C119 1.269 . S
O116 Zn113 1.986 . S
O116 C123 1.262 . S
O117 Zn112 2.049 . S
O117 C125 1.260 . S
O118 Zn113 1.996 . S
O118 C125 1.257 . S
C119 O114 1.254 . S
C119 O115 1.269 . S
C120 O121 1.249 . S
C120 O122 1.270 . S
O121 Zn113 1.943 . S
O121 C120 1.249 . S
O122 Zn112 2.067 . S
O122 C120 1.270 . S
C123 O116 1.262 . S
C123 O124 1.232 . S
O124 C123 1.232 . S
C125 O117 1.260 . S
C125 O118 1.257 . S
Zn126 O129 2.031 . S
Zn126 O131 2.049 . S
Zn126 O136 2.067 . S
Zn127 O128 1.962 . S
Zn127 O130 1.986 . S
Zn127 O132 1.996 . S
Zn127 O135 1.943 . S
O128 Zn127 1.962 . S
O128 C133 1.254 . S
O129 Zn126 2.031 . S
O129 C133 1.269 . S
O130 Zn127 1.986 . S
O130 C137 1.262 . S
O131 Zn126 2.049 . S
O131 C139 1.260 . S
O132 Zn127 1.996 . S
O132 C139 1.257 . S
C133 O128 1.254 . S
C133 O129 1.269 . S
C134 O135 1.249 . S
C134 O136 1.270 . S
O135 Zn127 1.943 . S
O135 C134 1.249 . S
O136 Zn126 2.067 . S
O136 C134 1.270 . S
C137 O130 1.262 . S
C137 O138 1.232 . S
O138 C137 1.232 . S
C139 O131 1.260 . S
C139 O132 1.257 . S
Zn140 O143 2.031 . S
Zn140 O145 2.049 . S
Zn140 O150 2.067 . S
Zn141 O142 1.962 . S
Zn141 O144 1.986 . S
Zn141 O146 1.996 . S
Zn141 O149 1.943 . S
O142 Zn141 1.962 . S
O142 C147 1.254 . S
O143 Zn140 2.031 . S
O143 C147 1.269 . S
O144 Zn141 1.986 . S
O144 C151 1.262 . S
O145 Zn140 2.049 . S
O145 C153 1.260 . S
O146 Zn141 1.996 . S
O146 C153 1.257 . S
C147 O142 1.254 . S
C147 O143 1.269 . S
C148 O149 1.249 . S
C148 O150 1.270 . S
O149 Zn141 1.943 . S
O149 C148 1.249 . S
O150 Zn140 2.067 . S
O150 C148 1.270 . S
C151 O144 1.262 . S
C151 O152 1.232 . S
O152 C151 1.232 . S
C153 O145 1.260 . S
C153 O146 1.257 . S
Zn154 O157 2.031 . S
Zn154 O159 2.049 . S
Zn154 O164 2.067 . S
Zn155 O156 1.962 . S
Zn155 O158 1.986 . S
Zn155 O160 1.996 . S
Zn155 O163 1.943 . S
O156 Zn155 1.962 . S
O156 C161 1.254 . S
O157 Zn154 2.031 . S
O157 C161 1.269 . S
O158 Zn155 1.986 . S
O158 C165 1.262 . S
O159 Zn154 2.049 . S
O159 C167 1.260 . S
O160 Zn155 1.996 . S
O160 C167 1.257 . S
C161 O156 1.254 . S
C161 O157 1.269 . S
C162 O163 1.249 . S
C162 O164 1.270 . S
O163 Zn155 1.943 . S
O163 C162 1.249 . S
O164 Zn154 2.067 . S
O164 C162 1.270 . S
C165 O158 1.262 . S
C165 O166 1.232 . S
O166 C165 1.232 . S
C167 O159 1.260 . S
C167 O160 1.257 . S
Zn168 O171 2.031 . S
Zn168 O173 2.049 . S
Zn168 O178 2.067 . S
Zn169 O170 1.962 . S
Zn169 O172 1.986 . S
Zn169 O174 1.996 . S
Zn169 O177 1.943 . S
O170 Zn169 1.962 . S
O170 C175 1.254 . S
O171 Zn168 2.031 . S
O171 C175 1.269 . S
O172 Zn169 1.986 . S
O172 C179 1.262 . S
O173 Zn168 2.049 . S
O173 C181 1.260 . S
O174 Zn169 1.996 . S
O174 C181 1.257 . S
C175 O170 1.254 . S
C175 O171 1.269 . S
C176 O177 1.249 . S
C176 O178 1.270 . S
O177 Zn169 1.943 . S
O177 C176 1.249 . S
O178 Zn168 2.067 . S
O178 C176 1.270 . S
C179 O172 1.262 . S
C179 O180 1.232 . S
O180 C179 1.232 . S
C181 O173 1.260 . S
C181 O174 1.257 . S
Zn182 O185 2.031 . S
Zn182 O187 2.049 . S
Zn182 O192 2.067 . S
Zn183 O184 1.962 . S
Zn183 O186 1.986 . S
Zn183 O188 1.996 . S
Zn183 O191 1.943 . S
O184 Zn183 1.962 . S
O184 C189 1.254 . S
O185 Zn182 2.031 . S
O185 C189 1.269 . S
O186 Zn183 1.986 . S
O186 C193 1.262 . S
O187 Zn182 2.049 . S
O187 C195 1.260 . S
O188 Zn183 1.996 . S
O188 C195 1.257 . S
C189 O184 1.254 . S
C189 O185 1.269 . S
C190 O191 1.249 . S
C190 O192 1.270 . S
O191 Zn183 1.943 . S
O191 C190 1.249 . S
O192 Zn182 2.067 . S
O192 C190 1.270 . S
C193 O186 1.262 . S
C193 O194 1.232 . S
O194 C193 1.232 . S
C195 O187 1.260 . S
C195 O188 1.257 . S
Zn196 O199 2.031 . S
Zn196 O201 2.049 . S
Zn196 O206 2.067 . S
Zn197 O198 1.962 . S
Zn197 O200 1.986 . S
Zn197 O202 1.996 . S
Zn197 O205 1.943 . S
O198 Zn197 1.962 . S
O198 C203 1.254 . S
O199 Zn196 2.031 . S
O199 C203 1.269 . S
O200 Zn197 1.986 . S
O200 C207 1.262 . S
O201 Zn196 2.049 . S
O201 C209 1.260 . S
O202 Zn197 1.996 . S
O202 C209 1.257 . S
C203 O198 1.254 . S
C203 O199 1.269 . S
C204 O205 1.249 . S
C204 O206 1.270 . S
O205 Zn197 1.943 . S
O205 C204 1.249 . S
O206 Zn196 2.067 . S
O206 C204 1.270 . S
C207 O200 1.262 . S
C207 O208 1.232 . S
O208 C207 1.232 . S
C209 O201 1.260 . S
C209 O202 1.257 . S
Zn210 O213 2.031 . S
Zn210 O215 2.049 . S
Zn210 O220 2.067 . S
Zn211 O212 1.962 . S
Zn211 O214 1.986 . S
Zn211 O216 1.996 . S
Zn211 O219 1.943 . S
O212 Zn211 1.962 . S
O212 C217 1.254 . S
O213 Zn210 2.031 . S
O213 C217 1.269 . S
O214 Zn211 1.986 . S
O214 C221 1.262 . S
O215 Zn210 2.049 . S
O215 C223 1.260 . S
O216 Zn211 1.996 . S
O216 C223 1.257 . S
C217 O212 1.254 . S
C217 O213 1.269 . S
C218 O219 1.249 . S
C218 O220 1.270 . S
O219 Zn211 1.943 . S
O219 C218 1.249 . S
O220 Zn210 2.067 . S
O220 C218 1.270 . S
C221 O214 1.262 . S
C221 O222 1.232 . S
O222 C221 1.232 . S
C223 O215 1.260 . S
C223 O216 1.257 . S
Zn224 O227 2.031 . S
Zn224 O229 2.049 . S
Zn224 O234 2.067 . S
Zn225 O226 1.962 . S
Zn225 O228 1.986 . S
Zn225 O230 1.996 . S
Zn225 O233 1.943 . S
O226 Zn225 1.962 . S
O226 C231 1.254 . S
O227 Zn224 2.031 . S
O227 C231 1.269 . S
O228 Zn225 1.986 . S
O228 C235 1.262 . S
O229 Zn224 2.049 . S
O229 C237 1.260 . S
O230 Zn225 1.996 . S
O230 C237 1.257 . S
C231 O226 1.254 . S
C231 O227 1.269 . S
C232 O233 1.249 . S
C232 O234 1.270 . S
O233 Zn225 1.943 . S
O233 C232 1.249 . S
O234 Zn224 2.067 . S
O234 C232 1.270 . S
C235 O228 1.262 . S
C235 O236 1.232 . S
O236 C235 1.232 . S
C237 O229 1.260 . S
C237 O230 1.257 . S
Zn238 O241 2.031 . S
Zn238 O243 2.049 . S
Zn238 O248 2.067 . S
Zn239 O240 1.962 . S
Zn239 O242 1.986 . S
Zn239 O244 1.996 . S
Zn239 O247 1.943 . S
O240 Zn239 1.962 . S
O240 C245 1.254 . S
O241 Zn238 2.031 . S
O241 C245 1.269 . S
O242 Zn239 1.986 . S
O242 C249 1.262 . S
O243 Zn238 2.049 . S
O243 C251 1.260 . S
O244 Zn239 1.996 . S
O244 C251 1.257 . S
C245 O240 1.254 . S
C245 O241 1.269 . S
C246 O247 1.249 . S
C246 O248 1.270 . S
O247 Zn239 1.943 . S
O247 C246 1.249 . S
O248 Zn238 2.067 . S
O248 C246 1.270 . S
C249 O242 1.262 . S
C249 O250 1.232 . S
O250 C249 1.232 . S
C251 O243 1.260 . S
C251 O244 1.257 . S
Zn252 O255 2.031 . S
Zn252 O257 2.049 . S
Zn252 O262 2.067 . S
Zn253 O254 1.962 . S
Zn253 O256 1.986 . S
Zn253 O258 1.996 . S
Zn253 O261 1.943 . S
O254 Zn253 1.962 . S
O254 C259 1.254 . S
O255 Zn252 2.031 . S
O255 C259 1.269 . S
O256 Zn253 1.986 . S
O256 C263 1.262 . S
O257 Zn252 2.049 . S
O257 C265 1.260 . S
O258 Zn253 1.996 . S
O258 C265 1.257 . S
C259 O254 1.254 . S
C259 O255 1.269 . S
C260 O261 1.249 . S
C260 O262 1.270 . S
O261 Zn253 1.943 . S
O261 C260 1.249 . S
O262 Zn252 2.067 . S
O262 C260 1.270 . S
C263 O256 1.262 . S
C263 O264 1.232 . S
O264 C263 1.232 . S
C265 O257 1.260 . S
C265 O258 1.257 . S
Zn266 O269 2.031 . S
Zn266 O271 2.049 . S
Zn266 O276 2.067 . S
Zn267 O268 1.962 . S
Zn267 O270 1.986 . S
Zn267 O272 1.996 . S
Zn267 O275 1.943 . S
O268 Zn267 1.962 . S
O268 C273 1.254 . S
O269 Zn266 2.031 . S
O269 C273 1.269 . S
O270 Zn267 1.986 . S
O270 C277 1.262 . S
O271 Zn266 2.049 . S
O271 C279 1.260 . S
O272 Zn267 1.996 . S
O272 C279 1.257 . S
C273 O268 1.254 . S
C273 O269 1.269 . S
C274 O275 1.249 . S
C274 O276 1.270 . S
O275 Zn267 1.943 . S
O275 C274 1.249 . S
O276 Zn266 2.067 . S
O276 C274 1.270 . S
C277 O270 1.262 . S
C277 O278 1.232 . S
O278 C277 1.232 . S
C279 O271 1.260 . S
C279 O272 1.257 . S
Zn280 O283 2.031 . S
Zn280 O285 2.049 . S
Zn280 O290 2.067 . S
Zn281 O282 1.962 . S
Zn281 O284 1.986 . S
Zn281 O286 1.996 . S
Zn281 O289 1.943 . S
O282 Zn281 1.962 . S
O282 C287 1.254 . S
O283 Zn280 2.031 . S
O283 C287 1.269 . S
O284 Zn281 1.986 . S
O284 C291 1.262 . S
O285 Zn280 2.049 . S
O285 C293 1.260 . S
O286 Zn281 1.996 . S
O286 C293 1.257 . S
C287 O282 1.254 . S
C287 O283 1.269 . S
C288 O289 1.249 . S
C288 O290 1.270 . S
O289 Zn281 1.943 . S
O289 C288 1.249 . S
O290 Zn280 2.067 . S
O290 C288 1.270 . S
C291 O284 1.262 . S
C291 O292 1.232 . S
O292 C291 1.232 . S
C293 O285 1.260 . S
C293 O286 1.257 . S
Zn294 O297 2.031 . S
Zn294 O299 2.049 . S
Zn294 O304 2.067 . S
Zn295 O296 1.962 . S
Zn295 O298 1.986 . S
Zn295 O300 1.996 . S
Zn295 O303 1.943 . S
O296 Zn295 1.962 . S
O296 C301 1.254 . S
O297 Zn294 2.031 . S
O297 C301 1.269 . S
O298 Zn295 1.986 . S
O298 C305 1.262 . S
O299 Zn294 2.049 . S
O299 C307 1.260 . S
O300 Zn295 1.996 . S
O300 C307 1.257 . S
C301 O296 1.254 . S
C301 O297 1.269 . S
C302 O303 1.249 . S
C302 O304 1.270 . S
O303 Zn295 1.943 . S
O303 C302 1.249 . S
O304 Zn294 2.067 . S
O304 C302 1.270 . S
C305 O298 1.262 . S
C305 O306 1.232 . S
O306 C305 1.232 . S
C307 O299 1.260 . S
C307 O300 1.257 . S
Zn308 O311 2.031 . S
Zn308 O313 2.049 . S
Zn308 O318 2.067 . S
Zn309 O310 1.962 . S
Zn309 O312 1.986 . S
Zn309 O314 1.996 . S
Zn309 O317 1.943 . S
O310 Zn309 1.962 . S
O310 C315 1.254 . S
O311 Zn308 2.031 . S
O311 C315 1.269 . S
O312 Zn309 1.986 . S
O312 C319 1.262 . S
O313 Zn308 2.049 . S
O313 C321 1.260 . S
O314 Zn309 1.996 . S
O314 C321 1.257 . S
C315 O310 1.254 . S
C315 O311 1.269 . S
C316 O317 1.249 . S
C316 O318 1.270 . S
O317 Zn309 1.943 . S
O317 C316 1.249 . S
O318 Zn308 2.067 . S
O318 C316 1.270 . S
C319 O312 1.262 . S
C319 O320 1.232 . S
O320 C319 1.232 . S
C321 O313 1.260 . S
C321 O314 1.257 . S
Zn322 O325 2.031 . S
Zn322 O327 2.049 . S
Zn322 O332 2.067 . S
Zn323 O324 1.962 . S
Zn323 O326 1.986 . S
Zn323 O328 1.996 . S
Zn323 O331 1.943 . S
O324 Zn323 1.962 . S
O324 C329 1.254 . S
O325 Zn322 2.031 . S
O325 C329 1.269 . S
O326 Zn323 1.986 . S
O326 C333 1.262 . S
O327 Zn322 2.049 . S
O327 C335 1.260 . S
O328 Zn323 1.996 . S
O328 C335 1.257 . S
C329 O324 1.254 . S
C329 O325 1.269 . S
C330 O331 1.249 . S
C330 O332 1.270 . S
O331 Zn323 1.943 . S
O331 C330 1.249 . S
O332 Zn322 2.067 . S
O332 C330 1.270 . S
C333 O326 1.262 . S
C333 O334 1.232 . S
O334 C333 1.232 . S
C335 O327 1.260 . S
C335 O328 1.257 . S
Zn336 O339 2.031 . S
Zn336 O341 2.049 . S
Zn336 O346 2.067 . S
Zn337 O338 1.962 . S
Zn337 O340 1.986 . S
Zn337 O342 1.996 . S
Zn337 O345 1.943 . S
O338 Zn337 1.962 . S
O338 C343 1.254 . S
O339 Zn336 2.031 . S
O339 C343 1.269 . S
O340 Zn337 1.986 . S
O340 C347 1.262 . S
O341 Zn336 2.049 . S
O341 C349 1.260 . S
O342 Zn337 1.996 . S
O342 C349 1.257 . S
C343 O338 1.254 . S
C343 O339 1.269 . S
C344 O345 1.249 . S
C344 O346 1.270 . S
O345 Zn337 1.943 . S
O345 C344 1.249 . S
O346 Zn336 2.067 . S
O346 C344 1.270 . S
C347 O340 1.262 . S
C347 O348 1.232 . S
O348 C347 1.232 . S
C349 O341 1.260 . S
C349 O342 1.257 . S
Zn350 O353 2.031 . S
Zn350 O355 2.049 . S
Zn350 O360 2.067 . S
Zn351 O352 1.962 . S
Zn351 O354 1.986 . S
Zn351 O356 1.996 . S
Zn351 O359 1.943 . S
O352 Zn351 1.962 . S
O352 C357 1.254 . S
O353 Zn350 2.031 . S
O353 C357 1.269 . S
O354 Zn351 1.986 . S
O354 C361 1.262 . S
O355 Zn350 2.049 . S
O355 C363 1.260 . S
O356 Zn351 1.996 . S
O356 C363 1.257 . S
C357 O352 1.254 . S
C357 O353 1.269 . S
C358 O359 1.249 . S
C358 O360 1.270 . S
O359 Zn351 1.943 . S
O359 C358 1.249 . S
O360 Zn350 2.067 . S
O360 C358 1.270 . S
C361 O354 1.262 . S
C361 O362 1.232 . S
O362 C361 1.232 . S
C363 O355 1.260 . S
C363 O356 1.257 . S
Zn364 O367 2.031 . S
Zn364 O369 2.049 . S
Zn364 O374 2.067 . S
Zn365 O366 1.962 . S
Zn365 O368 1.986 . S
Zn365 O370 1.996 . S
Zn365 O373 1.943 . S
O366 Zn365 1.962 . S
O366 C371 1.254 . S
O367 Zn364 2.031 . S
O367 C371 1.269 . S
O368 Zn365 1.986 . S
O368 C375 1.262 . S
O369 Zn364 2.049 . S
O369 C377 1.260 . S
O370 Zn365 1.996 . S
O370 C377 1.257 . S
C371 O366 1.254 . S
C371 O367 1.269 . S
C372 O373 1.249 . S
C372 O374 1.270 . S
O373 Zn365 1.943 . S
O373 C372 1.249 . S
O374 Zn364 2.067 . S
O374 C372 1.270 . S
C375 O368 1.262 . S
C375 O376 1.232 . S
O376 C375 1.232 . S
C377 O369 1.260 . S
C377 O370 1.257 . S
Zn378 O381 2.031 . S
Zn378 O383 2.049 . S
Zn378 O388 2.067 . S
Zn379 O380 1.962 . S
Zn379 O382 1.986 . S
Zn379 O384 1.996 . S
Zn379 O387 1.943 . S
O380 Zn379 1.962 . S
O380 C385 1.254 . S
O381 Zn378 2.031 . S
O381 C385 1.269 . S
O382 Zn379 1.986 . S
O382 C389 1.262 . S
O383 Zn378 2.049 . S
O383 C391 1.260 . S
O384 Zn379 1.996 . S
O384 C391 1.257 . S
C385 O380 1.254 . S
C385 O381 1.269 . S
C386 O387 1.249 . S
C386 O388 1.270 . S
O387 Zn379 1.943 . S
O387 C386 1.249 . S
O388 Zn378 2.067 . S
O388 C386 1.270 . S
C389 O382 1.262 . S
C389 O390 1.232 . S
O390 C389 1.232 . S
C391 O383 1.260 . S
C391 O384 1.257 . S
Zn392 O395 2.031 . S
Zn392 O397 2.049 . S
Zn392 O402 2.067 . S
Zn393 O394 1.962 . S
Zn393 O396 1.986 . S
Zn393 O398 1.996 . S
Zn393 O401 1.943 . S
O394 Zn393 1.962 . S
O394 C399 1.254 . S
O395 Zn392 2.031 . S
O395 C399 1.269 . S
O396 Zn393 1.986 . S
O396 C403 1.262 . S
O397 Zn392 2.049 . S
O397 C405 1.260 . S
O398 Zn393 1.996 . S
O398 C405 1.257 . S
C399 O394 1.254 . S
C399 O395 1.269 . S
C400 O401 1.249 . S
C400 O402 1.270 . S
O401 Zn393 1.943 . S
O401 C400 1.249 . S
O402 Zn392 2.067 . S
O402 C400 1.270 . S
C403 O396 1.262 . S
C403 O404 1.232 . S
O404 C403 1.232 . S
C405 O397 1.260 . S
C405 O398 1.257 . S
Zn406 O409 2.031 . S
Zn406 O411 2.049 . S
Zn406 O416 2.067 . S
Zn407 O408 1.962 . S
Zn407 O410 1.986 . S
Zn407 O412 1.996 . S
Zn407 O415 1.943 . S
O408 Zn407 1.962 . S
O408 C413 1.254 . S
O409 Zn406 2.031 . S
O409 C413 1.269 . S
O410 Zn407 1.986 . S
O410 C417 1.262 . S
O411 Zn406 2.049 . S
O411 C419 1.260 . S
O412 Zn407 1.996 . S
O412 C419 1.257 . S
C413 O408 1.254 . S
C413 O409 1.269 . S
C414 O415 1.249 . S
C414 O416 1.270 . S
O415 Zn407 1.943 . S
O415 C414 1.249 . S
O416 Zn406 2.067 . S
O416 C414 1.270 . S
C417 O410 1.262 . S
C417 O418 1.232 . S
O418 C417 1.232 . S
C419 O411 1.260 . S
C419 O412 1.257 . S
Zn420 O423 2.031 . S
Zn420 O425 2.049 . S
Zn420 O430 2.067 . S
Zn421 O422 1.962 . S
Zn421 O424 1.986 . S
Zn421 O426 1.996 . S
Zn421 O429 1.943 . S
O422 Zn421 1.962 . S
O422 C427 1.254 . S
O423 Zn420 2.031 . S
O423 C427 1.269 . S
O424 Zn421 1.986 . S
O424 C431 1.262 . S
O425 Zn420 2.049 . S
O425 C433 1.260 . S
O426 Zn421 1.996 . S
O426 C433 1.257 . S
C427 O422 1.254 . S
C427 O423 1.269 . S
C428 O429 1.249 . S
C428 O430 1.270 . S
O429 Zn421 1.943 . S
O429 C428 1.249 . S
O430 Zn420 2.067 . S
O430 C428 1.270 . S
C431 O424 1.262 . S
C431 O432 1.232 . S
O432 C431 1.232 . S
C433 O425 1.260 . S
C433 O426 1.257 . S
Zn434 O437 2.031 . S
Zn434 O439 2.049 . S
Zn434 O444 2.067 . S
Zn435 O436 1.962 . S
Zn435 O438 1.986 . S
Zn435 O440 1.996 . S
Zn435 O443 1.943 . S
O436 Zn435 1.962 . S
O436 C441 1.254 . S
O437 Zn434 2.031 . S
O437 C441 1.269 . S
O438 Zn435 1.986 . S
O438 C445 1.262 . S
O439 Zn434 2.049 . S
O439 C447 1.260 . S
O440 Zn435 1.996 . S
O440 C447 1.257 . S
C441 O436 1.254 . S
C441 O437 1.269 . S
C442 O443 1.249 . S
C442 O444 1.270 . S
O443 Zn435 1.943 . S
O443 C442 1.249 . S
O444 Zn434 2.067 . S
O444 C442 1.270 . S
C445 O438 1.262 . S
C445 O446 1.232 . S
O446 C445 1.232 . S
C447 O439 1.260 . S
C447 O440 1.257 . S
C448 C449 1.387 . S
C448 H452 0.950 . S
C448 C457 1.390 1_655 S
C449 C448 1.387 . S
C449 C451 1.387 1_556 S
H450 C457 0.950 . S
C451 C449 1.387 1_554 S
C451 C453 1.390 1_655 S
C451 H455 0.950 . S
H452 C448 0.950 . S
C453 C451 1.390 1_455 S
C453 C454 1.387 . S
C453 H456 0.950 . S
C454 C453 1.387 . S
C454 C457 1.387 1_554 S
H455 C451 0.950 . S
H456 C453 0.950 . S
C457 C448 1.390 1_455 S
C457 H450 0.950 . S
C457 C454 1.387 1_556 S
C458 C459 1.387 . S
C458 H462 0.950 . S
C458 C467 1.390 . S
C459 C458 1.387 . S
C459 C461 1.387 . S
H460 C467 0.950 . S
C461 C459 1.387 . S
C461 C463 1.390 . S
C461 H465 0.950 . S
H462 C458 0.950 . S
C463 C461 1.390 . S
C463 C464 1.387 . S
C463 H466 0.950 . S
C464 C463 1.387 . S
C464 C467 1.387 . S
H465 C461 0.950 . S
H466 C463 0.950 . S
C467 C458 1.390 . S
C467 H460 0.950 . S
C467 C464 1.387 . S
C468 C469 1.387 . S
C468 H472 0.950 . S
C468 C477 1.390 . S
C469 C468 1.387 . S
C469 C471 1.387 . S
H470 C477 0.950 . S
C471 C469 1.387 . S
C471 C473 1.390 . S
C471 H475 0.950 . S
H472 C468 0.950 . S
C473 C471 1.390 . S
C473 C474 1.387 . S
C473 H476 0.950 . S
C474 C473 1.387 . S
C474 C477 1.387 . S
H475 C471 0.950 . S
H476 C473 0.950 . S
C477 C468 1.390 . S
C477 H470 0.950 . S
C477 C474 1.387 . S
C478 C479 1.387 . S
C478 H482 0.950 . S
C478 C487 1.390 . S
C479 C478 1.387 . S
C479 C481 1.387 . S
H480 C487 0.950 . S
C481 C479 1.387 . S
C481 C483 1.390 . S
C481 H485 0.950 . S
H482 C478 0.950 . S
C483 C481 1.390 . S
C483 C484 1.387 . S
C483 H486 0.950 . S
C484 C483 1.387 . S
C484 C487 1.387 . S
H485 C481 0.950 . S
H486 C483 0.950 . S
C487 C478 1.390 . S
C487 H480 0.950 . S
C487 C484 1.387 . S
C488 C489 1.387 . S
C488 H492 0.950 . S
C488 C497 1.390 1_655 S
C489 C488 1.387 . S
C489 C491 1.387 . S
H490 C497 0.950 . S
C491 C489 1.387 . S
C491 C493 1.390 1_655 S
C491 H495 0.950 . S
H492 C488 0.950 . S
C493 C491 1.390 1_455 S
C493 C494 1.387 . S
C493 H496 0.950 . S
C494 C493 1.387 . S
C494 C497 1.387 . S
H495 C491 0.950 . S
H496 C493 0.950 . S
C497 C488 1.390 1_455 S
C497 H490 0.950 . S
C497 C494 1.387 . S
C498 C499 1.387 . S
C498 H502 0.950 . S
C498 C507 1.390 . S
C499 C498 1.387 . S
C499 C501 1.387 . S
H500 C507 0.950 . S
C501 C499 1.387 . S
C501 C503 1.390 . S
C501 H505 0.950 . S
H502 C498 0.950 . S
C503 C501 1.390 . S
C503 C504 1.387 . S
C503 H506 0.950 . S
C504 C503 1.387 . S
C504 C507 1.387 . S
H505 C501 0.950 . S
H506 C503 0.950 . S
C507 C498 1.390 . S
C507 H500 0.950 . S
C507 C504 1.387 . S
C508 C509 1.387 1_554 S
C508 H512 0.950 . S
C508 C517 1.390 . S
C509 C508 1.387 1_556 S
C509 C511 1.387 . S
H510 C517 0.950 . S
C511 C509 1.387 . S
C511 C513 1.390 . S
C511 H515 0.950 . S
H512 C508 0.950 . S
C513 C511 1.390 . S
C513 C514 1.387 1_556 S
C513 H516 0.950 . S
C514 C513 1.387 1_554 S
C514 C517 1.387 . S
H515 C511 0.950 . S
H516 C513 0.950 . S
C517 C508 1.390 . S
C517 H510 0.950 . S
C517 C514 1.387 . S
C518 C519 1.387 . S
C518 H522 0.950 . S
C518 C527 1.390 . S
C519 C518 1.387 . S
C519 C521 1.387 . S
H520 C527 0.950 . S
C521 C519 1.387 . S
C521 C523 1.390 . S
C521 H525 0.950 . S
H522 C518 0.950 . S
C523 C521 1.390 . S
C523 C524 1.387 . S
C523 H526 0.950 . S
C524 C523 1.387 . S
C524 C527 1.387 . S
H525 C521 0.950 . S
H526 C523 0.950 . S
C527 C518 1.390 . S
C527 H520 0.950 . S
C527 C524 1.387 . S
C528 C529 1.387 . S
C528 H532 0.950 . S
C528 C537 1.390 . S
C529 C528 1.387 . S
C529 C531 1.387 . S
H530 C537 0.950 . S
C531 C529 1.387 . S
C531 C533 1.390 . S
C531 H535 0.950 . S
H532 C528 0.950 . S
C533 C531 1.390 . S
C533 C534 1.387 . S
C533 H536 0.950 . S
C534 C533 1.387 . S
C534 C537 1.387 . S
H535 C531 0.950 . S
H536 C533 0.950 . S
C537 C528 1.390 . S
C537 H530 0.950 . S
C537 C534 1.387 . S
C538 C539 1.387 . S
C538 H542 0.950 . S
C538 C547 1.390 . S
C539 C538 1.387 . S
C539 C541 1.387 . S
H540 C547 0.950 . S
C541 C539 1.387 . S
C541 C543 1.390 . S
C541 H545 0.950 . S
H542 C538 0.950 . S
C543 C541 1.390 . S
C543 C544 1.387 . S
C543 H546 0.950 . S
C544 C543 1.387 . S
C544 C547 1.387 . S
H545 C541 0.950 . S
H546 C543 0.950 . S
C547 C538 1.390 . S
C547 H540 0.950 . S
C547 C544 1.387 . S
C548 C549 1.387 . S
C548 H552 0.950 . S
C548 C557 1.390 . S
C549 C548 1.387 . S
C549 C551 1.387 . S
H550 C557 0.950 . S
C551 C549 1.387 . S
C551 C553 1.390 . S
C551 H555 0.950 . S
H552 C548 0.950 . S
C553 C551 1.390 . S
C553 C554 1.387 . S
C553 H556 0.950 . S
C554 C553 1.387 . S
C554 C557 1.387 . S
H555 C551 0.950 . S
H556 C553 0.950 . S
C557 C548 1.390 . S
C557 H550 0.950 . S
C557 C554 1.387 . S
C558 C559 1.387 . S
C558 H562 0.950 . S
C558 C567 1.390 . S
C559 C558 1.387 . S
C559 C561 1.387 . S
H560 C567 0.950 . S
C561 C559 1.387 . S
C561 C563 1.390 . S
C561 H565 0.950 . S
H562 C558 0.950 . S
C563 C561 1.390 . S
C563 C564 1.387 . S
C563 H566 0.950 . S
C564 C563 1.387 . S
C564 C567 1.387 . S
H565 C561 0.950 . S
H566 C563 0.950 . S
C567 C558 1.390 . S
C567 H560 0.950 . S
C567 C564 1.387 . S
C568 C569 1.387 1_545 S
C568 H572 0.950 . S
C568 C577 1.390 . S
C569 C568 1.387 1_565 S
C569 C571 1.387 . S
H570 C577 0.950 . S
C571 C569 1.387 . S
C571 C573 1.390 . S
C571 H575 0.950 . S
H572 C568 0.950 . S
C573 C571 1.390 . S
C573 C574 1.387 1_565 S
C573 H576 0.950 . S
C574 C573 1.387 1_545 S
C574 C577 1.387 . S
H575 C571 0.950 . S
H576 C573 0.950 . S
C577 C568 1.390 . S
C577 H570 0.950 . S
C577 C574 1.387 . S
C578 C579 1.387 1_545 S
C578 H582 0.950 . S
C578 C587 1.390 1_455 S
C579 C578 1.387 1_565 S
C579 C581 1.387 1_556 S
H580 C587 0.950 . S
C581 C579 1.387 1_554 S
C581 C583 1.390 1_455 S
C581 H585 0.950 . S
H582 C578 0.950 . S
C583 C581 1.390 1_655 S
C583 C584 1.387 1_565 S
C583 H586 0.950 . S
C584 C583 1.387 1_545 S
C584 C587 1.387 1_554 S
H585 C581 0.950 . S
H586 C583 0.950 . S
C587 C578 1.390 1_655 S
C587 H580 0.950 . S
C587 C584 1.387 1_556 S
C588 C589 1.387 . S
C588 H592 0.950 . S
C588 C597 1.390 1_545 S
C589 C588 1.387 . S
C589 C591 1.387 1_556 S
H590 C597 0.950 . S
C591 C589 1.387 1_554 S
C591 C593 1.390 1_545 S
C591 H595 0.950 . S
H592 C588 0.950 . S
C593 C591 1.390 1_565 S
C593 C594 1.387 . S
C593 H596 0.950 . S
C594 C593 1.387 . S
C594 C597 1.387 1_554 S
H595 C591 0.950 . S
H596 C593 0.950 . S
C597 C588 1.390 1_565 S
C597 H590 0.950 . S
C597 C594 1.387 1_556 S
C598 C599 1.387 . S
C598 H602 0.950 . S
C598 C607 1.381 1_445 S
C599 C598 1.387 . S
C599 C601 1.396 . S
H600 C607 0.950 . S
C601 C599 1.396 . S
C601 C603 1.381 1_445 S
C601 H605 0.950 . S
H602 C598 0.950 . S
C603 C601 1.381 1_665 S
C603 C604 1.387 . S
C603 H606 0.950 . S
C604 C603 1.387 . S
C604 C607 1.396 . S
H605 C601 0.950 . S
H606 C603 0.950 . S
C607 C598 1.381 1_665 S
C607 H600 0.950 . S
C607 C604 1.396 . S
C608 C609 1.387 . S
C608 H612 0.950 . S
C608 C617 1.390 1_655 S
C609 C608 1.387 . S
C609 C611 1.387 . S
H610 C617 0.950 . S
C611 C609 1.387 . S
C611 C613 1.390 1_655 S
C611 H615 0.968 . S
H612 C608 0.950 . S
C613 C611 1.390 1_455 S
C613 C614 1.387 . S
C613 H616 0.968 . S
C614 C613 1.387 . S
C614 C617 1.387 . S
H615 C611 0.968 . S
H616 C613 0.968 . S
C617 C608 1.390 1_455 S
C617 H610 0.950 . S
C617 C614 1.387 . S
C618 C619 1.387 . S
C618 H622 0.950 . S
C618 C627 1.390 1_455 S
C619 C618 1.387 . S
C619 C621 1.387 . S
H620 C627 0.950 . S
C621 C619 1.387 . S
C621 C623 1.390 1_455 S
C621 H625 0.950 . S
H622 C618 0.950 . S
C623 C621 1.390 1_655 S
C623 C624 1.387 . S
C623 H626 0.950 . S
C624 C623 1.387 . S
C624 C627 1.387 . S
H625 C621 0.950 . S
H626 C623 0.950 . S
C627 C618 1.390 1_655 S
C627 H620 0.950 . S
C627 C624 1.387 . S
C628 C629 1.387 . S
C628 H632 0.950 . S
C628 C637 1.390 . S
C629 C628 1.387 . S
C629 C631 1.387 . S
H630 C637 0.950 . S
C631 C629 1.387 . S
C631 C633 1.390 . S
C631 H635 0.950 . S
H632 C628 0.950 . S
C633 C631 1.390 . S
C633 C634 1.387 . S
C633 H636 0.950 . S
C634 C633 1.387 . S
C634 C637 1.387 . S
H635 C631 0.950 . S
H636 C633 0.950 . S
C637 C628 1.390 . S
C637 H630 0.950 . S
C637 C634 1.387 . S
C638 C639 1.387 . S
C638 H642 0.950 . S
C638 C647 1.390 . S
C639 C638 1.387 . S
C639 C641 1.387 . S
H640 C647 0.950 . S
C641 C639 1.387 . S
C641 C643 1.390 . S
C641 H645 0.950 . S
H642 C638 0.950 . S
C643 C641 1.390 . S
C643 C644 1.387 . S
C643 H646 0.950 . S
C644 C643 1.387 . S
C644 C647 1.387 . S
H645 C641 0.950 . S
H646 C643 0.950 . S
C647 C638 1.390 . S
C647 H640 0.950 . S
C647 C644 1.387 . S
C648 C649 1.387 . S
C648 H652 0.950 . S
C648 C657 1.390 1_655 S
C649 C648 1.387 . S
C649 C651 1.387 . S
H650 C657 0.950 . S
C651 C649 1.387 . S
C651 C653 1.390 1_655 S
C651 H655 0.950 . S
H652 C648 0.950 . S
C653 C651 1.390 1_455 S
C653 C654 1.387 . S
C653 H656 0.950 . S
C654 C653 1.387 . S
C654 C657 1.387 . S
H655 C651 0.950 . S
H656 C653 0.950 . S
C657 C648 1.390 1_455 S
C657 H650 0.950 . S
C657 C654 1.387 . S
C658 C659 1.387 . S
C658 H662 0.950 . S
C658 C667 1.390 . S
C659 C658 1.387 . S
C659 C661 1.387 . S
H660 C667 0.950 . S
C661 C659 1.387 . S
C661 C663 1.390 . S
C661 H665 0.950 . S
H662 C658 0.950 . S
C663 C661 1.390 . S
C663 C664 1.387 . S
C663 H666 0.950 . S
C664 C663 1.387 . S
C664 C667 1.387 . S
H665 C661 0.950 . S
H666 C663 0.950 . S
C667 C658 1.390 . S
C667 H660 0.950 . S
C667 C664 1.387 . S
C668 C669 1.387 . S
C668 H672 0.950 . S
C668 C677 1.390 . S
C669 C668 1.387 . S
C669 C671 1.387 . S
H670 C677 0.950 . S
C671 C669 1.387 . S
C671 C673 1.390 . S
C671 H675 0.968 . S
H672 C668 0.950 . S
C673 C671 1.390 . S
C673 C674 1.387 . S
C673 H676 0.968 . S
C674 C673 1.387 . S
C674 C677 1.387 . S
H675 C671 0.968 . S
H676 C673 0.968 . S
C677 C668 1.390 . S
C677 H670 0.950 . S
C677 C674 1.387 . S
C678 C679 1.387 . S
C678 H682 0.950 . S
C678 C687 1.390 1_455 S
C679 C678 1.387 . S
C679 C681 1.387 . S
H680 C687 0.950 . S
C681 C679 1.387 . S
C681 C683 1.390 1_455 S
C681 H685 0.950 . S
H682 C678 0.950 . S
C683 C681 1.390 1_655 S
C683 C684 1.387 . S
C683 H686 0.950 . S
C684 C683 1.387 . S
C684 C687 1.387 . S
H685 C681 0.950 . S
H686 C683 0.950 . S
C687 C678 1.390 1_655 S
C687 H680 0.950 . S
C687 C684 1.387 . S
C688 C689 1.387 . S
C688 H692 0.968 . S
C688 C697 1.390 1_655 S
C689 C688 1.387 . S
C689 C691 1.387 . S
H690 C697 0.968 . S
C691 C689 1.387 . S
C691 C693 1.390 1_655 S
C691 H695 0.950 . S
H692 C688 0.968 . S
C693 C691 1.390 1_455 S
C693 C694 1.387 . S
C693 H696 0.950 . S
C694 C693 1.387 . S
C694 C697 1.387 . S
H695 C691 0.950 . S
H696 C693 0.950 . S
C697 C688 1.390 1_455 S
C697 H690 0.968 . S
C697 C694 1.387 . S
C698 C699 1.387 . S
C698 H702 0.950 . S
C698 C707 1.390 1_655 S
C699 C698 1.387 . S
C699 C701 1.387 . S
H700 C707 0.950 . S
C701 C699 1.387 . S
C701 C703 1.390 1_655 S
C701 H705 0.950 . S
H702 C698 0.950 . S
C703 C701 1.390 1_455 S
C703 C704 1.387 . S
C703 H706 0.950 . S
C704 C703 1.387 . S
C704 C707 1.387 . S
H705 C701 0.950 . S
H706 C703 0.950 . S
C707 C698 1.390 1_455 S
C707 H700 0.950 . S
C707 C704 1.387 . S
C708 C709 1.387 . S
C708 H712 0.950 . S
C708 C717 1.390 . S
C709 C708 1.387 . S
C709 C711 1.387 . S
H710 C717 0.950 . S
C711 C709 1.387 . S
C711 C713 1.390 . S
C711 H715 0.950 . S
H712 C708 0.950 . S
C713 C711 1.390 . S
C713 C714 1.387 . S
C713 H716 0.950 . S
C714 C713 1.387 . S
C714 C717 1.387 . S
H715 C711 0.950 . S
H716 C713 0.950 . S
C717 C708 1.390 . S
C717 H710 0.950 . S
C717 C714 1.387 . S
C718 C719 1.387 . S
C718 H722 0.950 . S
C718 C727 1.390 . S
C719 C718 1.387 . S
C719 C721 1.387 . S
H720 C727 0.950 . S
C721 C719 1.387 . S
C721 C723 1.390 . S
C721 H725 0.950 . S
H722 C718 0.950 . S
C723 C721 1.390 . S
C723 C724 1.387 . S
C723 H726 0.950 . S
C724 C723 1.387 . S
C724 C727 1.387 . S
H725 C721 0.950 . S
H726 C723 0.950 . S
C727 C718 1.390 . S
C727 H720 0.950 . S
C727 C724 1.387 . S
C728 C729 1.387 . S
C728 H732 0.950 . S
C728 C737 1.390 1_655 S
C729 C728 1.387 . S
C729 C731 1.387 . S
H730 C737 0.950 . S
C731 C729 1.387 . S
C731 C733 1.390 1_655 S
C731 H735 0.950 . S
H732 C728 0.950 . S
C733 C731 1.390 1_455 S
C733 C734 1.387 . S
C733 H736 0.950 . S
C734 C733 1.387 . S
C734 C737 1.387 . S
H735 C731 0.950 . S
H736 C733 0.950 . S
C737 C728 1.390 1_455 S
C737 H730 0.950 . S
C737 C734 1.387 . S
C738 C739 1.387 . S
C738 H742 0.950 . S
C738 C747 1.390 . S
C739 C738 1.387 . S
C739 C741 1.387 . S
H740 C747 0.950 . S
C741 C739 1.387 . S
C741 C743 1.390 . S
C741 H745 0.950 . S
H742 C738 0.950 . S
C743 C741 1.390 . S
C743 C744 1.387 . S
C743 H746 0.950 . S
C744 C743 1.387 . S
C744 C747 1.387 . S
H745 C741 0.950 . S
H746 C743 0.950 . S
C747 C738 1.390 . S
C747 H740 0.950 . S
C747 C744 1.387 . S
C748 C749 1.387 . S
C748 H752 0.968 . S
C748 C757 1.390 . S
C749 C748 1.387 . S
C749 C751 1.387 . S
H750 C757 0.968 . S
C751 C749 1.387 . S
C751 C753 1.390 . S
C751 H755 0.950 . S
H752 C748 0.968 . S
C753 C751 1.390 . S
C753 C754 1.387 . S
C753 H756 0.950 . S
C754 C753 1.387 . S
C754 C757 1.387 . S
H755 C751 0.950 . S
H756 C753 0.950 . S
C757 C748 1.390 . S
C757 H750 0.968 . S
C757 C754 1.387 . S
C758 C759 1.387 . S
C758 H762 0.950 . S
C758 C767 1.390 1_655 S
C759 C758 1.387 . S
C759 C761 1.387 . S
H760 C767 0.950 . S
C761 C759 1.387 . S
C761 C763 1.390 1_655 S
C761 H765 0.950 . S
H762 C758 0.950 . S
C763 C761 1.390 1_455 S
C763 C764 1.387 . S
C763 H766 0.950 . S
C764 C763 1.387 . S
C764 C767 1.387 . S
H765 C761 0.950 . S
H766 C763 0.950 . S
C767 C758 1.390 1_455 S
C767 H760 0.950 . S
C767 C764 1.387 . S
C768 C769 1.387 . S
C768 H772 0.950 . S
C768 C777 1.390 1_556 S
C769 C768 1.387 . S
C769 C771 1.387 . S
H770 C777 0.950 . S
C771 C769 1.387 . S
C771 C773 1.390 1_556 S
C771 H775 0.950 . S
H772 C768 0.950 . S
C773 C771 1.390 1_554 S
C773 C774 1.387 . S
C773 H776 0.950 . S
C774 C773 1.387 . S
C774 C777 1.387 . S
H775 C771 0.950 . S
H776 C773 0.950 . S
C777 C768 1.390 1_554 S
C777 H770 0.950 . S
C777 C774 1.387 . S
C778 C779 1.387 . S
C778 H782 0.950 . S
C778 C787 1.390 1_545 S
C779 C778 1.387 . S
C779 C781 1.387 . S
H780 C787 0.950 . S
C781 C779 1.387 . S
C781 C783 1.390 1_545 S
C781 H785 0.950 . S
H782 C778 0.950 . S
C783 C781 1.390 1_565 S
C783 C784 1.387 . S
C783 H786 0.950 . S
C784 C783 1.387 . S
C784 C787 1.387 . S
H785 C781 0.950 . S
H786 C783 0.950 . S
C787 C778 1.390 1_565 S
C787 H780 0.950 . S
C787 C784 1.387 . S
C788 C789 1.387 . S
C788 H792 0.950 . S
C788 C797 1.390 . S
C789 C788 1.387 . S
C789 C791 1.387 . S
H790 C797 0.950 . S
C791 C789 1.387 . S
C791 C793 1.390 . S
C791 H795 0.950 . S
H792 C788 0.950 . S
C793 C791 1.390 . S
C793 C794 1.387 . S
C793 H796 0.950 . S
C794 C793 1.387 . S
C794 C797 1.387 . S
H795 C791 0.950 . S
H796 C793 0.950 . S
C797 C788 1.390 . S
C797 H790 0.950 . S
C797 C794 1.387 . S
C798 C799 1.387 . S
C798 H802 0.950 . S
C798 C807 1.390 1_545 S
C799 C798 1.387 . S
C799 C801 1.387 . S
H800 C807 0.950 . S
C801 C799 1.387 . S
C801 C803 1.390 1_545 S
C801 H805 0.950 . S
H802 C798 0.950 . S
C803 C801 1.390 1_565 S
C803 C804 1.387 . S
C803 H806 0.950 . S
C804 C803 1.387 . S
C804 C807 1.387 . S
H805 C801 0.950 . S
H806 C803 0.950 . S
C807 C798 1.390 1_565 S
C807 H800 0.950 . S
C807 C804 1.387 . S
C808 C809 1.387 . S
C808 H812 0.950 . S
C808 C817 1.390 1_554 S
C809 C808 1.387 . S
C809 C811 1.387 . S
H810 C817 0.950 . S
C811 C809 1.387 . S
C811 C813 1.390 1_554 S
C811 H815 0.950 . S
H812 C808 0.950 . S
C813 C811 1.390 1_556 S
C813 C814 1.387 . S
C813 H816 0.950 . S
C814 C813 1.387 . S
C814 C817 1.387 . S
H815 C811 0.950 . S
H816 C813 0.950 . S
C817 C808 1.390 1_556 S
C817 H810 0.950 . S
C817 C814 1.387 . S
C818 C819 1.387 . S
C818 H822 0.950 . S
C818 C827 1.390 1_565 S
C819 C818 1.387 . S
C819 C821 1.387 . S
H820 C827 0.950 . S
C821 C819 1.387 . S
C821 C823 1.390 1_565 S
C821 H825 0.950 . S
H822 C818 0.950 . S
C823 C821 1.390 1_545 S
C823 C824 1.387 . S
C823 H826 0.950 . S
C824 C823 1.387 . S
C824 C827 1.387 . S
H825 C821 0.950 . S
H826 C823 0.950 . S
C827 C818 1.390 1_545 S
C827 H820 0.950 . S
C827 C824 1.387 . S
C828 C829 1.387 . S
C828 H832 0.950 . S
C828 C837 1.390 . S
C829 C828 1.387 . S
C829 C831 1.387 . S
H830 C837 0.950 . S
C831 C829 1.387 . S
C831 C833 1.390 . S
C831 H835 0.950 . S
H832 C828 0.950 . S
C833 C831 1.390 . S
C833 C834 1.387 . S
C833 H836 0.950 . S
C834 C833 1.387 . S
C834 C837 1.387 . S
H835 C831 0.950 . S
H836 C833 0.950 . S
C837 C828 1.390 . S
C837 H830 0.950 . S
C837 C834 1.387 . S
C838 C839 1.387 . S
C838 H842 0.950 . S
C838 C847 1.390 1_545 S
C839 C838 1.387 . S
C839 C841 1.387 . S
H840 C847 0.950 . S
C841 C839 1.387 . S
C841 C843 1.390 1_545 S
C841 H845 0.950 . S
H842 C838 0.950 . S
C843 C841 1.390 1_565 S
C843 C844 1.387 . S
C843 H846 0.950 . S
C844 C843 1.387 . S
C844 C847 1.387 . S
H845 C841 0.950 . S
H846 C843 0.950 . S
C847 C838 1.390 1_565 S
C847 H840 0.950 . S
C847 C844 1.387 . S
C848 C849 1.387 . S
C848 H852 0.950 . S
C848 C857 1.390 . S
C849 C848 1.387 . S
C849 C851 1.387 . S
H850 C857 0.950 . S
C851 C849 1.387 . S
C851 C853 1.390 . S
C851 H855 0.950 . S
H852 C848 0.950 . S
C853 C851 1.390 . S
C853 C854 1.387 . S
C853 H856 0.950 . S
C854 C853 1.387 . S
C854 C857 1.387 . S
H855 C851 0.950 . S
H856 C853 0.950 . S
C857 C848 1.390 . S
C857 H850 0.950 . S
C857 C854 1.387 . S
C858 C859 1.387 . S
C858 H862 0.950 . S
C858 C867 1.390 . S
C859 C858 1.387 . S
C859 C861 1.387 . S
H860 C867 0.950 . S
C861 C859 1.387 . S
C861 C863 1.390 . S
C861 H865 0.950 . S
H862 C858 0.950 . S
C863 C861 1.390 . S
C863 C864 1.387 . S
C863 H866 0.950 . S
C864 C863 1.387 . S
C864 C867 1.387 . S
H865 C861 0.950 . S
H866 C863 0.950 . S
C867 C858 1.390 . S
C867 H860 0.950 . S
C867 C864 1.387 . S
C868 C869 1.387 . S
C868 H872 0.950 . S
C868 C877 1.390 1_554 S
C869 C868 1.387 . S
C869 C871 1.387 . S
H870 C877 0.950 . S
C871 C869 1.387 . S
C871 C873 1.390 1_554 S
C871 H875 0.950 . S
H872 C868 0.950 . S
C873 C871 1.390 1_556 S
C873 C874 1.387 . S
C873 H876 0.950 . S
C874 C873 1.387 . S
C874 C877 1.387 . S
H875 C871 0.950 . S
H876 C873 0.950 . S
C877 C868 1.390 1_556 S
C877 H870 0.950 . S
C877 C874 1.387 . S
C878 C879 1.387 . S
C878 H882 0.950 . S
C878 C887 1.390 . S
C879 C878 1.387 . S
C879 C881 1.387 . S
H880 C887 0.950 . S
C881 C879 1.387 . S
C881 C883 1.390 . S
C881 H885 0.950 . S
H882 C878 0.950 . S
C883 C881 1.390 . S
C883 C884 1.387 . S
C883 H886 0.950 . S
C884 C883 1.387 . S
C884 C887 1.387 . S
H885 C881 0.950 . S
H886 C883 0.950 . S
C887 C878 1.390 . S
C887 H880 0.950 . S
C887 C884 1.387 . S
C888 C889 1.387 . S
C888 H892 0.950 . S
C888 C897 1.390 . S
C889 C888 1.387 . S
C889 C891 1.387 . S
H890 C897 0.950 . S
C891 C889 1.387 . S
C891 C893 1.390 . S
C891 H895 0.950 . S
H892 C888 0.950 . S
C893 C891 1.390 . S
C893 C894 1.387 . S
C893 H896 0.950 . S
C894 C893 1.387 . S
C894 C897 1.387 . S
H895 C891 0.950 . S
H896 C893 0.950 . S
C897 C888 1.390 . S
C897 H890 0.950 . S
C897 C894 1.387 . S
C898 C899 1.387 . S
C898 H902 0.950 . S
C898 C907 1.390 . S
C899 C898 1.387 . S
C899 C901 1.387 . S
H900 C907 0.950 . S
C901 C899 1.387 . S
C901 C903 1.390 . S
C901 H905 0.950 . S
H902 C898 0.950 . S
C903 C901 1.390 . S
C903 C904 1.387 . S
C903 H906 0.950 . S
C904 C903 1.387 . S
C904 C907 1.387 . S
H905 C901 0.950 . S
H906 C903 0.950 . S
C907 C898 1.390 . S
C907 H900 0.950 . S
C907 C904 1.387 . S
C908 C909 1.387 . S
C908 H912 0.950 . S
C908 C917 1.390 1_556 S
C909 C908 1.387 . S
C909 C911 1.387 . S
H910 C917 0.950 . S
C911 C909 1.387 . S
C911 C913 1.390 1_556 S
C911 H915 0.950 . S
H912 C908 0.950 . S
C913 C911 1.390 1_554 S
C913 C914 1.387 . S
C913 H916 0.950 . S
C914 C913 1.387 . S
C914 C917 1.387 . S
H915 C911 0.950 . S
H916 C913 0.950 . S
C917 C908 1.390 1_554 S
C917 H910 0.950 . S
C917 C914 1.387 . S
C918 C919 1.387 . S
C918 H922 0.950 . S
C918 C927 1.390 . S
C919 C918 1.387 . S
C919 C921 1.387 . S
H920 C927 0.950 . S
C921 C919 1.387 . S
C921 C923 1.390 . S
C921 H925 0.950 . S
H922 C918 0.950 . S
C923 C921 1.390 . S
C923 C924 1.387 . S
C923 H926 0.950 . S
C924 C923 1.387 . S
C924 C927 1.387 . S
H925 C921 0.950 . S
H926 C923 0.950 . S
C927 C918 1.390 . S
C927 H920 0.950 . S
C927 C924 1.387 . S
C928 C929 1.387 . S
C928 H932 0.950 . S
C928 C937 1.390 . S
C929 C928 1.387 . S
C929 C931 1.387 . S
H930 C937 0.950 . S
C931 C929 1.387 . S
C931 C933 1.390 . S
C931 H935 0.950 . S
H932 C928 0.950 . S
C933 C931 1.390 . S
C933 C934 1.387 . S
C933 H936 0.950 . S
C934 C933 1.387 . S
C934 C937 1.387 . S
H935 C931 0.950 . S
H936 C933 0.950 . S
C937 C928 1.390 . S
C937 H930 0.950 . S
C937 C934 1.387 . S
C938 C939 1.387 . S
C938 H942 0.950 . S
C938 C947 1.390 . S
C939 C938 1.387 . S
C939 C941 1.387 . S
H940 C947 0.950 . S
C941 C939 1.387 . S
C941 C943 1.390 . S
C941 H945 0.950 . S
H942 C938 0.950 . S
C943 C941 1.390 . S
C943 C944 1.387 . S
C943 H946 0.950 . S
C944 C943 1.387 . S
C944 C947 1.387 . S
H945 C941 0.950 . S
H946 C943 0.950 . S
C947 C938 1.390 . S
C947 H940 0.950 . S
C947 C944 1.387 . S
C948 C949 1.387 . S
C948 H952 0.950 . S
C948 C957 1.390 . S
C949 C948 1.387 . S
C949 C951 1.387 . S
H950 C957 0.950 . S
C951 C949 1.387 . S
C951 C953 1.390 . S
C951 H955 0.950 . S
H952 C948 0.950 . S
C953 C951 1.390 . S
C953 C954 1.387 . S
C953 H956 0.950 . S
C954 C953 1.387 . S
C954 C957 1.387 . S
H955 C951 0.950 . S
H956 C953 0.950 . S
C957 C948 1.390 . S
C957 H950 0.950 . S
C957 C954 1.387 . S
C958 C959 1.387 . S
C958 H962 0.950 . S
C958 C967 1.390 . S
C959 C958 1.387 . S
C959 C961 1.387 . S
H960 C967 0.950 . S
C961 C959 1.387 . S
C961 C963 1.390 . S
C961 H965 0.950 . S
H962 C958 0.950 . S
C963 C961 1.390 . S
C963 C964 1.387 . S
C963 H966 0.950 . S
C964 C963 1.387 . S
C964 C967 1.387 . S
H965 C961 0.950 . S
H966 C963 0.950 . S
C967 C958 1.390 . S
C967 H960 0.950 . S
C967 C964 1.387 . S
C968 C969 1.387 . S
C968 H972 0.950 . S
C968 C977 1.390 . S
C969 C968 1.387 . S
C969 C971 1.387 . S
H970 C977 0.950 . S
C971 C969 1.387 . S
C971 C973 1.390 . S
C971 H975 0.950 . S
H972 C968 0.950 . S
C973 C971 1.390 . S
C973 C974 1.387 . S
C973 H976 0.950 . S
C974 C973 1.387 . S
C974 C977 1.387 . S
H975 C971 0.950 . S
H976 C973 0.950 . S
C977 C968 1.390 . S
C977 H970 0.950 . S
C977 C974 1.387 . S
C978 C979 1.387 . S
C978 H982 0.950 . S
C978 C987 1.390 . S
C979 C978 1.387 . S
C979 C981 1.387 . S
H980 C987 0.950 . S
C981 C979 1.387 . S
C981 C983 1.390 . S
C981 H985 0.950 . S
H982 C978 0.950 . S
C983 C981 1.390 . S
C983 C984 1.387 . S
C983 H986 0.950 . S
C984 C983 1.387 . S
C984 C987 1.387 . S
H985 C981 0.950 . S
H986 C983 0.950 . S
C987 C978 1.390 . S
C987 H980 0.950 . S
C987 C984 1.387 . S
C988 C989 1.387 . S
C988 H992 0.950 . S
C988 C997 1.390 . S
C989 C988 1.387 . S
C989 C991 1.387 . S
H990 C997 0.950 . S
C991 C989 1.387 . S
C991 C993 1.390 . S
C991 H995 0.950 . S
H992 C988 0.950 . S
C993 C991 1.390 . S
C993 C994 1.387 . S
C993 H996 0.950 . S
C994 C993 1.387 . S
C994 C997 1.387 . S
H995 C991 0.950 . S
H996 C993 0.950 . S
C997 C988 1.390 . S
C997 H990 0.950 . S
C997 C994 1.387 . S
C998 C999 1.387 . S
C998 H1002 0.950 . S
C998 C1007 1.390 . S
C999 C998 1.387 . S
C999 C1001 1.387 . S
H1000 C1007 0.950 . S
C1001 C999 1.387 . S
C1001 C1003 1.390 . S
C1001 H1005 0.950 . S
H1002 C998 0.950 . S
C1003 C1001 1.390 . S
C1003 C1004 1.387 . S
C1003 H1006 0.950 . S
C1004 C1003 1.387 . S
C1004 C1007 1.387 . S
H1005 C1001 0.950 . S
H1006 C1003 0.950 . S
C1007 C998 1.390 . S
C1007 H1000 0.950 . S
C1007 C1004 1.387 . S
C1008 C1009 1.387 . S
C1008 H1012 0.950 . S
C1008 C1017 1.390 . S
C1009 C1008 1.387 . S
C1009 C1011 1.387 . S
H1010 C1017 0.950 . S
C1011 C1009 1.387 . S
C1011 C1013 1.390 . S
C1011 H1015 0.950 . S
H1012 C1008 0.950 . S
C1013 C1011 1.390 . S
C1013 C1014 1.387 . S
C1013 H1016 0.950 . S
C1014 C1013 1.387 . S
C1014 C1017 1.387 . S
H1015 C1011 0.950 . S
H1016 C1013 0.950 . S
C1017 C1008 1.390 . S
C1017 H1010 0.950 . S
C1017 C1014 1.387 . S
C1018 C1019 1.387 . S
C1018 H1022 0.950 . S
C1018 C1027 1.390 . S
C1019 C1018 1.387 . S
C1019 C1021 1.387 . S
H1020 C1027 0.950 . S
C1021 C1019 1.387 . S
C1021 C1023 1.390 . S
C1021 H1025 0.950 . S
H1022 C1018 0.950 . S
C1023 C1021 1.390 . S
C1023 C1024 1.387 . S
C1023 H1026 0.950 . S
C1024 C1023 1.387 . S
C1024 C1027 1.387 . S
H1025 C1021 0.950 . S
H1026 C1023 0.950 . S
C1027 C1018 1.390 . S
C1027 H1020 0.950 . S
C1027 C1024 1.387 . S
C1028 C1029 1.387 . S
C1028 H1032 0.950 . S
C1028 C1037 1.390 . S
C1029 C1028 1.387 . S
C1029 C1031 1.387 . S
H1030 C1037 0.950 . S
C1031 C1029 1.387 . S
C1031 C1033 1.390 . S
C1031 H1035 0.950 . S
H1032 C1028 0.950 . S
C1033 C1031 1.390 . S
C1033 C1034 1.387 . S
C1033 H1036 0.950 . S
C1034 C1033 1.387 . S
C1034 C1037 1.387 . S
H1035 C1031 0.950 . S
H1036 C1033 0.950 . S
C1037 C1028 1.390 . S
C1037 H1030 0.950 . S
C1037 C1034 1.387 . S
C1038 C1039 1.387 . S
C1038 H1042 0.950 . S
C1038 C1047 1.390 . S
C1039 C1038 1.387 . S
C1039 C1041 1.387 . S
H1040 C1047 0.950 . S
C1041 C1039 1.387 . S
C1041 C1043 1.390 . S
C1041 H1045 0.950 . S
H1042 C1038 0.950 . S
C1043 C1041 1.390 . S
C1043 C1044 1.387 . S
C1043 H1046 0.950 . S
C1044 C1043 1.387 . S
C1044 C1047 1.387 . S
H1045 C1041 0.950 . S
H1046 C1043 0.950 . S
C1047 C1038 1.390 . S
C1047 H1040 0.950 . S
C1047 C1044 1.387 . S
C1048 C1049 1.387 . S
C1048 H1052 0.950 . S
C1048 C1057 1.390 . S
C1049 C1048 1.387 . S
C1049 C1051 1.387 . S
H1050 C1057 0.950 . S
C1051 C1049 1.387 . S
C1051 C1053 1.390 . S
C1051 H1055 0.950 . S
H1052 C1048 0.950 . S
C1053 C1051 1.390 . S
C1053 C1054 1.387 . S
C1053 H1056 0.950 . S
C1054 C1053 1.387 . S
C1054 C1057 1.387 . S
H1055 C1051 0.950 . S
H1056 C1053 0.950 . S
C1057 C1048 1.390 . S
C1057 H1050 0.950 . S
C1057 C1054 1.387 . S
C1058 C1059 1.387 . S
C1058 H1062 0.950 . S
C1058 C1067 1.390 . S
C1059 C1058 1.387 . S
C1059 C1061 1.387 . S
H1060 C1067 0.950 . S
C1061 C1059 1.387 . S
C1061 C1063 1.390 . S
C1061 H1065 0.950 . S
H1062 C1058 0.950 . S
C1063 C1061 1.390 . S
C1063 C1064 1.387 . S
C1063 H1066 0.950 . S
C1064 C1063 1.387 . S
C1064 C1067 1.387 . S
H1065 C1061 0.950 . S
H1066 C1063 0.950 . S
C1067 C1058 1.390 . S
C1067 H1060 0.950 . S
C1067 C1064 1.387 . S
C1068 C1069 1.387 . S
C1068 H1072 0.950 . S
C1068 C1077 1.390 . S
C1069 C1068 1.387 . S
C1069 C1071 1.387 . S
H1070 C1077 0.950 . S
C1071 C1069 1.387 . S
C1071 C1073 1.390 . S
C1071 H1075 0.950 . S
H1072 C1068 0.950 . S
C1073 C1071 1.390 . S
C1073 C1074 1.387 . S
C1073 H1076 0.950 . S
C1074 C1073 1.387 . S
C1074 C1077 1.387 . S
H1075 C1071 0.950 . S
H1076 C1073 0.950 . S
C1077 C1068 1.390 . S
C1077 H1070 0.950 . S
C1077 C1074 1.387 . S
C1078 C1079 1.387 . S
C1078 H1082 0.950 . S
C1078 C1087 1.390 . S
C1079 C1078 1.387 . S
C1079 C1081 1.387 . S
H1080 C1087 0.950 . S
C1081 C1079 1.387 . S
C1081 C1083 1.390 . S
C1081 H1085 0.950 . S
H1082 C1078 0.950 . S
C1083 C1081 1.390 . S
C1083 C1084 1.387 . S
C1083 H1086 0.950 . S
C1084 C1083 1.387 . S
C1084 C1087 1.387 . S
H1085 C1081 0.950 . S
H1086 C1083 0.950 . S
C1087 C1078 1.390 . S
C1087 H1080 0.950 . S
C1087 C1084 1.387 . S
C449 C125 1.481 . S
C454 C13 1.481 . S
C459 C363 1.479 . S
C464 C27 1.479 . S
C469 C153 1.478 . S
C474 C41 1.478 . S
C479 C391 1.480 . S
C484 C55 1.480 . S
C489 C181 1.478 . S
C494 C69 1.478 . S
C499 C83 1.478 . S
C504 C419 1.478 . S
C509 C97 1.481 . S
C514 C209 1.481 . S
C519 C111 1.478 . S
C524 C447 1.478 . S
C529 C251 1.478 . S
C534 C139 1.478 . S
C539 C279 1.480 . S
C544 C167 1.480 . S
C549 C195 1.478 . S
C554 C307 1.478 . S
C559 C223 1.480 . S
C564 C335 1.480 . S
C569 C237 1.478 . S
C574 C349 1.478 . S
C579 C377 1.481 . S
C584 C265 1.481 . S
C589 C293 1.478 . S
C594 C405 1.478 . S
C599 C433 1.478 . S
C604 C321 1.478 . S
C609 C260 1.331 . S
C614 C8 1.331 . S
C619 C274 1.331 . S
C624 C22 1.331 . S
C629 C36 1.331 . S
C634 C232 1.331 . S
C639 C50 1.331 . S
C644 C246 1.331 . S
C649 C316 1.331 . S
C654 C64 1.331 . S
C659 C78 1.327 . S
C664 C330 1.327 . S
C669 C288 1.331 . S
C674 C92 1.331 . S
C679 C302 1.327 . S
C684 C106 1.327 . S
C689 C120 1.331 . S
C694 C372 1.331 . S
C699 C386 1.327 . S
C704 C134 1.327 . S
C709 C148 1.327 . S
C714 C344 1.327 . S
C719 C162 1.331 . S
C724 C358 1.331 . S
C729 C176 1.327 . S
C734 C428 1.327 . S
C739 C190 1.331 . S
C744 C442 1.331 . S
C749 C400 1.331 . S
C754 C204 1.331 . S
C759 C414 1.327 . S
C764 C218 1.327 . S
C769 C95 1.368 . S
C774 C11 1.368 . S
C779 C109 1.366 . S
C784 C25 1.366 . S
C789 C67 1.368 . S
C794 C39 1.368 . S
C799 C53 1.368 . S
C804 C81 1.368 . S
C809 C207 1.366 . S
C814 C123 1.366 . S
C819 C221 1.368 . S
C824 C137 1.368 . S
C829 C179 1.366 . S
C834 C151 1.366 . S
C839 C193 1.368 . S
C844 C165 1.368 . S
C849 C319 1.366 . S
C854 C235 1.366 . S
C859 C333 1.366 . S
C864 C249 1.366 . S
C869 C263 1.368 . S
C874 C291 1.368 . S
C879 C277 1.368 . S
C884 C305 1.368 . S
C889 C431 1.366 . S
C894 C347 1.366 . S
C899 C445 1.366 . S
C904 C361 1.366 . S
C909 C375 1.368 . S
C914 C403 1.368 . S
C919 C389 1.368 . S
C924 C417 1.368 . S
C929 C7 1.505 . S
C934 C301 1.506 . S
C939 C315 1.505 . S
C944 C21 1.506 . S
C949 C329 1.505 . S
C954 C35 1.505 . S
C959 C49 1.505 . S
C964 C287 1.506 . S
C969 C273 1.505 . S
C974 C63 1.506 . S
C979 C77 1.505 . S
C984 C231 1.505 . S
C989 C245 1.505 . S
C994 C91 1.506 . S
C999 C105 1.506 . S
C1004 C259 1.505 . S
C1009 C413 1.505 . S
C1014 C119 1.506 . S
C1019 C427 1.505 . S
C1024 C133 1.505 . S
C1029 C147 1.505 . S
C1034 C441 1.505 . S
C1039 C399 1.505 . S
C1044 C161 1.506 . S
C1049 C385 1.505 . S
C1054 C175 1.505 . S
C1059 C189 1.505 . S
C1064 C343 1.506 . S
C1069 C357 1.505 . S
C1074 C203 1.506 . S
C1079 C217 1.505 . S
C1084 C371 1.506 . S
