# Generated by pormake.
# Topology ung, (4)-cn, num edge types: 1
# Building blocks:
#     Node 0, Type 0, BuildingBlock: ESEHIV_clean_sbu_0, # of connection points: 4
#     Node 1, Type 0, BuildingBlock: ESEHIV_clean_sbu_0, # of connection points: 4
#     Node 2, Type 0, BuildingBlock: ESEHIV_clean_sbu_0, # of connection points: 4
#     Node 3, Type 0, BuildingBlock: ESEHIV_clean_sbu_0, # of connection points: 4
#     Node 4, Type 0, BuildingBlock: ESEHIV_clean_sbu_0, # of connection points: 4
#     Node 5, Type 0, BuildingBlock: ESEHIV_clean_sbu_0, # of connection points: 4
#     Node 6, Type 0, BuildingBlock: ESEHIV_clean_sbu_0, # of connection points: 4
#     Node 7, Type 0, BuildingBlock: ESEHIV_clean_sbu_0, # of connection points: 4
#     Node 8, Type 0, BuildingBlock: ESEHIV_clean_sbu_0, # of connection points: 4
#     Node 9, Type 0, BuildingBlock: ESEHIV_clean_sbu_0, # of connection points: 4
#     Node 10, Type 0, BuildingBlock: ESEHIV_clean_sbu_0, # of connection points: 4
#     Node 11, Type 0, BuildingBlock: ESEHIV_clean_sbu_0, # of connection points: 4
#     Node 12, Type 0, BuildingBlock: ESEHIV_clean_sbu_0, # of connection points: 4
#     Node 13, Type 0, BuildingBlock: ESEHIV_clean_sbu_0, # of connection points: 4
#     Node 14, Type 0, BuildingBlock: ESEHIV_clean_sbu_0, # of connection points: 4
#     Node 15, Type 0, BuildingBlock: ESEHIV_clean_sbu_0, # of connection points: 4
#     Node 16, Type 0, BuildingBlock: ESEHIV_clean_sbu_0, # of connection points: 4
#     Node 17, Type 0, BuildingBlock: ESEHIV_clean_sbu_0, # of connection points: 4
#     Edge 18, Type (0, 0), BuildingBlock: OJICUG_clean_linker_0, # of connection points: 2
#     Edge 19, Type (0, 0), BuildingBlock: OJICUG_clean_linker_0, # of connection points: 2
#     Edge 20, Type (0, 0), BuildingBlock: OJICUG_clean_linker_0, # of connection points: 2
#     Edge 21, Type (0, 0), BuildingBlock: OJICUG_clean_linker_0, # of connection points: 2
#     Edge 22, Type (0, 0), BuildingBlock: OJICUG_clean_linker_0, # of connection points: 2
#     Edge 23, Type (0, 0), BuildingBlock: OJICUG_clean_linker_0, # of connection points: 2
#     Edge 24, Type (0, 0), BuildingBlock: OJICUG_clean_linker_0, # of connection points: 2
#     Edge 25, Type (0, 0), BuildingBlock: OJICUG_clean_linker_0, # of connection points: 2
#     Edge 26, Type (0, 0), BuildingBlock: OJICUG_clean_linker_0, # of connection points: 2
#     Edge 27, Type (0, 0), BuildingBlock: OJICUG_clean_linker_0, # of connection points: 2
#     Edge 28, Type (0, 0), BuildingBlock: OJICUG_clean_linker_0, # of connection points: 2
#     Edge 29, Type (0, 0), BuildingBlock: OJICUG_clean_linker_0, # of connection points: 2
#     Edge 30, Type (0, 0), BuildingBlock: OJICUG_clean_linker_0, # of connection points: 2
#     Edge 31, Type (0, 0), BuildingBlock: OJICUG_clean_linker_0, # of connection points: 2
#     Edge 32, Type (0, 0), BuildingBlock: OJICUG_clean_linker_0, # of connection points: 2
#     Edge 33, Type (0, 0), BuildingBlock: OJICUG_clean_linker_0, # of connection points: 2
#     Edge 34, Type (0, 0), BuildingBlock: OJICUG_clean_linker_0, # of connection points: 2
#     Edge 35, Type (0, 0), BuildingBlock: OJICUG_clean_linker_0, # of connection points: 2
#     Edge 36, Type (0, 0), BuildingBlock: OJICUG_clean_linker_0, # of connection points: 2
#     Edge 37, Type (0, 0), BuildingBlock: OJICUG_clean_linker_0, # of connection points: 2
#     Edge 38, Type (0, 0), BuildingBlock: OJICUG_clean_linker_0, # of connection points: 2
#     Edge 39, Type (0, 0), BuildingBlock: OJICUG_clean_linker_0, # of connection points: 2
#     Edge 40, Type (0, 0), BuildingBlock: OJICUG_clean_linker_0, # of connection points: 2
#     Edge 41, Type (0, 0), BuildingBlock: OJICUG_clean_linker_0, # of connection points: 2
#     Edge 42, Type (0, 0), BuildingBlock: OJICUG_clean_linker_0, # of connection points: 2
#     Edge 43, Type (0, 0), BuildingBlock: OJICUG_clean_linker_0, # of connection points: 2
#     Edge 44, Type (0, 0), BuildingBlock: OJICUG_clean_linker_0, # of connection points: 2
#     Edge 45, Type (0, 0), BuildingBlock: OJICUG_clean_linker_0, # of connection points: 2
#     Edge 46, Type (0, 0), BuildingBlock: OJICUG_clean_linker_0, # of connection points: 2
#     Edge 47, Type (0, 0), BuildingBlock: OJICUG_clean_linker_0, # of connection points: 2
#     Edge 48, Type (0, 0), BuildingBlock: OJICUG_clean_linker_0, # of connection points: 2
#     Edge 49, Type (0, 0), BuildingBlock: OJICUG_clean_linker_0, # of connection points: 2
#     Edge 50, Type (0, 0), BuildingBlock: OJICUG_clean_linker_0, # of connection points: 2
#     Edge 51, Type (0, 0), BuildingBlock: OJICUG_clean_linker_0, # of connection points: 2
#     Edge 52, Type (0, 0), BuildingBlock: OJICUG_clean_linker_0, # of connection points: 2
#     Edge 53, Type (0, 0), BuildingBlock: OJICUG_clean_linker_0, # of connection points: 2
# Relax obj value: 0.013
# Max RMSD: 0.200
# Mean RMSD: 0.160
data_MOF--net-ung--node1-ESEHIV_clean_sbu_0--edge1-OJICUG_clean_linker_0
_symmetry_space_group_name_H-M    P1
_symmetry_Int_Tables_number       1
_symmetry_cell_setting            triclinic
loop_
_symmetry_equiv_pos_as_xyz
'x, y, z'
_cell_length_a     67.055369
_cell_length_b     65.713299
_cell_length_c     15.995695
_cell_angle_alpha  99.248048
_cell_angle_beta   85.415151
_cell_angle_gamma 122.85253
loop_
_atom_site_label
_atom_site_type_symbol
_atom_site_fract_x
_atom_site_fract_y
_atom_site_fract_z
_atom_type_partial_charge
Cu0 Cu 0.0713 0.6122 0.18642 0.0
N1 N 0.06346 0.59516 0.27907 0.0
N2 N 0.06466 0.57327 0.36997 0.0
C3 C 0.07211 0.58184 0.29489 0.0
C4 C 0.0507 0.58155 0.40246 0.0
C5 C 0.05003 0.59507 0.34626 0.0
O6 O 0.08117 0.59573 0.09573 0.0
C7 C 0.11217 0.65251 0.27442 0.0
O8 O 0.11525 0.63545 0.29091 0.0
H9 H 0.08439 0.57933 0.25339 0.0
H10 H 0.04078 0.60455 0.35447 0.0
N11 N 0.04476 0.61061 0.14845 0.0
N12 N 1.02201 0.61757 0.07799 0.0
C13 C 0.04442 0.62507 0.09813 0.0
C14 C 1.02187 0.5936 0.16108 0.0
C15 C 1.00781 0.59781 0.11767 0.0
C16 C 0.06614 0.57305 0.07162 0.0
O17 O 0.04518 0.56252 0.10742 0.0
H18 H 0.06026 0.64026 0.07467 0.0
H19 H 1.01583 0.57887 0.198 0.0
O20 O 0.09524 0.64649 0.22513 0.0
H21 H 0.04168 0.57819 0.46261 0.0
H22 H 0.9886 0.58711 0.11537 0.0
Cu23 Cu 0.51401 0.48955 0.14693 0.0
N24 N 0.52585 0.50842 0.05842 0.0
N25 N 0.55112 0.53089 0.96258 0.0
C26 C 0.54828 0.5194 0.02955 0.0
C27 C 0.52956 0.52683 0.94873 0.0
C28 C 0.51399 0.51285 1.0076 0.0
O29 O 0.54041 0.50419 0.22782 0.0
C30 C 0.4921 0.43644 0.12448 0.0
O31 O 0.49092 0.43756 0.2073 0.0
H32 H 0.56221 0.51898 0.05742 0.0
H33 H 0.49526 0.50605 1.01219 0.0
N34 N 0.48909 0.49173 0.20053 0.0
N35 N 0.4583 0.48545 0.28379 0.0
C36 C 0.47182 0.47665 0.25071 0.0
C37 C 0.48617 0.51049 0.20176 0.0
C38 C 0.4673 0.50671 0.25294 0.0
C39 C 0.54976 0.52699 0.25425 0.0
O40 O 0.54067 0.53822 0.22784 0.0
H41 H 0.46969 0.46008 0.26526 0.0
H42 H 0.49737 0.52619 0.16927 0.0
O43 O 0.50203 0.45611 0.09152 0.0
H44 H 0.52518 0.53298 0.89831 0.0
H45 H 0.46077 0.51876 0.2668 0.0
Cu46 Cu 0.62895 0.04018 0.32931 0.0
N47 N 0.6078 0.03015 0.23952 0.0
N48 N 0.58626 0.03282 0.14693 0.0
C49 C 0.60531 0.04518 0.1994 0.0
C50 C 0.57683 1.00897 0.15204 0.0
C51 C 0.59013 1.00738 0.20916 0.0
O52 O 0.61541 0.04957 0.42981 0.0
C53 C 0.6805 0.07494 0.32406 0.0
O54 O 0.68237 0.06895 0.39617 0.0
H55 H 0.61688 0.0649 0.21056 0.0
H56 H 0.5865 0.99079 0.22943 0.0
N57 N 0.62886 1.01316 0.35431 0.0
N58 N 0.63885 0.98933 0.40044 0.0
C59 C 0.64683 1.01054 0.36979 0.0
C60 C 0.60903 0.993 0.37612 0.0
C61 C 0.61504 0.97828 0.40381 0.0
C62 C 0.60487 0.06095 0.43074 0.0
O63 O 0.60688 0.07176 0.3656 0.0
H64 H 0.66535 0.02407 0.36128 0.0
H65 H 0.59146 0.98994 0.37679 0.0
O66 O 0.66004 0.06576 0.29201 0.0
H67 H 0.56075 0.99382 0.12037 0.0
H68 H 0.60289 0.96148 0.42973 0.0
Cu69 Cu 0.08342 0.47661 0.69746 0.0
N70 N 0.09261 0.49567 0.60996 0.0
N71 N 0.09169 0.51832 0.52147 0.0
C72 C 0.08411 0.5093 0.59581 0.0
C73 C 0.1055 0.50998 0.48769 0.0
C74 C 0.1059 0.49591 0.54208 0.0
O75 O 0.07299 0.49203 0.78996 0.0
C76 C 0.04894 0.42374 0.67656 0.0
O77 O 0.05279 0.42426 0.75632 0.0
H78 H 0.07163 0.51146 0.63732 0.0
H79 H 0.11452 0.4858 0.53135 0.0
N80 N 0.10932 0.47687 0.73628 0.0
N81 N 0.13186 0.47127 0.81436 0.0
C82 C 0.10967 0.46544 0.79873 0.0
C83 C 0.13205 0.49042 0.71205 0.0
C84 C 0.14593 0.48698 0.75971 0.0
C85 C 0.08841 0.51429 0.81825 0.0
O86 O 0.10982 0.52455 0.78589 0.0
H87 H 0.09416 0.45385 0.83426 0.0
H88 H 0.13829 0.50253 0.6646 0.0
O89 O 0.05924 0.44368 0.64515 0.0
H90 H 0.11436 0.51338 0.42726 0.0
H91 H 0.16496 0.4955 0.75468 0.0
Cu92 Cu 0.66821 0.62448 0.58134 0.0
N93 N 0.65853 0.60464 0.66639 0.0
N94 N 0.6345 0.58215 0.76462 0.0
C95 C 0.63685 0.59461 0.70127 0.0
C96 C 0.65568 0.58442 0.76935 0.0
C97 C 0.6705 0.59839 0.70877 0.0
O98 O 0.64203 0.60753 0.499 0.0
C99 C 0.69048 0.66747 0.69493 0.0
O100 O 0.70291 0.65816 0.7073 0.0
H101 H 0.62309 0.59649 0.67997 0.0
H102 H 0.6888 0.60397 0.69758 0.0
N103 N 0.69608 0.62908 0.52762 0.0
N104 N 0.73105 0.6469 0.4605 0.0
C105 C 0.71347 0.64949 0.49707 0.0
C106 C 0.70279 0.61294 0.50965 0.0
C107 C 0.7243 0.62384 0.4684 0.0
C108 C 0.63353 0.5849 0.47219 0.0
O109 O 0.64342 0.57434 0.49791 0.0
H110 H 0.71302 0.66583 0.50112 0.0
H111 H 0.69278 0.59454 0.5257 0.0
O112 O 0.67414 0.65601 0.63837 0.0
H113 H 0.66038 0.57707 0.81458 0.0
H114 H 0.73436 0.61553 0.4475 0.0
Cu115 Cu 0.50786 0.06826 0.78373 0.0
N116 N 0.52685 0.07702 0.87943 0.0
N117 N 0.54645 0.0732 0.97671 0.0
C118 C 0.52878 0.06142 0.91828 0.0
C119 C 0.55536 0.09721 0.97692 0.0
C120 C 0.54322 0.0995 0.91725 0.0
O121 O 0.52279 0.05951 0.68608 0.0
C122 C 0.46581 0.04906 0.87373 0.0
O123 O 0.47757 0.07189 0.91068 0.0
H124 H 0.5178 0.04175 0.90214 0.0
H125 H 0.54675 0.11647 0.90102 0.0
N126 N 0.50895 0.09564 0.75685 0.0
N127 N 0.50065 0.11955 0.70149 0.0
C128 C 0.49174 0.09744 0.72688 0.0
C129 C 0.5293 0.11702 0.74832 0.0
C130 C 0.52428 0.13179 0.71533 0.0
C131 C 0.53402 0.04889 0.68679 0.0
O132 O 0.53232 0.03847 0.7526 0.0
H133 H 0.4733 0.08256 0.72082 0.0
H134 H 0.54682 0.121 0.7598 0.0
O135 O 0.47545 0.04288 0.81128 0.0
H136 H 0.57038 0.11217 1.01426 0.0
H137 H 0.53732 0.14961 0.69771 0.0
Cu138 Cu 0.74218 0.95742 0.65801 0.0
N139 N 0.73543 0.93769 0.74092 0.0
N140 N 0.73719 0.91273 0.81533 0.0
C141 C 0.74135 0.92108 0.74006 0.0
C142 C 0.72819 0.92445 0.86518 0.0
C143 C 0.72715 0.93986 0.81907 0.0
O144 O 0.75375 0.9438 0.56289 0.0
C145 C 0.77147 1.01107 0.69457 0.0
O146 O 0.76597 1.01214 0.61914 0.0
H147 H 0.74971 0.91618 0.68695 0.0
H148 H 0.72161 0.95246 0.84173 0.0
N149 N 0.71379 0.95389 0.62874 0.0
N150 N 0.68678 0.95726 0.56912 0.0
C151 C 0.71016 0.96699 0.58179 0.0
C152 C 0.69199 0.93551 0.64685 0.0
C153 C 0.67535 0.93753 0.61043 0.0
C154 C 0.74569 0.9375 0.48726 0.0
O155 O 0.73248 0.94493 0.46522 0.0
H156 H 0.72428 0.98258 0.55415 0.0
H157 H 0.68845 0.92129 0.68276 0.0
O158 O 0.76441 0.99035 0.71604 0.0
H159 H 0.7231 0.92233 0.93068 0.0
H160 H 0.65629 0.92534 0.61397 0.0
Cu161 Cu 0.1736 0.81125 0.60399 0.0
N162 N 0.19296 0.82453 0.70029 0.0
N163 N 0.21838 0.85239 0.80179 0.0
C164 C 0.2103 0.84817 0.72224 0.0
C165 C 0.20574 0.83055 0.83065 0.0
C166 C 0.19006 0.81341 0.7679 0.0
O167 O 0.18881 0.83749 0.53278 0.0
C168 C 0.12215 0.79112 0.6119 0.0
O169 O 0.12133 0.78744 0.52872 0.0
H170 H 0.21603 0.86221 0.68238 0.0
H171 H 0.17686 0.79437 0.77225 0.0
N172 N 0.17411 0.78393 0.55026 0.0
N173 N 0.16479 0.74819 0.47293 0.0
C174 C 0.15725 0.76338 0.50293 0.0
C175 C 0.19288 0.78168 0.54993 0.0
C176 C 0.18723 0.75976 0.50264 0.0
C177 C 0.19501 0.83492 0.45621 0.0
O178 O 0.18669 0.81279 0.41542 0.0
H179 H 0.1398 0.75958 0.49119 0.0
H180 H 0.20965 0.79524 0.58133 0.0
O181 O 0.14206 0.80146 0.6497 0.0
H182 H 0.20747 0.82726 0.89306 0.0
H183 H 0.19896 0.75309 0.48998 0.0
Cu184 Cu 0.31411 0.39317 0.58279 0.0
N185 N 0.30172 0.39965 0.68542 0.0
N186 N 0.27612 0.39716 0.78797 0.0
C187 C 0.27912 0.38661 0.71249 0.0
C188 C 0.29761 0.41742 0.80955 0.0
C189 C 0.31338 0.41879 0.74662 0.0
O190 O 0.29286 0.38766 0.49345 0.0
C191 C 0.33616 0.37432 0.64937 0.0
O192 O 0.34784 0.39719 0.6858 0.0
H193 H 0.26504 0.3701 0.67678 0.0
H194 H 0.33204 0.43289 0.7454 0.0
N195 N 0.34284 0.4215 0.56036 0.0
N196 N 0.37769 0.44684 0.50183 0.0
C197 C 0.36149 0.42343 0.5146 0.0
C198 C 0.34723 0.44428 0.57614 0.0
C199 C 0.36861 0.45988 0.54086 0.0
C200 C 0.27142 0.37063 0.4754 0.0
O201 O 0.26127 0.35075 0.51176 0.0
H202 H 0.3627 0.40786 0.4893 0.0
H203 H 0.33512 0.44903 0.60759 0.0
O204 O 0.3198 0.36759 0.59593 0.0
H205 H 0.30161 0.43027 0.86693 0.0
H206 H 0.37616 0.47917 0.54044 0.0
Cu207 Cu 0.74946 0.81938 0.06299 0.0
N208 N 0.73913 0.82871 0.1655 0.0
N209 N 0.73811 0.85399 0.27539 0.0
C210 C 0.74342 0.85129 0.1927 0.0
C211 C 0.73003 0.8322 0.30101 0.0
C212 C 0.7307 0.81667 0.23315 0.0
O213 O 0.75834 0.84523 0.99611 0.0
C214 C 0.78908 0.81255 0.04509 0.0
O215 O 0.78623 0.80897 0.9626 0.0
H216 H 0.75167 0.86592 0.15408 0.0
H217 H 0.72651 0.79832 0.23413 0.0
N218 N 0.72518 0.78897 1.008 0.0
N219 N 0.70669 0.75316 0.92149 0.0
C220 C 0.7274 0.77149 0.95949 0.0
C221 C 0.70219 0.78133 1.00102 0.0
C222 C 0.69076 0.75933 0.94786 0.0
C223 C 0.75121 0.84197 0.9209 0.0
O224 O 0.74047 0.81993 0.87743 0.0
H225 H 0.74405 0.77258 0.94981 0.0
H226 H 0.69444 0.79143 0.03071 0.0
O227 O 0.77596 0.81767 0.09369 0.0
H228 H 0.72453 0.82797 0.36472 0.0
H229 H 0.67219 0.74879 0.92985 0.0
Cu230 Cu 0.31641 0.96087 0.15335 0.0
N231 N 0.30545 0.94016 0.23675 0.0
N232 N 0.27934 0.91303 0.32015 0.0
C233 C 0.28289 0.92132 0.24487 0.0
C234 C 0.30053 0.92711 0.36065 0.0
C235 C 0.31657 0.94381 0.30914 0.0
O236 O 0.29042 0.94469 0.07134 0.0
C237 C 0.32868 1.01107 0.179 0.0
O238 O 0.32745 1.00912 0.09626 0.0
H239 H 0.26899 0.91482 0.19879 0.0
H240 H 0.33471 0.9584 0.32508 0.0
N241 N 0.34413 0.96444 0.10094 0.0
N242 N 0.37839 0.98026 0.02899 0.0
C243 C 0.36221 0.98444 0.07007 0.0
C244 C 0.34907 0.94701 0.07902 0.0
C245 C 0.37012 0.95666 0.03479 0.0
C246 C 0.29263 0.94025 0.99181 0.0
O247 O 0.31389 0.95096 0.95842 0.0
H248 H 0.36307 1.00151 0.07532 0.0
H249 H 0.33786 0.92841 0.09274 0.0
O250 O 0.32369 0.99255 0.21248 0.0
H251 H 0.30406 0.9258 0.4238 0.0
H252 H 0.37865 0.94701 1.0091 0.0
Cu253 Cu 0.17198 0.38782 0.12693 0.0
N254 N 0.1894 0.39335 0.22367 0.0
N255 N 0.21288 0.392 0.31159 0.0
C256 C 0.20227 0.38371 0.23461 0.0
C257 C 0.20649 0.40736 0.35065 0.0
C258 C 0.19181 0.40794 0.29672 0.0
O259 O 0.18964 0.38523 0.02801 0.0
C260 C 0.13362 0.34298 0.17655 0.0
O261 O 0.15049 0.3409 0.20202 0.0
H262 H 0.20409 0.37115 0.18696 0.0
H263 H 0.18346 0.41829 0.30995 0.0
N264 N 0.1708 0.41517 0.1167 0.0
N265 N 0.16345 0.43921 0.0576 0.0
C266 C 0.15764 0.4161 0.05951 0.0
C267 C 0.18543 0.43849 0.15213 0.0
C268 C 0.18086 0.4533 0.11627 0.0
C269 C 0.19416 0.36898 0.99889 0.0
O270 O 0.18383 0.34847 0.03156 0.0
H271 H 0.14517 0.40032 1.01638 0.0
H272 H 0.19935 0.44453 0.19743 0.0
O273 O 0.13924 0.36065 0.13667 0.0
H274 H 0.21186 0.41722 0.41405 0.0
H275 H 0.19022 0.47302 0.13048 0.0
Cu276 Cu 0.39638 0.29263 0.88546 0.0
N277 N 0.38527 0.27222 0.96927 0.0
N278 N 0.38521 0.24881 0.05664 0.0
C279 C 0.39544 0.2607 0.98902 0.0
C280 C 0.36788 0.25311 0.08045 0.0
C281 C 0.36797 0.26759 0.02638 0.0
O282 O 0.4067 0.27714 0.79299 0.0
C283 C 0.43669 0.34337 0.90762 0.0
O284 O 0.43726 0.34223 0.82478 0.0
H285 H 0.41068 0.26182 0.95609 0.0
H286 H 0.35664 0.2747 0.02968 0.0
N287 N 0.37233 0.29513 0.84498 0.0
N288 N 0.35418 0.30915 0.7824 0.0
C289 C 0.3751 0.31371 0.80896 0.0
C290 C 0.34886 0.27822 0.84112 0.0
C291 C 0.33764 0.28678 0.80268 0.0
C292 C 0.39154 0.25474 0.76552 0.0
O293 O 0.37018 0.24418 0.79826 0.0
H294 H 0.39219 0.33008 0.80113 0.0
H295 H 0.34048 0.26078 0.86424 0.0
O296 O 0.42145 0.32451 0.94117 0.0
H297 H 0.35609 0.24644 0.1334 0.0
H298 H 0.31873 0.27739 0.79179 0.0
Cu299 Cu 0.82359 0.14865 0.99737 0.0
N300 N 0.8348 0.16999 0.91661 0.0
N301 N 0.85979 0.19274 0.82072 0.0
C302 C 0.85721 0.1814 0.88775 0.0
C303 C 0.83803 0.18824 0.80697 0.0
C304 C 0.82263 0.17407 0.86592 0.0
O305 O 0.84977 0.16291 0.07879 0.0
C306 C 0.80949 0.09721 0.95068 0.0
O307 O 0.80947 0.09536 0.03125 0.0
H308 H 0.87098 0.18012 0.91257 0.0
H309 H 0.80371 0.16637 0.869 0.0
N310 N 0.79665 0.14631 0.05234 0.0
N311 N 0.76313 0.13318 0.12736 0.0
C312 C 0.78038 0.12904 0.09883 0.0
C313 C 0.78958 0.16197 0.0527 0.0
C314 C 0.76891 0.15386 0.09822 0.0
C315 C 0.85851 0.18526 0.11081 0.0
O316 O 0.84859 0.19651 0.09136 0.0
H317 H 0.78093 0.11357 0.11032 0.0
H318 H 0.79887 0.17827 0.02227 0.0
O319 O 0.8152 0.11752 0.92911 0.0
H320 H 0.83337 0.19418 0.75667 0.0
H321 H 0.75903 0.16269 0.10993 0.0
Cu322 Cu 0.98283 0.71121 0.806 0.0
N323 N 0.96266 0.7031 0.71501 0.0
N324 N 0.94282 0.70753 0.62067 0.0
C325 C 0.95979 0.71891 0.68158 0.0
C326 C 0.93516 0.68362 0.61393 0.0
C327 C 0.94749 0.68098 0.67174 0.0
O328 O 0.96986 0.72138 0.90641 0.0
C329 C 0.03474 0.74542 0.8056 0.0
O330 O 0.03535 0.74302 0.88516 0.0
H331 H 0.9701 0.73844 0.70112 0.0
H332 H 0.94526 0.664 0.68175 0.0
N333 N 0.98007 0.68282 0.83067 0.0
N334 N 0.98618 0.65708 0.8843 0.0
C335 C 0.99637 0.67948 0.85961 0.0
C336 C 0.95902 0.66209 0.83888 0.0
C337 C 0.96269 0.64621 0.87085 0.0
C338 C 0.96295 0.73621 0.91312 0.0
O339 O 0.96915 0.75071 0.85552 0.0
H340 H 1.0151 0.69347 0.86557 0.0
H341 H 0.94197 0.65933 0.8277 0.0
O342 O 1.0148 0.73448 0.76751 0.0
H343 H 0.92114 0.66894 0.57215 0.0
H344 H 0.94886 0.62862 0.88813 0.0
Cu345 Cu 0.41061 0.15881 0.39623 0.0
N346 N 0.41848 0.17707 0.30712 0.0
N347 N 0.41594 0.19828 0.21663 0.0
C348 C 0.40764 0.18809 0.2887 0.0
C349 C 0.43267 0.19337 0.18886 0.0
C350 C 0.43411 0.1802 0.24451 0.0
O351 O 0.40016 0.17417 0.48859 0.0
C352 C 0.37528 0.10643 0.38546 0.0
O353 O 0.3777 0.10858 0.46767 0.0
H354 H 0.39336 0.18786 0.32613 0.0
H355 H 0.44539 0.17299 0.23878 0.0
N356 N 0.43738 0.16035 0.43314 0.0
N357 N 0.46098 0.15457 0.50417 0.0
C358 C 0.43836 0.14632 0.48392 0.0
C359 C 0.46012 0.17787 0.42078 0.0
C360 C 0.47466 0.17437 0.4643 0.0
C361 C 0.41499 0.19686 0.51342 0.0
O362 O 0.43594 0.20772 0.47765 0.0
H363 H 0.42288 0.13106 0.50847 0.0
H364 H 0.46576 0.1927 0.38484 0.0
O365 O 0.38681 0.12538 0.34843 0.0
H366 H 0.44311 0.19878 0.13217 0.0
H367 H 0.49386 0.18572 0.46718 0.0
Cu368 Cu 0.98006 0.27771 0.43003 0.0
N369 N 0.96806 0.25872 0.51794 0.0
N370 N 0.94301 0.23822 0.6178 0.0
C371 C 0.94602 0.24928 0.54951 0.0
C372 C 0.96408 0.24086 0.62949 0.0
C373 C 0.97951 0.25358 0.56787 0.0
O374 O 0.95381 0.26322 0.34845 0.0
C375 C 0.99982 0.3306 0.45516 0.0
O376 O 1.00052 0.32988 0.37248 0.0
H377 H 0.93276 0.25131 0.52451 0.0
H378 H 0.99792 0.25916 0.56111 0.0
N379 N 1.00552 0.27616 0.37873 0.0
N380 N 0.03991 0.28584 0.31399 0.0
C381 C 1.02528 0.29359 0.34353 0.0
C382 C 1.00775 0.25679 0.37089 0.0
C383 C 1.02883 0.26266 0.3312 0.0
C384 C 0.94365 0.24029 0.3226 0.0
O385 O 0.95193 0.22834 0.34917 0.0
H386 H 1.02909 0.31174 0.3414 0.0
H387 H 0.99499 0.23959 0.3932 0.0
O388 O 0.9913 0.31087 0.48667 0.0
H389 H 0.96812 0.23423 0.67922 0.0
H390 H 0.0354 0.25068 0.31597 0.0
Cu391 Cu 0.86504 0.74487 0.26146 0.0
N392 N 0.88202 0.7519 0.36063 0.0
N393 N 0.90174 0.7477 0.4562 0.0
C394 C 0.8943 0.742 0.37492 0.0
C395 C 0.89403 0.76206 0.49438 0.0
C396 C 0.88181 0.76452 0.43544 0.0
O397 O 0.88331 0.74095 0.16566 0.0
C398 C 0.82031 0.72111 0.3319 0.0
O399 O 0.82923 0.74372 0.36893 0.0
H400 H 0.8972 0.73031 0.32713 0.0
H401 H 0.87252 0.77394 0.44744 0.0
N402 N 0.86276 0.77126 0.24693 0.0
N403 N 0.84966 0.79259 0.20242 0.0
C404 C 0.84732 0.77064 0.19589 0.0
C405 C 0.87548 0.79445 0.28618 0.0
C406 C 0.86731 0.80761 0.25935 0.0
C407 C 0.88752 0.72403 0.14808 0.0
O408 O 0.87643 0.70513 0.18982 0.0
H409 H 0.83418 0.75424 0.15669 0.0
H410 H 0.88958 0.80129 0.33163 0.0
O411 O 0.83292 0.71671 0.27701 0.0
H412 H 0.89595 0.76923 0.56106 0.0
H413 H 0.87386 0.82673 0.27996 0.0
C414 C 0.05993 0.51896 0.91972 0.0
C415 C 0.08259 0.5291 0.88368 0.0
H416 H 0.03701 0.52482 1.00682 0.0
C417 C 0.09984 0.55396 0.9098 0.0
H418 H 0.04622 0.49994 0.90109 0.0
C419 C 0.09458 0.56832 0.97028 0.0
C420 C 0.07193 0.55817 1.00637 0.0
H421 H 0.11751 0.56246 0.88333 0.0
H422 H 0.10829 0.58733 0.98886 0.0
C423 C 0.05468 0.5333 0.98035 0.0
C424 C 0.59644 0.57556 0.824 0.0
C425 C 0.61379 0.56957 0.81659 0.0
H426 H 0.56319 0.56822 0.8766 0.0
C427 C 0.61033 0.5509 0.86001 0.0
H428 H 0.59861 0.59015 0.79336 0.0
C429 C 0.58995 0.53839 0.90851 0.0
C430 C 0.57247 0.54416 0.91453 0.0
H431 H 0.62312 0.54558 0.85527 0.0
H432 H 0.58764 0.52381 0.93967 0.0
C433 C 0.57605 0.56299 0.87203 0.0
C434 C 0.56246 0.02998 0.02996 0.0
C435 C 0.5763 0.04302 0.10365 0.0
H436 H 0.54242 0.02936 0.93121 0.0
C437 C 0.57968 0.06591 0.13591 0.0
H438 H 0.55967 1.01241 1.00316 0.0
C439 C 0.56959 0.07558 0.09521 0.0
C440 C 0.55591 0.06266 0.02101 0.0
H441 H 0.58979 0.07622 0.19359 0.0
H442 H 0.57239 0.09312 0.12239 0.0
C443 C 0.55244 0.03969 0.989 0.0
C444 C 0.57365 0.06874 0.49409 0.0
C445 C 0.58747 0.05873 0.49838 0.0
H446 H 0.5458 0.07323 0.54881 0.0
C447 C 0.58312 0.04498 0.56413 0.0
H448 H 0.57633 0.07926 0.44398 0.0
C449 C 0.56543 0.04133 0.62391 0.0
C450 C 0.55158 0.05131 0.61953 0.0
H451 H 0.59325 0.03681 0.5691 0.0
H452 H 0.56273 0.03079 0.67396 0.0
C453 C 0.55594 0.06508 0.55383 0.0
C454 C 0.07074 0.55986 0.49684 0.0
C455 C 0.07121 0.5592 0.40839 0.0
H456 H 0.07729 0.5478 0.60216 0.0
C457 C 0.07853 0.54483 0.358 0.0
H458 H 0.06555 0.57098 0.53777 0.0
C459 C 0.08531 0.53157 0.39497 0.0
C460 C 0.08493 0.53227 0.4834 0.0
H461 H 0.07873 0.54353 0.28968 0.0
H462 H 0.09046 0.52043 0.3539 0.0
C463 C 0.07753 0.54657 0.53385 0.0
C464 C 0.60079 0.58067 0.38944 0.0
C465 C 0.61221 0.57011 0.41585 0.0
H466 H 0.57227 0.57541 0.3186 0.0
C467 C 0.60276 0.54499 0.38919 0.0
H468 H 0.60747 0.59988 0.40884 0.0
C469 C 0.58242 0.53081 0.33731 0.0
C470 C 0.57105 0.54142 0.31083 0.0
H471 H 0.61104 0.53618 0.40848 0.0
H472 H 0.57568 0.51159 0.31779 0.0
C473 C 0.58051 0.56653 0.33767 0.0
C474 C 0.7386 0.89242 0.29256 0.0
C475 C 0.74187 0.87602 0.32684 0.0
H476 H 0.73726 0.92473 0.31622 0.0
C477 C 0.74854 0.88129 0.41258 0.0
H478 H 0.73345 0.88883 0.22677 0.0
C479 C 0.75121 0.9021 0.46346 0.0
C480 C 0.74685 0.91791 0.43023 0.0
H481 H 0.75156 0.86923 0.44048 0.0
H482 H 0.75575 0.9052 0.52973 0.0
C483 C 0.74082 0.91299 0.34384 0.0
C484 C 0.21994 0.85452 0.33222 0.0
C485 C 0.21506 0.85631 0.41942 0.0
H486 H 0.24414 0.87128 0.23221 0.0
C487 C 0.23113 0.87776 0.47243 0.0
H488 H 0.208 0.83825 0.28961 0.0
C489 C 0.25204 0.8964 0.43975 0.0
C490 C 0.25722 0.8943 0.35299 0.0
H491 H 0.22807 0.87976 0.53991 0.0
H492 H 0.26427 0.91243 0.48254 0.0
C493 C 0.24064 0.87341 0.29927 0.0
C494 C 0.26431 0.39995 0.42205 0.0
C495 C 0.25708 0.37558 0.42551 0.0
H496 H 0.25559 0.42411 0.38412 0.0
C497 C 0.23548 0.35658 0.38634 0.0
H498 H 0.28072 0.41508 0.45197 0.0
C499 C 0.22135 0.36191 0.34557 0.0
C500 C 0.22826 0.38629 0.3456 0.0
H501 H 0.2294 0.33765 0.38804 0.0
H502 H 0.20462 0.34705 0.3169 0.0
C503 C 0.24991 0.4052 0.38363 0.0
C504 C 0.2185 0.35771 0.89634 0.0
C505 C 0.21388 0.37532 0.93759 0.0
H506 H 0.24201 0.35094 0.81461 0.0
C507 C 0.22941 0.39986 0.92439 0.0
H508 H 0.2069 0.33868 0.90512 0.0
C509 C 0.24953 0.40681 0.87438 0.0
C510 C 0.25447 0.3894 0.83478 0.0
H511 H 0.2265 0.41398 0.95498 0.0
H512 H 0.26141 0.42592 0.86699 0.0
C513 C 0.23851 0.36468 0.84452 0.0
C514 C 0.74377 0.85919 0.80629 0.0
C515 C 0.75058 0.86172 0.89013 0.0
H516 H 0.73424 0.87364 0.71663 0.0
C517 C 0.7543 0.88217 0.9472 0.0
H518 H 0.74073 0.84364 0.76081 0.0
C519 C 0.75018 0.89901 0.92226 0.0
C520 C 0.74263 0.89605 0.83935 0.0
H521 H 0.75951 0.88473 1.0123 0.0
H522 H 0.75275 0.91429 0.96811 0.0
C523 C 0.74003 0.87632 0.78096 0.0
C524 C 0.25172 0.90234 0.98177 0.0
C525 C 0.27211 0.91939 0.94106 0.0
H526 H 0.21875 0.86759 0.96931 0.0
C527 C 0.27372 0.91472 0.85259 0.0
H528 H 0.24985 0.90527 0.04976 0.0
C529 C 0.25573 0.89309 0.80643 0.0
C530 C 0.23598 0.87552 0.84796 0.0
H531 H 0.28919 0.92744 0.81926 0.0
H532 H 0.25772 0.88966 0.73874 0.0
C533 C 0.23397 0.88059 0.93585 0.0
C534 C 0.38066 0.21514 0.67477 0.0
C535 C 0.39765 0.2401 0.70063 0.0
H536 H 0.37272 0.18189 0.59607 0.0
C537 C 0.42036 0.25054 0.66493 0.0
H538 H 0.36297 0.20643 0.70107 0.0
C539 C 0.42591 0.23639 0.60471 0.0
C540 C 0.40892 0.21144 0.57877 0.0
H541 H 0.43387 0.26963 0.68347 0.0
H542 H 0.4436 0.2451 0.57841 0.0
C543 C 0.38623 0.20098 0.61464 0.0
C544 C 0.87909 0.20625 0.68431 0.0
C545 C 0.88082 0.20489 0.77004 0.0
H546 H 0.89739 0.21746 0.56845 0.0
C547 C 0.90346 0.21493 0.80486 0.0
H548 H 0.86198 0.1984 0.65488 0.0
C549 C 0.92379 0.22579 0.75508 0.0
C550 C 0.92203 0.22697 0.66923 0.0
H551 H 0.90553 0.21459 0.87091 0.0
H552 H 0.94091 0.23355 0.78428 0.0
C553 C 0.89944 0.21715 0.63457 0.0
C554 C 0.92144 0.70654 0.4993 0.0
C555 C 0.93355 0.71835 0.57699 0.0
H556 H 0.90167 0.70625 0.40068 0.0
C557 C 0.9357 0.74049 0.61278 0.0
H558 H 0.91963 0.68963 0.46937 0.0
C559 C 0.92566 0.7503 0.57259 0.0
C560 C 0.91315 0.73824 0.49566 0.0
H561 H 0.94465 0.75001 0.67297 0.0
H562 H 0.92763 0.76731 0.60214 0.0
C563 C 0.91136 0.71631 0.45924 0.0
C564 C 0.91782 0.74655 0.03921 0.0
C565 C 0.90676 0.7271 0.08764 0.0
H566 H 0.94426 0.76485 0.94717 0.0
C567 C 0.91512 0.71136 0.08084 0.0
H568 H 0.91198 0.75914 0.04315 0.0
C569 C 0.9339 0.71485 0.02663 0.0
C570 C 0.94474 0.73409 0.97724 0.0
H571 H 0.90724 0.69634 0.11776 0.0
H572 H 0.93961 0.70214 0.02233 0.0
C573 C 0.93649 0.74994 0.98451 0.0
C574 C 0.41134 0.21245 0.08904 0.0
C575 C 0.40791 0.21081 0.17621 0.0
H576 H 0.40647 0.22534 0.98263 0.0
C577 C 0.39638 0.22153 0.22301 0.0
H578 H 0.4197 0.20406 0.05042 0.0
C579 C 0.38865 0.23368 0.18378 0.0
C580 C 0.39234 0.23552 0.09683 0.0
H581 H 0.39368 0.22096 0.29038 0.0
H582 H 0.38028 0.24211 0.22204 0.0
C583 C 0.40369 0.22465 0.04996 0.0
C584 C 0.91103 0.23783 0.24422 0.0
C585 C 0.92214 0.22653 0.267 0.0
H586 H 0.88228 0.23371 0.17792 0.0
C587 C 0.91207 0.20141 0.23797 0.0
H588 H 0.9182 0.25707 0.26553 0.0
C589 C 0.89143 0.18794 0.1877 0.0
C590 C 0.88024 0.1992 0.1653 0.0
H591 H 0.92011 0.19202 0.2542 0.0
H592 H 0.88426 0.1687 0.1665 0.0
C593 C 0.89034 0.22434 0.19415 0.0
C594 C 0.14532 0.68409 0.37406 0.0
C595 C 0.12653 0.67777 0.32082 0.0
H596 H 0.17182 0.71099 0.46462 0.0
C597 C 0.12075 0.69527 0.31729 0.0
H598 H 0.15023 0.6711 0.3789 0.0
C599 C 0.13322 0.71834 0.36699 0.0
C600 C 0.15187 0.72452 0.42096 0.0
H601 H 0.10631 0.69101 0.27727 0.0
H602 H 0.12833 0.73136 0.36277 0.0
C603 C 0.15781 0.7071 0.42325 0.0
C604 C 0.4357 0.49081 0.40513 0.0
C605 C 0.43897 0.47526 0.34273 0.0
H606 H 0.41452 0.49411 0.50618 0.0
C607 C 0.4226 0.44988 0.33707 0.0
H608 H 0.44831 0.51039 0.41231 0.0
C609 C 0.40276 0.44038 0.39033 0.0
C610 C 0.39903 0.45608 0.45108 0.0
H611 H 0.42469 0.43747 0.2894 0.0
H612 H 0.39006 0.42084 0.38189 0.0
C613 C 0.41618 0.48138 0.45889 0.0
C614 C 0.68683 0.99031 0.51214 0.0
C615 C 0.67594 0.96541 0.51975 0.0
H616 H 0.68352 1.01759 0.46855 0.0
C617 C 0.65372 0.9485 0.48067 0.0
H618 H 0.70392 1.0038 0.54164 0.0
C619 C 0.64217 0.95632 0.43847 0.0
C620 C 0.6524 0.9813 0.43437 0.0
H621 H 0.64512 0.92912 0.48324 0.0
H622 H 0.62494 0.94275 0.4101 0.0
C623 C 0.67516 0.9982 0.46999 0.0
C624 C 0.70088 0.1023 0.21167 0.0
C625 C 0.70212 0.09071 0.2759 0.0
H626 H 0.71931 0.12491 0.11449 0.0
C627 C 0.72389 0.09334 0.29046 0.0
H628 H 0.6844 0.1006 0.19851 0.0
C629 C 0.74383 0.10694 0.24103 0.0
C630 C 0.74257 0.11863 0.1772 0.0
H631 H 0.72542 0.08449 0.33895 0.0
H632 H 0.76033 0.1086 0.25342 0.0
C633 C 0.7209 0.11627 0.16357 0.0
C634 C 1.01825 0.66279 0.9729 0.0
C635 C 0.99694 0.64733 0.92616 0.0
H636 H 0.04296 0.66537 0.05841 0.0
C637 C 0.98524 0.62191 0.92565 0.0
H638 H 1.02772 0.68243 0.9752 0.0
C639 C 0.99377 0.61227 0.97397 0.0
C640 C 1.01445 0.62769 0.02344 0.0
H641 H 0.96919 0.60935 0.88871 0.0
H642 H 0.98406 0.59264 0.97296 0.0
C643 C 1.02697 0.65304 0.02081 0.0
C644 C 0.46724 0.38872 0.92769 0.0
C645 C 0.45246 0.36691 0.9627 0.0
H646 H 0.49137 0.42761 0.95078 0.0
C647 C 0.45208 0.36803 0.05146 0.0
H648 H 0.46805 0.38861 0.85974 0.0
C649 C 0.46554 0.39043 0.10384 0.0
C650 C 0.4797 0.41235 0.06893 0.0
H651 H 0.44099 0.35162 0.08082 0.0
H652 H 0.46435 0.3906 0.17185 0.0
C653 C 0.48065 0.41114 0.98008 0.0
C654 C 1.02112 0.37666 0.4794 0.0
C655 C 1.01067 0.35443 0.51228 0.0
H656 H 0.04114 0.41583 0.50501 0.0
C657 C 1.01171 0.35526 0.60048 0.0
H658 H 1.02066 0.37679 0.41197 0.0
C659 C 1.02352 0.37767 0.65394 0.0
C660 C 0.03457 0.39991 0.62082 0.0
H661 H 1.00384 0.33855 0.62834 0.0
H662 H 1.02439 0.37753 0.72115 0.0
C663 C 1.03288 0.39909 0.53295 0.0
C664 C 0.76605 0.6586 0.36598 0.0
C665 C 0.75288 0.66523 0.42427 0.0
H666 H 0.79752 0.67087 0.29013 0.0
C667 C 0.76175 0.69023 0.44813 0.0
H668 H 0.7597 0.63955 0.34516 0.0
C669 C 0.78324 0.70805 0.41623 0.0
C670 C 0.79665 0.70153 0.35935 0.0
H671 H 0.75243 0.6962 0.49337 0.0
H672 H 0.7895 0.72709 0.43757 0.0
C673 C 0.78767 0.67655 0.33377 0.0
C674 C 0.45802 0.1202 0.56274 0.0
C675 C 0.46924 0.14543 0.56023 0.0
H676 H 0.45933 0.092 0.60902 0.0
C677 C 0.4895 0.1618 0.61088 0.0
H678 H 0.44237 0.10717 0.52431 0.0
C679 C 0.49899 0.15324 0.65995 0.0
C680 C 0.48871 0.128 0.65912 0.0
H681 H 0.49819 0.18134 0.61201 0.0
H682 H 0.51471 0.16652 0.69763 0.0
C683 C 0.46772 0.11154 0.61147 0.0
C684 C 0.41094 0.02269 1.01211 0.0
C685 C 0.39983 0.99733 0.98733 0.0
H686 H 0.44008 0.05859 0.9959 0.0
C687 C 0.41023 0.98907 0.9218 0.0
H688 H 0.40371 0.02982 0.06263 0.0
C689 C 0.43131 1.00572 0.88307 0.0
C690 C 0.44257 0.03104 0.90926 0.0
H691 H 0.40207 0.96972 0.90009 0.0
H692 H 0.43896 0.99873 0.83365 0.0
C693 C 0.43197 0.03925 0.97384 0.0
C694 C 0.12423 0.44016 0.90381 0.0
C695 C 0.13936 0.46333 0.87784 0.0
H696 H 0.12005 0.41427 0.98127 0.0
C697 C 0.16225 0.47855 0.91375 0.0
H698 H 0.10655 0.42795 0.87706 0.0
C699 C 0.16994 0.47078 0.97328 0.0
C700 C 0.15503 0.44746 0.99831 0.0
H701 H 0.17427 0.49661 0.89608 0.0
H702 H 0.18783 0.4829 0.99827 0.0
C703 C 0.13204 0.43226 0.96296 0.0
C704 C 0.71375 0.70251 0.80929 0.0
C705 C 0.69488 0.69009 0.75021 0.0
H706 H 0.73206 0.73181 0.91009 0.0
C707 C 0.68007 0.69901 0.74764 0.0
H708 H 0.72552 0.6962 0.81346 0.0
C709 C 0.6839 0.71965 0.80357 0.0
C710 C 0.7027 0.73194 0.86318 0.0
H711 H 0.66537 0.6899 0.70309 0.0
H712 H 0.67222 0.72606 0.79956 0.0
C713 C 0.7176 0.7231 0.86477 0.0
C714 C 0.79081 0.05652 0.73692 0.0
C715 C 0.78331 0.0335 0.7586 0.0
H716 H 0.80502 0.0945 0.77973 0.0
C717 C 0.78571 0.03189 0.84364 0.0
H718 H 0.78928 0.05852 0.67226 0.0
C719 C 0.79464 0.05258 0.90571 0.0
C720 C 0.80151 0.07546 0.88437 0.0
H721 H 0.78009 1.01448 0.86292 0.0
H722 H 0.79574 0.05051 0.97069 0.0
C723 C 0.79983 0.0772 0.79885 0.0
C724 C 0.10048 0.78215 0.75079 0.0
C725 C 0.09984 0.78125 0.66234 0.0
H726 H 0.0807 0.77172 0.86512 0.0
C727 C 0.07757 0.76965 0.62246 0.0
H728 H 0.11727 0.79092 0.78392 0.0
C729 C 0.05655 0.75871 0.66931 0.0
C730 C 0.05717 0.75893 0.75734 0.0
H731 H 0.07631 0.7686 0.55464 0.0
H732 H 0.03975 0.74955 0.63595 0.0
C733 C 0.07946 0.7711 0.79756 0.0
C734 C 0.3618 0.36629 0.72565 0.0
C735 C 0.34138 0.35702 0.67629 0.0
H736 H 0.38175 0.35861 0.79821 0.0
C737 C 0.32572 0.33152 0.65883 0.0
H738 H 0.37432 0.38583 0.74033 0.0
C739 C 0.33005 0.31577 0.6925 0.0
C740 C 0.35022 0.32516 0.74375 0.0
H741 H 0.30984 0.32377 0.62114 0.0
H742 H 0.31753 0.29623 0.67865 0.0
C743 C 0.36618 0.35063 0.75867 0.0
C744 C 0.06893 0.31902 0.23172 0.0
C745 C 0.06298 0.29953 0.27556 0.0
H746 H 0.09568 0.34773 0.16454 0.0
C747 C 0.08009 0.29371 0.28199 0.0
H748 H 0.05613 0.32382 0.2246 0.0
C749 C 0.10267 0.3073 0.24737 0.0
C750 C 0.10881 0.32707 0.20496 0.0
H751 H 0.0763 0.27904 0.31595 0.0
H752 H 0.1155 0.30258 0.25547 0.0
C753 C 0.09155 0.33257 0.19652 0.0
C754 C 0.82725 0.78793 0.07749 0.0
C755 C 0.83542 0.79845 0.16112 0.0
H756 H 0.80664 0.78461 0.97424 0.0
C757 C 0.8291 0.81447 0.20462 0.0
H758 H 0.83201 0.77566 0.04241 0.0
C759 C 0.81439 0.81934 0.16626 0.0
C760 C 0.80605 0.8087 0.08286 0.0
H761 H 0.83499 0.82268 0.26929 0.0
H762 H 0.8094 0.83134 0.20224 0.0
C763 C 0.81292 0.79322 0.03836 0.0
C764 C 0.34739 0.05664 0.19589 0.0
C765 C 0.33835 0.03525 0.23277 0.0
H766 H 0.36598 0.09575 0.21482 0.0
C767 C 0.34005 0.03741 0.32134 0.0
H768 H 0.34639 0.05572 0.12802 0.0
C769 C 0.35127 0.06041 0.37133 0.0
C770 C 0.36115 0.08187 0.33403 0.0
H771 H 0.33322 0.02133 0.35207 0.0
H772 H 0.35279 0.06138 0.43896 0.0
C773 C 0.35868 0.07965 0.24583 0.0
loop_
_geom_bond_atom_site_label_1
_geom_bond_atom_site_label_2
_geom_bond_distance
_geom_bond_site_symmetry_2
_ccdc_geom_bond_type
Cu0 N1 1.999 . S
Cu0 O6 1.974 . S
Cu0 N11 1.985 . S
Cu0 O20 1.959 . S
N1 Cu0 1.999 . S
N1 C3 1.263 . S
N1 C5 1.389 . S
N2 C3 1.358 . S
N2 C4 1.400 . S
C3 N1 1.263 . S
C3 N2 1.358 . S
C3 H9 0.930 . S
C4 N2 1.400 . S
C4 C5 1.351 . S
C4 H21 0.930 . S
C5 N1 1.389 . S
C5 C4 1.351 . S
C5 H10 0.930 . S
O6 Cu0 1.974 . S
O6 C16 1.282 . S
C7 O8 1.261 . S
C7 O20 1.251 . S
O8 C7 1.261 . S
H9 C3 0.930 . S
H10 C5 0.930 . S
N11 Cu0 1.985 . S
N11 C13 1.335 . S
N11 C14 1.390 . S
N12 C13 1.345 . S
N12 C15 1.336 1_554 S
C13 N11 1.335 . S
C13 N12 1.345 . S
C13 H18 0.930 . S
C14 N11 1.390 . S
C14 C15 1.346 1_554 S
C14 H19 0.930 1_554 S
C15 N12 1.336 1_556 S
C15 C14 1.346 1_556 S
C15 H22 0.929 . S
C16 O6 1.282 . S
C16 O17 1.216 . S
O17 C16 1.216 . S
H18 C13 0.930 . S
H19 C14 0.930 1_556 S
O20 Cu0 1.959 . S
O20 C7 1.251 . S
H21 C4 0.930 . S
H22 C15 0.929 . S
Cu23 N24 1.999 . S
Cu23 O29 1.974 . S
Cu23 N34 1.985 . S
Cu23 O43 1.959 . S
N24 Cu23 1.999 . S
N24 C26 1.263 . S
N24 C28 1.389 1_554 S
N25 C26 1.358 1_556 S
N25 C27 1.400 . S
C26 N24 1.263 . S
C26 N25 1.358 1_554 S
C26 H32 0.930 . S
C27 N25 1.400 . S
C27 C28 1.351 . S
C27 H44 0.930 . S
C28 N24 1.389 1_556 S
C28 C27 1.351 . S
C28 H33 0.930 . S
O29 Cu23 1.974 . S
O29 C39 1.282 . S
C30 O31 1.261 . S
C30 O43 1.251 . S
O31 C30 1.261 . S
H32 C26 0.930 . S
H33 C28 0.930 . S
N34 Cu23 1.985 . S
N34 C36 1.335 . S
N34 C37 1.390 . S
N35 C36 1.345 . S
N35 C38 1.336 . S
C36 N34 1.335 . S
C36 N35 1.345 . S
C36 H41 0.930 . S
C37 N34 1.390 . S
C37 C38 1.346 . S
C37 H42 0.930 . S
C38 N35 1.336 . S
C38 C37 1.346 . S
C38 H45 0.929 . S
C39 O29 1.282 . S
C39 O40 1.216 . S
O40 C39 1.216 . S
H41 C36 0.930 . S
H42 C37 0.930 . S
O43 Cu23 1.959 . S
O43 C30 1.251 . S
H44 C27 0.930 . S
H45 C38 0.929 . S
Cu46 N47 1.999 . S
Cu46 O52 1.974 . S
Cu46 N57 1.985 . S
Cu46 O66 1.959 . S
N47 Cu46 1.999 . S
N47 C49 1.263 . S
N47 C51 1.389 . S
N48 C49 1.358 . S
N48 C50 1.400 . S
C49 N47 1.263 . S
C49 N48 1.358 . S
C49 H55 0.930 . S
C50 N48 1.400 . S
C50 C51 1.351 . S
C50 H67 0.930 . S
C51 N47 1.389 . S
C51 C50 1.351 . S
C51 H56 0.930 . S
O52 Cu46 1.974 . S
O52 C62 1.282 . S
C53 O54 1.261 . S
C53 O66 1.251 . S
O54 C53 1.261 . S
H55 C49 0.930 . S
H56 C51 0.930 . S
N57 Cu46 1.985 . S
N57 C59 1.335 . S
N57 C60 1.390 . S
N58 C59 1.345 . S
N58 C61 1.336 . S
C59 N57 1.335 . S
C59 N58 1.345 . S
C59 H64 0.930 . S
C60 N57 1.390 . S
C60 C61 1.346 . S
C60 H65 0.930 . S
C61 N58 1.336 . S
C61 C60 1.346 . S
C61 H68 0.929 . S
C62 O52 1.282 . S
C62 O63 1.216 . S
O63 C62 1.216 . S
H64 C59 0.930 . S
H65 C60 0.930 . S
O66 Cu46 1.959 . S
O66 C53 1.251 . S
H67 C50 0.930 . S
H68 C61 0.929 . S
Cu69 N70 1.999 . S
Cu69 O75 1.974 . S
Cu69 N80 1.985 . S
Cu69 O89 1.959 . S
N70 Cu69 1.999 . S
N70 C72 1.263 . S
N70 C74 1.389 . S
N71 C72 1.358 . S
N71 C73 1.400 . S
C72 N70 1.263 . S
C72 N71 1.358 . S
C72 H78 0.930 . S
C73 N71 1.400 . S
C73 C74 1.351 . S
C73 H90 0.930 . S
C74 N70 1.389 . S
C74 C73 1.351 . S
C74 H79 0.930 . S
O75 Cu69 1.974 . S
O75 C85 1.282 . S
C76 O77 1.261 . S
C76 O89 1.251 . S
O77 C76 1.261 . S
H78 C72 0.930 . S
H79 C74 0.930 . S
N80 Cu69 1.985 . S
N80 C82 1.335 . S
N80 C83 1.390 . S
N81 C82 1.345 . S
N81 C84 1.336 . S
C82 N80 1.335 . S
C82 N81 1.345 . S
C82 H87 0.930 . S
C83 N80 1.390 . S
C83 C84 1.346 . S
C83 H88 0.930 . S
C84 N81 1.336 . S
C84 C83 1.346 . S
C84 H91 0.929 . S
C85 O75 1.282 . S
C85 O86 1.216 . S
O86 C85 1.216 . S
H87 C82 0.930 . S
H88 C83 0.930 . S
O89 Cu69 1.959 . S
O89 C76 1.251 . S
H90 C73 0.930 . S
H91 C84 0.929 . S
Cu92 N93 1.999 . S
Cu92 O98 1.974 . S
Cu92 N103 1.985 . S
Cu92 O112 1.959 . S
N93 Cu92 1.999 . S
N93 C95 1.263 . S
N93 C97 1.389 . S
N94 C95 1.358 . S
N94 C96 1.400 . S
C95 N93 1.263 . S
C95 N94 1.358 . S
C95 H101 0.930 . S
C96 N94 1.400 . S
C96 C97 1.351 . S
C96 H113 0.930 . S
C97 N93 1.389 . S
C97 C96 1.351 . S
C97 H102 0.930 . S
O98 Cu92 1.974 . S
O98 C108 1.282 . S
C99 O100 1.261 . S
C99 O112 1.251 . S
O100 C99 1.261 . S
H101 C95 0.930 . S
H102 C97 0.930 . S
N103 Cu92 1.985 . S
N103 C105 1.335 . S
N103 C106 1.390 . S
N104 C105 1.345 . S
N104 C107 1.336 . S
C105 N103 1.335 . S
C105 N104 1.345 . S
C105 H110 0.930 . S
C106 N103 1.390 . S
C106 C107 1.346 . S
C106 H111 0.930 . S
C107 N104 1.336 . S
C107 C106 1.346 . S
C107 H114 0.929 . S
C108 O98 1.282 . S
C108 O109 1.216 . S
O109 C108 1.216 . S
H110 C105 0.930 . S
H111 C106 0.930 . S
O112 Cu92 1.959 . S
O112 C99 1.251 . S
H113 C96 0.930 . S
H114 C107 0.929 . S
Cu115 N116 1.999 . S
Cu115 O121 1.974 . S
Cu115 N126 1.985 . S
Cu115 O135 1.959 . S
N116 Cu115 1.999 . S
N116 C118 1.263 . S
N116 C120 1.389 . S
N117 C118 1.358 . S
N117 C119 1.400 . S
C118 N116 1.263 . S
C118 N117 1.358 . S
C118 H124 0.930 . S
C119 N117 1.400 . S
C119 C120 1.351 . S
C119 H136 0.930 1_556 S
C120 N116 1.389 . S
C120 C119 1.351 . S
C120 H125 0.930 . S
O121 Cu115 1.974 . S
O121 C131 1.282 . S
C122 O123 1.261 . S
C122 O135 1.251 . S
O123 C122 1.261 . S
H124 C118 0.930 . S
H125 C120 0.930 . S
N126 Cu115 1.985 . S
N126 C128 1.335 . S
N126 C129 1.390 . S
N127 C128 1.345 . S
N127 C130 1.336 . S
C128 N126 1.335 . S
C128 N127 1.345 . S
C128 H133 0.930 . S
C129 N126 1.390 . S
C129 C130 1.346 . S
C129 H134 0.930 . S
C130 N127 1.336 . S
C130 C129 1.346 . S
C130 H137 0.929 . S
C131 O121 1.282 . S
C131 O132 1.216 . S
O132 C131 1.216 . S
H133 C128 0.930 . S
H134 C129 0.930 . S
O135 Cu115 1.959 . S
O135 C122 1.251 . S
H136 C119 0.930 1_554 S
H137 C130 0.929 . S
Cu138 N139 1.999 . S
Cu138 O144 1.974 . S
Cu138 N149 1.985 . S
Cu138 O158 1.959 . S
N139 Cu138 1.999 . S
N139 C141 1.263 . S
N139 C143 1.389 . S
N140 C141 1.358 . S
N140 C142 1.400 . S
C141 N139 1.263 . S
C141 N140 1.358 . S
C141 H147 0.930 . S
C142 N140 1.400 . S
C142 C143 1.351 . S
C142 H159 0.930 . S
C143 N139 1.389 . S
C143 C142 1.351 . S
C143 H148 0.930 . S
O144 Cu138 1.974 . S
O144 C154 1.282 . S
C145 O146 1.261 . S
C145 O158 1.251 . S
O146 C145 1.261 . S
H147 C141 0.930 . S
H148 C143 0.930 . S
N149 Cu138 1.985 . S
N149 C151 1.335 . S
N149 C152 1.390 . S
N150 C151 1.345 . S
N150 C153 1.336 . S
C151 N149 1.335 . S
C151 N150 1.345 . S
C151 H156 0.930 . S
C152 N149 1.390 . S
C152 C153 1.346 . S
C152 H157 0.930 . S
C153 N150 1.336 . S
C153 C152 1.346 . S
C153 H160 0.929 . S
C154 O144 1.282 . S
C154 O155 1.216 . S
O155 C154 1.216 . S
H156 C151 0.930 . S
H157 C152 0.930 . S
O158 Cu138 1.959 . S
O158 C145 1.251 . S
H159 C142 0.930 . S
H160 C153 0.929 . S
Cu161 N162 1.999 . S
Cu161 O167 1.974 . S
Cu161 N172 1.985 . S
Cu161 O181 1.959 . S
N162 Cu161 1.999 . S
N162 C164 1.263 . S
N162 C166 1.389 . S
N163 C164 1.358 . S
N163 C165 1.400 . S
C164 N162 1.263 . S
C164 N163 1.358 . S
C164 H170 0.930 . S
C165 N163 1.400 . S
C165 C166 1.351 . S
C165 H182 0.930 . S
C166 N162 1.389 . S
C166 C165 1.351 . S
C166 H171 0.930 . S
O167 Cu161 1.974 . S
O167 C177 1.282 . S
C168 O169 1.261 . S
C168 O181 1.251 . S
O169 C168 1.261 . S
H170 C164 0.930 . S
H171 C166 0.930 . S
N172 Cu161 1.985 . S
N172 C174 1.335 . S
N172 C175 1.390 . S
N173 C174 1.345 . S
N173 C176 1.336 . S
C174 N172 1.335 . S
C174 N173 1.345 . S
C174 H179 0.930 . S
C175 N172 1.390 . S
C175 C176 1.346 . S
C175 H180 0.930 . S
C176 N173 1.336 . S
C176 C175 1.346 . S
C176 H183 0.929 . S
C177 O167 1.282 . S
C177 O178 1.216 . S
O178 C177 1.216 . S
H179 C174 0.930 . S
H180 C175 0.930 . S
O181 Cu161 1.959 . S
O181 C168 1.251 . S
H182 C165 0.930 . S
H183 C176 0.929 . S
Cu184 N185 1.999 . S
Cu184 O190 1.974 . S
Cu184 N195 1.985 . S
Cu184 O204 1.959 . S
N185 Cu184 1.999 . S
N185 C187 1.263 . S
N185 C189 1.389 . S
N186 C187 1.358 . S
N186 C188 1.400 . S
C187 N185 1.263 . S
C187 N186 1.358 . S
C187 H193 0.930 . S
C188 N186 1.400 . S
C188 C189 1.351 . S
C188 H205 0.930 . S
C189 N185 1.389 . S
C189 C188 1.351 . S
C189 H194 0.930 . S
O190 Cu184 1.974 . S
O190 C200 1.282 . S
C191 O192 1.261 . S
C191 O204 1.251 . S
O192 C191 1.261 . S
H193 C187 0.930 . S
H194 C189 0.930 . S
N195 Cu184 1.985 . S
N195 C197 1.335 . S
N195 C198 1.390 . S
N196 C197 1.345 . S
N196 C199 1.336 . S
C197 N195 1.335 . S
C197 N196 1.345 . S
C197 H202 0.930 . S
C198 N195 1.390 . S
C198 C199 1.346 . S
C198 H203 0.930 . S
C199 N196 1.336 . S
C199 C198 1.346 . S
C199 H206 0.929 . S
C200 O190 1.282 . S
C200 O201 1.216 . S
O201 C200 1.216 . S
H202 C197 0.930 . S
H203 C198 0.930 . S
O204 Cu184 1.959 . S
O204 C191 1.251 . S
H205 C188 0.930 . S
H206 C199 0.929 . S
Cu207 N208 1.999 . S
Cu207 O213 1.974 1_554 S
Cu207 N218 1.985 1_554 S
Cu207 O227 1.959 . S
N208 Cu207 1.999 . S
N208 C210 1.263 . S
N208 C212 1.389 . S
N209 C210 1.358 . S
N209 C211 1.400 . S
C210 N208 1.263 . S
C210 N209 1.358 . S
C210 H216 0.930 . S
C211 N209 1.400 . S
C211 C212 1.351 . S
C211 H228 0.930 . S
C212 N208 1.389 . S
C212 C211 1.351 . S
C212 H217 0.930 . S
O213 Cu207 1.974 1_556 S
O213 C223 1.282 . S
C214 O215 1.261 . S
C214 O227 1.251 . S
O215 C214 1.261 . S
H216 C210 0.930 . S
H217 C212 0.930 . S
N218 Cu207 1.985 1_556 S
N218 C220 1.335 . S
N218 C221 1.390 . S
N219 C220 1.345 . S
N219 C222 1.336 . S
C220 N218 1.335 . S
C220 N219 1.345 . S
C220 H225 0.930 . S
C221 N218 1.390 . S
C221 C222 1.346 . S
C221 H226 0.930 . S
C222 N219 1.336 . S
C222 C221 1.346 . S
C222 H229 0.929 . S
C223 O213 1.282 . S
C223 O224 1.216 . S
O224 C223 1.216 . S
H225 C220 0.930 . S
H226 C221 0.930 . S
O227 Cu207 1.959 . S
O227 C214 1.251 . S
H228 C211 0.930 . S
H229 C222 0.929 . S
Cu230 N231 1.999 . S
Cu230 O236 1.974 . S
Cu230 N241 1.985 . S
Cu230 O250 1.959 . S
N231 Cu230 1.999 . S
N231 C233 1.263 . S
N231 C235 1.389 . S
N232 C233 1.358 . S
N232 C234 1.400 . S
C233 N231 1.263 . S
C233 N232 1.358 . S
C233 H239 0.930 . S
C234 N232 1.400 . S
C234 C235 1.351 . S
C234 H251 0.930 . S
C235 N231 1.389 . S
C235 C234 1.351 . S
C235 H240 0.930 . S
O236 Cu230 1.974 . S
O236 C246 1.282 1_554 S
C237 O238 1.261 . S
C237 O250 1.251 . S
O238 C237 1.261 . S
H239 C233 0.930 . S
H240 C235 0.930 . S
N241 Cu230 1.985 . S
N241 C243 1.335 . S
N241 C244 1.390 1_554 S
N242 C243 1.345 1_556 S
N242 C245 1.336 . S
C243 N241 1.335 . S
C243 N242 1.345 1_554 S
C243 H248 0.930 . S
C244 N241 1.390 1_556 S
C244 C245 1.346 . S
C244 H249 0.930 . S
C245 N242 1.336 . S
C245 C244 1.346 . S
C245 H252 0.929 . S
C246 O236 1.282 1_556 S
C246 O247 1.216 . S
O247 C246 1.216 . S
H248 C243 0.930 . S
H249 C244 0.930 . S
O250 Cu230 1.959 . S
O250 C237 1.251 . S
H251 C234 0.930 . S
H252 C245 0.929 . S
Cu253 N254 1.999 . S
Cu253 O259 1.974 . S
Cu253 N264 1.985 . S
Cu253 O273 1.959 . S
N254 Cu253 1.999 . S
N254 C256 1.263 . S
N254 C258 1.389 . S
N255 C256 1.358 . S
N255 C257 1.400 . S
C256 N254 1.263 . S
C256 N255 1.358 . S
C256 H262 0.930 . S
C257 N255 1.400 . S
C257 C258 1.351 . S
C257 H274 0.930 . S
C258 N254 1.389 . S
C258 C257 1.351 . S
C258 H263 0.930 . S
O259 Cu253 1.974 . S
O259 C269 1.282 1_554 S
C260 O261 1.261 . S
C260 O273 1.251 . S
O261 C260 1.261 . S
H262 C256 0.930 . S
H263 C258 0.930 . S
N264 Cu253 1.985 . S
N264 C266 1.335 . S
N264 C267 1.390 1_554 S
N265 C266 1.345 1_556 S
N265 C268 1.336 . S
C266 N264 1.335 . S
C266 N265 1.345 1_554 S
C266 H271 0.930 . S
C267 N264 1.390 1_556 S
C267 C268 1.346 . S
C267 H272 0.930 . S
C268 N265 1.336 . S
C268 C267 1.346 . S
C268 H275 0.929 . S
C269 O259 1.282 1_556 S
C269 O270 1.216 . S
O270 C269 1.216 . S
H271 C266 0.930 . S
H272 C267 0.930 . S
O273 Cu253 1.959 . S
O273 C260 1.251 . S
H274 C257 0.930 . S
H275 C268 0.929 . S
Cu276 N277 1.999 . S
Cu276 O282 1.974 . S
Cu276 N287 1.985 . S
Cu276 O296 1.959 . S
N277 Cu276 1.999 . S
N277 C279 1.263 . S
N277 C281 1.389 1_556 S
N278 C279 1.358 1_554 S
N278 C280 1.400 . S
C279 N277 1.263 . S
C279 N278 1.358 1_556 S
C279 H285 0.930 . S
C280 N278 1.400 . S
C280 C281 1.351 . S
C280 H297 0.930 . S
C281 N277 1.389 1_554 S
C281 C280 1.351 . S
C281 H286 0.930 . S
O282 Cu276 1.974 . S
O282 C292 1.282 . S
C283 O284 1.261 . S
C283 O296 1.251 . S
O284 C283 1.261 . S
H285 C279 0.930 . S
H286 C281 0.930 . S
N287 Cu276 1.985 . S
N287 C289 1.335 . S
N287 C290 1.390 . S
N288 C289 1.345 . S
N288 C291 1.336 . S
C289 N287 1.335 . S
C289 N288 1.345 . S
C289 H294 0.930 . S
C290 N287 1.390 . S
C290 C291 1.346 . S
C290 H295 0.930 . S
C291 N288 1.336 . S
C291 C290 1.346 . S
C291 H298 0.929 . S
C292 O282 1.282 . S
C292 O293 1.216 . S
O293 C292 1.216 . S
H294 C289 0.930 . S
H295 C290 0.930 . S
O296 Cu276 1.959 . S
O296 C283 1.251 . S
H297 C280 0.930 . S
H298 C291 0.929 . S
Cu299 N300 1.999 . S
Cu299 O305 1.974 1_556 S
Cu299 N310 1.985 1_556 S
Cu299 O319 1.959 . S
N300 Cu299 1.999 . S
N300 C302 1.263 . S
N300 C304 1.389 . S
N301 C302 1.358 . S
N301 C303 1.400 . S
C302 N300 1.263 . S
C302 N301 1.358 . S
C302 H308 0.930 . S
C303 N301 1.400 . S
C303 C304 1.351 . S
C303 H320 0.930 . S
C304 N300 1.389 . S
C304 C303 1.351 . S
C304 H309 0.930 . S
O305 Cu299 1.974 1_554 S
O305 C315 1.282 . S
C306 O307 1.261 . S
C306 O319 1.251 . S
O307 C306 1.261 . S
H308 C302 0.930 . S
H309 C304 0.930 . S
N310 Cu299 1.985 1_554 S
N310 C312 1.335 . S
N310 C313 1.390 . S
N311 C312 1.345 . S
N311 C314 1.336 . S
C312 N310 1.335 . S
C312 N311 1.345 . S
C312 H317 0.930 . S
C313 N310 1.390 . S
C313 C314 1.346 . S
C313 H318 0.930 . S
C314 N311 1.336 . S
C314 C313 1.346 . S
C314 H321 0.929 . S
C315 O305 1.282 . S
C315 O316 1.216 . S
O316 C315 1.216 . S
H317 C312 0.930 . S
H318 C313 0.930 . S
O319 Cu299 1.959 . S
O319 C306 1.251 . S
H320 C303 0.930 . S
H321 C314 0.929 . S
Cu322 N323 1.999 . S
Cu322 O328 1.974 . S
Cu322 N333 1.985 . S
Cu322 O342 1.959 . S
N323 Cu322 1.999 . S
N323 C325 1.263 . S
N323 C327 1.389 . S
N324 C325 1.358 . S
N324 C326 1.400 . S
C325 N323 1.263 . S
C325 N324 1.358 . S
C325 H331 0.930 . S
C326 N324 1.400 . S
C326 C327 1.351 . S
C326 H343 0.930 . S
C327 N323 1.389 . S
C327 C326 1.351 . S
C327 H332 0.930 . S
O328 Cu322 1.974 . S
O328 C338 1.282 . S
C329 O330 1.261 . S
C329 O342 1.251 . S
O330 C329 1.261 . S
H331 C325 0.930 . S
H332 C327 0.930 . S
N333 Cu322 1.985 . S
N333 C335 1.335 . S
N333 C336 1.390 . S
N334 C335 1.345 . S
N334 C337 1.336 1_556 S
C335 N333 1.335 . S
C335 N334 1.345 . S
C335 H340 0.930 . S
C336 N333 1.390 . S
C336 C337 1.346 1_556 S
C336 H341 0.930 1_556 S
C337 N334 1.336 1_554 S
C337 C336 1.346 1_554 S
C337 H344 0.929 . S
C338 O328 1.282 . S
C338 O339 1.216 . S
O339 C338 1.216 . S
H340 C335 0.930 . S
H341 C336 0.930 1_554 S
O342 Cu322 1.959 . S
O342 C329 1.251 . S
H343 C326 0.930 . S
H344 C337 0.929 . S
Cu345 N346 1.999 . S
Cu345 O351 1.974 . S
Cu345 N356 1.985 . S
Cu345 O365 1.959 . S
N346 Cu345 1.999 . S
N346 C348 1.263 . S
N346 C350 1.389 . S
N347 C348 1.358 . S
N347 C349 1.400 . S
C348 N346 1.263 . S
C348 N347 1.358 . S
C348 H354 0.930 . S
C349 N347 1.400 . S
C349 C350 1.351 . S
C349 H366 0.930 . S
C350 N346 1.389 . S
C350 C349 1.351 . S
C350 H355 0.930 . S
O351 Cu345 1.974 . S
O351 C361 1.282 . S
C352 O353 1.261 . S
C352 O365 1.251 . S
O353 C352 1.261 . S
H354 C348 0.930 . S
H355 C350 0.930 . S
N356 Cu345 1.985 . S
N356 C358 1.335 . S
N356 C359 1.390 . S
N357 C358 1.345 . S
N357 C360 1.336 . S
C358 N356 1.335 . S
C358 N357 1.345 . S
C358 H363 0.930 . S
C359 N356 1.390 . S
C359 C360 1.346 . S
C359 H364 0.930 . S
C360 N357 1.336 . S
C360 C359 1.346 . S
C360 H367 0.929 . S
C361 O351 1.282 . S
C361 O362 1.216 . S
O362 C361 1.216 . S
H363 C358 0.930 . S
H364 C359 0.930 . S
O365 Cu345 1.959 . S
O365 C352 1.251 . S
H366 C349 0.930 . S
H367 C360 0.929 . S
Cu368 N369 1.999 . S
Cu368 O374 1.974 . S
Cu368 N379 1.985 . S
Cu368 O388 1.959 . S
N369 Cu368 1.999 . S
N369 C371 1.263 . S
N369 C373 1.389 . S
N370 C371 1.358 . S
N370 C372 1.400 . S
C371 N369 1.263 . S
C371 N370 1.358 . S
C371 H377 0.930 . S
C372 N370 1.400 . S
C372 C373 1.351 . S
C372 H389 0.930 . S
C373 N369 1.389 . S
C373 C372 1.351 . S
C373 H378 0.930 . S
O374 Cu368 1.974 . S
O374 C384 1.282 . S
C375 O376 1.261 . S
C375 O388 1.251 . S
O376 C375 1.261 . S
H377 C371 0.930 . S
H378 C373 0.930 . S
N379 Cu368 1.985 . S
N379 C381 1.335 . S
N379 C382 1.390 . S
N380 C381 1.345 1_455 S
N380 C383 1.336 1_455 S
C381 N379 1.335 . S
C381 N380 1.345 1_655 S
C381 H386 0.930 1_655 S
C382 N379 1.390 . S
C382 C383 1.346 . S
C382 H387 0.930 . S
C383 N380 1.336 1_655 S
C383 C382 1.346 . S
C383 H390 0.929 . S
C384 O374 1.282 . S
C384 O385 1.216 . S
O385 C384 1.216 . S
H386 C381 0.930 1_455 S
H387 C382 0.930 . S
O388 Cu368 1.959 . S
O388 C375 1.251 . S
H389 C372 0.930 . S
H390 C383 0.929 . S
Cu391 N392 1.999 . S
Cu391 O397 1.974 . S
Cu391 N402 1.985 . S
Cu391 O411 1.959 . S
N392 Cu391 1.999 . S
N392 C394 1.263 . S
N392 C396 1.389 . S
N393 C394 1.358 . S
N393 C395 1.400 . S
C394 N392 1.263 . S
C394 N393 1.358 . S
C394 H400 0.930 . S
C395 N393 1.400 . S
C395 C396 1.351 . S
C395 H412 0.930 . S
C396 N392 1.389 . S
C396 C395 1.351 . S
C396 H401 0.930 . S
O397 Cu391 1.974 . S
O397 C407 1.282 . S
C398 O399 1.261 . S
C398 O411 1.251 . S
O399 C398 1.261 . S
H400 C394 0.930 . S
H401 C396 0.930 . S
N402 Cu391 1.985 . S
N402 C404 1.335 . S
N402 C405 1.390 . S
N403 C404 1.345 . S
N403 C406 1.336 . S
C404 N402 1.335 . S
C404 N403 1.345 . S
C404 H409 0.930 . S
C405 N402 1.390 . S
C405 C406 1.346 . S
C405 H410 0.930 . S
C406 N403 1.336 . S
C406 C405 1.346 . S
C406 H413 0.929 . S
C407 O397 1.282 . S
C407 O408 1.216 . S
O408 C407 1.216 . S
H409 C404 0.930 . S
H410 C405 0.930 . S
O411 Cu391 1.959 . S
O411 C398 1.251 . S
H412 C395 0.930 . S
H413 C406 0.929 . S
C414 C415 1.387 . S
C414 H418 0.950 . S
C414 C423 1.390 . S
C415 C414 1.387 . S
C415 C417 1.387 . S
H416 C423 0.950 . S
C417 C415 1.387 . S
C417 C419 1.390 1_556 S
C417 H421 0.950 . S
H418 C414 0.950 . S
C419 C417 1.390 1_554 S
C419 C420 1.387 . S
C419 H422 0.950 . S
C420 C419 1.387 . S
C420 C423 1.387 1_554 S
H421 C417 0.950 . S
H422 C419 0.950 . S
C423 C414 1.390 . S
C423 H416 0.950 . S
C423 C420 1.387 1_556 S
C424 C425 1.387 . S
C424 H428 0.950 . S
C424 C433 1.390 . S
C425 C424 1.387 . S
C425 C427 1.387 . S
H426 C433 0.950 . S
C427 C425 1.387 . S
C427 C429 1.390 . S
C427 H431 0.950 . S
H428 C424 0.950 . S
C429 C427 1.390 . S
C429 C430 1.387 . S
C429 H432 0.950 . S
C430 C429 1.387 . S
C430 C433 1.387 . S
H431 C427 0.950 . S
H432 C429 0.950 . S
C433 C424 1.390 . S
C433 H426 0.950 . S
C433 C430 1.387 . S
C434 C435 1.387 . S
C434 H438 0.950 . S
C434 C443 1.390 1_554 S
C435 C434 1.387 . S
C435 C437 1.387 . S
H436 C443 0.950 . S
C437 C435 1.387 . S
C437 C439 1.390 . S
C437 H441 0.950 . S
H438 C434 0.950 . S
C439 C437 1.390 . S
C439 C440 1.387 1_554 S
C439 H442 0.958 . S
C440 C439 1.387 1_556 S
C440 C443 1.387 . S
H441 C437 0.950 . S
H442 C439 0.958 . S
C443 C434 1.390 1_556 S
C443 H436 0.950 . S
C443 C440 1.387 . S
C444 C445 1.387 . S
C444 H448 0.950 . S
C444 C453 1.390 . S
C445 C444 1.387 . S
C445 C447 1.387 . S
H446 C453 0.950 . S
C447 C445 1.387 . S
C447 C449 1.390 . S
C447 H451 0.962 . S
H448 C444 0.950 . S
C449 C447 1.390 . S
C449 C450 1.387 . S
C449 H452 0.950 . S
C450 C449 1.387 . S
C450 C453 1.387 . S
H451 C447 0.962 . S
H452 C449 0.950 . S
C453 C444 1.390 . S
C453 H446 0.950 . S
C453 C450 1.387 . S
C454 C455 1.387 . S
C454 H458 0.950 . S
C454 C463 1.390 . S
C455 C454 1.387 . S
C455 C457 1.387 . S
H456 C463 0.950 . S
C457 C455 1.387 . S
C457 C459 1.390 . S
C457 H461 0.950 . S
H458 C454 0.950 . S
C459 C457 1.390 . S
C459 C460 1.387 . S
C459 H462 0.950 . S
C460 C459 1.387 . S
C460 C463 1.387 . S
H461 C457 0.950 . S
H462 C459 0.950 . S
C463 C454 1.390 . S
C463 H456 0.950 . S
C463 C460 1.387 . S
C464 C465 1.387 . S
C464 H468 0.950 . S
C464 C473 1.390 . S
C465 C464 1.387 . S
C465 C467 1.387 . S
H466 C473 0.950 . S
C467 C465 1.387 . S
C467 C469 1.390 . S
C467 H471 0.950 . S
H468 C464 0.950 . S
C469 C467 1.390 . S
C469 C470 1.387 . S
C469 H472 0.950 . S
C470 C469 1.387 . S
C470 C473 1.387 . S
H471 C467 0.950 . S
H472 C469 0.950 . S
C473 C464 1.390 . S
C473 H466 0.950 . S
C473 C470 1.387 . S
C474 C475 1.387 . S
C474 H478 0.950 . S
C474 C483 1.390 . S
C475 C474 1.387 . S
C475 C477 1.387 . S
H476 C483 0.950 . S
C477 C475 1.387 . S
C477 C479 1.390 . S
C477 H481 0.950 . S
H478 C474 0.950 . S
C479 C477 1.390 . S
C479 C480 1.387 . S
C479 H482 0.950 . S
C480 C479 1.387 . S
C480 C483 1.387 . S
H481 C477 0.950 . S
H482 C479 0.950 . S
C483 C474 1.390 . S
C483 H476 0.950 . S
C483 C480 1.387 . S
C484 C485 1.387 . S
C484 H488 0.950 . S
C484 C493 1.390 . S
C485 C484 1.387 . S
C485 C487 1.387 . S
H486 C493 0.950 . S
C487 C485 1.387 . S
C487 C489 1.390 . S
C487 H491 0.950 . S
H488 C484 0.950 . S
C489 C487 1.390 . S
C489 C490 1.387 . S
C489 H492 0.950 . S
C490 C489 1.387 . S
C490 C493 1.387 . S
H491 C487 0.950 . S
H492 C489 0.950 . S
C493 C484 1.390 . S
C493 H486 0.950 . S
C493 C490 1.387 . S
C494 C495 1.387 . S
C494 H498 0.950 . S
C494 C503 1.390 . S
C495 C494 1.387 . S
C495 C497 1.387 . S
H496 C503 0.950 . S
C497 C495 1.387 . S
C497 C499 1.390 . S
C497 H501 0.950 . S
H498 C494 0.950 . S
C499 C497 1.390 . S
C499 C500 1.387 . S
C499 H502 0.950 . S
C500 C499 1.387 . S
C500 C503 1.387 . S
H501 C497 0.950 . S
H502 C499 0.950 . S
C503 C494 1.390 . S
C503 H496 0.950 . S
C503 C500 1.387 . S
C504 C505 1.387 . S
C504 H508 0.950 . S
C504 C513 1.390 . S
C505 C504 1.387 . S
C505 C507 1.387 . S
H506 C513 0.950 . S
C507 C505 1.387 . S
C507 C509 1.390 . S
C507 H511 0.950 . S
H508 C504 0.950 . S
C509 C507 1.390 . S
C509 C510 1.387 . S
C509 H512 0.950 . S
C510 C509 1.387 . S
C510 C513 1.387 . S
H511 C507 0.950 . S
H512 C509 0.950 . S
C513 C504 1.390 . S
C513 H506 0.950 . S
C513 C510 1.387 . S
C514 C515 1.387 . S
C514 H518 0.950 . S
C514 C523 1.390 . S
C515 C514 1.387 . S
C515 C517 1.387 . S
H516 C523 0.950 . S
C517 C515 1.387 . S
C517 C519 1.390 . S
C517 H521 0.950 . S
H518 C514 0.950 . S
C519 C517 1.390 . S
C519 C520 1.387 . S
C519 H522 0.950 . S
C520 C519 1.387 . S
C520 C523 1.387 . S
H521 C517 0.950 . S
H522 C519 0.950 . S
C523 C514 1.390 . S
C523 H516 0.950 . S
C523 C520 1.387 . S
C524 C525 1.387 . S
C524 H528 0.950 . S
C524 C533 1.390 . S
C525 C524 1.387 . S
C525 C527 1.387 . S
H526 C533 0.950 . S
C527 C525 1.387 . S
C527 C529 1.390 . S
C527 H531 0.950 . S
H528 C524 0.950 . S
C529 C527 1.390 . S
C529 C530 1.387 . S
C529 H532 0.950 . S
C530 C529 1.387 . S
C530 C533 1.387 . S
H531 C527 0.950 . S
H532 C529 0.950 . S
C533 C524 1.390 . S
C533 H526 0.950 . S
C533 C530 1.387 . S
C534 C535 1.387 . S
C534 H538 0.950 . S
C534 C543 1.390 . S
C535 C534 1.387 . S
C535 C537 1.387 . S
H536 C543 0.950 . S
C537 C535 1.387 . S
C537 C539 1.390 . S
C537 H541 0.950 . S
H538 C534 0.950 . S
C539 C537 1.390 . S
C539 C540 1.387 . S
C539 H542 0.950 . S
C540 C539 1.387 . S
C540 C543 1.387 . S
H541 C537 0.950 . S
H542 C539 0.950 . S
C543 C534 1.390 . S
C543 H536 0.950 . S
C543 C540 1.387 . S
C544 C545 1.387 . S
C544 H548 0.950 . S
C544 C553 1.390 . S
C545 C544 1.387 . S
C545 C547 1.387 . S
H546 C553 0.950 . S
C547 C545 1.387 . S
C547 C549 1.390 . S
C547 H551 0.950 . S
H548 C544 0.950 . S
C549 C547 1.390 . S
C549 C550 1.387 . S
C549 H552 0.950 . S
C550 C549 1.387 . S
C550 C553 1.387 . S
H551 C547 0.950 . S
H552 C549 0.950 . S
C553 C544 1.390 . S
C553 H546 0.950 . S
C553 C550 1.387 . S
C554 C555 1.387 . S
C554 H558 0.950 . S
C554 C563 1.390 . S
C555 C554 1.387 . S
C555 C557 1.387 . S
H556 C563 0.950 . S
C557 C555 1.387 . S
C557 C559 1.390 . S
C557 H561 0.950 . S
H558 C554 0.950 . S
C559 C557 1.390 . S
C559 C560 1.387 . S
C559 H562 0.950 . S
C560 C559 1.387 . S
C560 C563 1.387 . S
H561 C557 0.950 . S
H562 C559 0.950 . S
C563 C554 1.390 . S
C563 H556 0.950 . S
C563 C560 1.387 . S
C564 C565 1.387 . S
C564 H568 0.950 . S
C564 C573 1.397 . S
C565 C564 1.387 . S
C565 C567 1.387 . S
H566 C573 0.942 1_556 S
C567 C565 1.387 . S
C567 C569 1.390 . S
C567 H571 0.950 . S
H568 C564 0.950 . S
C569 C567 1.390 . S
C569 C570 1.387 1_554 S
C569 H572 0.950 . S
C570 C569 1.387 1_556 S
C570 C573 1.388 1_556 S
H571 C567 0.950 . S
H572 C569 0.950 . S
C573 C564 1.397 . S
C573 H566 0.942 1_554 S
C573 C570 1.388 1_554 S
C574 C575 1.387 . S
C574 H578 0.950 . S
C574 C583 1.390 . S
C575 C574 1.387 . S
C575 C577 1.387 . S
H576 C583 0.950 . S
C577 C575 1.387 . S
C577 C579 1.390 . S
C577 H581 0.950 . S
H578 C574 0.950 . S
C579 C577 1.390 . S
C579 C580 1.387 . S
C579 H582 0.950 . S
C580 C579 1.387 . S
C580 C583 1.387 . S
H581 C577 0.950 . S
H582 C579 0.950 . S
C583 C574 1.390 . S
C583 H576 0.950 . S
C583 C580 1.387 . S
C584 C585 1.387 . S
C584 H588 0.950 . S
C584 C593 1.390 . S
C585 C584 1.387 . S
C585 C587 1.387 . S
H586 C593 0.950 . S
C587 C585 1.387 . S
C587 C589 1.390 . S
C587 H591 0.950 . S
H588 C584 0.950 . S
C589 C587 1.390 . S
C589 C590 1.387 . S
C589 H592 0.950 . S
C590 C589 1.387 . S
C590 C593 1.387 . S
H591 C587 0.950 . S
H592 C589 0.950 . S
C593 C584 1.390 . S
C593 H586 0.950 . S
C593 C590 1.387 . S
C594 C595 1.387 . S
C594 H598 0.950 . S
C594 C603 1.390 . S
C595 C594 1.387 . S
C595 C597 1.387 . S
H596 C603 0.950 . S
C597 C595 1.387 . S
C597 C599 1.390 . S
C597 H601 0.950 . S
H598 C594 0.950 . S
C599 C597 1.390 . S
C599 C600 1.387 . S
C599 H602 0.950 . S
C600 C599 1.387 . S
C600 C603 1.387 . S
H601 C597 0.950 . S
H602 C599 0.950 . S
C603 C594 1.390 . S
C603 H596 0.950 . S
C603 C600 1.387 . S
C604 C605 1.387 . S
C604 H608 0.950 . S
C604 C613 1.390 . S
C605 C604 1.387 . S
C605 C607 1.387 . S
H606 C613 0.950 . S
C607 C605 1.387 . S
C607 C609 1.390 . S
C607 H611 0.950 . S
H608 C604 0.950 . S
C609 C607 1.390 . S
C609 C610 1.387 . S
C609 H612 0.950 . S
C610 C609 1.387 . S
C610 C613 1.387 . S
H611 C607 0.950 . S
H612 C609 0.950 . S
C613 C604 1.390 . S
C613 H606 0.950 . S
C613 C610 1.387 . S
C614 C615 1.387 1_545 S
C614 H618 0.950 . S
C614 C623 1.390 . S
C615 C614 1.387 1_565 S
C615 C617 1.387 . S
H616 C623 0.950 . S
C617 C615 1.387 . S
C617 C619 1.390 . S
C617 H621 0.950 . S
H618 C614 0.950 . S
C619 C617 1.390 . S
C619 C620 1.387 1_565 S
C619 H622 0.950 . S
C620 C619 1.387 1_545 S
C620 C623 1.387 . S
H621 C617 0.950 . S
H622 C619 0.950 . S
C623 C614 1.390 . S
C623 H616 0.950 . S
C623 C620 1.387 . S
C624 C625 1.387 . S
C624 H628 0.950 . S
C624 C633 1.390 . S
C625 C624 1.387 . S
C625 C627 1.387 . S
H626 C633 0.950 . S
C627 C625 1.387 . S
C627 C629 1.390 . S
C627 H631 0.950 . S
H628 C624 0.950 . S
C629 C627 1.390 . S
C629 C630 1.387 . S
C629 H632 0.950 . S
C630 C629 1.387 . S
C630 C633 1.387 . S
H631 C627 0.950 . S
H632 C629 0.950 . S
C633 C624 1.390 . S
C633 H626 0.950 . S
C633 C630 1.387 . S
C634 C635 1.380 1_454 S
C634 H638 0.950 . S
C634 C643 1.390 . S
C635 C634 1.380 1_656 S
C635 C637 1.381 . S
H636 C643 0.950 . S
C637 C635 1.381 . S
C637 C639 1.390 1_655 S
C637 H641 0.950 . S
H638 C634 0.950 . S
C639 C637 1.390 1_455 S
C639 C640 1.387 1_556 S
C639 H642 0.950 . S
C640 C639 1.387 1_554 S
C640 C643 1.387 . S
H641 C637 0.950 . S
H642 C639 0.950 . S
C643 C634 1.390 . S
C643 H636 0.950 . S
C643 C640 1.387 . S
C644 C645 1.387 . S
C644 H648 0.950 . S
C644 C653 1.390 . S
C645 C644 1.387 . S
C645 C647 1.387 1_556 S
H646 C653 0.950 . S
C647 C645 1.387 1_554 S
C647 C649 1.390 . S
C647 H651 0.950 . S
H648 C644 0.950 . S
C649 C647 1.390 . S
C649 C650 1.387 . S
C649 H652 0.950 . S
C650 C649 1.387 . S
C650 C653 1.387 1_554 S
H651 C647 0.950 . S
H652 C649 0.950 . S
C653 C644 1.390 . S
C653 H646 0.950 . S
C653 C650 1.387 1_556 S
C654 C655 1.387 1_455 S
C654 H658 0.950 . S
C654 C663 1.390 . S
C655 C654 1.387 1_655 S
C655 C657 1.387 . S
H656 C663 0.950 . S
C657 C655 1.387 . S
C657 C659 1.390 . S
C657 H661 0.950 . S
H658 C654 0.950 . S
C659 C657 1.390 . S
C659 C660 1.387 1_655 S
C659 H662 0.950 . S
C660 C659 1.387 1_455 S
C660 C663 1.387 . S
H661 C657 0.950 . S
H662 C659 0.950 . S
C663 C654 1.390 . S
C663 H656 0.950 . S
C663 C660 1.387 . S
C664 C665 1.387 . S
C664 H668 0.950 . S
C664 C673 1.390 . S
C665 C664 1.387 . S
C665 C667 1.387 . S
H666 C673 0.950 . S
C667 C665 1.387 . S
C667 C669 1.390 . S
C667 H671 0.950 . S
H668 C664 0.950 . S
C669 C667 1.390 . S
C669 C670 1.387 . S
C669 H672 0.950 . S
C670 C669 1.387 . S
C670 C673 1.387 . S
H671 C667 0.950 . S
H672 C669 0.950 . S
C673 C664 1.390 . S
C673 H666 0.950 . S
C673 C670 1.387 . S
C674 C675 1.387 . S
C674 H678 0.950 . S
C674 C683 1.390 . S
C675 C674 1.387 . S
C675 C677 1.387 . S
H676 C683 0.950 . S
C677 C675 1.387 . S
C677 C679 1.390 . S
C677 H681 0.950 . S
H678 C674 0.950 . S
C679 C677 1.390 . S
C679 C680 1.387 . S
C679 H682 0.950 . S
C680 C679 1.387 . S
C680 C683 1.387 . S
H681 C677 0.950 . S
H682 C679 0.950 . S
C683 C674 1.390 . S
C683 H676 0.950 . S
C683 C680 1.387 . S
C684 C685 1.387 1_545 S
C684 H688 0.950 1_556 S
C684 C693 1.390 . S
C685 C684 1.387 1_565 S
C685 C687 1.387 . S
H686 C693 0.950 . S
C687 C685 1.387 . S
C687 C689 1.390 1_565 S
C687 H691 0.950 . S
H688 C684 0.950 1_554 S
C689 C687 1.390 1_545 S
C689 C690 1.387 . S
C689 H692 0.952 . S
C690 C689 1.387 . S
C690 C693 1.387 . S
H691 C687 0.950 . S
H692 C689 0.952 . S
C693 C684 1.390 . S
C693 H686 0.950 . S
C693 C690 1.387 . S
C694 C695 1.387 . S
C694 H698 0.950 . S
C694 C703 1.390 . S
C695 C694 1.387 . S
C695 C697 1.387 . S
H696 C703 0.950 1_554 S
C697 C695 1.387 . S
C697 C699 1.390 . S
C697 H701 0.950 . S
H698 C694 0.950 . S
C699 C697 1.390 . S
C699 C700 1.387 . S
C699 H702 0.950 . S
C700 C699 1.387 . S
C700 C703 1.387 . S
H701 C697 0.950 . S
H702 C699 0.950 . S
C703 C694 1.390 . S
C703 H696 0.950 1_556 S
C703 C700 1.387 . S
C704 C705 1.387 . S
C704 H708 0.950 . S
C704 C713 1.390 . S
C705 C704 1.387 . S
C705 C707 1.387 . S
H706 C713 0.950 . S
C707 C705 1.387 . S
C707 C709 1.390 . S
C707 H711 0.950 . S
H708 C704 0.950 . S
C709 C707 1.390 . S
C709 C710 1.387 . S
C709 H712 0.950 . S
C710 C709 1.387 . S
C710 C713 1.387 . S
H711 C707 0.950 . S
H712 C709 0.950 . S
C713 C704 1.390 . S
C713 H706 0.950 . S
C713 C710 1.387 . S
C714 C715 1.387 . S
C714 H718 0.950 . S
C714 C723 1.390 . S
C715 C714 1.387 . S
C715 C717 1.387 . S
H716 C723 0.950 . S
C717 C715 1.387 . S
C717 C719 1.390 . S
C717 H721 0.950 . S
H718 C714 0.950 . S
C719 C717 1.390 . S
C719 C720 1.387 . S
C719 H722 0.950 . S
C720 C719 1.387 . S
C720 C723 1.387 . S
H721 C717 0.950 . S
H722 C719 0.950 . S
C723 C714 1.390 . S
C723 H716 0.950 . S
C723 C720 1.387 . S
C724 C725 1.387 . S
C724 H728 0.950 . S
C724 C733 1.390 . S
C725 C724 1.387 . S
C725 C727 1.387 . S
H726 C733 0.950 . S
C727 C725 1.387 . S
C727 C729 1.390 . S
C727 H731 0.950 . S
H728 C724 0.950 . S
C729 C727 1.390 . S
C729 C730 1.387 . S
C729 H732 0.950 . S
C730 C729 1.387 . S
C730 C733 1.387 . S
H731 C727 0.950 . S
H732 C729 0.950 . S
C733 C724 1.390 . S
C733 H726 0.950 . S
C733 C730 1.387 . S
C734 C735 1.387 . S
C734 H738 0.950 . S
C734 C743 1.390 . S
C735 C734 1.387 . S
C735 C737 1.387 . S
H736 C743 0.950 . S
C737 C735 1.387 . S
C737 C739 1.390 . S
C737 H741 0.950 . S
H738 C734 0.950 . S
C739 C737 1.390 . S
C739 C740 1.387 . S
C739 H742 0.950 . S
C740 C739 1.387 . S
C740 C743 1.387 . S
H741 C737 0.950 . S
H742 C739 0.950 . S
C743 C734 1.390 . S
C743 H736 0.950 . S
C743 C740 1.387 . S
C744 C745 1.387 . S
C744 H748 0.950 . S
C744 C753 1.390 . S
C745 C744 1.387 . S
C745 C747 1.387 . S
H746 C753 0.950 . S
C747 C745 1.387 . S
C747 C749 1.390 . S
C747 H751 0.950 . S
H748 C744 0.950 . S
C749 C747 1.390 . S
C749 C750 1.387 . S
C749 H752 0.950 . S
C750 C749 1.387 . S
C750 C753 1.387 . S
H751 C747 0.950 . S
H752 C749 0.950 . S
C753 C744 1.390 . S
C753 H746 0.950 . S
C753 C750 1.387 . S
C754 C755 1.387 . S
C754 H758 0.950 1_554 S
C754 C763 1.390 . S
C755 C754 1.387 . S
C755 C757 1.387 . S
H756 C763 0.950 1_556 S
C757 C755 1.387 . S
C757 C759 1.390 . S
C757 H761 0.950 . S
H758 C754 0.950 1_556 S
C759 C757 1.390 . S
C759 C760 1.387 . S
C759 H762 0.950 . S
C760 C759 1.387 . S
C760 C763 1.387 . S
H761 C757 0.950 . S
H762 C759 0.950 . S
C763 C754 1.390 . S
C763 H756 0.950 1_554 S
C763 C760 1.387 . S
C764 C765 1.387 . S
C764 H768 0.950 . S
C764 C773 1.390 . S
C765 C764 1.387 . S
C765 C767 1.387 . S
H766 C773 0.950 . S
C767 C765 1.387 . S
C767 C769 1.390 . S
C767 H771 0.950 . S
H768 C764 0.950 . S
C769 C767 1.390 . S
C769 C770 1.387 . S
C769 H772 0.950 . S
C770 C769 1.387 . S
C770 C773 1.387 . S
H771 C767 0.950 . S
H772 C769 0.950 . S
C773 C764 1.390 . S
C773 H766 0.950 . S
C773 C770 1.387 . S
C415 C85 1.570 . S
C420 C16 1.572 . S
C425 N94 1.583 . S
C430 N25 1.581 . S
C435 N48 1.547 . S
C440 N117 1.555 . S
C445 C62 1.692 . S
C450 C131 1.690 . S
C455 N2 1.660 . S
C460 N71 1.650 . S
C465 C108 1.706 . S
C470 C39 1.710 . S
C475 N209 1.776 . S
C480 C154 1.852 . S
C485 C177 1.826 . S
C490 N232 1.757 . S
C495 C200 1.749 . S
C500 N255 1.690 . S
C505 C269 1.560 . S
C510 N186 1.501 . S
C515 C223 1.538 . S
C520 N140 1.484 . S
C525 C246 1.633 . S
C530 N163 1.563 . S
C535 C292 1.604 . S
C540 C361 1.614 . S
C545 N301 1.627 . S
C550 N370 1.631 . S
C555 N324 1.596 . S
C560 N393 1.591 . S
C565 C407 1.729 . S
C570 C338 1.734 . S
C575 N347 1.708 . S
C580 N278 1.702 . S
C585 C384 1.741 . S
C590 C315 1.746 . S
C595 C7 1.580 . S
C600 N173 1.558 . S
C605 N35 1.559 . S
C610 N196 1.561 . S
C615 N150 1.548 . S
C620 N58 1.553 . S
C625 C53 1.679 . S
C630 N311 1.644 . S
C635 N334 1.644 . S
C640 N12 1.656 . S
C645 C283 1.592 . S
C650 C30 1.614 . S
C655 C375 1.591 . S
C660 C76 1.603 . S
C665 N104 1.640 . S
C670 C398 1.637 . S
C675 N357 1.629 . S
C680 N127 1.640 . S
C685 N242 1.628 . S
C690 C122 1.658 . S
C695 N81 1.612 . S
C700 N265 1.617 . S
C705 C99 1.674 . S
C710 N219 1.647 . S
C715 C145 1.707 1_545 S
C720 C306 1.710 . S
C725 C168 1.687 . S
C730 C329 1.695 1_455 S
C735 C191 1.725 . S
C740 N288 1.695 . S
C745 N380 1.635 . S
C750 C260 1.648 . S
C755 N403 1.628 . S
C760 C214 1.636 . S
C765 C237 1.591 1_545 S
C770 C352 1.602 . S
