# Generated by pormake.
# Topology sxb, (6)-cn, num edge types: 1
# Building blocks:
#     Node 0, Type 0, BuildingBlock: BETGAK_clean_sbu_0, # of connection points: 6
#     Node 1, Type 0, BuildingBlock: BETGAK_clean_sbu_0, # of connection points: 6
#     Node 2, Type 0, BuildingBlock: BETGAK_clean_sbu_0, # of connection points: 6
#     Node 3, Type 0, BuildingBlock: BETGAK_clean_sbu_0, # of connection points: 6
#     Edge 4, Type (0, 0), BuildingBlock: ZUJKAS_clean_linker_0, # of connection points: 2
#     Edge 5, Type (0, 0), BuildingBlock: ZUJKAS_clean_linker_0, # of connection points: 2
#     Edge 6, Type (0, 0), BuildingBlock: ZUJKAS_clean_linker_0, # of connection points: 2
#     Edge 7, Type (0, 0), BuildingBlock: ZUJKAS_clean_linker_0, # of connection points: 2
#     Edge 8, Type (0, 0), BuildingBlock: ZUJKAS_clean_linker_0, # of connection points: 2
#     Edge 9, Type (0, 0), BuildingBlock: ZUJKAS_clean_linker_0, # of connection points: 2
#     Edge 10, Type (0, 0), BuildingBlock: ZUJKAS_clean_linker_0, # of connection points: 2
#     Edge 11, Type (0, 0), BuildingBlock: ZUJKAS_clean_linker_0, # of connection points: 2
#     Edge 12, Type (0, 0), BuildingBlock: ZUJKAS_clean_linker_0, # of connection points: 2
#     Edge 13, Type (0, 0), BuildingBlock: ZUJKAS_clean_linker_0, # of connection points: 2
#     Edge 14, Type (0, 0), BuildingBlock: ZUJKAS_clean_linker_0, # of connection points: 2
#     Edge 15, Type (0, 0), BuildingBlock: ZUJKAS_clean_linker_0, # of connection points: 2
# Relax obj value: 0.287
# Max RMSD: 0.107
# Mean RMSD: 0.070
data_MOF--net-sxb--node1-BETGAK_clean_sbu_0--edge1-ZUJKAS_clean_linker_0
_symmetry_space_group_name_H-M    P1
_symmetry_Int_Tables_number       1
_symmetry_cell_setting            triclinic
loop_
_symmetry_equiv_pos_as_xyz
'x, y, z'
_cell_length_a     20.952749
_cell_length_b     42.494658
_cell_length_c     38.567339
_cell_angle_alpha  91.76689
_cell_angle_beta   92.343835
_cell_angle_gamma 70.61685
loop_
_atom_site_label
_atom_site_type_symbol
_atom_site_fract_x
_atom_site_fract_y
_atom_site_fract_z
_atom_type_partial_charge
La0 La 1.03196 1.05941 0.03723 0.0
La1 La 0.15489 0.07042 0.03579 0.0
C2 C 0.93163 1.03954 0.03724 0.0
C3 C 0.88083 1.04324 0.00878 0.0
C4 C 0.86849 1.01482 0.99493 0.0
C5 C 0.83381 1.01615 0.96298 0.0
C6 C 0.81089 1.04598 0.94429 0.0
C7 C 0.82089 0.07474 0.95894 0.0
C8 C 0.8556 0.07338 0.9908 0.0
C9 C 1.06237 0.07119 0.97305 0.0
C10 C 1.01902 0.13412 0.04165 0.0
C11 C 0.2485 0.08878 0.01428 0.0
C12 C 0.2789 0.08366 0.98004 0.0
C13 C 0.29317 0.10998 0.96486 0.0
C14 C 0.31471 0.10694 0.93076 0.0
C15 C 0.32216 0.0775 0.9112 0.0
C16 C 0.3071 1.05127 0.92641 0.0
C17 C 0.28551 1.05436 0.96052 0.0
C18 C 0.12862 1.0603 0.10086 0.0
C19 C 0.16402 0.99703 0.03786 0.0
O20 O 0.99207 1.02046 0.02912 0.0
O21 O 0.93307 0.06677 0.05346 0.0
O22 O 1.0039 0.08302 0.98645 0.0
O23 O 0.10196 1.05294 0.99534 0.0
O24 O 0.98807 0.11291 0.04947 0.0
O25 O 1.08311 0.12232 0.03274 0.0
O26 O 0.25934 0.06243 0.03325 0.0
O27 O 0.18508 0.10747 0.01375 0.0
O28 O 0.18814 1.05259 0.08823 0.0
O29 O 1.08574 0.07646 0.07829 0.0
O30 O 0.18923 1.01708 0.02191 0.0
O31 O 0.10538 1.0106 0.05298 0.0
H32 H 0.88877 0.99116 0.00797 0.0
H33 H 0.82707 0.99354 0.95236 0.0
H34 H 0.80245 0.09829 0.94563 0.0
H35 H 0.86518 0.09562 1.00056 0.0
H36 H 0.28707 0.13302 0.9793 0.0
H37 H 0.32733 0.12732 0.92005 0.0
H38 H 0.31228 1.02834 0.91197 0.0
H39 H 0.2732 1.034 0.97148 0.0
La40 La 0.11379 1.02271 0.54206 0.0
La41 La 1.05819 0.09204 0.5301 0.0
C42 C 0.14543 0.96389 0.56357 0.0
C43 C 0.12464 0.93479 0.5544 0.0
C44 C 0.17357 0.90537 0.54278 0.0
C45 C 0.15451 0.87872 0.52971 0.0
C46 C 1.08607 0.88087 0.52835 0.0
C47 C 1.03747 0.90985 0.54155 0.0
C48 C 1.05649 0.93666 0.55425 0.0
C49 C 0.10705 1.03721 0.47505 0.0
C50 C 0.94788 1.05609 0.53494 0.0
C51 C 1.0256 0.14979 0.50553 0.0
C52 C 1.06109 0.17189 0.49434 0.0
C53 C 1.02836 0.20642 0.49578 0.0
C54 C 1.06363 0.22802 0.48874 0.0
C55 C 0.13232 0.21529 0.48042 0.0
C56 C 0.16397 0.18057 0.47738 0.0
C57 C 0.12851 0.15902 0.48423 0.0
C58 C 1.06318 0.07708 0.59684 0.0
C59 C 0.22269 1.05913 0.53876 0.0
O60 O 0.17695 0.97293 0.53932 0.0
O61 O 0.10133 0.98957 0.57856 0.0
O62 O 0.15507 1.01374 0.48998 0.0
O63 O 1.06256 1.05032 0.49709 0.0
O64 O 1.00152 1.02948 0.54335 0.0
O65 O 0.95888 0.08374 0.52602 0.0
O66 O 1.03068 0.14378 0.53871 0.0
O67 O 1.03361 0.12276 0.48667 0.0
O68 O 1.0136 0.09956 0.5813 0.0
O69 O 0.10907 0.06435 0.57528 0.0
O70 O 0.17031 0.0838 0.52552 0.0
O71 O 0.20964 1.03368 0.55238 0.0
H72 H 0.22644 0.90347 0.54262 0.0
H73 H 0.19319 0.85698 0.51949 0.0
H74 H 0.98449 0.91204 0.54163 0.0
H75 H 1.01767 0.95904 0.56313 0.0
H76 H 0.97612 0.21668 0.50332 0.0
H77 H 1.03774 0.25467 0.49079 0.0
H78 H 0.21701 0.17 0.47139 0.0
H79 H 0.15437 0.13238 0.48264 0.0
La80 La 0.53636 0.56001 0.03856 0.0
La81 La 0.65891 0.57083 0.03619 0.0
C82 C 0.43587 0.54024 0.03867 0.0
C83 C 0.38452 0.54417 0.01043 0.0
C84 C 0.37169 0.51588 0.99657 0.0
C85 C 0.33604 0.51747 0.96488 0.0
C86 C 0.31255 0.54744 0.94644 0.0
C87 C 0.32316 0.57606 0.96109 0.0
C88 C 0.35889 0.57444 0.9927 0.0
C89 C 0.56538 0.57214 0.97419 0.0
C90 C 0.52307 0.63456 0.04324 0.0
C91 C 0.75153 0.58907 0.01324 0.0
C92 C 0.78034 0.58373 0.97859 0.0
C93 C 0.79288 0.61009 0.96251 0.0
C94 C 0.81311 0.60672 0.92815 0.0
C95 C 0.82097 0.5769 0.9092 0.0
C96 C 0.80735 0.55069 0.92528 0.0
C97 C 0.7871 0.55409 0.95966 0.0
C98 C 0.63514 0.56087 0.10172 0.0
C99 C 0.66744 0.49744 0.03895 0.0
O100 O 0.49614 0.5212 0.03022 0.0
O101 O 0.43765 0.56733 0.05506 0.0
O102 O 0.50738 0.58419 0.98801 0.0
O103 O 0.60518 0.55354 0.99613 0.0
O104 O 0.49254 0.61328 0.05127 0.0
O105 O 0.58696 0.62287 0.03392 0.0
O106 O 0.76318 0.56284 0.0325 0.0
O107 O 0.68818 0.60781 0.01335 0.0
O108 O 0.69404 0.55305 0.08835 0.0
O109 O 0.59123 0.57695 0.07945 0.0
O110 O 0.69261 0.51731 0.02264 0.0
O111 O 0.60936 0.51127 0.05445 0.0
H112 H 0.39225 0.49212 0.0094 0.0
H113 H 0.32895 0.49493 0.95425 0.0
H114 H 0.30438 0.59972 0.94798 0.0
H115 H 0.36882 0.5966 1.00246 0.0
H116 H 0.7866 0.63339 0.97648 0.0
H117 H 0.82467 0.62712 0.9168 0.0
H118 H 0.81283 0.52746 0.91135 0.0
H119 H 0.77602 0.53369 0.97128 0.0
La120 La 0.6354 0.53645 0.54553 0.0
La121 La 0.58077 0.60605 0.53212 0.0
C122 C 0.6607 0.47949 0.57076 0.0
C123 C 0.6254 0.45487 0.56875 0.0
C124 C 0.66173 0.42149 0.56069 0.0
C125 C 0.62766 0.39865 0.55392 0.0
C126 C 0.55672 0.40896 0.5551 0.0
C127 C 0.5208 0.44212 0.56463 0.0
C128 C 0.55482 0.46487 0.57144 0.0
C129 C 0.63237 0.54993 0.47856 0.0
C130 C 0.46927 0.57125 0.53839 0.0
C131 C 0.55634 0.66143 0.50382 0.0
C132 C 0.59846 0.67285 0.4812 0.0
C133 C 0.598 0.7058 0.48404 0.0
C134 C 0.64627 0.71531 0.46724 0.0
C135 C 0.69582 0.69192 0.44738 0.0
C136 C 0.69329 0.65943 0.44283 0.0
C137 C 0.64516 0.64993 0.45971 0.0
C138 C 0.58428 0.59256 0.59906 0.0
C139 C 0.74506 0.57149 0.53935 0.0
O140 O 0.68436 0.48473 0.54147 0.0
O141 O 0.63085 0.50735 0.58771 0.0
O142 O 0.68016 0.52668 0.49423 0.0
O143 O 0.58685 0.56354 0.50002 0.0
O144 O 0.5229 0.54374 0.54363 0.0
O145 O 0.47982 0.59975 0.53261 0.0
O146 O 0.57959 0.65568 0.53583 0.0
O147 O 0.5357 0.63756 0.49085 0.0
O148 O 0.53664 0.61608 0.58352 0.0
O149 O 0.6298 0.5789 0.57758 0.0
O150 O 0.69301 0.59519 0.5245 0.0
O151 O 0.73195 0.5469 0.55474 0.0
H152 H 0.71622 0.41336 0.5585 0.0
H153 H 0.65663 0.37313 0.54705 0.0
H154 H 0.46605 0.45093 0.56535 0.0
H155 H 0.52549 0.49048 0.57763 0.0
H156 H 0.56266 0.72369 0.5007 0.0
H157 H 0.64743 0.74039 0.47176 0.0
H158 H 0.73038 0.64097 0.4275 0.0
H159 H 0.64657 0.62425 0.45725 0.0
H160 H 0.56811 0.68554 0.02424 0.0
H161 H 0.50728 0.74576 0.02412 0.0
H162 H 0.33128 0.72912 0.06264 0.0
H163 H 0.39205 0.66883 0.06304 0.0
H164 H 0.39182 0.78337 0.98892 0.0
H165 H 0.34759 0.80145 0.12983 0.0
H166 H 0.40592 0.7636 0.11186 0.0
H167 H 0.3164 0.7705 0.10977 0.0
C168 C 0.51659 0.69456 0.03296 0.0
C169 C 0.48567 0.67183 0.04392 0.0
C170 C 0.48154 0.72927 0.03278 0.0
C171 C 0.41443 0.7427 0.04389 0.0
C172 C 0.38328 0.72001 0.05466 0.0
H173 H 0.12158 0.94743 0.06355 0.0
H174 H 0.18088 0.88702 0.06407 0.0
C175 C 0.41822 0.68524 0.0547 0.0
C176 C 0.37705 0.7801 0.04336 0.0
H177 H 0.29248 0.84777 0.0943 0.0
C178 C 0.37043 0.79737 0.01208 0.0
C179 C 0.34827 0.79896 0.07332 0.0
C180 C 0.35528 0.78282 0.10819 0.0
C181 C 0.33538 0.83216 0.00976 0.0
C182 C 0.30711 0.85115 0.03981 0.0
C183 C 0.31365 0.83381 0.07109 0.0
C184 C 0.27061 0.88872 0.03939 0.0
C185 C 0.32724 0.84789 0.9746 0.0
C186 C 0.30055 0.91081 0.0259 0.0
C187 C 0.26621 0.9456 0.02532 0.0
C188 C 0.20094 0.95977 0.03872 0.0
C189 C 0.17153 0.93777 0.05288 0.0
C190 C 0.20572 0.90295 0.05323 0.0
H191 H 0.33135 0.82918 0.95331 0.0
H192 H 0.27767 0.86806 0.97153 0.0
H193 H 0.3681 0.85872 0.97162 0.0
H194 H 0.35112 0.90125 0.01602 0.0
H195 H 0.29124 0.96145 0.0145 0.0
H196 H 0.79291 0.46067 0.01392 0.0
H197 H 0.85028 0.40002 0.01485 0.0
H198 H 0.6818 0.38821 0.06681 0.0
H199 H 0.62422 0.44871 0.06587 0.0
H200 H 0.89328 0.35556 0.06939 0.0
H201 H 0.70321 0.32031 0.9877 0.0
H202 H 0.70401 0.36264 0.99102 0.0
H203 H 0.6688 0.34592 0.02484 0.0
C204 C 0.76778 0.44524 0.0255 0.0
C205 C 0.70335 0.46006 0.03969 0.0
C206 C 0.80091 0.41032 0.02606 0.0
C207 C 0.77051 0.38884 0.04039 0.0
C208 C 0.7064 0.40365 0.05485 0.0
H209 H 0.88864 0.16936 0.06222 0.0
H210 H 0.83033 0.22998 0.06284 0.0
C211 C 0.67347 0.43856 0.05451 0.0
C212 C 0.80621 0.35128 0.04079 0.0
H213 H 0.79014 0.27609 0.01456 0.0
C214 C 0.87064 0.33829 0.05722 0.0
C215 C 0.77737 0.32813 0.02523 0.0
C216 C 0.70984 0.33984 0.00591 0.0
C217 C 0.90585 0.30347 0.0591 0.0
C218 C 0.87737 0.28026 0.0432 0.0
C219 C 0.81279 0.29331 0.02685 0.0
C220 C 0.9137 0.24267 0.04299 0.0
C221 C 0.97253 0.29202 0.07924 0.0
C222 C 0.98024 0.2286 0.03119 0.0
C223 C 1.01399 0.19379 0.03108 0.0
C224 C 0.98233 0.17147 0.04232 0.0
C225 C 0.91528 0.18543 0.05354 0.0
C226 C 0.8816 0.22036 0.05381 0.0
H227 H 0.97628 0.31107 0.09888 0.0
H228 H 0.97976 0.26831 0.09272 0.0
H229 H 1.01439 0.28797 0.0611 0.0
H230 H 1.00623 0.24455 0.02155 0.0
H231 H 1.06508 0.18436 0.02179 0.0
H232 H 0.22978 0.21305 0.43409 0.0
H233 H 0.30614 0.24616 0.43671 0.0
H234 H 0.20295 0.30073 0.52565 0.0
H235 H 0.12725 0.26785 0.52345 0.0
H236 H 0.23452 0.34074 0.47587 0.0
H237 H 0.45524 0.23022 0.51434 0.0
H238 H 0.41031 0.2266 0.4745 0.0
H239 H 0.36923 0.23015 0.51507 0.0
C240 C 0.2232 0.2323 0.45401 0.0
C241 C 0.17276 0.2378 0.47864 0.0
C242 C 0.26673 0.25111 0.45546 0.0
C243 C 0.26049 0.27546 0.48166 0.0
C244 C 0.20833 0.28201 0.50523 0.0
H245 H 0.44764 0.40109 0.58545 0.0
H246 H 0.37861 0.36795 0.56338 0.0
C247 C 0.1649 0.26333 0.50379 0.0
C248 C 0.31011 0.29309 0.48623 0.0
H249 H 0.47221 0.28215 0.51476 0.0
C250 C 0.28675 0.32794 0.4839 0.0
C251 C 0.37807 0.27615 0.49676 0.0
C252 C 0.40497 0.23874 0.5006 0.0
C253 C 0.32917 0.34652 0.49293 0.0
C254 C 0.39614 0.3297 0.5049 0.0
C255 C 0.42058 0.29478 0.50566 0.0
C256 C 0.43999 0.34816 0.51887 0.0
C257 C 0.3017 0.38402 0.49033 0.0
C258 C 0.4984 0.34688 0.50169 0.0
C259 C 0.53783 0.36582 0.51416 0.0
C260 C 0.51947 0.38608 0.54412 0.0
C261 C 0.46234 0.38614 0.56201 0.0
C262 C 0.42293 0.3673 0.54946 0.0
H263 H 0.25621 0.39228 0.47268 0.0
H264 H 0.287 0.39514 0.51644 0.0
H265 H 0.34065 0.39385 0.48087 0.0
H266 H 0.51233 0.332 0.47814 0.0
H267 H 0.58116 0.36556 0.49963 0.0
H268 H 0.97384 0.88695 0.48697 0.0
H269 H 0.93667 0.84252 0.46162 0.0
H270 H 0.11591 0.76883 0.50417 0.0
H271 H 0.15154 0.81318 0.53165 0.0
H272 H 0.99328 0.79168 0.41495 0.0
H273 H 0.96718 0.74149 0.54356 0.0
H274 H 0.98145 0.78075 0.53959 0.0
H275 H 1.04992 0.74216 0.53422 0.0
C276 C 1.00495 0.86131 0.49147 0.0
C277 C 1.06505 0.85366 0.51193 0.0
C278 C 0.98415 0.83595 0.47647 0.0
C279 C 1.02317 0.80241 0.48135 0.0
C280 C 1.08452 0.79457 0.50059 0.0
H281 H 0.82881 0.65286 0.45145 0.0
H282 H 0.9264 0.67156 0.44787 0.0
C283 C 0.10504 0.81998 0.51601 0.0
C284 C 0.99661 0.7761 0.46786 0.0
H285 H 0.92688 0.71954 0.49479 0.0
C286 C 0.97976 0.77543 0.43227 0.0
C287 C 0.97976 0.75469 0.49049 0.0
C288 C 0.99497 0.75481 0.52911 0.0
C289 C 0.94251 0.75549 0.41907 0.0
C290 C 0.92146 0.736 0.44213 0.0
C291 C 0.94318 0.73456 0.47715 0.0
C292 C 0.86778 0.72162 0.43258 0.0
C293 C 0.92387 0.75644 0.38086 0.0
C294 C 0.80291 0.74309 0.42309 0.0
C295 C 0.74697 0.73239 0.42461 0.0
C296 C 0.755 0.70022 0.43612 0.0
C297 C 0.82078 0.67776 0.44228 0.0
C298 C 0.87673 0.68842 0.44046 0.0
H299 H 0.96301 0.76141 0.36542 0.0
H300 H 0.91747 0.73265 0.3715 0.0
H301 H 0.87546 0.77699 0.37614 0.0
H302 H 0.79457 0.76899 0.41747 0.0
H303 H 0.697 0.75005 0.41918 0.0
H304 H 0.29535 0.12158 0.85743 0.0
H305 H 0.37174 0.11992 0.81055 0.0
H306 H 0.4986 1.02184 0.84283 0.0
H307 H 0.42226 1.02313 0.88807 0.0
H308 H 0.4801 0.12554 0.82873 0.0
H309 H 0.56746 1.01395 0.74992 0.0
H310 H 0.48312 1.02694 0.76675 0.0
H311 H 0.55372 0.99736 0.78984 0.0
C312 C 0.33822 0.09916 0.85338 0.0
C313 C 0.35398 0.07284 0.87695 0.0
C314 C 0.38157 0.09808 0.82637 0.0
C315 C 0.44189 0.07096 0.82302 0.0
C316 C 0.45229 1.04294 0.84386 0.0
H317 H 0.71629 1.01701 0.92556 0.0
H318 H 0.64544 1.02577 0.87295 0.0
C319 C 0.40864 1.04381 0.87039 0.0
C320 C 0.50215 0.07554 0.80757 0.0
H321 H 0.66067 1.02098 0.7965 0.0
C322 C 0.5193 0.10331 0.81976 0.0
C323 C 0.5537 1.04799 0.79355 0.0
C324 C 0.53785 1.02016 0.77391 0.0
C325 C 0.58694 0.10027 0.82758 0.0
C326 C 0.63738 0.06887 0.82263 0.0
C327 C 0.62145 1.04453 0.80198 0.0
C328 C 0.69302 1.0574 0.84898 0.0
C329 C 0.60221 0.12861 0.8467 0.0
C330 C 0.74488 0.07139 0.85256 0.0
C331 C 0.78553 0.06651 0.88298 0.0
C332 C 0.77484 1.04751 0.91012 0.0
C333 C 0.72616 1.0316 0.9052 0.0
C334 C 0.68578 1.03648 0.87495 0.0
H335 H 0.55824 0.15209 0.84597 0.0
H336 H 0.61599 0.12195 0.87427 0.0
H337 H 0.64568 0.13327 0.83502 0.0
H338 H 0.75162 0.0874 0.83272 0.0
H339 H 0.82384 0.07844 0.88573 0.0
H340 H 0.3436 1.01146 0.56203 0.0
H341 H 0.46072 1.01143 0.56133 0.0
H342 H 0.3914 0.10736 0.51309 0.0
H343 H 0.27405 0.10764 0.5143 0.0
H344 H 0.55121 1.00947 0.51581 0.0
H345 H 0.51223 0.13074 0.58254 0.0
H346 H 0.44704 0.1117 0.57967 0.0
H347 H 0.46043 0.13463 0.5437 0.0
C348 C 0.35257 1.03286 0.55143 0.0
C349 C 0.29674 1.05969 0.53852 0.0
C350 C 0.42091 1.03277 0.55093 0.0
C351 C 0.43812 1.05966 0.53782 0.0
C352 C 0.38229 0.08638 0.52453 0.0
H353 H 0.82615 0.10504 0.51508 0.0
H354 H 0.70932 0.10482 0.51541 0.0
C355 C 0.31383 0.08643 0.52494 0.0
C356 C 0.51335 1.05915 0.53749 0.0
H357 H 0.61922 0.10535 0.55768 0.0
C358 C 0.56539 1.03059 0.52525 0.0
C359 C 0.53534 0.08623 0.54943 0.0
C360 C 0.48609 0.11743 0.56489 0.0
C361 C 0.63514 1.02864 0.52379 0.0
C362 C 0.65728 1.05565 0.53592 0.0
C363 C 0.60515 0.08422 0.54818 0.0
C364 C 0.73258 1.05518 0.53568 0.0
C365 C 0.6839 0.99766 0.50768 0.0
C366 C 0.78894 1.02774 0.54726 0.0
C367 C 0.85739 1.02772 0.54679 0.0
C368 C 0.87394 1.05535 0.53517 0.0
C369 C 0.81763 0.08295 0.52416 0.0
C370 C 0.74938 0.08289 0.52446 0.0
H371 H 0.65731 0.98494 0.48958 0.0
H372 H 0.72315 1.0035 0.49318 0.0
H373 H 0.70918 0.97988 0.52846 0.0
H374 H 0.78036 1.0061 0.55741 0.0
H375 H 0.89756 1.00591 0.55599 0.0
H376 H 0.79355 0.62012 0.85453 0.0
H377 H 0.87161 0.61856 0.8085 0.0
H378 H 0.99898 0.52109 0.84221 0.0
H379 H 0.92133 0.52232 0.88667 0.0
H380 H 0.97833 0.62511 0.8294 0.0
H381 H 1.07404 0.51379 0.7508 0.0
H382 H 0.98861 0.52612 0.76611 0.0
H383 H 1.05831 0.49696 0.79015 0.0
C384 C 0.83692 0.59782 0.85095 0.0
C385 C 0.85261 0.57179 0.87487 0.0
C386 C 0.88124 0.5968 0.82441 0.0
C387 C 0.94233 0.57 0.82189 0.0
C388 C 0.95229 0.542 0.8427 0.0
H389 H 0.21787 0.51833 0.92825 0.0
H390 H 0.14638 0.5268 0.87585 0.0
C391 C 0.90778 0.54284 0.86878 0.0
C392 C 1.00327 0.57511 0.80784 0.0
H393 H 0.16362 0.52169 0.79896 0.0
C394 C 1.01865 0.60314 0.82082 0.0
C395 C 1.0564 0.54786 0.79451 0.0
C396 C 1.04282 0.51977 0.77424 0.0
C397 C 1.08558 0.60069 0.82981 0.0
C398 C 0.13725 0.56964 0.82516 0.0
C399 C 0.12341 0.54498 0.8041 0.0
C400 C 0.19274 0.5588 0.85167 0.0
C401 C 0.09867 0.62923 0.84962 0.0
C402 C 0.24399 0.57322 0.85508 0.0
C403 C 0.28512 0.56845 0.88534 0.0
C404 C 0.27544 0.54921 0.91253 0.0
C405 C 0.22705 0.53308 0.90784 0.0
C406 C 0.18627 0.53781 0.87774 0.0
H407 H 1.05395 0.65238 0.84876 0.0
H408 H 0.11174 0.62239 0.8772 0.0
H409 H 0.14203 0.63456 0.83861 0.0
H410 H 0.25004 0.58934 0.83518 0.0
H411 H 0.32315 0.58057 0.88787 0.0
H412 H 0.3487 0.62234 0.55295 0.0
H413 H 0.23256 0.62149 0.55416 0.0
H414 H 0.30236 0.51806 0.52172 0.0
H415 H 0.41908 0.51835 0.52377 0.0
H416 H 0.13702 0.61979 0.52039 0.0
H417 H 0.18524 0.49982 0.58411 0.0
H418 H 0.25133 0.51761 0.58041 0.0
H419 H 0.23107 0.49327 0.54495 0.0
C420 C 0.33985 0.59911 0.54654 0.0
C421 C 0.39567 0.57033 0.53869 0.0
C422 C 0.27193 0.59861 0.54703 0.0
C423 C 0.25476 0.56946 0.53897 0.0
C424 C 0.31082 0.5409 0.52999 0.0
H425 H 0.85605 0.54173 0.58394 0.0
H426 H 0.972 0.54306 0.58395 0.0
C427 C 0.37911 0.54114 0.53061 0.0
C428 C 0.17942 0.56964 0.53911 0.0
H429 H 1.07734 0.52265 0.5563 0.0
C430 C 0.12499 0.59836 0.52873 0.0
C431 C 0.15913 0.54259 0.55032 0.0
C432 C 0.20965 0.51178 0.56593 0.0
C433 C 1.05486 0.60079 0.52905 0.0
C434 C 1.03492 0.57297 0.5381 0.0
C435 C 1.0893 0.54433 0.54869 0.0
C436 C 0.95962 0.57309 0.53808 0.0
C437 C 1.00309 0.63426 0.52097 0.0
C438 C 0.90918 0.58919 0.51253 0.0
C439 C 0.84071 0.58938 0.5133 0.0
C440 C 0.81871 0.5723 0.53882 0.0
C441 C 0.86921 0.55535 0.56368 0.0
C442 C 0.93706 0.55599 0.56353 0.0
H443 H 1.02355 0.65492 0.52684 0.0
H444 H 0.98957 0.63504 0.49286 0.0
H445 H 0.95669 0.63897 0.53599 0.0
H446 H 0.92242 0.60139 0.49115 0.0
H447 H 0.80513 0.6024 0.49312 0.0
H448 H 0.20181 1.0083 0.42728 0.0
H449 H 0.19443 1.0151 0.36444 0.0
H450 H 0.9912 0.08414 0.37225 0.0
H451 H 0.99899 0.07775 0.43568 0.0
H452 H 0.11242 1.00043 0.31624 0.0
H453 H 1.07148 0.13615 0.3116 0.0
H454 H 1.09732 0.11283 0.35101 0.0
H455 H 1.01035 0.1256 0.33587 0.0
C456 C 0.15554 1.02512 0.41573 0.0
C457 C 0.10106 1.04253 0.43669 0.0
C458 C 0.15134 1.02897 0.37962 0.0
C459 C 1.0926 1.05047 0.36316 0.0
C460 C 1.0378 0.06795 0.38406 0.0
H461 H 1.01181 0.09009 0.13735 0.0
H462 H 0.99736 0.08823 0.20035 0.0
C463 C 1.04209 0.06413 0.42041 0.0
C464 C 1.08904 1.05338 0.3242 0.0
H465 H 1.06839 0.10827 0.25782 0.0
C466 C 0.10262 1.0241 0.30361 0.0
C467 C 1.07593 0.08418 0.30722 0.0
C468 C 1.06351 0.11648 0.32748 0.0
C469 C 0.1041 1.02466 0.26708 0.0
C470 C 1.09262 1.0553 0.25016 0.0
C471 C 1.07719 0.08474 0.27057 0.0
C472 C 0.10046 1.05682 0.21169 0.0
C473 C 0.1178 0.99227 0.24684 0.0
C474 C 0.1632 1.04018 0.19683 0.0
C475 C 0.17153 1.04133 0.16102 0.0
C476 C 0.11744 1.05921 0.13885 0.0
C477 C 1.05449 0.07601 0.15361 0.0
C478 C 1.04626 0.07502 0.18967 0.0
H479 H 0.10597 0.97317 0.26196 0.0
H480 H 1.0877 0.99602 0.22201 0.0
H481 H 0.17225 0.98234 0.24074 0.0
H482 H 0.20625 1.02643 0.21306 0.0
H483 H 0.22076 1.02815 0.15068 0.0
H484 H 0.97537 0.10816 0.92382 0.0
H485 H 0.98723 0.10632 0.86092 0.0
H486 H 0.18436 1.03146 0.87224 0.0
H487 H 0.17158 1.03259 0.93548 0.0
H488 H 1.07983 0.11967 0.82079 0.0
H489 H 1.0936 0.98778 0.7992 0.0
H490 H 1.06769 1.00986 0.83972 0.0
H491 H 0.15576 0.99406 0.82958 0.0
C492 C 1.02136 0.09127 0.91299 0.0
C493 C 1.07265 0.07059 0.93484 0.0
C494 C 1.02814 0.09027 0.87688 0.0
C495 C 1.08626 0.06842 0.86137 0.0
C496 C 0.13831 1.04809 0.88321 0.0
H497 H 0.17068 1.03667 0.63638 0.0
H498 H 0.18184 1.0337 0.7002 0.0
C499 C 0.13142 1.04905 0.9195 0.0
C500 C 1.09155 0.06748 0.82249 0.0
H501 H 0.10301 1.01733 0.74992 0.0
C502 C 1.08513 0.0972 0.80541 0.0
C503 C 0.09887 1.03822 0.80203 0.0
C504 C 0.10384 1.00568 0.81841 0.0
C505 C 1.08514 0.09859 0.76888 0.0
C506 C 1.09038 0.06961 0.74836 0.0
C507 C 0.09879 1.03962 0.7654 0.0
C508 C 1.08376 0.07051 0.70935 0.0
C509 C 1.07993 0.13122 0.7526 0.0
C510 C 1.0245 0.09153 0.69288 0.0
C511 C 1.01806 0.09318 0.65656 0.0
C512 C 1.07057 0.07377 0.63546 0.0
C513 C 0.12941 1.05209 0.6518 0.0
C514 C 0.13578 1.05037 0.68833 0.0
H515 H 1.09697 0.14763 0.77106 0.0
H516 H 0.11057 0.12708 0.72902 0.0
H517 H 1.02629 0.14457 0.74498 0.0
H518 H 0.98285 0.10676 0.70819 0.0
H519 H 0.97176 0.10993 0.64497 0.0
H520 H 0.72663 0.51912 0.43084 0.0
H521 H 0.71793 0.52376 0.36764 0.0
H522 H 0.51577 0.59397 0.37503 0.0
H523 H 0.52481 0.5897 0.43861 0.0
H524 H 0.63346 0.50797 0.32123 0.0
H525 H 0.59569 0.64285 0.3104 0.0
H526 H 0.62248 0.62089 0.35058 0.0
H527 H 0.5349 0.63394 0.33645 0.0
C528 C 0.68038 0.53576 0.41909 0.0
C529 C 0.62648 0.55408 0.43998 0.0
C530 C 0.6754 0.53837 0.38278 0.0
C531 C 0.6165 0.55953 0.36608 0.0
C532 C 0.56247 0.57799 0.38695 0.0
H533 H 0.52148 0.59268 0.14009 0.0
H534 H 0.51173 0.59277 0.20367 0.0
C535 C 0.56749 0.5754 0.42343 0.0
C536 C 0.61158 0.56103 0.32697 0.0
H537 H 0.58744 0.61351 0.25808 0.0
C538 C 0.62333 0.53114 0.30757 0.0
C539 C 0.598 0.59115 0.30863 0.0
C540 C 0.58763 0.62401 0.32749 0.0
C541 C 0.62222 0.53047 0.27091 0.0
C542 C 0.61 0.56044 0.25259 0.0
C543 C 0.5967 0.59048 0.27186 0.0
C544 C 0.61483 0.56066 0.21371 0.0
C545 C 0.63374 0.49749 0.25208 0.0
C546 C 0.67593 0.54293 0.19785 0.0
C547 C 0.68155 0.54295 0.1617 0.0
C548 C 0.62633 0.56075 0.1401 0.0
C549 C 0.56495 0.57859 0.15585 0.0
C550 C 0.55945 0.57873 0.19226 0.0
H551 H 0.62234 0.47917 0.26857 0.0
H552 H 0.60204 0.50061 0.22781 0.0
H553 H 0.68767 0.48694 0.24511 0.0
H554 H 0.71989 0.52925 0.21354 0.0
H555 H 0.72968 0.52899 0.15063 0.0
H556 H 0.49178 0.6248 0.647 0.0
H557 H 0.4985 0.61824 0.70993 0.0
H558 H 0.69428 0.54238 0.70179 0.0
H559 H 0.68811 0.54935 0.63847 0.0
H560 H 0.50617 0.56513 0.7482 0.0
H561 H 0.73493 0.60042 0.77892 0.0
H562 H 0.69158 0.60762 0.73699 0.0
H563 H 0.74718 0.56662 0.74803 0.0
C564 C 0.53656 0.60682 0.65854 0.0
C565 C 0.58957 0.58776 0.63754 0.0
C566 C 0.54034 0.60305 0.6947 0.0
C567 C 0.59737 0.58019 0.71117 0.0
C568 C 0.65032 0.56081 0.69017 0.0
H569 H 0.67261 0.53334 0.93544 0.0
H570 H 0.68442 0.53378 0.87216 0.0
C571 C 0.64654 0.5646 0.65382 0.0
C572 C 0.59932 0.5762 0.74998 0.0
H573 H 0.68678 0.58254 0.8257 0.0
C574 C 0.54581 0.56896 0.76501 0.0
C575 C 0.65119 0.58081 0.77237 0.0
C576 C 0.70924 0.58958 0.75841 0.0
C577 C 0.54232 0.56648 0.80125 0.0
C578 C 0.59302 0.57206 0.82371 0.0
C579 C 0.64762 0.5784 0.80875 0.0
C580 C 0.58838 0.5727 0.86262 0.0
C581 C 0.4844 0.55745 0.81508 0.0
C582 C 0.53162 0.59497 0.87886 0.0
C583 C 0.52517 0.59488 0.91493 0.0
C584 C 0.57554 0.57273 0.93605 0.0
C585 C 0.63327 0.55097 0.92005 0.0
C586 C 0.63984 0.55111 0.88378 0.0
H587 H 0.46302 0.54395 0.79519 0.0
H588 H 0.50063 0.54165 0.83836 0.0
H589 H 0.44335 0.58062 0.82248 0.0
H590 H 0.49185 0.61249 0.86354 0.0
H591 H 0.4802 0.61213 0.92632 0.0
loop_
_geom_bond_atom_site_label_1
_geom_bond_atom_site_label_2
_geom_bond_distance
_geom_bond_site_symmetry_2
_ccdc_geom_bond_type
La0 C2 2.928 . S
La0 O20 2.521 . S
La0 O21 2.628 1_566 S
La0 O22 2.554 . S
La0 O23 2.757 1_655 S
La0 O24 2.470 1_565 S
La0 O29 2.482 1_566 S
La0 O31 2.503 1_655 S
La1 C11 2.928 . S
La1 O23 2.482 1_544 S
La1 O25 2.503 1_455 S
La1 O26 2.521 . S
La1 O27 2.628 1_544 S
La1 O28 2.554 . S
La1 O29 2.757 1_455 S
La1 O30 2.470 1_545 S
C2 La0 2.928 . S
C2 C3 1.503 1_565 S
C2 O20 1.261 . S
C2 O21 1.243 1_566 S
C3 C2 1.503 1_545 S
C3 C4 1.394 . S
C3 C8 1.373 1_556 S
C4 C3 1.394 . S
C4 C5 1.380 . S
C4 H32 0.930 1_545 S
C5 C4 1.380 . S
C5 C6 1.376 . S
C5 H33 0.930 . S
C6 C5 1.376 . S
C6 C7 1.370 1_556 S
C7 C6 1.370 1_554 S
C7 C8 1.396 . S
C7 H34 0.929 . S
C8 C3 1.373 1_554 S
C8 C7 1.396 . S
C8 H35 0.929 . S
C9 O22 1.240 . S
C9 O23 1.289 1_655 S
C10 O24 1.258 . S
C10 O25 1.256 1_556 S
C11 La1 2.928 . S
C11 C12 1.503 1_545 S
C11 O26 1.261 . S
C11 O27 1.243 1_544 S
C12 C11 1.503 1_565 S
C12 C13 1.394 . S
C12 C17 1.373 1_554 S
C13 C12 1.394 . S
C13 C14 1.380 . S
C13 H36 0.930 1_565 S
C14 C13 1.380 . S
C14 C15 1.376 . S
C14 H37 0.930 . S
C15 C14 1.376 . S
C15 C16 1.370 1_554 S
C16 C15 1.370 1_556 S
C16 C17 1.396 . S
C16 H38 0.929 . S
C17 C12 1.373 1_556 S
C17 C16 1.396 . S
C17 H39 0.929 . S
C18 O28 1.240 . S
C18 O29 1.289 1_455 S
C19 O30 1.258 . S
C19 O31 1.256 1_554 S
O20 La0 2.521 . S
O20 C2 1.261 . S
O21 La0 2.628 1_544 S
O21 C2 1.243 1_544 S
O22 La0 2.554 . S
O22 C9 1.240 . S
O23 La0 2.757 1_455 S
O23 La1 2.482 1_566 S
O23 C9 1.289 1_455 S
O24 La0 2.470 1_545 S
O24 C10 1.258 . S
O25 La1 2.503 1_655 S
O25 C10 1.256 1_554 S
O26 La1 2.521 . S
O26 C11 1.261 . S
O27 La1 2.628 1_566 S
O27 C11 1.243 1_566 S
O28 La1 2.554 . S
O28 C18 1.240 . S
O29 La0 2.482 1_544 S
O29 La1 2.757 1_655 S
O29 C18 1.289 1_655 S
O30 La1 2.470 1_565 S
O30 C19 1.258 . S
O31 La0 2.503 1_455 S
O31 C19 1.256 1_556 S
H32 C4 0.930 1_565 S
H33 C5 0.930 . S
H34 C7 0.929 . S
H35 C8 0.929 . S
H36 C13 0.930 1_545 S
H37 C14 0.930 . S
H38 C16 0.929 . S
H39 C17 0.929 . S
La40 C42 2.928 1_455 S
La40 O60 2.521 1_455 S
La40 O61 2.628 1_455 S
La40 O62 2.553 . S
La40 O63 2.757 1_565 S
La40 O64 2.470 1_455 S
La40 O69 2.482 1_455 S
La40 O71 2.503 . S
La41 C51 2.928 1_655 S
La41 O63 2.482 1_655 S
La41 O65 2.503 . S
La41 O66 2.521 1_655 S
La41 O67 2.628 1_655 S
La41 O68 2.553 . S
La41 O69 2.757 1_545 S
La41 O70 2.470 1_655 S
C42 La40 2.928 1_655 S
C42 C43 1.503 . S
C42 O60 1.261 . S
C42 O61 1.243 . S
C43 C42 1.503 . S
C43 C44 1.394 . S
C43 C48 1.373 . S
C44 C43 1.394 . S
C44 C45 1.380 . S
C44 H72 0.930 . S
C45 C44 1.380 . S
C45 C46 1.376 . S
C45 H73 0.930 . S
C46 C45 1.376 . S
C46 C47 1.370 . S
C47 C46 1.370 . S
C47 C48 1.396 . S
C47 H74 0.929 . S
C48 C43 1.373 . S
C48 C47 1.396 . S
C48 H75 0.929 . S
C49 O62 1.245 . S
C49 O63 1.289 1_565 S
C50 O64 1.258 1_545 S
C50 O65 1.256 . S
C51 La41 2.928 1_455 S
C51 C52 1.503 . S
C51 O66 1.261 . S
C51 O67 1.243 . S
C52 C51 1.503 . S
C52 C53 1.394 . S
C52 C57 1.373 . S
C53 C52 1.394 . S
C53 C54 1.380 . S
C53 H76 0.930 . S
C54 C53 1.380 . S
C54 C55 1.376 . S
C54 H77 0.930 . S
C55 C54 1.376 . S
C55 C56 1.370 . S
C56 C55 1.370 . S
C56 C57 1.396 . S
C56 H78 0.929 . S
C57 C52 1.373 . S
C57 C56 1.396 . S
C57 H79 0.929 . S
C58 O68 1.243 . S
C58 O69 1.289 1_545 S
C59 O70 1.258 1_565 S
C59 O71 1.256 . S
O60 La40 2.521 1_655 S
O60 C42 1.261 . S
O61 La40 2.628 1_655 S
O61 C42 1.243 . S
O62 La40 2.553 . S
O62 C49 1.245 . S
O63 La40 2.757 1_545 S
O63 La41 2.482 1_455 S
O63 C49 1.289 1_545 S
O64 La40 2.470 1_655 S
O64 C50 1.258 1_565 S
O65 La41 2.503 . S
O65 C50 1.256 . S
O66 La41 2.521 1_455 S
O66 C51 1.261 . S
O67 La41 2.628 1_455 S
O67 C51 1.243 . S
O68 La41 2.553 . S
O68 C58 1.243 . S
O69 La40 2.482 1_655 S
O69 La41 2.757 1_565 S
O69 C58 1.289 1_565 S
O70 La41 2.470 1_455 S
O70 C59 1.258 1_545 S
O71 La40 2.503 . S
O71 C59 1.256 . S
H72 C44 0.930 . S
H73 C45 0.930 . S
H74 C47 0.929 . S
H75 C48 0.929 . S
H76 C53 0.930 . S
H77 C54 0.930 . S
H78 C56 0.929 . S
H79 C57 0.929 . S
La80 C82 2.928 . S
La80 O100 2.521 . S
La80 O101 2.628 1_556 S
La80 O102 2.554 . S
La80 O103 2.757 . S
La80 O104 2.470 . S
La80 O109 2.482 1_556 S
La80 O111 2.503 . S
La81 C91 2.928 . S
La81 O103 2.482 1_554 S
La81 O105 2.503 . S
La81 O106 2.521 . S
La81 O107 2.628 1_554 S
La81 O108 2.554 . S
La81 O109 2.757 . S
La81 O110 2.470 . S
C82 La80 2.928 . S
C82 C83 1.503 . S
C82 O100 1.261 . S
C82 O101 1.243 1_556 S
C83 C82 1.503 . S
C83 C84 1.394 . S
C83 C88 1.373 1_556 S
C84 C83 1.394 . S
C84 C85 1.380 . S
C84 H112 0.930 . S
C85 C84 1.380 . S
C85 C86 1.376 . S
C85 H113 0.930 . S
C86 C85 1.376 . S
C86 C87 1.370 1_556 S
C87 C86 1.370 1_554 S
C87 C88 1.396 . S
C87 H114 0.929 . S
C88 C83 1.373 1_554 S
C88 C87 1.396 . S
C88 H115 0.929 . S
C89 O102 1.240 . S
C89 O103 1.289 . S
C90 O104 1.258 . S
C90 O105 1.256 1_556 S
C91 La81 2.928 . S
C91 C92 1.503 . S
C91 O106 1.261 . S
C91 O107 1.243 1_554 S
C92 C91 1.503 . S
C92 C93 1.394 . S
C92 C97 1.373 1_554 S
C93 C92 1.394 . S
C93 C94 1.380 . S
C93 H116 0.930 . S
C94 C93 1.380 . S
C94 C95 1.376 . S
C94 H117 0.930 . S
C95 C94 1.376 . S
C95 C96 1.370 1_554 S
C96 C95 1.370 1_556 S
C96 C97 1.396 . S
C96 H118 0.929 . S
C97 C92 1.373 1_556 S
C97 C96 1.396 . S
C97 H119 0.929 . S
C98 O108 1.240 . S
C98 O109 1.289 . S
C99 O110 1.258 . S
C99 O111 1.256 1_554 S
O100 La80 2.521 . S
O100 C82 1.261 . S
O101 La80 2.628 1_554 S
O101 C82 1.243 1_554 S
O102 La80 2.554 . S
O102 C89 1.240 . S
O103 La80 2.757 . S
O103 La81 2.482 1_556 S
O103 C89 1.289 . S
O104 La80 2.470 . S
O104 C90 1.258 . S
O105 La81 2.503 . S
O105 C90 1.256 1_554 S
O106 La81 2.521 . S
O106 C91 1.261 . S
O107 La81 2.628 1_556 S
O107 C91 1.243 1_556 S
O108 La81 2.554 . S
O108 C98 1.240 . S
O109 La80 2.482 1_554 S
O109 La81 2.757 . S
O109 C98 1.289 . S
O110 La81 2.470 . S
O110 C99 1.258 . S
O111 La80 2.503 . S
O111 C99 1.256 1_556 S
H112 C84 0.930 . S
H113 C85 0.930 . S
H114 C87 0.929 . S
H115 C88 0.929 . S
H116 C93 0.930 . S
H117 C94 0.930 . S
H118 C96 0.929 . S
H119 C97 0.929 . S
La120 C122 2.928 . S
La120 O140 2.521 . S
La120 O141 2.628 . S
La120 O142 2.554 . S
La120 O143 2.757 . S
La120 O144 2.470 . S
La120 O149 2.482 . S
La120 O151 2.503 . S
La121 C131 2.928 . S
La121 O143 2.482 . S
La121 O145 2.503 . S
La121 O146 2.521 . S
La121 O147 2.628 . S
La121 O148 2.554 . S
La121 O149 2.757 . S
La121 O150 2.470 . S
C122 La120 2.928 . S
C122 C123 1.503 . S
C122 O140 1.261 . S
C122 O141 1.243 . S
C123 C122 1.503 . S
C123 C124 1.394 . S
C123 C128 1.373 . S
C124 C123 1.394 . S
C124 C125 1.380 . S
C124 H152 0.930 . S
C125 C124 1.380 . S
C125 C126 1.376 . S
C125 H153 0.930 . S
C126 C125 1.376 . S
C126 C127 1.370 . S
C127 C126 1.370 . S
C127 C128 1.396 . S
C127 H154 0.929 . S
C128 C123 1.373 . S
C128 C127 1.396 . S
C128 H155 0.929 . S
C129 O142 1.240 . S
C129 O143 1.289 . S
C130 O144 1.258 . S
C130 O145 1.256 . S
C131 La121 2.928 . S
C131 C132 1.503 . S
C131 O146 1.261 . S
C131 O147 1.243 . S
C132 C131 1.503 . S
C132 C133 1.394 . S
C132 C137 1.373 . S
C133 C132 1.394 . S
C133 C134 1.380 . S
C133 H156 0.930 . S
C134 C133 1.380 . S
C134 C135 1.376 . S
C134 H157 0.930 . S
C135 C134 1.376 . S
C135 C136 1.370 . S
C136 C135 1.370 . S
C136 C137 1.396 . S
C136 H158 0.929 . S
C137 C132 1.373 . S
C137 C136 1.396 . S
C137 H159 0.929 . S
C138 O148 1.240 . S
C138 O149 1.289 . S
C139 O150 1.258 . S
C139 O151 1.256 . S
O140 La120 2.521 . S
O140 C122 1.261 . S
O141 La120 2.628 . S
O141 C122 1.243 . S
O142 La120 2.554 . S
O142 C129 1.240 . S
O143 La120 2.757 . S
O143 La121 2.482 . S
O143 C129 1.289 . S
O144 La120 2.470 . S
O144 C130 1.258 . S
O145 La121 2.503 . S
O145 C130 1.256 . S
O146 La121 2.521 . S
O146 C131 1.261 . S
O147 La121 2.628 . S
O147 C131 1.243 . S
O148 La121 2.554 . S
O148 C138 1.240 . S
O149 La120 2.482 . S
O149 La121 2.757 . S
O149 C138 1.289 . S
O150 La121 2.470 . S
O150 C139 1.258 . S
O151 La120 2.503 . S
O151 C139 1.256 . S
H152 C124 0.930 . S
H153 C125 0.930 . S
H154 C127 0.929 . S
H155 C128 0.929 . S
H156 C133 0.930 . S
H157 C134 0.930 . S
H158 C136 0.929 . S
H159 C137 0.929 . S
H160 C168 0.929 . S
H161 C170 0.930 . S
H162 C172 0.930 . S
H163 C175 0.929 . S
H164 C178 0.930 . S
H165 C180 0.960 . S
H166 C180 0.960 . S
H167 C180 0.960 . S
C168 H160 0.929 . S
C168 C169 1.377 . S
C168 C170 1.384 . S
C169 C168 1.377 . S
C169 C175 1.390 1_554 S
C170 H161 0.930 . S
C170 C168 1.384 . S
C170 C171 1.372 . S
C171 C170 1.372 . S
C171 C172 1.400 1_554 S
C171 C176 1.491 . S
C172 H162 0.930 . S
C172 C171 1.400 1_556 S
C172 C175 1.386 . S
H173 C189 0.930 . S
H174 C190 0.931 . S
C175 H163 0.929 . S
C175 C169 1.390 1_556 S
C175 C172 1.386 . S
C176 C171 1.491 . S
C176 C178 1.378 1_554 S
C176 C179 1.419 . S
H177 C183 0.930 . S
C178 H164 0.930 . S
C178 C176 1.378 1_556 S
C178 C181 1.403 . S
C179 C176 1.419 . S
C179 C180 1.524 . S
C179 C183 1.400 . S
C180 H165 0.960 . S
C180 H166 0.960 . S
C180 H167 0.960 . S
C180 C179 1.524 . S
C181 C178 1.403 . S
C181 C182 1.392 . S
C181 C185 1.495 . S
C182 C181 1.392 . S
C182 C183 1.385 1_556 S
C182 C184 1.478 . S
C183 H177 0.930 . S
C183 C179 1.400 . S
C183 C182 1.385 1_554 S
C184 C182 1.478 . S
C184 C186 1.381 1_556 S
C184 C190 1.383 . S
C185 C181 1.495 . S
C185 H191 0.959 . S
C185 H192 0.961 . S
C185 H193 0.960 . S
C186 C184 1.381 1_554 S
C186 C187 1.394 . S
C186 H194 0.930 . S
C187 C186 1.394 . S
C187 C188 1.383 1_554 S
C187 H195 0.929 . S
C188 C187 1.383 1_556 S
C188 C189 1.377 . S
C189 H173 0.930 . S
C189 C188 1.377 . S
C189 C190 1.379 . S
C190 H174 0.931 . S
C190 C184 1.383 . S
C190 C189 1.379 . S
H191 C185 0.959 . S
H192 C185 0.961 . S
H193 C185 0.960 . S
H194 C186 0.930 . S
H195 C187 0.929 . S
H196 C204 0.929 . S
H197 C206 0.930 . S
H198 C208 0.930 . S
H199 C211 0.929 . S
H200 C214 0.930 . S
H201 C216 0.960 . S
H202 C216 0.960 . S
H203 C216 0.960 . S
C204 H196 0.929 . S
C204 C205 1.377 . S
C204 C206 1.384 . S
C205 C204 1.377 . S
C205 C211 1.390 1_556 S
C206 H197 0.930 . S
C206 C204 1.384 . S
C206 C207 1.372 . S
C207 C206 1.372 . S
C207 C208 1.400 1_556 S
C207 C212 1.490 . S
C208 H198 0.930 . S
C208 C207 1.400 1_554 S
C208 C211 1.386 . S
H209 C225 0.930 . S
H210 C226 0.931 . S
C211 H199 0.929 . S
C211 C205 1.390 1_554 S
C211 C208 1.386 . S
C212 C207 1.490 . S
C212 C214 1.395 1_556 S
C212 C215 1.403 . S
H213 C219 0.930 . S
C214 H200 0.930 . S
C214 C212 1.395 1_554 S
C214 C217 1.403 . S
C215 C212 1.403 . S
C215 C216 1.524 . S
C215 C219 1.400 . S
C216 H201 0.960 . S
C216 H202 0.960 . S
C216 H203 0.960 . S
C216 C215 1.524 . S
C217 C214 1.403 . S
C217 C218 1.392 . S
C217 C221 1.495 . S
C218 C217 1.392 . S
C218 C219 1.385 1_554 S
C218 C220 1.478 . S
C219 H213 0.930 . S
C219 C215 1.400 . S
C219 C218 1.385 1_556 S
C220 C218 1.478 . S
C220 C222 1.381 1_554 S
C220 C226 1.383 . S
C221 C217 1.495 . S
C221 H227 0.959 . S
C221 H228 0.961 . S
C221 H229 0.960 . S
C222 C220 1.381 1_556 S
C222 C223 1.394 . S
C222 H230 0.930 . S
C223 C222 1.394 . S
C223 C224 1.383 1_556 S
C223 H231 0.929 . S
C224 C223 1.383 1_554 S
C224 C225 1.377 . S
C225 H209 0.930 . S
C225 C224 1.377 . S
C225 C226 1.379 . S
C226 H210 0.931 . S
C226 C220 1.383 . S
C226 C225 1.379 . S
H227 C221 0.959 . S
H228 C221 0.961 . S
H229 C221 0.960 . S
H230 C222 0.930 . S
H231 C223 0.929 . S
H232 C240 0.929 . S
H233 C242 0.930 . S
H234 C244 0.930 . S
H235 C247 0.929 . S
H236 C250 0.930 . S
H237 C252 0.960 . S
H238 C252 0.960 . S
H239 C252 0.960 . S
C240 H232 0.929 . S
C240 C241 1.377 . S
C240 C242 1.384 . S
C241 C240 1.377 . S
C241 C247 1.390 . S
C242 H233 0.930 . S
C242 C240 1.384 . S
C242 C243 1.372 . S
C243 C242 1.372 . S
C243 C244 1.400 . S
C243 C248 1.490 . S
C244 H234 0.930 . S
C244 C243 1.400 . S
C244 C247 1.386 . S
H245 C261 0.930 . S
H246 C262 0.931 . S
C247 H235 0.929 . S
C247 C241 1.390 . S
C247 C244 1.386 . S
C248 C243 1.490 . S
C248 C250 1.395 . S
C248 C251 1.403 . S
H249 C255 0.930 . S
C250 H236 0.930 . S
C250 C248 1.395 . S
C250 C253 1.403 . S
C251 C248 1.403 . S
C251 C252 1.524 . S
C251 C255 1.400 . S
C252 H237 0.960 . S
C252 H238 0.960 . S
C252 H239 0.960 . S
C252 C251 1.524 . S
C253 C250 1.403 . S
C253 C254 1.392 . S
C253 C257 1.495 . S
C254 C253 1.392 . S
C254 C255 1.385 . S
C254 C256 1.478 . S
C255 H249 0.930 . S
C255 C251 1.400 . S
C255 C254 1.385 . S
C256 C254 1.478 . S
C256 C258 1.381 . S
C256 C262 1.383 . S
C257 C253 1.495 . S
C257 H263 0.959 . S
C257 H264 0.961 . S
C257 H265 0.960 . S
C258 C256 1.381 . S
C258 C259 1.394 . S
C258 H266 0.930 . S
C259 C258 1.394 . S
C259 C260 1.383 . S
C259 H267 0.929 . S
C260 C259 1.383 . S
C260 C261 1.377 . S
C261 H245 0.930 . S
C261 C260 1.377 . S
C261 C262 1.379 . S
C262 H246 0.931 . S
C262 C256 1.383 . S
C262 C261 1.379 . S
H263 C257 0.959 . S
H264 C257 0.961 . S
H265 C257 0.960 . S
H266 C258 0.930 . S
H267 C259 0.929 . S
H268 C276 0.929 . S
H269 C278 0.930 . S
H270 C280 0.930 . S
H271 C283 0.929 . S
H272 C286 0.930 . S
H273 C288 0.960 . S
H274 C288 0.960 . S
H275 C288 0.960 . S
C276 H268 0.929 . S
C276 C277 1.377 . S
C276 C278 1.384 . S
C277 C276 1.377 . S
C277 C283 1.390 . S
C278 H269 0.930 . S
C278 C276 1.384 . S
C278 C279 1.372 . S
C279 C278 1.372 . S
C279 C280 1.400 . S
C279 C284 1.490 . S
C280 H270 0.930 . S
C280 C279 1.400 . S
C280 C283 1.386 . S
H281 C297 0.930 . S
H282 C298 0.931 . S
C283 H271 0.929 . S
C283 C277 1.390 . S
C283 C280 1.386 . S
C284 C279 1.490 . S
C284 C286 1.395 . S
C284 C287 1.403 . S
H285 C291 0.930 . S
C286 H272 0.930 . S
C286 C284 1.395 . S
C286 C289 1.403 . S
C287 C284 1.403 . S
C287 C288 1.524 . S
C287 C291 1.400 . S
C288 H273 0.960 . S
C288 H274 0.960 . S
C288 H275 0.960 . S
C288 C287 1.524 . S
C289 C286 1.403 . S
C289 C290 1.392 . S
C289 C293 1.495 . S
C290 C289 1.392 . S
C290 C291 1.385 . S
C290 C292 1.478 . S
C291 H285 0.930 . S
C291 C287 1.400 . S
C291 C290 1.385 . S
C292 C290 1.478 . S
C292 C294 1.381 . S
C292 C298 1.383 . S
C293 C289 1.495 . S
C293 H299 0.959 . S
C293 H300 0.961 . S
C293 H301 0.960 . S
C294 C292 1.381 . S
C294 C295 1.394 . S
C294 H302 0.930 . S
C295 C294 1.394 . S
C295 C296 1.383 . S
C295 H303 0.929 . S
C296 C295 1.383 . S
C296 C297 1.377 . S
C297 H281 0.930 . S
C297 C296 1.377 . S
C297 C298 1.379 . S
C298 H282 0.931 . S
C298 C292 1.383 . S
C298 C297 1.379 . S
H299 C293 0.959 . S
H300 C293 0.961 . S
H301 C293 0.960 . S
H302 C294 0.930 . S
H303 C295 0.929 . S
H304 C312 0.929 . S
H305 C314 0.930 . S
H306 C316 0.930 . S
H307 C319 0.929 . S
H308 C322 0.930 . S
H309 C324 0.960 . S
H310 C324 0.960 . S
H311 C324 0.960 . S
C312 H304 0.929 . S
C312 C313 1.377 1_556 S
C312 C314 1.384 . S
C313 C312 1.377 1_554 S
C313 C319 1.390 . S
C314 H305 0.930 . S
C314 C312 1.384 . S
C314 C315 1.393 . S
C315 C314 1.393 . S
C315 C316 1.375 1_556 S
C315 C320 1.494 . S
C316 H306 0.930 . S
C316 C315 1.375 1_554 S
C316 C319 1.386 . S
H317 C333 0.930 . S
H318 C334 0.931 . S
C319 H307 0.929 . S
C319 C313 1.390 . S
C319 C316 1.386 . S
C320 C315 1.494 . S
C320 C322 1.395 1_565 S
C320 C323 1.403 1_556 S
H321 C327 0.930 . S
C322 H308 0.930 . S
C322 C320 1.395 1_545 S
C322 C325 1.403 . S
C323 C320 1.403 1_554 S
C323 C324 1.524 . S
C323 C327 1.400 . S
C324 H309 0.960 . S
C324 H310 0.960 . S
C324 H311 0.960 . S
C324 C323 1.524 . S
C325 C322 1.403 . S
C325 C326 1.392 . S
C325 C329 1.495 . S
C326 C325 1.392 . S
C326 C327 1.385 1_546 S
C326 C328 1.478 . S
C327 H321 0.930 . S
C327 C323 1.400 . S
C327 C326 1.385 1_564 S
C328 C326 1.478 . S
C328 C330 1.381 . S
C328 C334 1.383 1_556 S
C329 C325 1.495 . S
C329 H335 0.959 . S
C329 H336 0.961 . S
C329 H337 0.960 . S
C330 C328 1.381 . S
C330 C331 1.394 . S
C330 H338 0.930 . S
C331 C330 1.394 . S
C331 C332 1.383 . S
C331 H339 0.929 . S
C332 C331 1.383 . S
C332 C333 1.377 1_556 S
C333 H317 0.930 . S
C333 C332 1.377 1_554 S
C333 C334 1.379 . S
C334 H318 0.931 . S
C334 C328 1.383 1_554 S
C334 C333 1.379 . S
H335 C329 0.959 . S
H336 C329 0.961 . S
H337 C329 0.960 . S
H338 C330 0.930 . S
H339 C331 0.929 . S
H340 C348 0.929 . S
H341 C350 0.930 . S
H342 C352 0.930 . S
H343 C355 0.929 . S
H344 C358 0.930 . S
H345 C360 0.960 . S
H346 C360 0.960 . S
H347 C360 0.960 . S
C348 H340 0.929 . S
C348 C349 1.377 . S
C348 C350 1.384 . S
C349 C348 1.377 . S
C349 C355 1.390 1_565 S
C350 H341 0.930 . S
C350 C348 1.384 . S
C350 C351 1.372 . S
C351 C350 1.372 . S
C351 C352 1.400 1_565 S
C351 C356 1.490 . S
C352 H342 0.930 . S
C352 C351 1.400 1_545 S
C352 C355 1.386 . S
H353 C369 0.930 . S
H354 C370 0.931 . S
C355 H343 0.929 . S
C355 C349 1.390 1_545 S
C355 C352 1.386 . S
C356 C351 1.490 . S
C356 C358 1.395 1_565 S
C356 C359 1.403 . S
H357 C363 0.930 . S
C358 H344 0.930 . S
C358 C356 1.395 1_545 S
C358 C361 1.403 . S
C359 C356 1.403 . S
C359 C360 1.524 . S
C359 C363 1.400 . S
C360 H345 0.960 . S
C360 H346 0.960 . S
C360 H347 0.960 . S
C360 C359 1.524 . S
C361 C358 1.403 . S
C361 C362 1.392 . S
C361 C365 1.495 . S
C362 C361 1.392 . S
C362 C363 1.385 1_545 S
C362 C364 1.478 . S
C363 H357 0.930 . S
C363 C359 1.400 . S
C363 C362 1.385 1_565 S
C364 C362 1.478 . S
C364 C366 1.381 1_545 S
C364 C370 1.383 . S
C365 C361 1.495 . S
C365 H371 0.959 . S
C365 H372 0.961 . S
C365 H373 0.960 . S
C366 C364 1.381 1_565 S
C366 C367 1.394 . S
C366 H374 0.930 . S
C367 C366 1.394 . S
C367 C368 1.383 1_565 S
C367 H375 0.929 . S
C368 C367 1.383 1_545 S
C368 C369 1.377 . S
C369 H353 0.930 . S
C369 C368 1.377 . S
C369 C370 1.379 . S
C370 H354 0.931 . S
C370 C364 1.383 . S
C370 C369 1.379 . S
H371 C365 0.959 . S
H372 C365 0.961 . S
H373 C365 0.960 . S
H374 C366 0.930 . S
H375 C367 0.929 . S
H376 C384 0.929 . S
H377 C386 0.930 . S
H378 C388 0.930 . S
H379 C391 0.929 . S
H380 C394 0.930 . S
H381 C396 0.960 . S
H382 C396 0.960 1_656 S
H383 C396 0.960 1_655 S
C384 H376 0.929 . S
C384 C385 1.354 1_556 S
C384 C386 1.384 . S
C385 C384 1.354 1_554 S
C385 C391 1.410 . S
C386 H377 0.930 . S
C386 C384 1.384 . S
C386 C387 1.372 . S
C387 C386 1.372 . S
C387 C388 1.400 1_556 S
C387 C392 1.490 . S
C388 H378 0.930 . S
C388 C387 1.400 1_554 S
C388 C391 1.386 . S
H389 C405 0.930 . S
H390 C406 0.931 . S
C391 H379 0.929 . S
C391 C385 1.410 . S
C391 C388 1.386 . S
C392 C387 1.490 . S
C392 C394 1.395 . S
C392 C395 1.403 1_656 S
H393 C399 0.931 . S
C394 H380 0.930 . S
C394 C392 1.395 . S
C394 C397 1.403 . S
C395 C392 1.403 1_454 S
C395 C396 1.526 . S
C395 C399 1.400 . S
C396 H381 0.960 . S
C396 H382 0.960 1_454 S
C396 H383 0.960 1_455 S
C396 C395 1.526 . S
C397 C394 1.403 . S
C397 C398 1.392 1_655 S
C397 C401 1.495 . S
C398 C397 1.392 1_455 S
C398 C399 1.382 1_556 S
C398 C400 1.478 . S
C399 H393 0.931 . S
C399 C395 1.400 . S
C399 C398 1.382 1_554 S
C400 C398 1.478 . S
C400 C402 1.381 . S
C400 C406 1.383 1_556 S
C401 C397 1.495 . S
C401 H407 0.959 . S
C401 H408 0.961 1_656 S
C401 H409 0.960 1_655 S
C402 C400 1.381 . S
C402 C403 1.394 . S
C402 H410 0.930 . S
C403 C402 1.394 . S
C403 C404 1.383 . S
C403 H411 0.929 . S
C404 C403 1.383 . S
C404 C405 1.377 1_556 S
C405 H389 0.930 . S
C405 C404 1.377 1_554 S
C405 C406 1.379 . S
C406 H390 0.931 . S
C406 C400 1.383 1_554 S
C406 C405 1.379 . S
H407 C401 0.959 . S
H408 C401 0.961 1_454 S
H409 C401 0.960 1_455 S
H410 C402 0.930 . S
H411 C403 0.929 . S
H412 C420 0.929 . S
H413 C422 0.930 . S
H414 C424 0.930 . S
H415 C427 0.929 . S
H416 C430 0.930 . S
H417 C432 0.960 . S
H418 C432 0.960 . S
H419 C432 0.960 . S
C420 H412 0.929 . S
C420 C421 1.377 . S
C420 C422 1.384 . S
C421 C420 1.377 . S
C421 C427 1.390 . S
C422 H413 0.930 . S
C422 C420 1.384 . S
C422 C423 1.372 . S
C423 C422 1.372 . S
C423 C424 1.400 . S
C423 C428 1.490 . S
C424 H414 0.930 . S
C424 C423 1.400 . S
C424 C427 1.386 . S
H425 C441 0.930 . S
H426 C442 0.931 . S
C427 H415 0.929 . S
C427 C421 1.390 . S
C427 C424 1.386 . S
C428 C423 1.490 . S
C428 C430 1.395 . S
C428 C431 1.403 . S
H429 C435 0.930 . S
C430 H416 0.930 . S
C430 C428 1.395 . S
C430 C433 1.403 1_455 S
C431 C428 1.403 . S
C431 C432 1.524 . S
C431 C435 1.400 1_455 S
C432 H417 0.960 . S
C432 H418 0.960 . S
C432 H419 0.960 . S
C432 C431 1.524 . S
C433 C430 1.403 1_655 S
C433 C434 1.392 . S
C433 C437 1.495 . S
C434 C433 1.392 . S
C434 C435 1.385 . S
C434 C436 1.478 . S
C435 H429 0.930 . S
C435 C431 1.400 1_655 S
C435 C434 1.385 . S
C436 C434 1.478 . S
C436 C438 1.381 . S
C436 C442 1.383 . S
C437 C433 1.495 . S
C437 H443 0.959 . S
C437 H444 0.961 . S
C437 H445 0.960 . S
C438 C436 1.381 . S
C438 C439 1.394 . S
C438 H446 0.930 . S
C439 C438 1.394 . S
C439 C440 1.383 . S
C439 H447 0.929 . S
C440 C439 1.383 . S
C440 C441 1.377 . S
C441 H425 0.930 . S
C441 C440 1.377 . S
C441 C442 1.379 . S
C442 H426 0.931 . S
C442 C436 1.383 . S
C442 C441 1.379 . S
H443 C437 0.959 . S
H444 C437 0.961 . S
H445 C437 0.960 . S
H446 C438 0.930 . S
H447 C439 0.929 . S
H448 C456 0.929 . S
H449 C458 0.930 . S
H450 C460 0.930 . S
H451 C463 0.929 . S
H452 C466 0.930 . S
H453 C468 0.960 . S
H454 C468 0.960 . S
H455 C468 0.960 . S
C456 H448 0.929 . S
C456 C457 1.377 1_465 S
C456 C458 1.384 . S
C457 C456 1.377 1_645 S
C457 C463 1.390 . S
C458 H449 0.930 . S
C458 C456 1.384 . S
C458 C459 1.372 1_565 S
C459 C458 1.372 1_545 S
C459 C460 1.400 1_455 S
C459 C464 1.490 . S
C460 H450 0.930 . S
C460 C459 1.400 1_655 S
C460 C463 1.386 . S
H461 C477 0.936 1_545 S
H462 C478 0.931 . S
C463 H451 0.929 . S
C463 C457 1.390 . S
C463 C460 1.386 . S
C464 C459 1.490 . S
C464 C466 1.385 1_545 S
C464 C467 1.412 1_455 S
H465 C471 0.930 . S
C466 H452 0.930 . S
C466 C464 1.385 1_565 S
C466 C469 1.403 . S
C467 C464 1.412 1_655 S
C467 C468 1.524 . S
C467 C471 1.400 . S
C468 H453 0.960 . S
C468 H454 0.960 . S
C468 H455 0.960 . S
C468 C467 1.524 . S
C469 C466 1.403 . S
C469 C470 1.392 . S
C469 C473 1.495 . S
C470 C469 1.392 . S
C470 C471 1.385 1_465 S
C470 C472 1.478 . S
C471 H465 0.930 . S
C471 C467 1.400 . S
C471 C470 1.385 1_645 S
C472 C470 1.478 . S
C472 C474 1.381 . S
C472 C478 1.383 1_455 S
C473 C469 1.495 . S
C473 H479 0.959 . S
C473 H480 0.961 . S
C473 H481 0.960 . S
C474 C472 1.381 . S
C474 C475 1.394 . S
C474 H482 0.930 . S
C475 C474 1.394 . S
C475 C476 1.380 . S
C475 H483 0.929 . S
C476 C475 1.380 . S
C476 C477 1.376 1_455 S
C477 H461 0.936 1_565 S
C477 C476 1.376 1_655 S
C477 C478 1.383 . S
C478 H462 0.931 . S
C478 C472 1.383 1_655 S
C478 C477 1.383 . S
H479 C473 0.959 . S
H480 C473 0.961 . S
H481 C473 0.960 . S
H482 C474 0.930 . S
H483 C475 0.929 . S
H484 C492 0.929 . S
H485 C494 0.930 . S
H486 C496 0.930 . S
H487 C499 0.929 . S
H488 C502 0.930 . S
H489 C504 0.960 . S
H490 C504 0.960 . S
H491 C504 0.960 1_455 S
C492 H484 0.929 . S
C492 C493 1.375 1_645 S
C492 C494 1.384 . S
C493 C492 1.375 1_465 S
C493 C499 1.392 . S
C494 H485 0.930 . S
C494 C492 1.384 . S
C494 C495 1.372 1_545 S
C495 C494 1.372 1_565 S
C495 C496 1.399 1_655 S
C495 C500 1.490 1_565 S
C496 H486 0.930 . S
C496 C495 1.399 1_455 S
C496 C499 1.386 . S
H497 C513 0.930 . S
H498 C514 0.931 . S
C499 H487 0.929 . S
C499 C493 1.392 . S
C499 C496 1.386 . S
C500 C495 1.490 1_545 S
C500 C502 1.395 . S
C500 C503 1.403 1_545 S
H501 C507 0.932 1_455 S
C502 H488 0.930 . S
C502 C500 1.395 . S
C502 C505 1.403 . S
C503 C500 1.403 1_565 S
C503 C504 1.524 . S
C503 C507 1.400 . S
C504 H489 0.960 . S
C504 H490 0.960 . S
C504 H491 0.960 1_655 S
C504 C503 1.524 . S
C505 C502 1.403 . S
C505 C506 1.392 . S
C505 C509 1.498 . S
C506 C505 1.392 . S
C506 C507 1.385 1_545 S
C506 C508 1.477 1_655 S
C507 H501 0.932 1_655 S
C507 C503 1.400 . S
C507 C506 1.385 1_565 S
C508 C506 1.477 1_455 S
C508 C510 1.381 1_455 S
C508 C514 1.383 1_545 S
C509 C505 1.498 . S
C509 H515 0.958 . S
C509 H516 0.950 1_655 S
C509 H517 0.968 . S
C510 C508 1.381 1_655 S
C510 C511 1.394 . S
C510 H518 0.930 . S
C511 C510 1.394 . S
C511 C512 1.383 1_655 S
C511 H519 0.929 . S
C512 C511 1.383 1_455 S
C512 C513 1.377 1_545 S
C513 H497 0.930 . S
C513 C512 1.377 1_565 S
C513 C514 1.379 . S
C514 H498 0.931 . S
C514 C508 1.383 1_565 S
C514 C513 1.379 . S
H515 C509 0.958 . S
H516 C509 0.950 1_455 S
H517 C509 0.968 . S
H518 C510 0.930 . S
H519 C511 0.929 . S
H520 C528 0.929 . S
H521 C530 0.930 . S
H522 C532 0.930 . S
H523 C535 0.929 . S
H524 C538 0.930 . S
H525 C540 0.960 . S
H526 C540 0.960 . S
H527 C540 0.960 . S
C528 H520 0.929 . S
C528 C529 1.377 . S
C528 C530 1.384 . S
C529 C528 1.377 . S
C529 C535 1.390 . S
C530 H521 0.930 . S
C530 C528 1.384 . S
C530 C531 1.372 . S
C531 C530 1.372 . S
C531 C532 1.400 . S
C531 C536 1.490 . S
C532 H522 0.930 . S
C532 C531 1.400 . S
C532 C535 1.386 . S
H533 C549 0.930 . S
H534 C550 0.931 . S
C535 H523 0.929 . S
C535 C529 1.390 . S
C535 C532 1.386 . S
C536 C531 1.490 . S
C536 C538 1.395 . S
C536 C539 1.403 . S
H537 C543 0.930 . S
C538 H524 0.930 . S
C538 C536 1.395 . S
C538 C541 1.403 . S
C539 C536 1.403 . S
C539 C540 1.524 . S
C539 C543 1.400 . S
C540 H525 0.960 . S
C540 H526 0.960 . S
C540 H527 0.960 . S
C540 C539 1.524 . S
C541 C538 1.403 . S
C541 C542 1.392 . S
C541 C545 1.495 . S
C542 C541 1.392 . S
C542 C543 1.385 . S
C542 C544 1.478 . S
C543 H537 0.930 . S
C543 C539 1.400 . S
C543 C542 1.385 . S
C544 C542 1.478 . S
C544 C546 1.381 . S
C544 C550 1.383 . S
C545 C541 1.495 . S
C545 H551 0.959 . S
C545 H552 0.961 . S
C545 H553 0.960 . S
C546 C544 1.381 . S
C546 C547 1.394 . S
C546 H554 0.930 . S
C547 C546 1.394 . S
C547 C548 1.383 . S
C547 H555 0.929 . S
C548 C547 1.383 . S
C548 C549 1.377 . S
C549 H533 0.930 . S
C549 C548 1.377 . S
C549 C550 1.379 . S
C550 H534 0.931 . S
C550 C544 1.383 . S
C550 C549 1.379 . S
H551 C545 0.959 . S
H552 C545 0.961 . S
H553 C545 0.960 . S
H554 C546 0.930 . S
H555 C547 0.929 . S
H556 C564 0.929 . S
H557 C566 0.930 . S
H558 C568 0.930 . S
H559 C571 0.929 . S
H560 C574 0.930 . S
H561 C576 0.960 . S
H562 C576 0.960 . S
H563 C576 0.960 . S
C564 H556 0.929 . S
C564 C565 1.377 . S
C564 C566 1.384 . S
C565 C564 1.377 . S
C565 C571 1.390 . S
C566 H557 0.930 . S
C566 C564 1.384 . S
C566 C567 1.372 . S
C567 C566 1.372 . S
C567 C568 1.400 . S
C567 C572 1.490 . S
C568 H558 0.930 . S
C568 C567 1.400 . S
C568 C571 1.386 . S
H569 C585 0.930 . S
H570 C586 0.931 . S
C571 H559 0.929 . S
C571 C565 1.390 . S
C571 C568 1.386 . S
C572 C567 1.490 . S
C572 C574 1.395 . S
C572 C575 1.403 . S
H573 C579 0.930 . S
C574 H560 0.930 . S
C574 C572 1.395 . S
C574 C577 1.403 . S
C575 C572 1.403 . S
C575 C576 1.524 . S
C575 C579 1.400 . S
C576 H561 0.960 . S
C576 H562 0.960 . S
C576 H563 0.960 . S
C576 C575 1.524 . S
C577 C574 1.403 . S
C577 C578 1.392 . S
C577 C581 1.495 . S
C578 C577 1.392 . S
C578 C579 1.385 . S
C578 C580 1.478 . S
C579 H573 0.930 . S
C579 C575 1.400 . S
C579 C578 1.385 . S
C580 C578 1.478 . S
C580 C582 1.381 . S
C580 C586 1.383 . S
C581 C577 1.495 . S
C581 H587 0.959 . S
C581 H588 0.961 . S
C581 H589 0.960 . S
C582 C580 1.381 . S
C582 C583 1.394 . S
C582 H590 0.930 . S
C583 C582 1.394 . S
C583 C584 1.383 . S
C583 H591 0.929 . S
C584 C583 1.383 . S
C584 C585 1.377 . S
C585 H569 0.930 . S
C585 C584 1.377 . S
C585 C586 1.379 . S
C586 H570 0.931 . S
C586 C580 1.383 . S
C586 C585 1.379 . S
H587 C581 0.959 . S
H588 C581 0.961 . S
H589 C581 0.960 . S
H590 C582 0.930 . S
H591 C583 0.929 . S
C169 C90 3.526 1_554 S
C188 C19 3.529 1_556 S
C205 C99 3.526 1_556 S
C224 C10 3.517 1_554 S
C241 C55 0.090 . S
C260 C126 0.101 . S
C277 C46 0.080 . S
C296 C135 0.160 . S
C313 C15 0.994 . S
C332 C6 1.020 . S
C349 C59 4.907 . S
C368 C50 4.898 . S
C385 C95 0.989 . S
C404 C86 1.033 . S
C421 C130 4.908 . S
C440 C139 4.905 . S
C457 C49 1.451 1_645 S
C476 C18 1.443 1_565 S
C493 C9 1.445 1_455 S
C512 C58 1.422 1_455 S
C529 C129 1.448 . S
C548 C98 1.465 . S
C565 C138 1.442 . S
C584 C89 1.426 . S
