# Generated by pormake.
# Topology sra, (4)-cn, num edge types: 1
# Building blocks:
#     Node 0, Type 0, BuildingBlock: QUQFOY_clean_sbu_1, # of connection points: 4
#     Node 1, Type 0, BuildingBlock: QUQFOY_clean_sbu_1, # of connection points: 4
#     Node 2, Type 0, BuildingBlock: QUQFOY_clean_sbu_1, # of connection points: 4
#     Node 3, Type 0, BuildingBlock: QUQFOY_clean_sbu_1, # of connection points: 4
#     Node 4, Type 0, BuildingBlock: QUQFOY_clean_sbu_1, # of connection points: 4
#     Node 5, Type 0, BuildingBlock: QUQFOY_clean_sbu_1, # of connection points: 4
#     Node 6, Type 0, BuildingBlock: QUQFOY_clean_sbu_1, # of connection points: 4
#     Node 7, Type 0, BuildingBlock: QUQFOY_clean_sbu_1, # of connection points: 4
#     Edge 8, Type (0, 0), BuildingBlock: XIVTED_clean_linker_0, # of connection points: 2
#     Edge 9, Type (0, 0), BuildingBlock: XIVTED_clean_linker_0, # of connection points: 2
#     Edge 10, Type (0, 0), BuildingBlock: XIVTED_clean_linker_0, # of connection points: 2
#     Edge 11, Type (0, 0), BuildingBlock: XIVTED_clean_linker_0, # of connection points: 2
#     Edge 12, Type (0, 0), BuildingBlock: XIVTED_clean_linker_0, # of connection points: 2
#     Edge 13, Type (0, 0), BuildingBlock: XIVTED_clean_linker_0, # of connection points: 2
#     Edge 14, Type (0, 0), BuildingBlock: XIVTED_clean_linker_0, # of connection points: 2
#     Edge 15, Type (0, 0), BuildingBlock: XIVTED_clean_linker_0, # of connection points: 2
#     Edge 16, Type (0, 0), BuildingBlock: XIVTED_clean_linker_0, # of connection points: 2
#     Edge 17, Type (0, 0), BuildingBlock: XIVTED_clean_linker_0, # of connection points: 2
#     Edge 18, Type (0, 0), BuildingBlock: XIVTED_clean_linker_0, # of connection points: 2
#     Edge 19, Type (0, 0), BuildingBlock: XIVTED_clean_linker_0, # of connection points: 2
#     Edge 20, Type (0, 0), BuildingBlock: XIVTED_clean_linker_0, # of connection points: 2
#     Edge 21, Type (0, 0), BuildingBlock: XIVTED_clean_linker_0, # of connection points: 2
#     Edge 22, Type (0, 0), BuildingBlock: XIVTED_clean_linker_0, # of connection points: 2
#     Edge 23, Type (0, 0), BuildingBlock: XIVTED_clean_linker_0, # of connection points: 2
# Relax obj value: 0.042
# Max RMSD: 0.079
# Mean RMSD: 0.079
data_MOF--net-sra--node1-QUQFOY_clean_sbu_1--edge1-XIVTED_clean_linker_0
_symmetry_space_group_name_H-M    P1
_symmetry_Int_Tables_number       1
_symmetry_cell_setting            triclinic
loop_
_symmetry_equiv_pos_as_xyz
'x, y, z'
_cell_length_a     28.660162
_cell_length_b     53.681373
_cell_length_c     34.032786
_cell_angle_alpha  90.005086
_cell_angle_beta   89.996221
_cell_angle_gamma 90.029222
loop_
_atom_site_label
_atom_site_type_symbol
_atom_site_fract_x
_atom_site_fract_y
_atom_site_fract_z
_atom_type_partial_charge
O0 O 0.95474 0.10433 0.15233 0.0
Cd1 Cd 0.0164 0.11255 0.124 0.0
Cd2 Cd 0.04976 0.11335 0.19706 0.0
O3 O 0.98613 0.09705 0.21041 0.0
O4 O 0.01395 0.09808 0.0699 0.0
O5 O 0.06004 0.0839 0.11715 0.0
C6 C 0.04397 0.08183 0.08187 0.0
C7 C 0.12153 0.0977 0.21865 0.0
C8 C 0.95073 0.09715 0.18778 0.0
C9 C 0.0449 0.16216 0.15324 0.0
O10 O 0.04901 0.15113 0.18613 0.0
O11 O 0.03592 0.14971 0.12233 0.0
O12 O 0.0932 0.10856 0.24261 0.0
O13 O 0.10806 0.09466 0.18279 0.0
O14 O 0.13246 0.40805 0.15662 0.0
Cd15 Cd 0.07179 0.39961 0.12688 0.0
Cd16 Cd 0.03721 0.39733 0.19942 0.0
O17 O 0.10013 0.41367 0.2148 0.0
O18 O 0.07669 0.41382 0.07272 0.0
O19 O 0.02821 0.42815 0.1181 0.0
C20 C 0.04589 0.43003 0.08334 0.0
C21 C 0.96425 0.41283 0.218 0.0
C22 C 0.1358 0.4144 0.19252 0.0
C23 C 0.04411 0.34928 0.1542 0.0
O24 O 0.03908 0.35971 0.18748 0.0
O25 O 0.05328 0.36232 0.12394 0.0
O26 O 0.99116 0.40199 0.24314 0.0
O27 O 0.9798 0.41591 0.18275 0.0
O28 O 0.95545 0.90755 0.84378 0.0
Cd29 Cd 0.01612 0.89936 0.87367 0.0
Cd30 Cd 0.05078 0.89715 0.80068 0.0
O31 O 0.98759 0.91322 0.7855 0.0
O32 O 1.01186 0.91413 0.92757 0.0
O33 O 0.05994 0.92788 0.88146 0.0
C34 C 0.0427 0.93016 0.9163 0.0
C35 C 0.12362 0.91284 0.78197 0.0
C36 C 0.95197 0.91385 0.80787 0.0
C37 C 0.04441 0.84914 0.84654 0.0
O38 O 0.04944 0.8596 0.81328 0.0
O39 O 0.03494 0.86212 0.87679 0.0
O40 O 0.0972 0.90147 0.75702 0.0
O41 O 0.10756 0.91635 0.81694 0.0
O42 O 0.13414 0.60364 0.84428 0.0
Cd43 Cd 0.07383 0.61224 0.8744 0.0
Cd44 Cd 0.03778 0.61335 0.80218 0.0
O45 O 0.1007 0.59709 0.78679 0.0
O46 O 0.07851 0.59815 0.92867 0.0
O47 O 0.03005 0.58382 0.88324 0.0
C48 C 0.04759 0.58198 0.91805 0.0
C49 C 0.9651 0.59748 0.78349 0.0
C50 C 0.13682 0.59679 0.80857 0.0
C51 C 0.04469 0.66204 0.84596 0.0
O52 O 0.03906 0.65111 0.81314 0.0
O53 O 0.05493 0.64949 0.87648 0.0
O54 O 0.99205 0.60828 0.75833 0.0
O55 O 0.98044 0.59466 0.81885 0.0
O56 O 0.45851 0.60223 0.65805 0.0
Cd57 Cd 0.51883 0.61051 0.62771 0.0
Cd58 Cd 0.55496 0.61215 0.69984 0.0
O59 O 0.49199 0.59604 0.71562 0.0
O60 O 0.51413 0.59591 0.57377 0.0
O61 O 0.5625 0.58199 0.61956 0.0
C62 C 0.54498 0.57983 0.58479 0.0
C63 C 0.62768 0.59655 0.7189 0.0
C64 C 0.45584 0.59565 0.69389 0.0
C65 C 0.54806 0.6605 0.65515 0.0
O66 O 0.55366 0.6498 0.68815 0.0
O67 O 0.53783 0.64774 0.62484 0.0
O68 O 0.60065 0.60752 0.74381 0.0
O69 O 0.61237 0.59338 0.68361 0.0
O70 O 0.62958 0.90691 0.65935 0.0
Cd71 Cd 0.57092 0.898 0.62719 0.0
Cd72 Cd 0.53386 0.89562 0.69822 0.0
O73 O 0.59556 0.91181 0.71683 0.0
O74 O 0.58447 0.91181 0.57418 0.0
O75 O 0.5272 0.92566 0.61202 0.0
C76 C 0.55146 0.9277 0.58018 0.0
C77 C 0.46078 0.91081 0.71689 0.0
C78 C 0.63183 0.91295 0.69539 0.0
C79 C 0.54374 0.84753 0.65271 0.0
O80 O 0.5364 0.85804 0.68564 0.0
O81 O 0.55459 0.86053 0.62281 0.0
O82 O 0.48739 0.89933 0.7415 0.0
O83 O 0.47652 0.91459 0.68182 0.0
O84 O 0.45792 0.40735 0.34372 0.0
Cd85 Cd 0.51873 0.39888 0.37317 0.0
Cd86 Cd 0.55341 0.39773 0.30041 0.0
O87 O 0.49019 0.41403 0.28578 0.0
O88 O 0.51475 0.41308 0.42743 0.0
O89 O 0.56238 0.42741 0.3814 0.0
C90 C 0.54532 0.42932 0.41636 0.0
C91 C 0.62621 0.4134 0.28154 0.0
C92 C 0.4545 0.41423 0.30807 0.0
C93 C 0.54721 0.34908 0.34433 0.0
O94 O 0.55202 0.36 0.31142 0.0
O95 O 0.53782 0.36164 0.37505 0.0
O96 O 0.59899 0.40278 0.25638 0.0
O97 O 0.611 0.41624 0.31693 0.0
O98 O 0.62837 0.10223 0.33545 0.0
Cd99 Cd 0.57066 0.11133 0.3687 0.0
Cd100 Cd 0.5326 0.11419 0.29786 0.0
O101 O 0.59386 0.09821 0.27797 0.0
O102 O 0.58612 0.09792 0.42164 0.0
O103 O 0.52755 0.08374 0.38562 0.0
C104 C 0.55287 0.082 0.41688 0.0
C105 C 0.45875 0.0985 0.28291 0.0
C106 C 0.63025 0.09663 0.2992 0.0
C107 C 0.54338 0.16202 0.34379 0.0
O108 O 0.53534 0.1517 0.31082 0.0
O109 O 0.55478 0.14886 0.37335 0.0
O110 O 0.48326 0.11014 0.25692 0.0
O111 O 0.4772 0.09479 0.31705 0.0
H112 H 0.0498 0.31942 0.08833 0.0
H113 H 0.05755 0.194 0.2148 0.0
H114 H 0.03461 0.31617 0.21448 0.0
H115 H 0.03817 0.19333 0.08895 0.0
H116 H 0.0568 0.23924 0.2137 0.0
H117 H 0.05128 0.27368 0.08652 0.0
C118 C 0.04653 0.30915 0.11558 0.0
C119 C 0.04212 0.32172 0.15163 0.0
C120 C 0.05273 0.22927 0.18626 0.0
C121 C 0.04438 0.26953 0.14975 0.0
C122 C 0.05338 0.20334 0.18681 0.0
C123 C 0.04773 0.18974 0.15191 0.0
C124 C 0.04662 0.2419 0.15053 0.0
C125 C 0.04254 0.20304 0.11658 0.0
C126 C 0.04743 0.28307 0.1145 0.0
C127 C 0.03806 0.3074 0.18598 0.0
N128 N 0.04207 0.22843 0.11678 0.0
N129 N 0.03954 0.28217 0.18418 0.0
H130 H 0.03886 0.81912 0.91227 0.0
H131 H 0.03104 0.69411 0.78489 0.0
H132 H 0.05453 0.81621 0.78614 0.0
H133 H 0.05263 0.69296 0.91047 0.0
H134 H 0.03165 0.73935 0.78646 0.0
H135 H 0.03785 0.77335 0.91378 0.0
C136 C 0.04234 0.80892 0.88497 0.0
C137 C 0.04673 0.82159 0.84901 0.0
C138 C 0.03625 0.72926 0.81374 0.0
C139 C 0.04499 0.76939 0.85055 0.0
C140 C 0.03567 0.70334 0.81292 0.0
C141 C 0.04198 0.68961 0.8476 0.0
C142 C 0.0429 0.74177 0.84952 0.0
C143 C 0.04777 0.70277 0.883 0.0
C144 C 0.04172 0.78282 0.88588 0.0
C145 C 0.05107 0.80736 0.81458 0.0
N146 N 0.0481 0.72816 0.88307 0.0
N147 N 0.04982 0.78213 0.81622 0.0
H148 H 0.56161 0.69295 0.71573 0.0
H149 H 0.55236 0.8174 0.58731 0.0
H150 H 0.53984 0.69103 0.59019 0.0
H151 H 0.53296 0.81467 0.71309 0.0
H152 H 0.55486 0.77163 0.58615 0.0
H153 H 0.56026 0.73817 0.71359 0.0
C154 C 0.5568 0.70201 0.68759 0.0
C155 C 0.5506 0.68807 0.65309 0.0
C156 C 0.54986 0.78115 0.61389 0.0
C157 C 0.54881 0.7402 0.65052 0.0
C158 C 0.5484 0.80724 0.6146 0.0
C159 C 0.54248 0.81995 0.65037 0.0
C160 C 0.54595 0.76779 0.64924 0.0
C161 C 0.53756 0.80579 0.6848 0.0
C162 C 0.55579 0.72792 0.68644 0.0
C163 C 0.5446 0.70102 0.61753 0.0
N164 N 0.53969 0.78057 0.68336 0.0
N165 N 0.54383 0.7264 0.61714 0.0
H166 H 0.55898 0.31706 0.28293 0.0
H167 H 0.55335 0.19176 0.40948 0.0
H168 H 0.54075 0.31809 0.4089 0.0
H169 H 0.53135 0.19524 0.28406 0.0
H170 H 0.5557 0.23752 0.41132 0.0
H171 H 0.55777 0.27183 0.28432 0.0
C172 C 0.55497 0.3078 0.31101 0.0
C173 C 0.54975 0.3215 0.34586 0.0
C174 C 0.55016 0.22817 0.38352 0.0
C175 C 0.54814 0.26935 0.34757 0.0
C176 C 0.54879 0.20208 0.38242 0.0
C177 C 0.54217 0.18958 0.34655 0.0
C178 C 0.54545 0.24174 0.34845 0.0
C179 C 0.5365 0.20395 0.31242 0.0
C180 C 0.55405 0.28189 0.31173 0.0
C181 C 0.54476 0.3083 0.3813 0.0
N182 N 0.53854 0.22917 0.31422 0.0
N183 N 0.54405 0.28291 0.38127 0.0
H184 H 0.39327 0.08036 0.33434 0.0
H185 H 0.15815 0.0982 0.29297 0.0
H186 H 0.41218 0.10107 0.21284 0.0
H187 H 0.19461 0.08298 0.17231 0.0
H188 H 0.23984 0.09322 0.31134 0.0
H189 H 0.31004 0.07428 0.32178 0.0
C190 C 0.37998 0.08348 0.30496 0.0
C191 C 0.40965 0.09161 0.27473 0.0
C192 C 0.22997 0.09024 0.28102 0.0
C193 C 0.31416 0.08532 0.26035 0.0
C194 C 0.18322 0.09329 0.27045 0.0
C195 C 0.16949 0.09108 0.23102 0.0
C196 C 0.26338 0.0851 0.25187 0.0
C197 C 0.20358 0.08483 0.20307 0.0
C198 C 0.33229 0.08028 0.2979 0.0
C199 C 0.39054 0.0951 0.23715 0.0
N200 N 0.24903 0.08246 0.21394 0.0
N201 N 0.34401 0.09207 0.23109 0.0
H202 H 0.66594 0.4149 0.20833 0.0
H203 H 0.92436 0.41443 0.29111 0.0
H204 H 0.69758 0.42617 0.33103 0.0
H205 H 0.89307 0.42568 0.16835 0.0
H206 H 0.84165 0.41991 0.30653 0.0
H207 H 0.74873 0.42006 0.19281 0.0
C208 C 0.69021 0.41879 0.23195 0.0
C209 C 0.67485 0.41993 0.27107 0.0
C210 C 0.85295 0.42152 0.27627 0.0
C211 C 0.76977 0.42548 0.25358 0.0
C212 C 0.90018 0.41837 0.26744 0.0
C213 C 0.91562 0.41943 0.22835 0.0
C214 C 0.82076 0.42536 0.24573 0.0
C215 C 0.88272 0.42466 0.1989 0.0
C216 C 0.73748 0.42175 0.22307 0.0
C217 C 0.70786 0.42508 0.30047 0.0
N218 N 0.83677 0.42707 0.20812 0.0
N219 N 0.75383 0.42731 0.29119 0.0
H220 H 0.18969 0.93379 0.8298 0.0
H221 H 0.42296 0.91237 0.79047 0.0
H222 H 0.16895 0.90688 0.71156 0.0
H223 H 0.38827 0.92388 0.66845 0.0
H224 H 0.34121 0.91808 0.80769 0.0
H225 H 0.27258 0.9392 0.81567 0.0
C226 C 0.2025 0.92915 0.80077 0.0
C227 C 0.1724 0.91947 0.77202 0.0
C228 C 0.35145 0.92009 0.77726 0.0
C229 C 0.26768 0.92494 0.75596 0.0
C230 C 0.39822 0.91659 0.76735 0.0
C231 C 0.41249 0.91763 0.72796 0.0
C232 C 0.31845 0.92448 0.7475 0.0
C233 C 0.37882 0.92302 0.69922 0.0
C234 C 0.25002 0.93198 0.79286 0.0
C235 C 0.19095 0.91411 0.73477 0.0
N236 N 0.33322 0.92585 0.7095 0.0
N237 N 0.23746 0.91676 0.7279 0.0
H238 H 0.66708 0.59524 0.79219 0.0
H239 H 0.92569 0.59541 0.71024 0.0
H240 H 0.69911 0.58343 0.66969 0.0
H241 H 0.8938 0.58456 0.83299 0.0
H242 H 0.8431 0.5897 0.69456 0.0
H243 H 0.74973 0.59001 0.80799 0.0
C244 C 0.6914 0.59122 0.76867 0.0
C245 C 0.6762 0.58996 0.72953 0.0
C246 C 0.85425 0.58822 0.72487 0.0
C247 C 0.77098 0.58431 0.74733 0.0
C248 C 0.90141 0.59151 0.73385 0.0
C249 C 0.91663 0.59065 0.77301 0.0
C250 C 0.82192 0.58446 0.75534 0.0
C251 C 0.88361 0.58545 0.80239 0.0
C252 C 0.7386 0.58821 0.77772 0.0
C253 C 0.70928 0.58463 0.70027 0.0
N254 N 0.83773 0.58291 0.79302 0.0
N255 N 0.75519 0.58236 0.70969 0.0
H256 H 0.65396 0.92002 0.7732 0.0
H257 H 0.92869 0.9238 0.73117 0.0
H258 H 0.71469 0.9201 0.65709 0.0
H259 H 0.86878 0.91749 0.84718 0.0
H260 H 0.8503 0.92875 0.70406 0.0
H261 H 0.73197 0.92537 0.80118 0.0
C262 C 0.68357 0.92148 0.75355 0.0
C263 C 0.67775 0.91932 0.71273 0.0
C264 C 0.85434 0.92651 0.7355 0.0
C265 C 0.76719 0.9253 0.74458 0.0
C266 C 0.89915 0.92374 0.75103 0.0
C267 C 0.9054 0.91993 0.79149 0.0
C268 C 0.81541 0.92545 0.76056 0.0
C269 C 0.8657 0.92014 0.81575 0.0
C270 C 0.72814 0.92446 0.76956 0.0
C271 C 0.71747 0.9214 0.68874 0.0
N272 N 0.82244 0.92261 0.79988 0.0
N273 N 0.76045 0.92407 0.70503 0.0
H274 H 0.43394 0.58683 0.7712 0.0
H275 H 0.15865 0.58705 0.73152 0.0
H276 H 0.37216 0.59091 0.65566 0.0
H277 H 0.22046 0.59231 0.84694 0.0
H278 H 0.23649 0.58163 0.70348 0.0
H279 H 0.35603 0.58199 0.79941 0.0
C280 C 0.4041 0.5864 0.75169 0.0
C281 C 0.40965 0.58957 0.711 0.0
C282 C 0.23297 0.58374 0.73498 0.0
C283 C 0.32027 0.58415 0.74319 0.0
C284 C 0.18848 0.58677 0.75105 0.0
C285 C 0.18296 0.59043 0.79164 0.0
C286 C 0.27228 0.58434 0.75964 0.0
C287 C 0.22299 0.5898 0.81545 0.0
C288 C 0.35957 0.58371 0.76785 0.0
C289 C 0.3696 0.58878 0.68722 0.0
N290 N 0.26593 0.58703 0.79907 0.0
N291 N 0.32664 0.58635 0.70368 0.0
H292 H 0.65236 0.09143 0.22099 0.0
H293 H 0.92678 0.08493 0.26347 0.0
H294 H 0.71273 0.0878 0.33708 0.0
H295 H 0.8677 0.09523 0.14789 0.0
H296 H 0.84817 0.07952 0.28987 0.0
H297 H 0.73036 0.0864 0.1928 0.0
C298 C 0.68187 0.08924 0.24057 0.0
C299 C 0.67599 0.09034 0.28148 0.0
C300 C 0.85243 0.08274 0.25866 0.0
C301 C 0.76538 0.08471 0.24942 0.0
C302 C 0.89737 0.08578 0.24354 0.0
C303 C 0.90393 0.09084 0.20345 0.0
C304 C 0.81367 0.08479 0.23357 0.0
C305 C 0.86438 0.09161 0.17905 0.0
C306 C 0.72643 0.08645 0.22445 0.0
C307 C 0.71557 0.08735 0.30537 0.0
N308 N 0.82097 0.08885 0.19455 0.0
N309 N 0.75854 0.08488 0.289 0.0
H310 H 0.21813 0.42066 0.15281 0.0
H311 H 0.37208 0.41949 0.34799 0.0
H312 H 0.15976 0.42197 0.26975 0.0
H313 H 0.43043 0.42286 0.23114 0.0
H314 H 0.29429 0.42463 0.32006 0.0
H315 H 0.29586 0.42571 0.18093 0.0
C316 C 0.22155 0.42227 0.1844 0.0
C317 C 0.18228 0.42062 0.20896 0.0
C318 C 0.32411 0.42451 0.30053 0.0
C319 C 0.2715 0.42622 0.24142 0.0
C320 C 0.36864 0.42157 0.31646 0.0
C321 C 0.40793 0.42047 0.29186 0.0
C322 C 0.31864 0.42618 0.25961 0.0
C323 C 0.4012 0.42346 0.25125 0.0
C324 C 0.26604 0.42516 0.20045 0.0
C325 C 0.18898 0.42301 0.24967 0.0
N326 N 0.35739 0.4259 0.23639 0.0
N327 N 0.23275 0.42541 0.26463 0.0
H328 H 0.07592 0.03648 0.10609 0.0
H329 H 0.07751 0.97506 0.89278 0.0
H330 H 0.03817 0.07756 0.00186 0.0
H331 H 0.03412 0.93464 0.99612 0.0
H332 H 0.08707 0.01259 0.9331 0.0
H333 H 0.08466 0.99882 0.06595 0.0
C334 C 0.0704 0.03769 0.07466 0.0
C335 C 0.05601 0.06011 0.05723 0.0
C336 C 0.07608 0.99538 0.94692 0.0
C337 C 0.06638 0.01729 0.01141 0.0
C338 C 0.07086 0.97396 0.92407 0.0
C339 C 0.0547 0.95178 0.94117 0.0
C340 C 0.06605 0.99444 0.98722 0.0
C341 C 0.04632 0.95143 0.98178 0.0
C342 C 0.07512 0.0162 0.05191 0.0
C343 C 0.049 0.0606 0.01644 0.0
N344 N 0.05209 0.97247 0.00349 0.0
N345 N 0.05424 0.03947 0.99485 0.0
H346 H 0.05616 0.5787 0.99796 0.0
H347 H 0.05414 0.43327 0.00343 0.0
H348 H 0.01384 0.53655 0.89605 0.0
H349 H 0.01334 0.47567 0.1055 0.0
H350 H 0.04481 0.47078 0.96304 0.0
H351 H 0.04593 0.54127 0.03843 0.0
C352 C 0.04417 0.56165 0.98423 0.0
C353 C 0.03591 0.56066 0.94364 0.0
C354 C 0.03724 0.47173 0.99419 0.0
C355 C 0.02524 0.51784 0.98942 0.0
C356 C 0.04266 0.4504 0.01722 0.0
C357 C 0.03457 0.45143 0.05782 0.0
C358 C 0.02495 0.49435 0.01212 0.0
C359 C 0.01977 0.47408 0.07425 0.0
C360 C 0.03823 0.54037 0.0073 0.0
C361 C 0.02043 0.53811 0.92728 0.0
N362 N 0.01626 0.4948 0.05146 0.0
N363 N 0.01641 0.51744 0.95011 0.0
H364 H 0.57871 0.47466 0.39352 0.0
H365 H 0.5784 0.53454 0.60783 0.0
H366 H 0.53747 0.43308 0.49633 0.0
H367 H 0.53705 0.57593 0.50488 0.0
H368 H 0.58738 0.49721 0.56694 0.0
H369 H 0.58749 0.51196 0.4345 0.0
C370 C 0.57239 0.47326 0.42482 0.0
C371 C 0.55705 0.45081 0.44159 0.0
C372 C 0.57696 0.51458 0.55335 0.0
C373 C 0.5675 0.4932 0.48838 0.0
C374 C 0.57209 0.53589 0.57651 0.0
C375 C 0.55668 0.55829 0.55967 0.0
C376 C 0.56738 0.51587 0.513 0.0
C377 C 0.54868 0.55897 0.51902 0.0
C378 C 0.57715 0.49455 0.44804 0.0
C379 C 0.54905 0.45007 0.48225 0.0
N380 N 0.55414 0.53803 0.497 0.0
N381 N 0.55437 0.471 0.50433 0.0
H382 H 0.47483 0.95816 0.57113 0.0
H383 H 0.61757 0.06434 0.46805 0.0
H384 H 0.61558 0.94671 0.52979 0.0
H385 H 0.47719 0.05097 0.42715 0.0
H386 H 0.6134 0.02617 0.50693 0.0
H387 H 0.47085 0.99666 0.53162 0.0
C388 C 0.5046 0.96359 0.55349 0.0
C389 C 0.54556 0.94922 0.55359 0.0
C390 C 0.5834 0.03177 0.4897 0.0
C391 C 0.54167 0.99323 0.50992 0.0
C392 C 0.58554 0.05362 0.46777 0.0
C393 C 0.5477 0.06079 0.44422 0.0
C394 C 0.54281 0.01723 0.48885 0.0
C395 C 0.50718 0.04601 0.44482 0.0
C396 C 0.50227 0.98546 0.5311 0.0
C397 C 0.58323 0.95711 0.53039 0.0
N398 N 0.50567 0.02486 0.46696 0.0
N399 N 0.58064 0.97878 0.51001 0.0
loop_
_geom_bond_atom_site_label_1
_geom_bond_atom_site_label_2
_geom_bond_distance
_geom_bond_site_symmetry_2
_ccdc_geom_bond_type
O0 Cd1 2.223 . S
O0 C8 1.315 . S
Cd1 O0 2.223 . S
Cd1 O4 2.297 . S
Cd1 O5 2.439 1_655 S
Cd1 O11 2.240 1_655 S
Cd2 O3 2.240 1_455 S
Cd2 O10 2.223 . S
Cd2 O12 2.297 . S
Cd2 O13 2.439 . S
O3 Cd2 2.240 1_655 S
O3 C8 1.279 . S
O4 Cd1 2.297 . S
O4 C6 1.243 1_655 S
O5 Cd1 2.439 1_455 S
O5 C6 1.212 . S
C6 O4 1.243 1_455 S
C6 O5 1.212 . S
C7 O12 1.247 . S
C7 O13 1.208 . S
C8 O0 1.315 . S
C8 O3 1.279 . S
C9 O10 1.315 . S
C9 O11 1.279 . S
O10 Cd2 2.223 . S
O10 C9 1.315 . S
O11 Cd1 2.240 1_455 S
O11 C9 1.279 . S
O12 Cd2 2.297 . S
O12 C7 1.247 . S
O13 Cd2 2.439 . S
O13 C7 1.208 . S
O14 Cd15 2.223 . S
O14 C22 1.315 . S
Cd15 O14 2.223 . S
Cd15 O18 2.297 . S
Cd15 O19 2.439 . S
Cd15 O25 2.240 . S
Cd16 O17 2.240 . S
Cd16 O24 2.223 . S
Cd16 O26 2.297 1_455 S
Cd16 O27 2.439 1_455 S
O17 Cd16 2.240 . S
O17 C22 1.279 . S
O18 Cd15 2.297 . S
O18 C20 1.247 . S
O19 Cd15 2.439 . S
O19 C20 1.208 . S
C20 O18 1.247 . S
C20 O19 1.208 . S
C21 O26 1.247 . S
C21 O27 1.208 . S
C22 O14 1.315 . S
C22 O17 1.279 . S
C23 O24 1.315 . S
C23 O25 1.279 . S
O24 Cd16 2.223 . S
O24 C23 1.315 . S
O25 Cd15 2.240 . S
O25 C23 1.279 . S
O26 Cd16 2.297 1_655 S
O26 C21 1.247 . S
O27 Cd16 2.439 1_655 S
O27 C21 1.208 . S
O28 Cd29 2.223 . S
O28 C36 1.315 . S
Cd29 O28 2.223 . S
Cd29 O32 2.297 . S
Cd29 O33 2.439 1_655 S
Cd29 O39 2.240 1_655 S
Cd30 O31 2.240 1_455 S
Cd30 O38 2.223 . S
Cd30 O40 2.297 . S
Cd30 O41 2.439 . S
O31 Cd30 2.240 1_655 S
O31 C36 1.279 . S
O32 Cd29 2.297 . S
O32 C34 1.243 1_655 S
O33 Cd29 2.439 1_455 S
O33 C34 1.212 . S
C34 O32 1.243 1_455 S
C34 O33 1.212 . S
C35 O40 1.247 . S
C35 O41 1.208 . S
C36 O28 1.315 . S
C36 O31 1.279 . S
C37 O38 1.315 . S
C37 O39 1.279 . S
O38 Cd30 2.223 . S
O38 C37 1.315 . S
O39 Cd29 2.240 1_455 S
O39 C37 1.279 . S
O40 Cd30 2.297 . S
O40 C35 1.247 . S
O41 Cd30 2.439 . S
O41 C35 1.208 . S
O42 Cd43 2.223 . S
O42 C50 1.315 . S
Cd43 O42 2.223 . S
Cd43 O46 2.297 . S
Cd43 O47 2.439 . S
Cd43 O53 2.240 . S
Cd44 O45 2.240 . S
Cd44 O52 2.223 . S
Cd44 O54 2.297 1_455 S
Cd44 O55 2.439 1_455 S
O45 Cd44 2.240 . S
O45 C50 1.279 . S
O46 Cd43 2.297 . S
O46 C48 1.247 . S
O47 Cd43 2.439 . S
O47 C48 1.208 . S
C48 O46 1.247 . S
C48 O47 1.208 . S
C49 O54 1.247 . S
C49 O55 1.208 . S
C50 O42 1.315 . S
C50 O45 1.279 . S
C51 O52 1.315 . S
C51 O53 1.279 . S
O52 Cd44 2.223 . S
O52 C51 1.315 . S
O53 Cd43 2.240 . S
O53 C51 1.279 . S
O54 Cd44 2.297 1_655 S
O54 C49 1.247 . S
O55 Cd44 2.439 1_655 S
O55 C49 1.208 . S
O56 Cd57 2.223 . S
O56 C64 1.315 . S
Cd57 O56 2.223 . S
Cd57 O60 2.297 . S
Cd57 O61 2.439 . S
Cd57 O67 2.240 . S
Cd58 O59 2.240 . S
Cd58 O66 2.223 . S
Cd58 O68 2.297 . S
Cd58 O69 2.439 . S
O59 Cd58 2.240 . S
O59 C64 1.279 . S
O60 Cd57 2.297 . S
O60 C62 1.247 . S
O61 Cd57 2.439 . S
O61 C62 1.208 . S
C62 O60 1.247 . S
C62 O61 1.208 . S
C63 O68 1.247 . S
C63 O69 1.208 . S
C64 O56 1.315 . S
C64 O59 1.279 . S
C65 O66 1.315 . S
C65 O67 1.279 . S
O66 Cd58 2.223 . S
O66 C65 1.315 . S
O67 Cd57 2.240 . S
O67 C65 1.279 . S
O68 Cd58 2.297 . S
O68 C63 1.247 . S
O69 Cd58 2.439 . S
O69 C63 1.208 . S
O70 Cd71 2.223 . S
O70 C78 1.315 . S
Cd71 O70 2.223 . S
Cd71 O74 2.297 . S
Cd71 O75 2.439 . S
Cd71 O81 2.240 . S
Cd72 O73 2.240 . S
Cd72 O80 2.223 . S
Cd72 O82 2.297 . S
Cd72 O83 2.439 . S
O73 Cd72 2.240 . S
O73 C78 1.279 . S
O74 Cd71 2.297 . S
O74 C76 1.247 . S
O75 Cd71 2.439 . S
O75 C76 1.208 . S
C76 O74 1.247 . S
C76 O75 1.208 . S
C77 O82 1.247 . S
C77 O83 1.208 . S
C78 O70 1.315 . S
C78 O73 1.279 . S
C79 O80 1.315 . S
C79 O81 1.279 . S
O80 Cd72 2.223 . S
O80 C79 1.315 . S
O81 Cd71 2.240 . S
O81 C79 1.279 . S
O82 Cd72 2.297 . S
O82 C77 1.247 . S
O83 Cd72 2.439 . S
O83 C77 1.208 . S
O84 Cd85 2.223 . S
O84 C92 1.315 . S
Cd85 O84 2.223 . S
Cd85 O88 2.297 . S
Cd85 O89 2.439 . S
Cd85 O95 2.240 . S
Cd86 O87 2.240 . S
Cd86 O94 2.223 . S
Cd86 O96 2.297 . S
Cd86 O97 2.439 . S
O87 Cd86 2.240 . S
O87 C92 1.279 . S
O88 Cd85 2.297 . S
O88 C90 1.247 . S
O89 Cd85 2.439 . S
O89 C90 1.208 . S
C90 O88 1.247 . S
C90 O89 1.208 . S
C91 O96 1.247 . S
C91 O97 1.208 . S
C92 O84 1.315 . S
C92 O87 1.279 . S
C93 O94 1.315 . S
C93 O95 1.279 . S
O94 Cd86 2.223 . S
O94 C93 1.315 . S
O95 Cd85 2.240 . S
O95 C93 1.279 . S
O96 Cd86 2.297 . S
O96 C91 1.247 . S
O97 Cd86 2.439 . S
O97 C91 1.208 . S
O98 Cd99 2.223 . S
O98 C106 1.315 . S
Cd99 O98 2.223 . S
Cd99 O102 2.297 . S
Cd99 O103 2.439 . S
Cd99 O109 2.240 . S
Cd100 O101 2.240 . S
Cd100 O108 2.223 . S
Cd100 O110 2.297 . S
Cd100 O111 2.439 . S
O101 Cd100 2.240 . S
O101 C106 1.279 . S
O102 Cd99 2.297 . S
O102 C104 1.247 . S
O103 Cd99 2.439 . S
O103 C104 1.208 . S
C104 O102 1.247 . S
C104 O103 1.208 . S
C105 O110 1.247 . S
C105 O111 1.208 . S
C106 O98 1.315 . S
C106 O101 1.279 . S
C107 O108 1.315 . S
C107 O109 1.279 . S
O108 Cd100 2.223 . S
O108 C107 1.315 . S
O109 Cd99 2.240 . S
O109 C107 1.279 . S
O110 Cd100 2.297 . S
O110 C105 1.247 . S
O111 Cd100 2.439 . S
O111 C105 1.208 . S
H112 C118 0.930 . S
H113 C122 0.930 . S
H114 C127 0.929 . S
H115 C125 0.929 . S
H116 C120 0.929 . S
H117 C126 0.929 . S
C118 H112 0.930 . S
C118 C119 1.367 . S
C118 C126 1.378 . S
C119 C118 1.367 . S
C119 C127 1.433 . S
C120 H116 0.929 . S
C120 C122 1.378 . S
C120 C124 1.350 . S
C121 C124 1.463 . S
C121 C126 1.350 . S
C121 N129 1.427 . S
C122 H113 0.930 . S
C122 C120 1.378 . S
C122 C123 1.367 . S
C123 C122 1.367 . S
C123 C125 1.433 . S
C124 C120 1.350 . S
C124 C121 1.463 . S
C124 N128 1.427 . S
C125 H115 0.929 . S
C125 C123 1.433 . S
C125 N128 1.384 . S
C126 H117 0.929 . S
C126 C118 1.378 . S
C126 C121 1.350 . S
C127 H114 0.929 . S
C127 C119 1.433 . S
C127 N129 1.384 . S
N128 C124 1.427 . S
N128 C125 1.384 . S
N129 C121 1.427 . S
N129 C127 1.384 . S
H130 C136 0.930 . S
H131 C140 0.930 . S
H132 C145 0.929 . S
H133 C143 0.929 1_655 S
H134 C138 0.929 . S
H135 C144 0.929 . S
C136 H130 0.930 . S
C136 C137 1.367 1_655 S
C136 C144 1.378 . S
C137 C136 1.367 1_455 S
C137 C145 1.433 . S
C138 H134 0.929 . S
C138 C140 1.378 . S
C138 C142 1.350 . S
C139 C142 1.463 . S
C139 C144 1.350 1_455 S
C139 N147 1.427 . S
C140 H131 0.930 . S
C140 C138 1.378 . S
C140 C141 1.367 . S
C141 C140 1.367 . S
C141 C143 1.433 . S
C142 C138 1.350 . S
C142 C139 1.463 . S
C142 N146 1.427 . S
C143 H133 0.929 1_455 S
C143 C141 1.433 . S
C143 N146 1.384 . S
C144 H135 0.929 . S
C144 C136 1.378 . S
C144 C139 1.350 1_655 S
C145 H132 0.929 . S
C145 C137 1.433 . S
C145 N147 1.384 . S
N146 C142 1.427 . S
N146 C143 1.384 . S
N147 C139 1.427 . S
N147 C145 1.384 . S
H148 C154 0.930 . S
H149 C158 0.930 . S
H150 C163 0.929 . S
H151 C161 0.929 . S
H152 C156 0.929 . S
H153 C162 0.929 . S
C154 H148 0.930 . S
C154 C155 1.367 . S
C154 C162 1.378 . S
C155 C154 1.367 . S
C155 C163 1.433 . S
C156 H152 0.929 . S
C156 C158 1.378 . S
C156 C160 1.350 . S
C157 C160 1.463 . S
C157 C162 1.350 . S
C157 N165 1.427 . S
C158 H149 0.930 . S
C158 C156 1.378 . S
C158 C159 1.367 . S
C159 C158 1.367 . S
C159 C161 1.433 . S
C160 C156 1.350 . S
C160 C157 1.463 . S
C160 N164 1.427 . S
C161 H151 0.929 . S
C161 C159 1.433 . S
C161 N164 1.384 . S
C162 H153 0.929 . S
C162 C154 1.378 . S
C162 C157 1.350 . S
C163 H150 0.929 . S
C163 C155 1.433 . S
C163 N165 1.384 . S
N164 C160 1.427 . S
N164 C161 1.384 . S
N165 C157 1.427 . S
N165 C163 1.384 . S
H166 C172 0.930 . S
H167 C176 0.930 . S
H168 C181 0.929 . S
H169 C179 0.929 . S
H170 C174 0.929 . S
H171 C180 0.929 . S
C172 H166 0.930 . S
C172 C173 1.367 . S
C172 C180 1.378 . S
C173 C172 1.367 . S
C173 C181 1.433 . S
C174 H170 0.929 . S
C174 C176 1.378 . S
C174 C178 1.350 . S
C175 C178 1.463 . S
C175 C180 1.350 . S
C175 N183 1.427 . S
C176 H167 0.930 . S
C176 C174 1.378 . S
C176 C177 1.367 . S
C177 C176 1.367 . S
C177 C179 1.433 . S
C178 C174 1.350 . S
C178 C175 1.463 . S
C178 N182 1.427 . S
C179 H169 0.929 . S
C179 C177 1.433 . S
C179 N182 1.384 . S
C180 H171 0.929 . S
C180 C172 1.378 . S
C180 C175 1.350 . S
C181 H168 0.929 . S
C181 C173 1.433 . S
C181 N183 1.384 . S
N182 C178 1.427 . S
N182 C179 1.384 . S
N183 C175 1.427 . S
N183 C181 1.384 . S
H184 C190 0.930 . S
H185 C194 0.930 . S
H186 C199 0.929 . S
H187 C197 0.929 . S
H188 C192 0.929 . S
H189 C198 0.929 . S
C190 H184 0.930 . S
C190 C191 1.367 . S
C190 C198 1.378 . S
C191 C190 1.367 . S
C191 C199 1.433 . S
C192 H188 0.929 . S
C192 C194 1.378 . S
C192 C196 1.350 . S
C193 C196 1.463 . S
C193 C198 1.350 . S
C193 N201 1.427 . S
C194 H185 0.930 . S
C194 C192 1.378 . S
C194 C195 1.367 . S
C195 C194 1.367 . S
C195 C197 1.433 . S
C196 C192 1.350 . S
C196 C193 1.463 . S
C196 N200 1.427 . S
C197 H187 0.929 . S
C197 C195 1.433 . S
C197 N200 1.384 . S
C198 H189 0.929 . S
C198 C190 1.378 . S
C198 C193 1.350 . S
C199 H186 0.929 . S
C199 C191 1.433 . S
C199 N201 1.384 . S
N200 C196 1.427 . S
N200 C197 1.384 . S
N201 C193 1.427 . S
N201 C199 1.384 . S
H202 C208 0.930 . S
H203 C212 0.930 . S
H204 C217 0.929 . S
H205 C215 0.929 . S
H206 C210 0.929 . S
H207 C216 0.929 . S
C208 H202 0.930 . S
C208 C209 1.367 . S
C208 C216 1.378 . S
C209 C208 1.367 . S
C209 C217 1.433 . S
C210 H206 0.929 . S
C210 C212 1.378 . S
C210 C214 1.350 . S
C211 C214 1.463 . S
C211 C216 1.350 . S
C211 N219 1.427 . S
C212 H203 0.930 . S
C212 C210 1.378 . S
C212 C213 1.367 . S
C213 C212 1.367 . S
C213 C215 1.433 . S
C214 C210 1.350 . S
C214 C211 1.463 . S
C214 N218 1.427 . S
C215 H205 0.929 . S
C215 C213 1.433 . S
C215 N218 1.384 . S
C216 H207 0.929 . S
C216 C208 1.378 . S
C216 C211 1.350 . S
C217 H204 0.929 . S
C217 C209 1.433 . S
C217 N219 1.384 . S
N218 C214 1.427 . S
N218 C215 1.384 . S
N219 C211 1.427 . S
N219 C217 1.384 . S
H220 C226 0.930 . S
H221 C230 0.930 . S
H222 C235 0.929 . S
H223 C233 0.929 . S
H224 C228 0.929 . S
H225 C234 0.929 . S
C226 H220 0.930 . S
C226 C227 1.367 . S
C226 C234 1.378 . S
C227 C226 1.367 . S
C227 C235 1.433 . S
C228 H224 0.929 . S
C228 C230 1.378 . S
C228 C232 1.350 . S
C229 C232 1.463 . S
C229 C234 1.350 . S
C229 N237 1.427 . S
C230 H221 0.930 . S
C230 C228 1.378 . S
C230 C231 1.367 . S
C231 C230 1.367 . S
C231 C233 1.433 . S
C232 C228 1.350 . S
C232 C229 1.463 . S
C232 N236 1.427 . S
C233 H223 0.929 . S
C233 C231 1.433 . S
C233 N236 1.384 . S
C234 H225 0.929 . S
C234 C226 1.378 . S
C234 C229 1.350 . S
C235 H222 0.929 . S
C235 C227 1.433 . S
C235 N237 1.384 . S
N236 C232 1.427 . S
N236 C233 1.384 . S
N237 C229 1.427 . S
N237 C235 1.384 . S
H238 C244 0.930 . S
H239 C248 0.930 . S
H240 C253 0.929 . S
H241 C251 0.929 . S
H242 C246 0.929 . S
H243 C252 0.929 . S
C244 H238 0.930 . S
C244 C245 1.367 . S
C244 C252 1.378 . S
C245 C244 1.367 . S
C245 C253 1.433 . S
C246 H242 0.929 . S
C246 C248 1.378 . S
C246 C250 1.350 . S
C247 C250 1.463 . S
C247 C252 1.350 . S
C247 N255 1.427 . S
C248 H239 0.930 . S
C248 C246 1.378 . S
C248 C249 1.367 . S
C249 C248 1.367 . S
C249 C251 1.433 . S
C250 C246 1.350 . S
C250 C247 1.463 . S
C250 N254 1.427 . S
C251 H241 0.929 . S
C251 C249 1.433 . S
C251 N254 1.384 . S
C252 H243 0.929 . S
C252 C244 1.378 . S
C252 C247 1.350 . S
C253 H240 0.929 . S
C253 C245 1.433 . S
C253 N255 1.384 . S
N254 C250 1.427 . S
N254 C251 1.384 . S
N255 C247 1.427 . S
N255 C253 1.384 . S
H256 C262 0.930 . S
H257 C266 0.930 . S
H258 C271 0.929 . S
H259 C269 0.929 . S
H260 C264 0.929 . S
H261 C270 0.929 . S
C262 H256 0.930 . S
C262 C263 1.367 . S
C262 C270 1.378 . S
C263 C262 1.367 . S
C263 C271 1.433 . S
C264 H260 0.929 . S
C264 C266 1.378 . S
C264 C268 1.350 . S
C265 C268 1.463 . S
C265 C270 1.350 . S
C265 N273 1.427 . S
C266 H257 0.930 . S
C266 C264 1.378 . S
C266 C267 1.367 . S
C267 C266 1.367 . S
C267 C269 1.433 . S
C268 C264 1.350 . S
C268 C265 1.463 . S
C268 N272 1.427 . S
C269 H259 0.929 . S
C269 C267 1.433 . S
C269 N272 1.384 . S
C270 H261 0.929 . S
C270 C262 1.378 . S
C270 C265 1.350 . S
C271 H258 0.929 . S
C271 C263 1.433 . S
C271 N273 1.384 . S
N272 C268 1.427 . S
N272 C269 1.384 . S
N273 C265 1.427 . S
N273 C271 1.384 . S
H274 C280 0.930 . S
H275 C284 0.930 . S
H276 C289 0.929 . S
H277 C287 0.929 . S
H278 C282 0.929 . S
H279 C288 0.929 . S
C280 H274 0.930 . S
C280 C281 1.367 . S
C280 C288 1.378 . S
C281 C280 1.367 . S
C281 C289 1.433 . S
C282 H278 0.929 . S
C282 C284 1.378 . S
C282 C286 1.350 . S
C283 C286 1.463 . S
C283 C288 1.350 . S
C283 N291 1.427 . S
C284 H275 0.930 . S
C284 C282 1.378 . S
C284 C285 1.367 . S
C285 C284 1.367 . S
C285 C287 1.433 . S
C286 C282 1.350 . S
C286 C283 1.463 . S
C286 N290 1.427 . S
C287 H277 0.929 . S
C287 C285 1.433 . S
C287 N290 1.384 . S
C288 H279 0.929 . S
C288 C280 1.378 . S
C288 C283 1.350 . S
C289 H276 0.929 . S
C289 C281 1.433 . S
C289 N291 1.384 . S
N290 C286 1.427 . S
N290 C287 1.384 . S
N291 C283 1.427 . S
N291 C289 1.384 . S
H292 C298 0.930 . S
H293 C302 0.930 . S
H294 C307 0.929 . S
H295 C305 0.929 . S
H296 C300 0.929 . S
H297 C306 0.929 . S
C298 H292 0.930 . S
C298 C299 1.367 . S
C298 C306 1.378 . S
C299 C298 1.367 . S
C299 C307 1.433 . S
C300 H296 0.929 . S
C300 C302 1.378 . S
C300 C304 1.350 . S
C301 C304 1.463 . S
C301 C306 1.350 . S
C301 N309 1.427 . S
C302 H293 0.930 . S
C302 C300 1.378 . S
C302 C303 1.367 . S
C303 C302 1.367 . S
C303 C305 1.433 . S
C304 C300 1.350 . S
C304 C301 1.463 . S
C304 N308 1.427 . S
C305 H295 0.929 . S
C305 C303 1.433 . S
C305 N308 1.384 . S
C306 H297 0.929 . S
C306 C298 1.378 . S
C306 C301 1.350 . S
C307 H294 0.929 . S
C307 C299 1.433 . S
C307 N309 1.384 . S
N308 C304 1.427 . S
N308 C305 1.384 . S
N309 C301 1.427 . S
N309 C307 1.384 . S
H310 C316 0.930 . S
H311 C320 0.930 . S
H312 C325 0.929 . S
H313 C323 0.929 . S
H314 C318 0.929 . S
H315 C324 0.929 . S
C316 H310 0.930 . S
C316 C317 1.367 . S
C316 C324 1.378 . S
C317 C316 1.367 . S
C317 C325 1.433 . S
C318 H314 0.929 . S
C318 C320 1.378 . S
C318 C322 1.350 . S
C319 C322 1.463 . S
C319 C324 1.350 . S
C319 N327 1.427 . S
C320 H311 0.930 . S
C320 C318 1.378 . S
C320 C321 1.367 . S
C321 C320 1.367 . S
C321 C323 1.433 . S
C322 C318 1.350 . S
C322 C319 1.463 . S
C322 N326 1.427 . S
C323 H313 0.929 . S
C323 C321 1.433 . S
C323 N326 1.384 . S
C324 H315 0.929 . S
C324 C316 1.378 . S
C324 C319 1.350 . S
C325 H312 0.929 . S
C325 C317 1.433 . S
C325 N327 1.384 . S
N326 C322 1.427 . S
N326 C323 1.384 . S
N327 C319 1.427 . S
N327 C325 1.384 . S
H328 C334 0.930 . S
H329 C338 0.930 . S
H330 C343 0.929 . S
H331 C341 0.929 . S
H332 C336 0.929 1_545 S
H333 C342 0.929 1_565 S
C334 H328 0.930 . S
C334 C335 1.367 1_655 S
C334 C342 1.378 . S
C335 C334 1.367 1_455 S
C335 C343 1.433 . S
C336 H332 0.929 1_565 S
C336 C338 1.378 . S
C336 C340 1.350 . S
C337 C340 1.463 1_544 S
C337 C342 1.350 1_455 S
C337 N345 1.427 . S
C338 H329 0.930 . S
C338 C336 1.378 . S
C338 C339 1.367 . S
C339 C338 1.367 . S
C339 C341 1.433 1_455 S
C340 C336 1.350 . S
C340 C337 1.463 1_566 S
C340 N344 1.427 1_455 S
C341 H331 0.929 . S
C341 C339 1.433 1_655 S
C341 N344 1.384 . S
C342 H333 0.929 1_545 S
C342 C334 1.378 . S
C342 C337 1.350 1_655 S
C343 H330 0.929 . S
C343 C335 1.433 . S
C343 N345 1.384 . S
N344 C340 1.427 1_655 S
N344 C341 1.384 . S
N345 C337 1.427 . S
N345 C343 1.384 . S
H346 C352 0.930 . S
H347 C356 0.930 . S
H348 C361 0.929 . S
H349 C359 0.929 . S
H350 C354 0.929 1_556 S
H351 C360 0.929 1_554 S
C352 H346 0.930 . S
C352 C353 1.367 . S
C352 C360 1.378 . S
C353 C352 1.367 . S
C353 C361 1.433 . S
C354 H350 0.929 1_554 S
C354 C356 1.378 . S
C354 C358 1.350 . S
C355 C358 1.463 1_556 S
C355 C360 1.350 . S
C355 N363 1.427 . S
C356 H347 0.930 . S
C356 C354 1.378 . S
C356 C357 1.367 . S
C357 C356 1.367 . S
C357 C359 1.433 . S
C358 C354 1.350 . S
C358 C355 1.463 1_554 S
C358 N362 1.427 . S
C359 H349 0.929 . S
C359 C357 1.433 . S
C359 N362 1.384 . S
C360 H351 0.929 1_556 S
C360 C352 1.378 . S
C360 C355 1.350 . S
C361 H348 0.929 . S
C361 C353 1.433 . S
C361 N363 1.384 . S
N362 C358 1.427 . S
N362 C359 1.384 . S
N363 C355 1.427 . S
N363 C361 1.384 . S
H364 C370 0.930 . S
H365 C374 0.930 . S
H366 C379 0.929 . S
H367 C377 0.929 . S
H368 C372 0.929 . S
H369 C378 0.929 . S
C370 H364 0.930 . S
C370 C371 1.367 . S
C370 C378 1.378 . S
C371 C370 1.367 . S
C371 C379 1.433 . S
C372 H368 0.929 . S
C372 C374 1.378 . S
C372 C376 1.350 . S
C373 C376 1.463 . S
C373 C378 1.350 . S
C373 N381 1.427 . S
C374 H365 0.930 . S
C374 C372 1.378 . S
C374 C375 1.367 . S
C375 C374 1.367 . S
C375 C377 1.433 . S
C376 C372 1.350 . S
C376 C373 1.463 . S
C376 N380 1.427 . S
C377 H367 0.929 . S
C377 C375 1.433 . S
C377 N380 1.384 . S
C378 H369 0.929 . S
C378 C370 1.378 . S
C378 C373 1.350 . S
C379 H366 0.929 . S
C379 C371 1.433 . S
C379 N381 1.384 . S
N380 C376 1.427 . S
N380 C377 1.384 . S
N381 C373 1.427 . S
N381 C379 1.384 . S
H382 C388 0.930 . S
H383 C392 0.930 . S
H384 C397 0.929 . S
H385 C395 0.929 . S
H386 C390 0.929 . S
H387 C396 0.929 . S
C388 H382 0.930 . S
C388 C389 1.367 . S
C388 C396 1.378 . S
C389 C388 1.367 . S
C389 C397 1.433 . S
C390 H386 0.929 . S
C390 C392 1.378 . S
C390 C394 1.350 . S
C391 C394 1.463 1_565 S
C391 C396 1.350 . S
C391 N399 1.427 . S
C392 H383 0.930 . S
C392 C390 1.378 . S
C392 C393 1.367 . S
C393 C392 1.367 . S
C393 C395 1.433 . S
C394 C390 1.350 . S
C394 C391 1.463 1_545 S
C394 N398 1.427 . S
C395 H385 0.929 . S
C395 C393 1.433 . S
C395 N398 1.384 . S
C396 H387 0.929 . S
C396 C388 1.378 . S
C396 C391 1.350 . S
C397 H384 0.929 . S
C397 C389 1.433 . S
C397 N399 1.384 . S
N398 C394 1.427 . S
N398 C395 1.384 . S
N399 C391 1.427 . S
N399 C397 1.384 . S
C119 C23 1.492 . S
C123 C9 1.483 . S
C137 C37 1.494 . S
C141 C51 1.488 . S
C155 C65 1.481 . S
C159 C79 1.488 . S
C173 C93 1.483 . S
C177 C107 1.492 . S
C191 C105 1.295 . S
C195 C7 1.291 . S
C209 C91 1.289 . S
C213 C21 1.292 . S
C227 C35 1.296 . S
C231 C77 1.292 . S
C245 C63 1.288 . S
C249 C49 1.291 . S
C263 C78 1.694 . S
C267 C36 1.694 . S
C281 C64 1.692 . S
C285 C50 1.692 . S
C299 C106 1.695 . S
C303 C8 1.695 . S
C317 C22 1.690 . S
C321 C92 1.690 . S
C335 C6 1.512 . S
C339 C34 1.513 . S
C353 C48 1.504 . S
C357 C20 1.503 . S
C371 C90 1.513 . S
C375 C62 1.513 . S
C389 C76 1.506 . S
C393 C104 1.505 . S
