# Generated by pormake.
# Topology fcu, (12)-cn, num edge types: 1
# Building blocks:
#     Node 0, Type 0, BuildingBlock: UKIBUN_clean_sbu_0, # of connection points: 12
#     Node 1, Type 0, BuildingBlock: UKIBUN_clean_sbu_0, # of connection points: 12
#     Node 2, Type 0, BuildingBlock: UKIBUN_clean_sbu_0, # of connection points: 12
#     Node 3, Type 0, BuildingBlock: UKIBUN_clean_sbu_0, # of connection points: 12
#     Edge 4, Type (0, 0), BuildingBlock: XUDNAN_clean_linker_2, # of connection points: 2
#     Edge 5, Type (0, 0), BuildingBlock: XUDNAN_clean_linker_2, # of connection points: 2
#     Edge 6, Type (0, 0), BuildingBlock: XUDNAN_clean_linker_2, # of connection points: 2
#     Edge 7, Type (0, 0), BuildingBlock: XUDNAN_clean_linker_2, # of connection points: 2
#     Edge 8, Type (0, 0), BuildingBlock: XUDNAN_clean_linker_2, # of connection points: 2
#     Edge 9, Type (0, 0), BuildingBlock: XUDNAN_clean_linker_2, # of connection points: 2
#     Edge 10, Type (0, 0), BuildingBlock: XUDNAN_clean_linker_2, # of connection points: 2
#     Edge 11, Type (0, 0), BuildingBlock: XUDNAN_clean_linker_2, # of connection points: 2
#     Edge 12, Type (0, 0), BuildingBlock: XUDNAN_clean_linker_2, # of connection points: 2
#     Edge 13, Type (0, 0), BuildingBlock: XUDNAN_clean_linker_2, # of connection points: 2
#     Edge 14, Type (0, 0), BuildingBlock: XUDNAN_clean_linker_2, # of connection points: 2
#     Edge 15, Type (0, 0), BuildingBlock: XUDNAN_clean_linker_2, # of connection points: 2
#     Edge 16, Type (0, 0), BuildingBlock: XUDNAN_clean_linker_2, # of connection points: 2
#     Edge 17, Type (0, 0), BuildingBlock: XUDNAN_clean_linker_2, # of connection points: 2
#     Edge 18, Type (0, 0), BuildingBlock: XUDNAN_clean_linker_2, # of connection points: 2
#     Edge 19, Type (0, 0), BuildingBlock: XUDNAN_clean_linker_2, # of connection points: 2
#     Edge 20, Type (0, 0), BuildingBlock: XUDNAN_clean_linker_2, # of connection points: 2
#     Edge 21, Type (0, 0), BuildingBlock: XUDNAN_clean_linker_2, # of connection points: 2
#     Edge 22, Type (0, 0), BuildingBlock: XUDNAN_clean_linker_2, # of connection points: 2
#     Edge 23, Type (0, 0), BuildingBlock: XUDNAN_clean_linker_2, # of connection points: 2
#     Edge 24, Type (0, 0), BuildingBlock: XUDNAN_clean_linker_2, # of connection points: 2
#     Edge 25, Type (0, 0), BuildingBlock: XUDNAN_clean_linker_2, # of connection points: 2
#     Edge 26, Type (0, 0), BuildingBlock: XUDNAN_clean_linker_2, # of connection points: 2
#     Edge 27, Type (0, 0), BuildingBlock: XUDNAN_clean_linker_2, # of connection points: 2
# Relax obj value: 0.006
# Max RMSD: 0.049
# Mean RMSD: 0.049
data_MOF--net-fcu--node1-UKIBUN_clean_sbu_0--edge1-XUDNAN_clean_linker_2
_symmetry_space_group_name_H-M    P1
_symmetry_Int_Tables_number       1
_symmetry_cell_setting            triclinic
loop_
_symmetry_equiv_pos_as_xyz
'x, y, z'
_cell_length_a     26.31694
_cell_length_b     26.340207
_cell_length_c     26.326938
_cell_angle_alpha  90.159257
_cell_angle_beta   89.993685
_cell_angle_gamma 89.963469
loop_
_atom_site_label
_atom_site_type_symbol
_atom_site_fract_x
_atom_site_fract_y
_atom_site_fract_z
_atom_type_partial_charge
C0 C 0.0014 0.13244 0.11358 0.0
C1 C 0.87738 0.11916 0.99164 0.0
O2 O 0.04065 0.05033 0.04394 0.0
O3 O 0.95767 0.96308 0.05104 0.0
O4 O 0.04278 0.96512 0.05125 0.0
O5 O 0.95396 0.05017 0.04554 0.0
Hf6 Hf 0.99842 0.0114 0.09625 0.0
O7 O 0.04048 0.04268 0.95885 0.0
Hf8 Hf 0.99668 0.09389 0.99736 0.0
O9 O 0.04384 0.95664 0.9653 0.0
Hf10 Hf 0.09065 0.00546 0.0047 0.0
O11 O 0.95569 0.04061 0.95944 0.0
Hf12 Hf 0.00158 0.91102 0.01246 0.0
Hf13 Hf 0.90793 0.00179 0.00581 0.0
O14 O 0.95729 0.95584 0.96681 0.0
Hf15 Hf 0.99881 0.9946 0.91446 0.0
C16 C 0.88289 0.88219 0.00463 0.0
C17 C 0.11453 0.12456 0.9904 0.0
C18 C 0.12179 0.88725 0.01003 0.0
C19 C 0.11773 0.01816 0.12333 0.0
O20 O 0.07084 0.01859 0.13763 0.0
O21 O 0.92586 0.00669 0.14 0.0
C22 C 0.87978 0.99913 0.12456 0.0
O23 O 0.92634 0.99667 0.87161 0.0
O24 O 0.99663 0.86211 0.94328 0.0
O25 O 1.00001 0.87538 0.08876 0.0
O26 O 0.07065 0.99637 0.87166 0.0
O27 O 0.99367 0.12996 0.92136 0.0
O28 O 1.00045 0.14229 0.06561 0.0
O29 O 0.86279 0.07306 1.00002 0.0
O30 O 0.86817 0.92874 0.00149 0.0
C31 C 0.1172 0.00341 0.88525 0.0
O32 O 0.13411 0.9345 0.00737 0.0
O33 O 0.13153 0.0791 0.99781 0.0
C34 C 0.88015 0.00214 0.88714 0.0
O35 O 0.99608 0.06249 0.86638 0.0
O36 O 1.00088 0.94304 0.14381 0.0
O37 O 0.99864 0.0875 0.13303 0.0
O38 O 0.99263 0.91955 0.87813 0.0
O39 O 0.86583 0.00366 0.93388 0.0
O40 O 0.13305 0.00639 0.93163 0.0
C41 C 0.99148 0.87404 0.89592 0.0
O42 O 0.13338 0.01251 0.07713 0.0
O43 O 0.06728 0.13706 0.98897 0.0
O44 O 0.86581 0.99761 0.07769 0.0
O45 O 0.0758 0.87017 0.01314 0.0
O46 O 0.92919 0.86736 0.01186 0.0
O47 O 0.92393 0.13416 0.99045 0.0
C48 C 0.99345 0.11031 0.87634 0.0
C49 C 0.99965 0.89513 0.13376 0.0
C50 C 0.9715 0.61112 0.63346 0.0
C51 C 0.86739 0.6082 0.49548 0.0
O52 O 0.03065 0.54664 0.55784 0.0
O53 O 0.95637 0.45218 0.54057 0.0
O54 O 0.04117 0.46167 0.55126 0.0
O55 O 0.94617 0.53692 0.54697 0.0
Hf56 Hf 0.98793 0.49527 0.59749 0.0
O57 O 0.04072 0.55439 0.47206 0.0
Hf58 Hf 0.98745 0.59315 0.51336 0.0
O59 O 0.05053 0.46998 0.46578 0.0
Hf60 Hf 0.08855 0.51356 0.51797 0.0
O61 O 0.95552 0.54464 0.46158 0.0
Hf62 Hf 0.00959 0.4131 0.49901 0.0
Hf63 Hf 0.90818 0.49302 0.4953 0.0
O64 O 0.96637 0.4604 0.45532 0.0
Hf65 Hf 0.00867 0.51172 0.41507 0.0
C66 C 0.89499 0.37181 0.48517 0.0
C67 C 0.10194 0.63464 0.52815 0.0
C68 C 0.13056 0.39863 0.51075 0.0
C69 C 0.10259 0.50707 0.63948 0.0
O70 O 0.05499 0.49859 0.64773 0.0
O71 O 0.91071 0.4909 0.63099 0.0
C72 C 0.86627 0.49025 0.61013 0.0
O73 O 0.94168 0.50292 0.36374 0.0
O74 O 0.01998 0.37661 0.42366 0.0
O75 O 0.00411 0.36495 0.56694 0.0
O76 O 0.08608 0.51922 0.38196 0.0
O77 O 0.99021 0.64143 0.44558 0.0
O78 O 0.97176 0.62869 0.58775 0.0
O79 O 0.8576 0.56038 0.49084 0.0
O80 O 0.87425 0.41609 0.48946 0.0
C81 C 0.1305 0.52063 0.40301 0.0
O82 O 0.13874 0.44641 0.51801 0.0
O83 O 0.12259 0.5902 0.52578 0.0
C84 C 0.89485 0.4916 0.37364 0.0
O85 O 0.00331 0.58739 0.37856 0.0
O86 O 0.98782 0.4192 0.63327 0.0
O87 O 0.97847 0.56414 0.64569 0.0
O88 O 0.02142 0.44343 0.36812 0.0
O89 O 0.87578 0.48668 0.41846 0.0
O90 O 0.13872 0.52008 0.45132 0.0
C91 C 0.02366 0.39567 0.37865 0.0
O92 O 0.12263 0.51379 0.59517 0.0
O93 O 0.05372 0.6433 0.52533 0.0
O94 O 0.85776 0.48954 0.56191 0.0
O95 O 0.08642 0.37858 0.50311 0.0
O96 O 0.94326 0.3632 0.48655 0.0
O97 O 0.91158 0.62754 0.504 0.0
C98 C 0.99577 0.63192 0.39788 0.0
C99 C 0.9946 0.37453 0.61405 0.0
C100 C 0.50803 0.13671 0.60717 0.0
C101 C 0.39444 0.13266 0.49519 0.0
O102 O 0.54749 0.04593 0.54296 0.0
O103 O 0.45331 0.96996 0.55498 0.0
O104 O 0.53914 0.96084 0.55561 0.0
O105 O 0.46268 0.05462 0.5424 0.0
Hf106 Hf 0.50067 0.01488 0.59698 0.0
O107 O 0.54605 0.03305 0.45744 0.0
Hf108 Hf 0.50976 0.09179 0.49302 0.0
O109 O 0.53679 0.94951 0.4706 0.0
Hf110 Hf 0.59071 0.99265 0.50643 0.0
O111 O 0.46111 0.04243 0.45765 0.0
Hf112 Hf 0.49058 0.91118 0.51987 0.0
Hf113 Hf 0.40931 0.01159 0.5064 0.0
O114 O 0.45158 0.95706 0.47003 0.0
Hf115 Hf 0.49778 0.98817 0.41568 0.0
C116 C 0.36868 0.89728 0.52347 0.0
C117 C 0.63115 0.10674 0.48843 0.0
C118 C 0.60642 0.87161 0.51093 0.0
C119 C 0.61978 0.01249 0.6234 0.0
O120 O 0.57342 0.0198 0.63729 0.0
O121 O 0.4286 0.02437 0.64014 0.0
C122 C 0.38221 0.02809 0.62448 0.0
O123 O 0.42517 0.99507 0.37265 0.0
O124 O 0.48505 0.85932 0.45416 0.0
O125 O 0.49076 0.87933 0.59794 0.0
O126 O 0.56957 0.9742 0.37435 0.0
O127 O 0.51215 0.12305 0.41497 0.0
O128 O 0.5128 0.14384 0.5589 0.0
O129 O 0.37435 0.08836 0.50174 0.0
O130 O 0.35968 0.94473 0.51519 0.0
C131 C 0.61666 0.97495 0.38816 0.0
O132 O 0.62524 0.91669 0.50858 0.0
O133 O 0.6405 0.05915 0.49521 0.0
C134 C 0.37989 0.00651 0.38802 0.0
O135 O 0.5068 0.05299 0.36346 0.0
O136 O 0.49735 0.94938 0.6493 0.0
O137 O 0.50293 0.09295 0.62867 0.0
O138 O 0.49106 0.91034 0.38405 0.0
O139 O 0.36673 0.01262 0.43475 0.0
O140 O 0.63262 0.98234 0.43397 0.0
C141 C 0.48724 0.86655 0.40574 0.0
O142 O 0.63435 0.9996 0.5783 0.0
O143 O 0.5863 0.12666 0.48719 0.0
O144 O 0.36793 0.02493 0.57777 0.0
O145 O 0.55885 0.86091 0.51717 0.0
O146 O 0.41347 0.87724 0.5268 0.0
O147 O 0.44234 0.14112 0.48939 0.0
C148 C 0.51104 0.10126 0.37095 0.0
C149 C 0.49341 0.90102 0.642 0.0
C150 C 0.51415 0.60122 0.14276 0.0
C151 C 0.38717 0.62379 0.02834 0.0
O152 O 0.55056 0.5365 0.05178 0.0
O153 O 0.46067 0.4532 0.04866 0.0
O154 O 0.54664 0.45155 0.03836 0.0
O155 O 0.46476 0.53834 0.06113 0.0
Hf156 Hf 0.51084 0.48746 0.09735 0.0
O157 O 0.54034 0.54878 0.9668 0.0
Hf158 Hf 0.50475 0.59129 0.02116 0.0
O159 O 0.53676 0.4647 0.95466 0.0
Hf160 Hf 0.59213 0.49943 0.99727 0.0
O161 O 0.45504 0.5512 0.97691 0.0
Hf162 Hf 0.49717 0.41081 0.99417 0.0
Hf163 Hf 0.40973 0.50399 0.01856 0.0
O164 O 0.45151 0.4664 0.96448 0.0
Hf165 Hf 0.49009 0.51492 0.91785 0.0
C166 C 0.37734 0.38758 0.99985 0.0
C167 C 0.62304 0.61701 0.0059 0.0
C168 C 0.61462 0.38074 0.97757 0.0
C169 C 0.63234 0.48044 0.11136 0.0
O170 O 0.58726 0.4776 0.13043 0.0
O171 O 0.44364 0.48591 0.1476 0.0
C172 C 0.39574 0.49286 0.13952 0.0
O173 O 0.41284 0.51942 0.8837 0.0
O174 O 0.49235 0.37933 0.91613 0.0
O175 O 0.50268 0.35832 0.05914 0.0
O176 O 0.55724 0.51947 0.86824 0.0
O177 O 0.49936 0.64402 0.95604 0.0
O178 O 0.51053 0.62297 0.09898 0.0
O179 O 0.36949 0.5781 0.02525 0.0
O180 O 0.36512 0.43362 0.01139 0.0
C181 C 0.60526 0.51424 0.87645 0.0
O182 O 0.63074 0.42684 0.98127 0.0
O183 O 0.63705 0.57058 0.99879 0.0
C184 C 0.36819 0.51705 0.90411 0.0
O185 O 0.48821 0.59296 0.88639 0.0
O186 O 0.51161 0.40958 0.12896 0.0
O187 O 0.51649 0.55278 0.14984 0.0
O188 O 0.48636 0.44949 0.86533 0.0
O189 O 0.35962 0.51188 0.95205 0.0
O190 O 0.62574 0.50635 0.92034 0.0
C191 C 0.48871 0.40108 0.87236 0.0
O192 O 0.64276 0.48939 0.06423 0.0
O193 O 0.57749 0.6319 0.01592 0.0
O194 O 0.37546 0.49991 0.0954 0.0
O195 O 0.56793 0.36645 0.9823 0.0
O196 O 0.42298 0.37107 0.99259 0.0
O197 O 0.43465 0.63548 0.03022 0.0
C198 C 0.49294 0.63686 0.90789 0.0
C199 C 0.50841 0.36564 0.10728 0.0
H200 H 0.98568 0.13897 0.21788 0.0
H201 H 0.03601 0.22602 0.08706 0.0
H202 H 0.05159 0.29959 0.14195 0.0
H203 H 0.91995 0.24185 0.27927 0.0
H204 H 0.938 0.22373 0.34273 0.0
H205 H 0.93247 0.17616 0.29377 0.0
H206 H 0.02499 0.14734 0.31125 0.0
H207 H 0.03088 0.19508 0.36009 0.0
H208 H 0.07573 0.19319 0.30836 0.0
H209 H 0.06078 0.36422 0.20855 0.0
H210 H 0.05843 0.41906 0.28408 0.0
H211 H 0.00114 0.29309 0.37376 0.0
C212 C 1.00008 0.17348 0.20088 0.0
C213 C 0.0093 0.17651 0.14794 0.0
C214 C 0.02801 0.22256 0.12726 0.0
C215 C 0.03741 0.26466 0.15819 0.0
C216 C 0.02789 0.26051 0.20991 0.0
C217 C 0.00936 0.21641 0.23132 0.0
C218 C 1.00078 0.2234 0.288 0.0
C219 C 0.94446 0.21584 0.30173 0.0
C220 C 0.03515 0.18762 0.31873 0.0
C221 C 0.01681 0.27844 0.2946 0.0
C222 C 0.03276 0.29869 0.24898 0.0
C223 C 0.0484 0.34891 0.24458 0.0
C224 C 0.04678 0.37981 0.28779 0.0
C225 C 0.02944 0.36055 0.33494 0.0
C226 C 0.01502 0.30885 0.33844 0.0
H227 H 0.86893 0.03085 0.22548 0.0
H228 H 0.79947 0.9377 0.10799 0.0
H229 H 0.72946 0.91678 0.16543 0.0
H230 H 0.83021 0.9498 0.33386 0.0
H231 H 0.81705 0.00297 0.37509 0.0
H232 H 0.86504 0.00824 0.3265 0.0
H233 H 0.81943 0.08738 0.2902 0.0
H234 H 0.77147 0.0823 0.3387 0.0
H235 H 0.75334 0.08302 0.27268 0.0
H236 H 0.66414 0.90979 0.23088 0.0
H237 H 0.60512 0.91807 0.30288 0.0
H238 H 0.71365 0.01476 0.38111 0.0
C239 C 0.83923 0.00563 0.21226 0.0
C240 C 0.8396 0.98635 0.16197 0.0
C241 C 0.79981 0.95369 0.14596 0.0
C242 C 0.75992 0.94114 0.17846 0.0
C243 C 0.75998 0.96135 0.2272 0.0
C244 C 0.79835 0.99287 0.2444 0.0
C245 C 0.7869 0.0112 0.29808 0.0
C246 C 0.82721 0.99188 0.3356 0.0
C247 C 0.78252 0.06943 0.3 0.0
C248 C 0.73574 0.98594 0.30739 0.0
C249 C 0.72146 0.95703 0.26597 0.0
C250 C 0.67497 0.93192 0.26383 0.0
C251 C 0.64161 0.93703 0.30484 0.0
C252 C 0.65479 0.96694 0.3476 0.0
C253 C 0.70291 0.99103 0.34922 0.0
H254 H 0.0188 0.79164 0.13916 0.0
H255 H 0.96969 0.92167 0.22894 0.0
H256 H 0.96204 0.86748 0.30384 0.0
H257 H 0.93574 0.69941 0.20055 0.0
H258 H 0.98209 0.64901 0.19918 0.0
H259 H 0.98289 0.69738 0.1509 0.0
H260 H 0.0768 0.71761 0.17245 0.0
H261 H 0.07632 0.66933 0.22077 0.0
H262 H 0.09386 0.73352 0.23687 0.0
H263 H 0.96051 0.80238 0.3689 0.0
H264 H 0.96605 0.72769 0.42342 0.0
H265 H 0.01662 0.63688 0.29453 0.0
C266 C 0.00628 0.80856 0.17455 0.0
C267 C 0.99528 0.86108 0.17808 0.0
C268 C 0.97907 0.88178 0.22517 0.0
C269 C 0.97427 0.85127 0.26805 0.0
C270 C 0.98577 0.80003 0.26347 0.0
C271 C 0.00144 0.77852 0.21821 0.0
C272 C 0.01216 0.72223 0.22479 0.0
C273 C 0.97606 0.69012 0.1919 0.0
C274 C 0.06811 0.70997 0.21303 0.0
C275 C 1.00052 0.71604 0.28095 0.0
C276 C 0.9851 0.76156 0.30204 0.0
C277 C 0.97255 0.76639 0.35302 0.0
C278 C 0.97605 0.72354 0.38372 0.0
C279 C 0.99213 0.67616 0.36351 0.0
C280 C 0.00423 0.67242 0.31119 0.0
H281 H 0.36893 0.96911 0.28944 0.0
H282 H 0.29992 0.06961 0.40115 0.0
H283 H 0.23006 0.08744 0.34253 0.0
H284 H 0.33092 0.04402 0.17649 0.0
H285 H 0.31771 0.98859 0.13843 0.0
H286 H 0.36557 0.98599 0.18735 0.0
H287 H 0.31968 0.90931 0.22815 0.0
H288 H 0.27171 0.91172 0.17945 0.0
H289 H 0.25361 0.91499 0.24541 0.0
H290 H 0.16492 0.09049 0.27706 0.0
H291 H 0.10611 0.0786 0.20555 0.0
H292 H 0.21434 0.97733 0.13266 0.0
C293 C 0.33938 0.99528 0.30112 0.0
C294 C 0.33978 0.01752 0.35015 0.0
C295 C 0.30022 0.05138 0.3642 0.0
C296 C 0.26042 0.06218 0.331 0.0
C297 C 0.26048 0.03905 0.28356 0.0
C298 C 0.29872 0.00642 0.26824 0.0
C299 C 0.28737 0.98501 0.21574 0.0
C300 C 0.32781 0.00192 0.17722 0.0
C301 C 0.28281 0.92681 0.21731 0.0
C302 C 0.23634 0.00987 0.20492 0.0
C303 C 0.22209 0.04118 0.24463 0.0
C304 C 0.17572 0.0665 0.24542 0.0
C305 C 0.14248 0.05926 0.20474 0.0
C306 C 0.15569 0.02705 0.16366 0.0
C307 C 0.20364 0.00265 0.16333 0.0
H308 H 0.03149 0.77675 0.88266 0.0
H309 H 0.91877 0.88228 0.82506 0.0
H310 H 0.89585 0.82179 0.75774 0.0
H311 H 0.07537 0.73616 0.76274 0.0
H312 H 0.08478 0.6705 0.77949 0.0
H313 H 0.08876 0.71899 0.82764 0.0
H314 H 0.01988 0.67275 0.88032 0.0
H315 H 0.01574 0.62407 0.8322 0.0
H316 H 0.95948 0.6581 0.8515 0.0
H317 H 0.89041 0.75624 0.69225 0.0
H318 H 0.90289 0.6872 0.63028 0.0
H319 H 0.01829 0.62058 0.72721 0.0
C320 C 0.00135 0.78638 0.85639 0.0
C321 C 0.97692 0.83423 0.85894 0.0
C322 C 0.93823 0.84604 0.82348 0.0
C323 C 0.92467 0.81179 0.78529 0.0
C324 C 0.95008 0.76557 0.7828 0.0
C325 C 0.98753 0.75246 0.81723 0.0
C326 C 0.01113 0.7016 0.8029 0.0
C327 C 0.0684 0.70718 0.79257 0.0
C328 C 1.00093 0.66177 0.8442 0.0
C329 C 0.98204 0.6893 0.75443 0.0
C330 C 0.94667 0.72669 0.74416 0.0
C331 C 0.91739 0.72627 0.70014 0.0
C332 C 0.92488 0.68702 0.66509 0.0
C333 C 0.96119 0.64847 0.67418 0.0
C334 C 0.98952 0.64907 0.71992 0.0
H335 H 0.22034 0.98066 0.8787 0.0
H336 H 0.09537 0.052 0.79795 0.0
H337 H 0.15246 0.07251 0.72733 0.0
H338 H 0.32057 0.06817 0.83477 0.0
H339 H 0.36749 0.0188 0.82739 0.0
H340 H 0.31826 0.01267 0.87462 0.0
H341 H 0.2915 0.92627 0.83576 0.0
H342 H 0.34079 0.93203 0.78869 0.0
H343 H 0.27581 0.92266 0.76919 0.0
H344 H 0.21941 0.08276 0.6644 0.0
H345 H 0.29329 0.07692 0.60785 0.0
H346 H 0.37756 0.99728 0.72514 0.0
C347 C 0.20534 0.00092 0.84625 0.0
C348 C 0.15332 0.01447 0.84371 0.0
C349 C 0.13486 0.04059 0.80048 0.0
C350 C 0.16709 0.0529 0.7603 0.0
C351 C 0.21784 0.03874 0.76357 0.0
C352 C 0.2371 0.01301 0.80501 0.0
C353 C 0.2927 0.99955 0.79652 0.0
C354 C 0.32677 0.02641 0.83566 0.0
C355 C 0.30065 0.94169 0.79759 0.0
C356 C 0.30095 0.02088 0.74352 0.0
C357 C 0.25723 0.04396 0.72593 0.0
C358 C 0.25401 0.06497 0.67767 0.0
C359 C 0.2962 0.06127 0.64577 0.0
C360 C 0.34115 0.03649 0.66197 0.0
C361 C 0.34392 0.01696 0.71198 0.0
H362 H 0.00423 0.37031 0.71864 0.0
H363 H 0.9732 0.27784 0.58511 0.0
H364 H 0.96645 0.20224 0.63879 0.0
H365 H 0.08174 0.27912 0.78188 0.0
H366 H 0.05847 0.29325 0.84474 0.0
H367 H 0.05827 0.34177 0.79666 0.0
H368 H 0.96163 0.35532 0.81019 0.0
H369 H 0.96155 0.30689 0.85843 0.0
H370 H 0.91911 0.30193 0.80493 0.0
H371 H 0.96575 0.13672 0.704 0.0
H372 H 0.97189 0.08248 0.77904 0.0
H373 H 0.00402 0.21495 0.8728 0.0
C374 C 0.99557 0.3342 0.70088 0.0
C375 C 0.98952 0.33001 0.64762 0.0
C376 C 0.9786 0.28202 0.6257 0.0
C377 C 0.97436 0.2388 0.65588 0.0
C378 C 0.98111 0.24404 0.70795 0.0
C379 C 0.99147 0.29027 0.73055 0.0
C380 C 0.99872 0.28433 0.78745 0.0
C381 C 0.0525 0.30058 0.80362 0.0
C382 C 0.95781 0.31387 0.81698 0.0
C383 C 0.99146 0.22745 0.79282 0.0
C384 C 0.98102 0.20534 0.74636 0.0
C385 C 0.9738 0.15343 0.74071 0.0
C386 C 0.97764 0.12294 0.78373 0.0
C387 C 0.98877 0.14431 0.832 0.0
C388 C 0.99535 0.19746 0.83655 0.0
H389 H 0.71456 0.96818 0.63437 0.0
H390 H 0.61164 0.07871 0.70147 0.0
H391 H 0.67094 0.09172 0.77208 0.0
H392 H 0.75091 0.91053 0.7487 0.0
H393 H 0.81674 0.90105 0.73225 0.0
H394 H 0.7693 0.90362 0.68306 0.0
H395 H 0.81841 0.97649 0.63898 0.0
H396 H 0.86624 0.97385 0.68794 0.0
H397 H 0.83422 0.03285 0.67462 0.0
H398 H 0.73429 0.08733 0.83872 0.0
H399 H 0.80281 0.068 0.89886 0.0
H400 H 0.86851 0.96167 0.79082 0.0
C401 C 0.7052 0.99577 0.66348 0.0
C402 C 0.65842 0.02218 0.66267 0.0
C403 C 0.64699 0.05758 0.70167 0.0
C404 C 0.68054 0.06555 0.7418 0.0
C405 C 0.72557 0.03806 0.74236 0.0
C406 C 0.73843 0.00414 0.70431 0.0
C407 C 0.7882 0.97759 0.71646 0.0
C408 C 0.78082 0.91978 0.72036 0.0
C409 C 0.8292 0.99101 0.67716 0.0
C410 C 0.8001 0.00091 0.76788 0.0
C411 C 0.76341 0.03592 0.78158 0.0
C412 C 0.76368 0.06049 0.82833 0.0
C413 C 0.80249 0.04889 0.86235 0.0
C414 C 0.84061 0.01316 0.84943 0.0
C415 C 0.83992 0.98937 0.80129 0.0
H416 H 0.37236 0.28469 0.01975 0.0
H417 H 0.28636 0.41165 0.95917 0.0
H418 H 0.21342 0.35547 0.94396 0.0
H419 H 0.31915 0.18641 0.93462 0.0
H420 H 0.31653 0.13888 0.98366 0.0
H421 H 0.36459 0.18758 0.98584 0.0
H422 H 0.33507 0.2132 0.07625 0.0
H423 H 0.28706 0.16457 0.07438 0.0
H424 H 0.26937 0.22955 0.08682 0.0
H425 H 0.14953 0.28904 0.93812 0.0
H426 H 0.09365 0.21549 0.94687 0.0
H427 H 0.2173 0.12921 0.01441 0.0
C428 C 0.33829 0.30027 0.00276 0.0
C429 C 0.33482 0.35245 0.99068 0.0
C430 C 0.28956 0.37189 0.96914 0.0
C431 C 0.24809 0.34023 0.95995 0.0
C432 C 0.25233 0.28923 0.97273 0.0
C433 C 0.29592 0.26915 0.99395 0.0
C434 C 0.28845 0.21355 0.00725 0.0
C435 C 0.32432 0.1796 0.97597 0.0
C436 C 0.29539 0.20472 0.06458 0.0
C437 C 0.23351 0.20618 0.99122 0.0
C438 C 0.21408 0.25032 0.97064 0.0
C439 C 0.16416 0.25417 0.95412 0.0
C440 C 0.13265 0.21206 0.9596 0.0
C441 C 0.15084 0.16655 0.98192 0.0
C442 C 0.20234 0.16333 0.99709 0.0
H443 H 0.283 0.62891 0.0494 0.0
H444 H 0.41153 0.71762 0.99541 0.0
H445 H 0.3563 0.79076 0.98323 0.0
H446 H 0.18922 0.68364 0.96401 0.0
H447 H 0.13887 0.68581 0.01039 0.0
H448 H 0.18771 0.63803 0.01492 0.0
H449 H 0.20808 0.66725 0.10668 0.0
H450 H 0.15915 0.71495 0.1025 0.0
H451 H 0.22324 0.73296 0.11859 0.0
H452 H 0.29103 0.85345 0.97482 0.0
H453 H 0.21644 0.90815 0.97582 0.0
H454 H 0.12565 0.78473 0.03765 0.0
C455 C 0.2993 0.66382 0.03518 0.0
C456 C 0.35187 0.66735 0.02383 0.0
C457 C 0.37176 0.71378 0.00522 0.0
C458 C 0.34059 0.75571 0.99773 0.0
C459 C 0.28939 0.75118 0.00921 0.0
C460 C 0.2685 0.70696 0.02795 0.0
C461 C 0.21195 0.71416 0.03817 0.0
C462 C 0.18006 0.67827 0.00488 0.0
C463 C 0.19991 0.7069 0.09486 0.0
C464 C 0.20502 0.76929 0.02219 0.0
C465 C 0.2505 0.78915 0.00531 0.0
C466 C 0.25513 0.83869 0.9883 0.0
C467 C 0.21227 0.86955 0.98928 0.0
C468 C 0.16499 0.85118 0.00752 0.0
C469 C 0.16117 0.79994 0.02359 0.0
H470 H 0.62201 0.28367 0.01577 0.0
H471 H 0.69559 0.39137 0.9153 0.0
H472 H 0.76608 0.33132 0.90197 0.0
H473 H 0.73241 0.24468 0.07752 0.0
H474 H 0.71536 0.17871 0.08367 0.0
H475 H 0.66645 0.22634 0.07996 0.0
H476 H 0.62638 0.17995 0.00299 0.0
H477 H 0.67501 0.13183 0.0066 0.0
H478 H 0.66497 0.16584 0.94813 0.0
H479 H 0.83164 0.26578 0.90584 0.0
H480 H 0.89085 0.19697 0.92661 0.0
H481 H 0.77787 0.12925 0.02582 0.0
C482 C 0.6524 0.29381 0.98998 0.0
C483 C 0.65341 0.34193 0.96629 0.0
C484 C 0.69427 0.35469 0.93381 0.0
C485 C 0.7343 0.32075 0.9258 0.0
C486 C 0.73301 0.27419 0.95065 0.0
C487 C 0.69324 0.26039 0.98198 0.0
C488 C 0.70392 0.20971 0.00736 0.0
C489 C 0.70458 0.21522 0.06557 0.0
C490 C 0.66526 0.16944 0.99023 0.0
C491 C 0.75656 0.19821 0.98659 0.0
C492 C 0.77198 0.2358 0.95344 0.0
C493 C 0.81991 0.23582 0.93132 0.0
C494 C 0.8534 0.19672 0.94376 0.0
C495 C 0.83911 0.15797 0.97819 0.0
C496 C 0.78961 0.15818 0.99916 0.0
H497 H 0.876 0.78319 0.04067 0.0
H498 H 0.7996 0.89503 0.94645 0.0
H499 H 0.7292 0.83607 0.93256 0.0
H500 H 0.83348 0.67043 0.96634 0.0
H501 H 0.82453 0.63181 0.02205 0.0
H502 H 0.87228 0.68087 0.02183 0.0
H503 H 0.83199 0.72058 0.10243 0.0
H504 H 0.78413 0.67177 0.10275 0.0
H505 H 0.76564 0.73768 0.10194 0.0
H506 H 0.66415 0.77153 0.93442 0.0
H507 H 0.60635 0.7 0.9498 0.0
H508 H 0.72212 0.62542 0.04043 0.0
C509 C 0.84474 0.79474 0.01658 0.0
C510 C 0.84307 0.84392 0.99512 0.0
C511 C 0.8014 0.85793 0.96404 0.0
C512 C 0.7613 0.82457 0.95551 0.0
C513 C 0.76331 0.77705 0.97801 0.0
C514 C 0.8038 0.76164 0.00766 0.0
C515 C 0.79427 0.70892 0.02907 0.0
C516 C 0.83347 0.67074 0.00858 0.0
C517 C 0.79398 0.70983 0.08751 0.0
C518 C 0.74162 0.69824 0.00783 0.0
C519 C 0.72502 0.73823 0.97828 0.0
C520 C 0.67678 0.73957 0.95686 0.0
C521 C 0.64417 0.699 0.96608 0.0
C522 C 0.66 0.6575 0.99615 0.0
C523 C 0.7096 0.65658 0.01676 0.0
H524 H 0.7076 0.49097 0.87008 0.0
H525 H 0.57857 0.54127 0.77993 0.0
H526 H 0.63151 0.53934 0.70329 0.0
H527 H 0.80312 0.56333 0.80102 0.0
H528 H 0.85062 0.51422 0.80555 0.0
H529 H 0.80296 0.52049 0.85431 0.0
H530 H 0.77693 0.42654 0.8406 0.0
H531 H 0.82427 0.4201 0.79156 0.0
H532 H 0.75878 0.40533 0.77803 0.0
H533 H 0.69574 0.52946 0.63619 0.0
H534 H 0.77032 0.51693 0.58177 0.0
H535 H 0.85987 0.47436 0.71386 0.0
C536 C 0.69058 0.50205 0.83434 0.0
C537 C 0.63873 0.51608 0.83126 0.0
C538 C 0.61801 0.53006 0.78354 0.0
C539 C 0.64777 0.52913 0.73961 0.0
C540 C 0.69828 0.51433 0.74386 0.0
C541 C 0.71984 0.50144 0.78987 0.0
C542 C 0.77525 0.48682 0.78335 0.0
C543 C 0.81003 0.52341 0.8128 0.0
C544 C 0.78432 0.43141 0.79933 0.0
C545 C 0.78114 0.49336 0.72642 0.0
C546 C 0.73607 0.50904 0.70461 0.0
C547 C 0.73134 0.51723 0.6527 0.0
C548 C 0.77402 0.50967 0.62208 0.0
C549 C 0.82111 0.49437 0.6434 0.0
C550 C 0.82451 0.48602 0.69638 0.0
H551 H 0.20786 0.515 0.64369 0.0
H552 H 0.07308 0.50611 0.73898 0.0
H553 H 0.12655 0.51076 0.81502 0.0
H554 H 0.28777 0.43808 0.72258 0.0
H555 H 0.34434 0.47523 0.71236 0.0
H556 H 0.29572 0.47291 0.66426 0.0
H557 H 0.28963 0.57109 0.66562 0.0
H558 H 0.33821 0.57371 0.71382 0.0
H559 H 0.27746 0.60338 0.72484 0.0
H560 H 0.19257 0.51476 0.88075 0.0
H561 H 0.26879 0.51606 0.93394 0.0
H562 H 0.36347 0.52183 0.79854 0.0
C563 C 0.18957 0.51419 0.68052 0.0
C564 C 0.13601 0.51003 0.68497 0.0
C565 C 0.11384 0.509 0.7341 0.0
C566 C 0.14391 0.51182 0.77777 0.0
C567 C 0.19627 0.51571 0.77206 0.0
C568 C 0.21916 0.51688 0.72489 0.0
C569 C 0.27662 0.52029 0.73011 0.0
C570 C 0.30264 0.47385 0.70589 0.0
C571 C 0.29665 0.57008 0.70724 0.0
C572 C 0.28216 0.52008 0.78758 0.0
C573 C 0.23511 0.51782 0.81071 0.0
C574 C 0.2297 0.51664 0.86319 0.0
C575 C 0.27353 0.51737 0.89311 0.0
C576 C 0.3226 0.519 0.87071 0.0
C577 C 0.32673 0.52074 0.81703 0.0
H578 H 0.13592 0.52358 0.29755 0.0
H579 H 0.22957 0.51461 0.43346 0.0
H580 H 0.30565 0.50628 0.38061 0.0
H581 H 0.20509 0.43313 0.22416 0.0
H582 H 0.19971 0.46701 0.16501 0.0
H583 H 0.15147 0.47425 0.21305 0.0
H584 H 0.16469 0.57177 0.21259 0.0
H585 H 0.21271 0.56484 0.16427 0.0
H586 H 0.22743 0.59724 0.22281 0.0
H587 H 0.37134 0.49498 0.31507 0.0
H588 H 0.42469 0.48691 0.23911 0.0
H589 H 0.29097 0.50463 0.14358 0.0
C590 C 0.17244 0.52041 0.31621 0.0
C591 C 0.17631 0.51984 0.36992 0.0
C592 C 0.22508 0.51539 0.39258 0.0
C593 C 0.2688 0.51047 0.36287 0.0
C594 C 0.26358 0.5104 0.31036 0.0
C595 C 0.2169 0.5158 0.287 0.0
C596 C 0.22255 0.51438 0.22956 0.0
C597 C 0.19295 0.46952 0.20661 0.0
C598 C 0.20586 0.56507 0.20592 0.0
C599 C 0.27957 0.50664 0.22466 0.0
C600 C 0.30222 0.50442 0.27189 0.0
C601 C 0.3542 0.49693 0.27777 0.0
C602 C 0.38418 0.49219 0.23417 0.0
C603 C 0.36229 0.49507 0.18499 0.0
C604 C 0.30906 0.50219 0.18043 0.0
H605 H 0.72066 0.53544 0.12708 0.0
H606 H 0.63757 0.40235 0.17679 0.0
H607 H 0.70211 0.3865 0.24261 0.0
H608 H 0.85131 0.48617 0.15433 0.0
H609 H 0.87354 0.54658 0.17774 0.0
H610 H 0.82497 0.54424 0.12948 0.0
H611 H 0.76604 0.59897 0.18599 0.0
H612 H 0.81423 0.60145 0.23444 0.0
H613 H 0.75161 0.57828 0.24961 0.0
H614 H 0.76855 0.3888 0.30727 0.0
H615 H 0.83392 0.41008 0.37047 0.0
H616 H 0.87661 0.54277 0.28295 0.0
C617 C 0.71708 0.50229 0.15107 0.0
C618 C 0.67457 0.46964 0.14664 0.0
C619 C 0.67002 0.42753 0.17954 0.0
C620 C 0.70657 0.41813 0.21686 0.0
C621 C 0.74745 0.4514 0.22115 0.0
C622 C 0.75315 0.49272 0.18938 0.0
C623 C 0.79838 0.52488 0.20581 0.0
C624 C 0.83949 0.52548 0.16436 0.0
C625 C 0.78153 0.57909 0.2198 0.0
C626 C 0.81619 0.49573 0.2524 0.0
C627 C 0.78637 0.45316 0.25981 0.0
C628 C 0.79261 0.4216 0.30159 0.0
C629 C 0.82972 0.43414 0.33739 0.0
C630 C 0.86038 0.47787 0.33144 0.0
C631 C 0.85425 0.50864 0.28784 0.0
H632 H 0.36366 0.79184 0.52267 0.0
H633 H 0.27057 0.92748 0.53827 0.0
H634 H 0.19431 0.87457 0.54527 0.0
H635 H 0.27695 0.72231 0.44606 0.0
H636 H 0.28925 0.66169 0.47521 0.0
H637 H 0.33796 0.70967 0.47452 0.0
H638 H 0.3453 0.70428 0.57251 0.0
H639 H 0.29659 0.65621 0.5735 0.0
H640 H 0.28933 0.71307 0.61103 0.0
H641 H 0.1276 0.80905 0.54683 0.0
H642 H 0.07325 0.73353 0.54227 0.0
H643 H 0.20734 0.63828 0.52556 0.0
C644 C 0.32732 0.81037 0.5281 0.0
C645 C 0.32344 0.86405 0.52972 0.0
C646 C 0.27491 0.88662 0.5365 0.0
C647 C 0.23116 0.85686 0.54078 0.0
C648 C 0.23619 0.80438 0.53842 0.0
C649 C 0.28287 0.7811 0.53238 0.0
C650 C 0.27685 0.72377 0.52937 0.0
C651 C 0.2964 0.70316 0.47824 0.0
C652 C 0.30361 0.69781 0.57427 0.0
C653 C 0.21945 0.71888 0.53353 0.0
C654 C 0.19704 0.76596 0.53921 0.0
C655 C 0.14463 0.77186 0.54268 0.0
C656 C 0.11403 0.72854 0.53992 0.0
C657 C 0.13574 0.67961 0.53351 0.0
C658 C 0.18938 0.67493 0.53073 0.0
H659 H 0.13455 0.29364 0.50089 0.0
H660 H 0.23004 0.42731 0.51878 0.0
H661 H 0.30596 0.37349 0.51575 0.0
H662 H 0.21158 0.21007 0.57832 0.0
H663 H 0.20193 0.1552 0.53843 0.0
H664 H 0.1539 0.20387 0.54187 0.0
H665 H 0.15721 0.21387 0.44404 0.0
H666 H 0.20541 0.16537 0.44029 0.0
H667 H 0.2171 0.22722 0.41364 0.0
H668 H 0.37155 0.30749 0.50973 0.0
H669 H 0.42455 0.23129 0.504 0.0
H670 H 0.28894 0.13775 0.49096 0.0
C671 C 0.17139 0.3116 0.50429 0.0
C672 C 0.17593 0.36497 0.51013 0.0
C673 C 0.22508 0.38671 0.51442 0.0
C674 C 0.26868 0.35645 0.51264 0.0
C675 C 0.26285 0.30433 0.50665 0.0
C676 C 0.21565 0.28181 0.50274 0.0
C677 C 0.22072 0.22458 0.49683 0.0
C678 C 0.19554 0.1968 0.54153 0.0
C679 C 0.19881 0.20672 0.44566 0.0
C680 C 0.27815 0.21877 0.49813 0.0
C681 C 0.3014 0.26547 0.50356 0.0
C682 C 0.35389 0.27063 0.50544 0.0
C683 C 0.38369 0.22688 0.50193 0.0
C684 C 0.36113 0.17818 0.49679 0.0
C685 C 0.30745 0.17426 0.49487 0.0
H686 H 0.77706 0.62103 0.54747 0.0
H687 H 0.86726 0.67893 0.42258 0.0
H688 H 0.80429 0.74673 0.40839 0.0
H689 H 0.64936 0.65361 0.49404 0.0
H690 H 0.62434 0.67287 0.55486 0.0
H691 H 0.67252 0.62427 0.55135 0.0
H692 H 0.72912 0.67595 0.61293 0.0
H693 H 0.68133 0.72475 0.6165 0.0
H694 H 0.74519 0.74066 0.59758 0.0
H695 H 0.73838 0.8114 0.41175 0.0
H696 H 0.67226 0.87342 0.43358 0.0
H697 H 0.62203 0.77793 0.558 0.0
C698 C 0.78249 0.64735 0.5164 0.0
C699 C 0.82636 0.64469 0.48545 0.0
C700 C 0.83354 0.6804 0.44619 0.0
C701 C 0.79795 0.71882 0.4378 0.0
C702 C 0.75552 0.72125 0.46931 0.0
C703 C 0.74739 0.68674 0.50793 0.0
C704 C 0.70076 0.70142 0.53894 0.0
C705 C 0.65928 0.66061 0.53451 0.0
C706 C 0.71498 0.71129 0.59479 0.0
C707 C 0.68493 0.75017 0.51237 0.0
C708 C 0.71699 0.76012 0.47195 0.0
C709 C 0.71269 0.80388 0.44294 0.0
C710 C 0.67518 0.839 0.45587 0.0
C711 C 0.64223 0.8305 0.49752 0.0
C712 C 0.64641 0.78497 0.52564 0.0
H713 H 0.63666 0.21093 0.50083 0.0
H714 H 0.72688 0.07888 0.45959 0.0
H715 H 0.80224 0.13322 0.44999 0.0
H716 H 0.70006 0.30061 0.41521 0.0
H717 H 0.69709 0.35231 0.4601 0.0
H718 H 0.64894 0.30368 0.46071 0.0
H719 H 0.66767 0.28646 0.55576 0.0
H720 H 0.71587 0.33493 0.55541 0.0
H721 H 0.73161 0.27138 0.57518 0.0
H722 H 0.8687 0.20018 0.44859 0.0
H723 H 0.92279 0.27586 0.45626 0.0
H724 H 0.79086 0.36575 0.499 0.0
C725 C 0.67214 0.19355 0.48925 0.0
C726 C 0.67571 0.14049 0.48109 0.0
C727 C 0.72308 0.11926 0.46648 0.0
C728 C 0.76616 0.14987 0.46066 0.0
C729 C 0.76152 0.20176 0.46964 0.0
C730 C 0.71582 0.22359 0.48357 0.0
C731 C 0.72199 0.28017 0.4929 0.0
C732 C 0.69013 0.31101 0.45496 0.0
C733 C 0.70849 0.29403 0.54809 0.0
C734 C 0.77844 0.28642 0.48284 0.0
C735 C 0.80028 0.2407 0.4691 0.0
C736 C 0.85204 0.23627 0.45917 0.0
C737 C 0.88251 0.2796 0.46384 0.0
C738 C 0.86131 0.32699 0.47846 0.0
C739 C 0.80833 0.3303 0.48752 0.0
H740 H 0.49434 0.29627 0.86665 0.0
H741 H 0.48457 0.43172 0.77303 0.0
H742 H 0.48935 0.37877 0.69622 0.0
H743 H 0.58328 0.22917 0.78824 0.0
H744 H 0.55448 0.16787 0.79777 0.0
H745 H 0.54938 0.21602 0.84624 0.0
H746 H 0.45121 0.20839 0.84426 0.0
H747 H 0.456 0.15997 0.79603 0.0
H748 H 0.41806 0.21582 0.78482 0.0
H749 H 0.49715 0.31238 0.62945 0.0
H750 H 0.50374 0.23584 0.57632 0.0
H751 H 0.50778 0.14234 0.71217 0.0
C752 C 0.4929 0.31488 0.83006 0.0
C753 C 0.48905 0.3684 0.82623 0.0
C754 C 0.48743 0.39095 0.77735 0.0
C755 C 0.49022 0.36118 0.73331 0.0
C756 C 0.4945 0.30881 0.7385 0.0
C757 C 0.49554 0.28569 0.78551 0.0
C758 C 0.50031 0.2285 0.78016 0.0
C759 C 0.5498 0.20927 0.80455 0.0
C760 C 0.45361 0.20159 0.80264 0.0
C761 C 0.50189 0.22326 0.72278 0.0
C762 C 0.49865 0.27014 0.69964 0.0
C763 C 0.49962 0.27539 0.64708 0.0
C764 C 0.50356 0.23152 0.61721 0.0
C765 C 0.50634 0.18275 0.63985 0.0
C766 C 0.50567 0.17887 0.69351 0.0
H767 H 0.49146 0.7958 0.64773 0.0
H768 H 0.49174 0.93203 0.74143 0.0
H769 H 0.49025 0.87931 0.81821 0.0
H770 H 0.40691 0.72252 0.72811 0.0
H771 H 0.44012 0.66352 0.71779 0.0
H772 H 0.44052 0.71175 0.66939 0.0
H773 H 0.53901 0.71113 0.66939 0.0
H774 H 0.53891 0.66294 0.7178 0.0
H775 H 0.5727 0.72156 0.72811 0.0
H776 H 0.49065 0.81288 0.88519 0.0
H777 H 0.492 0.73642 0.93847 0.0
H778 H 0.49063 0.64199 0.80274 0.0
C779 C 0.49107 0.81463 0.68433 0.0
C780 C 0.49188 0.86835 0.68812 0.0
C781 C 0.49136 0.89114 0.73706 0.0
C782 C 0.49043 0.86148 0.78112 0.0
C783 C 0.48992 0.80889 0.77601 0.0
C784 C 0.49012 0.78552 0.72897 0.0
C785 C 0.48984 0.72811 0.73448 0.0
C786 C 0.44147 0.70514 0.71105 0.0
C787 C 0.53798 0.70456 0.71105 0.0
C788 C 0.48977 0.72308 0.79195 0.0
C789 C 0.48978 0.77023 0.815 0.0
C790 C 0.49047 0.7757 0.86761 0.0
C791 C 0.49126 0.73184 0.89759 0.0
C792 C 0.49126 0.68282 0.87509 0.0
C793 C 0.49036 0.67869 0.82136 0.0
H794 H 0.51596 0.70607 0.14833 0.0
H795 H 0.5075 0.57047 0.24184 0.0
H796 H 0.49845 0.62377 0.31803 0.0
H797 H 0.58848 0.78196 0.23847 0.0
H798 H 0.55545 0.83996 0.22345 0.0
H799 H 0.56253 0.79125 0.1758 0.0
H800 H 0.46487 0.7896 0.1631 0.0
H801 H 0.45744 0.83801 0.211 0.0
H802 H 0.42411 0.77857 0.21699 0.0
H803 H 0.4873 0.69057 0.38376 0.0
H804 H 0.48012 0.76744 0.43627 0.0
H805 H 0.49672 0.86076 0.30122 0.0
C806 C 0.51264 0.6875 0.18482 0.0
C807 C 0.5126 0.63387 0.1888 0.0
C808 C 0.508 0.61134 0.23748 0.0
C809 C 0.5026 0.6413 0.28113 0.0
C810 C 0.50208 0.69382 0.27573 0.0
C811 C 0.50744 0.71687 0.22899 0.0
C812 C 0.50559 0.77425 0.23404 0.0
C813 C 0.55602 0.79826 0.21693 0.0
C814 C 0.4603 0.79639 0.20453 0.0
C815 C 0.49808 0.77965 0.2909 0.0
C816 C 0.49601 0.73271 0.31405 0.0
C817 C 0.48907 0.72761 0.36616 0.0
C818 C 0.48489 0.77169 0.39565 0.0
C819 C 0.48783 0.82049 0.37309 0.0
C820 C 0.49413 0.82423 0.31981 0.0
H821 H 0.50914 0.20606 0.3658 0.0
H822 H 0.52018 0.0704 0.2719 0.0
H823 H 0.52305 0.12356 0.19538 0.0
H824 H 0.42802 0.27543 0.2829 0.0
H825 H 0.45773 0.33595 0.29476 0.0
H826 H 0.45871 0.28757 0.34294 0.0
H827 H 0.557 0.29286 0.34678 0.0
H828 H 0.5563 0.34138 0.29866 0.0
H829 H 0.59344 0.2846 0.28936 0.0
H830 H 0.52216 0.19023 0.12886 0.0
H831 H 0.51767 0.26684 0.07597 0.0
H832 H 0.50716 0.36014 0.21211 0.0
C833 C 0.51257 0.18745 0.32923 0.0
C834 C 0.5144 0.13386 0.32515 0.0
C835 C 0.51855 0.11126 0.27633 0.0
C836 C 0.52033 0.14114 0.23249 0.0
C837 C 0.51803 0.19364 0.23788 0.0
C838 C 0.51435 0.21673 0.2849 0.0
C839 C 0.51131 0.27401 0.27976 0.0
C840 C 0.46095 0.29442 0.30137 0.0
C841 C 0.55725 0.29971 0.30515 0.0
C842 C 0.51332 0.2793 0.22246 0.0
C843 C 0.51739 0.23242 0.19917 0.0
C844 C 0.51906 0.22721 0.1466 0.0
C845 C 0.5163 0.2711 0.11687 0.0
C846 C 0.51185 0.31977 0.13971 0.0
C847 C 0.51066 0.32367 0.19335 0.0
loop_
_geom_bond_atom_site_label_1
_geom_bond_atom_site_label_2
_geom_bond_distance
_geom_bond_site_symmetry_2
_ccdc_geom_bond_type
C0 O28 1.281 . S
C0 O37 1.281 . S
C1 O29 1.281 . S
C1 O47 1.281 . S
O2 Hf6 2.202 . S
O2 Hf8 2.202 . S
O2 Hf10 2.202 . S
O3 Hf6 2.202 1_665 S
O3 Hf12 2.202 1_655 S
O3 Hf13 2.202 1_565 S
O4 Hf6 2.072 1_565 S
O4 Hf10 2.072 1_565 S
O4 Hf12 2.072 . S
O5 Hf6 2.072 1_655 S
O5 Hf8 2.072 1_655 S
O5 Hf13 2.072 . S
Hf6 O2 2.202 . S
Hf6 O3 2.202 1_445 S
Hf6 O4 2.072 1_545 S
Hf6 O5 2.072 1_455 S
Hf6 O20 2.209 1_545 S
Hf6 O21 2.209 1_455 S
Hf6 O36 2.209 1_545 S
Hf6 O37 2.209 1_455 S
O7 Hf8 2.072 1_556 S
O7 Hf10 2.072 1_556 S
O7 Hf15 2.072 . S
Hf8 O2 2.202 . S
Hf8 O5 2.072 1_455 S
Hf8 O7 2.072 1_554 S
Hf8 O11 2.202 1_454 S
Hf8 O27 2.209 1_554 S
Hf8 O28 2.209 1_455 S
Hf8 O43 2.209 1_554 S
Hf8 O47 2.209 1_455 S
O9 Hf10 2.202 1_566 S
O9 Hf12 2.202 1_556 S
O9 Hf15 2.202 1_565 S
Hf10 O2 2.202 . S
Hf10 O4 2.072 1_545 S
Hf10 O7 2.072 1_554 S
Hf10 O9 2.202 1_544 S
Hf10 O32 2.209 1_545 S
Hf10 O33 2.209 1_554 S
Hf10 O40 2.209 1_554 S
Hf10 O42 2.209 1_545 S
O11 Hf8 2.202 1_656 S
O11 Hf13 2.202 1_556 S
O11 Hf15 2.202 1_655 S
Hf12 O3 2.202 1_455 S
Hf12 O4 2.072 . S
Hf12 O9 2.202 1_554 S
Hf12 O14 2.072 1_454 S
Hf12 O24 2.209 1_454 S
Hf12 O25 2.209 . S
Hf12 O45 2.209 . S
Hf12 O46 2.209 1_454 S
Hf13 O3 2.202 1_545 S
Hf13 O5 2.072 . S
Hf13 O11 2.202 1_554 S
Hf13 O14 2.072 1_544 S
Hf13 O29 2.209 . S
Hf13 O30 2.209 1_544 S
Hf13 O39 2.209 1_544 S
Hf13 O44 2.209 . S
O14 Hf12 2.072 1_656 S
O14 Hf13 2.072 1_566 S
O14 Hf15 2.072 1_665 S
Hf15 O7 2.072 . S
Hf15 O9 2.202 1_545 S
Hf15 O11 2.202 1_455 S
Hf15 O14 2.072 1_445 S
Hf15 O23 2.209 1_445 S
Hf15 O26 2.209 . S
Hf15 O35 2.209 . S
Hf15 O38 2.209 1_445 S
C16 O30 1.281 . S
C16 O46 1.281 . S
C17 O33 1.281 . S
C17 O43 1.281 . S
C18 O32 1.281 . S
C18 O45 1.281 . S
C19 O20 1.281 . S
C19 O42 1.281 . S
O20 Hf6 2.209 1_565 S
O20 C19 1.281 . S
O21 Hf6 2.209 1_655 S
O21 C22 1.281 . S
C22 O21 1.281 . S
C22 O44 1.281 . S
O23 Hf15 2.209 1_665 S
O23 C34 1.281 . S
O24 Hf12 2.209 1_656 S
O24 C41 1.281 . S
O25 Hf12 2.209 . S
O25 C49 1.281 . S
O26 Hf15 2.209 . S
O26 C31 1.281 . S
O27 Hf8 2.209 1_556 S
O27 C48 1.281 . S
O28 C0 1.281 . S
O28 Hf8 2.209 1_655 S
O29 C1 1.281 . S
O29 Hf13 2.209 . S
O30 Hf13 2.209 1_566 S
O30 C16 1.281 . S
C31 O26 1.281 . S
C31 O40 1.281 . S
O32 Hf10 2.209 1_565 S
O32 C18 1.281 . S
O33 Hf10 2.209 1_556 S
O33 C17 1.281 . S
C34 O23 1.281 . S
C34 O39 1.281 . S
O35 Hf15 2.209 . S
O35 C48 1.281 . S
O36 Hf6 2.209 1_565 S
O36 C49 1.281 . S
O37 C0 1.281 . S
O37 Hf6 2.209 1_655 S
O38 Hf15 2.209 1_665 S
O38 C41 1.281 . S
O39 Hf13 2.209 1_566 S
O39 C34 1.281 . S
O40 Hf10 2.209 1_556 S
O40 C31 1.281 . S
C41 O24 1.281 . S
C41 O38 1.281 . S
O42 Hf10 2.209 1_565 S
O42 C19 1.281 . S
O43 Hf8 2.209 1_556 S
O43 C17 1.281 . S
O44 Hf13 2.209 . S
O44 C22 1.281 . S
O45 Hf12 2.209 . S
O45 C18 1.281 . S
O46 Hf12 2.209 1_656 S
O46 C16 1.281 . S
O47 C1 1.281 . S
O47 Hf8 2.209 1_655 S
C48 O27 1.281 . S
C48 O35 1.281 . S
C49 O25 1.281 . S
C49 O36 1.281 . S
C50 O78 1.281 . S
C50 O87 1.281 . S
C51 O79 1.281 . S
C51 O97 1.281 . S
O52 Hf56 2.202 . S
O52 Hf58 2.202 . S
O52 Hf60 2.202 . S
O53 Hf56 2.202 1_655 S
O53 Hf62 2.202 1_655 S
O53 Hf63 2.202 . S
O54 Hf56 2.072 . S
O54 Hf60 2.072 . S
O54 Hf62 2.072 . S
O55 Hf56 2.072 1_655 S
O55 Hf58 2.072 1_655 S
O55 Hf63 2.072 . S
Hf56 O52 2.202 . S
Hf56 O53 2.202 1_455 S
Hf56 O54 2.072 . S
Hf56 O55 2.072 1_455 S
Hf56 O70 2.209 . S
Hf56 O71 2.209 1_455 S
Hf56 O86 2.209 . S
Hf56 O87 2.209 1_455 S
O57 Hf58 2.072 . S
O57 Hf60 2.072 . S
O57 Hf65 2.072 . S
Hf58 O52 2.202 . S
Hf58 O55 2.072 1_455 S
Hf58 O57 2.072 . S
Hf58 O61 2.202 1_455 S
Hf58 O77 2.209 . S
Hf58 O78 2.209 1_455 S
Hf58 O93 2.209 . S
Hf58 O97 2.209 1_455 S
O59 Hf60 2.202 . S
O59 Hf62 2.202 . S
O59 Hf65 2.202 . S
Hf60 O52 2.202 . S
Hf60 O54 2.072 . S
Hf60 O57 2.072 . S
Hf60 O59 2.202 . S
Hf60 O82 2.209 . S
Hf60 O83 2.209 . S
Hf60 O90 2.209 . S
Hf60 O92 2.209 . S
O61 Hf58 2.202 1_655 S
O61 Hf63 2.202 . S
O61 Hf65 2.202 1_655 S
Hf62 O53 2.202 1_455 S
Hf62 O54 2.072 . S
Hf62 O59 2.202 . S
Hf62 O64 2.072 1_455 S
Hf62 O74 2.209 1_455 S
Hf62 O75 2.209 . S
Hf62 O95 2.209 . S
Hf62 O96 2.209 1_455 S
Hf63 O53 2.202 . S
Hf63 O55 2.072 . S
Hf63 O61 2.202 . S
Hf63 O64 2.072 . S
Hf63 O79 2.209 . S
Hf63 O80 2.209 . S
Hf63 O89 2.209 . S
Hf63 O94 2.209 . S
O64 Hf62 2.072 1_655 S
O64 Hf63 2.072 . S
O64 Hf65 2.072 1_655 S
Hf65 O57 2.072 . S
Hf65 O59 2.202 . S
Hf65 O61 2.202 1_455 S
Hf65 O64 2.072 1_455 S
Hf65 O73 2.209 1_455 S
Hf65 O76 2.209 . S
Hf65 O85 2.209 . S
Hf65 O88 2.209 1_455 S
C66 O80 1.281 . S
C66 O96 1.281 . S
C67 O83 1.281 . S
C67 O93 1.281 . S
C68 O82 1.281 . S
C68 O95 1.281 . S
C69 O70 1.281 . S
C69 O92 1.281 . S
O70 Hf56 2.209 . S
O70 C69 1.281 . S
O71 Hf56 2.209 1_655 S
O71 C72 1.281 . S
C72 O71 1.281 . S
C72 O94 1.281 . S
O73 Hf65 2.209 1_655 S
O73 C84 1.281 . S
O74 Hf62 2.209 1_655 S
O74 C91 1.281 . S
O75 Hf62 2.209 . S
O75 C99 1.281 . S
O76 Hf65 2.209 . S
O76 C81 1.281 . S
O77 Hf58 2.209 . S
O77 C98 1.281 . S
O78 C50 1.281 . S
O78 Hf58 2.209 1_655 S
O79 C51 1.281 . S
O79 Hf63 2.209 . S
O80 Hf63 2.209 . S
O80 C66 1.281 . S
C81 O76 1.281 . S
C81 O90 1.281 . S
O82 Hf60 2.209 . S
O82 C68 1.281 . S
O83 Hf60 2.209 . S
O83 C67 1.281 . S
C84 O73 1.281 . S
C84 O89 1.281 . S
O85 Hf65 2.209 . S
O85 C98 1.281 . S
O86 Hf56 2.209 . S
O86 C99 1.281 . S
O87 C50 1.281 . S
O87 Hf56 2.209 1_655 S
O88 Hf65 2.209 1_655 S
O88 C91 1.281 . S
O89 Hf63 2.209 . S
O89 C84 1.281 . S
O90 Hf60 2.209 . S
O90 C81 1.281 . S
C91 O74 1.281 . S
C91 O88 1.281 . S
O92 Hf60 2.209 . S
O92 C69 1.281 . S
O93 Hf58 2.209 . S
O93 C67 1.281 . S
O94 Hf63 2.209 . S
O94 C72 1.281 . S
O95 Hf62 2.209 . S
O95 C68 1.281 . S
O96 Hf62 2.209 1_655 S
O96 C66 1.281 . S
O97 C51 1.281 . S
O97 Hf58 2.209 1_655 S
C98 O77 1.281 . S
C98 O85 1.281 . S
C99 O75 1.281 . S
C99 O86 1.281 . S
C100 O128 1.281 . S
C100 O137 1.281 . S
C101 O129 1.281 . S
C101 O147 1.281 . S
O102 Hf106 2.202 . S
O102 Hf108 2.202 . S
O102 Hf110 2.202 . S
O103 Hf106 2.202 1_565 S
O103 Hf112 2.202 . S
O103 Hf113 2.202 1_565 S
O104 Hf106 2.072 1_565 S
O104 Hf110 2.072 1_565 S
O104 Hf112 2.072 . S
O105 Hf106 2.072 . S
O105 Hf108 2.072 . S
O105 Hf113 2.072 . S
Hf106 O102 2.202 . S
Hf106 O103 2.202 1_545 S
Hf106 O104 2.072 1_545 S
Hf106 O105 2.072 . S
Hf106 O120 2.209 1_545 S
Hf106 O121 2.209 . S
Hf106 O136 2.209 1_545 S
Hf106 O137 2.209 . S
O107 Hf108 2.072 . S
O107 Hf110 2.072 . S
O107 Hf115 2.072 . S
Hf108 O102 2.202 . S
Hf108 O105 2.072 . S
Hf108 O107 2.072 . S
Hf108 O111 2.202 . S
Hf108 O127 2.209 . S
Hf108 O128 2.209 . S
Hf108 O143 2.209 . S
Hf108 O147 2.209 . S
O109 Hf110 2.202 1_565 S
O109 Hf112 2.202 . S
O109 Hf115 2.202 1_565 S
Hf110 O102 2.202 . S
Hf110 O104 2.072 1_545 S
Hf110 O107 2.072 . S
Hf110 O109 2.202 1_545 S
Hf110 O132 2.209 1_545 S
Hf110 O133 2.209 . S
Hf110 O140 2.209 . S
Hf110 O142 2.209 1_545 S
O111 Hf108 2.202 . S
O111 Hf113 2.202 . S
O111 Hf115 2.202 . S
Hf112 O103 2.202 . S
Hf112 O104 2.072 . S
Hf112 O109 2.202 . S
Hf112 O114 2.072 . S
Hf112 O124 2.209 . S
Hf112 O125 2.209 . S
Hf112 O145 2.209 . S
Hf112 O146 2.209 . S
Hf113 O103 2.202 1_545 S
Hf113 O105 2.072 . S
Hf113 O111 2.202 . S
Hf113 O114 2.072 1_545 S
Hf113 O129 2.209 . S
Hf113 O130 2.209 1_545 S
Hf113 O139 2.209 1_545 S
Hf113 O144 2.209 . S
O114 Hf112 2.072 . S
O114 Hf113 2.072 1_565 S
O114 Hf115 2.072 1_565 S
Hf115 O107 2.072 . S
Hf115 O109 2.202 1_545 S
Hf115 O111 2.202 . S
Hf115 O114 2.072 1_545 S
Hf115 O123 2.209 1_545 S
Hf115 O126 2.209 . S
Hf115 O135 2.209 . S
Hf115 O138 2.209 1_545 S
C116 O130 1.281 . S
C116 O146 1.281 . S
C117 O133 1.281 . S
C117 O143 1.281 . S
C118 O132 1.281 . S
C118 O145 1.281 . S
C119 O120 1.281 . S
C119 O142 1.281 . S
O120 Hf106 2.209 1_565 S
O120 C119 1.281 . S
O121 Hf106 2.209 . S
O121 C122 1.281 . S
C122 O121 1.281 . S
C122 O144 1.281 . S
O123 Hf115 2.209 1_565 S
O123 C134 1.281 . S
O124 Hf112 2.209 . S
O124 C141 1.281 . S
O125 Hf112 2.209 . S
O125 C149 1.281 . S
O126 Hf115 2.209 . S
O126 C131 1.281 . S
O127 Hf108 2.209 . S
O127 C148 1.281 . S
O128 C100 1.281 . S
O128 Hf108 2.209 . S
O129 C101 1.281 . S
O129 Hf113 2.209 . S
O130 Hf113 2.209 1_565 S
O130 C116 1.281 . S
C131 O126 1.281 . S
C131 O140 1.281 . S
O132 Hf110 2.209 1_565 S
O132 C118 1.281 . S
O133 Hf110 2.209 . S
O133 C117 1.281 . S
C134 O123 1.281 . S
C134 O139 1.281 . S
O135 Hf115 2.209 . S
O135 C148 1.281 . S
O136 Hf106 2.209 1_565 S
O136 C149 1.281 . S
O137 C100 1.281 . S
O137 Hf106 2.209 . S
O138 Hf115 2.209 1_565 S
O138 C141 1.281 . S
O139 Hf113 2.209 1_565 S
O139 C134 1.281 . S
O140 Hf110 2.209 . S
O140 C131 1.281 . S
C141 O124 1.281 . S
C141 O138 1.281 . S
O142 Hf110 2.209 1_565 S
O142 C119 1.281 . S
O143 Hf108 2.209 . S
O143 C117 1.281 . S
O144 Hf113 2.209 . S
O144 C122 1.281 . S
O145 Hf112 2.209 . S
O145 C118 1.281 . S
O146 Hf112 2.209 . S
O146 C116 1.281 . S
O147 C101 1.281 . S
O147 Hf108 2.209 . S
C148 O127 1.281 . S
C148 O135 1.281 . S
C149 O125 1.281 . S
C149 O136 1.281 . S
C150 O178 1.281 . S
C150 O187 1.281 . S
C151 O179 1.281 . S
C151 O197 1.281 . S
O152 Hf156 2.202 . S
O152 Hf158 2.202 . S
O152 Hf160 2.202 . S
O153 Hf156 2.202 . S
O153 Hf162 2.202 . S
O153 Hf163 2.202 . S
O154 Hf156 2.072 . S
O154 Hf160 2.072 . S
O154 Hf162 2.072 . S
O155 Hf156 2.072 . S
O155 Hf158 2.072 . S
O155 Hf163 2.072 . S
Hf156 O152 2.202 . S
Hf156 O153 2.202 . S
Hf156 O154 2.072 . S
Hf156 O155 2.072 . S
Hf156 O170 2.209 . S
Hf156 O171 2.209 . S
Hf156 O186 2.209 . S
Hf156 O187 2.209 . S
O157 Hf158 2.072 1_556 S
O157 Hf160 2.072 1_556 S
O157 Hf165 2.072 . S
Hf158 O152 2.202 . S
Hf158 O155 2.072 . S
Hf158 O157 2.072 1_554 S
Hf158 O161 2.202 1_554 S
Hf158 O177 2.209 1_554 S
Hf158 O178 2.209 . S
Hf158 O193 2.209 1_554 S
Hf158 O197 2.209 . S
O159 Hf160 2.202 1_556 S
O159 Hf162 2.202 1_556 S
O159 Hf165 2.202 . S
Hf160 O152 2.202 . S
Hf160 O154 2.072 . S
Hf160 O157 2.072 1_554 S
Hf160 O159 2.202 1_554 S
Hf160 O182 2.209 . S
Hf160 O183 2.209 1_554 S
Hf160 O190 2.209 1_554 S
Hf160 O192 2.209 . S
O161 Hf158 2.202 1_556 S
O161 Hf163 2.202 1_556 S
O161 Hf165 2.202 . S
Hf162 O153 2.202 . S
Hf162 O154 2.072 . S
Hf162 O159 2.202 1_554 S
Hf162 O164 2.072 1_554 S
Hf162 O174 2.209 1_554 S
Hf162 O175 2.209 . S
Hf162 O195 2.209 . S
Hf162 O196 2.209 1_554 S
Hf163 O153 2.202 . S
Hf163 O155 2.072 . S
Hf163 O161 2.202 1_554 S
Hf163 O164 2.072 1_554 S
Hf163 O179 2.209 . S
Hf163 O180 2.209 1_554 S
Hf163 O189 2.209 1_554 S
Hf163 O194 2.209 . S
O164 Hf162 2.072 1_556 S
O164 Hf163 2.072 1_556 S
O164 Hf165 2.072 . S
Hf165 O157 2.072 . S
Hf165 O159 2.202 . S
Hf165 O161 2.202 . S
Hf165 O164 2.072 . S
Hf165 O173 2.209 . S
Hf165 O176 2.209 . S
Hf165 O185 2.209 . S
Hf165 O188 2.209 . S
C166 O180 1.281 . S
C166 O196 1.281 . S
C167 O183 1.281 . S
C167 O193 1.281 . S
C168 O182 1.281 . S
C168 O195 1.281 . S
C169 O170 1.281 . S
C169 O192 1.281 . S
O170 Hf156 2.209 . S
O170 C169 1.281 . S
O171 Hf156 2.209 . S
O171 C172 1.281 . S
C172 O171 1.281 . S
C172 O194 1.281 . S
O173 Hf165 2.209 . S
O173 C184 1.281 . S
O174 Hf162 2.209 1_556 S
O174 C191 1.281 . S
O175 Hf162 2.209 . S
O175 C199 1.281 . S
O176 Hf165 2.209 . S
O176 C181 1.281 . S
O177 Hf158 2.209 1_556 S
O177 C198 1.281 . S
O178 C150 1.281 . S
O178 Hf158 2.209 . S
O179 C151 1.281 . S
O179 Hf163 2.209 . S
O180 Hf163 2.209 1_556 S
O180 C166 1.281 . S
C181 O176 1.281 . S
C181 O190 1.281 . S
O182 Hf160 2.209 . S
O182 C168 1.281 . S
O183 Hf160 2.209 1_556 S
O183 C167 1.281 . S
C184 O173 1.281 . S
C184 O189 1.281 . S
O185 Hf165 2.209 . S
O185 C198 1.281 . S
O186 Hf156 2.209 . S
O186 C199 1.281 . S
O187 C150 1.281 . S
O187 Hf156 2.209 . S
O188 Hf165 2.209 . S
O188 C191 1.281 . S
O189 Hf163 2.209 1_556 S
O189 C184 1.281 . S
O190 Hf160 2.209 1_556 S
O190 C181 1.281 . S
C191 O174 1.281 . S
C191 O188 1.281 . S
O192 Hf160 2.209 . S
O192 C169 1.281 . S
O193 Hf158 2.209 1_556 S
O193 C167 1.281 . S
O194 Hf163 2.209 . S
O194 C172 1.281 . S
O195 Hf162 2.209 . S
O195 C168 1.281 . S
O196 Hf162 2.209 1_556 S
O196 C166 1.281 . S
O197 C151 1.281 . S
O197 Hf158 2.209 . S
C198 O177 1.281 . S
C198 O185 1.281 . S
C199 O175 1.281 . S
C199 O186 1.281 . S
H200 C212 0.930 . S
H201 C214 0.930 . S
H202 C215 0.930 . S
H203 C219 0.959 . S
H204 C219 0.959 . S
H205 C219 0.961 . S
H206 C220 0.960 . S
H207 C220 0.961 . S
H208 C220 0.957 . S
H209 C223 0.929 . S
H210 C224 0.931 . S
H211 C226 0.930 . S
C212 H200 0.930 . S
C212 C213 1.399 . S
C212 C217 1.399 . S
C213 C212 1.399 . S
C213 C214 1.376 1_655 S
C214 H201 0.930 . S
C214 C213 1.376 1_455 S
C214 C215 1.388 . S
C215 H202 0.930 . S
C215 C214 1.388 . S
C215 C216 1.390 . S
C216 C215 1.390 . S
C216 C217 1.394 1_455 S
C216 C222 1.465 . S
C217 C212 1.399 . S
C217 C216 1.394 1_655 S
C217 C218 1.516 . S
C218 C217 1.516 . S
C218 C219 1.502 . S
C218 C220 1.561 . S
C218 C221 1.526 . S
C219 H203 0.959 . S
C219 H204 0.959 . S
C219 H205 0.961 . S
C219 C218 1.502 . S
C220 H206 0.960 . S
C220 H207 0.961 . S
C220 H208 0.957 . S
C220 C218 1.561 . S
C221 C218 1.526 . S
C221 C222 1.396 1_655 S
C221 C226 1.390 . S
C222 C216 1.465 . S
C222 C221 1.396 1_455 S
C222 C223 1.399 . S
C223 H209 0.929 . S
C223 C222 1.399 . S
C223 C224 1.385 . S
C224 H210 0.931 . S
C224 C223 1.385 . S
C224 C225 1.389 1_455 S
C225 C224 1.389 1_655 S
C225 C226 1.387 . S
C226 H211 0.930 . S
C226 C221 1.390 . S
C226 C225 1.387 . S
H227 C239 0.930 . S
H228 C241 0.930 . S
H229 C242 0.930 . S
H230 C246 0.959 . S
H231 C246 0.959 . S
H232 C246 0.961 . S
H233 C247 0.960 . S
H234 C247 0.961 . S
H235 C247 0.959 . S
H236 C250 0.929 . S
H237 C251 0.931 . S
H238 C253 0.930 . S
C239 H227 0.930 . S
C239 C240 1.399 . S
C239 C244 1.399 . S
C240 C239 1.399 . S
C240 C241 1.376 1_545 S
C241 H228 0.930 . S
C241 C240 1.376 1_565 S
C241 C242 1.388 . S
C242 H229 0.930 . S
C242 C241 1.388 . S
C242 C243 1.390 . S
C243 C242 1.390 . S
C243 C244 1.394 1_565 S
C243 C249 1.465 . S
C244 C239 1.399 . S
C244 C243 1.394 1_545 S
C244 C245 1.516 . S
C245 C244 1.516 . S
C245 C246 1.502 . S
C245 C247 1.561 . S
C245 C248 1.526 . S
C246 H230 0.959 . S
C246 H231 0.959 . S
C246 H232 0.961 . S
C246 C245 1.502 . S
C247 H233 0.960 . S
C247 H234 0.961 . S
C247 H235 0.959 . S
C247 C245 1.561 . S
C248 C245 1.526 . S
C248 C249 1.396 1_545 S
C248 C253 1.390 . S
C249 C243 1.465 . S
C249 C248 1.396 1_565 S
C249 C250 1.399 . S
C250 H236 0.929 . S
C250 C249 1.399 . S
C250 C251 1.385 . S
C251 H237 0.931 . S
C251 C250 1.385 . S
C251 C252 1.389 1_565 S
C252 C251 1.389 1_545 S
C252 C253 1.387 . S
C253 H238 0.930 . S
C253 C248 1.390 . S
C253 C252 1.387 . S
H254 C266 0.930 . S
H255 C268 0.930 . S
H256 C269 0.930 . S
H257 C273 0.959 . S
H258 C273 0.959 . S
H259 C273 0.961 . S
H260 C274 0.960 . S
H261 C274 0.961 . S
H262 C274 0.959 . S
H263 C277 0.929 . S
H264 C278 0.931 . S
H265 C280 0.930 . S
C266 H254 0.930 . S
C266 C267 1.399 . S
C266 C271 1.399 . S
C267 C266 1.399 . S
C267 C268 1.376 1_455 S
C268 H255 0.930 . S
C268 C267 1.376 1_655 S
C268 C269 1.388 . S
C269 H256 0.930 . S
C269 C268 1.388 . S
C269 C270 1.390 . S
C270 C269 1.390 . S
C270 C271 1.394 1_655 S
C270 C276 1.465 . S
C271 C266 1.399 . S
C271 C270 1.394 1_455 S
C271 C272 1.516 . S
C272 C271 1.516 . S
C272 C273 1.502 . S
C272 C274 1.561 . S
C272 C275 1.526 . S
C273 H257 0.959 . S
C273 H258 0.959 . S
C273 H259 0.961 . S
C273 C272 1.502 . S
C274 H260 0.960 . S
C274 H261 0.961 . S
C274 H262 0.959 . S
C274 C272 1.561 . S
C275 C272 1.526 . S
C275 C276 1.396 1_455 S
C275 C280 1.390 . S
C276 C270 1.465 . S
C276 C275 1.396 1_655 S
C276 C277 1.399 . S
C277 H263 0.929 . S
C277 C276 1.399 . S
C277 C278 1.385 . S
C278 H264 0.931 . S
C278 C277 1.385 . S
C278 C279 1.389 1_655 S
C279 C278 1.389 1_455 S
C279 C280 1.387 . S
C280 H265 0.930 . S
C280 C275 1.390 . S
C280 C279 1.387 . S
H281 C293 0.930 . S
H282 C295 0.930 . S
H283 C296 0.930 . S
H284 C300 0.959 . S
H285 C300 0.959 . S
H286 C300 0.961 . S
H287 C301 0.960 . S
H288 C301 0.961 . S
H289 C301 0.959 . S
H290 C304 0.929 . S
H291 C305 0.931 . S
H292 C307 0.930 . S
C293 H281 0.930 . S
C293 C294 1.399 . S
C293 C298 1.399 . S
C294 C293 1.399 . S
C294 C295 1.376 1_565 S
C295 H282 0.930 . S
C295 C294 1.376 1_545 S
C295 C296 1.388 . S
C296 H283 0.930 . S
C296 C295 1.388 . S
C296 C297 1.390 . S
C297 C296 1.390 . S
C297 C298 1.394 1_545 S
C297 C303 1.465 . S
C298 C293 1.399 . S
C298 C297 1.394 1_565 S
C298 C299 1.516 . S
C299 C298 1.516 . S
C299 C300 1.502 . S
C299 C301 1.561 . S
C299 C302 1.526 . S
C300 H284 0.959 . S
C300 H285 0.959 . S
C300 H286 0.961 . S
C300 C299 1.502 . S
C301 H287 0.960 . S
C301 H288 0.961 . S
C301 H289 0.959 . S
C301 C299 1.561 . S
C302 C299 1.526 . S
C302 C303 1.396 1_565 S
C302 C307 1.390 . S
C303 C297 1.465 . S
C303 C302 1.396 1_545 S
C303 C304 1.399 . S
C304 H290 0.929 . S
C304 C303 1.399 . S
C304 C305 1.385 . S
C305 H291 0.931 . S
C305 C304 1.385 . S
C305 C306 1.389 1_545 S
C306 C305 1.389 1_565 S
C306 C307 1.387 . S
C307 H292 0.930 . S
C307 C302 1.390 . S
C307 C306 1.387 . S
H308 C320 0.930 1_455 S
H309 C322 0.930 . S
H310 C323 0.930 . S
H311 C327 0.959 . S
H312 C327 0.959 . S
H313 C327 0.961 . S
H314 C328 0.960 . S
H315 C328 0.961 . S
H316 C328 0.959 . S
H317 C331 0.929 . S
H318 C332 0.931 . S
H319 C334 0.930 1_455 S
C320 H308 0.930 1_655 S
C320 C321 1.399 . S
C320 C325 1.399 . S
C321 C320 1.399 . S
C321 C322 1.376 . S
C322 H309 0.930 . S
C322 C321 1.376 . S
C322 C323 1.388 . S
C323 H310 0.930 . S
C323 C322 1.388 . S
C323 C324 1.390 . S
C324 C323 1.390 . S
C324 C325 1.394 . S
C324 C330 1.465 . S
C325 C320 1.399 . S
C325 C324 1.394 . S
C325 C326 1.516 . S
C326 C325 1.516 . S
C326 C327 1.502 1_655 S
C326 C328 1.561 . S
C326 C329 1.526 . S
C327 H311 0.959 . S
C327 H312 0.959 . S
C327 H313 0.961 . S
C327 C326 1.502 1_455 S
C328 H314 0.960 . S
C328 H315 0.961 . S
C328 H316 0.959 . S
C328 C326 1.561 . S
C329 C326 1.526 . S
C329 C330 1.396 . S
C329 C334 1.390 . S
C330 C324 1.465 . S
C330 C329 1.396 . S
C330 C331 1.399 . S
C331 H317 0.929 . S
C331 C330 1.399 . S
C331 C332 1.385 . S
C332 H318 0.931 . S
C332 C331 1.385 . S
C332 C333 1.389 . S
C333 C332 1.389 . S
C333 C334 1.387 . S
C334 H319 0.930 1_655 S
C334 C329 1.390 . S
C334 C333 1.387 . S
H335 C347 0.930 . S
H336 C349 0.930 . S
H337 C350 0.930 . S
H338 C354 0.959 . S
H339 C354 0.959 . S
H340 C354 0.961 . S
H341 C355 0.960 . S
H342 C355 0.961 . S
H343 C355 0.959 . S
H344 C358 0.929 . S
H345 C359 0.931 . S
H346 C361 0.930 . S
C347 H335 0.930 . S
C347 C348 1.399 1_565 S
C347 C352 1.399 . S
C348 C347 1.399 1_545 S
C348 C349 1.376 . S
C349 H336 0.930 . S
C349 C348 1.376 . S
C349 C350 1.388 . S
C350 H337 0.930 . S
C350 C349 1.388 . S
C350 C351 1.390 . S
C351 C350 1.390 . S
C351 C352 1.394 1_545 S
C351 C357 1.465 . S
C352 C347 1.399 . S
C352 C351 1.394 1_565 S
C352 C353 1.516 . S
C353 C352 1.516 . S
C353 C354 1.502 . S
C353 C355 1.561 . S
C353 C356 1.526 . S
C354 H338 0.959 . S
C354 H339 0.959 . S
C354 H340 0.961 . S
C354 C353 1.502 . S
C355 H341 0.960 . S
C355 H342 0.961 . S
C355 H343 0.959 . S
C355 C353 1.561 . S
C356 C353 1.526 . S
C356 C357 1.396 1_565 S
C356 C361 1.390 . S
C357 C351 1.465 . S
C357 C356 1.396 1_545 S
C357 C358 1.399 . S
C358 H344 0.929 . S
C358 C357 1.399 . S
C358 C359 1.385 . S
C359 H345 0.931 . S
C359 C358 1.385 . S
C359 C360 1.389 . S
C360 C359 1.389 . S
C360 C361 1.387 1_545 S
C361 H346 0.930 . S
C361 C356 1.390 . S
C361 C360 1.387 1_565 S
H362 C374 0.930 . S
H363 C376 0.930 . S
H364 C377 0.930 . S
H365 C381 0.959 . S
H366 C381 0.959 . S
H367 C381 0.961 . S
H368 C382 0.960 . S
H369 C382 0.961 1_455 S
H370 C382 0.959 . S
H371 C385 0.929 . S
H372 C386 0.931 . S
H373 C388 0.930 . S
C374 H362 0.930 . S
C374 C375 1.399 . S
C374 C379 1.399 . S
C375 C374 1.399 . S
C375 C376 1.376 1_455 S
C376 H363 0.930 . S
C376 C375 1.376 1_655 S
C376 C377 1.388 . S
C377 H364 0.930 . S
C377 C376 1.388 . S
C377 C378 1.390 . S
C378 C377 1.390 . S
C378 C379 1.394 1_655 S
C378 C384 1.465 . S
C379 C374 1.399 . S
C379 C378 1.394 1_455 S
C379 C380 1.516 . S
C380 C379 1.516 . S
C380 C381 1.502 . S
C380 C382 1.561 1_455 S
C380 C383 1.526 . S
C381 H365 0.959 . S
C381 H366 0.959 . S
C381 H367 0.961 . S
C381 C380 1.502 . S
C382 H368 0.960 . S
C382 H369 0.961 1_655 S
C382 H370 0.959 . S
C382 C380 1.561 1_655 S
C383 C380 1.526 . S
C383 C384 1.396 1_455 S
C383 C388 1.390 . S
C384 C378 1.465 . S
C384 C383 1.396 1_655 S
C384 C385 1.399 . S
C385 H371 0.929 . S
C385 C384 1.399 . S
C385 C386 1.385 . S
C386 H372 0.931 . S
C386 C385 1.385 . S
C386 C387 1.389 1_655 S
C387 C386 1.389 1_455 S
C387 C388 1.387 . S
C388 H373 0.930 . S
C388 C383 1.390 . S
C388 C387 1.387 . S
H389 C401 0.930 . S
H390 C403 0.930 . S
H391 C404 0.930 . S
H392 C408 0.959 . S
H393 C408 0.959 . S
H394 C408 0.961 . S
H395 C409 0.960 . S
H396 C409 0.961 . S
H397 C409 0.959 . S
H398 C412 0.929 . S
H399 C413 0.931 . S
H400 C415 0.930 . S
C401 H389 0.930 . S
C401 C402 1.399 . S
C401 C406 1.399 . S
C402 C401 1.399 . S
C402 C403 1.376 1_565 S
C403 H390 0.930 . S
C403 C402 1.376 1_545 S
C403 C404 1.388 . S
C404 H391 0.930 . S
C404 C403 1.388 . S
C404 C405 1.390 . S
C405 C404 1.390 . S
C405 C406 1.394 1_545 S
C405 C411 1.465 . S
C406 C401 1.399 . S
C406 C405 1.394 1_565 S
C406 C407 1.516 . S
C407 C406 1.516 . S
C407 C408 1.502 . S
C407 C409 1.561 . S
C407 C410 1.526 . S
C408 H392 0.959 . S
C408 H393 0.959 . S
C408 H394 0.961 . S
C408 C407 1.502 . S
C409 H395 0.960 . S
C409 H396 0.961 . S
C409 H397 0.959 . S
C409 C407 1.561 . S
C410 C407 1.526 . S
C410 C411 1.396 1_565 S
C410 C415 1.390 . S
C411 C405 1.465 . S
C411 C410 1.396 1_545 S
C411 C412 1.399 . S
C412 H398 0.929 . S
C412 C411 1.399 . S
C412 C413 1.385 . S
C413 H399 0.931 . S
C413 C412 1.385 . S
C413 C414 1.389 1_545 S
C414 C413 1.389 1_565 S
C414 C415 1.387 . S
C415 H400 0.930 . S
C415 C410 1.390 . S
C415 C414 1.387 . S
H416 C428 0.930 . S
H417 C430 0.930 . S
H418 C431 0.930 . S
H419 C435 0.959 . S
H420 C435 0.959 . S
H421 C435 0.961 . S
H422 C436 0.960 . S
H423 C436 0.961 . S
H424 C436 0.959 . S
H425 C439 0.929 . S
H426 C440 0.931 . S
H427 C442 0.930 . S
C428 H416 0.930 . S
C428 C429 1.399 1_554 S
C428 C433 1.399 . S
C429 C428 1.399 1_556 S
C429 C430 1.376 . S
C430 H417 0.930 . S
C430 C429 1.376 . S
C430 C431 1.388 . S
C431 H418 0.930 . S
C431 C430 1.388 . S
C431 C432 1.390 . S
C432 C431 1.390 . S
C432 C433 1.394 1_556 S
C432 C438 1.465 . S
C433 C428 1.399 . S
C433 C432 1.394 1_554 S
C433 C434 1.516 . S
C434 C433 1.516 . S
C434 C435 1.502 . S
C434 C436 1.561 . S
C434 C437 1.526 . S
C435 H419 0.959 . S
C435 H420 0.959 . S
C435 H421 0.961 . S
C435 C434 1.502 . S
C436 H422 0.960 . S
C436 H423 0.961 . S
C436 H424 0.959 . S
C436 C434 1.561 . S
C437 C434 1.526 . S
C437 C438 1.396 1_554 S
C437 C442 1.390 . S
C438 C432 1.465 . S
C438 C437 1.396 1_556 S
C438 C439 1.399 . S
C439 H425 0.929 . S
C439 C438 1.399 . S
C439 C440 1.385 . S
C440 H426 0.931 . S
C440 C439 1.385 . S
C440 C441 1.389 . S
C441 C440 1.389 . S
C441 C442 1.387 1_556 S
C442 H427 0.930 . S
C442 C437 1.390 . S
C442 C441 1.387 1_554 S
H443 C455 0.930 . S
H444 C457 0.930 . S
H445 C458 0.930 . S
H446 C462 0.959 . S
H447 C462 0.959 . S
H448 C462 0.961 . S
H449 C463 0.960 . S
H450 C463 0.961 . S
H451 C463 0.959 . S
H452 C466 0.929 . S
H453 C467 0.931 . S
H454 C469 0.930 . S
C455 H443 0.930 . S
C455 C456 1.399 . S
C455 C460 1.399 . S
C456 C455 1.399 . S
C456 C457 1.376 1_554 S
C457 H444 0.930 . S
C457 C456 1.376 1_556 S
C457 C458 1.388 . S
C458 H445 0.930 . S
C458 C457 1.388 . S
C458 C459 1.390 . S
C459 C458 1.390 . S
C459 C460 1.394 1_556 S
C459 C465 1.465 . S
C460 C455 1.399 . S
C460 C459 1.394 1_554 S
C460 C461 1.516 . S
C461 C460 1.516 . S
C461 C462 1.502 . S
C461 C463 1.561 . S
C461 C464 1.526 . S
C462 H446 0.959 . S
C462 H447 0.959 . S
C462 H448 0.961 . S
C462 C461 1.502 . S
C463 H449 0.960 . S
C463 H450 0.961 . S
C463 H451 0.959 . S
C463 C461 1.561 . S
C464 C461 1.526 . S
C464 C465 1.396 1_554 S
C464 C469 1.390 . S
C465 C459 1.465 . S
C465 C464 1.396 1_556 S
C465 C466 1.399 . S
C466 H452 0.929 . S
C466 C465 1.399 . S
C466 C467 1.385 . S
C467 H453 0.931 . S
C467 C466 1.385 . S
C467 C468 1.389 1_556 S
C468 C467 1.389 1_554 S
C468 C469 1.387 . S
C469 H454 0.930 . S
C469 C464 1.390 . S
C469 C468 1.387 . S
H470 C482 0.930 . S
H471 C484 0.930 . S
H472 C485 0.930 . S
H473 C489 0.959 . S
H474 C489 0.959 . S
H475 C489 0.961 . S
H476 C490 0.960 . S
H477 C490 0.961 . S
H478 C490 0.959 . S
H479 C493 0.929 . S
H480 C494 0.931 . S
H481 C496 0.930 . S
C482 H470 0.930 . S
C482 C483 1.399 . S
C482 C487 1.399 . S
C483 C482 1.399 . S
C483 C484 1.376 1_554 S
C484 H471 0.930 . S
C484 C483 1.376 1_556 S
C484 C485 1.388 . S
C485 H472 0.930 . S
C485 C484 1.388 . S
C485 C486 1.390 . S
C486 C485 1.390 . S
C486 C487 1.394 1_556 S
C486 C492 1.465 . S
C487 C482 1.399 . S
C487 C486 1.394 1_554 S
C487 C488 1.516 . S
C488 C487 1.516 . S
C488 C489 1.502 . S
C488 C490 1.561 . S
C488 C491 1.526 . S
C489 H473 0.959 . S
C489 H474 0.959 . S
C489 H475 0.961 . S
C489 C488 1.502 . S
C490 H476 0.960 . S
C490 H477 0.961 . S
C490 H478 0.959 . S
C490 C488 1.561 . S
C491 C488 1.526 . S
C491 C492 1.396 1_554 S
C491 C496 1.390 . S
C492 C486 1.465 . S
C492 C491 1.396 1_556 S
C492 C493 1.399 . S
C493 H479 0.929 . S
C493 C492 1.399 . S
C493 C494 1.385 . S
C494 H480 0.931 . S
C494 C493 1.385 . S
C494 C495 1.389 1_556 S
C495 C494 1.389 1_554 S
C495 C496 1.387 . S
C496 H481 0.930 . S
C496 C491 1.390 . S
C496 C495 1.387 . S
H497 C509 0.930 . S
H498 C511 0.930 . S
H499 C512 0.930 . S
H500 C516 0.959 . S
H501 C516 0.959 . S
H502 C516 0.961 . S
H503 C517 0.960 . S
H504 C517 0.961 . S
H505 C517 0.959 . S
H506 C520 0.929 . S
H507 C521 0.931 . S
H508 C523 0.930 . S
C509 H497 0.930 . S
C509 C510 1.399 1_554 S
C509 C514 1.399 . S
C510 C509 1.399 1_556 S
C510 C511 1.376 . S
C511 H498 0.930 . S
C511 C510 1.376 . S
C511 C512 1.388 . S
C512 H499 0.930 . S
C512 C511 1.388 . S
C512 C513 1.390 . S
C513 C512 1.390 . S
C513 C514 1.394 1_556 S
C513 C519 1.465 . S
C514 C509 1.399 . S
C514 C513 1.394 1_554 S
C514 C515 1.516 . S
C515 C514 1.516 . S
C515 C516 1.502 . S
C515 C517 1.561 . S
C515 C518 1.526 . S
C516 H500 0.959 . S
C516 H501 0.959 . S
C516 H502 0.961 . S
C516 C515 1.502 . S
C517 H503 0.960 . S
C517 H504 0.961 . S
C517 H505 0.959 . S
C517 C515 1.561 . S
C518 C515 1.526 . S
C518 C519 1.396 1_554 S
C518 C523 1.390 . S
C519 C513 1.465 . S
C519 C518 1.396 1_556 S
C519 C520 1.399 . S
C520 H506 0.929 . S
C520 C519 1.399 . S
C520 C521 1.385 . S
C521 H507 0.931 . S
C521 C520 1.385 . S
C521 C522 1.389 . S
C522 C521 1.389 . S
C522 C523 1.387 1_556 S
C523 H508 0.930 . S
C523 C518 1.390 . S
C523 C522 1.387 1_554 S
H524 C536 0.930 . S
H525 C538 0.930 . S
H526 C539 0.930 . S
H527 C543 0.959 . S
H528 C543 0.959 . S
H529 C543 0.961 . S
H530 C544 0.960 . S
H531 C544 0.961 . S
H532 C544 0.959 . S
H533 C547 0.929 . S
H534 C548 0.931 . S
H535 C550 0.930 . S
C536 H524 0.930 . S
C536 C537 1.399 . S
C536 C541 1.399 . S
C537 C536 1.399 . S
C537 C538 1.376 . S
C538 H525 0.930 . S
C538 C537 1.376 . S
C538 C539 1.388 . S
C539 H526 0.930 . S
C539 C538 1.388 . S
C539 C540 1.390 . S
C540 C539 1.390 . S
C540 C541 1.394 . S
C540 C546 1.465 . S
C541 C536 1.399 . S
C541 C540 1.394 . S
C541 C542 1.516 . S
C542 C541 1.516 . S
C542 C543 1.502 . S
C542 C544 1.561 . S
C542 C545 1.526 . S
C543 H527 0.959 . S
C543 H528 0.959 . S
C543 H529 0.961 . S
C543 C542 1.502 . S
C544 H530 0.960 . S
C544 H531 0.961 . S
C544 H532 0.959 . S
C544 C542 1.561 . S
C545 C542 1.526 . S
C545 C546 1.396 . S
C545 C550 1.390 . S
C546 C540 1.465 . S
C546 C545 1.396 . S
C546 C547 1.399 . S
C547 H533 0.929 . S
C547 C546 1.399 . S
C547 C548 1.385 . S
C548 H534 0.931 . S
C548 C547 1.385 . S
C548 C549 1.389 . S
C549 C548 1.389 . S
C549 C550 1.387 . S
C550 H535 0.930 . S
C550 C545 1.390 . S
C550 C549 1.387 . S
H551 C563 0.930 . S
H552 C565 0.930 . S
H553 C566 0.930 . S
H554 C570 0.959 . S
H555 C570 0.959 . S
H556 C570 0.961 . S
H557 C571 0.960 . S
H558 C571 0.961 . S
H559 C571 0.959 . S
H560 C574 0.929 . S
H561 C575 0.931 . S
H562 C577 0.930 . S
C563 H551 0.930 . S
C563 C564 1.399 . S
C563 C568 1.399 . S
C564 C563 1.399 . S
C564 C565 1.376 . S
C565 H552 0.930 . S
C565 C564 1.376 . S
C565 C566 1.388 . S
C566 H553 0.930 . S
C566 C565 1.388 . S
C566 C567 1.390 . S
C567 C566 1.390 . S
C567 C568 1.394 . S
C567 C573 1.465 . S
C568 C563 1.399 . S
C568 C567 1.394 . S
C568 C569 1.516 . S
C569 C568 1.516 . S
C569 C570 1.502 . S
C569 C571 1.561 . S
C569 C572 1.526 . S
C570 H554 0.959 . S
C570 H555 0.959 . S
C570 H556 0.961 . S
C570 C569 1.502 . S
C571 H557 0.960 . S
C571 H558 0.961 . S
C571 H559 0.959 . S
C571 C569 1.561 . S
C572 C569 1.526 . S
C572 C573 1.396 . S
C572 C577 1.390 . S
C573 C567 1.465 . S
C573 C572 1.396 . S
C573 C574 1.399 . S
C574 H560 0.929 . S
C574 C573 1.399 . S
C574 C575 1.385 . S
C575 H561 0.931 . S
C575 C574 1.385 . S
C575 C576 1.389 . S
C576 C575 1.389 . S
C576 C577 1.387 . S
C577 H562 0.930 . S
C577 C572 1.390 . S
C577 C576 1.387 . S
H578 C590 0.930 . S
H579 C592 0.930 . S
H580 C593 0.930 . S
H581 C597 0.959 . S
H582 C597 0.959 . S
H583 C597 0.961 . S
H584 C598 0.960 . S
H585 C598 0.961 . S
H586 C598 0.959 . S
H587 C601 0.929 . S
H588 C602 0.931 . S
H589 C604 0.930 . S
C590 H578 0.930 . S
C590 C591 1.399 . S
C590 C595 1.399 . S
C591 C590 1.399 . S
C591 C592 1.376 . S
C592 H579 0.930 . S
C592 C591 1.376 . S
C592 C593 1.388 . S
C593 H580 0.930 . S
C593 C592 1.388 . S
C593 C594 1.390 . S
C594 C593 1.390 . S
C594 C595 1.394 . S
C594 C600 1.465 . S
C595 C590 1.399 . S
C595 C594 1.394 . S
C595 C596 1.516 . S
C596 C595 1.516 . S
C596 C597 1.502 . S
C596 C598 1.561 . S
C596 C599 1.526 . S
C597 H581 0.959 . S
C597 H582 0.959 . S
C597 H583 0.961 . S
C597 C596 1.502 . S
C598 H584 0.960 . S
C598 H585 0.961 . S
C598 H586 0.959 . S
C598 C596 1.561 . S
C599 C596 1.526 . S
C599 C600 1.396 . S
C599 C604 1.390 . S
C600 C594 1.465 . S
C600 C599 1.396 . S
C600 C601 1.399 . S
C601 H587 0.929 . S
C601 C600 1.399 . S
C601 C602 1.385 . S
C602 H588 0.931 . S
C602 C601 1.385 . S
C602 C603 1.389 . S
C603 C602 1.389 . S
C603 C604 1.387 . S
C604 H589 0.930 . S
C604 C599 1.390 . S
C604 C603 1.387 . S
H605 C617 0.930 . S
H606 C619 0.930 . S
H607 C620 0.930 . S
H608 C624 0.959 . S
H609 C624 0.959 . S
H610 C624 0.961 . S
H611 C625 0.960 . S
H612 C625 0.961 . S
H613 C625 0.959 . S
H614 C628 0.929 . S
H615 C629 0.931 . S
H616 C631 0.930 . S
C617 H605 0.930 . S
C617 C618 1.399 . S
C617 C622 1.399 . S
C618 C617 1.399 . S
C618 C619 1.376 . S
C619 H606 0.930 . S
C619 C618 1.376 . S
C619 C620 1.388 . S
C620 H607 0.930 . S
C620 C619 1.388 . S
C620 C621 1.390 . S
C621 C620 1.390 . S
C621 C622 1.394 . S
C621 C627 1.465 . S
C622 C617 1.399 . S
C622 C621 1.394 . S
C622 C623 1.516 . S
C623 C622 1.516 . S
C623 C624 1.502 . S
C623 C625 1.561 . S
C623 C626 1.526 . S
C624 H608 0.959 . S
C624 H609 0.959 . S
C624 H610 0.961 . S
C624 C623 1.502 . S
C625 H611 0.960 . S
C625 H612 0.961 . S
C625 H613 0.959 . S
C625 C623 1.561 . S
C626 C623 1.526 . S
C626 C627 1.396 . S
C626 C631 1.390 . S
C627 C621 1.465 . S
C627 C626 1.396 . S
C627 C628 1.399 . S
C628 H614 0.929 . S
C628 C627 1.399 . S
C628 C629 1.385 . S
C629 H615 0.931 . S
C629 C628 1.385 . S
C629 C630 1.389 . S
C630 C629 1.389 . S
C630 C631 1.387 . S
C631 H616 0.930 . S
C631 C626 1.390 . S
C631 C630 1.387 . S
H632 C644 0.930 . S
H633 C646 0.930 . S
H634 C647 0.930 . S
H635 C651 0.959 . S
H636 C651 0.959 . S
H637 C651 0.961 . S
H638 C652 0.960 . S
H639 C652 0.961 . S
H640 C652 0.959 . S
H641 C655 0.929 . S
H642 C656 0.931 . S
H643 C658 0.930 . S
C644 H632 0.930 . S
C644 C645 1.399 . S
C644 C649 1.399 . S
C645 C644 1.399 . S
C645 C646 1.376 . S
C646 H633 0.930 . S
C646 C645 1.376 . S
C646 C647 1.388 . S
C647 H634 0.930 . S
C647 C646 1.388 . S
C647 C648 1.390 . S
C648 C647 1.390 . S
C648 C649 1.394 . S
C648 C654 1.465 . S
C649 C644 1.399 . S
C649 C648 1.394 . S
C649 C650 1.516 . S
C650 C649 1.516 . S
C650 C651 1.502 . S
C650 C652 1.561 . S
C650 C653 1.526 . S
C651 H635 0.959 . S
C651 H636 0.959 . S
C651 H637 0.961 . S
C651 C650 1.502 . S
C652 H638 0.960 . S
C652 H639 0.961 . S
C652 H640 0.959 . S
C652 C650 1.561 . S
C653 C650 1.526 . S
C653 C654 1.396 . S
C653 C658 1.390 . S
C654 C648 1.465 . S
C654 C653 1.396 . S
C654 C655 1.399 . S
C655 H641 0.929 . S
C655 C654 1.399 . S
C655 C656 1.385 . S
C656 H642 0.931 . S
C656 C655 1.385 . S
C656 C657 1.389 . S
C657 C656 1.389 . S
C657 C658 1.387 . S
C658 H643 0.930 . S
C658 C653 1.390 . S
C658 C657 1.387 . S
H659 C671 0.930 . S
H660 C673 0.930 . S
H661 C674 0.930 . S
H662 C678 0.959 . S
H663 C678 0.959 . S
H664 C678 0.961 . S
H665 C679 0.960 . S
H666 C679 0.961 . S
H667 C679 0.959 . S
H668 C682 0.929 . S
H669 C683 0.931 . S
H670 C685 0.930 . S
C671 H659 0.930 . S
C671 C672 1.399 . S
C671 C676 1.399 . S
C672 C671 1.399 . S
C672 C673 1.376 . S
C673 H660 0.930 . S
C673 C672 1.376 . S
C673 C674 1.388 . S
C674 H661 0.930 . S
C674 C673 1.388 . S
C674 C675 1.390 . S
C675 C674 1.390 . S
C675 C676 1.394 . S
C675 C681 1.465 . S
C676 C671 1.399 . S
C676 C675 1.394 . S
C676 C677 1.516 . S
C677 C676 1.516 . S
C677 C678 1.502 . S
C677 C679 1.561 . S
C677 C680 1.526 . S
C678 H662 0.959 . S
C678 H663 0.959 . S
C678 H664 0.961 . S
C678 C677 1.502 . S
C679 H665 0.960 . S
C679 H666 0.961 . S
C679 H667 0.959 . S
C679 C677 1.561 . S
C680 C677 1.526 . S
C680 C681 1.396 . S
C680 C685 1.390 . S
C681 C675 1.465 . S
C681 C680 1.396 . S
C681 C682 1.399 . S
C682 H668 0.929 . S
C682 C681 1.399 . S
C682 C683 1.385 . S
C683 H669 0.931 . S
C683 C682 1.385 . S
C683 C684 1.389 . S
C684 C683 1.389 . S
C684 C685 1.387 . S
C685 H670 0.930 . S
C685 C680 1.390 . S
C685 C684 1.387 . S
H686 C698 0.930 . S
H687 C700 0.930 . S
H688 C701 0.930 . S
H689 C705 0.959 . S
H690 C705 0.959 . S
H691 C705 0.961 . S
H692 C706 0.960 . S
H693 C706 0.961 . S
H694 C706 0.959 . S
H695 C709 0.929 . S
H696 C710 0.931 . S
H697 C712 0.930 . S
C698 H686 0.930 . S
C698 C699 1.399 . S
C698 C703 1.399 . S
C699 C698 1.399 . S
C699 C700 1.376 . S
C700 H687 0.930 . S
C700 C699 1.376 . S
C700 C701 1.388 . S
C701 H688 0.930 . S
C701 C700 1.388 . S
C701 C702 1.390 . S
C702 C701 1.390 . S
C702 C703 1.394 . S
C702 C708 1.465 . S
C703 C698 1.399 . S
C703 C702 1.394 . S
C703 C704 1.516 . S
C704 C703 1.516 . S
C704 C705 1.502 . S
C704 C706 1.561 . S
C704 C707 1.526 . S
C705 H689 0.959 . S
C705 H690 0.959 . S
C705 H691 0.961 . S
C705 C704 1.502 . S
C706 H692 0.960 . S
C706 H693 0.961 . S
C706 H694 0.959 . S
C706 C704 1.561 . S
C707 C704 1.526 . S
C707 C708 1.396 . S
C707 C712 1.390 . S
C708 C702 1.465 . S
C708 C707 1.396 . S
C708 C709 1.399 . S
C709 H695 0.929 . S
C709 C708 1.399 . S
C709 C710 1.385 . S
C710 H696 0.931 . S
C710 C709 1.385 . S
C710 C711 1.389 . S
C711 C710 1.389 . S
C711 C712 1.387 . S
C712 H697 0.930 . S
C712 C707 1.390 . S
C712 C711 1.387 . S
H713 C725 0.930 . S
H714 C727 0.930 . S
H715 C728 0.930 . S
H716 C732 0.959 . S
H717 C732 0.959 . S
H718 C732 0.961 . S
H719 C733 0.960 . S
H720 C733 0.961 . S
H721 C733 0.959 . S
H722 C736 0.929 . S
H723 C737 0.931 . S
H724 C739 0.930 . S
C725 H713 0.930 . S
C725 C726 1.399 . S
C725 C730 1.399 . S
C726 C725 1.399 . S
C726 C727 1.376 . S
C727 H714 0.930 . S
C727 C726 1.376 . S
C727 C728 1.388 . S
C728 H715 0.930 . S
C728 C727 1.388 . S
C728 C729 1.390 . S
C729 C728 1.390 . S
C729 C730 1.394 . S
C729 C735 1.465 . S
C730 C725 1.399 . S
C730 C729 1.394 . S
C730 C731 1.516 . S
C731 C730 1.516 . S
C731 C732 1.502 . S
C731 C733 1.561 . S
C731 C734 1.526 . S
C732 H716 0.959 . S
C732 H717 0.959 . S
C732 H718 0.961 . S
C732 C731 1.502 . S
C733 H719 0.960 . S
C733 H720 0.961 . S
C733 H721 0.959 . S
C733 C731 1.561 . S
C734 C731 1.526 . S
C734 C735 1.396 . S
C734 C739 1.390 . S
C735 C729 1.465 . S
C735 C734 1.396 . S
C735 C736 1.399 . S
C736 H722 0.929 . S
C736 C735 1.399 . S
C736 C737 1.385 . S
C737 H723 0.931 . S
C737 C736 1.385 . S
C737 C738 1.389 . S
C738 C737 1.389 . S
C738 C739 1.387 . S
C739 H724 0.930 . S
C739 C734 1.390 . S
C739 C738 1.387 . S
H740 C752 0.930 . S
H741 C754 0.930 . S
H742 C755 0.930 . S
H743 C759 0.959 . S
H744 C759 0.959 . S
H745 C759 0.961 . S
H746 C760 0.960 . S
H747 C760 0.961 . S
H748 C760 0.959 . S
H749 C763 0.929 . S
H750 C764 0.931 . S
H751 C766 0.930 . S
C752 H740 0.930 . S
C752 C753 1.399 . S
C752 C757 1.399 . S
C753 C752 1.399 . S
C753 C754 1.376 . S
C754 H741 0.930 . S
C754 C753 1.376 . S
C754 C755 1.388 . S
C755 H742 0.930 . S
C755 C754 1.388 . S
C755 C756 1.390 . S
C756 C755 1.390 . S
C756 C757 1.394 . S
C756 C762 1.465 . S
C757 C752 1.399 . S
C757 C756 1.394 . S
C757 C758 1.516 . S
C758 C757 1.516 . S
C758 C759 1.502 . S
C758 C760 1.561 . S
C758 C761 1.526 . S
C759 H743 0.959 . S
C759 H744 0.959 . S
C759 H745 0.961 . S
C759 C758 1.502 . S
C760 H746 0.960 . S
C760 H747 0.961 . S
C760 H748 0.959 . S
C760 C758 1.561 . S
C761 C758 1.526 . S
C761 C762 1.396 . S
C761 C766 1.390 . S
C762 C756 1.465 . S
C762 C761 1.396 . S
C762 C763 1.399 . S
C763 H749 0.929 . S
C763 C762 1.399 . S
C763 C764 1.385 . S
C764 H750 0.931 . S
C764 C763 1.385 . S
C764 C765 1.389 . S
C765 C764 1.389 . S
C765 C766 1.387 . S
C766 H751 0.930 . S
C766 C761 1.390 . S
C766 C765 1.387 . S
H767 C779 0.930 . S
H768 C781 0.930 . S
H769 C782 0.930 . S
H770 C786 0.959 . S
H771 C786 0.959 . S
H772 C786 0.961 . S
H773 C787 0.960 . S
H774 C787 0.961 . S
H775 C787 0.959 . S
H776 C790 0.929 . S
H777 C791 0.931 . S
H778 C793 0.930 . S
C779 H767 0.930 . S
C779 C780 1.399 . S
C779 C784 1.399 . S
C780 C779 1.399 . S
C780 C781 1.376 . S
C781 H768 0.930 . S
C781 C780 1.376 . S
C781 C782 1.388 . S
C782 H769 0.930 . S
C782 C781 1.388 . S
C782 C783 1.390 . S
C783 C782 1.390 . S
C783 C784 1.394 . S
C783 C789 1.465 . S
C784 C779 1.399 . S
C784 C783 1.394 . S
C784 C785 1.516 . S
C785 C784 1.516 . S
C785 C786 1.502 . S
C785 C787 1.561 . S
C785 C788 1.526 . S
C786 H770 0.959 . S
C786 H771 0.959 . S
C786 H772 0.961 . S
C786 C785 1.502 . S
C787 H773 0.960 . S
C787 H774 0.961 . S
C787 H775 0.959 . S
C787 C785 1.561 . S
C788 C785 1.526 . S
C788 C789 1.396 . S
C788 C793 1.390 . S
C789 C783 1.465 . S
C789 C788 1.396 . S
C789 C790 1.399 . S
C790 H776 0.929 . S
C790 C789 1.399 . S
C790 C791 1.385 . S
C791 H777 0.931 . S
C791 C790 1.385 . S
C791 C792 1.389 . S
C792 C791 1.389 . S
C792 C793 1.387 . S
C793 H778 0.930 . S
C793 C788 1.390 . S
C793 C792 1.387 . S
H794 C806 0.930 . S
H795 C808 0.930 . S
H796 C809 0.930 . S
H797 C813 0.959 . S
H798 C813 0.959 . S
H799 C813 0.961 . S
H800 C814 0.960 . S
H801 C814 0.961 . S
H802 C814 0.959 . S
H803 C817 0.929 . S
H804 C818 0.931 . S
H805 C820 0.930 . S
C806 H794 0.930 . S
C806 C807 1.399 . S
C806 C811 1.399 . S
C807 C806 1.399 . S
C807 C808 1.376 . S
C808 H795 0.930 . S
C808 C807 1.376 . S
C808 C809 1.388 . S
C809 H796 0.930 . S
C809 C808 1.388 . S
C809 C810 1.390 . S
C810 C809 1.390 . S
C810 C811 1.394 . S
C810 C816 1.465 . S
C811 C806 1.399 . S
C811 C810 1.394 . S
C811 C812 1.516 . S
C812 C811 1.516 . S
C812 C813 1.502 . S
C812 C814 1.561 . S
C812 C815 1.526 . S
C813 H797 0.959 . S
C813 H798 0.959 . S
C813 H799 0.961 . S
C813 C812 1.502 . S
C814 H800 0.960 . S
C814 H801 0.961 . S
C814 H802 0.959 . S
C814 C812 1.561 . S
C815 C812 1.526 . S
C815 C816 1.396 . S
C815 C820 1.390 . S
C816 C810 1.465 . S
C816 C815 1.396 . S
C816 C817 1.399 . S
C817 H803 0.929 . S
C817 C816 1.399 . S
C817 C818 1.385 . S
C818 H804 0.931 . S
C818 C817 1.385 . S
C818 C819 1.389 . S
C819 C818 1.389 . S
C819 C820 1.387 . S
C820 H805 0.930 . S
C820 C815 1.390 . S
C820 C819 1.387 . S
H821 C833 0.930 . S
H822 C835 0.930 . S
H823 C836 0.930 . S
H824 C840 0.959 . S
H825 C840 0.959 . S
H826 C840 0.961 . S
H827 C841 0.960 . S
H828 C841 0.961 . S
H829 C841 0.959 . S
H830 C844 0.929 . S
H831 C845 0.931 . S
H832 C847 0.930 . S
C833 H821 0.930 . S
C833 C834 1.399 . S
C833 C838 1.399 . S
C834 C833 1.399 . S
C834 C835 1.376 . S
C835 H822 0.930 . S
C835 C834 1.376 . S
C835 C836 1.388 . S
C836 H823 0.930 . S
C836 C835 1.388 . S
C836 C837 1.390 . S
C837 C836 1.390 . S
C837 C838 1.394 . S
C837 C843 1.465 . S
C838 C833 1.399 . S
C838 C837 1.394 . S
C838 C839 1.516 . S
C839 C838 1.516 . S
C839 C840 1.502 . S
C839 C841 1.561 . S
C839 C842 1.526 . S
C840 H824 0.959 . S
C840 H825 0.959 . S
C840 H826 0.961 . S
C840 C839 1.502 . S
C841 H827 0.960 . S
C841 H828 0.961 . S
C841 H829 0.959 . S
C841 C839 1.561 . S
C842 C839 1.526 . S
C842 C843 1.396 . S
C842 C847 1.390 . S
C843 C837 1.465 . S
C843 C842 1.396 . S
C843 C844 1.399 . S
C844 H830 0.929 . S
C844 C843 1.399 . S
C844 C845 1.385 . S
C845 H831 0.931 . S
C845 C844 1.385 . S
C845 C846 1.389 . S
C846 C845 1.389 . S
C846 C847 1.387 . S
C847 H832 0.930 . S
C847 C842 1.390 . S
C847 C846 1.387 . S
C213 C0 1.484 . S
C225 C91 1.482 . S
C240 C22 1.485 . S
C252 C131 1.485 . S
C267 C49 1.486 . S
C279 C98 1.486 . S
C294 C134 1.486 . S
C306 C19 1.482 . S
C321 C41 1.492 . S
C333 C50 1.495 . S
C348 C31 1.493 . S
C360 C122 1.494 . S
C375 C99 1.485 . S
C387 C48 1.487 . S
C402 C119 1.485 . S
C414 C34 1.488 . S
C429 C166 1.493 . S
C441 C17 1.490 . S
C456 C151 1.486 . S
C468 C18 1.485 . S
C483 C168 1.484 . S
C495 C1 1.485 . S
C510 C16 1.493 . S
C522 C167 1.498 . S
C537 C181 1.492 . S
C549 C72 1.497 . S
C564 C69 1.494 . S
C576 C184 1.494 . S
C591 C81 1.486 . S
C603 C172 1.481 . S
C618 C169 1.493 . S
C630 C84 1.494 . S
C645 C116 1.493 . S
C657 C67 1.494 . S
C672 C68 1.493 . S
C684 C101 1.491 . S
C699 C51 1.487 . S
C711 C118 1.490 . S
C726 C117 1.494 . S
C738 C66 1.494 . S
C753 C191 1.492 . S
C765 C100 1.491 . S
C780 C149 1.489 . S
C792 C198 1.492 . S
C807 C150 1.491 . S
C819 C141 1.490 . S
C834 C148 1.494 . S
C846 C199 1.490 . S
