# Generated by pormake.
# Topology uox, (4)-cn, num edge types: 1
# Building blocks:
#     Node 0, Type 0, BuildingBlock: QUQFOY_clean_sbu_1, # of connection points: 4
#     Node 1, Type 0, BuildingBlock: QUQFOY_clean_sbu_1, # of connection points: 4
#     Node 2, Type 0, BuildingBlock: QUQFOY_clean_sbu_1, # of connection points: 4
#     Node 3, Type 0, BuildingBlock: QUQFOY_clean_sbu_1, # of connection points: 4
#     Node 4, Type 0, BuildingBlock: QUQFOY_clean_sbu_1, # of connection points: 4
#     Node 5, Type 0, BuildingBlock: QUQFOY_clean_sbu_1, # of connection points: 4
#     Node 6, Type 0, BuildingBlock: QUQFOY_clean_sbu_1, # of connection points: 4
#     Node 7, Type 0, BuildingBlock: QUQFOY_clean_sbu_1, # of connection points: 4
#     Node 8, Type 0, BuildingBlock: QUQFOY_clean_sbu_1, # of connection points: 4
#     Node 9, Type 0, BuildingBlock: QUQFOY_clean_sbu_1, # of connection points: 4
#     Node 10, Type 0, BuildingBlock: QUQFOY_clean_sbu_1, # of connection points: 4
#     Node 11, Type 0, BuildingBlock: QUQFOY_clean_sbu_1, # of connection points: 4
#     Node 12, Type 0, BuildingBlock: QUQFOY_clean_sbu_1, # of connection points: 4
#     Node 13, Type 0, BuildingBlock: QUQFOY_clean_sbu_1, # of connection points: 4
#     Node 14, Type 0, BuildingBlock: QUQFOY_clean_sbu_1, # of connection points: 4
#     Node 15, Type 0, BuildingBlock: QUQFOY_clean_sbu_1, # of connection points: 4
#     Node 16, Type 0, BuildingBlock: QUQFOY_clean_sbu_1, # of connection points: 4
#     Node 17, Type 0, BuildingBlock: QUQFOY_clean_sbu_1, # of connection points: 4
#     Node 18, Type 0, BuildingBlock: QUQFOY_clean_sbu_1, # of connection points: 4
#     Node 19, Type 0, BuildingBlock: QUQFOY_clean_sbu_1, # of connection points: 4
#     Node 20, Type 0, BuildingBlock: QUQFOY_clean_sbu_1, # of connection points: 4
#     Node 21, Type 0, BuildingBlock: QUQFOY_clean_sbu_1, # of connection points: 4
#     Node 22, Type 0, BuildingBlock: QUQFOY_clean_sbu_1, # of connection points: 4
#     Node 23, Type 0, BuildingBlock: QUQFOY_clean_sbu_1, # of connection points: 4
#     Node 24, Type 0, BuildingBlock: QUQFOY_clean_sbu_1, # of connection points: 4
#     Node 25, Type 0, BuildingBlock: QUQFOY_clean_sbu_1, # of connection points: 4
#     Node 26, Type 0, BuildingBlock: QUQFOY_clean_sbu_1, # of connection points: 4
#     Node 27, Type 0, BuildingBlock: QUQFOY_clean_sbu_1, # of connection points: 4
#     Node 28, Type 0, BuildingBlock: QUQFOY_clean_sbu_1, # of connection points: 4
#     Node 29, Type 0, BuildingBlock: QUQFOY_clean_sbu_1, # of connection points: 4
#     Node 30, Type 0, BuildingBlock: QUQFOY_clean_sbu_1, # of connection points: 4
#     Node 31, Type 0, BuildingBlock: QUQFOY_clean_sbu_1, # of connection points: 4
#     Edge 32, Type (0, 0), BuildingBlock: XIVTED_clean_linker_0, # of connection points: 2
#     Edge 33, Type (0, 0), BuildingBlock: XIVTED_clean_linker_0, # of connection points: 2
#     Edge 34, Type (0, 0), BuildingBlock: XIVTED_clean_linker_0, # of connection points: 2
#     Edge 35, Type (0, 0), BuildingBlock: XIVTED_clean_linker_0, # of connection points: 2
#     Edge 36, Type (0, 0), BuildingBlock: XIVTED_clean_linker_0, # of connection points: 2
#     Edge 37, Type (0, 0), BuildingBlock: XIVTED_clean_linker_0, # of connection points: 2
#     Edge 38, Type (0, 0), BuildingBlock: XIVTED_clean_linker_0, # of connection points: 2
#     Edge 39, Type (0, 0), BuildingBlock: XIVTED_clean_linker_0, # of connection points: 2
#     Edge 40, Type (0, 0), BuildingBlock: XIVTED_clean_linker_0, # of connection points: 2
#     Edge 41, Type (0, 0), BuildingBlock: XIVTED_clean_linker_0, # of connection points: 2
#     Edge 42, Type (0, 0), BuildingBlock: XIVTED_clean_linker_0, # of connection points: 2
#     Edge 43, Type (0, 0), BuildingBlock: XIVTED_clean_linker_0, # of connection points: 2
#     Edge 44, Type (0, 0), BuildingBlock: XIVTED_clean_linker_0, # of connection points: 2
#     Edge 45, Type (0, 0), BuildingBlock: XIVTED_clean_linker_0, # of connection points: 2
#     Edge 46, Type (0, 0), BuildingBlock: XIVTED_clean_linker_0, # of connection points: 2
#     Edge 47, Type (0, 0), BuildingBlock: XIVTED_clean_linker_0, # of connection points: 2
#     Edge 48, Type (0, 0), BuildingBlock: XIVTED_clean_linker_0, # of connection points: 2
#     Edge 49, Type (0, 0), BuildingBlock: XIVTED_clean_linker_0, # of connection points: 2
#     Edge 50, Type (0, 0), BuildingBlock: XIVTED_clean_linker_0, # of connection points: 2
#     Edge 51, Type (0, 0), BuildingBlock: XIVTED_clean_linker_0, # of connection points: 2
#     Edge 52, Type (0, 0), BuildingBlock: XIVTED_clean_linker_0, # of connection points: 2
#     Edge 53, Type (0, 0), BuildingBlock: XIVTED_clean_linker_0, # of connection points: 2
#     Edge 54, Type (0, 0), BuildingBlock: XIVTED_clean_linker_0, # of connection points: 2
#     Edge 55, Type (0, 0), BuildingBlock: XIVTED_clean_linker_0, # of connection points: 2
#     Edge 56, Type (0, 0), BuildingBlock: XIVTED_clean_linker_0, # of connection points: 2
#     Edge 57, Type (0, 0), BuildingBlock: XIVTED_clean_linker_0, # of connection points: 2
#     Edge 58, Type (0, 0), BuildingBlock: XIVTED_clean_linker_0, # of connection points: 2
#     Edge 59, Type (0, 0), BuildingBlock: XIVTED_clean_linker_0, # of connection points: 2
#     Edge 60, Type (0, 0), BuildingBlock: XIVTED_clean_linker_0, # of connection points: 2
#     Edge 61, Type (0, 0), BuildingBlock: XIVTED_clean_linker_0, # of connection points: 2
#     Edge 62, Type (0, 0), BuildingBlock: XIVTED_clean_linker_0, # of connection points: 2
#     Edge 63, Type (0, 0), BuildingBlock: XIVTED_clean_linker_0, # of connection points: 2
#     Edge 64, Type (0, 0), BuildingBlock: XIVTED_clean_linker_0, # of connection points: 2
#     Edge 65, Type (0, 0), BuildingBlock: XIVTED_clean_linker_0, # of connection points: 2
#     Edge 66, Type (0, 0), BuildingBlock: XIVTED_clean_linker_0, # of connection points: 2
#     Edge 67, Type (0, 0), BuildingBlock: XIVTED_clean_linker_0, # of connection points: 2
#     Edge 68, Type (0, 0), BuildingBlock: XIVTED_clean_linker_0, # of connection points: 2
#     Edge 69, Type (0, 0), BuildingBlock: XIVTED_clean_linker_0, # of connection points: 2
#     Edge 70, Type (0, 0), BuildingBlock: XIVTED_clean_linker_0, # of connection points: 2
#     Edge 71, Type (0, 0), BuildingBlock: XIVTED_clean_linker_0, # of connection points: 2
#     Edge 72, Type (0, 0), BuildingBlock: XIVTED_clean_linker_0, # of connection points: 2
#     Edge 73, Type (0, 0), BuildingBlock: XIVTED_clean_linker_0, # of connection points: 2
#     Edge 74, Type (0, 0), BuildingBlock: XIVTED_clean_linker_0, # of connection points: 2
#     Edge 75, Type (0, 0), BuildingBlock: XIVTED_clean_linker_0, # of connection points: 2
#     Edge 76, Type (0, 0), BuildingBlock: XIVTED_clean_linker_0, # of connection points: 2
#     Edge 77, Type (0, 0), BuildingBlock: XIVTED_clean_linker_0, # of connection points: 2
#     Edge 78, Type (0, 0), BuildingBlock: XIVTED_clean_linker_0, # of connection points: 2
#     Edge 79, Type (0, 0), BuildingBlock: XIVTED_clean_linker_0, # of connection points: 2
#     Edge 80, Type (0, 0), BuildingBlock: XIVTED_clean_linker_0, # of connection points: 2
#     Edge 81, Type (0, 0), BuildingBlock: XIVTED_clean_linker_0, # of connection points: 2
#     Edge 82, Type (0, 0), BuildingBlock: XIVTED_clean_linker_0, # of connection points: 2
#     Edge 83, Type (0, 0), BuildingBlock: XIVTED_clean_linker_0, # of connection points: 2
#     Edge 84, Type (0, 0), BuildingBlock: XIVTED_clean_linker_0, # of connection points: 2
#     Edge 85, Type (0, 0), BuildingBlock: XIVTED_clean_linker_0, # of connection points: 2
#     Edge 86, Type (0, 0), BuildingBlock: XIVTED_clean_linker_0, # of connection points: 2
#     Edge 87, Type (0, 0), BuildingBlock: XIVTED_clean_linker_0, # of connection points: 2
#     Edge 88, Type (0, 0), BuildingBlock: XIVTED_clean_linker_0, # of connection points: 2
#     Edge 89, Type (0, 0), BuildingBlock: XIVTED_clean_linker_0, # of connection points: 2
#     Edge 90, Type (0, 0), BuildingBlock: XIVTED_clean_linker_0, # of connection points: 2
#     Edge 91, Type (0, 0), BuildingBlock: XIVTED_clean_linker_0, # of connection points: 2
#     Edge 92, Type (0, 0), BuildingBlock: XIVTED_clean_linker_0, # of connection points: 2
#     Edge 93, Type (0, 0), BuildingBlock: XIVTED_clean_linker_0, # of connection points: 2
#     Edge 94, Type (0, 0), BuildingBlock: XIVTED_clean_linker_0, # of connection points: 2
#     Edge 95, Type (0, 0), BuildingBlock: XIVTED_clean_linker_0, # of connection points: 2
# Relax obj value: 0.074
# Max RMSD: 0.135
# Mean RMSD: 0.135
data_MOF--net-uox--node1-QUQFOY_clean_sbu_1--edge1-XIVTED_clean_linker_0
_symmetry_space_group_name_H-M    P1
_symmetry_Int_Tables_number       1
_symmetry_cell_setting            triclinic
loop_
_symmetry_equiv_pos_as_xyz
'x, y, z'
_cell_length_a     46.951525
_cell_length_b     46.948734
_cell_length_c     86.879864
_cell_angle_alpha  89.998985
_cell_angle_beta   90.002436
_cell_angle_gamma 90.003292
loop_
_atom_site_label
_atom_site_type_symbol
_atom_site_fract_x
_atom_site_fract_y
_atom_site_fract_z
_atom_type_partial_charge
O0 O 0.3962 0.99406 0.15764 0.0
Cd1 Cd 0.40789 0.03144 0.16849 0.0
Cd2 Cd 0.43797 0.03555 0.14004 0.0
O3 O 0.42251 0.99507 0.13659 0.0
O4 O 0.38762 0.02695 0.18848 0.0
O5 O 0.43444 0.02878 0.18693 0.0
C6 C 0.41191 0.02573 0.1953 0.0
C7 C 0.48544 0.04645 0.13479 0.0
C8 C 0.4046 0.98255 0.1452 0.0
C9 C 0.39376 0.08024 0.14691 0.0
O10 O 0.41012 0.06886 0.13703 0.0
O11 O 0.39138 0.06965 0.16034 0.0
O12 O 0.46743 0.04161 0.1239 0.0
O13 O 0.47669 0.04401 0.14883 0.0
O14 O 0.25532 0.1477 0.40747 0.0
Cd15 Cd 0.21792 0.15925 0.41834 0.0
Cd16 Cd 0.21367 0.18929 0.38989 0.0
O17 O 0.2542 0.17398 0.38641 0.0
O18 O 0.22267 0.13916 0.43837 0.0
O19 O 0.22053 0.18595 0.43671 0.0
C20 C 0.22383 0.16351 0.44512 0.0
C21 C 0.20261 0.23671 0.38458 0.0
C22 C 0.26678 0.15612 0.39503 0.0
C23 C 0.16917 0.14485 0.3968 0.0
O24 O 0.18047 0.16128 0.38692 0.0
O25 O 0.17978 0.1425 0.41022 0.0
O26 O 0.20751 0.21868 0.37372 0.0
O27 O 0.20507 0.22803 0.39864 0.0
O28 O 0.10175 0.00493 0.65655 0.0
Cd29 Cd 0.09065 0.96729 0.6673 0.0
Cd30 Cd 0.06039 0.96324 0.63891 0.0
O31 O 0.07503 0.00405 0.63564 0.0
O32 O 0.11075 0.97207 0.68733 0.0
O33 O 0.06397 0.96953 0.6857 0.0
C34 C 0.0864 0.97303 0.69409 0.0
C35 C 0.01324 0.95148 0.63334 0.0
C36 C 0.09295 0.01659 0.64423 0.0
C37 C 0.10549 0.91921 0.64548 0.0
O38 O 0.08892 0.93061 0.63571 0.0
O39 O 0.10772 0.92943 0.659 0.0
O40 O 0.03131 0.95697 0.62259 0.0
O41 O 0.02169 0.95374 0.64745 0.0
O42 O 0.24621 0.85519 0.90669 0.0
Cd43 Cd 0.28298 0.84344 0.91809 0.0
Cd44 Cd 0.28791 0.81174 0.89034 0.0
O45 O 0.24739 0.82681 0.88645 0.0
O46 O 0.27785 0.86368 0.93804 0.0
O47 O 0.27965 0.81686 0.93647 0.0
C48 C 0.27638 0.83937 0.94482 0.0
C49 C 0.29901 0.76423 0.88514 0.0
C50 C 0.23489 0.84573 0.89443 0.0
C51 C 0.33226 0.85668 0.89686 0.0
O52 O 0.32114 0.83972 0.88718 0.0
O53 O 0.3214 0.8597 0.91018 0.0
O54 O 0.29428 0.78223 0.87424 0.0
O55 O 0.29643 0.773 0.89917 0.0
O56 O 0.39774 0.0052 0.34489 0.0
Cd57 Cd 0.40932 0.96763 0.33421 0.0
Cd58 Cd 0.43946 0.96386 0.3626 0.0
O59 O 0.42421 0.00447 0.36589 0.0
O60 O 0.38928 0.97203 0.31414 0.0
O61 O 0.43607 0.96993 0.31584 0.0
C62 C 0.41365 0.97308 0.3074 0.0
C63 C 0.48686 0.95286 0.36802 0.0
C64 C 0.40625 0.01688 0.35725 0.0
C65 C 0.39489 0.91933 0.356 0.0
O66 O 0.41139 0.93079 0.36579 0.0
O67 O 0.39252 0.92966 0.34251 0.0
O68 O 0.46879 0.958 0.37884 0.0
O69 O 0.47823 0.95501 0.35394 0.0
O70 O 0.24444 0.1466 0.59457 0.0
Cd71 Cd 0.28222 0.15776 0.58397 0.0
Cd72 Cd 0.28583 0.18809 0.61247 0.0
O73 O 0.24501 0.17331 0.61549 0.0
O74 O 0.27798 0.13744 0.56398 0.0
O75 O 0.2802 0.18424 0.56549 0.0
C76 C 0.27708 0.16171 0.55714 0.0
C77 C 0.29734 0.23521 0.61826 0.0
C78 C 0.2326 0.15538 0.60684 0.0
C79 C 0.33012 0.14318 0.606 0.0
O80 O 0.31854 0.15967 0.61575 0.0
O81 O 0.32004 0.14092 0.59246 0.0
O82 O 0.29175 0.21697 0.62893 0.0
O83 O 0.29531 0.22693 0.60412 0.0
O84 O 0.10446 0.9968 0.84316 0.0
Cd85 Cd 0.09209 0.03421 0.83258 0.0
Cd86 Cd 0.0622 0.03698 0.86113 0.0
O87 O 0.07793 0.99647 0.86414 0.0
O88 O 0.11226 0.03039 0.81251 0.0
O89 O 0.06544 0.03128 0.81419 0.0
C90 C 0.08794 0.0287 0.80576 0.0
C91 C 0.01476 0.0476 0.86665 0.0
C92 C 0.09615 0.98463 0.85543 0.0
C93 C 0.10588 0.0824 0.85454 0.0
O94 O 0.08992 0.07033 0.86438 0.0
O95 O 0.10807 0.07247 0.84096 0.0
O96 O 0.03289 0.04239 0.87743 0.0
O97 O 0.02334 0.04564 0.85255 0.0
O98 O 0.254 0.85204 0.09445 0.0
Cd99 Cd 0.21653 0.84088 0.08355 0.0
Cd100 Cd 0.21198 0.81071 0.11206 0.0
O101 O 0.2526 0.82578 0.11553 0.0
O102 O 0.22144 0.86114 0.06357 0.0
O103 O 0.21886 0.81435 0.06508 0.0
C104 C 0.22233 0.83685 0.05675 0.0
C105 C 0.20061 0.76348 0.11776 0.0
C106 C 0.26535 0.84354 0.10692 0.0
C107 C 0.16795 0.85566 0.10511 0.0
O108 O 0.17903 0.83902 0.11495 0.0
O109 O 0.17859 0.85799 0.09169 0.0
O110 O 0.2056 0.7818 0.12847 0.0
O111 O 0.20312 0.77175 0.10363 0.0
O112 O 0.60481 0.00306 0.84383 0.0
Cd113 Cd 0.59225 0.96574 0.83322 0.0
Cd114 Cd 0.56189 0.96334 0.8615 0.0
O115 O 0.57763 0.00383 0.86456 0.0
O116 O 0.61239 0.96949 0.81314 0.0
O117 O 0.56556 0.96892 0.81486 0.0
C118 C 0.58805 0.97145 0.80643 0.0
C119 C 0.51434 0.95276 0.86675 0.0
C120 C 0.59622 0.01542 0.85598 0.0
C121 C 0.60552 0.91769 0.8553 0.0
O122 O 0.58949 0.93001 0.86502 0.0
O123 O 0.60793 0.92739 0.84168 0.0
O124 O 0.53225 0.95807 0.87762 0.0
O125 O 0.52321 0.95463 0.8527 0.0
O126 O 0.7446 0.85441 0.59488 0.0
Cd127 Cd 0.78131 0.84176 0.5837 0.0
Cd128 Cd 0.7852 0.8104 0.61164 0.0
O129 O 0.74488 0.82617 0.61519 0.0
O130 O 0.77679 0.86164 0.5636 0.0
O131 O 0.7778 0.81483 0.56548 0.0
C132 C 0.77502 0.83721 0.55697 0.0
C133 C 0.79547 0.76297 0.61742 0.0
C134 C 0.73288 0.84525 0.6071 0.0
C135 C 0.83046 0.85442 0.60508 0.0
O136 O 0.81882 0.83788 0.6148 0.0
O137 O 0.81992 0.8574 0.59169 0.0
O138 O 0.7907 0.78141 0.62809 0.0
O139 O 0.79336 0.77125 0.60328 0.0
O140 O 0.89738 0.99594 0.34467 0.0
Cd141 Cd 0.90826 0.03369 0.33396 0.0
Cd142 Cd 0.93903 0.03765 0.36222 0.0
O143 O 0.92418 0.99689 0.36555 0.0
O144 O 0.88776 0.02919 0.31403 0.0
O145 O 0.93456 0.0317 0.31538 0.0
C146 C 0.91196 0.02839 0.30711 0.0
C147 C 0.98642 0.04906 0.36744 0.0
C148 C 0.90622 0.98431 0.35699 0.0
C149 C 0.89376 0.08169 0.35594 0.0
O150 O 0.91067 0.07042 0.36558 0.0
O151 O 0.89117 0.07138 0.34246 0.0
O152 O 0.96855 0.04379 0.37833 0.0
O153 O 0.9776 0.04682 0.3534 0.0
O154 O 0.75385 0.14686 0.09539 0.0
Cd155 Cd 0.71655 0.1579 0.08427 0.0
Cd156 Cd 0.71145 0.18841 0.11284 0.0
O157 O 0.75204 0.17333 0.11638 0.0
O158 O 0.72182 0.13765 0.06431 0.0
O159 O 0.71911 0.18442 0.06581 0.0
C160 C 0.72275 0.16194 0.05748 0.0
C161 C 0.70016 0.23543 0.11913 0.0
C162 C 0.76496 0.15551 0.10789 0.0
C163 C 0.66756 0.14332 0.1056 0.0
O164 O 0.67844 0.16007 0.11547 0.0
O165 O 0.67848 0.14085 0.09226 0.0
O166 O 0.70504 0.21663 0.1296 0.0
O167 O 0.70267 0.22776 0.10491 0.0
O168 O 0.6037 0.99826 0.65786 0.0
Cd169 Cd 0.59124 0.03565 0.66841 0.0
Cd170 Cd 0.56125 0.03833 0.63996 0.0
O171 O 0.57716 0.99792 0.63689 0.0
O172 O 0.61107 0.03169 0.68857 0.0
O173 O 0.56428 0.03269 0.68666 0.0
C174 C 0.58663 0.02992 0.69518 0.0
C175 C 0.5137 0.04842 0.63442 0.0
C176 C 0.5954 0.98611 0.64559 0.0
C177 C 0.60495 0.08383 0.64646 0.0
O178 O 0.58879 0.07181 0.63669 0.0
O179 O 0.60735 0.07386 0.66003 0.0
O180 O 0.53192 0.04346 0.62365 0.0
O181 O 0.5223 0.04661 0.64852 0.0
O182 O 0.7558 0.85343 0.40721 0.0
Cd183 Cd 0.71813 0.8421 0.41788 0.0
Cd184 Cd 0.71441 0.81169 0.38968 0.0
O185 O 0.75505 0.82674 0.38629 0.0
O186 O 0.72236 0.86251 0.43785 0.0
O187 O 0.72026 0.81569 0.43641 0.0
C188 C 0.72328 0.83827 0.44473 0.0
C189 C 0.70314 0.76411 0.38506 0.0
C190 C 0.7675 0.84475 0.39487 0.0
C191 C 0.66991 0.85629 0.39597 0.0
O192 O 0.68141 0.83972 0.38623 0.0
O193 O 0.6802 0.85877 0.40946 0.0
O194 O 0.70832 0.78152 0.37393 0.0
O195 O 0.70548 0.77351 0.39899 0.0
O196 O 0.8965 0.00524 0.15743 0.0
Cd197 Cd 0.90834 0.96807 0.16844 0.0
Cd198 Cd 0.93899 0.96393 0.14025 0.0
O199 O 0.92362 0.0044 0.13668 0.0
O200 O 0.88841 0.97283 0.18852 0.0
O201 O 0.9352 0.97107 0.18673 0.0
C202 C 0.91282 0.97426 0.19519 0.0
C203 C 0.98642 0.95296 0.1349 0.0
C204 C 0.90528 0.01679 0.14508 0.0
C205 C 0.89463 0.91919 0.14695 0.0
O206 O 0.91112 0.93066 0.13716 0.0
O207 O 0.89202 0.92971 0.16038 0.0
O208 O 0.96834 0.95785 0.12406 0.0
O209 O 0.97778 0.9554 0.14897 0.0
O210 O 0.7467 0.14426 0.90743 0.0
Cd211 Cd 0.7835 0.15599 0.91881 0.0
Cd212 Cd 0.78826 0.18799 0.89094 0.0
O213 O 0.74774 0.17278 0.88724 0.0
O214 O 0.7785 0.13563 0.93875 0.0
O215 O 0.78018 0.18246 0.93724 0.0
C216 C 0.777 0.1599 0.94557 0.0
C217 C 0.79912 0.23532 0.88509 0.0
C218 C 0.7353 0.1538 0.8952 0.0
C219 C 0.83272 0.14305 0.89748 0.0
O220 O 0.82153 0.16003 0.88784 0.0
O221 O 0.82194 0.1399 0.91081 0.0
O222 O 0.79426 0.21684 0.87445 0.0
O223 O 0.79685 0.22715 0.89924 0.0
O224 O 0.89417 0.49445 0.6563 0.0
Cd225 Cd 0.90539 0.5314 0.66774 0.0
Cd226 Cd 0.9371 0.53658 0.63984 0.0
O227 O 0.92167 0.49634 0.6357 0.0
O228 O 0.88533 0.52593 0.68775 0.0
O229 O 0.9321 0.52853 0.6861 0.0
C230 C 0.9097 0.52488 0.69449 0.0
C231 C 0.98441 0.54784 0.63423 0.0
C232 C 0.90318 0.48355 0.64382 0.0
C233 C 0.89188 0.58061 0.64647 0.0
O234 O 0.90911 0.56971 0.63687 0.0
O235 O 0.88868 0.56967 0.65977 0.0
O236 O 0.96609 0.5431 0.62349 0.0
O237 O 0.97612 0.54511 0.64833 0.0
O238 O 0.75362 0.64581 0.90928 0.0
Cd239 Cd 0.7163 0.65684 0.9204 0.0
Cd240 Cd 0.71148 0.6878 0.89189 0.0
O241 O 0.75199 0.67251 0.88836 0.0
O242 O 0.72125 0.63617 0.94026 0.0
O243 O 0.71888 0.68298 0.93903 0.0
C244 C 0.72224 0.66031 0.94724 0.0
C245 C 0.70035 0.7349 0.88567 0.0
C246 C 0.7648 0.65453 0.89681 0.0
C247 C 0.66737 0.64281 0.89889 0.0
O248 O 0.67839 0.65963 0.88911 0.0
O249 O 0.67819 0.64011 0.91225 0.0
O250 O 0.70527 0.71616 0.87517 0.0
O251 O 0.70277 0.72713 0.89988 0.0
O252 O 0.60435 0.50333 0.16165 0.0
Cd253 Cd 0.59181 0.46574 0.17202 0.0
Cd254 Cd 0.56163 0.46365 0.14364 0.0
O255 O 0.57738 0.5042 0.14084 0.0
O256 O 0.61153 0.46907 0.19225 0.0
O257 O 0.56474 0.4682 0.19024 0.0
C258 C 0.58704 0.47055 0.19885 0.0
C259 C 0.51421 0.45305 0.13805 0.0
C260 C 0.59585 0.51578 0.1495 0.0
C261 C 0.6054 0.41808 0.14974 0.0
O262 O 0.58933 0.43042 0.14006 0.0
O263 O 0.60775 0.42764 0.16339 0.0
O264 O 0.53231 0.4586 0.12731 0.0
O265 O 0.52278 0.4547 0.15216 0.0
O266 O 0.74751 0.35324 0.41175 0.0
Cd267 Cd 0.78424 0.33688 0.42145 0.0
Cd268 Cd 0.78588 0.30918 0.39362 0.0
O269 O 0.74543 0.32549 0.39127 0.0
O270 O 0.78279 0.34863 0.4435 0.0
O271 O 0.77914 0.3037 0.43601 0.0
C272 C 0.77907 0.32224 0.44699 0.0
C273 C 0.796 0.26171 0.38792 0.0
C274 C 0.7346 0.34475 0.39973 0.0
C275 C 0.83224 0.35149 0.39995 0.0
O276 O 0.8193 0.33664 0.38993 0.0
O277 O 0.82302 0.35262 0.4137 0.0
O278 O 0.79028 0.27987 0.37724 0.0
O279 O 0.7947 0.27025 0.40205 0.0
O280 O 0.89461 0.50485 0.84458 0.0
Cd281 Cd 0.90606 0.46746 0.83364 0.0
Cd282 Cd 0.93768 0.46383 0.86181 0.0
O283 O 0.92206 0.50425 0.86522 0.0
O284 O 0.88535 0.47168 0.81373 0.0
O285 O 0.9322 0.47006 0.81502 0.0
C286 C 0.9095 0.47293 0.80677 0.0
C287 C 0.98512 0.45318 0.86742 0.0
C288 C 0.90357 0.51652 0.85686 0.0
C289 C 0.89319 0.4189 0.85556 0.0
O290 O 0.91 0.4305 0.86514 0.0
O291 O 0.89008 0.42924 0.84212 0.0
O292 O 0.96688 0.45822 0.87816 0.0
O293 O 0.97666 0.45529 0.85331 0.0
O294 O 0.74584 0.64453 0.09757 0.0
Cd295 Cd 0.78251 0.6561 0.086 0.0
Cd296 Cd 0.78803 0.68788 0.11379 0.0
O297 O 0.74755 0.67284 0.11783 0.0
O298 O 0.77693 0.63613 0.06599 0.0
O299 O 0.77918 0.68292 0.06772 0.0
C300 C 0.77561 0.66055 0.0593 0.0
C301 C 0.79926 0.73526 0.11929 0.0
C302 C 0.73481 0.65401 0.10991 0.0
C303 C 0.83209 0.64272 0.107 0.0
O304 O 0.82124 0.65979 0.11671 0.0
O305 O 0.82097 0.63964 0.09375 0.0
O306 O 0.79462 0.71701 0.13007 0.0
O307 O 0.79655 0.72683 0.10521 0.0
O308 O 0.60235 0.49433 0.34943 0.0
Cd309 Cd 0.59113 0.53094 0.33768 0.0
Cd310 Cd 0.56054 0.5374 0.36596 0.0
O311 O 0.57619 0.49737 0.37049 0.0
O312 O 0.61174 0.52478 0.3179 0.0
O313 O 0.56494 0.52744 0.31911 0.0
C314 C 0.58759 0.52355 0.31095 0.0
C315 C 0.51306 0.54853 0.37113 0.0
C316 C 0.59403 0.48404 0.36219 0.0
C317 C 0.60526 0.58121 0.35827 0.0
O318 O 0.5884 0.57087 0.36824 0.0
O319 O 0.608 0.56948 0.34514 0.0
O320 O 0.53122 0.54459 0.38204 0.0
O321 O 0.52165 0.5451 0.35712 0.0
O322 O 0.75059 0.35599 0.59058 0.0
Cd323 Cd 0.71376 0.34009 0.58075 0.0
Cd324 Cd 0.71137 0.31224 0.6084 0.0
O325 O 0.75192 0.32808 0.61101 0.0
O326 O 0.716 0.35073 0.55855 0.0
O327 O 0.71843 0.3061 0.56674 0.0
C328 C 0.71921 0.32408 0.5555 0.0
C329 C 0.70075 0.26495 0.61426 0.0
C330 C 0.76316 0.34725 0.60266 0.0
C331 C 0.66571 0.35535 0.60199 0.0
O332 O 0.67826 0.34009 0.61197 0.0
O333 O 0.67513 0.35657 0.58827 0.0
O334 O 0.70643 0.28323 0.62489 0.0
O335 O 0.7023 0.27327 0.6001 0.0
O336 O 0.10057 0.50527 0.34667 0.0
Cd337 Cd 0.08921 0.46764 0.33598 0.0
Cd338 Cd 0.05986 0.46361 0.36477 0.0
O339 O 0.07459 0.50448 0.36784 0.0
O340 O 0.10926 0.47235 0.31594 0.0
O341 O 0.0625 0.46992 0.31758 0.0
C342 C 0.08492 0.47332 0.30918 0.0
C343 C 0.01293 0.45157 0.37072 0.0
C344 C 0.09222 0.51699 0.35906 0.0
C345 C 0.10465 0.41952 0.3577 0.0
O346 O 0.08853 0.43098 0.36767 0.0
O347 O 0.10636 0.42973 0.34415 0.0
O348 O 0.03128 0.45717 0.38133 0.0
O349 O 0.02095 0.45398 0.35655 0.0
O350 O 0.24709 0.35531 0.09662 0.0
Cd351 Cd 0.28391 0.34359 0.08526 0.0
Cd352 Cd 0.28863 0.31163 0.11284 0.0
O353 O 0.24805 0.32657 0.11671 0.0
O354 O 0.27871 0.36352 0.06522 0.0
O355 O 0.2806 0.31672 0.06701 0.0
C356 C 0.27721 0.33909 0.05856 0.0
C357 C 0.29974 0.26408 0.11794 0.0
C358 C 0.23564 0.34564 0.1088 0.0
C359 C 0.33299 0.35672 0.10658 0.0
O360 O 0.32178 0.33964 0.11617 0.0
O361 O 0.32229 0.35988 0.09323 0.0
O362 O 0.29492 0.28198 0.12887 0.0
O363 O 0.29726 0.27297 0.10392 0.0
O364 O 0.39596 0.49454 0.8456 0.0
Cd365 Cd 0.40766 0.53175 0.83458 0.0
Cd366 Cd 0.43788 0.53613 0.8631 0.0
O367 O 0.42229 0.49574 0.86665 0.0
O368 O 0.38732 0.52695 0.81462 0.0
O369 O 0.43414 0.52879 0.81612 0.0
C370 C 0.41158 0.52559 0.80779 0.0
C371 C 0.48526 0.54695 0.86866 0.0
C372 C 0.40433 0.48317 0.85808 0.0
C373 C 0.39363 0.58078 0.85602 0.0
O374 O 0.41004 0.5695 0.86592 0.0
O375 O 0.39119 0.57007 0.84263 0.0
O376 O 0.46698 0.54226 0.87943 0.0
O377 O 0.47685 0.54443 0.85456 0.0
O378 O 0.25311 0.64467 0.5954 0.0
Cd379 Cd 0.21629 0.65704 0.58422 0.0
Cd380 Cd 0.21231 0.68875 0.61195 0.0
O381 O 0.25273 0.67324 0.61556 0.0
O382 O 0.22075 0.63704 0.56415 0.0
O383 O 0.21966 0.68386 0.56595 0.0
C384 C 0.22243 0.66144 0.55747 0.0
C385 C 0.20187 0.73631 0.61737 0.0
C386 C 0.26481 0.65409 0.60757 0.0
C387 C 0.16725 0.64443 0.60569 0.0
O388 O 0.17882 0.66117 0.61532 0.0
O389 O 0.17777 0.64131 0.5923 0.0
O390 O 0.20672 0.71816 0.62818 0.0
O391 O 0.20396 0.72767 0.60329 0.0
O392 O 0.10384 0.49555 0.15998 0.0
Cd393 Cd 0.09136 0.53298 0.1705 0.0
Cd394 Cd 0.06186 0.53582 0.14194 0.0
O395 O 0.0776 0.49532 0.13889 0.0
O396 O 0.11137 0.5292 0.19061 0.0
O397 O 0.06456 0.53017 0.18884 0.0
C398 C 0.087 0.52761 0.19731 0.0
C399 C 0.01435 0.54649 0.13668 0.0
C400 C 0.09569 0.48343 0.14766 0.0
C401 C 0.10549 0.58116 0.14858 0.0
O402 O 0.0896 0.56915 0.1387 0.0
O403 O 0.10753 0.57119 0.16216 0.0
O404 O 0.03229 0.54132 0.1258 0.0
O405 O 0.02317 0.54444 0.15073 0.0
O406 O 0.25273 0.35418 0.90917 0.0
Cd407 Cd 0.21527 0.34305 0.9201 0.0
Cd408 Cd 0.21101 0.31226 0.89168 0.0
O409 O 0.25162 0.32741 0.88828 0.0
O410 O 0.22 0.36365 0.93999 0.0
O411 O 0.21781 0.31683 0.93869 0.0
C412 C 0.22112 0.33947 0.94692 0.0
C413 C 0.19986 0.26501 0.88588 0.0
C414 C 0.26422 0.34542 0.8968 0.0
C415 C 0.16673 0.35718 0.89839 0.0
O416 O 0.17799 0.34045 0.88865 0.0
O417 O 0.17725 0.35978 0.91182 0.0
O418 O 0.20489 0.2834 0.87521 0.0
O419 O 0.20219 0.27323 0.90003 0.0
O420 O 0.39606 0.50308 0.65853 0.0
Cd421 Cd 0.40853 0.46569 0.66911 0.0
Cd422 Cd 0.43822 0.46293 0.64039 0.0
O423 O 0.42228 0.50336 0.63744 0.0
O424 O 0.38866 0.4696 0.68927 0.0
O425 O 0.43545 0.4685 0.6874 0.0
C426 C 0.41308 0.47117 0.69592 0.0
C427 C 0.48543 0.45239 0.63427 0.0
C428 C 0.40417 0.51519 0.6462 0.0
C429 C 0.39457 0.4175 0.64721 0.0
O430 O 0.41052 0.42953 0.63736 0.0
O431 O 0.39239 0.42746 0.66079 0.0
O432 O 0.46682 0.45752 0.62373 0.0
O433 O 0.47748 0.45443 0.64847 0.0
O434 O 0.24327 0.64931 0.40783 0.0
Cd435 Cd 0.28082 0.66083 0.41857 0.0
Cd436 Cd 0.28492 0.69016 0.38975 0.0
O437 O 0.24425 0.67497 0.38654 0.0
O438 O 0.27623 0.64053 0.43855 0.0
O439 O 0.27845 0.68733 0.43705 0.0
C440 C 0.2752 0.6648 0.44539 0.0
C441 C 0.29627 0.7374 0.38414 0.0
C442 C 0.2317 0.65743 0.39536 0.0
C443 C 0.32932 0.64581 0.39693 0.0
O444 O 0.31793 0.6619 0.38692 0.0
O445 O 0.31886 0.64395 0.41041 0.0
O446 O 0.29112 0.7192 0.37339 0.0
O447 O 0.29388 0.72901 0.39825 0.0
H448 H 0.46135 0.98141 0.2893 0.0
H449 H 0.36753 0.02064 0.2152 0.0
H450 H 0.3695 0.97933 0.28743 0.0
H451 H 0.45931 0.01634 0.21349 0.0
H452 H 0.36897 0.00733 0.24217 0.0
H453 H 0.4622 0.99497 0.26194 0.0
C454 C 0.44141 0.98359 0.28314 0.0
C455 C 0.41531 0.97925 0.29069 0.0
C456 C 0.38888 0.0093 0.23597 0.0
C457 C 0.41613 0.99499 0.25955 0.0
C458 C 0.38808 0.01702 0.22052 0.0
C459 C 0.41334 0.01957 0.21201 0.0
C460 C 0.41516 0.00399 0.24314 0.0
C461 C 0.43931 0.01464 0.21962 0.0
C462 C 0.44192 0.99142 0.26756 0.0
C463 C 0.39014 0.98248 0.28216 0.0
N464 N 0.43957 0.007 0.23477 0.0
N465 N 0.39121 0.99021 0.26713 0.0
H466 H 0.27232 0.11733 0.5372 0.0
H467 H 0.23222 0.21117 0.46323 0.0
H468 H 0.26775 0.2091 0.53894 0.0
H469 H 0.23065 0.1193 0.46501 0.0
H470 H 0.24613 0.212 0.49054 0.0
H471 H 0.25902 0.11877 0.51022 0.0
C472 C 0.26866 0.13787 0.53188 0.0
C473 C 0.27111 0.16314 0.5404 0.0
C474 C 0.24262 0.19172 0.48492 0.0
C475 C 0.25552 0.16495 0.50928 0.0
C476 C 0.23459 0.19123 0.46936 0.0
C477 C 0.23027 0.16513 0.4618 0.0
C478 C 0.24641 0.16592 0.49288 0.0
C479 C 0.23376 0.13995 0.47029 0.0
C480 C 0.26094 0.13868 0.51643 0.0
C481 C 0.26613 0.1891 0.5328 0.0
N482 N 0.24167 0.141 0.48529 0.0
N483 N 0.25848 0.18936 0.51765 0.0
H484 H 0.13221 0.02469 0.7857 0.0
H485 H 0.03869 0.98109 0.71221 0.0
H486 H 0.04061 0.01777 0.78778 0.0
H487 H 0.13057 0.9805 0.71394 0.0
H488 H 0.03777 0.99553 0.73943 0.0
H489 H 0.13082 0.01068 0.75883 0.0
C490 C 0.1117 0.02037 0.78048 0.0
C491 C 0.08648 0.02236 0.78907 0.0
C492 C 0.05807 0.99211 0.73382 0.0
C493 C 0.08474 0.00595 0.75806 0.0
C494 C 0.05861 0.98378 0.71832 0.0
C495 C 0.08475 0.9796 0.71076 0.0
C496 C 0.08384 0.99637 0.74175 0.0
C497 C 0.1099 0.9835 0.71923 0.0
C498 C 0.11094 0.01223 0.76509 0.0
C499 C 0.06058 0.01652 0.78159 0.0
N500 N 0.10879 0.99172 0.73418 0.0
N501 N 0.06036 0.00848 0.7665 0.0
H502 H 0.27053 0.8837 0.96472 0.0
H503 H 0.23057 0.78932 0.03851 0.0
H504 H 0.26682 0.79189 0.96292 0.0
H505 H 0.229 0.8812 0.03694 0.0
H506 H 0.24434 0.7887 0.01118 0.0
H507 H 0.25679 0.8821 0.99162 0.0
C508 C 0.26694 0.86311 0.97 0.0
C509 C 0.26981 0.83788 0.9615 0.0
C510 C 0.24085 0.80894 0.01685 0.0
C511 C 0.25375 0.83588 0.99255 0.0
C512 C 0.23291 0.80931 0.03242 0.0
C513 C 0.22865 0.83535 0.04005 0.0
C514 C 0.24461 0.83479 0.00894 0.0
C515 C 0.23208 0.8606 0.0316 0.0
C516 C 0.25898 0.86222 0.98542 0.0
C517 C 0.26489 0.81186 0.96905 0.0
N518 N 0.23991 0.85965 0.01658 0.0
N519 N 0.25703 0.81152 0.98417 0.0
H520 H 0.63231 0.97613 0.7864 0.0
H521 H 0.53884 0.02009 0.71299 0.0
H522 H 0.54068 0.98255 0.7885 0.0
H523 H 0.63061 0.02365 0.71528 0.0
H524 H 0.53786 0.00497 0.74011 0.0
H525 H 0.63089 0.99091 0.75965 0.0
C526 C 0.61179 0.98049 0.78121 0.0
C527 C 0.58657 0.97814 0.78977 0.0
C528 C 0.55814 0.00921 0.73464 0.0
C529 C 0.58479 0.99545 0.75891 0.0
C530 C 0.55872 0.01793 0.7192 0.0
C531 C 0.58485 0.02311 0.71182 0.0
C532 C 0.58389 0.00554 0.74268 0.0
C533 C 0.60995 0.01987 0.72042 0.0
C534 C 0.61101 0.98909 0.76588 0.0
C535 C 0.56064 0.98406 0.78233 0.0
N536 N 0.60882 0.01122 0.7353 0.0
N537 N 0.56041 0.99253 0.7673 0.0
H538 H 0.72812 0.88279 0.46456 0.0
H539 H 0.76614 0.78942 0.53902 0.0
H540 H 0.73213 0.79098 0.46308 0.0
H541 H 0.76883 0.88124 0.53691 0.0
H542 H 0.75262 0.7884 0.51165 0.0
H543 H 0.74096 0.88151 0.4916 0.0
C544 C 0.73157 0.86227 0.46995 0.0
C545 C 0.72909 0.83695 0.46149 0.0
C546 C 0.75628 0.80871 0.51722 0.0
C547 C 0.74413 0.83532 0.49269 0.0
C548 C 0.76407 0.80931 0.5328 0.0
C549 C 0.76861 0.83546 0.54029 0.0
C550 C 0.75294 0.83445 0.50914 0.0
C551 C 0.76554 0.86057 0.53168 0.0
C552 C 0.73902 0.86156 0.48544 0.0
C553 C 0.73379 0.81102 0.46917 0.0
N554 N 0.75785 0.85941 0.51665 0.0
N555 N 0.74117 0.81085 0.48436 0.0
H556 H 0.86739 0.02326 0.28732 0.0
H557 H 0.96063 0.98306 0.21314 0.0
H558 H 0.9592 0.01916 0.28878 0.0
H559 H 0.86879 0.98104 0.21521 0.0
H560 H 0.96168 0.99719 0.24041 0.0
H561 H 0.86861 0.00977 0.26036 0.0
C562 C 0.8879 0.01967 0.28194 0.0
C563 C 0.91324 0.02231 0.29038 0.0
C564 C 0.94136 0.99354 0.23486 0.0
C565 C 0.91479 0.0065 0.25928 0.0
C566 C 0.94074 0.98538 0.21933 0.0
C567 C 0.91458 0.98087 0.21186 0.0
C568 C 0.91563 0.99726 0.2429 0.0
C569 C 0.88948 0.9843 0.22042 0.0
C570 C 0.88857 0.01184 0.2665 0.0
C571 C 0.93914 0.0174 0.28271 0.0
N572 N 0.89065 0.99233 0.2354 0.0
N573 N 0.93927 0.00963 0.26758 0.0
H574 H 0.77143 0.11548 0.96543 0.0
H575 H 0.73075 0.20951 0.03925 0.0
H576 H 0.76725 0.20727 0.96371 0.0
H577 H 0.73002 0.11762 0.03771 0.0
H578 H 0.74463 0.21023 0.01194 0.0
H579 H 0.75774 0.11693 0.99235 0.0
C580 C 0.76776 0.13603 0.97074 0.0
C581 C 0.77047 0.1613 0.96225 0.0
C582 C 0.74131 0.18997 0.01761 0.0
C583 C 0.75446 0.16313 0.99331 0.0
C584 C 0.73331 0.18954 0.03317 0.0
C585 C 0.72923 0.16346 0.0408 0.0
C586 C 0.74532 0.16414 0.0097 0.0
C587 C 0.73295 0.13824 0.03237 0.0
C588 C 0.75982 0.13684 0.98617 0.0
C589 C 0.76544 0.18727 0.96983 0.0
N590 N 0.74082 0.13924 0.01736 0.0
N591 N 0.7576 0.18753 0.98495 0.0
H592 H 0.9575 0.51757 0.71263 0.0
H593 H 0.86476 0.47739 0.78702 0.0
H594 H 0.86563 0.5169 0.71438 0.0
H595 H 0.95652 0.48246 0.78834 0.0
H596 H 0.86573 0.49027 0.75997 0.0
H597 H 0.95865 0.50405 0.73998 0.0
C598 C 0.93762 0.51475 0.71876 0.0
C599 C 0.91143 0.51838 0.71117 0.0
C600 C 0.88574 0.48855 0.7661 0.0
C601 C 0.91259 0.50271 0.74234 0.0
C602 C 0.88521 0.48108 0.7816 0.0
C603 C 0.91061 0.47887 0.79002 0.0
C604 C 0.91188 0.49395 0.7588 0.0
C605 C 0.93642 0.48389 0.78229 0.0
C606 C 0.93829 0.50696 0.73434 0.0
C607 C 0.88634 0.51435 0.71968 0.0
N608 N 0.93641 0.49129 0.7671 0.0
N609 N 0.88757 0.50671 0.73472 0.0
H610 H 0.76745 0.70839 0.0413 0.0
H611 H 0.72758 0.61556 0.9669 0.0
H612 H 0.76803 0.61653 0.03935 0.0
H613 H 0.7314 0.70739 0.96569 0.0
H614 H 0.74081 0.61657 0.9939 0.0
H615 H 0.75358 0.70956 0.014 0.0
C616 C 0.76484 0.68852 0.03513 0.0
C617 C 0.7689 0.66232 0.04265 0.0
C618 C 0.73874 0.63659 0.98781 0.0
C619 C 0.75285 0.6635 0.01155 0.0
C620 C 0.73107 0.63603 0.97234 0.0
C621 C 0.72841 0.66144 0.96396 0.0
C622 C 0.74389 0.66276 0.99512 0.0
C623 C 0.73319 0.68729 0.97171 0.0
C624 C 0.75685 0.6892 0.01958 0.0
C625 C 0.76513 0.63724 0.0341 0.0
N626 N 0.74078 0.6873 0.98687 0.0
N627 N 0.75728 0.63848 0.01909 0.0
H628 H 0.63234 0.51529 0.29159 0.0
H629 H 0.53921 0.48041 0.21661 0.0
H630 H 0.54042 0.51569 0.29236 0.0
H631 H 0.63082 0.47443 0.21925 0.0
H632 H 0.53811 0.49358 0.24402 0.0
H633 H 0.63117 0.50149 0.26469 0.0
C634 C 0.61182 0.51258 0.28608 0.0
C635 C 0.58643 0.51666 0.2943 0.0
C636 C 0.55838 0.48924 0.23857 0.0
C637 C 0.58491 0.50055 0.26324 0.0
C638 C 0.55903 0.48164 0.22295 0.0
C639 C 0.58515 0.47636 0.21559 0.0
C640 C 0.58406 0.49163 0.24681 0.0
C641 C 0.61017 0.47836 0.22437 0.0
C642 C 0.61117 0.50458 0.27067 0.0
C643 C 0.56051 0.5128 0.28646 0.0
N644 N 0.60897 0.4859 0.23942 0.0
N645 N 0.5604 0.50492 0.27135 0.0
H646 H 0.68677 0.33067 0.52978 0.0
H647 H 0.80978 0.33521 0.47258 0.0
H648 H 0.76795 0.29925 0.54544 0.0
H649 H 0.73318 0.29285 0.45768 0.0
H650 H 0.79498 0.32841 0.49949 0.0
H651 H 0.70212 0.32298 0.50299 0.0
C652 C 0.70758 0.32159 0.52753 0.0
C653 C 0.72606 0.31518 0.5397 0.0
C654 C 0.78174 0.32014 0.49031 0.0
C655 C 0.74403 0.30757 0.50937 0.0
C656 C 0.79012 0.32401 0.47503 0.0
C657 C 0.77277 0.31426 0.46302 0.0
C658 C 0.75529 0.30754 0.4935 0.0
C659 C 0.74726 0.30027 0.4667 0.0
C660 C 0.71628 0.31723 0.51233 0.0
C661 C 0.75302 0.304 0.5363 0.0
N662 N 0.7389 0.29789 0.48165 0.0
N663 N 0.76151 0.30114 0.5214 0.0
H664 H 0.03724 0.48139 0.29102 0.0
H665 H 0.13113 0.52375 0.21746 0.0
H666 H 0.12912 0.48045 0.28933 0.0
H667 H 0.03953 0.51697 0.21525 0.0
H668 H 0.12957 0.51012 0.24438 0.0
H669 H 0.03641 0.4955 0.26374 0.0
C670 C 0.05718 0.48393 0.28491 0.0
C671 C 0.08329 0.47975 0.29249 0.0
C672 C 0.10972 0.51161 0.23809 0.0
C673 C 0.08249 0.49613 0.26145 0.0
C674 C 0.11059 0.51953 0.22266 0.0
C675 C 0.08542 0.52146 0.21403 0.0
C676 C 0.08347 0.50548 0.24509 0.0
C677 C 0.05946 0.51577 0.22148 0.0
C678 C 0.05669 0.49207 0.26937 0.0
C679 C 0.10847 0.48345 0.28403 0.0
N680 N 0.05914 0.50794 0.23661 0.0
N681 N 0.10741 0.49148 0.26905 0.0
H682 H 0.26829 0.29123 0.04068 0.0
H683 H 0.22648 0.38414 0.96664 0.0
H684 H 0.2699 0.38308 0.03857 0.0
H685 H 0.23086 0.29234 0.96525 0.0
H686 H 0.24046 0.38306 0.99352 0.0
H687 H 0.2537 0.29008 0.01349 0.0
C688 C 0.26577 0.3111 0.0345 0.0
C689 C 0.27031 0.33729 0.04194 0.0
C690 C 0.23835 0.36306 0.98742 0.0
C691 C 0.25341 0.33613 0.01097 0.0
C692 C 0.23024 0.36366 0.97202 0.0
C693 C 0.22753 0.33828 0.96362 0.0
C694 C 0.2439 0.33689 0.99464 0.0
C695 C 0.23267 0.31242 0.97129 0.0
C696 C 0.25737 0.31043 0.01901 0.0
C697 C 0.26664 0.36237 0.03337 0.0
N698 N 0.2407 0.31237 0.98638 0.0
N699 N 0.25836 0.36114 0.01844 0.0
H700 H 0.36711 0.51949 0.78802 0.0
H701 H 0.46081 0.4807 0.71382 0.0
H702 H 0.45895 0.51638 0.78955 0.0
H703 H 0.36906 0.47649 0.71606 0.0
H704 H 0.46171 0.49461 0.74113 0.0
H705 H 0.36851 0.50564 0.76113 0.0
C706 C 0.38766 0.51603 0.78268 0.0
C707 C 0.41296 0.51908 0.79111 0.0
C708 C 0.44145 0.4905 0.73561 0.0
C709 C 0.41473 0.50287 0.76007 0.0
C710 C 0.44091 0.48247 0.72006 0.0
C711 C 0.41481 0.47745 0.71262 0.0
C712 C 0.41569 0.4936 0.7437 0.0
C713 C 0.3897 0.48018 0.72125 0.0
C714 C 0.38845 0.50798 0.76727 0.0
C715 C 0.43893 0.5143 0.78348 0.0
N716 N 0.39079 0.48813 0.73624 0.0
N717 N 0.43916 0.50636 0.76837 0.0
H718 H 0.22726 0.61736 0.53734 0.0
H719 H 0.26712 0.71223 0.46373 0.0
H720 H 0.23232 0.70907 0.53955 0.0
H721 H 0.26864 0.62034 0.46513 0.0
H722 H 0.25357 0.71269 0.49109 0.0
H723 H 0.24059 0.61919 0.51038 0.0
C724 C 0.23106 0.63798 0.53214 0.0
C725 C 0.22871 0.66311 0.54077 0.0
C726 C 0.257 0.69248 0.48538 0.0
C727 C 0.2443 0.66537 0.50966 0.0
C728 C 0.26481 0.69221 0.46979 0.0
C729 C 0.269 0.6662 0.4621 0.0
C730 C 0.25328 0.66657 0.49325 0.0
C731 C 0.26561 0.64091 0.47051 0.0
C732 C 0.23879 0.63901 0.51669 0.0
C733 C 0.23387 0.68917 0.53331 0.0
N734 N 0.2579 0.64176 0.48554 0.0
N735 N 0.24151 0.68965 0.51816 0.0
H736 H 0.3738 0.94492 0.16251 0.0
H737 H 0.30352 0.87371 0.08963 0.0
H738 H 0.40447 0.9591 0.1163 0.0
H739 H 0.28837 0.84391 0.13592 0.0
H740 H 0.34355 0.9019 0.09904 0.0
H741 H 0.34554 0.90488 0.15316 0.0
C742 C 0.37489 0.93937 0.15042 0.0
C743 C 0.3912 0.95564 0.14013 0.0
C744 C 0.33178 0.88885 0.10711 0.0
C745 C 0.35861 0.91001 0.12931 0.0
C746 C 0.30887 0.87278 0.10175 0.0
C747 C 0.29231 0.85675 0.11204 0.0
C748 C 0.33792 0.88929 0.12293 0.0
C749 C 0.30042 0.85611 0.12759 0.0
C750 C 0.35879 0.91644 0.14509 0.0
C751 C 0.39205 0.94727 0.12463 0.0
N752 N 0.32235 0.87257 0.13261 0.0
N753 N 0.37557 0.92533 0.11964 0.0
H754 H 0.30473 0.1259 0.41242 0.0
H755 H 0.3756 0.05442 0.33981 0.0
H756 H 0.29 0.1556 0.36608 0.0
H757 H 0.40605 0.04058 0.38609 0.0
H758 H 0.34727 0.0945 0.34904 0.0
H759 H 0.34484 0.09768 0.40313 0.0
C760 C 0.31018 0.12679 0.40031 0.0
C761 C 0.29373 0.14281 0.38997 0.0
C762 C 0.36049 0.08301 0.35715 0.0
C763 C 0.33944 0.11025 0.37923 0.0
C764 C 0.37664 0.06006 0.35189 0.0
C765 C 0.3929 0.04387 0.36224 0.0
C766 C 0.36021 0.08953 0.37292 0.0
C767 C 0.39367 0.05235 0.37773 0.0
C768 C 0.33315 0.11071 0.39502 0.0
C769 C 0.30197 0.1434 0.37444 0.0
N770 N 0.37714 0.0743 0.38265 0.0
N771 N 0.32396 0.12694 0.36949 0.0
H772 H 0.12286 0.05464 0.66171 0.0
H773 H 0.19507 0.12492 0.58929 0.0
H774 H 0.0932 0.04007 0.61535 0.0
H775 H 0.20837 0.15578 0.63554 0.0
H776 H 0.15461 0.09701 0.59842 0.0
H777 H 0.15099 0.09486 0.65248 0.0
C778 C 0.12195 0.06016 0.64962 0.0
C779 C 0.106 0.04371 0.63924 0.0
C780 C 0.16606 0.11025 0.60654 0.0
C781 C 0.13845 0.08952 0.62856 0.0
C782 C 0.18923 0.12614 0.60134 0.0
C783 C 0.20539 0.14236 0.61172 0.0
C784 C 0.1593 0.11018 0.62228 0.0
C785 C 0.19664 0.1434 0.62716 0.0
C786 C 0.13797 0.08319 0.64436 0.0
C787 C 0.10535 0.05204 0.62373 0.0
N788 N 0.17449 0.1271 0.63203 0.0
N789 N 0.12179 0.07406 0.61881 0.0
H790 H 0.128 0.94864 0.83771 0.0
H791 H 0.20851 0.83777 0.86653 0.0
H792 H 0.09624 0.9596 0.88396 0.0
H793 H 0.2005 0.88386 0.90933 0.0
H794 H 0.16875 0.86522 0.8561 0.0
H795 H 0.15677 0.90876 0.84649 0.0
C796 C 0.12662 0.94225 0.84967 0.0
C797 C 0.10987 0.95766 0.86015 0.0
C798 C 0.17576 0.86941 0.86775 0.0
C799 C 0.14259 0.91159 0.87031 0.0
C800 C 0.19828 0.85351 0.87378 0.0
C801 C 0.2083 0.85896 0.88872 0.0
C802 C 0.16329 0.89099 0.87671 0.0
C803 C 0.19388 0.8793 0.89765 0.0
C804 C 0.14289 0.91921 0.85467 0.0
C805 C 0.10889 0.94837 0.87549 0.0
N806 N 0.17229 0.89475 0.89146 0.0
N807 N 0.12547 0.92627 0.88017 0.0
H808 H 0.70879 0.16203 0.86738 0.0
H809 H 0.62841 0.05126 0.83837 0.0
H810 H 0.70101 0.11548 0.91005 0.0
H811 H 0.59618 0.04039 0.88453 0.0
H812 H 0.65729 0.09101 0.84724 0.0
H813 H 0.66898 0.13468 0.85692 0.0
C814 C 0.6986 0.14621 0.87459 0.0
C815 C 0.70869 0.14061 0.8895 0.0
C816 C 0.64329 0.08061 0.85538 0.0
C817 C 0.66362 0.10871 0.87746 0.0
C818 C 0.62696 0.05764 0.85033 0.0
C819 C 0.61003 0.04232 0.86075 0.0
C820 C 0.64289 0.0882 0.87102 0.0
C821 C 0.60896 0.05157 0.8761 0.0
C822 C 0.67604 0.13038 0.86855 0.0
C823 C 0.69432 0.12017 0.89839 0.0
N824 N 0.62562 0.07359 0.88083 0.0
N825 N 0.67269 0.10479 0.89218 0.0
H826 H 0.62698 0.94998 0.66335 0.0
H827 H 0.70581 0.8377 0.63482 0.0
H828 H 0.59565 0.9612 0.61703 0.0
H829 H 0.69961 0.8842 0.59206 0.0
H830 H 0.66642 0.86588 0.64506 0.0
H831 H 0.65546 0.90982 0.65463 0.0
C832 C 0.62564 0.9436 0.65139 0.0
C833 C 0.60907 0.95912 0.64088 0.0
C834 C 0.67374 0.86999 0.63347 0.0
C835 C 0.64144 0.91277 0.63079 0.0
C836 C 0.69605 0.85368 0.62754 0.0
C837 C 0.70647 0.85901 0.61267 0.0
C838 C 0.66189 0.89186 0.62447 0.0
C839 C 0.69266 0.8797 0.60369 0.0
C840 C 0.64173 0.92041 0.64643 0.0
C841 C 0.60814 0.94986 0.62552 0.0
N842 N 0.67125 0.89554 0.60978 0.0
N843 N 0.62456 0.92761 0.62088 0.0
H844 H 0.80518 0.87532 0.41227 0.0
H845 H 0.87606 0.94631 0.3396 0.0
H846 H 0.79115 0.84477 0.36603 0.0
H847 H 0.90628 0.96079 0.38587 0.0
H848 H 0.84807 0.90604 0.3489 0.0
H849 H 0.84529 0.90354 0.40299 0.0
C850 C 0.81079 0.87423 0.40019 0.0
C851 C 0.79452 0.85799 0.38987 0.0
C852 C 0.86118 0.91771 0.35699 0.0
C853 C 0.84023 0.89055 0.37913 0.0
C854 C 0.87713 0.94076 0.35169 0.0
C855 C 0.8932 0.9572 0.36202 0.0
C856 C 0.86091 0.91132 0.37278 0.0
C857 C 0.89403 0.94883 0.37752 0.0
C858 C 0.83376 0.89031 0.3949 0.0
C859 C 0.80297 0.85714 0.37438 0.0
N860 N 0.87768 0.92678 0.38248 0.0
N861 N 0.82494 0.87362 0.36942 0.0
H862 H 0.7881 0.15664 0.13686 0.0
H863 H 0.90657 0.04046 0.11623 0.0
H864 H 0.80306 0.12439 0.09102 0.0
H865 H 0.87317 0.05403 0.16195 0.0
H866 H 0.87793 0.08052 0.10701 0.0
H867 H 0.82845 0.12847 0.14613 0.0
C868 C 0.80016 0.14406 0.12869 0.0
C869 C 0.79191 0.1425 0.11318 0.0
C870 C 0.87721 0.07494 0.1191 0.0
C871 C 0.83801 0.11029 0.12373 0.0
C872 C 0.89363 0.05216 0.12439 0.0
C873 C 0.8919 0.0436 0.13984 0.0
C874 C 0.85915 0.08936 0.12936 0.0
C875 C 0.87482 0.05962 0.1499 0.0
C876 C 0.82311 0.12791 0.13401 0.0
C877 C 0.8084 0.12589 0.10312 0.0
N878 N 0.85891 0.08157 0.14445 0.0
N879 N 0.83051 0.11023 0.10859 0.0
H880 H 0.79784 0.3828 0.5861 0.0
H881 H 0.87275 0.44412 0.6601 0.0
H882 H 0.78886 0.344 0.63089 0.0
H883 H 0.9021 0.46356 0.61421 0.0
H884 H 0.84384 0.40549 0.64963 0.0
H885 H 0.83782 0.41081 0.59586 0.0
C886 C 0.80449 0.37991 0.59793 0.0
C887 C 0.78974 0.3613 0.60774 0.0
C888 C 0.85696 0.41788 0.64187 0.0
C889 C 0.83527 0.3935 0.61903 0.0
C890 C 0.87344 0.43998 0.64784 0.0
C891 C 0.8896 0.45728 0.63799 0.0
C892 C 0.85621 0.4134 0.62589 0.0
C893 C 0.88986 0.45082 0.62221 0.0
C894 C 0.82738 0.39584 0.60349 0.0
C895 C 0.79947 0.35823 0.62294 0.0
N896 N 0.87298 0.4297 0.61661 0.0
N897 N 0.82133 0.37452 0.62818 0.0
H898 H 0.87172 0.55397 0.83998 0.0
H899 H 0.80312 0.62366 0.91367 0.0
H900 H 0.90442 0.53982 0.88578 0.0
H901 H 0.78735 0.65492 0.86772 0.0
H902 H 0.84294 0.59566 0.90382 0.0
H903 H 0.84347 0.59368 0.84974 0.0
C904 C 0.87326 0.55947 0.85206 0.0
C905 C 0.89016 0.5433 0.86212 0.0
C906 C 0.83108 0.609 0.89592 0.0
C907 C 0.85758 0.58853 0.87342 0.0
C908 C 0.80828 0.62495 0.90153 0.0
C909 C 0.79163 0.64135 0.89146 0.0
C910 C 0.83698 0.60905 0.88008 0.0
C911 C 0.79949 0.64243 0.87588 0.0
C912 C 0.85717 0.58221 0.85762 0.0
C913 C 0.89155 0.55158 0.87763 0.0
N914 N 0.82131 0.62608 0.87062 0.0
N915 N 0.87506 0.57332 0.88286 0.0
H916 H 0.70919 0.66185 0.13801 0.0
H917 H 0.62858 0.55121 0.1671 0.0
H918 H 0.69982 0.61619 0.09516 0.0
H919 H 0.59538 0.54123 0.12108 0.0
H920 H 0.65753 0.59092 0.15823 0.0
H921 H 0.66953 0.63456 0.14867 0.0
C922 C 0.69868 0.64625 0.1308 0.0
C923 C 0.70828 0.64087 0.11577 0.0
C924 C 0.64331 0.58072 0.15014 0.0
C925 C 0.66336 0.60902 0.12803 0.0
C926 C 0.62692 0.55778 0.15518 0.0
C927 C 0.6097 0.5427 0.14479 0.0
C928 C 0.64265 0.58854 0.13453 0.0
C929 C 0.60839 0.55221 0.12949 0.0
C930 C 0.67621 0.63043 0.13696 0.0
C931 C 0.69352 0.62069 0.1069 0.0
N932 N 0.62508 0.57419 0.12476 0.0
N933 N 0.67197 0.60533 0.11321 0.0
H934 H 0.70764 0.34136 0.37182 0.0
H935 H 0.59591 0.4644 0.39189 0.0
H936 H 0.70107 0.38103 0.41653 0.0
H937 H 0.62343 0.44403 0.34578 0.0
H938 H 0.6251 0.42514 0.40169 0.0
H939 H 0.66754 0.37025 0.36296 0.0
C940 C 0.69752 0.35581 0.37985 0.0
C941 C 0.70801 0.35908 0.39488 0.0
C942 C 0.62439 0.42907 0.38941 0.0
C943 C 0.66213 0.39212 0.3848 0.0
C944 C 0.60764 0.45135 0.3838 0.0
C945 C 0.60756 0.45773 0.36801 0.0
C946 C 0.64089 0.41292 0.37914 0.0
C947 C 0.62318 0.44011 0.35805 0.0
C948 C 0.67469 0.37234 0.37476 0.0
C949 C 0.69394 0.37809 0.40478 0.0
N950 N 0.63938 0.41863 0.3638 0.0
N951 N 0.67185 0.39405 0.39953 0.0
H952 H 0.12196 0.55467 0.34125 0.0
H953 H 0.19392 0.62775 0.41313 0.0
H954 H 0.09299 0.541 0.38782 0.0
H955 H 0.20804 0.65621 0.36651 0.0
H956 H 0.1537 0.59927 0.40422 0.0
H957 H 0.15019 0.59509 0.35012 0.0
C958 C 0.12122 0.56042 0.35332 0.0
C959 C 0.10542 0.54417 0.36386 0.0
C960 C 0.16529 0.61209 0.39596 0.0
C961 C 0.13799 0.59025 0.37412 0.0
C962 C 0.18831 0.62832 0.40104 0.0
C963 C 0.20464 0.64405 0.39051 0.0
C964 C 0.15879 0.61119 0.3802 0.0
C965 C 0.19618 0.64424 0.37501 0.0
C966 C 0.13731 0.58356 0.35837 0.0
C967 C 0.10501 0.55281 0.37932 0.0
N968 N 0.17414 0.62763 0.37028 0.0
N969 N 0.12148 0.57496 0.38404 0.0
H970 H 0.20901 0.33729 0.13659 0.0
H971 H 0.12741 0.44739 0.16542 0.0
H972 H 0.20128 0.38381 0.09391 0.0
H973 H 0.09624 0.45863 0.11907 0.0
H974 H 0.15652 0.40775 0.15665 0.0
H975 H 0.16896 0.3644 0.14696 0.0
C976 C 0.19878 0.35306 0.12935 0.0
C977 C 0.20895 0.35872 0.11447 0.0
C978 C 0.1427 0.4182 0.14845 0.0
C979 C 0.1636 0.39036 0.12641 0.0
C980 C 0.12622 0.44111 0.15344 0.0
C981 C 0.10954 0.45653 0.14294 0.0
C982 C 0.14268 0.41075 0.13278 0.0
C983 C 0.10883 0.44738 0.12756 0.0
C984 C 0.17609 0.36877 0.13535 0.0
C985 C 0.19454 0.37909 0.10555 0.0
N986 N 0.12561 0.42543 0.12289 0.0
N987 N 0.17278 0.39434 0.11171 0.0
H988 H 0.37353 0.44532 0.84091 0.0
H989 H 0.30216 0.37606 0.914 0.0
H990 H 0.40393 0.46026 0.88711 0.0
H991 H 0.28759 0.34507 0.86789 0.0
H992 H 0.34238 0.40392 0.90454 0.0
H993 H 0.345 0.40561 0.85043 0.0
C994 C 0.37451 0.44 0.85303 0.0
C995 C 0.39082 0.4564 0.86327 0.0
C996 C 0.3307 0.39068 0.89652 0.0
C997 C 0.35792 0.41116 0.87427 0.0
C998 C 0.30767 0.37481 0.90191 0.0
C999 C 0.29123 0.35853 0.89168 0.0
C1000 C 0.33706 0.39067 0.88073 0.0
C1001 C 0.29954 0.35748 0.87617 0.0
C1002 C 0.35826 0.41726 0.85846 0.0
C1003 C 0.39151 0.44832 0.87882 0.0
N1004 N 0.32159 0.37375 0.87111 0.0
N1005 N 0.37488 0.42657 0.8839 0.0
H1006 H 0.37254 0.55129 0.66398 0.0
H1007 H 0.29193 0.66222 0.63523 0.0
H1008 H 0.40342 0.53983 0.61759 0.0
H1009 H 0.29836 0.61524 0.59263 0.0
H1010 H 0.33173 0.63463 0.6455 0.0
H1011 H 0.3435 0.59101 0.65521 0.0
C1012 C 0.37367 0.55754 0.65199 0.0
C1013 C 0.39027 0.54206 0.64148 0.0
C1014 C 0.32436 0.63028 0.63393 0.0
C1015 C 0.35723 0.5879 0.63133 0.0
C1016 C 0.30182 0.64625 0.62799 0.0
C1017 C 0.29136 0.64062 0.61316 0.0
C1018 C 0.33643 0.60845 0.62499 0.0
C1019 C 0.30534 0.61996 0.60423 0.0
C1020 C 0.35724 0.58048 0.647 0.0
C1021 C 0.39091 0.55114 0.62609 0.0
N1022 N 0.32699 0.60446 0.61034 0.0
N1023 N 0.37418 0.57314 0.62142 0.0
H1024 H 0.36019 0.11377 0.16543 0.0
H1025 H 0.3202 0.22349 0.09806 0.0
H1026 H 0.38984 0.10556 0.11859 0.0
H1027 H 0.30213 0.23835 0.1461 0.0
H1028 H 0.34086 0.17727 0.10486 0.0
H1029 H 0.33425 0.15684 0.15806 0.0
C1030 C 0.3612 0.12095 0.15359 0.0
C1031 C 0.3774 0.10608 0.14264 0.0
C1032 C 0.3322 0.19059 0.11389 0.0
C1033 C 0.34762 0.15533 0.13412 0.0
C1034 C 0.32029 0.21691 0.11001 0.0
C1035 C 0.30958 0.23489 0.12153 0.0
C1036 C 0.3333 0.18215 0.12941 0.0
C1037 C 0.3103 0.22527 0.13684 0.0
C1038 C 0.34638 0.14556 0.14939 0.0
C1039 C 0.37781 0.1164 0.12746 0.0
N1040 N 0.32206 0.19964 0.14033 0.0
N1041 N 0.3632 0.14037 0.12366 0.0
H1042 H 0.13582 0.11099 0.41527 0.0
H1043 H 0.02689 0.07012 0.34769 0.0
H1044 H 0.14396 0.14081 0.36846 0.0
H1045 H 0.01197 0.05153 0.39567 0.0
H1046 H 0.07281 0.09126 0.3546 0.0
H1047 H 0.09302 0.08467 0.40784 0.0
C1048 C 0.12868 0.11197 0.40343 0.0
C1049 C 0.14346 0.12831 0.39251 0.0
C1050 C 0.05955 0.08239 0.3636 0.0
C1051 C 0.09452 0.09809 0.3839 0.0
C1052 C 0.0334 0.0702 0.35965 0.0
C1053 C 0.01549 0.05919 0.37112 0.0
C1054 C 0.06789 0.08349 0.37913 0.0
C1055 C 0.02501 0.05991 0.38644 0.0
C1056 C 0.10423 0.09693 0.39919 0.0
C1057 C 0.1332 0.12867 0.37731 0.0
N1058 N 0.05048 0.07196 0.39 0.0
N1059 N 0.10938 0.11384 0.37347 0.0
H1060 H 0.10995 0.89517 0.61688 0.0
H1061 H 0.20085 0.76174 0.64564 0.0
H1062 H 0.13936 0.88529 0.66367 0.0
H1063 H 0.18045 0.77709 0.59791 0.0
H1064 H 0.18 0.80772 0.65231 0.0
H1065 H 0.13663 0.85268 0.60963 0.0
C1066 C 0.12205 0.88411 0.62565 0.0
C1067 C 0.12223 0.89378 0.64095 0.0
C1068 C 0.18028 0.80118 0.64036 0.0
C1069 C 0.15292 0.84495 0.63268 0.0
C1070 C 0.19222 0.77491 0.63653 0.0
C1071 C 0.19224 0.76547 0.62119 0.0
C1072 C 0.16802 0.81809 0.6288 0.0
C1073 C 0.18085 0.7835 0.60988 0.0
C1074 C 0.13737 0.85986 0.62147 0.0
C1075 C 0.13849 0.8786 0.65176 0.0
N1076 N 0.16896 0.80884 0.61393 0.0
N1077 N 0.15303 0.85486 0.64743 0.0
H1078 H 0.47401 0.931 0.84714 0.0
H1079 H 0.36513 0.89162 0.91499 0.0
H1080 H 0.48861 0.95132 0.89495 0.0
H1081 H 0.35779 0.85958 0.86856 0.0
H1082 H 0.40767 0.91812 0.90732 0.0
H1083 H 0.42822 0.90975 0.85421 0.0
C1084 C 0.46745 0.93131 0.85909 0.0
C1085 C 0.48524 0.9428 0.87048 0.0
C1086 C 0.3967 0.90533 0.89881 0.0
C1087 C 0.43301 0.91836 0.87867 0.0
C1088 C 0.3724 0.89017 0.90318 0.0
C1089 C 0.35791 0.87317 0.89244 0.0
C1090 C 0.40654 0.90361 0.88356 0.0
C1091 C 0.36833 0.87223 0.87728 0.0
C1092 C 0.44138 0.91903 0.86313 0.0
C1093 C 0.47566 0.94255 0.88579 0.0
N1094 N 0.39199 0.8872 0.87331 0.0
N1095 N 0.45028 0.93041 0.88944 0.0
H1096 H 0.29834 0.76242 0.35577 0.0
H1097 H 0.39067 0.89494 0.38454 0.0
H1098 H 0.31821 0.77799 0.40353 0.0
H1099 H 0.36099 0.88553 0.33777 0.0
H1100 H 0.36379 0.85253 0.39173 0.0
H1101 H 0.32012 0.80795 0.34904 0.0
C1102 C 0.30705 0.77554 0.36487 0.0
C1103 C 0.30657 0.7663 0.38024 0.0
C1104 C 0.36305 0.85979 0.37991 0.0
C1105 C 0.33186 0.81841 0.37257 0.0
C1106 C 0.37849 0.88398 0.37576 0.0
C1107 C 0.37824 0.8938 0.36048 0.0
C1108 C 0.34732 0.84507 0.3687 0.0
C1109 C 0.36189 0.87874 0.34966 0.0
C1110 C 0.31952 0.80156 0.36101 0.0
C1111 C 0.31812 0.78426 0.39154 0.0
N1112 N 0.34722 0.85506 0.35397 0.0
N1113 N 0.33052 0.80934 0.38747 0.0
H1114 H 0.35397 0.13882 0.63466 0.0
H1115 H 0.48845 0.04923 0.60609 0.0
H1116 H 0.36444 0.10964 0.58786 0.0
H1117 H 0.47264 0.06954 0.65379 0.0
H1118 H 0.44232 0.06967 0.59934 0.0
H1119 H 0.39668 0.11254 0.64196 0.0
C1120 C 0.36521 0.12685 0.6259 0.0
C1121 C 0.35564 0.12662 0.61057 0.0
C1122 C 0.4488 0.06945 0.6113 0.0
C1123 C 0.40472 0.0964 0.61892 0.0
C1124 C 0.47515 0.05775 0.61518 0.0
C1125 C 0.4845 0.05782 0.63053 0.0
C1126 C 0.4317 0.08156 0.62283 0.0
C1127 C 0.46631 0.06907 0.64181 0.0
C1128 C 0.38958 0.11176 0.63011 0.0
C1129 C 0.37105 0.11054 0.59979 0.0
N1130 N 0.44089 0.08072 0.63771 0.0
N1131 N 0.39491 0.09622 0.60415 0.0
H1132 H 0.13875 0.11719 0.83632 0.0
H1133 H 0.17947 0.22344 0.90518 0.0
H1134 H 0.1101 0.10635 0.88319 0.0
H1135 H 0.19716 0.24078 0.85733 0.0
H1136 H 0.1587 0.17763 0.89773 0.0
H1137 H 0.16457 0.16004 0.84419 0.0
C1138 C 0.13792 0.12375 0.84826 0.0
C1139 C 0.12207 0.10819 0.85908 0.0
C1140 C 0.16729 0.1914 0.88888 0.0
C1141 C 0.1517 0.15718 0.86818 0.0
C1142 C 0.17927 0.21749 0.89313 0.0
C1143 C 0.18992 0.23604 0.88186 0.0
C1144 C 0.16605 0.18377 0.87324 0.0
C1145 C 0.18905 0.22723 0.86641 0.0
C1146 C 0.15267 0.14823 0.85275 0.0
C1147 C 0.12187 0.11773 0.87442 0.0
N1148 N 0.17722 0.2018 0.86256 0.0
N1149 N 0.13641 0.14158 0.87849 0.0
H1150 H 0.13488 0.88992 0.0867 0.0
H1151 H 0.02715 0.93219 0.15458 0.0
H1152 H 0.14305 0.86006 0.13351 0.0
H1153 H 0.01164 0.95033 0.1066 0.0
H1154 H 0.07289 0.9108 0.14755 0.0
H1155 H 0.0925 0.91683 0.09425 0.0
C1156 C 0.12783 0.88905 0.09856 0.0
C1157 C 0.14249 0.87252 0.10945 0.0
C1158 C 0.05955 0.91965 0.13858 0.0
C1159 C 0.09406 0.90341 0.11818 0.0
C1160 C 0.0335 0.93199 0.1426 0.0
C1161 C 0.01546 0.9429 0.13115 0.0
C1162 C 0.06765 0.91832 0.12301 0.0
C1163 C 0.02478 0.94201 0.1158 0.0
C1164 C 0.10363 0.90443 0.10286 0.0
C1165 C 0.13237 0.87232 0.12468 0.0
N1166 N 0.05015 0.92981 0.11217 0.0
N1167 N 0.1088 0.88748 0.12858 0.0
H1168 H 0.69828 0.75849 0.85694 0.0
H1169 H 0.60946 0.89452 0.88413 0.0
H1170 H 0.67925 0.77679 0.90453 0.0
H1171 H 0.63824 0.88214 0.8374 0.0
H1172 H 0.63528 0.85176 0.89181 0.0
H1173 H 0.67734 0.8041 0.84963 0.0
C1174 C 0.68991 0.77222 0.86588 0.0
C1175 C 0.69041 0.76374 0.88138 0.0
C1176 C 0.63606 0.85843 0.87989 0.0
C1177 C 0.66609 0.81595 0.87304 0.0
C1178 C 0.62122 0.88283 0.87546 0.0
C1179 C 0.62153 0.89193 0.86005 0.0
C1180 C 0.65124 0.84279 0.86883 0.0
C1181 C 0.63731 0.87593 0.84939 0.0
C1182 C 0.67793 0.79828 0.86168 0.0
C1183 C 0.67932 0.78245 0.89245 0.0
N1184 N 0.65141 0.85207 0.85396 0.0
N1185 N 0.6674 0.80758 0.88805 0.0
H1186 H 0.98805 0.94987 0.60502 0.0
H1187 H 0.85557 0.85714 0.63349 0.0
H1188 H 0.97295 0.92883 0.65269 0.0
H1189 H 0.86437 0.88843 0.58699 0.0
H1190 H 0.89839 0.88334 0.64073 0.0
H1191 H 0.94252 0.92814 0.59826 0.0
C1192 C 0.97503 0.94089 0.6141 0.0
C1193 C 0.98439 0.94107 0.62945 0.0
C1194 C 0.89091 0.88458 0.62895 0.0
C1195 C 0.93228 0.91585 0.62174 0.0
C1196 C 0.86648 0.86952 0.62478 0.0
C1197 C 0.85636 0.87046 0.60957 0.0
C1198 C 0.90552 0.90061 0.61784 0.0
C1199 C 0.87138 0.88701 0.59884 0.0
C1200 C 0.94902 0.92846 0.61022 0.0
C1201 C 0.96658 0.92918 0.64071 0.0
N1202 N 0.89527 0.90132 0.60316 0.0
N1203 N 0.94149 0.91684 0.63662 0.0
H1204 H 0.81799 0.2208 0.4071 0.0
H1205 H 0.85858 0.11488 0.33808 0.0
H1206 H 0.79718 0.23684 0.35948 0.0
H1207 H 0.8901 0.10594 0.38453 0.0
H1208 H 0.83148 0.15679 0.34618 0.0
H1209 H 0.83948 0.17541 0.39954 0.0
C1210 C 0.81762 0.21463 0.39509 0.0
C1211 C 0.80593 0.23273 0.3839 0.0
C1212 C 0.84428 0.14559 0.3546 0.0
C1213 C 0.83067 0.18094 0.37515 0.0
C1214 C 0.85978 0.12166 0.34998 0.0
C1215 C 0.87682 0.10692 0.36061 0.0
C1216 C 0.8457 0.15481 0.36998 0.0
C1217 C 0.87743 0.1167 0.3759 0.0
C1218 C 0.83003 0.18878 0.39076 0.0
C1219 C 0.8061 0.22364 0.36849 0.0
N1220 N 0.86215 0.14001 0.3801 0.0
N1221 N 0.8184 0.19847 0.36457 0.0
H1222 H 0.63469 0.10907 0.08708 0.0
H1223 H 0.52606 0.06703 0.15458 0.0
H1224 H 0.64226 0.13902 0.1339 0.0
H1225 H 0.5109 0.04913 0.10654 0.0
H1226 H 0.57193 0.08829 0.14769 0.0
H1227 H 0.59214 0.08226 0.09447 0.0
C1228 C 0.62748 0.10997 0.09891 0.0
C1229 C 0.64201 0.1265 0.10985 0.0
C1230 C 0.55863 0.07954 0.13868 0.0
C1231 C 0.59339 0.09573 0.1184 0.0
C1232 C 0.53251 0.06727 0.14262 0.0
C1233 C 0.51454 0.05645 0.13112 0.0
C1234 C 0.56688 0.0809 0.12314 0.0
C1235 C 0.52399 0.05738 0.11578 0.0
C1236 C 0.60317 0.09466 0.10312 0.0
C1237 C 0.63168 0.12676 0.12503 0.0
N1238 N 0.54943 0.0695 0.11224 0.0
N1239 N 0.60802 0.11166 0.12884 0.0
H1240 H 0.67908 0.22372 0.59518 0.0
H1241 H 0.63872 0.11822 0.66444 0.0
H1242 H 0.69904 0.24059 0.64282 0.0
H1243 H 0.60861 0.10782 0.6178 0.0
H1244 H 0.66503 0.16064 0.65634 0.0
H1245 H 0.65778 0.17829 0.60284 0.0
C1246 C 0.67929 0.21773 0.60722 0.0
C1247 C 0.69072 0.23605 0.61838 0.0
C1248 C 0.6527 0.14902 0.64788 0.0
C1249 C 0.6662 0.18423 0.62724 0.0
C1250 C 0.63766 0.1248 0.6525 0.0
C1251 C 0.62127 0.10947 0.64182 0.0
C1252 C 0.65148 0.15794 0.63245 0.0
C1253 C 0.6208 0.11901 0.62648 0.0
C1254 C 0.66699 0.19186 0.6116 0.0
C1255 C 0.69034 0.22721 0.63382 0.0
N1256 N 0.63563 0.1426 0.62227 0.0
N1257 N 0.67816 0.20201 0.6378 0.0
H1258 H 0.51235 0.95157 0.39628 0.0
H1259 H 0.64537 0.86007 0.36744 0.0
H1260 H 0.52735 0.93094 0.34855 0.0
H1261 H 0.63607 0.89024 0.41413 0.0
H1262 H 0.60268 0.88652 0.36025 0.0
H1263 H 0.5582 0.9304 0.40291 0.0
C1264 C 0.52541 0.94281 0.38716 0.0
C1265 C 0.51592 0.9429 0.37183 0.0
C1266 C 0.61003 0.88747 0.37205 0.0
C1267 C 0.5684 0.91831 0.37939 0.0
C1268 C 0.63439 0.87228 0.3762 0.0
C1269 C 0.6443 0.87278 0.39146 0.0
C1270 C 0.59527 0.90319 0.38324 0.0
C1271 C 0.62921 0.88915 0.40224 0.0
C1272 C 0.55161 0.93069 0.39096 0.0
C1273 C 0.53381 0.93132 0.36051 0.0
N1274 N 0.60537 0.90356 0.39794 0.0
N1275 N 0.55908 0.91927 0.36454 0.0
H1276 H 0.80134 0.76037 0.14763 0.0
H1277 H 0.89078 0.89452 0.11847 0.0
H1278 H 0.82031 0.77615 0.09978 0.0
H1279 H 0.8613 0.88499 0.16527 0.0
H1280 H 0.86472 0.85154 0.11139 0.0
H1281 H 0.82228 0.80635 0.15424 0.0
C1282 C 0.80969 0.77362 0.13848 0.0
C1283 C 0.80919 0.76432 0.12312 0.0
C1284 C 0.86383 0.85889 0.1232 0.0
C1285 C 0.8335 0.81696 0.13065 0.0
C1286 C 0.87881 0.88342 0.12728 0.0
C1287 C 0.87838 0.89337 0.14253 0.0
C1288 C 0.84841 0.84397 0.13445 0.0
C1289 C 0.86232 0.87811 0.15339 0.0
C1290 C 0.82167 0.7999 0.14227 0.0
C1291 C 0.82025 0.78246 0.11176 0.0
N1292 N 0.84811 0.8541 0.14915 0.0
N1293 N 0.83218 0.8078 0.11577 0.0
H1294 H 0.97398 0.06906 0.84722 0.0
H1295 H 0.86598 0.10828 0.91551 0.0
H1296 H 0.98959 0.04923 0.89499 0.0
H1297 H 0.85793 0.1402 0.8691 0.0
H1298 H 0.90856 0.08196 0.9077 0.0
H1299 H 0.92823 0.09016 0.85449 0.0
C1300 C 0.96765 0.06883 0.85921 0.0
C1301 C 0.98571 0.05751 0.87052 0.0
C1302 C 0.89742 0.09469 0.89922 0.0
C1303 C 0.93352 0.08178 0.87894 0.0
C1304 C 0.8731 0.10974 0.90368 0.0
C1305 C 0.8584 0.12665 0.89298 0.0
C1306 C 0.90706 0.09642 0.88394 0.0
C1307 C 0.86863 0.12761 0.87778 0.0
C1308 C 0.9416 0.08102 0.86337 0.0
C1309 C 0.97643 0.05786 0.88589 0.0
N1310 N 0.8923 0.11275 0.87373 0.0
N1311 N 0.95106 0.06991 0.88965 0.0
H1312 H 0.7965 0.73818 0.64587 0.0
H1313 H 0.8885 0.60505 0.61796 0.0
H1314 H 0.81685 0.72177 0.59824 0.0
H1315 H 0.85728 0.61425 0.66445 0.0
H1316 H 0.86184 0.6474 0.61055 0.0
H1317 H 0.81747 0.69238 0.65284 0.0
C1318 C 0.80514 0.72481 0.63685 0.0
C1319 C 0.80507 0.7339 0.62145 0.0
C1320 C 0.86069 0.64012 0.62236 0.0
C1321 C 0.82942 0.68152 0.6294 0.0
C1322 C 0.87603 0.61596 0.62664 0.0
C1323 C 0.8753 0.60611 0.6419 0.0
C1324 C 0.84461 0.6548 0.63342 0.0
C1325 C 0.85856 0.62108 0.65257 0.0
C1326 C 0.81713 0.69865 0.64085 0.0
C1327 C 0.81647 0.71564 0.61025 0.0
N1328 N 0.84402 0.64478 0.64815 0.0
N1329 N 0.82843 0.69044 0.61447 0.0
H1330 H 0.63399 0.6087 0.91724 0.0
H1331 H 0.52644 0.56724 0.84912 0.0
H1332 H 0.6425 0.63874 0.87048 0.0
H1333 H 0.51008 0.54968 0.89708 0.0
H1334 H 0.57228 0.58826 0.85628 0.0
H1335 H 0.5914 0.58216 0.90962 0.0
C1336 C 0.62698 0.60968 0.90537 0.0
C1337 C 0.64179 0.62615 0.89452 0.0
C1338 C 0.55872 0.57963 0.86522 0.0
C1339 C 0.59313 0.59569 0.8857 0.0
C1340 C 0.53262 0.5675 0.86113 0.0
C1341 C 0.51432 0.55685 0.87252 0.0
C1342 C 0.56662 0.58102 0.88082 0.0
C1343 C 0.52342 0.5578 0.88791 0.0
C1344 C 0.60265 0.59452 0.90103 0.0
C1345 C 0.6317 0.62652 0.87929 0.0
N1346 N 0.54886 0.56979 0.89161 0.0
N1347 N 0.60802 0.61156 0.87535 0.0
H1348 H 0.6095 0.39518 0.12085 0.0
H1349 H 0.69802 0.25886 0.14789 0.0
H1350 H 0.63811 0.38243 0.16759 0.0
H1351 H 0.67917 0.27744 0.10031 0.0
H1352 H 0.67715 0.30447 0.15525 0.0
H1353 H 0.63533 0.35247 0.11311 0.0
C1354 C 0.62123 0.38343 0.12951 0.0
C1355 C 0.62148 0.3924 0.14494 0.0
C1356 C 0.67777 0.29871 0.14319 0.0
C1357 C 0.65119 0.34331 0.13608 0.0
C1358 C 0.6897 0.27265 0.13896 0.0
C1359 C 0.69023 0.26425 0.12345 0.0
C1360 C 0.666 0.31647 0.13185 0.0
C1361 C 0.67921 0.28305 0.1124 0.0
C1362 C 0.63607 0.35905 0.12505 0.0
C1363 C 0.63723 0.37632 0.15558 0.0
N1364 N 0.66733 0.30817 0.11683 0.0
N1365 N 0.65132 0.35249 0.15097 0.0
H1366 H 0.85527 0.357 0.37114 0.0
H1367 H 0.98897 0.44852 0.39934 0.0
H1368 H 0.86767 0.38348 0.41827 0.0
H1369 H 0.97197 0.42943 0.35161 0.0
H1370 H 0.94399 0.42599 0.40639 0.0
H1371 H 0.89752 0.38395 0.36375 0.0
C1372 C 0.86687 0.36847 0.37996 0.0
C1373 C 0.85791 0.36784 0.39539 0.0
C1374 C 0.94996 0.4269 0.39436 0.0
C1375 C 0.90643 0.39888 0.38694 0.0
C1376 C 0.97565 0.43982 0.39031 0.0
C1377 C 0.98433 0.44076 0.37485 0.0
C1378 C 0.93284 0.41461 0.3829 0.0
C1379 C 0.96614 0.42918 0.36367 0.0
C1380 C 0.89097 0.38396 0.3757 0.0
C1381 C 0.87378 0.38327 0.40626 0.0
N1382 N 0.94136 0.41639 0.36792 0.0
N1383 N 0.89731 0.39805 0.40183 0.0
H1384 H 0.89029 0.39472 0.88419 0.0
H1385 H 0.80018 0.25991 0.8566 0.0
H1386 H 0.85928 0.38435 0.83773 0.0
H1387 H 0.82064 0.27665 0.90418 0.0
H1388 H 0.82077 0.30582 0.84955 0.0
H1389 H 0.86452 0.35186 0.89174 0.0
C1390 C 0.87805 0.38346 0.87555 0.0
C1391 C 0.87711 0.39314 0.86025 0.0
C1392 C 0.82056 0.29959 0.86155 0.0
C1393 C 0.84746 0.34387 0.86888 0.0
C1394 C 0.80879 0.27336 0.8656 0.0
C1395 C 0.80881 0.26435 0.88101 0.0
C1396 C 0.83272 0.31691 0.87297 0.0
C1397 C 0.82017 0.28273 0.89216 0.0
C1398 C 0.86323 0.359 0.87991 0.0
C1399 C 0.8607 0.37768 0.84963 0.0
N1400 N 0.8319 0.30802 0.8879 0.0
N1401 N 0.84666 0.35373 0.85413 0.0
H1402 H 0.97396 0.56786 0.15636 0.0
H1403 H 0.86479 0.60784 0.08874 0.0
H1404 H 0.98866 0.54835 0.10847 0.0
H1405 H 0.85784 0.63962 0.13523 0.0
H1406 H 0.90741 0.58129 0.09628 0.0
H1407 H 0.92813 0.58912 0.14937 0.0
C1408 C 0.96741 0.56773 0.14441 0.0
C1409 C 0.98525 0.55646 0.13298 0.0
C1410 C 0.8965 0.59404 0.10483 0.0
C1411 C 0.93296 0.5809 0.12488 0.0
C1412 C 0.87216 0.60921 0.10053 0.0
C1413 C 0.85776 0.62616 0.11134 0.0
C1414 C 0.90646 0.59567 0.12006 0.0
C1415 C 0.8683 0.62701 0.12647 0.0
C1416 C 0.94132 0.58001 0.14041 0.0
C1417 C 0.97568 0.55694 0.11766 0.0
N1418 N 0.89198 0.61203 0.13037 0.0
N1419 N 0.95027 0.56907 0.11405 0.0
H1420 H 0.63983 0.61297 0.33936 0.0
H1421 H 0.68188 0.72471 0.40536 0.0
H1422 H 0.60911 0.60814 0.38614 0.0
H1423 H 0.70049 0.73729 0.35718 0.0
H1424 H 0.6602 0.67875 0.39906 0.0
H1425 H 0.66675 0.65577 0.34618 0.0
C1426 C 0.63876 0.62084 0.35106 0.0
C1427 C 0.62201 0.60699 0.36215 0.0
C1428 C 0.6692 0.6915 0.38988 0.0
C1429 C 0.65293 0.65589 0.37007 0.0
C1430 C 0.68171 0.71767 0.39349 0.0
C1431 C 0.69286 0.73495 0.38177 0.0
C1432 C 0.66793 0.6825 0.37446 0.0
C1433 C 0.692 0.72475 0.36658 0.0
C1434 C 0.65415 0.64529 0.35495 0.0
C1435 C 0.62156 0.61817 0.37716 0.0
N1436 N 0.67964 0.69927 0.36336 0.0
N1437 N 0.63674 0.64194 0.38066 0.0
H1438 H 0.6305 0.3877 0.58369 0.0
H1439 H 0.52755 0.43232 0.6533 0.0
H1440 H 0.64298 0.3612 0.63081 0.0
H1441 H 0.50883 0.44922 0.60552 0.0
H1442 H 0.57287 0.41094 0.64555 0.0
H1443 H 0.58837 0.41455 0.59174 0.0
C1444 C 0.62444 0.38754 0.59572 0.0
C1445 C 0.64024 0.37199 0.60656 0.0
C1446 C 0.55892 0.4195 0.63677 0.0
C1447 C 0.59213 0.40282 0.61587 0.0
C1448 C 0.5331 0.43184 0.6412 0.0
C1449 C 0.51428 0.44241 0.63004 0.0
C1450 C 0.56599 0.41778 0.62108 0.0
C1451 C 0.5226 0.44118 0.61452 0.0
C1452 C 0.60039 0.40289 0.60031 0.0
C1453 C 0.63139 0.37269 0.62201 0.0
N1454 N 0.54775 0.42895 0.6105 0.0
N1455 N 0.60795 0.38779 0.62618 0.0
H1456 H 0.10996 0.39522 0.3862 0.0
H1457 H 0.20035 0.2622 0.35634 0.0
H1458 H 0.13782 0.38566 0.33911 0.0
H1459 H 0.18144 0.27722 0.40427 0.0
H1460 H 0.17893 0.30805 0.34993 0.0
H1461 H 0.13684 0.35265 0.39309 0.0
C1462 C 0.12176 0.38421 0.37729 0.0
C1463 C 0.12147 0.39401 0.36201 0.0
C1464 C 0.17966 0.30146 0.36187 0.0
C1465 C 0.15238 0.34509 0.36988 0.0
C1466 C 0.19192 0.27527 0.36555 0.0
C1467 C 0.19256 0.26578 0.38087 0.0
C1468 C 0.16769 0.31825 0.37357 0.0
C1469 C 0.18139 0.28367 0.39231 0.0
C1470 C 0.1372 0.35991 0.38127 0.0
C1471 C 0.13734 0.37888 0.35102 0.0
N1472 N 0.16919 0.30894 0.38841 0.0
N1473 N 0.15201 0.3551 0.35516 0.0
H1474 H 0.36614 0.39188 0.08872 0.0
H1475 H 0.47352 0.43096 0.15733 0.0
H1476 H 0.35803 0.3594 0.13501 0.0
H1477 H 0.48909 0.45181 0.10968 0.0
H1478 H 0.42797 0.40962 0.1499 0.0
H1479 H 0.40849 0.41842 0.0967 0.0
C1480 C 0.3732 0.39035 0.10056 0.0
C1481 C 0.35855 0.37321 0.11117 0.0
C1482 C 0.44129 0.41904 0.14109 0.0
C1483 C 0.40694 0.4037 0.12041 0.0
C1484 C 0.46722 0.43136 0.14534 0.0
C1485 C 0.48522 0.44304 0.1341 0.0
C1486 C 0.43326 0.41849 0.1255 0.0
C1487 C 0.47597 0.44291 0.11872 0.0
C1488 C 0.39739 0.40552 0.10511 0.0
C1489 C 0.3687 0.37216 0.12639 0.0
N1490 N 0.45072 0.43071 0.11487 0.0
N1491 N 0.39224 0.38715 0.13053 0.0
H1492 H 0.31934 0.72349 0.90496 0.0
H1493 H 0.36006 0.6143 0.83747 0.0
H1494 H 0.30167 0.73875 0.85691 0.0
H1495 H 0.38959 0.60607 0.88434 0.0
H1496 H 0.33396 0.65727 0.84485 0.0
H1497 H 0.34015 0.67739 0.8981 0.0
C1498 C 0.31954 0.71702 0.893 0.0
C1499 C 0.3089 0.73508 0.88149 0.0
C1500 C 0.34611 0.646 0.85352 0.0
C1501 C 0.33281 0.68247 0.87354 0.0
C1502 C 0.36102 0.62145 0.84931 0.0
C1503 C 0.37722 0.6066 0.86027 0.0
C1504 C 0.34726 0.65573 0.86881 0.0
C1505 C 0.37757 0.61689 0.87546 0.0
C1506 C 0.33155 0.69077 0.88907 0.0
C1507 C 0.30978 0.7256 0.86616 0.0
N1508 N 0.36286 0.6408 0.87927 0.0
N1509 N 0.32163 0.70003 0.86263 0.0
H1510 H 0.0094 0.54954 0.60586 0.0
H1511 H 0.14235 0.6417 0.63416 0.0
H1512 H 0.02508 0.56985 0.65357 0.0
H1513 H 0.1333 0.61028 0.5877 0.0
H1514 H 0.09959 0.61547 0.64149 0.0
H1515 H 0.05502 0.57102 0.59906 0.0
C1516 C 0.02257 0.5583 0.61494 0.0
C1517 C 0.01334 0.558 0.63031 0.0
C1518 C 0.10701 0.61421 0.6297 0.0
C1519 C 0.06555 0.58297 0.62256 0.0
C1520 C 0.1314 0.62929 0.62548 0.0
C1521 C 0.14143 0.62833 0.61025 0.0
C1522 C 0.09233 0.59815 0.61862 0.0
C1523 C 0.12636 0.61172 0.59956 0.0
C1524 C 0.04863 0.57059 0.61104 0.0
C1525 C 0.03135 0.5696 0.64158 0.0
N1526 N 0.1025 0.59741 0.60393 0.0
N1527 N 0.05648 0.58185 0.63746 0.0
H1528 H 0.13834 0.61573 0.16693 0.0
H1529 H 0.1802 0.72212 0.09834 0.0
H1530 H 0.11003 0.60525 0.11998 0.0
H1531 H 0.19753 0.7391 0.14626 0.0
H1532 H 0.15912 0.67637 0.10566 0.0
H1533 H 0.16442 0.65849 0.15918 0.0
C1534 C 0.13764 0.62235 0.15499 0.0
C1535 C 0.1218 0.60691 0.14412 0.0
C1536 C 0.1677 0.69005 0.11456 0.0
C1537 C 0.15175 0.6558 0.13516 0.0
C1538 C 0.17986 0.7161 0.11038 0.0
C1539 C 0.1905 0.73453 0.12171 0.0
C1540 C 0.16627 0.68234 0.13017 0.0
C1541 C 0.18944 0.72565 0.13714 0.0
C1542 C 0.15254 0.64678 0.15058 0.0
C1543 C 0.12178 0.61653 0.1288 0.0
N1544 N 0.17744 0.70026 0.14092 0.0
N1545 N 0.13647 0.64033 0.12479 0.0
H1546 H 0.13321 0.3915 0.91654 0.0
H1547 H 0.02625 0.43229 0.84802 0.0
H1548 H 0.14218 0.36108 0.86988 0.0
H1549 H 0.00992 0.45106 0.89585 0.0
H1550 H 0.07197 0.41122 0.85535 0.0
H1551 H 0.09078 0.41807 0.90872 0.0
C1552 C 0.12633 0.39044 0.90465 0.0
C1553 C 0.14123 0.37385 0.89389 0.0
C1554 C 0.05845 0.42013 0.86423 0.0
C1555 C 0.09275 0.40436 0.88484 0.0
C1556 C 0.03242 0.43229 0.86004 0.0
C1557 C 0.01415 0.44329 0.87135 0.0
C1558 C 0.06633 0.41906 0.87983 0.0
C1559 C 0.02324 0.44267 0.88675 0.0
C1560 C 0.1021 0.40562 0.90019 0.0
C1561 C 0.13131 0.37339 0.87862 0.0
N1562 N 0.0486 0.43064 0.89054 0.0
N1563 N 0.10772 0.38837 0.87457 0.0
H1564 H 0.29919 0.25979 0.64675 0.0
H1565 H 0.39055 0.39348 0.61859 0.0
H1566 H 0.3195 0.27604 0.5991 0.0
H1567 H 0.36137 0.38285 0.66538 0.0
H1568 H 0.3642 0.35086 0.61124 0.0
H1569 H 0.32082 0.30527 0.65372 0.0
C1570 C 0.30797 0.27305 0.63772 0.0
C1571 C 0.30764 0.26403 0.62231 0.0
C1572 C 0.36345 0.35788 0.6231 0.0
C1573 C 0.33274 0.31607 0.63026 0.0
C1574 C 0.37859 0.38221 0.62734 0.0
C1575 C 0.37831 0.39176 0.64267 0.0
C1576 C 0.34798 0.34279 0.63426 0.0
C1577 C 0.36228 0.37629 0.65345 0.0
C1578 C 0.32036 0.29903 0.64172 0.0
C1579 C 0.31929 0.28214 0.61112 0.0
N1580 N 0.34787 0.3525 0.64905 0.0
N1581 N 0.33157 0.30719 0.61533 0.0
H1582 H 0.48753 0.5518 0.39932 0.0
H1583 H 0.35411 0.64045 0.36854 0.0
H1584 H 0.47244 0.56864 0.35117 0.0
H1585 H 0.36313 0.61306 0.41573 0.0
H1586 H 0.39698 0.61378 0.36191 0.0
H1587 H 0.44151 0.5731 0.40545 0.0
C1588 C 0.47441 0.55975 0.39001 0.0
C1589 C 0.48392 0.55856 0.3747 0.0
C1590 C 0.38952 0.61348 0.3737 0.0
C1591 C 0.43124 0.58331 0.38169 0.0
C1592 C 0.36506 0.62881 0.37752 0.0
C1593 C 0.35502 0.62916 0.39276 0.0
C1594 C 0.40426 0.5985 0.38519 0.0
C1595 C 0.37008 0.61349 0.40386 0.0
C1596 C 0.44812 0.57194 0.39353 0.0
C1597 C 0.46596 0.56912 0.36312 0.0
N1598 N 0.39402 0.59895 0.39987 0.0
N1599 N 0.44059 0.58129 0.36687 0.0
loop_
_geom_bond_atom_site_label_1
_geom_bond_atom_site_label_2
_geom_bond_distance
_geom_bond_site_symmetry_2
_ccdc_geom_bond_type
O0 Cd1 2.223 . S
O0 C8 1.315 . S
Cd1 O0 2.223 . S
Cd1 O4 2.297 . S
Cd1 O5 2.439 . S
Cd1 O11 2.240 . S
Cd2 O3 2.240 . S
Cd2 O10 2.223 . S
Cd2 O12 2.297 . S
Cd2 O13 2.439 . S
O3 Cd2 2.240 . S
O3 C8 1.279 . S
O4 Cd1 2.297 . S
O4 C6 1.247 . S
O5 Cd1 2.439 . S
O5 C6 1.208 . S
C6 O4 1.247 . S
C6 O5 1.208 . S
C7 O12 1.247 . S
C7 O13 1.208 . S
C8 O0 1.315 . S
C8 O3 1.279 . S
C9 O10 1.315 . S
C9 O11 1.279 . S
O10 Cd2 2.223 . S
O10 C9 1.315 . S
O11 Cd1 2.240 . S
O11 C9 1.279 . S
O12 Cd2 2.297 . S
O12 C7 1.247 . S
O13 Cd2 2.439 . S
O13 C7 1.208 . S
O14 Cd15 2.223 . S
O14 C22 1.315 . S
Cd15 O14 2.223 . S
Cd15 O18 2.297 . S
Cd15 O19 2.439 . S
Cd15 O25 2.240 . S
Cd16 O17 2.240 . S
Cd16 O24 2.223 . S
Cd16 O26 2.297 . S
Cd16 O27 2.439 . S
O17 Cd16 2.240 . S
O17 C22 1.279 . S
O18 Cd15 2.297 . S
O18 C20 1.247 . S
O19 Cd15 2.439 . S
O19 C20 1.208 . S
C20 O18 1.247 . S
C20 O19 1.208 . S
C21 O26 1.247 . S
C21 O27 1.208 . S
C22 O14 1.315 . S
C22 O17 1.279 . S
C23 O24 1.315 . S
C23 O25 1.279 . S
O24 Cd16 2.223 . S
O24 C23 1.315 . S
O25 Cd15 2.240 . S
O25 C23 1.279 . S
O26 Cd16 2.297 . S
O26 C21 1.247 . S
O27 Cd16 2.439 . S
O27 C21 1.208 . S
O28 Cd29 2.223 . S
O28 C36 1.315 . S
Cd29 O28 2.223 . S
Cd29 O32 2.297 . S
Cd29 O33 2.439 . S
Cd29 O39 2.240 . S
Cd30 O31 2.240 . S
Cd30 O38 2.223 . S
Cd30 O40 2.297 . S
Cd30 O41 2.439 . S
O31 Cd30 2.240 . S
O31 C36 1.279 . S
O32 Cd29 2.297 . S
O32 C34 1.247 . S
O33 Cd29 2.439 . S
O33 C34 1.208 . S
C34 O32 1.247 . S
C34 O33 1.208 . S
C35 O40 1.247 . S
C35 O41 1.208 . S
C36 O28 1.315 . S
C36 O31 1.279 . S
C37 O38 1.315 . S
C37 O39 1.279 . S
O38 Cd30 2.223 . S
O38 C37 1.315 . S
O39 Cd29 2.240 . S
O39 C37 1.279 . S
O40 Cd30 2.297 . S
O40 C35 1.247 . S
O41 Cd30 2.439 . S
O41 C35 1.208 . S
O42 Cd43 2.223 . S
O42 C50 1.315 . S
Cd43 O42 2.223 . S
Cd43 O46 2.297 . S
Cd43 O47 2.439 . S
Cd43 O53 2.240 . S
Cd44 O45 2.240 . S
Cd44 O52 2.223 . S
Cd44 O54 2.297 . S
Cd44 O55 2.439 . S
O45 Cd44 2.240 . S
O45 C50 1.279 . S
O46 Cd43 2.297 . S
O46 C48 1.247 . S
O47 Cd43 2.439 . S
O47 C48 1.208 . S
C48 O46 1.247 . S
C48 O47 1.208 . S
C49 O54 1.247 . S
C49 O55 1.208 . S
C50 O42 1.315 . S
C50 O45 1.279 . S
C51 O52 1.315 . S
C51 O53 1.279 . S
O52 Cd44 2.223 . S
O52 C51 1.315 . S
O53 Cd43 2.240 . S
O53 C51 1.279 . S
O54 Cd44 2.297 . S
O54 C49 1.247 . S
O55 Cd44 2.439 . S
O55 C49 1.208 . S
O56 Cd57 2.223 . S
O56 C64 1.315 . S
Cd57 O56 2.223 . S
Cd57 O60 2.297 . S
Cd57 O61 2.439 . S
Cd57 O67 2.240 . S
Cd58 O59 2.240 . S
Cd58 O66 2.223 . S
Cd58 O68 2.297 . S
Cd58 O69 2.439 . S
O59 Cd58 2.240 . S
O59 C64 1.279 . S
O60 Cd57 2.297 . S
O60 C62 1.247 . S
O61 Cd57 2.439 . S
O61 C62 1.208 . S
C62 O60 1.247 . S
C62 O61 1.208 . S
C63 O68 1.247 . S
C63 O69 1.208 . S
C64 O56 1.315 . S
C64 O59 1.279 . S
C65 O66 1.315 . S
C65 O67 1.279 . S
O66 Cd58 2.223 . S
O66 C65 1.315 . S
O67 Cd57 2.240 . S
O67 C65 1.279 . S
O68 Cd58 2.297 . S
O68 C63 1.247 . S
O69 Cd58 2.439 . S
O69 C63 1.208 . S
O70 Cd71 2.223 . S
O70 C78 1.315 . S
Cd71 O70 2.223 . S
Cd71 O74 2.297 . S
Cd71 O75 2.439 . S
Cd71 O81 2.240 . S
Cd72 O73 2.240 . S
Cd72 O80 2.223 . S
Cd72 O82 2.297 . S
Cd72 O83 2.439 . S
O73 Cd72 2.240 . S
O73 C78 1.279 . S
O74 Cd71 2.297 . S
O74 C76 1.247 . S
O75 Cd71 2.439 . S
O75 C76 1.208 . S
C76 O74 1.247 . S
C76 O75 1.208 . S
C77 O82 1.247 . S
C77 O83 1.208 . S
C78 O70 1.315 . S
C78 O73 1.279 . S
C79 O80 1.315 . S
C79 O81 1.279 . S
O80 Cd72 2.223 . S
O80 C79 1.315 . S
O81 Cd71 2.240 . S
O81 C79 1.279 . S
O82 Cd72 2.297 . S
O82 C77 1.247 . S
O83 Cd72 2.439 . S
O83 C77 1.208 . S
O84 Cd85 2.223 . S
O84 C92 1.315 . S
Cd85 O84 2.223 . S
Cd85 O88 2.297 . S
Cd85 O89 2.439 . S
Cd85 O95 2.240 . S
Cd86 O87 2.240 . S
Cd86 O94 2.223 . S
Cd86 O96 2.297 . S
Cd86 O97 2.439 . S
O87 Cd86 2.240 . S
O87 C92 1.279 . S
O88 Cd85 2.297 . S
O88 C90 1.247 . S
O89 Cd85 2.439 . S
O89 C90 1.208 . S
C90 O88 1.247 . S
C90 O89 1.208 . S
C91 O96 1.247 . S
C91 O97 1.208 . S
C92 O84 1.315 . S
C92 O87 1.279 . S
C93 O94 1.315 . S
C93 O95 1.279 . S
O94 Cd86 2.223 . S
O94 C93 1.315 . S
O95 Cd85 2.240 . S
O95 C93 1.279 . S
O96 Cd86 2.297 . S
O96 C91 1.247 . S
O97 Cd86 2.439 . S
O97 C91 1.208 . S
O98 Cd99 2.223 . S
O98 C106 1.315 . S
Cd99 O98 2.223 . S
Cd99 O102 2.297 . S
Cd99 O103 2.439 . S
Cd99 O109 2.240 . S
Cd100 O101 2.240 . S
Cd100 O108 2.223 . S
Cd100 O110 2.297 . S
Cd100 O111 2.439 . S
O101 Cd100 2.240 . S
O101 C106 1.279 . S
O102 Cd99 2.297 . S
O102 C104 1.247 . S
O103 Cd99 2.439 . S
O103 C104 1.208 . S
C104 O102 1.247 . S
C104 O103 1.208 . S
C105 O110 1.247 . S
C105 O111 1.208 . S
C106 O98 1.315 . S
C106 O101 1.279 . S
C107 O108 1.315 . S
C107 O109 1.279 . S
O108 Cd100 2.223 . S
O108 C107 1.315 . S
O109 Cd99 2.240 . S
O109 C107 1.279 . S
O110 Cd100 2.297 . S
O110 C105 1.247 . S
O111 Cd100 2.439 . S
O111 C105 1.208 . S
O112 Cd113 2.223 . S
O112 C120 1.315 . S
Cd113 O112 2.223 . S
Cd113 O116 2.297 . S
Cd113 O117 2.439 . S
Cd113 O123 2.240 . S
Cd114 O115 2.240 . S
Cd114 O122 2.223 . S
Cd114 O124 2.297 . S
Cd114 O125 2.439 . S
O115 Cd114 2.240 . S
O115 C120 1.279 . S
O116 Cd113 2.297 . S
O116 C118 1.247 . S
O117 Cd113 2.439 . S
O117 C118 1.208 . S
C118 O116 1.247 . S
C118 O117 1.208 . S
C119 O124 1.247 . S
C119 O125 1.208 . S
C120 O112 1.315 . S
C120 O115 1.279 . S
C121 O122 1.315 . S
C121 O123 1.279 . S
O122 Cd114 2.223 . S
O122 C121 1.315 . S
O123 Cd113 2.240 . S
O123 C121 1.279 . S
O124 Cd114 2.297 . S
O124 C119 1.247 . S
O125 Cd114 2.439 . S
O125 C119 1.208 . S
O126 Cd127 2.223 . S
O126 C134 1.315 . S
Cd127 O126 2.223 . S
Cd127 O130 2.297 . S
Cd127 O131 2.439 . S
Cd127 O137 2.240 . S
Cd128 O129 2.240 . S
Cd128 O136 2.223 . S
Cd128 O138 2.297 . S
Cd128 O139 2.439 . S
O129 Cd128 2.240 . S
O129 C134 1.279 . S
O130 Cd127 2.297 . S
O130 C132 1.247 . S
O131 Cd127 2.439 . S
O131 C132 1.208 . S
C132 O130 1.247 . S
C132 O131 1.208 . S
C133 O138 1.247 . S
C133 O139 1.208 . S
C134 O126 1.315 . S
C134 O129 1.279 . S
C135 O136 1.315 . S
C135 O137 1.279 . S
O136 Cd128 2.223 . S
O136 C135 1.315 . S
O137 Cd127 2.240 . S
O137 C135 1.279 . S
O138 Cd128 2.297 . S
O138 C133 1.247 . S
O139 Cd128 2.439 . S
O139 C133 1.208 . S
O140 Cd141 2.223 . S
O140 C148 1.315 . S
Cd141 O140 2.223 . S
Cd141 O144 2.297 . S
Cd141 O145 2.439 . S
Cd141 O151 2.240 . S
Cd142 O143 2.240 . S
Cd142 O150 2.223 . S
Cd142 O152 2.297 . S
Cd142 O153 2.439 . S
O143 Cd142 2.240 . S
O143 C148 1.279 . S
O144 Cd141 2.297 . S
O144 C146 1.247 . S
O145 Cd141 2.439 . S
O145 C146 1.208 . S
C146 O144 1.247 . S
C146 O145 1.208 . S
C147 O152 1.247 . S
C147 O153 1.208 . S
C148 O140 1.315 . S
C148 O143 1.279 . S
C149 O150 1.315 . S
C149 O151 1.279 . S
O150 Cd142 2.223 . S
O150 C149 1.315 . S
O151 Cd141 2.240 . S
O151 C149 1.279 . S
O152 Cd142 2.297 . S
O152 C147 1.247 . S
O153 Cd142 2.439 . S
O153 C147 1.208 . S
O154 Cd155 2.223 . S
O154 C162 1.315 . S
Cd155 O154 2.223 . S
Cd155 O158 2.297 . S
Cd155 O159 2.439 . S
Cd155 O165 2.240 . S
Cd156 O157 2.240 . S
Cd156 O164 2.223 . S
Cd156 O166 2.297 . S
Cd156 O167 2.439 . S
O157 Cd156 2.240 . S
O157 C162 1.279 . S
O158 Cd155 2.297 . S
O158 C160 1.247 . S
O159 Cd155 2.439 . S
O159 C160 1.208 . S
C160 O158 1.247 . S
C160 O159 1.208 . S
C161 O166 1.247 . S
C161 O167 1.208 . S
C162 O154 1.315 . S
C162 O157 1.279 . S
C163 O164 1.315 . S
C163 O165 1.279 . S
O164 Cd156 2.223 . S
O164 C163 1.315 . S
O165 Cd155 2.240 . S
O165 C163 1.279 . S
O166 Cd156 2.297 . S
O166 C161 1.247 . S
O167 Cd156 2.439 . S
O167 C161 1.208 . S
O168 Cd169 2.223 . S
O168 C176 1.315 . S
Cd169 O168 2.223 . S
Cd169 O172 2.297 . S
Cd169 O173 2.439 . S
Cd169 O179 2.240 . S
Cd170 O171 2.240 . S
Cd170 O178 2.223 . S
Cd170 O180 2.297 . S
Cd170 O181 2.439 . S
O171 Cd170 2.240 . S
O171 C176 1.279 . S
O172 Cd169 2.297 . S
O172 C174 1.247 . S
O173 Cd169 2.439 . S
O173 C174 1.208 . S
C174 O172 1.247 . S
C174 O173 1.208 . S
C175 O180 1.247 . S
C175 O181 1.208 . S
C176 O168 1.315 . S
C176 O171 1.279 . S
C177 O178 1.315 . S
C177 O179 1.279 . S
O178 Cd170 2.223 . S
O178 C177 1.315 . S
O179 Cd169 2.240 . S
O179 C177 1.279 . S
O180 Cd170 2.297 . S
O180 C175 1.247 . S
O181 Cd170 2.439 . S
O181 C175 1.208 . S
O182 Cd183 2.223 . S
O182 C190 1.315 . S
Cd183 O182 2.223 . S
Cd183 O186 2.297 . S
Cd183 O187 2.439 . S
Cd183 O193 2.240 . S
Cd184 O185 2.240 . S
Cd184 O192 2.223 . S
Cd184 O194 2.297 . S
Cd184 O195 2.439 . S
O185 Cd184 2.240 . S
O185 C190 1.279 . S
O186 Cd183 2.297 . S
O186 C188 1.247 . S
O187 Cd183 2.439 . S
O187 C188 1.208 . S
C188 O186 1.247 . S
C188 O187 1.208 . S
C189 O194 1.247 . S
C189 O195 1.208 . S
C190 O182 1.315 . S
C190 O185 1.279 . S
C191 O192 1.315 . S
C191 O193 1.279 . S
O192 Cd184 2.223 . S
O192 C191 1.315 . S
O193 Cd183 2.240 . S
O193 C191 1.279 . S
O194 Cd184 2.297 . S
O194 C189 1.247 . S
O195 Cd184 2.439 . S
O195 C189 1.208 . S
O196 Cd197 2.223 . S
O196 C204 1.315 . S
Cd197 O196 2.223 . S
Cd197 O200 2.297 . S
Cd197 O201 2.439 . S
Cd197 O207 2.240 . S
Cd198 O199 2.240 . S
Cd198 O206 2.223 . S
Cd198 O208 2.297 . S
Cd198 O209 2.439 . S
O199 Cd198 2.240 . S
O199 C204 1.279 . S
O200 Cd197 2.297 . S
O200 C202 1.247 . S
O201 Cd197 2.439 . S
O201 C202 1.208 . S
C202 O200 1.247 . S
C202 O201 1.208 . S
C203 O208 1.247 . S
C203 O209 1.208 . S
C204 O196 1.315 . S
C204 O199 1.279 . S
C205 O206 1.315 . S
C205 O207 1.279 . S
O206 Cd198 2.223 . S
O206 C205 1.315 . S
O207 Cd197 2.240 . S
O207 C205 1.279 . S
O208 Cd198 2.297 . S
O208 C203 1.247 . S
O209 Cd198 2.439 . S
O209 C203 1.208 . S
O210 Cd211 2.223 . S
O210 C218 1.315 . S
Cd211 O210 2.223 . S
Cd211 O214 2.297 . S
Cd211 O215 2.439 . S
Cd211 O221 2.240 . S
Cd212 O213 2.240 . S
Cd212 O220 2.223 . S
Cd212 O222 2.297 . S
Cd212 O223 2.439 . S
O213 Cd212 2.240 . S
O213 C218 1.279 . S
O214 Cd211 2.297 . S
O214 C216 1.247 . S
O215 Cd211 2.439 . S
O215 C216 1.208 . S
C216 O214 1.247 . S
C216 O215 1.208 . S
C217 O222 1.247 . S
C217 O223 1.208 . S
C218 O210 1.315 . S
C218 O213 1.279 . S
C219 O220 1.315 . S
C219 O221 1.279 . S
O220 Cd212 2.223 . S
O220 C219 1.315 . S
O221 Cd211 2.240 . S
O221 C219 1.279 . S
O222 Cd212 2.297 . S
O222 C217 1.247 . S
O223 Cd212 2.439 . S
O223 C217 1.208 . S
O224 Cd225 2.223 . S
O224 C232 1.315 . S
Cd225 O224 2.223 . S
Cd225 O228 2.297 . S
Cd225 O229 2.439 . S
Cd225 O235 2.240 . S
Cd226 O227 2.240 . S
Cd226 O234 2.223 . S
Cd226 O236 2.297 . S
Cd226 O237 2.439 . S
O227 Cd226 2.240 . S
O227 C232 1.279 . S
O228 Cd225 2.297 . S
O228 C230 1.247 . S
O229 Cd225 2.439 . S
O229 C230 1.208 . S
C230 O228 1.247 . S
C230 O229 1.208 . S
C231 O236 1.247 . S
C231 O237 1.208 . S
C232 O224 1.315 . S
C232 O227 1.279 . S
C233 O234 1.315 . S
C233 O235 1.279 . S
O234 Cd226 2.223 . S
O234 C233 1.315 . S
O235 Cd225 2.240 . S
O235 C233 1.279 . S
O236 Cd226 2.297 . S
O236 C231 1.247 . S
O237 Cd226 2.439 . S
O237 C231 1.208 . S
O238 Cd239 2.223 . S
O238 C246 1.315 . S
Cd239 O238 2.223 . S
Cd239 O242 2.297 . S
Cd239 O243 2.439 . S
Cd239 O249 2.240 . S
Cd240 O241 2.240 . S
Cd240 O248 2.223 . S
Cd240 O250 2.297 . S
Cd240 O251 2.439 . S
O241 Cd240 2.240 . S
O241 C246 1.279 . S
O242 Cd239 2.297 . S
O242 C244 1.247 . S
O243 Cd239 2.439 . S
O243 C244 1.208 . S
C244 O242 1.247 . S
C244 O243 1.208 . S
C245 O250 1.247 . S
C245 O251 1.208 . S
C246 O238 1.315 . S
C246 O241 1.279 . S
C247 O248 1.315 . S
C247 O249 1.279 . S
O248 Cd240 2.223 . S
O248 C247 1.315 . S
O249 Cd239 2.240 . S
O249 C247 1.279 . S
O250 Cd240 2.297 . S
O250 C245 1.247 . S
O251 Cd240 2.439 . S
O251 C245 1.208 . S
O252 Cd253 2.223 . S
O252 C260 1.315 . S
Cd253 O252 2.223 . S
Cd253 O256 2.297 . S
Cd253 O257 2.439 . S
Cd253 O263 2.240 . S
Cd254 O255 2.240 . S
Cd254 O262 2.223 . S
Cd254 O264 2.297 . S
Cd254 O265 2.439 . S
O255 Cd254 2.240 . S
O255 C260 1.279 . S
O256 Cd253 2.297 . S
O256 C258 1.247 . S
O257 Cd253 2.439 . S
O257 C258 1.208 . S
C258 O256 1.247 . S
C258 O257 1.208 . S
C259 O264 1.247 . S
C259 O265 1.208 . S
C260 O252 1.315 . S
C260 O255 1.279 . S
C261 O262 1.315 . S
C261 O263 1.279 . S
O262 Cd254 2.223 . S
O262 C261 1.315 . S
O263 Cd253 2.240 . S
O263 C261 1.279 . S
O264 Cd254 2.297 . S
O264 C259 1.247 . S
O265 Cd254 2.439 . S
O265 C259 1.208 . S
O266 Cd267 2.223 . S
O266 C274 1.315 . S
Cd267 O266 2.223 . S
Cd267 O270 2.297 . S
Cd267 O271 2.439 . S
Cd267 O277 2.240 . S
Cd268 O269 2.240 . S
Cd268 O276 2.223 . S
Cd268 O278 2.297 . S
Cd268 O279 2.439 . S
O269 Cd268 2.240 . S
O269 C274 1.279 . S
O270 Cd267 2.297 . S
O270 C272 1.247 . S
O271 Cd267 2.439 . S
O271 C272 1.208 . S
C272 O270 1.247 . S
C272 O271 1.208 . S
C273 O278 1.247 . S
C273 O279 1.208 . S
C274 O266 1.315 . S
C274 O269 1.279 . S
C275 O276 1.315 . S
C275 O277 1.279 . S
O276 Cd268 2.223 . S
O276 C275 1.315 . S
O277 Cd267 2.240 . S
O277 C275 1.279 . S
O278 Cd268 2.297 . S
O278 C273 1.247 . S
O279 Cd268 2.439 . S
O279 C273 1.208 . S
O280 Cd281 2.223 . S
O280 C288 1.315 . S
Cd281 O280 2.223 . S
Cd281 O284 2.297 . S
Cd281 O285 2.439 . S
Cd281 O291 2.240 . S
Cd282 O283 2.240 . S
Cd282 O290 2.223 . S
Cd282 O292 2.297 . S
Cd282 O293 2.439 . S
O283 Cd282 2.240 . S
O283 C288 1.279 . S
O284 Cd281 2.297 . S
O284 C286 1.247 . S
O285 Cd281 2.439 . S
O285 C286 1.208 . S
C286 O284 1.247 . S
C286 O285 1.208 . S
C287 O292 1.247 . S
C287 O293 1.208 . S
C288 O280 1.315 . S
C288 O283 1.279 . S
C289 O290 1.315 . S
C289 O291 1.279 . S
O290 Cd282 2.223 . S
O290 C289 1.315 . S
O291 Cd281 2.240 . S
O291 C289 1.279 . S
O292 Cd282 2.297 . S
O292 C287 1.247 . S
O293 Cd282 2.439 . S
O293 C287 1.208 . S
O294 Cd295 2.223 . S
O294 C302 1.315 . S
Cd295 O294 2.223 . S
Cd295 O298 2.297 . S
Cd295 O299 2.439 . S
Cd295 O305 2.240 . S
Cd296 O297 2.240 . S
Cd296 O304 2.223 . S
Cd296 O306 2.297 . S
Cd296 O307 2.439 . S
O297 Cd296 2.240 . S
O297 C302 1.279 . S
O298 Cd295 2.297 . S
O298 C300 1.247 . S
O299 Cd295 2.439 . S
O299 C300 1.208 . S
C300 O298 1.247 . S
C300 O299 1.208 . S
C301 O306 1.247 . S
C301 O307 1.208 . S
C302 O294 1.315 . S
C302 O297 1.279 . S
C303 O304 1.315 . S
C303 O305 1.279 . S
O304 Cd296 2.223 . S
O304 C303 1.315 . S
O305 Cd295 2.240 . S
O305 C303 1.279 . S
O306 Cd296 2.297 . S
O306 C301 1.247 . S
O307 Cd296 2.439 . S
O307 C301 1.208 . S
O308 Cd309 2.223 . S
O308 C316 1.315 . S
Cd309 O308 2.223 . S
Cd309 O312 2.297 . S
Cd309 O313 2.439 . S
Cd309 O319 2.240 . S
Cd310 O311 2.240 . S
Cd310 O318 2.223 . S
Cd310 O320 2.297 . S
Cd310 O321 2.439 . S
O311 Cd310 2.240 . S
O311 C316 1.279 . S
O312 Cd309 2.297 . S
O312 C314 1.247 . S
O313 Cd309 2.439 . S
O313 C314 1.208 . S
C314 O312 1.247 . S
C314 O313 1.208 . S
C315 O320 1.247 . S
C315 O321 1.208 . S
C316 O308 1.315 . S
C316 O311 1.279 . S
C317 O318 1.315 . S
C317 O319 1.279 . S
O318 Cd310 2.223 . S
O318 C317 1.315 . S
O319 Cd309 2.240 . S
O319 C317 1.279 . S
O320 Cd310 2.297 . S
O320 C315 1.247 . S
O321 Cd310 2.439 . S
O321 C315 1.208 . S
O322 Cd323 2.223 . S
O322 C330 1.315 . S
Cd323 O322 2.223 . S
Cd323 O326 2.297 . S
Cd323 O327 2.439 . S
Cd323 O333 2.240 . S
Cd324 O325 2.240 . S
Cd324 O332 2.223 . S
Cd324 O334 2.297 . S
Cd324 O335 2.439 . S
O325 Cd324 2.240 . S
O325 C330 1.279 . S
O326 Cd323 2.297 . S
O326 C328 1.247 . S
O327 Cd323 2.439 . S
O327 C328 1.208 . S
C328 O326 1.247 . S
C328 O327 1.208 . S
C329 O334 1.247 . S
C329 O335 1.208 . S
C330 O322 1.315 . S
C330 O325 1.279 . S
C331 O332 1.315 . S
C331 O333 1.279 . S
O332 Cd324 2.223 . S
O332 C331 1.315 . S
O333 Cd323 2.240 . S
O333 C331 1.279 . S
O334 Cd324 2.297 . S
O334 C329 1.247 . S
O335 Cd324 2.439 . S
O335 C329 1.208 . S
O336 Cd337 2.223 . S
O336 C344 1.315 . S
Cd337 O336 2.223 . S
Cd337 O340 2.297 . S
Cd337 O341 2.439 . S
Cd337 O347 2.240 . S
Cd338 O339 2.240 . S
Cd338 O346 2.223 . S
Cd338 O348 2.297 . S
Cd338 O349 2.439 . S
O339 Cd338 2.240 . S
O339 C344 1.279 . S
O340 Cd337 2.297 . S
O340 C342 1.247 . S
O341 Cd337 2.439 . S
O341 C342 1.208 . S
C342 O340 1.247 . S
C342 O341 1.208 . S
C343 O348 1.247 . S
C343 O349 1.208 . S
C344 O336 1.315 . S
C344 O339 1.279 . S
C345 O346 1.315 . S
C345 O347 1.279 . S
O346 Cd338 2.223 . S
O346 C345 1.315 . S
O347 Cd337 2.240 . S
O347 C345 1.279 . S
O348 Cd338 2.297 . S
O348 C343 1.247 . S
O349 Cd338 2.439 . S
O349 C343 1.208 . S
O350 Cd351 2.223 . S
O350 C358 1.315 . S
Cd351 O350 2.223 . S
Cd351 O354 2.297 . S
Cd351 O355 2.439 . S
Cd351 O361 2.240 . S
Cd352 O353 2.240 . S
Cd352 O360 2.223 . S
Cd352 O362 2.297 . S
Cd352 O363 2.439 . S
O353 Cd352 2.240 . S
O353 C358 1.279 . S
O354 Cd351 2.297 . S
O354 C356 1.247 . S
O355 Cd351 2.439 . S
O355 C356 1.208 . S
C356 O354 1.247 . S
C356 O355 1.208 . S
C357 O362 1.247 . S
C357 O363 1.208 . S
C358 O350 1.315 . S
C358 O353 1.279 . S
C359 O360 1.315 . S
C359 O361 1.279 . S
O360 Cd352 2.223 . S
O360 C359 1.315 . S
O361 Cd351 2.240 . S
O361 C359 1.279 . S
O362 Cd352 2.297 . S
O362 C357 1.247 . S
O363 Cd352 2.439 . S
O363 C357 1.208 . S
O364 Cd365 2.223 . S
O364 C372 1.315 . S
Cd365 O364 2.223 . S
Cd365 O368 2.297 . S
Cd365 O369 2.439 . S
Cd365 O375 2.240 . S
Cd366 O367 2.240 . S
Cd366 O374 2.223 . S
Cd366 O376 2.297 . S
Cd366 O377 2.439 . S
O367 Cd366 2.240 . S
O367 C372 1.279 . S
O368 Cd365 2.297 . S
O368 C370 1.247 . S
O369 Cd365 2.439 . S
O369 C370 1.208 . S
C370 O368 1.247 . S
C370 O369 1.208 . S
C371 O376 1.247 . S
C371 O377 1.208 . S
C372 O364 1.315 . S
C372 O367 1.279 . S
C373 O374 1.315 . S
C373 O375 1.279 . S
O374 Cd366 2.223 . S
O374 C373 1.315 . S
O375 Cd365 2.240 . S
O375 C373 1.279 . S
O376 Cd366 2.297 . S
O376 C371 1.247 . S
O377 Cd366 2.439 . S
O377 C371 1.208 . S
O378 Cd379 2.223 . S
O378 C386 1.315 . S
Cd379 O378 2.223 . S
Cd379 O382 2.297 . S
Cd379 O383 2.439 . S
Cd379 O389 2.240 . S
Cd380 O381 2.240 . S
Cd380 O388 2.223 . S
Cd380 O390 2.297 . S
Cd380 O391 2.439 . S
O381 Cd380 2.240 . S
O381 C386 1.279 . S
O382 Cd379 2.297 . S
O382 C384 1.247 . S
O383 Cd379 2.439 . S
O383 C384 1.208 . S
C384 O382 1.247 . S
C384 O383 1.208 . S
C385 O390 1.247 . S
C385 O391 1.208 . S
C386 O378 1.315 . S
C386 O381 1.279 . S
C387 O388 1.315 . S
C387 O389 1.279 . S
O388 Cd380 2.223 . S
O388 C387 1.315 . S
O389 Cd379 2.240 . S
O389 C387 1.279 . S
O390 Cd380 2.297 . S
O390 C385 1.247 . S
O391 Cd380 2.439 . S
O391 C385 1.208 . S
O392 Cd393 2.223 . S
O392 C400 1.315 . S
Cd393 O392 2.223 . S
Cd393 O396 2.297 . S
Cd393 O397 2.439 . S
Cd393 O403 2.240 . S
Cd394 O395 2.240 . S
Cd394 O402 2.223 . S
Cd394 O404 2.297 . S
Cd394 O405 2.439 . S
O395 Cd394 2.240 . S
O395 C400 1.279 . S
O396 Cd393 2.297 . S
O396 C398 1.247 . S
O397 Cd393 2.439 . S
O397 C398 1.208 . S
C398 O396 1.247 . S
C398 O397 1.208 . S
C399 O404 1.247 . S
C399 O405 1.208 . S
C400 O392 1.315 . S
C400 O395 1.279 . S
C401 O402 1.315 . S
C401 O403 1.279 . S
O402 Cd394 2.223 . S
O402 C401 1.315 . S
O403 Cd393 2.240 . S
O403 C401 1.279 . S
O404 Cd394 2.297 . S
O404 C399 1.247 . S
O405 Cd394 2.439 . S
O405 C399 1.208 . S
O406 Cd407 2.223 . S
O406 C414 1.315 . S
Cd407 O406 2.223 . S
Cd407 O410 2.297 . S
Cd407 O411 2.439 . S
Cd407 O417 2.240 . S
Cd408 O409 2.240 . S
Cd408 O416 2.223 . S
Cd408 O418 2.297 . S
Cd408 O419 2.439 . S
O409 Cd408 2.240 . S
O409 C414 1.279 . S
O410 Cd407 2.297 . S
O410 C412 1.247 . S
O411 Cd407 2.439 . S
O411 C412 1.208 . S
C412 O410 1.247 . S
C412 O411 1.208 . S
C413 O418 1.247 . S
C413 O419 1.208 . S
C414 O406 1.315 . S
C414 O409 1.279 . S
C415 O416 1.315 . S
C415 O417 1.279 . S
O416 Cd408 2.223 . S
O416 C415 1.315 . S
O417 Cd407 2.240 . S
O417 C415 1.279 . S
O418 Cd408 2.297 . S
O418 C413 1.247 . S
O419 Cd408 2.439 . S
O419 C413 1.208 . S
O420 Cd421 2.223 . S
O420 C428 1.315 . S
Cd421 O420 2.223 . S
Cd421 O424 2.297 . S
Cd421 O425 2.439 . S
Cd421 O431 2.240 . S
Cd422 O423 2.240 . S
Cd422 O430 2.223 . S
Cd422 O432 2.297 . S
Cd422 O433 2.439 . S
O423 Cd422 2.240 . S
O423 C428 1.279 . S
O424 Cd421 2.297 . S
O424 C426 1.247 . S
O425 Cd421 2.439 . S
O425 C426 1.208 . S
C426 O424 1.247 . S
C426 O425 1.208 . S
C427 O432 1.247 . S
C427 O433 1.208 . S
C428 O420 1.315 . S
C428 O423 1.279 . S
C429 O430 1.315 . S
C429 O431 1.279 . S
O430 Cd422 2.223 . S
O430 C429 1.315 . S
O431 Cd421 2.240 . S
O431 C429 1.279 . S
O432 Cd422 2.297 . S
O432 C427 1.247 . S
O433 Cd422 2.439 . S
O433 C427 1.208 . S
O434 Cd435 2.223 . S
O434 C442 1.315 . S
Cd435 O434 2.223 . S
Cd435 O438 2.297 . S
Cd435 O439 2.439 . S
Cd435 O445 2.240 . S
Cd436 O437 2.240 . S
Cd436 O444 2.223 . S
Cd436 O446 2.297 . S
Cd436 O447 2.439 . S
O437 Cd436 2.240 . S
O437 C442 1.279 . S
O438 Cd435 2.297 . S
O438 C440 1.247 . S
O439 Cd435 2.439 . S
O439 C440 1.208 . S
C440 O438 1.247 . S
C440 O439 1.208 . S
C441 O446 1.247 . S
C441 O447 1.208 . S
C442 O434 1.315 . S
C442 O437 1.279 . S
C443 O444 1.315 . S
C443 O445 1.279 . S
O444 Cd436 2.223 . S
O444 C443 1.315 . S
O445 Cd435 2.240 . S
O445 C443 1.279 . S
O446 Cd436 2.297 . S
O446 C441 1.247 . S
O447 Cd436 2.439 . S
O447 C441 1.208 . S
H448 C454 0.930 . S
H449 C458 0.930 . S
H450 C463 0.929 . S
H451 C461 0.929 . S
H452 C456 0.929 . S
H453 C462 0.929 . S
C454 H448 0.930 . S
C454 C455 1.367 . S
C454 C462 1.378 . S
C455 C454 1.367 . S
C455 C463 1.433 1_565 S
C456 H452 0.929 . S
C456 C458 1.378 . S
C456 C460 1.350 . S
C457 C460 1.463 1_565 S
C457 C462 1.350 . S
C457 N465 1.427 1_565 S
C458 H449 0.930 . S
C458 C456 1.378 . S
C458 C459 1.367 . S
C459 C458 1.367 . S
C459 C461 1.433 1_545 S
C460 C456 1.350 . S
C460 C457 1.463 1_545 S
C460 N464 1.427 1_545 S
C461 H451 0.929 . S
C461 C459 1.433 1_565 S
C461 N464 1.384 . S
C462 H453 0.929 . S
C462 C454 1.378 . S
C462 C457 1.350 . S
C463 H450 0.929 . S
C463 C455 1.433 1_545 S
C463 N465 1.384 . S
N464 C460 1.427 1_565 S
N464 C461 1.384 . S
N465 C457 1.427 1_545 S
N465 C463 1.384 . S
H466 C472 0.930 . S
H467 C476 0.930 . S
H468 C481 0.929 . S
H469 C479 0.929 . S
H470 C474 0.929 . S
H471 C480 0.929 . S
C472 H466 0.930 . S
C472 C473 1.367 . S
C472 C480 1.378 . S
C473 C472 1.367 . S
C473 C481 1.433 . S
C474 H470 0.929 . S
C474 C476 1.378 . S
C474 C478 1.350 . S
C475 C478 1.463 . S
C475 C480 1.350 . S
C475 N483 1.427 . S
C476 H467 0.930 . S
C476 C474 1.378 . S
C476 C477 1.367 . S
C477 C476 1.367 . S
C477 C479 1.433 . S
C478 C474 1.350 . S
C478 C475 1.463 . S
C478 N482 1.427 . S
C479 H469 0.929 . S
C479 C477 1.433 . S
C479 N482 1.384 . S
C480 H471 0.929 . S
C480 C472 1.378 . S
C480 C475 1.350 . S
C481 H468 0.929 . S
C481 C473 1.433 . S
C481 N483 1.384 . S
N482 C478 1.427 . S
N482 C479 1.384 . S
N483 C475 1.427 . S
N483 C481 1.384 . S
H484 C490 0.930 . S
H485 C494 0.930 . S
H486 C499 0.929 . S
H487 C497 0.929 . S
H488 C492 0.929 . S
H489 C498 0.929 . S
C490 H484 0.930 . S
C490 C491 1.367 . S
C490 C498 1.378 . S
C491 C490 1.367 . S
C491 C499 1.433 1_545 S
C492 H488 0.929 . S
C492 C494 1.378 . S
C492 C496 1.350 . S
C493 C496 1.463 1_545 S
C493 C498 1.350 . S
C493 N501 1.427 1_545 S
C494 H485 0.930 . S
C494 C492 1.378 . S
C494 C495 1.367 . S
C495 C494 1.367 . S
C495 C497 1.433 1_565 S
C496 C492 1.350 . S
C496 C493 1.463 1_565 S
C496 N500 1.427 1_565 S
C497 H487 0.929 . S
C497 C495 1.433 1_545 S
C497 N500 1.384 . S
C498 H489 0.929 . S
C498 C490 1.378 . S
C498 C493 1.350 . S
C499 H486 0.929 . S
C499 C491 1.433 1_565 S
C499 N501 1.384 . S
N500 C496 1.427 1_545 S
N500 C497 1.384 . S
N501 C493 1.427 1_565 S
N501 C499 1.384 . S
H502 C508 0.930 . S
H503 C512 0.930 . S
H504 C517 0.929 . S
H505 C515 0.929 . S
H506 C510 0.929 . S
H507 C516 0.929 . S
C508 H502 0.930 . S
C508 C509 1.367 . S
C508 C516 1.378 . S
C509 C508 1.367 . S
C509 C517 1.433 . S
C510 H506 0.929 . S
C510 C512 1.378 . S
C510 C514 1.350 . S
C511 C514 1.463 1_556 S
C511 C516 1.350 . S
C511 N519 1.427 . S
C512 H503 0.930 . S
C512 C510 1.378 . S
C512 C513 1.367 . S
C513 C512 1.367 . S
C513 C515 1.433 . S
C514 C510 1.350 . S
C514 C511 1.463 1_554 S
C514 N518 1.427 . S
C515 H505 0.929 . S
C515 C513 1.433 . S
C515 N518 1.384 . S
C516 H507 0.929 . S
C516 C508 1.378 . S
C516 C511 1.350 . S
C517 H504 0.929 . S
C517 C509 1.433 . S
C517 N519 1.384 . S
N518 C514 1.427 . S
N518 C515 1.384 . S
N519 C511 1.427 . S
N519 C517 1.384 . S
H520 C526 0.930 . S
H521 C530 0.930 . S
H522 C535 0.929 . S
H523 C533 0.929 . S
H524 C528 0.929 . S
H525 C534 0.929 . S
C526 H520 0.930 . S
C526 C527 1.367 . S
C526 C534 1.378 . S
C527 C526 1.367 . S
C527 C535 1.433 . S
C528 H524 0.929 . S
C528 C530 1.378 . S
C528 C532 1.350 . S
C529 C532 1.463 1_565 S
C529 C534 1.350 . S
C529 N537 1.427 . S
C530 H521 0.930 . S
C530 C528 1.378 . S
C530 C531 1.367 . S
C531 C530 1.367 . S
C531 C533 1.433 . S
C532 C528 1.350 . S
C532 C529 1.463 1_545 S
C532 N536 1.427 . S
C533 H523 0.929 . S
C533 C531 1.433 . S
C533 N536 1.384 . S
C534 H525 0.929 . S
C534 C526 1.378 . S
C534 C529 1.350 . S
C535 H522 0.929 . S
C535 C527 1.433 . S
C535 N537 1.384 . S
N536 C532 1.427 . S
N536 C533 1.384 . S
N537 C529 1.427 . S
N537 C535 1.384 . S
H538 C544 0.930 . S
H539 C548 0.930 . S
H540 C553 0.929 . S
H541 C551 0.929 . S
H542 C546 0.929 . S
H543 C552 0.929 . S
C544 H538 0.930 . S
C544 C545 1.367 . S
C544 C552 1.378 . S
C545 C544 1.367 . S
C545 C553 1.433 . S
C546 H542 0.929 . S
C546 C548 1.378 . S
C546 C550 1.350 . S
C547 C550 1.463 . S
C547 C552 1.350 . S
C547 N555 1.427 . S
C548 H539 0.930 . S
C548 C546 1.378 . S
C548 C549 1.367 . S
C549 C548 1.367 . S
C549 C551 1.433 . S
C550 C546 1.350 . S
C550 C547 1.463 . S
C550 N554 1.427 . S
C551 H541 0.929 . S
C551 C549 1.433 . S
C551 N554 1.384 . S
C552 H543 0.929 . S
C552 C544 1.378 . S
C552 C547 1.350 . S
C553 H540 0.929 . S
C553 C545 1.433 . S
C553 N555 1.384 . S
N554 C550 1.427 . S
N554 C551 1.384 . S
N555 C547 1.427 . S
N555 C553 1.384 . S
H556 C562 0.930 . S
H557 C566 0.930 . S
H558 C571 0.929 . S
H559 C569 0.929 . S
H560 C564 0.929 . S
H561 C570 0.929 . S
C562 H556 0.930 . S
C562 C563 1.367 . S
C562 C570 1.378 . S
C563 C562 1.367 . S
C563 C571 1.433 1_545 S
C564 H560 0.929 . S
C564 C566 1.378 . S
C564 C568 1.350 . S
C565 C568 1.463 1_545 S
C565 C570 1.350 . S
C565 N573 1.427 1_545 S
C566 H557 0.930 . S
C566 C564 1.378 . S
C566 C567 1.367 . S
C567 C566 1.367 . S
C567 C569 1.433 1_565 S
C568 C564 1.350 . S
C568 C565 1.463 1_565 S
C568 N572 1.427 1_565 S
C569 H559 0.929 . S
C569 C567 1.433 1_545 S
C569 N572 1.384 . S
C570 H561 0.929 . S
C570 C562 1.378 . S
C570 C565 1.350 . S
C571 H558 0.929 . S
C571 C563 1.433 1_565 S
C571 N573 1.384 . S
N572 C568 1.427 1_545 S
N572 C569 1.384 . S
N573 C565 1.427 1_565 S
N573 C571 1.384 . S
H574 C580 0.930 . S
H575 C584 0.930 . S
H576 C589 0.929 . S
H577 C587 0.929 . S
H578 C582 0.929 . S
H579 C588 0.929 . S
C580 H574 0.930 . S
C580 C581 1.367 . S
C580 C588 1.378 . S
C581 C580 1.367 . S
C581 C589 1.433 . S
C582 H578 0.929 . S
C582 C584 1.378 . S
C582 C586 1.350 . S
C583 C586 1.463 1_556 S
C583 C588 1.350 . S
C583 N591 1.427 . S
C584 H575 0.930 . S
C584 C582 1.378 . S
C584 C585 1.367 . S
C585 C584 1.367 . S
C585 C587 1.433 . S
C586 C582 1.350 . S
C586 C583 1.463 1_554 S
C586 N590 1.427 . S
C587 H577 0.929 . S
C587 C585 1.433 . S
C587 N590 1.384 . S
C588 H579 0.929 . S
C588 C580 1.378 . S
C588 C583 1.350 . S
C589 H576 0.929 . S
C589 C581 1.433 . S
C589 N591 1.384 . S
N590 C586 1.427 . S
N590 C587 1.384 . S
N591 C583 1.427 . S
N591 C589 1.384 . S
H592 C598 0.930 . S
H593 C602 0.930 . S
H594 C607 0.929 . S
H595 C605 0.929 . S
H596 C600 0.929 . S
H597 C606 0.929 . S
C598 H592 0.930 . S
C598 C599 1.367 . S
C598 C606 1.378 . S
C599 C598 1.367 . S
C599 C607 1.433 . S
C600 H596 0.929 . S
C600 C602 1.378 . S
C600 C604 1.350 . S
C601 C604 1.463 . S
C601 C606 1.350 . S
C601 N609 1.427 . S
C602 H593 0.930 . S
C602 C600 1.378 . S
C602 C603 1.367 . S
C603 C602 1.367 . S
C603 C605 1.433 . S
C604 C600 1.350 . S
C604 C601 1.463 . S
C604 N608 1.427 . S
C605 H595 0.929 . S
C605 C603 1.433 . S
C605 N608 1.384 . S
C606 H597 0.929 . S
C606 C598 1.378 . S
C606 C601 1.350 . S
C607 H594 0.929 . S
C607 C599 1.433 . S
C607 N609 1.384 . S
N608 C604 1.427 . S
N608 C605 1.384 . S
N609 C601 1.427 . S
N609 C607 1.384 . S
H610 C616 0.930 . S
H611 C620 0.930 . S
H612 C625 0.929 . S
H613 C623 0.929 . S
H614 C618 0.929 . S
H615 C624 0.929 . S
C616 H610 0.930 . S
C616 C617 1.367 . S
C616 C624 1.378 . S
C617 C616 1.367 . S
C617 C625 1.433 . S
C618 H614 0.929 . S
C618 C620 1.378 . S
C618 C622 1.350 . S
C619 C622 1.463 1_554 S
C619 C624 1.350 . S
C619 N627 1.427 . S
C620 H611 0.930 . S
C620 C618 1.378 . S
C620 C621 1.367 . S
C621 C620 1.367 . S
C621 C623 1.433 . S
C622 C618 1.350 . S
C622 C619 1.463 1_556 S
C622 N626 1.427 . S
C623 H613 0.929 . S
C623 C621 1.433 . S
C623 N626 1.384 . S
C624 H615 0.929 . S
C624 C616 1.378 . S
C624 C619 1.350 . S
C625 H612 0.929 . S
C625 C617 1.433 . S
C625 N627 1.384 . S
N626 C622 1.427 . S
N626 C623 1.384 . S
N627 C619 1.427 . S
N627 C625 1.384 . S
H628 C634 0.930 . S
H629 C638 0.930 . S
H630 C643 0.929 . S
H631 C641 0.929 . S
H632 C636 0.929 . S
H633 C642 0.929 . S
C634 H628 0.930 . S
C634 C635 1.367 . S
C634 C642 1.378 . S
C635 C634 1.367 . S
C635 C643 1.433 . S
C636 H632 0.929 . S
C636 C638 1.378 . S
C636 C640 1.350 . S
C637 C640 1.463 . S
C637 C642 1.350 . S
C637 N645 1.427 . S
C638 H629 0.930 . S
C638 C636 1.378 . S
C638 C639 1.367 . S
C639 C638 1.367 . S
C639 C641 1.433 . S
C640 C636 1.350 . S
C640 C637 1.463 . S
C640 N644 1.427 . S
C641 H631 0.929 . S
C641 C639 1.433 . S
C641 N644 1.384 . S
C642 H633 0.929 . S
C642 C634 1.378 . S
C642 C637 1.350 . S
C643 H630 0.929 . S
C643 C635 1.433 . S
C643 N645 1.384 . S
N644 C640 1.427 . S
N644 C641 1.384 . S
N645 C637 1.427 . S
N645 C643 1.384 . S
H646 C652 0.930 . S
H647 C656 0.930 . S
H648 C661 0.929 . S
H649 C659 0.929 . S
H650 C654 0.929 . S
H651 C660 0.929 . S
C652 H646 0.930 . S
C652 C653 1.367 . S
C652 C660 1.378 . S
C653 C652 1.367 . S
C653 C661 1.433 . S
C654 H650 0.929 . S
C654 C656 1.378 . S
C654 C658 1.350 . S
C655 C658 1.463 . S
C655 C660 1.350 . S
C655 N663 1.427 . S
C656 H647 0.930 . S
C656 C654 1.378 . S
C656 C657 1.367 . S
C657 C656 1.367 . S
C657 C659 1.433 . S
C658 C654 1.350 . S
C658 C655 1.463 . S
C658 N662 1.427 . S
C659 H649 0.929 . S
C659 C657 1.433 . S
C659 N662 1.384 . S
C660 H651 0.929 . S
C660 C652 1.378 . S
C660 C655 1.350 . S
C661 H648 0.929 . S
C661 C653 1.433 . S
C661 N663 1.384 . S
N662 C658 1.427 . S
N662 C659 1.384 . S
N663 C655 1.427 . S
N663 C661 1.384 . S
H664 C670 0.930 . S
H665 C674 0.930 . S
H666 C679 0.929 . S
H667 C677 0.929 . S
H668 C672 0.929 . S
H669 C678 0.929 . S
C670 H664 0.930 . S
C670 C671 1.367 . S
C670 C678 1.378 . S
C671 C670 1.367 . S
C671 C679 1.433 . S
C672 H668 0.929 . S
C672 C674 1.378 . S
C672 C676 1.350 . S
C673 C676 1.463 . S
C673 C678 1.350 . S
C673 N681 1.427 . S
C674 H665 0.930 . S
C674 C672 1.378 . S
C674 C675 1.367 . S
C675 C674 1.367 . S
C675 C677 1.433 . S
C676 C672 1.350 . S
C676 C673 1.463 . S
C676 N680 1.427 . S
C677 H667 0.929 . S
C677 C675 1.433 . S
C677 N680 1.384 . S
C678 H669 0.929 . S
C678 C670 1.378 . S
C678 C673 1.350 . S
C679 H666 0.929 . S
C679 C671 1.433 . S
C679 N681 1.384 . S
N680 C676 1.427 . S
N680 C677 1.384 . S
N681 C673 1.427 . S
N681 C679 1.384 . S
H682 C688 0.930 . S
H683 C692 0.930 . S
H684 C697 0.929 . S
H685 C695 0.929 . S
H686 C690 0.929 . S
H687 C696 0.929 . S
C688 H682 0.930 . S
C688 C689 1.367 . S
C688 C696 1.378 . S
C689 C688 1.367 . S
C689 C697 1.433 . S
C690 H686 0.929 . S
C690 C692 1.378 . S
C690 C694 1.350 . S
C691 C694 1.463 1_554 S
C691 C696 1.350 . S
C691 N699 1.427 . S
C692 H683 0.930 . S
C692 C690 1.378 . S
C692 C693 1.367 . S
C693 C692 1.367 . S
C693 C695 1.433 . S
C694 C690 1.350 . S
C694 C691 1.463 1_556 S
C694 N698 1.427 . S
C695 H685 0.929 . S
C695 C693 1.433 . S
C695 N698 1.384 . S
C696 H687 0.929 . S
C696 C688 1.378 . S
C696 C691 1.350 . S
C697 H684 0.929 . S
C697 C689 1.433 . S
C697 N699 1.384 . S
N698 C694 1.427 . S
N698 C695 1.384 . S
N699 C691 1.427 . S
N699 C697 1.384 . S
H700 C706 0.930 . S
H701 C710 0.930 . S
H702 C715 0.929 . S
H703 C713 0.929 . S
H704 C708 0.929 . S
H705 C714 0.929 . S
C706 H700 0.930 . S
C706 C707 1.367 . S
C706 C714 1.378 . S
C707 C706 1.367 . S
C707 C715 1.433 . S
C708 H704 0.929 . S
C708 C710 1.378 . S
C708 C712 1.350 . S
C709 C712 1.463 . S
C709 C714 1.350 . S
C709 N717 1.427 . S
C710 H701 0.930 . S
C710 C708 1.378 . S
C710 C711 1.367 . S
C711 C710 1.367 . S
C711 C713 1.433 . S
C712 C708 1.350 . S
C712 C709 1.463 . S
C712 N716 1.427 . S
C713 H703 0.929 . S
C713 C711 1.433 . S
C713 N716 1.384 . S
C714 H705 0.929 . S
C714 C706 1.378 . S
C714 C709 1.350 . S
C715 H702 0.929 . S
C715 C707 1.433 . S
C715 N717 1.384 . S
N716 C712 1.427 . S
N716 C713 1.384 . S
N717 C709 1.427 . S
N717 C715 1.384 . S
H718 C724 0.930 . S
H719 C728 0.930 . S
H720 C733 0.929 . S
H721 C731 0.929 . S
H722 C726 0.929 . S
H723 C732 0.929 . S
C724 H718 0.930 . S
C724 C725 1.367 . S
C724 C732 1.378 . S
C725 C724 1.367 . S
C725 C733 1.433 . S
C726 H722 0.929 . S
C726 C728 1.378 . S
C726 C730 1.350 . S
C727 C730 1.463 . S
C727 C732 1.350 . S
C727 N735 1.427 . S
C728 H719 0.930 . S
C728 C726 1.378 . S
C728 C729 1.367 . S
C729 C728 1.367 . S
C729 C731 1.433 . S
C730 C726 1.350 . S
C730 C727 1.463 . S
C730 N734 1.427 . S
C731 H721 0.929 . S
C731 C729 1.433 . S
C731 N734 1.384 . S
C732 H723 0.929 . S
C732 C724 1.378 . S
C732 C727 1.350 . S
C733 H720 0.929 . S
C733 C725 1.433 . S
C733 N735 1.384 . S
N734 C730 1.427 . S
N734 C731 1.384 . S
N735 C727 1.427 . S
N735 C733 1.384 . S
H736 C742 0.930 . S
H737 C746 0.930 . S
H738 C751 0.929 . S
H739 C749 0.929 . S
H740 C744 0.929 . S
H741 C750 0.929 . S
C742 H736 0.930 . S
C742 C743 1.367 . S
C742 C750 1.378 . S
C743 C742 1.367 . S
C743 C751 1.433 . S
C744 H740 0.929 . S
C744 C746 1.378 . S
C744 C748 1.350 . S
C745 C748 1.463 . S
C745 C750 1.350 . S
C745 N753 1.427 . S
C746 H737 0.930 . S
C746 C744 1.378 . S
C746 C747 1.367 . S
C747 C746 1.367 . S
C747 C749 1.433 . S
C748 C744 1.350 . S
C748 C745 1.463 . S
C748 N752 1.427 . S
C749 H739 0.929 . S
C749 C747 1.433 . S
C749 N752 1.384 . S
C750 H741 0.929 . S
C750 C742 1.378 . S
C750 C745 1.350 . S
C751 H738 0.929 . S
C751 C743 1.433 . S
C751 N753 1.384 . S
N752 C748 1.427 . S
N752 C749 1.384 . S
N753 C745 1.427 . S
N753 C751 1.384 . S
H754 C760 0.930 . S
H755 C764 0.930 . S
H756 C769 0.929 . S
H757 C767 0.929 1_565 S
H758 C762 0.929 . S
H759 C768 0.929 . S
C760 H754 0.930 . S
C760 C761 1.367 . S
C760 C768 1.378 . S
C761 C760 1.367 . S
C761 C769 1.433 . S
C762 H758 0.929 . S
C762 C764 1.378 . S
C762 C766 1.350 . S
C763 C766 1.463 . S
C763 C768 1.350 . S
C763 N771 1.427 . S
C764 H755 0.930 . S
C764 C762 1.378 . S
C764 C765 1.367 . S
C765 C764 1.367 . S
C765 C767 1.433 . S
C766 C762 1.350 . S
C766 C763 1.463 . S
C766 N770 1.427 . S
C767 H757 0.929 1_545 S
C767 C765 1.433 . S
C767 N770 1.384 . S
C768 H759 0.929 . S
C768 C760 1.378 . S
C768 C763 1.350 . S
C769 H756 0.929 . S
C769 C761 1.433 . S
C769 N771 1.384 . S
N770 C766 1.427 . S
N770 C767 1.384 . S
N771 C763 1.427 . S
N771 C769 1.384 . S
H772 C778 0.930 . S
H773 C782 0.930 . S
H774 C787 0.929 1_565 S
H775 C785 0.929 . S
H776 C780 0.929 . S
H777 C786 0.929 . S
C778 H772 0.930 . S
C778 C779 1.367 . S
C778 C786 1.378 . S
C779 C778 1.367 . S
C779 C787 1.433 . S
C780 H776 0.929 . S
C780 C782 1.378 . S
C780 C784 1.350 . S
C781 C784 1.463 . S
C781 C786 1.350 . S
C781 N789 1.427 . S
C782 H773 0.930 . S
C782 C780 1.378 . S
C782 C783 1.367 . S
C783 C782 1.367 . S
C783 C785 1.433 . S
C784 C780 1.350 . S
C784 C781 1.463 . S
C784 N788 1.427 . S
C785 H775 0.929 . S
C785 C783 1.433 . S
C785 N788 1.384 . S
C786 H777 0.929 . S
C786 C778 1.378 . S
C786 C781 1.350 . S
C787 H774 0.929 1_545 S
C787 C779 1.433 . S
C787 N789 1.384 . S
N788 C784 1.427 . S
N788 C785 1.384 . S
N789 C781 1.427 . S
N789 C787 1.384 . S
H790 C796 0.956 . S
H791 C800 0.930 . S
H792 C805 0.929 . S
H793 C803 0.929 . S
H794 C798 0.929 . S
H795 C804 0.929 . S
C796 H790 0.956 . S
C796 C797 1.359 1_545 S
C796 C804 1.361 1_545 S
C797 C796 1.359 1_565 S
C797 C805 1.433 . S
C798 H794 0.929 . S
C798 C800 1.378 . S
C798 C802 1.350 . S
C799 C802 1.463 . S
C799 C804 1.350 . S
C799 N807 1.427 . S
C800 H791 0.930 . S
C800 C798 1.378 . S
C800 C801 1.367 . S
C801 C800 1.367 . S
C801 C803 1.433 . S
C802 C798 1.350 . S
C802 C799 1.463 . S
C802 N806 1.427 . S
C803 H793 0.929 . S
C803 C801 1.433 . S
C803 N806 1.384 . S
C804 H795 0.929 . S
C804 C796 1.361 1_565 S
C804 C799 1.350 . S
C805 H792 0.929 . S
C805 C797 1.433 . S
C805 N807 1.384 . S
N806 C802 1.427 . S
N806 C803 1.384 . S
N807 C799 1.427 . S
N807 C805 1.384 . S
H808 C814 0.930 . S
H809 C818 0.930 . S
H810 C823 0.929 . S
H811 C821 0.929 . S
H812 C816 0.929 . S
H813 C822 0.929 . S
C814 H808 0.930 . S
C814 C815 1.367 . S
C814 C822 1.378 . S
C815 C814 1.367 . S
C815 C823 1.433 . S
C816 H812 0.929 . S
C816 C818 1.378 1_545 S
C816 C820 1.350 . S
C817 C820 1.463 . S
C817 C822 1.350 . S
C817 N825 1.427 . S
C818 H809 0.930 . S
C818 C816 1.378 1_565 S
C818 C819 1.367 1_565 S
C819 C818 1.367 1_545 S
C819 C821 1.433 . S
C820 C816 1.350 . S
C820 C817 1.463 . S
C820 N824 1.427 . S
C821 H811 0.929 . S
C821 C819 1.433 . S
C821 N824 1.384 . S
C822 H813 0.929 . S
C822 C814 1.378 . S
C822 C817 1.350 . S
C823 H810 0.929 . S
C823 C815 1.433 . S
C823 N825 1.384 . S
N824 C820 1.427 . S
N824 C821 1.384 . S
N825 C817 1.427 . S
N825 C823 1.384 . S
H826 C832 0.930 . S
H827 C836 0.930 . S
H828 C841 0.929 . S
H829 C839 0.929 . S
H830 C834 0.929 . S
H831 C840 0.929 . S
C832 H826 0.930 . S
C832 C833 1.367 1_545 S
C832 C840 1.378 1_545 S
C833 C832 1.367 1_565 S
C833 C841 1.433 . S
C834 H830 0.929 . S
C834 C836 1.378 . S
C834 C838 1.350 . S
C835 C838 1.463 . S
C835 C840 1.350 . S
C835 N843 1.427 . S
C836 H827 0.930 . S
C836 C834 1.378 . S
C836 C837 1.367 . S
C837 C836 1.367 . S
C837 C839 1.433 . S
C838 C834 1.350 . S
C838 C835 1.463 . S
C838 N842 1.427 . S
C839 H829 0.929 . S
C839 C837 1.433 . S
C839 N842 1.384 . S
C840 H831 0.929 . S
C840 C832 1.378 1_565 S
C840 C835 1.350 . S
C841 H828 0.929 . S
C841 C833 1.433 . S
C841 N843 1.384 . S
N842 C838 1.427 . S
N842 C839 1.384 . S
N843 C835 1.427 . S
N843 C841 1.384 . S
H844 C850 0.930 . S
H845 C854 0.930 . S
H846 C859 0.929 . S
H847 C857 0.929 . S
H848 C852 0.929 . S
H849 C858 0.929 . S
C850 H844 0.930 . S
C850 C851 1.367 . S
C850 C858 1.378 . S
C851 C850 1.367 . S
C851 C859 1.433 . S
C852 H848 0.929 . S
C852 C854 1.378 . S
C852 C856 1.350 . S
C853 C856 1.463 . S
C853 C858 1.350 . S
C853 N861 1.427 . S
C854 H845 0.930 . S
C854 C852 1.378 . S
C854 C855 1.367 . S
C855 C854 1.367 . S
C855 C857 1.433 . S
C856 C852 1.350 . S
C856 C853 1.463 . S
C856 N860 1.427 . S
C857 H847 0.929 . S
C857 C855 1.433 . S
C857 N860 1.384 . S
C858 H849 0.929 . S
C858 C850 1.378 . S
C858 C853 1.350 . S
C859 H846 0.929 . S
C859 C851 1.433 . S
C859 N861 1.384 . S
N860 C856 1.427 . S
N860 C857 1.384 . S
N861 C853 1.427 . S
N861 C859 1.384 . S
H862 C868 0.930 . S
H863 C872 0.930 1_565 S
H864 C877 0.929 . S
H865 C875 0.929 . S
H866 C870 0.929 . S
H867 C876 0.929 . S
C868 H862 0.930 . S
C868 C869 1.367 . S
C868 C876 1.378 . S
C869 C868 1.367 . S
C869 C877 1.433 . S
C870 H866 0.929 . S
C870 C872 1.378 . S
C870 C874 1.350 . S
C871 C874 1.463 . S
C871 C876 1.350 . S
C871 N879 1.427 . S
C872 H863 0.930 1_545 S
C872 C870 1.378 . S
C872 C873 1.367 . S
C873 C872 1.367 . S
C873 C875 1.433 . S
C874 C870 1.350 . S
C874 C871 1.463 . S
C874 N878 1.427 . S
C875 H865 0.929 . S
C875 C873 1.433 . S
C875 N878 1.384 . S
C876 H867 0.929 . S
C876 C868 1.378 . S
C876 C871 1.350 . S
C877 H864 0.929 . S
C877 C869 1.433 . S
C877 N879 1.384 . S
N878 C874 1.427 . S
N878 C875 1.384 . S
N879 C871 1.427 . S
N879 C877 1.384 . S
H880 C886 0.930 . S
H881 C890 0.930 . S
H882 C895 0.929 . S
H883 C893 0.929 . S
H884 C888 0.929 . S
H885 C894 0.929 . S
C886 H880 0.930 . S
C886 C887 1.367 . S
C886 C894 1.378 . S
C887 C886 1.367 . S
C887 C895 1.433 . S
C888 H884 0.929 . S
C888 C890 1.378 . S
C888 C892 1.350 . S
C889 C892 1.463 . S
C889 C894 1.350 . S
C889 N897 1.427 . S
C890 H881 0.930 . S
C890 C888 1.378 . S
C890 C891 1.367 . S
C891 C890 1.367 . S
C891 C893 1.433 . S
C892 C888 1.350 . S
C892 C889 1.463 . S
C892 N896 1.427 . S
C893 H883 0.929 . S
C893 C891 1.433 . S
C893 N896 1.384 . S
C894 H885 0.929 . S
C894 C886 1.378 . S
C894 C889 1.350 . S
C895 H882 0.929 . S
C895 C887 1.433 . S
C895 N897 1.384 . S
N896 C892 1.427 . S
N896 C893 1.384 . S
N897 C889 1.427 . S
N897 C895 1.384 . S
H898 C904 0.930 . S
H899 C908 0.930 . S
H900 C913 0.929 . S
H901 C911 0.929 . S
H902 C906 0.929 . S
H903 C912 0.929 . S
C904 H898 0.930 . S
C904 C905 1.367 . S
C904 C912 1.378 . S
C905 C904 1.367 . S
C905 C913 1.433 . S
C906 H902 0.929 . S
C906 C908 1.378 . S
C906 C910 1.350 . S
C907 C910 1.463 . S
C907 C912 1.350 . S
C907 N915 1.427 . S
C908 H899 0.930 . S
C908 C906 1.378 . S
C908 C909 1.367 . S
C909 C908 1.367 . S
C909 C911 1.433 . S
C910 C906 1.350 . S
C910 C907 1.463 . S
C910 N914 1.427 . S
C911 H901 0.929 . S
C911 C909 1.433 . S
C911 N914 1.384 . S
C912 H903 0.929 . S
C912 C904 1.378 . S
C912 C907 1.350 . S
C913 H900 0.929 . S
C913 C905 1.433 . S
C913 N915 1.384 . S
N914 C910 1.427 . S
N914 C911 1.384 . S
N915 C907 1.427 . S
N915 C913 1.384 . S
H916 C922 0.930 . S
H917 C926 0.930 . S
H918 C931 0.929 . S
H919 C929 0.929 . S
H920 C924 0.929 . S
H921 C930 0.929 . S
C922 H916 0.930 . S
C922 C923 1.367 . S
C922 C930 1.378 . S
C923 C922 1.367 . S
C923 C931 1.433 . S
C924 H920 0.929 . S
C924 C926 1.378 . S
C924 C928 1.350 . S
C925 C928 1.463 . S
C925 C930 1.350 . S
C925 N933 1.427 . S
C926 H917 0.930 . S
C926 C924 1.378 . S
C926 C927 1.367 . S
C927 C926 1.367 . S
C927 C929 1.433 . S
C928 C924 1.350 . S
C928 C925 1.463 . S
C928 N932 1.427 . S
C929 H919 0.929 . S
C929 C927 1.433 . S
C929 N932 1.384 . S
C930 H921 0.929 . S
C930 C922 1.378 . S
C930 C925 1.350 . S
C931 H918 0.929 . S
C931 C923 1.433 . S
C931 N933 1.384 . S
N932 C928 1.427 . S
N932 C929 1.384 . S
N933 C925 1.427 . S
N933 C931 1.384 . S
H934 C940 0.930 . S
H935 C944 0.930 . S
H936 C949 0.929 . S
H937 C947 0.929 . S
H938 C942 0.929 . S
H939 C948 0.929 . S
C940 H934 0.930 . S
C940 C941 1.367 . S
C940 C948 1.378 . S
C941 C940 1.367 . S
C941 C949 1.433 . S
C942 H938 0.929 . S
C942 C944 1.378 . S
C942 C946 1.350 . S
C943 C946 1.463 . S
C943 C948 1.350 . S
C943 N951 1.427 . S
C944 H935 0.930 . S
C944 C942 1.378 . S
C944 C945 1.367 . S
C945 C944 1.367 . S
C945 C947 1.433 . S
C946 C942 1.350 . S
C946 C943 1.463 . S
C946 N950 1.427 . S
C947 H937 0.929 . S
C947 C945 1.433 . S
C947 N950 1.384 . S
C948 H939 0.929 . S
C948 C940 1.378 . S
C948 C943 1.350 . S
C949 H936 0.929 . S
C949 C941 1.433 . S
C949 N951 1.384 . S
N950 C946 1.427 . S
N950 C947 1.384 . S
N951 C943 1.427 . S
N951 C949 1.384 . S
H952 C958 0.930 . S
H953 C962 0.930 . S
H954 C967 0.929 . S
H955 C965 0.929 . S
H956 C960 0.929 . S
H957 C966 0.929 . S
C958 H952 0.930 . S
C958 C959 1.367 . S
C958 C966 1.378 . S
C959 C958 1.367 . S
C959 C967 1.433 . S
C960 H956 0.929 . S
C960 C962 1.378 . S
C960 C964 1.350 . S
C961 C964 1.463 . S
C961 C966 1.350 . S
C961 N969 1.427 . S
C962 H953 0.930 . S
C962 C960 1.378 . S
C962 C963 1.367 . S
C963 C962 1.367 . S
C963 C965 1.433 . S
C964 C960 1.350 . S
C964 C961 1.463 . S
C964 N968 1.427 . S
C965 H955 0.929 . S
C965 C963 1.433 . S
C965 N968 1.384 . S
C966 H957 0.929 . S
C966 C958 1.378 . S
C966 C961 1.350 . S
C967 H954 0.929 . S
C967 C959 1.433 . S
C967 N969 1.384 . S
N968 C964 1.427 . S
N968 C965 1.384 . S
N969 C961 1.427 . S
N969 C967 1.384 . S
H970 C976 0.930 . S
H971 C980 0.930 . S
H972 C985 0.929 . S
H973 C983 0.929 . S
H974 C978 0.929 . S
H975 C984 0.929 . S
C976 H970 0.930 . S
C976 C977 1.367 . S
C976 C984 1.378 . S
C977 C976 1.367 . S
C977 C985 1.433 . S
C978 H974 0.929 . S
C978 C980 1.378 . S
C978 C982 1.350 . S
C979 C982 1.463 . S
C979 C984 1.350 . S
C979 N987 1.427 . S
C980 H971 0.930 . S
C980 C978 1.378 . S
C980 C981 1.367 . S
C981 C980 1.367 . S
C981 C983 1.433 . S
C982 C978 1.350 . S
C982 C979 1.463 . S
C982 N986 1.427 . S
C983 H973 0.929 . S
C983 C981 1.433 . S
C983 N986 1.384 . S
C984 H975 0.929 . S
C984 C976 1.378 . S
C984 C979 1.350 . S
C985 H972 0.929 . S
C985 C977 1.433 . S
C985 N987 1.384 . S
N986 C982 1.427 . S
N986 C983 1.384 . S
N987 C979 1.427 . S
N987 C985 1.384 . S
H988 C994 0.930 . S
H989 C998 0.930 . S
H990 C1003 0.929 . S
H991 C1001 0.929 . S
H992 C996 0.929 . S
H993 C1002 0.929 . S
C994 H988 0.930 . S
C994 C995 1.367 . S
C994 C1002 1.378 . S
C995 C994 1.367 . S
C995 C1003 1.433 . S
C996 H992 0.929 . S
C996 C998 1.378 . S
C996 C1000 1.350 . S
C997 C1000 1.463 . S
C997 C1002 1.350 . S
C997 N1005 1.427 . S
C998 H989 0.930 . S
C998 C996 1.378 . S
C998 C999 1.367 . S
C999 C998 1.367 . S
C999 C1001 1.433 . S
C1000 C996 1.350 . S
C1000 C997 1.463 . S
C1000 N1004 1.427 . S
C1001 H991 0.929 . S
C1001 C999 1.433 . S
C1001 N1004 1.384 . S
C1002 H993 0.929 . S
C1002 C994 1.378 . S
C1002 C997 1.350 . S
C1003 H990 0.929 . S
C1003 C995 1.433 . S
C1003 N1005 1.384 . S
N1004 C1000 1.427 . S
N1004 C1001 1.384 . S
N1005 C997 1.427 . S
N1005 C1003 1.384 . S
H1006 C1012 0.930 . S
H1007 C1016 0.930 . S
H1008 C1021 0.929 . S
H1009 C1019 0.929 . S
H1010 C1014 0.929 . S
H1011 C1020 0.929 . S
C1012 H1006 0.930 . S
C1012 C1013 1.367 . S
C1012 C1020 1.378 . S
C1013 C1012 1.367 . S
C1013 C1021 1.433 . S
C1014 H1010 0.929 . S
C1014 C1016 1.378 . S
C1014 C1018 1.350 . S
C1015 C1018 1.463 . S
C1015 C1020 1.350 . S
C1015 N1023 1.427 . S
C1016 H1007 0.930 . S
C1016 C1014 1.378 . S
C1016 C1017 1.367 . S
C1017 C1016 1.367 . S
C1017 C1019 1.433 . S
C1018 C1014 1.350 . S
C1018 C1015 1.463 . S
C1018 N1022 1.427 . S
C1019 H1009 0.929 . S
C1019 C1017 1.433 . S
C1019 N1022 1.384 . S
C1020 H1011 0.929 . S
C1020 C1012 1.378 . S
C1020 C1015 1.350 . S
C1021 H1008 0.929 . S
C1021 C1013 1.433 . S
C1021 N1023 1.384 . S
N1022 C1018 1.427 . S
N1022 C1019 1.384 . S
N1023 C1015 1.427 . S
N1023 C1021 1.384 . S
H1024 C1030 0.930 . S
H1025 C1034 0.930 . S
H1026 C1039 0.929 . S
H1027 C1037 0.929 . S
H1028 C1032 0.929 . S
H1029 C1038 0.929 . S
C1030 H1024 0.930 . S
C1030 C1031 1.367 . S
C1030 C1038 1.378 . S
C1031 C1030 1.367 . S
C1031 C1039 1.433 . S
C1032 H1028 0.929 . S
C1032 C1034 1.378 . S
C1032 C1036 1.350 . S
C1033 C1036 1.463 . S
C1033 C1038 1.350 . S
C1033 N1041 1.427 . S
C1034 H1025 0.930 . S
C1034 C1032 1.378 . S
C1034 C1035 1.367 . S
C1035 C1034 1.367 . S
C1035 C1037 1.433 . S
C1036 C1032 1.350 . S
C1036 C1033 1.463 . S
C1036 N1040 1.427 . S
C1037 H1027 0.929 . S
C1037 C1035 1.433 . S
C1037 N1040 1.384 . S
C1038 H1029 0.929 . S
C1038 C1030 1.378 . S
C1038 C1033 1.350 . S
C1039 H1026 0.929 . S
C1039 C1031 1.433 . S
C1039 N1041 1.384 . S
N1040 C1036 1.427 . S
N1040 C1037 1.384 . S
N1041 C1033 1.427 . S
N1041 C1039 1.384 . S
H1042 C1048 0.930 . S
H1043 C1052 0.930 . S
H1044 C1057 0.929 . S
H1045 C1055 0.929 1_655 S
H1046 C1050 0.929 . S
H1047 C1056 0.929 . S
C1048 H1042 0.930 . S
C1048 C1049 1.367 . S
C1048 C1056 1.378 . S
C1049 C1048 1.367 . S
C1049 C1057 1.433 . S
C1050 H1046 0.929 . S
C1050 C1052 1.378 . S
C1050 C1054 1.350 . S
C1051 C1054 1.463 . S
C1051 C1056 1.350 . S
C1051 N1059 1.427 . S
C1052 H1043 0.930 . S
C1052 C1050 1.378 . S
C1052 C1053 1.367 . S
C1053 C1052 1.367 . S
C1053 C1055 1.433 . S
C1054 C1050 1.350 . S
C1054 C1051 1.463 . S
C1054 N1058 1.427 . S
C1055 H1045 0.929 1_455 S
C1055 C1053 1.433 . S
C1055 N1058 1.384 . S
C1056 H1047 0.929 . S
C1056 C1048 1.378 . S
C1056 C1051 1.350 . S
C1057 H1044 0.929 . S
C1057 C1049 1.433 . S
C1057 N1059 1.384 . S
N1058 C1054 1.427 . S
N1058 C1055 1.384 . S
N1059 C1051 1.427 . S
N1059 C1057 1.384 . S
H1060 C1066 0.930 . S
H1061 C1070 0.930 . S
H1062 C1075 0.929 . S
H1063 C1073 0.929 . S
H1064 C1068 0.929 . S
H1065 C1074 0.929 . S
C1066 H1060 0.930 . S
C1066 C1067 1.367 . S
C1066 C1074 1.378 . S
C1067 C1066 1.367 . S
C1067 C1075 1.433 . S
C1068 H1064 0.929 . S
C1068 C1070 1.378 . S
C1068 C1072 1.350 . S
C1069 C1072 1.463 . S
C1069 C1074 1.350 . S
C1069 N1077 1.427 . S
C1070 H1061 0.930 . S
C1070 C1068 1.378 . S
C1070 C1071 1.367 . S
C1071 C1070 1.367 . S
C1071 C1073 1.433 . S
C1072 C1068 1.350 . S
C1072 C1069 1.463 . S
C1072 N1076 1.427 . S
C1073 H1063 0.929 . S
C1073 C1071 1.433 . S
C1073 N1076 1.384 . S
C1074 H1065 0.929 . S
C1074 C1066 1.378 . S
C1074 C1069 1.350 . S
C1075 H1062 0.929 . S
C1075 C1067 1.433 . S
C1075 N1077 1.384 . S
N1076 C1072 1.427 . S
N1076 C1073 1.384 . S
N1077 C1069 1.427 . S
N1077 C1075 1.384 . S
H1078 C1084 0.930 . S
H1079 C1088 0.930 . S
H1080 C1093 0.929 . S
H1081 C1091 0.929 . S
H1082 C1086 0.929 . S
H1083 C1092 0.929 . S
C1084 H1078 0.930 . S
C1084 C1085 1.367 . S
C1084 C1092 1.378 . S
C1085 C1084 1.367 . S
C1085 C1093 1.433 . S
C1086 H1082 0.929 . S
C1086 C1088 1.378 . S
C1086 C1090 1.350 . S
C1087 C1090 1.463 . S
C1087 C1092 1.350 . S
C1087 N1095 1.427 . S
C1088 H1079 0.930 . S
C1088 C1086 1.378 . S
C1088 C1089 1.367 . S
C1089 C1088 1.367 . S
C1089 C1091 1.433 . S
C1090 C1086 1.350 . S
C1090 C1087 1.463 . S
C1090 N1094 1.427 . S
C1091 H1081 0.929 . S
C1091 C1089 1.433 . S
C1091 N1094 1.384 . S
C1092 H1083 0.929 . S
C1092 C1084 1.378 . S
C1092 C1087 1.350 . S
C1093 H1080 0.929 . S
C1093 C1085 1.433 . S
C1093 N1095 1.384 . S
N1094 C1090 1.427 . S
N1094 C1091 1.384 . S
N1095 C1087 1.427 . S
N1095 C1093 1.384 . S
H1096 C1102 0.930 . S
H1097 C1106 0.930 . S
H1098 C1111 0.929 . S
H1099 C1109 0.929 . S
H1100 C1104 0.929 . S
H1101 C1110 0.929 . S
C1102 H1096 0.930 . S
C1102 C1103 1.367 . S
C1102 C1110 1.378 . S
C1103 C1102 1.367 . S
C1103 C1111 1.433 . S
C1104 H1100 0.929 . S
C1104 C1106 1.378 . S
C1104 C1108 1.350 . S
C1105 C1108 1.463 . S
C1105 C1110 1.350 . S
C1105 N1113 1.427 . S
C1106 H1097 0.930 . S
C1106 C1104 1.378 . S
C1106 C1107 1.367 . S
C1107 C1106 1.367 . S
C1107 C1109 1.433 . S
C1108 C1104 1.350 . S
C1108 C1105 1.463 . S
C1108 N1112 1.427 . S
C1109 H1099 0.929 . S
C1109 C1107 1.433 . S
C1109 N1112 1.384 . S
C1110 H1101 0.929 . S
C1110 C1102 1.378 . S
C1110 C1105 1.350 . S
C1111 H1098 0.929 . S
C1111 C1103 1.433 . S
C1111 N1113 1.384 . S
N1112 C1108 1.427 . S
N1112 C1109 1.384 . S
N1113 C1105 1.427 . S
N1113 C1111 1.384 . S
H1114 C1120 0.930 . S
H1115 C1124 0.930 . S
H1116 C1129 0.929 . S
H1117 C1127 0.929 . S
H1118 C1122 0.929 . S
H1119 C1128 0.929 . S
C1120 H1114 0.930 . S
C1120 C1121 1.367 . S
C1120 C1128 1.378 . S
C1121 C1120 1.367 . S
C1121 C1129 1.433 . S
C1122 H1118 0.929 . S
C1122 C1124 1.378 . S
C1122 C1126 1.350 . S
C1123 C1126 1.463 . S
C1123 C1128 1.350 . S
C1123 N1131 1.427 . S
C1124 H1115 0.930 . S
C1124 C1122 1.378 . S
C1124 C1125 1.367 . S
C1125 C1124 1.367 . S
C1125 C1127 1.433 . S
C1126 C1122 1.350 . S
C1126 C1123 1.463 . S
C1126 N1130 1.427 . S
C1127 H1117 0.929 . S
C1127 C1125 1.433 . S
C1127 N1130 1.384 . S
C1128 H1119 0.929 . S
C1128 C1120 1.378 . S
C1128 C1123 1.350 . S
C1129 H1116 0.929 . S
C1129 C1121 1.433 . S
C1129 N1131 1.384 . S
N1130 C1126 1.427 . S
N1130 C1127 1.384 . S
N1131 C1123 1.427 . S
N1131 C1129 1.384 . S
H1132 C1138 0.930 . S
H1133 C1142 0.930 . S
H1134 C1147 0.929 . S
H1135 C1145 0.929 . S
H1136 C1140 0.929 . S
H1137 C1146 0.929 . S
C1138 H1132 0.930 . S
C1138 C1139 1.367 . S
C1138 C1146 1.378 . S
C1139 C1138 1.367 . S
C1139 C1147 1.433 . S
C1140 H1136 0.929 . S
C1140 C1142 1.378 . S
C1140 C1144 1.350 . S
C1141 C1144 1.463 . S
C1141 C1146 1.350 . S
C1141 N1149 1.427 . S
C1142 H1133 0.930 . S
C1142 C1140 1.378 . S
C1142 C1143 1.367 . S
C1143 C1142 1.367 . S
C1143 C1145 1.433 . S
C1144 C1140 1.350 . S
C1144 C1141 1.463 . S
C1144 N1148 1.427 . S
C1145 H1135 0.929 . S
C1145 C1143 1.433 . S
C1145 N1148 1.384 . S
C1146 H1137 0.929 . S
C1146 C1138 1.378 . S
C1146 C1141 1.350 . S
C1147 H1134 0.929 . S
C1147 C1139 1.433 . S
C1147 N1149 1.384 . S
N1148 C1144 1.427 . S
N1148 C1145 1.384 . S
N1149 C1141 1.427 . S
N1149 C1147 1.384 . S
H1150 C1156 0.930 . S
H1151 C1160 0.900 1_655 S
H1152 C1165 0.929 . S
H1153 C1163 0.929 . S
H1154 C1158 0.929 . S
H1155 C1164 0.929 . S
C1156 H1150 0.930 . S
C1156 C1157 1.367 . S
C1156 C1164 1.378 . S
C1157 C1156 1.367 . S
C1157 C1165 1.433 . S
C1158 H1154 0.929 . S
C1158 C1160 1.378 . S
C1158 C1162 1.350 . S
C1159 C1162 1.463 . S
C1159 C1164 1.350 . S
C1159 N1167 1.427 . S
C1160 H1151 0.900 1_455 S
C1160 C1158 1.378 . S
C1160 C1161 1.367 . S
C1161 C1160 1.367 . S
C1161 C1163 1.433 . S
C1162 C1158 1.350 . S
C1162 C1159 1.463 . S
C1162 N1166 1.427 . S
C1163 H1153 0.929 . S
C1163 C1161 1.433 . S
C1163 N1166 1.384 . S
C1164 H1155 0.929 . S
C1164 C1156 1.378 . S
C1164 C1159 1.350 . S
C1165 H1152 0.929 . S
C1165 C1157 1.433 . S
C1165 N1167 1.384 . S
N1166 C1162 1.427 . S
N1166 C1163 1.384 . S
N1167 C1159 1.427 . S
N1167 C1165 1.384 . S
H1168 C1174 0.930 . S
H1169 C1178 0.930 . S
H1170 C1183 0.929 . S
H1171 C1181 0.929 . S
H1172 C1176 0.929 . S
H1173 C1182 0.929 . S
C1174 H1168 0.930 . S
C1174 C1175 1.367 . S
C1174 C1182 1.378 . S
C1175 C1174 1.367 . S
C1175 C1183 1.433 . S
C1176 H1172 0.929 . S
C1176 C1178 1.378 . S
C1176 C1180 1.350 . S
C1177 C1180 1.463 . S
C1177 C1182 1.350 . S
C1177 N1185 1.427 . S
C1178 H1169 0.930 . S
C1178 C1176 1.378 . S
C1178 C1179 1.367 . S
C1179 C1178 1.367 . S
C1179 C1181 1.433 . S
C1180 C1176 1.350 . S
C1180 C1177 1.463 . S
C1180 N1184 1.427 . S
C1181 H1171 0.929 . S
C1181 C1179 1.433 . S
C1181 N1184 1.384 . S
C1182 H1173 0.929 . S
C1182 C1174 1.378 . S
C1182 C1177 1.350 . S
C1183 H1170 0.929 . S
C1183 C1175 1.433 . S
C1183 N1185 1.384 . S
N1184 C1180 1.427 . S
N1184 C1181 1.384 . S
N1185 C1177 1.427 . S
N1185 C1183 1.384 . S
H1186 C1192 0.930 . S
H1187 C1196 0.930 . S
H1188 C1201 0.929 . S
H1189 C1199 0.929 . S
H1190 C1194 0.929 . S
H1191 C1200 0.929 . S
C1192 H1186 0.930 . S
C1192 C1193 1.367 . S
C1192 C1200 1.378 . S
C1193 C1192 1.367 . S
C1193 C1201 1.433 . S
C1194 H1190 0.929 . S
C1194 C1196 1.378 . S
C1194 C1198 1.350 . S
C1195 C1198 1.463 . S
C1195 C1200 1.350 . S
C1195 N1203 1.427 . S
C1196 H1187 0.930 . S
C1196 C1194 1.378 . S
C1196 C1197 1.367 . S
C1197 C1196 1.367 . S
C1197 C1199 1.433 . S
C1198 C1194 1.350 . S
C1198 C1195 1.463 . S
C1198 N1202 1.427 . S
C1199 H1189 0.929 . S
C1199 C1197 1.433 . S
C1199 N1202 1.384 . S
C1200 H1191 0.929 . S
C1200 C1192 1.378 . S
C1200 C1195 1.350 . S
C1201 H1188 0.929 . S
C1201 C1193 1.433 . S
C1201 N1203 1.384 . S
N1202 C1198 1.427 . S
N1202 C1199 1.384 . S
N1203 C1195 1.427 . S
N1203 C1201 1.384 . S
H1204 C1210 0.930 . S
H1205 C1214 0.930 . S
H1206 C1219 0.929 . S
H1207 C1217 0.929 . S
H1208 C1212 0.929 . S
H1209 C1218 0.929 . S
C1210 H1204 0.930 . S
C1210 C1211 1.367 . S
C1210 C1218 1.378 . S
C1211 C1210 1.367 . S
C1211 C1219 1.433 . S
C1212 H1208 0.929 . S
C1212 C1214 1.378 . S
C1212 C1216 1.350 . S
C1213 C1216 1.463 . S
C1213 C1218 1.350 . S
C1213 N1221 1.427 . S
C1214 H1205 0.930 . S
C1214 C1212 1.378 . S
C1214 C1215 1.367 . S
C1215 C1214 1.367 . S
C1215 C1217 1.433 . S
C1216 C1212 1.350 . S
C1216 C1213 1.463 . S
C1216 N1220 1.427 . S
C1217 H1207 0.929 . S
C1217 C1215 1.433 . S
C1217 N1220 1.384 . S
C1218 H1209 0.929 . S
C1218 C1210 1.378 . S
C1218 C1213 1.350 . S
C1219 H1206 0.929 . S
C1219 C1211 1.433 . S
C1219 N1221 1.384 . S
N1220 C1216 1.427 . S
N1220 C1217 1.384 . S
N1221 C1213 1.427 . S
N1221 C1219 1.384 . S
H1222 C1228 0.930 . S
H1223 C1232 0.930 . S
H1224 C1237 0.929 . S
H1225 C1235 0.929 . S
H1226 C1230 0.929 . S
H1227 C1236 0.929 . S
C1228 H1222 0.930 . S
C1228 C1229 1.367 . S
C1228 C1236 1.378 . S
C1229 C1228 1.367 . S
C1229 C1237 1.433 . S
C1230 H1226 0.929 . S
C1230 C1232 1.378 . S
C1230 C1234 1.350 . S
C1231 C1234 1.463 . S
C1231 C1236 1.350 . S
C1231 N1239 1.427 . S
C1232 H1223 0.930 . S
C1232 C1230 1.378 . S
C1232 C1233 1.367 . S
C1233 C1232 1.367 . S
C1233 C1235 1.433 . S
C1234 C1230 1.350 . S
C1234 C1231 1.463 . S
C1234 N1238 1.427 . S
C1235 H1225 0.929 . S
C1235 C1233 1.433 . S
C1235 N1238 1.384 . S
C1236 H1227 0.929 . S
C1236 C1228 1.378 . S
C1236 C1231 1.350 . S
C1237 H1224 0.929 . S
C1237 C1229 1.433 . S
C1237 N1239 1.384 . S
N1238 C1234 1.427 . S
N1238 C1235 1.384 . S
N1239 C1231 1.427 . S
N1239 C1237 1.384 . S
H1240 C1246 0.930 . S
H1241 C1250 0.930 . S
H1242 C1255 0.929 . S
H1243 C1253 0.929 . S
H1244 C1248 0.929 . S
H1245 C1254 0.929 . S
C1246 H1240 0.930 . S
C1246 C1247 1.367 . S
C1246 C1254 1.378 . S
C1247 C1246 1.367 . S
C1247 C1255 1.433 . S
C1248 H1244 0.929 . S
C1248 C1250 1.378 . S
C1248 C1252 1.350 . S
C1249 C1252 1.463 . S
C1249 C1254 1.350 . S
C1249 N1257 1.427 . S
C1250 H1241 0.930 . S
C1250 C1248 1.378 . S
C1250 C1251 1.367 . S
C1251 C1250 1.367 . S
C1251 C1253 1.433 . S
C1252 C1248 1.350 . S
C1252 C1249 1.463 . S
C1252 N1256 1.427 . S
C1253 H1243 0.929 . S
C1253 C1251 1.433 . S
C1253 N1256 1.384 . S
C1254 H1245 0.929 . S
C1254 C1246 1.378 . S
C1254 C1249 1.350 . S
C1255 H1242 0.929 . S
C1255 C1247 1.433 . S
C1255 N1257 1.384 . S
N1256 C1252 1.427 . S
N1256 C1253 1.384 . S
N1257 C1249 1.427 . S
N1257 C1255 1.384 . S
H1258 C1264 0.930 . S
H1259 C1268 0.930 . S
H1260 C1273 0.929 . S
H1261 C1271 0.929 . S
H1262 C1266 0.929 . S
H1263 C1272 0.929 . S
C1264 H1258 0.930 . S
C1264 C1265 1.367 . S
C1264 C1272 1.378 . S
C1265 C1264 1.367 . S
C1265 C1273 1.433 . S
C1266 H1262 0.929 . S
C1266 C1268 1.378 . S
C1266 C1270 1.350 . S
C1267 C1270 1.463 . S
C1267 C1272 1.350 . S
C1267 N1275 1.427 . S
C1268 H1259 0.930 . S
C1268 C1266 1.378 . S
C1268 C1269 1.367 . S
C1269 C1268 1.367 . S
C1269 C1271 1.433 . S
C1270 C1266 1.350 . S
C1270 C1267 1.463 . S
C1270 N1274 1.427 . S
C1271 H1261 0.929 . S
C1271 C1269 1.433 . S
C1271 N1274 1.384 . S
C1272 H1263 0.929 . S
C1272 C1264 1.378 . S
C1272 C1267 1.350 . S
C1273 H1260 0.929 . S
C1273 C1265 1.433 . S
C1273 N1275 1.384 . S
N1274 C1270 1.427 . S
N1274 C1271 1.384 . S
N1275 C1267 1.427 . S
N1275 C1273 1.384 . S
H1276 C1282 0.930 . S
H1277 C1286 0.930 . S
H1278 C1291 0.929 . S
H1279 C1289 0.929 . S
H1280 C1284 0.929 . S
H1281 C1290 0.929 . S
C1282 H1276 0.930 . S
C1282 C1283 1.367 . S
C1282 C1290 1.378 . S
C1283 C1282 1.367 . S
C1283 C1291 1.433 . S
C1284 H1280 0.929 . S
C1284 C1286 1.378 . S
C1284 C1288 1.350 . S
C1285 C1288 1.463 . S
C1285 C1290 1.350 . S
C1285 N1293 1.427 . S
C1286 H1277 0.930 . S
C1286 C1284 1.378 . S
C1286 C1287 1.367 . S
C1287 C1286 1.367 . S
C1287 C1289 1.433 . S
C1288 C1284 1.350 . S
C1288 C1285 1.463 . S
C1288 N1292 1.427 . S
C1289 H1279 0.929 . S
C1289 C1287 1.433 . S
C1289 N1292 1.384 . S
C1290 H1281 0.929 . S
C1290 C1282 1.378 . S
C1290 C1285 1.350 . S
C1291 H1278 0.929 . S
C1291 C1283 1.433 . S
C1291 N1293 1.384 . S
N1292 C1288 1.427 . S
N1292 C1289 1.384 . S
N1293 C1285 1.427 . S
N1293 C1291 1.384 . S
H1294 C1300 0.930 . S
H1295 C1304 0.930 . S
H1296 C1309 0.929 . S
H1297 C1307 0.929 . S
H1298 C1302 0.929 . S
H1299 C1308 0.929 . S
C1300 H1294 0.930 . S
C1300 C1301 1.367 . S
C1300 C1308 1.378 . S
C1301 C1300 1.367 . S
C1301 C1309 1.433 . S
C1302 H1298 0.929 . S
C1302 C1304 1.378 . S
C1302 C1306 1.350 . S
C1303 C1306 1.463 . S
C1303 C1308 1.350 . S
C1303 N1311 1.427 . S
C1304 H1295 0.930 . S
C1304 C1302 1.378 . S
C1304 C1305 1.367 . S
C1305 C1304 1.367 . S
C1305 C1307 1.433 . S
C1306 C1302 1.350 . S
C1306 C1303 1.463 . S
C1306 N1310 1.427 . S
C1307 H1297 0.929 . S
C1307 C1305 1.433 . S
C1307 N1310 1.384 . S
C1308 H1299 0.929 . S
C1308 C1300 1.378 . S
C1308 C1303 1.350 . S
C1309 H1296 0.929 . S
C1309 C1301 1.433 . S
C1309 N1311 1.384 . S
N1310 C1306 1.427 . S
N1310 C1307 1.384 . S
N1311 C1303 1.427 . S
N1311 C1309 1.384 . S
H1312 C1318 0.930 . S
H1313 C1322 0.930 . S
H1314 C1327 0.929 . S
H1315 C1325 0.929 . S
H1316 C1320 0.929 . S
H1317 C1326 0.929 . S
C1318 H1312 0.930 . S
C1318 C1319 1.367 . S
C1318 C1326 1.378 . S
C1319 C1318 1.367 . S
C1319 C1327 1.433 . S
C1320 H1316 0.929 . S
C1320 C1322 1.378 . S
C1320 C1324 1.350 . S
C1321 C1324 1.463 . S
C1321 C1326 1.350 . S
C1321 N1329 1.427 . S
C1322 H1313 0.930 . S
C1322 C1320 1.378 . S
C1322 C1323 1.367 . S
C1323 C1322 1.367 . S
C1323 C1325 1.433 . S
C1324 C1320 1.350 . S
C1324 C1321 1.463 . S
C1324 N1328 1.427 . S
C1325 H1315 0.929 . S
C1325 C1323 1.433 . S
C1325 N1328 1.384 . S
C1326 H1317 0.929 . S
C1326 C1318 1.378 . S
C1326 C1321 1.350 . S
C1327 H1314 0.929 . S
C1327 C1319 1.433 . S
C1327 N1329 1.384 . S
N1328 C1324 1.427 . S
N1328 C1325 1.384 . S
N1329 C1321 1.427 . S
N1329 C1327 1.384 . S
H1330 C1336 0.930 . S
H1331 C1340 0.930 . S
H1332 C1345 0.929 . S
H1333 C1343 0.929 . S
H1334 C1338 0.929 . S
H1335 C1344 0.929 . S
C1336 H1330 0.930 . S
C1336 C1337 1.367 . S
C1336 C1344 1.378 . S
C1337 C1336 1.367 . S
C1337 C1345 1.433 . S
C1338 H1334 0.929 . S
C1338 C1340 1.378 . S
C1338 C1342 1.350 . S
C1339 C1342 1.463 . S
C1339 C1344 1.350 . S
C1339 N1347 1.427 . S
C1340 H1331 0.930 . S
C1340 C1338 1.378 . S
C1340 C1341 1.367 . S
C1341 C1340 1.367 . S
C1341 C1343 1.433 . S
C1342 C1338 1.350 . S
C1342 C1339 1.463 . S
C1342 N1346 1.427 . S
C1343 H1333 0.929 . S
C1343 C1341 1.433 . S
C1343 N1346 1.384 . S
C1344 H1335 0.929 . S
C1344 C1336 1.378 . S
C1344 C1339 1.350 . S
C1345 H1332 0.929 . S
C1345 C1337 1.433 . S
C1345 N1347 1.384 . S
N1346 C1342 1.427 . S
N1346 C1343 1.384 . S
N1347 C1339 1.427 . S
N1347 C1345 1.384 . S
H1348 C1354 0.930 . S
H1349 C1358 0.930 . S
H1350 C1363 0.929 . S
H1351 C1361 0.929 . S
H1352 C1356 0.929 . S
H1353 C1362 0.929 . S
C1354 H1348 0.930 . S
C1354 C1355 1.367 . S
C1354 C1362 1.378 . S
C1355 C1354 1.367 . S
C1355 C1363 1.433 . S
C1356 H1352 0.929 . S
C1356 C1358 1.378 . S
C1356 C1360 1.350 . S
C1357 C1360 1.463 . S
C1357 C1362 1.350 . S
C1357 N1365 1.427 . S
C1358 H1349 0.930 . S
C1358 C1356 1.378 . S
C1358 C1359 1.367 . S
C1359 C1358 1.367 . S
C1359 C1361 1.433 . S
C1360 C1356 1.350 . S
C1360 C1357 1.463 . S
C1360 N1364 1.427 . S
C1361 H1351 0.929 . S
C1361 C1359 1.433 . S
C1361 N1364 1.384 . S
C1362 H1353 0.929 . S
C1362 C1354 1.378 . S
C1362 C1357 1.350 . S
C1363 H1350 0.929 . S
C1363 C1355 1.433 . S
C1363 N1365 1.384 . S
N1364 C1360 1.427 . S
N1364 C1361 1.384 . S
N1365 C1357 1.427 . S
N1365 C1363 1.384 . S
H1366 C1372 0.930 . S
H1367 C1376 0.930 . S
H1368 C1381 0.929 . S
H1369 C1379 0.951 . S
H1370 C1374 0.929 . S
H1371 C1380 0.929 . S
C1372 H1366 0.930 . S
C1372 C1373 1.367 . S
C1372 C1380 1.378 . S
C1373 C1372 1.367 . S
C1373 C1381 1.433 . S
C1374 H1370 0.929 . S
C1374 C1376 1.378 . S
C1374 C1378 1.350 . S
C1375 C1378 1.463 . S
C1375 C1380 1.350 . S
C1375 N1383 1.427 . S
C1376 H1367 0.930 . S
C1376 C1374 1.378 . S
C1376 C1377 1.367 . S
C1377 C1376 1.367 . S
C1377 C1379 1.433 . S
C1378 C1374 1.350 . S
C1378 C1375 1.463 . S
C1378 N1382 1.427 . S
C1379 H1369 0.951 . S
C1379 C1377 1.433 . S
C1379 N1382 1.384 . S
C1380 H1371 0.929 . S
C1380 C1372 1.378 . S
C1380 C1375 1.350 . S
C1381 H1368 0.929 . S
C1381 C1373 1.433 . S
C1381 N1383 1.384 . S
N1382 C1378 1.427 . S
N1382 C1379 1.384 . S
N1383 C1375 1.427 . S
N1383 C1381 1.384 . S
H1384 C1390 0.930 . S
H1385 C1394 0.930 . S
H1386 C1399 0.929 . S
H1387 C1397 0.929 . S
H1388 C1392 0.929 . S
H1389 C1398 0.929 . S
C1390 H1384 0.930 . S
C1390 C1391 1.367 . S
C1390 C1398 1.378 . S
C1391 C1390 1.367 . S
C1391 C1399 1.433 . S
C1392 H1388 0.929 . S
C1392 C1394 1.378 . S
C1392 C1396 1.350 . S
C1393 C1396 1.463 . S
C1393 C1398 1.350 . S
C1393 N1401 1.427 . S
C1394 H1385 0.930 . S
C1394 C1392 1.378 . S
C1394 C1395 1.367 . S
C1395 C1394 1.367 . S
C1395 C1397 1.433 . S
C1396 C1392 1.350 . S
C1396 C1393 1.463 . S
C1396 N1400 1.427 . S
C1397 H1387 0.929 . S
C1397 C1395 1.433 . S
C1397 N1400 1.384 . S
C1398 H1389 0.929 . S
C1398 C1390 1.378 . S
C1398 C1393 1.350 . S
C1399 H1386 0.929 . S
C1399 C1391 1.433 . S
C1399 N1401 1.384 . S
N1400 C1396 1.427 . S
N1400 C1397 1.384 . S
N1401 C1393 1.427 . S
N1401 C1399 1.384 . S
H1402 C1408 0.930 . S
H1403 C1412 0.930 . S
H1404 C1417 0.929 . S
H1405 C1415 0.929 . S
H1406 C1410 0.929 . S
H1407 C1416 0.929 . S
C1408 H1402 0.930 . S
C1408 C1409 1.367 . S
C1408 C1416 1.378 . S
C1409 C1408 1.367 . S
C1409 C1417 1.433 . S
C1410 H1406 0.929 . S
C1410 C1412 1.378 . S
C1410 C1414 1.350 . S
C1411 C1414 1.463 . S
C1411 C1416 1.350 . S
C1411 N1419 1.427 . S
C1412 H1403 0.930 . S
C1412 C1410 1.378 . S
C1412 C1413 1.367 . S
C1413 C1412 1.367 . S
C1413 C1415 1.433 . S
C1414 C1410 1.350 . S
C1414 C1411 1.463 . S
C1414 N1418 1.427 . S
C1415 H1405 0.929 . S
C1415 C1413 1.433 . S
C1415 N1418 1.384 . S
C1416 H1407 0.929 . S
C1416 C1408 1.378 . S
C1416 C1411 1.350 . S
C1417 H1404 0.929 . S
C1417 C1409 1.433 . S
C1417 N1419 1.384 . S
N1418 C1414 1.427 . S
N1418 C1415 1.384 . S
N1419 C1411 1.427 . S
N1419 C1417 1.384 . S
H1420 C1426 0.930 . S
H1421 C1430 0.930 . S
H1422 C1435 0.929 . S
H1423 C1433 0.929 . S
H1424 C1428 0.929 . S
H1425 C1434 0.929 . S
C1426 H1420 0.930 . S
C1426 C1427 1.367 . S
C1426 C1434 1.378 . S
C1427 C1426 1.367 . S
C1427 C1435 1.433 . S
C1428 H1424 0.929 . S
C1428 C1430 1.378 . S
C1428 C1432 1.350 . S
C1429 C1432 1.463 . S
C1429 C1434 1.350 . S
C1429 N1437 1.427 . S
C1430 H1421 0.930 . S
C1430 C1428 1.378 . S
C1430 C1431 1.367 . S
C1431 C1430 1.367 . S
C1431 C1433 1.433 . S
C1432 C1428 1.350 . S
C1432 C1429 1.463 . S
C1432 N1436 1.427 . S
C1433 H1423 0.929 . S
C1433 C1431 1.433 . S
C1433 N1436 1.384 . S
C1434 H1425 0.929 . S
C1434 C1426 1.378 . S
C1434 C1429 1.350 . S
C1435 H1422 0.929 . S
C1435 C1427 1.433 . S
C1435 N1437 1.384 . S
N1436 C1432 1.427 . S
N1436 C1433 1.384 . S
N1437 C1429 1.427 . S
N1437 C1435 1.384 . S
H1438 C1444 0.930 . S
H1439 C1448 0.930 . S
H1440 C1453 0.929 . S
H1441 C1451 0.929 . S
H1442 C1446 0.929 . S
H1443 C1452 0.929 . S
C1444 H1438 0.930 . S
C1444 C1445 1.367 . S
C1444 C1452 1.378 . S
C1445 C1444 1.367 . S
C1445 C1453 1.433 . S
C1446 H1442 0.929 . S
C1446 C1448 1.378 . S
C1446 C1450 1.350 . S
C1447 C1450 1.463 . S
C1447 C1452 1.350 . S
C1447 N1455 1.427 . S
C1448 H1439 0.930 . S
C1448 C1446 1.378 . S
C1448 C1449 1.367 . S
C1449 C1448 1.367 . S
C1449 C1451 1.433 . S
C1450 C1446 1.350 . S
C1450 C1447 1.463 . S
C1450 N1454 1.427 . S
C1451 H1441 0.929 . S
C1451 C1449 1.433 . S
C1451 N1454 1.384 . S
C1452 H1443 0.929 . S
C1452 C1444 1.378 . S
C1452 C1447 1.350 . S
C1453 H1440 0.929 . S
C1453 C1445 1.433 . S
C1453 N1455 1.384 . S
N1454 C1450 1.427 . S
N1454 C1451 1.384 . S
N1455 C1447 1.427 . S
N1455 C1453 1.384 . S
H1456 C1462 0.930 . S
H1457 C1466 0.930 . S
H1458 C1471 0.929 . S
H1459 C1469 0.929 . S
H1460 C1464 0.929 . S
H1461 C1470 0.929 . S
C1462 H1456 0.930 . S
C1462 C1463 1.367 . S
C1462 C1470 1.378 . S
C1463 C1462 1.367 . S
C1463 C1471 1.433 . S
C1464 H1460 0.929 . S
C1464 C1466 1.378 . S
C1464 C1468 1.350 . S
C1465 C1468 1.463 . S
C1465 C1470 1.350 . S
C1465 N1473 1.427 . S
C1466 H1457 0.930 . S
C1466 C1464 1.378 . S
C1466 C1467 1.367 . S
C1467 C1466 1.367 . S
C1467 C1469 1.433 . S
C1468 C1464 1.350 . S
C1468 C1465 1.463 . S
C1468 N1472 1.427 . S
C1469 H1459 0.929 . S
C1469 C1467 1.433 . S
C1469 N1472 1.384 . S
C1470 H1461 0.929 . S
C1470 C1462 1.378 . S
C1470 C1465 1.350 . S
C1471 H1458 0.929 . S
C1471 C1463 1.433 . S
C1471 N1473 1.384 . S
N1472 C1468 1.427 . S
N1472 C1469 1.384 . S
N1473 C1465 1.427 . S
N1473 C1471 1.384 . S
H1474 C1480 0.930 . S
H1475 C1484 0.930 . S
H1476 C1489 0.929 . S
H1477 C1487 0.929 . S
H1478 C1482 0.929 . S
H1479 C1488 0.929 . S
C1480 H1474 0.930 . S
C1480 C1481 1.367 . S
C1480 C1488 1.378 . S
C1481 C1480 1.367 . S
C1481 C1489 1.433 . S
C1482 H1478 0.929 . S
C1482 C1484 1.378 . S
C1482 C1486 1.350 . S
C1483 C1486 1.463 . S
C1483 C1488 1.350 . S
C1483 N1491 1.427 . S
C1484 H1475 0.930 . S
C1484 C1482 1.378 . S
C1484 C1485 1.367 . S
C1485 C1484 1.367 . S
C1485 C1487 1.433 . S
C1486 C1482 1.350 . S
C1486 C1483 1.463 . S
C1486 N1490 1.427 . S
C1487 H1477 0.929 . S
C1487 C1485 1.433 . S
C1487 N1490 1.384 . S
C1488 H1479 0.929 . S
C1488 C1480 1.378 . S
C1488 C1483 1.350 . S
C1489 H1476 0.929 . S
C1489 C1481 1.433 . S
C1489 N1491 1.384 . S
N1490 C1486 1.427 . S
N1490 C1487 1.384 . S
N1491 C1483 1.427 . S
N1491 C1489 1.384 . S
H1492 C1498 0.930 . S
H1493 C1502 0.930 . S
H1494 C1507 0.929 . S
H1495 C1505 0.929 . S
H1496 C1500 0.929 . S
H1497 C1506 0.929 . S
C1498 H1492 0.930 . S
C1498 C1499 1.367 . S
C1498 C1506 1.378 . S
C1499 C1498 1.367 . S
C1499 C1507 1.433 . S
C1500 H1496 0.929 . S
C1500 C1502 1.378 . S
C1500 C1504 1.350 . S
C1501 C1504 1.463 . S
C1501 C1506 1.350 . S
C1501 N1509 1.427 . S
C1502 H1493 0.930 . S
C1502 C1500 1.378 . S
C1502 C1503 1.367 . S
C1503 C1502 1.367 . S
C1503 C1505 1.433 . S
C1504 C1500 1.350 . S
C1504 C1501 1.463 . S
C1504 N1508 1.427 . S
C1505 H1495 0.929 . S
C1505 C1503 1.433 . S
C1505 N1508 1.384 . S
C1506 H1497 0.929 . S
C1506 C1498 1.378 . S
C1506 C1501 1.350 . S
C1507 H1494 0.929 . S
C1507 C1499 1.433 . S
C1507 N1509 1.384 . S
N1508 C1504 1.427 . S
N1508 C1505 1.384 . S
N1509 C1501 1.427 . S
N1509 C1507 1.384 . S
H1510 C1516 0.930 1_655 S
H1511 C1520 0.930 . S
H1512 C1525 0.929 . S
H1513 C1523 0.929 . S
H1514 C1518 0.929 . S
H1515 C1524 0.929 . S
C1516 H1510 0.930 1_455 S
C1516 C1517 1.367 . S
C1516 C1524 1.378 . S
C1517 C1516 1.367 . S
C1517 C1525 1.433 . S
C1518 H1514 0.929 . S
C1518 C1520 1.378 . S
C1518 C1522 1.350 . S
C1519 C1522 1.463 . S
C1519 C1524 1.350 . S
C1519 N1527 1.427 . S
C1520 H1511 0.930 . S
C1520 C1518 1.378 . S
C1520 C1521 1.367 . S
C1521 C1520 1.367 . S
C1521 C1523 1.433 . S
C1522 C1518 1.350 . S
C1522 C1519 1.463 . S
C1522 N1526 1.427 . S
C1523 H1513 0.929 . S
C1523 C1521 1.433 . S
C1523 N1526 1.384 . S
C1524 H1515 0.929 . S
C1524 C1516 1.378 . S
C1524 C1519 1.350 . S
C1525 H1512 0.929 . S
C1525 C1517 1.433 . S
C1525 N1527 1.384 . S
N1526 C1522 1.427 . S
N1526 C1523 1.384 . S
N1527 C1519 1.427 . S
N1527 C1525 1.384 . S
H1528 C1534 0.930 . S
H1529 C1538 0.930 . S
H1530 C1543 0.929 . S
H1531 C1541 0.929 . S
H1532 C1536 0.929 . S
H1533 C1542 0.929 . S
C1534 H1528 0.930 . S
C1534 C1535 1.367 . S
C1534 C1542 1.378 . S
C1535 C1534 1.367 . S
C1535 C1543 1.433 . S
C1536 H1532 0.929 . S
C1536 C1538 1.378 . S
C1536 C1540 1.350 . S
C1537 C1540 1.463 . S
C1537 C1542 1.350 . S
C1537 N1545 1.427 . S
C1538 H1529 0.930 . S
C1538 C1536 1.378 . S
C1538 C1539 1.367 . S
C1539 C1538 1.367 . S
C1539 C1541 1.433 . S
C1540 C1536 1.350 . S
C1540 C1537 1.463 . S
C1540 N1544 1.427 . S
C1541 H1531 0.929 . S
C1541 C1539 1.433 . S
C1541 N1544 1.384 . S
C1542 H1533 0.929 . S
C1542 C1534 1.378 . S
C1542 C1537 1.350 . S
C1543 H1530 0.929 . S
C1543 C1535 1.433 . S
C1543 N1545 1.384 . S
N1544 C1540 1.427 . S
N1544 C1541 1.384 . S
N1545 C1537 1.427 . S
N1545 C1543 1.384 . S
H1546 C1552 0.930 . S
H1547 C1556 0.930 . S
H1548 C1561 0.929 . S
H1549 C1559 0.929 . S
H1550 C1554 0.929 . S
H1551 C1560 0.929 . S
C1552 H1546 0.930 . S
C1552 C1553 1.367 . S
C1552 C1560 1.378 . S
C1553 C1552 1.367 . S
C1553 C1561 1.433 . S
C1554 H1550 0.929 . S
C1554 C1556 1.378 . S
C1554 C1558 1.350 . S
C1555 C1558 1.463 . S
C1555 C1560 1.350 . S
C1555 N1563 1.427 . S
C1556 H1547 0.930 . S
C1556 C1554 1.378 . S
C1556 C1557 1.367 . S
C1557 C1556 1.367 . S
C1557 C1559 1.433 . S
C1558 C1554 1.350 . S
C1558 C1555 1.463 . S
C1558 N1562 1.427 . S
C1559 H1549 0.929 . S
C1559 C1557 1.433 . S
C1559 N1562 1.384 . S
C1560 H1551 0.929 . S
C1560 C1552 1.378 . S
C1560 C1555 1.350 . S
C1561 H1548 0.929 . S
C1561 C1553 1.433 . S
C1561 N1563 1.384 . S
N1562 C1558 1.427 . S
N1562 C1559 1.384 . S
N1563 C1555 1.427 . S
N1563 C1561 1.384 . S
H1564 C1570 0.930 . S
H1565 C1574 0.930 . S
H1566 C1579 0.929 . S
H1567 C1577 0.929 . S
H1568 C1572 0.929 . S
H1569 C1578 0.929 . S
C1570 H1564 0.930 . S
C1570 C1571 1.367 . S
C1570 C1578 1.378 . S
C1571 C1570 1.367 . S
C1571 C1579 1.433 . S
C1572 H1568 0.929 . S
C1572 C1574 1.378 . S
C1572 C1576 1.350 . S
C1573 C1576 1.463 . S
C1573 C1578 1.350 . S
C1573 N1581 1.427 . S
C1574 H1565 0.930 . S
C1574 C1572 1.378 . S
C1574 C1575 1.367 . S
C1575 C1574 1.367 . S
C1575 C1577 1.433 . S
C1576 C1572 1.350 . S
C1576 C1573 1.463 . S
C1576 N1580 1.427 . S
C1577 H1567 0.929 . S
C1577 C1575 1.433 . S
C1577 N1580 1.384 . S
C1578 H1569 0.929 . S
C1578 C1570 1.378 . S
C1578 C1573 1.350 . S
C1579 H1566 0.929 . S
C1579 C1571 1.433 . S
C1579 N1581 1.384 . S
N1580 C1576 1.427 . S
N1580 C1577 1.384 . S
N1581 C1573 1.427 . S
N1581 C1579 1.384 . S
H1582 C1588 0.930 . S
H1583 C1592 0.930 . S
H1584 C1597 0.929 . S
H1585 C1595 0.929 . S
H1586 C1590 0.929 . S
H1587 C1596 0.929 . S
C1588 H1582 0.930 . S
C1588 C1589 1.367 . S
C1588 C1596 1.378 . S
C1589 C1588 1.367 . S
C1589 C1597 1.433 . S
C1590 H1586 0.929 . S
C1590 C1592 1.378 . S
C1590 C1594 1.350 . S
C1591 C1594 1.463 . S
C1591 C1596 1.350 . S
C1591 N1599 1.427 . S
C1592 H1583 0.930 . S
C1592 C1590 1.378 . S
C1592 C1593 1.367 . S
C1593 C1592 1.367 . S
C1593 C1595 1.433 . S
C1594 C1590 1.350 . S
C1594 C1591 1.463 . S
C1594 N1598 1.427 . S
C1595 H1585 0.929 . S
C1595 C1593 1.433 . S
C1595 N1598 1.384 . S
C1596 H1587 0.929 . S
C1596 C1588 1.378 . S
C1596 C1591 1.350 . S
C1597 H1584 0.929 . S
C1597 C1589 1.433 . S
C1597 N1599 1.384 . S
N1598 C1594 1.427 . S
N1598 C1595 1.384 . S
N1599 C1591 1.427 . S
N1599 C1597 1.384 . S
C455 C62 1.523 . S
C459 C6 1.517 . S
C473 C76 1.527 . S
C477 C20 1.532 . S
C491 C90 1.517 . S
C495 C34 1.522 . S
C509 C48 1.522 . S
C513 C104 1.531 . S
C527 C118 1.519 . S
C531 C174 1.529 . S
C545 C188 1.517 . S
C549 C132 1.523 . S
C563 C146 1.518 . S
C567 C202 1.520 . S
C581 C216 1.517 . S
C585 C160 1.525 . S
C599 C230 1.532 . S
C603 C286 1.527 . S
C617 C300 1.524 . S
C621 C244 1.517 . S
C635 C314 1.517 . S
C639 C258 1.521 . S
C653 C328 1.519 . S
C657 C272 1.518 . S
C671 C342 1.525 . S
C675 C398 1.517 . S
C689 C356 1.532 . S
C693 C412 1.524 . S
C707 C370 1.526 . S
C711 C426 1.532 . S
C725 C384 1.517 . S
C729 C440 1.524 . S
C743 C8 1.745 1_565 S
C747 C106 1.746 . S
C761 C22 1.745 . S
C765 C64 1.746 1_545 S
C779 C36 1.747 1_545 S
C783 C78 1.745 . S
C797 C92 1.748 1_565 S
C801 C50 1.750 . S
C815 C218 1.751 . S
C819 C120 1.749 1_545 S
C833 C176 1.748 1_565 S
C837 C134 1.751 . S
C851 C190 1.746 . S
C855 C148 1.745 1_565 S
C869 C162 1.752 . S
C873 C204 1.751 1_545 S
C887 C330 1.746 . S
C891 C232 1.745 . S
C905 C288 1.746 . S
C909 C246 1.745 . S
C923 C302 1.751 . S
C927 C260 1.749 . S
C941 C274 1.751 . S
C945 C316 1.752 . S
C959 C344 1.747 . S
C963 C442 1.745 . S
C977 C358 1.748 . S
C981 C400 1.746 . S
C995 C372 1.746 . S
C999 C414 1.745 . S
C1013 C428 1.747 . S
C1017 C386 1.750 . S
C1031 C9 1.425 . S
C1035 C357 1.426 . S
C1049 C23 1.422 . S
C1053 C147 1.424 1_455 S
C1067 C37 1.424 . S
C1071 C385 1.415 . S
C1085 C119 1.425 . S
C1089 C51 1.431 . S
C1103 C441 1.418 . S
C1107 C65 1.420 . S
C1121 C79 1.421 . S
C1125 C175 1.416 . S
C1139 C93 1.421 . S
C1143 C413 1.422 . S
C1157 C107 1.430 . S
C1161 C203 1.421 1_455 S
C1175 C245 1.420 . S
C1179 C121 1.429 . S
C1193 C35 1.416 1_655 S
C1197 C135 1.420 . S
C1211 C273 1.427 . S
C1215 C149 1.429 . S
C1229 C163 1.431 . S
C1233 C7 1.423 . S
C1247 C329 1.427 . S
C1251 C177 1.427 . S
C1265 C63 1.418 . S
C1269 C191 1.420 . S
C1283 C301 1.418 . S
C1287 C205 1.428 . S
C1301 C91 1.424 1_655 S
C1305 C219 1.431 . S
C1319 C133 1.415 . S
C1323 C233 1.425 . S
C1337 C247 1.422 . S
C1341 C371 1.424 . S
C1355 C261 1.424 . S
C1359 C161 1.415 . S
C1373 C275 1.420 . S
C1377 C343 1.420 1_655 S
C1391 C289 1.424 . S
C1395 C217 1.415 . S
C1409 C399 1.427 1_655 S
C1413 C303 1.429 . S
C1427 C317 1.430 . S
C1431 C189 1.422 . S
C1445 C331 1.427 . S
C1449 C427 1.427 . S
C1463 C345 1.421 . S
C1467 C21 1.415 . S
C1481 C359 1.427 . S
C1485 C259 1.427 . S
C1499 C49 1.426 . S
C1503 C373 1.424 . S
C1517 C231 1.416 1_455 S
C1521 C387 1.426 . S
C1535 C401 1.421 . S
C1539 C105 1.423 . S
C1553 C415 1.430 . S
C1557 C287 1.426 1_455 S
C1571 C77 1.416 . S
C1575 C429 1.426 . S
C1589 C315 1.417 . S
C1593 C443 1.420 . S
