# Generated by pormake.
# Topology vbb, (4)-cn, num edge types: 1
# Building blocks:
#     Node 0, Type 0, BuildingBlock: ESEHIV_clean_sbu_0, # of connection points: 4
#     Node 1, Type 0, BuildingBlock: ESEHIV_clean_sbu_0, # of connection points: 4
#     Node 2, Type 0, BuildingBlock: ESEHIV_clean_sbu_0, # of connection points: 4
#     Node 3, Type 0, BuildingBlock: ESEHIV_clean_sbu_0, # of connection points: 4
#     Node 4, Type 0, BuildingBlock: ESEHIV_clean_sbu_0, # of connection points: 4
#     Node 5, Type 0, BuildingBlock: ESEHIV_clean_sbu_0, # of connection points: 4
#     Node 6, Type 0, BuildingBlock: ESEHIV_clean_sbu_0, # of connection points: 4
#     Node 7, Type 0, BuildingBlock: ESEHIV_clean_sbu_0, # of connection points: 4
#     Node 8, Type 0, BuildingBlock: ESEHIV_clean_sbu_0, # of connection points: 4
#     Node 9, Type 0, BuildingBlock: ESEHIV_clean_sbu_0, # of connection points: 4
#     Node 10, Type 0, BuildingBlock: ESEHIV_clean_sbu_0, # of connection points: 4
#     Node 11, Type 0, BuildingBlock: ESEHIV_clean_sbu_0, # of connection points: 4
#     Node 12, Type 0, BuildingBlock: ESEHIV_clean_sbu_0, # of connection points: 4
#     Node 13, Type 0, BuildingBlock: ESEHIV_clean_sbu_0, # of connection points: 4
#     Node 14, Type 0, BuildingBlock: ESEHIV_clean_sbu_0, # of connection points: 4
#     Node 15, Type 0, BuildingBlock: ESEHIV_clean_sbu_0, # of connection points: 4
#     Node 16, Type 0, BuildingBlock: ESEHIV_clean_sbu_0, # of connection points: 4
#     Node 17, Type 0, BuildingBlock: ESEHIV_clean_sbu_0, # of connection points: 4
#     Node 18, Type 0, BuildingBlock: ESEHIV_clean_sbu_0, # of connection points: 4
#     Node 19, Type 0, BuildingBlock: ESEHIV_clean_sbu_0, # of connection points: 4
#     Node 20, Type 0, BuildingBlock: ESEHIV_clean_sbu_0, # of connection points: 4
#     Node 21, Type 0, BuildingBlock: ESEHIV_clean_sbu_0, # of connection points: 4
#     Node 22, Type 0, BuildingBlock: ESEHIV_clean_sbu_0, # of connection points: 4
#     Node 23, Type 0, BuildingBlock: ESEHIV_clean_sbu_0, # of connection points: 4
#     Node 24, Type 0, BuildingBlock: ESEHIV_clean_sbu_0, # of connection points: 4
#     Node 25, Type 0, BuildingBlock: ESEHIV_clean_sbu_0, # of connection points: 4
#     Node 26, Type 0, BuildingBlock: ESEHIV_clean_sbu_0, # of connection points: 4
#     Node 27, Type 0, BuildingBlock: ESEHIV_clean_sbu_0, # of connection points: 4
#     Node 28, Type 0, BuildingBlock: ESEHIV_clean_sbu_0, # of connection points: 4
#     Node 29, Type 0, BuildingBlock: ESEHIV_clean_sbu_0, # of connection points: 4
#     Node 30, Type 0, BuildingBlock: ESEHIV_clean_sbu_0, # of connection points: 4
#     Node 31, Type 0, BuildingBlock: ESEHIV_clean_sbu_0, # of connection points: 4
#     Edge 32, Type (0, 0), BuildingBlock: TEMPAE_clean_linker_10, # of connection points: 2
#     Edge 33, Type (0, 0), BuildingBlock: TEMPAE_clean_linker_10, # of connection points: 2
#     Edge 34, Type (0, 0), BuildingBlock: TEMPAE_clean_linker_10, # of connection points: 2
#     Edge 35, Type (0, 0), BuildingBlock: TEMPAE_clean_linker_10, # of connection points: 2
#     Edge 36, Type (0, 0), BuildingBlock: TEMPAE_clean_linker_10, # of connection points: 2
#     Edge 37, Type (0, 0), BuildingBlock: TEMPAE_clean_linker_10, # of connection points: 2
#     Edge 38, Type (0, 0), BuildingBlock: TEMPAE_clean_linker_10, # of connection points: 2
#     Edge 39, Type (0, 0), BuildingBlock: TEMPAE_clean_linker_10, # of connection points: 2
#     Edge 40, Type (0, 0), BuildingBlock: TEMPAE_clean_linker_10, # of connection points: 2
#     Edge 41, Type (0, 0), BuildingBlock: TEMPAE_clean_linker_10, # of connection points: 2
#     Edge 42, Type (0, 0), BuildingBlock: TEMPAE_clean_linker_10, # of connection points: 2
#     Edge 43, Type (0, 0), BuildingBlock: TEMPAE_clean_linker_10, # of connection points: 2
#     Edge 44, Type (0, 0), BuildingBlock: TEMPAE_clean_linker_10, # of connection points: 2
#     Edge 45, Type (0, 0), BuildingBlock: TEMPAE_clean_linker_10, # of connection points: 2
#     Edge 46, Type (0, 0), BuildingBlock: TEMPAE_clean_linker_10, # of connection points: 2
#     Edge 47, Type (0, 0), BuildingBlock: TEMPAE_clean_linker_10, # of connection points: 2
#     Edge 48, Type (0, 0), BuildingBlock: TEMPAE_clean_linker_10, # of connection points: 2
#     Edge 49, Type (0, 0), BuildingBlock: TEMPAE_clean_linker_10, # of connection points: 2
#     Edge 50, Type (0, 0), BuildingBlock: TEMPAE_clean_linker_10, # of connection points: 2
#     Edge 51, Type (0, 0), BuildingBlock: TEMPAE_clean_linker_10, # of connection points: 2
#     Edge 52, Type (0, 0), BuildingBlock: TEMPAE_clean_linker_10, # of connection points: 2
#     Edge 53, Type (0, 0), BuildingBlock: TEMPAE_clean_linker_10, # of connection points: 2
#     Edge 54, Type (0, 0), BuildingBlock: TEMPAE_clean_linker_10, # of connection points: 2
#     Edge 55, Type (0, 0), BuildingBlock: TEMPAE_clean_linker_10, # of connection points: 2
#     Edge 56, Type (0, 0), BuildingBlock: TEMPAE_clean_linker_10, # of connection points: 2
#     Edge 57, Type (0, 0), BuildingBlock: TEMPAE_clean_linker_10, # of connection points: 2
#     Edge 58, Type (0, 0), BuildingBlock: TEMPAE_clean_linker_10, # of connection points: 2
#     Edge 59, Type (0, 0), BuildingBlock: TEMPAE_clean_linker_10, # of connection points: 2
#     Edge 60, Type (0, 0), BuildingBlock: TEMPAE_clean_linker_10, # of connection points: 2
#     Edge 61, Type (0, 0), BuildingBlock: TEMPAE_clean_linker_10, # of connection points: 2
#     Edge 62, Type (0, 0), BuildingBlock: TEMPAE_clean_linker_10, # of connection points: 2
#     Edge 63, Type (0, 0), BuildingBlock: TEMPAE_clean_linker_10, # of connection points: 2
#     Edge 64, Type (0, 0), BuildingBlock: TEMPAE_clean_linker_10, # of connection points: 2
#     Edge 65, Type (0, 0), BuildingBlock: TEMPAE_clean_linker_10, # of connection points: 2
#     Edge 66, Type (0, 0), BuildingBlock: TEMPAE_clean_linker_10, # of connection points: 2
#     Edge 67, Type (0, 0), BuildingBlock: TEMPAE_clean_linker_10, # of connection points: 2
#     Edge 68, Type (0, 0), BuildingBlock: TEMPAE_clean_linker_10, # of connection points: 2
#     Edge 69, Type (0, 0), BuildingBlock: TEMPAE_clean_linker_10, # of connection points: 2
#     Edge 70, Type (0, 0), BuildingBlock: TEMPAE_clean_linker_10, # of connection points: 2
#     Edge 71, Type (0, 0), BuildingBlock: TEMPAE_clean_linker_10, # of connection points: 2
#     Edge 72, Type (0, 0), BuildingBlock: TEMPAE_clean_linker_10, # of connection points: 2
#     Edge 73, Type (0, 0), BuildingBlock: TEMPAE_clean_linker_10, # of connection points: 2
#     Edge 74, Type (0, 0), BuildingBlock: TEMPAE_clean_linker_10, # of connection points: 2
#     Edge 75, Type (0, 0), BuildingBlock: TEMPAE_clean_linker_10, # of connection points: 2
#     Edge 76, Type (0, 0), BuildingBlock: TEMPAE_clean_linker_10, # of connection points: 2
#     Edge 77, Type (0, 0), BuildingBlock: TEMPAE_clean_linker_10, # of connection points: 2
#     Edge 78, Type (0, 0), BuildingBlock: TEMPAE_clean_linker_10, # of connection points: 2
#     Edge 79, Type (0, 0), BuildingBlock: TEMPAE_clean_linker_10, # of connection points: 2
#     Edge 80, Type (0, 0), BuildingBlock: TEMPAE_clean_linker_10, # of connection points: 2
#     Edge 81, Type (0, 0), BuildingBlock: TEMPAE_clean_linker_10, # of connection points: 2
#     Edge 82, Type (0, 0), BuildingBlock: TEMPAE_clean_linker_10, # of connection points: 2
#     Edge 83, Type (0, 0), BuildingBlock: TEMPAE_clean_linker_10, # of connection points: 2
#     Edge 84, Type (0, 0), BuildingBlock: TEMPAE_clean_linker_10, # of connection points: 2
#     Edge 85, Type (0, 0), BuildingBlock: TEMPAE_clean_linker_10, # of connection points: 2
#     Edge 86, Type (0, 0), BuildingBlock: TEMPAE_clean_linker_10, # of connection points: 2
#     Edge 87, Type (0, 0), BuildingBlock: TEMPAE_clean_linker_10, # of connection points: 2
#     Edge 88, Type (0, 0), BuildingBlock: TEMPAE_clean_linker_10, # of connection points: 2
#     Edge 89, Type (0, 0), BuildingBlock: TEMPAE_clean_linker_10, # of connection points: 2
#     Edge 90, Type (0, 0), BuildingBlock: TEMPAE_clean_linker_10, # of connection points: 2
#     Edge 91, Type (0, 0), BuildingBlock: TEMPAE_clean_linker_10, # of connection points: 2
#     Edge 92, Type (0, 0), BuildingBlock: TEMPAE_clean_linker_10, # of connection points: 2
#     Edge 93, Type (0, 0), BuildingBlock: TEMPAE_clean_linker_10, # of connection points: 2
#     Edge 94, Type (0, 0), BuildingBlock: TEMPAE_clean_linker_10, # of connection points: 2
#     Edge 95, Type (0, 0), BuildingBlock: TEMPAE_clean_linker_10, # of connection points: 2
# Relax obj value: 0.029
# Max RMSD: 0.075
# Mean RMSD: 0.075
data_MOF--net-vbb--node1-ESEHIV_clean_sbu_0--edge1-TEMPAE_clean_linker_10
_symmetry_space_group_name_H-M    P1
_symmetry_Int_Tables_number       1
_symmetry_cell_setting            triclinic
loop_
_symmetry_equiv_pos_as_xyz
'x, y, z'
_cell_length_a     59.191148
_cell_length_b     35.856037
_cell_length_c     110.27206
_cell_angle_alpha  89.838818
_cell_angle_beta   90.046063
_cell_angle_gamma 90.045727
loop_
_atom_site_label
_atom_site_type_symbol
_atom_site_fract_x
_atom_site_fract_y
_atom_site_fract_z
_atom_type_partial_charge
Cu0 Cu 0.52262 0.02618 0.09031 0.0
N1 N 0.55323 0.02279 0.09406 0.0
N2 N 0.58823 0.04436 0.09692 0.0
C3 C 0.56596 0.05146 0.098 0.0
C4 C 0.5896 0.00979 0.09217 0.0
C5 C 0.56794 0.99649 0.09044 0.0
O6 O 0.51183 0.06861 0.09985 0.0
C7 C 0.50552 0.03685 0.06563 0.0
O8 O 0.48584 0.04642 0.07015 0.0
H9 H 0.55906 0.07831 0.10052 0.0
H10 H 0.56325 0.9708 0.08597 0.0
N11 N 0.5073 0.98247 0.09464 0.0
N12 N 0.47887 0.94186 0.09691 0.0
C13 C 0.48618 0.97306 0.09125 0.0
C14 C 0.51379 0.956 0.10257 0.0
C15 C 0.49629 0.93092 0.104 0.0
C16 C 0.49647 0.06572 0.10792 0.0
O17 O 0.48376 0.03574 0.10815 0.0
H18 H 0.47588 0.99013 0.08533 0.0
H19 H 0.52984 0.95568 0.10727 0.0
O20 O 0.52202 0.03033 0.07271 0.0
H21 H 0.6051 0.99603 0.08953 0.0
H22 H 0.49628 0.90693 0.10997 0.0
Cu23 Cu 0.77669 0.25203 0.09201 0.0
N24 N 0.74661 0.25489 0.09708 0.0
N25 N 0.71137 0.23507 0.10029 0.0
C26 C 0.73067 0.22974 0.0941 0.0
C27 C 0.71507 0.26496 0.1074 0.0
C28 C 0.73694 0.27721 0.1054 0.0
O29 O 0.79192 0.21661 0.10274 0.0
C30 C 0.79231 0.24294 0.06749 0.0
O31 O 0.81276 0.24773 0.07184 0.0
H32 H 0.73353 0.20668 0.08798 0.0
H33 H 0.74554 0.29942 0.11015 0.0
N34 N 0.7918 0.29735 0.09382 0.0
N35 N 0.82085 0.33702 0.09532 0.0
C36 C 0.81434 0.30094 0.09494 0.0
C37 C 0.78364 0.33234 0.09351 0.0
C38 C 0.80154 0.35691 0.0945 0.0
C39 C 0.78306 0.18602 0.10621 0.0
O40 O 0.76497 0.17367 0.10062 0.0
H41 H 0.82574 0.27738 0.09536 0.0
H42 H 0.76601 0.33946 0.09238 0.0
O43 O 0.77567 0.24069 0.07475 0.0
H44 H 0.70335 0.2756 0.11408 0.0
H45 H 0.80046 0.38703 0.09422 0.0
Cu46 Cu 0.53082 0.25732 0.20219 0.0
N47 N 0.56126 0.25856 0.1978 0.0
N48 N 0.59673 0.23848 0.19586 0.0
C49 C 0.57636 0.2322 0.20089 0.0
C50 C 0.59457 0.27031 0.18944 0.0
C51 C 0.57252 0.28252 0.19056 0.0
O52 O 0.51539 0.22441 0.19083 0.0
C53 C 0.51205 0.24137 0.22569 0.0
O54 O 0.4922 0.243 0.22039 0.0
H55 H 0.57241 0.20851 0.20662 0.0
H56 H 0.5651 0.3065 0.18613 0.0
N57 N 0.5173 0.30404 0.20073 0.0
N58 N 0.48968 0.34634 0.19994 0.0
C59 C 0.49486 0.30975 0.20029 0.0
C60 C 0.52671 0.33823 0.20069 0.0
C61 C 0.50966 0.36445 0.20011 0.0
C62 C 0.52241 0.192 0.18805 0.0
O63 O 0.53879 0.17696 0.19444 0.0
H64 H 0.48255 0.28741 0.20034 0.0
H65 H 0.54462 0.34376 0.20137 0.0
O66 O 0.52986 0.24373 0.21928 0.0
H67 H 0.6077 0.28293 0.18396 0.0
H68 H 0.51175 0.39445 0.20025 0.0
Cu69 Cu 0.7945 0.05426 0.21215 0.0
N70 N 0.76333 0.04858 0.21096 0.0
N71 N 0.72751 0.06668 0.20868 0.0
C72 C 0.74916 0.07245 0.20536 0.0
C73 C 0.72805 0.03798 0.21662 0.0
C74 C 0.7502 0.02692 0.21802 0.0
O75 O 0.80345 0.08627 0.19855 0.0
C76 C 0.81559 0.06862 0.23542 0.0
O77 O 0.83403 0.0539 0.23091 0.0
H78 H 0.75481 0.09576 0.19988 0.0
H79 H 0.75646 1.00661 0.22446 0.0
N80 N 0.80879 1.00777 0.211 0.0
N81 N 0.83592 0.96501 0.20887 0.0
C82 C 0.83118 1.00159 0.21012 0.0
C83 C 0.79906 0.97392 0.21014 0.0
C84 C 0.81577 0.94746 0.20881 0.0
C85 C 0.80703 0.07087 0.1883 0.0
O86 O 0.80624 0.03436 0.18753 0.0
H87 H 0.84371 0.02357 0.21005 0.0
H88 H 0.78107 0.96881 0.21027 0.0
O89 O 0.79874 0.07443 0.22847 0.0
H90 H 0.71365 0.02725 0.22157 0.0
H91 H 0.81332 0.91766 0.20797 0.0
Cu92 Cu 0.52325 1.00263 0.95208 0.0
N93 N 0.49206 1.00119 0.94898 0.0
N94 N 0.45754 0.97694 0.94616 0.0
C95 C 0.47996 0.97014 0.94664 0.0
C96 C 0.45545 0.01392 0.94813 0.0
C97 C 0.47674 0.02879 0.94982 0.0
O98 O 0.53828 0.97166 0.94006 0.0
C99 C 0.51522 0.97491 0.97627 0.0
O100 O 0.49772 0.95726 0.97173 0.0
H101 H 0.48731 0.94267 0.94603 0.0
H102 H 0.48061 0.05749 0.95191 0.0
N103 N 0.53543 0.05026 0.95003 0.0
N104 N 0.56345 0.09201 0.94858 0.0
C105 C 0.55662 0.0569 0.9461 0.0
C106 C 0.52858 0.0823 0.95517 0.0
C107 C 0.54577 0.10817 0.95423 0.0
C108 C 0.53719 0.93644 0.93887 0.0
O109 O 0.52718 0.91636 0.94728 0.0
H110 H 0.56757 0.03532 0.94258 0.0
H111 H 0.51307 0.0857 0.96021 0.0
O112 O 0.52891 0.99153 0.96916 0.0
H113 H 0.43966 0.02905 0.94856 0.0
H114 H 0.54573 0.13595 0.95804 0.0
Cu115 Cu 0.2692 0.76586 0.95315 0.0
N116 N 0.30053 0.76217 0.95097 0.0
N117 N 0.33617 0.782 0.94864 0.0
C118 C 0.31412 0.7891 0.9465 0.0
C119 C 0.33648 0.7489 0.95451 0.0
C120 C 0.3145 0.73679 0.95594 0.0
O121 O 0.25744 0.80119 0.94122 0.0
C122 C 0.27795 0.79216 0.97717 0.0
O123 O 0.29624 0.80677 0.97238 0.0
H124 H 0.30792 0.81491 0.94268 0.0
H125 H 0.30903 0.71256 0.96101 0.0
N126 N 0.2548 0.72046 0.95006 0.0
N127 N 0.22669 0.67888 0.94827 0.0
C128 C 0.23235 0.71464 0.95074 0.0
C129 C 0.26379 0.68736 0.94702 0.0
C130 C 0.24653 0.66168 0.94592 0.0
C131 C 0.26163 0.83598 0.9407 0.0
O132 O 0.27267 0.85185 0.94965 0.0
H133 H 0.22045 0.73651 0.95291 0.0
H134 H 0.28162 0.68216 0.94576 0.0
O135 O 0.26337 0.77693 0.97024 0.0
H136 H 0.35141 0.73527 0.95805 0.0
H137 H 0.24857 0.63247 0.94375 0.0
Cu138 Cu 0.53626 0.77457 0.83975 0.0
N139 N 0.50502 0.77113 0.84183 0.0
N140 N 0.46957 0.79206 0.84374 0.0
C141 C 0.49175 0.80021 0.84481 0.0
C142 C 0.46888 0.75622 0.84 0.0
C143 C 0.4908 0.74337 0.83883 0.0
O144 O 0.54515 0.81685 0.84988 0.0
C145 C 0.53013 0.7988 0.81519 0.0
O146 O 0.51596 0.82327 0.81971 0.0
H147 H 0.49832 0.82763 0.8469 0.0
H148 H 0.496 0.71641 0.83546 0.0
N149 N 0.55143 0.73167 0.84502 0.0
N150 N 0.58052 0.69279 0.84811 0.0
C151 C 0.57255 0.72217 0.8417 0.0
C152 C 0.54555 0.70711 0.8537 0.0
C153 C 0.56343 0.68301 0.8556 0.0
C154 C 0.56155 0.8162 0.85738 0.0
O155 O 0.57662 0.78948 0.85663 0.0
H156 H 0.58219 0.73766 0.83504 0.0
H157 H 0.5298 0.70775 0.85867 0.0
O158 O 0.5417 0.7785 0.82237 0.0
H159 H 0.45368 0.74072 0.8379 0.0
H160 H 0.5642 0.6613 0.86243 0.0
Cu161 Cu 0.28018 0.01044 0.84246 0.0
N162 N 0.31168 0.00912 0.84357 0.0
N163 N 0.34641 0.98461 0.84458 0.0
C164 C 0.32404 0.97843 0.84597 0.0
C165 C 0.34813 0.02082 0.84126 0.0
C166 C 0.32668 0.03585 0.84065 0.0
O167 O 0.26945 0.97124 0.85343 0.0
C168 C 0.28288 0.98406 0.81804 0.0
O169 O 0.29742 0.9598 0.82238 0.0
H170 H 0.31664 0.95151 0.848 0.0
H171 H 0.32226 0.06383 0.83784 0.0
N172 N 0.26882 0.05668 0.84741 0.0
N173 N 0.24529 0.10534 0.84898 0.0
C174 C 0.25053 0.07405 0.84277 0.0
C175 C 0.27553 0.07776 0.85682 0.0
C176 C 0.26104 0.10777 0.85782 0.0
C177 C 0.25346 0.97559 0.86104 0.0
O178 O 0.24068 1.00542 0.86028 0.0
H179 H 0.24072 0.06302 0.83531 0.0
H180 H 0.28961 0.07124 0.86271 0.0
O181 O 0.27237 1.00533 0.82534 0.0
H182 H 0.36373 0.03524 0.83918 0.0
H183 H 0.26195 0.12951 0.86459 0.0
Cu184 Cu 0.50866 0.55716 0.58183 0.0
N185 N 0.54019 0.55314 0.58264 0.0
N186 N 0.57614 0.57169 0.58458 0.0
C187 C 0.55472 0.57563 0.58861 0.0
C188 C 0.5751 0.54534 0.57589 0.0
C189 C 0.55296 0.53408 0.5747 0.0
O190 O 0.49811 0.58611 0.59564 0.0
C191 C 0.48703 0.56672 0.55862 0.0
O192 O 0.47037 0.54698 0.56317 0.0
H193 H 0.54955 0.59665 0.59503 0.0
H194 H 0.54637 0.51556 0.56783 0.0
N195 N 0.49508 0.51011 0.58321 0.0
N196 N 0.46817 0.46693 0.58591 0.0
C197 C 0.47328 0.50367 0.58606 0.0
C198 C 0.50421 0.47626 0.58135 0.0
C199 C 0.48767 0.44957 0.58301 0.0
C200 C 0.50374 0.61938 0.59826 0.0
O201 O 0.5154 0.63905 0.59038 0.0
H202 H 0.46136 0.52566 0.58809 0.0
H203 H 0.52157 0.47126 0.5788 0.0
O204 O 0.50294 0.57737 0.5656 0.0
H205 H 0.58912 0.53639 0.57032 0.0
H206 H 0.48971 0.41981 0.58184 0.0
Cu207 Cu 0.77724 0.74883 0.59268 0.0
N208 N 0.74664 0.75351 0.5966 0.0
N209 N 0.71042 0.73654 0.59825 0.0
C210 C 0.73084 0.72812 0.59362 0.0
C211 C 0.71329 0.76901 0.60421 0.0
C212 C 0.73577 0.77935 0.60323 0.0
O213 O 0.79074 0.71483 0.60447 0.0
C214 C 0.79505 0.73674 0.56881 0.0
O215 O 0.81498 0.74341 0.57358 0.0
H216 H 0.73431 0.7036 0.58823 0.0
H217 H 0.7437 0.80343 0.60731 0.0
N218 N 0.79287 0.79391 0.59397 0.0
N219 N 0.82257 0.8325 0.59502 0.0
C220 C 0.81524 0.79691 0.59597 0.0
C221 C 0.78564 0.82879 0.59171 0.0
C222 C 0.80391 0.8527 0.59241 0.0
C223 C 0.78185 0.68401 0.60765 0.0
O224 O 0.76497 0.67059 0.60128 0.0
H225 H 0.82598 0.77314 0.5978 0.0
H226 H 0.7685 0.8361 0.58927 0.0
O227 O 0.77787 0.73423 0.5757 0.0
H228 H 0.7003 0.78345 0.60926 0.0
H229 H 0.8036 0.88238 0.5906 0.0
Cu230 Cu 0.52457 0.75257 0.70165 0.0
N231 N 0.55493 0.75449 0.69702 0.0
N232 N 0.58994 0.73306 0.69417 0.0
C233 C 0.56988 0.72735 0.6996 0.0
C234 C 0.58784 0.76554 0.68808 0.0
C235 C 0.56608 0.77867 0.68981 0.0
O236 O 0.50908 0.7199 0.69017 0.0
C237 C 0.50846 0.74301 0.72611 0.0
O238 O 0.4883 0.75096 0.72185 0.0
H239 H 0.56591 0.70316 0.7051 0.0
H240 H 0.55867 0.80323 0.68571 0.0
N241 N 0.51019 0.79874 0.7004 0.0
N242 N 0.48141 0.8391 0.69971 0.0
C243 C 0.48768 0.80294 0.69938 0.0
C244 C 0.51861 0.83348 0.70133 0.0
C245 C 0.50086 0.85852 0.70084 0.0
C246 C 0.51718 0.68936 0.68622 0.0
O247 O 0.53444 0.67424 0.69185 0.0
H248 H 0.47609 0.7797 0.69862 0.0
H249 H 0.53627 0.84008 0.70265 0.0
O250 O 0.52484 0.73873 0.71877 0.0
H251 H 0.60068 0.77779 0.68233 0.0
H252 H 0.50211 0.8885 0.70172 0.0
Cu253 Cu 0.77821 0.52099 0.70641 0.0
N254 N 0.74707 0.51893 0.70358 0.0
N255 N 0.7122 0.54177 0.70109 0.0
C256 C 0.73429 0.54566 0.69834 0.0
C257 C 0.71095 0.51111 0.70817 0.0
C258 C 0.73245 0.49711 0.70968 0.0
O259 O 0.79189 0.55433 0.69456 0.0
C260 C 0.79855 0.53354 0.72998 0.0
O261 O 0.81839 0.52983 0.72481 0.0
H262 H 0.74115 0.56953 0.69361 0.0
H263 H 0.73732 0.47476 0.71575 0.0
N264 N 0.79174 0.47438 0.70434 0.0
N265 N 0.81908 0.43147 0.70315 0.0
C266 C 0.81416 0.46804 0.70436 0.0
C267 C 0.78205 0.44071 0.70294 0.0
C268 C 0.79889 0.41416 0.70219 0.0
C269 C 0.78769 0.58888 0.69326 0.0
O270 O 0.77554 0.60612 0.70148 0.0
H271 H 0.82663 0.48995 0.70518 0.0
H272 H 0.76405 0.43571 0.70263 0.0
O273 O 0.78081 0.53406 0.72346 0.0
H274 H 0.6958 0.50108 0.71261 0.0
H275 H 0.79641 0.38438 0.70131 0.0
Cu276 Cu 0.54592 0.47065 0.45283 0.0
N277 N 0.53567 0.4217 0.45486 0.0
N278 N 0.50988 0.37599 0.45519 0.0
C279 C 0.51386 0.41273 0.4568 0.0
C280 C 0.53008 0.36124 0.45214 0.0
C281 C 0.54593 0.38954 0.4519 0.0
O282 O 0.53825 0.4807 0.43586 0.0
C283 C 0.53433 0.48821 0.47602 0.0
O284 O 0.54711 0.4585 0.47729 0.0
H285 H 0.50084 0.43331 0.45843 0.0
H286 H 0.56332 0.38722 0.44898 0.0
N287 N 0.57722 0.47563 0.45542 0.0
N288 N 0.61187 0.50115 0.4562 0.0
C289 C 0.59011 0.50553 0.45263 0.0
C290 C 0.59119 0.45156 0.46101 0.0
C291 C 0.61248 0.4671 0.4615 0.0
C292 C 0.55209 0.46954 0.42776 0.0
O293 O 0.57219 0.45807 0.43114 0.0
H294 H 0.58356 0.52987 0.44801 0.0
H295 H 0.58615 0.42486 0.46471 0.0
O296 O 0.53082 0.50049 0.4653 0.0
H297 H 0.53303 0.33237 0.44978 0.0
H298 H 0.6271 0.45448 0.46572 0.0
Cu299 Cu 0.28738 0.26453 0.45387 0.0
N300 N 0.31814 0.25224 0.45286 0.0
N301 N 0.35587 0.25768 0.45291 0.0
C302 C 0.33591 0.27537 0.45126 0.0
C303 C 0.35039 0.22198 0.45549 0.0
C304 C 0.32719 0.21876 0.45548 0.0
O305 O 0.28054 0.30579 0.4428 0.0
C306 C 0.29377 0.28835 0.47833 0.0
O307 O 0.3116 0.30575 0.47405 0.0
H308 H 0.33427 0.30497 0.44964 0.0
H309 H 0.31753 0.19407 0.45771 0.0
N310 N 0.26982 0.22405 0.44865 0.0
N311 N 0.24016 0.18625 0.44557 0.0
C312 C 0.24824 0.21612 0.4517 0.0
C313 C 0.27559 0.19835 0.44036 0.0
C314 C 0.25741 0.17503 0.43846 0.0
C315 C 0.28785 0.33921 0.4431 0.0
O316 O 0.30026 0.35017 0.4523 0.0
H317 H 0.23846 0.23268 0.45798 0.0
H318 H 0.2918 0.19708 0.43585 0.0
O319 O 0.28038 0.2721 0.47099 0.0
H320 H 0.36227 0.1999 0.45753 0.0
H321 H 0.25696 0.15165 0.43228 0.0
Cu322 Cu 0.51582 0.25435 0.34103 0.0
N323 N 0.4848 0.24472 0.34211 0.0
N324 N 0.4473 0.25278 0.34231 0.0
C325 C 0.46775 0.26962 0.34233 0.0
C326 C 0.45173 0.21585 0.34216 0.0
C327 C 0.47483 0.21101 0.34201 0.0
O328 O 0.52365 0.29512 0.35205 0.0
C329 C 0.51181 0.27977 0.31643 0.0
O330 O 0.49504 0.30027 0.32041 0.0
H331 H 0.4703 0.29947 0.34237 0.0
H332 H 0.48375 0.18474 0.34155 0.0
N333 N 0.53163 0.21239 0.34653 0.0
N334 N 0.55743 0.16692 0.34817 0.0
C335 C 0.54983 0.19603 0.34146 0.0
C336 C 0.5276 0.19319 0.35679 0.0
C337 C 0.5434 0.16516 0.35782 0.0
C338 C 0.51817 0.32943 0.35135 0.0
O339 O 0.50738 0.34169 0.34173 0.0
H340 H 0.55728 0.20533 0.33302 0.0
H341 H 0.51425 0.19951 0.36315 0.0
O342 O 0.52352 0.26088 0.32395 0.0
H343 H 0.43921 0.19388 0.34175 0.0
H344 H 0.54474 0.14563 0.36528 0.0
Cu345 Cu 0.25775 0.46794 0.3408 0.0
N346 N 0.26981 0.42171 0.33666 0.0
N347 N 0.29572 0.37652 0.33543 0.0
C348 C 0.29068 0.41056 0.33985 0.0
C349 C 0.27719 0.36584 0.32917 0.0
C350 C 0.26118 0.39379 0.32997 0.0
O351 O 0.27062 0.47698 0.35689 0.0
C352 C 0.25638 0.49668 0.31762 0.0
O353 O 0.24117 0.47002 0.31705 0.0
H354 H 0.30217 0.42767 0.34508 0.0
H355 H 0.24454 0.39388 0.32591 0.0
N356 N 0.22621 0.46543 0.34206 0.0
N357 N 0.1902 0.48365 0.34349 0.0
C358 C 0.21132 0.49326 0.34006 0.0
C359 C 0.21406 0.43722 0.3468 0.0
C360 C 0.19184 0.44841 0.34773 0.0
C361 C 0.25873 0.48439 0.36622 0.0
O362 O 0.23788 0.49601 0.36474 0.0
H363 H 0.2161 0.52066 0.3368 0.0
H364 H 0.22107 0.41096 0.34985 0.0
O365 O 0.26623 0.50245 0.32775 0.0
H366 H 0.2753 0.3397 0.32439 0.0
H367 H 0.17805 0.43223 0.35147 0.0
Cu368 Cu 1.0242 0.0146 0.59176 0.0
N369 N 0.05518 0.01414 0.59502 0.0
N370 N 0.08969 0.03778 0.59802 0.0
C371 C 0.06742 0.04515 0.59707 0.0
C372 C 0.09157 1.00055 0.59655 0.0
C373 C 0.07019 0.98596 0.59478 0.0
O374 O 1.0128 0.05497 0.60197 0.0
C375 C 0.02846 0.9926 0.56805 0.0
O376 O 0.03675 0.96396 0.57402 0.0
H377 H 0.0602 0.07287 0.5973 0.0
H378 H 0.066 0.95707 0.5931 0.0
N379 N 1.01005 0.97013 0.59643 0.0
N380 N 0.98198 0.92883 0.59881 0.0
C381 C 0.9897 0.95851 0.59246 0.0
C382 C 1.01571 0.94665 0.60545 0.0
C383 C 0.99844 0.92111 0.60694 0.0
C384 C 0.99502 0.05268 0.60846 0.0
O385 O 0.98038 0.02603 0.60627 0.0
H386 H 0.98003 0.97344 0.58567 0.0
H387 H 0.03079 0.94904 0.61094 0.0
O388 O 1.02086 0.0201 0.57415 0.0
H389 H 0.10727 0.98509 0.59661 0.0
H390 H 0.99781 0.89933 0.61374 0.0
Cu391 Cu 0.27595 0.2552 0.59282 0.0
N392 N 0.24508 0.25691 0.59607 0.0
N393 N 0.21021 0.23413 0.59851 0.0
C394 C 0.23255 0.22695 0.59912 0.0
C395 C 0.20862 0.27015 0.595 0.0
C396 C 0.2302 0.28415 0.5935 0.0
O397 O 0.28734 0.21511 0.60325 0.0
C398 C 0.29471 0.23972 0.56883 0.0
O399 O 0.31382 0.23018 0.57404 0.0
H400 H 0.23967 0.19962 0.60082 0.0
H401 H 0.2347 0.31147 0.59008 0.0
N402 N 0.29005 0.30049 0.59652 0.0
N403 N 0.3169 0.3444 0.59746 0.0
C404 C 0.31023 0.31209 0.59229 0.0
C405 C 0.28355 0.3265 0.60456 0.0
C406 C 0.30009 0.35361 0.60517 0.0
C407 C 0.30232 0.22019 0.61141 0.0
O408 O 0.31416 0.25115 0.61133 0.0
H409 H 0.32031 0.29612 0.586 0.0
H410 H 0.26816 0.32529 0.60983 0.0
O411 O 0.27778 0.24831 0.57534 0.0
H412 H 0.19301 0.28483 0.59317 0.0
H413 H 0.29982 0.37796 0.61094 0.0
Cu414 Cu 1.01082 0.21976 0.70902 0.0
N415 N 0.04242 0.2218 0.70824 0.0
N416 N 0.0783 0.20328 0.70605 0.0
C417 C 0.05637 0.19563 0.70371 0.0
C418 C 0.0781 0.23582 0.71219 0.0
C419 C 0.05597 0.24712 0.71353 0.0
O420 O 0.99962 0.1901 0.69553 0.0
C421 C 1.01466 0.18614 0.73245 0.0
O422 O 0.0328 0.17032 0.72794 0.0
H423 H 0.05054 0.1704 0.69939 0.0
H424 H 0.05009 0.27132 0.71843 0.0
N425 N 0.9986 0.26709 0.70657 0.0
N426 N 0.97231 0.31153 0.70474 0.0
C427 C 0.97682 0.27631 0.70839 0.0
C428 C 1.0083 0.29745 0.70161 0.0
C429 C 0.99211 0.32495 0.70048 0.0
C430 C 1.00298 0.1557 0.69342 0.0
O431 O 1.01291 0.13494 0.70169 0.0
H432 H 0.96435 0.25694 0.71184 0.0
H433 H 1.02572 0.29912 0.69872 0.0
O434 O 1.00183 0.20477 0.7254 0.0
H435 H 0.09281 0.25005 0.71572 0.0
H436 H 0.99469 0.35251 0.6967 0.0
Cu437 Cu 0.27589 0.0155 0.70336 0.0
N438 N 0.24522 0.01054 0.69949 0.0
N439 N 0.20908 0.02792 0.69737 0.0
C440 C 0.23088 0.03903 0.69741 0.0
C441 C 0.20974 0.99081 0.69945 0.0
C442 C 0.23201 0.98023 0.70081 0.0
O443 O 0.28902 0.05228 0.6924 0.0
C444 C 0.29291 0.03243 0.72769 0.0
O445 O 0.31293 0.03879 0.72299 0.0
H446 H 0.23616 0.0678 0.69689 0.0
H447 H 0.23799 0.95285 0.70339 0.0
N448 N 0.29189 0.97148 0.70039 0.0
N449 N 0.32169 0.93357 0.69835 0.0
C450 C 0.31387 0.96587 0.70302 0.0
C451 C 0.28557 0.94175 0.69378 0.0
C452 C 0.30388 0.91825 0.69255 0.0
C453 C 0.28491 0.08701 0.6916 0.0
O454 O 0.27262 0.10324 0.69997 0.0
H455 H 0.32427 0.98613 0.70765 0.0
H456 H 0.26914 0.93813 0.68966 0.0
O457 O 0.27631 0.02518 0.72075 0.0
H458 H 0.19516 0.97284 0.70046 0.0
H459 H 0.30414 0.89232 0.68755 0.0
Cu460 Cu 0.03834 0.9915 0.45215 0.0
N461 N 1.00748 0.99883 0.44954 0.0
N462 N 0.97141 0.9814 0.44722 0.0
C463 C 0.99329 0.97145 0.4461 0.0
C464 C 0.97189 0.01682 0.45138 0.0
C465 C 0.99419 0.0275 0.45281 0.0
O466 O 0.04548 0.94838 0.44193 0.0
C467 C 0.02766 0.96957 0.47639 0.0
O468 O 1.00997 0.95391 0.47132 0.0
H469 H 0.99894 0.9436 0.44388 0.0
H470 H 1.00024 0.05336 0.45665 0.0
N471 N 0.05519 0.03359 0.44754 0.0
N472 N 0.08416 0.07361 0.44553 0.0
C473 C 0.07669 0.04158 0.45071 0.0
C474 C 0.04874 0.06146 0.44014 0.0
C475 C 0.0665 0.08608 0.43887 0.0
C476 C 0.05541 0.95174 0.43171 0.0
O477 O 0.06501 0.98364 0.42891 0.0
H478 H 0.08658 0.02409 0.45671 0.0
H479 H 0.03238 0.06335 0.4358 0.0
O480 O 0.04271 0.98433 0.46963 0.0
H481 H 0.95723 0.03328 0.45373 0.0
H482 H 0.06649 0.11072 0.43319 0.0
Cu483 Cu 0.77944 0.77056 0.45438 0.0
N484 N 0.81088 0.77108 0.45252 0.0
N485 N 0.84596 0.79354 0.45027 0.0
C486 C 0.82363 0.80055 0.44919 0.0
C487 C 0.84728 0.75804 0.45434 0.0
C488 C 0.82564 0.74428 0.45571 0.0
O489 O 0.76713 0.80991 0.44408 0.0
C490 C 0.78426 0.792 0.4792 0.0
O491 O 0.79984 0.81504 0.4752 0.0
H492 H 0.81669 0.8273 0.44664 0.0
H493 H 0.82095 0.71717 0.45922 0.0
N494 N 0.76727 0.72547 0.44886 0.0
N495 N 0.7432 0.67777 0.44642 0.0
C496 C 0.7483 0.70864 0.4529 0.0
C497 C 0.77449 0.70454 0.43954 0.0
C498 C 0.75971 0.67515 0.43801 0.0
C499 C 0.77011 0.84493 0.4452 0.0
O500 O 0.77978 0.85791 0.45505 0.0
H501 H 0.73808 0.71952 0.46022 0.0
H502 H 0.78928 0.71062 0.43412 0.0
O503 O 0.77265 0.77323 0.47165 0.0
H504 H 0.86275 0.74329 0.45643 0.0
H505 H 0.76103 0.65352 0.43122 0.0
Cu506 Cu 1.01136 0.73173 0.3433 0.0
N507 N 0.97975 0.72716 0.34254 0.0
N508 N 0.94287 0.741 0.34132 0.0
C509 C 0.96358 0.75271 0.34492 0.0
C510 C 0.94621 0.70671 0.33663 0.0
C511 C 0.96885 0.69846 0.33732 0.0
O512 O 1.021 0.76487 0.35641 0.0
C513 C 1.01078 0.76619 0.31989 0.0
O514 O 0.99371 0.78559 0.3241 0.0
H515 H 0.96707 0.7801 0.34854 0.0
H516 H 0.97698 0.67385 0.33373 0.0
N517 N 1.0242 0.68501 0.34652 0.0
N518 N 0.04942 0.63861 0.34702 0.0
C519 C 0.04585 0.67503 0.34451 0.0
C520 C 1.01386 0.65395 0.35059 0.0
C521 C 0.02934 0.62522 0.35083 0.0
C522 C 1.01669 0.79948 0.35751 0.0
O523 O 1.00548 0.81673 0.34889 0.0
H524 H 0.05858 0.69384 0.34098 0.0
H525 H 0.99625 0.65217 0.35311 0.0
O526 O 1.02169 0.74487 0.32706 0.0
H527 H 0.9333 0.6891 0.3327 0.0
H528 H 1.02614 0.59675 0.35364 0.0
Cu529 Cu 0.75757 0.97125 0.3412 0.0
N530 N 0.76848 0.92242 0.34008 0.0
N531 N 0.7942 0.87662 0.34039 0.0
C532 C 0.79052 0.9136 0.33907 0.0
C533 C 0.77354 0.86164 0.3423 0.0
C534 C 0.75774 0.88997 0.34217 0.0
O535 O 0.7629 0.98382 0.35823 0.0
C536 C 0.7716 0.98699 0.31827 0.0
O537 O 0.75993 0.95605 0.31699 0.0
H538 H 0.80371 0.9343 0.33808 0.0
H539 H 0.73988 0.88727 0.34403 0.0
N540 N 0.72664 0.97522 0.33755 0.0
N541 N 0.69194 0.99982 0.336 0.0
C542 C 0.71335 1.00481 0.33998 0.0
C543 C 0.71327 0.95077 0.33171 0.0
C544 C 0.69189 0.96581 0.33076 0.0
C545 C 0.74793 0.97387 0.36593 0.0
O546 O 0.72861 0.96069 0.36197 0.0
H547 H 0.7194 0.02964 0.3445 0.0
H548 H 0.7187 0.92399 0.32831 0.0
O549 O 0.77353 1.00065 0.3289 0.0
H550 H 0.77008 0.83242 0.34395 0.0
H551 H 0.67737 0.95244 0.32667 0.0
Cu552 Cu 1.02303 0.52131 0.09324 0.0
N553 N 0.0543 0.51624 0.09531 0.0
N554 N 0.09025 0.53481 0.09711 0.0
C555 C 0.06847 0.54238 0.09972 0.0
C556 C 0.08984 0.50219 0.09103 0.0
C557 C 0.06766 0.49076 0.08997 0.0
O558 O 1.01173 0.55797 0.10473 0.0
C559 C 0.03159 0.54484 0.0689 0.0
O560 O 0.05033 0.55873 0.07339 0.0
H561 H 0.06288 0.5681 0.10381 0.0
H562 H 0.06155 0.46715 0.08483 0.0
N563 N 1.00805 0.477 0.09693 0.0
N564 N 0.97931 0.4369 0.09885 0.0
C565 C 0.98624 0.47001 0.09432 0.0
C566 C 1.01531 0.44731 0.10331 0.0
C567 C 0.99758 0.42248 0.10452 0.0
C568 C 1.01717 0.59225 0.10519 0.0
O569 O 0.02951 0.60672 0.09646 0.0
H570 H 0.97546 0.48958 0.08957 0.0
H571 H 0.03214 0.44431 0.10701 0.0
O572 O 1.0169 0.53113 0.0761 0.0
H573 H 0.10438 0.48869 0.08704 0.0
H574 H 0.9981 0.39601 0.10925 0.0
Cu575 Cu 0.27938 0.75157 0.0926 0.0
N576 N 0.24849 0.74985 0.09646 0.0
N577 N 0.21395 0.72578 0.09919 0.0
C578 C 0.23583 0.71862 0.09675 0.0
C579 C 0.21262 0.76315 0.10035 0.0
C580 C 0.23397 0.77793 0.09869 0.0
O581 O 0.29531 0.71855 0.10383 0.0
C582 C 0.2722 0.7683 0.06881 0.0
O583 O 0.26143 0.7949 0.07458 0.0
H584 H 0.24225 0.69123 0.09468 0.0
H585 H 0.23844 0.80717 0.0988 0.0
N586 N 0.29245 0.79793 0.0958 0.0
N587 N 0.32099 0.83878 0.09723 0.0
C588 C 0.31287 0.80818 0.09157 0.0
C589 C 0.2873 0.8229 0.10444 0.0
C590 C 0.30477 0.84831 0.10527 0.0
C591 C 0.29212 0.6841 0.10603 0.0
O592 O 0.27956 0.66423 0.09866 0.0
H593 H 0.32204 0.79209 0.08491 0.0
H594 H 0.27277 0.82117 0.11035 0.0
O595 O 0.2823 0.74342 0.07511 0.0
H596 H 0.19733 0.77864 0.10224 0.0
H597 H 0.3061 0.87037 0.11192 0.0
Cu598 Cu 0.03043 0.7585 0.20516 0.0
N599 N 0.06084 0.76053 0.20097 0.0
N600 N 0.09632 0.73986 0.19925 0.0
C601 C 0.0764 0.73631 0.20509 0.0
C602 C 0.09309 0.76761 0.19111 0.0
C603 C 0.07113 0.78013 0.19214 0.0
O604 O 1.01718 0.7227 0.19382 0.0
C605 C 1.01214 0.73964 0.22868 0.0
O606 O 0.99231 0.73782 0.22336 0.0
H607 H 0.07261 0.71484 0.2117 0.0
H608 H 0.06295 0.80064 0.18643 0.0
N609 N 1.01645 0.80504 0.20367 0.0
N610 N 0.98911 0.84792 0.20327 0.0
C611 C 0.99415 0.81154 0.20482 0.0
C612 C 1.02587 0.83855 0.20144 0.0
C613 C 1.009 0.86505 0.20109 0.0
C614 C 1.01022 0.73448 0.18354 0.0
O615 O 1.00976 0.77053 0.18145 0.0
H616 H 0.98182 0.78988 0.20654 0.0
H617 H 0.04375 0.84348 0.20025 0.0
O618 O 0.02972 0.74516 0.22228 0.0
H619 H 0.10542 0.77745 0.18461 0.0
H620 H 1.01121 0.89468 0.1996 0.0
Cu621 Cu 0.29269 0.54367 0.20884 0.0
N622 N 0.26183 0.54119 0.20524 0.0
N623 N 0.22626 0.56149 0.20342 0.0
C624 C 0.24555 0.56301 0.20995 0.0
C625 C 0.23041 0.53705 0.19441 0.0
C626 C 0.25239 0.52484 0.1955 0.0
O627 O 0.30604 0.57946 0.19753 0.0
C628 C 0.29165 0.57904 0.23284 0.0
O629 O 0.28384 0.60959 0.22775 0.0
H630 H 0.24834 0.58183 0.21743 0.0
H631 H 0.26141 0.50786 0.18903 0.0
N632 N 0.30663 0.49831 0.20543 0.0
N633 N 0.33451 0.45726 0.20273 0.0
C634 C 0.3291 0.49266 0.20563 0.0
C635 C 0.29746 0.46525 0.2024 0.0
C636 C 0.31467 0.43989 0.20064 0.0
C637 C 0.29519 0.60762 0.19355 0.0
O638 O 0.27683 0.61821 0.19925 0.0
H639 H 0.34124 0.51428 0.20775 0.0
H640 H 0.27955 0.45979 0.20163 0.0
O641 O 0.29703 0.55138 0.22622 0.0
H642 H 0.21909 0.53104 0.18695 0.0
H643 H 0.31274 0.4108 0.19825 0.0
Cu644 Cu 1.02644 0.4841 0.95449 0.0
N645 N 0.99549 0.48637 0.95088 0.0
N646 N 0.96037 0.46554 0.94755 0.0
C647 C 0.98237 0.45644 0.9487 0.0
C648 C 0.95955 0.50286 0.94904 0.0
C649 C 0.98125 0.51565 0.95105 0.0
O650 O 0.03865 0.44347 0.94481 0.0
C651 C 1.02295 0.50943 0.97785 0.0
O652 O 1.01525 0.53779 0.97152 0.0
H653 H 0.98862 0.4282 0.94853 0.0
H654 H 0.98613 0.54414 0.9529 0.0
N655 N 0.04189 0.52699 0.94942 0.0
N656 N 0.07062 0.56692 0.94666 0.0
C657 C 0.06375 0.53455 0.95181 0.0
C658 C 0.03458 0.5554 0.94248 0.0
C659 C 0.0522 0.5801 0.94079 0.0
C660 C 0.03479 0.40863 0.94574 0.0
O661 O 1.02439 0.39569 0.9554 0.0
H662 H 0.07448 0.51602 0.957 0.0
H663 H 1.01774 0.55783 0.93877 0.0
O664 O 0.02964 0.48056 0.97213 0.0
H665 H 0.94435 0.51962 0.9489 0.0
H666 H 0.05137 0.60581 0.93566 0.0
Cu667 Cu 0.76854 0.26289 0.95364 0.0
N668 N 0.79985 0.25807 0.95212 0.0
N669 N 0.83571 0.27702 0.95024 0.0
C670 C 0.81388 0.28415 0.94756 0.0
C671 C 0.83541 0.2448 0.95661 0.0
C672 C 0.81327 0.23326 0.95778 0.0
O673 O 0.75826 0.29927 0.94169 0.0
C674 C 0.77495 0.29138 0.97762 0.0
O675 O 0.79144 0.31112 0.97288 0.0
H676 H 0.8081 0.3095 0.94325 0.0
H677 H 0.80728 0.20995 0.96314 0.0
N678 N 0.7535 0.21858 0.94997 0.0
N679 N 0.7243 0.17992 0.94719 0.0
C680 C 0.73095 0.21562 0.94869 0.0
C681 C 0.7615 0.18355 0.9492 0.0
C682 C 0.74348 0.15958 0.94752 0.0
C683 C 0.76289 0.3339 0.94127 0.0
O684 O 0.7733 0.34955 0.95047 0.0
H685 H 0.71957 0.23914 0.94938 0.0
H686 H 0.77907 0.17583 0.9501 0.0
O687 O 0.76208 0.27254 0.97068 0.0
H688 H 0.84999 0.23148 0.96066 0.0
H689 H 0.74441 0.12954 0.94672 0.0
Cu690 Cu 0.0447 0.29896 0.83981 0.0
N691 N 0.03315 0.34753 0.83896 0.0
N692 N 1.00706 0.39273 0.83964 0.0
C693 C 1.01111 0.35616 0.83765 0.0
C694 C 0.02743 0.40766 0.84228 0.0
C695 C 0.04346 0.37972 0.8419 0.0
O696 O 0.03867 0.28396 0.85662 0.0
C697 C 0.03372 0.28397 0.81633 0.0
O698 O 0.04451 0.31594 0.81563 0.0
H699 H 0.9981 0.3355 0.83604 0.0
H700 H 0.06113 0.38231 0.84424 0.0
N701 N 0.07599 0.29674 0.83684 0.0
N702 N 0.11128 0.27394 0.83609 0.0
C703 C 0.08966 0.26781 0.83957 0.0
C704 C 0.08929 0.32198 0.83131 0.0
C705 C 0.11101 0.30809 0.83085 0.0
C706 C 0.0531 0.29371 0.86464 0.0
O707 O 0.07203 0.30945 0.86113 0.0
H708 H 0.08378 0.24304 0.84422 0.0
H709 H 0.08357 0.34844 0.82773 0.0
O710 O 0.03054 0.26983 0.82683 0.0
H711 H 0.03047 0.43649 0.84467 0.0
H712 H 0.12534 0.32199 0.82677 0.0
Cu713 Cu 0.78723 0.51753 0.84448 0.0
N714 N 0.81818 0.52822 0.845 0.0
N715 N 0.8556 0.51923 0.84414 0.0
C716 C 0.83515 0.50325 0.8459 0.0
C717 C 0.85126 0.55572 0.84216 0.0
C718 C 0.8282 0.56114 0.84268 0.0
O719 O 0.78152 0.47602 0.85561 0.0
C720 C 0.79081 0.48844 0.82043 0.0
O721 O 0.80606 0.46571 0.82496 0.0
H722 H 0.83245 0.47362 0.84714 0.0
H723 H 0.81929 0.58698 0.84101 0.0
N724 N 0.77004 0.55853 0.8495 0.0
N725 N 0.73987 0.59551 0.85197 0.0
C726 C 0.74891 0.56669 0.84575 0.0
C727 C 0.77473 0.58327 0.85828 0.0
C728 C 0.75619 0.60613 0.85982 0.0
C729 C 0.76269 0.47163 0.86104 0.0
O730 O 0.74538 0.49222 0.85778 0.0
H731 H 0.73995 0.55037 0.83905 0.0
H732 H 0.79027 0.58391 0.86344 0.0
O733 O 0.77971 0.5095 0.82752 0.0
H734 H 0.86381 0.57688 0.84023 0.0
H735 H 0.75479 0.62847 0.86635 0.0
C736 C 0.48028 0.08608 0.1278 0.0
C737 C 0.4964 0.09103 0.11859 0.0
C738 C 0.48232 0.10441 0.13899 0.0
C739 C 0.5009 0.12843 0.14106 0.0
C740 C 0.51648 0.13533 0.13156 0.0
C741 C 0.51404 0.11659 0.12043 0.0
C742 C 0.46527 0.09636 0.14884 0.0
C743 C 0.53645 0.16095 0.13335 0.0
C744 C 0.50099 0.19357 0.16836 0.0
C745 C 0.5149 0.1742 0.17656 0.0
C746 C 0.49602 0.17889 0.15683 0.0
C747 C 0.50506 0.1439 0.15343 0.0
C748 C 0.51849 0.12369 0.16182 0.0
C749 C 0.52326 0.13908 0.17325 0.0
C750 C 0.48163 0.2013 0.14817 0.0
C751 C 0.52829 0.0861 0.15862 0.0
H752 H 0.46651 0.06655 0.12647 0.0
H753 H 0.52661 0.12064 0.11341 0.0
H754 H 0.47349 0.08027 0.15623 0.0
H755 H 0.45896 0.12272 0.15284 0.0
H756 H 0.45062 0.08005 0.14544 0.0
H757 H 0.54581 0.16607 0.12477 0.0
H758 H 0.53083 0.18811 0.13706 0.0
H759 H 0.54827 0.14842 0.14003 0.0
H760 H 0.49448 0.22079 0.17078 0.0
H761 H 0.534 0.12384 0.1795 0.0
H762 H 0.46718 0.18429 0.14494 0.0
H763 H 0.49175 0.2091 0.14009 0.0
H764 H 0.47498 0.22716 0.15239 0.0
H765 H 0.5146 0.06671 0.15589 0.0
H766 H 0.53777 0.07341 0.16629 0.0
H767 H 0.53989 0.08902 0.15078 0.0
C768 C 0.79746 0.12678 0.17555 0.0
C769 C 0.80887 0.09279 0.17693 0.0
C770 C 0.79546 0.14378 0.16406 0.0
C771 C 0.80543 0.12665 0.15379 0.0
C772 C 0.81828 0.0937 0.15533 0.0
C773 C 0.81965 0.07703 0.16684 0.0
C774 C 0.78146 0.17873 0.1628 0.0
C775 C 0.82953 0.07484 0.14471 0.0
C776 C 0.77692 0.14063 0.12318 0.0
C777 C 0.7903 0.16849 0.11782 0.0
C778 C 0.78172 0.12688 0.13483 0.0
C779 C 0.80056 0.14091 0.14131 0.0
C780 C 0.81459 0.16818 0.13583 0.0
C781 C 0.80923 0.1818 0.12418 0.0
C782 C 0.76626 0.09787 0.14033 0.0
C783 C 0.83502 0.18341 0.14234 0.0
H784 H 0.78891 0.13888 0.18328 0.0
H785 H 0.82861 0.05084 0.16788 0.0
H786 H 0.79081 0.20023 0.15757 0.0
H787 H 0.76578 0.1723 0.1577 0.0
H788 H 0.7767 0.19055 0.17174 0.0
H789 H 0.84112 0.05217 0.14763 0.0
H790 H 0.81645 0.06268 0.13868 0.0
H791 H 0.83924 0.09539 0.13927 0.0
H792 H 0.76218 0.13027 0.11841 0.0
H793 H 0.81967 0.20336 0.12015 0.0
H794 H 0.75891 0.10858 0.14889 0.0
H795 H 0.776 0.07239 0.14262 0.0
H796 H 0.75223 0.09001 0.13414 0.0
H797 H 0.82966 0.19789 0.15074 0.0
H798 H 0.84476 0.20332 0.13665 0.0
H799 H 0.84634 0.16025 0.14511 0.0
C800 C 0.57842 0.83795 0.877 0.0
C801 C 0.56087 0.83988 0.86844 0.0
C802 C 0.57645 0.85505 0.88841 0.0
C803 C 0.55641 0.87451 0.89139 0.0
C804 C 0.53906 0.87804 0.88259 0.0
C805 C 0.54153 0.86082 0.87122 0.0
C806 C 0.59544 0.85093 0.89746 0.0
C807 C 0.51744 0.89863 0.88536 0.0
C808 C 0.53866 0.88222 0.92451 0.0
C809 C 0.54424 0.91933 0.92719 0.0
C810 C 0.54291 0.86713 0.91297 0.0
C811 C 0.55307 0.88958 0.90388 0.0
C812 C 0.55945 0.92664 0.90666 0.0
C813 C 0.55494 0.94106 0.91825 0.0
C814 C 0.53589 0.82743 0.91039 0.0
C815 C 0.57048 0.95142 0.89728 0.0
H816 H 0.59347 0.82195 0.87495 0.0
H817 H 0.52782 0.86243 0.86471 0.0
H818 H 0.60032 0.87857 0.90112 0.0
H819 H 0.58967 0.83363 0.90523 0.0
H820 H 0.6106 0.83761 0.89343 0.0
H821 H 0.50611 0.90058 0.87735 0.0
H822 H 0.50825 0.88409 0.89276 0.0
H823 H 0.52127 0.92723 0.88858 0.0
H824 H 0.53035 0.8652 0.93131 0.0
H825 H 0.55939 0.96974 0.92022 0.0
H826 H 0.55056 0.8112 0.90705 0.0
H827 H 0.52288 0.82711 0.90314 0.0
H828 H 0.52892 0.81323 0.91853 0.0
H829 H 0.58564 0.93756 0.89348 0.0
H830 H 0.57559 0.97884 0.90107 0.0
H831 H 0.5586 0.95633 0.88966 0.0
C832 C 0.26894 0.92511 0.87456 0.0
C833 C 0.2518 0.95093 0.8719 0.0
C834 C 0.26922 0.90547 0.88563 0.0
C835 C 0.25185 0.9115 0.89425 0.0
C836 C 0.234 0.9363 0.8914 0.0
C837 C 0.23422 0.95576 0.8803 0.0
C838 C 0.28859 0.8793 0.88829 0.0
C839 C 0.21504 0.94328 0.90026 0.0
C840 C 0.24543 0.83978 0.91965 0.0
C841 C 0.2572 0.8568 0.92923 0.0
C842 C 0.24315 0.85752 0.90831 0.0
C843 C 0.25294 0.89312 0.90644 0.0
C844 C 0.26433 0.91086 0.91616 0.0
C845 C 0.26625 0.89257 0.92743 0.0
C846 C 0.23071 0.83775 0.89824 0.0
C847 C 0.27504 0.94879 0.91457 0.0
H848 H 0.28266 0.92122 0.86819 0.0
H849 H 0.22086 0.97554 0.87835 0.0
H850 H 0.29841 0.88982 0.89615 0.0
H851 H 0.28205 0.85132 0.89079 0.0
H852 H 0.30019 0.87633 0.88044 0.0
H853 H 0.20161 0.96131 0.89635 0.0
H854 H 0.20734 0.91647 0.90315 0.0
H855 H 0.22182 0.95696 0.9085 0.0
H856 H 0.23833 0.81218 0.92092 0.0
H857 H 0.27545 0.90595 0.93472 0.0
H858 H 0.24253 0.83175 0.89069 0.0
H859 H 0.21717 0.85591 0.89456 0.0
H860 H 0.22304 0.81108 0.90132 0.0
H861 H 0.28841 0.94737 0.90754 0.0
H862 H 0.28269 0.95932 0.92311 0.0
H863 H 0.26225 0.9692 0.91139 0.0
C864 C 0.48739 0.61265 0.61916 0.0
C865 C 0.50093 0.63265 0.61094 0.0
C866 C 0.48711 0.62156 0.63158 0.0
C867 C 0.50087 0.65093 0.63594 0.0
C868 C 0.51384 0.6722 0.62762 0.0
C869 C 0.51361 0.66296 0.61523 0.0
C870 C 0.4728 0.5985 0.6401 0.0
C871 C 0.52885 0.70363 0.63188 0.0
C872 C 0.49321 0.69318 0.66739 0.0
C873 C 0.51058 0.67571 0.67397 0.0
C874 C 0.48923 0.68439 0.65513 0.0
C875 C 0.50307 0.65776 0.64926 0.0
C876 C 0.51997 0.6389 0.65601 0.0
C877 C 0.52342 0.64794 0.66826 0.0
C878 C 0.47081 0.70471 0.64833 0.0
C879 C 0.53515 0.61035 0.65013 0.0
H880 H 0.47745 0.58927 0.61595 0.0
H881 H 0.52421 0.6785 0.60899 0.0
H882 H 0.48389 0.58165 0.64609 0.0
H883 H 0.46254 0.61687 0.64601 0.0
H884 H 0.4613 0.57931 0.63516 0.0
H885 H 0.53679 0.71894 0.62421 0.0
H886 H 0.519 0.72368 0.63739 0.0
H887 H 0.54244 0.69229 0.63776 0.0
H888 H 0.48314 0.71462 0.67169 0.0
H889 H 0.53691 0.63426 0.67322 0.0
H890 H 0.45985 0.68456 0.64347 0.0
H891 H 0.47847 0.72331 0.64141 0.0
H892 H 0.46014 0.72185 0.65444 0.0
H893 H 0.52488 0.58838 0.6457 0.0
H894 H 0.54675 0.59688 0.65675 0.0
H895 H 0.54545 0.62394 0.64296 0.0
C896 C 0.78026 0.63872 0.67776 0.0
C897 C 0.79218 0.60668 0.68131 0.0
C898 C 0.78118 0.65192 0.66575 0.0
C899 C 0.79456 0.63291 0.65709 0.0
C900 C 0.80774 0.60199 0.6608 0.0
C901 C 0.80631 0.58914 0.67283 0.0
C902 C 0.7668 0.68493 0.66218 0.0
C903 C 0.82248 0.58127 0.65192 0.0
C904 C 0.77388 0.63883 0.62448 0.0
C905 C 0.78734 0.66755 0.6197 0.0
C906 C 0.77648 0.62671 0.63652 0.0
C907 C 0.79312 0.6434 0.64399 0.0
C908 C 0.80753 0.67111 0.63906 0.0
C909 C 0.80441 0.68297 0.627 0.0
C910 C 0.76073 0.59709 0.6414 0.0
C911 C 0.82568 0.68919 0.64666 0.0
H912 H 0.76923 0.65241 0.68421 0.0
H913 H 0.81569 0.56448 0.67549 0.0
H914 H 0.77712 0.70601 0.65731 0.0
H915 H 0.75328 0.67567 0.65588 0.0
H916 H 0.75876 0.69843 0.67014 0.0
H917 H 0.83369 0.56076 0.6565 0.0
H918 H 0.81168 0.56611 0.64534 0.0
H919 H 0.83308 0.60108 0.64667 0.0
H920 H 0.76063 0.62671 0.61896 0.0
H921 H 0.81495 0.70512 0.6234 0.0
H922 H 0.75026 0.60893 0.64879 0.0
H923 H 0.77058 0.57369 0.64533 0.0
H924 H 0.7493 0.58584 0.6343 0.0
H925 H 0.81776 0.70602 0.65393 0.0
H926 H 0.83681 0.7077 0.6412 0.0
H927 H 0.83624 0.66762 0.65113 0.0
C928 C 0.52245 0.44855 0.41298 0.0
C929 C 0.54458 0.46072 0.41525 0.0
C930 C 0.51681 0.43109 0.40195 0.0
C931 C 0.53363 0.42614 0.39293 0.0
C932 C 0.55548 0.44115 0.39483 0.0
C933 C 0.56071 0.45795 0.40598 0.0
C934 C 0.49333 0.41542 0.40034 0.0
C935 C 0.57385 0.43713 0.38544 0.0
C936 C 0.53089 0.34014 0.37278 0.0
C937 C 0.52252 0.35465 0.36183 0.0
C938 C 0.53424 0.36303 0.38295 0.0
C939 C 0.52931 0.40164 0.3822 0.0
C940 C 0.52096 0.4166 0.37117 0.0
C941 C 0.51758 0.39293 0.36114 0.0
C942 C 0.54308 0.34579 0.39454 0.0
C943 C 0.51569 0.45761 0.36995 0.0
H944 H 0.50996 0.45018 0.42015 0.0
H945 H 0.57784 0.46738 0.40767 0.0
H946 H 0.48654 0.42271 0.39126 0.0
H947 H 0.49401 0.38454 0.40093 0.0
H948 H 0.48147 0.42575 0.40737 0.0
H949 H 0.58889 0.45447 0.38759 0.0
H950 H 0.57923 0.40753 0.38496 0.0
H951 H 0.56748 0.44514 0.37633 0.0
H952 H 0.53465 0.31063 0.37348 0.0
H953 H 0.51107 0.40449 0.35275 0.0
H954 H 0.53118 0.35128 0.40209 0.0
H955 H 0.5595 0.35869 0.397 0.0
H956 H 0.54551 0.31518 0.39375 0.0
H957 H 0.50296 0.46584 0.37682 0.0
H958 H 0.50914 0.4649 0.36081 0.0
H959 H 0.53113 0.4743 0.37172 0.0
C960 C 0.28549 0.44887 0.37971 0.0
C961 C 0.26616 0.47126 0.37843 0.0
C962 C 0.29024 0.43035 0.3907 0.0
C963 C 0.27537 0.43433 0.40069 0.0
C964 C 0.25663 0.45868 0.39967 0.0
C965 C 0.25226 0.4768 0.38858 0.0
C966 C 0.31048 0.40483 0.39138 0.0
C967 C 0.24041 0.46398 0.41008 0.0
C968 C 0.2707 0.35254 0.42269 0.0
C969 C 0.28385 0.36452 0.43255 0.0
C970 C 0.26777 0.37506 0.41235 0.0
C971 C 0.27824 0.41058 0.41177 0.0
C972 C 0.29131 0.42309 0.42173 0.0
C973 C 0.29394 0.39997 0.432 0.0
C974 C 0.25361 0.36061 0.40198 0.0
C975 C 0.30272 0.46074 0.42149 0.0
H976 H 0.29636 0.44427 0.37195 0.0
H977 H 0.23733 0.49409 0.38774 0.0
H978 H 0.32063 0.41098 0.39959 0.0
H979 H 0.3047 0.37546 0.39211 0.0
H980 H 0.32152 0.40741 0.38327 0.0
H981 H 0.22806 0.48667 0.4083 0.0
H982 H 0.23093 0.43771 0.41167 0.0
H983 H 0.24975 0.47047 0.41854 0.0
H984 H 0.26281 0.32527 0.42299 0.0
H985 H 0.30419 0.40952 0.43952 0.0
H986 H 0.264 0.35899 0.39363 0.0
H987 H 0.23949 0.38013 0.4001 0.0
H988 H 0.24644 0.33255 0.40387 0.0
H989 H 0.31486 0.46204 0.41384 0.0
H990 H 0.31194 0.46675 0.43005 0.0
H991 H 0.29001 0.483 0.41996 0.0
C992 C 1.01176 0.09538 0.62412 0.0
C993 C 0.99345 0.07393 0.62 0.0
C994 C 1.01208 0.1102 0.63592 0.0
C995 C 0.9936 0.10361 0.64381 0.0
C996 C 0.97459 0.08362 0.63951 0.0
C997 C 0.97474 0.06904 0.62768 0.0
C998 C 0.03263 0.13157 0.64011 0.0
C999 C 0.95446 0.07622 0.64757 0.0
C1000 C 1.00588 0.1051 0.67776 0.0
C1001 C 0.99865 0.14095 0.68103 0.0
C1002 C 1.00401 0.09244 0.66573 0.0
C1003 C 0.99464 0.11611 0.65672 0.0
C1004 C 0.98673 0.15191 0.66002 0.0
C1005 C 0.98883 0.16387 0.67211 0.0
C1006 C 1.01258 0.054 0.6626 0.0
C1007 C 0.97655 0.17797 0.65073 0.0
H1008 H 1.02634 0.0993 0.6183 0.0
H1009 H 0.96047 0.05261 0.62462 0.0
H1010 H 0.02756 0.15902 0.64383 0.0
H1011 H 0.04116 0.11596 0.64751 0.0
H1012 H 0.04498 0.13621 0.63267 0.0
H1013 H 0.94034 0.06271 0.6426 0.0
H1014 H 0.95955 0.05778 0.65519 0.0
H1015 H 0.94825 0.10265 0.65157 0.0
H1016 H 1.01355 0.08718 0.68454 0.0
H1017 H 0.98316 0.19163 0.6745 0.0
H1018 H 1.02661 0.05626 0.65598 0.0
H1019 H 0.99896 0.03747 0.65826 0.0
H1020 H 1.01874 0.03856 0.6707 0.0
H1021 H 0.98938 0.18511 0.64377 0.0
H1022 H 0.97028 0.20423 0.65485 0.0
H1023 H 0.96233 0.16409 0.64599 0.0
C1024 C 0.3197 0.20128 0.63123 0.0
C1025 C 0.30306 0.19572 0.62233 0.0
C1026 C 0.31865 0.18286 0.64249 0.0
C1027 C 0.30047 0.15833 0.64497 0.0
C1028 C 0.28415 0.15135 0.63584 0.0
C1029 C 0.28568 0.16999 0.62462 0.0
C1030 C 0.33655 0.19081 0.6519 0.0
C1031 C 0.2645 0.12535 0.63809 0.0
C1032 C 0.30394 0.08935 0.67126 0.0
C1033 C 0.29095 0.10712 0.68021 0.0
C1034 C 0.30757 0.10597 0.65987 0.0
C1035 C 0.29795 0.14124 0.65728 0.0
C1036 C 0.28542 0.15986 0.66639 0.0
C1037 C 0.28212 0.14264 0.67774 0.0
C1038 C 0.32118 0.08528 0.65047 0.0
C1039 C 0.27493 0.19755 0.66403 0.0
H1040 H 0.33323 0.22101 0.62956 0.0
H1041 H 0.27266 0.16559 0.61785 0.0
H1042 H 0.32883 0.20548 0.65972 0.0
H1043 H 0.3438 0.16435 0.6554 0.0
H1044 H 0.35047 0.20834 0.64826 0.0
H1045 H 0.25387 0.12148 0.62988 0.0
H1046 H 0.27072 0.09769 0.64114 0.0
H1047 H 0.25375 0.13664 0.64546 0.0
H1048 H 0.31091 0.06193 0.67306 0.0
H1049 H 0.272 0.15659 0.68454 0.0
H1050 H 0.33508 0.10319 0.64703 0.0
H1051 H 0.31026 0.07832 0.64261 0.0
H1052 H 0.32855 0.05905 0.6541 0.0
H1053 H 0.28806 0.21768 0.66106 0.0
H1054 H 0.26634 0.20893 0.67217 0.0
H1055 H 0.26239 0.19534 0.65658 0.0
C1056 C 0.0372 0.80244 0.37751 0.0
C1057 C 1.02347 0.81972 0.36874 0.0
C1058 C 0.04335 0.82101 0.38826 0.0
C1059 C 0.03547 0.85771 0.39039 0.0
C1060 C 1.02154 0.87524 0.3816 0.0
C1061 C 1.0158 0.85615 0.37089 0.0
C1062 C 0.05839 0.80143 0.39732 0.0
C1063 C 1.01265 0.91424 0.38351 0.0
C1064 C 0.03395 0.89858 0.42233 0.0
C1065 C 0.05236 0.92329 0.42205 0.0
C1066 C 0.02858 0.87629 0.41223 0.0
C1067 C 0.04214 0.87827 0.40164 0.0
C1068 C 0.06144 0.90167 0.40158 0.0
C1069 C 0.0662 0.92404 0.41172 0.0
C1070 C 1.00773 0.85204 0.41267 0.0
C1071 C 0.07657 0.90429 0.39059 0.0
H1072 H 0.04324 0.77433 0.37597 0.0
H1073 H 1.00511 0.86974 0.36424 0.0
H1074 H 0.0741 0.81777 0.3987 0.0
H1075 H 0.04976 0.79951 0.40622 0.0
H1076 H 0.06304 0.77286 0.39436 0.0
H1077 H 1.00158 0.92365 0.37596 0.0
H1078 H 1.00292 0.91553 0.39209 0.0
H1079 H 0.02695 0.93409 0.38435 0.0
H1080 H 1.02301 0.89804 0.43021 0.0
H1081 H 0.08048 0.94297 0.41143 0.0
H1082 H 1.01196 0.82303 0.41005 0.0
H1083 H 0.99511 0.86253 0.40604 0.0
H1084 H 0.99985 0.85164 0.42181 0.0
H1085 H 0.08187 0.87605 0.38767 0.0
H1086 H 0.09192 0.92129 0.39235 0.0
H1087 H 0.06714 0.91711 0.38295 0.0
C1088 C 0.77091 0.90815 0.43516 0.0
C1089 C 0.76603 0.86983 0.43459 0.0
C1090 C 0.769 0.93111 0.42481 0.0
C1091 C 0.76222 0.91536 0.41362 0.0
C1092 C 0.757 0.87684 0.41305 0.0
C1093 C 0.75886 0.85468 0.42352 0.0
C1094 C 0.77447 0.9721 0.42582 0.0
C1095 C 0.74972 0.85879 0.40131 0.0
C1096 C 0.73573 0.96824 0.38743 0.0
C1097 C 0.75336 0.96857 0.37894 0.0
C1098 C 0.73891 0.95382 0.39916 0.0
C1099 C 0.76017 0.93875 0.40243 0.0
C1100 C 0.77852 0.9417 0.39421 0.0
C1101 C 0.77493 0.95683 0.38256 0.0
C1102 C 0.71898 0.95195 0.40768 0.0
C1103 C 0.80145 0.92595 0.3973 0.0
H1104 H 0.77654 0.92017 0.44364 0.0
H1105 H 0.75512 0.82514 0.42292 0.0
H1106 H 0.78897 0.97904 0.41985 0.0
H1107 H 0.7599 0.98903 0.42269 0.0
H1108 H 0.77876 0.98033 0.43525 0.0
H1109 H 0.74654 0.82841 0.40235 0.0
H1110 H 0.73404 0.87218 0.39791 0.0
H1111 H 0.76294 0.86287 0.3943 0.0
H1112 H 0.71904 0.97743 0.38468 0.0
H1113 H 0.78856 0.95667 0.376 0.0
H1114 H 0.72398 0.96064 0.41695 0.0
H1115 H 0.71283 0.92276 0.40826 0.0
H1116 H 0.7048 0.96987 0.40456 0.0
H1117 H 0.80663 0.93435 0.40657 0.0
H1118 H 0.81462 0.93515 0.39077 0.0
H1119 H 0.80061 0.89503 0.39715 0.0
C1120 C 0.99279 0.72013 0.16349 0.0
C1121 C 1.00651 0.70881 0.17321 0.0
C1122 C 0.99212 0.69985 0.15262 0.0
C1123 C 1.00591 0.66788 0.1513 0.0
C1124 C 1.01902 0.65533 0.16128 0.0
C1125 C 1.01899 0.67577 0.17217 0.0
C1126 C 0.97748 0.71373 0.14234 0.0
C1127 C 0.03415 0.62163 0.16022 0.0
C1128 C 0.99665 0.60106 0.12489 0.0
C1129 C 1.01282 0.61354 0.11649 0.0
C1130 C 0.99389 0.61882 0.13616 0.0
C1131 C 1.00793 0.64938 0.13921 0.0
C1132 C 1.02408 0.66239 0.13071 0.0
C1133 C 1.02618 0.64456 0.11942 0.0
C1134 C 0.97616 0.60458 0.14485 0.0
C1135 C 0.03958 0.69462 0.13364 0.0
H1136 H 0.98305 0.74561 0.16426 0.0
H1137 H 0.02982 0.66713 0.17959 0.0
H1138 H 0.98832 0.72462 0.13493 0.0
H1139 H 0.96729 0.69054 0.13854 0.0
H1140 H 0.96587 0.73632 0.14525 0.0
H1141 H 0.04196 0.61386 0.16904 0.0
H1142 H 1.02448 0.5974 0.15675 0.0
H1143 H 0.04783 0.62753 0.15361 0.0
H1144 H 0.98623 0.57712 0.1227 0.0
H1145 H 0.03889 0.65415 0.11306 0.0
H1146 H 0.9647 0.62762 0.14751 0.0
H1147 H 0.98435 0.59413 0.15325 0.0
H1148 H 0.96589 0.58169 0.14089 0.0
H1149 H 0.02948 0.7199 0.13566 0.0
H1150 H 0.05136 0.70117 0.12609 0.0
H1151 H 0.04965 0.68802 0.14186 0.0
C1152 C 0.28535 0.64888 0.17595 0.0
C1153 C 0.2999 0.62239 0.18116 0.0
C1154 C 0.28692 0.65853 0.16363 0.0
C1155 C 0.3036 0.64159 0.15627 0.0
C1156 C 0.31915 0.61638 0.16159 0.0
C1157 C 0.31709 0.60699 0.17396 0.0
C1158 C 0.26999 0.68561 0.15836 0.0
C1159 C 0.33738 0.59812 0.15412 0.0
C1160 C 0.28795 0.6371 0.1228 0.0
C1161 C 0.29843 0.66928 0.1182 0.0
C1162 C 0.29036 0.62679 0.13506 0.0
C1163 C 0.30377 0.64893 0.1429 0.0
C1164 C 0.31559 0.68 0.13812 0.0
C1165 C 0.31269 0.6899 0.12586 0.0
C1166 C 0.27741 0.59347 0.13976 0.0
C1167 C 0.33034 0.70402 0.14609 0.0
H1168 H 0.27202 0.66104 0.18139 0.0
H1169 H 0.32845 0.58651 0.17786 0.0
H1170 H 0.27885 0.70873 0.15364 0.0
H1171 H 0.25937 0.67118 0.15152 0.0
H1172 H 0.25875 0.69767 0.16539 0.0
H1173 H 0.34958 0.58235 0.15983 0.0
H1174 H 0.32957 0.57855 0.14757 0.0
H1175 H 0.34676 0.61937 0.1488 0.0
H1176 H 0.27685 0.62101 0.117 0.0
H1177 H 0.32098 0.71471 0.1224 0.0
H1178 H 0.2641 0.60297 0.14613 0.0
H1179 H 0.2888 0.57457 0.14488 0.0
H1180 H 0.26925 0.57741 0.13236 0.0
H1181 H 0.31958 0.72001 0.15246 0.0
H1182 H 0.34061 0.72409 0.14074 0.0
H1183 H 0.34184 0.68645 0.15162 0.0
C1184 C 1.02635 0.30822 0.88154 0.0
C1185 C 0.0475 0.2953 0.8777 0.0
C1186 C 1.02317 0.32083 0.89351 0.0
C1187 C 0.04148 0.31992 0.90182 0.0
C1188 C 0.06212 0.3033 0.89827 0.0
C1189 C 0.06495 0.2916 0.88623 0.0
C1190 C 1.0009 0.33842 0.89687 0.0
C1191 C 0.08195 0.30095 0.90686 0.0
C1192 C 0.04639 0.40023 0.9241 0.0
C1193 C 0.03828 0.3845 0.93493 0.0
C1194 C 0.04741 0.37947 0.91335 0.0
C1195 C 0.04042 0.34167 0.91336 0.0
C1196 C 0.03281 0.32518 0.92431 0.0
C1197 C 0.03171 0.34682 0.93495 0.0
C1198 C 0.05562 0.39833 0.90189 0.0
C1199 C 1.02551 0.28487 0.92473 0.0
H1200 H 1.01291 0.31156 0.87494 0.0
H1201 H 0.08133 0.28156 0.88329 0.0
H1202 H 0.99537 0.32901 0.90599 0.0
H1203 H 1.00295 0.36917 0.89722 0.0
H1204 H 0.98742 0.33178 0.8902 0.0
H1205 H 0.09522 0.28172 0.90347 0.0
H1206 H 0.08955 0.32906 0.90792 0.0
H1207 H 0.07642 0.2914 0.91596 0.0
H1208 H 0.05148 0.42928 0.92391 0.0
H1209 H 1.02533 0.33438 0.94324 0.0
H1210 H 0.04235 0.39691 0.89479 0.0
H1211 H 0.07071 0.38363 0.89835 0.0
H1212 H 0.0601 0.42807 0.90336 0.0
H1213 H 1.01048 0.28082 0.91886 0.0
H1214 H 1.02123 0.27559 0.93408 0.0
H1215 H 0.03911 0.26672 0.92115 0.0
C1216 C 0.76683 0.39183 0.92852 0.0
C1217 C 0.75999 0.35449 0.92962 0.0
C1218 C 0.76638 0.41027 0.91724 0.0
C1219 C 0.75904 0.3909 0.90676 0.0
C1220 C 0.75159 0.35352 0.90786 0.0
C1221 C 0.75207 0.33586 0.91925 0.0
C1222 C 0.77424 0.45028 0.91649 0.0
C1223 C 0.74367 0.33182 0.89693 0.0
C1224 C 0.74143 0.44827 0.87921 0.0
C1225 C 0.76115 0.44793 0.87212 0.0
C1226 C 0.74041 0.4295 0.8904 0.0
C1227 C 0.75951 0.40957 0.89463 0.0
C1228 C 0.77923 0.40809 0.88735 0.0
C1229 C 0.77984 0.42735 0.87622 0.0
C1230 C 0.71909 0.43187 0.89787 0.0
C1231 C 0.79987 0.3868 0.89146 0.0
H1232 H 0.77299 0.40651 0.93644 0.0
H1233 H 0.74678 0.30699 0.91995 0.0
H1234 H 0.78937 0.4522 0.91059 0.0
H1235 H 0.7609 0.46787 0.91231 0.0
H1236 H 0.77854 0.46191 0.92553 0.0
H1237 H 0.73775 0.30336 0.89936 0.0
H1238 H 0.72969 0.34684 0.89234 0.0
H1239 H 0.75767 0.32933 0.8903 0.0
H1240 H 0.72689 0.46411 0.87618 0.0
H1241 H 0.79515 0.42688 0.87084 0.0
H1242 H 0.72274 0.44602 0.90659 0.0
H1243 H 0.71283 0.40349 0.90007 0.0
H1244 H 0.70545 0.44742 0.89313 0.0
H1245 H 0.80656 0.39917 0.89995 0.0
H1246 H 0.81351 0.38703 0.88454 0.0
H1247 H 0.79532 0.35743 0.8935 0.0
C1248 C 0.36157 0.83262 0.09203 0.0
C1249 C 0.34349 0.8544 0.09626 0.0
C1250 C 0.38369 0.84677 0.09162 0.0
C1251 C 0.38801 0.88357 0.0956 0.0
C1252 C 0.36986 0.90596 0.0997 0.0
C1253 C 0.34785 0.89116 0.09995 0.0
C1254 C 0.40254 0.82199 0.08716 0.0
C1255 C 0.37375 0.94538 0.104 0.0
C1256 C 0.44742 0.90693 0.10642 0.0
C1257 C 0.45638 0.92615 0.09642 0.0
C1258 C 0.42524 0.89294 0.10627 0.0
C1259 C 0.41162 0.89819 0.09584 0.0
C1260 C 0.4206 0.91723 0.08566 0.0
C1261 C 0.44283 0.93097 0.08607 0.0
C1262 C 0.4163 0.87287 0.11733 0.0
C1263 C 0.4067 0.92314 0.07433 0.0
H1264 H 0.35864 0.80405 0.08933 0.0
H1265 H 0.33404 0.90841 0.10308 0.0
H1266 H 0.41191 0.83601 0.07972 0.0
H1267 H 0.41475 0.81681 0.09461 0.0
H1268 H 0.39624 0.79469 0.08381 0.0
H1269 H 0.35779 0.95948 0.10663 0.0
H1270 H 0.38529 0.94522 0.11194 0.0
H1271 H 0.38205 0.96201 0.09677 0.0
H1272 H 0.45757 0.90352 0.11452 0.0
H1273 H 0.44968 0.94535 0.07825 0.0
H1274 H 0.41082 0.84429 0.11485 0.0
H1275 H 0.40126 0.88769 0.12088 0.0
H1276 H 0.42909 0.87083 0.12467 0.0
H1277 H 0.40124 0.89584 0.07062 0.0
H1278 H 0.41616 0.93845 0.06718 0.0
H1279 H 0.39118 0.93908 0.07653 0.0
C1280 C 0.86165 0.33039 0.09102 0.0
C1281 C 0.84371 0.3511 0.09589 0.0
C1282 C 0.88396 0.34372 0.09145 0.0
C1283 C 0.88853 0.3786 0.09691 0.0
C1284 C 0.87052 0.39965 0.10186 0.0
C1285 C 0.84834 0.3857 0.10125 0.0
C1286 C 0.90262 0.32056 0.08597 0.0
C1287 C 0.87471 0.43688 0.10782 0.0
C1288 C 0.94856 0.39851 0.10757 0.0
C1289 C 0.95679 0.42143 0.09824 0.0
C1290 C 0.9264 0.3844 0.10727 0.0
C1291 C 0.91213 0.39321 0.09735 0.0
C1292 C 0.92043 0.41597 0.08783 0.0
C1293 C 0.9426 0.42985 0.0884 0.0
C1294 C 0.91816 0.36037 0.11763 0.0
C1295 C 0.90586 0.4257 0.07702 0.0
H1296 H 0.85821 0.30396 0.08667 0.0
H1297 H 0.83463 0.40168 0.10514 0.0
H1298 H 0.91117 0.33658 0.07867 0.0
H1299 H 0.91555 0.31406 0.09295 0.0
H1300 H 0.89628 0.29395 0.08211 0.0
H1301 H 0.85892 0.44965 0.11132 0.0
H1302 H 0.88675 0.4335 0.11546 0.0
H1303 H 0.88254 0.45642 0.10123 0.0
H1304 H 0.95929 0.39224 0.11527 0.0
H1305 H 0.94893 0.44708 0.08107 0.0
H1306 H 0.91267 0.33278 0.11417 0.0
H1307 H 0.90326 0.37354 0.12196 0.0
H1308 H 0.93137 0.35596 0.12465 0.0
H1309 H 0.90017 0.39986 0.07243 0.0
H1310 H 0.91491 0.44343 0.07032 0.0
H1311 H 0.89051 0.44072 0.08007 0.0
C1312 C 0.46282 0.39548 0.1938 0.0
C1313 C 0.46741 0.36247 0.20016 0.0
C1314 C 0.44109 0.41123 0.19388 0.0
C1315 C 0.42368 0.39388 0.20067 0.0
C1316 C 0.42831 0.3607 0.2072 0.0
C1317 C 0.45007 0.34527 0.20679 0.0
C1318 C 0.43672 0.44632 0.18665 0.0
C1319 C 0.41034 0.34172 0.21473 0.0
C1320 C 0.37357 0.45288 0.21035 0.0
C1321 C 0.35683 0.44141 0.20217 0.0
C1322 C 0.39538 0.43759 0.20998 0.0
C1323 C 0.40068 0.4106 0.20108 0.0
C1324 C 0.38389 0.39917 0.19271 0.0
C1325 C 0.3621 0.41448 0.19343 0.0
C1326 C 0.41267 0.44999 0.21921 0.0
C1327 C 0.38898 0.37087 0.18298 0.0
H1328 H 0.47616 0.40859 0.18859 0.0
H1329 H 0.45367 0.32005 0.21187 0.0
H1330 H 0.42285 0.44146 0.18006 0.0
H1331 H 0.43117 0.46901 0.19278 0.0
H1332 H 0.45193 0.45587 0.18162 0.0
H1333 H 0.41675 0.31627 0.21936 0.0
H1334 H 0.40389 0.36126 0.2217 0.0
H1335 H 0.39583 0.3338 0.20891 0.0
H1336 H 0.36944 0.47334 0.21721 0.0
H1337 H 0.34923 0.40591 0.18702 0.0
H1338 H 0.4276 0.46203 0.21456 0.0
H1339 H 0.41863 0.42562 0.22454 0.0
H1340 H 0.40581 0.47112 0.22557 0.0
H1341 H 0.40335 0.38062 0.17734 0.0
H1342 H 0.37423 0.36573 0.17697 0.0
H1343 H 0.39409 0.34404 0.18719 0.0
C1344 C 0.86138 0.91737 0.20037 0.0
C1345 C 0.85795 0.94832 0.20788 0.0
C1346 C 0.88282 0.90093 0.19931 0.0
C1347 C 0.90114 0.9154 0.2061 0.0
C1348 C 0.89771 0.94652 0.21376 0.0
C1349 C 0.87619 0.9628 0.21447 0.0
C1350 C 0.88588 0.86819 0.19089 0.0
C1351 C 0.9167 0.96235 0.22132 0.0
C1352 C 0.95106 0.85147 0.21224 0.0
C1353 C 0.96709 0.86483 0.20395 0.0
C1354 C 0.92957 0.86778 0.21308 0.0
C1355 C 0.92386 0.8978 0.20529 0.0
C1356 C 0.93992 0.91117 0.19681 0.0
C1357 C 0.96143 0.89472 0.19632 0.0
C1358 C 0.91307 0.85315 0.22239 0.0
C1359 C 0.93434 0.9427 0.18822 0.0
H1360 H 0.84733 0.90643 0.19517 0.0
H1361 H 0.87348 0.98644 0.22039 0.0
H1362 H 0.89917 0.87462 0.1841 0.0
H1363 H 0.89161 0.84344 0.1961 0.0
H1364 H 0.87005 0.8609 0.18602 0.0
H1365 H 0.91118 0.98641 0.2269 0.0
H1366 H 0.92351 0.94045 0.22744 0.0
H1367 H 0.93074 0.97155 0.21536 0.0
H1368 H 0.95551 0.82865 0.21824 0.0
H1369 H 0.97372 0.90478 0.18981 0.0
H1370 H 0.8975 0.84314 0.21784 0.0
H1371 H 0.90805 0.87592 0.22862 0.0
H1372 H 0.92023 0.82989 0.22785 0.0
H1373 H 0.91927 0.93536 0.18272 0.0
H1374 H 0.94854 0.94927 0.18198 0.0
H1375 H 0.93009 0.96817 0.19342 0.0
C1376 C 0.69527 0.13212 0.95153 0.0
C1377 C 0.70135 0.16649 0.94638 0.0
C1378 C 0.67271 0.11982 0.95144 0.0
C1379 C 0.65584 0.14221 0.94593 0.0
C1380 C 0.66199 0.17649 0.94044 0.0
C1381 C 0.68463 0.1883 0.9408 0.0
C1382 C 0.66684 0.08332 0.95754 0.0
C1383 C 0.64461 0.20093 0.93432 0.0
C1384 C 0.60004 0.09533 0.93787 0.0
C1385 C 0.58618 0.10628 0.94753 0.0
C1386 C 0.62262 0.10732 0.9371 0.0
C1387 C 0.63167 0.13041 0.94631 0.0
C1388 C 0.61769 0.14178 0.95604 0.0
C1389 C 0.59511 0.12978 0.95649 0.0
C1390 C 0.63686 0.09501 0.92649 0.0
C1391 C 0.62673 0.16597 0.96614 0.0
H1392 H 0.70805 0.11536 0.95598 0.0
H1393 H 0.68929 0.21465 0.93667 0.0
H1394 H 0.65499 0.08843 0.96515 0.0
H1395 H 0.65813 0.06461 0.95104 0.0
H1396 H 0.68199 0.06873 0.96113 0.0
H1397 H 0.6523 0.22583 0.92995 0.0
H1398 H 0.63535 0.18478 0.92733 0.0
H1399 H 0.632 0.21046 0.94107 0.0
H1400 H 0.59315 0.07738 0.9309 0.0
H1401 H 0.58463 0.13783 0.96409 0.0
H1402 H 0.65132 0.07811 0.92977 0.0
H1403 H 0.64396 0.11971 0.92175 0.0
H1404 H 0.62708 0.0782 0.91986 0.0
H1405 H 0.64093 0.15158 0.97075 0.0
H1406 H 0.61361 0.17268 0.97299 0.0
H1407 H 0.63345 0.19245 0.96237 0.0
C1408 C 0.19985 0.62958 0.94178 0.0
C1409 C 0.20426 0.6626 0.9482 0.0
C1410 C 0.17816 0.61355 0.94162 0.0
C1411 C 0.16026 0.63105 0.94793 0.0
C1412 C 0.16452 0.66433 0.95442 0.0
C1413 C 0.18642 0.67957 0.95453 0.0
C1414 C 0.17437 0.57793 0.93463 0.0
C1415 C 0.1459 0.68395 0.96125 0.0
C1416 C 0.09994 0.60905 0.93817 0.0
C1417 C 0.09301 0.5833 0.94706 0.0
C1418 C 0.12167 0.62493 0.9384 0.0
C1419 C 0.13704 0.61468 0.94767 0.0
C1420 C 0.13023 0.58875 0.95666 0.0
C1421 C 0.10833 0.57355 0.95628 0.0
C1422 C 0.1282 0.65262 0.92867 0.0
C1423 C 0.14612 0.57699 0.96668 0.0
H1424 H 0.21329 0.61636 0.93673 0.0
H1425 H 0.18954 0.70466 0.95969 0.0
H1426 H 0.16751 0.55606 0.94074 0.0
H1427 H 0.16168 0.58265 0.92738 0.0
H1428 H 0.19014 0.56733 0.93041 0.0
H1429 H 0.15192 0.70972 0.96579 0.0
H1430 H 0.13203 0.69146 0.95493 0.0
H1431 H 0.13868 0.66502 0.96821 0.0
H1432 H 0.08851 0.61652 0.9309 0.0
H1433 H 0.10319 0.55423 0.96331 0.0
H1434 H 0.14291 0.642 0.9235 0.0
H1435 H 0.13339 0.67937 0.93287 0.0
H1436 H 0.11418 0.6582 0.92221 0.0
H1437 H 0.16164 0.56464 0.96274 0.0
H1438 H 0.13834 0.55628 0.97292 0.0
H1439 H 0.15137 0.60168 0.97203 0.0
C1440 C 0.60756 0.64111 0.85164 0.0
C1441 C 0.60328 0.678 0.84801 0.0
C1442 C 0.62972 0.62688 0.85202 0.0
C1443 C 0.64813 0.65008 0.84873 0.0
C1444 C 0.64391 0.68719 0.84494 0.0
C1445 C 0.62162 0.70066 0.84463 0.0
C1446 C 0.63344 0.58709 0.85605 0.0
C1447 C 0.66301 0.71296 0.84141 0.0
C1448 C 0.70668 0.62699 0.86105 0.0
C1449 C 0.71701 0.60969 0.85108 0.0
C1450 C 0.68433 0.64013 0.86041 0.0
C1451 C 0.67184 0.63591 0.84954 0.0
C1452 C 0.68213 0.61857 0.83942 0.0
C1453 C 0.70454 0.60573 0.84031 0.0
C1454 C 0.67402 0.65841 0.87142 0.0
C1455 C 0.66947 0.61365 0.82764 0.0
H1456 H 0.59355 0.62326 0.85414 0.0
H1457 H 0.61865 0.72936 0.84202 0.0
H1458 H 0.6426 0.57145 0.84892 0.0
H1459 H 0.64414 0.58657 0.86432 0.0
H1460 H 0.61733 0.57239 0.85805 0.0
H1461 H 0.65688 0.74065 0.83829 0.0
H1462 H 0.67445 0.71712 0.84926 0.0
H1463 H 0.67318 0.70027 0.83405 0.0
H1464 H 0.71592 0.62973 0.86947 0.0
H1465 H 0.71237 0.59287 0.8325 0.0
H1466 H 0.65875 0.64279 0.8743 0.0
H1467 H 0.66858 0.68719 0.86914 0.0
H1468 H 0.68597 0.65969 0.87918 0.0
H1469 H 0.65381 0.59734 0.82923 0.0
H1470 H 0.67974 0.59917 0.82067 0.0
H1471 H 0.66433 0.64126 0.82402 0.0
C1472 C 0.15273 0.2636 0.83721 0.0
C1473 C 0.13058 0.24947 0.83772 0.0
C1474 C 0.1716 0.24028 0.83883 0.0
C1475 C 0.1684 0.20177 0.84115 0.0
C1476 C 0.14617 0.18724 0.84169 0.0
C1477 C 0.1276 0.21113 0.83991 0.0
C1478 C 0.195 0.25693 0.83813 0.0
C1479 C 0.14198 0.14638 0.84418 0.0
C1480 C 0.21714 0.13457 0.83532 0.0
C1481 C 0.22616 0.12971 0.84699 0.0
C1482 C 0.19843 0.15798 0.83327 0.0
C1483 C 0.18831 0.17682 0.84316 0.0
C1484 C 0.19728 0.17191 0.85497 0.0
C1485 C 0.21611 0.14859 0.85673 0.0
C1486 C 0.18957 0.16271 0.82052 0.0
C1487 C 0.18688 0.1911 0.86578 0.0
H1488 H 0.15542 0.29309 0.8357 0.0
H1489 H 0.11072 0.19955 0.84015 0.0
H1490 H 0.20384 0.25311 0.84692 0.0
H1491 H 0.20509 0.24229 0.83113 0.0
H1492 H 0.19468 0.28717 0.83591 0.0
H1493 H 0.12369 0.13943 0.84439 0.0
H1494 H 0.15023 0.12917 0.83712 0.0
H1495 H 0.14958 0.13844 0.85302 0.0
H1496 H 0.22493 0.12044 0.82773 0.0
H1497 H 0.22272 0.1446 0.8658 0.0
H1498 H 0.19026 0.19255 0.81786 0.0
H1499 H 0.17161 0.15395 0.82008 0.0
H1500 H 0.19934 0.14621 0.81382 0.0
H1501 H 0.18727 0.22177 0.86445 0.0
H1502 H 0.19577 0.18426 0.87438 0.0
H1503 H 0.16889 0.18281 0.86667 0.0
C1504 C 0.42643 0.4695 0.58494 0.0
C1505 C 0.44629 0.44996 0.58779 0.0
C1506 C 0.40505 0.45307 0.58648 0.0
C1507 C 0.40341 0.41621 0.59103 0.0
C1508 C 0.42337 0.3964 0.59401 0.0
C1509 C 0.44453 0.41346 0.59232 0.0
C1510 C 0.38421 0.47507 0.58311 0.0
C1511 C 0.42236 0.35713 0.59896 0.0
C1512 C 0.34784 0.38451 0.60512 0.0
C1513 C 0.33825 0.36332 0.59574 0.0
C1514 C 0.36896 0.40195 0.6037 0.0
C1515 C 0.38082 0.39827 0.59262 0.0
C1516 C 0.37115 0.37725 0.58307 0.0
C1517 C 0.35004 0.36003 0.58475 0.0
C1518 C 0.37871 0.42395 0.61412 0.0
C1519 C 0.38316 0.37283 0.57109 0.0
H1520 H 0.42761 0.49746 0.58126 0.0
H1521 H 0.45975 0.39832 0.59468 0.0
H1522 H 0.37464 0.46019 0.57595 0.0
H1523 H 0.37291 0.47755 0.59109 0.0
H1524 H 0.38835 0.50353 0.57978 0.0
H1525 H 0.4394 0.34566 0.60094 0.0
H1526 H 0.41223 0.35654 0.60742 0.0
H1527 H 0.41383 0.33857 0.59235 0.0
H1528 H 0.33906 0.38682 0.61369 0.0
H1529 H 0.34266 0.34416 0.57741 0.0
H1530 H 0.38212 0.45306 0.61121 0.0
H1531 H 0.39509 0.41165 0.61695 0.0
H1532 H 0.36726 0.42454 0.62209 0.0
H1533 H 0.38649 0.40062 0.56702 0.0
H1534 H 0.37325 0.35596 0.56453 0.0
H1535 H 0.39976 0.35917 0.57252 0.0
C1536 C 0.86371 0.82164 0.5929 0.0
C1537 C 0.84567 0.8456 0.59567 0.0
C1538 C 0.88622 0.83405 0.59335 0.0
C1539 C 0.89093 0.8714 0.59662 0.0
C1540 C 0.87284 0.89576 0.59943 0.0
C1541 C 0.85047 0.88258 0.59892 0.0
C1542 C 0.90498 0.80721 0.59024 0.0
C1543 C 0.87713 0.93578 0.60298 0.0
C1544 C 0.9496 0.89617 0.60834 0.0
C1545 C 0.95963 0.9126 0.5981 0.0
C1546 C 0.92737 0.88237 0.60796 0.0
C1547 C 0.91476 0.88504 0.59707 0.0
C1548 C 0.92487 0.90104 0.58665 0.0
C1549 C 0.94714 0.91454 0.58728 0.0
C1550 C 0.91724 0.86547 0.61928 0.0
C1551 C 0.91206 0.90427 0.57484 0.0
H1552 H 0.86025 0.79324 0.59016 0.0
H1553 H 0.83673 0.9012 0.60119 0.0
H1554 H 0.91475 0.81796 0.5824 0.0
H1555 H 0.91687 0.80475 0.59799 0.0
H1556 H 0.89853 0.77896 0.58799 0.0
H1557 H 0.86125 0.95116 0.60489 0.0
H1558 H 0.88801 0.93677 0.61117 0.0
H1559 H 0.88632 0.95044 0.59561 0.0
H1560 H 0.95889 0.89494 0.61679 0.0
H1561 H 0.9548 0.92669 0.57928 0.0
H1562 H 0.91136 0.83666 0.61741 0.0
H1563 H 0.90227 0.88187 0.62211 0.0
H1564 H 0.92944 0.86459 0.62693 0.0
H1565 H 0.90632 0.8763 0.57185 0.0
H1566 H 0.92243 0.91692 0.56751 0.0
H1567 H 0.89675 0.9216 0.57615 0.0
C1568 C 0.4409 0.83222 0.70462 0.0
C1569 C 0.45861 0.85344 0.69969 0.0
C1570 C 0.41858 0.84548 0.7046 0.0
C1571 C 0.41375 0.88081 0.69945 0.0
C1572 C 0.43155 0.90249 0.69452 0.0
C1573 C 0.45378 0.88862 0.69475 0.0
C1574 C 0.40017 0.82164 0.71008 0.0
C1575 C 0.42708 0.94018 0.68887 0.0
C1576 C 0.35329 0.89853 0.68913 0.0
C1577 C 0.34469 0.92007 0.69868 0.0
C1578 C 0.37576 0.88589 0.68922 0.0
C1579 C 0.39 0.89477 0.69913 0.0
C1580 C 0.38142 0.91639 0.70881 0.0
C1581 C 0.35891 0.92885 0.70845 0.0
C1582 C 0.38429 0.8631 0.67868 0.0
C1583 C 0.39596 0.92615 0.7196 0.0
H1584 H 0.44453 0.80534 0.70867 0.0
H1585 H 0.46734 0.90501 0.69085 0.0
H1586 H 0.39147 0.83719 0.7174 0.0
H1587 H 0.3873 0.81495 0.70309 0.0
H1588 H 0.40678 0.79511 0.7139 0.0
H1589 H 0.44277 0.95371 0.68552 0.0
H1590 H 0.41514 0.93719 0.68117 0.0
H1591 H 0.41899 0.95885 0.6956 0.0
H1592 H 0.34257 0.89209 0.68146 0.0
H1593 H 0.35233 0.9451 0.71592 0.0
H1594 H 0.38994 0.83532 0.68192 0.0
H1595 H 0.39913 0.87701 0.67451 0.0
H1596 H 0.37119 0.85906 0.67158 0.0
H1597 H 0.40186 0.90027 0.72414 0.0
H1598 H 0.3868 0.94343 0.72635 0.0
H1599 H 0.41119 0.9416 0.71657 0.0
C1600 C 0.85895 0.43115 0.70984 0.0
C1601 C 0.84121 0.41454 0.70334 0.0
C1602 C 0.88054 0.41495 0.7102 0.0
C1603 C 0.88459 0.38134 0.70386 0.0
C1604 C 0.86679 0.36445 0.69725 0.0
C1605 C 0.84532 0.38118 0.69711 0.0
C1606 C 0.89899 0.4337 0.71743 0.0
C1607 C 0.87045 0.32873 0.69031 0.0
C1608 C 0.94526 0.35645 0.6958 0.0
C1609 C 0.95056 0.32978 0.7047 0.0
C1610 C 0.92389 0.37346 0.69542 0.0
C1611 C 0.90741 0.36375 0.70419 0.0
C1612 C 0.91273 0.33716 0.71327 0.0
C1613 C 0.9342 0.32046 0.7134 0.0
C1614 C 0.91885 0.40154 0.68556 0.0
C1615 C 0.89573 0.3263 0.72286 0.0
H1616 H 0.85586 0.45656 0.71485 0.0
H1617 H 0.83179 0.3684 0.69196 0.0
H1618 H 0.9053 0.41445 0.72456 0.0
H1619 H 0.91348 0.44048 0.71144 0.0
H1620 H 0.89312 0.4598 0.72182 0.0
H1621 H 0.85492 0.31927 0.68556 0.0
H1622 H 0.88405 0.33269 0.68351 0.0
H1623 H 0.87604 0.30632 0.69659 0.0
H1624 H 0.95768 0.36346 0.68896 0.0
H1625 H 0.93826 0.30028 0.72039 0.0
H1626 H 0.91394 0.42859 0.68964 0.0
H1627 H 0.90434 0.39182 0.68002 0.0
H1628 H 0.93353 0.40622 0.67947 0.0
H1629 H 0.89034 0.35135 0.72798 0.0
H1630 H 0.90259 0.30549 0.72937 0.0
H1631 H 0.88043 0.31442 0.71851 0.0
C1632 C 0.62649 0.56538 0.45271 0.0
C1633 C 0.63048 0.52726 0.45483 0.0
C1634 C 0.64445 0.59087 0.45137 0.0
C1635 C 0.66705 0.57818 0.45227 0.0
C1636 C 0.67123 0.53989 0.45448 0.0
C1637 C 0.65299 0.51497 0.45566 0.0
C1638 C 0.63922 0.63143 0.44897 0.0
C1639 C 0.69505 0.52513 0.45554 0.0
C1640 C 0.71467 0.63465 0.43786 0.0
C1641 C 0.72388 0.6534 0.44788 0.0
C1642 C 0.69603 0.61061 0.43914 0.0
C1643 C 0.68636 0.60477 0.45074 0.0
C1644 C 0.6955 0.62373 0.46089 0.0
C1645 C 0.71404 0.6479 0.45933 0.0
C1646 C 0.68669 0.59135 0.42805 0.0
C1647 C 0.68589 0.61805 0.47343 0.0
H1648 H 0.60932 0.57555 0.45221 0.0
H1649 H 0.65648 0.48569 0.4571 0.0
H1650 H 0.6465 0.64897 0.45626 0.0
H1651 H 0.64713 0.64038 0.44032 0.0
H1652 H 0.62077 0.63687 0.44843 0.0
H1653 H 0.69548 0.4948 0.45761 0.0
H1654 H 0.7043 0.5301 0.44694 0.0
H1655 H 0.70425 0.54022 0.4628 0.0
H1656 H 0.72189 0.63914 0.42896 0.0
H1657 H 0.72116 0.66194 0.46713 0.0
H1658 H 0.66852 0.59813 0.42695 0.0
H1659 H 0.68798 0.56067 0.42917 0.0
H1660 H 0.69575 0.59952 0.41963 0.0
H1661 H 0.66765 0.62513 0.4735 0.0
H1662 H 0.69463 0.63532 0.48035 0.0
H1663 H 0.68738 0.58828 0.47608 0.0
C1664 C 0.10977 0.12823 0.44364 0.0
C1665 C 0.10645 0.09035 0.44645 0.0
C1666 C 0.1314 0.14452 0.44395 0.0
C1667 C 0.15033 0.12262 0.44726 0.0
C1668 C 0.1471 0.08464 0.4504 0.0
C1669 C 0.12529 0.06897 0.44992 0.0
C1670 C 0.13403 0.18508 0.44051 0.0
C1671 C 0.16679 0.0603 0.45404 0.0
C1672 C 0.20837 0.1527 0.43587 0.0
C1673 C 0.21763 0.17049 0.44606 0.0
C1674 C 0.18658 0.1371 0.43615 0.0
C1675 C 0.1736 0.13903 0.44692 0.0
C1676 C 0.18282 0.1569 0.45726 0.0
C1677 C 0.20465 0.17253 0.45669 0.0
C1678 C 0.17737 0.11873 0.42488 0.0
C1679 C 0.16966 0.15932 0.46895 0.0
H1680 H 0.09543 0.14536 0.44118 0.0
H1681 H 0.12316 0.03968 0.452 0.0
H1682 H 0.14233 0.20059 0.44798 0.0
H1683 H 0.14507 0.18759 0.43242 0.0
H1684 H 0.11758 0.1986 0.43845 0.0
H1685 H 0.16134 0.03195 0.4569 0.0
H1686 H 0.17865 0.05755 0.44631 0.0
H1687 H 0.17626 0.07337 0.4616 0.0
H1688 H 0.21806 0.15147 0.42756 0.0
H1689 H 0.21171 0.18584 0.46464 0.0
H1690 H 0.16161 0.13291 0.42197 0.0
H1691 H 0.17301 0.08922 0.42683 0.0
H1692 H 0.18959 0.11945 0.41724 0.0
H1693 H 0.15354 0.17434 0.46739 0.0
H1694 H 0.17922 0.17391 0.4762 0.0
H1695 H 0.1653 0.13089 0.47219 0.0
C1696 C 0.65508 0.02437 0.32892 0.0
C1697 C 0.67304 0.02511 0.33725 0.0
C1698 C 0.63633 0.04809 0.3302 0.0
C1699 C 0.63539 0.07321 0.34008 0.0
C1700 C 0.65356 0.07445 0.34844 0.0
C1701 C 0.67213 0.05046 0.34692 0.0
C1702 C 0.61739 0.04602 0.32104 0.0
C1703 C 0.65321 0.10066 0.35913 0.0
C1704 C 0.59494 0.15599 0.33877 0.0
C1705 C 0.57674 0.14322 0.34582 0.0
C1706 C 0.61405 0.13349 0.33675 0.0
C1707 C 0.61507 0.09729 0.34191 0.0
C1708 C 0.59669 0.0841 0.34893 0.0
C1709 C 0.57781 0.10712 0.35078 0.0
C1710 C 0.63327 0.14862 0.32921 0.0
C1711 C 0.59702 0.04566 0.35456 0.0
H1712 H 0.65574 1.00535 0.32132 0.0
H1713 H 0.68573 0.05098 0.35349 0.0
H1714 H 0.60148 0.03769 0.32562 0.0
H1715 H 0.61451 0.07387 0.31692 0.0
H1716 H 0.62096 0.02574 0.31369 0.0
H1717 H 0.66899 0.09916 0.36457 0.0
H1718 H 0.65086 0.12979 0.35596 0.0
H1719 H 0.63871 0.0938 0.36511 0.0
H1720 H 0.59449 0.18389 0.33501 0.0
H1721 H 0.56375 0.09664 0.35606 0.0
H1722 H 0.63672 0.12968 0.32149 0.0
H1723 H 0.64889 0.14991 0.33476 0.0
H1724 H 0.62967 0.17694 0.32558 0.0
H1725 H 0.59901 0.02425 0.3474 0.0
H1726 H 0.58136 0.0395 0.35975 0.0
H1727 H 0.61169 0.04301 0.36077 0.0
C1728 C 0.16597 0.53174 0.33407 0.0
C1729 C 0.17046 0.50718 0.34368 0.0
C1730 C 0.14651 0.55428 0.33406 0.0
C1731 C 0.13149 0.55287 0.34406 0.0
C1732 C 0.13626 0.52864 0.35391 0.0
C1733 C 0.15552 0.50581 0.35352 0.0
C1734 C 0.1418 0.57905 0.32326 0.0
C1735 C 0.12103 0.52686 0.36488 0.0
C1736 C 0.09076 0.63347 0.34948 0.0
C1737 C 0.07016 0.61797 0.34575 0.0
C1738 C 0.11091 0.61275 0.34891 0.0
C1739 C 0.11052 0.57603 0.34418 0.0
C1740 C 0.08983 0.56079 0.34002 0.0
C1741 C 0.06987 0.58175 0.34102 0.0
C1742 C 0.13247 0.62973 0.3537 0.0
C1743 C 0.08873 0.52217 0.33463 0.0
H1744 H 0.17746 0.53263 0.32642 0.0
H1745 H 0.15915 0.48724 0.36104 0.0
H1746 H 0.12532 0.57136 0.31916 0.0
H1747 H 0.14052 0.60855 0.32618 0.0
H1748 H 0.15512 0.57691 0.31621 0.0
H1749 H 0.12767 0.50786 0.37201 0.0
H1750 H 0.11902 0.55512 0.36881 0.0
H1751 H 0.10399 0.51706 0.36217 0.0
H1752 H 0.09092 0.66138 0.35322 0.0
H1753 H 0.05398 0.56997 0.338 0.0
H1754 H 0.14568 0.6296 0.34658 0.0
H1755 H 0.1389 0.61275 0.36139 0.0
H1756 H 0.13003 0.65885 0.35686 0.0
H1757 H 0.10116 0.51959 0.32715 0.0
H1758 H 0.07166 0.51543 0.33105 0.0
H1759 H 0.09325 0.50113 0.34161 0.0
C1760 C 0.52655 1.00819 0.04829 0.0
C1761 C 0.50815 0.02936 0.05243 0.0
C1762 C 0.5287 0.99847 0.03601 0.0
C1763 C 0.51229 0.01075 0.02755 0.0
C1764 C 0.49394 0.03283 0.03162 0.0
C1765 C 0.49196 0.04155 0.04402 0.0
C1766 C 0.54831 0.97437 0.03212 0.0
C1767 C 0.4763 0.04708 1.02287 0.0
C1768 C 0.52804 0.01291 0.99404 0.0
C1769 C 0.5165 0.98162 0.98955 0.0
C1770 C 0.52686 0.02266 1.00637 0.0
C1771 C 0.51423 1.00017 1.01449 0.0
C1772 C 0.50327 0.96775 1.01009 0.0
C1773 C 0.50433 0.95911 0.99766 0.0
C1774 C 0.53853 0.05773 1.01063 0.0
C1775 C 0.4901 0.9425 1.01848 0.0
H1776 H 0.53908 0.9983 0.05471 0.0
H1777 H 0.47773 0.05794 0.04713 0.0
H1778 H 0.5419 0.94817 0.02804 0.0
H1779 H 0.55839 0.98893 0.02508 0.0
H1780 H 0.55964 0.96712 0.03981 0.0
H1781 H 0.46361 0.06517 0.02736 0.0
H1782 H 0.48451 0.06319 1.01548 0.0
H1783 H 0.46739 0.02326 1.01861 0.0
H1784 H 0.53727 0.03077 0.98783 0.0
H1785 H 0.49537 0.9349 0.99427 0.0
H1786 H 0.55051 0.05112 1.01806 0.0
H1787 H 0.52585 0.07744 1.01433 0.0
H1788 H 0.54794 0.07192 1.00322 0.0
H1789 H 0.5009 0.93352 0.02618 0.0
H1790 H 0.48362 0.91729 1.01378 0.0
H1791 H 0.47555 0.95789 1.02235 0.0
C1792 C 0.80552 0.23982 0.04587 0.0
C1793 C 0.78815 0.24637 0.05423 0.0
C1794 C 0.80225 0.24613 0.03339 0.0
C1795 C 0.78131 0.26037 0.02918 0.0
C1796 C 0.76365 0.26671 0.03758 0.0
C1797 C 0.76717 0.25918 0.04996 0.0
C1798 C 0.82133 0.23801 0.02471 0.0
C1799 C 0.74126 0.28269 0.03355 0.0
C1800 C 0.78317 0.31188 0.99889 0.0
C1801 C 0.77423 0.28524 0.99093 0.0
C1802 C 0.78485 0.30463 1.01141 0.0
C1803 C 0.77809 0.26942 1.01604 0.0
C1804 C 0.76879 0.2426 1.00806 0.0
C1805 C 0.76668 0.25102 0.99564 0.0
C1806 C 0.79423 0.33444 1.01964 0.0
C1807 C 0.76189 0.20443 1.01254 0.0
H1808 H 0.82175 0.2299 0.04911 0.0
H1809 H 0.75373 0.26477 0.05637 0.0
H1810 H 0.81536 0.21941 1.01735 0.0
H1811 H 0.82716 0.2643 1.02041 0.0
H1812 H 0.83596 0.22463 0.0293 0.0
H1813 H 0.72913 0.28548 0.04118 0.0
H1814 H 0.74395 0.31061 0.02943 0.0
H1815 H 0.73355 0.26474 0.02649 0.0
H1816 H 0.78904 0.33835 0.9953 0.0
H1817 H 0.76006 0.23006 0.98953 0.0
H1818 H 0.81052 0.32503 0.02356 0.0
H1819 H 0.78249 0.33942 0.02731 0.0
H1820 H 0.79708 0.36123 1.01479 0.0
H1821 H 0.77684 0.18978 1.01632 0.0
H1822 H 0.7545 0.18699 1.00523 0.0
H1823 H 0.74936 0.20695 1.01996 0.0
C1824 C 0.49522 0.23335 0.24644 0.0
C1825 C 0.51377 0.24271 0.23914 0.0
C1826 C 0.49604 0.23785 0.25911 0.0
C1827 C 0.51569 0.25292 0.2646 0.0
C1828 C 0.53461 0.26182 0.25728 0.0
C1829 C 0.53351 0.25622 0.24468 0.0
C1830 C 0.47569 0.22715 0.2666 0.0
C1831 C 0.55571 0.27863 0.26271 0.0
C1832 C 0.50684 0.30123 0.29496 0.0
C1833 C 0.51484 0.27443 0.30318 0.0
C1834 C 0.50765 0.29502 0.28238 0.0
C1835 C 0.5161 0.26074 0.2779 0.0
C1836 C 0.52447 0.23375 0.28617 0.0
C1837 C 0.524 0.24111 0.29869 0.0
C1838 C 0.49913 0.32496 0.27388 0.0
C1839 C 0.53318 0.19657 0.28182 0.0
H1840 H 0.47994 0.2228 0.24224 0.0
H1841 H 0.54788 0.26387 0.23911 0.0
H1842 H 0.48079 0.20815 0.27408 0.0
H1843 H 0.4683 0.25242 0.2708 0.0
H1844 H 0.46243 0.21322 0.2611 0.0
H1845 H 0.56922 0.28287 0.25585 0.0
H1846 H 0.55161 0.30597 0.26685 0.0
H1847 H 0.56235 0.26045 0.27004 0.0
H1848 H 0.4998 0.32705 0.29837 0.0
H1849 H 0.52997 0.22007 0.305 0.0
H1850 H 0.48405 0.31471 0.26892 0.0
H1851 H 0.51222 0.33174 0.26702 0.0
H1852 H 0.49448 0.35094 0.27874 0.0
H1853 H 0.51944 0.18127 0.27711 0.0
H1854 H 0.53959 0.17894 0.28937 0.0
H1855 H 0.54699 0.20072 0.27516 0.0
C1856 C 0.82962 0.05757 0.25664 0.0
C1857 C 0.81243 0.07001 0.24882 0.0
C1858 C 0.82528 0.05051 0.26898 0.0
C1859 C 0.80323 0.05594 0.27363 0.0
C1860 C 0.78643 0.07183 0.26606 0.0
C1861 C 0.79123 0.07871 0.25376 0.0
C1862 C 0.8438 0.03404 0.27673 0.0
C1863 C 0.76273 0.07837 0.27062 0.0
C1864 C 0.78134 0.98499 0.29633 0.0
C1865 C 0.78137 1.00492 0.30727 0.0
C1866 C 0.78879 1.00119 0.28548 0.0
C1867 C 0.7966 0.0385 0.28544 0.0
C1868 C 0.79731 0.05866 0.2965 0.0
C1869 C 0.78969 0.0416 0.30731 0.0
C1870 C 0.78781 0.97841 0.27397 0.0
C1871 C 0.80561 0.09842 0.29683 0.0
H1872 H 0.84615 0.05113 0.25298 0.0
H1873 H 0.77786 0.0887 0.24787 0.0
H1874 H 0.8438 0.04665 0.2859 0.0
H1875 H 0.84083 1.00366 0.27784 0.0
H1876 H 0.86073 0.03807 0.27259 0.0
H1877 H 0.75281 0.09631 0.26435 0.0
H1878 H 0.7539 0.05118 0.27154 0.0
H1879 H 0.76303 0.09155 0.27971 0.0
H1880 H 0.77517 0.95653 0.29617 0.0
H1881 H 0.78977 0.05722 0.31571 0.0
H1882 H 0.8048 0.97701 0.26975 0.0
H1883 H 0.77632 0.99195 0.26734 0.0
H1884 H 0.78176 0.94949 0.2756 0.0
H1885 H 0.82235 0.10068 0.29236 0.0
H1886 H 0.80704 0.10914 0.30624 0.0
H1887 H 0.79377 0.11655 0.29171 0.0
C1888 C 0.25912 0.76673 0.99594 0.0
C1889 C 0.27603 0.78884 0.99061 0.0
C1890 C 0.25838 0.76099 1.00857 0.0
C1891 C 0.27486 0.77788 1.01611 0.0
C1892 C 0.29184 0.80046 1.01079 0.0
C1893 C 0.29224 0.80559 0.99814 0.0
C1894 C 0.23995 0.7368 1.01387 0.0
C1895 C 0.30959 0.81935 1.01847 0.0
C1896 C 0.26066 0.79713 0.04911 0.0
C1897 C 0.27258 0.76899 0.05529 0.0
C1898 C 0.26105 0.7999 0.03642 0.0
C1899 C 0.27363 0.77384 0.0296 0.0
C1900 C 0.28545 0.74494 0.03572 0.0
C1901 C 0.28481 0.74285 0.04851 0.0
C1902 C 0.24822 0.83121 0.03033 0.0
C1903 C 0.299 0.71654 0.02876 0.0
H1904 H 0.24662 0.75338 0.99022 0.0
H1905 H 0.30543 0.82263 0.99415 0.0
H1906 H 0.24751 0.71369 1.01921 0.0
H1907 H 0.22942 0.75342 1.02017 0.0
H1908 H 0.22882 0.72473 1.00677 0.0
H1909 H 0.32197 0.83526 1.01293 0.0
H1910 H 0.3014 0.83881 0.02492 0.0
H1911 H 0.31885 0.79829 0.02393 0.0
H1912 H 0.25107 0.81749 0.0542 0.0
H1913 H 0.29404 0.72101 0.05318 0.0
H1914 H 0.23606 0.81972 0.02366 0.0
H1915 H 0.26013 0.84939 0.02527 0.0
H1916 H 0.2388 0.84867 0.03691 0.0
H1917 H 0.28811 0.70252 1.02197 0.0
H1918 H 0.30655 0.69501 0.03479 0.0
H1919 H 0.31279 0.7307 0.02373 0.0
C1920 C 0.49545 0.74277 0.74778 0.0
C1921 C 0.51302 0.7462 0.73933 0.0
C1922 C 0.49914 0.74972 0.76019 0.0
C1923 C 0.52077 0.76144 0.7642 0.0
C1924 C 0.53865 0.76439 0.75573 0.0
C1925 C 0.53464 0.75628 0.74344 0.0
C1926 C 0.47976 0.74521 0.76896 0.0
C1927 C 0.56182 0.77757 0.75954 0.0
C1928 C 0.52209 0.8171 0.79364 0.0
C1929 C 0.52976 0.79045 0.802 0.0
C1930 C 0.51971 0.80833 0.78126 0.0
C1931 C 0.5245 0.7717 0.7772 0.0
C1932 C 0.53245 0.74478 0.7856 0.0
C1933 C 0.53527 0.7546 0.79785 0.0
C1934 C 0.51178 0.83818 0.77257 0.0
C1935 C 0.53725 0.70521 0.78173 0.0
H1936 H 0.47872 0.73498 0.74468 0.0
H1937 H 0.54827 0.75947 0.73696 0.0
H1938 H 0.48484 0.7269 0.77662 0.0
H1939 H 0.47522 0.77271 0.77284 0.0
H1940 H 0.46453 0.73316 0.76458 0.0
H1941 H 0.57406 0.77749 0.75191 0.0
H1942 H 0.56066 0.80633 0.76318 0.0
H1943 H 0.56851 0.7596 0.76692 0.0
H1944 H 0.51782 0.84483 0.79678 0.0
H1945 H 0.54093 0.73366 0.80428 0.0
H1946 H 0.49511 0.83038 0.76874 0.0
H1947 H 0.52375 0.8407 0.76487 0.0
H1948 H 0.5102 0.86584 0.777 0.0
H1949 H 0.52159 0.69231 0.77812 0.0
H1950 H 0.54364 0.68772 0.78932 0.0
H1951 H 0.5499 0.70495 0.77432 0.0
C1952 C 0.30745 0.03858 0.74907 0.0
C1953 C 0.28997 0.02892 0.74107 0.0
C1954 C 0.30535 0.03249 0.76165 0.0
C1955 C 0.28544 0.01586 0.76634 0.0
C1956 C 0.26759 1.00669 0.75833 0.0
C1957 C 0.27001 0.01355 0.74584 0.0
C1958 C 0.32464 0.04324 0.7699 0.0
C1959 C 0.24618 0.98855 0.7629 0.0
C1960 C 0.29071 0.96479 0.79659 0.0
C1961 C 0.28153 0.99068 0.80473 0.0
C1962 C 0.29165 0.97233 0.78407 0.0
C1963 C 0.28357 1.00688 0.77956 0.0
C1964 C 0.27392 0.03288 0.7877 0.0
C1965 C 0.27285 0.02435 0.80016 0.0
C1966 C 0.30166 0.9435 0.77569 0.0
C1967 C 0.26532 0.07018 0.78331 0.0
H1968 H 0.32291 0.05053 0.7455 0.0
H1969 H 0.25639 1.00579 0.73977 0.0
H1970 H 0.31845 0.06164 0.77725 0.0
H1971 H 0.33175 0.01791 0.77425 0.0
H1972 H 0.33841 0.05785 0.76495 0.0
H1973 H 0.2336 0.98418 0.75556 0.0
H1974 H 0.25022 0.96113 0.76706 0.0
H1975 H 0.23837 1.00596 0.77006 0.0
H1976 H 0.29742 0.9387 0.80002 0.0
H1977 H 0.2659 0.04472 0.80637 0.0
H1978 H 0.31704 0.9549 0.77129 0.0
H1979 H 0.28947 0.93664 0.76838 0.0
H1980 H 0.30625 0.91738 0.78054 0.0
H1981 H 0.2794 0.08626 0.77919 0.0
H1982 H 0.25784 0.08698 0.79074 0.0
H1983 H 0.25236 0.06617 0.77616 0.0
C1984 C 0.51392 0.54074 0.4868 0.0
C1985 C 0.52469 0.50587 0.48707 0.0
C1986 C 0.50579 0.55729 0.49757 0.0
C1987 C 0.50843 0.53842 0.50881 0.0
C1988 C 0.51899 0.50303 0.50905 0.0
C1989 C 0.52695 0.48736 0.49825 0.0
C1990 C 0.49464 0.59505 0.49695 0.0
C1991 C 0.5221 0.48163 0.52077 0.0
C1992 C 0.51054 0.58119 0.54021 0.0
C1993 C 0.49015 0.56829 0.54522 0.0
C1994 C 0.51588 0.57476 0.52796 0.0
C1995 C 0.5005 0.55498 0.5205 0.0
C1996 C 0.47904 0.54511 0.52521 0.0
C1997 C 0.47413 0.55188 0.53749 0.0
C1998 C 0.53888 0.58613 0.52334 0.0
C1999 C 0.46202 0.52427 0.5176 0.0
H2000 H 0.51212 0.55529 0.47822 0.0
H2001 H 0.53508 0.4603 0.49861 0.0
H2002 H 0.47759 0.59377 0.5011 0.0
H2003 H 0.50466 0.61549 0.50225 0.0
H2004 H 0.49303 0.60544 0.48749 0.0
H2005 H 0.53045 0.45424 0.51937 0.0
H2006 H 0.5325 0.49817 0.52718 0.0
H2007 H 0.50548 0.47672 0.52513 0.0
H2008 H 0.52301 0.5942 0.54603 0.0
H2009 H 0.45821 0.54215 0.54118 0.0
H2010 H 0.53762 0.59827 0.5141 0.0
H2011 H 0.54985 0.56112 0.52276 0.0
H2012 H 0.54717 0.60671 0.5294 0.0
H2013 H 0.46095 0.53634 0.50835 0.0
H2014 H 0.44492 0.5246 0.52175 0.0
H2015 H 0.46745 0.4948 0.51668 0.0
C2016 C 0.8101 0.73449 0.54756 0.0
C2017 C 0.79184 0.73944 0.55548 0.0
C2018 C 0.80778 0.74112 0.53503 0.0
C2019 C 0.78687 0.75402 0.53036 0.0
C2020 C 0.76826 0.75834 0.53829 0.0
C2021 C 0.77089 0.75055 0.55071 0.0
C2022 C 0.82788 0.73516 0.52685 0.0
C2023 C 0.74582 0.7728 0.53375 0.0
C2024 C 0.79018 0.8097 0.50093 0.0
C2025 C 0.78282 0.78357 0.49236 0.0
C2026 C 0.79091 0.80079 0.51335 0.0
C2027 C 0.78477 0.76449 0.51728 0.0
C2028 C 0.77708 0.73812 0.50867 0.0
C2029 C 0.77591 0.74813 0.49634 0.0
C2030 C 0.7986 0.83009 0.52226 0.0
C2031 C 0.77085 0.6989 0.51241 0.0
H2032 H 0.82632 0.72585 0.55117 0.0
H2033 H 0.75673 0.75487 0.55677 0.0
H2034 H 0.82309 0.7172 0.51908 0.0
H2035 H 0.83356 0.7623 0.52307 0.0
H2036 H 0.8423 0.72206 0.5317 0.0
H2037 H 0.73278 0.77328 0.54098 0.0
H2038 H 0.74798 0.80154 0.53017 0.0
H2039 H 0.73958 0.75532 0.52617 0.0
H2040 H 0.7955 0.83713 0.49791 0.0
H2041 H 0.77048 0.72762 0.48975 0.0
H2042 H 0.81464 0.82124 0.5266 0.0
H2043 H 0.78589 0.83332 0.52958 0.0
H2044 H 0.80131 0.85765 0.51787 0.0
H2045 H 0.78581 0.68487 0.51642 0.0
H2046 H 0.7647 0.68197 0.50466 0.0
H2047 H 0.75755 0.69947 0.51948 0.0
C2048 C 0.78213 0.52886 0.80248 0.0
C2049 C 0.78945 0.49441 0.80712 0.0
C2050 C 0.7832 0.53677 0.79001 0.0
C2051 C 0.79123 0.50925 0.7819 0.0
C2052 C 0.79789 0.47395 0.78648 0.0
C2053 C 0.79721 0.46713 0.79905 0.0
C2054 C 0.77638 0.575 0.78555 0.0
C2055 C 0.80597 0.44349 0.77812 0.0
C2056 C 0.77589 0.51831 0.74849 0.0
C2057 C 0.79631 0.53056 0.74336 0.0
C2058 C 0.77401 0.51129 0.76099 0.0
C2059 C 0.79284 0.51749 0.76864 0.0
C2060 C 0.81329 0.53107 0.76359 0.0
C2061 C 0.81487 0.53697 0.75099 0.0
C2062 C 0.75205 0.49611 0.76594 0.0
C2063 C 0.83359 0.53893 0.77147 0.0
H2064 H 0.77637 0.55029 0.80867 0.0
H2065 H 0.80287 0.44047 0.80257 0.0
H2066 H 0.79097 0.5887 0.78105 0.0
H2067 H 0.76274 0.57261 0.77869 0.0
H2068 H 0.77038 0.59324 0.79301 0.0
H2069 H 0.80932 0.41696 0.78303 0.0
H2070 H 0.79317 0.43821 0.77097 0.0
H2071 H 0.82173 0.45241 0.77351 0.0
H2072 H 0.76151 0.51283 0.74267 0.0
H2073 H 0.83069 0.54645 0.7471 0.0
H2074 H 0.74544 0.51476 0.77311 0.0
H2075 H 0.75501 0.46843 0.77018 0.0
H2076 H 0.73894 0.49306 0.7588 0.0
H2077 H 0.82888 0.55821 0.77891 0.0
H2078 H 0.84777 0.55145 0.76627 0.0
H2079 H 0.83958 0.51269 0.77574 0.0
C2080 C 0.27914 0.25228 0.49622 0.0
C2081 C 0.29139 0.28275 0.49163 0.0
C2082 C 0.27903 0.24403 0.50871 0.0
C2083 C 0.29107 0.26722 0.51685 0.0
C2084 C 0.30281 0.29875 0.5123 0.0
C2085 C 0.30302 0.30589 0.49976 0.0
C2086 C 0.26657 0.20986 0.51314 0.0
C2087 C 0.31541 0.32472 0.52068 0.0
C2088 C 0.27545 0.26531 0.55035 0.0
C2089 C 0.29327 0.24462 0.55544 0.0
C2090 C 0.27448 0.27268 0.53783 0.0
C2091 C 0.29151 0.2585 0.53012 0.0
C2092 C 0.30923 0.23677 0.53514 0.0
C2093 C 0.31002 0.23039 0.54775 0.0
C2094 C 0.25551 0.29649 0.53292 0.0
C2095 C 0.3275 0.22056 0.5272 0.0
H2096 H 0.27031 0.23399 0.49 0.0
H2097 H 0.31249 0.32951 0.49629 0.0
H2098 H 0.27863 0.19038 0.51754 0.0
H2099 H 0.2539 0.21777 0.52007 0.0
H2100 H 0.25781 0.19493 0.50567 0.0
H2101 H 0.32278 0.34897 0.5158 0.0
H2102 H 0.3039 0.3352 0.52784 0.0
H2103 H 0.32926 0.30939 0.52529 0.0
H2104 H 0.26249 0.27671 0.55619 0.0
H2105 H 0.3238 0.21433 0.55158 0.0
H2106 H 0.24612 0.28112 0.5258 0.0
H2107 H 0.26256 0.32198 0.52863 0.0
H2108 H 0.24341 0.30499 0.54009 0.0
H2109 H 0.31982 0.20369 0.51985 0.0
H2110 H 0.33942 0.20269 0.53239 0.0
H2111 H 0.33721 0.24339 0.52283 0.0
C2112 C 0.24879 0.51305 0.296 0.0
C2113 C 0.26259 0.51691 0.30629 0.0
C2114 C 0.25513 0.52787 0.28472 0.0
C2115 C 0.27587 0.54724 0.28358 0.0
C2116 C 0.28947 0.55277 0.29403 0.0
C2117 C 0.28267 0.53754 0.30528 0.0
C2118 C 0.23997 0.52137 0.27389 0.0
C2119 C 0.31161 0.57349 0.29323 0.0
C2120 C 0.29915 0.54109 0.25156 0.0
C2121 C 0.29105 0.57417 0.24627 0.0
C2122 C 0.29563 0.53315 0.26391 0.0
C2123 C 0.28374 0.55889 0.27123 0.0
C2124 C 0.27685 0.59344 0.26616 0.0
C2125 C 0.28056 0.60065 0.25375 0.0
C2126 C 0.30337 0.49603 0.26889 0.0
C2127 C 0.26432 0.62184 0.27365 0.0
H2128 H 0.23311 0.49753 0.29667 0.0
H2129 H 0.29345 0.54069 0.31316 0.0
H2130 H 0.23605 0.54822 0.26934 0.0
H2131 H 0.2488 0.50352 0.2672 0.0
H2132 H 0.22382 0.50761 0.27642 0.0
H2133 H 0.31885 0.57936 0.30232 0.0
H2134 H 0.32395 0.55662 0.28803 0.0
H2135 H 0.30936 0.60024 0.28829 0.0
H2136 H 0.30748 0.52053 0.24594 0.0
H2137 H 0.27432 0.62639 0.24981 0.0
H2138 H 0.28843 0.47827 0.27083 0.0
H2139 H 0.31261 0.49992 0.27755 0.0
H2140 H 0.31451 0.48094 0.26246 0.0
H2141 H 0.2469 0.61174 0.2754 0.0
H2142 H 0.26325 0.64931 0.269 0.0
H2143 H 0.27265 0.62566 0.28258 0.0
C2144 C 1.01095 0.95954 0.49704 0.0
C2145 C 0.02858 0.97362 0.48983 0.0
C2146 C 1.01069 0.9648 0.50966 0.0
C2147 C 0.02852 0.98455 0.51532 0.0
C2148 C 0.04639 0.99885 0.50812 0.0
C2149 C 0.04621 0.99324 0.49548 0.0
C2150 C 0.99135 0.94891 0.51697 0.0
C2151 C 0.0658 0.01986 0.51379 0.0
C2152 C 1.01867 0.02031 0.54757 0.0
C2153 C 0.02864 0.99195 0.55454 0.0
C2154 C 1.01876 0.01866 0.53478 0.0
C2155 C 0.02911 0.98804 0.52884 0.0
C2156 C 0.03943 0.9597 0.53585 0.0
C2157 C 0.03903 0.96198 0.54855 0.0
C2158 C 1.00752 0.04939 0.52762 0.0
C2159 C 0.05069 0.92659 0.52995 0.0
H2160 H 0.99716 0.94451 0.49281 0.0
H2161 H 0.05984 1.00446 0.49001 0.0
H2162 H 0.99782 0.92782 0.52348 0.0
H2163 H 0.98321 0.97128 0.52235 0.0
H2164 H 0.97833 0.93555 0.51117 0.0
H2165 H 0.07798 0.03036 0.50692 0.0
H2166 H 0.05932 0.04386 0.51907 0.0
H2167 H 0.07495 1.0014 0.52022 0.0
H2168 H 1.01064 0.04357 0.55209 0.0
H2169 H 0.04692 0.93993 0.55379 0.0
H2170 H 0.99333 0.03776 0.52225 0.0
H2171 H 1.0197 0.06176 0.5211 0.0
H2172 H 1.00089 0.07188 0.53353 0.0
H2173 H 0.03808 0.91056 0.52464 0.0
H2174 H 0.05859 0.90752 0.53668 0.0
H2175 H 0.0639 0.93619 0.52353 0.0
C2176 C 0.99456 0.21071 0.7509 0.0
C2177 C 1.01219 0.18963 0.74586 0.0
C2178 C 0.99477 0.22081 0.76323 0.0
C2179 C 1.01313 0.20992 0.7707 0.0
C2180 C 0.02992 0.18601 0.7659 0.0
C2181 C 0.02919 0.17603 0.75358 0.0
C2182 C 0.97627 0.24571 0.76799 0.0
C2183 C 0.04985 0.17371 0.77347 0.0
C2184 C 0.03397 0.28041 0.79376 0.0
C2185 C 0.02717 0.2648 0.80487 0.0
C2186 C 0.02925 0.26295 0.7827 0.0
C2187 C 1.0171 0.22895 0.78258 0.0
C2188 C 1.00968 0.21324 0.79372 0.0
C2189 C 1.01493 0.23123 0.80476 0.0
C2190 C 0.03771 0.28073 0.7711 0.0
C2191 C 0.99643 0.1773 0.79396 0.0
H2192 H 0.98119 0.22107 0.74507 0.0
H2193 H 0.04281 0.15944 0.74986 0.0
H2194 H 0.97094 0.23674 0.77719 0.0
H2195 H 0.98271 0.2747 0.76871 0.0
H2196 H 0.96128 0.24585 0.76192 0.0
H2197 H 0.05946 0.15083 0.76908 0.0
H2198 H 0.06144 0.19771 0.7748 0.0
H2199 H 0.04427 0.16421 0.78256 0.0
H2200 H 0.04344 0.30629 0.79366 0.0
H2201 H 1.00954 0.21898 0.81328 0.0
H2202 H 1.02334 0.28646 0.76491 0.0
H2203 H 0.0493 0.26133 0.76636 0.0
H2204 H 0.04684 0.30732 0.77275 0.0
H2205 H 0.98154 0.17945 0.78787 0.0
H2206 H 0.99054 0.17003 0.80323 0.0
H2207 H 1.00707 0.15418 0.79053 0.0
C2208 C 0.99574 0.72871 0.2494 0.0
C2209 C 1.01384 0.74047 0.24213 0.0
C2210 C 0.99656 0.73216 0.26211 0.0
C2211 C 1.01574 0.74849 0.26768 0.0
C2212 C 0.03419 0.75997 0.2604 0.0
C2213 C 0.03311 0.75548 0.24775 0.0
C2214 C 0.97672 0.71884 0.26955 0.0
C2215 C 0.05478 0.77809 0.26594 0.0
C2216 C 1.00578 0.79132 0.29882 0.0
C2217 C 1.01449 0.76382 0.30659 0.0
C2218 C 1.00676 0.78724 0.28615 0.0
C2219 C 1.01621 0.75446 0.2811 0.0
C2220 C 1.02548 0.72698 0.28889 0.0
C2221 C 1.02472 0.73217 0.30153 0.0
C2222 C 0.99719 0.81765 0.27816 0.0
C2223 C 0.03539 0.69139 0.28392 0.0
H2224 H 0.98083 0.71701 0.24515 0.0
H2225 H 0.04713 0.76496 0.24223 0.0
H2226 H 0.98254 0.69915 0.27667 0.0
H2227 H 0.96876 0.74285 0.27421 0.0
H2228 H 0.96369 0.70476 0.26393 0.0
H2229 H 0.06793 0.78462 0.25907 0.0
H2230 H 0.04982 0.80435 0.27052 0.0
H2231 H 0.06226 0.75957 0.27294 0.0
H2232 H 0.99789 0.81587 0.30265 0.0
H2233 H 0.03128 0.71057 0.30746 0.0
H2234 H 0.9823 0.80693 0.27315 0.0
H2235 H 1.0099 0.82642 0.27133 0.0
H2236 H 0.99193 0.84251 0.28344 0.0
H2237 H 1.02207 0.67543 0.2791 0.0
H2238 H 0.04265 0.67339 0.29115 0.0
H2239 H 0.04881 0.69782 0.27722 0.0
C2240 C 1.01393 0.54355 0.99695 0.0
C2241 C 1.02354 0.51224 0.99131 0.0
C2242 C 1.01456 0.54806 1.00957 0.0
C2243 C 1.02514 0.52066 1.01686 0.0
C2244 C 0.03465 0.48868 1.01129 0.0
C2245 C 0.03371 0.48479 0.99857 0.0
C2246 C 1.00415 0.58253 1.01509 0.0
C2247 C 0.04611 0.45887 1.01877 0.0
C2248 C 0.04628 0.55296 0.04773 0.0
C2249 C 0.02919 0.54025 0.05554 0.0
C2250 C 0.04532 0.54626 0.03519 0.0
C2251 C 0.02679 0.52639 0.03026 0.0
C2252 C 1.00937 0.51373 0.03806 0.0
C2253 C 1.01077 0.52081 0.05059 0.0
C2254 C 0.06419 0.56049 0.0272 0.0
C2255 C 0.98926 0.49267 0.03317 0.0
H2256 H 1.0059 0.56491 0.99147 0.0
H2257 H 0.04116 0.46053 0.99432 0.0
H2258 H 0.99134 0.57451 1.02196 0.0
H2259 H 1.01734 0.59901 1.01982 0.0
H2260 H 0.99594 0.60067 1.00819 0.0
H2261 H 0.05203 0.43516 1.01314 0.0
H2262 H 0.06084 0.47096 0.02359 0.0
H2263 H 0.03433 0.44807 0.02577 0.0
H2264 H 0.06065 0.56786 0.05143 0.0
H2265 H 0.99753 0.51064 0.05653 0.0
H2266 H 0.05737 0.58049 1.02043 0.0
H2267 H 0.07181 0.53703 1.0221 0.0
H2268 H 0.0777 0.57462 0.03246 0.0
H2269 H 0.97998 0.51031 0.02656 0.0
H2270 H 0.97738 0.484 0.04045 0.0
H2271 H 0.99501 0.46743 0.02826 0.0
C2272 C 0.62266 0.07479 0.08917 0.0
C2273 C 0.60621 0.07112 0.09822 0.0
C2274 C 0.63938 0.10251 0.08987 0.0
C2275 C 0.64005 0.12651 0.10006 0.0
C2276 C 0.62371 0.1224 0.10936 0.0
C2277 C 0.60677 0.09509 0.10823 0.0
C2278 C 0.6561 0.10652 0.07961 0.0
C2279 C 0.62419 0.14669 0.12051 0.0
C2280 C 0.69675 0.17326 0.10567 0.0
C2281 C 0.69298 0.20911 0.10106 0.0
C2282 C 0.67941 0.14654 0.10584 0.0
C2283 C 0.65796 0.15568 0.10095 0.0
C2284 C 0.65406 0.19216 0.09639 0.0
C2285 C 0.67161 0.21865 0.09664 0.0
C2286 C 0.68417 0.10835 0.11104 0.0
C2287 C 0.63163 0.2028 0.09086 0.0
H2288 H 0.62196 0.05668 0.08133 0.0
H2289 H 0.59402 0.09214 0.11522 0.0
H2290 H 0.65532 0.13522 0.07584 0.0
H2291 H 0.67352 0.10212 0.08303 0.0
H2292 H 0.65286 0.08638 0.07217 0.0
H2293 H 0.61059 0.13938 0.12704 0.0
H2294 H 0.64075 0.1439 0.12515 0.0
H2295 H 0.62228 0.17641 0.11789 0.0
H2296 H 0.71338 0.16624 0.1091 0.0
H2297 H 0.66896 0.24642 0.09301 0.0
H2298 H 0.68325 0.08714 0.10376 0.0
H2299 H 0.67119 0.10096 0.1179 0.0
H2300 H 0.70112 0.10671 0.11535 0.0
H2301 H 0.62826 0.1851 0.08282 0.0
H2302 H 0.63114 0.23253 0.08801 0.0
H2303 H 0.61778 0.19772 0.09743 0.0
C2304 C 0.61331 0.17571 0.1955 0.0
C2305 C 0.61607 0.21436 0.19656 0.0
C2306 C 0.63178 0.15147 0.19663 0.0
C2307 C 0.65344 0.16624 0.19921 0.0
C2308 C 0.65636 0.20538 0.20014 0.0
C2309 C 0.63764 0.22905 0.19863 0.0
C2310 C 0.62803 0.11003 0.19527 0.0
C2311 C 0.67907 0.22215 0.20316 0.0
C2312 C 0.69395 0.10115 0.21553 0.0
C2313 C 0.70869 0.09089 0.20619 0.0
C2314 C 0.67616 0.12614 0.21341 0.0
C2315 C 0.67271 0.14056 0.20158 0.0
C2316 C 0.68741 0.12992 0.19207 0.0
C2317 C 0.70544 0.10556 0.19453 0.0
C2318 C 0.66118 0.1374 0.22386 0.0
C2319 C 0.68396 0.14397 0.17929 0.0
H2320 H 0.59662 0.16451 0.19372 0.0
H2321 H 0.63964 0.25896 0.19951 0.0
H2322 H 0.64004 0.0984 0.18855 0.0
H2323 H 0.63128 0.09579 0.20404 0.0
H2324 H 0.61054 0.10333 0.19232 0.0
H2325 H 0.67865 0.25312 0.2032 0.0
H2326 H 0.68463 0.21228 0.21223 0.0
H2327 H 0.69194 0.21286 0.19652 0.0
H2328 H 0.69674 0.09034 0.22459 0.0
H2329 H 0.71687 0.0975 0.18733 0.0
H2330 H 0.64351 0.12876 0.22205 0.0
H2331 H 0.66122 0.1682 0.22484 0.0
H2332 H 0.66667 0.12476 0.23259 0.0
H2333 H 0.66689 0.13595 0.17603 0.0
H2334 H 0.69674 0.13273 0.1729 0.0
H2335 H 0.68485 0.17486 0.17909 0.0
C2336 C 0.44325 0.91623 0.93881 0.0
C2337 C 0.43973 0.94951 0.94521 0.0
C2338 C 0.42665 0.88818 0.93848 0.0
C2339 C 0.40605 0.89339 0.94476 0.0
C2340 C 0.4022 0.92722 0.95103 0.0
C2341 C 0.41904 0.95488 0.95115 0.0
C2342 C 0.43134 0.85271 0.93158 0.0
C2343 C 0.38053 0.9338 0.95792 0.0
C2344 C 0.35429 0.83416 0.9376 0.0
C2345 C 0.35468 0.80787 0.94705 0.0
C2346 C 0.37118 0.86158 0.93655 0.0
C2347 C 0.38884 0.86295 0.94521 0.0
C2348 C 0.38961 0.83597 0.95461 0.0
C2349 C 0.37259 0.80874 0.95539 0.0
C2350 C 0.36985 0.88956 0.92632 0.0
C2351 C 0.40805 0.83657 0.96408 0.0
H2352 H 0.45907 0.91208 0.93407 0.0
H2353 H 0.41627 0.98024 0.95624 0.0
H2354 H 0.43162 0.82869 0.93794 0.0
H2355 H 0.41764 0.84744 0.92493 0.0
H2356 H 0.44772 0.85373 0.92668 0.0
H2357 H 0.37982 0.96211 0.96198 0.0
H2358 H 0.36579 0.93027 0.95182 0.0
H2359 H 0.37888 0.91286 0.9653 0.0
H2360 H 0.34063 0.83342 0.93106 0.0
H2361 H 0.37288 0.78896 0.96283 0.0
H2362 H 0.38589 0.88973 0.92112 0.0
H2363 H 0.36751 0.91799 0.93006 0.0
H2364 H 0.3557 0.88357 0.91999 0.0
H2365 H 0.42488 0.83561 0.95967 0.0
H2366 H 0.40673 0.81283 0.97054 0.0
H2367 H 0.40718 0.86297 0.96929 0.0
C2368 C 0.45243 0.84816 0.85291 0.0
C2369 C 0.45099 0.81798 0.84486 0.0
C2370 C 0.43522 0.87511 0.85354 0.0
C2371 C 0.41612 0.87205 0.84586 0.0
C2372 C 0.41435 0.84126 0.83788 0.0
C2373 C 0.43174 0.81456 0.83752 0.0
C2374 C 0.43769 0.90721 0.86227 0.0
C2375 C 0.39437 0.83706 0.82947 0.0
C2376 C 0.36239 0.9263 0.85305 0.0
C2377 C 0.36428 0.9572 0.84526 0.0
C2378 C 0.37922 0.89865 0.85346 0.0
C2379 C 0.39839 0.90173 0.84584 0.0
C2380 C 0.40049 0.933 0.83803 0.0
C2381 C 0.38349 0.96036 0.83788 0.0
C2382 C 0.37643 0.866 0.86201 0.0
C2383 C 0.42054 0.93725 0.82968 0.0
H2384 H 0.4671 0.85074 0.85873 0.0
H2385 H 0.43059 0.79165 0.83117 0.0
H2386 H 0.43859 0.93387 0.85716 0.0
H2387 H 0.42268 0.90876 0.86827 0.0
H2388 H 0.45306 0.90468 0.868 0.0
H2389 H 0.39512 0.8109 0.82411 0.0
H2390 H 0.37841 0.83724 0.83474 0.0
H2391 H 0.39372 0.86105 0.8231 0.0
H2392 H 0.34774 0.92386 0.85888 0.0
H2393 H 0.38497 0.9838 0.83171 0.0
H2394 H 0.39119 0.86418 0.86819 0.0
H2395 H 0.37579 0.83963 0.85678 0.0
H2396 H 0.36082 0.86815 0.86755 0.0
H2397 H 0.43643 0.93719 0.83502 0.0
H2398 H 0.4198 0.9634 0.82427 0.0
H2399 H 0.42131 0.91325 0.82337 0.0
C2400 C 0.6921 0.67487 0.59845 0.0
C2401 C 0.69038 0.71378 0.59759 0.0
C2402 C 0.673 0.65193 0.59725 0.0
C2403 C 0.65167 0.66824 0.59487 0.0
C2404 C 0.64975 0.70763 0.59422 0.0
C2405 C 0.66912 0.72996 0.59573 0.0
C2406 C 0.67577 0.61018 0.59827 0.0
C2407 C 0.6274 0.72609 0.59149 0.0
C2408 C 0.60982 0.60685 0.57799 0.0
C2409 C 0.59508 0.59566 0.58727 0.0
C2410 C 0.62797 0.63102 0.58032 0.0
C2411 C 0.63177 0.6439 0.59228 0.0
C2412 C 0.61698 0.63264 0.60171 0.0
C2413 C 0.59865 0.60895 0.59906 0.0
C2414 C 0.64305 0.64282 0.56995 0.0
C2415 C 0.62069 0.64517 0.61461 0.0
H2416 H 0.70848 0.66237 0.6001 0.0
H2417 H 0.66782 0.76003 0.59501 0.0
H2418 H 0.66352 0.59864 0.60491 0.0
H2419 H 0.67214 0.59702 0.58938 0.0
H2420 H 0.69311 0.60212 0.60112 0.0
H2421 H 0.62851 0.757 0.59187 0.0
H2422 H 0.62161 0.71789 0.58231 0.0
H2423 H 0.61436 0.71657 0.59802 0.0
H2424 H 0.60685 0.59728 0.56882 0.0
H2425 H 0.5873 0.60027 0.60624 0.0
H2426 H 0.66056 0.63303 0.57161 0.0
H2427 H 0.64363 0.6737 0.56933 0.0
H2428 H 0.63724 0.63158 0.5611 0.0
H2429 H 0.63747 0.63551 0.61783 0.0
H2430 H 0.60753 0.6343 0.62087 0.0
H2431 H 0.62072 0.67607 0.61508 0.0
C2432 C 0.60404 0.66925 0.6914 0.0
C2433 C 0.60837 0.70697 0.69374 0.0
C2434 C 0.62148 0.64277 0.69161 0.0
C2435 C 0.64373 0.65414 0.69457 0.0
C2436 C 0.64826 0.69243 0.69672 0.0
C2437 C 0.63052 0.71851 0.69611 0.0
C2438 C 0.61597 0.60249 0.68895 0.0
C2439 C 0.67161 0.70558 0.70017 0.0
C2440 C 0.68055 0.57921 0.70891 0.0
C2441 C 0.69485 0.56941 0.69931 0.0
C2442 C 0.66426 0.60732 0.70755 0.0
C2443 C 0.6618 0.62555 0.69621 0.0
C2444 C 0.6761 0.61557 0.68644 0.0
C2445 C 0.69269 0.58795 0.68816 0.0
C2446 C 0.64975 0.61766 0.71828 0.0
C2447 C 0.67367 0.63366 0.67413 0.0
H2448 H 0.5869 0.66053 0.68941 0.0
H2449 H 0.63373 0.7477 0.69796 0.0
H2450 H 0.62767 0.5914 0.68198 0.0
H2451 H 0.61828 0.58545 0.69727 0.0
H2452 H 0.59833 0.59884 0.68571 0.0
H2453 H 0.67258 0.73642 0.70099 0.0
H2454 H 0.67655 0.69296 0.70898 0.0
H2455 H 0.68414 0.69632 0.69334 0.0
H2456 H 0.68253 0.56544 0.7176 0.0
H2457 H 0.70379 0.58035 0.68076 0.0
H2458 H 0.63175 0.61168 0.71625 0.0
H2459 H 0.65115 0.648 0.7201 0.0
H2460 H 0.65457 0.60217 0.72663 0.0
H2461 H 0.65641 0.62858 0.67054 0.0
H2462 H 0.68616 0.62289 0.6675 0.0
H2463 H 0.67582 0.66429 0.6749 0.0
C2464 C 0.47068 0.37052 0.46271 0.0
C2465 C 0.48806 0.35784 0.45513 0.0
C2466 C 0.44908 0.3542 0.46243 0.0
C2467 C 0.44461 0.32462 0.45428 0.0
C2468 C 0.46211 0.3116 0.44662 0.0
C2469 C 0.48361 0.32823 0.44718 0.0
C2470 C 0.43101 0.36866 0.47085 0.0
C2471 C 0.45802 0.28036 0.43773 0.0
C2472 C 0.39502 0.25981 0.46076 0.0
C2473 C 0.37816 0.27419 0.4531 0.0
C2474 C 0.41664 0.27596 0.46124 0.0
C2475 C 0.42169 0.30715 0.45382 0.0
C2476 C 0.40481 0.3217 0.44601 0.0
C2477 C 0.38324 0.30518 0.44579 0.0
C2478 C 0.43403 0.25984 0.4698 0.0
C2479 C 0.40954 0.35471 0.43787 0.0
H2480 H 0.47406 0.39313 0.46895 0.0
H2481 H 0.49681 0.31864 0.44115 0.0
H2482 H 0.41644 0.37912 0.46551 0.0
H2483 H 0.42469 0.3457 0.4767 0.0
H2484 H 0.43725 0.39155 0.47674 0.0
H2485 H 0.47337 0.2735 0.43239 0.0
H2486 H 0.45242 0.25493 0.44263 0.0
H2487 H 0.44429 0.28823 0.43136 0.0
H2488 H 0.39116 0.23632 0.46659 0.0
H2489 H 0.37038 0.31623 0.43978 0.0
H2490 H 0.4396 0.28148 0.47633 0.0
H2491 H 0.44917 0.2509 0.46465 0.0
H2492 H 0.42744 0.23553 0.47498 0.0
H2493 H 0.41445 0.37918 0.44341 0.0
H2494 H 0.39471 0.3624 0.43222 0.0
H2495 H 0.42396 0.34836 0.43179 0.0
C2496 C 0.4062 0.25208 0.34637 0.0
C2497 C 0.42535 0.27035 0.34176 0.0
C2498 C 0.38465 0.26837 0.3456 0.0
C2499 C 0.38213 0.3038 0.34007 0.0
C2500 C 0.40139 0.32251 0.33546 0.0
C2501 C 0.42274 0.30559 0.33636 0.0
C2502 C 0.36457 0.24762 0.3507 0.0
C2503 C 0.39943 0.36028 0.32946 0.0
C2504 C 0.32456 0.33259 0.32777 0.0
C2505 C 0.31685 0.35684 0.33682 0.0
C2506 C 0.34566 0.31485 0.32876 0.0
C2507 C 0.35936 0.32136 0.33908 0.0
C2508 C 0.35147 0.34521 0.34837 0.0
C2509 C 0.33035 0.36264 0.34712 0.0
C2510 C 0.35349 0.28967 0.31865 0.0
C2511 C 0.36544 0.35268 0.35957 0.0
H2512 H 0.40808 0.2251 0.35069 0.0
H2513 H 0.43733 0.3197 0.33261 0.0
H2514 H 0.35617 0.26474 0.35774 0.0
H2515 H 0.35198 0.24256 0.34343 0.0
H2516 H 0.36938 0.22038 0.35478 0.0
H2517 H 0.41605 0.37126 0.32642 0.0
H2518 H 0.38804 0.35848 0.32149 0.0
H2519 H 0.39184 0.38055 0.33586 0.0
H2520 H 0.31436 0.32825 0.31974 0.0
H2521 H 0.32436 0.3808 0.35426 0.0
H2522 H 0.3575 0.26157 0.32229 0.0
H2523 H 0.36922 0.30096 0.31458 0.0
H2524 H 0.3406 0.28672 0.31138 0.0
H2525 H 0.36967 0.32604 0.36417 0.0
H2526 H 0.35658 0.37103 0.36613 0.0
H2527 H 0.38162 0.36614 0.35697 0.0
C2528 C 0.12789 0.06052 0.59286 0.0
C2529 C 0.1076 0.06481 0.59924 0.0
C2530 C 0.14474 0.08815 0.59323 0.0
C2531 C 0.1414 0.12054 0.60035 0.0
C2532 C 0.12123 0.1244 0.60713 0.0
C2533 C 0.10449 0.09667 0.60639 0.0
C2534 C 0.16582 0.0832 0.5857 0.0
C2535 C 0.11719 0.15806 0.61503 0.0
C2536 C 0.1937 0.17792 0.60797 0.0
C2537 C 0.19224 0.20711 0.59951 0.0
C2538 C 0.17701 0.15004 0.60856 0.0
C2539 C 0.15864 0.15095 0.60032 0.0
C2540 C 0.157 0.18057 0.59183 0.0
C2541 C 0.1737 0.20845 0.59161 0.0
C2542 C 0.17917 0.11942 0.61791 0.0
C2543 C 0.13791 0.18229 0.58275 0.0
H2544 H 0.13022 0.03614 0.58722 0.0
H2545 H 0.08891 0.09983 0.61143 0.0
H2546 H 0.16705 0.10603 0.57892 0.0
H2547 H 0.18104 0.08493 0.59155 0.0
H2548 H 0.16605 0.05609 0.58085 0.0
H2549 H 0.10125 0.15577 0.62029 0.0
H2550 H 0.13145 0.16173 0.62145 0.0
H2551 H 0.11636 0.18355 0.60932 0.0
H2552 H 0.20794 0.177 0.61415 0.0
H2553 H 0.17269 0.23062 0.58494 0.0
H2554 H 0.18104 0.09209 0.61334 0.0
H2555 H 0.16361 0.11797 0.6235 0.0
H2556 H 0.19389 0.12366 0.62401 0.0
H2557 H 0.13819 0.15703 0.57696 0.0
H2558 H 0.13897 0.20731 0.57681 0.0
H2559 H 0.12143 0.18263 0.58752 0.0
C2560 C 0.19011 0.08623 0.69104 0.0
C2561 C 0.18947 0.05192 0.69718 0.0
C2562 C 0.17192 0.11133 0.69161 0.0
C2563 C 0.15258 0.10199 0.69854 0.0
C2564 C 0.15156 0.06697 0.7045 0.0
C2565 C 0.16997 0.04237 0.70373 0.0
C2566 C 0.17361 0.14822 0.68504 0.0
C2567 C 0.1313 0.05598 0.71202 0.0
C2568 C 0.11628 0.17978 0.71149 0.0
C2569 C 0.09746 0.17937 0.70374 0.0
C2570 C 0.13444 0.15515 0.70979 0.0
C2571 C 0.13387 0.12945 0.70006 0.0
C2572 C 0.11517 0.12936 0.69205 0.0
C2573 C 0.09719 0.15426 0.69399 0.0
C2574 C 0.15402 0.15607 0.71857 0.0
C2575 C 0.11399 0.10261 0.68152 0.0
H2576 H 0.20499 0.0936 0.68583 0.0
H2577 H 0.16938 0.01619 0.70863 0.0
H2578 H 0.15877 0.15217 0.67902 0.0
H2579 H 0.17352 0.17134 0.6917 0.0
H2580 H 0.18922 0.1504 0.67949 0.0
H2581 H 0.13265 0.02708 0.71561 0.0
H2582 H 0.12954 0.07537 0.71979 0.0
H2583 H 0.11564 0.05821 0.70654 0.0
H2584 H 0.11655 0.19863 0.71914 0.0
H2585 H 0.08289 0.15407 0.68786 0.0
H2586 H 0.17009 0.16044 0.7136 0.0
H2587 H 0.15533 0.12889 0.72335 0.0
H2588 H 0.15222 0.17847 0.72545 0.0
H2589 H 0.12913 0.10588 0.67569 0.0
H2590 H 0.09866 0.10695 0.67587 0.0
H2591 H 0.11394 0.07348 0.68493 0.0
C2592 C 0.95275 0.9262 0.43829 0.0
C2593 C 0.95217 0.95673 0.44623 0.0
C2594 C 0.93522 0.89975 0.43808 0.0
C2595 C 0.91662 0.90377 0.44604 0.0
C2596 C 0.91558 0.93513 0.45381 0.0
C2597 C 0.93331 0.96124 0.45379 0.0
C2598 C 0.93693 0.86695 0.42958 0.0
C2599 C 0.8961 0.94042 0.46247 0.0
C2600 C 0.86205 0.84988 0.44052 0.0
C2601 C 0.86419 0.81999 0.4487 0.0
C2602 C 0.8791 0.877 0.4394 0.0
C2603 C 0.89877 0.87435 0.44667 0.0
C2604 C 0.9012 0.84395 0.4548 0.0
C2605 C 0.88393 0.81714 0.45569 0.0
C2606 C 0.87593 0.90876 0.43054 0.0
C2607 C 0.92183 0.84016 0.46277 0.0
H2608 H 0.96711 0.92277 0.43232 0.0
H2609 H 0.93281 0.9844 0.46006 0.0
H2610 H 0.93828 0.84073 0.43489 0.0
H2611 H 0.92143 0.86486 0.42395 0.0
H2612 H 0.95181 0.86902 0.42347 0.0
H2613 H 0.89722 0.96719 0.46748 0.0
H2614 H 0.87983 0.93968 0.45747 0.0
H2615 H 0.8958 0.91721 0.46915 0.0
H2616 H 0.847 0.85205 0.43498 0.0
H2617 H 0.88563 0.79452 0.46215 0.0
H2618 H 0.89032 0.90981 0.42411 0.0
H2619 H 0.87571 0.93566 0.43549 0.0
H2620 H 0.85999 0.9062 0.42528 0.0
H2621 H 0.93733 0.83971 0.45712 0.0
H2622 H 0.92141 0.81443 0.46841 0.0
H2623 H 0.92313 0.86462 0.46888 0.0
C2624 C 0.91773 0.78922 0.35008 0.0
C2625 C 0.92192 0.76178 0.34132 0.0
C2626 C 0.8972 0.80906 0.35022 0.0
C2627 C 0.88048 0.80142 0.34135 0.0
C2628 C 0.88475 0.77411 0.3324 0.0
C2629 C 0.90534 0.75471 0.3325 0.0
C2630 C 0.8933 0.83794 0.35993 0.0
C2631 C 0.86751 0.76527 0.32272 0.0
C2632 C 0.81872 0.82482 0.34738 0.0
C2633 C 0.81584 0.85785 0.34069 0.0
C2634 C 0.83972 0.80657 0.34784 0.0
C2635 C 0.85839 0.82158 0.34144 0.0
C2636 C 0.85566 0.85501 0.33473 0.0
C2637 C 0.83446 0.87269 0.33443 0.0
C2638 C 0.8419 0.77103 0.35513 0.0
C2639 C 0.87507 0.87186 0.32772 0.0
H2640 H 0.93035 0.79473 0.35696 0.0
H2641 H 0.90854 0.73421 0.32552 0.0
H2642 H 0.88959 0.86538 0.3557 0.0
H2643 H 0.87837 0.8301 0.36546 0.0
H2644 H 0.9081 0.84107 0.36604 0.0
H2645 H 0.8735 0.74352 0.31633 0.0
H2646 H 0.8516 0.75545 0.32698 0.0
H2647 H 0.86342 0.79082 0.31746 0.0
H2648 H 0.8046 0.81341 0.35241 0.0
H2649 H 0.8324 0.89792 0.32913 0.0
H2650 H 0.85553 0.77398 0.36197 0.0
H2651 H 0.84669 0.74768 0.34907 0.0
H2652 H 0.82597 0.76352 0.35987 0.0
H2653 H 0.88962 0.87684 0.33386 0.0
H2654 H 0.87041 0.89866 0.3233 0.0
H2655 H 0.88078 0.85213 0.32063 0.0
C2656 C 0.20005 0.66302 0.10458 0.0
C2657 C 0.1959 0.69878 0.0999 0.0
C2658 C 0.18301 0.63574 0.10485 0.0
C2659 C 0.16134 0.64421 0.10014 0.0
C2660 C 0.15697 0.68045 0.09553 0.0
C2661 C 0.17426 0.70739 0.09556 0.0
C2662 C 0.18828 0.59771 0.11004 0.0
C2663 C 0.13421 0.69046 0.09027 0.0
C2664 C 0.12491 0.56382 0.08895 0.0
C2665 C 0.10897 0.56035 0.09828 0.0
C2666 C 0.14204 0.59092 0.08946 0.0
C2667 C 0.14351 0.6148 0.09964 0.0
C2668 C 0.12778 0.6108 0.10924 0.0
C2669 C 0.11058 0.58386 0.10839 0.0
C2670 C 0.15823 0.59461 0.07894 0.0
C2671 C 0.12899 0.63522 0.12035 0.0
H2672 H 0.21668 0.65644 0.1081 0.0
H2673 H 0.17106 0.73487 0.09184 0.0
H2674 H 0.17593 0.59051 0.11724 0.0
H2675 H 0.18672 0.57628 0.10285 0.0
H2676 H 0.20558 0.59621 0.11392 0.0
H2677 H 0.13338 0.72005 0.08728 0.0
H2678 H 0.13052 0.67233 0.08237 0.0
H2679 H 0.12074 0.68549 0.09707 0.0
H2680 H 0.12349 0.54622 0.08102 0.0
H2681 H 0.09831 0.58112 0.11562 0.0
H2682 H 0.17587 0.59107 0.08215 0.0
H2683 H 0.15692 0.62297 0.07495 0.0
H2684 H 0.15488 0.5738 0.07171 0.0
H2685 H 0.14595 0.63299 0.12458 0.0
H2686 H 0.11603 0.62762 0.12722 0.0
H2687 H 0.12652 0.66483 0.11774 0.0
C2688 C 0.13064 0.71036 0.19077 0.0
C2689 C 0.11578 0.71583 0.20052 0.0
C2690 C 0.14883 0.68537 0.19169 0.0
C2691 C 0.1522 0.66517 0.20259 0.0
C2692 C 0.13751 0.67094 0.21253 0.0
C2693 C 0.11957 0.69629 0.21139 0.0
C2694 C 0.16422 0.68014 0.18091 0.0
C2695 C 0.14059 0.64998 0.22431 0.0
C2696 C 0.18584 0.57519 0.20024 0.0
C2697 C 0.2073 0.58662 0.20413 0.0
C2698 C 0.16762 0.60025 0.19995 0.0
C2699 C 0.171 0.63774 0.20354 0.0
C2700 C 0.19252 0.64928 0.20769 0.0
C2701 C 0.21038 0.62358 0.20796 0.0
C2702 C 0.14486 0.58679 0.19558 0.0
C2703 C 0.19686 0.68907 0.21151 0.0
H2704 H 0.12778 0.72487 0.1823 0.0
H2705 H 0.10845 0.70074 0.21904 0.0
H2706 H 0.182 0.68559 0.18356 0.0
H2707 H 0.16329 0.65084 0.17774 0.0
H2708 H 0.15975 0.69885 0.17323 0.0
H2709 H 0.1278 0.65788 0.23121 0.0
H2710 H 0.13932 0.61953 0.22267 0.0
H2711 H 0.15766 0.65544 0.22806 0.0
H2712 H 0.18337 0.54662 0.19735 0.0
H2713 H 0.22699 0.63287 0.21075 0.0
H2714 H 0.13998 0.60212 0.18723 0.0
H2715 H 0.13176 0.5926 0.20251 0.0
H2716 H 0.14479 0.55643 0.19359 0.0
H2717 H 0.19427 0.70804 0.20366 0.0
H2718 H 0.21428 0.69316 0.21502 0.0
H2719 H 0.18469 0.69745 0.21864 0.0
C2720 C 0.85476 0.32743 0.93882 0.0
C2721 C 0.85446 0.30235 0.94862 0.0
C2722 C 0.87188 0.35438 0.93767 0.0
C2723 C 0.8891 0.35643 0.94657 0.0
C2724 C 0.88916 0.3307 0.95634 0.0
C2725 C 0.8719 0.30396 0.95723 0.0
C2726 C 0.87133 0.38106 0.92706 0.0
C2727 C 0.90715 0.33206 0.96605 0.0
C2728 C 0.94478 0.40572 0.9403 0.0
C2729 C 0.94176 0.43977 0.94634 0.0
C2730 C 0.92756 0.37879 0.93998 0.0
C2731 C 0.90679 0.38597 0.94588 0.0
C2732 C 0.90336 0.42076 0.95166 0.0
C2733 C 0.92086 0.44727 0.95178 0.0
C2734 C 0.93183 0.34225 0.9336 0.0
C2735 C 0.88149 0.42945 0.9581 0.0
H2736 H 0.84147 0.3261 0.93208 0.0
H2737 H 0.87164 0.28514 0.96492 0.0
H2738 H 0.8694 0.41006 0.93038 0.0
H2739 H 0.88751 0.37976 0.92201 0.0
H2740 H 0.85726 0.37492 0.92069 0.0
H2741 H 0.90514 0.30946 0.97288 0.0
H2742 H 0.92415 0.32964 0.9619 0.0
H2743 H 0.90649 0.3593 0.97078 0.0
H2744 H 0.96077 0.4 0.93591 0.0
H2745 H 0.91847 0.47332 0.95656 0.0
H2746 H 0.91821 0.33666 0.92693 0.0
H2747 H 0.93162 0.31911 0.9403 0.0
H2748 H 0.94833 0.34194 0.92881 0.0
H2749 H 0.86697 0.4254 0.95187 0.0
H2750 H 0.88104 0.45846 0.9616 0.0
H2751 H 0.87919 0.40994 0.96583 0.0
C2752 C 0.98147 0.44045 0.84821 0.0
C2753 C 0.98527 0.41093 0.84014 0.0
C2754 C 0.96022 0.45782 0.849 0.0
C2755 C 0.94231 0.44572 0.84144 0.0
C2756 C 0.94607 0.41606 0.83322 0.0
C2757 C 0.96744 0.39892 0.83272 0.0
C2758 C 0.9569 0.48902 0.85799 0.0
C2759 C 0.92755 0.40257 0.82489 0.0
C2760 C 0.88172 0.46895 0.85053 0.0
C2761 C 0.87727 0.50074 0.84348 0.0
C2762 C 0.90277 0.45078 0.84998 0.0
C2763 C 0.91974 0.46441 0.84205 0.0
C2764 C 0.91525 0.49624 0.83481 0.0
C2765 C 0.89416 0.5141 0.83566 0.0
C2766 C 0.90692 0.4172 0.85796 0.0
C2767 C 0.93271 0.51142 0.82612 0.0
H2768 H 0.99501 0.44953 0.85412 0.0
H2769 H 0.9703 0.37637 0.82639 0.0
H2770 H 0.95188 0.51492 0.85317 0.0
H2771 H 0.94302 0.48183 0.86434 0.0
H2772 H 0.97241 0.49481 0.86335 0.0
H2773 H 0.93319 0.37931 0.81899 0.0
H2774 H 0.91285 0.39298 0.8303 0.0
H2775 H 0.92164 0.42585 0.81905 0.0
H2776 H 0.86883 0.45866 0.85666 0.0
H2777 H 0.89075 0.53823 0.83003 0.0
H2778 H 0.92152 0.42257 0.86403 0.0
H2779 H 0.91128 0.39271 0.8523 0.0
H2780 H 0.892 0.41006 0.86361 0.0
H2781 H 0.94811 0.51974 0.83117 0.0
H2782 H 0.92643 0.53595 0.82095 0.0
H2783 H 0.93774 0.48944 0.8196 0.0
loop_
_geom_bond_atom_site_label_1
_geom_bond_atom_site_label_2
_geom_bond_distance
_geom_bond_site_symmetry_2
_ccdc_geom_bond_type
Cu0 N1 1.999 . S
Cu0 O6 1.974 . S
Cu0 N11 1.985 1_545 S
Cu0 O20 1.959 1_545 S
N1 Cu0 1.999 . S
N1 C3 1.263 . S
N1 C5 1.389 . S
N2 C3 1.358 . S
N2 C4 1.400 . S
C3 N1 1.263 . S
C3 N2 1.358 . S
C3 H9 0.930 . S
C4 N2 1.400 . S
C4 C5 1.351 . S
C4 H21 0.930 . S
C5 N1 1.389 . S
C5 C4 1.351 . S
C5 H10 0.930 1_545 S
O6 Cu0 1.974 . S
O6 C16 1.282 . S
C7 O8 1.261 . S
C7 O20 1.251 1_545 S
O8 C7 1.261 . S
H9 C3 0.930 . S
H10 C5 0.930 1_565 S
N11 Cu0 1.985 1_565 S
N11 C13 1.335 . S
N11 C14 1.397 . S
N12 C13 1.345 . S
N12 C15 1.336 . S
C13 N11 1.335 . S
C13 N12 1.345 . S
C13 H18 0.930 . S
C14 N11 1.397 . S
C14 C15 1.359 . S
C14 H19 0.915 1_565 S
C15 N12 1.336 . S
C15 C14 1.359 . S
C15 H22 0.929 . S
C16 O6 1.282 . S
C16 O17 1.216 . S
O17 C16 1.216 . S
H18 C13 0.930 . S
H19 C14 0.915 1_545 S
O20 Cu0 1.959 1_565 S
O20 C7 1.251 1_565 S
H21 C4 0.930 . S
H22 C15 0.929 . S
Cu23 N24 1.999 . S
Cu23 O29 1.974 . S
Cu23 N34 1.985 . S
Cu23 O43 1.959 . S
N24 Cu23 1.999 . S
N24 C26 1.263 . S
N24 C28 1.389 . S
N25 C26 1.358 . S
N25 C27 1.400 . S
C26 N24 1.263 . S
C26 N25 1.358 . S
C26 H32 0.930 . S
C27 N25 1.400 . S
C27 C28 1.351 . S
C27 H44 0.930 . S
C28 N24 1.389 . S
C28 C27 1.351 . S
C28 H33 0.930 . S
O29 Cu23 1.974 . S
O29 C39 1.282 . S
C30 O31 1.261 . S
C30 O43 1.251 . S
O31 C30 1.261 . S
H32 C26 0.930 . S
H33 C28 0.930 . S
N34 Cu23 1.985 . S
N34 C36 1.335 . S
N34 C37 1.390 . S
N35 C36 1.345 . S
N35 C38 1.336 . S
C36 N34 1.335 . S
C36 N35 1.345 . S
C36 H41 0.930 . S
C37 N34 1.390 . S
C37 C38 1.346 . S
C37 H42 0.930 . S
C38 N35 1.336 . S
C38 C37 1.346 . S
C38 H45 0.929 . S
C39 O29 1.282 . S
C39 O40 1.216 . S
O40 C39 1.216 . S
H41 C36 0.930 . S
H42 C37 0.930 . S
O43 Cu23 1.959 . S
O43 C30 1.251 . S
H44 C27 0.930 . S
H45 C38 0.929 . S
Cu46 N47 1.999 . S
Cu46 O52 1.974 . S
Cu46 N57 1.985 . S
Cu46 O66 1.959 . S
N47 Cu46 1.999 . S
N47 C49 1.263 . S
N47 C51 1.389 . S
N48 C49 1.358 . S
N48 C50 1.400 . S
C49 N47 1.263 . S
C49 N48 1.358 . S
C49 H55 0.930 . S
C50 N48 1.400 . S
C50 C51 1.351 . S
C50 H67 0.930 . S
C51 N47 1.389 . S
C51 C50 1.351 . S
C51 H56 0.930 . S
O52 Cu46 1.974 . S
O52 C62 1.282 . S
C53 O54 1.261 . S
C53 O66 1.251 . S
O54 C53 1.261 . S
H55 C49 0.930 . S
H56 C51 0.930 . S
N57 Cu46 1.985 . S
N57 C59 1.335 . S
N57 C60 1.390 . S
N58 C59 1.345 . S
N58 C61 1.336 . S
C59 N57 1.335 . S
C59 N58 1.345 . S
C59 H64 0.930 . S
C60 N57 1.390 . S
C60 C61 1.346 . S
C60 H65 0.930 . S
C61 N58 1.336 . S
C61 C60 1.346 . S
C61 H68 0.929 . S
C62 O52 1.282 . S
C62 O63 1.216 . S
O63 C62 1.216 . S
H64 C59 0.930 . S
H65 C60 0.930 . S
O66 Cu46 1.959 . S
O66 C53 1.251 . S
H67 C50 0.930 . S
H68 C61 0.929 . S
Cu69 N70 1.999 . S
Cu69 O75 1.974 . S
Cu69 N80 1.985 1_545 S
Cu69 O89 1.959 1_545 S
N70 Cu69 1.999 . S
N70 C72 1.263 . S
N70 C74 1.389 . S
N71 C72 1.358 . S
N71 C73 1.400 . S
C72 N70 1.263 . S
C72 N71 1.358 . S
C72 H78 0.930 . S
C73 N71 1.400 . S
C73 C74 1.351 . S
C73 H90 0.930 . S
C74 N70 1.389 . S
C74 C73 1.351 . S
C74 H79 0.930 1_545 S
O75 Cu69 1.974 . S
O75 C85 1.282 . S
C76 O77 1.261 . S
C76 O89 1.251 1_545 S
O77 C76 1.261 . S
H78 C72 0.930 . S
H79 C74 0.930 1_565 S
N80 Cu69 1.985 1_565 S
N80 C82 1.335 . S
N80 C83 1.398 . S
N81 C82 1.345 . S
N81 C84 1.336 . S
C82 N80 1.335 . S
C82 N81 1.345 . S
C82 H87 0.930 . S
C83 N80 1.398 . S
C83 C84 1.361 . S
C83 H88 0.911 1_565 S
C84 N81 1.336 . S
C84 C83 1.361 . S
C84 H91 0.929 . S
C85 O75 1.282 . S
C85 O86 1.216 . S
O86 C85 1.216 . S
H87 C82 0.930 . S
H88 C83 0.911 1_545 S
O89 Cu69 1.959 1_565 S
O89 C76 1.251 1_565 S
H90 C73 0.930 . S
H91 C84 0.929 . S
Cu92 N93 1.999 . S
Cu92 O98 1.974 . S
Cu92 N103 1.985 1_565 S
Cu92 O112 1.959 1_565 S
N93 Cu92 1.999 . S
N93 C95 1.263 . S
N93 C97 1.389 . S
N94 C95 1.358 . S
N94 C96 1.400 . S
C95 N93 1.263 . S
C95 N94 1.358 . S
C95 H101 0.930 . S
C96 N94 1.400 . S
C96 C97 1.351 . S
C96 H113 0.930 . S
C97 N93 1.389 . S
C97 C96 1.351 . S
C97 H102 0.930 1_565 S
O98 Cu92 1.974 . S
O98 C108 1.282 . S
C99 O100 1.261 . S
C99 O112 1.251 1_565 S
O100 C99 1.261 . S
H101 C95 0.930 . S
H102 C97 0.930 1_545 S
N103 Cu92 1.985 1_545 S
N103 C105 1.335 . S
N103 C106 1.397 . S
N104 C105 1.345 . S
N104 C107 1.336 . S
C105 N103 1.335 . S
C105 N104 1.345 . S
C105 H110 0.930 . S
C106 N103 1.397 . S
C106 C107 1.359 . S
C106 H111 0.915 1_545 S
C107 N104 1.336 . S
C107 C106 1.359 . S
C107 H114 0.929 . S
C108 O98 1.282 . S
C108 O109 1.216 . S
O109 C108 1.216 . S
H110 C105 0.930 . S
H111 C106 0.915 1_565 S
O112 Cu92 1.959 1_545 S
O112 C99 1.251 1_545 S
H113 C96 0.930 . S
H114 C107 0.929 . S
Cu115 N116 1.999 . S
Cu115 O121 1.974 . S
Cu115 N126 1.985 . S
Cu115 O135 1.959 . S
N116 Cu115 1.999 . S
N116 C118 1.263 . S
N116 C120 1.389 . S
N117 C118 1.358 . S
N117 C119 1.400 . S
C118 N116 1.263 . S
C118 N117 1.358 . S
C118 H124 0.930 . S
C119 N117 1.400 . S
C119 C120 1.351 . S
C119 H136 0.930 . S
C120 N116 1.389 . S
C120 C119 1.351 . S
C120 H125 0.930 . S
O121 Cu115 1.974 . S
O121 C131 1.282 . S
C122 O123 1.261 . S
C122 O135 1.251 . S
O123 C122 1.261 . S
H124 C118 0.930 . S
H125 C120 0.930 . S
N126 Cu115 1.985 . S
N126 C128 1.335 . S
N126 C129 1.390 . S
N127 C128 1.345 . S
N127 C130 1.336 . S
C128 N126 1.335 . S
C128 N127 1.345 . S
C128 H133 0.930 . S
C129 N126 1.390 . S
C129 C130 1.346 . S
C129 H134 0.930 . S
C130 N127 1.336 . S
C130 C129 1.346 . S
C130 H137 0.929 . S
C131 O121 1.282 . S
C131 O132 1.216 . S
O132 C131 1.216 . S
H133 C128 0.930 . S
H134 C129 0.930 . S
O135 Cu115 1.959 . S
O135 C122 1.251 . S
H136 C119 0.930 . S
H137 C130 0.929 . S
Cu138 N139 1.999 . S
Cu138 O144 1.974 . S
Cu138 N149 1.985 . S
Cu138 O158 1.959 . S
N139 Cu138 1.999 . S
N139 C141 1.263 . S
N139 C143 1.389 . S
N140 C141 1.358 . S
N140 C142 1.400 . S
C141 N139 1.263 . S
C141 N140 1.358 . S
C141 H147 0.930 . S
C142 N140 1.400 . S
C142 C143 1.351 . S
C142 H159 0.930 . S
C143 N139 1.389 . S
C143 C142 1.351 . S
C143 H148 0.930 . S
O144 Cu138 1.974 . S
O144 C154 1.282 . S
C145 O146 1.261 . S
C145 O158 1.251 . S
O146 C145 1.261 . S
H147 C141 0.930 . S
H148 C143 0.930 . S
N149 Cu138 1.985 . S
N149 C151 1.335 . S
N149 C152 1.390 . S
N150 C151 1.345 . S
N150 C153 1.336 . S
C151 N149 1.335 . S
C151 N150 1.345 . S
C151 H156 0.930 . S
C152 N149 1.390 . S
C152 C153 1.346 . S
C152 H157 0.930 . S
C153 N150 1.336 . S
C153 C152 1.346 . S
C153 H160 0.929 . S
C154 O144 1.282 . S
C154 O155 1.216 . S
O155 C154 1.216 . S
H156 C151 0.930 . S
H157 C152 0.930 . S
O158 Cu138 1.959 . S
O158 C145 1.251 . S
H159 C142 0.930 . S
H160 C153 0.929 . S
Cu161 N162 1.999 . S
Cu161 O167 1.974 . S
Cu161 N172 1.985 1_565 S
Cu161 O181 1.959 1_565 S
N162 Cu161 1.999 . S
N162 C164 1.263 . S
N162 C166 1.389 . S
N163 C164 1.358 . S
N163 C165 1.400 . S
C164 N162 1.263 . S
C164 N163 1.358 . S
C164 H170 0.930 . S
C165 N163 1.400 . S
C165 C166 1.351 . S
C165 H182 0.930 . S
C166 N162 1.389 . S
C166 C165 1.351 . S
C166 H171 0.930 1_565 S
O167 Cu161 1.974 . S
O167 C177 1.282 . S
C168 O169 1.261 . S
C168 O181 1.251 1_565 S
O169 C168 1.261 . S
H170 C164 0.930 . S
H171 C166 0.930 1_545 S
N172 Cu161 1.985 1_545 S
N172 C174 1.335 . S
N172 C175 1.398 . S
N173 C174 1.345 . S
N173 C176 1.336 . S
C174 N172 1.335 . S
C174 N173 1.345 . S
C174 H179 0.930 . S
C175 N172 1.398 . S
C175 C176 1.361 . S
C175 H180 0.911 1_545 S
C176 N173 1.336 . S
C176 C175 1.361 . S
C176 H183 0.929 . S
C177 O167 1.282 . S
C177 O178 1.216 . S
O178 C177 1.216 . S
H179 C174 0.930 . S
H180 C175 0.911 1_565 S
O181 Cu161 1.959 1_545 S
O181 C168 1.251 1_545 S
H182 C165 0.930 . S
H183 C176 0.929 . S
Cu184 N185 1.999 . S
Cu184 O190 1.974 . S
Cu184 N195 1.985 . S
Cu184 O204 1.959 . S
N185 Cu184 1.999 . S
N185 C187 1.263 . S
N185 C189 1.389 . S
N186 C187 1.358 . S
N186 C188 1.400 . S
C187 N185 1.263 . S
C187 N186 1.358 . S
C187 H193 0.930 . S
C188 N186 1.400 . S
C188 C189 1.351 . S
C188 H205 0.930 . S
C189 N185 1.389 . S
C189 C188 1.351 . S
C189 H194 0.930 . S
O190 Cu184 1.974 . S
O190 C200 1.282 . S
C191 O192 1.261 . S
C191 O204 1.251 . S
O192 C191 1.261 . S
H193 C187 0.930 . S
H194 C189 0.930 . S
N195 Cu184 1.985 . S
N195 C197 1.335 . S
N195 C198 1.390 . S
N196 C197 1.345 . S
N196 C199 1.336 . S
C197 N195 1.335 . S
C197 N196 1.345 . S
C197 H202 0.930 . S
C198 N195 1.390 . S
C198 C199 1.346 . S
C198 H203 0.930 . S
C199 N196 1.336 . S
C199 C198 1.346 . S
C199 H206 0.929 . S
C200 O190 1.282 . S
C200 O201 1.216 . S
O201 C200 1.216 . S
H202 C197 0.930 . S
H203 C198 0.930 . S
O204 Cu184 1.959 . S
O204 C191 1.251 . S
H205 C188 0.930 . S
H206 C199 0.929 . S
Cu207 N208 1.999 . S
Cu207 O213 1.974 . S
Cu207 N218 1.985 . S
Cu207 O227 1.959 . S
N208 Cu207 1.999 . S
N208 C210 1.263 . S
N208 C212 1.389 . S
N209 C210 1.358 . S
N209 C211 1.400 . S
C210 N208 1.263 . S
C210 N209 1.358 . S
C210 H216 0.930 . S
C211 N209 1.400 . S
C211 C212 1.351 . S
C211 H228 0.930 . S
C212 N208 1.389 . S
C212 C211 1.351 . S
C212 H217 0.930 . S
O213 Cu207 1.974 . S
O213 C223 1.282 . S
C214 O215 1.261 . S
C214 O227 1.251 . S
O215 C214 1.261 . S
H216 C210 0.930 . S
H217 C212 0.930 . S
N218 Cu207 1.985 . S
N218 C220 1.335 . S
N218 C221 1.390 . S
N219 C220 1.345 . S
N219 C222 1.336 . S
C220 N218 1.335 . S
C220 N219 1.345 . S
C220 H225 0.930 . S
C221 N218 1.390 . S
C221 C222 1.346 . S
C221 H226 0.930 . S
C222 N219 1.336 . S
C222 C221 1.346 . S
C222 H229 0.929 . S
C223 O213 1.282 . S
C223 O224 1.216 . S
O224 C223 1.216 . S
H225 C220 0.930 . S
H226 C221 0.930 . S
O227 Cu207 1.959 . S
O227 C214 1.251 . S
H228 C211 0.930 . S
H229 C222 0.929 . S
Cu230 N231 1.999 . S
Cu230 O236 1.974 . S
Cu230 N241 1.985 . S
Cu230 O250 1.959 . S
N231 Cu230 1.999 . S
N231 C233 1.263 . S
N231 C235 1.389 . S
N232 C233 1.358 . S
N232 C234 1.400 . S
C233 N231 1.263 . S
C233 N232 1.358 . S
C233 H239 0.930 . S
C234 N232 1.400 . S
C234 C235 1.351 . S
C234 H251 0.930 . S
C235 N231 1.389 . S
C235 C234 1.351 . S
C235 H240 0.930 . S
O236 Cu230 1.974 . S
O236 C246 1.282 . S
C237 O238 1.261 . S
C237 O250 1.251 . S
O238 C237 1.261 . S
H239 C233 0.930 . S
H240 C235 0.930 . S
N241 Cu230 1.985 . S
N241 C243 1.335 . S
N241 C244 1.390 . S
N242 C243 1.345 . S
N242 C245 1.336 . S
C243 N241 1.335 . S
C243 N242 1.345 . S
C243 H248 0.930 . S
C244 N241 1.390 . S
C244 C245 1.346 . S
C244 H249 0.930 . S
C245 N242 1.336 . S
C245 C244 1.346 . S
C245 H252 0.929 . S
C246 O236 1.282 . S
C246 O247 1.216 . S
O247 C246 1.216 . S
H248 C243 0.930 . S
H249 C244 0.930 . S
O250 Cu230 1.959 . S
O250 C237 1.251 . S
H251 C234 0.930 . S
H252 C245 0.929 . S
Cu253 N254 1.999 . S
Cu253 O259 1.974 . S
Cu253 N264 1.985 . S
Cu253 O273 1.959 . S
N254 Cu253 1.999 . S
N254 C256 1.263 . S
N254 C258 1.389 . S
N255 C256 1.358 . S
N255 C257 1.400 . S
C256 N254 1.263 . S
C256 N255 1.358 . S
C256 H262 0.930 . S
C257 N255 1.400 . S
C257 C258 1.351 . S
C257 H274 0.930 . S
C258 N254 1.389 . S
C258 C257 1.351 . S
C258 H263 0.930 . S
O259 Cu253 1.974 . S
O259 C269 1.282 . S
C260 O261 1.261 . S
C260 O273 1.251 . S
O261 C260 1.261 . S
H262 C256 0.930 . S
H263 C258 0.930 . S
N264 Cu253 1.985 . S
N264 C266 1.335 . S
N264 C267 1.390 . S
N265 C266 1.345 . S
N265 C268 1.336 . S
C266 N264 1.335 . S
C266 N265 1.345 . S
C266 H271 0.930 . S
C267 N264 1.390 . S
C267 C268 1.346 . S
C267 H272 0.930 . S
C268 N265 1.336 . S
C268 C267 1.346 . S
C268 H275 0.929 . S
C269 O259 1.282 . S
C269 O270 1.216 . S
O270 C269 1.216 . S
H271 C266 0.930 . S
H272 C267 0.930 . S
O273 Cu253 1.959 . S
O273 C260 1.251 . S
H274 C257 0.930 . S
H275 C268 0.929 . S
Cu276 N277 1.999 . S
Cu276 O282 1.974 . S
Cu276 N287 1.985 . S
Cu276 O296 1.959 . S
N277 Cu276 1.999 . S
N277 C279 1.263 . S
N277 C281 1.389 . S
N278 C279 1.358 . S
N278 C280 1.400 . S
C279 N277 1.263 . S
C279 N278 1.358 . S
C279 H285 0.930 . S
C280 N278 1.400 . S
C280 C281 1.351 . S
C280 H297 0.930 . S
C281 N277 1.389 . S
C281 C280 1.351 . S
C281 H286 0.930 . S
O282 Cu276 1.974 . S
O282 C292 1.282 . S
C283 O284 1.261 . S
C283 O296 1.251 . S
O284 C283 1.261 . S
H285 C279 0.930 . S
H286 C281 0.930 . S
N287 Cu276 1.985 . S
N287 C289 1.335 . S
N287 C290 1.390 . S
N288 C289 1.345 . S
N288 C291 1.336 . S
C289 N287 1.335 . S
C289 N288 1.345 . S
C289 H294 0.930 . S
C290 N287 1.390 . S
C290 C291 1.346 . S
C290 H295 0.930 . S
C291 N288 1.336 . S
C291 C290 1.346 . S
C291 H298 0.929 . S
C292 O282 1.282 . S
C292 O293 1.216 . S
O293 C292 1.216 . S
H294 C289 0.930 . S
H295 C290 0.930 . S
O296 Cu276 1.959 . S
O296 C283 1.251 . S
H297 C280 0.930 . S
H298 C291 0.929 . S
Cu299 N300 1.999 . S
Cu299 O305 1.974 . S
Cu299 N310 1.985 . S
Cu299 O319 1.959 . S
N300 Cu299 1.999 . S
N300 C302 1.263 . S
N300 C304 1.389 . S
N301 C302 1.358 . S
N301 C303 1.400 . S
C302 N300 1.263 . S
C302 N301 1.358 . S
C302 H308 0.930 . S
C303 N301 1.400 . S
C303 C304 1.351 . S
C303 H320 0.930 . S
C304 N300 1.389 . S
C304 C303 1.351 . S
C304 H309 0.930 . S
O305 Cu299 1.974 . S
O305 C315 1.282 . S
C306 O307 1.261 . S
C306 O319 1.251 . S
O307 C306 1.261 . S
H308 C302 0.930 . S
H309 C304 0.930 . S
N310 Cu299 1.985 . S
N310 C312 1.335 . S
N310 C313 1.390 . S
N311 C312 1.345 . S
N311 C314 1.336 . S
C312 N310 1.335 . S
C312 N311 1.345 . S
C312 H317 0.930 . S
C313 N310 1.390 . S
C313 C314 1.346 . S
C313 H318 0.930 . S
C314 N311 1.336 . S
C314 C313 1.346 . S
C314 H321 0.929 . S
C315 O305 1.282 . S
C315 O316 1.216 . S
O316 C315 1.216 . S
H317 C312 0.930 . S
H318 C313 0.930 . S
O319 Cu299 1.959 . S
O319 C306 1.251 . S
H320 C303 0.930 . S
H321 C314 0.929 . S
Cu322 N323 1.999 . S
Cu322 O328 1.974 . S
Cu322 N333 1.985 . S
Cu322 O342 1.959 . S
N323 Cu322 1.999 . S
N323 C325 1.263 . S
N323 C327 1.389 . S
N324 C325 1.358 . S
N324 C326 1.400 . S
C325 N323 1.263 . S
C325 N324 1.358 . S
C325 H331 0.930 . S
C326 N324 1.400 . S
C326 C327 1.351 . S
C326 H343 0.930 . S
C327 N323 1.389 . S
C327 C326 1.351 . S
C327 H332 0.930 . S
O328 Cu322 1.974 . S
O328 C338 1.282 . S
C329 O330 1.261 . S
C329 O342 1.251 . S
O330 C329 1.261 . S
H331 C325 0.930 . S
H332 C327 0.930 . S
N333 Cu322 1.985 . S
N333 C335 1.335 . S
N333 C336 1.390 . S
N334 C335 1.345 . S
N334 C337 1.336 . S
C335 N333 1.335 . S
C335 N334 1.345 . S
C335 H340 0.930 . S
C336 N333 1.390 . S
C336 C337 1.346 . S
C336 H341 0.930 . S
C337 N334 1.336 . S
C337 C336 1.346 . S
C337 H344 0.929 . S
C338 O328 1.282 . S
C338 O339 1.216 . S
O339 C338 1.216 . S
H340 C335 0.930 . S
H341 C336 0.930 . S
O342 Cu322 1.959 . S
O342 C329 1.251 . S
H343 C326 0.930 . S
H344 C337 0.929 . S
Cu345 N346 1.999 . S
Cu345 O351 1.974 . S
Cu345 N356 1.985 . S
Cu345 O365 1.959 . S
N346 Cu345 1.999 . S
N346 C348 1.263 . S
N346 C350 1.389 . S
N347 C348 1.358 . S
N347 C349 1.400 . S
C348 N346 1.263 . S
C348 N347 1.358 . S
C348 H354 0.930 . S
C349 N347 1.400 . S
C349 C350 1.351 . S
C349 H366 0.930 . S
C350 N346 1.389 . S
C350 C349 1.351 . S
C350 H355 0.930 . S
O351 Cu345 1.974 . S
O351 C361 1.282 . S
C352 O353 1.261 . S
C352 O365 1.251 . S
O353 C352 1.261 . S
H354 C348 0.930 . S
H355 C350 0.930 . S
N356 Cu345 1.985 . S
N356 C358 1.335 . S
N356 C359 1.390 . S
N357 C358 1.345 . S
N357 C360 1.336 . S
C358 N356 1.335 . S
C358 N357 1.345 . S
C358 H363 0.930 . S
C359 N356 1.390 . S
C359 C360 1.346 . S
C359 H364 0.930 . S
C360 N357 1.336 . S
C360 C359 1.346 . S
C360 H367 0.929 . S
C361 O351 1.282 . S
C361 O362 1.216 . S
O362 C361 1.216 . S
H363 C358 0.930 . S
H364 C359 0.930 . S
O365 Cu345 1.959 . S
O365 C352 1.251 . S
H366 C349 0.930 . S
H367 C360 0.929 . S
Cu368 N369 1.999 . S
Cu368 O374 1.974 . S
Cu368 N379 1.985 1_445 S
Cu368 O388 1.959 1_545 S
N369 Cu368 1.999 . S
N369 C371 1.263 . S
N369 C373 1.389 . S
N370 C371 1.358 . S
N370 C372 1.400 . S
C371 N369 1.263 . S
C371 N370 1.358 . S
C371 H377 0.930 . S
C372 N370 1.400 . S
C372 C373 1.351 . S
C372 H389 0.930 . S
C373 N369 1.389 . S
C373 C372 1.351 . S
C373 H378 0.930 1_545 S
O374 Cu368 1.974 . S
O374 C384 1.282 1_455 S
C375 O376 1.261 . S
C375 O388 1.251 1_645 S
O376 C375 1.261 . S
H377 C371 0.930 . S
H378 C373 0.930 1_565 S
N379 Cu368 1.985 1_665 S
N379 C381 1.335 . S
N379 C382 1.390 . S
N380 C381 1.345 . S
N380 C383 1.336 . S
C381 N379 1.335 . S
C381 N380 1.345 . S
C381 H386 0.930 . S
C382 N379 1.390 . S
C382 C383 1.347 . S
C382 H387 0.929 1_565 S
C383 N380 1.336 . S
C383 C382 1.347 . S
C383 H390 0.929 . S
C384 O374 1.282 1_655 S
C384 O385 1.216 . S
O385 C384 1.216 . S
H386 C381 0.930 . S
H387 C382 0.929 1_545 S
O388 Cu368 1.959 1_565 S
O388 C375 1.251 1_465 S
H389 C372 0.930 . S
H390 C383 0.929 . S
Cu391 N392 1.999 . S
Cu391 O397 1.974 . S
Cu391 N402 1.985 . S
Cu391 O411 1.959 . S
N392 Cu391 1.999 . S
N392 C394 1.263 . S
N392 C396 1.389 . S
N393 C394 1.358 . S
N393 C395 1.400 . S
C394 N392 1.263 . S
C394 N393 1.358 . S
C394 H400 0.930 . S
C395 N393 1.400 . S
C395 C396 1.351 . S
C395 H412 0.930 . S
C396 N392 1.389 . S
C396 C395 1.351 . S
C396 H401 0.930 . S
O397 Cu391 1.974 . S
O397 C407 1.282 . S
C398 O399 1.261 . S
C398 O411 1.251 . S
O399 C398 1.261 . S
H400 C394 0.930 . S
H401 C396 0.930 . S
N402 Cu391 1.985 . S
N402 C404 1.335 . S
N402 C405 1.390 . S
N403 C404 1.345 . S
N403 C406 1.336 . S
C404 N402 1.335 . S
C404 N403 1.345 . S
C404 H409 0.930 . S
C405 N402 1.390 . S
C405 C406 1.346 . S
C405 H410 0.930 . S
C406 N403 1.336 . S
C406 C405 1.346 . S
C406 H413 0.929 . S
C407 O397 1.282 . S
C407 O408 1.216 . S
O408 C407 1.216 . S
H409 C404 0.930 . S
H410 C405 0.930 . S
O411 Cu391 1.959 . S
O411 C398 1.251 . S
H412 C395 0.930 . S
H413 C406 0.929 . S
Cu414 N415 1.999 . S
Cu414 O420 1.974 . S
Cu414 N425 1.985 1_455 S
Cu414 O434 1.959 . S
N415 Cu414 1.999 . S
N415 C417 1.263 . S
N415 C419 1.389 . S
N416 C417 1.358 . S
N416 C418 1.400 . S
C417 N415 1.263 . S
C417 N416 1.358 . S
C417 H423 0.930 . S
C418 N416 1.400 . S
C418 C419 1.351 . S
C418 H435 0.930 . S
C419 N415 1.389 . S
C419 C418 1.351 . S
C419 H424 0.930 . S
O420 Cu414 1.974 . S
O420 C430 1.282 1_455 S
C421 O422 1.261 . S
C421 O434 1.251 1_655 S
O422 C421 1.261 . S
H423 C417 0.930 . S
H424 C419 0.930 . S
N425 Cu414 1.985 1_655 S
N425 C427 1.335 . S
N425 C428 1.390 . S
N426 C427 1.345 . S
N426 C429 1.336 . S
C427 N425 1.335 . S
C427 N426 1.345 . S
C427 H432 0.930 . S
C428 N425 1.390 . S
C428 C429 1.346 . S
C428 H433 0.930 . S
C429 N426 1.336 . S
C429 C428 1.346 . S
C429 H436 0.929 . S
C430 O420 1.282 1_655 S
C430 O431 1.216 . S
O431 C430 1.216 . S
H432 C427 0.930 . S
H433 C428 0.930 . S
O434 Cu414 1.959 . S
O434 C421 1.251 1_455 S
H435 C418 0.930 . S
H436 C429 0.929 . S
Cu437 N438 1.999 . S
Cu437 O443 1.974 . S
Cu437 N448 1.985 1_545 S
Cu437 O457 1.959 1_545 S
N438 Cu437 1.999 . S
N438 C440 1.263 . S
N438 C442 1.389 . S
N439 C440 1.358 . S
N439 C441 1.400 . S
C440 N438 1.263 . S
C440 N439 1.358 . S
C440 H446 0.930 . S
C441 N439 1.400 . S
C441 C442 1.351 . S
C441 H458 0.930 . S
C442 N438 1.389 . S
C442 C441 1.351 . S
C442 H447 0.930 1_545 S
O443 Cu437 1.974 . S
O443 C453 1.282 . S
C444 O445 1.261 . S
C444 O457 1.251 1_545 S
O445 C444 1.261 . S
H446 C440 0.930 . S
H447 C442 0.930 1_565 S
N448 Cu437 1.985 1_565 S
N448 C450 1.335 . S
N448 C451 1.390 . S
N449 C450 1.345 . S
N449 C452 1.336 . S
C450 N448 1.335 . S
C450 N449 1.345 . S
C450 H455 0.930 . S
C451 N448 1.390 . S
C451 C452 1.346 . S
C451 H456 0.930 1_565 S
C452 N449 1.336 . S
C452 C451 1.346 . S
C452 H459 0.929 . S
C453 O443 1.282 . S
C453 O454 1.216 . S
O454 C453 1.216 . S
H455 C450 0.930 . S
H456 C451 0.930 1_545 S
O457 Cu437 1.959 1_565 S
O457 C444 1.251 1_565 S
H458 C441 0.930 . S
H459 C452 0.929 . S
Cu460 N461 1.999 . S
Cu460 O466 1.974 . S
Cu460 N471 1.985 1_665 S
Cu460 O480 1.959 1_565 S
N461 Cu460 1.999 . S
N461 C463 1.263 . S
N461 C465 1.389 . S
N462 C463 1.358 . S
N462 C464 1.400 . S
C463 N461 1.263 . S
C463 N462 1.358 . S
C463 H469 0.930 . S
C464 N462 1.400 . S
C464 C465 1.351 . S
C464 H481 0.930 . S
C465 N461 1.389 . S
C465 C464 1.351 . S
C465 H470 0.930 1_565 S
O466 Cu460 1.974 . S
O466 C476 1.282 1_655 S
C467 O468 1.261 . S
C467 O480 1.251 1_465 S
O468 C467 1.261 . S
H469 C463 0.930 . S
H470 C465 0.930 1_545 S
N471 Cu460 1.985 1_445 S
N471 C473 1.335 . S
N471 C474 1.390 . S
N472 C473 1.345 . S
N472 C475 1.336 . S
C473 N471 1.335 . S
C473 N472 1.345 . S
C473 H478 0.930 . S
C474 N471 1.390 . S
C474 C475 1.347 . S
C474 H479 0.929 1_545 S
C475 N472 1.336 . S
C475 C474 1.347 . S
C475 H482 0.929 . S
C476 O466 1.282 1_455 S
C476 O477 1.216 . S
O477 C476 1.216 . S
H478 C473 0.930 . S
H479 C474 0.929 1_565 S
O480 Cu460 1.959 1_545 S
O480 C467 1.251 1_645 S
H481 C464 0.930 . S
H482 C475 0.929 . S
Cu483 N484 1.999 . S
Cu483 O489 1.974 . S
Cu483 N494 1.985 . S
Cu483 O503 1.959 . S
N484 Cu483 1.999 . S
N484 C486 1.263 . S
N484 C488 1.389 . S
N485 C486 1.358 . S
N485 C487 1.400 . S
C486 N484 1.263 . S
C486 N485 1.358 . S
C486 H492 0.930 . S
C487 N485 1.400 . S
C487 C488 1.351 . S
C487 H504 0.930 . S
C488 N484 1.389 . S
C488 C487 1.351 . S
C488 H493 0.930 . S
O489 Cu483 1.974 . S
O489 C499 1.282 . S
C490 O491 1.261 . S
C490 O503 1.251 . S
O491 C490 1.261 . S
H492 C486 0.930 . S
H493 C488 0.930 . S
N494 Cu483 1.985 . S
N494 C496 1.335 . S
N494 C497 1.390 . S
N495 C496 1.345 . S
N495 C498 1.336 . S
C496 N494 1.335 . S
C496 N495 1.345 . S
C496 H501 0.930 . S
C497 N494 1.390 . S
C497 C498 1.346 . S
C497 H502 0.930 . S
C498 N495 1.336 . S
C498 C497 1.346 . S
C498 H505 0.929 . S
C499 O489 1.282 . S
C499 O500 1.216 . S
O500 C499 1.216 . S
H501 C496 0.930 . S
H502 C497 0.930 . S
O503 Cu483 1.959 . S
O503 C490 1.251 . S
H504 C487 0.930 . S
H505 C498 0.929 . S
Cu506 N507 1.999 . S
Cu506 O512 1.974 . S
Cu506 N517 1.985 1_655 S
Cu506 O526 1.959 . S
N507 Cu506 1.999 . S
N507 C509 1.263 . S
N507 C511 1.389 . S
N508 C509 1.358 . S
N508 C510 1.400 . S
C509 N507 1.263 . S
C509 N508 1.358 . S
C509 H515 0.930 . S
C510 N508 1.400 . S
C510 C511 1.351 . S
C510 H527 0.930 . S
C511 N507 1.389 . S
C511 C510 1.351 . S
C511 H516 0.930 . S
O512 Cu506 1.974 . S
O512 C522 1.282 1_655 S
C513 O514 1.261 . S
C513 O526 1.251 1_455 S
O514 C513 1.261 . S
H515 C509 0.930 . S
H516 C511 0.930 . S
N517 Cu506 1.985 1_455 S
N517 C519 1.335 . S
N517 C520 1.390 . S
N518 C519 1.345 . S
N518 C521 1.336 . S
C519 N517 1.335 . S
C519 N518 1.345 . S
C519 H524 0.930 . S
C520 N517 1.390 . S
C520 C521 1.346 . S
C520 H525 0.930 . S
C521 N518 1.336 . S
C521 C520 1.346 . S
C521 H528 0.929 . S
C522 O512 1.282 1_455 S
C522 O523 1.216 . S
O523 C522 1.216 . S
H524 C519 0.930 . S
H525 C520 0.930 . S
O526 Cu506 1.959 . S
O526 C513 1.251 1_655 S
H527 C510 0.930 . S
H528 C521 0.929 . S
Cu529 N530 1.999 . S
Cu529 O535 1.974 . S
Cu529 N540 1.985 1_565 S
Cu529 O549 1.959 1_565 S
N530 Cu529 1.999 . S
N530 C532 1.263 . S
N530 C534 1.389 . S
N531 C532 1.358 . S
N531 C533 1.400 . S
C532 N530 1.263 . S
C532 N531 1.358 . S
C532 H538 0.930 . S
C533 N531 1.400 . S
C533 C534 1.351 . S
C533 H550 0.930 . S
C534 N530 1.389 . S
C534 C533 1.351 . S
C534 H539 0.930 1_565 S
O535 Cu529 1.974 . S
O535 C545 1.282 . S
C536 O537 1.261 . S
C536 O549 1.251 1_565 S
O537 C536 1.261 . S
H538 C532 0.930 . S
H539 C534 0.930 1_545 S
N540 Cu529 1.985 1_545 S
N540 C542 1.335 . S
N540 C543 1.390 . S
N541 C542 1.345 . S
N541 C544 1.336 . S
C542 N540 1.335 . S
C542 N541 1.345 . S
C542 H547 0.930 . S
C543 N540 1.390 . S
C543 C544 1.346 . S
C543 H548 0.930 1_545 S
C544 N541 1.336 . S
C544 C543 1.346 . S
C544 H551 0.929 . S
C545 O535 1.282 . S
C545 O546 1.216 . S
O546 C545 1.216 . S
H547 C542 0.930 . S
H548 C543 0.930 1_565 S
O549 Cu529 1.959 1_545 S
O549 C536 1.251 1_545 S
H550 C533 0.930 . S
H551 C544 0.929 . S
Cu552 N553 1.999 . S
Cu552 O558 1.974 . S
Cu552 N563 1.985 1_455 S
Cu552 O572 1.959 . S
N553 Cu552 1.999 . S
N553 C555 1.263 . S
N553 C557 1.389 . S
N554 C555 1.358 . S
N554 C556 1.400 . S
C555 N553 1.263 . S
C555 N554 1.358 . S
C555 H561 0.930 . S
C556 N554 1.400 . S
C556 C557 1.351 . S
C556 H573 0.930 . S
C557 N553 1.389 . S
C557 C556 1.351 . S
C557 H562 0.930 . S
O558 Cu552 1.974 . S
O558 C568 1.282 1_455 S
C559 O560 1.261 . S
C559 O572 1.251 1_655 S
O560 C559 1.261 . S
H561 C555 0.930 . S
H562 C557 0.930 . S
N563 Cu552 1.985 1_655 S
N563 C565 1.335 . S
N563 C566 1.390 . S
N564 C565 1.345 . S
N564 C567 1.336 . S
C565 N563 1.335 . S
C565 N564 1.345 . S
C565 H570 0.930 . S
C566 N563 1.390 . S
C566 C567 1.346 . S
C566 H571 0.930 . S
C567 N564 1.336 . S
C567 C566 1.346 . S
C567 H574 0.929 . S
C568 O558 1.282 1_655 S
C568 O569 1.216 . S
O569 C568 1.216 . S
H570 C565 0.930 . S
H571 C566 0.930 . S
O572 Cu552 1.959 . S
O572 C559 1.251 1_455 S
H573 C556 0.930 . S
H574 C567 0.929 . S
Cu575 N576 1.999 . S
Cu575 O581 1.974 . S
Cu575 N586 1.985 . S
Cu575 O595 1.959 . S
N576 Cu575 1.999 . S
N576 C578 1.263 . S
N576 C580 1.389 . S
N577 C578 1.358 . S
N577 C579 1.400 . S
C578 N576 1.263 . S
C578 N577 1.358 . S
C578 H584 0.930 . S
C579 N577 1.400 . S
C579 C580 1.351 . S
C579 H596 0.930 . S
C580 N576 1.389 . S
C580 C579 1.351 . S
C580 H585 0.930 . S
O581 Cu575 1.974 . S
O581 C591 1.282 . S
C582 O583 1.261 . S
C582 O595 1.251 . S
O583 C582 1.261 . S
H584 C578 0.930 . S
H585 C580 0.930 . S
N586 Cu575 1.985 . S
N586 C588 1.335 . S
N586 C589 1.390 . S
N587 C588 1.345 . S
N587 C590 1.336 . S
C588 N586 1.335 . S
C588 N587 1.345 . S
C588 H593 0.930 . S
C589 N586 1.390 . S
C589 C590 1.346 . S
C589 H594 0.930 . S
C590 N587 1.336 . S
C590 C589 1.346 . S
C590 H597 0.929 . S
C591 O581 1.282 . S
C591 O592 1.216 . S
O592 C591 1.216 . S
H593 C588 0.930 . S
H594 C589 0.930 . S
O595 Cu575 1.959 . S
O595 C582 1.251 . S
H596 C579 0.930 . S
H597 C590 0.929 . S
Cu598 N599 1.999 . S
Cu598 O604 1.974 . S
Cu598 N609 1.985 1_455 S
Cu598 O618 1.959 . S
N599 Cu598 1.999 . S
N599 C601 1.263 . S
N599 C603 1.389 . S
N600 C601 1.358 . S
N600 C602 1.400 . S
C601 N599 1.263 . S
C601 N600 1.358 . S
C601 H607 0.930 . S
C602 N600 1.400 . S
C602 C603 1.351 . S
C602 H619 0.930 . S
C603 N599 1.389 . S
C603 C602 1.351 . S
C603 H608 0.930 . S
O604 Cu598 1.974 . S
O604 C614 1.282 1_455 S
C605 O606 1.261 . S
C605 O618 1.251 1_655 S
O606 C605 1.261 . S
H607 C601 0.930 . S
H608 C603 0.930 . S
N609 Cu598 1.985 1_655 S
N609 C611 1.335 . S
N609 C612 1.390 . S
N610 C611 1.345 . S
N610 C613 1.336 . S
C611 N609 1.335 . S
C611 N610 1.345 . S
C611 H616 0.930 . S
C612 N609 1.390 . S
C612 C613 1.346 . S
C612 H617 0.930 . S
C613 N610 1.336 . S
C613 C612 1.346 . S
C613 H620 0.929 . S
C614 O604 1.282 1_655 S
C614 O615 1.216 . S
O615 C614 1.216 . S
H616 C611 0.930 . S
H617 C612 0.930 . S
O618 Cu598 1.959 . S
O618 C605 1.251 1_455 S
H619 C602 0.930 . S
H620 C613 0.929 . S
Cu621 N622 1.999 . S
Cu621 O627 1.974 . S
Cu621 N632 1.985 . S
Cu621 O641 1.959 . S
N622 Cu621 1.999 . S
N622 C624 1.263 . S
N622 C626 1.389 . S
N623 C624 1.358 . S
N623 C625 1.400 . S
C624 N622 1.263 . S
C624 N623 1.358 . S
C624 H630 0.930 . S
C625 N623 1.400 . S
C625 C626 1.351 . S
C625 H642 0.930 . S
C626 N622 1.389 . S
C626 C625 1.351 . S
C626 H631 0.930 . S
O627 Cu621 1.974 . S
O627 C637 1.282 . S
C628 O629 1.261 . S
C628 O641 1.251 . S
O629 C628 1.261 . S
H630 C624 0.930 . S
H631 C626 0.930 . S
N632 Cu621 1.985 . S
N632 C634 1.335 . S
N632 C635 1.390 . S
N633 C634 1.345 . S
N633 C636 1.336 . S
C634 N632 1.335 . S
C634 N633 1.345 . S
C634 H639 0.930 . S
C635 N632 1.390 . S
C635 C636 1.346 . S
C635 H640 0.930 . S
C636 N633 1.336 . S
C636 C635 1.346 . S
C636 H643 0.929 . S
C637 O627 1.282 . S
C637 O638 1.216 . S
O638 C637 1.216 . S
H639 C634 0.930 . S
H640 C635 0.930 . S
O641 Cu621 1.959 . S
O641 C628 1.251 . S
H642 C625 0.930 . S
H643 C636 0.929 . S
Cu644 N645 1.999 . S
Cu644 O650 1.974 . S
Cu644 N655 1.985 1_655 S
Cu644 O664 1.959 . S
N645 Cu644 1.999 . S
N645 C647 1.263 . S
N645 C649 1.389 . S
N646 C647 1.358 . S
N646 C648 1.400 . S
C647 N645 1.263 . S
C647 N646 1.358 . S
C647 H653 0.930 . S
C648 N646 1.400 . S
C648 C649 1.351 . S
C648 H665 0.930 . S
C649 N645 1.389 . S
C649 C648 1.351 . S
C649 H654 0.930 . S
O650 Cu644 1.974 . S
O650 C660 1.282 1_655 S
C651 O652 1.261 . S
C651 O664 1.251 1_455 S
O652 C651 1.261 . S
H653 C647 0.930 . S
H654 C649 0.930 . S
N655 Cu644 1.985 1_455 S
N655 C657 1.335 . S
N655 C658 1.390 . S
N656 C657 1.345 . S
N656 C659 1.336 . S
C657 N655 1.335 . S
C657 N656 1.345 . S
C657 H662 0.930 . S
C658 N655 1.390 . S
C658 C659 1.346 . S
C658 H663 0.930 . S
C659 N656 1.336 . S
C659 C658 1.346 . S
C659 H666 0.929 . S
C660 O650 1.282 1_455 S
C660 O661 1.216 . S
O661 C660 1.216 . S
H662 C657 0.930 . S
H663 C658 0.930 . S
O664 Cu644 1.959 . S
O664 C651 1.251 1_655 S
H665 C648 0.930 . S
H666 C659 0.929 . S
Cu667 N668 1.999 . S
Cu667 O673 1.974 . S
Cu667 N678 1.985 . S
Cu667 O687 1.959 . S
N668 Cu667 1.999 . S
N668 C670 1.263 . S
N668 C672 1.389 . S
N669 C670 1.358 . S
N669 C671 1.400 . S
C670 N668 1.263 . S
C670 N669 1.358 . S
C670 H676 0.930 . S
C671 N669 1.400 . S
C671 C672 1.351 . S
C671 H688 0.930 . S
C672 N668 1.389 . S
C672 C671 1.351 . S
C672 H677 0.930 . S
O673 Cu667 1.974 . S
O673 C683 1.282 . S
C674 O675 1.261 . S
C674 O687 1.251 . S
O675 C674 1.261 . S
H676 C670 0.930 . S
H677 C672 0.930 . S
N678 Cu667 1.985 . S
N678 C680 1.335 . S
N678 C681 1.390 . S
N679 C680 1.345 . S
N679 C682 1.336 . S
C680 N678 1.335 . S
C680 N679 1.345 . S
C680 H685 0.930 . S
C681 N678 1.390 . S
C681 C682 1.346 . S
C681 H686 0.930 . S
C682 N679 1.336 . S
C682 C681 1.346 . S
C682 H689 0.929 . S
C683 O673 1.282 . S
C683 O684 1.216 . S
O684 C683 1.216 . S
H685 C680 0.930 . S
H686 C681 0.930 . S
O687 Cu667 1.959 . S
O687 C674 1.251 . S
H688 C671 0.930 . S
H689 C682 0.929 . S
Cu690 N691 1.999 . S
Cu690 O696 1.974 . S
Cu690 N701 1.985 1_655 S
Cu690 O710 1.959 . S
N691 Cu690 1.999 . S
N691 C693 1.263 . S
N691 C695 1.389 . S
N692 C693 1.358 . S
N692 C694 1.400 . S
C693 N691 1.263 . S
C693 N692 1.358 . S
C693 H699 0.930 . S
C694 N692 1.400 . S
C694 C695 1.351 . S
C694 H711 0.930 . S
C695 N691 1.389 . S
C695 C694 1.351 . S
C695 H700 0.930 . S
O696 Cu690 1.974 . S
O696 C706 1.282 1_655 S
C697 O698 1.261 . S
C697 O710 1.251 1_455 S
O698 C697 1.261 . S
H699 C693 0.930 . S
H700 C695 0.930 . S
N701 Cu690 1.985 1_455 S
N701 C703 1.335 . S
N701 C704 1.390 . S
N702 C703 1.345 . S
N702 C705 1.336 . S
C703 N701 1.335 . S
C703 N702 1.345 . S
C703 H708 0.930 . S
C704 N701 1.390 . S
C704 C705 1.346 . S
C704 H709 0.930 . S
C705 N702 1.336 . S
C705 C704 1.346 . S
C705 H712 0.929 . S
C706 O696 1.282 1_455 S
C706 O707 1.216 . S
O707 C706 1.216 . S
H708 C703 0.930 . S
H709 C704 0.930 . S
O710 Cu690 1.959 . S
O710 C697 1.251 1_655 S
H711 C694 0.930 . S
H712 C705 0.929 . S
Cu713 N714 1.999 . S
Cu713 O719 1.974 . S
Cu713 N724 1.985 . S
Cu713 O733 1.959 . S
N714 Cu713 1.999 . S
N714 C716 1.263 . S
N714 C718 1.389 . S
N715 C716 1.358 . S
N715 C717 1.400 . S
C716 N714 1.263 . S
C716 N715 1.358 . S
C716 H722 0.930 . S
C717 N715 1.400 . S
C717 C718 1.351 . S
C717 H734 0.930 . S
C718 N714 1.389 . S
C718 C717 1.351 . S
C718 H723 0.930 . S
O719 Cu713 1.974 . S
O719 C729 1.282 . S
C720 O721 1.261 . S
C720 O733 1.251 . S
O721 C720 1.261 . S
H722 C716 0.930 . S
H723 C718 0.930 . S
N724 Cu713 1.985 . S
N724 C726 1.335 . S
N724 C727 1.390 . S
N725 C726 1.345 . S
N725 C728 1.336 . S
C726 N724 1.335 . S
C726 N725 1.345 . S
C726 H731 0.930 . S
C727 N724 1.390 . S
C727 C728 1.346 . S
C727 H732 0.930 . S
C728 N725 1.336 . S
C728 C727 1.346 . S
C728 H735 0.929 . S
C729 O719 1.282 . S
C729 O730 1.216 . S
O730 C729 1.216 . S
H731 C726 0.930 . S
H732 C727 0.930 . S
O733 Cu713 1.959 . S
O733 C720 1.251 . S
H734 C717 0.930 . S
H735 C728 0.929 . S
C736 C737 1.391 . S
C736 C738 1.394 . S
C736 H752 0.931 . S
C737 C736 1.391 . S
C737 C741 1.376 . S
C738 C736 1.394 . S
C738 C739 1.369 . S
C738 C742 1.531 . S
C739 C738 1.369 . S
C739 C740 1.410 . S
C739 C747 1.503 . S
C740 C739 1.410 . S
C740 C741 1.392 . S
C740 C743 1.511 . S
C741 C737 1.376 . S
C741 C740 1.392 . S
C741 H753 0.929 . S
C742 C738 1.531 . S
C742 H754 0.960 . S
C742 H755 0.962 . S
C742 H756 0.960 . S
C743 C740 1.511 . S
C743 H757 0.961 . S
C743 H758 0.961 . S
C743 H759 0.961 . S
C744 C745 1.370 . S
C744 C746 1.363 . S
C744 H760 0.931 . S
C745 C744 1.370 . S
C745 C749 1.408 . S
C746 C744 1.363 . S
C746 C747 1.370 . S
C746 C750 1.524 . S
C747 C739 1.503 . S
C747 C746 1.370 . S
C747 C748 1.403 . S
C748 C747 1.403 . S
C748 C749 1.404 . S
C748 C751 1.539 . S
C749 C745 1.408 . S
C749 C748 1.404 . S
C749 H761 0.930 . S
C750 C746 1.524 . S
C750 H762 0.956 . S
C750 H763 0.961 . S
C750 H764 0.961 . S
C751 C748 1.539 . S
C751 H765 0.958 . S
C751 H766 0.961 . S
C751 H767 0.960 . S
H752 C736 0.931 . S
H753 C741 0.929 . S
H754 C742 0.960 . S
H755 C742 0.962 . S
H756 C742 0.960 . S
H757 C743 0.961 . S
H758 C743 0.961 . S
H759 C743 0.961 . S
H760 C744 0.931 . S
H761 C749 0.930 . S
H762 C750 0.956 . S
H763 C750 0.961 . S
H764 C750 0.961 . S
H765 C751 0.958 . S
H766 C751 0.961 . S
H767 C751 0.960 . S
C768 C769 1.391 . S
C768 C770 1.394 . S
C768 H784 0.931 . S
C769 C768 1.391 . S
C769 C773 1.376 . S
C770 C768 1.394 . S
C770 C771 1.369 . S
C770 C774 1.531 . S
C771 C770 1.369 . S
C771 C772 1.410 . S
C771 C779 1.503 . S
C772 C771 1.410 . S
C772 C773 1.392 . S
C772 C775 1.511 . S
C773 C769 1.376 . S
C773 C772 1.392 . S
C773 H785 0.929 . S
C774 C770 1.531 . S
C774 H786 0.960 . S
C774 H787 0.962 . S
C774 H788 0.960 . S
C775 C772 1.511 . S
C775 H789 0.961 . S
C775 H790 0.961 . S
C775 H791 0.961 . S
C776 C777 1.370 . S
C776 C778 1.363 . S
C776 H792 0.931 . S
C777 C776 1.370 . S
C777 C781 1.408 . S
C778 C776 1.363 . S
C778 C779 1.370 . S
C778 C782 1.524 . S
C779 C771 1.503 . S
C779 C778 1.370 . S
C779 C780 1.403 . S
C780 C779 1.403 . S
C780 C781 1.404 . S
C780 C783 1.539 . S
C781 C777 1.408 . S
C781 C780 1.404 . S
C781 H793 0.930 . S
C782 C778 1.524 . S
C782 H794 0.956 . S
C782 H795 0.961 . S
C782 H796 0.961 . S
C783 C780 1.539 . S
C783 H797 0.958 . S
C783 H798 0.961 . S
C783 H799 0.960 . S
H784 C768 0.931 . S
H785 C773 0.929 . S
H786 C774 0.960 . S
H787 C774 0.962 . S
H788 C774 0.960 . S
H789 C775 0.961 . S
H790 C775 0.961 . S
H791 C775 0.961 . S
H792 C776 0.931 . S
H793 C781 0.930 . S
H794 C782 0.956 . S
H795 C782 0.961 . S
H796 C782 0.961 . S
H797 C783 0.958 . S
H798 C783 0.961 . S
H799 C783 0.960 . S
C800 C801 1.391 . S
C800 C802 1.394 . S
C800 H816 0.931 . S
C801 C800 1.391 . S
C801 C805 1.376 . S
C802 C800 1.394 . S
C802 C803 1.369 . S
C802 C806 1.531 . S
C803 C802 1.369 . S
C803 C804 1.410 . S
C803 C811 1.503 . S
C804 C803 1.410 . S
C804 C805 1.392 . S
C804 C807 1.511 . S
C805 C801 1.376 . S
C805 C804 1.392 . S
C805 H817 0.929 . S
C806 C802 1.531 . S
C806 H818 0.960 . S
C806 H819 0.962 . S
C806 H820 0.960 . S
C807 C804 1.511 . S
C807 H821 0.961 . S
C807 H822 0.961 . S
C807 H823 0.961 . S
C808 C809 1.370 . S
C808 C810 1.363 . S
C808 H824 0.931 . S
C809 C808 1.370 . S
C809 C813 1.408 . S
C810 C808 1.363 . S
C810 C811 1.370 . S
C810 C814 1.524 . S
C811 C803 1.503 . S
C811 C810 1.370 . S
C811 C812 1.403 . S
C812 C811 1.403 . S
C812 C813 1.404 . S
C812 C815 1.539 . S
C813 C809 1.408 . S
C813 C812 1.404 . S
C813 H825 0.930 . S
C814 C810 1.524 . S
C814 H826 0.956 . S
C814 H827 0.961 . S
C814 H828 0.961 . S
C815 C812 1.539 . S
C815 H829 0.958 . S
C815 H830 0.961 . S
C815 H831 0.960 . S
H816 C800 0.931 . S
H817 C805 0.929 . S
H818 C806 0.960 . S
H819 C806 0.962 . S
H820 C806 0.960 . S
H821 C807 0.961 . S
H822 C807 0.961 . S
H823 C807 0.961 . S
H824 C808 0.931 . S
H825 C813 0.930 . S
H826 C814 0.956 . S
H827 C814 0.961 . S
H828 C814 0.961 . S
H829 C815 0.958 . S
H830 C815 0.961 . S
H831 C815 0.960 . S
C832 C833 1.391 . S
C832 C834 1.394 . S
C832 H848 0.931 . S
C833 C832 1.391 . S
C833 C837 1.376 . S
C834 C832 1.394 . S
C834 C835 1.369 . S
C834 C838 1.531 . S
C835 C834 1.369 . S
C835 C836 1.410 . S
C835 C843 1.503 . S
C836 C835 1.410 . S
C836 C837 1.392 . S
C836 C839 1.511 . S
C837 C833 1.376 . S
C837 C836 1.392 . S
C837 H849 0.929 . S
C838 C834 1.531 . S
C838 H850 0.960 . S
C838 H851 0.962 . S
C838 H852 0.960 . S
C839 C836 1.511 . S
C839 H853 0.961 . S
C839 H854 0.961 . S
C839 H855 0.961 . S
C840 C841 1.370 . S
C840 C842 1.363 . S
C840 H856 0.931 . S
C841 C840 1.370 . S
C841 C845 1.408 . S
C842 C840 1.363 . S
C842 C843 1.370 . S
C842 C846 1.524 . S
C843 C835 1.503 . S
C843 C842 1.370 . S
C843 C844 1.403 . S
C844 C843 1.403 . S
C844 C845 1.404 . S
C844 C847 1.539 . S
C845 C841 1.408 . S
C845 C844 1.404 . S
C845 H857 0.930 . S
C846 C842 1.524 . S
C846 H858 0.956 . S
C846 H859 0.961 . S
C846 H860 0.961 . S
C847 C844 1.539 . S
C847 H861 0.958 . S
C847 H862 0.961 . S
C847 H863 0.960 . S
H848 C832 0.931 . S
H849 C837 0.929 . S
H850 C838 0.960 . S
H851 C838 0.962 . S
H852 C838 0.960 . S
H853 C839 0.961 . S
H854 C839 0.961 . S
H855 C839 0.961 . S
H856 C840 0.931 . S
H857 C845 0.930 . S
H858 C846 0.956 . S
H859 C846 0.961 . S
H860 C846 0.961 . S
H861 C847 0.958 . S
H862 C847 0.961 . S
H863 C847 0.960 . S
C864 C865 1.391 . S
C864 C866 1.394 . S
C864 H880 0.931 . S
C865 C864 1.391 . S
C865 C869 1.376 . S
C866 C864 1.394 . S
C866 C867 1.369 . S
C866 C870 1.531 . S
C867 C866 1.369 . S
C867 C868 1.410 . S
C867 C875 1.503 . S
C868 C867 1.410 . S
C868 C869 1.392 . S
C868 C871 1.511 . S
C869 C865 1.376 . S
C869 C868 1.392 . S
C869 H881 0.929 . S
C870 C866 1.531 . S
C870 H882 0.960 . S
C870 H883 0.962 . S
C870 H884 0.960 . S
C871 C868 1.511 . S
C871 H885 0.961 . S
C871 H886 0.961 . S
C871 H887 0.961 . S
C872 C873 1.370 . S
C872 C874 1.363 . S
C872 H888 0.931 . S
C873 C872 1.370 . S
C873 C877 1.408 . S
C874 C872 1.363 . S
C874 C875 1.370 . S
C874 C878 1.524 . S
C875 C867 1.503 . S
C875 C874 1.370 . S
C875 C876 1.403 . S
C876 C875 1.403 . S
C876 C877 1.404 . S
C876 C879 1.539 . S
C877 C873 1.408 . S
C877 C876 1.404 . S
C877 H889 0.930 . S
C878 C874 1.524 . S
C878 H890 0.956 . S
C878 H891 0.961 . S
C878 H892 0.961 . S
C879 C876 1.539 . S
C879 H893 0.958 . S
C879 H894 0.961 . S
C879 H895 0.960 . S
H880 C864 0.931 . S
H881 C869 0.929 . S
H882 C870 0.960 . S
H883 C870 0.962 . S
H884 C870 0.960 . S
H885 C871 0.961 . S
H886 C871 0.961 . S
H887 C871 0.961 . S
H888 C872 0.931 . S
H889 C877 0.930 . S
H890 C878 0.956 . S
H891 C878 0.961 . S
H892 C878 0.961 . S
H893 C879 0.958 . S
H894 C879 0.961 . S
H895 C879 0.960 . S
C896 C897 1.391 . S
C896 C898 1.394 . S
C896 H912 0.931 . S
C897 C896 1.391 . S
C897 C901 1.376 . S
C898 C896 1.394 . S
C898 C899 1.369 . S
C898 C902 1.531 . S
C899 C898 1.369 . S
C899 C900 1.410 . S
C899 C907 1.503 . S
C900 C899 1.410 . S
C900 C901 1.392 . S
C900 C903 1.511 . S
C901 C897 1.376 . S
C901 C900 1.392 . S
C901 H913 0.929 . S
C902 C898 1.531 . S
C902 H914 0.960 . S
C902 H915 0.962 . S
C902 H916 0.960 . S
C903 C900 1.511 . S
C903 H917 0.961 . S
C903 H918 0.961 . S
C903 H919 0.961 . S
C904 C905 1.370 . S
C904 C906 1.363 . S
C904 H920 0.931 . S
C905 C904 1.370 . S
C905 C909 1.408 . S
C906 C904 1.363 . S
C906 C907 1.370 . S
C906 C910 1.524 . S
C907 C899 1.503 . S
C907 C906 1.370 . S
C907 C908 1.403 . S
C908 C907 1.403 . S
C908 C909 1.404 . S
C908 C911 1.539 . S
C909 C905 1.408 . S
C909 C908 1.404 . S
C909 H921 0.930 . S
C910 C906 1.524 . S
C910 H922 0.956 . S
C910 H923 0.961 . S
C910 H924 0.961 . S
C911 C908 1.539 . S
C911 H925 0.958 . S
C911 H926 0.961 . S
C911 H927 0.960 . S
H912 C896 0.931 . S
H913 C901 0.929 . S
H914 C902 0.960 . S
H915 C902 0.962 . S
H916 C902 0.960 . S
H917 C903 0.961 . S
H918 C903 0.961 . S
H919 C903 0.961 . S
H920 C904 0.931 . S
H921 C909 0.930 . S
H922 C910 0.956 . S
H923 C910 0.961 . S
H924 C910 0.961 . S
H925 C911 0.958 . S
H926 C911 0.961 . S
H927 C911 0.960 . S
C928 C929 1.391 . S
C928 C930 1.394 . S
C928 H944 0.931 . S
C929 C928 1.391 . S
C929 C933 1.376 . S
C930 C928 1.394 . S
C930 C931 1.369 . S
C930 C934 1.531 . S
C931 C930 1.369 . S
C931 C932 1.410 . S
C931 C939 1.503 . S
C932 C931 1.410 . S
C932 C933 1.392 . S
C932 C935 1.511 . S
C933 C929 1.376 . S
C933 C932 1.392 . S
C933 H945 0.929 . S
C934 C930 1.531 . S
C934 H946 0.960 . S
C934 H947 0.962 . S
C934 H948 0.960 . S
C935 C932 1.511 . S
C935 H949 0.961 . S
C935 H950 0.961 . S
C935 H951 0.961 . S
C936 C937 1.370 . S
C936 C938 1.363 . S
C936 H952 0.931 . S
C937 C936 1.370 . S
C937 C941 1.408 . S
C938 C936 1.363 . S
C938 C939 1.370 . S
C938 C942 1.524 . S
C939 C931 1.503 . S
C939 C938 1.370 . S
C939 C940 1.403 . S
C940 C939 1.403 . S
C940 C941 1.404 . S
C940 C943 1.539 . S
C941 C937 1.408 . S
C941 C940 1.404 . S
C941 H953 0.930 . S
C942 C938 1.524 . S
C942 H954 0.956 . S
C942 H955 0.961 . S
C942 H956 0.961 . S
C943 C940 1.539 . S
C943 H957 0.958 . S
C943 H958 0.961 . S
C943 H959 0.960 . S
H944 C928 0.931 . S
H945 C933 0.929 . S
H946 C934 0.960 . S
H947 C934 0.962 . S
H948 C934 0.960 . S
H949 C935 0.961 . S
H950 C935 0.961 . S
H951 C935 0.961 . S
H952 C936 0.931 . S
H953 C941 0.930 . S
H954 C942 0.956 . S
H955 C942 0.961 . S
H956 C942 0.961 . S
H957 C943 0.958 . S
H958 C943 0.961 . S
H959 C943 0.960 . S
C960 C961 1.391 . S
C960 C962 1.394 . S
C960 H976 0.931 . S
C961 C960 1.391 . S
C961 C965 1.376 . S
C962 C960 1.394 . S
C962 C963 1.369 . S
C962 C966 1.531 . S
C963 C962 1.369 . S
C963 C964 1.410 . S
C963 C971 1.503 . S
C964 C963 1.410 . S
C964 C965 1.392 . S
C964 C967 1.511 . S
C965 C961 1.376 . S
C965 C964 1.392 . S
C965 H977 0.929 . S
C966 C962 1.531 . S
C966 H978 0.960 . S
C966 H979 0.962 . S
C966 H980 0.960 . S
C967 C964 1.511 . S
C967 H981 0.961 . S
C967 H982 0.961 . S
C967 H983 0.961 . S
C968 C969 1.370 . S
C968 C970 1.363 . S
C968 H984 0.931 . S
C969 C968 1.370 . S
C969 C973 1.408 . S
C970 C968 1.363 . S
C970 C971 1.370 . S
C970 C974 1.524 . S
C971 C963 1.503 . S
C971 C970 1.370 . S
C971 C972 1.403 . S
C972 C971 1.403 . S
C972 C973 1.404 . S
C972 C975 1.539 . S
C973 C969 1.408 . S
C973 C972 1.404 . S
C973 H985 0.930 . S
C974 C970 1.524 . S
C974 H986 0.956 . S
C974 H987 0.961 . S
C974 H988 0.961 . S
C975 C972 1.539 . S
C975 H989 0.958 . S
C975 H990 0.961 . S
C975 H991 0.960 . S
H976 C960 0.931 . S
H977 C965 0.929 . S
H978 C966 0.960 . S
H979 C966 0.962 . S
H980 C966 0.960 . S
H981 C967 0.961 . S
H982 C967 0.961 . S
H983 C967 0.961 . S
H984 C968 0.931 . S
H985 C973 0.930 . S
H986 C974 0.956 . S
H987 C974 0.961 . S
H988 C974 0.961 . S
H989 C975 0.958 . S
H990 C975 0.961 . S
H991 C975 0.960 . S
C992 C993 1.387 1_455 S
C992 C994 1.394 . S
C992 H1008 0.931 . S
C993 C992 1.387 1_655 S
C993 C997 1.380 . S
C994 C992 1.394 . S
C994 C995 1.364 . S
C994 C998 1.531 . S
C995 C994 1.364 . S
C995 C996 1.414 1_455 S
C995 C1003 1.503 1_455 S
C996 C995 1.414 1_655 S
C996 C997 1.392 . S
C996 C999 1.511 . S
C997 C993 1.380 . S
C997 C996 1.392 . S
C997 H1009 0.929 . S
C998 C994 1.531 . S
C998 H1010 0.960 . S
C998 H1011 0.962 . S
C998 H1012 0.960 . S
C999 C996 1.511 . S
C999 H1013 0.961 . S
C999 H1014 0.961 . S
C999 H1015 0.961 . S
C1000 C1001 1.370 1_455 S
C1000 C1002 1.364 . S
C1000 H1016 0.931 . S
C1001 C1000 1.370 1_655 S
C1001 C1005 1.408 . S
C1002 C1000 1.364 . S
C1002 C1003 1.370 1_455 S
C1002 C1006 1.526 . S
C1003 C995 1.503 1_655 S
C1003 C1002 1.370 1_655 S
C1003 C1004 1.402 . S
C1004 C1003 1.402 . S
C1004 C1005 1.404 . S
C1004 C1007 1.543 . S
C1005 C1001 1.408 . S
C1005 C1004 1.404 . S
C1005 H1017 0.933 . S
C1006 C1002 1.526 . S
C1006 H1018 0.956 . S
C1006 H1019 0.961 1_455 S
C1006 H1020 0.961 . S
C1007 C1004 1.543 . S
C1007 H1021 0.958 1_655 S
C1007 H1022 0.961 . S
C1007 H1023 0.960 . S
H1008 C992 0.931 . S
H1009 C997 0.929 . S
H1010 C998 0.960 . S
H1011 C998 0.962 . S
H1012 C998 0.960 . S
H1013 C999 0.961 . S
H1014 C999 0.961 . S
H1015 C999 0.961 . S
H1016 C1000 0.931 . S
H1017 C1005 0.933 . S
H1018 C1006 0.956 . S
H1019 C1006 0.961 1_655 S
H1020 C1006 0.961 . S
H1021 C1007 0.958 1_455 S
H1022 C1007 0.961 . S
H1023 C1007 0.960 . S
C1024 C1025 1.391 . S
C1024 C1026 1.394 . S
C1024 H1040 0.931 . S
C1025 C1024 1.391 . S
C1025 C1029 1.376 . S
C1026 C1024 1.394 . S
C1026 C1027 1.369 . S
C1026 C1030 1.531 . S
C1027 C1026 1.369 . S
C1027 C1028 1.410 . S
C1027 C1035 1.503 . S
C1028 C1027 1.410 . S
C1028 C1029 1.392 . S
C1028 C1031 1.511 . S
C1029 C1025 1.376 . S
C1029 C1028 1.392 . S
C1029 H1041 0.929 . S
C1030 C1026 1.531 . S
C1030 H1042 0.960 . S
C1030 H1043 0.962 . S
C1030 H1044 0.960 . S
C1031 C1028 1.511 . S
C1031 H1045 0.961 . S
C1031 H1046 0.961 . S
C1031 H1047 0.961 . S
C1032 C1033 1.370 . S
C1032 C1034 1.363 . S
C1032 H1048 0.931 . S
C1033 C1032 1.370 . S
C1033 C1037 1.408 . S
C1034 C1032 1.363 . S
C1034 C1035 1.370 . S
C1034 C1038 1.524 . S
C1035 C1027 1.503 . S
C1035 C1034 1.370 . S
C1035 C1036 1.403 . S
C1036 C1035 1.403 . S
C1036 C1037 1.404 . S
C1036 C1039 1.539 . S
C1037 C1033 1.408 . S
C1037 C1036 1.404 . S
C1037 H1049 0.930 . S
C1038 C1034 1.524 . S
C1038 H1050 0.956 . S
C1038 H1051 0.961 . S
C1038 H1052 0.961 . S
C1039 C1036 1.539 . S
C1039 H1053 0.958 . S
C1039 H1054 0.961 . S
C1039 H1055 0.960 . S
H1040 C1024 0.931 . S
H1041 C1029 0.929 . S
H1042 C1030 0.960 . S
H1043 C1030 0.962 . S
H1044 C1030 0.960 . S
H1045 C1031 0.961 . S
H1046 C1031 0.961 . S
H1047 C1031 0.961 . S
H1048 C1032 0.931 . S
H1049 C1037 0.930 . S
H1050 C1038 0.956 . S
H1051 C1038 0.961 . S
H1052 C1038 0.961 . S
H1053 C1039 0.958 . S
H1054 C1039 0.961 . S
H1055 C1039 0.960 . S
C1056 C1057 1.391 1_655 S
C1056 C1058 1.394 . S
C1056 H1072 0.931 . S
C1057 C1056 1.391 1_455 S
C1057 C1061 1.376 . S
C1058 C1056 1.394 . S
C1058 C1059 1.369 1_655 S
C1058 C1062 1.531 . S
C1059 C1058 1.369 1_455 S
C1059 C1060 1.410 . S
C1059 C1067 1.503 . S
C1060 C1059 1.410 . S
C1060 C1061 1.392 . S
C1060 C1063 1.511 . S
C1061 C1057 1.376 . S
C1061 C1060 1.392 . S
C1061 H1073 0.929 . S
C1062 C1058 1.531 . S
C1062 H1074 0.960 . S
C1062 H1075 0.962 . S
C1062 H1076 0.960 . S
C1063 C1060 1.511 . S
C1063 H1077 0.961 . S
C1063 H1078 0.961 . S
C1063 H1079 0.961 . S
C1064 C1065 1.343 1_655 S
C1064 C1066 1.363 . S
C1064 H1080 0.931 . S
C1065 C1064 1.343 1_455 S
C1065 C1069 1.438 . S
C1066 C1064 1.363 . S
C1066 C1067 1.370 1_655 S
C1066 C1070 1.524 . S
C1067 C1059 1.503 . S
C1067 C1066 1.370 1_455 S
C1067 C1068 1.403 . S
C1068 C1067 1.403 . S
C1068 C1069 1.404 . S
C1068 C1071 1.539 . S
C1069 C1065 1.438 . S
C1069 C1068 1.404 . S
C1069 H1081 0.930 . S
C1070 C1066 1.524 . S
C1070 H1082 0.956 . S
C1070 H1083 0.961 . S
C1070 H1084 0.961 . S
C1071 C1068 1.539 . S
C1071 H1085 0.958 . S
C1071 H1086 0.961 . S
C1071 H1087 0.960 . S
H1072 C1056 0.931 . S
H1073 C1061 0.929 . S
H1074 C1062 0.960 . S
H1075 C1062 0.962 . S
H1076 C1062 0.960 . S
H1077 C1063 0.961 . S
H1078 C1063 0.961 . S
H1079 C1063 0.961 . S
H1080 C1064 0.931 . S
H1081 C1069 0.930 . S
H1082 C1070 0.956 . S
H1083 C1070 0.961 . S
H1084 C1070 0.961 . S
H1085 C1071 0.958 . S
H1086 C1071 0.961 . S
H1087 C1071 0.960 . S
C1088 C1089 1.391 . S
C1088 C1090 1.394 . S
C1088 H1104 0.931 . S
C1089 C1088 1.391 . S
C1089 C1093 1.376 . S
C1090 C1088 1.394 . S
C1090 C1091 1.369 . S
C1090 C1094 1.531 . S
C1091 C1090 1.369 . S
C1091 C1092 1.410 . S
C1091 C1099 1.503 . S
C1092 C1091 1.410 . S
C1092 C1093 1.392 . S
C1092 C1095 1.511 . S
C1093 C1089 1.376 . S
C1093 C1092 1.392 . S
C1093 H1105 0.929 . S
C1094 C1090 1.531 . S
C1094 H1106 0.960 . S
C1094 H1107 0.962 . S
C1094 H1108 0.960 . S
C1095 C1092 1.511 . S
C1095 H1109 0.961 . S
C1095 H1110 0.961 . S
C1095 H1111 0.961 . S
C1096 C1097 1.370 . S
C1096 C1098 1.363 . S
C1096 H1112 0.931 . S
C1097 C1096 1.370 . S
C1097 C1101 1.408 . S
C1098 C1096 1.363 . S
C1098 C1099 1.370 . S
C1098 C1102 1.524 . S
C1099 C1091 1.503 . S
C1099 C1098 1.370 . S
C1099 C1100 1.403 . S
C1100 C1099 1.403 . S
C1100 C1101 1.404 . S
C1100 C1103 1.539 . S
C1101 C1097 1.408 . S
C1101 C1100 1.404 . S
C1101 H1113 0.930 . S
C1102 C1098 1.524 . S
C1102 H1114 0.956 . S
C1102 H1115 0.961 . S
C1102 H1116 0.961 . S
C1103 C1100 1.539 . S
C1103 H1117 0.958 . S
C1103 H1118 0.961 . S
C1103 H1119 0.960 . S
H1104 C1088 0.931 . S
H1105 C1093 0.929 . S
H1106 C1094 0.960 . S
H1107 C1094 0.962 . S
H1108 C1094 0.960 . S
H1109 C1095 0.961 . S
H1110 C1095 0.961 . S
H1111 C1095 0.961 . S
H1112 C1096 0.931 . S
H1113 C1101 0.930 . S
H1114 C1102 0.956 . S
H1115 C1102 0.961 . S
H1116 C1102 0.961 . S
H1117 C1103 0.958 . S
H1118 C1103 0.961 . S
H1119 C1103 0.960 . S
C1120 C1121 1.389 1_655 S
C1120 C1122 1.394 . S
C1120 H1136 0.931 . S
C1121 C1120 1.389 1_455 S
C1121 C1125 1.378 . S
C1122 C1120 1.394 . S
C1122 C1123 1.366 1_655 S
C1122 C1126 1.531 . S
C1123 C1122 1.366 1_455 S
C1123 C1124 1.413 . S
C1123 C1131 1.503 . S
C1124 C1123 1.413 . S
C1124 C1125 1.392 . S
C1124 C1127 1.511 . S
C1125 C1121 1.378 . S
C1125 C1124 1.392 . S
C1125 H1137 0.929 . S
C1126 C1122 1.531 . S
C1126 H1138 0.960 . S
C1126 H1139 0.962 . S
C1126 H1140 0.960 . S
C1127 C1124 1.511 . S
C1127 H1141 0.961 . S
C1127 H1142 0.961 . S
C1127 H1143 0.961 . S
C1128 C1129 1.370 1_655 S
C1128 C1130 1.363 . S
C1128 H1144 0.931 . S
C1129 C1128 1.370 1_455 S
C1129 C1133 1.409 . S
C1130 C1128 1.363 . S
C1130 C1131 1.370 1_655 S
C1130 C1134 1.524 . S
C1131 C1123 1.503 . S
C1131 C1130 1.370 1_455 S
C1131 C1132 1.403 . S
C1132 C1131 1.403 . S
C1132 C1133 1.404 . S
C1132 C1135 1.539 . S
C1133 C1129 1.409 . S
C1133 C1132 1.404 . S
C1133 H1145 0.930 . S
C1134 C1130 1.524 . S
C1134 H1146 0.956 . S
C1134 H1147 0.961 1_655 S
C1134 H1148 0.961 . S
C1135 C1132 1.539 . S
C1135 H1149 0.958 1_455 S
C1135 H1150 0.961 . S
C1135 H1151 0.960 . S
H1136 C1120 0.931 . S
H1137 C1125 0.929 . S
H1138 C1126 0.960 . S
H1139 C1126 0.962 . S
H1140 C1126 0.960 . S
H1141 C1127 0.961 . S
H1142 C1127 0.961 . S
H1143 C1127 0.961 . S
H1144 C1128 0.931 . S
H1145 C1133 0.930 . S
H1146 C1134 0.956 . S
H1147 C1134 0.961 1_455 S
H1148 C1134 0.961 . S
H1149 C1135 0.958 1_655 S
H1150 C1135 0.961 . S
H1151 C1135 0.960 . S
C1152 C1153 1.391 . S
C1152 C1154 1.394 . S
C1152 H1168 0.931 . S
C1153 C1152 1.391 . S
C1153 C1157 1.376 . S
C1154 C1152 1.394 . S
C1154 C1155 1.369 . S
C1154 C1158 1.531 . S
C1155 C1154 1.369 . S
C1155 C1156 1.410 . S
C1155 C1163 1.503 . S
C1156 C1155 1.410 . S
C1156 C1157 1.392 . S
C1156 C1159 1.511 . S
C1157 C1153 1.376 . S
C1157 C1156 1.392 . S
C1157 H1169 0.929 . S
C1158 C1154 1.531 . S
C1158 H1170 0.960 . S
C1158 H1171 0.962 . S
C1158 H1172 0.960 . S
C1159 C1156 1.511 . S
C1159 H1173 0.961 . S
C1159 H1174 0.961 . S
C1159 H1175 0.961 . S
C1160 C1161 1.370 . S
C1160 C1162 1.363 . S
C1160 H1176 0.931 . S
C1161 C1160 1.370 . S
C1161 C1165 1.408 . S
C1162 C1160 1.363 . S
C1162 C1163 1.370 . S
C1162 C1166 1.524 . S
C1163 C1155 1.503 . S
C1163 C1162 1.370 . S
C1163 C1164 1.403 . S
C1164 C1163 1.403 . S
C1164 C1165 1.404 . S
C1164 C1167 1.539 . S
C1165 C1161 1.408 . S
C1165 C1164 1.404 . S
C1165 H1177 0.930 . S
C1166 C1162 1.524 . S
C1166 H1178 0.956 . S
C1166 H1179 0.961 . S
C1166 H1180 0.961 . S
C1167 C1164 1.539 . S
C1167 H1181 0.958 . S
C1167 H1182 0.961 . S
C1167 H1183 0.960 . S
H1168 C1152 0.931 . S
H1169 C1157 0.929 . S
H1170 C1158 0.960 . S
H1171 C1158 0.962 . S
H1172 C1158 0.960 . S
H1173 C1159 0.961 . S
H1174 C1159 0.961 . S
H1175 C1159 0.961 . S
H1176 C1160 0.931 . S
H1177 C1165 0.930 . S
H1178 C1166 0.956 . S
H1179 C1166 0.961 . S
H1180 C1166 0.961 . S
H1181 C1167 0.958 . S
H1182 C1167 0.961 . S
H1183 C1167 0.960 . S
C1184 C1185 1.356 1_655 S
C1184 C1186 1.394 . S
C1184 H1200 0.931 . S
C1185 C1184 1.356 1_455 S
C1185 C1189 1.413 . S
C1186 C1184 1.394 . S
C1186 C1187 1.369 1_655 S
C1186 C1190 1.531 . S
C1187 C1186 1.369 1_455 S
C1187 C1188 1.410 . S
C1187 C1195 1.503 . S
C1188 C1187 1.410 . S
C1188 C1189 1.392 . S
C1188 C1191 1.511 . S
C1189 C1185 1.413 . S
C1189 C1188 1.392 . S
C1189 H1201 0.929 . S
C1190 C1186 1.531 . S
C1190 H1202 0.960 . S
C1190 H1203 0.962 . S
C1190 H1204 0.960 . S
C1191 C1188 1.511 . S
C1191 H1205 0.961 . S
C1191 H1206 0.961 . S
C1191 H1207 0.961 . S
C1192 C1193 1.362 1_655 S
C1192 C1194 1.363 . S
C1192 H1208 0.931 . S
C1193 C1192 1.362 1_455 S
C1193 C1197 1.417 . S
C1194 C1192 1.363 . S
C1194 C1195 1.370 1_655 S
C1194 C1198 1.524 . S
C1195 C1187 1.503 . S
C1195 C1194 1.370 1_455 S
C1195 C1196 1.403 . S
C1196 C1195 1.403 . S
C1196 C1197 1.404 . S
C1196 C1199 1.539 . S
C1197 C1193 1.417 . S
C1197 C1196 1.404 . S
C1197 H1209 0.930 . S
C1198 C1194 1.524 . S
C1198 H1210 0.956 . S
C1198 H1211 0.961 . S
C1198 H1212 0.961 . S
C1199 C1196 1.539 . S
C1199 H1213 0.958 . S
C1199 H1214 0.961 . S
C1199 H1215 0.960 . S
H1200 C1184 0.931 . S
H1201 C1189 0.929 . S
H1202 C1190 0.960 . S
H1203 C1190 0.962 . S
H1204 C1190 0.960 . S
H1205 C1191 0.961 . S
H1206 C1191 0.961 . S
H1207 C1191 0.961 . S
H1208 C1192 0.931 . S
H1209 C1197 0.930 . S
H1210 C1198 0.956 . S
H1211 C1198 0.961 . S
H1212 C1198 0.961 . S
H1213 C1199 0.958 . S
H1214 C1199 0.961 . S
H1215 C1199 0.960 . S
C1216 C1217 1.391 . S
C1216 C1218 1.394 . S
C1216 H1232 0.931 . S
C1217 C1216 1.391 . S
C1217 C1221 1.376 . S
C1218 C1216 1.394 . S
C1218 C1219 1.369 . S
C1218 C1222 1.531 . S
C1219 C1218 1.369 . S
C1219 C1220 1.410 . S
C1219 C1227 1.503 . S
C1220 C1219 1.410 . S
C1220 C1221 1.392 . S
C1220 C1223 1.511 . S
C1221 C1217 1.376 . S
C1221 C1220 1.392 . S
C1221 H1233 0.929 . S
C1222 C1218 1.531 . S
C1222 H1234 0.960 . S
C1222 H1235 0.962 . S
C1222 H1236 0.960 . S
C1223 C1220 1.511 . S
C1223 H1237 0.961 . S
C1223 H1238 0.961 . S
C1223 H1239 0.961 . S
C1224 C1225 1.370 . S
C1224 C1226 1.363 . S
C1224 H1240 0.931 . S
C1225 C1224 1.370 . S
C1225 C1229 1.408 . S
C1226 C1224 1.363 . S
C1226 C1227 1.370 . S
C1226 C1230 1.524 . S
C1227 C1219 1.503 . S
C1227 C1226 1.370 . S
C1227 C1228 1.403 . S
C1228 C1227 1.403 . S
C1228 C1229 1.404 . S
C1228 C1231 1.539 . S
C1229 C1225 1.408 . S
C1229 C1228 1.404 . S
C1229 H1241 0.930 . S
C1230 C1226 1.524 . S
C1230 H1242 0.956 . S
C1230 H1243 0.961 . S
C1230 H1244 0.961 . S
C1231 C1228 1.539 . S
C1231 H1245 0.958 . S
C1231 H1246 0.961 . S
C1231 H1247 0.960 . S
H1232 C1216 0.931 . S
H1233 C1221 0.929 . S
H1234 C1222 0.960 . S
H1235 C1222 0.962 . S
H1236 C1222 0.960 . S
H1237 C1223 0.961 . S
H1238 C1223 0.961 . S
H1239 C1223 0.961 . S
H1240 C1224 0.931 . S
H1241 C1229 0.930 . S
H1242 C1230 0.956 . S
H1243 C1230 0.961 . S
H1244 C1230 0.961 . S
H1245 C1231 0.958 . S
H1246 C1231 0.961 . S
H1247 C1231 0.960 . S
C1248 C1249 1.391 . S
C1248 C1250 1.394 . S
C1248 H1264 0.931 . S
C1249 C1248 1.391 . S
C1249 C1253 1.376 . S
C1250 C1248 1.394 . S
C1250 C1251 1.369 . S
C1250 C1254 1.531 . S
C1251 C1250 1.369 . S
C1251 C1252 1.410 . S
C1251 C1259 1.503 . S
C1252 C1251 1.410 . S
C1252 C1253 1.392 . S
C1252 C1255 1.511 . S
C1253 C1249 1.376 . S
C1253 C1252 1.392 . S
C1253 H1265 0.929 . S
C1254 C1250 1.531 . S
C1254 H1266 0.960 . S
C1254 H1267 0.962 . S
C1254 H1268 0.960 . S
C1255 C1252 1.511 . S
C1255 H1269 0.961 . S
C1255 H1270 0.961 . S
C1255 H1271 0.961 . S
C1256 C1257 1.370 . S
C1256 C1258 1.363 . S
C1256 H1272 0.931 . S
C1257 C1256 1.370 . S
C1257 C1261 1.408 . S
C1258 C1256 1.363 . S
C1258 C1259 1.370 . S
C1258 C1262 1.524 . S
C1259 C1251 1.503 . S
C1259 C1258 1.370 . S
C1259 C1260 1.403 . S
C1260 C1259 1.403 . S
C1260 C1261 1.404 . S
C1260 C1263 1.539 . S
C1261 C1257 1.408 . S
C1261 C1260 1.404 . S
C1261 H1273 0.930 . S
C1262 C1258 1.524 . S
C1262 H1274 0.956 . S
C1262 H1275 0.961 . S
C1262 H1276 0.961 . S
C1263 C1260 1.539 . S
C1263 H1277 0.958 . S
C1263 H1278 0.961 . S
C1263 H1279 0.960 . S
H1264 C1248 0.931 . S
H1265 C1253 0.929 . S
H1266 C1254 0.960 . S
H1267 C1254 0.962 . S
H1268 C1254 0.960 . S
H1269 C1255 0.961 . S
H1270 C1255 0.961 . S
H1271 C1255 0.961 . S
H1272 C1256 0.931 . S
H1273 C1261 0.930 . S
H1274 C1262 0.956 . S
H1275 C1262 0.961 . S
H1276 C1262 0.961 . S
H1277 C1263 0.958 . S
H1278 C1263 0.961 . S
H1279 C1263 0.960 . S
C1280 C1281 1.391 . S
C1280 C1282 1.394 . S
C1280 H1296 0.931 . S
C1281 C1280 1.391 . S
C1281 C1285 1.376 . S
C1282 C1280 1.394 . S
C1282 C1283 1.369 . S
C1282 C1286 1.531 . S
C1283 C1282 1.369 . S
C1283 C1284 1.410 . S
C1283 C1291 1.503 . S
C1284 C1283 1.410 . S
C1284 C1285 1.392 . S
C1284 C1287 1.511 . S
C1285 C1281 1.376 . S
C1285 C1284 1.392 . S
C1285 H1297 0.929 . S
C1286 C1282 1.531 . S
C1286 H1298 0.960 . S
C1286 H1299 0.962 . S
C1286 H1300 0.960 . S
C1287 C1284 1.511 . S
C1287 H1301 0.961 . S
C1287 H1302 0.961 . S
C1287 H1303 0.961 . S
C1288 C1289 1.370 . S
C1288 C1290 1.363 . S
C1288 H1304 0.931 . S
C1289 C1288 1.370 . S
C1289 C1293 1.408 . S
C1290 C1288 1.363 . S
C1290 C1291 1.370 . S
C1290 C1294 1.524 . S
C1291 C1283 1.503 . S
C1291 C1290 1.370 . S
C1291 C1292 1.403 . S
C1292 C1291 1.403 . S
C1292 C1293 1.404 . S
C1292 C1295 1.539 . S
C1293 C1289 1.408 . S
C1293 C1292 1.404 . S
C1293 H1305 0.930 . S
C1294 C1290 1.524 . S
C1294 H1306 0.956 . S
C1294 H1307 0.961 . S
C1294 H1308 0.961 . S
C1295 C1292 1.539 . S
C1295 H1309 0.958 . S
C1295 H1310 0.961 . S
C1295 H1311 0.960 . S
H1296 C1280 0.931 . S
H1297 C1285 0.929 . S
H1298 C1286 0.960 . S
H1299 C1286 0.962 . S
H1300 C1286 0.960 . S
H1301 C1287 0.961 . S
H1302 C1287 0.961 . S
H1303 C1287 0.961 . S
H1304 C1288 0.931 . S
H1305 C1293 0.930 . S
H1306 C1294 0.956 . S
H1307 C1294 0.961 . S
H1308 C1294 0.961 . S
H1309 C1295 0.958 . S
H1310 C1295 0.961 . S
H1311 C1295 0.960 . S
C1312 C1313 1.391 . S
C1312 C1314 1.394 . S
C1312 H1328 0.931 . S
C1313 C1312 1.391 . S
C1313 C1317 1.376 . S
C1314 C1312 1.394 . S
C1314 C1315 1.369 . S
C1314 C1318 1.531 . S
C1315 C1314 1.369 . S
C1315 C1316 1.410 . S
C1315 C1323 1.503 . S
C1316 C1315 1.410 . S
C1316 C1317 1.392 . S
C1316 C1319 1.511 . S
C1317 C1313 1.376 . S
C1317 C1316 1.392 . S
C1317 H1329 0.929 . S
C1318 C1314 1.531 . S
C1318 H1330 0.960 . S
C1318 H1331 0.962 . S
C1318 H1332 0.960 . S
C1319 C1316 1.511 . S
C1319 H1333 0.961 . S
C1319 H1334 0.961 . S
C1319 H1335 0.961 . S
C1320 C1321 1.370 . S
C1320 C1322 1.363 . S
C1320 H1336 0.931 . S
C1321 C1320 1.370 . S
C1321 C1325 1.408 . S
C1322 C1320 1.363 . S
C1322 C1323 1.370 . S
C1322 C1326 1.524 . S
C1323 C1315 1.503 . S
C1323 C1322 1.370 . S
C1323 C1324 1.403 . S
C1324 C1323 1.403 . S
C1324 C1325 1.404 . S
C1324 C1327 1.539 . S
C1325 C1321 1.408 . S
C1325 C1324 1.404 . S
C1325 H1337 0.930 . S
C1326 C1322 1.524 . S
C1326 H1338 0.956 . S
C1326 H1339 0.961 . S
C1326 H1340 0.961 . S
C1327 C1324 1.539 . S
C1327 H1341 0.958 . S
C1327 H1342 0.961 . S
C1327 H1343 0.960 . S
H1328 C1312 0.931 . S
H1329 C1317 0.929 . S
H1330 C1318 0.960 . S
H1331 C1318 0.962 . S
H1332 C1318 0.960 . S
H1333 C1319 0.961 . S
H1334 C1319 0.961 . S
H1335 C1319 0.961 . S
H1336 C1320 0.931 . S
H1337 C1325 0.930 . S
H1338 C1326 0.956 . S
H1339 C1326 0.961 . S
H1340 C1326 0.961 . S
H1341 C1327 0.958 . S
H1342 C1327 0.961 . S
H1343 C1327 0.960 . S
C1344 C1345 1.391 . S
C1344 C1346 1.394 . S
C1344 H1360 0.931 . S
C1345 C1344 1.391 . S
C1345 C1349 1.376 . S
C1346 C1344 1.394 . S
C1346 C1347 1.369 . S
C1346 C1350 1.531 . S
C1347 C1346 1.369 . S
C1347 C1348 1.410 . S
C1347 C1355 1.503 . S
C1348 C1347 1.410 . S
C1348 C1349 1.392 . S
C1348 C1351 1.511 . S
C1349 C1345 1.376 . S
C1349 C1348 1.392 . S
C1349 H1361 0.929 . S
C1350 C1346 1.531 . S
C1350 H1362 0.960 . S
C1350 H1363 0.962 . S
C1350 H1364 0.960 . S
C1351 C1348 1.511 . S
C1351 H1365 0.961 . S
C1351 H1366 0.961 . S
C1351 H1367 0.961 . S
C1352 C1353 1.370 . S
C1352 C1354 1.363 . S
C1352 H1368 0.931 . S
C1353 C1352 1.370 . S
C1353 C1357 1.408 . S
C1354 C1352 1.363 . S
C1354 C1355 1.370 . S
C1354 C1358 1.524 . S
C1355 C1347 1.503 . S
C1355 C1354 1.370 . S
C1355 C1356 1.403 . S
C1356 C1355 1.403 . S
C1356 C1357 1.404 . S
C1356 C1359 1.539 . S
C1357 C1353 1.408 . S
C1357 C1356 1.404 . S
C1357 H1369 0.930 . S
C1358 C1354 1.524 . S
C1358 H1370 0.956 . S
C1358 H1371 0.961 . S
C1358 H1372 0.961 . S
C1359 C1356 1.539 . S
C1359 H1373 0.958 . S
C1359 H1374 0.961 . S
C1359 H1375 0.960 . S
H1360 C1344 0.931 . S
H1361 C1349 0.929 . S
H1362 C1350 0.960 . S
H1363 C1350 0.962 . S
H1364 C1350 0.960 . S
H1365 C1351 0.961 . S
H1366 C1351 0.961 . S
H1367 C1351 0.961 . S
H1368 C1352 0.931 . S
H1369 C1357 0.930 . S
H1370 C1358 0.956 . S
H1371 C1358 0.961 . S
H1372 C1358 0.961 . S
H1373 C1359 0.958 . S
H1374 C1359 0.961 . S
H1375 C1359 0.960 . S
C1376 C1377 1.391 . S
C1376 C1378 1.394 . S
C1376 H1392 0.931 . S
C1377 C1376 1.391 . S
C1377 C1381 1.376 . S
C1378 C1376 1.394 . S
C1378 C1379 1.369 . S
C1378 C1382 1.531 . S
C1379 C1378 1.369 . S
C1379 C1380 1.410 . S
C1379 C1387 1.503 . S
C1380 C1379 1.410 . S
C1380 C1381 1.392 . S
C1380 C1383 1.511 . S
C1381 C1377 1.376 . S
C1381 C1380 1.392 . S
C1381 H1393 0.929 . S
C1382 C1378 1.531 . S
C1382 H1394 0.960 . S
C1382 H1395 0.962 . S
C1382 H1396 0.960 . S
C1383 C1380 1.511 . S
C1383 H1397 0.961 . S
C1383 H1398 0.961 . S
C1383 H1399 0.961 . S
C1384 C1385 1.370 . S
C1384 C1386 1.363 . S
C1384 H1400 0.931 . S
C1385 C1384 1.370 . S
C1385 C1389 1.408 . S
C1386 C1384 1.363 . S
C1386 C1387 1.370 . S
C1386 C1390 1.524 . S
C1387 C1379 1.503 . S
C1387 C1386 1.370 . S
C1387 C1388 1.403 . S
C1388 C1387 1.403 . S
C1388 C1389 1.404 . S
C1388 C1391 1.539 . S
C1389 C1385 1.408 . S
C1389 C1388 1.404 . S
C1389 H1401 0.930 . S
C1390 C1386 1.524 . S
C1390 H1402 0.956 . S
C1390 H1403 0.961 . S
C1390 H1404 0.961 . S
C1391 C1388 1.539 . S
C1391 H1405 0.958 . S
C1391 H1406 0.961 . S
C1391 H1407 0.960 . S
H1392 C1376 0.931 . S
H1393 C1381 0.929 . S
H1394 C1382 0.960 . S
H1395 C1382 0.962 . S
H1396 C1382 0.960 . S
H1397 C1383 0.961 . S
H1398 C1383 0.961 . S
H1399 C1383 0.961 . S
H1400 C1384 0.931 . S
H1401 C1389 0.930 . S
H1402 C1390 0.956 . S
H1403 C1390 0.961 . S
H1404 C1390 0.961 . S
H1405 C1391 0.958 . S
H1406 C1391 0.961 . S
H1407 C1391 0.960 . S
C1408 C1409 1.391 . S
C1408 C1410 1.394 . S
C1408 H1424 0.931 . S
C1409 C1408 1.391 . S
C1409 C1413 1.376 . S
C1410 C1408 1.394 . S
C1410 C1411 1.369 . S
C1410 C1414 1.531 . S
C1411 C1410 1.369 . S
C1411 C1412 1.410 . S
C1411 C1419 1.503 . S
C1412 C1411 1.410 . S
C1412 C1413 1.392 . S
C1412 C1415 1.511 . S
C1413 C1409 1.376 . S
C1413 C1412 1.392 . S
C1413 H1425 0.929 . S
C1414 C1410 1.531 . S
C1414 H1426 0.960 . S
C1414 H1427 0.962 . S
C1414 H1428 0.960 . S
C1415 C1412 1.511 . S
C1415 H1429 0.961 . S
C1415 H1430 0.961 . S
C1415 H1431 0.961 . S
C1416 C1417 1.370 . S
C1416 C1418 1.363 . S
C1416 H1432 0.931 . S
C1417 C1416 1.370 . S
C1417 C1421 1.408 . S
C1418 C1416 1.363 . S
C1418 C1419 1.370 . S
C1418 C1422 1.524 . S
C1419 C1411 1.503 . S
C1419 C1418 1.370 . S
C1419 C1420 1.403 . S
C1420 C1419 1.403 . S
C1420 C1421 1.404 . S
C1420 C1423 1.539 . S
C1421 C1417 1.408 . S
C1421 C1420 1.404 . S
C1421 H1433 0.930 . S
C1422 C1418 1.524 . S
C1422 H1434 0.956 . S
C1422 H1435 0.961 . S
C1422 H1436 0.961 . S
C1423 C1420 1.539 . S
C1423 H1437 0.958 . S
C1423 H1438 0.961 . S
C1423 H1439 0.960 . S
H1424 C1408 0.931 . S
H1425 C1413 0.929 . S
H1426 C1414 0.960 . S
H1427 C1414 0.962 . S
H1428 C1414 0.960 . S
H1429 C1415 0.961 . S
H1430 C1415 0.961 . S
H1431 C1415 0.961 . S
H1432 C1416 0.931 . S
H1433 C1421 0.930 . S
H1434 C1422 0.956 . S
H1435 C1422 0.961 . S
H1436 C1422 0.961 . S
H1437 C1423 0.958 . S
H1438 C1423 0.961 . S
H1439 C1423 0.960 . S
C1440 C1441 1.391 . S
C1440 C1442 1.394 . S
C1440 H1456 0.931 . S
C1441 C1440 1.391 . S
C1441 C1445 1.376 . S
C1442 C1440 1.394 . S
C1442 C1443 1.369 . S
C1442 C1446 1.531 . S
C1443 C1442 1.369 . S
C1443 C1444 1.410 . S
C1443 C1451 1.503 . S
C1444 C1443 1.410 . S
C1444 C1445 1.392 . S
C1444 C1447 1.511 . S
C1445 C1441 1.376 . S
C1445 C1444 1.392 . S
C1445 H1457 0.929 . S
C1446 C1442 1.531 . S
C1446 H1458 0.960 . S
C1446 H1459 0.962 . S
C1446 H1460 0.960 . S
C1447 C1444 1.511 . S
C1447 H1461 0.961 . S
C1447 H1462 0.961 . S
C1447 H1463 0.961 . S
C1448 C1449 1.370 . S
C1448 C1450 1.363 . S
C1448 H1464 0.931 . S
C1449 C1448 1.370 . S
C1449 C1453 1.408 . S
C1450 C1448 1.363 . S
C1450 C1451 1.370 . S
C1450 C1454 1.524 . S
C1451 C1443 1.503 . S
C1451 C1450 1.370 . S
C1451 C1452 1.403 . S
C1452 C1451 1.403 . S
C1452 C1453 1.404 . S
C1452 C1455 1.539 . S
C1453 C1449 1.408 . S
C1453 C1452 1.404 . S
C1453 H1465 0.930 . S
C1454 C1450 1.524 . S
C1454 H1466 0.956 . S
C1454 H1467 0.961 . S
C1454 H1468 0.961 . S
C1455 C1452 1.539 . S
C1455 H1469 0.958 . S
C1455 H1470 0.961 . S
C1455 H1471 0.960 . S
H1456 C1440 0.931 . S
H1457 C1445 0.929 . S
H1458 C1446 0.960 . S
H1459 C1446 0.962 . S
H1460 C1446 0.960 . S
H1461 C1447 0.961 . S
H1462 C1447 0.961 . S
H1463 C1447 0.961 . S
H1464 C1448 0.931 . S
H1465 C1453 0.930 . S
H1466 C1454 0.956 . S
H1467 C1454 0.961 . S
H1468 C1454 0.961 . S
H1469 C1455 0.958 . S
H1470 C1455 0.961 . S
H1471 C1455 0.960 . S
C1472 C1473 1.391 . S
C1472 C1474 1.394 . S
C1472 H1488 0.931 . S
C1473 C1472 1.391 . S
C1473 C1477 1.376 . S
C1474 C1472 1.394 . S
C1474 C1475 1.369 . S
C1474 C1478 1.531 . S
C1475 C1474 1.369 . S
C1475 C1476 1.410 . S
C1475 C1483 1.503 . S
C1476 C1475 1.410 . S
C1476 C1477 1.392 . S
C1476 C1479 1.511 . S
C1477 C1473 1.376 . S
C1477 C1476 1.392 . S
C1477 H1489 0.929 . S
C1478 C1474 1.531 . S
C1478 H1490 0.960 . S
C1478 H1491 0.962 . S
C1478 H1492 0.960 . S
C1479 C1476 1.511 . S
C1479 H1493 0.961 . S
C1479 H1494 0.961 . S
C1479 H1495 0.961 . S
C1480 C1481 1.370 . S
C1480 C1482 1.363 . S
C1480 H1496 0.931 . S
C1481 C1480 1.370 . S
C1481 C1485 1.408 . S
C1482 C1480 1.363 . S
C1482 C1483 1.370 . S
C1482 C1486 1.524 . S
C1483 C1475 1.503 . S
C1483 C1482 1.370 . S
C1483 C1484 1.403 . S
C1484 C1483 1.403 . S
C1484 C1485 1.404 . S
C1484 C1487 1.539 . S
C1485 C1481 1.408 . S
C1485 C1484 1.404 . S
C1485 H1497 0.930 . S
C1486 C1482 1.524 . S
C1486 H1498 0.956 . S
C1486 H1499 0.961 . S
C1486 H1500 0.961 . S
C1487 C1484 1.539 . S
C1487 H1501 0.958 . S
C1487 H1502 0.961 . S
C1487 H1503 0.960 . S
H1488 C1472 0.931 . S
H1489 C1477 0.929 . S
H1490 C1478 0.960 . S
H1491 C1478 0.962 . S
H1492 C1478 0.960 . S
H1493 C1479 0.961 . S
H1494 C1479 0.961 . S
H1495 C1479 0.961 . S
H1496 C1480 0.931 . S
H1497 C1485 0.930 . S
H1498 C1486 0.956 . S
H1499 C1486 0.961 . S
H1500 C1486 0.961 . S
H1501 C1487 0.958 . S
H1502 C1487 0.961 . S
H1503 C1487 0.960 . S
C1504 C1505 1.391 . S
C1504 C1506 1.394 . S
C1504 H1520 0.931 . S
C1505 C1504 1.391 . S
C1505 C1509 1.376 . S
C1506 C1504 1.394 . S
C1506 C1507 1.369 . S
C1506 C1510 1.531 . S
C1507 C1506 1.369 . S
C1507 C1508 1.410 . S
C1507 C1515 1.503 . S
C1508 C1507 1.410 . S
C1508 C1509 1.392 . S
C1508 C1511 1.511 . S
C1509 C1505 1.376 . S
C1509 C1508 1.392 . S
C1509 H1521 0.929 . S
C1510 C1506 1.531 . S
C1510 H1522 0.960 . S
C1510 H1523 0.962 . S
C1510 H1524 0.960 . S
C1511 C1508 1.511 . S
C1511 H1525 0.961 . S
C1511 H1526 0.961 . S
C1511 H1527 0.961 . S
C1512 C1513 1.370 . S
C1512 C1514 1.363 . S
C1512 H1528 0.931 . S
C1513 C1512 1.370 . S
C1513 C1517 1.408 . S
C1514 C1512 1.363 . S
C1514 C1515 1.370 . S
C1514 C1518 1.524 . S
C1515 C1507 1.503 . S
C1515 C1514 1.370 . S
C1515 C1516 1.403 . S
C1516 C1515 1.403 . S
C1516 C1517 1.404 . S
C1516 C1519 1.539 . S
C1517 C1513 1.408 . S
C1517 C1516 1.404 . S
C1517 H1529 0.930 . S
C1518 C1514 1.524 . S
C1518 H1530 0.956 . S
C1518 H1531 0.961 . S
C1518 H1532 0.961 . S
C1519 C1516 1.539 . S
C1519 H1533 0.958 . S
C1519 H1534 0.961 . S
C1519 H1535 0.960 . S
H1520 C1504 0.931 . S
H1521 C1509 0.929 . S
H1522 C1510 0.960 . S
H1523 C1510 0.962 . S
H1524 C1510 0.960 . S
H1525 C1511 0.961 . S
H1526 C1511 0.961 . S
H1527 C1511 0.961 . S
H1528 C1512 0.931 . S
H1529 C1517 0.930 . S
H1530 C1518 0.956 . S
H1531 C1518 0.961 . S
H1532 C1518 0.961 . S
H1533 C1519 0.958 . S
H1534 C1519 0.961 . S
H1535 C1519 0.960 . S
C1536 C1537 1.391 . S
C1536 C1538 1.394 . S
C1536 H1552 0.931 . S
C1537 C1536 1.391 . S
C1537 C1541 1.376 . S
C1538 C1536 1.394 . S
C1538 C1539 1.369 . S
C1538 C1542 1.531 . S
C1539 C1538 1.369 . S
C1539 C1540 1.410 . S
C1539 C1547 1.503 . S
C1540 C1539 1.410 . S
C1540 C1541 1.392 . S
C1540 C1543 1.511 . S
C1541 C1537 1.376 . S
C1541 C1540 1.392 . S
C1541 H1553 0.929 . S
C1542 C1538 1.531 . S
C1542 H1554 0.960 . S
C1542 H1555 0.962 . S
C1542 H1556 0.960 . S
C1543 C1540 1.511 . S
C1543 H1557 0.961 . S
C1543 H1558 0.961 . S
C1543 H1559 0.961 . S
C1544 C1545 1.370 . S
C1544 C1546 1.363 . S
C1544 H1560 0.931 . S
C1545 C1544 1.370 . S
C1545 C1549 1.408 . S
C1546 C1544 1.363 . S
C1546 C1547 1.370 . S
C1546 C1550 1.524 . S
C1547 C1539 1.503 . S
C1547 C1546 1.370 . S
C1547 C1548 1.403 . S
C1548 C1547 1.403 . S
C1548 C1549 1.404 . S
C1548 C1551 1.539 . S
C1549 C1545 1.408 . S
C1549 C1548 1.404 . S
C1549 H1561 0.930 . S
C1550 C1546 1.524 . S
C1550 H1562 0.956 . S
C1550 H1563 0.961 . S
C1550 H1564 0.961 . S
C1551 C1548 1.539 . S
C1551 H1565 0.958 . S
C1551 H1566 0.961 . S
C1551 H1567 0.960 . S
H1552 C1536 0.931 . S
H1553 C1541 0.929 . S
H1554 C1542 0.960 . S
H1555 C1542 0.962 . S
H1556 C1542 0.960 . S
H1557 C1543 0.961 . S
H1558 C1543 0.961 . S
H1559 C1543 0.961 . S
H1560 C1544 0.931 . S
H1561 C1549 0.930 . S
H1562 C1550 0.956 . S
H1563 C1550 0.961 . S
H1564 C1550 0.961 . S
H1565 C1551 0.958 . S
H1566 C1551 0.961 . S
H1567 C1551 0.960 . S
C1568 C1569 1.391 . S
C1568 C1570 1.394 . S
C1568 H1584 0.931 . S
C1569 C1568 1.391 . S
C1569 C1573 1.376 . S
C1570 C1568 1.394 . S
C1570 C1571 1.369 . S
C1570 C1574 1.531 . S
C1571 C1570 1.369 . S
C1571 C1572 1.410 . S
C1571 C1579 1.503 . S
C1572 C1571 1.410 . S
C1572 C1573 1.392 . S
C1572 C1575 1.511 . S
C1573 C1569 1.376 . S
C1573 C1572 1.392 . S
C1573 H1585 0.929 . S
C1574 C1570 1.531 . S
C1574 H1586 0.960 . S
C1574 H1587 0.962 . S
C1574 H1588 0.960 . S
C1575 C1572 1.511 . S
C1575 H1589 0.961 . S
C1575 H1590 0.961 . S
C1575 H1591 0.961 . S
C1576 C1577 1.370 . S
C1576 C1578 1.363 . S
C1576 H1592 0.931 . S
C1577 C1576 1.370 . S
C1577 C1581 1.408 . S
C1578 C1576 1.363 . S
C1578 C1579 1.370 . S
C1578 C1582 1.524 . S
C1579 C1571 1.503 . S
C1579 C1578 1.370 . S
C1579 C1580 1.403 . S
C1580 C1579 1.403 . S
C1580 C1581 1.404 . S
C1580 C1583 1.539 . S
C1581 C1577 1.408 . S
C1581 C1580 1.404 . S
C1581 H1593 0.930 . S
C1582 C1578 1.524 . S
C1582 H1594 0.956 . S
C1582 H1595 0.961 . S
C1582 H1596 0.961 . S
C1583 C1580 1.539 . S
C1583 H1597 0.958 . S
C1583 H1598 0.961 . S
C1583 H1599 0.960 . S
H1584 C1568 0.931 . S
H1585 C1573 0.929 . S
H1586 C1574 0.960 . S
H1587 C1574 0.962 . S
H1588 C1574 0.960 . S
H1589 C1575 0.961 . S
H1590 C1575 0.961 . S
H1591 C1575 0.961 . S
H1592 C1576 0.931 . S
H1593 C1581 0.930 . S
H1594 C1582 0.956 . S
H1595 C1582 0.961 . S
H1596 C1582 0.961 . S
H1597 C1583 0.958 . S
H1598 C1583 0.961 . S
H1599 C1583 0.960 . S
C1600 C1601 1.391 . S
C1600 C1602 1.394 . S
C1600 H1616 0.931 . S
C1601 C1600 1.391 . S
C1601 C1605 1.376 . S
C1602 C1600 1.394 . S
C1602 C1603 1.369 . S
C1602 C1606 1.531 . S
C1603 C1602 1.369 . S
C1603 C1604 1.410 . S
C1603 C1611 1.503 . S
C1604 C1603 1.410 . S
C1604 C1605 1.392 . S
C1604 C1607 1.511 . S
C1605 C1601 1.376 . S
C1605 C1604 1.392 . S
C1605 H1617 0.929 . S
C1606 C1602 1.531 . S
C1606 H1618 0.960 . S
C1606 H1619 0.962 . S
C1606 H1620 0.960 . S
C1607 C1604 1.511 . S
C1607 H1621 0.961 . S
C1607 H1622 0.961 . S
C1607 H1623 0.961 . S
C1608 C1609 1.370 . S
C1608 C1610 1.363 . S
C1608 H1624 0.931 . S
C1609 C1608 1.370 . S
C1609 C1613 1.408 . S
C1610 C1608 1.363 . S
C1610 C1611 1.370 . S
C1610 C1614 1.524 . S
C1611 C1603 1.503 . S
C1611 C1610 1.370 . S
C1611 C1612 1.403 . S
C1612 C1611 1.403 . S
C1612 C1613 1.404 . S
C1612 C1615 1.539 . S
C1613 C1609 1.408 . S
C1613 C1612 1.404 . S
C1613 H1625 0.930 . S
C1614 C1610 1.524 . S
C1614 H1626 0.956 . S
C1614 H1627 0.961 . S
C1614 H1628 0.961 . S
C1615 C1612 1.539 . S
C1615 H1629 0.958 . S
C1615 H1630 0.961 . S
C1615 H1631 0.960 . S
H1616 C1600 0.931 . S
H1617 C1605 0.929 . S
H1618 C1606 0.960 . S
H1619 C1606 0.962 . S
H1620 C1606 0.960 . S
H1621 C1607 0.961 . S
H1622 C1607 0.961 . S
H1623 C1607 0.961 . S
H1624 C1608 0.931 . S
H1625 C1613 0.930 . S
H1626 C1614 0.956 . S
H1627 C1614 0.961 . S
H1628 C1614 0.961 . S
H1629 C1615 0.958 . S
H1630 C1615 0.961 . S
H1631 C1615 0.960 . S
C1632 C1633 1.391 . S
C1632 C1634 1.394 . S
C1632 H1648 0.931 . S
C1633 C1632 1.391 . S
C1633 C1637 1.376 . S
C1634 C1632 1.394 . S
C1634 C1635 1.369 . S
C1634 C1638 1.531 . S
C1635 C1634 1.369 . S
C1635 C1636 1.410 . S
C1635 C1643 1.503 . S
C1636 C1635 1.410 . S
C1636 C1637 1.392 . S
C1636 C1639 1.511 . S
C1637 C1633 1.376 . S
C1637 C1636 1.392 . S
C1637 H1649 0.929 . S
C1638 C1634 1.531 . S
C1638 H1650 0.960 . S
C1638 H1651 0.962 . S
C1638 H1652 0.960 . S
C1639 C1636 1.511 . S
C1639 H1653 0.961 . S
C1639 H1654 0.961 . S
C1639 H1655 0.961 . S
C1640 C1641 1.370 . S
C1640 C1642 1.363 . S
C1640 H1656 0.931 . S
C1641 C1640 1.370 . S
C1641 C1645 1.408 . S
C1642 C1640 1.363 . S
C1642 C1643 1.370 . S
C1642 C1646 1.524 . S
C1643 C1635 1.503 . S
C1643 C1642 1.370 . S
C1643 C1644 1.403 . S
C1644 C1643 1.403 . S
C1644 C1645 1.404 . S
C1644 C1647 1.539 . S
C1645 C1641 1.408 . S
C1645 C1644 1.404 . S
C1645 H1657 0.930 . S
C1646 C1642 1.524 . S
C1646 H1658 0.956 . S
C1646 H1659 0.961 . S
C1646 H1660 0.961 . S
C1647 C1644 1.539 . S
C1647 H1661 0.958 . S
C1647 H1662 0.961 . S
C1647 H1663 0.960 . S
H1648 C1632 0.931 . S
H1649 C1637 0.929 . S
H1650 C1638 0.960 . S
H1651 C1638 0.962 . S
H1652 C1638 0.960 . S
H1653 C1639 0.961 . S
H1654 C1639 0.961 . S
H1655 C1639 0.961 . S
H1656 C1640 0.931 . S
H1657 C1645 0.930 . S
H1658 C1646 0.956 . S
H1659 C1646 0.961 . S
H1660 C1646 0.961 . S
H1661 C1647 0.958 . S
H1662 C1647 0.961 . S
H1663 C1647 0.960 . S
C1664 C1665 1.391 . S
C1664 C1666 1.394 . S
C1664 H1680 0.931 . S
C1665 C1664 1.391 . S
C1665 C1669 1.376 . S
C1666 C1664 1.394 . S
C1666 C1667 1.369 . S
C1666 C1670 1.531 . S
C1667 C1666 1.369 . S
C1667 C1668 1.410 . S
C1667 C1675 1.503 . S
C1668 C1667 1.410 . S
C1668 C1669 1.392 . S
C1668 C1671 1.511 . S
C1669 C1665 1.376 . S
C1669 C1668 1.392 . S
C1669 H1681 0.929 . S
C1670 C1666 1.531 . S
C1670 H1682 0.960 . S
C1670 H1683 0.962 . S
C1670 H1684 0.960 . S
C1671 C1668 1.511 . S
C1671 H1685 0.961 . S
C1671 H1686 0.961 . S
C1671 H1687 0.961 . S
C1672 C1673 1.370 . S
C1672 C1674 1.363 . S
C1672 H1688 0.931 . S
C1673 C1672 1.370 . S
C1673 C1677 1.408 . S
C1674 C1672 1.363 . S
C1674 C1675 1.370 . S
C1674 C1678 1.524 . S
C1675 C1667 1.503 . S
C1675 C1674 1.370 . S
C1675 C1676 1.403 . S
C1676 C1675 1.403 . S
C1676 C1677 1.404 . S
C1676 C1679 1.539 . S
C1677 C1673 1.408 . S
C1677 C1676 1.404 . S
C1677 H1689 0.930 . S
C1678 C1674 1.524 . S
C1678 H1690 0.956 . S
C1678 H1691 0.961 . S
C1678 H1692 0.961 . S
C1679 C1676 1.539 . S
C1679 H1693 0.958 . S
C1679 H1694 0.961 . S
C1679 H1695 0.960 . S
H1680 C1664 0.931 . S
H1681 C1669 0.929 . S
H1682 C1670 0.960 . S
H1683 C1670 0.962 . S
H1684 C1670 0.960 . S
H1685 C1671 0.961 . S
H1686 C1671 0.961 . S
H1687 C1671 0.961 . S
H1688 C1672 0.931 . S
H1689 C1677 0.930 . S
H1690 C1678 0.956 . S
H1691 C1678 0.961 . S
H1692 C1678 0.961 . S
H1693 C1679 0.958 . S
H1694 C1679 0.961 . S
H1695 C1679 0.960 . S
C1696 C1697 1.391 . S
C1696 C1698 1.394 . S
C1696 H1712 0.931 . S
C1697 C1696 1.391 . S
C1697 C1701 1.376 . S
C1698 C1696 1.394 . S
C1698 C1699 1.369 . S
C1698 C1702 1.531 . S
C1699 C1698 1.369 . S
C1699 C1700 1.410 . S
C1699 C1707 1.503 . S
C1700 C1699 1.410 . S
C1700 C1701 1.392 . S
C1700 C1703 1.511 . S
C1701 C1697 1.376 . S
C1701 C1700 1.392 . S
C1701 H1713 0.929 . S
C1702 C1698 1.531 . S
C1702 H1714 0.960 . S
C1702 H1715 0.962 . S
C1702 H1716 0.960 . S
C1703 C1700 1.511 . S
C1703 H1717 0.961 . S
C1703 H1718 0.961 . S
C1703 H1719 0.961 . S
C1704 C1705 1.370 . S
C1704 C1706 1.363 . S
C1704 H1720 0.931 . S
C1705 C1704 1.370 . S
C1705 C1709 1.408 . S
C1706 C1704 1.363 . S
C1706 C1707 1.370 . S
C1706 C1710 1.524 . S
C1707 C1699 1.503 . S
C1707 C1706 1.370 . S
C1707 C1708 1.403 . S
C1708 C1707 1.403 . S
C1708 C1709 1.404 . S
C1708 C1711 1.539 . S
C1709 C1705 1.408 . S
C1709 C1708 1.404 . S
C1709 H1721 0.930 . S
C1710 C1706 1.524 . S
C1710 H1722 0.956 . S
C1710 H1723 0.961 . S
C1710 H1724 0.961 . S
C1711 C1708 1.539 . S
C1711 H1725 0.958 . S
C1711 H1726 0.961 . S
C1711 H1727 0.960 . S
H1712 C1696 0.931 . S
H1713 C1701 0.929 . S
H1714 C1702 0.960 . S
H1715 C1702 0.962 . S
H1716 C1702 0.960 . S
H1717 C1703 0.961 . S
H1718 C1703 0.961 . S
H1719 C1703 0.961 . S
H1720 C1704 0.931 . S
H1721 C1709 0.930 . S
H1722 C1710 0.956 . S
H1723 C1710 0.961 . S
H1724 C1710 0.961 . S
H1725 C1711 0.958 . S
H1726 C1711 0.961 . S
H1727 C1711 0.960 . S
C1728 C1729 1.391 . S
C1728 C1730 1.394 . S
C1728 H1744 0.931 . S
C1729 C1728 1.391 . S
C1729 C1733 1.376 . S
C1730 C1728 1.394 . S
C1730 C1731 1.369 . S
C1730 C1734 1.531 . S
C1731 C1730 1.369 . S
C1731 C1732 1.410 . S
C1731 C1739 1.503 . S
C1732 C1731 1.410 . S
C1732 C1733 1.392 . S
C1732 C1735 1.511 . S
C1733 C1729 1.376 . S
C1733 C1732 1.392 . S
C1733 H1745 0.929 . S
C1734 C1730 1.531 . S
C1734 H1746 0.960 . S
C1734 H1747 0.962 . S
C1734 H1748 0.960 . S
C1735 C1732 1.511 . S
C1735 H1749 0.961 . S
C1735 H1750 0.961 . S
C1735 H1751 0.961 . S
C1736 C1737 1.370 . S
C1736 C1738 1.363 . S
C1736 H1752 0.931 . S
C1737 C1736 1.370 . S
C1737 C1741 1.408 . S
C1738 C1736 1.363 . S
C1738 C1739 1.370 . S
C1738 C1742 1.524 . S
C1739 C1731 1.503 . S
C1739 C1738 1.370 . S
C1739 C1740 1.403 . S
C1740 C1739 1.403 . S
C1740 C1741 1.404 . S
C1740 C1743 1.539 . S
C1741 C1737 1.408 . S
C1741 C1740 1.404 . S
C1741 H1753 0.930 . S
C1742 C1738 1.524 . S
C1742 H1754 0.956 . S
C1742 H1755 0.961 . S
C1742 H1756 0.961 . S
C1743 C1740 1.539 . S
C1743 H1757 0.958 . S
C1743 H1758 0.961 . S
C1743 H1759 0.960 . S
H1744 C1728 0.931 . S
H1745 C1733 0.929 . S
H1746 C1734 0.960 . S
H1747 C1734 0.962 . S
H1748 C1734 0.960 . S
H1749 C1735 0.961 . S
H1750 C1735 0.961 . S
H1751 C1735 0.961 . S
H1752 C1736 0.931 . S
H1753 C1741 0.930 . S
H1754 C1742 0.956 . S
H1755 C1742 0.961 . S
H1756 C1742 0.961 . S
H1757 C1743 0.958 . S
H1758 C1743 0.961 . S
H1759 C1743 0.960 . S
C1760 C1761 1.391 . S
C1760 C1762 1.394 . S
C1760 H1776 0.931 . S
C1761 C1760 1.391 . S
C1761 C1765 1.376 1_565 S
C1762 C1760 1.394 . S
C1762 C1763 1.369 . S
C1762 C1766 1.531 . S
C1763 C1762 1.369 . S
C1763 C1764 1.410 1_565 S
C1763 C1771 1.503 1_554 S
C1764 C1763 1.410 1_545 S
C1764 C1765 1.392 . S
C1764 C1767 1.511 . S
C1765 C1761 1.376 1_545 S
C1765 C1764 1.392 . S
C1765 H1777 0.929 . S
C1766 C1762 1.531 . S
C1766 H1778 0.956 1_554 S
C1766 H1779 0.962 . S
C1766 H1780 0.960 . S
C1767 C1764 1.511 . S
C1767 H1781 0.961 . S
C1767 H1782 0.961 1_554 S
C1767 H1783 0.961 . S
C1768 C1769 1.355 1_545 S
C1768 C1770 1.363 . S
C1768 H1784 0.931 . S
C1769 C1768 1.355 1_565 S
C1769 C1773 1.425 . S
C1770 C1768 1.363 . S
C1770 C1771 1.370 1_545 S
C1770 C1774 1.524 . S
C1771 C1763 1.503 1_556 S
C1771 C1770 1.370 1_565 S
C1771 C1772 1.403 . S
C1772 C1771 1.403 . S
C1772 C1773 1.404 . S
C1772 C1775 1.539 . S
C1773 C1769 1.425 . S
C1773 C1772 1.404 . S
C1773 H1785 0.930 . S
C1774 C1770 1.524 . S
C1774 H1786 0.929 1_556 S
C1774 H1787 0.904 1_556 S
C1774 H1788 0.961 . S
C1775 C1772 1.539 . S
C1775 H1789 0.958 . S
C1775 H1790 0.961 . S
C1775 H1791 0.960 . S
H1776 C1760 0.931 . S
H1777 C1765 0.929 . S
H1778 C1766 0.956 1_556 S
H1779 C1766 0.962 . S
H1780 C1766 0.960 . S
H1781 C1767 0.961 . S
H1782 C1767 0.961 1_556 S
H1783 C1767 0.961 . S
H1784 C1768 0.931 . S
H1785 C1773 0.930 . S
H1786 C1774 0.929 1_554 S
H1787 C1774 0.904 1_554 S
H1788 C1774 0.961 . S
H1789 C1775 0.958 . S
H1790 C1775 0.961 . S
H1791 C1775 0.960 . S
C1792 C1793 1.391 . S
C1792 C1794 1.394 . S
C1792 H1808 0.931 . S
C1793 C1792 1.391 . S
C1793 C1797 1.376 . S
C1794 C1792 1.394 . S
C1794 C1795 1.369 . S
C1794 C1798 1.531 . S
C1795 C1794 1.369 . S
C1795 C1796 1.410 . S
C1795 C1803 1.503 1_554 S
C1796 C1795 1.410 . S
C1796 C1797 1.392 . S
C1796 C1799 1.511 . S
C1797 C1793 1.376 . S
C1797 C1796 1.392 . S
C1797 H1809 0.929 . S
C1798 C1794 1.531 . S
C1798 H1810 0.960 1_554 S
C1798 H1811 0.962 . S
C1798 H1812 0.960 . S
C1799 C1796 1.511 . S
C1799 H1813 0.961 . S
C1799 H1814 0.942 1_554 S
C1799 H1815 0.961 . S
C1800 C1801 1.370 . S
C1800 C1802 1.363 . S
C1800 H1816 0.931 . S
C1801 C1800 1.370 . S
C1801 C1805 1.408 . S
C1802 C1800 1.363 . S
C1802 C1803 1.370 . S
C1802 C1806 1.524 . S
C1803 C1795 1.503 1_556 S
C1803 C1802 1.370 . S
C1803 C1804 1.403 . S
C1804 C1803 1.403 . S
C1804 C1805 1.404 . S
C1804 C1807 1.539 . S
C1805 C1801 1.408 . S
C1805 C1804 1.404 . S
C1805 H1817 0.930 . S
C1806 C1802 1.524 . S
C1806 H1818 0.956 . S
C1806 H1819 0.950 1_556 S
C1806 H1820 0.961 . S
C1807 C1804 1.539 . S
C1807 H1821 0.958 . S
C1807 H1822 0.961 . S
C1807 H1823 0.885 1_556 S
H1808 C1792 0.931 . S
H1809 C1797 0.929 . S
H1810 C1798 0.960 1_556 S
H1811 C1798 0.962 . S
H1812 C1798 0.960 . S
H1813 C1799 0.961 . S
H1814 C1799 0.942 1_556 S
H1815 C1799 0.961 . S
H1816 C1800 0.931 . S
H1817 C1805 0.930 . S
H1818 C1806 0.956 . S
H1819 C1806 0.950 1_554 S
H1820 C1806 0.961 . S
H1821 C1807 0.958 . S
H1822 C1807 0.961 . S
H1823 C1807 0.885 1_554 S
C1824 C1825 1.391 . S
C1824 C1826 1.394 . S
C1824 H1840 0.931 . S
C1825 C1824 1.391 . S
C1825 C1829 1.376 . S
C1826 C1824 1.394 . S
C1826 C1827 1.369 . S
C1826 C1830 1.531 . S
C1827 C1826 1.369 . S
C1827 C1828 1.410 . S
C1827 C1835 1.503 . S
C1828 C1827 1.410 . S
C1828 C1829 1.392 . S
C1828 C1831 1.511 . S
C1829 C1825 1.376 . S
C1829 C1828 1.392 . S
C1829 H1841 0.929 . S
C1830 C1826 1.531 . S
C1830 H1842 0.960 . S
C1830 H1843 0.962 . S
C1830 H1844 0.960 . S
C1831 C1828 1.511 . S
C1831 H1845 0.961 . S
C1831 H1846 0.961 . S
C1831 H1847 0.961 . S
C1832 C1833 1.370 . S
C1832 C1834 1.363 . S
C1832 H1848 0.931 . S
C1833 C1832 1.370 . S
C1833 C1837 1.408 . S
C1834 C1832 1.363 . S
C1834 C1835 1.370 . S
C1834 C1838 1.524 . S
C1835 C1827 1.503 . S
C1835 C1834 1.370 . S
C1835 C1836 1.403 . S
C1836 C1835 1.403 . S
C1836 C1837 1.404 . S
C1836 C1839 1.539 . S
C1837 C1833 1.408 . S
C1837 C1836 1.404 . S
C1837 H1849 0.930 . S
C1838 C1834 1.524 . S
C1838 H1850 0.956 . S
C1838 H1851 0.961 . S
C1838 H1852 0.961 . S
C1839 C1836 1.539 . S
C1839 H1853 0.958 . S
C1839 H1854 0.961 . S
C1839 H1855 0.960 . S
H1840 C1824 0.931 . S
H1841 C1829 0.929 . S
H1842 C1830 0.960 . S
H1843 C1830 0.962 . S
H1844 C1830 0.960 . S
H1845 C1831 0.961 . S
H1846 C1831 0.961 . S
H1847 C1831 0.961 . S
H1848 C1832 0.931 . S
H1849 C1837 0.930 . S
H1850 C1838 0.956 . S
H1851 C1838 0.961 . S
H1852 C1838 0.961 . S
H1853 C1839 0.958 . S
H1854 C1839 0.961 . S
H1855 C1839 0.960 . S
C1856 C1857 1.391 . S
C1856 C1858 1.394 . S
C1856 H1872 0.931 . S
C1857 C1856 1.391 . S
C1857 C1861 1.376 . S
C1858 C1856 1.394 . S
C1858 C1859 1.369 . S
C1858 C1862 1.531 . S
C1859 C1858 1.369 . S
C1859 C1860 1.410 . S
C1859 C1867 1.503 . S
C1860 C1859 1.410 . S
C1860 C1861 1.392 . S
C1860 C1863 1.511 . S
C1861 C1857 1.376 . S
C1861 C1860 1.392 . S
C1861 H1873 0.929 1_545 S
C1862 C1858 1.531 . S
C1862 H1874 0.960 . S
C1862 H1875 0.962 1_545 S
C1862 H1876 0.960 . S
C1863 C1860 1.511 . S
C1863 H1877 0.961 1_545 S
C1863 H1878 0.961 1_545 S
C1863 H1879 0.961 . S
C1864 C1865 1.370 1_565 S
C1864 C1866 1.363 . S
C1864 H1880 0.931 . S
C1865 C1864 1.370 1_545 S
C1865 C1869 1.408 . S
C1866 C1864 1.363 . S
C1866 C1867 1.370 1_565 S
C1866 C1870 1.524 . S
C1867 C1859 1.503 . S
C1867 C1866 1.370 1_545 S
C1867 C1868 1.403 . S
C1868 C1867 1.403 . S
C1868 C1869 1.404 . S
C1868 C1871 1.539 . S
C1869 C1865 1.408 . S
C1869 C1868 1.404 . S
C1869 H1881 0.930 . S
C1870 C1866 1.524 . S
C1870 H1882 0.956 . S
C1870 H1883 0.961 . S
C1870 H1884 0.961 . S
C1871 C1868 1.539 . S
C1871 H1885 0.958 . S
C1871 H1886 0.961 . S
C1871 H1887 0.960 . S
H1872 C1856 0.931 . S
H1873 C1861 0.929 1_565 S
H1874 C1862 0.960 . S
H1875 C1862 0.962 1_565 S
H1876 C1862 0.960 . S
H1877 C1863 0.961 1_565 S
H1878 C1863 0.961 1_565 S
H1879 C1863 0.961 . S
H1880 C1864 0.931 . S
H1881 C1869 0.930 . S
H1882 C1870 0.956 . S
H1883 C1870 0.961 . S
H1884 C1870 0.961 . S
H1885 C1871 0.958 . S
H1886 C1871 0.961 . S
H1887 C1871 0.960 . S
C1888 C1889 1.391 . S
C1888 C1890 1.394 . S
C1888 H1904 0.931 . S
C1889 C1888 1.391 . S
C1889 C1893 1.376 . S
C1890 C1888 1.394 . S
C1890 C1891 1.369 . S
C1890 C1894 1.531 . S
C1891 C1890 1.369 . S
C1891 C1892 1.410 . S
C1891 C1899 1.503 1_556 S
C1892 C1891 1.410 . S
C1892 C1893 1.392 . S
C1892 C1895 1.511 . S
C1893 C1889 1.376 . S
C1893 C1892 1.392 . S
C1893 H1905 0.929 . S
C1894 C1890 1.531 . S
C1894 H1906 0.960 1_556 S
C1894 H1907 0.962 . S
C1894 H1908 0.960 . S
C1895 C1892 1.511 . S
C1895 H1909 0.961 . S
C1895 H1910 0.961 1_556 S
C1895 H1911 0.961 . S
C1896 C1897 1.370 . S
C1896 C1898 1.363 . S
C1896 H1912 0.931 . S
C1897 C1896 1.370 . S
C1897 C1901 1.408 . S
C1898 C1896 1.363 . S
C1898 C1899 1.370 . S
C1898 C1902 1.524 . S
C1899 C1891 1.503 1_554 S
C1899 C1898 1.370 . S
C1899 C1900 1.403 . S
C1900 C1899 1.403 . S
C1900 C1901 1.404 . S
C1900 C1903 1.539 . S
C1901 C1897 1.408 . S
C1901 C1900 1.404 . S
C1901 H1913 0.930 . S
C1902 C1898 1.524 . S
C1902 H1914 0.956 . S
C1902 H1915 0.923 1_554 S
C1902 H1916 0.961 . S
C1903 C1900 1.539 . S
C1903 H1917 0.958 . S
C1903 H1918 0.961 . S
C1903 H1919 0.918 1_554 S
H1904 C1888 0.931 . S
H1905 C1893 0.929 . S
H1906 C1894 0.960 1_554 S
H1907 C1894 0.962 . S
H1908 C1894 0.960 . S
H1909 C1895 0.961 . S
H1910 C1895 0.961 1_554 S
H1911 C1895 0.961 . S
H1912 C1896 0.931 . S
H1913 C1901 0.930 . S
H1914 C1902 0.956 . S
H1915 C1902 0.923 1_556 S
H1916 C1902 0.961 . S
H1917 C1903 0.958 . S
H1918 C1903 0.961 . S
H1919 C1903 0.918 1_556 S
C1920 C1921 1.391 . S
C1920 C1922 1.394 . S
C1920 H1936 0.931 . S
C1921 C1920 1.391 . S
C1921 C1925 1.376 . S
C1922 C1920 1.394 . S
C1922 C1923 1.369 . S
C1922 C1926 1.531 . S
C1923 C1922 1.369 . S
C1923 C1924 1.410 . S
C1923 C1931 1.503 . S
C1924 C1923 1.410 . S
C1924 C1925 1.392 . S
C1924 C1927 1.511 . S
C1925 C1921 1.376 . S
C1925 C1924 1.392 . S
C1925 H1937 0.929 . S
C1926 C1922 1.531 . S
C1926 H1938 0.960 . S
C1926 H1939 0.962 . S
C1926 H1940 0.960 . S
C1927 C1924 1.511 . S
C1927 H1941 0.961 . S
C1927 H1942 0.961 . S
C1927 H1943 0.961 . S
C1928 C1929 1.370 . S
C1928 C1930 1.363 . S
C1928 H1944 0.931 . S
C1929 C1928 1.370 . S
C1929 C1933 1.408 . S
C1930 C1928 1.363 . S
C1930 C1931 1.370 . S
C1930 C1934 1.524 . S
C1931 C1923 1.503 . S
C1931 C1930 1.370 . S
C1931 C1932 1.403 . S
C1932 C1931 1.403 . S
C1932 C1933 1.404 . S
C1932 C1935 1.539 . S
C1933 C1929 1.408 . S
C1933 C1932 1.404 . S
C1933 H1945 0.930 . S
C1934 C1930 1.524 . S
C1934 H1946 0.956 . S
C1934 H1947 0.961 . S
C1934 H1948 0.961 . S
C1935 C1932 1.539 . S
C1935 H1949 0.958 . S
C1935 H1950 0.961 . S
C1935 H1951 0.960 . S
H1936 C1920 0.931 . S
H1937 C1925 0.929 . S
H1938 C1926 0.960 . S
H1939 C1926 0.962 . S
H1940 C1926 0.960 . S
H1941 C1927 0.961 . S
H1942 C1927 0.961 . S
H1943 C1927 0.961 . S
H1944 C1928 0.931 . S
H1945 C1933 0.930 . S
H1946 C1934 0.956 . S
H1947 C1934 0.961 . S
H1948 C1934 0.961 . S
H1949 C1935 0.958 . S
H1950 C1935 0.961 . S
H1951 C1935 0.960 . S
C1952 C1953 1.391 . S
C1952 C1954 1.394 . S
C1952 H1968 0.931 . S
C1953 C1952 1.391 . S
C1953 C1957 1.376 1_545 S
C1954 C1952 1.394 . S
C1954 C1955 1.369 . S
C1954 C1958 1.531 . S
C1955 C1954 1.369 . S
C1955 C1956 1.410 1_545 S
C1955 C1963 1.503 . S
C1956 C1955 1.410 1_565 S
C1956 C1957 1.392 . S
C1956 C1959 1.511 . S
C1957 C1953 1.376 1_565 S
C1957 C1956 1.392 . S
C1957 H1969 0.929 . S
C1958 C1954 1.531 . S
C1958 H1970 0.960 . S
C1958 H1971 0.962 . S
C1958 H1972 0.960 . S
C1959 C1956 1.511 . S
C1959 H1973 0.961 . S
C1959 H1974 0.961 . S
C1959 H1975 0.961 1_565 S
C1960 C1961 1.370 1_565 S
C1960 C1962 1.363 . S
C1960 H1976 0.931 . S
C1961 C1960 1.370 1_545 S
C1961 C1965 1.408 . S
C1962 C1960 1.363 . S
C1962 C1963 1.370 1_565 S
C1962 C1966 1.524 . S
C1963 C1955 1.503 . S
C1963 C1962 1.370 1_545 S
C1963 C1964 1.403 . S
C1964 C1963 1.403 . S
C1964 C1965 1.404 . S
C1964 C1967 1.539 . S
C1965 C1961 1.408 . S
C1965 C1964 1.404 . S
C1965 H1977 0.930 . S
C1966 C1962 1.524 . S
C1966 H1978 0.956 . S
C1966 H1979 0.961 . S
C1966 H1980 0.961 . S
C1967 C1964 1.539 . S
C1967 H1981 0.958 . S
C1967 H1982 0.961 . S
C1967 H1983 0.960 . S
H1968 C1952 0.931 . S
H1969 C1957 0.929 . S
H1970 C1958 0.960 . S
H1971 C1958 0.962 . S
H1972 C1958 0.960 . S
H1973 C1959 0.961 . S
H1974 C1959 0.961 . S
H1975 C1959 0.961 1_545 S
H1976 C1960 0.931 . S
H1977 C1965 0.930 . S
H1978 C1966 0.956 . S
H1979 C1966 0.961 . S
H1980 C1966 0.961 . S
H1981 C1967 0.958 . S
H1982 C1967 0.961 . S
H1983 C1967 0.960 . S
C1984 C1985 1.391 . S
C1984 C1986 1.394 . S
C1984 H2000 0.931 . S
C1985 C1984 1.391 . S
C1985 C1989 1.376 . S
C1986 C1984 1.394 . S
C1986 C1987 1.369 . S
C1986 C1990 1.531 . S
C1987 C1986 1.369 . S
C1987 C1988 1.410 . S
C1987 C1995 1.503 . S
C1988 C1987 1.410 . S
C1988 C1989 1.392 . S
C1988 C1991 1.511 . S
C1989 C1985 1.376 . S
C1989 C1988 1.392 . S
C1989 H2001 0.929 . S
C1990 C1986 1.531 . S
C1990 H2002 0.960 . S
C1990 H2003 0.962 . S
C1990 H2004 0.960 . S
C1991 C1988 1.511 . S
C1991 H2005 0.961 . S
C1991 H2006 0.961 . S
C1991 H2007 0.961 . S
C1992 C1993 1.370 . S
C1992 C1994 1.363 . S
C1992 H2008 0.931 . S
C1993 C1992 1.370 . S
C1993 C1997 1.408 . S
C1994 C1992 1.363 . S
C1994 C1995 1.370 . S
C1994 C1998 1.524 . S
C1995 C1987 1.503 . S
C1995 C1994 1.370 . S
C1995 C1996 1.403 . S
C1996 C1995 1.403 . S
C1996 C1997 1.404 . S
C1996 C1999 1.539 . S
C1997 C1993 1.408 . S
C1997 C1996 1.404 . S
C1997 H2009 0.930 . S
C1998 C1994 1.524 . S
C1998 H2010 0.956 . S
C1998 H2011 0.961 . S
C1998 H2012 0.961 . S
C1999 C1996 1.539 . S
C1999 H2013 0.958 . S
C1999 H2014 0.961 . S
C1999 H2015 0.960 . S
H2000 C1984 0.931 . S
H2001 C1989 0.929 . S
H2002 C1990 0.960 . S
H2003 C1990 0.962 . S
H2004 C1990 0.960 . S
H2005 C1991 0.961 . S
H2006 C1991 0.961 . S
H2007 C1991 0.961 . S
H2008 C1992 0.931 . S
H2009 C1997 0.930 . S
H2010 C1998 0.956 . S
H2011 C1998 0.961 . S
H2012 C1998 0.961 . S
H2013 C1999 0.958 . S
H2014 C1999 0.961 . S
H2015 C1999 0.960 . S
C2016 C2017 1.391 . S
C2016 C2018 1.394 . S
C2016 H2032 0.931 . S
C2017 C2016 1.391 . S
C2017 C2021 1.376 . S
C2018 C2016 1.394 . S
C2018 C2019 1.369 . S
C2018 C2022 1.531 . S
C2019 C2018 1.369 . S
C2019 C2020 1.410 . S
C2019 C2027 1.503 . S
C2020 C2019 1.410 . S
C2020 C2021 1.392 . S
C2020 C2023 1.511 . S
C2021 C2017 1.376 . S
C2021 C2020 1.392 . S
C2021 H2033 0.929 . S
C2022 C2018 1.531 . S
C2022 H2034 0.960 . S
C2022 H2035 0.962 . S
C2022 H2036 0.960 . S
C2023 C2020 1.511 . S
C2023 H2037 0.961 . S
C2023 H2038 0.961 . S
C2023 H2039 0.961 . S
C2024 C2025 1.370 . S
C2024 C2026 1.363 . S
C2024 H2040 0.931 . S
C2025 C2024 1.370 . S
C2025 C2029 1.408 . S
C2026 C2024 1.363 . S
C2026 C2027 1.370 . S
C2026 C2030 1.524 . S
C2027 C2019 1.503 . S
C2027 C2026 1.370 . S
C2027 C2028 1.403 . S
C2028 C2027 1.403 . S
C2028 C2029 1.404 . S
C2028 C2031 1.539 . S
C2029 C2025 1.408 . S
C2029 C2028 1.404 . S
C2029 H2041 0.930 . S
C2030 C2026 1.524 . S
C2030 H2042 0.956 . S
C2030 H2043 0.961 . S
C2030 H2044 0.961 . S
C2031 C2028 1.539 . S
C2031 H2045 0.958 . S
C2031 H2046 0.961 . S
C2031 H2047 0.960 . S
H2032 C2016 0.931 . S
H2033 C2021 0.929 . S
H2034 C2022 0.960 . S
H2035 C2022 0.962 . S
H2036 C2022 0.960 . S
H2037 C2023 0.961 . S
H2038 C2023 0.961 . S
H2039 C2023 0.961 . S
H2040 C2024 0.931 . S
H2041 C2029 0.930 . S
H2042 C2030 0.956 . S
H2043 C2030 0.961 . S
H2044 C2030 0.961 . S
H2045 C2031 0.958 . S
H2046 C2031 0.961 . S
H2047 C2031 0.960 . S
C2048 C2049 1.391 . S
C2048 C2050 1.394 . S
C2048 H2064 0.931 . S
C2049 C2048 1.391 . S
C2049 C2053 1.376 . S
C2050 C2048 1.394 . S
C2050 C2051 1.369 . S
C2050 C2054 1.531 . S
C2051 C2050 1.369 . S
C2051 C2052 1.410 . S
C2051 C2059 1.503 . S
C2052 C2051 1.410 . S
C2052 C2053 1.392 . S
C2052 C2055 1.511 . S
C2053 C2049 1.376 . S
C2053 C2052 1.392 . S
C2053 H2065 0.929 . S
C2054 C2050 1.531 . S
C2054 H2066 0.960 . S
C2054 H2067 0.962 . S
C2054 H2068 0.960 . S
C2055 C2052 1.511 . S
C2055 H2069 0.961 . S
C2055 H2070 0.961 . S
C2055 H2071 0.961 . S
C2056 C2057 1.370 . S
C2056 C2058 1.363 . S
C2056 H2072 0.931 . S
C2057 C2056 1.370 . S
C2057 C2061 1.408 . S
C2058 C2056 1.363 . S
C2058 C2059 1.370 . S
C2058 C2062 1.524 . S
C2059 C2051 1.503 . S
C2059 C2058 1.370 . S
C2059 C2060 1.403 . S
C2060 C2059 1.403 . S
C2060 C2061 1.404 . S
C2060 C2063 1.539 . S
C2061 C2057 1.408 . S
C2061 C2060 1.404 . S
C2061 H2073 0.930 . S
C2062 C2058 1.524 . S
C2062 H2074 0.956 . S
C2062 H2075 0.961 . S
C2062 H2076 0.961 . S
C2063 C2060 1.539 . S
C2063 H2077 0.958 . S
C2063 H2078 0.961 . S
C2063 H2079 0.960 . S
H2064 C2048 0.931 . S
H2065 C2053 0.929 . S
H2066 C2054 0.960 . S
H2067 C2054 0.962 . S
H2068 C2054 0.960 . S
H2069 C2055 0.961 . S
H2070 C2055 0.961 . S
H2071 C2055 0.961 . S
H2072 C2056 0.931 . S
H2073 C2061 0.930 . S
H2074 C2062 0.956 . S
H2075 C2062 0.961 . S
H2076 C2062 0.961 . S
H2077 C2063 0.958 . S
H2078 C2063 0.961 . S
H2079 C2063 0.960 . S
C2080 C2081 1.391 . S
C2080 C2082 1.394 . S
C2080 H2096 0.931 . S
C2081 C2080 1.391 . S
C2081 C2085 1.376 . S
C2082 C2080 1.394 . S
C2082 C2083 1.369 . S
C2082 C2086 1.531 . S
C2083 C2082 1.369 . S
C2083 C2084 1.410 . S
C2083 C2091 1.503 . S
C2084 C2083 1.410 . S
C2084 C2085 1.392 . S
C2084 C2087 1.511 . S
C2085 C2081 1.376 . S
C2085 C2084 1.392 . S
C2085 H2097 0.929 . S
C2086 C2082 1.531 . S
C2086 H2098 0.960 . S
C2086 H2099 0.962 . S
C2086 H2100 0.960 . S
C2087 C2084 1.511 . S
C2087 H2101 0.961 . S
C2087 H2102 0.961 . S
C2087 H2103 0.961 . S
C2088 C2089 1.370 . S
C2088 C2090 1.363 . S
C2088 H2104 0.931 . S
C2089 C2088 1.370 . S
C2089 C2093 1.408 . S
C2090 C2088 1.363 . S
C2090 C2091 1.370 . S
C2090 C2094 1.524 . S
C2091 C2083 1.503 . S
C2091 C2090 1.370 . S
C2091 C2092 1.403 . S
C2092 C2091 1.403 . S
C2092 C2093 1.404 . S
C2092 C2095 1.539 . S
C2093 C2089 1.408 . S
C2093 C2092 1.404 . S
C2093 H2105 0.930 . S
C2094 C2090 1.524 . S
C2094 H2106 0.956 . S
C2094 H2107 0.961 . S
C2094 H2108 0.961 . S
C2095 C2092 1.539 . S
C2095 H2109 0.958 . S
C2095 H2110 0.961 . S
C2095 H2111 0.960 . S
H2096 C2080 0.931 . S
H2097 C2085 0.929 . S
H2098 C2086 0.960 . S
H2099 C2086 0.962 . S
H2100 C2086 0.960 . S
H2101 C2087 0.961 . S
H2102 C2087 0.961 . S
H2103 C2087 0.961 . S
H2104 C2088 0.931 . S
H2105 C2093 0.930 . S
H2106 C2094 0.956 . S
H2107 C2094 0.961 . S
H2108 C2094 0.961 . S
H2109 C2095 0.958 . S
H2110 C2095 0.961 . S
H2111 C2095 0.960 . S
C2112 C2113 1.391 . S
C2112 C2114 1.394 . S
C2112 H2128 0.931 . S
C2113 C2112 1.391 . S
C2113 C2117 1.376 . S
C2114 C2112 1.394 . S
C2114 C2115 1.369 . S
C2114 C2118 1.531 . S
C2115 C2114 1.369 . S
C2115 C2116 1.410 . S
C2115 C2123 1.503 . S
C2116 C2115 1.410 . S
C2116 C2117 1.392 . S
C2116 C2119 1.511 . S
C2117 C2113 1.376 . S
C2117 C2116 1.392 . S
C2117 H2129 0.929 . S
C2118 C2114 1.531 . S
C2118 H2130 0.960 . S
C2118 H2131 0.962 . S
C2118 H2132 0.960 . S
C2119 C2116 1.511 . S
C2119 H2133 0.961 . S
C2119 H2134 0.961 . S
C2119 H2135 0.961 . S
C2120 C2121 1.370 . S
C2120 C2122 1.363 . S
C2120 H2136 0.931 . S
C2121 C2120 1.370 . S
C2121 C2125 1.408 . S
C2122 C2120 1.363 . S
C2122 C2123 1.370 . S
C2122 C2126 1.524 . S
C2123 C2115 1.503 . S
C2123 C2122 1.370 . S
C2123 C2124 1.403 . S
C2124 C2123 1.403 . S
C2124 C2125 1.404 . S
C2124 C2127 1.539 . S
C2125 C2121 1.408 . S
C2125 C2124 1.404 . S
C2125 H2137 0.930 . S
C2126 C2122 1.524 . S
C2126 H2138 0.956 . S
C2126 H2139 0.961 . S
C2126 H2140 0.961 . S
C2127 C2124 1.539 . S
C2127 H2141 0.958 . S
C2127 H2142 0.961 . S
C2127 H2143 0.960 . S
H2128 C2112 0.931 . S
H2129 C2117 0.929 . S
H2130 C2118 0.960 . S
H2131 C2118 0.962 . S
H2132 C2118 0.960 . S
H2133 C2119 0.961 . S
H2134 C2119 0.961 . S
H2135 C2119 0.961 . S
H2136 C2120 0.931 . S
H2137 C2125 0.930 . S
H2138 C2126 0.956 . S
H2139 C2126 0.961 . S
H2140 C2126 0.961 . S
H2141 C2127 0.958 . S
H2142 C2127 0.961 . S
H2143 C2127 0.960 . S
C2144 C2145 1.391 1_655 S
C2144 C2146 1.394 . S
C2144 H2160 0.931 . S
C2145 C2144 1.391 1_455 S
C2145 C2149 1.376 1_565 S
C2146 C2144 1.394 . S
C2146 C2147 1.369 1_655 S
C2146 C2150 1.531 . S
C2147 C2146 1.369 1_455 S
C2147 C2148 1.410 1_565 S
C2147 C2155 1.506 . S
C2148 C2147 1.410 1_545 S
C2148 C2149 1.392 . S
C2148 C2151 1.511 . S
C2149 C2145 1.376 1_545 S
C2149 C2148 1.392 . S
C2149 H2161 0.929 . S
C2150 C2146 1.531 . S
C2150 H2162 0.960 . S
C2150 H2163 0.962 . S
C2150 H2164 0.960 . S
C2151 C2148 1.511 . S
C2151 H2165 0.961 . S
C2151 H2166 0.961 . S
C2151 H2167 0.961 1_545 S
C2152 C2153 1.347 1_545 S
C2152 C2154 1.363 . S
C2152 H2168 0.931 . S
C2153 C2152 1.347 1_565 S
C2153 C2157 1.434 1_655 S
C2154 C2152 1.363 . S
C2154 C2155 1.360 1_645 S
C2154 C2158 1.524 . S
C2155 C2147 1.506 . S
C2155 C2154 1.360 1_465 S
C2155 C2156 1.411 . S
C2156 C2155 1.411 . S
C2156 C2157 1.404 . S
C2156 C2159 1.539 . S
C2157 C2153 1.434 1_455 S
C2157 C2156 1.404 . S
C2157 H2169 0.930 . S
C2158 C2154 1.524 . S
C2158 H2170 0.956 . S
C2158 H2171 0.961 . S
C2158 H2172 0.961 . S
C2159 C2156 1.539 . S
C2159 H2173 0.958 . S
C2159 H2174 0.961 . S
C2159 H2175 0.960 . S
H2160 C2144 0.931 . S
H2161 C2149 0.929 . S
H2162 C2150 0.960 . S
H2163 C2150 0.962 . S
H2164 C2150 0.960 . S
H2165 C2151 0.961 . S
H2166 C2151 0.961 . S
H2167 C2151 0.961 1_565 S
H2168 C2152 0.931 . S
H2169 C2157 0.930 . S
H2170 C2158 0.956 . S
H2171 C2158 0.961 . S
H2172 C2158 0.961 . S
H2173 C2159 0.958 . S
H2174 C2159 0.961 . S
H2175 C2159 0.960 . S
C2176 C2177 1.391 . S
C2176 C2178 1.394 . S
C2176 H2192 0.931 . S
C2177 C2176 1.391 . S
C2177 C2181 1.376 1_655 S
C2178 C2176 1.394 . S
C2178 C2179 1.369 . S
C2178 C2182 1.531 . S
C2179 C2178 1.369 . S
C2179 C2180 1.410 1_655 S
C2179 C2187 1.503 . S
C2180 C2179 1.410 1_455 S
C2180 C2181 1.392 . S
C2180 C2183 1.511 . S
C2181 C2177 1.376 1_455 S
C2181 C2180 1.392 . S
C2181 H2193 0.929 . S
C2182 C2178 1.531 . S
C2182 H2194 0.960 . S
C2182 H2195 0.962 . S
C2182 H2196 0.960 . S
C2183 C2180 1.511 . S
C2183 H2197 0.961 . S
C2183 H2198 0.961 . S
C2183 H2199 0.961 . S
C2184 C2185 1.370 . S
C2184 C2186 1.363 . S
C2184 H2200 0.931 . S
C2185 C2184 1.370 . S
C2185 C2189 1.408 1_455 S
C2186 C2184 1.363 . S
C2186 C2187 1.370 1_455 S
C2186 C2190 1.524 . S
C2187 C2179 1.503 . S
C2187 C2186 1.370 1_655 S
C2187 C2188 1.403 . S
C2188 C2187 1.403 . S
C2188 C2189 1.404 . S
C2188 C2191 1.539 . S
C2189 C2185 1.408 1_655 S
C2189 C2188 1.404 . S
C2189 H2201 0.930 . S
C2190 C2186 1.524 . S
C2190 H2202 0.956 . S
C2190 H2203 0.961 . S
C2190 H2204 0.961 . S
C2191 C2188 1.539 . S
C2191 H2205 0.958 . S
C2191 H2206 0.961 . S
C2191 H2207 0.960 . S
H2192 C2176 0.931 . S
H2193 C2181 0.929 . S
H2194 C2182 0.960 . S
H2195 C2182 0.962 . S
H2196 C2182 0.960 . S
H2197 C2183 0.961 . S
H2198 C2183 0.961 . S
H2199 C2183 0.961 . S
H2200 C2184 0.931 . S
H2201 C2189 0.930 . S
H2202 C2190 0.956 . S
H2203 C2190 0.961 . S
H2204 C2190 0.961 . S
H2205 C2191 0.958 . S
H2206 C2191 0.961 . S
H2207 C2191 0.960 . S
C2208 C2209 1.391 . S
C2208 C2210 1.394 . S
C2208 H2224 0.931 . S
C2209 C2208 1.391 . S
C2209 C2213 1.376 1_655 S
C2210 C2208 1.394 . S
C2210 C2211 1.369 . S
C2210 C2214 1.531 . S
C2211 C2210 1.369 . S
C2211 C2212 1.410 1_655 S
C2211 C2219 1.501 1_655 S
C2212 C2211 1.410 1_455 S
C2212 C2213 1.392 . S
C2212 C2215 1.511 . S
C2213 C2209 1.376 1_455 S
C2213 C2212 1.392 . S
C2213 H2225 0.929 . S
C2214 C2210 1.531 . S
C2214 H2226 0.960 . S
C2214 H2227 0.962 . S
C2214 H2228 0.960 . S
C2215 C2212 1.511 . S
C2215 H2229 0.961 . S
C2215 H2230 0.961 . S
C2215 H2231 0.961 . S
C2216 C2217 1.370 . S
C2216 C2218 1.363 . S
C2216 H2232 0.931 . S
C2217 C2216 1.370 . S
C2217 C2221 1.408 . S
C2218 C2216 1.363 . S
C2218 C2219 1.371 . S
C2218 C2222 1.524 . S
C2219 C2211 1.501 1_455 S
C2219 C2218 1.371 . S
C2219 C2220 1.404 . S
C2220 C2219 1.404 . S
C2220 C2221 1.404 . S
C2220 C2223 1.539 . S
C2221 C2217 1.408 . S
C2221 C2220 1.404 . S
C2221 H2233 0.930 . S
C2222 C2218 1.524 . S
C2222 H2234 0.959 1_455 S
C2222 H2235 0.958 . S
C2222 H2236 0.960 . S
C2223 C2220 1.539 . S
C2223 H2237 0.958 1_455 S
C2223 H2238 0.961 . S
C2223 H2239 0.960 . S
H2224 C2208 0.931 . S
H2225 C2213 0.929 . S
H2226 C2214 0.960 . S
H2227 C2214 0.962 . S
H2228 C2214 0.960 . S
H2229 C2215 0.961 . S
H2230 C2215 0.961 . S
H2231 C2215 0.961 . S
H2232 C2216 0.931 . S
H2233 C2221 0.930 . S
H2234 C2222 0.959 1_655 S
H2235 C2222 0.958 . S
H2236 C2222 0.960 . S
H2237 C2223 0.958 1_655 S
H2238 C2223 0.961 . S
H2239 C2223 0.960 . S
C2240 C2241 1.391 1_655 S
C2240 C2242 1.394 . S
C2240 H2256 0.931 . S
C2241 C2240 1.391 1_455 S
C2241 C2245 1.376 . S
C2242 C2240 1.394 . S
C2242 C2243 1.369 . S
C2242 C2246 1.531 . S
C2243 C2242 1.369 . S
C2243 C2244 1.410 1_655 S
C2243 C2251 1.503 1_556 S
C2244 C2243 1.410 1_455 S
C2244 C2245 1.392 . S
C2244 C2247 1.511 . S
C2245 C2241 1.376 . S
C2245 C2244 1.392 . S
C2245 H2257 0.929 . S
C2246 C2242 1.531 . S
C2246 H2258 0.974 . S
C2246 H2259 0.962 . S
C2246 H2260 0.960 . S
C2247 C2244 1.511 . S
C2247 H2261 0.961 . S
C2247 H2262 0.961 1_556 S
C2247 H2263 0.961 . S
C2248 C2249 1.370 1_455 S
C2248 C2250 1.363 . S
C2248 H2264 0.931 . S
C2249 C2248 1.370 1_655 S
C2249 C2253 1.408 . S
C2250 C2248 1.363 . S
C2250 C2251 1.370 1_455 S
C2250 C2254 1.524 . S
C2251 C2243 1.503 1_554 S
C2251 C2250 1.370 1_655 S
C2251 C2252 1.403 . S
C2252 C2251 1.403 . S
C2252 C2253 1.404 . S
C2252 C2255 1.539 . S
C2253 C2249 1.408 . S
C2253 C2252 1.404 . S
C2253 H2265 0.930 . S
C2254 C2250 1.524 . S
C2254 H2266 0.956 . S
C2254 H2267 1.001 . S
C2254 H2268 0.961 . S
C2255 C2252 1.539 . S
C2255 H2269 0.958 . S
C2255 H2270 0.961 . S
C2255 H2271 0.878 1_554 S
H2256 C2240 0.931 . S
H2257 C2245 0.929 . S
H2258 C2246 0.974 . S
H2259 C2246 0.962 . S
H2260 C2246 0.960 . S
H2261 C2247 0.961 . S
H2262 C2247 0.961 1_554 S
H2263 C2247 0.961 . S
H2264 C2248 0.931 . S
H2265 C2253 0.930 . S
H2266 C2254 0.956 . S
H2267 C2254 1.001 . S
H2268 C2254 0.961 . S
H2269 C2255 0.958 . S
H2270 C2255 0.961 . S
H2271 C2255 0.878 1_556 S
C2272 C2273 1.391 . S
C2272 C2274 1.394 . S
C2272 H2288 0.931 . S
C2273 C2272 1.391 . S
C2273 C2277 1.376 . S
C2274 C2272 1.394 . S
C2274 C2275 1.369 . S
C2274 C2278 1.531 . S
C2275 C2274 1.369 . S
C2275 C2276 1.410 . S
C2275 C2283 1.503 . S
C2276 C2275 1.410 . S
C2276 C2277 1.392 . S
C2276 C2279 1.511 . S
C2277 C2273 1.376 . S
C2277 C2276 1.392 . S
C2277 H2289 0.929 . S
C2278 C2274 1.531 . S
C2278 H2290 0.960 . S
C2278 H2291 0.962 . S
C2278 H2292 0.960 . S
C2279 C2276 1.511 . S
C2279 H2293 0.961 . S
C2279 H2294 0.961 . S
C2279 H2295 0.961 . S
C2280 C2281 1.370 . S
C2280 C2282 1.363 . S
C2280 H2296 0.931 . S
C2281 C2280 1.370 . S
C2281 C2285 1.408 . S
C2282 C2280 1.363 . S
C2282 C2283 1.370 . S
C2282 C2286 1.524 . S
C2283 C2275 1.503 . S
C2283 C2282 1.370 . S
C2283 C2284 1.403 . S
C2284 C2283 1.403 . S
C2284 C2285 1.404 . S
C2284 C2287 1.539 . S
C2285 C2281 1.408 . S
C2285 C2284 1.404 . S
C2285 H2297 0.930 . S
C2286 C2282 1.524 . S
C2286 H2298 0.956 . S
C2286 H2299 0.961 . S
C2286 H2300 0.961 . S
C2287 C2284 1.539 . S
C2287 H2301 0.958 . S
C2287 H2302 0.961 . S
C2287 H2303 0.960 . S
H2288 C2272 0.931 . S
H2289 C2277 0.929 . S
H2290 C2278 0.960 . S
H2291 C2278 0.962 . S
H2292 C2278 0.960 . S
H2293 C2279 0.961 . S
H2294 C2279 0.961 . S
H2295 C2279 0.961 . S
H2296 C2280 0.931 . S
H2297 C2285 0.930 . S
H2298 C2286 0.956 . S
H2299 C2286 0.961 . S
H2300 C2286 0.961 . S
H2301 C2287 0.958 . S
H2302 C2287 0.961 . S
H2303 C2287 0.960 . S
C2304 C2305 1.391 . S
C2304 C2306 1.394 . S
C2304 H2320 0.931 . S
C2305 C2304 1.391 . S
C2305 C2309 1.376 . S
C2306 C2304 1.394 . S
C2306 C2307 1.369 . S
C2306 C2310 1.531 . S
C2307 C2306 1.369 . S
C2307 C2308 1.410 . S
C2307 C2315 1.503 . S
C2308 C2307 1.410 . S
C2308 C2309 1.392 . S
C2308 C2311 1.511 . S
C2309 C2305 1.376 . S
C2309 C2308 1.392 . S
C2309 H2321 0.929 . S
C2310 C2306 1.531 . S
C2310 H2322 0.960 . S
C2310 H2323 0.962 . S
C2310 H2324 0.960 . S
C2311 C2308 1.511 . S
C2311 H2325 0.961 . S
C2311 H2326 0.961 . S
C2311 H2327 0.961 . S
C2312 C2313 1.370 . S
C2312 C2314 1.363 . S
C2312 H2328 0.931 . S
C2313 C2312 1.370 . S
C2313 C2317 1.408 . S
C2314 C2312 1.363 . S
C2314 C2315 1.370 . S
C2314 C2318 1.524 . S
C2315 C2307 1.503 . S
C2315 C2314 1.370 . S
C2315 C2316 1.403 . S
C2316 C2315 1.403 . S
C2316 C2317 1.404 . S
C2316 C2319 1.539 . S
C2317 C2313 1.408 . S
C2317 C2316 1.404 . S
C2317 H2329 0.930 . S
C2318 C2314 1.524 . S
C2318 H2330 0.956 . S
C2318 H2331 0.961 . S
C2318 H2332 0.961 . S
C2319 C2316 1.539 . S
C2319 H2333 0.958 . S
C2319 H2334 0.961 . S
C2319 H2335 0.960 . S
H2320 C2304 0.931 . S
H2321 C2309 0.929 . S
H2322 C2310 0.960 . S
H2323 C2310 0.962 . S
H2324 C2310 0.960 . S
H2325 C2311 0.961 . S
H2326 C2311 0.961 . S
H2327 C2311 0.961 . S
H2328 C2312 0.931 . S
H2329 C2317 0.930 . S
H2330 C2318 0.956 . S
H2331 C2318 0.961 . S
H2332 C2318 0.961 . S
H2333 C2319 0.958 . S
H2334 C2319 0.961 . S
H2335 C2319 0.960 . S
C2336 C2337 1.391 . S
C2336 C2338 1.394 . S
C2336 H2352 0.931 . S
C2337 C2336 1.391 . S
C2337 C2341 1.376 . S
C2338 C2336 1.394 . S
C2338 C2339 1.369 . S
C2338 C2342 1.531 . S
C2339 C2338 1.369 . S
C2339 C2340 1.410 . S
C2339 C2347 1.503 . S
C2340 C2339 1.410 . S
C2340 C2341 1.392 . S
C2340 C2343 1.511 . S
C2341 C2337 1.376 . S
C2341 C2340 1.392 . S
C2341 H2353 0.929 . S
C2342 C2338 1.531 . S
C2342 H2354 0.960 . S
C2342 H2355 0.962 . S
C2342 H2356 0.960 . S
C2343 C2340 1.511 . S
C2343 H2357 0.961 . S
C2343 H2358 0.961 . S
C2343 H2359 0.961 . S
C2344 C2345 1.370 . S
C2344 C2346 1.363 . S
C2344 H2360 0.931 . S
C2345 C2344 1.370 . S
C2345 C2349 1.408 . S
C2346 C2344 1.363 . S
C2346 C2347 1.370 . S
C2346 C2350 1.524 . S
C2347 C2339 1.503 . S
C2347 C2346 1.370 . S
C2347 C2348 1.403 . S
C2348 C2347 1.403 . S
C2348 C2349 1.404 . S
C2348 C2351 1.539 . S
C2349 C2345 1.408 . S
C2349 C2348 1.404 . S
C2349 H2361 0.930 . S
C2350 C2346 1.524 . S
C2350 H2362 0.956 . S
C2350 H2363 0.961 . S
C2350 H2364 0.961 . S
C2351 C2348 1.539 . S
C2351 H2365 0.958 . S
C2351 H2366 0.961 . S
C2351 H2367 0.960 . S
H2352 C2336 0.931 . S
H2353 C2341 0.929 . S
H2354 C2342 0.960 . S
H2355 C2342 0.962 . S
H2356 C2342 0.960 . S
H2357 C2343 0.961 . S
H2358 C2343 0.961 . S
H2359 C2343 0.961 . S
H2360 C2344 0.931 . S
H2361 C2349 0.930 . S
H2362 C2350 0.956 . S
H2363 C2350 0.961 . S
H2364 C2350 0.961 . S
H2365 C2351 0.958 . S
H2366 C2351 0.961 . S
H2367 C2351 0.960 . S
C2368 C2369 1.391 . S
C2368 C2370 1.394 . S
C2368 H2384 0.931 . S
C2369 C2368 1.391 . S
C2369 C2373 1.376 . S
C2370 C2368 1.394 . S
C2370 C2371 1.369 . S
C2370 C2374 1.531 . S
C2371 C2370 1.369 . S
C2371 C2372 1.410 . S
C2371 C2379 1.503 . S
C2372 C2371 1.410 . S
C2372 C2373 1.392 . S
C2372 C2375 1.511 . S
C2373 C2369 1.376 . S
C2373 C2372 1.392 . S
C2373 H2385 0.929 . S
C2374 C2370 1.531 . S
C2374 H2386 0.960 . S
C2374 H2387 0.962 . S
C2374 H2388 0.960 . S
C2375 C2372 1.511 . S
C2375 H2389 0.961 . S
C2375 H2390 0.961 . S
C2375 H2391 0.961 . S
C2376 C2377 1.370 . S
C2376 C2378 1.363 . S
C2376 H2392 0.931 . S
C2377 C2376 1.370 . S
C2377 C2381 1.408 . S
C2378 C2376 1.363 . S
C2378 C2379 1.370 . S
C2378 C2382 1.524 . S
C2379 C2371 1.503 . S
C2379 C2378 1.370 . S
C2379 C2380 1.403 . S
C2380 C2379 1.403 . S
C2380 C2381 1.404 . S
C2380 C2383 1.539 . S
C2381 C2377 1.408 . S
C2381 C2380 1.404 . S
C2381 H2393 0.930 . S
C2382 C2378 1.524 . S
C2382 H2394 0.956 . S
C2382 H2395 0.961 . S
C2382 H2396 0.961 . S
C2383 C2380 1.539 . S
C2383 H2397 0.958 . S
C2383 H2398 0.961 . S
C2383 H2399 0.960 . S
H2384 C2368 0.931 . S
H2385 C2373 0.929 . S
H2386 C2374 0.960 . S
H2387 C2374 0.962 . S
H2388 C2374 0.960 . S
H2389 C2375 0.961 . S
H2390 C2375 0.961 . S
H2391 C2375 0.961 . S
H2392 C2376 0.931 . S
H2393 C2381 0.930 . S
H2394 C2382 0.956 . S
H2395 C2382 0.961 . S
H2396 C2382 0.961 . S
H2397 C2383 0.958 . S
H2398 C2383 0.961 . S
H2399 C2383 0.960 . S
C2400 C2401 1.391 . S
C2400 C2402 1.394 . S
C2400 H2416 0.931 . S
C2401 C2400 1.391 . S
C2401 C2405 1.376 . S
C2402 C2400 1.394 . S
C2402 C2403 1.369 . S
C2402 C2406 1.531 . S
C2403 C2402 1.369 . S
C2403 C2404 1.410 . S
C2403 C2411 1.503 . S
C2404 C2403 1.410 . S
C2404 C2405 1.392 . S
C2404 C2407 1.511 . S
C2405 C2401 1.376 . S
C2405 C2404 1.392 . S
C2405 H2417 0.929 . S
C2406 C2402 1.531 . S
C2406 H2418 0.960 . S
C2406 H2419 0.962 . S
C2406 H2420 0.960 . S
C2407 C2404 1.511 . S
C2407 H2421 0.961 . S
C2407 H2422 0.961 . S
C2407 H2423 0.961 . S
C2408 C2409 1.370 . S
C2408 C2410 1.363 . S
C2408 H2424 0.931 . S
C2409 C2408 1.370 . S
C2409 C2413 1.408 . S
C2410 C2408 1.363 . S
C2410 C2411 1.370 . S
C2410 C2414 1.524 . S
C2411 C2403 1.503 . S
C2411 C2410 1.370 . S
C2411 C2412 1.403 . S
C2412 C2411 1.403 . S
C2412 C2413 1.404 . S
C2412 C2415 1.539 . S
C2413 C2409 1.408 . S
C2413 C2412 1.404 . S
C2413 H2425 0.930 . S
C2414 C2410 1.524 . S
C2414 H2426 0.956 . S
C2414 H2427 0.961 . S
C2414 H2428 0.961 . S
C2415 C2412 1.539 . S
C2415 H2429 0.958 . S
C2415 H2430 0.961 . S
C2415 H2431 0.960 . S
H2416 C2400 0.931 . S
H2417 C2405 0.929 . S
H2418 C2406 0.960 . S
H2419 C2406 0.962 . S
H2420 C2406 0.960 . S
H2421 C2407 0.961 . S
H2422 C2407 0.961 . S
H2423 C2407 0.961 . S
H2424 C2408 0.931 . S
H2425 C2413 0.930 . S
H2426 C2414 0.956 . S
H2427 C2414 0.961 . S
H2428 C2414 0.961 . S
H2429 C2415 0.958 . S
H2430 C2415 0.961 . S
H2431 C2415 0.960 . S
C2432 C2433 1.391 . S
C2432 C2434 1.394 . S
C2432 H2448 0.931 . S
C2433 C2432 1.391 . S
C2433 C2437 1.376 . S
C2434 C2432 1.394 . S
C2434 C2435 1.369 . S
C2434 C2438 1.531 . S
C2435 C2434 1.369 . S
C2435 C2436 1.410 . S
C2435 C2443 1.503 . S
C2436 C2435 1.410 . S
C2436 C2437 1.392 . S
C2436 C2439 1.511 . S
C2437 C2433 1.376 . S
C2437 C2436 1.392 . S
C2437 H2449 0.929 . S
C2438 C2434 1.531 . S
C2438 H2450 0.960 . S
C2438 H2451 0.962 . S
C2438 H2452 0.960 . S
C2439 C2436 1.511 . S
C2439 H2453 0.961 . S
C2439 H2454 0.961 . S
C2439 H2455 0.961 . S
C2440 C2441 1.370 . S
C2440 C2442 1.363 . S
C2440 H2456 0.931 . S
C2441 C2440 1.370 . S
C2441 C2445 1.408 . S
C2442 C2440 1.363 . S
C2442 C2443 1.370 . S
C2442 C2446 1.524 . S
C2443 C2435 1.503 . S
C2443 C2442 1.370 . S
C2443 C2444 1.403 . S
C2444 C2443 1.403 . S
C2444 C2445 1.404 . S
C2444 C2447 1.539 . S
C2445 C2441 1.408 . S
C2445 C2444 1.404 . S
C2445 H2457 0.930 . S
C2446 C2442 1.524 . S
C2446 H2458 0.956 . S
C2446 H2459 0.961 . S
C2446 H2460 0.961 . S
C2447 C2444 1.539 . S
C2447 H2461 0.958 . S
C2447 H2462 0.961 . S
C2447 H2463 0.960 . S
H2448 C2432 0.931 . S
H2449 C2437 0.929 . S
H2450 C2438 0.960 . S
H2451 C2438 0.962 . S
H2452 C2438 0.960 . S
H2453 C2439 0.961 . S
H2454 C2439 0.961 . S
H2455 C2439 0.961 . S
H2456 C2440 0.931 . S
H2457 C2445 0.930 . S
H2458 C2446 0.956 . S
H2459 C2446 0.961 . S
H2460 C2446 0.961 . S
H2461 C2447 0.958 . S
H2462 C2447 0.961 . S
H2463 C2447 0.960 . S
C2464 C2465 1.391 . S
C2464 C2466 1.394 . S
C2464 H2480 0.931 . S
C2465 C2464 1.391 . S
C2465 C2469 1.376 . S
C2466 C2464 1.394 . S
C2466 C2467 1.369 . S
C2466 C2470 1.531 . S
C2467 C2466 1.369 . S
C2467 C2468 1.410 . S
C2467 C2475 1.503 . S
C2468 C2467 1.410 . S
C2468 C2469 1.392 . S
C2468 C2471 1.511 . S
C2469 C2465 1.376 . S
C2469 C2468 1.392 . S
C2469 H2481 0.929 . S
C2470 C2466 1.531 . S
C2470 H2482 0.960 . S
C2470 H2483 0.962 . S
C2470 H2484 0.960 . S
C2471 C2468 1.511 . S
C2471 H2485 0.961 . S
C2471 H2486 0.961 . S
C2471 H2487 0.961 . S
C2472 C2473 1.370 . S
C2472 C2474 1.363 . S
C2472 H2488 0.931 . S
C2473 C2472 1.370 . S
C2473 C2477 1.408 . S
C2474 C2472 1.363 . S
C2474 C2475 1.370 . S
C2474 C2478 1.524 . S
C2475 C2467 1.503 . S
C2475 C2474 1.370 . S
C2475 C2476 1.403 . S
C2476 C2475 1.403 . S
C2476 C2477 1.404 . S
C2476 C2479 1.539 . S
C2477 C2473 1.408 . S
C2477 C2476 1.404 . S
C2477 H2489 0.930 . S
C2478 C2474 1.524 . S
C2478 H2490 0.956 . S
C2478 H2491 0.961 . S
C2478 H2492 0.961 . S
C2479 C2476 1.539 . S
C2479 H2493 0.958 . S
C2479 H2494 0.961 . S
C2479 H2495 0.960 . S
H2480 C2464 0.931 . S
H2481 C2469 0.929 . S
H2482 C2470 0.960 . S
H2483 C2470 0.962 . S
H2484 C2470 0.960 . S
H2485 C2471 0.961 . S
H2486 C2471 0.961 . S
H2487 C2471 0.961 . S
H2488 C2472 0.931 . S
H2489 C2477 0.930 . S
H2490 C2478 0.956 . S
H2491 C2478 0.961 . S
H2492 C2478 0.961 . S
H2493 C2479 0.958 . S
H2494 C2479 0.961 . S
H2495 C2479 0.960 . S
C2496 C2497 1.391 . S
C2496 C2498 1.394 . S
C2496 H2512 0.931 . S
C2497 C2496 1.391 . S
C2497 C2501 1.376 . S
C2498 C2496 1.394 . S
C2498 C2499 1.369 . S
C2498 C2502 1.531 . S
C2499 C2498 1.369 . S
C2499 C2500 1.410 . S
C2499 C2507 1.503 . S
C2500 C2499 1.410 . S
C2500 C2501 1.392 . S
C2500 C2503 1.511 . S
C2501 C2497 1.376 . S
C2501 C2500 1.392 . S
C2501 H2513 0.929 . S
C2502 C2498 1.531 . S
C2502 H2514 0.960 . S
C2502 H2515 0.962 . S
C2502 H2516 0.960 . S
C2503 C2500 1.511 . S
C2503 H2517 0.961 . S
C2503 H2518 0.961 . S
C2503 H2519 0.961 . S
C2504 C2505 1.370 . S
C2504 C2506 1.363 . S
C2504 H2520 0.931 . S
C2505 C2504 1.370 . S
C2505 C2509 1.408 . S
C2506 C2504 1.363 . S
C2506 C2507 1.370 . S
C2506 C2510 1.524 . S
C2507 C2499 1.503 . S
C2507 C2506 1.370 . S
C2507 C2508 1.403 . S
C2508 C2507 1.403 . S
C2508 C2509 1.404 . S
C2508 C2511 1.539 . S
C2509 C2505 1.408 . S
C2509 C2508 1.404 . S
C2509 H2521 0.930 . S
C2510 C2506 1.524 . S
C2510 H2522 0.956 . S
C2510 H2523 0.961 . S
C2510 H2524 0.961 . S
C2511 C2508 1.539 . S
C2511 H2525 0.958 . S
C2511 H2526 0.961 . S
C2511 H2527 0.960 . S
H2512 C2496 0.931 . S
H2513 C2501 0.929 . S
H2514 C2502 0.960 . S
H2515 C2502 0.962 . S
H2516 C2502 0.960 . S
H2517 C2503 0.961 . S
H2518 C2503 0.961 . S
H2519 C2503 0.961 . S
H2520 C2504 0.931 . S
H2521 C2509 0.930 . S
H2522 C2510 0.956 . S
H2523 C2510 0.961 . S
H2524 C2510 0.961 . S
H2525 C2511 0.958 . S
H2526 C2511 0.961 . S
H2527 C2511 0.960 . S
C2528 C2529 1.391 . S
C2528 C2530 1.394 . S
C2528 H2544 0.931 . S
C2529 C2528 1.391 . S
C2529 C2533 1.376 . S
C2530 C2528 1.394 . S
C2530 C2531 1.369 . S
C2530 C2534 1.531 . S
C2531 C2530 1.369 . S
C2531 C2532 1.410 . S
C2531 C2539 1.503 . S
C2532 C2531 1.410 . S
C2532 C2533 1.392 . S
C2532 C2535 1.511 . S
C2533 C2529 1.376 . S
C2533 C2532 1.392 . S
C2533 H2545 0.929 . S
C2534 C2530 1.531 . S
C2534 H2546 0.960 . S
C2534 H2547 0.962 . S
C2534 H2548 0.960 . S
C2535 C2532 1.511 . S
C2535 H2549 0.961 . S
C2535 H2550 0.961 . S
C2535 H2551 0.961 . S
C2536 C2537 1.370 . S
C2536 C2538 1.363 . S
C2536 H2552 0.931 . S
C2537 C2536 1.370 . S
C2537 C2541 1.408 . S
C2538 C2536 1.363 . S
C2538 C2539 1.370 . S
C2538 C2542 1.524 . S
C2539 C2531 1.503 . S
C2539 C2538 1.370 . S
C2539 C2540 1.403 . S
C2540 C2539 1.403 . S
C2540 C2541 1.404 . S
C2540 C2543 1.539 . S
C2541 C2537 1.408 . S
C2541 C2540 1.404 . S
C2541 H2553 0.930 . S
C2542 C2538 1.524 . S
C2542 H2554 0.956 . S
C2542 H2555 0.961 . S
C2542 H2556 0.961 . S
C2543 C2540 1.539 . S
C2543 H2557 0.958 . S
C2543 H2558 0.961 . S
C2543 H2559 0.960 . S
H2544 C2528 0.931 . S
H2545 C2533 0.929 . S
H2546 C2534 0.960 . S
H2547 C2534 0.962 . S
H2548 C2534 0.960 . S
H2549 C2535 0.961 . S
H2550 C2535 0.961 . S
H2551 C2535 0.961 . S
H2552 C2536 0.931 . S
H2553 C2541 0.930 . S
H2554 C2542 0.956 . S
H2555 C2542 0.961 . S
H2556 C2542 0.961 . S
H2557 C2543 0.958 . S
H2558 C2543 0.961 . S
H2559 C2543 0.960 . S
C2560 C2561 1.391 . S
C2560 C2562 1.394 . S
C2560 H2576 0.931 . S
C2561 C2560 1.391 . S
C2561 C2565 1.376 . S
C2562 C2560 1.394 . S
C2562 C2563 1.369 . S
C2562 C2566 1.531 . S
C2563 C2562 1.369 . S
C2563 C2564 1.410 . S
C2563 C2571 1.503 . S
C2564 C2563 1.410 . S
C2564 C2565 1.392 . S
C2564 C2567 1.511 . S
C2565 C2561 1.376 . S
C2565 C2564 1.392 . S
C2565 H2577 0.929 . S
C2566 C2562 1.531 . S
C2566 H2578 0.960 . S
C2566 H2579 0.962 . S
C2566 H2580 0.960 . S
C2567 C2564 1.511 . S
C2567 H2581 0.961 . S
C2567 H2582 0.961 . S
C2567 H2583 0.961 . S
C2568 C2569 1.370 . S
C2568 C2570 1.363 . S
C2568 H2584 0.931 . S
C2569 C2568 1.370 . S
C2569 C2573 1.408 . S
C2570 C2568 1.363 . S
C2570 C2571 1.370 . S
C2570 C2574 1.524 . S
C2571 C2563 1.503 . S
C2571 C2570 1.370 . S
C2571 C2572 1.403 . S
C2572 C2571 1.403 . S
C2572 C2573 1.404 . S
C2572 C2575 1.539 . S
C2573 C2569 1.408 . S
C2573 C2572 1.404 . S
C2573 H2585 0.930 . S
C2574 C2570 1.524 . S
C2574 H2586 0.956 . S
C2574 H2587 0.961 . S
C2574 H2588 0.961 . S
C2575 C2572 1.539 . S
C2575 H2589 0.958 . S
C2575 H2590 0.961 . S
C2575 H2591 0.960 . S
H2576 C2560 0.931 . S
H2577 C2565 0.929 . S
H2578 C2566 0.960 . S
H2579 C2566 0.962 . S
H2580 C2566 0.960 . S
H2581 C2567 0.961 . S
H2582 C2567 0.961 . S
H2583 C2567 0.961 . S
H2584 C2568 0.931 . S
H2585 C2573 0.930 . S
H2586 C2574 0.956 . S
H2587 C2574 0.961 . S
H2588 C2574 0.961 . S
H2589 C2575 0.958 . S
H2590 C2575 0.961 . S
H2591 C2575 0.960 . S
C2592 C2593 1.391 . S
C2592 C2594 1.394 . S
C2592 H2608 0.931 . S
C2593 C2592 1.391 . S
C2593 C2597 1.376 . S
C2594 C2592 1.394 . S
C2594 C2595 1.369 . S
C2594 C2598 1.531 . S
C2595 C2594 1.369 . S
C2595 C2596 1.410 . S
C2595 C2603 1.503 . S
C2596 C2595 1.410 . S
C2596 C2597 1.392 . S
C2596 C2599 1.511 . S
C2597 C2593 1.376 . S
C2597 C2596 1.392 . S
C2597 H2609 0.929 . S
C2598 C2594 1.531 . S
C2598 H2610 0.960 . S
C2598 H2611 0.962 . S
C2598 H2612 0.960 . S
C2599 C2596 1.511 . S
C2599 H2613 0.961 . S
C2599 H2614 0.961 . S
C2599 H2615 0.961 . S
C2600 C2601 1.370 . S
C2600 C2602 1.363 . S
C2600 H2616 0.931 . S
C2601 C2600 1.370 . S
C2601 C2605 1.408 . S
C2602 C2600 1.363 . S
C2602 C2603 1.370 . S
C2602 C2606 1.524 . S
C2603 C2595 1.503 . S
C2603 C2602 1.370 . S
C2603 C2604 1.403 . S
C2604 C2603 1.403 . S
C2604 C2605 1.404 . S
C2604 C2607 1.539 . S
C2605 C2601 1.408 . S
C2605 C2604 1.404 . S
C2605 H2617 0.930 . S
C2606 C2602 1.524 . S
C2606 H2618 0.956 . S
C2606 H2619 0.961 . S
C2606 H2620 0.961 . S
C2607 C2604 1.539 . S
C2607 H2621 0.958 . S
C2607 H2622 0.961 . S
C2607 H2623 0.960 . S
H2608 C2592 0.931 . S
H2609 C2597 0.929 . S
H2610 C2598 0.960 . S
H2611 C2598 0.962 . S
H2612 C2598 0.960 . S
H2613 C2599 0.961 . S
H2614 C2599 0.961 . S
H2615 C2599 0.961 . S
H2616 C2600 0.931 . S
H2617 C2605 0.930 . S
H2618 C2606 0.956 . S
H2619 C2606 0.961 . S
H2620 C2606 0.961 . S
H2621 C2607 0.958 . S
H2622 C2607 0.961 . S
H2623 C2607 0.960 . S
C2624 C2625 1.391 . S
C2624 C2626 1.394 . S
C2624 H2640 0.931 . S
C2625 C2624 1.391 . S
C2625 C2629 1.376 . S
C2626 C2624 1.394 . S
C2626 C2627 1.369 . S
C2626 C2630 1.531 . S
C2627 C2626 1.369 . S
C2627 C2628 1.410 . S
C2627 C2635 1.503 . S
C2628 C2627 1.410 . S
C2628 C2629 1.392 . S
C2628 C2631 1.511 . S
C2629 C2625 1.376 . S
C2629 C2628 1.392 . S
C2629 H2641 0.929 . S
C2630 C2626 1.531 . S
C2630 H2642 0.960 . S
C2630 H2643 0.962 . S
C2630 H2644 0.960 . S
C2631 C2628 1.511 . S
C2631 H2645 0.961 . S
C2631 H2646 0.961 . S
C2631 H2647 0.961 . S
C2632 C2633 1.370 . S
C2632 C2634 1.363 . S
C2632 H2648 0.931 . S
C2633 C2632 1.370 . S
C2633 C2637 1.408 . S
C2634 C2632 1.363 . S
C2634 C2635 1.370 . S
C2634 C2638 1.524 . S
C2635 C2627 1.503 . S
C2635 C2634 1.370 . S
C2635 C2636 1.403 . S
C2636 C2635 1.403 . S
C2636 C2637 1.404 . S
C2636 C2639 1.539 . S
C2637 C2633 1.408 . S
C2637 C2636 1.404 . S
C2637 H2649 0.930 . S
C2638 C2634 1.524 . S
C2638 H2650 0.956 . S
C2638 H2651 0.961 . S
C2638 H2652 0.961 . S
C2639 C2636 1.539 . S
C2639 H2653 0.958 . S
C2639 H2654 0.961 . S
C2639 H2655 0.960 . S
H2640 C2624 0.931 . S
H2641 C2629 0.929 . S
H2642 C2630 0.960 . S
H2643 C2630 0.962 . S
H2644 C2630 0.960 . S
H2645 C2631 0.961 . S
H2646 C2631 0.961 . S
H2647 C2631 0.961 . S
H2648 C2632 0.931 . S
H2649 C2637 0.930 . S
H2650 C2638 0.956 . S
H2651 C2638 0.961 . S
H2652 C2638 0.961 . S
H2653 C2639 0.958 . S
H2654 C2639 0.961 . S
H2655 C2639 0.960 . S
C2656 C2657 1.391 . S
C2656 C2658 1.394 . S
C2656 H2672 0.931 . S
C2657 C2656 1.391 . S
C2657 C2661 1.376 . S
C2658 C2656 1.394 . S
C2658 C2659 1.369 . S
C2658 C2662 1.531 . S
C2659 C2658 1.369 . S
C2659 C2660 1.410 . S
C2659 C2667 1.503 . S
C2660 C2659 1.410 . S
C2660 C2661 1.392 . S
C2660 C2663 1.511 . S
C2661 C2657 1.376 . S
C2661 C2660 1.392 . S
C2661 H2673 0.929 . S
C2662 C2658 1.531 . S
C2662 H2674 0.960 . S
C2662 H2675 0.962 . S
C2662 H2676 0.960 . S
C2663 C2660 1.511 . S
C2663 H2677 0.961 . S
C2663 H2678 0.961 . S
C2663 H2679 0.961 . S
C2664 C2665 1.370 . S
C2664 C2666 1.363 . S
C2664 H2680 0.931 . S
C2665 C2664 1.370 . S
C2665 C2669 1.408 . S
C2666 C2664 1.363 . S
C2666 C2667 1.370 . S
C2666 C2670 1.524 . S
C2667 C2659 1.503 . S
C2667 C2666 1.370 . S
C2667 C2668 1.403 . S
C2668 C2667 1.403 . S
C2668 C2669 1.404 . S
C2668 C2671 1.539 . S
C2669 C2665 1.408 . S
C2669 C2668 1.404 . S
C2669 H2681 0.930 . S
C2670 C2666 1.524 . S
C2670 H2682 0.956 . S
C2670 H2683 0.961 . S
C2670 H2684 0.961 . S
C2671 C2668 1.539 . S
C2671 H2685 0.958 . S
C2671 H2686 0.961 . S
C2671 H2687 0.960 . S
H2672 C2656 0.931 . S
H2673 C2661 0.929 . S
H2674 C2662 0.960 . S
H2675 C2662 0.962 . S
H2676 C2662 0.960 . S
H2677 C2663 0.961 . S
H2678 C2663 0.961 . S
H2679 C2663 0.961 . S
H2680 C2664 0.931 . S
H2681 C2669 0.930 . S
H2682 C2670 0.956 . S
H2683 C2670 0.961 . S
H2684 C2670 0.961 . S
H2685 C2671 0.958 . S
H2686 C2671 0.961 . S
H2687 C2671 0.960 . S
C2688 C2689 1.391 . S
C2688 C2690 1.394 . S
C2688 H2704 0.931 . S
C2689 C2688 1.391 . S
C2689 C2693 1.376 . S
C2690 C2688 1.394 . S
C2690 C2691 1.369 . S
C2690 C2694 1.531 . S
C2691 C2690 1.369 . S
C2691 C2692 1.410 . S
C2691 C2699 1.503 . S
C2692 C2691 1.410 . S
C2692 C2693 1.392 . S
C2692 C2695 1.511 . S
C2693 C2689 1.376 . S
C2693 C2692 1.392 . S
C2693 H2705 0.929 . S
C2694 C2690 1.531 . S
C2694 H2706 0.960 . S
C2694 H2707 0.962 . S
C2694 H2708 0.960 . S
C2695 C2692 1.511 . S
C2695 H2709 0.961 . S
C2695 H2710 0.961 . S
C2695 H2711 0.961 . S
C2696 C2697 1.370 . S
C2696 C2698 1.363 . S
C2696 H2712 0.931 . S
C2697 C2696 1.370 . S
C2697 C2701 1.408 . S
C2698 C2696 1.363 . S
C2698 C2699 1.370 . S
C2698 C2702 1.524 . S
C2699 C2691 1.503 . S
C2699 C2698 1.370 . S
C2699 C2700 1.403 . S
C2700 C2699 1.403 . S
C2700 C2701 1.404 . S
C2700 C2703 1.539 . S
C2701 C2697 1.408 . S
C2701 C2700 1.404 . S
C2701 H2713 0.930 . S
C2702 C2698 1.524 . S
C2702 H2714 0.956 . S
C2702 H2715 0.961 . S
C2702 H2716 0.961 . S
C2703 C2700 1.539 . S
C2703 H2717 0.958 . S
C2703 H2718 0.961 . S
C2703 H2719 0.960 . S
H2704 C2688 0.931 . S
H2705 C2693 0.929 . S
H2706 C2694 0.960 . S
H2707 C2694 0.962 . S
H2708 C2694 0.960 . S
H2709 C2695 0.961 . S
H2710 C2695 0.961 . S
H2711 C2695 0.961 . S
H2712 C2696 0.931 . S
H2713 C2701 0.930 . S
H2714 C2702 0.956 . S
H2715 C2702 0.961 . S
H2716 C2702 0.961 . S
H2717 C2703 0.958 . S
H2718 C2703 0.961 . S
H2719 C2703 0.960 . S
C2720 C2721 1.391 . S
C2720 C2722 1.394 . S
C2720 H2736 0.931 . S
C2721 C2720 1.391 . S
C2721 C2725 1.376 . S
C2722 C2720 1.394 . S
C2722 C2723 1.369 . S
C2722 C2726 1.531 . S
C2723 C2722 1.369 . S
C2723 C2724 1.410 . S
C2723 C2731 1.503 . S
C2724 C2723 1.410 . S
C2724 C2725 1.392 . S
C2724 C2727 1.511 . S
C2725 C2721 1.376 . S
C2725 C2724 1.392 . S
C2725 H2737 0.929 . S
C2726 C2722 1.531 . S
C2726 H2738 0.960 . S
C2726 H2739 0.962 . S
C2726 H2740 0.960 . S
C2727 C2724 1.511 . S
C2727 H2741 0.961 . S
C2727 H2742 0.961 . S
C2727 H2743 0.961 . S
C2728 C2729 1.370 . S
C2728 C2730 1.363 . S
C2728 H2744 0.931 . S
C2729 C2728 1.370 . S
C2729 C2733 1.408 . S
C2730 C2728 1.363 . S
C2730 C2731 1.370 . S
C2730 C2734 1.524 . S
C2731 C2723 1.503 . S
C2731 C2730 1.370 . S
C2731 C2732 1.403 . S
C2732 C2731 1.403 . S
C2732 C2733 1.404 . S
C2732 C2735 1.539 . S
C2733 C2729 1.408 . S
C2733 C2732 1.404 . S
C2733 H2745 0.930 . S
C2734 C2730 1.524 . S
C2734 H2746 0.956 . S
C2734 H2747 0.961 . S
C2734 H2748 0.961 . S
C2735 C2732 1.539 . S
C2735 H2749 0.958 . S
C2735 H2750 0.961 . S
C2735 H2751 0.960 . S
H2736 C2720 0.931 . S
H2737 C2725 0.929 . S
H2738 C2726 0.960 . S
H2739 C2726 0.962 . S
H2740 C2726 0.960 . S
H2741 C2727 0.961 . S
H2742 C2727 0.961 . S
H2743 C2727 0.961 . S
H2744 C2728 0.931 . S
H2745 C2733 0.930 . S
H2746 C2734 0.956 . S
H2747 C2734 0.961 . S
H2748 C2734 0.961 . S
H2749 C2735 0.958 . S
H2750 C2735 0.961 . S
H2751 C2735 0.960 . S
C2752 C2753 1.391 . S
C2752 C2754 1.394 . S
C2752 H2768 0.931 . S
C2753 C2752 1.391 . S
C2753 C2757 1.376 . S
C2754 C2752 1.394 . S
C2754 C2755 1.369 . S
C2754 C2758 1.531 . S
C2755 C2754 1.369 . S
C2755 C2756 1.410 . S
C2755 C2763 1.503 . S
C2756 C2755 1.410 . S
C2756 C2757 1.392 . S
C2756 C2759 1.511 . S
C2757 C2753 1.376 . S
C2757 C2756 1.392 . S
C2757 H2769 0.929 . S
C2758 C2754 1.531 . S
C2758 H2770 0.960 . S
C2758 H2771 0.962 . S
C2758 H2772 0.960 . S
C2759 C2756 1.511 . S
C2759 H2773 0.961 . S
C2759 H2774 0.961 . S
C2759 H2775 0.961 . S
C2760 C2761 1.370 . S
C2760 C2762 1.363 . S
C2760 H2776 0.931 . S
C2761 C2760 1.370 . S
C2761 C2765 1.408 . S
C2762 C2760 1.363 . S
C2762 C2763 1.370 . S
C2762 C2766 1.524 . S
C2763 C2755 1.503 . S
C2763 C2762 1.370 . S
C2763 C2764 1.403 . S
C2764 C2763 1.403 . S
C2764 C2765 1.404 . S
C2764 C2767 1.539 . S
C2765 C2761 1.408 . S
C2765 C2764 1.404 . S
C2765 H2777 0.930 . S
C2766 C2762 1.524 . S
C2766 H2778 0.956 . S
C2766 H2779 0.961 . S
C2766 H2780 0.961 . S
C2767 C2764 1.539 . S
C2767 H2781 0.958 . S
C2767 H2782 0.961 . S
C2767 H2783 0.960 . S
H2768 C2752 0.931 . S
H2769 C2757 0.929 . S
H2770 C2758 0.960 . S
H2771 C2758 0.962 . S
H2772 C2758 0.960 . S
H2773 C2759 0.961 . S
H2774 C2759 0.961 . S
H2775 C2759 0.961 . S
H2776 C2760 0.931 . S
H2777 C2765 0.930 . S
H2778 C2766 0.956 . S
H2779 C2766 0.961 . S
H2780 C2766 0.961 . S
H2781 C2767 0.958 . S
H2782 C2767 0.961 . S
H2783 C2767 0.960 . S
C737 C16 1.593 . S
C745 C62 1.571 . S
C769 C85 1.550 . S
C777 C39 1.581 . S
C801 C154 1.566 . S
C809 C108 1.588 . S
C833 C177 1.579 . S
C841 C131 1.565 . S
C865 C200 1.598 . S
C873 C246 1.576 . S
C897 C269 1.547 . S
C905 C223 1.578 . S
C929 C292 1.598 . S
C937 C338 1.573 . S
C961 C361 1.586 . S
C969 C315 1.565 . S
C993 C384 1.548 . S
C1001 C430 1.579 . S
C1025 C407 1.593 . S
C1033 C453 1.570 . S
C1057 C522 1.569 . S
C1065 C476 1.567 . S
C1089 C499 1.576 . S
C1097 C545 1.583 . S
C1121 C614 1.587 1_455 S
C1129 C568 1.565 1_455 S
C1153 C637 1.554 . S
C1161 C591 1.571 . S
C1185 C706 1.584 . S
C1193 C660 1.564 . S
C1217 C683 1.576 . S
C1225 C729 1.583 . S
C1249 N587 1.825 . S
C1257 N12 1.822 . S
C1281 N35 1.823 . S
C1289 N564 1.805 . S
C1313 N58 1.788 . S
C1321 N633 1.811 . S
C1345 N81 1.787 . S
C1353 N610 1.799 . S
C1377 N679 1.817 . S
C1385 N104 1.821 . S
C1409 N127 1.824 . S
C1417 N656 1.808 . S
C1441 N150 1.816 . S
C1449 N725 1.821 . S
C1473 N702 1.788 . S
C1481 N173 1.798 . S
C1505 N196 1.829 . S
C1513 N403 1.821 . S
C1537 N219 1.826 . S
C1545 N380 1.807 . S
C1569 N242 1.829 . S
C1577 N449 1.815 . S
C1601 N265 1.818 . S
C1609 N426 1.802 . S
C1633 N288 1.823 . S
C1641 N495 1.822 . S
C1665 N472 1.827 . S
C1673 N311 1.815 . S
C1697 N541 1.793 . S
C1705 N334 1.812 . S
C1729 N357 1.801 . S
C1737 N518 1.810 . S
C1761 C7 1.633 1_565 S
C1769 C99 1.609 . S
C1793 C30 1.585 . S
C1801 C674 1.620 . S
C1825 C53 1.590 . S
C1833 C329 1.624 . S
C1857 C76 1.587 . S
C1865 C536 1.620 1_545 S
C1889 C122 1.620 . S
C1897 C582 1.607 . S
C1921 C237 1.589 . S
C1929 C145 1.624 . S
C1953 C444 1.585 . S
C1961 C168 1.620 1_545 S
C1985 C283 1.613 . S
C1993 C191 1.616 . S
C2017 C214 1.589 . S
C2025 C490 1.620 . S
C2049 C720 1.592 . S
C2057 C260 1.618 . S
C2081 C306 1.608 . S
C2089 C398 1.612 . S
C2113 C352 1.619 . S
C2121 C628 1.608 . S
C2145 C467 1.592 . S
C2153 C375 1.609 1_565 S
C2177 C421 1.599 . S
C2185 C697 1.614 . S
C2209 C605 1.586 . S
C2217 C513 1.618 . S
C2241 C651 1.586 . S
C2249 C559 1.618 . S
C2273 N2 1.133 . S
C2281 N25 1.089 . S
C2305 N48 1.108 . S
C2313 N71 1.119 . S
C2337 N94 1.078 . S
C2345 N117 1.100 . S
C2369 N140 1.114 . S
C2377 N163 1.088 . S
C2401 N209 1.113 . S
C2409 N186 1.118 . S
C2433 N232 1.114 . S
C2441 N255 1.118 . S
C2465 N278 1.115 . S
C2473 N301 1.113 . S
C2497 N324 1.129 . S
C2505 N347 1.107 . S
C2529 N370 1.098 . S
C2537 N393 1.097 . S
C2561 N439 1.096 . S
C2569 N416 1.129 . S
C2593 N462 1.095 . S
C2601 N485 1.102 . S
C2625 N508 1.129 . S
C2633 N531 1.095 . S
C2657 N577 1.091 . S
C2665 N554 1.129 . S
C2689 N600 1.064 . S
C2697 N623 1.120 . S
C2721 N669 1.130 . S
C2729 N646 1.095 . S
C2753 N692 1.096 . S
C2761 N715 1.102 . S
