# Generated by pormake.
# Topology upc, (4)-cn, num edge types: 1
# Building blocks:
#     Node 0, Type 0, BuildingBlock: QUQFOY_clean_sbu_3, # of connection points: 4
#     Node 1, Type 0, BuildingBlock: QUQFOY_clean_sbu_3, # of connection points: 4
#     Node 2, Type 0, BuildingBlock: QUQFOY_clean_sbu_3, # of connection points: 4
#     Node 3, Type 0, BuildingBlock: QUQFOY_clean_sbu_3, # of connection points: 4
#     Node 4, Type 0, BuildingBlock: QUQFOY_clean_sbu_3, # of connection points: 4
#     Node 5, Type 0, BuildingBlock: QUQFOY_clean_sbu_3, # of connection points: 4
#     Node 6, Type 0, BuildingBlock: QUQFOY_clean_sbu_3, # of connection points: 4
#     Node 7, Type 0, BuildingBlock: QUQFOY_clean_sbu_3, # of connection points: 4
#     Node 8, Type 0, BuildingBlock: QUQFOY_clean_sbu_3, # of connection points: 4
#     Node 9, Type 0, BuildingBlock: QUQFOY_clean_sbu_3, # of connection points: 4
#     Node 10, Type 0, BuildingBlock: QUQFOY_clean_sbu_3, # of connection points: 4
#     Node 11, Type 0, BuildingBlock: QUQFOY_clean_sbu_3, # of connection points: 4
#     Node 12, Type 0, BuildingBlock: QUQFOY_clean_sbu_3, # of connection points: 4
#     Node 13, Type 0, BuildingBlock: QUQFOY_clean_sbu_3, # of connection points: 4
#     Node 14, Type 0, BuildingBlock: QUQFOY_clean_sbu_3, # of connection points: 4
#     Node 15, Type 0, BuildingBlock: QUQFOY_clean_sbu_3, # of connection points: 4
#     Edge 16, Type (0, 0), BuildingBlock: AJUNOK_clean_linker_0, # of connection points: 2
#     Edge 17, Type (0, 0), BuildingBlock: AJUNOK_clean_linker_0, # of connection points: 2
#     Edge 18, Type (0, 0), BuildingBlock: AJUNOK_clean_linker_0, # of connection points: 2
#     Edge 19, Type (0, 0), BuildingBlock: AJUNOK_clean_linker_0, # of connection points: 2
#     Edge 20, Type (0, 0), BuildingBlock: AJUNOK_clean_linker_0, # of connection points: 2
#     Edge 21, Type (0, 0), BuildingBlock: AJUNOK_clean_linker_0, # of connection points: 2
#     Edge 22, Type (0, 0), BuildingBlock: AJUNOK_clean_linker_0, # of connection points: 2
#     Edge 23, Type (0, 0), BuildingBlock: AJUNOK_clean_linker_0, # of connection points: 2
#     Edge 24, Type (0, 0), BuildingBlock: AJUNOK_clean_linker_0, # of connection points: 2
#     Edge 25, Type (0, 0), BuildingBlock: AJUNOK_clean_linker_0, # of connection points: 2
#     Edge 26, Type (0, 0), BuildingBlock: AJUNOK_clean_linker_0, # of connection points: 2
#     Edge 27, Type (0, 0), BuildingBlock: AJUNOK_clean_linker_0, # of connection points: 2
#     Edge 28, Type (0, 0), BuildingBlock: AJUNOK_clean_linker_0, # of connection points: 2
#     Edge 29, Type (0, 0), BuildingBlock: AJUNOK_clean_linker_0, # of connection points: 2
#     Edge 30, Type (0, 0), BuildingBlock: AJUNOK_clean_linker_0, # of connection points: 2
#     Edge 31, Type (0, 0), BuildingBlock: AJUNOK_clean_linker_0, # of connection points: 2
#     Edge 32, Type (0, 0), BuildingBlock: AJUNOK_clean_linker_0, # of connection points: 2
#     Edge 33, Type (0, 0), BuildingBlock: AJUNOK_clean_linker_0, # of connection points: 2
#     Edge 34, Type (0, 0), BuildingBlock: AJUNOK_clean_linker_0, # of connection points: 2
#     Edge 35, Type (0, 0), BuildingBlock: AJUNOK_clean_linker_0, # of connection points: 2
#     Edge 36, Type (0, 0), BuildingBlock: AJUNOK_clean_linker_0, # of connection points: 2
#     Edge 37, Type (0, 0), BuildingBlock: AJUNOK_clean_linker_0, # of connection points: 2
#     Edge 38, Type (0, 0), BuildingBlock: AJUNOK_clean_linker_0, # of connection points: 2
#     Edge 39, Type (0, 0), BuildingBlock: AJUNOK_clean_linker_0, # of connection points: 2
#     Edge 40, Type (0, 0), BuildingBlock: AJUNOK_clean_linker_0, # of connection points: 2
#     Edge 41, Type (0, 0), BuildingBlock: AJUNOK_clean_linker_0, # of connection points: 2
#     Edge 42, Type (0, 0), BuildingBlock: AJUNOK_clean_linker_0, # of connection points: 2
#     Edge 43, Type (0, 0), BuildingBlock: AJUNOK_clean_linker_0, # of connection points: 2
#     Edge 44, Type (0, 0), BuildingBlock: AJUNOK_clean_linker_0, # of connection points: 2
#     Edge 45, Type (0, 0), BuildingBlock: AJUNOK_clean_linker_0, # of connection points: 2
#     Edge 46, Type (0, 0), BuildingBlock: AJUNOK_clean_linker_0, # of connection points: 2
#     Edge 47, Type (0, 0), BuildingBlock: AJUNOK_clean_linker_0, # of connection points: 2
# Relax obj value: 0.240
# Max RMSD: 0.293
# Mean RMSD: 0.293
data_MOF--net-upc--node1-QUQFOY_clean_sbu_3--edge1-AJUNOK_clean_linker_0
_symmetry_space_group_name_H-M    P1
_symmetry_Int_Tables_number       1
_symmetry_cell_setting            triclinic
loop_
_symmetry_equiv_pos_as_xyz
'x, y, z'
_cell_length_a     25.626559
_cell_length_b     25.735251
_cell_length_c     34.534479
_cell_angle_alpha  90.581004
_cell_angle_beta   90.036549
_cell_angle_gamma 89.838409
loop_
_atom_site_label
_atom_site_type_symbol
_atom_site_fract_x
_atom_site_fract_y
_atom_site_fract_z
_atom_type_partial_charge
C0 C 0.15147 0.66721 0.09555 0.0
O1 O 0.16212 0.63087 0.11896 0.0
Cd2 Cd 0.09867 0.60783 0.16653 0.0
O3 O 0.10396 0.67706 0.08641 0.0
Cd4 Cd 0.01539 0.63017 0.09001 0.0
C5 C 0.00295 0.70729 0.15032 0.0
O6 O 0.03582 0.55746 0.13576 0.0
O7 O 0.95815 0.58947 0.13753 0.0
O8 O 0.04349 0.5784 0.03685 0.0
C9 C -0.00885 0.55812 0.15163 0.0
O10 O 0.03504 0.67023 0.14974 0.0
C11 C -0.00042 0.57563 0.02008 0.0
O12 O 0.9751 0.71334 0.12017 0.0
O13 O 0.96308 0.60461 0.03328 0.0
C14 C 0.80157 0.13609 0.09734 0.0
O15 O 0.83237 0.1455 0.12549 0.0
Cd16 Cd 0.86083 0.08 0.16956 0.0
O17 O 0.79525 0.08988 0.084 0.0
Cd18 Cd 0.83911 0.00062 0.08672 0.0
C19 C 0.75932 -0.00872 0.1449 0.0
O20 O 0.90964 0.01947 0.13446 0.0
O21 O 0.88561 0.93957 0.12903 0.0
O22 O 0.89097 0.03645 0.03791 0.0
C23 C 0.91408 0.97299 0.14599 0.0
O24 O 0.79871 0.02012 0.14667 0.0
C25 C 0.89444 -0.00417 0.01709 0.0
O26 O 0.75338 0.96434 0.11415 0.0
O27 O 0.86582 0.95716 0.02593 0.0
C28 C 0.32185 0.81624 0.09998 0.0
O29 O 0.3174 0.85428 0.12373 0.0
Cd30 Cd 0.38449 0.88829 0.1647 0.0
O31 O 0.36624 0.80408 0.08508 0.0
Cd32 Cd 0.46002 0.84133 0.08171 0.0
C33 C 0.4659 0.78111 0.15067 0.0
O34 O 0.45192 0.91842 0.12594 0.0
O35 O 0.52786 0.88327 0.12049 0.0
O36 O 0.42989 0.88604 0.02611 0.0
C37 C 0.49861 0.91528 0.13834 0.0
O38 O 0.43731 0.81954 0.14438 0.0
C39 C 0.47353 0.88739 0.00893 0.0
O40 O 0.491 0.76278 0.12169 0.0
O41 O 0.51043 0.86 0.02293 0.0
C42 C 0.67465 0.31504 0.10454 0.0
O43 O 0.65736 0.31181 0.13907 0.0
Cd44 Cd 0.63927 0.38465 0.18062 0.0
O45 O 0.674 0.35804 0.08595 0.0
Cd46 Cd 0.63169 0.44884 0.08999 0.0
C47 C 0.70651 0.48159 0.14312 0.0
O48 O 0.57272 0.4264 0.14505 0.0
O49 O 0.57341 0.50595 0.12726 0.0
O50 O 0.57905 0.42079 0.03715 0.0
C51 C 0.55727 0.47262 0.15107 0.0
O52 O 0.69103 0.43547 0.14076 0.0
C53 C 0.57801 0.46471 0.02091 0.0
O54 O 0.70661 0.50737 0.11212 0.0
O55 O 0.60824 0.49972 0.03409 0.0
C56 C 0.15433 0.80596 0.35975 0.0
O57 O 0.15767 0.83985 0.33359 0.0
Cd58 Cd 0.08974 0.8183 0.29061 0.0
O59 O 0.10901 0.79163 0.37082 0.0
Cd60 Cd 0.01782 0.83336 0.35722 0.0
C61 C 0.00074 0.74172 0.31268 0.0
O62 O 0.03794 0.89275 0.30171 0.0
O63 O 0.95734 0.8735 0.31231 0.0
O64 O 0.04256 0.89253 0.40686 0.0
C65 C -0.00954 0.89717 0.29197 0.0
O66 O 0.04563 0.74982 0.3261 0.0
C67 C -0.00146 0.89437 0.42337 0.0
O68 O 0.96369 0.75717 0.33405 0.0
O69 O 0.96334 0.86356 0.41113 0.0
C70 C 0.65397 0.15054 0.3588 0.0
O71 O 0.62021 0.15608 0.33217 0.0
Cd72 Cd 0.62547 0.08829 0.28539 0.0
O73 O 0.66699 0.10484 0.36961 0.0
Cd74 Cd 0.62912 0.01218 0.35735 0.0
C75 C 0.71305 0.00514 0.30372 0.0
O76 O 0.56297 0.02646 0.30481 0.0
O77 O 0.59228 0.9487 0.31281 0.0
O78 O 0.57039 0.03911 0.40506 0.0
C79 C 0.56435 0.97941 0.29319 0.0
O80 O 0.6982 0.04813 0.31691 0.0
C81 C 0.57017 -0.0021 0.42471 0.0
O82 O 0.70811 0.96716 0.32652 0.0
O83 O 0.60258 0.96233 0.41503 0.0
C84 C 0.32633 0.66021 0.35066 0.0
O85 O 0.31932 0.62429 0.3257 0.0
Cd86 Cd 0.38678 0.60065 0.28221 0.0
O87 O 0.37222 0.67155 0.36254 0.0
Cd88 Cd 0.46097 0.62701 0.35956 0.0
C89 C 0.47485 0.70775 0.3029 0.0
O90 O 0.44733 0.55173 0.31477 0.0
O91 O 0.52303 0.58754 0.31359 0.0
O92 O 0.42816 0.58063 0.41215 0.0
C93 C 0.4928 0.55277 0.30037 0.0
O94 O 0.4443 0.67051 0.29582 0.0
C95 C 0.47141 0.57522 0.42941 0.0
O96 O 0.49731 0.71041 0.33571 0.0
O97 O 0.50999 0.60164 0.4172 0.0
C98 C 0.8039 0.31822 0.35906 0.0
O99 O 0.84447 0.3102 0.3391 0.0
Cd100 Cd 0.8431 0.38405 0.29958 0.0
O101 O 0.78913 0.36509 0.36473 0.0
Cd102 Cd 0.84643 0.44561 0.35485 0.0
C103 C 0.74891 0.47086 0.2993 0.0
O104 O 0.91996 0.43356 0.30676 0.0
O105 O 0.88946 0.51089 0.31601 0.0
O106 O 0.9027 0.41989 0.40567 0.0
C107 C 0.92236 0.48169 0.29905 0.0
O108 O 0.75575 0.42219 0.29621 0.0
C109 C 0.89846 0.46116 0.42574 0.0
O110 O 0.776 0.49555 0.32418 0.0
O111 O 0.86535 0.49501 0.41473 0.0
C112 C 0.82744 0.29373 0.87495 0.0
O113 O 0.82835 0.342 0.86826 0.0
Cd114 Cd 0.91736 0.33593 0.84534 0.0
O115 O 0.87013 0.26888 0.8718 0.0
Cd116 Cd 0.94671 0.33195 0.85558 0.0
C117 C 0.96774 0.24803 0.79833 0.0
O118 O 0.93715 0.39914 0.80102 0.0
O119 O 0.01296 0.36635 0.8132 0.0
O120 O 0.91788 0.39551 0.90098 0.0
C121 C 0.98555 0.3966 0.79271 0.0
O122 O 0.92022 0.26024 0.80259 0.0
C123 C 0.95917 0.39719 0.92099 0.0
O124 O -0.00128 0.26216 0.8251 0.0
O125 O -0.00552 0.36345 0.91329 0.0
C126 C 0.16734 0.82184 0.85833 0.0
O127 O 0.12779 0.81889 0.8365 0.0
Cd128 Cd 0.14632 0.88324 0.79013 0.0
O129 O 0.18454 0.86685 0.86766 0.0
Cd130 Cd 0.14031 0.95697 0.85638 0.0
C131 C 0.23062 0.97173 0.80725 0.0
O132 O 0.07581 0.93888 0.80346 0.0
O133 O 0.0985 0.0188 0.81222 0.0
O134 O 0.08052 0.9272 0.90193 0.0
C135 C 0.07238 -0.01418 0.79299 0.0
O136 O 0.22165 0.92661 0.81926 0.0
C137 C 0.07691 0.96884 0.9215 0.0
O138 O 0.21621 0.00806 0.82987 0.0
O139 O 0.10895 0.00523 0.91406 0.0
C140 C 0.64987 0.16222 0.85727 0.0
O141 O 0.65941 0.13489 0.82715 0.0
Cd142 Cd 0.59098 0.12623 0.78132 0.0
O143 O 0.60311 0.16989 0.86909 0.0
Cd144 Cd 0.51063 0.13469 0.85933 0.0
C145 C 0.50447 0.21413 0.80151 0.0
O146 O 0.53221 0.06827 0.8095 0.0
O147 O 0.45068 0.08509 0.81922 0.0
O148 O 0.54058 0.08657 0.91347 0.0
C149 C 0.48506 0.06148 0.79949 0.0
O150 O 0.54719 0.19644 0.81315 0.0
C151 C 0.49614 0.08006 0.9285 0.0
O152 O 0.46754 0.21279 0.82596 0.0
O153 O 0.45796 0.10502 0.914 0.0
C154 C 0.31494 0.65083 0.84831 0.0
O155 O 0.34526 0.65209 0.81926 0.0
Cd156 Cd 0.33492 0.575 0.78215 0.0
O157 O 0.30407 0.60729 0.86377 0.0
Cd158 Cd 0.34407 0.5164 0.85747 0.0
C159 C 0.24342 0.50017 0.81327 0.0
O160 O 0.40677 0.52352 0.80305 0.0
O161 O 0.38171 0.44673 0.81856 0.0
O162 O 0.4015 0.54494 0.90679 0.0
C163 C 0.40824 0.47495 0.79622 0.0
O164 O 0.25663 0.54716 0.81597 0.0
C165 C 0.39851 0.50414 0.92682 0.0
O166 O 0.26586 0.46888 0.83593 0.0
O167 O 0.36626 0.46936 0.91605 0.0
C168 C 0.82274 0.17216 0.60495 0.0
O169 O 0.8185 0.15115 0.63802 0.0
Cd170 Cd 0.88822 0.1239 0.67928 0.0
O171 O 0.86626 0.17301 0.5867 0.0
Cd172 Cd 0.95594 0.1299 0.589 0.0
C173 C -0.01194 0.20807 0.64438 0.0
O174 O 0.93612 0.06597 0.64106 0.0
O175 O 0.01714 0.07883 0.62807 0.0
O176 O 0.9236 0.08108 0.53474 0.0
C177 C 0.98357 0.05658 0.64896 0.0
O178 O 0.95215 0.17623 0.65091 0.0
C179 C 0.96742 0.07638 0.51814 0.0
O180 O 0.00561 0.21044 0.61008 0.0
O181 O 0.00542 0.10197 0.5323 0.0
C182 C 0.29798 0.82637 0.59335 0.0
O183 O 0.31911 0.81795 0.626 0.0
Cd184 Cd 0.31575 0.89126 0.66723 0.0
O185 O 0.29403 0.87249 0.58011 0.0
Cd186 Cd 0.33246 0.96297 0.593 0.0
C187 C 0.23767 0.97751 0.63931 0.0
O188 O 0.39024 0.9382 0.64681 0.0
O189 O 0.38599 0.01992 0.63318 0.0
O190 O 0.38674 0.92787 0.54447 0.0
C191 C 0.40284 -0.01537 0.6552 0.0
O192 O 0.25087 0.93316 0.62741 0.0
C193 C 0.39315 0.96945 0.52595 0.0
O194 O 0.25479 0.01471 0.61931 0.0
O195 O 0.3654 0.00856 0.53597 0.0
C196 C 0.64012 0.29519 0.6027 0.0
O197 O 0.64556 0.3217 0.63382 0.0
Cd198 Cd 0.57591 0.35336 0.6743 0.0
O199 O 0.59604 0.29151 0.58536 0.0
Cd200 Cd 0.50558 0.33266 0.58428 0.0
C201 C 0.48581 0.25781 0.64331 0.0
O202 O 0.52232 0.40178 0.63399 0.0
O203 O 0.44236 0.38251 0.62192 0.0
O204 O 0.5447 0.37873 0.53381 0.0
C205 C 0.47462 0.4067 0.64323 0.0
O206 O 0.51568 0.29625 0.64566 0.0
C207 C 0.50271 0.38699 0.51554 0.0
O208 O 0.46357 0.24962 0.6109 0.0
O209 O 0.4626 0.36099 0.52534 0.0
C210 C 0.16948 0.64803 0.57549 0.0
O211 O 0.12145 0.64914 0.58437 0.0
Cd212 Cd 0.12512 0.55785 0.60198 0.0
O213 O 0.19232 0.60413 0.5759 0.0
Cd214 Cd 0.13233 0.52535 0.59072 0.0
C215 C 0.21508 0.5142 0.65205 0.0
O216 O 0.0605 0.52806 0.6426 0.0
O217 O 0.098 0.45476 0.62817 0.0
O218 O 0.06781 0.54867 0.54445 0.0
C219 C 0.06496 0.47941 0.64871 0.0
O220 O 0.19717 0.55954 0.64756 0.0
C221 C 0.07365 0.50851 0.52336 0.0
O222 O 0.20402 0.48096 0.62591 0.0
O223 O 0.11115 0.47748 0.53111 0.0
C224 C 0.22538 0.71367 0.06145 0.0
C225 C 0.19098 0.70876 0.093 0.0
C226 C 0.26756 0.7491 0.06305 0.0
C227 C 0.27613 0.7807 0.09615 0.0
H228 H 0.22059 0.68909 0.03606 0.0
H229 H 0.29381 0.75137 0.03856 0.0
S230 S 0.19873 0.77808 0.18729 0.0
N231 N 0.16963 0.7359 0.15833 0.0
N232 N 0.24748 0.80158 0.16182 0.0
C233 C 0.24156 0.77546 0.12764 0.0
C234 C 0.19938 0.73975 0.12591 0.0
C235 C 0.78785 0.22861 0.07918 0.0
C236 C 0.76686 0.17882 0.08506 0.0
C237 C 0.756 0.27312 0.0804 0.0
C238 C 0.70251 0.2692 0.08876 0.0
H239 H 0.82967 0.23349 0.07653 0.0
H240 H 0.77429 0.31095 0.07881 0.0
S241 S 0.62738 0.14747 0.10013 0.0
N242 N 0.68819 0.12779 0.09361 0.0
N243 N 0.62878 0.21156 0.09783 0.0
C244 C 0.68037 0.21943 0.09102 0.0
C245 C 0.7125 0.1741 0.08864 0.0
C246 C 0.21448 0.74768 0.32523 0.0
C247 C 0.19768 0.76835 0.3609 0.0
C248 C 0.25586 0.71281 0.32302 0.0
C249 C 0.28279 0.69714 0.35634 0.0
H250 H 0.19523 0.75851 0.29851 0.0
H251 H 0.26735 0.69849 0.29464 0.0
S252 S 0.25379 0.7392 0.45716 0.0
N253 N 0.21001 0.77015 0.43067 0.0
N254 N 0.28978 0.70461 0.42651 0.0
C255 C 0.26678 0.71742 0.39248 0.0
C256 C 0.22346 0.7528 0.39479 0.0
C257 C 0.7553 0.24668 0.32841 0.0
C258 C 0.7666 0.27498 0.36233 0.0
C259 C 0.71893 0.20663 0.32837 0.0
C260 C 0.69274 0.19248 0.36234 0.0
H261 H 0.77398 0.25632 0.30127 0.0
H262 H 0.71109 0.18649 0.30127 0.0
S263 S 0.71105 0.25158 0.45967 0.0
N264 N 0.75033 0.28516 0.43137 0.0
N265 N 0.68239 0.20775 0.4315 0.0
C266 C 0.70461 0.21912 0.39695 0.0
C267 C 0.74131 0.26113 0.39685 0.0
C268 C 0.77457 0.21842 0.898 0.0
C269 C 0.77763 0.26572 0.87791 0.0
C270 C 0.73116 0.18562 0.89351 0.0
C271 C 0.69002 0.19952 0.86883 0.0
H272 H 0.80693 0.20563 0.91576 0.0
H273 H 0.73089 0.14836 0.90783 0.0
S274 S 0.6801 0.31764 0.80892 0.0
N275 N 0.73559 0.32431 0.83267 0.0
N276 N 0.65491 0.26246 0.82393 0.0
C277 C 0.69185 0.24728 0.84978 0.0
C278 C 0.73544 0.28066 0.85454 0.0
C279 C 0.26892 0.72047 0.88783 0.0
C280 C 0.27752 0.69409 0.85248 0.0
C281 C 0.233 0.76214 0.89017 0.0
C282 C 0.20367 0.77701 0.85754 0.0
H283 H 0.29063 0.70951 0.91341 0.0
H284 H 0.22792 0.78254 0.9175 0.0
S285 S 0.21114 0.7181 0.75889 0.0
N286 N 0.25331 0.6847 0.78482 0.0
N287 N 0.18605 0.76153 0.78903 0.0
C288 C 0.2116 0.74984 0.82241 0.0
C289 C 0.24838 0.70866 0.81996 0.0
C290 C 0.7347 0.28604 0.58718 0.0
C291 C 0.68497 0.26329 0.58985 0.0
C292 C 0.78011 0.25532 0.5869 0.0
C293 C 0.77703 0.20109 0.59051 0.0
H294 H 0.73863 0.32794 0.58804 0.0
H295 H 0.81771 0.27445 0.58784 0.0
S296 S 0.65617 0.12243 0.59244 0.0
N297 N 0.63524 0.18314 0.59054 0.0
N298 N 0.72056 0.12554 0.5919 0.0
C299 C 0.72753 0.17774 0.58966 0.0
C300 C 0.68138 0.20889 0.58883 0.0
C301 C 0.25489 0.69198 0.56603 0.0
C302 C 0.20021 0.69606 0.56977 0.0
C303 C 0.28701 0.73552 0.57033 0.0
C304 C 0.26546 0.78484 0.57707 0.0
H305 H 0.2735 0.65437 0.56264 0.0
H306 H 0.32896 0.73013 0.57065 0.0
S307 S 0.12514 0.81854 0.58363 0.0
N308 N 0.12598 0.75494 0.57656 0.0
N309 N 0.18681 0.83687 0.58357 0.0
C310 C 0.21099 0.7905 0.57707 0.0
C311 C 0.17814 0.74605 0.57353 0.0
C312 C 0.94992 0.55463 0.25658 0.0
C313 C 0.95257 0.50134 0.26545 0.0
C314 C 0.9646 0.57282 0.22009 0.0
C315 C 0.98329 0.53865 0.19124 0.0
H316 H 0.93325 0.58218 0.27705 0.0
H317 H 0.95955 0.61376 0.21395 0.0
S318 S 0.00297 0.39688 0.20042 0.0
N319 N 0.97976 0.41539 0.243 0.0
N320 N 0.00769 0.45025 0.1745 0.0
C321 C -0.00962 0.48624 0.20054 0.0
C322 C 0.97518 0.46744 0.23774 0.0
C323 C 0.98485 0.9346 0.18633 0.0
C324 C 0.93679 0.96075 0.18396 0.0
C325 C 0.00372 0.91674 0.22203 0.0
C326 C 0.97442 0.92352 0.25617 0.0
H327 H 0.00721 0.92666 0.16032 0.0
H328 H 0.04008 0.89516 0.22258 0.0
S329 S 0.84752 -0.00836 0.26538 0.0
N330 N 0.86143 -0.00563 0.21877 0.0
N331 N 0.89646 0.96018 0.28568 0.0
C332 C 0.927 0.95074 0.25421 0.0
C333 C 0.90823 0.96949 0.21808 0.0
C334 C 0.56664 0.91951 0.23599 0.0
C335 C 0.54398 0.96281 0.25478 0.0
C336 C 0.55202 0.90507 0.19836 0.0
C337 C 0.51341 0.93273 0.17798 0.0
H338 H 0.59701 0.89717 0.25004 0.0
H339 H 0.57107 0.87159 0.1853 0.0
S340 S 0.43875 0.04607 0.21531 0.0
N341 N 0.47915 0.0316 0.25094 0.0
N342 N 0.4506 0.00344 0.1803 0.0
C343 C 0.48902 0.97483 0.19689 0.0
C344 C 0.5046 -0.00984 0.23517 0.0
C345 C 0.54158 0.46097 0.22203 0.0
C346 C 0.53342 0.48975 0.18807 0.0
C347 C 0.52706 0.48099 0.25846 0.0
C348 C 0.50333 0.52999 0.26194 0.0
H349 H 0.5616 0.42389 0.22074 0.0
H350 H 0.53575 0.45869 0.28412 0.0
S351 S 0.46922 0.61893 0.18191 0.0
N352 N 0.49695 0.56846 0.16025 0.0
N353 N 0.46995 0.60584 0.22862 0.0
C354 C 0.49314 0.5583 0.22821 0.0
C355 C 0.50798 0.53813 0.19124 0.0
C356 C -0.00385 0.47397 0.69993 0.0
C357 C 0.04274 0.45512 0.68357 0.0
C358 C 0.97846 0.45595 0.73583 0.0
C359 C 0.00735 0.41932 0.75697 0.0
H360 H 0.97338 0.50305 0.68497 0.0
H361 H 0.9418 0.47073 0.74704 0.0
S362 S 0.13405 0.35991 0.72757 0.0
N363 N 0.11792 0.39793 0.69129 0.0
N364 N 0.08645 0.36638 0.75939 0.0
C365 C 0.05471 0.40085 0.74114 0.0
C366 C 0.07173 0.41783 0.70413 0.0
C367 C 0.0164 0.04741 0.75546 0.0
C368 C 0.0448 0.0006 0.75718 0.0
C369 C -0.00627 0.06385 0.72057 0.0
C370 C -8e-05 0.03462 0.68624 0.0
H371 H 0.01228 0.07173 0.78107 0.0
H372 H 0.9732 0.1007 0.7201 0.0
S373 S 0.07358 0.91146 0.67491 0.0
N374 N 0.07854 0.92597 0.72146 0.0
N375 N 0.03802 0.95825 0.65569 0.0
C376 C 0.02849 -0.01183 0.68755 0.0
C377 C 0.05032 0.97073 0.72315 0.0
C378 C 0.48982 0.05348 0.72777 0.0
C379 C 0.47018 0.03553 0.76317 0.0
C380 C 0.46884 0.03567 0.69252 0.0
C381 C 0.42885 -0.00168 0.6918 0.0
H382 H 0.51944 0.08346 0.72738 0.0
H383 H 0.48319 0.05192 0.66574 0.0
S384 S 0.3642 0.93994 0.77672 0.0
N385 N 0.40808 0.97976 0.7955 0.0
N386 N 0.37045 0.94437 0.72928 0.0
C387 C 0.41007 0.97918 0.72699 0.0
C388 C 0.43028 -0.00162 0.76274 0.0
C389 C 0.48426 0.4641 0.70194 0.0
C390 C 0.45913 0.42269 0.68282 0.0
C391 C 0.46866 0.48011 0.73924 0.0
C392 C 0.42903 0.45378 0.75924 0.0
H393 H 0.51503 0.48522 0.68753 0.0
H394 H 0.48738 0.51361 0.75237 0.0
S395 S 0.35525 0.33881 0.72335 0.0
N396 N 0.39428 0.35408 0.68729 0.0
N397 N 0.36857 0.38083 0.75831 0.0
C398 C 0.40616 0.41001 0.74131 0.0
C399 C 0.42019 0.3954 0.70281 0.0
C400 C 0.04415 0.73733 0.20897 0.0
C401 C -0.00195 0.73589 0.18729 0.0
C402 C 0.04324 0.73726 0.24889 0.0
C403 C -0.00359 0.74223 0.26979 0.0
H404 H 0.08152 0.73143 0.19508 0.0
H405 H 0.08038 0.73179 0.26331 0.0
S406 S 0.86462 0.75567 0.22629 0.0
N407 N 0.9037 0.74682 0.18865 0.0
N408 N 0.90232 0.75513 0.2652 0.0
C409 C 0.94975 0.74794 0.24849 0.0
C410 C 0.95051 0.74395 0.20691 0.0
C411 C 0.7201 0.94644 0.2015 0.0
C412 C 0.72505 -0.00857 0.17894 0.0
C413 C 0.71391 0.95027 0.24206 0.0
C414 C 0.71449 -0.00087 0.26092 0.0
H415 H 0.72594 0.90847 0.18838 0.0
H416 H 0.71188 0.91498 0.2588 0.0
S417 S 0.72333 0.12806 0.21306 0.0
N418 N 0.72236 0.08539 0.17722 0.0
N419 N 0.71985 0.0932 0.2527 0.0
C420 C 0.71663 0.04408 0.23785 0.0
C421 C 0.71868 0.03999 0.19699 0.0
C422 C 0.52428 0.73747 0.24632 0.0
C423 C 0.4816 0.74448 0.27156 0.0
C424 C 0.51958 0.74822 0.20655 0.0
C425 C 0.47167 0.76497 0.19118 0.0
H426 H 0.55986 0.71954 0.25672 0.0
H427 H 0.55297 0.74237 0.18777 0.0
S428 S 0.34904 0.78971 0.24584 0.0
N429 N 0.39183 0.77235 0.27901 0.0
N430 N 0.38123 0.78837 0.20453 0.0
C431 C 0.42961 0.77375 0.21664 0.0
C432 C 0.43525 0.76525 0.25685 0.0
C433 C 0.67923 0.51096 0.20859 0.0
C434 C 0.71932 0.50346 0.18117 0.0
C435 C 0.6892 0.50681 0.24853 0.0
C436 C 0.73982 0.49592 0.26178 0.0
H437 H 0.63932 0.51484 0.19897 0.0
H438 H 0.6567 0.50737 0.26859 0.0
S439 S 0.85686 0.47322 0.20107 0.0
N440 N 0.81049 0.48661 0.16975 0.0
N441 N 0.82991 0.47906 0.24425 0.0
C442 C 0.78056 0.49302 0.23452 0.0
C443 C 0.77021 0.49694 0.19424 0.0
C444 C 0.03538 0.20563 0.70526 0.0
C445 C 0.00891 0.23624 0.67774 0.0
C446 C 0.02452 0.21065 0.74508 0.0
C447 C -0.01312 0.24648 0.75799 0.0
H448 H 0.05881 0.17285 0.69561 0.0
H449 H 0.04213 0.18368 0.76514 0.0
S450 S 0.91754 0.34415 0.69803 0.0
N451 N 0.95297 0.31037 0.66681 0.0
N452 N 0.9308 0.31935 0.74076 0.0
C453 C 0.96604 0.28187 0.73105 0.0
C454 C 0.97827 0.27748 0.69109 0.0
C455 C 0.22048 0.93584 0.7016 0.0
C456 C 0.22888 0.98239 0.68169 0.0
C457 C 0.22339 0.93362 0.74149 0.0
C458 C 0.2294 0.97856 0.76453 0.0
H459 H 0.21482 0.89937 0.6862 0.0
H460 H 0.22173 0.89532 0.754 0.0
S461 S 0.2459 0.11231 0.7274 0.0
N462 N 0.24133 0.07582 0.68786 0.0
N463 N 0.24034 0.07248 0.76445 0.0
C464 C 0.23415 0.02649 0.74545 0.0
C465 C 0.23458 0.02834 0.70381 0.0
C466 C 0.44611 0.22144 0.74227 0.0
C467 C 0.49612 0.21723 0.75903 0.0
C468 C 0.44026 0.22595 0.70178 0.0
C469 C 0.484 0.22407 0.67714 0.0
H470 H 0.41182 0.22399 0.7605 0.0
H471 H 0.4022 0.23535 0.6901 0.0
S472 S 0.62232 0.21163 0.70543 0.0
N473 N 0.58996 0.21455 0.7466 0.0
N474 N 0.57716 0.21164 0.6715 0.0
C475 C 0.5329 0.21367 0.69331 0.0
C476 C 0.53962 0.21432 0.734 0.0
C477 C 0.27101 0.46959 0.74817 0.0
C478 C 0.23036 0.48328 0.77386 0.0
C479 C 0.26574 0.47572 0.70786 0.0
C480 C 0.21999 0.49752 0.69264 0.0
H481 H 0.3087 0.45961 0.75967 0.0
H482 H 0.29877 0.46752 0.68919 0.0
S483 S 0.10282 0.5399 0.74806 0.0
N484 N 0.14274 0.51665 0.7811 0.0
N485 N 0.13351 0.53208 0.70647 0.0
C486 C 0.17852 0.5091 0.71814 0.0
C487 C 0.1834 0.50093 0.7585 0.0
C488 C 0.02512 0.49079 -0.00953 0.0
C489 C -0.01022 0.53294 -0.00788 0.0
C490 C 0.01429 0.44599 0.96866 0.0
C491 C 0.96771 0.44166 0.94758 0.0
H492 H 0.06113 0.49171 0.0069 0.0
H493 H 0.0428 0.41482 0.96814 0.0
S494 S 0.8634 0.54208 0.94035 0.0
N495 N 0.90742 0.56828 0.96942 0.0
N496 N 0.88631 0.48404 0.92884 0.0
C497 C 0.93213 0.48371 0.94874 0.0
C498 C 0.94341 0.52943 0.97075 0.0
C499 C 0.03269 0.00418 -0.01933 0.0
C500 C 0.03038 0.97705 0.94543 0.0
C501 C -0.01238 0.01079 0.00304 0.0
C502 C 0.93907 -0.0093 -0.00924 0.0
H503 H 0.06945 0.01937 -0.00869 0.0
H504 H -0.0089 0.03071 0.03072 0.0
S505 S 0.91201 0.92354 0.89772 0.0
N506 N 0.97536 0.93476 0.89712 0.0
N507 N 0.89079 0.94667 0.93969 0.0
C508 C 0.93608 0.96495 0.95502 0.0
C509 C 0.98182 0.95841 0.93218 0.0
C510 C 0.49499 0.98022 0.00759 0.0
C511 C 0.48475 0.93409 -0.01341 0.0
C512 C 0.49691 0.02845 -0.01081 0.0
C513 C 0.48765 0.03176 0.94937 0.0
H514 H 0.50045 0.97902 0.0387 0.0
H515 H 0.50569 0.06306 0.00606 0.0
S516 S 0.4634 0.92272 0.88088 0.0
N517 N 0.46794 0.89468 0.92365 0.0
N518 N 0.47162 -0.01446 0.8889 0.0
C519 C 0.47852 -0.01403 0.92793 0.0
C520 C 0.47689 0.9369 0.94659 0.0
C521 C 0.46355 0.44449 0.95462 0.0
C522 C 0.43955 0.49356 0.95502 0.0
C523 C 0.51055 0.43634 -0.02589 0.0
C524 C 0.5349 0.47696 -0.00533 0.0
H525 H 0.44708 0.41271 0.93785 0.0
H526 H 0.52774 0.39782 0.97337 0.0
S527 S 0.48445 0.61138 0.00763 0.0
N528 N 0.44106 0.58235 -0.0205 0.0
N529 N 0.5298 0.56727 0.01627 0.0
C530 C 0.51071 0.52608 -0.00417 0.0
C531 C 0.46268 0.5342 -0.02382 0.0
C532 C 0.028 0.95731 0.47319 0.0
C533 C -0.0126 0.9375 0.45009 0.0
C534 C 0.02235 0.00443 0.49316 0.0
C535 C 0.97588 0.03332 0.49068 0.0
H536 H 0.06469 0.9365 0.47543 0.0
H537 H 0.05403 0.01742 0.51164 0.0
S538 S 0.85967 0.00043 0.43143 0.0
N539 N 0.90026 0.95132 0.42419 0.0
N540 N 0.88965 0.04037 0.46182 0.0
C541 C 0.93523 0.01431 0.46726 0.0
C542 C 0.94085 0.96608 0.44711 0.0
C543 C 0.48515 0.02517 0.4523 0.0
C544 C 0.52759 -0.00991 0.45272 0.0
C545 C 0.44084 0.01721 0.47484 0.0
C546 C 0.43717 0.9739 0.49883 0.0
H547 H 0.48547 0.05893 0.43382 0.0
H548 H 0.40944 0.04543 0.47363 0.0
S549 S 0.53874 0.87226 0.51303 0.0
N550 N 0.56417 0.91173 0.48075 0.0
N551 N 0.4805 0.89622 0.52317 0.0
C552 C 0.47943 0.93855 0.49993 0.0
C553 C 0.52485 0.94689 0.47702 0.0
C554 C 0.45471 0.43982 0.46734 0.0
C555 C 0.49787 0.43381 0.49176 0.0
C556 C 0.44529 0.48699 0.44905 0.0
C557 C 0.4787 0.52994 0.45443 0.0
H558 H 0.42776 0.40802 0.46256 0.0
H559 H 0.41214 0.48916 0.42964 0.0
S560 S 0.59413 0.53598 0.51879 0.0
N561 N 0.57265 0.47587 0.52261 0.0
N562 N 0.55457 0.56461 0.4878 0.0
C563 C 0.52146 0.52491 0.47933 0.0
C564 C 0.53123 0.47675 0.49798 0.0
C565 C -0.00933 0.48351 0.43516 0.0
C566 C 0.94133 0.47475 0.45182 0.0
C567 C 0.03467 0.49272 0.45823 0.0
C568 C 0.03021 0.49311 0.49856 0.0
H569 H -0.00485 0.48322 0.40394 0.0
H570 H 0.07183 0.50051 0.44455 0.0
S571 S 0.91108 0.46971 0.5565 0.0
N572 N 0.89111 0.46541 0.51101 0.0
N573 N 0.97412 0.48252 0.55458 0.0
C574 C 0.98139 0.48376 0.5156 0.0
C575 C 0.93662 0.47463 0.49216 0.0
loop_
_geom_bond_atom_site_label_1
_geom_bond_atom_site_label_2
_geom_bond_distance
_geom_bond_site_symmetry_2
_ccdc_geom_bond_type
C0 O1 1.306 . S
C0 O3 1.160 . S
O1 C0 1.306 . S
O1 Cd2 2.228 . S
Cd2 O1 2.228 . S
Cd2 O6 2.273 . S
Cd2 O10 2.277 . S
O3 C0 1.160 . S
O3 Cd4 2.203 . S
Cd4 O3 2.203 . S
Cd4 O6 2.411 . S
Cd4 O7 2.333 1_455 S
Cd4 O8 2.352 . S
Cd4 O12 2.277 1_455 S
Cd4 O13 2.356 1_455 S
C5 O10 1.209 . S
C5 O12 1.226 1_455 S
O6 Cd2 2.273 . S
O6 Cd4 2.411 . S
O6 C9 1.312 1_455 S
O7 Cd4 2.333 1_655 S
O7 C9 1.219 . S
O8 Cd4 2.352 . S
O8 C11 1.258 . S
C9 O6 1.312 1_655 S
C9 O7 1.219 . S
O10 Cd2 2.277 . S
O10 C5 1.209 . S
C11 O8 1.258 . S
C11 O13 1.282 1_455 S
O12 Cd4 2.277 1_655 S
O12 C5 1.226 1_655 S
O13 Cd4 2.356 1_655 S
O13 C11 1.282 1_655 S
C14 O15 1.306 . S
C14 O17 1.160 . S
O15 C14 1.306 . S
O15 Cd16 2.228 . S
Cd16 O15 2.228 . S
Cd16 O20 2.273 . S
Cd16 O24 2.277 . S
O17 C14 1.160 . S
O17 Cd18 2.203 . S
Cd18 O17 2.203 . S
Cd18 O20 2.411 . S
Cd18 O21 2.333 1_545 S
Cd18 O22 2.352 . S
Cd18 O26 2.277 1_545 S
Cd18 O27 2.356 1_545 S
C19 O24 1.209 . S
C19 O26 1.226 1_545 S
O20 Cd16 2.273 . S
O20 Cd18 2.411 . S
O20 C23 1.313 1_545 S
O21 Cd18 2.333 1_565 S
O21 C23 1.219 . S
O22 Cd18 2.352 . S
O22 C25 1.258 . S
C23 O20 1.313 1_565 S
C23 O21 1.219 . S
O24 Cd16 2.277 . S
O24 C19 1.209 . S
C25 O22 1.258 . S
C25 O27 1.282 1_545 S
O26 Cd18 2.277 1_565 S
O26 C19 1.226 1_565 S
O27 Cd18 2.356 1_565 S
O27 C25 1.282 1_565 S
C28 O29 1.306 . S
C28 O31 1.160 . S
O29 C28 1.306 . S
O29 Cd30 2.228 . S
Cd30 O29 2.228 . S
Cd30 O34 2.273 . S
Cd30 O38 2.277 . S
O31 C28 1.160 . S
O31 Cd32 2.203 . S
Cd32 O31 2.203 . S
Cd32 O34 2.411 . S
Cd32 O35 2.333 . S
Cd32 O36 2.352 . S
Cd32 O40 2.277 . S
Cd32 O41 2.356 . S
C33 O38 1.209 . S
C33 O40 1.226 . S
O34 Cd30 2.273 . S
O34 Cd32 2.411 . S
O34 C37 1.320 . S
O35 Cd32 2.333 . S
O35 C37 1.214 . S
O36 Cd32 2.352 . S
O36 C39 1.258 . S
C37 O34 1.320 . S
C37 O35 1.214 . S
O38 Cd30 2.277 . S
O38 C33 1.209 . S
C39 O36 1.258 . S
C39 O41 1.282 . S
O40 Cd32 2.277 . S
O40 C33 1.226 . S
O41 Cd32 2.356 . S
O41 C39 1.282 . S
C42 O43 1.306 . S
C42 O45 1.160 . S
O43 C42 1.306 . S
O43 Cd44 2.228 . S
Cd44 O43 2.228 . S
Cd44 O48 2.273 . S
Cd44 O52 2.277 . S
O45 C42 1.160 . S
O45 Cd46 2.203 . S
Cd46 O45 2.203 . S
Cd46 O48 2.411 . S
Cd46 O49 2.333 . S
Cd46 O50 2.352 . S
Cd46 O54 2.277 . S
Cd46 O55 2.356 . S
C47 O52 1.209 . S
C47 O54 1.226 . S
O48 Cd44 2.273 . S
O48 Cd46 2.411 . S
O48 C51 1.320 . S
O49 Cd46 2.333 . S
O49 C51 1.214 . S
O50 Cd46 2.352 . S
O50 C53 1.258 . S
C51 O48 1.320 . S
C51 O49 1.214 . S
O52 Cd44 2.277 . S
O52 C47 1.209 . S
C53 O50 1.258 . S
C53 O55 1.282 . S
O54 Cd46 2.277 . S
O54 C47 1.226 . S
O55 Cd46 2.356 . S
O55 C53 1.282 . S
C56 O57 1.306 . S
C56 O59 1.160 . S
O57 C56 1.306 . S
O57 Cd58 2.228 . S
Cd58 O57 2.228 . S
Cd58 O62 2.273 . S
Cd58 O66 2.277 . S
O59 C56 1.160 . S
O59 Cd60 2.203 . S
Cd60 O59 2.203 . S
Cd60 O62 2.411 . S
Cd60 O63 2.333 1_455 S
Cd60 O64 2.352 . S
Cd60 O68 2.277 1_455 S
Cd60 O69 2.356 1_455 S
C61 O66 1.209 . S
C61 O68 1.226 1_455 S
O62 Cd58 2.273 . S
O62 Cd60 2.411 . S
O62 C65 1.313 1_455 S
O63 Cd60 2.333 1_655 S
O63 C65 1.219 . S
O64 Cd60 2.352 . S
O64 C67 1.258 . S
C65 O62 1.313 1_655 S
C65 O63 1.219 . S
O66 Cd58 2.277 . S
O66 C61 1.209 . S
C67 O64 1.258 . S
C67 O69 1.282 1_455 S
O68 Cd60 2.277 1_655 S
O68 C61 1.226 1_655 S
O69 Cd60 2.356 1_655 S
O69 C67 1.282 1_655 S
C70 O71 1.306 . S
C70 O73 1.160 . S
O71 C70 1.306 . S
O71 Cd72 2.228 . S
Cd72 O71 2.228 . S
Cd72 O76 2.273 . S
Cd72 O80 2.277 . S
O73 C70 1.160 . S
O73 Cd74 2.203 . S
Cd74 O73 2.203 . S
Cd74 O76 2.411 . S
Cd74 O77 2.333 1_545 S
Cd74 O78 2.352 . S
Cd74 O82 2.277 1_545 S
Cd74 O83 2.356 1_545 S
C75 O80 1.209 . S
C75 O82 1.226 1_545 S
O76 Cd72 2.273 . S
O76 Cd74 2.411 . S
O76 C79 1.312 1_545 S
O77 Cd74 2.333 1_565 S
O77 C79 1.219 . S
O78 Cd74 2.352 . S
O78 C81 1.258 . S
C79 O76 1.312 1_565 S
C79 O77 1.219 . S
O80 Cd72 2.277 . S
O80 C75 1.209 . S
C81 O78 1.258 . S
C81 O83 1.282 1_545 S
O82 Cd74 2.277 1_565 S
O82 C75 1.226 1_565 S
O83 Cd74 2.356 1_565 S
O83 C81 1.282 1_565 S
C84 O85 1.306 . S
C84 O87 1.160 . S
O85 C84 1.306 . S
O85 Cd86 2.228 . S
Cd86 O85 2.228 . S
Cd86 O90 2.273 . S
Cd86 O94 2.277 . S
O87 C84 1.160 . S
O87 Cd88 2.203 . S
Cd88 O87 2.203 . S
Cd88 O90 2.411 . S
Cd88 O91 2.333 . S
Cd88 O92 2.352 . S
Cd88 O96 2.277 . S
Cd88 O97 2.356 . S
C89 O94 1.209 . S
C89 O96 1.226 . S
O90 Cd86 2.273 . S
O90 Cd88 2.411 . S
O90 C93 1.320 . S
O91 Cd88 2.333 . S
O91 C93 1.214 . S
O92 Cd88 2.352 . S
O92 C95 1.258 . S
C93 O90 1.320 . S
C93 O91 1.214 . S
O94 Cd86 2.277 . S
O94 C89 1.209 . S
C95 O92 1.258 . S
C95 O97 1.282 . S
O96 Cd88 2.277 . S
O96 C89 1.226 . S
O97 Cd88 2.356 . S
O97 C95 1.282 . S
C98 O99 1.306 . S
C98 O101 1.160 . S
O99 C98 1.306 . S
O99 Cd100 2.228 . S
Cd100 O99 2.228 . S
Cd100 O104 2.273 . S
Cd100 O108 2.277 . S
O101 C98 1.160 . S
O101 Cd102 2.203 . S
Cd102 O101 2.203 . S
Cd102 O104 2.411 . S
Cd102 O105 2.333 . S
Cd102 O106 2.352 . S
Cd102 O110 2.277 . S
Cd102 O111 2.356 . S
C103 O108 1.209 . S
C103 O110 1.226 . S
O104 Cd100 2.273 . S
O104 Cd102 2.411 . S
O104 C107 1.320 . S
O105 Cd102 2.333 . S
O105 C107 1.214 . S
O106 Cd102 2.352 . S
O106 C109 1.258 . S
C107 O104 1.320 . S
C107 O105 1.214 . S
O108 Cd100 2.277 . S
O108 C103 1.209 . S
C109 O106 1.258 . S
C109 O111 1.282 . S
O110 Cd102 2.277 . S
O110 C103 1.226 . S
O111 Cd102 2.356 . S
O111 C109 1.282 . S
C112 O113 1.306 . S
C112 O115 1.160 . S
O113 C112 1.306 . S
O113 Cd114 2.228 . S
Cd114 O113 2.228 . S
Cd114 O118 2.273 . S
Cd114 O122 2.277 . S
O115 C112 1.160 . S
O115 Cd116 2.203 . S
Cd116 O115 2.203 . S
Cd116 O118 2.411 . S
Cd116 O119 2.333 1_655 S
Cd116 O120 2.352 . S
Cd116 O124 2.277 1_655 S
Cd116 O125 2.356 1_655 S
C117 O122 1.209 . S
C117 O124 1.226 1_655 S
O118 Cd114 2.273 . S
O118 Cd116 2.411 . S
O118 C121 1.312 1_655 S
O119 Cd116 2.333 1_455 S
O119 C121 1.219 . S
O120 Cd116 2.352 . S
O120 C123 1.258 . S
C121 O118 1.312 1_455 S
C121 O119 1.219 . S
O122 Cd114 2.277 . S
O122 C117 1.209 . S
C123 O120 1.258 . S
C123 O125 1.282 1_655 S
O124 Cd116 2.277 1_455 S
O124 C117 1.226 1_455 S
O125 Cd116 2.356 1_455 S
O125 C123 1.282 1_455 S
C126 O127 1.306 . S
C126 O129 1.160 . S
O127 C126 1.306 . S
O127 Cd128 2.228 . S
Cd128 O127 2.228 . S
Cd128 O132 2.273 . S
Cd128 O136 2.277 . S
O129 C126 1.160 . S
O129 Cd130 2.203 . S
Cd130 O129 2.203 . S
Cd130 O132 2.411 . S
Cd130 O133 2.333 1_565 S
Cd130 O134 2.352 . S
Cd130 O138 2.277 1_565 S
Cd130 O139 2.356 1_565 S
C131 O136 1.209 . S
C131 O138 1.226 1_565 S
O132 Cd128 2.273 . S
O132 Cd130 2.411 . S
O132 C135 1.313 1_565 S
O133 Cd130 2.333 1_545 S
O133 C135 1.219 . S
O134 Cd130 2.352 . S
O134 C137 1.258 . S
C135 O132 1.313 1_545 S
C135 O133 1.219 . S
O136 Cd128 2.277 . S
O136 C131 1.209 . S
C137 O134 1.258 . S
C137 O139 1.282 1_565 S
O138 Cd130 2.277 1_545 S
O138 C131 1.226 1_545 S
O139 Cd130 2.356 1_545 S
O139 C137 1.282 1_545 S
C140 O141 1.306 . S
C140 O143 1.160 . S
O141 C140 1.306 . S
O141 Cd142 2.228 . S
Cd142 O141 2.228 . S
Cd142 O146 2.273 . S
Cd142 O150 2.277 . S
O143 C140 1.160 . S
O143 Cd144 2.203 . S
Cd144 O143 2.203 . S
Cd144 O146 2.411 . S
Cd144 O147 2.333 . S
Cd144 O148 2.352 . S
Cd144 O152 2.277 . S
Cd144 O153 2.356 . S
C145 O150 1.209 . S
C145 O152 1.226 . S
O146 Cd142 2.273 . S
O146 Cd144 2.411 . S
O146 C149 1.320 . S
O147 Cd144 2.333 . S
O147 C149 1.214 . S
O148 Cd144 2.352 . S
O148 C151 1.258 . S
C149 O146 1.320 . S
C149 O147 1.214 . S
O150 Cd142 2.277 . S
O150 C145 1.209 . S
C151 O148 1.258 . S
C151 O153 1.282 . S
O152 Cd144 2.277 . S
O152 C145 1.226 . S
O153 Cd144 2.356 . S
O153 C151 1.282 . S
C154 O155 1.306 . S
C154 O157 1.160 . S
O155 C154 1.306 . S
O155 Cd156 2.228 . S
Cd156 O155 2.228 . S
Cd156 O160 2.273 . S
Cd156 O164 2.277 . S
O157 C154 1.160 . S
O157 Cd158 2.203 . S
Cd158 O157 2.203 . S
Cd158 O160 2.411 . S
Cd158 O161 2.333 . S
Cd158 O162 2.352 . S
Cd158 O166 2.277 . S
Cd158 O167 2.356 . S
C159 O164 1.209 . S
C159 O166 1.226 . S
O160 Cd156 2.273 . S
O160 Cd158 2.411 . S
O160 C163 1.320 . S
O161 Cd158 2.333 . S
O161 C163 1.214 . S
O162 Cd158 2.352 . S
O162 C165 1.258 . S
C163 O160 1.320 . S
C163 O161 1.214 . S
O164 Cd156 2.277 . S
O164 C159 1.209 . S
C165 O162 1.258 . S
C165 O167 1.282 . S
O166 Cd158 2.277 . S
O166 C159 1.226 . S
O167 Cd158 2.356 . S
O167 C165 1.282 . S
C168 O169 1.306 . S
C168 O171 1.160 . S
O169 C168 1.306 . S
O169 Cd170 2.228 . S
Cd170 O169 2.228 . S
Cd170 O174 2.273 . S
Cd170 O178 2.277 . S
O171 C168 1.160 . S
O171 Cd172 2.203 . S
Cd172 O171 2.203 . S
Cd172 O174 2.411 . S
Cd172 O175 2.333 1_655 S
Cd172 O176 2.352 . S
Cd172 O180 2.277 1_655 S
Cd172 O181 2.356 1_655 S
C173 O178 1.209 . S
C173 O180 1.226 1_655 S
O174 Cd170 2.273 . S
O174 Cd172 2.411 . S
O174 C177 1.313 1_655 S
O175 Cd172 2.333 1_455 S
O175 C177 1.219 . S
O176 Cd172 2.352 . S
O176 C179 1.258 . S
C177 O174 1.313 1_455 S
C177 O175 1.219 . S
O178 Cd170 2.277 . S
O178 C173 1.209 . S
C179 O176 1.258 . S
C179 O181 1.282 1_655 S
O180 Cd172 2.277 1_455 S
O180 C173 1.226 1_455 S
O181 Cd172 2.356 1_455 S
O181 C179 1.282 1_455 S
C182 O183 1.306 . S
C182 O185 1.160 . S
O183 C182 1.306 . S
O183 Cd184 2.228 . S
Cd184 O183 2.228 . S
Cd184 O188 2.273 . S
Cd184 O192 2.277 . S
O185 C182 1.160 . S
O185 Cd186 2.203 . S
Cd186 O185 2.203 . S
Cd186 O188 2.411 . S
Cd186 O189 2.333 1_565 S
Cd186 O190 2.352 . S
Cd186 O194 2.277 1_565 S
Cd186 O195 2.356 1_565 S
C187 O192 1.209 . S
C187 O194 1.226 1_565 S
O188 Cd184 2.273 . S
O188 Cd186 2.411 . S
O188 C191 1.312 1_565 S
O189 Cd186 2.333 1_545 S
O189 C191 1.219 . S
O190 Cd186 2.352 . S
O190 C193 1.258 . S
C191 O188 1.312 1_545 S
C191 O189 1.219 . S
O192 Cd184 2.277 . S
O192 C187 1.209 . S
C193 O190 1.258 . S
C193 O195 1.282 1_565 S
O194 Cd186 2.277 1_545 S
O194 C187 1.226 1_545 S
O195 Cd186 2.356 1_545 S
O195 C193 1.282 1_545 S
C196 O197 1.306 . S
C196 O199 1.160 . S
O197 C196 1.306 . S
O197 Cd198 2.228 . S
Cd198 O197 2.228 . S
Cd198 O202 2.273 . S
Cd198 O206 2.277 . S
O199 C196 1.160 . S
O199 Cd200 2.203 . S
Cd200 O199 2.203 . S
Cd200 O202 2.411 . S
Cd200 O203 2.333 . S
Cd200 O204 2.352 . S
Cd200 O208 2.277 . S
Cd200 O209 2.356 . S
C201 O206 1.209 . S
C201 O208 1.226 . S
O202 Cd198 2.273 . S
O202 Cd200 2.411 . S
O202 C205 1.320 . S
O203 Cd200 2.333 . S
O203 C205 1.214 . S
O204 Cd200 2.352 . S
O204 C207 1.258 . S
C205 O202 1.320 . S
C205 O203 1.214 . S
O206 Cd198 2.277 . S
O206 C201 1.209 . S
C207 O204 1.258 . S
C207 O209 1.282 . S
O208 Cd200 2.277 . S
O208 C201 1.226 . S
O209 Cd200 2.356 . S
O209 C207 1.282 . S
C210 O211 1.306 . S
C210 O213 1.160 . S
O211 C210 1.306 . S
O211 Cd212 2.228 . S
Cd212 O211 2.228 . S
Cd212 O216 2.273 . S
Cd212 O220 2.277 . S
O213 C210 1.160 . S
O213 Cd214 2.203 . S
Cd214 O213 2.203 . S
Cd214 O216 2.411 . S
Cd214 O217 2.333 . S
Cd214 O218 2.352 . S
Cd214 O222 2.277 . S
Cd214 O223 2.356 . S
C215 O220 1.209 . S
C215 O222 1.226 . S
O216 Cd212 2.273 . S
O216 Cd214 2.411 . S
O216 C219 1.320 . S
O217 Cd214 2.333 . S
O217 C219 1.214 . S
O218 Cd214 2.352 . S
O218 C221 1.258 . S
C219 O216 1.320 . S
C219 O217 1.214 . S
O220 Cd212 2.277 . S
O220 C215 1.209 . S
C221 O218 1.258 . S
C221 O223 1.282 . S
O222 Cd214 2.277 . S
O222 C215 1.226 . S
O223 Cd214 2.356 . S
O223 C221 1.282 . S
C224 C225 1.369 . S
C224 C226 1.419 . S
C224 H228 0.930 . S
C225 C224 1.369 . S
C225 C234 1.429 . S
C226 C224 1.419 . S
C226 C227 1.363 . S
C226 H229 0.929 . S
C227 C226 1.363 . S
C227 C233 1.428 . S
H228 C224 0.930 . S
H229 C226 0.929 . S
S230 N231 1.613 . S
S230 N232 1.610 . S
N231 S230 1.613 . S
N231 C234 1.350 . S
N232 S230 1.610 . S
N232 C233 1.351 . S
C233 C227 1.428 . S
C233 N232 1.351 . S
C233 C234 1.434 . S
C234 C225 1.429 . S
C234 N231 1.350 . S
C234 C233 1.434 . S
C235 C236 1.369 . S
C235 C237 1.419 . S
C235 H239 0.930 . S
C236 C235 1.369 . S
C236 C245 1.429 . S
C237 C235 1.419 . S
C237 C238 1.363 . S
C237 H240 0.929 . S
C238 C237 1.363 . S
C238 C244 1.428 . S
H239 C235 0.930 . S
H240 C237 0.929 . S
S241 N242 1.613 . S
S241 N243 1.610 . S
N242 S241 1.613 . S
N242 C245 1.350 . S
N243 S241 1.610 . S
N243 C244 1.351 . S
C244 C238 1.428 . S
C244 N243 1.351 . S
C244 C245 1.434 . S
C245 C236 1.429 . S
C245 N242 1.350 . S
C245 C244 1.434 . S
C246 C247 1.369 . S
C246 C248 1.419 . S
C246 H250 0.930 . S
C247 C246 1.369 . S
C247 C256 1.429 . S
C248 C246 1.419 . S
C248 C249 1.363 . S
C248 H251 0.929 . S
C249 C248 1.363 . S
C249 C255 1.428 . S
H250 C246 0.930 . S
H251 C248 0.929 . S
S252 N253 1.613 . S
S252 N254 1.610 . S
N253 S252 1.613 . S
N253 C256 1.350 . S
N254 S252 1.610 . S
N254 C255 1.351 . S
C255 C249 1.428 . S
C255 N254 1.351 . S
C255 C256 1.434 . S
C256 C247 1.429 . S
C256 N253 1.350 . S
C256 C255 1.434 . S
C257 C258 1.369 . S
C257 C259 1.419 . S
C257 H261 0.930 . S
C258 C257 1.369 . S
C258 C267 1.429 . S
C259 C257 1.419 . S
C259 C260 1.363 . S
C259 H262 0.929 . S
C260 C259 1.363 . S
C260 C266 1.428 . S
H261 C257 0.930 . S
H262 C259 0.929 . S
S263 N264 1.613 . S
S263 N265 1.610 . S
N264 S263 1.613 . S
N264 C267 1.350 . S
N265 S263 1.610 . S
N265 C266 1.351 . S
C266 C260 1.428 . S
C266 N265 1.351 . S
C266 C267 1.434 . S
C267 C258 1.429 . S
C267 N264 1.350 . S
C267 C266 1.434 . S
C268 C269 1.369 . S
C268 C270 1.419 . S
C268 H272 0.930 . S
C269 C268 1.369 . S
C269 C278 1.429 . S
C270 C268 1.419 . S
C270 C271 1.363 . S
C270 H273 0.929 . S
C271 C270 1.363 . S
C271 C277 1.428 . S
H272 C268 0.930 . S
H273 C270 0.929 . S
S274 N275 1.613 . S
S274 N276 1.610 . S
N275 S274 1.613 . S
N275 C278 1.350 . S
N276 S274 1.610 . S
N276 C277 1.351 . S
C277 C271 1.428 . S
C277 N276 1.351 . S
C277 C278 1.434 . S
C278 C269 1.429 . S
C278 N275 1.350 . S
C278 C277 1.434 . S
C279 C280 1.369 . S
C279 C281 1.419 . S
C279 H283 0.930 . S
C280 C279 1.369 . S
C280 C289 1.429 . S
C281 C279 1.419 . S
C281 C282 1.363 . S
C281 H284 0.929 . S
C282 C281 1.363 . S
C282 C288 1.428 . S
H283 C279 0.930 . S
H284 C281 0.929 . S
S285 N286 1.613 . S
S285 N287 1.610 . S
N286 S285 1.613 . S
N286 C289 1.350 . S
N287 S285 1.610 . S
N287 C288 1.351 . S
C288 C282 1.428 . S
C288 N287 1.351 . S
C288 C289 1.434 . S
C289 C280 1.429 . S
C289 N286 1.350 . S
C289 C288 1.434 . S
C290 C291 1.369 . S
C290 C292 1.419 . S
C290 H294 0.930 . S
C291 C290 1.369 . S
C291 C300 1.429 . S
C292 C290 1.419 . S
C292 C293 1.363 . S
C292 H295 0.929 . S
C293 C292 1.363 . S
C293 C299 1.428 . S
H294 C290 0.930 . S
H295 C292 0.929 . S
S296 N297 1.613 . S
S296 N298 1.610 . S
N297 S296 1.613 . S
N297 C300 1.350 . S
N298 S296 1.610 . S
N298 C299 1.351 . S
C299 C293 1.428 . S
C299 N298 1.351 . S
C299 C300 1.434 . S
C300 C291 1.429 . S
C300 N297 1.350 . S
C300 C299 1.434 . S
C301 C302 1.369 . S
C301 C303 1.419 . S
C301 H305 0.930 . S
C302 C301 1.369 . S
C302 C311 1.429 . S
C303 C301 1.419 . S
C303 C304 1.363 . S
C303 H306 0.929 . S
C304 C303 1.363 . S
C304 C310 1.428 . S
H305 C301 0.930 . S
H306 C303 0.929 . S
S307 N308 1.613 . S
S307 N309 1.610 . S
N308 S307 1.613 . S
N308 C311 1.350 . S
N309 S307 1.610 . S
N309 C310 1.351 . S
C310 C304 1.428 . S
C310 N309 1.351 . S
C310 C311 1.434 . S
C311 C302 1.429 . S
C311 N308 1.350 . S
C311 C310 1.434 . S
C312 C313 1.369 . S
C312 C314 1.419 . S
C312 H316 0.930 . S
C313 C312 1.369 . S
C313 C322 1.429 . S
C314 C312 1.419 . S
C314 C315 1.363 . S
C314 H317 0.929 . S
C315 C314 1.363 . S
C315 C321 1.428 . S
H316 C312 0.930 . S
H317 C314 0.929 . S
S318 N319 1.613 . S
S318 N320 1.610 . S
N319 S318 1.613 . S
N319 C322 1.350 . S
N320 S318 1.610 . S
N320 C321 1.351 . S
C321 C315 1.428 . S
C321 N320 1.351 . S
C321 C322 1.434 . S
C322 C313 1.429 . S
C322 N319 1.350 . S
C322 C321 1.434 . S
C323 C324 1.369 . S
C323 C325 1.419 1_655 S
C323 H327 0.930 1_655 S
C324 C323 1.369 . S
C324 C333 1.429 . S
C325 C323 1.419 1_455 S
C325 C326 1.363 1_455 S
C325 H328 0.929 . S
C326 C325 1.363 1_655 S
C326 C332 1.428 . S
H327 C323 0.930 1_455 S
H328 C325 0.929 . S
S329 N330 1.613 1_565 S
S329 N331 1.610 . S
N330 S329 1.613 1_545 S
N330 C333 1.350 1_545 S
N331 S329 1.610 . S
N331 C332 1.351 . S
C332 C326 1.428 . S
C332 N331 1.351 . S
C332 C333 1.434 . S
C333 C324 1.429 . S
C333 N330 1.350 1_565 S
C333 C332 1.434 . S
C334 C335 1.369 . S
C334 C336 1.419 . S
C334 H338 0.930 . S
C335 C334 1.369 . S
C335 C344 1.429 1_565 S
C336 C334 1.419 . S
C336 C337 1.363 . S
C336 H339 0.929 . S
C337 C336 1.363 . S
C337 C343 1.428 . S
H338 C334 0.930 . S
H339 C336 0.929 . S
S340 N341 1.613 . S
S340 N342 1.610 . S
N341 S340 1.613 . S
N341 C344 1.350 . S
N342 S340 1.610 . S
N342 C343 1.351 1_545 S
C343 C337 1.428 . S
C343 N342 1.351 1_565 S
C343 C344 1.434 1_565 S
C344 C335 1.429 1_545 S
C344 N341 1.350 . S
C344 C343 1.434 1_545 S
C345 C346 1.369 . S
C345 C347 1.419 . S
C345 H349 0.930 . S
C346 C345 1.369 . S
C346 C355 1.429 . S
C347 C345 1.419 . S
C347 C348 1.363 . S
C347 H350 0.929 . S
C348 C347 1.363 . S
C348 C354 1.428 . S
H349 C345 0.930 . S
H350 C347 0.929 . S
S351 N352 1.613 . S
S351 N353 1.610 . S
N352 S351 1.613 . S
N352 C355 1.350 . S
N353 S351 1.610 . S
N353 C354 1.351 . S
C354 C348 1.428 . S
C354 N353 1.351 . S
C354 C355 1.434 . S
C355 C346 1.429 . S
C355 N352 1.350 . S
C355 C354 1.434 . S
C356 C357 1.369 . S
C356 C358 1.419 1_455 S
C356 H360 0.930 1_455 S
C357 C356 1.369 . S
C357 C366 1.429 . S
C358 C356 1.419 1_655 S
C358 C359 1.363 1_655 S
C358 H361 0.929 . S
C359 C358 1.363 1_455 S
C359 C365 1.428 . S
H360 C356 0.930 1_655 S
H361 C358 0.929 . S
S362 N363 1.613 . S
S362 N364 1.610 . S
N363 S362 1.613 . S
N363 C366 1.350 . S
N364 S362 1.610 . S
N364 C365 1.351 . S
C365 C359 1.428 . S
C365 N364 1.351 . S
C365 C366 1.434 . S
C366 C357 1.429 . S
C366 N363 1.350 . S
C366 C365 1.434 . S
C367 C368 1.369 . S
C367 C369 1.419 . S
C367 H371 0.930 . S
C368 C367 1.369 . S
C368 C377 1.429 1_545 S
C369 C367 1.419 . S
C369 C370 1.363 . S
C369 H372 0.929 1_455 S
C370 C369 1.363 . S
C370 C376 1.428 . S
H371 C367 0.930 . S
H372 C369 0.929 1_655 S
S373 N374 1.613 . S
S373 N375 1.610 . S
N374 S373 1.613 . S
N374 C377 1.350 . S
N375 S373 1.610 . S
N375 C376 1.351 1_565 S
C376 C370 1.428 . S
C376 N375 1.351 1_545 S
C376 C377 1.434 1_545 S
C377 C368 1.429 1_565 S
C377 N374 1.350 . S
C377 C376 1.434 1_565 S
C378 C379 1.369 . S
C378 C380 1.419 . S
C378 H382 0.930 . S
C379 C378 1.369 . S
C379 C388 1.429 . S
C380 C378 1.419 . S
C380 C381 1.363 . S
C380 H383 0.929 . S
C381 C380 1.363 . S
C381 C387 1.428 . S
H382 C378 0.930 . S
H383 C380 0.929 . S
S384 N385 1.613 1_565 S
S384 N386 1.610 . S
N385 S384 1.613 1_545 S
N385 C388 1.350 . S
N386 S384 1.610 . S
N386 C387 1.351 1_565 S
C387 C381 1.428 . S
C387 N386 1.351 1_545 S
C387 C388 1.434 . S
C388 C379 1.429 . S
C388 N385 1.350 . S
C388 C387 1.434 . S
C389 C390 1.369 . S
C389 C391 1.419 . S
C389 H393 0.930 . S
C390 C389 1.369 . S
C390 C399 1.429 . S
C391 C389 1.419 . S
C391 C392 1.363 . S
C391 H394 0.929 . S
C392 C391 1.363 . S
C392 C398 1.428 . S
H393 C389 0.930 . S
H394 C391 0.929 . S
S395 N396 1.613 . S
S395 N397 1.610 . S
N396 S395 1.613 . S
N396 C399 1.350 . S
N397 S395 1.610 . S
N397 C398 1.351 . S
C398 C392 1.428 . S
C398 N397 1.351 . S
C398 C399 1.434 . S
C399 C390 1.429 . S
C399 N396 1.350 . S
C399 C398 1.434 . S
C400 C401 1.369 . S
C400 C402 1.419 . S
C400 H404 0.930 . S
C401 C400 1.369 . S
C401 C410 1.429 1_455 S
C402 C400 1.419 . S
C402 C403 1.363 . S
C402 H405 0.929 . S
C403 C402 1.363 . S
C403 C409 1.428 1_455 S
H404 C400 0.930 . S
H405 C402 0.929 . S
S406 N407 1.613 . S
S406 N408 1.610 . S
N407 S406 1.613 . S
N407 C410 1.350 . S
N408 S406 1.610 . S
N408 C409 1.351 . S
C409 C403 1.428 1_655 S
C409 N408 1.351 . S
C409 C410 1.434 . S
C410 C401 1.429 1_655 S
C410 N407 1.350 . S
C410 C409 1.434 . S
C411 C412 1.369 1_565 S
C411 C413 1.419 . S
C411 H415 0.930 . S
C412 C411 1.369 1_545 S
C412 C421 1.429 . S
C413 C411 1.419 . S
C413 C414 1.363 1_565 S
C413 H416 0.929 . S
C414 C413 1.363 1_545 S
C414 C420 1.428 . S
H415 C411 0.930 . S
H416 C413 0.929 . S
S417 N418 1.613 . S
S417 N419 1.610 . S
N418 S417 1.613 . S
N418 C421 1.350 . S
N419 S417 1.610 . S
N419 C420 1.351 . S
C420 C414 1.428 . S
C420 N419 1.351 . S
C420 C421 1.434 . S
C421 C412 1.429 . S
C421 N418 1.350 . S
C421 C420 1.434 . S
C422 C423 1.369 . S
C422 C424 1.419 . S
C422 H426 0.930 . S
C423 C422 1.369 . S
C423 C432 1.429 . S
C424 C422 1.419 . S
C424 C425 1.363 . S
C424 H427 0.929 . S
C425 C424 1.363 . S
C425 C431 1.428 . S
H426 C422 0.930 . S
H427 C424 0.929 . S
S428 N429 1.613 . S
S428 N430 1.610 . S
N429 S428 1.613 . S
N429 C432 1.350 . S
N430 S428 1.610 . S
N430 C431 1.351 . S
C431 C425 1.428 . S
C431 N430 1.351 . S
C431 C432 1.434 . S
C432 C423 1.429 . S
C432 N429 1.350 . S
C432 C431 1.434 . S
C433 C434 1.369 . S
C433 C435 1.419 . S
C433 H437 0.930 . S
C434 C433 1.369 . S
C434 C443 1.429 . S
C435 C433 1.419 . S
C435 C436 1.363 . S
C435 H438 0.929 . S
C436 C435 1.363 . S
C436 C442 1.428 . S
H437 C433 0.930 . S
H438 C435 0.929 . S
S439 N440 1.613 . S
S439 N441 1.610 . S
N440 S439 1.613 . S
N440 C443 1.350 . S
N441 S439 1.610 . S
N441 C442 1.351 . S
C442 C436 1.428 . S
C442 N441 1.351 . S
C442 C443 1.434 . S
C443 C434 1.429 . S
C443 N440 1.350 . S
C443 C442 1.434 . S
C444 C445 1.369 1_455 S
C444 C446 1.419 . S
C444 H448 0.930 . S
C445 C444 1.369 1_655 S
C445 C454 1.429 . S
C446 C444 1.419 . S
C446 C447 1.363 1_455 S
C446 H449 0.929 . S
C447 C446 1.363 1_655 S
C447 C453 1.428 . S
H448 C444 0.930 . S
H449 C446 0.929 . S
S450 N451 1.613 . S
S450 N452 1.610 . S
N451 S450 1.613 . S
N451 C454 1.350 . S
N452 S450 1.610 . S
N452 C453 1.351 . S
C453 C447 1.428 . S
C453 N452 1.351 . S
C453 C454 1.434 . S
C454 C445 1.429 . S
C454 N451 1.350 . S
C454 C453 1.434 . S
C455 C456 1.369 . S
C455 C457 1.419 . S
C455 H459 0.930 . S
C456 C455 1.369 . S
C456 C465 1.429 1_565 S
C457 C455 1.419 . S
C457 C458 1.363 . S
C457 H460 0.929 . S
C458 C457 1.363 . S
C458 C464 1.428 1_565 S
H459 C455 0.930 . S
H460 C457 0.929 . S
S461 N462 1.613 . S
S461 N463 1.610 . S
N462 S461 1.613 . S
N462 C465 1.350 . S
N463 S461 1.610 . S
N463 C464 1.351 . S
C464 C458 1.428 1_545 S
C464 N463 1.351 . S
C464 C465 1.434 . S
C465 C456 1.429 1_545 S
C465 N462 1.350 . S
C465 C464 1.434 . S
C466 C467 1.369 . S
C466 C468 1.419 . S
C466 H470 0.930 . S
C467 C466 1.369 . S
C467 C476 1.429 . S
C468 C466 1.419 . S
C468 C469 1.363 . S
C468 H471 0.929 . S
C469 C468 1.363 . S
C469 C475 1.428 . S
H470 C466 0.930 . S
H471 C468 0.929 . S
S472 N473 1.613 . S
S472 N474 1.610 . S
N473 S472 1.613 . S
N473 C476 1.350 . S
N474 S472 1.610 . S
N474 C475 1.351 . S
C475 C469 1.428 . S
C475 N474 1.351 . S
C475 C476 1.434 . S
C476 C467 1.429 . S
C476 N473 1.350 . S
C476 C475 1.434 . S
C477 C478 1.369 . S
C477 C479 1.419 . S
C477 H481 0.930 . S
C478 C477 1.369 . S
C478 C487 1.429 . S
C479 C477 1.419 . S
C479 C480 1.363 . S
C479 H482 0.929 . S
C480 C479 1.363 . S
C480 C486 1.428 . S
H481 C477 0.930 . S
H482 C479 0.929 . S
S483 N484 1.613 . S
S483 N485 1.610 . S
N484 S483 1.613 . S
N484 C487 1.350 . S
N485 S483 1.610 . S
N485 C486 1.351 . S
C486 C480 1.428 . S
C486 N485 1.351 . S
C486 C487 1.434 . S
C487 C478 1.429 . S
C487 N484 1.350 . S
C487 C486 1.434 . S
C488 C489 1.359 1_455 S
C488 C490 1.419 . S
C488 H492 0.930 . S
C489 C488 1.359 1_655 S
C489 C498 1.439 1_554 S
C490 C488 1.419 . S
C490 C491 1.355 1_454 S
C490 H493 0.929 . S
C491 C490 1.355 1_656 S
C491 C497 1.436 . S
H492 C488 0.930 . S
H493 C490 0.929 . S
S494 N495 1.613 . S
S494 N496 1.610 . S
N495 S494 1.613 . S
N495 C498 1.350 . S
N496 S494 1.610 . S
N496 C497 1.351 . S
C497 C491 1.436 . S
C497 N496 1.351 . S
C497 C498 1.434 . S
C498 C489 1.439 1_556 S
C498 N495 1.350 . S
C498 C497 1.434 . S
C499 C500 1.369 1_544 S
C499 C501 1.419 1_455 S
C499 H503 0.930 . S
C500 C499 1.369 1_566 S
C500 C509 1.428 . S
C501 C499 1.419 1_655 S
C501 C502 1.364 1_545 S
C501 H504 0.929 . S
C502 C501 1.364 1_565 S
C502 C508 1.428 1_554 S
H503 C499 0.930 . S
H504 C501 0.929 . S
S505 N506 1.613 1_655 S
S505 N507 1.610 . S
N506 S505 1.613 1_455 S
N506 C509 1.350 . S
N507 S505 1.610 . S
N507 C508 1.351 . S
C508 C502 1.428 1_556 S
C508 N507 1.351 . S
C508 C509 1.434 1_655 S
C509 C500 1.428 . S
C509 N506 1.350 . S
C509 C508 1.434 1_455 S
C510 C511 1.369 . S
C510 C512 1.419 1_565 S
C510 H514 0.930 . S
C511 C510 1.369 . S
C511 C520 1.429 1_554 S
C512 C510 1.419 1_545 S
C512 C513 1.363 1_554 S
C512 H515 0.929 . S
C513 C512 1.363 1_556 S
C513 C519 1.428 . S
H514 C510 0.930 . S
H515 C512 0.929 . S
S516 N517 1.613 . S
S516 N518 1.610 1_565 S
N517 S516 1.613 . S
N517 C520 1.350 . S
N518 S516 1.610 1_545 S
N518 C519 1.351 . S
C519 C513 1.428 . S
C519 N518 1.351 . S
C519 C520 1.434 1_545 S
C520 C511 1.429 1_556 S
C520 N517 1.350 . S
C520 C519 1.434 1_565 S
C521 C522 1.369 . S
C521 C523 1.419 . S
C521 H525 0.930 . S
C522 C521 1.369 . S
C522 C531 1.429 1_556 S
C523 C521 1.419 . S
C523 C524 1.363 1_556 S
C523 H526 0.929 . S
C524 C523 1.363 1_554 S
C524 C530 1.428 . S
H525 C521 0.930 . S
H526 C523 0.929 . S
S527 N528 1.613 . S
S527 N529 1.610 . S
N528 S527 1.613 . S
N528 C531 1.350 . S
N529 S527 1.610 . S
N529 C530 1.351 . S
C530 C524 1.428 . S
C530 N529 1.351 . S
C530 C531 1.434 . S
C531 C522 1.429 1_554 S
C531 N528 1.350 . S
C531 C530 1.434 . S
C532 C533 1.363 1_455 S
C532 C534 1.419 1_565 S
C532 H536 0.930 . S
C533 C532 1.363 1_655 S
C533 C542 1.435 . S
C534 C532 1.419 1_545 S
C534 C535 1.357 1_455 S
C534 H537 0.929 . S
C535 C534 1.357 1_655 S
C535 C541 1.435 . S
H536 C532 0.930 . S
H537 C534 0.929 . S
S538 N539 1.613 1_545 S
S538 N540 1.610 . S
N539 S538 1.613 1_565 S
N539 C542 1.350 . S
N540 S538 1.610 . S
N540 C541 1.351 . S
C541 C535 1.435 . S
C541 N540 1.351 . S
C541 C542 1.434 1_545 S
C542 C533 1.435 . S
C542 N539 1.350 . S
C542 C541 1.434 1_565 S
C543 C544 1.360 1_545 S
C543 C545 1.419 . S
C543 H547 0.930 . S
C544 C543 1.360 1_565 S
C544 C553 1.438 . S
C545 C543 1.419 . S
C545 C546 1.356 1_545 S
C545 H548 0.929 . S
C546 C545 1.356 1_565 S
C546 C552 1.436 . S
H547 C543 0.930 . S
H548 C545 0.929 . S
S549 N550 1.613 . S
S549 N551 1.610 . S
N550 S549 1.613 . S
N550 C553 1.350 . S
N551 S549 1.610 . S
N551 C552 1.351 . S
C552 C546 1.436 . S
C552 N551 1.351 . S
C552 C553 1.434 . S
C553 C544 1.438 . S
C553 N550 1.350 . S
C553 C552 1.434 . S
C554 C555 1.369 . S
C554 C556 1.419 . S
C554 H558 0.930 . S
C555 C554 1.369 . S
C555 C564 1.429 . S
C556 C554 1.419 . S
C556 C557 1.363 . S
C556 H559 0.929 . S
C557 C556 1.363 . S
C557 C563 1.428 . S
H558 C554 0.930 . S
H559 C556 0.929 . S
S560 N561 1.613 . S
S560 N562 1.610 . S
N561 S560 1.613 . S
N561 C564 1.350 . S
N562 S560 1.610 . S
N562 C563 1.351 . S
C563 C557 1.428 . S
C563 N562 1.351 . S
C563 C564 1.434 . S
C564 C555 1.429 . S
C564 N561 1.350 . S
C564 C563 1.434 . S
C565 C566 1.369 . S
C565 C567 1.419 1_655 S
C565 H569 0.930 . S
C566 C565 1.369 . S
C566 C575 1.429 . S
C567 C565 1.419 1_455 S
C567 C568 1.363 . S
C567 H570 0.929 . S
C568 C567 1.363 . S
C568 C574 1.428 . S
H569 C565 0.930 . S
H570 C567 0.929 . S
S571 N572 1.613 . S
S571 N573 1.610 1_655 S
N572 S571 1.613 . S
N572 C575 1.350 . S
N573 S571 1.610 1_455 S
N573 C574 1.351 . S
C574 C568 1.428 . S
C574 N573 1.351 . S
C574 C575 1.434 1_455 S
C575 C566 1.429 . S
C575 N572 1.350 . S
C575 C574 1.434 1_655 S
C225 C0 1.627 . S
C227 C28 1.631 . S
C236 C14 1.628 . S
C238 C42 1.634 . S
C247 C56 1.635 . S
C249 C84 1.632 . S
C258 C98 1.634 . S
C260 C70 1.633 . S
C269 C112 1.633 . S
C271 C140 1.628 . S
C280 C154 1.629 . S
C282 C126 1.629 . S
C291 C196 1.627 . S
C293 C168 1.633 . S
C302 C210 1.635 . S
C304 C182 1.629 . S
C313 C107 1.341 . S
C315 C9 1.345 . S
C324 C23 1.340 . S
C326 C65 1.343 . S
C335 C79 1.346 . S
C337 C37 1.342 . S
C346 C51 1.339 . S
C348 C93 1.337 . S
C357 C219 1.337 . S
C359 C121 1.341 . S
C368 C135 1.340 . S
C370 C177 1.344 . S
C379 C149 1.343 . S
C381 C191 1.342 . S
C390 C205 1.339 . S
C392 C163 1.337 . S
C401 C5 1.239 . S
C403 C61 1.228 . S
C412 C19 1.222 . S
C414 C75 1.232 . S
C423 C89 1.230 . S
C425 C33 1.226 . S
C434 C47 1.237 . S
C436 C103 1.222 . S
C445 C173 1.239 . S
C447 C117 1.222 . S
C456 C187 1.228 . S
C458 C131 1.235 . S
C467 C145 1.231 . S
C469 C201 1.226 . S
C478 C159 1.241 . S
C480 C215 1.223 . S
C489 C11 1.829 1_655 S
C491 C123 1.827 . S
C500 C137 1.823 . S
C502 C25 1.832 1_565 S
C511 C39 1.833 . S
C513 C151 1.824 . S
C522 C165 1.826 . S
C524 C53 1.829 . S
C533 C67 1.824 1_655 S
C535 C179 1.830 . S
C544 C81 1.829 1_565 S
C546 C193 1.827 . S
C555 C207 1.823 . S
C557 C95 1.832 . S
C566 C109 1.833 . S
C568 C221 1.824 . S
