# Generated by pormake.
# Topology whz, (6)-cn, num edge types: 1
# Building blocks:
#     Node 0, Type 0, BuildingBlock: PAMTOO_clean_sbu_0, # of connection points: 6
#     Node 1, Type 0, BuildingBlock: PAMTOO_clean_sbu_0, # of connection points: 6
#     Node 2, Type 0, BuildingBlock: PAMTOO_clean_sbu_0, # of connection points: 6
#     Node 3, Type 0, BuildingBlock: PAMTOO_clean_sbu_0, # of connection points: 6
#     Node 4, Type 0, BuildingBlock: PAMTOO_clean_sbu_0, # of connection points: 6
#     Node 5, Type 0, BuildingBlock: PAMTOO_clean_sbu_0, # of connection points: 6
#     Node 6, Type 0, BuildingBlock: PAMTOO_clean_sbu_0, # of connection points: 6
#     Node 7, Type 0, BuildingBlock: PAMTOO_clean_sbu_0, # of connection points: 6
#     Node 8, Type 0, BuildingBlock: PAMTOO_clean_sbu_0, # of connection points: 6
#     Node 9, Type 0, BuildingBlock: PAMTOO_clean_sbu_0, # of connection points: 6
#     Node 10, Type 0, BuildingBlock: PAMTOO_clean_sbu_0, # of connection points: 6
#     Node 11, Type 0, BuildingBlock: PAMTOO_clean_sbu_0, # of connection points: 6
#     Node 12, Type 0, BuildingBlock: PAMTOO_clean_sbu_0, # of connection points: 6
#     Node 13, Type 0, BuildingBlock: PAMTOO_clean_sbu_0, # of connection points: 6
#     Node 14, Type 0, BuildingBlock: PAMTOO_clean_sbu_0, # of connection points: 6
#     Node 15, Type 0, BuildingBlock: PAMTOO_clean_sbu_0, # of connection points: 6
#     Edge 16, Type (0, 0), BuildingBlock: AJUNOK_clean_linker_0, # of connection points: 2
#     Edge 17, Type (0, 0), BuildingBlock: AJUNOK_clean_linker_0, # of connection points: 2
#     Edge 18, Type (0, 0), BuildingBlock: AJUNOK_clean_linker_0, # of connection points: 2
#     Edge 19, Type (0, 0), BuildingBlock: AJUNOK_clean_linker_0, # of connection points: 2
#     Edge 20, Type (0, 0), BuildingBlock: AJUNOK_clean_linker_0, # of connection points: 2
#     Edge 21, Type (0, 0), BuildingBlock: AJUNOK_clean_linker_0, # of connection points: 2
#     Edge 22, Type (0, 0), BuildingBlock: AJUNOK_clean_linker_0, # of connection points: 2
#     Edge 23, Type (0, 0), BuildingBlock: AJUNOK_clean_linker_0, # of connection points: 2
#     Edge 24, Type (0, 0), BuildingBlock: AJUNOK_clean_linker_0, # of connection points: 2
#     Edge 25, Type (0, 0), BuildingBlock: AJUNOK_clean_linker_0, # of connection points: 2
#     Edge 26, Type (0, 0), BuildingBlock: AJUNOK_clean_linker_0, # of connection points: 2
#     Edge 27, Type (0, 0), BuildingBlock: AJUNOK_clean_linker_0, # of connection points: 2
#     Edge 28, Type (0, 0), BuildingBlock: AJUNOK_clean_linker_0, # of connection points: 2
#     Edge 29, Type (0, 0), BuildingBlock: AJUNOK_clean_linker_0, # of connection points: 2
#     Edge 30, Type (0, 0), BuildingBlock: AJUNOK_clean_linker_0, # of connection points: 2
#     Edge 31, Type (0, 0), BuildingBlock: AJUNOK_clean_linker_0, # of connection points: 2
#     Edge 32, Type (0, 0), BuildingBlock: AJUNOK_clean_linker_0, # of connection points: 2
#     Edge 33, Type (0, 0), BuildingBlock: AJUNOK_clean_linker_0, # of connection points: 2
#     Edge 34, Type (0, 0), BuildingBlock: AJUNOK_clean_linker_0, # of connection points: 2
#     Edge 35, Type (0, 0), BuildingBlock: AJUNOK_clean_linker_0, # of connection points: 2
#     Edge 36, Type (0, 0), BuildingBlock: AJUNOK_clean_linker_0, # of connection points: 2
#     Edge 37, Type (0, 0), BuildingBlock: AJUNOK_clean_linker_0, # of connection points: 2
#     Edge 38, Type (0, 0), BuildingBlock: AJUNOK_clean_linker_0, # of connection points: 2
#     Edge 39, Type (0, 0), BuildingBlock: AJUNOK_clean_linker_0, # of connection points: 2
#     Edge 40, Type (0, 0), BuildingBlock: AJUNOK_clean_linker_0, # of connection points: 2
#     Edge 41, Type (0, 0), BuildingBlock: AJUNOK_clean_linker_0, # of connection points: 2
#     Edge 42, Type (0, 0), BuildingBlock: AJUNOK_clean_linker_0, # of connection points: 2
#     Edge 43, Type (0, 0), BuildingBlock: AJUNOK_clean_linker_0, # of connection points: 2
#     Edge 44, Type (0, 0), BuildingBlock: AJUNOK_clean_linker_0, # of connection points: 2
#     Edge 45, Type (0, 0), BuildingBlock: AJUNOK_clean_linker_0, # of connection points: 2
#     Edge 46, Type (0, 0), BuildingBlock: AJUNOK_clean_linker_0, # of connection points: 2
#     Edge 47, Type (0, 0), BuildingBlock: AJUNOK_clean_linker_0, # of connection points: 2
#     Edge 48, Type (0, 0), BuildingBlock: AJUNOK_clean_linker_0, # of connection points: 2
#     Edge 49, Type (0, 0), BuildingBlock: AJUNOK_clean_linker_0, # of connection points: 2
#     Edge 50, Type (0, 0), BuildingBlock: AJUNOK_clean_linker_0, # of connection points: 2
#     Edge 51, Type (0, 0), BuildingBlock: AJUNOK_clean_linker_0, # of connection points: 2
#     Edge 52, Type (0, 0), BuildingBlock: AJUNOK_clean_linker_0, # of connection points: 2
#     Edge 53, Type (0, 0), BuildingBlock: AJUNOK_clean_linker_0, # of connection points: 2
#     Edge 54, Type (0, 0), BuildingBlock: AJUNOK_clean_linker_0, # of connection points: 2
#     Edge 55, Type (0, 0), BuildingBlock: AJUNOK_clean_linker_0, # of connection points: 2
#     Edge 56, Type (0, 0), BuildingBlock: AJUNOK_clean_linker_0, # of connection points: 2
#     Edge 57, Type (0, 0), BuildingBlock: AJUNOK_clean_linker_0, # of connection points: 2
#     Edge 58, Type (0, 0), BuildingBlock: AJUNOK_clean_linker_0, # of connection points: 2
#     Edge 59, Type (0, 0), BuildingBlock: AJUNOK_clean_linker_0, # of connection points: 2
#     Edge 60, Type (0, 0), BuildingBlock: AJUNOK_clean_linker_0, # of connection points: 2
#     Edge 61, Type (0, 0), BuildingBlock: AJUNOK_clean_linker_0, # of connection points: 2
#     Edge 62, Type (0, 0), BuildingBlock: AJUNOK_clean_linker_0, # of connection points: 2
#     Edge 63, Type (0, 0), BuildingBlock: AJUNOK_clean_linker_0, # of connection points: 2
# Relax obj value: 0.805
# Max RMSD: 0.324
# Mean RMSD: 0.324
data_MOF--net-whz--node1-PAMTOO_clean_sbu_0--edge1-AJUNOK_clean_linker_0
_symmetry_space_group_name_H-M    P1
_symmetry_Int_Tables_number       1
_symmetry_cell_setting            triclinic
loop_
_symmetry_equiv_pos_as_xyz
'x, y, z'
_cell_length_a     25.853263
_cell_length_b     25.812524
_cell_length_c     57.861176
_cell_angle_alpha  89.777133
_cell_angle_beta   90.133502
_cell_angle_gamma 89.876864
loop_
_atom_site_label
_atom_site_type_symbol
_atom_site_fract_x
_atom_site_fract_y
_atom_site_fract_z
_atom_type_partial_charge
Dy0 Dy 0.34008 0.20691 0.15442 0.0
Dy1 Dy 0.32366 0.28527 0.19635 0.0
C2 C 0.29126 0.3159 0.14989 0.0
O3 O 0.4184 0.24427 0.15914 0.0
O4 O 0.40998 0.28759 0.19365 0.0
O5 O 0.36385 0.21097 0.11885 0.0
O6 O 0.3325 0.1391 0.13221 0.0
O7 O 0.34178 0.21338 0.21522 0.0
O8 O 0.37247 0.16135 0.18562 0.0
O9 O 0.24914 0.23784 0.19384 0.0
O10 O 0.27511 0.16866 0.17175 0.0
O11 O 0.28655 0.35881 0.20183 0.0
O12 O 0.3242 0.31932 0.23047 0.0
C13 C 0.43853 0.27102 0.17633 0.0
O14 O 0.27758 0.26744 0.14862 0.0
O15 O 0.33188 0.32372 0.16243 0.0
C16 C 0.31971 0.15746 0.09157 0.0
C17 C 0.27956 0.14331 1.04599 0.0
C18 C 0.28484 0.19324 0.05552 0.0
C19 C 0.30446 0.20023 0.07795 0.0
C20 C 0.31287 0.10757 0.08243 0.0
C21 C 0.29271 0.10053 0.06007 0.0
C22 C 0.34814 0.16429 0.11388 0.0
C23 C 0.36355 0.17055 0.20798 0.0
C24 C 0.24231 0.19025 0.18594 0.0
C25 C 0.24149 0.35401 0.23675 0.0
C26 C 0.1536 0.32692 0.26235 0.0
C27 C 0.19789 0.34694 0.27341 0.0
C28 C 0.2414 0.36068 0.26067 0.0
C29 C 0.19589 0.33783 0.22554 0.0
C30 C 0.15206 0.32498 0.23822 0.0
C31 C 0.2907 0.35473 0.2242 0.0
H32 H 0.27501 0.22728 1.04542 0.0
H33 H 0.30901 0.23936 0.08432 0.0
H34 H 0.32419 0.07385 0.09245 0.0
H35 H 0.28739 0.06138 0.0539 0.0
H36 H 0.20065 0.34792 0.29209 0.0
H37 H 0.27622 0.37257 0.26965 0.0
H38 H 0.19501 0.3315 0.20713 0.0
H39 H 0.11853 0.30972 0.2293 0.0
Dy40 Dy 0.63683 0.57333 0.40357 0.0
Dy41 Dy 0.56328 0.55523 0.44485 0.0
C42 C 0.54274 0.50357 0.4007 0.0
O43 O 0.60813 0.6545 0.40464 0.0
O44 O 0.55596 0.64153 0.43615 0.0
O45 O 0.66691 0.52374 0.37716 0.0
O46 O 0.68317 0.60629 0.37557 0.0
O47 O 0.62415 0.59159 0.46545 0.0
O48 O 0.68446 0.59768 0.43584 0.0
O49 O 0.61829 0.49094 0.45342 0.0
O50 O 0.67354 0.50734 0.42312 0.0
O51 O 0.52106 0.53239 0.47503 0.0
O52 O 0.4802 0.5542 0.4433 0.0
C53 C 0.5757 0.6723 0.4201 0.0
O54 O 0.55488 0.54976 0.39341 0.0
O55 O 0.56516 0.49129 0.41968 0.0
C56 C 0.68827 0.55638 0.34017 0.0
C57 C 0.69214 0.5297 0.2924 0.0
C58 C 0.64441 0.53378 0.30416 0.0
C59 C 0.64251 0.54647 0.3278 0.0
C60 C 0.73559 0.55343 0.32848 0.0
C61 C 0.73765 0.53974 0.30509 0.0
C62 C 0.68926 0.56107 0.36572 0.0
C63 C 0.6708 0.60246 0.45807 0.0
C64 C 0.66039 0.48048 0.44156 0.0
C65 C 0.44099 0.57246 0.47892 0.0
C66 C 0.43326 0.62124 0.52071 0.0
C67 C 0.43913 0.65188 0.50076 0.0
C68 C 0.44683 0.62651 0.47974 0.0
C69 C 0.41531 0.54718 0.49688 0.0
C70 C 0.40942 0.57256 0.51786 0.0
C71 C 0.47621 0.54144 0.46511 0.0
H72 H 0.6084 0.52617 0.29522 0.0
H73 H 0.60549 0.5471 0.33654 0.0
H74 H 0.77151 0.55922 0.3378 0.0
H75 H 0.77537 0.53465 0.29738 0.0
H76 H 0.45157 0.69179 0.50224 0.0
H77 H 0.46482 0.64737 0.46561 0.0
H78 H 0.40855 0.50585 0.49611 0.0
H79 H 0.39872 0.54904 0.53263 0.0
Dy80 Dy 0.25794 0.8719 0.65321 0.0
Dy81 Dy 0.27624 0.79817 0.69567 0.0
C82 C 0.32588 0.77188 0.65084 0.0
O83 O 0.17574 0.85206 0.66056 0.0
O84 O 0.19574 0.78023 0.68206 0.0
O85 O 0.28373 0.93613 0.63184 0.0
O86 O 0.22569 0.88371 0.6189 0.0
O87 O 0.22884 0.85539 0.71363 0.0
O88 O 0.23239 0.9194 0.68539 0.0
O89 O 0.32761 0.86535 0.70465 0.0
O90 O 0.33669 0.89092 0.66694 0.0
O91 O 0.31323 0.76356 0.7251 0.0
O92 O 0.26393 0.71729 0.70302 0.0
C93 C 0.16158 0.8094 0.67109 0.0
O94 O 0.28207 0.78991 0.64272 0.0
O95 O 0.33946 0.78955 0.67063 0.0
C96 C 0.28077 0.9228 0.5907 0.0
C97 C 0.32522 0.92805 0.54551 0.0
C98 C 0.35572 0.91595 0.56514 0.0
C99 C 0.33386 0.91333 0.58742 0.0
C100 C 0.2503 0.93441 0.57122 0.0
C101 C 0.27209 0.93714 0.54902 0.0
C102 C 0.25601 0.92246 0.61402 0.0
C103 C 0.22112 0.90331 0.70686 0.0
C104 C 0.35098 0.8933 0.68876 0.0
C105 C 0.26703 0.69779 0.74251 0.0
C106 C 0.26825 0.73012 0.78738 0.0
C107 C 0.22403 0.74028 0.77396 0.0
C108 C 0.22366 0.72428 0.75102 0.0
C109 C 0.30077 0.6733 0.75798 0.0
C110 C 0.30169 0.69003 0.78077 0.0
C111 C 0.29114 0.71866 0.72191 0.0
H112 H 0.39691 0.90963 0.56348 0.0
H113 H 0.35861 0.90447 0.60205 0.0
H114 H 0.2093 0.94183 0.5732 0.0
H115 H 0.24702 0.94607 0.53453 0.0
H116 H 0.19643 0.76952 0.77931 0.0
H117 H 0.19619 0.74212 0.73924 0.0
H118 H 0.33334 0.65109 0.75161 0.0
H119 H 0.33482 0.67997 0.79134 0.0
Dy120 Dy 0.95437 0.48026 0.90656 0.0
Dy121 Dy 1.01274 0.47223 0.95674 0.0
C122 C 0.06845 0.53416 0.91644 0.0
O123 O 0.97663 0.39657 0.91353 0.0
O124 O 0.04972 0.41426 0.93349 0.0
O125 O 0.89299 0.50159 0.88257 0.0
O126 O 0.95774 0.45522 0.87089 0.0
O127 O 0.94576 0.41964 0.95856 0.0
O128 O 0.8922 0.46297 0.9339 0.0
O129 O 0.95298 0.53655 0.9595 0.0
O130 O 0.94161 0.55859 0.92122 0.0
O131 O 0.04094 0.50634 0.98827 0.0
O132 O 0.04882 0.42373 0.98254 0.0
C133 C 1.02152 0.38118 0.92189 0.0
O134 O 1.03118 0.52241 0.90164 0.0
O135 O 0.06808 0.51983 0.93804 0.0
C136 C 0.91291 0.50374 0.8418 0.0
C137 C 0.90447 0.54682 0.79648 0.0
C138 C 0.91173 0.57893 0.81598 0.0
C139 C 0.91583 0.55765 0.83841 0.0
C140 C 0.90659 0.47188 0.82239 0.0
C141 C 0.90253 0.49297 0.80009 0.0
C142 C 0.91494 0.4787 0.86504 0.0
C143 C 0.89926 0.4335 0.95246 0.0
C144 C 0.93585 0.56844 0.94329 0.0
C145 C 1.02048 0.45165 1.0188 0.0
C146 C 0.94633 0.45659 0.05371 0.0
C147 C 0.94012 0.42182 1.03554 0.0
C148 C 0.97695 0.41914 1.01817 0.0
C149 C 1.02889 0.48343 1.03797 0.0
C150 C 0.99194 0.48582 0.05541 0.0
C151 C 0.04959 0.46107 0.99764 0.0
H152 H 0.91352 0.62061 0.81392 0.0
H153 H 0.92093 0.58326 0.85302 0.0
H154 H 0.90457 0.4302 0.82448 0.0
H155 H 0.89852 0.46684 0.78561 0.0
H156 H 0.90557 0.39931 1.03393 0.0
H157 H 0.9692 0.39453 1.00345 0.0
H158 H 0.06175 0.50941 1.0385 0.0
H159 H 0.99691 0.51364 0.06922 0.0
Dy160 Dy 0.76233 0.79795 0.90303 0.0
Dy161 Dy 0.76145 0.86506 0.95127 0.0
C162 C 0.72255 0.91469 0.90068 0.0
O163 O 0.8323 0.84777 0.89781 0.0
O164 O 0.82791 0.89634 0.93118 0.0
O165 O 0.7785 0.77666 0.86797 0.0
O166 O 0.74088 0.72167 0.89097 0.0
O167 O 0.78394 0.7809 0.95834 0.0
O168 O 0.82554 0.76808 0.92468 0.0
O169 O 0.67811 0.84171 0.9507 0.0
O170 O 0.68238 0.78993 0.91843 0.0
O171 O 0.81535 0.89168 0.97678 0.0
O172 O 0.73363 0.90665 0.9819 0.0
C173 C 0.84978 0.8845 0.91145 0.0
O174 O 0.72431 0.86919 0.89084 0.0
O175 O 0.73697 0.92264 0.92256 0.0
C176 C 0.70736 0.73439 0.85348 0.0
C177 C 0.66349 0.80182 0.82171 0.0
C178 C 0.64286 0.79903 0.84396 0.0
C179 C 0.66414 0.76426 0.85982 0.0
C180 C 0.71851 0.72812 0.83002 0.0
C181 C 0.69577 0.76155 0.81395 0.0
C182 C 0.75105 0.73433 0.86954 0.0
C183 C 0.81875 0.7559 0.94613 0.0
C184 C 0.65626 0.81089 0.93554 0.0
C185 C 0.79034 0.90845 1.01578 0.0
C186 C 0.82137 0.92001 0.06295 0.0
C187 C 0.84818 0.88639 1.04797 0.0
C188 C 0.83272 0.88042 1.02482 0.0
C189 C 0.76294 0.94115 1.03077 0.0
C190 C 0.77804 0.94671 0.05399 0.0
C191 C 0.7804 0.91143 0.99033 0.0
H192 H 0.61806 0.8298 0.85012 0.0
H193 H 0.6539 0.76847 0.87778 0.0
H194 H 0.75128 0.70481 0.82472 0.0
H195 H 0.71174 0.76264 0.79665 0.0
H196 H 0.88275 0.8664 0.05373 0.0
H197 H 0.85559 0.85561 1.01375 0.0
H198 H 0.7309 0.96413 1.02429 0.0
H199 H 0.75628 0.97297 0.06482 0.0
Dy200 Dy 0.54071 0.51486 0.6633 0.0
Dy201 Dy 0.46248 0.49801 0.70272 0.0
C202 C 0.43559 0.46413 0.64805 0.0
O203 O 0.47811 0.56697 0.64987 0.0
O204 O 0.43577 0.57087 0.68474 0.0
O205 O 0.58787 0.56151 0.64126 0.0
O206 O 0.61863 0.48994 0.65505 0.0
O207 O 0.54403 0.51881 0.71513 0.0
O208 O 0.54169 0.57793 0.68876 0.0
O209 O 0.48 0.41461 0.69681 0.0
O210 O 0.553 0.43201 0.67596 0.0
O211 O 0.40603 0.53749 0.72382 0.0
O212 O 0.43558 0.46343 0.73504 0.0
C213 C 0.44203 0.58675 0.66325 0.0
O214 O 0.4833 0.47481 0.64191 0.0
O215 O 0.41847 0.47143 0.6697 0.0
C216 C 0.64172 0.51568 0.61746 0.0
C217 C 0.59718 0.54695 0.57662 0.0
C218 C 0.58653 0.49712 0.58512 0.0
C219 C 0.60971 0.48089 0.60559 0.0
C220 C 0.66399 0.55701 0.60535 0.0
C221 C 0.64004 0.57418 0.58519 0.0
C222 C 0.62587 0.52832 0.64081 0.0
C223 C 0.56083 0.56381 0.70814 0.0
C224 C 0.52213 0.39876 0.68643 0.0
C225 C 0.41088 0.52399 0.76479 0.0
C226 C 0.40418 0.56257 0.81105 0.0
C227 C 0.41394 0.59605 0.7922 0.0
C228 C 0.41721 0.57715 0.76947 0.0
C229 C 0.40283 0.49032 0.78359 0.0
C230 C 0.3999 0.50917 0.80634 0.0
C231 C 0.40777 0.50373 0.74057 0.0
H232 H 0.5549 0.4746 0.57806 0.0
H233 H 0.59378 0.44733 0.61435 0.0
H234 H 0.69044 0.58309 0.61403 0.0
H235 H 0.64977 0.61233 0.57869 0.0
H236 H 0.41787 0.63733 0.79487 0.0
H237 H 0.42356 0.6045 0.75553 0.0
H238 H 0.39789 0.44921 0.78065 0.0
H239 H 0.3944 0.48157 0.82024 0.0
Dy240 Dy 0.83055 0.2781 0.41146 0.0
Dy241 Dy 0.84319 0.1965 0.45279 0.0
C242 C 0.87106 0.16417 0.3991 0.0
O243 O 0.75609 0.23103 0.41346 0.0
O244 O 0.78205 0.15768 0.43276 0.0
O245 O 0.79239 0.35144 0.40707 0.0
O246 O 0.83116 0.31572 0.37797 0.0
O247 O 0.78373 0.25985 0.4591 0.0
O248 O 0.84224 0.31166 0.44589 0.0
O249 O 0.92429 0.22896 0.44756 0.0
O250 O 0.91574 0.28432 0.41623 0.0
O251 O 0.8724 0.19333 0.48794 0.0
O252 O 0.82443 0.13123 0.47514 0.0
C253 C 0.74949 0.18178 0.41914 0.0
O254 O 0.85411 0.20932 0.3919 0.0
O255 O 0.87409 0.1512 0.42147 0.0
C256 C 0.74815 0.35017 0.3719 0.0
C257 C 0.66204 0.32338 0.34498 0.0
C258 C 0.70596 0.3464 0.33478 0.0
C259 C 0.74865 0.35966 0.34816 0.0
C260 C 0.70249 0.33206 0.38247 0.0
C261 C 0.65958 0.31911 0.36909 0.0
C262 C 0.79711 0.35004 0.3847 0.0
C263 C 0.8003 0.3074 0.45775 0.0
C264 C 0.9441 0.26196 0.43237 0.0
C265 C 0.82187 0.14847 0.51622 0.0
C266 C 0.77664 0.14129 0.56125 0.0
C267 C 0.74548 0.1433 0.54111 0.0
C268 C 0.76775 0.14704 0.51891 0.0
C269 C 0.85277 0.14621 0.53624 0.0
C270 C 0.83063 0.14249 0.55835 0.0
C271 C 0.84786 0.15076 0.49311 0.0
H272 H 0.70956 0.34966 0.31618 0.0
H273 H 0.78348 0.37327 0.33973 0.0
H274 H 0.70102 0.32433 0.40088 0.0
H275 H 0.62622 0.30201 0.3774 0.0
H276 H 0.70377 0.14123 0.54247 0.0
H277 H 0.74267 0.14844 0.50389 0.0
H278 H 0.89452 0.14711 0.53476 0.0
H279 H 0.85596 0.1412 0.57327 0.0
Dy280 Dy 0.09477 0.59965 0.15176 0.0
Dy281 Dy 0.15098 0.58155 0.20108 0.0
C282 C 0.20634 0.62866 0.15667 0.0
O283 O 0.14995 0.53218 0.14724 0.0
O284 O 0.15043 0.50297 0.18478 0.0
O285 O 0.06831 0.65908 0.12833 0.0
O286 O 0.06621 0.57825 0.11815 0.0
O287 O 0.0712 0.5456 0.20602 0.0
O288 O 0.03867 0.54846 0.16875 0.0
O289 O 0.12738 0.66624 0.19723 0.0
O290 O 0.05445 0.64887 0.17739 0.0
O291 O 0.15508 0.6073 0.23653 0.0
O292 O 0.21019 0.55061 0.22405 0.0
C293 C 0.15945 0.49544 0.16267 0.0
O294 O 0.16163 0.65094 0.15616 0.0
O295 O 0.21342 0.59422 0.17326 0.0
C296 C 0.99337 0.62829 0.11109 0.0
C297 C 0.8934 0.59246 0.10319 0.0
C298 C 0.92276 0.61483 0.08499 0.0
C299 C 0.9731 0.63124 0.08891 0.0
C300 C 0.96073 0.61757 0.12989 0.0
C301 C 0.91042 0.60025 0.12597 0.0
C302 C 0.04905 0.62512 0.11421 0.0
C303 C 1.03525 0.53447 0.19044 0.0
C304 C 0.08213 0.68168 0.18924 0.0
C305 C 0.19471 0.55388 0.26506 0.0
C306 C 0.19831 0.5133 0.31074 0.0
C307 C 0.18194 0.48228 0.29203 0.0
C308 C 0.18003 0.50237 0.26938 0.0
C309 C 0.21092 0.58466 0.28364 0.0
C310 C 0.21286 0.5647 0.30614 0.0
C311 C 0.19425 0.5776 0.2417 0.0
H312 H 0.91114 0.61194 0.0671 0.0
H313 H 0.9977 0.64058 0.07433 0.0
H314 H 0.9759 0.61683 0.14733 0.0
H315 H 0.88835 0.58518 0.14039 0.0
H316 H 0.1712 0.4423 0.29482 0.0
H317 H 0.16739 0.47773 0.25535 0.0
H318 H 0.22228 0.62453 0.28072 0.0
H319 H 0.22529 0.58984 0.32001 0.0
Dy320 Dy 0.83783 0.69394 0.65675 0.0
Dy321 Dy 0.83383 0.76645 0.70021 0.0
C322 C 0.77603 0.79709 0.65798 0.0
O323 O 0.92204 0.71477 0.65758 0.0
O324 O 0.91271 0.77856 0.68474 0.0
O325 O 0.78276 0.66764 0.63169 0.0
O326 O 0.864 0.64938 0.62671 0.0
O327 O 0.87882 0.70324 0.71518 0.0
O328 O 0.86059 0.64126 0.68769 0.0
O329 O 0.76873 0.71332 0.71004 0.0
O330 O 0.77202 0.66189 0.67762 0.0
O331 O 0.83153 0.79759 0.73453 0.0
O332 O 0.836 0.84931 0.70378 0.0
C333 C 0.94149 0.75213 0.67028 0.0
O334 O 0.81763 0.77806 0.64835 0.0
O335 O 0.76536 0.77906 0.67815 0.0
C336 C 0.80736 0.64975 0.59279 0.0
C337 C 0.77615 0.63973 0.54563 0.0
C338 C 0.75199 0.67591 0.56026 0.0
C339 C 0.76729 0.68082 0.58352 0.0
C340 C 0.83272 0.61516 0.57795 0.0
C341 C 0.81759 0.61041 0.55471 0.0
C342 C 0.81703 0.64626 0.61826 0.0
C343 C 0.87784 0.65498 0.70858 0.0
C344 C 0.75142 0.67424 0.69764 0.0
C345 C 0.83708 0.88959 0.74125 0.0
C346 C 0.78613 0.93954 0.77603 0.0
C347 C 0.83009 0.90953 0.7815 0.0
C348 C 0.8547 0.88285 0.76389 0.0
C349 C 0.80631 0.93257 0.73565 0.0
C350 C 0.78194 0.95925 0.75347 0.0
C351 C 0.83587 0.84477 0.72628 0.0
H352 H 0.71966 0.6988 0.554 0.0
H353 H 0.74622 0.70748 0.59444 0.0
H354 H 0.86308 0.59016 0.58456 0.0
H355 H 0.83773 0.58274 0.54396 0.0
H356 H 0.8376 0.89661 0.79903 0.0
H357 H 0.88062 0.85124 0.76832 0.0
H358 H 0.79392 0.93963 0.718 0.0
H359 H 0.75107 0.98559 0.74904 0.0
Dy360 Dy 0.1439 0.06144 0.90656 0.0
Dy361 Dy 0.06702 0.06067 0.95001 0.0
C362 C 0.04067 0.99468 0.90896 0.0
O363 O 0.12709 0.14509 0.91404 0.0
O364 O 0.04602 0.12594 0.92557 0.0
O365 O 0.20078 1.02645 0.88393 0.0
O366 O 0.16146 0.09627 0.87316 0.0
O367 O 0.12838 0.11428 0.96091 0.0
O368 O 0.19402 0.0837 0.93798 0.0
O369 O 0.12337 0.99745 0.95959 0.0
O370 O 0.1666 0.98836 0.92483 0.0
O371 O 0.04335 0.05869 0.98557 0.0
O372 O 0.98597 0.06729 0.9582 0.0
C373 C 0.08 0.16047 0.91881 0.0
O374 O 0.06319 1.03222 0.89732 0.0
O375 O 0.05154 0.98962 0.93064 0.0
C376 C 0.1892 0.03898 0.84288 0.0
C377 C 0.19152 1.00205 0.79624 0.0
C378 C 0.18602 0.9676 0.81514 0.0
C379 C 0.18416 0.98581 0.83805 0.0
C380 C 0.1949 0.07331 0.82411 0.0
C381 C 0.19596 0.05523 0.80119 0.0
C382 C 0.193 0.05929 0.86709 0.0
C383 C 0.17772 0.10726 0.95708 0.0
C384 C 0.15757 0.974 0.9463 0.0
C385 C 0.97854 0.11929 0.99111 0.0
C386 C 0.98289 0.20597 1.01987 0.0
C387 C 0.99697 0.21058 0.99653 0.0
C388 C 0.99555 0.16713 0.98229 0.0
C389 C 0.95648 0.11681 1.01301 0.0
C390 C 0.9583 0.15994 1.02731 0.0
C391 C 0.99581 0.07143 0.98026 0.0
H392 H 0.18437 0.92618 0.81237 0.0
H393 H 0.17974 0.95803 0.85196 0.0
H394 H 0.19924 0.11443 0.8272 0.0
H395 H 0.20015 0.0831 0.7873 0.0
H396 H 1.01545 0.24551 0.99022 0.0
H397 H 1.01288 0.16963 0.96531 0.0
H398 H 0.9434 0.08011 1.02002 0.0
H399 H 0.94714 0.15417 1.04514 0.0
Dy400 Dy 0.75859 0.37994 0.15401 0.0
Dy401 Dy 0.77542 0.3137 0.20022 0.0
C402 C 0.82961 0.28403 0.15683 0.0
O403 O 0.67724 0.35351 0.15774 0.0
O404 O 0.69262 0.29943 0.18859 0.0
O405 O 0.80426 0.41125 0.12632 0.0
O406 O 0.72088 0.41547 0.12392 0.0
O407 O 0.73025 0.37674 0.21487 0.0
O408 O 0.73414 0.4341 0.1839 0.0
O409 O 0.83755 0.37264 0.20595 0.0
O410 O 0.82645 0.417 0.17152 0.0
O411 O 0.79116 0.28657 0.23468 0.0
O412 O 0.77967 0.23154 0.20648 0.0
C413 C 0.66099 0.32018 0.1732 0.0
O414 O 0.78537 0.29714 0.14747 0.0
O415 O 0.84045 0.30592 0.17612 0.0
C416 C 0.76951 0.41339 0.08817 0.0
C417 C 0.7908 0.4067 1.03954 0.0
C418 C 0.81606 0.37425 0.05594 0.0
C419 C 0.80547 0.37739 0.07968 0.0
C420 C 0.74278 0.44446 0.07214 0.0
C421 C 0.7528 0.4409 1.04828 0.0
C422 C 0.7648 0.424 0.11344 0.0
C423 C 0.723 0.42275 0.20591 0.0
C424 C 0.85075 0.40954 0.19131 0.0
C425 C 0.74091 0.21397 0.24233 0.0
C426 C 0.65931 0.20646 0.27369 0.0
C427 C 0.64872 0.21272 0.25011 0.0
C428 C 0.68943 0.21663 0.23447 0.0
C429 C 0.75108 0.1997 0.26518 0.0
C430 C 0.71044 0.19551 0.28079 0.0
C431 C 0.78204 0.23838 0.22889 0.0
H432 H 0.84653 0.34793 1.05112 0.0
H433 H 0.82741 0.35315 0.0915 0.0
H434 H 0.71519 0.473 0.07814 0.0
H435 H 0.73127 0.46616 1.03683 0.0
H436 H 0.60969 0.22065 0.24426 0.0
H437 H 0.68064 0.22667 0.21675 0.0
H438 H 0.79053 0.19754 0.27151 0.0
H439 H 0.72006 0.19092 0.29892 0.0
Dy440 Dy 0.46717 0.99864 0.40475 0.0
Dy441 Dy 0.54061 1.00989 0.44622 0.0
C442 C 0.5614 0.06825 0.40387 0.0
O443 O 0.49327 0.91613 0.40459 0.0
O444 O 0.54424 0.92436 0.43681 0.0
O445 O 0.43707 0.05251 0.37985 0.0
O446 O 0.42217 0.97039 0.37517 0.0
O447 O 0.48078 0.97011 0.46584 0.0
O448 O 0.41907 0.9716 0.43653 0.0
O449 O 0.48571 0.07149 0.45718 0.0
O450 O 0.43088 0.06199 0.42603 0.0
O451 O 0.58438 1.03164 0.47601 0.0
O452 O 0.62362 1.00408 0.44492 0.0
C453 C 0.52411 0.89571 0.42024 0.0
O454 O 0.54949 1.02304 0.39547 0.0
O455 O 0.53847 0.07763 0.42292 0.0
C456 C 0.41902 1.02676 0.34114 0.0
C457 C 0.40654 0.06014 0.29432 0.0
C458 C 0.44625 0.08055 0.3083 0.0
C459 C 0.45237 0.06419 0.33142 0.0
C460 C 0.38123 1.0046 0.32684 0.0
C461 C 0.37528 1.02074 0.30377 0.0
C462 C 0.41668 1.01721 0.36663 0.0
C463 C 0.43352 0.96219 0.45844 0.0
C464 C 0.444 0.0848 0.44552 0.0
C465 C 0.65754 0.98138 0.48128 0.0
C466 C 0.64112 0.94928 0.52578 0.0
C467 C 0.62918 0.91507 0.50773 0.0
C468 C 0.63647 0.93195 0.48506 0.0
C469 C 0.68608 1.00466 0.49888 0.0
C470 C 0.67792 0.9884 0.5215 0.0
C471 C 0.62818 1.01678 0.46668 0.0
H472 H 0.47101 0.11102 0.30173 0.0
H473 H 0.48172 0.08257 0.34194 0.0
H474 H 0.35461 0.97624 0.33381 0.0
H475 H 0.34502 1.0032 0.29349 0.0
H476 H 0.60346 0.88265 0.51076 0.0
H477 H 0.616 0.91211 0.47135 0.0
H478 H 0.70448 0.04184 0.49601 0.0
H479 H 0.69067 1.01424 0.53504 0.0
Dy480 Dy 0.26834 0.30108 0.40672 0.0
Dy481 Dy 0.26531 0.37648 0.45061 0.0
C482 C 0.22231 0.41214 0.39983 0.0
O483 O 0.33029 0.35903 0.39804 0.0
O484 O 0.341 0.39595 0.43407 0.0
O485 O 0.27372 0.27768 0.37124 0.0
O486 O 0.26486 0.21984 0.39847 0.0
O487 O 0.29288 0.29524 0.46 0.0
O488 O 0.33777 0.28537 0.42735 0.0
O489 O 0.18179 0.36142 0.44212 0.0
O490 O 0.19937 0.28084 0.429 0.0
O491 O 0.29608 0.43723 0.47243 0.0
O492 O 0.23297 0.38994 0.48472 0.0
C493 C 0.35472 0.39035 0.41232 0.0
O494 O 0.21591 0.36309 0.39506 0.0
O495 O 0.24499 0.42733 0.41929 0.0
C496 C 0.21815 0.20944 0.3641 0.0
C497 C 0.13505 0.2078 0.33315 0.0
C498 C 0.12658 0.22057 0.35642 0.0
C499 C 0.16823 0.22228 0.37176 0.0
C500 C 0.22509 0.18859 0.34217 0.0
C501 C 0.18381 0.18755 0.32676 0.0
C502 C 0.26309 0.22947 0.37631 0.0
C503 C 0.33114 0.27332 0.44879 0.0
C504 C 0.16551 0.31525 0.43614 0.0
C505 C 0.29007 0.42418 0.51359 0.0
C506 C 0.33182 0.43133 0.55925 0.0
C507 C 0.3645 0.42764 0.53979 0.0
C508 C 0.34394 0.42382 0.51729 0.0
C509 C 0.25756 0.42667 0.53298 0.0
C510 C 0.27801 0.42979 0.55543 0.0
C511 C 0.26656 0.42567 0.48994 0.0
H512 H 0.08953 0.23581 0.36193 0.0
H513 H 0.16232 0.23869 0.38875 0.0
H514 H 0.26348 0.17876 0.33606 0.0
H515 H 0.19259 0.17775 0.30903 0.0
H516 H 0.40612 0.42876 0.54188 0.0
H517 H 0.37023 0.4214 0.5028 0.0
H518 H 0.21595 0.42681 0.53074 0.0
H519 H 0.25138 0.43078 0.56983 0.0
Dy520 Dy 1.03842 1.01203 0.15822 0.0
Dy521 Dy 0.96251 1.00238 0.20143 0.0
C522 C 0.9241 0.97132 0.14925 0.0
O523 O 0.99333 0.08756 0.15988 0.0
O524 O 0.92304 0.06502 0.18207 0.0
O525 O 0.11411 0.04357 0.15228 0.0
O526 O 0.07101 1.01009 0.12383 0.0
O527 O 1.02132 0.06663 0.20532 0.0
O528 O 0.07518 1.00882 0.19259 0.0
O529 O 1.0049 0.92559 0.19931 0.0
O530 O 0.0387 0.92621 0.16255 0.0
O531 O 0.9706 0.98374 0.23748 0.0
O532 O 0.89593 1.00928 0.22443 0.0
C533 C 0.94569 0.0961 0.16729 0.0
O534 O 0.96479 0.9947 0.14075 0.0
O535 O 0.91768 0.96336 0.17188 0.0
C536 C 0.11305 0.08926 0.11737 0.0
C537 C 0.09611 0.17948 0.09128 0.0
C538 C 0.11304 0.13344 0.08058 0.0
C539 C 0.12148 0.08871 0.09356 0.0
C540 C 0.10055 0.13625 0.12838 0.0
C541 C 0.0927 0.1812 0.1154 0.0
C542 C 0.10932 0.04006 0.12994 0.0
C543 C 0.06931 0.05209 0.20348 0.0
C544 C 1.02762 0.9019 0.1819 0.0
C545 C 0.91472 1.02266 0.26499 0.0
C546 C 0.90318 0.06126 0.31078 0.0
C547 C 0.9433 0.07936 0.29637 0.0
C548 C 0.9492 0.06009 0.27373 0.0
C549 C 0.87482 1.00498 0.27928 0.0
C550 C 0.86948 1.02339 0.30186 0.0
C551 C 0.92302 0.99576 0.24261 0.0
H552 H 0.11549 0.13058 0.06194 0.0
H553 H 0.13085 0.05287 0.08481 0.0
H554 H 0.09372 0.13773 0.14683 0.0
H555 H 0.08062 0.21629 0.12403 0.0
H556 H 0.96998 0.10854 0.30254 0.0
H557 H 0.98105 0.0738 0.26324 0.0
H558 H 0.84856 0.97531 0.27321 0.0
H559 H 0.83923 1.00698 0.31249 0.0
Dy560 Dy 0.31514 0.76754 0.91536 0.0
Dy561 Dy 0.34006 0.69207 0.95461 0.0
C562 C 0.36961 0.66559 0.89963 0.0
O563 O 0.25508 0.70903 0.90582 0.0
O564 O 0.27392 0.65406 0.93608 0.0
O565 O 0.2862 0.81238 0.88681 0.0
O566 O 0.31169 0.85028 0.9185 0.0
O567 O 0.31459 0.77278 0.96619 0.0
O568 O 0.25389 0.75993 0.94167 0.0
O569 O 0.42087 0.71894 0.95137 0.0
O570 O 0.40065 0.78019 0.92412 0.0
O571 O 0.29625 0.65121 0.98022 0.0
O572 O 0.37995 0.65108 0.98258 0.0
C573 C 0.24643 0.66627 0.91765 0.0
O574 O 0.35774 0.71314 0.89351 0.0
O575 O 0.36401 0.64841 0.92135 0.0
C576 C 0.32587 0.89263 0.88337 0.0
C577 C 0.36046 0.89536 0.83903 0.0
C578 C 0.39653 0.88468 0.85659 0.0
C579 C 0.37807 0.88103 0.87918 0.0
C580 C 0.2985 0.92248 0.86731 0.0
C581 C 0.31745 0.92608 0.84486 0.0
C582 C 0.29607 0.8564 0.89721 0.0
C583 C 0.26714 0.78343 0.96018 0.0
C584 C 0.43484 0.75673 0.93767 0.0
C585 C 0.33096 0.64294 1.01781 0.0
C586 C 0.30323 0.63964 0.06523 0.0
C587 C 0.28662 0.68069 1.05083 0.0
C588 C 0.30023 0.68233 1.02741 0.0
C589 C 0.34986 0.60354 1.03236 0.0
C590 C 0.33615 0.6018 0.05581 0.0
C591 C 0.33651 0.63759 0.99241 0.0
H592 H 0.43233 0.86497 0.85243 0.0
H593 H 0.40057 0.85988 0.89185 0.0
H594 H 0.25895 0.93385 0.87073 0.0
H595 H 0.29114 0.93976 0.83159 0.0
H596 H 0.26143 0.71067 0.05752 0.0
H597 H 0.28475 0.71307 1.0166 0.0
H598 H 0.37304 0.57241 1.02528 0.0
H599 H 0.3489 0.5692 0.0662 0.0
Dy600 Dy 0.56607 0.06015 0.66225 0.0
Dy601 Dy 0.63493 0.07633 0.70312 0.0
C602 C 0.66925 0.11136 0.64893 0.0
O603 O 0.6249 1.00239 0.65117 0.0
O604 O 0.67648 1.01268 0.68328 0.0
O605 O 0.5225 1.02344 0.63579 0.0
O606 O 0.48257 0.06937 0.66186 0.0
O607 O 0.55147 0.05152 0.71174 0.0
O608 O 0.57601 0.99716 0.68754 0.0
O609 O 0.60636 0.15766 0.70252 0.0
O610 O 0.55937 0.14687 0.66935 0.0
O611 O 0.66422 1.02605 0.72964 0.0
O612 O 0.67674 0.10898 0.73269 0.0
C613 C 0.66593 0.98962 0.66345 0.0
O614 O 0.62259 0.1009 0.64149 0.0
O615 O 0.68329 0.10381 0.67112 0.0
C616 C 0.45057 0.06841 0.62333 0.0
C617 C 0.48442 0.04985 0.57937 0.0
C618 C 0.49654 0.09751 0.58968 0.0
C619 C 0.4778 0.10782 0.6118 0.0
C620 C 0.42361 1.03237 0.60992 0.0
C621 C 0.4426 1.02123 0.58797 0.0
C622 C 0.4787 0.04411 0.64237 0.0
C623 C 0.54405 1.00523 0.70371 0.0
C624 C 0.57663 0.17667 0.68619 0.0
C625 C 0.67554 0.05714 0.76813 0.0
C626 C 0.68176 1.03074 0.8163 0.0
C627 C 0.64759 1.00464 0.80118 0.0
C628 C 0.64452 1.01759 0.77757 0.0
C629 C 0.7072 0.08529 0.78327 0.0
C630 C 0.70964 0.07295 0.80698 0.0
C631 C 0.68189 0.06344 0.74254 0.0
H632 H 0.52714 0.12155 0.58272 0.0
H633 H 0.496 0.13856 0.62158 0.0
H634 H 0.39915 1.00377 0.61822 0.0
H635 H 0.43148 0.98527 0.57994 0.0
H636 H 0.62545 0.97167 0.8071 0.0
H637 H 0.61985 0.99454 0.76651 0.0
H638 H 0.73162 0.11593 0.77662 0.0
H639 H 0.7342 0.09645 0.81781 0.0
C640 C 0.10094 0.31864 0.29773 0.0
C641 C 0.11588 0.29783 0.27639 0.0
C642 C 0.09433 0.28614 0.31684 0.0
C643 C 0.10286 0.23234 0.31487 0.0
H644 H 0.10293 0.36008 0.30054 0.0
H645 H 0.09219 0.3043 0.33363 0.0
S646 S 0.11562 0.15865 0.26065 0.0
N647 N 0.12001 0.22001 0.25272 0.0
N648 N 0.1045 0.15925 0.28873 0.0
C649 C 0.10288 0.21112 0.29261 0.0
C650 C 0.11094 0.24402 0.27318 0.0
C651 C 0.50571 0.57474 0.57229 0.0
C652 C 0.55674 0.57497 0.56386 0.0
C653 C 0.46574 0.59858 0.55995 0.0
C654 C 0.47521 0.62212 0.53841 0.0
H655 H 0.49628 0.55455 0.58819 0.0
H656 H 0.42649 0.59398 0.56615 0.0
S657 S 0.60557 0.64586 0.51301 0.0
N658 N 0.61693 0.60963 0.53595 0.0
N659 N 0.54248 0.65472 0.51232 0.0
C660 C 0.52758 0.62854 0.5316 0.0
C661 C 0.56813 0.60432 0.5443 0.0
C662 C 0.31433 0.76286 0.822 0.0
C663 C 0.2915 0.77275 0.80052 0.0
C664 C 0.34166 0.80161 0.83342 0.0
C665 C 0.34724 0.85174 0.82369 0.0
H666 H 0.31063 0.7251 0.83008 0.0
H667 H 0.35601 0.79266 0.85056 0.0
S668 S 0.30171 0.89408 0.76621 0.0
N669 N 0.28168 0.83374 0.7685 0.0
N670 N 0.33208 0.90715 0.79057 0.0
C671 C 0.32706 0.86099 0.80167 0.0
C672 C 0.29929 0.82153 0.78998 0.0
C673 C 0.90581 0.46367 0.09214 0.0
C674 C 0.90237 0.4713 0.0682 0.0
C675 C 0.88277 0.49941 0.10709 0.0
C676 C 0.86174 0.54571 0.09787 0.0
H677 H 0.93186 0.43466 0.09918 0.0
H678 H 0.89325 0.49684 0.12519 0.0
S679 S 0.82145 0.56893 1.03801 0.0
N680 N 0.86001 0.51787 1.03687 0.0
N681 N 0.81396 0.58174 0.06573 0.0
C682 C 0.84236 0.54282 0.0753 0.0
C683 C 0.86691 0.50808 0.05973 0.0
C684 C 0.70904 0.88444 0.82416 0.0
C685 C 0.67382 0.85327 0.81197 0.0
C686 C 0.74117 0.91898 0.81253 0.0
C687 C 0.73841 0.92451 0.78845 0.0
H688 H 0.71704 0.87701 0.84226 0.0
H689 H 0.77257 0.9366 0.82203 0.0
S690 S 0.64339 0.85934 0.74975 0.0
N691 N 0.63138 0.83551 0.77568 0.0
N692 N 0.6904 0.9017 0.75337 0.0
C693 C 0.69787 0.89874 0.7766 0.0
C694 C 0.66573 0.86289 0.78854 0.0
C695 C 0.61414 0.28271 0.28874 0.0
C696 C 0.62411 0.22925 0.29092 0.0
C697 C 0.6144 0.31457 0.30818 0.0
C698 C 0.62656 0.29367 0.32997 0.0
H699 H 0.61605 0.30147 0.27203 0.0
H700 H 0.61502 0.35617 0.30553 0.0
S701 S 0.62924 0.15389 0.34505 0.0
N702 N 0.62497 0.15522 0.31662 0.0
N703 N 0.62897 0.21499 0.35343 0.0
C704 C 0.62353 0.2395 0.33276 0.0
C705 C 0.62148 0.2071 0.31295 0.0
C706 C 0.09483 0.23176 0.05537 0.0
C707 C 0.07179 0.21995 0.07669 0.0
C708 C 0.06402 0.24058 1.03587 0.0
C709 C 1.00963 0.23787 1.03753 0.0
H710 H 0.13589 0.22537 1.05298 0.0
H711 H 0.08305 0.23958 1.01922 0.0
S712 S 0.93306 0.23698 0.09125 0.0
N713 N 0.99314 0.22587 0.09972 0.0
N714 N 0.93601 0.24656 0.06306 0.0
C715 C 0.98779 0.24198 0.05959 0.0
C716 C 1.01879 0.23113 0.07939 0.0
C717 C 0.54825 0.96775 0.53379 0.0
C718 C 0.59949 0.9626 0.54224 0.0
C719 C 0.5112 0.99647 0.54574 0.0
C720 C 0.52427 1.02192 0.56623 0.0
H721 H 0.53723 0.95253 0.51708 0.0
H722 H 0.47258 1.0001 0.53856 0.0
S723 S 0.64998 1.01383 0.5974 0.0
N724 N 0.65869 0.97917 0.57386 0.0
N725 N 0.58984 1.03523 0.596 0.0
C726 C 0.57417 1.01446 0.57561 0.0
C727 C 0.61141 0.98407 0.56375 0.0
C728 C 0.19521 0.1607 0.99208 0.0
C729 C 0.21234 0.12181 0.97679 0.0
C730 C 0.21771 0.16776 1.01393 0.0
C731 C 0.25879 0.13639 1.02181 0.0
H732 H 0.16221 0.18468 0.98755 0.0
H733 H 0.20118 0.19693 1.02509 0.0
S734 S 0.32181 1.03189 0.98781 0.0
N735 N 0.27524 0.05339 0.97066 0.0
N736 N 0.31867 0.06731 1.01148 0.0
C737 C 0.27815 0.09887 1.00628 0.0
C738 C 0.25493 0.09164 0.98387 0.0
C739 C 0.66122 0.47092 0.26041 0.0
C740 C 0.69473 0.51063 0.26777 0.0
C741 C 0.66676 0.44734 0.23871 0.0
C742 C 0.70617 0.46183 0.2232 0.0
H743 H 0.63235 0.45534 0.27203 0.0
H744 H 0.64232 0.41448 0.23477 0.0
S745 S 0.80189 0.56625 0.23277 0.0
N746 N 0.76617 0.56669 0.2564 0.0
N747 N 0.77792 0.52006 0.21624 0.0
C748 C 0.73828 0.50317 0.22965 0.0
C749 C 0.73238 0.52786 0.25175 0.0
C750 C 0.33292 0.97197 0.50607 0.0
C751 C 0.34846 0.9322 0.52158 0.0
C752 C 0.35672 0.97871 0.48425 0.0
C753 C 0.39687 0.94573 0.47691 0.0
H754 H 0.30381 0.99979 0.51126 0.0
H755 H 0.34603 1.01197 0.47379 0.0
S756 S 0.44992 0.83368 0.50957 0.0
N757 N 0.4046 0.85719 0.52665 0.0
N758 N 0.44966 0.87101 0.48636 0.0
C759 C 0.41127 0.90489 0.49176 0.0
C760 C 0.38716 0.89785 0.51383 0.0
C761 C 0.92962 0.63221 0.7435 0.0
C762 C 0.89112 0.61752 0.72746 0.0
C763 C 0.934 0.60882 0.7654 0.0
C764 C 0.90019 0.56923 0.77246 0.0
H765 H 0.95515 0.66426 0.73954 0.0
H766 H 0.96373 0.62264 0.77705 0.0
S767 S 0.79225 0.51604 0.73728 0.0
N768 N 0.81858 0.56032 0.72033 0.0
N769 N 0.82672 0.51593 0.76136 0.0
C770 C 0.86248 0.55275 0.75634 0.0
C771 C 0.85803 0.57683 0.73393 0.0
C772 C 0.86363 0.99355 0.11727 0.0
C773 C 0.8858 0.95504 0.13151 0.0
C774 C 0.84127 0.98157 0.09573 0.0
C775 C 0.84056 0.93042 0.08717 0.0
H776 H 0.86642 1.03392 0.12221 0.0
H777 H 0.82704 1.01328 0.08517 0.0
S778 S 0.89262 0.815 0.11815 0.0
N779 N 0.9051 0.86368 0.13574 0.0
N780 N 0.86218 0.84045 0.09567 0.0
C781 C 0.8611 0.89124 0.10169 0.0
C782 C 0.88381 0.90366 0.1237 0.0
C783 C 0.42254 0.64887 0.8644 0.0
C784 C 0.38513 0.63106 0.88018 0.0
C785 C 0.42951 0.62549 0.84268 0.0
C786 C 0.39856 0.58368 0.8353 0.0
H787 H 0.4455 0.68267 0.86857 0.0
H788 H 0.4589 0.64125 0.83138 0.0
S789 S 0.29241 0.52433 0.86971 0.0
N790 N 0.3161 0.56949 0.88686 0.0
N791 N 0.32735 0.52663 0.84587 0.0
C792 C 0.36117 0.56505 0.85113 0.0
C793 C 0.35487 0.58844 0.87351 0.0
C794 C 0.77241 0.10324 0.60206 0.0
C795 C 0.75328 0.13832 0.58517 0.0
C796 C 0.74871 0.09791 0.62404 0.0
C797 C 0.7054 0.12811 0.63019 0.0
H798 H 0.80443 0.07787 0.59787 0.0
H799 H 0.76217 0.06761 0.6356 0.0
S800 S 0.64289 0.22854 0.59348 0.0
N801 N 0.69032 0.20612 0.57727 0.0
N802 N 0.64637 0.19599 0.61803 0.0
C803 C 0.68776 0.16484 0.61391 0.0
C804 C 0.71135 0.16995 0.59162 0.0
C805 C 0.24868 0.48117 0.37161 0.0
C806 C 0.21026 0.44818 0.3805 0.0
C807 C 0.24405 0.50295 0.34929 0.0
C808 C 0.20091 0.49248 0.33499 0.0
H809 H 0.2841 0.48728 0.38124 0.0
H810 H 0.27569 0.52624 0.3428 0.0
S811 S 0.08714 0.41332 0.35159 0.0
N812 N 0.12627 0.40919 0.37409 0.0
N813 N 0.1168 0.45087 0.33267 0.0
C814 C 0.16115 0.46175 0.34431 0.0
C815 C 0.16599 0.4396 0.3669 0.0
C816 C 0.74324 0.67124 0.50642 0.0
C817 C 0.75596 0.63001 0.52159 0.0
C818 C 0.72045 0.66228 0.4845 0.0
C819 C 0.70929 0.61174 0.47689 0.0
H820 H 0.74966 0.71085 0.5118 0.0
H821 H 0.70853 0.69521 0.47412 0.0
S822 S 0.73147 0.49069 0.5104 0.0
N823 N 0.75396 0.53677 0.52732 0.0
N824 N 0.71075 0.52051 0.48688 0.0
C825 C 0.72234 0.57049 0.49182 0.0
C826 C 0.74574 0.57939 0.5139 0.0
C827 C 0.22866 1.00278 0.75527 0.0
C828 C 0.19306 0.98263 0.77158 0.0
C829 C 0.23403 0.98111 0.73288 0.0
C830 C 0.20378 0.93858 0.72584 0.0
H831 H 0.25486 1.03345 0.76027 0.0
H832 H 0.26473 0.99507 0.72181 0.0
S833 S 0.10012 0.87609 0.76024 0.0
N834 N 0.12302 0.92137 0.7775 0.0
N835 N 0.13388 0.88067 0.73617 0.0
C836 C 0.1659 0.92069 0.74136 0.0
C837 C 0.16042 0.94248 0.76398 0.0
C838 C 0.8034 0.45535 1.00113 0.0
C839 C 0.80739 0.40877 1.01418 0.0
C840 C 0.82886 0.46213 0.97974 0.0
C841 C 0.85819 0.42207 0.96987 0.0
H842 H 0.7834 0.48858 1.00799 0.0
H843 H 0.82879 0.50021 0.97187 0.0
S844 S 0.87108 0.28849 0.99292 0.0
N845 N 0.83507 0.31847 1.01223 0.0
N846 N 0.88379 0.3321 0.97284 0.0
C847 C 0.85811 0.37391 0.98129 0.0
C848 C 0.83224 0.36686 1.00301 0.0
C849 C 0.42443 0.11727 0.23306 0.0
C850 C 0.3738 0.13199 0.22678 0.0
C851 C 0.43488 0.09315 0.25464 0.0
C852 C 0.39508 0.08246 0.27072 0.0
H853 H 0.45648 0.12718 0.22188 0.0
H854 H 0.47459 0.08378 0.25898 0.0
S855 S 0.25626 0.11595 0.26294 0.0
N856 N 0.28399 0.13552 0.23881 0.0
N857 N 0.30312 0.09033 0.27868 0.0
C858 C 0.3443 0.09636 0.26434 0.0
C859 C 0.33387 0.12099 0.24262 0.0
C860 C 0.42096 0.41369 0.61187 0.0
C861 C 0.40117 0.44844 0.62843 0.0
C862 C 0.3978 0.40758 0.59 0.0
C863 C 0.35386 0.43645 0.58334 0.0
H864 H 0.45619 0.39236 0.61555 0.0
H865 H 0.41521 0.38053 0.57804 0.0
S866 S 0.2879 0.53475 0.61968 0.0
N867 N 0.33494 0.51246 0.63636 0.0
N868 N 0.29223 0.50246 0.59521 0.0
C869 C 0.33308 0.47087 0.59985 0.0
C870 C 0.35643 0.47649 0.62232 0.0
C871 C 0.93678 0.09154 0.35005 0.0
C872 C 0.89501 0.08242 0.33474 0.0
C873 C 0.92898 0.11333 0.37223 0.0
C874 C 0.8791 0.12647 0.38 0.0
H875 H 0.97591 0.08272 0.34468 0.0
H876 H 0.96235 0.12255 0.38277 0.0
S877 S 0.75743 0.11398 0.34638 0.0
N878 N 0.80224 0.09077 0.32905 0.0
N879 N 0.78802 0.13069 0.37022 0.0
C880 C 0.83733 0.11691 0.36497 0.0
C881 C 0.8451 0.0952 0.34256 0.0
C882 C 0.20505 0.63763 0.11377 0.0
C883 C 0.23413 0.62721 0.13399 0.0
C884 C 0.2278 0.6408 0.09198 0.0
C885 C 0.28116 0.63379 0.089 0.0
H886 H 0.16374 0.64373 0.11457 0.0
H887 H 0.20302 0.64884 0.07726 0.0
S888 S 0.37521 0.60236 0.13564 0.0
N889 N 0.31929 0.60711 0.14929 0.0
N890 N 0.36278 0.61344 0.10801 0.0
C891 C 0.31092 0.62141 0.10879 0.0
C892 C 0.28734 0.61808 0.13129 0.0
C893 C 0.65073 0.98487 0.85291 0.0
C894 C 0.69049 1.01125 0.84091 0.0
C895 C 0.66006 0.95817 0.87385 0.0
C896 C 0.70912 0.95777 0.88443 0.0
H897 H 0.61225 0.98261 0.84561 0.0
H898 H 0.62921 0.93497 0.88112 0.0
S899 S 0.8274 1.0192 0.861 0.0
N900 N 0.7821 1.03392 0.84194 0.0
N901 N 0.79796 0.98586 0.88147 0.0
C902 C 0.74857 0.98593 0.87347 0.0
C903 C 0.73964 1.01238 0.85187 0.0
C904 C 0.52338 0.28231 0.15488 0.0
C905 C 0.49539 0.28332 0.17584 0.0
C906 C 0.57661 0.29464 0.15403 0.0
C907 C 0.60462 0.30694 0.17418 0.0
H908 H 0.50387 0.2727 0.13889 0.0
H909 H 0.59613 0.29392 0.13749 0.0
S910 S 0.54978 0.31749 0.23315 0.0
N911 N 0.50019 0.29979 0.21707 0.0
N912 N 0.5998 0.32125 0.21553 0.0
C913 C 0.57726 0.30795 0.19518 0.0
C914 C 0.52293 0.29661 0.19599 0.0
C915 C 0.55377 0.75649 0.44052 0.0
C916 C 0.56146 0.72898 0.41977 0.0
C917 C 0.54238 0.81018 0.44052 0.0
C918 C 0.53637 0.8386 0.41976 0.0
H919 H 0.55768 0.73663 0.45696 0.0
H920 H 0.53765 0.82948 0.45697 0.0
S921 S 0.55111 0.78497 0.36071 0.0
N922 N 0.56223 0.73487 0.37787 0.0
N923 N 0.53861 0.8344 0.37788 0.0
C924 C 0.54299 0.81132 0.39893 0.0
C925 C 0.55612 0.75708 0.39894 0.0
C926 C 1.02334 0.78125 0.64986 0.0
C927 C 0.99816 0.76387 0.67 0.0
C928 C 0.07594 0.79655 0.65031 0.0
C929 C 0.10582 0.79346 0.67075 0.0
H930 H 1.00192 0.78437 0.6338 0.0
H931 H 0.09349 0.81042 0.63448 0.0
S932 S 0.05797 0.75077 0.72812 0.0
N933 N 1.00698 0.74578 0.71103 0.0
N934 N 0.10559 0.77176 0.71159 0.0
C935 C 0.08107 0.77548 0.69085 0.0
C936 C 1.0274 0.76147 0.69055 0.0
C937 C 1.00453 0.28749 0.911 0.0
C938 C 1.03802 0.32526 0.92034 0.0
C939 C 1.01817 0.23444 0.91049 0.0
C940 C 0.0664 0.21686 0.91879 0.0
H941 H 0.96698 0.29876 0.90432 0.0
H942 H 0.99083 0.20697 0.90341 0.0
S943 S 0.16676 0.29808 0.94665 0.0
N944 N 0.12083 0.33963 0.9394 0.0
N945 N 0.14646 0.2409 0.9378 0.0
C946 C 0.1001 0.25388 0.92826 0.0
C947 C 0.08596 0.30767 0.92919 0.0
C948 C 0.5764 0.77798 0.95638 0.0
C949 C 0.59932 0.80032 0.93668 0.0
C950 C 0.52343 0.76408 0.9566 0.0
C951 C 0.49081 0.77292 0.9373 0.0
H952 H 0.59985 0.7699 0.97151 0.0
H953 H 0.50793 0.74627 0.97207 0.0
S954 S 0.5316 0.83283 0.88189 0.0
N955 N 0.58478 0.83245 0.89776 0.0
N956 N 0.48633 0.80621 0.89806 0.0
C957 C 0.51336 0.79616 0.91772 0.0
C958 C 0.56717 0.80982 0.91744 0.0
C959 C 0.54901 0.31627 0.66609 0.0
C960 C 0.53596 0.34222 0.6867 0.0
C961 C 0.56104 0.26273 0.66595 0.0
C962 C 0.56245 0.23321 0.68653 0.0
H963 H 0.54902 0.33733 0.64986 0.0
H964 H 0.5702 0.24453 0.64962 0.0
S965 S 0.53255 0.28284 0.74513 0.0
N966 N 0.5248 0.33387 0.72814 0.0
N967 N 0.54994 0.23467 0.7281 0.0
C968 C 0.55026 0.259 0.70724 0.0
C969 C 0.53635 0.31298 0.70727 0.0
C970 C 0.09136 0.25176 0.4405 0.0
C971 C 0.1088 0.30262 0.43608 0.0
C972 C 1.03818 0.239 0.43985 0.0
C973 C 1.00027 0.27612 0.43392 0.0
H974 H 0.11903 0.22156 0.44466 0.0
H975 H 1.0268 0.19944 0.44348 0.0
S976 S 1.02521 0.41448 0.4202 0.0
N977 N 0.08317 0.39026 0.42563 0.0
N978 N 0.9843 0.36601 0.42351 0.0
C979 C 1.01727 0.32693 0.42925 0.0
C980 C 0.07111 0.34022 0.43056 0.0
C981 C 0.04192 0.75804 0.16873 0.0
C982 C 0.06806 0.73798 0.1883 0.0
C983 C 1.02991 0.81107 0.16663 0.0
C984 C 0.04177 0.84616 0.18437 0.0
H985 H 1.03124 0.73276 0.15465 0.0
H986 H 1.01036 0.82455 0.15115 0.0
S987 S 0.11003 0.81441 0.23909 0.0
N988 N 0.10668 0.7584 0.22543 0.0
N989 N 0.08128 0.85738 0.22212 0.0
C990 C 0.06733 0.82679 0.20412 0.0
C991 C 0.08124 0.77301 0.2059 0.0
C992 C 0.20472 0.35461 0.15993 0.0
C993 C 0.25272 0.35867 0.14859 0.0
C994 C 0.17383 0.39881 0.16404 0.0
C995 C 0.18859 0.44809 0.15586 0.0
H996 H 0.19255 0.31767 0.16696 0.0
H997 H 0.13873 0.39457 0.17406 0.0
S998 S 0.30834 0.4781 0.12338 0.0
N999 N 0.31251 0.41536 0.12871 0.0
N1000 N 0.25284 0.49727 0.1346 0.0
C1001 C 0.23481 0.45179 0.14321 0.0
C1002 C 0.26718 0.40738 0.13999 0.0
C1003 C 0.40044 0.47361 0.40381 0.0
C1004 C 0.40066 0.41905 0.40418 0.0
C1005 C 0.44594 0.50186 0.39933 0.0
C1006 C 0.49349 0.47637 0.39597 0.0
H1007 H 0.36528 0.49455 0.4079 0.0
H1008 H 0.44467 0.54371 0.40049 0.0
S1009 S 0.51413 0.33411 0.39502 0.0
N1010 N 0.45144 0.34077 0.39966 0.0
N1011 N 0.5374 0.39347 0.39274 0.0
C1012 C 0.49351 0.42183 0.3955 0.0
C1013 C 0.44703 0.39323 0.39933 0.0
C1014 C 0.40137 0.71836 0.63973 0.0
C1015 C 0.34829 0.72074 0.64515 0.0
C1016 C 0.43082 0.67328 0.64392 0.0
C1017 C 0.40883 0.62995 0.65488 0.0
H1018 H 0.42115 0.7529 0.63381 0.0
H1019 H 0.47192 0.67397 0.64033 0.0
S1020 S 0.27125 0.6156 0.67186 0.0
N1021 N 0.27416 0.67371 0.65985 0.0
N1022 N 0.33058 0.59194 0.6707 0.0
C1023 C 0.35559 0.63134 0.65984 0.0
C1024 C 0.32505 0.6759 0.65417 0.0
C1025 C 0.16305 0.54622 0.91719 0.0
C1026 C 0.1145 0.56454 0.90972 0.0
C1027 C 0.20609 0.57885 0.91825 0.0
C1028 C 0.20273 0.63134 0.91177 0.0
H1029 H 0.167 0.50701 0.92375 0.0
H1030 H 0.2418 0.56325 0.92527 0.0
S1031 S 0.08458 0.69843 0.89072 0.0
N1032 N 0.06553 0.63822 0.89541 0.0
N1033 N 0.14697 0.69986 0.89699 0.0
C1034 C 0.15508 0.64966 0.90312 0.0
C1035 C 0.11085 0.61619 0.90218 0.0
C1036 C 0.89665 0.70615 0.95851 0.0
C1037 C 0.8433 0.70671 0.95345 0.0
C1038 C 0.92611 0.66023 0.95687 0.0
C1039 C 0.90338 0.61365 0.94956 0.0
H1040 H 0.91647 0.74217 0.96213 0.0
H1041 H 0.96747 0.66201 0.95981 0.0
S1042 S 0.76567 0.59462 0.93384 0.0
N1043 N 0.76921 0.65634 0.94113 0.0
N1044 N 0.82452 0.57079 0.93737 0.0
C1045 C 0.84994 0.6134 0.94508 0.0
C1046 C 0.8199 0.65973 0.9472 0.0
C1047 C 0.7018 0.59066 0.69917 0.0
C1048 C 0.70594 0.64329 0.70544 0.0
C1049 C 0.65631 0.56218 0.70328 0.0
C1050 C 0.61256 0.58549 0.71329 0.0
H1051 H 0.73322 0.57178 0.69013 0.0
H1052 H 0.65394 0.52296 0.69679 0.0
S1053 S 0.60217 0.72227 0.73194 0.0
N1054 N 0.66215 0.71708 0.72244 0.0
N1055 N 0.57601 0.66436 0.72893 0.0
C1056 C 0.61661 0.63757 0.72006 0.0
C1057 C 0.66335 0.66626 0.71645 0.0
C1058 C 0.71006 0.34629 0.45863 0.0
C1059 C 0.76424 0.35274 0.45785 0.0
C1060 C 0.67617 0.3883 0.45444 0.0
C1061 C 0.69534 0.43772 0.44875 0.0
H1062 H 0.69368 0.30825 0.46153 0.0
H1063 H 0.63483 0.38148 0.4545 0.0
S1064 S 0.83324 0.47619 0.44591 0.0
N1065 N 0.83476 0.41414 0.45283 0.0
N1066 N 0.77143 0.49127 0.44349 0.0
C1067 C 0.74912 0.44488 0.44846 0.0
C1068 C 0.7834 0.40298 0.45351 0.0
C1069 C 0.89599 0.49376 0.18657 0.0
C1070 C 0.89596 0.44343 0.19595 0.0
C1071 C 0.94046 0.52446 0.18691 0.0
C1072 C 0.9872 0.50628 0.19649 0.0
H1073 H 0.86179 0.50901 0.17805 0.0
H1074 H 0.9389 0.56203 0.17855 0.0
S1075 S 1.00796 0.37772 0.22367 0.0
N1076 N 0.94644 0.37718 0.21581 0.0
N1077 N 1.0306 0.4352 0.21616 0.0
C1078 C 0.9874 0.45701 0.20691 0.0
C1079 C 0.94165 0.4255 0.20668 0.0
C1080 C 0.77762 0.89368 0.65913 0.0
C1081 C 0.75275 0.84788 0.65207 0.0
C1082 C 0.74988 0.94031 0.66185 0.0
C1083 C 0.69659 0.94317 0.65691 0.0
H1084 H 0.81796 0.89266 0.66416 0.0
H1085 H 0.76986 0.97382 0.66866 0.0
S1086 S 0.614 0.83453 0.63724 0.0
N1087 N 0.67211 0.80854 0.64008 0.0
N1088 N 0.62058 0.89634 0.64385 0.0
C1089 C 0.67206 0.89836 0.64856 0.0
C1090 C 0.69998 0.85071 0.64647 0.0
C1091 C 0.89917 0.9674 0.91078 0.0
C1092 C 0.8967 0.91437 0.90522 0.0
C1093 C 0.94539 0.99535 0.90875 0.0
C1094 C 0.99143 0.97101 0.9018 0.0
H1095 H 0.8656 0.98703 0.91775 0.0
H1096 H 0.94605 1.03521 0.91457 0.0
S1097 S 1.00681 0.83264 0.88667 0.0
N1098 N 0.94451 0.83878 0.89241 0.0
N1099 N 1.03223 0.89082 0.89001 0.0
C1100 C 0.98945 0.9184 0.89584 0.0
C1101 C 0.94191 0.89018 0.8972 0.0
C1102 C 0.86267 0.14223 0.15799 0.0
C1103 C 0.91711 0.14331 0.15996 0.0
C1104 C 0.8339 0.18776 0.15397 0.0
C1105 C 0.85862 0.23598 0.15205 0.0
H1106 H 0.84197 0.10617 0.16045 0.0
H1107 H 0.79205 0.18573 0.15429 0.0
S1108 S 0.99969 0.26006 0.15628 0.0
N1109 N 0.99423 0.19665 0.1592 0.0
N1110 N 0.9403 0.28211 0.15237 0.0
C1111 C 0.91299 0.2372 0.15318 0.0
C1112 C 0.94225 0.19092 0.15692 0.0
C1113 C 0.61032 0.15049 0.40312 0.0
C1114 C 0.6108 0.09616 0.40046 0.0
C1115 C 0.65573 0.17842 0.40779 0.0
C1116 C 0.70313 0.15279 0.41108 0.0
H1117 H 0.5739 0.17135 0.40271 0.0
H1118 H 0.65301 0.21993 0.41023 0.0
S1119 S 0.72605 1.01125 0.40492 0.0
N1120 N 0.66364 1.01844 0.39961 0.0
N1121 N 0.74831 0.0699 0.4103 0.0
C1122 C 0.7045 0.0986 0.40778 0.0
C1123 C 0.65859 0.07056 0.40194 0.0
C1124 C 0.33146 0.17783 0.45131 0.0
C1125 C 0.35627 0.22496 0.45623 0.0
C1126 C 0.3598 0.13158 0.4493 0.0
C1127 C 0.41379 0.13083 0.45247 0.0
H1128 H 0.29064 0.17748 0.447 0.0
H1129 H 0.33973 0.09672 0.44406 0.0
S1130 S 0.49678 0.24423 0.46494 0.0
N1131 N 0.43758 0.26829 0.46372 0.0
N1132 N 0.49076 0.18125 0.4608 0.0
C1133 C 0.43861 0.17727 0.45843 0.0
C1134 C 0.40985 0.22441 0.46005 0.0
C1135 C 0.10559 0.14335 0.20044 0.0
C1136 C 0.11321 0.08945 0.20323 0.0
C1137 C 0.14764 0.17696 0.19601 0.0
C1138 C 0.19829 0.15746 0.19369 0.0
H1139 H 0.06685 0.15936 0.20073 0.0
H1140 H 0.14012 0.21783 0.19326 0.0
S1141 S 0.23916 1.02039 0.20146 0.0
N1142 N 0.17602 1.01952 0.2054 0.0
N1143 N 0.25369 0.08134 0.19594 0.0
C1144 C 0.20625 0.10404 0.19725 0.0
C1145 C 0.16413 0.07046 0.20233 0.0
C1146 C 0.23944 0.92662 0.95635 0.0
C1147 C 0.18505 0.92757 0.95509 0.0
C1148 C 0.26655 0.88067 0.96175 0.0
C1149 C 0.2402 0.83337 0.96444 0.0
H1150 H 0.26129 0.96104 0.95215 0.0
H1151 H 0.30843 0.8813 0.96147 0.0
S1152 S 0.09784 0.81551 0.96272 0.0
N1153 N 0.10586 0.87821 0.95826 0.0
N1154 N 0.15649 0.79104 0.96611 0.0
C1155 C 0.18572 0.83446 0.96391 0.0
C1156 C 0.15822 0.88162 0.95959 0.0
C1157 C 0.43977 0.91924 0.67837 0.0
C1158 C 0.39913 0.92182 0.69424 0.0
C1159 C 0.48576 0.94594 0.68207 0.0
C1160 C 0.49327 0.97818 0.70155 0.0
H1161 H 0.43636 0.89576 0.66295 0.0
H1162 H 0.51555 0.94131 0.66911 0.0
S1163 S 0.39764 0.99937 0.74807 0.0
N1164 N 0.36845 0.95897 0.7302 0.0
N1165 N 0.45522 1.01113 0.73684 0.0
C1166 C 0.45268 0.98165 0.71752 0.0
C1167 C 0.40566 0.95302 0.71396 0.0
loop_
_geom_bond_atom_site_label_1
_geom_bond_atom_site_label_2
_geom_bond_distance
_geom_bond_site_symmetry_2
_ccdc_geom_bond_type
Dy0 O3 2.307 . S
Dy0 O5 2.395 . S
Dy0 O6 2.379 . S
Dy0 O8 2.339 . S
Dy0 O10 2.298 . S
Dy0 O14 2.275 . S
Dy0 C22 2.738 . S
Dy1 O4 2.298 . S
Dy1 O7 2.275 . S
Dy1 O9 2.307 . S
Dy1 O11 2.395 . S
Dy1 O12 2.379 . S
Dy1 O15 2.339 . S
Dy1 C31 2.738 . S
C2 O14 1.254 . S
C2 O15 1.257 . S
O3 Dy0 2.307 . S
O3 C13 1.266 . S
O4 Dy1 2.298 . S
O4 C13 1.236 . S
O5 Dy0 2.395 . S
O5 C22 1.255 . S
O6 Dy0 2.379 . S
O6 C22 1.249 . S
O7 Dy1 2.275 . S
O7 C23 1.254 . S
O8 Dy0 2.339 . S
O8 C23 1.257 . S
O9 Dy1 2.307 . S
O9 C24 1.266 . S
O10 Dy0 2.298 . S
O10 C24 1.236 . S
O11 Dy1 2.395 . S
O11 C31 1.255 . S
O12 Dy1 2.379 . S
O12 C31 1.249 . S
C13 O3 1.266 . S
C13 O4 1.236 . S
O14 Dy0 2.275 . S
O14 C2 1.254 . S
O15 Dy1 2.339 . S
O15 C2 1.257 . S
C16 C19 1.344 . S
C16 C20 1.328 . S
C16 C22 1.516 . S
C17 C18 1.304 . S
C17 C21 1.323 1_545 S
C18 C17 1.304 . S
C18 C19 1.371 . S
C18 H32 0.930 . S
C19 C16 1.344 . S
C19 C18 1.371 . S
C19 H33 0.931 . S
C20 C16 1.328 . S
C20 C21 1.433 1_545 S
C20 H34 0.931 1_545 S
C21 C17 1.323 1_565 S
C21 C20 1.433 1_565 S
C21 H35 0.933 . S
C22 Dy0 2.738 . S
C22 O5 1.255 . S
C22 O6 1.249 . S
C22 C16 1.516 . S
C23 O7 1.254 . S
C23 O8 1.257 . S
C24 O9 1.266 . S
C24 O10 1.236 . S
C25 C28 1.344 . S
C25 C29 1.328 . S
C25 C31 1.516 . S
C26 C27 1.304 . S
C26 C30 1.323 . S
C27 C26 1.304 . S
C27 C28 1.371 . S
C27 H36 0.930 . S
C28 C25 1.344 . S
C28 C27 1.371 . S
C28 H37 0.931 . S
C29 C25 1.328 . S
C29 C30 1.433 . S
C29 H38 0.931 . S
C30 C26 1.323 . S
C30 C29 1.433 . S
C30 H39 0.933 . S
C31 Dy1 2.738 . S
C31 O11 1.255 . S
C31 O12 1.249 . S
C31 C25 1.516 . S
H32 C18 0.930 . S
H33 C19 0.931 . S
H34 C20 0.931 1_565 S
H35 C21 0.933 . S
H36 C27 0.930 . S
H37 C28 0.931 . S
H38 C29 0.931 . S
H39 C30 0.933 . S
Dy40 O43 2.307 . S
Dy40 O45 2.395 . S
Dy40 O46 2.379 . S
Dy40 O48 2.339 . S
Dy40 O50 2.298 . S
Dy40 O54 2.275 . S
Dy40 C62 2.738 . S
Dy41 O44 2.298 . S
Dy41 O47 2.275 . S
Dy41 O49 2.307 . S
Dy41 O51 2.395 . S
Dy41 O52 2.379 . S
Dy41 O55 2.339 . S
Dy41 C71 2.738 . S
C42 O54 1.254 . S
C42 O55 1.257 . S
O43 Dy40 2.307 . S
O43 C53 1.266 . S
O44 Dy41 2.298 . S
O44 C53 1.236 . S
O45 Dy40 2.395 . S
O45 C62 1.255 . S
O46 Dy40 2.379 . S
O46 C62 1.249 . S
O47 Dy41 2.275 . S
O47 C63 1.254 . S
O48 Dy40 2.339 . S
O48 C63 1.257 . S
O49 Dy41 2.307 . S
O49 C64 1.266 . S
O50 Dy40 2.298 . S
O50 C64 1.236 . S
O51 Dy41 2.395 . S
O51 C71 1.255 . S
O52 Dy41 2.379 . S
O52 C71 1.249 . S
C53 O43 1.266 . S
C53 O44 1.236 . S
O54 Dy40 2.275 . S
O54 C42 1.254 . S
O55 Dy41 2.339 . S
O55 C42 1.257 . S
C56 C59 1.344 . S
C56 C60 1.328 . S
C56 C62 1.516 . S
C57 C58 1.304 . S
C57 C61 1.323 . S
C58 C57 1.304 . S
C58 C59 1.371 . S
C58 H72 0.930 . S
C59 C56 1.344 . S
C59 C58 1.371 . S
C59 H73 0.931 . S
C60 C56 1.328 . S
C60 C61 1.433 . S
C60 H74 0.931 . S
C61 C57 1.323 . S
C61 C60 1.433 . S
C61 H75 0.933 . S
C62 Dy40 2.738 . S
C62 O45 1.255 . S
C62 O46 1.249 . S
C62 C56 1.516 . S
C63 O47 1.254 . S
C63 O48 1.257 . S
C64 O49 1.266 . S
C64 O50 1.236 . S
C65 C68 1.344 . S
C65 C69 1.328 . S
C65 C71 1.516 . S
C66 C67 1.304 . S
C66 C70 1.323 . S
C67 C66 1.304 . S
C67 C68 1.371 . S
C67 H76 0.930 . S
C68 C65 1.344 . S
C68 C67 1.371 . S
C68 H77 0.931 . S
C69 C65 1.328 . S
C69 C70 1.433 . S
C69 H78 0.931 . S
C70 C66 1.323 . S
C70 C69 1.433 . S
C70 H79 0.933 . S
C71 Dy41 2.738 . S
C71 O51 1.255 . S
C71 O52 1.249 . S
C71 C65 1.516 . S
H72 C58 0.930 . S
H73 C59 0.931 . S
H74 C60 0.931 . S
H75 C61 0.933 . S
H76 C67 0.930 . S
H77 C68 0.931 . S
H78 C69 0.931 . S
H79 C70 0.933 . S
Dy80 O83 2.307 . S
Dy80 O85 2.395 . S
Dy80 O86 2.379 . S
Dy80 O88 2.339 . S
Dy80 O90 2.298 . S
Dy80 O94 2.275 . S
Dy80 C102 2.738 . S
Dy81 O84 2.298 . S
Dy81 O87 2.275 . S
Dy81 O89 2.307 . S
Dy81 O91 2.395 . S
Dy81 O92 2.379 . S
Dy81 O95 2.339 . S
Dy81 C111 2.738 . S
C82 O94 1.254 . S
C82 O95 1.257 . S
O83 Dy80 2.307 . S
O83 C93 1.266 . S
O84 Dy81 2.298 . S
O84 C93 1.236 . S
O85 Dy80 2.395 . S
O85 C102 1.255 . S
O86 Dy80 2.379 . S
O86 C102 1.249 . S
O87 Dy81 2.275 . S
O87 C103 1.254 . S
O88 Dy80 2.339 . S
O88 C103 1.257 . S
O89 Dy81 2.307 . S
O89 C104 1.266 . S
O90 Dy80 2.298 . S
O90 C104 1.236 . S
O91 Dy81 2.395 . S
O91 C111 1.255 . S
O92 Dy81 2.379 . S
O92 C111 1.249 . S
C93 O83 1.266 . S
C93 O84 1.236 . S
O94 Dy80 2.275 . S
O94 C82 1.254 . S
O95 Dy81 2.339 . S
O95 C82 1.257 . S
C96 C99 1.344 . S
C96 C100 1.328 . S
C96 C102 1.516 . S
C97 C98 1.304 . S
C97 C101 1.323 1_565 S
C98 C97 1.304 . S
C98 C99 1.371 . S
C98 H112 0.930 . S
C99 C96 1.344 . S
C99 C98 1.371 . S
C99 H113 0.931 . S
C100 C96 1.328 . S
C100 C101 1.433 1_565 S
C100 H114 0.931 1_565 S
C101 C97 1.323 1_545 S
C101 C100 1.433 1_545 S
C101 H115 0.933 . S
C102 Dy80 2.738 . S
C102 O85 1.255 . S
C102 O86 1.249 . S
C102 C96 1.516 . S
C103 O87 1.254 . S
C103 O88 1.257 . S
C104 O89 1.266 . S
C104 O90 1.236 . S
C105 C108 1.344 . S
C105 C109 1.328 . S
C105 C111 1.516 . S
C106 C107 1.304 . S
C106 C110 1.323 . S
C107 C106 1.304 . S
C107 C108 1.371 . S
C107 H116 0.930 . S
C108 C105 1.344 . S
C108 C107 1.371 . S
C108 H117 0.931 . S
C109 C105 1.328 . S
C109 C110 1.433 . S
C109 H118 0.931 . S
C110 C106 1.323 . S
C110 C109 1.433 . S
C110 H119 0.933 . S
C111 Dy81 2.738 . S
C111 O91 1.255 . S
C111 O92 1.249 . S
C111 C105 1.516 . S
H112 C98 0.930 . S
H113 C99 0.931 . S
H114 C100 0.931 1_545 S
H115 C101 0.933 . S
H116 C107 0.930 . S
H117 C108 0.931 . S
H118 C109 0.931 . S
H119 C110 0.933 . S
Dy120 O123 2.307 . S
Dy120 O125 2.395 . S
Dy120 O126 2.379 . S
Dy120 O128 2.339 . S
Dy120 O130 2.298 . S
Dy120 O134 2.275 . S
Dy120 C142 2.738 . S
Dy121 O124 2.298 . S
Dy121 O127 2.275 . S
Dy121 O129 2.307 . S
Dy121 O131 2.395 . S
Dy121 O132 2.379 . S
Dy121 O135 2.339 . S
Dy121 C151 2.738 . S
C122 O134 1.254 . S
C122 O135 1.257 . S
O123 Dy120 2.307 . S
O123 C133 1.266 . S
O124 Dy121 2.298 . S
O124 C133 1.236 . S
O125 Dy120 2.395 . S
O125 C142 1.255 . S
O126 Dy120 2.379 . S
O126 C142 1.249 . S
O127 Dy121 2.275 . S
O127 C143 1.254 . S
O128 Dy120 2.339 . S
O128 C143 1.257 . S
O129 Dy121 2.307 . S
O129 C144 1.266 . S
O130 Dy120 2.298 . S
O130 C144 1.236 . S
O131 Dy121 2.395 . S
O131 C151 1.255 . S
O132 Dy121 2.379 . S
O132 C151 1.249 . S
C133 O123 1.266 . S
C133 O124 1.236 . S
O134 Dy120 2.275 . S
O134 C122 1.254 . S
O135 Dy121 2.339 . S
O135 C122 1.257 . S
C136 C139 1.344 . S
C136 C140 1.328 . S
C136 C142 1.516 . S
C137 C138 1.304 . S
C137 C141 1.323 . S
C138 C137 1.304 . S
C138 C139 1.371 . S
C138 H152 0.930 . S
C139 C136 1.344 . S
C139 C138 1.371 . S
C139 H153 0.931 . S
C140 C136 1.328 . S
C140 C141 1.433 . S
C140 H154 0.931 . S
C141 C137 1.323 . S
C141 C140 1.433 . S
C141 H155 0.933 . S
C142 Dy120 2.738 . S
C142 O125 1.255 . S
C142 O126 1.249 . S
C142 C136 1.516 . S
C143 O127 1.254 . S
C143 O128 1.257 . S
C144 O129 1.266 . S
C144 O130 1.236 . S
C145 C148 1.344 . S
C145 C149 1.328 1_655 S
C145 C151 1.516 . S
C146 C147 1.304 1_455 S
C146 C150 1.323 . S
C147 C146 1.304 1_655 S
C147 C148 1.371 . S
C147 H156 0.930 . S
C148 C145 1.344 . S
C148 C147 1.371 . S
C148 H157 0.931 . S
C149 C145 1.328 1_455 S
C149 C150 1.433 . S
C149 H158 0.931 . S
C150 C146 1.323 . S
C150 C149 1.433 . S
C150 H159 0.933 . S
C151 Dy121 2.738 . S
C151 O131 1.255 . S
C151 O132 1.249 . S
C151 C145 1.516 . S
H152 C138 0.930 . S
H153 C139 0.931 . S
H154 C140 0.931 . S
H155 C141 0.933 . S
H156 C147 0.930 . S
H157 C148 0.931 . S
H158 C149 0.931 . S
H159 C150 0.933 . S
Dy160 O163 2.307 . S
Dy160 O165 2.395 . S
Dy160 O166 2.379 . S
Dy160 O168 2.339 . S
Dy160 O170 2.298 . S
Dy160 O174 2.275 . S
Dy160 C182 2.738 . S
Dy161 O164 2.298 . S
Dy161 O167 2.275 . S
Dy161 O169 2.307 . S
Dy161 O171 2.395 . S
Dy161 O172 2.379 . S
Dy161 O175 2.339 . S
Dy161 C191 2.738 . S
C162 O174 1.254 . S
C162 O175 1.257 . S
O163 Dy160 2.307 . S
O163 C173 1.266 . S
O164 Dy161 2.298 . S
O164 C173 1.236 . S
O165 Dy160 2.395 . S
O165 C182 1.255 . S
O166 Dy160 2.379 . S
O166 C182 1.249 . S
O167 Dy161 2.275 . S
O167 C183 1.254 . S
O168 Dy160 2.339 . S
O168 C183 1.257 . S
O169 Dy161 2.307 . S
O169 C184 1.266 . S
O170 Dy160 2.298 . S
O170 C184 1.236 . S
O171 Dy161 2.395 . S
O171 C191 1.255 . S
O172 Dy161 2.379 . S
O172 C191 1.249 . S
C173 O163 1.266 . S
C173 O164 1.236 . S
O174 Dy160 2.275 . S
O174 C162 1.254 . S
O175 Dy161 2.339 . S
O175 C162 1.257 . S
C176 C179 1.344 . S
C176 C180 1.328 . S
C176 C182 1.516 . S
C177 C178 1.304 . S
C177 C181 1.323 . S
C178 C177 1.304 . S
C178 C179 1.371 . S
C178 H192 0.930 . S
C179 C176 1.344 . S
C179 C178 1.371 . S
C179 H193 0.931 . S
C180 C176 1.328 . S
C180 C181 1.433 . S
C180 H194 0.931 . S
C181 C177 1.323 . S
C181 C180 1.433 . S
C181 H195 0.933 . S
C182 Dy160 2.738 . S
C182 O165 1.255 . S
C182 O166 1.249 . S
C182 C176 1.516 . S
C183 O167 1.254 . S
C183 O168 1.257 . S
C184 O169 1.266 . S
C184 O170 1.236 . S
C185 C188 1.344 . S
C185 C189 1.328 . S
C185 C191 1.516 . S
C186 C187 1.304 . S
C186 C190 1.323 1_565 S
C187 C186 1.304 . S
C187 C188 1.371 . S
C187 H196 0.930 . S
C188 C185 1.344 . S
C188 C187 1.371 . S
C188 H197 0.931 . S
C189 C185 1.328 . S
C189 C190 1.433 1_565 S
C189 H198 0.931 1_565 S
C190 C186 1.323 1_545 S
C190 C189 1.433 1_545 S
C190 H199 0.933 . S
C191 Dy161 2.738 . S
C191 O171 1.255 . S
C191 O172 1.249 . S
C191 C185 1.516 . S
H192 C178 0.930 . S
H193 C179 0.931 . S
H194 C180 0.931 . S
H195 C181 0.933 . S
H196 C187 0.930 . S
H197 C188 0.931 . S
H198 C189 0.931 1_545 S
H199 C190 0.933 . S
Dy200 O203 2.307 . S
Dy200 O205 2.395 . S
Dy200 O206 2.379 . S
Dy200 O208 2.339 . S
Dy200 O210 2.298 . S
Dy200 O214 2.275 . S
Dy200 C222 2.738 . S
Dy201 O204 2.298 . S
Dy201 O207 2.275 . S
Dy201 O209 2.307 . S
Dy201 O211 2.395 . S
Dy201 O212 2.379 . S
Dy201 O215 2.339 . S
Dy201 C231 2.738 . S
C202 O214 1.254 . S
C202 O215 1.257 . S
O203 Dy200 2.307 . S
O203 C213 1.266 . S
O204 Dy201 2.298 . S
O204 C213 1.236 . S
O205 Dy200 2.395 . S
O205 C222 1.255 . S
O206 Dy200 2.379 . S
O206 C222 1.249 . S
O207 Dy201 2.275 . S
O207 C223 1.254 . S
O208 Dy200 2.339 . S
O208 C223 1.257 . S
O209 Dy201 2.307 . S
O209 C224 1.266 . S
O210 Dy200 2.298 . S
O210 C224 1.236 . S
O211 Dy201 2.395 . S
O211 C231 1.255 . S
O212 Dy201 2.379 . S
O212 C231 1.249 . S
C213 O203 1.266 . S
C213 O204 1.236 . S
O214 Dy200 2.275 . S
O214 C202 1.254 . S
O215 Dy201 2.339 . S
O215 C202 1.257 . S
C216 C219 1.344 . S
C216 C220 1.328 . S
C216 C222 1.516 . S
C217 C218 1.304 . S
C217 C221 1.323 . S
C218 C217 1.304 . S
C218 C219 1.371 . S
C218 H232 0.930 . S
C219 C216 1.344 . S
C219 C218 1.371 . S
C219 H233 0.931 . S
C220 C216 1.328 . S
C220 C221 1.433 . S
C220 H234 0.931 . S
C221 C217 1.323 . S
C221 C220 1.433 . S
C221 H235 0.933 . S
C222 Dy200 2.738 . S
C222 O205 1.255 . S
C222 O206 1.249 . S
C222 C216 1.516 . S
C223 O207 1.254 . S
C223 O208 1.257 . S
C224 O209 1.266 . S
C224 O210 1.236 . S
C225 C228 1.344 . S
C225 C229 1.328 . S
C225 C231 1.516 . S
C226 C227 1.304 . S
C226 C230 1.323 . S
C227 C226 1.304 . S
C227 C228 1.371 . S
C227 H236 0.930 . S
C228 C225 1.344 . S
C228 C227 1.371 . S
C228 H237 0.931 . S
C229 C225 1.328 . S
C229 C230 1.433 . S
C229 H238 0.931 . S
C230 C226 1.323 . S
C230 C229 1.433 . S
C230 H239 0.933 . S
C231 Dy201 2.738 . S
C231 O211 1.255 . S
C231 O212 1.249 . S
C231 C225 1.516 . S
H232 C218 0.930 . S
H233 C219 0.931 . S
H234 C220 0.931 . S
H235 C221 0.933 . S
H236 C227 0.930 . S
H237 C228 0.931 . S
H238 C229 0.931 . S
H239 C230 0.933 . S
Dy240 O243 2.307 . S
Dy240 O245 2.395 . S
Dy240 O246 2.379 . S
Dy240 O248 2.339 . S
Dy240 O250 2.298 . S
Dy240 O254 2.275 . S
Dy240 C262 2.738 . S
Dy241 O244 2.298 . S
Dy241 O247 2.275 . S
Dy241 O249 2.307 . S
Dy241 O251 2.395 . S
Dy241 O252 2.379 . S
Dy241 O255 2.339 . S
Dy241 C271 2.738 . S
C242 O254 1.254 . S
C242 O255 1.257 . S
O243 Dy240 2.307 . S
O243 C253 1.266 . S
O244 Dy241 2.298 . S
O244 C253 1.236 . S
O245 Dy240 2.395 . S
O245 C262 1.255 . S
O246 Dy240 2.379 . S
O246 C262 1.249 . S
O247 Dy241 2.275 . S
O247 C263 1.254 . S
O248 Dy240 2.339 . S
O248 C263 1.257 . S
O249 Dy241 2.307 . S
O249 C264 1.266 . S
O250 Dy240 2.298 . S
O250 C264 1.236 . S
O251 Dy241 2.395 . S
O251 C271 1.255 . S
O252 Dy241 2.379 . S
O252 C271 1.249 . S
C253 O243 1.266 . S
C253 O244 1.236 . S
O254 Dy240 2.275 . S
O254 C242 1.254 . S
O255 Dy241 2.339 . S
O255 C242 1.257 . S
C256 C259 1.344 . S
C256 C260 1.328 . S
C256 C262 1.516 . S
C257 C258 1.304 . S
C257 C261 1.323 . S
C258 C257 1.304 . S
C258 C259 1.371 . S
C258 H272 0.930 . S
C259 C256 1.344 . S
C259 C258 1.371 . S
C259 H273 0.931 . S
C260 C256 1.328 . S
C260 C261 1.433 . S
C260 H274 0.931 . S
C261 C257 1.323 . S
C261 C260 1.433 . S
C261 H275 0.933 . S
C262 Dy240 2.738 . S
C262 O245 1.255 . S
C262 O246 1.249 . S
C262 C256 1.516 . S
C263 O247 1.254 . S
C263 O248 1.257 . S
C264 O249 1.266 . S
C264 O250 1.236 . S
C265 C268 1.344 . S
C265 C269 1.328 . S
C265 C271 1.516 . S
C266 C267 1.304 . S
C266 C270 1.323 1_545 S
C267 C266 1.304 . S
C267 C268 1.371 . S
C267 H276 0.930 . S
C268 C265 1.344 . S
C268 C267 1.371 . S
C268 H277 0.931 . S
C269 C265 1.328 . S
C269 C270 1.433 1_545 S
C269 H278 0.931 1_545 S
C270 C266 1.323 1_565 S
C270 C269 1.433 1_565 S
C270 H279 0.933 . S
C271 Dy241 2.738 . S
C271 O251 1.255 . S
C271 O252 1.249 . S
C271 C265 1.516 . S
H272 C258 0.930 . S
H273 C259 0.931 . S
H274 C260 0.931 . S
H275 C261 0.933 . S
H276 C267 0.930 . S
H277 C268 0.931 . S
H278 C269 0.931 1_565 S
H279 C270 0.933 . S
Dy280 O283 2.307 . S
Dy280 O285 2.395 . S
Dy280 O286 2.379 . S
Dy280 O288 2.339 . S
Dy280 O290 2.298 . S
Dy280 O294 2.275 . S
Dy280 C302 2.738 . S
Dy281 O284 2.298 . S
Dy281 O287 2.275 . S
Dy281 O289 2.307 . S
Dy281 O291 2.395 . S
Dy281 O292 2.379 . S
Dy281 O295 2.339 . S
Dy281 C311 2.738 . S
C282 O294 1.254 . S
C282 O295 1.257 . S
O283 Dy280 2.307 . S
O283 C293 1.266 . S
O284 Dy281 2.298 . S
O284 C293 1.236 . S
O285 Dy280 2.395 . S
O285 C302 1.255 . S
O286 Dy280 2.379 . S
O286 C302 1.249 . S
O287 Dy281 2.275 . S
O287 C303 1.254 . S
O288 Dy280 2.339 . S
O288 C303 1.257 . S
O289 Dy281 2.307 . S
O289 C304 1.266 . S
O290 Dy280 2.298 . S
O290 C304 1.236 . S
O291 Dy281 2.395 . S
O291 C311 1.255 . S
O292 Dy281 2.379 . S
O292 C311 1.249 . S
C293 O283 1.266 . S
C293 O284 1.236 . S
O294 Dy280 2.275 . S
O294 C282 1.254 . S
O295 Dy281 2.339 . S
O295 C282 1.257 . S
C296 C299 1.344 . S
C296 C300 1.328 1_455 S
C296 C302 1.516 . S
C297 C298 1.304 1_655 S
C297 C301 1.323 . S
C298 C297 1.304 1_455 S
C298 C299 1.371 . S
C298 H312 0.930 . S
C299 C296 1.344 . S
C299 C298 1.371 . S
C299 H313 0.931 . S
C300 C296 1.328 1_655 S
C300 C301 1.433 . S
C300 H314 0.931 . S
C301 C297 1.323 . S
C301 C300 1.433 . S
C301 H315 0.933 . S
C302 Dy280 2.738 . S
C302 O285 1.255 . S
C302 O286 1.249 . S
C302 C296 1.516 . S
C303 O287 1.254 . S
C303 O288 1.257 . S
C304 O289 1.266 . S
C304 O290 1.236 . S
C305 C308 1.344 . S
C305 C309 1.328 . S
C305 C311 1.516 . S
C306 C307 1.304 . S
C306 C310 1.323 . S
C307 C306 1.304 . S
C307 C308 1.371 . S
C307 H316 0.930 . S
C308 C305 1.344 . S
C308 C307 1.371 . S
C308 H317 0.931 . S
C309 C305 1.328 . S
C309 C310 1.433 . S
C309 H318 0.931 . S
C310 C306 1.323 . S
C310 C309 1.433 . S
C310 H319 0.933 . S
C311 Dy281 2.738 . S
C311 O291 1.255 . S
C311 O292 1.249 . S
C311 C305 1.516 . S
H312 C298 0.930 . S
H313 C299 0.931 . S
H314 C300 0.931 . S
H315 C301 0.933 . S
H316 C307 0.930 . S
H317 C308 0.931 . S
H318 C309 0.931 . S
H319 C310 0.933 . S
Dy320 O323 2.307 . S
Dy320 O325 2.395 . S
Dy320 O326 2.379 . S
Dy320 O328 2.339 . S
Dy320 O330 2.298 . S
Dy320 O334 2.275 . S
Dy320 C342 2.738 . S
Dy321 O324 2.298 . S
Dy321 O327 2.275 . S
Dy321 O329 2.307 . S
Dy321 O331 2.395 . S
Dy321 O332 2.379 . S
Dy321 O335 2.339 . S
Dy321 C351 2.738 . S
C322 O334 1.254 . S
C322 O335 1.257 . S
O323 Dy320 2.307 . S
O323 C333 1.266 . S
O324 Dy321 2.298 . S
O324 C333 1.236 . S
O325 Dy320 2.395 . S
O325 C342 1.255 . S
O326 Dy320 2.379 . S
O326 C342 1.249 . S
O327 Dy321 2.275 . S
O327 C343 1.254 . S
O328 Dy320 2.339 . S
O328 C343 1.257 . S
O329 Dy321 2.307 . S
O329 C344 1.266 . S
O330 Dy320 2.298 . S
O330 C344 1.236 . S
O331 Dy321 2.395 . S
O331 C351 1.255 . S
O332 Dy321 2.379 . S
O332 C351 1.249 . S
C333 O323 1.266 . S
C333 O324 1.236 . S
O334 Dy320 2.275 . S
O334 C322 1.254 . S
O335 Dy321 2.339 . S
O335 C322 1.257 . S
C336 C339 1.344 . S
C336 C340 1.328 . S
C336 C342 1.516 . S
C337 C338 1.304 . S
C337 C341 1.323 . S
C338 C337 1.304 . S
C338 C339 1.371 . S
C338 H352 0.930 . S
C339 C336 1.344 . S
C339 C338 1.371 . S
C339 H353 0.931 . S
C340 C336 1.328 . S
C340 C341 1.433 . S
C340 H354 0.931 . S
C341 C337 1.323 . S
C341 C340 1.433 . S
C341 H355 0.933 . S
C342 Dy320 2.738 . S
C342 O325 1.255 . S
C342 O326 1.249 . S
C342 C336 1.516 . S
C343 O327 1.254 . S
C343 O328 1.257 . S
C344 O329 1.266 . S
C344 O330 1.236 . S
C345 C348 1.344 . S
C345 C349 1.328 . S
C345 C351 1.516 . S
C346 C347 1.304 . S
C346 C350 1.323 . S
C347 C346 1.304 . S
C347 C348 1.371 . S
C347 H356 0.930 . S
C348 C345 1.344 . S
C348 C347 1.371 . S
C348 H357 0.931 . S
C349 C345 1.328 . S
C349 C350 1.433 . S
C349 H358 0.931 . S
C350 C346 1.323 . S
C350 C349 1.433 . S
C350 H359 0.933 . S
C351 Dy321 2.738 . S
C351 O331 1.255 . S
C351 O332 1.249 . S
C351 C345 1.516 . S
H352 C338 0.930 . S
H353 C339 0.931 . S
H354 C340 0.931 . S
H355 C341 0.933 . S
H356 C347 0.930 . S
H357 C348 0.931 . S
H358 C349 0.931 . S
H359 C350 0.933 . S
Dy360 O363 2.307 . S
Dy360 O365 2.395 . S
Dy360 O366 2.379 . S
Dy360 O368 2.339 . S
Dy360 O370 2.298 1_545 S
Dy360 O374 2.275 . S
Dy360 C382 2.738 . S
Dy361 O364 2.298 1_565 S
Dy361 O367 2.275 1_565 S
Dy361 O369 2.307 . S
Dy361 O371 2.395 1_565 S
Dy361 O372 2.379 1_565 S
Dy361 O375 2.339 . S
Dy361 C391 2.738 1_565 S
C362 O374 1.254 1_565 S
C362 O375 1.257 . S
O363 Dy360 2.307 . S
O363 C373 1.266 . S
O364 Dy361 2.298 1_545 S
O364 C373 1.236 . S
O365 Dy360 2.395 . S
O365 C382 1.255 . S
O366 Dy360 2.379 . S
O366 C382 1.249 . S
O367 Dy361 2.275 1_545 S
O367 C383 1.254 . S
O368 Dy360 2.339 . S
O368 C383 1.257 . S
O369 Dy361 2.307 . S
O369 C384 1.266 . S
O370 Dy360 2.298 1_565 S
O370 C384 1.236 . S
O371 Dy361 2.395 1_545 S
O371 C391 1.255 . S
O372 Dy361 2.379 1_545 S
O372 C391 1.249 . S
C373 O363 1.266 . S
C373 O364 1.236 . S
O374 Dy360 2.275 . S
O374 C362 1.254 1_545 S
O375 Dy361 2.339 . S
O375 C362 1.257 . S
C376 C379 1.339 1_545 S
C376 C380 1.330 . S
C376 C382 1.518 . S
C377 C378 1.304 . S
C377 C381 1.323 1_565 S
C378 C377 1.304 . S
C378 C379 1.371 . S
C378 H392 0.930 . S
C379 C376 1.339 1_565 S
C379 C378 1.371 . S
C379 H393 0.931 . S
C380 C376 1.330 . S
C380 C381 1.433 . S
C380 H394 0.931 . S
C381 C377 1.323 1_545 S
C381 C380 1.433 . S
C381 H395 0.933 . S
C382 Dy360 2.738 . S
C382 O365 1.255 . S
C382 O366 1.249 . S
C382 C376 1.518 . S
C383 O367 1.254 . S
C383 O368 1.257 . S
C384 O369 1.266 . S
C384 O370 1.236 . S
C385 C388 1.344 . S
C385 C389 1.328 1_455 S
C385 C391 1.516 . S
C386 C387 1.304 1_655 S
C386 C390 1.323 . S
C387 C386 1.304 1_455 S
C387 C388 1.371 . S
C387 H396 0.930 . S
C388 C385 1.344 . S
C388 C387 1.371 . S
C388 H397 0.931 . S
C389 C385 1.328 1_655 S
C389 C390 1.433 . S
C389 H398 0.931 . S
C390 C386 1.323 . S
C390 C389 1.433 . S
C390 H399 0.933 . S
C391 Dy361 2.738 1_545 S
C391 O371 1.255 . S
C391 O372 1.249 . S
C391 C385 1.516 . S
H392 C378 0.930 . S
H393 C379 0.931 . S
H394 C380 0.931 . S
H395 C381 0.933 . S
H396 C387 0.930 . S
H397 C388 0.931 . S
H398 C389 0.931 . S
H399 C390 0.933 . S
Dy400 O403 2.307 . S
Dy400 O405 2.395 . S
Dy400 O406 2.379 . S
Dy400 O408 2.339 . S
Dy400 O410 2.298 . S
Dy400 O414 2.275 . S
Dy400 C422 2.738 . S
Dy401 O404 2.298 . S
Dy401 O407 2.275 . S
Dy401 O409 2.307 . S
Dy401 O411 2.395 . S
Dy401 O412 2.379 . S
Dy401 O415 2.339 . S
Dy401 C431 2.738 . S
C402 O414 1.254 . S
C402 O415 1.257 . S
O403 Dy400 2.307 . S
O403 C413 1.266 . S
O404 Dy401 2.298 . S
O404 C413 1.236 . S
O405 Dy400 2.395 . S
O405 C422 1.255 . S
O406 Dy400 2.379 . S
O406 C422 1.249 . S
O407 Dy401 2.275 . S
O407 C423 1.254 . S
O408 Dy400 2.339 . S
O408 C423 1.257 . S
O409 Dy401 2.307 . S
O409 C424 1.266 . S
O410 Dy400 2.298 . S
O410 C424 1.236 . S
O411 Dy401 2.395 . S
O411 C431 1.255 . S
O412 Dy401 2.379 . S
O412 C431 1.249 . S
C413 O403 1.266 . S
C413 O404 1.236 . S
O414 Dy400 2.275 . S
O414 C402 1.254 . S
O415 Dy401 2.339 . S
O415 C402 1.257 . S
C416 C419 1.344 . S
C416 C420 1.328 . S
C416 C422 1.516 . S
C417 C418 1.304 . S
C417 C421 1.323 . S
C418 C417 1.304 . S
C418 C419 1.371 . S
C418 H432 0.930 . S
C419 C416 1.344 . S
C419 C418 1.371 . S
C419 H433 0.931 . S
C420 C416 1.328 . S
C420 C421 1.433 . S
C420 H434 0.931 . S
C421 C417 1.323 . S
C421 C420 1.433 . S
C421 H435 0.933 . S
C422 Dy400 2.738 . S
C422 O405 1.255 . S
C422 O406 1.249 . S
C422 C416 1.516 . S
C423 O407 1.254 . S
C423 O408 1.257 . S
C424 O409 1.266 . S
C424 O410 1.236 . S
C425 C428 1.344 . S
C425 C429 1.328 . S
C425 C431 1.516 . S
C426 C427 1.304 . S
C426 C430 1.323 . S
C427 C426 1.304 . S
C427 C428 1.371 . S
C427 H436 0.930 . S
C428 C425 1.344 . S
C428 C427 1.371 . S
C428 H437 0.931 . S
C429 C425 1.328 . S
C429 C430 1.433 . S
C429 H438 0.931 . S
C430 C426 1.323 . S
C430 C429 1.433 . S
C430 H439 0.933 . S
C431 Dy401 2.738 . S
C431 O411 1.255 . S
C431 O412 1.249 . S
C431 C425 1.516 . S
H432 C418 0.930 . S
H433 C419 0.931 . S
H434 C420 0.931 . S
H435 C421 0.933 . S
H436 C427 0.930 . S
H437 C428 0.931 . S
H438 C429 0.931 . S
H439 C430 0.933 . S
Dy440 O443 2.307 . S
Dy440 O445 2.395 . S
Dy440 O446 2.379 . S
Dy440 O448 2.339 . S
Dy440 O450 2.298 1_565 S
Dy440 O454 2.275 . S
Dy440 C462 2.738 . S
Dy441 O444 2.298 1_545 S
Dy441 O447 2.275 1_545 S
Dy441 O449 2.307 . S
Dy441 O451 2.395 1_545 S
Dy441 O452 2.379 1_545 S
Dy441 O455 2.339 . S
Dy441 C471 2.738 1_545 S
C442 O454 1.254 1_545 S
C442 O455 1.257 . S
O443 Dy440 2.307 . S
O443 C453 1.266 . S
O444 Dy441 2.298 1_565 S
O444 C453 1.236 . S
O445 Dy440 2.395 . S
O445 C462 1.255 . S
O446 Dy440 2.379 . S
O446 C462 1.249 . S
O447 Dy441 2.275 1_565 S
O447 C463 1.254 . S
O448 Dy440 2.339 . S
O448 C463 1.257 . S
O449 Dy441 2.307 . S
O449 C464 1.266 . S
O450 Dy440 2.298 1_545 S
O450 C464 1.236 . S
O451 Dy441 2.395 1_565 S
O451 C471 1.255 . S
O452 Dy441 2.379 1_565 S
O452 C471 1.249 . S
C453 O443 1.266 . S
C453 O444 1.236 . S
O454 Dy440 2.275 . S
O454 C442 1.254 1_565 S
O455 Dy441 2.339 . S
O455 C442 1.257 . S
C456 C459 1.339 1_565 S
C456 C460 1.330 . S
C456 C462 1.518 . S
C457 C458 1.304 . S
C457 C461 1.323 1_545 S
C458 C457 1.304 . S
C458 C459 1.371 . S
C458 H472 0.930 . S
C459 C456 1.339 1_545 S
C459 C458 1.371 . S
C459 H473 0.931 . S
C460 C456 1.330 . S
C460 C461 1.433 . S
C460 H474 0.931 . S
C461 C457 1.323 1_565 S
C461 C460 1.433 . S
C461 H475 0.933 . S
C462 Dy440 2.738 . S
C462 O445 1.255 . S
C462 O446 1.249 . S
C462 C456 1.518 . S
C463 O447 1.254 . S
C463 O448 1.257 . S
C464 O449 1.266 . S
C464 O450 1.236 . S
C465 C468 1.344 . S
C465 C469 1.328 . S
C465 C471 1.516 . S
C466 C467 1.304 . S
C466 C470 1.323 . S
C467 C466 1.304 . S
C467 C468 1.371 . S
C467 H476 0.930 . S
C468 C465 1.344 . S
C468 C467 1.371 . S
C468 H477 0.931 . S
C469 C465 1.328 . S
C469 C470 1.433 . S
C469 H478 0.931 . S
C470 C466 1.323 . S
C470 C469 1.433 . S
C470 H479 0.933 . S
C471 Dy441 2.738 1_565 S
C471 O451 1.255 . S
C471 O452 1.249 . S
C471 C465 1.516 . S
H472 C458 0.930 . S
H473 C459 0.931 . S
H474 C460 0.931 . S
H475 C461 0.933 . S
H476 C467 0.930 . S
H477 C468 0.931 . S
H478 C469 0.931 . S
H479 C470 0.933 . S
Dy480 O483 2.307 . S
Dy480 O485 2.395 . S
Dy480 O486 2.379 . S
Dy480 O488 2.339 . S
Dy480 O490 2.298 . S
Dy480 O494 2.275 . S
Dy480 C502 2.738 . S
Dy481 O484 2.298 . S
Dy481 O487 2.275 . S
Dy481 O489 2.307 . S
Dy481 O491 2.395 . S
Dy481 O492 2.379 . S
Dy481 O495 2.339 . S
Dy481 C511 2.738 . S
C482 O494 1.254 . S
C482 O495 1.257 . S
O483 Dy480 2.307 . S
O483 C493 1.266 . S
O484 Dy481 2.298 . S
O484 C493 1.236 . S
O485 Dy480 2.395 . S
O485 C502 1.255 . S
O486 Dy480 2.379 . S
O486 C502 1.249 . S
O487 Dy481 2.275 . S
O487 C503 1.254 . S
O488 Dy480 2.339 . S
O488 C503 1.257 . S
O489 Dy481 2.307 . S
O489 C504 1.266 . S
O490 Dy480 2.298 . S
O490 C504 1.236 . S
O491 Dy481 2.395 . S
O491 C511 1.255 . S
O492 Dy481 2.379 . S
O492 C511 1.249 . S
C493 O483 1.266 . S
C493 O484 1.236 . S
O494 Dy480 2.275 . S
O494 C482 1.254 . S
O495 Dy481 2.339 . S
O495 C482 1.257 . S
C496 C499 1.344 . S
C496 C500 1.328 . S
C496 C502 1.516 . S
C497 C498 1.304 . S
C497 C501 1.323 . S
C498 C497 1.304 . S
C498 C499 1.371 . S
C498 H512 0.930 . S
C499 C496 1.344 . S
C499 C498 1.371 . S
C499 H513 0.931 . S
C500 C496 1.328 . S
C500 C501 1.433 . S
C500 H514 0.931 . S
C501 C497 1.323 . S
C501 C500 1.433 . S
C501 H515 0.933 . S
C502 Dy480 2.738 . S
C502 O485 1.255 . S
C502 O486 1.249 . S
C502 C496 1.516 . S
C503 O487 1.254 . S
C503 O488 1.257 . S
C504 O489 1.266 . S
C504 O490 1.236 . S
C505 C508 1.344 . S
C505 C509 1.328 . S
C505 C511 1.516 . S
C506 C507 1.304 . S
C506 C510 1.323 . S
C507 C506 1.304 . S
C507 C508 1.371 . S
C507 H516 0.930 . S
C508 C505 1.344 . S
C508 C507 1.371 . S
C508 H517 0.931 . S
C509 C505 1.328 . S
C509 C510 1.433 . S
C509 H518 0.931 . S
C510 C506 1.323 . S
C510 C509 1.433 . S
C510 H519 0.933 . S
C511 Dy481 2.738 . S
C511 O491 1.255 . S
C511 O492 1.249 . S
C511 C505 1.516 . S
H512 C498 0.930 . S
H513 C499 0.931 . S
H514 C500 0.931 . S
H515 C501 0.933 . S
H516 C507 0.930 . S
H517 C508 0.931 . S
H518 C509 0.931 . S
H519 C510 0.933 . S
Dy520 O523 2.307 . S
Dy520 O525 2.395 1_545 S
Dy520 O526 2.379 1_545 S
Dy520 O528 2.339 . S
Dy520 O530 2.298 1_545 S
Dy520 O534 2.275 1_545 S
Dy520 C542 2.738 1_545 S
Dy521 O524 2.298 1_565 S
Dy521 O527 2.275 . S
Dy521 O529 2.307 . S
Dy521 O531 2.395 . S
Dy521 O532 2.379 . S
Dy521 O535 2.339 . S
Dy521 C551 2.738 . S
C522 O534 1.254 . S
C522 O535 1.257 . S
O523 Dy520 2.307 . S
O523 C533 1.266 . S
O524 Dy521 2.298 1_545 S
O524 C533 1.236 . S
O525 Dy520 2.395 1_565 S
O525 C542 1.255 . S
O526 Dy520 2.379 1_565 S
O526 C542 1.249 . S
O527 Dy521 2.275 . S
O527 C543 1.254 1_565 S
O528 Dy520 2.339 . S
O528 C543 1.257 . S
O529 Dy521 2.307 . S
O529 C544 1.266 . S
O530 Dy520 2.298 1_565 S
O530 C544 1.236 . S
O531 Dy521 2.395 . S
O531 C551 1.255 . S
O532 Dy521 2.379 . S
O532 C551 1.249 . S
C533 O523 1.266 . S
C533 O524 1.236 . S
O534 Dy520 2.275 1_565 S
O534 C522 1.254 . S
O535 Dy521 2.339 . S
O535 C522 1.257 . S
C536 C539 1.344 . S
C536 C540 1.328 1_655 S
C536 C542 1.516 . S
C537 C538 1.304 1_455 S
C537 C541 1.323 . S
C538 C537 1.304 1_655 S
C538 C539 1.371 . S
C538 H552 0.930 . S
C539 C536 1.344 . S
C539 C538 1.371 . S
C539 H553 0.931 . S
C540 C536 1.328 1_455 S
C540 C541 1.433 . S
C540 H554 0.931 . S
C541 C537 1.323 . S
C541 C540 1.433 . S
C541 H555 0.933 . S
C542 Dy520 2.738 1_565 S
C542 O525 1.255 . S
C542 O526 1.249 . S
C542 C536 1.516 . S
C543 O527 1.254 1_545 S
C543 O528 1.257 . S
C544 O529 1.266 . S
C544 O530 1.236 . S
C545 C548 1.339 1_565 S
C545 C549 1.330 . S
C545 C551 1.518 . S
C546 C547 1.304 . S
C546 C550 1.323 1_545 S
C547 C546 1.304 . S
C547 C548 1.371 . S
C547 H556 0.930 . S
C548 C545 1.339 1_545 S
C548 C547 1.371 . S
C548 H557 0.931 . S
C549 C545 1.330 . S
C549 C550 1.433 . S
C549 H558 0.931 . S
C550 C546 1.323 1_565 S
C550 C549 1.433 . S
C550 H559 0.933 . S
C551 Dy521 2.738 . S
C551 O531 1.255 . S
C551 O532 1.249 . S
C551 C545 1.518 . S
H552 C538 0.930 . S
H553 C539 0.931 . S
H554 C540 0.931 . S
H555 C541 0.933 . S
H556 C547 0.930 . S
H557 C548 0.931 . S
H558 C549 0.931 . S
H559 C550 0.933 . S
Dy560 O563 2.307 . S
Dy560 O565 2.395 . S
Dy560 O566 2.379 . S
Dy560 O568 2.339 . S
Dy560 O570 2.298 . S
Dy560 O574 2.275 . S
Dy560 C582 2.738 . S
Dy561 O564 2.298 . S
Dy561 O567 2.275 . S
Dy561 O569 2.307 . S
Dy561 O571 2.395 . S
Dy561 O572 2.379 . S
Dy561 O575 2.339 . S
Dy561 C591 2.738 . S
C562 O574 1.254 . S
C562 O575 1.257 . S
O563 Dy560 2.307 . S
O563 C573 1.266 . S
O564 Dy561 2.298 . S
O564 C573 1.236 . S
O565 Dy560 2.395 . S
O565 C582 1.255 . S
O566 Dy560 2.379 . S
O566 C582 1.249 . S
O567 Dy561 2.275 . S
O567 C583 1.254 . S
O568 Dy560 2.339 . S
O568 C583 1.257 . S
O569 Dy561 2.307 . S
O569 C584 1.266 . S
O570 Dy560 2.298 . S
O570 C584 1.236 . S
O571 Dy561 2.395 . S
O571 C591 1.255 . S
O572 Dy561 2.379 . S
O572 C591 1.249 . S
C573 O563 1.266 . S
C573 O564 1.236 . S
O574 Dy560 2.275 . S
O574 C562 1.254 . S
O575 Dy561 2.339 . S
O575 C562 1.257 . S
C576 C579 1.344 . S
C576 C580 1.328 . S
C576 C582 1.516 . S
C577 C578 1.304 . S
C577 C581 1.323 . S
C578 C577 1.304 . S
C578 C579 1.371 . S
C578 H592 0.930 . S
C579 C576 1.344 . S
C579 C578 1.371 . S
C579 H593 0.931 . S
C580 C576 1.328 . S
C580 C581 1.433 . S
C580 H594 0.931 . S
C581 C577 1.323 . S
C581 C580 1.433 . S
C581 H595 0.933 . S
C582 Dy560 2.738 . S
C582 O565 1.255 . S
C582 O566 1.249 . S
C582 C576 1.516 . S
C583 O567 1.254 . S
C583 O568 1.257 . S
C584 O569 1.266 . S
C584 O570 1.236 . S
C585 C588 1.344 . S
C585 C589 1.328 . S
C585 C591 1.516 . S
C586 C587 1.304 . S
C586 C590 1.323 . S
C587 C586 1.304 . S
C587 C588 1.371 . S
C587 H596 0.930 . S
C588 C585 1.344 . S
C588 C587 1.371 . S
C588 H597 0.931 . S
C589 C585 1.328 . S
C589 C590 1.433 . S
C589 H598 0.931 . S
C590 C586 1.323 . S
C590 C589 1.433 . S
C590 H599 0.933 . S
C591 Dy561 2.738 . S
C591 O571 1.255 . S
C591 O572 1.249 . S
C591 C585 1.516 . S
H592 C578 0.930 . S
H593 C579 0.931 . S
H594 C580 0.931 . S
H595 C581 0.933 . S
H596 C587 0.930 . S
H597 C588 0.931 . S
H598 C589 0.931 . S
H599 C590 0.933 . S
Dy600 O603 2.307 . S
Dy600 O605 2.395 1_565 S
Dy600 O606 2.379 1_565 S
Dy600 O608 2.339 . S
Dy600 O610 2.298 1_565 S
Dy600 O614 2.275 1_565 S
Dy600 C622 2.738 1_565 S
Dy601 O604 2.298 1_545 S
Dy601 O607 2.275 . S
Dy601 O609 2.307 . S
Dy601 O611 2.395 . S
Dy601 O612 2.379 . S
Dy601 O615 2.339 . S
Dy601 C631 2.738 . S
C602 O614 1.254 . S
C602 O615 1.257 . S
O603 Dy600 2.307 . S
O603 C613 1.266 . S
O604 Dy601 2.298 1_565 S
O604 C613 1.236 . S
O605 Dy600 2.395 1_545 S
O605 C622 1.255 . S
O606 Dy600 2.379 1_545 S
O606 C622 1.249 . S
O607 Dy601 2.275 . S
O607 C623 1.254 1_545 S
O608 Dy600 2.339 . S
O608 C623 1.257 . S
O609 Dy601 2.307 . S
O609 C624 1.266 . S
O610 Dy600 2.298 1_545 S
O610 C624 1.236 . S
O611 Dy601 2.395 . S
O611 C631 1.255 . S
O612 Dy601 2.379 . S
O612 C631 1.249 . S
C613 O603 1.266 . S
C613 O604 1.236 . S
O614 Dy600 2.275 1_545 S
O614 C602 1.254 . S
O615 Dy601 2.339 . S
O615 C602 1.257 . S
C616 C619 1.344 . S
C616 C620 1.328 . S
C616 C622 1.516 . S
C617 C618 1.304 . S
C617 C621 1.323 . S
C618 C617 1.304 . S
C618 C619 1.371 . S
C618 H632 0.930 . S
C619 C616 1.344 . S
C619 C618 1.371 . S
C619 H633 0.931 . S
C620 C616 1.328 . S
C620 C621 1.433 . S
C620 H634 0.931 . S
C621 C617 1.323 . S
C621 C620 1.433 . S
C621 H635 0.933 . S
C622 Dy600 2.738 1_545 S
C622 O605 1.255 . S
C622 O606 1.249 . S
C622 C616 1.516 . S
C623 O607 1.254 1_565 S
C623 O608 1.257 . S
C624 O609 1.266 . S
C624 O610 1.236 . S
C625 C628 1.339 1_545 S
C625 C629 1.330 . S
C625 C631 1.518 . S
C626 C627 1.304 . S
C626 C630 1.323 1_565 S
C627 C626 1.304 . S
C627 C628 1.371 . S
C627 H636 0.930 . S
C628 C625 1.339 1_565 S
C628 C627 1.371 . S
C628 H637 0.931 . S
C629 C625 1.330 . S
C629 C630 1.433 . S
C629 H638 0.931 . S
C630 C626 1.323 1_545 S
C630 C629 1.433 . S
C630 H639 0.933 . S
C631 Dy601 2.738 . S
C631 O611 1.255 . S
C631 O612 1.249 . S
C631 C625 1.518 . S
H632 C618 0.930 . S
H633 C619 0.931 . S
H634 C620 0.931 . S
H635 C621 0.933 . S
H636 C627 0.930 . S
H637 C628 0.931 . S
H638 C629 0.931 . S
H639 C630 0.933 . S
C640 C641 1.369 . S
C640 C642 1.419 . S
C640 H644 0.930 . S
C641 C640 1.369 . S
C641 C650 1.429 . S
C642 C640 1.419 . S
C642 C643 1.363 . S
C642 H645 0.929 . S
C643 C642 1.363 . S
C643 C649 1.428 . S
H644 C640 0.930 . S
H645 C642 0.929 . S
S646 N647 1.613 . S
S646 N648 1.610 . S
N647 S646 1.613 . S
N647 C650 1.350 . S
N648 S646 1.610 . S
N648 C649 1.351 . S
C649 C643 1.428 . S
C649 N648 1.351 . S
C649 C650 1.434 . S
C650 C641 1.429 . S
C650 N647 1.350 . S
C650 C649 1.434 . S
C651 C652 1.369 . S
C651 C653 1.419 . S
C651 H655 0.930 . S
C652 C651 1.369 . S
C652 C661 1.429 . S
C653 C651 1.419 . S
C653 C654 1.363 . S
C653 H656 0.929 . S
C654 C653 1.363 . S
C654 C660 1.428 . S
H655 C651 0.930 . S
H656 C653 0.929 . S
S657 N658 1.613 . S
S657 N659 1.610 . S
N658 S657 1.613 . S
N658 C661 1.350 . S
N659 S657 1.610 . S
N659 C660 1.351 . S
C660 C654 1.428 . S
C660 N659 1.351 . S
C660 C661 1.434 . S
C661 C652 1.429 . S
C661 N658 1.350 . S
C661 C660 1.434 . S
C662 C663 1.369 . S
C662 C664 1.419 . S
C662 H666 0.930 . S
C663 C662 1.369 . S
C663 C672 1.429 . S
C664 C662 1.419 . S
C664 C665 1.363 . S
C664 H667 0.929 . S
C665 C664 1.363 . S
C665 C671 1.428 . S
H666 C662 0.930 . S
H667 C664 0.929 . S
S668 N669 1.613 . S
S668 N670 1.610 . S
N669 S668 1.613 . S
N669 C672 1.350 . S
N670 S668 1.610 . S
N670 C671 1.351 . S
C671 C665 1.428 . S
C671 N670 1.351 . S
C671 C672 1.434 . S
C672 C663 1.429 . S
C672 N669 1.350 . S
C672 C671 1.434 . S
C673 C674 1.369 1_656 S
C673 C675 1.419 . S
C673 H677 0.930 . S
C674 C673 1.369 1_454 S
C674 C683 1.429 . S
C675 C673 1.419 . S
C675 C676 1.363 . S
C675 H678 0.929 . S
C676 C675 1.363 . S
C676 C682 1.428 1_656 S
H677 C673 0.930 . S
H678 C675 0.929 . S
S679 N680 1.613 . S
S679 N681 1.610 . S
N680 S679 1.613 . S
N680 C683 1.350 . S
N681 S679 1.610 . S
N681 C682 1.351 . S
C682 C676 1.428 1_454 S
C682 N681 1.351 . S
C682 C683 1.434 . S
C683 C674 1.429 . S
C683 N680 1.350 . S
C683 C682 1.434 . S
C684 C685 1.369 . S
C684 C686 1.419 . S
C684 H688 0.930 . S
C685 C684 1.369 . S
C685 C694 1.429 . S
C686 C684 1.419 . S
C686 C687 1.363 . S
C686 H689 0.929 . S
C687 C686 1.363 . S
C687 C693 1.428 . S
H688 C684 0.930 . S
H689 C686 0.929 . S
S690 N691 1.613 . S
S690 N692 1.610 . S
N691 S690 1.613 . S
N691 C694 1.350 . S
N692 S690 1.610 . S
N692 C693 1.351 . S
C693 C687 1.428 . S
C693 N692 1.351 . S
C693 C694 1.434 . S
C694 C685 1.429 . S
C694 N691 1.350 . S
C694 C693 1.434 . S
C695 C696 1.369 . S
C695 C697 1.419 . S
C695 H699 0.930 . S
C696 C695 1.369 . S
C696 C705 1.429 . S
C697 C695 1.419 . S
C697 C698 1.363 . S
C697 H700 0.929 . S
C698 C697 1.363 . S
C698 C704 1.428 . S
H699 C695 0.930 . S
H700 C697 0.929 . S
S701 N702 1.613 . S
S701 N703 1.610 . S
N702 S701 1.613 . S
N702 C705 1.350 . S
N703 S701 1.610 . S
N703 C704 1.351 . S
C704 C698 1.428 . S
C704 N703 1.351 . S
C704 C705 1.434 . S
C705 C696 1.429 . S
C705 N702 1.350 . S
C705 C704 1.434 . S
C706 C707 1.369 1_654 S
C706 C708 1.419 1_565 S
C706 H710 0.930 . S
C707 C706 1.369 1_456 S
C707 C716 1.450 . S
C708 C706 1.419 1_545 S
C708 C709 1.363 . S
C708 H711 0.929 . S
C709 C708 1.363 . S
C709 C715 1.428 1_654 S
H710 C706 0.930 . S
H711 C708 0.929 . S
S712 N713 1.613 . S
S712 N714 1.610 . S
N713 S712 1.613 . S
N713 C716 1.348 1_545 S
N714 S712 1.610 . S
N714 C715 1.351 . S
C715 C709 1.428 1_456 S
C715 N714 1.351 . S
C715 C716 1.412 1_545 S
C716 C707 1.450 . S
C716 N713 1.348 1_565 S
C716 C715 1.412 1_565 S
C717 C718 1.369 . S
C717 C719 1.419 1_565 S
C717 H721 0.930 . S
C718 C717 1.369 . S
C718 C727 1.429 . S
C719 C717 1.419 1_545 S
C719 C720 1.363 . S
C719 H722 0.929 . S
C720 C719 1.363 . S
C720 C726 1.428 . S
H721 C717 0.930 . S
H722 C719 0.929 . S
S723 N724 1.613 . S
S723 N725 1.610 . S
N724 S723 1.613 . S
N724 C727 1.350 1_545 S
N725 S723 1.610 . S
N725 C726 1.351 . S
C726 C720 1.428 . S
C726 N725 1.351 . S
C726 C727 1.434 1_545 S
C727 C718 1.429 . S
C727 N724 1.350 1_565 S
C727 C726 1.434 1_565 S
C728 C729 1.369 . S
C728 C730 1.419 . S
C728 H732 0.930 . S
C729 C728 1.369 . S
C729 C738 1.429 . S
C730 C728 1.419 . S
C730 C731 1.363 . S
C730 H733 0.929 . S
C731 C730 1.363 . S
C731 C737 1.428 . S
H732 C728 0.930 . S
H733 C730 0.929 . S
S734 N735 1.613 1_565 S
S734 N736 1.610 . S
N735 S734 1.613 1_545 S
N735 C738 1.350 . S
N736 S734 1.610 . S
N736 C737 1.351 1_565 S
C737 C731 1.428 . S
C737 N736 1.351 1_545 S
C737 C738 1.434 . S
C738 C729 1.429 . S
C738 N735 1.350 . S
C738 C737 1.434 . S
C739 C740 1.369 . S
C739 C741 1.419 . S
C739 H743 0.930 . S
C740 C739 1.369 . S
C740 C749 1.429 . S
C741 C739 1.419 . S
C741 C742 1.363 . S
C741 H744 0.929 . S
C742 C741 1.363 . S
C742 C748 1.428 . S
H743 C739 0.930 . S
H744 C741 0.929 . S
S745 N746 1.613 . S
S745 N747 1.610 . S
N746 S745 1.613 . S
N746 C749 1.350 . S
N747 S745 1.610 . S
N747 C748 1.351 . S
C748 C742 1.428 . S
C748 N747 1.351 . S
C748 C749 1.434 . S
C749 C740 1.429 . S
C749 N746 1.350 . S
C749 C748 1.434 . S
C750 C751 1.369 1_545 S
C750 C752 1.419 1_545 S
C750 H754 0.930 . S
C751 C750 1.369 1_565 S
C751 C760 1.429 . S
C752 C750 1.419 1_565 S
C752 C753 1.363 . S
C752 H755 0.929 1_565 S
C753 C752 1.363 . S
C753 C759 1.428 . S
H754 C750 0.930 . S
H755 C752 0.929 1_545 S
S756 N757 1.613 . S
S756 N758 1.610 . S
N757 S756 1.613 . S
N757 C760 1.350 . S
N758 S756 1.610 . S
N758 C759 1.351 . S
C759 C753 1.428 . S
C759 N758 1.351 . S
C759 C760 1.434 . S
C760 C751 1.429 . S
C760 N757 1.350 . S
C760 C759 1.434 . S
C761 C762 1.369 . S
C761 C763 1.419 . S
C761 H765 0.930 . S
C762 C761 1.369 . S
C762 C771 1.429 . S
C763 C761 1.419 . S
C763 C764 1.363 . S
C763 H766 0.929 . S
C764 C763 1.363 . S
C764 C770 1.428 . S
H765 C761 0.930 . S
H766 C763 0.929 . S
S767 N768 1.613 . S
S767 N769 1.610 . S
N768 S767 1.613 . S
N768 C771 1.350 . S
N769 S767 1.610 . S
N769 C770 1.351 . S
C770 C764 1.428 . S
C770 N769 1.351 . S
C770 C771 1.434 . S
C771 C762 1.429 . S
C771 N768 1.350 . S
C771 C770 1.434 . S
C772 C773 1.369 . S
C772 C774 1.419 1_565 S
C772 H776 0.930 1_565 S
C773 C772 1.369 . S
C773 C782 1.429 . S
C774 C772 1.419 1_545 S
C774 C775 1.363 1_545 S
C774 H777 0.929 . S
C775 C774 1.363 1_565 S
C775 C781 1.428 . S
H776 C772 0.930 1_545 S
H777 C774 0.929 . S
S778 N779 1.613 . S
S778 N780 1.610 . S
N779 S778 1.613 . S
N779 C782 1.350 . S
N780 S778 1.610 . S
N780 C781 1.351 . S
C781 C775 1.428 . S
C781 N780 1.351 . S
C781 C782 1.434 . S
C782 C773 1.429 . S
C782 N779 1.350 . S
C782 C781 1.434 . S
C783 C784 1.369 . S
C783 C785 1.419 . S
C783 H787 0.930 . S
C784 C783 1.369 . S
C784 C793 1.429 . S
C785 C783 1.419 . S
C785 C786 1.363 . S
C785 H788 0.929 . S
C786 C785 1.363 . S
C786 C792 1.428 . S
H787 C783 0.930 . S
H788 C785 0.929 . S
S789 N790 1.613 . S
S789 N791 1.610 . S
N790 S789 1.613 . S
N790 C793 1.350 . S
N791 S789 1.610 . S
N791 C792 1.351 . S
C792 C786 1.428 . S
C792 N791 1.351 . S
C792 C793 1.434 . S
C793 C784 1.429 . S
C793 N790 1.350 . S
C793 C792 1.434 . S
C794 C795 1.369 1_565 S
C794 C796 1.419 1_565 S
C794 H798 0.930 . S
C795 C794 1.369 1_545 S
C795 C804 1.429 . S
C796 C794 1.419 1_545 S
C796 C797 1.363 . S
C796 H799 0.929 1_545 S
C797 C796 1.363 . S
C797 C803 1.428 . S
H798 C794 0.930 . S
H799 C796 0.929 1_565 S
S800 N801 1.613 . S
S800 N802 1.610 . S
N801 S800 1.613 . S
N801 C804 1.350 . S
N802 S800 1.610 . S
N802 C803 1.351 . S
C803 C797 1.428 . S
C803 N802 1.351 . S
C803 C804 1.434 . S
C804 C795 1.429 . S
C804 N801 1.350 . S
C804 C803 1.434 . S
C805 C806 1.369 . S
C805 C807 1.419 . S
C805 H809 0.930 . S
C806 C805 1.369 . S
C806 C815 1.429 . S
C807 C805 1.419 . S
C807 C808 1.363 . S
C807 H810 0.929 . S
C808 C807 1.363 . S
C808 C814 1.428 . S
H809 C805 0.930 . S
H810 C807 0.929 . S
S811 N812 1.613 . S
S811 N813 1.610 . S
N812 S811 1.613 . S
N812 C815 1.350 . S
N813 S811 1.610 . S
N813 C814 1.351 . S
C814 C808 1.428 . S
C814 N813 1.351 . S
C814 C815 1.434 . S
C815 C806 1.429 . S
C815 N812 1.350 . S
C815 C814 1.434 . S
C816 C817 1.369 . S
C816 C818 1.419 . S
C816 H820 0.930 . S
C817 C816 1.369 . S
C817 C826 1.429 . S
C818 C816 1.419 . S
C818 C819 1.363 . S
C818 H821 0.929 . S
C819 C818 1.363 . S
C819 C825 1.428 . S
H820 C816 0.930 . S
H821 C818 0.929 . S
S822 N823 1.613 . S
S822 N824 1.610 . S
N823 S822 1.613 . S
N823 C826 1.350 . S
N824 S822 1.610 . S
N824 C825 1.351 . S
C825 C819 1.428 . S
C825 N824 1.351 . S
C825 C826 1.434 . S
C826 C817 1.429 . S
C826 N823 1.350 . S
C826 C825 1.434 . S
C827 C828 1.369 . S
C827 C829 1.419 . S
C827 H831 0.930 . S
C828 C827 1.369 . S
C828 C837 1.429 . S
C829 C827 1.419 . S
C829 C830 1.363 . S
C829 H832 0.929 . S
C830 C829 1.363 . S
C830 C836 1.428 . S
H831 C827 0.930 . S
H832 C829 0.929 . S
S833 N834 1.613 . S
S833 N835 1.610 . S
N834 S833 1.613 . S
N834 C837 1.350 . S
N835 S833 1.610 . S
N835 C836 1.351 . S
C836 C830 1.428 . S
C836 N835 1.351 . S
C836 C837 1.434 . S
C837 C828 1.429 . S
C837 N834 1.350 . S
C837 C836 1.434 . S
C838 C839 1.369 . S
C838 C840 1.419 . S
C838 H842 0.930 . S
C839 C838 1.369 . S
C839 C848 1.429 . S
C840 C838 1.419 . S
C840 C841 1.363 . S
C840 H843 0.929 . S
C841 C840 1.363 . S
C841 C847 1.428 . S
H842 C838 0.930 . S
H843 C840 0.929 . S
S844 N845 1.613 . S
S844 N846 1.610 . S
N845 S844 1.613 . S
N845 C848 1.350 . S
N846 S844 1.610 . S
N846 C847 1.351 . S
C847 C841 1.428 . S
C847 N846 1.351 . S
C847 C848 1.434 . S
C848 C839 1.429 . S
C848 N845 1.350 . S
C848 C847 1.434 . S
C849 C850 1.369 . S
C849 C851 1.419 . S
C849 H853 0.930 . S
C850 C849 1.369 . S
C850 C859 1.429 . S
C851 C849 1.419 . S
C851 C852 1.363 . S
C851 H854 0.929 . S
C852 C851 1.363 . S
C852 C858 1.428 . S
H853 C849 0.930 . S
H854 C851 0.929 . S
S855 N856 1.613 . S
S855 N857 1.610 . S
N856 S855 1.613 . S
N856 C859 1.350 . S
N857 S855 1.610 . S
N857 C858 1.351 . S
C858 C852 1.428 . S
C858 N857 1.351 . S
C858 C859 1.434 . S
C859 C850 1.429 . S
C859 N856 1.350 . S
C859 C858 1.434 . S
C860 C861 1.369 . S
C860 C862 1.419 . S
C860 H864 0.930 . S
C861 C860 1.369 . S
C861 C870 1.429 . S
C862 C860 1.419 . S
C862 C863 1.363 . S
C862 H865 0.929 . S
C863 C862 1.363 . S
C863 C869 1.428 . S
H864 C860 0.930 . S
H865 C862 0.929 . S
S866 N867 1.613 . S
S866 N868 1.610 . S
N867 S866 1.613 . S
N867 C870 1.350 . S
N868 S866 1.610 . S
N868 C869 1.351 . S
C869 C863 1.428 . S
C869 N868 1.351 . S
C869 C870 1.434 . S
C870 C861 1.429 . S
C870 N867 1.350 . S
C870 C869 1.434 . S
C871 C872 1.369 . S
C871 C873 1.419 . S
C871 H875 0.930 1_545 S
C872 C871 1.369 . S
C872 C881 1.429 . S
C873 C871 1.419 . S
C873 C874 1.363 . S
C873 H876 0.929 1_545 S
C874 C873 1.363 . S
C874 C880 1.428 . S
H875 C871 0.930 1_565 S
H876 C873 0.929 1_565 S
S877 N878 1.613 . S
S877 N879 1.610 . S
N878 S877 1.613 . S
N878 C881 1.350 . S
N879 S877 1.610 . S
N879 C880 1.351 . S
C880 C874 1.428 . S
C880 N879 1.351 . S
C880 C881 1.434 . S
C881 C872 1.429 . S
C881 N878 1.350 . S
C881 C880 1.434 . S
C882 C883 1.369 . S
C882 C884 1.419 . S
C882 H886 0.930 . S
C883 C882 1.369 . S
C883 C892 1.429 . S
C884 C882 1.419 . S
C884 C885 1.363 . S
C884 H887 0.929 . S
C885 C884 1.363 . S
C885 C891 1.428 . S
H886 C882 0.930 . S
H887 C884 0.929 . S
S888 N889 1.613 . S
S888 N890 1.610 . S
N889 S888 1.613 . S
N889 C892 1.350 . S
N890 S888 1.610 . S
N890 C891 1.351 . S
C891 C885 1.428 . S
C891 N890 1.351 . S
C891 C892 1.434 . S
C892 C883 1.429 . S
C892 N889 1.350 . S
C892 C891 1.434 . S
C893 C894 1.369 . S
C893 C895 1.419 . S
C893 H897 0.930 . S
C894 C893 1.369 . S
C894 C903 1.429 . S
C895 C893 1.419 . S
C895 C896 1.363 . S
C895 H898 0.929 . S
C896 C895 1.363 . S
C896 C902 1.428 . S
H897 C893 0.930 . S
H898 C895 0.929 . S
S899 N900 1.613 . S
S899 N901 1.610 . S
N900 S899 1.613 . S
N900 C903 1.350 . S
N901 S899 1.610 . S
N901 C902 1.351 . S
C902 C896 1.428 . S
C902 N901 1.351 . S
C902 C903 1.434 . S
C903 C894 1.429 . S
C903 N900 1.350 . S
C903 C902 1.434 . S
C904 C905 1.369 . S
C904 C906 1.419 . S
C904 H908 0.930 . S
C905 C904 1.369 . S
C905 C914 1.429 . S
C906 C904 1.419 . S
C906 C907 1.363 . S
C906 H909 0.929 . S
C907 C906 1.363 . S
C907 C913 1.428 . S
H908 C904 0.930 . S
H909 C906 0.929 . S
S910 N911 1.613 . S
S910 N912 1.610 . S
N911 S910 1.613 . S
N911 C914 1.350 . S
N912 S910 1.610 . S
N912 C913 1.351 . S
C913 C907 1.428 . S
C913 N912 1.351 . S
C913 C914 1.434 . S
C914 C905 1.429 . S
C914 N911 1.350 . S
C914 C913 1.434 . S
C915 C916 1.369 . S
C915 C917 1.419 . S
C915 H919 0.930 . S
C916 C915 1.369 . S
C916 C925 1.429 . S
C917 C915 1.419 . S
C917 C918 1.363 . S
C917 H920 0.929 . S
C918 C917 1.363 . S
C918 C924 1.428 . S
H919 C915 0.930 . S
H920 C917 0.929 . S
S921 N922 1.613 . S
S921 N923 1.610 . S
N922 S921 1.613 . S
N922 C925 1.350 . S
N923 S921 1.610 . S
N923 C924 1.351 . S
C924 C918 1.428 . S
C924 N923 1.351 . S
C924 C925 1.434 . S
C925 C916 1.429 . S
C925 N922 1.350 . S
C925 C924 1.434 . S
C926 C927 1.369 . S
C926 C928 1.419 1_655 S
C926 H930 0.930 . S
C927 C926 1.369 . S
C927 C936 1.429 . S
C928 C926 1.419 1_455 S
C928 C929 1.363 . S
C928 H931 0.929 . S
C929 C928 1.363 . S
C929 C935 1.428 . S
H930 C926 0.930 . S
H931 C928 0.929 . S
S932 N933 1.613 . S
S932 N934 1.610 1_655 S
N933 S932 1.613 . S
N933 C936 1.350 . S
N934 S932 1.610 1_455 S
N934 C935 1.351 . S
C935 C929 1.428 . S
C935 N934 1.351 . S
C935 C936 1.434 1_455 S
C936 C927 1.429 . S
C936 N933 1.350 . S
C936 C935 1.434 1_655 S
C937 C938 1.369 . S
C937 C939 1.419 1_655 S
C937 H941 0.930 . S
C938 C937 1.369 . S
C938 C947 1.433 . S
C939 C937 1.419 1_455 S
C939 C940 1.363 . S
C939 H942 0.929 . S
C940 C939 1.363 . S
C940 C946 1.428 . S
H941 C937 0.930 . S
H942 C939 0.929 . S
S943 N944 1.613 . S
S943 N945 1.610 . S
N944 S943 1.613 . S
N944 C947 1.349 1_455 S
N945 S943 1.610 . S
N945 C946 1.351 . S
C946 C940 1.428 . S
C946 N945 1.351 . S
C946 C947 1.429 1_455 S
C947 C938 1.433 . S
C947 N944 1.349 1_655 S
C947 C946 1.429 1_655 S
C948 C949 1.369 . S
C948 C950 1.419 . S
C948 H952 0.930 . S
C949 C948 1.369 . S
C949 C958 1.429 . S
C950 C948 1.419 . S
C950 C951 1.363 . S
C950 H953 0.929 . S
C951 C950 1.363 . S
C951 C957 1.428 . S
H952 C948 0.930 . S
H953 C950 0.929 . S
S954 N955 1.613 . S
S954 N956 1.610 . S
N955 S954 1.613 . S
N955 C958 1.350 . S
N956 S954 1.610 . S
N956 C957 1.351 . S
C957 C951 1.428 . S
C957 N956 1.351 . S
C957 C958 1.434 . S
C958 C949 1.429 . S
C958 N955 1.350 . S
C958 C957 1.434 . S
C959 C960 1.369 . S
C959 C961 1.419 . S
C959 H963 0.930 . S
C960 C959 1.369 . S
C960 C969 1.429 . S
C961 C959 1.419 . S
C961 C962 1.363 . S
C961 H964 0.929 . S
C962 C961 1.363 . S
C962 C968 1.428 . S
H963 C959 0.930 . S
H964 C961 0.929 . S
S965 N966 1.613 . S
S965 N967 1.610 . S
N966 S965 1.613 . S
N966 C969 1.350 . S
N967 S965 1.610 . S
N967 C968 1.351 . S
C968 C962 1.428 . S
C968 N967 1.351 . S
C968 C969 1.434 . S
C969 C960 1.429 . S
C969 N966 1.350 . S
C969 C968 1.434 . S
C970 C971 1.369 . S
C970 C972 1.419 1_455 S
C970 H974 0.930 . S
C971 C970 1.369 . S
C971 C980 1.429 . S
C972 C970 1.419 1_655 S
C972 C973 1.363 . S
C972 H975 0.929 . S
C973 C972 1.363 . S
C973 C979 1.428 . S
H974 C970 0.930 . S
H975 C972 0.929 . S
S976 N977 1.613 1_655 S
S976 N978 1.610 . S
N977 S976 1.613 1_455 S
N977 C980 1.350 . S
N978 S976 1.610 . S
N978 C979 1.351 . S
C979 C973 1.428 . S
C979 N978 1.351 . S
C979 C980 1.434 1_655 S
C980 C971 1.429 . S
C980 N977 1.350 . S
C980 C979 1.434 1_455 S
C981 C982 1.369 1_655 S
C981 C983 1.419 . S
C981 H985 0.930 . S
C982 C981 1.369 1_455 S
C982 C991 1.429 . S
C983 C981 1.419 . S
C983 C984 1.363 . S
C983 H986 0.929 . S
C984 C983 1.363 . S
C984 C990 1.428 1_655 S
H985 C981 0.930 . S
H986 C983 0.929 . S
S987 N988 1.613 . S
S987 N989 1.610 . S
N988 S987 1.613 . S
N988 C991 1.350 . S
N989 S987 1.610 . S
N989 C990 1.351 . S
C990 C984 1.428 1_455 S
C990 N989 1.351 . S
C990 C991 1.434 . S
C991 C982 1.429 . S
C991 N988 1.350 . S
C991 C990 1.434 . S
C992 C993 1.369 . S
C992 C994 1.419 . S
C992 H996 0.930 . S
C993 C992 1.369 . S
C993 C1002 1.429 . S
C994 C992 1.419 . S
C994 C995 1.363 . S
C994 H997 0.929 . S
C995 C994 1.363 . S
C995 C1001 1.428 . S
H996 C992 0.930 . S
H997 C994 0.929 . S
S998 N999 1.613 . S
S998 N1000 1.610 . S
N999 S998 1.613 . S
N999 C1002 1.350 . S
N1000 S998 1.610 . S
N1000 C1001 1.351 . S
C1001 C995 1.428 . S
C1001 N1000 1.351 . S
C1001 C1002 1.434 . S
C1002 C993 1.429 . S
C1002 N999 1.350 . S
C1002 C1001 1.434 . S
C1003 C1004 1.369 . S
C1003 C1005 1.419 . S
C1003 H1007 0.930 . S
C1004 C1003 1.369 . S
C1004 C1013 1.429 . S
C1005 C1003 1.419 . S
C1005 C1006 1.363 . S
C1005 H1008 0.929 . S
C1006 C1005 1.363 . S
C1006 C1012 1.428 . S
H1007 C1003 0.930 . S
H1008 C1005 0.929 . S
S1009 N1010 1.613 . S
S1009 N1011 1.610 . S
N1010 S1009 1.613 . S
N1010 C1013 1.350 . S
N1011 S1009 1.610 . S
N1011 C1012 1.351 . S
C1012 C1006 1.428 . S
C1012 N1011 1.351 . S
C1012 C1013 1.434 . S
C1013 C1004 1.429 . S
C1013 N1010 1.350 . S
C1013 C1012 1.434 . S
C1014 C1015 1.369 . S
C1014 C1016 1.419 . S
C1014 H1018 0.930 . S
C1015 C1014 1.369 . S
C1015 C1024 1.429 . S
C1016 C1014 1.419 . S
C1016 C1017 1.363 . S
C1016 H1019 0.929 . S
C1017 C1016 1.363 . S
C1017 C1023 1.428 . S
H1018 C1014 0.930 . S
H1019 C1016 0.929 . S
S1020 N1021 1.613 . S
S1020 N1022 1.610 . S
N1021 S1020 1.613 . S
N1021 C1024 1.350 . S
N1022 S1020 1.610 . S
N1022 C1023 1.351 . S
C1023 C1017 1.428 . S
C1023 N1022 1.351 . S
C1023 C1024 1.434 . S
C1024 C1015 1.429 . S
C1024 N1021 1.350 . S
C1024 C1023 1.434 . S
C1025 C1026 1.369 . S
C1025 C1027 1.419 . S
C1025 H1029 0.930 . S
C1026 C1025 1.369 . S
C1026 C1035 1.429 . S
C1027 C1025 1.419 . S
C1027 C1028 1.363 . S
C1027 H1030 0.929 . S
C1028 C1027 1.363 . S
C1028 C1034 1.428 . S
H1029 C1025 0.930 . S
H1030 C1027 0.929 . S
S1031 N1032 1.613 . S
S1031 N1033 1.610 . S
N1032 S1031 1.613 . S
N1032 C1035 1.350 . S
N1033 S1031 1.610 . S
N1033 C1034 1.351 . S
C1034 C1028 1.428 . S
C1034 N1033 1.351 . S
C1034 C1035 1.434 . S
C1035 C1026 1.429 . S
C1035 N1032 1.350 . S
C1035 C1034 1.434 . S
C1036 C1037 1.369 . S
C1036 C1038 1.419 . S
C1036 H1040 0.930 . S
C1037 C1036 1.369 . S
C1037 C1046 1.429 . S
C1038 C1036 1.419 . S
C1038 C1039 1.363 . S
C1038 H1041 0.929 . S
C1039 C1038 1.363 . S
C1039 C1045 1.428 . S
H1040 C1036 0.930 . S
H1041 C1038 0.929 . S
S1042 N1043 1.613 . S
S1042 N1044 1.610 . S
N1043 S1042 1.613 . S
N1043 C1046 1.350 . S
N1044 S1042 1.610 . S
N1044 C1045 1.351 . S
C1045 C1039 1.428 . S
C1045 N1044 1.351 . S
C1045 C1046 1.434 . S
C1046 C1037 1.429 . S
C1046 N1043 1.350 . S
C1046 C1045 1.434 . S
C1047 C1048 1.369 . S
C1047 C1049 1.419 . S
C1047 H1051 0.930 . S
C1048 C1047 1.369 . S
C1048 C1057 1.429 . S
C1049 C1047 1.419 . S
C1049 C1050 1.363 . S
C1049 H1052 0.929 . S
C1050 C1049 1.363 . S
C1050 C1056 1.428 . S
H1051 C1047 0.930 . S
H1052 C1049 0.929 . S
S1053 N1054 1.613 . S
S1053 N1055 1.610 . S
N1054 S1053 1.613 . S
N1054 C1057 1.350 . S
N1055 S1053 1.610 . S
N1055 C1056 1.351 . S
C1056 C1050 1.428 . S
C1056 N1055 1.351 . S
C1056 C1057 1.434 . S
C1057 C1048 1.429 . S
C1057 N1054 1.350 . S
C1057 C1056 1.434 . S
C1058 C1059 1.369 . S
C1058 C1060 1.419 . S
C1058 H1062 0.930 . S
C1059 C1058 1.369 . S
C1059 C1068 1.429 . S
C1060 C1058 1.419 . S
C1060 C1061 1.363 . S
C1060 H1063 0.929 . S
C1061 C1060 1.363 . S
C1061 C1067 1.428 . S
H1062 C1058 0.930 . S
H1063 C1060 0.929 . S
S1064 N1065 1.613 . S
S1064 N1066 1.610 . S
N1065 S1064 1.613 . S
N1065 C1068 1.350 . S
N1066 S1064 1.610 . S
N1066 C1067 1.351 . S
C1067 C1061 1.428 . S
C1067 N1066 1.351 . S
C1067 C1068 1.434 . S
C1068 C1059 1.429 . S
C1068 N1065 1.350 . S
C1068 C1067 1.434 . S
C1069 C1070 1.369 . S
C1069 C1071 1.419 . S
C1069 H1073 0.930 . S
C1070 C1069 1.369 . S
C1070 C1079 1.429 . S
C1071 C1069 1.419 . S
C1071 C1072 1.363 . S
C1071 H1074 0.929 . S
C1072 C1071 1.363 . S
C1072 C1078 1.428 . S
H1073 C1069 0.930 . S
H1074 C1071 0.929 . S
S1075 N1076 1.613 . S
S1075 N1077 1.610 . S
N1076 S1075 1.613 . S
N1076 C1079 1.350 . S
N1077 S1075 1.610 . S
N1077 C1078 1.351 . S
C1078 C1072 1.428 . S
C1078 N1077 1.351 . S
C1078 C1079 1.434 . S
C1079 C1070 1.429 . S
C1079 N1076 1.350 . S
C1079 C1078 1.434 . S
C1080 C1081 1.369 . S
C1080 C1082 1.419 . S
C1080 H1084 0.930 . S
C1081 C1080 1.369 . S
C1081 C1090 1.429 . S
C1082 C1080 1.419 . S
C1082 C1083 1.363 . S
C1082 H1085 0.929 . S
C1083 C1082 1.363 . S
C1083 C1089 1.428 . S
H1084 C1080 0.930 . S
H1085 C1082 0.929 . S
S1086 N1087 1.613 . S
S1086 N1088 1.610 . S
N1087 S1086 1.613 . S
N1087 C1090 1.350 . S
N1088 S1086 1.610 . S
N1088 C1089 1.351 . S
C1089 C1083 1.428 . S
C1089 N1088 1.351 . S
C1089 C1090 1.434 . S
C1090 C1081 1.429 . S
C1090 N1087 1.350 . S
C1090 C1089 1.434 . S
C1091 C1092 1.369 . S
C1091 C1093 1.419 . S
C1091 H1095 0.930 . S
C1092 C1091 1.369 . S
C1092 C1101 1.429 . S
C1093 C1091 1.419 . S
C1093 C1094 1.363 . S
C1093 H1096 0.929 1_565 S
C1094 C1093 1.363 . S
C1094 C1100 1.428 . S
H1095 C1091 0.930 . S
H1096 C1093 0.929 1_545 S
S1097 N1098 1.613 . S
S1097 N1099 1.610 . S
N1098 S1097 1.613 . S
N1098 C1101 1.350 . S
N1099 S1097 1.610 . S
N1099 C1100 1.351 . S
C1100 C1094 1.428 . S
C1100 N1099 1.351 . S
C1100 C1101 1.434 . S
C1101 C1092 1.429 . S
C1101 N1098 1.350 . S
C1101 C1100 1.434 . S
C1102 C1103 1.369 . S
C1102 C1104 1.419 . S
C1102 H1106 0.930 . S
C1103 C1102 1.369 . S
C1103 C1112 1.429 . S
C1104 C1102 1.419 . S
C1104 C1105 1.363 . S
C1104 H1107 0.929 . S
C1105 C1104 1.363 . S
C1105 C1111 1.428 . S
H1106 C1102 0.930 . S
H1107 C1104 0.929 . S
S1108 N1109 1.613 . S
S1108 N1110 1.610 . S
N1109 S1108 1.613 . S
N1109 C1112 1.350 . S
N1110 S1108 1.610 . S
N1110 C1111 1.351 . S
C1111 C1105 1.428 . S
C1111 N1110 1.351 . S
C1111 C1112 1.434 . S
C1112 C1103 1.429 . S
C1112 N1109 1.350 . S
C1112 C1111 1.434 . S
C1113 C1114 1.369 . S
C1113 C1115 1.419 . S
C1113 H1117 0.930 . S
C1114 C1113 1.369 . S
C1114 C1123 1.429 . S
C1115 C1113 1.419 . S
C1115 C1116 1.363 . S
C1115 H1118 0.929 . S
C1116 C1115 1.363 . S
C1116 C1122 1.428 . S
H1117 C1113 0.930 . S
H1118 C1115 0.929 . S
S1119 N1120 1.613 . S
S1119 N1121 1.610 . S
N1120 S1119 1.613 . S
N1120 C1123 1.350 . S
N1121 S1119 1.610 . S
N1121 C1122 1.351 . S
C1122 C1116 1.428 . S
C1122 N1121 1.351 . S
C1122 C1123 1.434 . S
C1123 C1114 1.429 . S
C1123 N1120 1.350 . S
C1123 C1122 1.434 . S
C1124 C1125 1.369 . S
C1124 C1126 1.419 . S
C1124 H1128 0.930 . S
C1125 C1124 1.369 . S
C1125 C1134 1.429 . S
C1126 C1124 1.419 . S
C1126 C1127 1.363 . S
C1126 H1129 0.929 . S
C1127 C1126 1.363 . S
C1127 C1133 1.428 . S
H1128 C1124 0.930 . S
H1129 C1126 0.929 . S
S1130 N1131 1.613 . S
S1130 N1132 1.610 . S
N1131 S1130 1.613 . S
N1131 C1134 1.350 . S
N1132 S1130 1.610 . S
N1132 C1133 1.351 . S
C1133 C1127 1.428 . S
C1133 N1132 1.351 . S
C1133 C1134 1.434 . S
C1134 C1125 1.429 . S
C1134 N1131 1.350 . S
C1134 C1133 1.434 . S
C1135 C1136 1.369 . S
C1135 C1137 1.419 . S
C1135 H1139 0.930 . S
C1136 C1135 1.369 . S
C1136 C1145 1.429 . S
C1137 C1135 1.419 . S
C1137 C1138 1.363 . S
C1137 H1140 0.929 . S
C1138 C1137 1.363 . S
C1138 C1144 1.428 . S
H1139 C1135 0.930 . S
H1140 C1137 0.929 . S
S1141 N1142 1.613 1_565 S
S1141 N1143 1.607 1_565 S
N1142 S1141 1.613 1_545 S
N1142 C1145 1.350 . S
N1143 S1141 1.607 1_545 S
N1143 C1144 1.351 . S
C1144 C1138 1.428 . S
C1144 N1143 1.351 . S
C1144 C1145 1.434 . S
C1145 C1136 1.429 . S
C1145 N1142 1.350 . S
C1145 C1144 1.434 . S
C1146 C1147 1.369 . S
C1146 C1148 1.419 . S
C1146 H1150 0.930 . S
C1147 C1146 1.369 . S
C1147 C1156 1.429 . S
C1148 C1146 1.419 . S
C1148 C1149 1.363 . S
C1148 H1151 0.929 . S
C1149 C1148 1.363 . S
C1149 C1155 1.428 . S
H1150 C1146 0.930 . S
H1151 C1148 0.929 . S
S1152 N1153 1.613 . S
S1152 N1154 1.610 . S
N1153 S1152 1.613 . S
N1153 C1156 1.350 . S
N1154 S1152 1.610 . S
N1154 C1155 1.351 . S
C1155 C1149 1.428 . S
C1155 N1154 1.351 . S
C1155 C1156 1.434 . S
C1156 C1147 1.429 . S
C1156 N1153 1.350 . S
C1156 C1155 1.434 . S
C1157 C1158 1.369 . S
C1157 C1159 1.419 . S
C1157 H1161 0.930 . S
C1158 C1157 1.369 . S
C1158 C1167 1.429 . S
C1159 C1157 1.419 . S
C1159 C1160 1.363 . S
C1159 H1162 0.929 . S
C1160 C1159 1.363 . S
C1160 C1166 1.428 . S
H1161 C1157 0.930 . S
H1162 C1159 0.929 . S
S1163 N1164 1.613 . S
S1163 N1165 1.610 . S
N1164 S1163 1.613 . S
N1164 C1167 1.350 . S
N1165 S1163 1.610 . S
N1165 C1166 1.351 . S
C1166 C1160 1.428 . S
C1166 N1165 1.351 . S
C1166 C1167 1.434 . S
C1167 C1158 1.429 . S
C1167 N1164 1.350 . S
C1167 C1166 1.434 . S
C641 C26 0.986 . S
C643 C497 1.007 . S
C652 C217 1.008 . S
C654 C66 0.990 . S
C663 C106 0.987 . S
C665 C577 1.006 . S
C674 C146 1.010 1_554 S
C676 C297 0.989 1_556 S
C685 C177 1.002 . S
C687 C346 0.995 . S
C696 C426 1.009 . S
C698 C257 0.989 . S
C707 C537 1.002 1_556 S
C709 C386 0.994 1_554 S
C718 C466 1.009 . S
C720 C617 0.990 . S
C729 C383 2.389 . S
C731 C17 2.361 1_556 S
C740 C57 2.360 . S
C742 C423 2.391 . S
C751 C97 2.355 . S
C753 C463 2.392 . S
C762 C343 2.386 . S
C764 C137 2.360 . S
C773 C522 2.393 . S
C775 C186 2.356 1_554 S
C784 C562 2.386 . S
C786 C226 2.362 . S
C795 C266 2.356 . S
C797 C602 2.393 . S
C806 C482 2.388 . S
C808 C306 2.358 . S
C817 C337 2.363 . S
C819 C63 2.387 . S
C828 C377 2.356 . S
C830 C103 2.391 . S
C839 C417 2.356 1_556 S
C841 C143 2.391 . S
C850 C23 2.386 . S
C852 C457 2.361 . S
C861 C202 2.386 . S
C863 C506 2.361 . S
C872 C546 2.360 . S
C874 C242 2.387 . S
C883 C282 2.393 . S
C885 C586 2.358 1_554 S
C894 C626 2.362 . S
C896 C162 2.386 . S
C905 C13 2.904 . S
C907 C413 2.905 . S
C916 C53 2.903 . S
C918 C453 2.904 . S
C927 C333 2.904 . S
C929 C93 2.905 . S
C938 C133 2.905 . S
C940 C373 2.905 . S
C949 C184 2.905 . S
C951 C584 2.904 . S
C960 C224 2.903 . S
C962 C624 2.904 . S
C971 C504 2.904 . S
C973 C264 2.904 . S
C982 C304 2.904 . S
C984 C544 2.904 . S
C993 C2 1.836 . S
C995 C293 2.165 . S
C1004 C493 2.168 . S
C1006 C42 1.833 . S
C1015 C82 1.827 . S
C1017 C213 2.169 . S
C1026 C122 1.839 1_455 S
C1028 C573 2.165 . S
C1037 C183 1.838 . S
C1039 C144 2.164 . S
C1048 C344 2.163 . S
C1050 C223 1.839 . S
C1059 C263 1.840 . S
C1061 C64 2.164 . S
C1070 C424 2.163 . S
C1072 C303 1.839 1_655 S
C1081 C322 1.839 . S
C1083 C613 2.165 . S
C1092 C173 2.165 . S
C1094 C362 1.837 1_655 S
C1103 C533 2.170 . S
C1105 C402 1.829 . S
C1114 C442 1.827 . S
C1116 C253 2.169 . S
C1125 C503 1.827 . S
C1127 C464 2.169 . S
C1136 C543 1.840 1_455 S
C1138 C24 2.164 . S
C1147 C384 2.162 . S
C1149 C583 1.839 . S
C1158 C104 2.163 . S
C1160 C623 1.839 . S
