# Generated by pormake.
# Topology wmi, (6)-cn, num edge types: 1
# Building blocks:
#     Node 0, Type 0, BuildingBlock: JUFBIX_clean_sbu_0, # of connection points: 6
#     Node 1, Type 0, BuildingBlock: JUFBIX_clean_sbu_0, # of connection points: 6
#     Node 2, Type 0, BuildingBlock: JUFBIX_clean_sbu_0, # of connection points: 6
#     Node 3, Type 0, BuildingBlock: JUFBIX_clean_sbu_0, # of connection points: 6
#     Node 4, Type 0, BuildingBlock: JUFBIX_clean_sbu_0, # of connection points: 6
#     Node 5, Type 0, BuildingBlock: JUFBIX_clean_sbu_0, # of connection points: 6
#     Node 6, Type 0, BuildingBlock: JUFBIX_clean_sbu_0, # of connection points: 6
#     Node 7, Type 0, BuildingBlock: JUFBIX_clean_sbu_0, # of connection points: 6
#     Node 8, Type 0, BuildingBlock: JUFBIX_clean_sbu_0, # of connection points: 6
#     Node 9, Type 0, BuildingBlock: JUFBIX_clean_sbu_0, # of connection points: 6
#     Node 10, Type 0, BuildingBlock: JUFBIX_clean_sbu_0, # of connection points: 6
#     Node 11, Type 0, BuildingBlock: JUFBIX_clean_sbu_0, # of connection points: 6
#     Node 12, Type 0, BuildingBlock: JUFBIX_clean_sbu_0, # of connection points: 6
#     Node 13, Type 0, BuildingBlock: JUFBIX_clean_sbu_0, # of connection points: 6
#     Node 14, Type 0, BuildingBlock: JUFBIX_clean_sbu_0, # of connection points: 6
#     Node 15, Type 0, BuildingBlock: JUFBIX_clean_sbu_0, # of connection points: 6
#     Node 16, Type 0, BuildingBlock: JUFBIX_clean_sbu_0, # of connection points: 6
#     Node 17, Type 0, BuildingBlock: JUFBIX_clean_sbu_0, # of connection points: 6
#     Edge 18, Type (0, 0), BuildingBlock: KIFKEQ_clean_linker_1, # of connection points: 2
#     Edge 19, Type (0, 0), BuildingBlock: KIFKEQ_clean_linker_1, # of connection points: 2
#     Edge 20, Type (0, 0), BuildingBlock: KIFKEQ_clean_linker_1, # of connection points: 2
#     Edge 21, Type (0, 0), BuildingBlock: KIFKEQ_clean_linker_1, # of connection points: 2
#     Edge 22, Type (0, 0), BuildingBlock: KIFKEQ_clean_linker_1, # of connection points: 2
#     Edge 23, Type (0, 0), BuildingBlock: KIFKEQ_clean_linker_1, # of connection points: 2
#     Edge 24, Type (0, 0), BuildingBlock: KIFKEQ_clean_linker_1, # of connection points: 2
#     Edge 25, Type (0, 0), BuildingBlock: KIFKEQ_clean_linker_1, # of connection points: 2
#     Edge 26, Type (0, 0), BuildingBlock: KIFKEQ_clean_linker_1, # of connection points: 2
#     Edge 27, Type (0, 0), BuildingBlock: KIFKEQ_clean_linker_1, # of connection points: 2
#     Edge 28, Type (0, 0), BuildingBlock: KIFKEQ_clean_linker_1, # of connection points: 2
#     Edge 29, Type (0, 0), BuildingBlock: KIFKEQ_clean_linker_1, # of connection points: 2
#     Edge 30, Type (0, 0), BuildingBlock: KIFKEQ_clean_linker_1, # of connection points: 2
#     Edge 31, Type (0, 0), BuildingBlock: KIFKEQ_clean_linker_1, # of connection points: 2
#     Edge 32, Type (0, 0), BuildingBlock: KIFKEQ_clean_linker_1, # of connection points: 2
#     Edge 33, Type (0, 0), BuildingBlock: KIFKEQ_clean_linker_1, # of connection points: 2
#     Edge 34, Type (0, 0), BuildingBlock: KIFKEQ_clean_linker_1, # of connection points: 2
#     Edge 35, Type (0, 0), BuildingBlock: KIFKEQ_clean_linker_1, # of connection points: 2
#     Edge 36, Type (0, 0), BuildingBlock: KIFKEQ_clean_linker_1, # of connection points: 2
#     Edge 37, Type (0, 0), BuildingBlock: KIFKEQ_clean_linker_1, # of connection points: 2
#     Edge 38, Type (0, 0), BuildingBlock: KIFKEQ_clean_linker_1, # of connection points: 2
#     Edge 39, Type (0, 0), BuildingBlock: KIFKEQ_clean_linker_1, # of connection points: 2
#     Edge 40, Type (0, 0), BuildingBlock: KIFKEQ_clean_linker_1, # of connection points: 2
#     Edge 41, Type (0, 0), BuildingBlock: KIFKEQ_clean_linker_1, # of connection points: 2
#     Edge 42, Type (0, 0), BuildingBlock: KIFKEQ_clean_linker_1, # of connection points: 2
#     Edge 43, Type (0, 0), BuildingBlock: KIFKEQ_clean_linker_1, # of connection points: 2
#     Edge 44, Type (0, 0), BuildingBlock: KIFKEQ_clean_linker_1, # of connection points: 2
#     Edge 45, Type (0, 0), BuildingBlock: KIFKEQ_clean_linker_1, # of connection points: 2
#     Edge 46, Type (0, 0), BuildingBlock: KIFKEQ_clean_linker_1, # of connection points: 2
#     Edge 47, Type (0, 0), BuildingBlock: KIFKEQ_clean_linker_1, # of connection points: 2
#     Edge 48, Type (0, 0), BuildingBlock: KIFKEQ_clean_linker_1, # of connection points: 2
#     Edge 49, Type (0, 0), BuildingBlock: KIFKEQ_clean_linker_1, # of connection points: 2
#     Edge 50, Type (0, 0), BuildingBlock: KIFKEQ_clean_linker_1, # of connection points: 2
#     Edge 51, Type (0, 0), BuildingBlock: KIFKEQ_clean_linker_1, # of connection points: 2
#     Edge 52, Type (0, 0), BuildingBlock: KIFKEQ_clean_linker_1, # of connection points: 2
#     Edge 53, Type (0, 0), BuildingBlock: KIFKEQ_clean_linker_1, # of connection points: 2
#     Edge 54, Type (0, 0), BuildingBlock: KIFKEQ_clean_linker_1, # of connection points: 2
#     Edge 55, Type (0, 0), BuildingBlock: KIFKEQ_clean_linker_1, # of connection points: 2
#     Edge 56, Type (0, 0), BuildingBlock: KIFKEQ_clean_linker_1, # of connection points: 2
#     Edge 57, Type (0, 0), BuildingBlock: KIFKEQ_clean_linker_1, # of connection points: 2
#     Edge 58, Type (0, 0), BuildingBlock: KIFKEQ_clean_linker_1, # of connection points: 2
#     Edge 59, Type (0, 0), BuildingBlock: KIFKEQ_clean_linker_1, # of connection points: 2
#     Edge 60, Type (0, 0), BuildingBlock: KIFKEQ_clean_linker_1, # of connection points: 2
#     Edge 61, Type (0, 0), BuildingBlock: KIFKEQ_clean_linker_1, # of connection points: 2
#     Edge 62, Type (0, 0), BuildingBlock: KIFKEQ_clean_linker_1, # of connection points: 2
#     Edge 63, Type (0, 0), BuildingBlock: KIFKEQ_clean_linker_1, # of connection points: 2
#     Edge 64, Type (0, 0), BuildingBlock: KIFKEQ_clean_linker_1, # of connection points: 2
#     Edge 65, Type (0, 0), BuildingBlock: KIFKEQ_clean_linker_1, # of connection points: 2
#     Edge 66, Type (0, 0), BuildingBlock: KIFKEQ_clean_linker_1, # of connection points: 2
#     Edge 67, Type (0, 0), BuildingBlock: KIFKEQ_clean_linker_1, # of connection points: 2
#     Edge 68, Type (0, 0), BuildingBlock: KIFKEQ_clean_linker_1, # of connection points: 2
#     Edge 69, Type (0, 0), BuildingBlock: KIFKEQ_clean_linker_1, # of connection points: 2
#     Edge 70, Type (0, 0), BuildingBlock: KIFKEQ_clean_linker_1, # of connection points: 2
#     Edge 71, Type (0, 0), BuildingBlock: KIFKEQ_clean_linker_1, # of connection points: 2
# Relax obj value: 0.300
# Max RMSD: 0.237
# Mean RMSD: 0.237
data_MOF--net-wmi--node1-JUFBIX_clean_sbu_0--edge1-KIFKEQ_clean_linker_1
_symmetry_space_group_name_H-M    P1
_symmetry_Int_Tables_number       1
_symmetry_cell_setting            triclinic
loop_
_symmetry_equiv_pos_as_xyz
'x, y, z'
_cell_length_a     33.63566
_cell_length_b     33.632252
_cell_length_c     85.305231
_cell_angle_alpha  90.010606
_cell_angle_beta   89.950074
_cell_angle_gamma 120.08166
loop_
_atom_site_label
_atom_site_type_symbol
_atom_site_fract_x
_atom_site_fract_y
_atom_site_fract_z
_atom_type_partial_charge
Co0 Co 0.46929 0.98126 0.10969 0.0
C1 C 0.46773 0.02153 0.0808 0.0
Co2 Co 0.45409 0.03796 0.11125 0.0
C3 C 0.51475 0.92578 0.10898 0.0
C4 C 0.45111 0.89658 0.09643 0.0
N5 N 0.4785 0.93177 0.10604 0.0
N6 N 0.51072 0.88865 0.1014 0.0
C7 C 0.4707 0.87021 0.09361 0.0
H8 H 0.54474 0.94964 0.11562 0.0
H9 H 0.42021 0.89189 0.09084 0.0
C10 C 0.45055 0.99409 0.13998 0.0
N11 N 0.44465 0.0872 0.1142 0.0
C12 C 0.47296 0.13179 0.11043 0.0
C13 C 0.41061 0.08692 0.12264 0.0
N14 N 0.45838 0.1594 0.11645 0.0
C15 C 0.41894 0.13117 0.12404 0.0
C16 C 0.37591 0.95436 0.10773 0.0
O17 O 0.462 0.96957 0.13183 0.0
O18 O 0.44841 0.02693 0.13336 0.0
O19 O 0.38897 0.99673 0.10923 0.0
O20 O 0.40543 0.94158 0.10753 0.0
O21 O 0.45878 0.04772 0.089 0.0
H22 H 0.3826 0.05673 0.12803 0.0
H23 H 0.50496 0.14407 0.10413 0.0
O24 O 0.47446 0.99198 0.08771 0.0
O25 O 0.53408 0.02242 0.11188 0.0
O26 O 0.51911 0.07862 0.11324 0.0
C27 C 0.54841 0.06526 0.11297 0.0
H28 H 0.45756 0.84074 0.08588 0.0
H29 H 0.39808 0.14183 0.13046 0.0
Co30 Co 0.05334 0.50192 0.10054 0.0
C31 C 0.01637 0.46472 0.07078 0.0
Co32 Co 1.0011 0.42763 0.10017 0.0
C33 C 0.10409 0.60213 0.10632 0.0
C34 C 0.12918 0.57988 0.0871 0.0
N35 N 0.09787 0.56391 0.0988 0.0
N36 N 0.13759 0.64082 0.09951 0.0
C37 C 0.15338 0.62688 0.08748 0.0
H38 H 0.08323 0.60172 0.11606 0.0
H39 H 0.133 0.55866 0.07838 0.0
C40 C 0.04061 0.46204 0.12961 0.0
N41 N 0.95577 0.36471 0.10151 0.0
C42 C 0.90921 0.34443 0.10138 0.0
C43 C 0.96363 0.32983 0.10452 0.0
N44 N 0.88804 0.29864 0.10431 0.0
C45 C 0.9225 0.28959 0.10617 0.0
C46 C 0.09043 0.44598 0.09599 0.0
O47 O 0.06534 0.50034 0.1226 0.0
O48 O 0.00884 0.42865 0.12204 0.0
O49 O 0.04961 0.41275 0.09787 0.0
O50 O 0.09803 0.48672 0.09619 0.0
O51 O 0.99462 0.42672 0.07807 0.0
H52 H 0.99711 0.33324 0.10595 0.0
H53 H 0.89108 0.3631 0.09977 0.0
O54 O 0.04132 0.50133 0.07851 0.0
O55 O 0.0085 0.51759 0.10494 0.0
O56 O 0.95479 0.44526 0.10253 0.0
C57 C 0.96627 0.48718 0.10474 0.0
H58 H 0.18005 0.64931 0.07937 0.0
H59 H 0.91851 0.25626 0.10871 0.0
Co60 Co 0.54689 0.56054 0.10121 0.0
C61 C 0.58144 0.56059 0.07083 0.0
Co62 Co 0.62174 0.58868 0.09948 0.0
C63 C 0.44878 0.53598 0.10671 0.0
C64 C 0.45987 0.48764 0.09393 0.0
N65 N 0.48256 0.52933 0.10091 0.0
N66 N 0.40653 0.49936 0.10381 0.0
C67 C 0.41376 0.4693 0.09575 0.0
H68 H 0.45491 0.56645 0.11303 0.0
H69 H 0.47593 0.47108 0.08788 0.0
C70 C 0.58986 0.59466 0.12941 0.0
N71 N 0.68506 0.61382 0.09942 0.0
C72 C 0.70692 0.59084 0.09548 0.0
C73 C 0.71777 0.65323 0.10598 0.0
N74 N 0.75141 0.61324 0.0998 0.0
C75 C 0.75872 0.65299 0.1062 0.0
C76 C 0.5917 0.65198 0.09479 0.0
O77 O 0.55007 0.57672 0.12311 0.0
O78 O 0.62343 0.59873 0.12129 0.0
O79 O 0.62733 0.64794 0.0962 0.0
O80 O 0.5518 0.61671 0.0959 0.0
O81 O 0.62034 0.58009 0.07752 0.0
H82 H 0.7115 0.67875 0.11133 0.0
H83 H 0.68988 0.55687 0.09032 0.0
O84 O 0.54557 0.54704 0.07917 0.0
O85 O 0.54223 0.50438 0.10681 0.0
O86 O 0.61464 0.52862 0.10298 0.0
C87 C 0.57491 0.49619 0.10648 0.0
H88 H 0.3873 0.43665 0.09114 0.0
H89 H 0.7903 0.67829 0.11176 0.0
Co90 Co 0.98433 0.46783 0.92372 0.0
C91 C 0.02659 0.46875 0.95236 0.0
Co92 Co 0.0375 0.44737 0.92224 0.0
C93 C 0.93156 0.51642 0.92132 0.0
C94 C 0.9075 0.46369 0.93883 0.0
N95 N 0.93852 0.48284 0.92712 0.0
N96 N 0.89788 0.51885 0.9292 0.0
C97 C 0.88273 0.48567 0.94013 0.0
H98 H 0.95226 0.54008 0.91217 0.0
H99 H 0.90455 0.4368 0.94654 0.0
C100 C 0.99251 0.44247 0.89383 0.0
N101 N 0.08374 0.43246 0.91946 0.0
C102 C 0.12961 0.45851 0.92193 0.0
C103 C 0.07816 0.39351 0.91292 0.0
N104 N 0.15283 0.43748 0.91704 0.0
C105 C 0.12023 0.39638 0.91148 0.0
C106 C 0.95094 0.3739 0.92771 0.0
O107 O 0.96911 0.45537 0.90196 0.0
O108 O 0.02559 0.4404 0.90027 0.0
O109 O 0.99197 0.38342 0.92502 0.0
O110 O 0.9415 0.4059 0.92807 0.0
O111 O 0.048 0.45339 0.94438 0.0
H112 H 0.0457 0.36521 0.90898 0.0
H113 H 0.14583 0.49295 0.92667 0.0
O114 O 0.99931 0.47867 0.94539 0.0
O115 O 0.02784 0.53003 0.9194 0.0
O116 O 0.08182 0.51156 0.91955 0.0
C117 C 0.07017 0.54216 0.9186 0.0
H118 H 0.85631 0.4787 0.94873 0.0
H119 H 0.12618 0.37017 0.90654 0.0
Co120 Co 0.56872 0.53916 0.92351 0.0
C121 C 0.5665 0.57618 0.95282 0.0
Co122 Co 0.58803 0.61276 0.92305 0.0
C123 C 0.51861 0.43765 0.92109 0.0
C124 C 0.57837 0.46577 0.9357 0.0
N125 N 0.55497 0.4781 0.92582 0.0
N126 N 0.51897 0.4013 0.92771 0.0
C127 C 0.55645 0.41893 0.93685 0.0
H128 H 0.49112 0.43492 0.91374 0.0
H129 H 0.60806 0.48925 0.9425 0.0
C130 C 0.59488 0.57686 0.89401 0.0
N131 N 0.60185 0.67392 0.9214 0.0
C132 C 0.57546 0.69285 0.92471 0.0
C133 C 0.64052 0.70857 0.91512 0.0
N134 N 0.59605 0.7378 0.92061 0.0
C135 C 0.63718 0.74763 0.91467 0.0
C136 C 0.66244 0.60104 0.92781 0.0
O137 O 0.58157 0.53958 0.90161 0.0
O138 O 0.59637 0.61115 0.90095 0.0
O139 O 0.65218 0.6323 0.92589 0.0
O140 O 0.63099 0.55933 0.92758 0.0
O141 O 0.58079 0.61373 0.94534 0.0
H142 H 0.669 0.70543 0.91073 0.0
H143 H 0.54114 0.67356 0.92952 0.0
O144 O 0.5577 0.54006 0.9453 0.0
O145 O 0.50618 0.51978 0.9194 0.0
O146 O 0.52367 0.59196 0.92017 0.0
C147 C 0.49349 0.54958 0.91885 0.0
H148 H 0.56608 0.3992 0.94437 0.0
H149 H 0.66315 0.78067 0.91019 0.0
Co150 Co 0.49506 0.05244 0.93223 0.0
C151 C 0.45889 0.01664 0.96217 0.0
Co152 Co 0.42154 0.99754 0.93264 0.0
C153 C 0.59561 0.10424 0.92746 0.0
C154 C 0.57043 0.13383 0.94421 0.0
N155 N 0.55629 0.09919 0.93374 0.0
N156 N 0.63319 0.14036 0.93382 0.0
C157 C 0.61741 0.15895 0.94429 0.0
H158 H 0.59678 0.08065 0.91909 0.0
H159 H 0.54803 0.13919 0.95194 0.0
C160 C 0.45546 0.03607 0.90299 0.0
N161 N 0.35961 0.9505 0.93157 0.0
C162 C 0.34176 0.90429 0.93165 0.0
C163 C 0.32285 0.95593 0.92933 0.0
N164 N 0.29568 0.88106 0.92959 0.0
C165 C 0.28378 0.9136 0.9282 0.0
C166 C 0.4348 0.08556 0.93592 0.0
O167 O 0.49369 0.06104 0.90997 0.0
O168 O 0.42174 0.0051 0.91071 0.0
O169 O 0.40354 0.04359 0.93505 0.0
O170 O 0.47651 0.09607 0.93525 0.0
O171 O 0.42162 0.99113 0.95485 0.0
H172 H 0.32407 0.9885 0.92811 0.0
H173 H 0.36203 0.88777 0.93307 0.0
O174 O 0.49458 0.04411 0.95442 0.0
O175 O 0.51358 0.0081 0.92914 0.0
O176 O 0.44149 0.95326 0.9301 0.0
C177 C 0.48384 0.96551 0.9288 0.0
H178 H 0.63858 0.18791 0.95182 0.0
H179 H 0.24944 0.90733 0.92593 0.0
Co180 Co 0.17445 0.34655 0.43535 0.0
C181 C 0.17365 0.38335 0.40563 0.0
Co182 Co 0.14292 0.3898 0.43463 0.0
C183 C 0.20055 0.27583 0.44 0.0
C184 C 0.24984 0.33624 0.42782 0.0
N185 N 0.208 0.31677 0.43465 0.0
N186 N 0.23643 0.26948 0.43679 0.0
C187 C 0.26724 0.30747 0.42909 0.0
H188 H 0.16961 0.25142 0.44611 0.0
H189 H 0.26673 0.36947 0.42213 0.0
C190 C 0.13812 0.34926 0.46387 0.0
N191 N 0.11334 0.42366 0.43539 0.0
C192 C 0.13266 0.46914 0.43267 0.0
C193 C 0.07257 0.41144 0.44219 0.0
N194 N 0.10655 0.48622 0.43802 0.0
C195 C 0.06839 0.44991 0.44388 0.0
C196 C 0.08448 0.2962 0.42885 0.0
O197 O 0.15668 0.32915 0.45685 0.0
O198 O 0.13347 0.37962 0.45657 0.0
O199 O 0.08605 0.33439 0.43119 0.0
O200 O 0.12112 0.29415 0.42912 0.0
O201 O 0.15099 0.39895 0.41263 0.0
H202 H 0.04921 0.37763 0.44682 0.0
H203 H 0.16721 0.49023 0.42822 0.0
O204 O 0.18961 0.36265 0.41364 0.0
O205 O 0.22812 0.39877 0.44192 0.0
O206 O 0.20084 0.44462 0.43821 0.0
C207 C 0.23407 0.43886 0.4419 0.0
H208 H 0.29955 0.31356 0.42423 0.0
H209 H 0.04082 0.4515 0.44986 0.0
Co210 Co 0.71853 0.85111 0.43365 0.0
C211 C 0.67508 0.81443 0.40461 0.0
Co212 Co 0.67461 0.77639 0.43296 0.0
C213 C 0.79267 0.94718 0.43726 0.0
C214 C 0.73049 0.93765 0.42695 0.0
N215 N 0.75013 0.91441 0.43289 0.0
N216 N 0.79976 0.98982 0.43431 0.0
C217 C 0.76067 0.98362 0.42778 0.0
H218 H 0.81769 0.93991 0.44245 0.0
H219 H 0.69617 0.92207 0.42213 0.0
C220 C 0.72048 0.81134 0.46163 0.0
N221 N 0.63843 0.71339 0.43345 0.0
C222 C 0.59381 0.69122 0.42938 0.0
C223 C 0.64467 0.68197 0.44117 0.0
N224 N 0.57105 0.648 0.43493 0.0
C225 C 0.60307 0.64153 0.44211 0.0
C226 C 0.7659 0.80901 0.4244 0.0
O227 O 0.73904 0.85027 0.45475 0.0
O228 O 0.68968 0.7762 0.45447 0.0
O229 O 0.72774 0.77248 0.42714 0.0
O230 O 0.76878 0.84793 0.42599 0.0
O231 O 0.66029 0.77616 0.41148 0.0
H232 H 0.67613 0.68926 0.44704 0.0
H233 H 0.57744 0.70789 0.42359 0.0
O234 O 0.69907 0.85101 0.41239 0.0
O235 O 0.66851 0.85474 0.4415 0.0
O236 O 0.62165 0.7815 0.43878 0.0
C237 C 0.62823 0.82094 0.44231 0.0
H238 H 0.75468 0.01035 0.42339 0.0
H239 H 0.59614 0.61148 0.44887 0.0
Co240 Co 0.20252 0.89123 0.4472 0.0
C241 C 0.22767 0.88564 0.41645 0.0
Co242 Co 0.27614 0.9151 0.44428 0.0
C243 C 0.10797 0.86359 0.43956 0.0
C244 C 0.11711 0.85013 0.46341 0.0
N245 N 0.14041 0.86919 0.45005 0.0
N246 N 0.06531 0.84146 0.44585 0.0
C247 C 0.07118 0.83336 0.4609 0.0
H248 H 0.11538 0.87418 0.42743 0.0
H249 H 0.13233 0.84735 0.47421 0.0
C250 C 0.25447 0.92766 0.47448 0.0
N251 N 0.33838 0.93531 0.44223 0.0
C252 C 0.35795 0.90951 0.43915 0.0
C253 C 0.37331 0.97608 0.44711 0.0
N254 N 0.40325 0.932 0.44241 0.0
C255 C 0.41316 0.97407 0.4473 0.0
C256 C 0.25211 0.98202 0.43972 0.0
O257 O 0.21415 0.9109 0.46889 0.0
O258 O 0.28566 0.92861 0.46586 0.0
O259 O 0.28652 0.97595 0.44061 0.0
O260 O 0.21186 0.94857 0.44186 0.0
O261 O 0.26736 0.90319 0.42258 0.0
H262 H 0.36945 0.00414 0.4515 0.0
H263 H 0.33879 0.87358 0.43593 0.0
O264 O 0.19303 0.87442 0.4253 0.0
O265 O 0.19216 0.83286 0.45247 0.0
O266 O 0.26383 0.85354 0.44797 0.0
C267 C 0.22333 0.82244 0.45151 0.0
H268 H 0.04428 0.81649 0.46955 0.0
H269 H 0.44627 1.00052 0.45158 0.0
Co270 Co 0.65962 0.81949 0.25575 0.0
C271 C 0.68643 0.82344 0.28663 0.0
Co272 Co 0.71224 0.79876 0.25874 0.0
C273 C 0.60779 0.867 0.26002 0.0
C274 C 0.58202 0.81791 0.24133 0.0
N275 N 0.61501 0.83583 0.25243 0.0
N276 N 0.57202 0.86947 0.25391 0.0
C277 C 0.55582 0.83863 0.24216 0.0
H278 H 0.62836 0.88754 0.26979 0.0
H279 H 0.57677 0.79091 0.23326 0.0
C280 C 0.68261 0.78876 0.22826 0.0
N281 N 0.75758 0.7823 0.26182 0.0
C282 C 0.80312 0.80683 0.25845 0.0
C283 C 0.7514 0.7423 0.2677 0.0
N284 N 0.82516 0.78356 0.26187 0.0
C285 C 0.79262 0.74289 0.26765 0.0
C286 C 0.6221 0.72736 0.2615 0.0
O287 O 0.65721 0.80344 0.23384 0.0
O288 O 0.71271 0.78808 0.23706 0.0
O289 O 0.66343 0.73564 0.26102 0.0
O290 O 0.61376 0.75986 0.25992 0.0
O291 O 0.71062 0.80802 0.28058 0.0
H292 H 0.71906 0.71429 0.27185 0.0
H293 H 0.81988 0.84083 0.25332 0.0
O294 O 0.66216 0.83327 0.27772 0.0
O295 O 0.70539 0.87987 0.25168 0.0
O296 O 0.75895 0.86247 0.25633 0.0
C297 C 0.74756 0.89245 0.25315 0.0
H298 H 0.52612 0.83052 0.23502 0.0
H299 H 0.7984 0.71577 0.27179 0.0
Co300 Co 0.23533 0.86929 0.27039 0.0
C301 C 0.22651 0.90728 0.29868 0.0
Co302 Co 0.25562 0.94213 0.26913 0.0
C303 C 0.19339 0.77037 0.26568 0.0
C304 C 0.23269 0.7955 0.28681 0.0
N305 N 0.22069 0.80935 0.27368 0.0
N306 N 0.18732 0.73298 0.27359 0.0
C307 C 0.21213 0.74868 0.28681 0.0
H308 H 0.17726 0.76928 0.25459 0.0
H309 H 0.25418 0.81806 0.29605 0.0
C310 C 0.26776 0.90535 0.24105 0.0
N311 N 0.27011 0.00239 0.26659 0.0
C312 C 0.24196 0.01964 0.26879 0.0
C313 C 0.3084 0.0369 0.26007 0.0
N314 N 0.2607 0.06327 0.26362 0.0
C315 C 0.30276 0.07442 0.25825 0.0
C316 C 0.32805 0.9302 0.2769 0.0
O317 O 0.25342 0.86845 0.24896 0.0
O318 O 0.26809 0.93969 0.24744 0.0
O319 O 0.31863 0.96145 0.27369 0.0
O320 O 0.29618 0.88859 0.27662 0.0
O321 O 0.24411 0.94482 0.29106 0.0
H322 H 0.33749 0.03417 0.25609 0.0
H323 H 0.20769 0.99999 0.2736 0.0
O324 O 0.21857 0.87096 0.29157 0.0
O325 O 0.17388 0.8496 0.26425 0.0
O326 O 0.19214 0.92184 0.26442 0.0
C327 C 0.16187 0.8797 0.26278 0.0
H328 H 0.21544 0.72765 0.29574 0.0
H329 H 0.32668 0.10637 0.25255 0.0
Co330 Co 0.17485 0.37026 0.25675 0.0
C331 C 0.14452 0.34142 0.28807 0.0
Co332 Co 0.09995 0.32854 0.26037 0.0
C333 C 0.27253 0.44145 0.25104 0.0
C334 C 0.26131 0.37874 0.2614 0.0
N335 N 0.23878 0.39957 0.25579 0.0
N336 N 0.31481 0.44665 0.2533 0.0
C337 C 0.30748 0.40715 0.25981 0.0
H338 H 0.26628 0.4677 0.24632 0.0
H339 H 0.24523 0.34522 0.26687 0.0
C340 C 0.12864 0.36159 0.22955 0.0
N341 N 0.03632 0.29512 0.2616 0.0
C342 C 0.01074 0.25036 0.26555 0.0
C343 C 0.00617 0.30608 0.25541 0.0
N344 N 0.96623 0.23234 0.26154 0.0
C345 C 0.96308 0.2675 0.25531 0.0
C346 C 0.13743 0.42352 0.26316 0.0
O347 O 0.16955 0.38072 0.2349 0.0
O348 O 0.09546 0.33518 0.23848 0.0
O349 O 0.1002 0.3849 0.26342 0.0
O350 O 0.17561 0.4249 0.26125 0.0
O351 O 0.10448 0.32335 0.28223 0.0
H352 H 0.01551 0.33887 0.25013 0.0
H353 H 0.02519 0.23013 0.26994 0.0
O354 O 0.17906 0.36094 0.27894 0.0
O355 O 0.17352 0.31532 0.25178 0.0
O356 O 0.10089 0.27246 0.25722 0.0
C357 C 0.13859 0.27589 0.25306 0.0
H358 H 0.33377 0.40012 0.26393 0.0
H359 H 0.93249 0.2649 0.25013 0.0
Co360 Co 0.8099 0.65727 0.76515 0.0
C361 C 0.81075 0.69483 0.73557 0.0
Co362 Co 0.791 0.71181 0.76532 0.0
C363 C 0.86085 0.60794 0.76926 0.0
C364 C 0.80559 0.57716 0.75271 0.0
N365 N 0.82562 0.61171 0.76323 0.0
N366 N 0.86328 0.57266 0.7627 0.0
C367 C 0.82863 0.55328 0.75236 0.0
H368 H 0.88557 0.63187 0.77757 0.0
H369 H 0.77741 0.57109 0.74509 0.0
C370 C 0.78521 0.67043 0.79462 0.0
N371 N 0.77442 0.75747 0.76689 0.0
C372 C 0.79929 0.80359 0.76457 0.0
C373 C 0.73356 0.75008 0.77229 0.0
N374 N 0.77548 0.82503 0.76839 0.0
C375 C 0.73399 0.79103 0.77311 0.0
C376 C 0.71727 0.6231 0.76129 0.0
O377 O 0.79851 0.64627 0.78716 0.0
O378 O 0.78324 0.70266 0.78748 0.0
O379 O 0.7271 0.66471 0.76276 0.0
O380 O 0.74899 0.61348 0.76161 0.0
O381 O 0.79793 0.71951 0.74292 0.0
H382 H 0.70536 0.71711 0.77588 0.0
H383 H 0.83469 0.82123 0.76069 0.0
O384 O 0.8191 0.66751 0.74326 0.0
O385 O 0.87162 0.70172 0.76874 0.0
O386 O 0.85511 0.7571 0.76799 0.0
C387 C 0.88484 0.7443 0.76922 0.0
H388 H 0.82158 0.52478 0.74471 0.0
H389 H 0.70571 0.7952 0.77704 0.0
Co390 Co 0.36749 0.17408 0.77572 0.0
C391 C 0.33556 0.14839 0.74463 0.0
Co392 Co 0.32452 0.09934 0.77135 0.0
C393 C 0.4414 0.27201 0.78044 0.0
C394 C 0.37494 0.26128 0.77462 0.0
N395 N 0.39753 0.23833 0.77769 0.0
N396 N 0.44601 0.31445 0.77954 0.0
C397 C 0.40411 0.30734 0.7759 0.0
H398 H 0.46947 0.26567 0.78258 0.0
H399 H 0.33964 0.24589 0.77081 0.0
C400 C 0.36075 0.12427 0.80195 0.0
N401 N 0.28991 0.03587 0.76905 0.0
C402 C 0.24525 0.0119 0.76479 0.0
C403 C 0.2997 0.00387 0.77422 0.0
N404 N 0.22616 0.96646 0.76758 0.0
C405 C 0.26057 0.9612 0.77337 0.0
C406 C 0.41908 0.13676 0.76651 0.0
O407 O 0.3798 0.16568 0.79704 0.0
O408 O 0.33343 0.09185 0.79291 0.0
O409 O 0.38038 0.09953 0.76675 0.0
O410 O 0.42132 0.17489 0.76957 0.0
O411 O 0.31721 0.10742 0.74971 0.0
H412 H 0.33218 0.01139 0.77932 0.0
H413 H 0.226 0.02796 0.76093 0.0
O414 O 0.35632 0.18149 0.75422 0.0
O415 O 0.31299 0.17207 0.78212 0.0
O416 O 0.26922 0.10019 0.77603 0.0
C417 C 0.27326 0.13752 0.78092 0.0
H418 H 0.3957 0.3338 0.77332 0.0
H419 H 0.25726 0.92921 0.77745 0.0
Co420 Co 0.86943 0.24178 0.76289 0.0
C421 C 0.91283 0.24332 0.73426 0.0
Co422 Co 0.9415 0.25802 0.76465 0.0
C423 C 0.76856 0.20004 0.76339 0.0
C424 C 0.80396 0.25605 0.74734 0.0
N425 N 0.81114 0.23213 0.75861 0.0
N426 N 0.73559 0.20299 0.75527 0.0
C427 C 0.7579 0.23839 0.74531 0.0
H428 H 0.76186 0.17406 0.77212 0.0
H429 H 0.8306 0.28377 0.74056 0.0
C430 C 0.8992 0.26127 0.79306 0.0
N431 N 1.00026 0.26869 0.76842 0.0
C432 C 0.01653 0.23952 0.76656 0.0
C433 C 0.03274 0.304 0.77685 0.0
N434 N 0.05715 0.25472 0.77386 0.0
C435 C 0.06766 0.29545 0.78024 0.0
C436 C 0.93546 0.33537 0.76062 0.0
O437 O 0.86355 0.24986 0.78478 0.0
O438 O 0.93442 0.26347 0.78664 0.0
O439 O 0.96481 0.32268 0.76255 0.0
O440 O 0.89316 0.30554 0.76021 0.0
O441 O 0.94837 0.25346 0.74242 0.0
H442 H 0.02972 0.33254 0.78125 0.0
H443 H 0.99741 0.20616 0.76104 0.0
O444 O 0.87626 0.23565 0.74117 0.0
O445 O 0.84596 0.17713 0.76562 0.0
O446 O 0.9176 0.19331 0.76679 0.0
C447 C 0.87501 0.16353 0.76683 0.0
H448 H 0.74194 0.25055 0.73706 0.0
H449 H 0.09741 0.31645 0.78746 0.0
Co450 Co 0.34843 0.17353 0.59696 0.0
C451 C 0.38088 0.17954 0.62794 0.0
Co452 Co 0.39543 0.14694 0.60057 0.0
C453 C 0.27603 0.19341 0.58774 0.0
C454 C 0.33028 0.24506 0.60167 0.0
N455 N 0.31509 0.20312 0.5953 0.0
N456 N 0.26696 0.22817 0.58909 0.0
C457 C 0.30097 0.26042 0.59791 0.0
H458 H 0.25507 0.16192 0.58131 0.0
H459 H 0.36121 0.26367 0.60859 0.0
C460 C 0.35893 0.13491 0.57011 0.0
N461 N 0.4331 0.12182 0.60225 0.0
C462 C 0.47809 0.14562 0.60592 0.0
C463 C 0.42631 0.08179 0.59627 0.0
N464 N 0.50038 0.12337 0.60171 0.0
C465 C 0.46771 0.08265 0.59592 0.0
C466 C 0.30194 0.08418 0.60502 0.0
O467 O 0.33732 0.15423 0.57538 0.0
O468 O 0.38792 0.13218 0.57893 0.0
O469 O 0.34186 0.08854 0.60467 0.0
O470 O 0.29709 0.11871 0.60257 0.0
O471 O 0.402 0.1603 0.62235 0.0
H472 H 0.39451 0.05579 0.59104 0.0
H473 H 0.49499 0.18037 0.6104 0.0
O474 O 0.35809 0.1902 0.61871 0.0
O475 O 0.39958 0.22879 0.59105 0.0
O476 O 0.44838 0.20613 0.59613 0.0
C477 C 0.44055 0.23745 0.59166 0.0
H478 H 0.30376 0.29238 0.60178 0.0
H479 H 0.47397 0.05738 0.59034 0.0
Co480 Co 0.89429 0.20994 0.58611 0.0
C481 C 0.90163 0.24844 0.616 0.0
Co482 Co 0.92617 0.28475 0.58649 0.0
C483 C 0.86963 0.11369 0.58167 0.0
C484 C 0.82102 0.12402 0.59463 0.0
N485 N 0.86183 0.14679 0.58714 0.0
N486 N 0.83486 0.0713 0.58541 0.0
C487 C 0.80446 0.07794 0.59358 0.0
H488 H 0.90014 0.12057 0.57521 0.0
H489 H 0.80448 0.14004 0.60073 0.0
C490 C 0.92517 0.2478 0.55696 0.0
N491 N 0.95415 0.3479 0.58583 0.0
C492 C 0.93438 0.37154 0.59116 0.0
C493 C 0.98997 0.37815 0.57705 0.0
N494 N 0.95459 0.41455 0.58542 0.0
C495 C 0.99029 0.41935 0.57677 0.0
C496 C 0.98588 0.25082 0.59016 0.0
O497 O 0.90699 0.20946 0.56418 0.0
O498 O 0.93166 0.28349 0.5643 0.0
O499 O 0.98411 0.28753 0.58833 0.0
O500 O 0.94918 0.21211 0.5905 0.0
O501 O 0.92212 0.28636 0.60868 0.0
H502 H 0.01151 0.36954 0.57009 0.0
H503 H 0.90313 0.3562 0.59804 0.0
O504 O 0.88438 0.21132 0.6082 0.0
O505 O 0.83866 0.2072 0.58142 0.0
O506 O 0.86721 0.28065 0.58454 0.0
C507 C 0.83284 0.24136 0.58195 0.0
H508 H 0.77327 0.05143 0.59901 0.0
H509 H 0.01208 0.44875 0.5695 0.0
Co510 Co 0.86061 0.72025 0.58769 0.0
C511 C 0.82013 0.68365 0.61718 0.0
Co512 Co 0.78588 0.67531 0.58758 0.0
C513 C 0.95838 0.79353 0.58579 0.0
C514 C 0.94515 0.73016 0.59619 0.0
N515 N 0.92402 0.75086 0.58937 0.0
N516 N 0.99989 0.79955 0.59003 0.0
C517 C 0.99128 0.75964 0.59658 0.0
H518 H 0.95299 0.81965 0.58047 0.0
H519 H 0.92789 0.69586 0.60108 0.0
C520 C 0.82452 0.71576 0.55845 0.0
N521 N 0.72289 0.64028 0.58633 0.0
C522 C 0.69802 0.59672 0.59151 0.0
C523 C 0.69366 0.64721 0.57751 0.0
N524 N 0.65494 0.57539 0.58583 0.0
C525 C 0.65178 0.60709 0.57709 0.0
C526 C 0.81859 0.76879 0.59284 0.0
O527 O 0.86247 0.73648 0.56591 0.0
O528 O 0.7888 0.68539 0.56551 0.0
O529 O 0.78269 0.72989 0.5905 0.0
O530 O 0.85789 0.77214 0.59304 0.0
O531 O 0.78263 0.66615 0.60964 0.0
H532 H 0.70322 0.67804 0.57082 0.0
H533 H 0.7126 0.57951 0.59806 0.0
O534 O 0.85762 0.70565 0.60965 0.0
O535 O 0.86351 0.66802 0.58191 0.0
O536 O 0.79012 0.62102 0.58452 0.0
C537 C 0.82987 0.6276 0.58163 0.0
H538 H 0.01629 0.7528 0.60203 0.0
H539 H 0.62235 0.60088 0.57011 0.0
H540 H 0.54407 0.87572 0.07465 0.0
H541 H 0.54861 0.86491 0.12484 0.0
H542 H 0.57966 0.8283 0.07144 0.0
H543 H 0.58403 0.81673 0.12174 0.0
H544 H 0.65345 0.73246 0.10898 0.0
H545 H 0.64946 0.80353 0.11006 0.0
H546 H 0.53377 0.74317 0.0784 0.0
H547 H 0.53719 0.67263 0.07761 0.0
C548 C 0.5543 0.86438 0.08499 0.0
C549 C 0.54332 0.87326 0.09997 0.0
C550 C 0.5745 0.83726 0.08317 0.0
C551 C 0.58383 0.81826 0.09633 0.0
C552 C 0.57734 0.83114 0.1114 0.0
C553 C 0.55716 0.85861 0.11321 0.0
C554 C 0.62807 0.73513 0.10195 0.0
C555 C 0.59565 0.69735 0.09317 0.0
C556 C 0.62561 0.7755 0.10266 0.0
C557 C 0.59148 0.77886 0.09427 0.0
C558 C 0.56086 0.74184 0.08482 0.0
C559 C 0.56267 0.7014 0.0844 0.0
H560 H 0.31065 0.92231 0.13059 0.0
H561 H 0.33461 0.90386 0.08221 0.0
H562 H 0.23848 0.84818 0.13018 0.0
H563 H 0.26339 0.83044 0.08165 0.0
H564 H 0.13507 0.70264 0.08047 0.0
H565 H 0.1808 0.78609 0.08323 0.0
H566 H 0.22505 0.76904 0.12903 0.0
H567 H 0.1777 0.68539 0.12628 0.0
C568 C 0.2993 0.90327 0.11969 0.0
C569 C 0.32736 0.91887 0.10632 0.0
C570 C 0.25843 0.86064 0.1195 0.0
C571 C 0.24508 0.83322 0.1059 0.0
C572 C 0.27195 0.85079 0.09226 0.0
C573 C 0.31279 0.89294 0.09252 0.0
C574 C 0.1532 0.71705 0.09136 0.0
C575 C 0.15316 0.68802 0.10316 0.0
C576 C 0.17967 0.7647 0.09291 0.0
C577 C 0.20739 0.78432 0.10621 0.0
C578 C 0.20394 0.75519 0.11867 0.0
C579 C 0.17689 0.70732 0.11715 0.0
H580 H 0.16074 0.48533 0.07567 0.0
H581 H 0.11273 0.39835 0.11656 0.0
H582 H 0.2381 0.49886 0.07998 0.0
H583 H 0.19077 0.41272 0.12124 0.0
H584 H 0.33292 0.42145 0.11365 0.0
H585 H 0.25306 0.4026 0.11172 0.0
H586 H 0.29829 0.54324 0.09883 0.0
H587 H 0.37845 0.56139 0.1003 0.0
C588 C 0.16664 0.46789 0.08531 0.0
C589 C 0.13086 0.44024 0.09565 0.0
C590 C 0.2111 0.4765 0.08801 0.0
C591 C 0.22091 0.45805 0.10123 0.0
C592 C 0.18437 0.4276 0.11098 0.0
C593 C 0.13957 0.41873 0.10819 0.0
C594 C 0.32563 0.4485 0.11075 0.0
C595 C 0.36164 0.49273 0.10694 0.0
C596 C 0.27992 0.43773 0.10965 0.0
C597 C 0.26925 0.47107 0.10473 0.0
C598 C 0.30543 0.51642 0.10223 0.0
C599 C 0.3513 0.52717 0.10334 0.0
H600 H 0.89569 0.57261 0.95188 0.0
H601 H 0.86257 0.53602 0.90335 0.0
H602 H 0.85026 0.61088 0.9518 0.0
H603 H 0.81574 0.57332 0.90321 0.0
H604 H 0.73341 0.64577 0.9072 0.0
H605 H 0.80428 0.64138 0.9067 0.0
H606 H 0.76638 0.57018 0.95116 0.0
H607 H 0.69631 0.57436 0.95146 0.0
C608 C 0.87968 0.57411 0.94106 0.0
C609 C 0.8822 0.55128 0.92766 0.0
C610 C 0.85348 0.59572 0.94101 0.0
C611 C 0.82863 0.59439 0.92759 0.0
C612 C 0.83464 0.5752 0.91372 0.0
C613 C 0.86137 0.55384 0.91376 0.0
C614 C 0.74151 0.631 0.91712 0.0
C615 C 0.71006 0.61105 0.9295 0.0
C616 C 0.78164 0.62793 0.91675 0.0
C617 C 0.79105 0.60545 0.92889 0.0
C618 C 0.76079 0.58841 0.94174 0.0
C619 C 0.7206 0.59081 0.94196 0.0
H620 H 0.38653 0.10556 0.91481 0.0
H621 H 0.46435 0.15224 0.95766 0.0
H622 H 0.39028 0.18019 0.91202 0.0
H623 H 0.46765 0.22589 0.95513 0.0
H624 H 0.46546 0.35266 0.95166 0.0
H625 H 0.42605 0.269 0.95423 0.0
H626 H 0.45944 0.25846 0.90607 0.0
H627 H 0.49814 0.34243 0.9036 0.0
C628 C 0.40256 0.13107 0.92397 0.0
C629 C 0.42457 0.1232 0.93658 0.0
C630 C 0.4052 0.17386 0.92229 0.0
C631 C 0.42923 0.20899 0.93335 0.0
C632 C 0.44823 0.19949 0.94653 0.0
C633 C 0.44635 0.15728 0.94802 0.0
C634 C 0.46243 0.33209 0.94147 0.0
C635 C 0.48449 0.35356 0.92744 0.0
C636 C 0.44029 0.28435 0.94295 0.0
C637 C 0.44025 0.25712 0.93044 0.0
C638 C 0.45855 0.27839 0.9159 0.0
C639 C 0.48061 0.32636 0.91443 0.0
H640 H 0.68242 0.17287 0.90719 0.0
H641 H 0.69136 0.14328 0.95571 0.0
H642 H 0.76659 0.21903 0.90578 0.0
H643 H 0.77517 0.18805 0.95438 0.0
H644 H 0.89254 0.34209 0.95203 0.0
H645 H 0.81821 0.27201 0.95287 0.0
H646 H 0.84657 0.23041 0.90827 0.0
H647 H 0.92201 0.30132 0.90761 0.0
C648 C 0.70264 0.17461 0.91731 0.0
C649 C 0.68086 0.15497 0.93157 0.0
C650 C 0.75075 0.20096 0.91655 0.0
C651 C 0.77755 0.20783 0.93006 0.0
C652 C 0.75553 0.18408 0.94385 0.0
C653 C 0.70769 0.15824 0.94461 0.0
C654 C 0.8836 0.31706 0.94272 0.0
C655 C 0.91302 0.32657 0.92989 0.0
C656 C 0.841 0.27684 0.94317 0.0
C657 C 0.82636 0.24549 0.93062 0.0
C658 C 0.85689 0.2539 0.91809 0.0
C659 C 0.90016 0.29408 0.91779 0.0
H660 H 0.31687 0.06287 0.45261 0.0
H661 H 0.19775 0.00238 0.42253 0.0
H662 H 0.31393 0.13409 0.45363 0.0
H663 H 0.19579 0.07365 0.42288 0.0
H664 H 0.16729 0.18145 0.4402 0.0
H665 H 0.17491 0.11325 0.44121 0.0
H666 H 0.3228 0.19885 0.43945 0.0
H667 H 0.31518 0.26681 0.43957 0.0
C668 C 0.29109 0.06551 0.44581 0.0
C669 C 0.25753 0.02756 0.43751 0.0
C670 C 0.28914 0.10603 0.44646 0.0
C671 C 0.25393 0.10913 0.43862 0.0
C672 C 0.22236 0.07189 0.42948 0.0
C673 C 0.22389 0.03138 0.42906 0.0
C674 C 0.20138 0.18571 0.44041 0.0
C675 C 0.24056 0.22951 0.43949 0.0
C676 C 0.20581 0.14664 0.44073 0.0
C677 C 0.2495 0.15062 0.43999 0.0
C678 C 0.28868 0.19451 0.43998 0.0
C679 C 0.28424 0.23349 0.43984 0.0
H680 H 0.06433 0.21793 0.41335 0.0
H681 H 0.00718 0.27746 0.44455 0.0
H682 H 0.99517 0.14304 0.41618 0.0
H683 H 0.93936 0.20237 0.44828 0.0
H684 H 0.80509 0.07186 0.43832 0.0
H685 H 0.8732 0.14658 0.43639 0.0
H686 H 0.95698 0.08242 0.43415 0.0
H687 H 0.88769 0.00693 0.4347 0.0
C688 C 0.03662 0.21486 0.4207 0.0
C689 C 0.04046 0.25325 0.42854 0.0
C690 C 0.99743 0.17192 0.42256 0.0
C691 C 0.96188 0.16647 0.43262 0.0
C692 C 0.96565 0.20533 0.44025 0.0
C693 C 0.00438 0.24843 0.43807 0.0
C694 C 0.83799 0.0736 0.43731 0.0
C695 C 0.84091 0.03346 0.43623 0.0
C696 C 0.87725 0.11661 0.43644 0.0
C697 C 0.92064 0.12064 0.43487 0.0
C698 C 0.92393 0.0805 0.43491 0.0
C699 C 0.88434 0.03723 0.4355 0.0
H700 H 0.05178 0.88019 0.4199 0.0
H701 H 0.98069 0.77337 0.45442 0.0
H702 H 0.97822 0.86439 0.40914 0.0
H703 H 0.90768 0.75969 0.4444 0.0
H704 H 0.77739 0.73372 0.42444 0.0
H705 H 0.85043 0.73457 0.42474 0.0
H706 H 0.92286 0.88206 0.41855 0.0
H707 H 0.85052 0.88089 0.41759 0.0
C708 C 0.0206 0.85302 0.4251 0.0
C709 C 0.02226 0.82889 0.4383 0.0
C710 C 0.97836 0.84416 0.419 0.0
C711 C 0.93692 0.81124 0.42604 0.0
C712 C 0.93872 0.78508 0.43857 0.0
C713 C 0.98081 0.79363 0.44455 0.0
C714 C 0.80891 0.76606 0.42269 0.0
C715 C 0.80824 0.80732 0.4213 0.0
C716 C 0.85079 0.76664 0.42297 0.0
C717 C 0.89265 0.8085 0.42197 0.0
C718 C 0.89151 0.84911 0.41924 0.0
C719 C 0.84982 0.84849 0.41885 0.0
H720 H 0.40558 0.99829 0.26291 0.0
H721 H 0.35727 0.88237 0.29423 0.0
H722 H 0.47833 0.99891 0.25975 0.0
H723 H 0.4294 0.8829 0.29113 0.0
H724 H 0.53515 0.90884 0.23615 0.0
H725 H 0.48734 0.93973 0.24518 0.0
H726 H 0.51438 0.92013 0.29322 0.0
H727 H 0.5622 0.88872 0.28403 0.0
C728 C 0.41125 0.97421 0.26961 0.0
C729 C 0.37576 0.94001 0.27869 0.0
C730 C 0.45269 0.97429 0.2677 0.0
C731 C 0.4594 0.94059 0.27503 0.0
C732 C 0.42558 0.90952 0.28539 0.0
C733 C 0.3841 0.90906 0.28712 0.0
C734 C 0.53162 0.91207 0.24864 0.0
C735 C 0.55173 0.89579 0.25939 0.0
C736 C 0.50467 0.93026 0.25383 0.0
C737 C 0.49684 0.93217 0.26993 0.0
C738 C 0.51961 0.91885 0.28074 0.0
C739 C 0.5471 0.90109 0.2755 0.0
H740 H 0.13076 0.66154 0.29161 0.0
H741 H 0.18995 0.69858 0.24538 0.0
H742 H 0.10741 0.58131 0.2866 0.0
H743 H 0.16664 0.61802 0.24023 0.0
H744 H 0.20688 0.50847 0.25549 0.0
H745 H 0.20526 0.57975 0.25469 0.0
H746 H 0.06379 0.50812 0.27 0.0
H747 H 0.0651 0.43588 0.27071 0.0
C748 C 0.13721 0.65196 0.28017 0.0
C749 C 0.16261 0.68582 0.26893 0.0
C750 C 0.12369 0.60617 0.27727 0.0
C751 C 0.13592 0.59379 0.26314 0.0
C752 C 0.15725 0.62698 0.25128 0.0
C753 C 0.17029 0.67281 0.25415 0.0
C754 C 0.17534 0.50773 0.2587 0.0
C755 C 0.13626 0.46669 0.26336 0.0
C756 C 0.17422 0.54845 0.25797 0.0
C757 C 0.13417 0.54918 0.26204 0.0
C758 C 0.09494 0.50823 0.26669 0.0
C759 C 0.09584 0.46713 0.26721 0.0
H760 H 0.54859 0.69801 0.28032 0.0
H761 H 0.60545 0.654 0.24341 0.0
H762 H 0.47404 0.62905 0.27686 0.0
H763 H 0.53016 0.58543 0.23936 0.0
H764 H 0.39426 0.44874 0.24675 0.0
H765 H 0.47133 0.51419 0.24951 0.0
H766 H 0.41397 0.60209 0.25794 0.0
H767 H 0.33657 0.53566 0.25607 0.0
C768 C 0.54517 0.67277 0.27171 0.0
C769 C 0.58257 0.6807 0.26226 0.0
C770 C 0.50232 0.63379 0.26948 0.0
C771 C 0.49574 0.60231 0.25753 0.0
C772 C 0.53402 0.60895 0.24868 0.0
C773 C 0.57724 0.64785 0.25108 0.0
C774 C 0.39816 0.48213 0.24913 0.0
C775 C 0.35938 0.48694 0.25152 0.0
C776 C 0.44239 0.51974 0.25058 0.0
C777 C 0.44892 0.56324 0.2543 0.0
C778 C 0.41011 0.56872 0.25553 0.0
C779 C 0.36574 0.53089 0.25418 0.0
H780 H 0.92349 0.57924 0.741 0.0
H781 H 0.87722 0.53392 0.7881 0.0
H782 H 0.9623 0.53422 0.74053 0.0
H783 H 0.91518 0.48783 0.78771 0.0
H784 H 0.98251 0.40218 0.78231 0.0
H785 H 0.98393 0.47591 0.78409 0.0
H786 H 0.9159 0.449 0.73917 0.0
H787 H 0.91393 0.37582 0.73766 0.0
C788 C 0.92347 0.56108 0.75148 0.0
C789 C 0.89757 0.55972 0.76457 0.0
C790 C 0.94534 0.53514 0.75121 0.0
C791 C 0.9411 0.50687 0.76397 0.0
C792 C 0.91933 0.50949 0.77773 0.0
C793 C 0.89763 0.5358 0.778 0.0
C794 C 0.96967 0.41323 0.77259 0.0
C795 C 0.94855 0.38396 0.75976 0.0
C796 C 0.97008 0.45505 0.77366 0.0
C797 C 0.95013 0.46831 0.76176 0.0
C798 C 0.93227 0.44029 0.74841 0.0
C799 C 0.93104 0.39833 0.74752 0.0
H800 H 0.6784 0.55119 0.74148 0.0
H801 H 0.6534 0.60597 0.78362 0.0
H802 H 0.61236 0.47597 0.7472 0.0
H803 H 0.58855 0.53025 0.78993 0.0
H804 H 0.45239 0.3932 0.78965 0.0
H805 H 0.51427 0.47058 0.78424 0.0
H806 H 0.59511 0.41508 0.76481 0.0
H807 H 0.53138 0.33718 0.7694 0.0
C808 C 0.65763 0.54727 0.75172 0.0
C809 C 0.67011 0.58435 0.76193 0.0
C810 C 0.62054 0.50397 0.75523 0.0
C811 C 0.59575 0.49657 0.76925 0.0
C812 C 0.60662 0.53457 0.77899 0.0
C813 C 0.64338 0.57817 0.77531 0.0
C814 C 0.48357 0.39759 0.78432 0.0
C815 C 0.48676 0.35913 0.77969 0.0
C816 C 0.51923 0.44205 0.78129 0.0
C817 C 0.55942 0.44928 0.77375 0.0
C818 C 0.56403 0.41079 0.77019 0.0
C819 C 0.52797 0.36612 0.77309 0.0
H820 H 0.49648 0.20364 0.7529 0.0
H821 H 0.43801 0.06881 0.7738 0.0
H822 H 0.56981 0.20609 0.74982 0.0
H823 H 0.51249 0.07203 0.77108 0.0
H824 H 0.68509 0.17051 0.78183 0.0
H825 H 0.60213 0.14214 0.78396 0.0
H826 H 0.59334 0.14737 0.73364 0.0
H827 H 0.67536 0.17459 0.7315 0.0
C828 C 0.49931 0.17443 0.75673 0.0
C829 C 0.46173 0.13598 0.76351 0.0
C830 C 0.54111 0.17581 0.75495 0.0
C831 C 0.5464 0.1392 0.76021 0.0
C832 C 0.5089 0.10051 0.76693 0.0
C833 C 0.4665 0.09863 0.76838 0.0
C834 C 0.66492 0.16375 0.77125 0.0
C835 C 0.68651 0.17556 0.75653 0.0
C836 C 0.61769 0.14762 0.77246 0.0
C837 C 0.59192 0.14322 0.75894 0.0
C838 C 0.61274 0.15082 0.74419 0.0
C839 C 0.65956 0.16657 0.74299 0.0
H840 H 0.06071 0.30693 0.5727 0.0
H841 H 0.00752 0.19407 0.60552 0.0
H842 H 0.12767 0.2984 0.56808 0.0
H843 H 0.07529 0.18692 0.60166 0.0
H844 H 0.18043 0.15656 0.58565 0.0
H845 H 0.11117 0.16229 0.58335 0.0
H846 H 0.19515 0.31024 0.5801 0.0
H847 H 0.26367 0.30392 0.58122 0.0
C848 C 0.06418 0.28124 0.57926 0.0
C849 C 0.0296 0.2515 0.5896 0.0
C850 C 0.10222 0.27603 0.57653 0.0
C851 C 0.10655 0.24153 0.58433 0.0
C852 C 0.07242 0.21289 0.59508 0.0
C853 C 0.03407 0.21752 0.59755 0.0
C854 C 0.18389 0.19002 0.58387 0.0
C855 C 0.22722 0.2299 0.58406 0.0
C856 C 0.14433 0.19347 0.58281 0.0
C857 C 0.14765 0.23687 0.58208 0.0
C858 C 0.19117 0.27628 0.58073 0.0
C859 C 0.23053 0.27273 0.58156 0.0
H860 H 0.87704 0.84947 0.60697 0.0
H861 H 0.75616 0.78328 0.57772 0.0
H862 H 0.88067 0.92297 0.6032 0.0
H863 H 0.761 0.85705 0.57321 0.0
H864 H 0.75746 0.98896 0.58311 0.0
H865 H 0.7516 0.91444 0.58514 0.0
H866 H 0.8998 0.97954 0.58351 0.0
H867 H 0.90554 0.0547 0.58268 0.0
C868 C 0.85103 0.85075 0.59985 0.0
C869 C 0.81609 0.81094 0.59275 0.0
C870 C 0.85352 0.89287 0.59746 0.0
C871 C 0.82163 0.89602 0.58766 0.0
C872 C 0.78587 0.85577 0.58092 0.0
C873 C 0.7829 0.81348 0.58357 0.0
C874 C 0.7888 0.98737 0.58318 0.0
C875 C 0.83198 0.02768 0.58316 0.0
C876 C 0.78544 0.94455 0.58416 0.0
C877 C 0.82525 0.94107 0.58481 0.0
C878 C 0.86848 0.98122 0.5835 0.0
C879 C 0.87183 0.02423 0.58274 0.0
H880 H 0.22067 0.06069 0.61886 0.0
H881 H 0.28983 0.00733 0.5906 0.0
H882 H 0.14747 0.9909 0.61423 0.0
H883 H 0.21659 0.93885 0.58501 0.0
H884 H 0.0823 0.8043 0.58912 0.0
H885 H 0.15623 0.87113 0.59426 0.0
H886 H 0.09331 0.95618 0.59417 0.0
H887 H 0.01817 0.88793 0.59043 0.0
C888 C 0.22008 0.03349 0.61187 0.0
C889 C 0.26061 0.03879 0.60525 0.0
C890 C 0.17815 0.99397 0.60893 0.0
C891 C 0.17586 0.95956 0.59897 0.0
C892 C 0.21695 0.96429 0.59288 0.0
C893 C 0.25903 0.00337 0.59614 0.0
C894 C 0.08412 0.83721 0.59029 0.0
C895 C 0.04417 0.84063 0.58979 0.0
C896 C 0.12678 0.87578 0.59304 0.0
C897 C 0.13081 0.91909 0.59493 0.0
C898 C 0.09127 0.92309 0.59327 0.0
C899 C 0.04827 0.88415 0.59081 0.0
H900 H 0.45887 0.95434 0.06095 0.0
H901 H 0.47514 0.09018 0.06125 0.0
H902 H 0.45593 0.95335 0.03241 0.0
H903 H 0.47295 0.08932 0.03244 0.0
H904 H 0.52257 0.08357 0.98115 0.0
H905 H 0.52411 0.0861 1.00979 0.0
H906 H 0.40049 0.95342 1.01129 0.0
H907 H 0.39835 0.9511 0.98257 0.0
C908 C 0.46213 0.98419 0.05492 0.0
C909 C 0.46741 0.02247 0.0634 0.0
C910 C 0.46009 0.98339 0.03856 0.0
C911 C 0.46407 0.02115 0.0302 0.0
C912 C 0.46996 0.05978 0.03861 0.0
C913 C 0.47111 0.06025 0.05507 0.0
C914 C 0.49575 0.05482 0.98757 0.0
C915 C 0.46044 0.01696 0.97957 0.0
C916 C 0.49647 0.05652 1.00397 0.0
C917 C 0.4624 0.02004 1.01277 0.0
C918 C 0.42731 0.98197 1.0048 0.0
C919 C 0.42608 0.98064 0.98837 0.0
H920 H 0.00193 0.51761 0.97151 0.0
H921 H 0.05781 0.42665 0.97244 0.0
H922 H 0.99971 0.51734 1.00008 0.0
H923 H 0.05523 0.42619 1.00116 0.0
H924 H 0.98539 0.39248 0.05033 0.0
H925 H 0.99124 0.39557 0.02173 0.0
H926 H 0.05376 0.54322 0.02327 0.0
H927 H 0.04828 0.54031 0.05186 0.0
C928 C 0.0142 0.4979 0.97782 0.0
C929 C 0.0301 0.47216 0.96969 0.0
C930 C 0.01298 0.49785 0.9942 0.0
C931 C 0.02701 0.47153 1.00287 0.0
C932 C 0.04374 0.44643 0.99478 0.0
C933 C 0.04562 0.44703 0.97835 0.0
C934 C 1.00002 0.42558 0.04457 0.0
C935 C 0.01618 0.46613 0.05339 0.0
C936 C 0.00381 0.42736 0.0282 0.0
C937 C 0.02325 0.46966 0.02027 0.0
C938 C 0.03848 0.51011 0.02905 0.0
C939 C 0.0353 0.5084 0.04543 0.0
H940 H 0.52012 0.50017 0.97121 0.0
H941 H 0.60754 0.64757 0.97375 0.0
H942 H 0.52262 0.49512 0.99967 0.0
H943 H 0.61018 0.64237 1.00235 0.0
H944 H 0.651 0.60487 0.04958 0.0
H945 H 0.64459 0.60939 0.02121 0.0
H946 H 0.49796 0.51831 0.02431 0.0
H947 H 0.5042 0.5139 0.05274 0.0
C948 C 0.53944 0.5316 0.97786 0.0
C949 C 0.56365 0.57432 0.97019 0.0
C950 C 0.54078 0.52865 0.99419 0.0
C951 C 0.56689 0.56827 1.00326 0.0
C952 C 0.5902 0.61116 0.99565 0.0
C953 C 0.58832 0.6142 0.97929 0.0
C954 C 0.61742 0.58536 0.04422 0.0
C955 C 0.57812 0.55889 0.05346 0.0
C956 C 0.61372 0.5884 0.02797 0.0
C957 C 0.57072 0.5646 0.02053 0.0
C958 C 0.53159 0.537 0.02969 0.0
C959 C 0.53519 0.53442 0.04598 0.0
H960 H 0.22283 0.35669 0.3871 0.0
H961 H 0.12877 0.40873 0.38471 0.0
H962 H 0.21763 0.34599 0.35867 0.0
H963 H 0.12369 0.39804 0.35635 0.0
H964 H 0.22498 0.37507 0.30469 0.0
H965 H 0.23569 0.38836 0.33297 0.0
H966 H 0.08931 0.32937 0.33882 0.0
H967 H 0.07849 0.31605 0.31067 0.0
C968 C 0.20162 0.36655 0.3805 0.0
C969 C 0.17611 0.38347 0.38822 0.0
C970 C 0.19867 0.3604 0.3642 0.0
C971 C 0.16976 0.37056 0.35526 0.0
C972 C 0.14565 0.38911 0.36292 0.0
C973 C 0.14894 0.39568 0.37918 0.0
C974 C 0.19502 0.36442 0.31203 0.0
C975 C 0.15086 0.34452 0.30537 0.0
C976 C 0.20119 0.37208 0.32824 0.0
C977 C 0.16342 0.3605 0.33813 0.0
C978 C 0.11922 0.33947 0.3315 0.0
C979 C 0.11299 0.3314 0.31536 0.0
H980 H 0.64103 0.74323 0.38381 0.0
H981 H 0.69634 0.89001 0.38647 0.0
H982 H 0.64148 0.74747 0.35527 0.0
H983 H 0.69623 0.89396 0.35777 0.0
H984 H 0.64778 0.86407 0.30434 0.0
H985 H 0.64049 0.86291 0.33305 0.0
H986 H 0.71126 0.78601 0.33656 0.0
H987 H 0.71918 0.78761 0.30821 0.0
C988 C 0.65252 0.7763 0.37833 0.0
C989 C 0.669 0.81634 0.38744 0.0
C990 C 0.65298 0.77872 0.36197 0.0
C991 C 0.66933 0.82111 0.35432 0.0
C992 C 0.68337 0.86084 0.36338 0.0
C993 C 0.68352 0.85854 0.3798 0.0
C994 C 0.66207 0.84727 0.31128 0.0
C995 C 0.68406 0.82595 0.30396 0.0
C996 C 0.6579 0.84664 0.32768 0.0
C997 C 0.67484 0.82389 0.33699 0.0
C998 C 0.69728 0.80321 0.32967 0.0
C999 C 0.7021 0.80447 0.3134 0.0
H1000 H 0.26719 0.97758 0.31996 0.0
H1001 H 0.17005 0.83227 0.31631 0.0
H1002 H 0.26391 0.97104 0.34861 0.0
H1003 H 0.16642 0.82597 0.34487 0.0
H1004 H 0.14895 0.84805 0.39847 0.0
H1005 H 0.14386 0.85432 0.36994 0.0
H1006 H 0.29183 0.92904 0.36686 0.0
H1007 H 0.29713 0.9223 0.39506 0.0
C1008 C 0.2444 0.94451 0.32526 0.0
C1009 C 0.21906 0.90545 0.31587 0.0
C1010 C 0.24278 0.94068 0.34164 0.0
C1011 C 0.21518 0.89787 0.34896 0.0
C1012 C 0.18785 0.85938 0.33958 0.0
C1013 C 0.19007 0.86304 0.32322 0.0
C1014 C 0.18034 0.86527 0.39166 0.0
C1015 C 0.22342 0.88449 0.39909 0.0
C1016 C 0.17741 0.86902 0.37536 0.0
C1017 C 0.21748 0.89282 0.36622 0.0
C1018 C 0.26038 0.91126 0.37362 0.0
C1019 C 0.26332 0.90689 0.38979 0.0
H1020 H 0.8243 0.76316 0.71467 0.0
H1021 H 0.80143 0.62495 0.71713 0.0
H1022 H 0.82768 0.76034 0.68588 0.0
H1023 H 0.80347 0.62188 0.68859 0.0
H1024 H 0.75237 0.62333 0.63694 0.0
H1025 H 0.75042 0.62701 0.66563 0.0
H1026 H 0.88456 0.74872 0.66537 0.0
H1027 H 0.88729 0.74441 0.63676 0.0
C1028 C 0.81987 0.73227 0.70909 0.0
C1029 C 0.81287 0.69444 0.71818 0.0
C1030 C 0.82192 0.73069 0.69266 0.0
C1031 C 0.81573 0.69081 0.68505 0.0
C1032 C 0.80814 0.65292 0.69415 0.0
C1033 C 0.80724 0.65488 0.7105 0.0
C1034 C 0.78165 0.65053 0.64302 0.0
C1035 C 0.82013 0.68331 0.63458 0.0
C1036 C 0.78047 0.65271 0.65941 0.0
C1037 C 0.81719 0.68839 0.66768 0.0
C1038 C 0.85565 0.72113 0.65927 0.0
C1039 C 0.85734 0.71832 0.64292 0.0
H1040 H 0.43879 0.18138 0.6509 0.0
H1041 H 0.31296 0.18403 0.64382 0.0
H1042 H 0.42644 0.17792 0.67936 0.0
H1043 H 0.30012 0.17896 0.67218 0.0
H1044 H 0.28036 0.09195 0.72117 0.0
H1045 H 0.29212 0.10483 0.69278 0.0
H1046 H 0.41174 0.23729 0.70118 0.0
H1047 H 0.39938 0.22543 0.72947 0.0
C1048 C 0.40888 0.18177 0.65541 0.0
C1049 C 0.37703 0.18325 0.64512 0.0
C1050 C 0.40181 0.17972 0.67165 0.0
C1051 C 0.36223 0.17794 0.67785 0.0
C1052 C 0.33081 0.1802 0.66763 0.0
C1053 C 0.33842 0.18343 0.65143 0.0
C1054 C 0.30862 0.12415 0.71695 0.0
C1055 C 0.33875 0.15774 0.72756 0.0
C1056 C 0.31535 0.13146 0.70075 0.0
C1057 C 0.35294 0.17194 0.6949 0.0
C1058 C 0.38259 0.20581 0.70545 0.0
C1059 C 0.37524 0.19905 0.72162 0.0
H1060 H 0.89214 0.17847 0.63475 0.0
H1061 H 0.91407 0.31641 0.63646 0.0
H1062 H 0.89884 0.17847 0.66334 0.0
H1063 H 0.91955 0.31576 0.6651 0.0
H1064 H 0.85908 0.26087 0.71533 0.0
H1065 H 0.8581 0.26301 0.68685 0.0
H1066 H 0.96613 0.22947 0.68499 0.0
H1067 H 0.96812 0.22846 0.71389 0.0
C1068 C 0.89789 0.20859 0.64124 0.0
C1069 C 0.9022 0.24735 0.63336 0.0
C1070 C 0.90225 0.20872 0.65757 0.0
C1071 C 0.91004 0.2472 0.66638 0.0
C1072 C 0.91366 0.28569 0.65855 0.0
C1073 C 0.91034 0.28598 0.64219 0.0
C1074 C 0.88275 0.25393 0.70892 0.0
C1075 C 0.9136 0.24427 0.71688 0.0
C1076 C 0.88229 0.25545 0.6926 0.0
C1077 C 0.91201 0.24646 0.68375 0.0
C1078 C 0.94277 0.23643 0.6916 0.0
C1079 C 0.94402 0.23597 0.70807 0.0
H1080 H 0.30876 0.85931 0.22847 0.0
H1081 H 0.27868 0.96721 0.21846 0.0
H1082 H 0.35692 0.88001 0.20495 0.0
H1083 H 0.32474 0.98664 0.19476 0.0
H1084 H 0.44535 0.04814 0.16277 0.0
H1085 H 0.40119 0.02377 0.18696 0.0
H1086 H 0.36384 0.88312 0.17727 0.0
H1087 H 0.41006 0.90822 0.15333 0.0
C1088 C 0.31143 0.88664 0.22102 0.0
C1089 C 0.28982 0.91159 0.22538 0.0
C1090 C 0.33924 0.8987 0.20753 0.0
C1091 C 0.34584 0.93579 0.19797 0.0
C1092 C 0.32207 0.95895 0.20199 0.0
C1093 C 0.29492 0.94734 0.21552 0.0
C1094 C 0.42859 0.01215 0.16598 0.0
C1095 C 0.43151 0.98025 0.15611 0.0
C1096 C 0.4025 0.99791 0.17978 0.0
C1097 C 0.37762 0.9511 0.18403 0.0
C1098 C 0.38242 0.91943 0.17452 0.0
C1099 C 0.40918 0.93386 0.16078 0.0
H1100 H 0.11615 0.51675 0.14829 0.0
H1101 H 0.99284 0.3836 0.14642 0.0
H1102 H 0.13922 0.49353 0.17233 0.0
H1103 H 0.01674 0.35978 0.16938 0.0
H1104 H 0.04402 0.33762 0.21846 0.0
H1105 H 0.02401 0.36674 0.19591 0.0
H1106 H 0.16729 0.44604 0.18281 0.0
H1107 H 0.18787 0.41863 0.20643 0.0
C1108 C 0.09369 0.48288 0.15309 0.0
C1109 C 0.05238 0.45233 0.14545 0.0
C1110 C 0.10727 0.46922 0.16673 0.0
C1111 C 0.07997 0.42462 0.17295 0.0
C1112 C 0.03842 0.3947 0.16534 0.0
C1113 C 0.02467 0.40845 0.15199 0.0
C1114 C 0.07154 0.36086 0.21076 0.0
C1115 C 0.11767 0.37524 0.21426 0.0
C1116 C 0.05991 0.37762 0.19766 0.0
C1117 C 0.09382 0.40858 0.18727 0.0
C1118 C 0.14014 0.42266 0.19059 0.0
C1119 C 0.15196 0.40638 0.204 0.0
H1120 H 0.71818 0.73806 0.21639 0.0
H1121 H 0.61995 0.78126 0.20589 0.0
H1122 H 0.69228 0.68754 0.19393 0.0
H1123 H 0.59542 0.7321 0.18261 0.0
H1124 H 0.5323 0.60762 0.14943 0.0
H1125 H 0.55454 0.6552 0.17316 0.0
H1126 H 0.69448 0.68496 0.16719 0.0
H1127 H 0.67201 0.63613 0.14444 0.0
C1128 C 0.69182 0.73779 0.20903 0.0
C1129 C 0.67159 0.7643 0.21293 0.0
C1130 C 0.67684 0.70859 0.19603 0.0
C1131 C 0.64165 0.70546 0.18626 0.0
C1132 C 0.62205 0.73285 0.18994 0.0
C1133 C 0.63666 0.7617 0.20316 0.0
C1134 C 0.56751 0.62349 0.15347 0.0
C1135 C 0.60014 0.61756 0.14503 0.0
C1136 C 0.58052 0.65143 0.16694 0.0
C1137 C 0.62651 0.67435 0.17221 0.0
C1138 C 0.65861 0.66746 0.16385 0.0
C1139 C 0.64561 0.63932 0.15063 0.0
H1140 H 0.9061 0.4034 0.88107 0.0
H1141 H 0.04425 0.43363 0.87103 0.0
H1142 H 0.87869 0.35589 0.85747 0.0
H1143 H 0.01756 0.38806 0.84721 0.0
H1144 H 0.95707 0.26551 0.81612 0.0
H1145 H 0.9771 0.31049 0.84011 0.0
H1146 H 0.87563 0.34961 0.82966 0.0
H1147 H 0.85429 0.30269 0.8059 0.0
C1148 C 0.93085 0.40105 0.87357 0.0
C1149 C 0.97739 0.42231 0.87795 0.0
C1150 C 0.9151 0.37357 0.86004 0.0
C1151 C 0.94561 0.36703 0.85051 0.0
C1152 C 0.99261 0.39078 0.85446 0.0
C1153 C 0.00816 0.41763 0.86803 0.0
C1154 C 0.93825 0.28282 0.81914 0.0
C1155 C 0.90396 0.28032 0.80911 0.0
C1156 C 0.95026 0.30935 0.8328 0.0
C1157 C 0.92896 0.33495 0.83673 0.0
C1158 C 0.89286 0.33046 0.82711 0.0
C1159 C 0.88039 0.3033 0.8135 0.0
H1160 H 0.63575 0.53167 0.8811 0.0
H1161 H 0.60561 0.63986 0.87176 0.0
H1162 H 0.685 0.55396 0.85798 0.0
H1163 H 0.65265 0.66075 0.8482 0.0
H1164 H 0.77548 0.72368 0.81672 0.0
H1165 H 0.72852 0.69835 0.84032 0.0
H1166 H 0.69453 0.55844 0.83089 0.0
H1167 H 0.74371 0.58458 0.80774 0.0
C1168 C 0.63847 0.55931 0.87382 0.0
C1169 C 0.61657 0.58387 0.87828 0.0
C1170 C 0.66696 0.57231 0.86053 0.0
C1171 C 0.67386 0.60988 0.8512 0.0
C1172 C 0.64972 0.63267 0.85526 0.0
C1173 C 0.62196 0.62019 0.86867 0.0
C1174 C 0.75882 0.68767 0.81991 0.0
C1175 C 0.76374 0.65629 0.8104 0.0
C1176 C 0.7311 0.67285 0.83334 0.0
C1177 C 0.70651 0.62596 0.83751 0.0
C1178 C 0.71294 0.59482 0.82827 0.0
C1179 C 0.7414 0.60985 0.81497 0.0
H1180 H 0.41573 0.18209 0.82555 0.0
H1181 H 0.33848 0.03908 0.81219 0.0
H1182 H 0.44181 0.1607 0.84926 0.0
H1183 H 0.366 0.01819 0.8351 0.0
H1184 H 0.37821 0.98708 0.88561 0.0
H1185 H 0.35619 0.01006 0.86189 0.0
H1186 H 0.48975 0.13296 0.85968 0.0
H1187 H 0.51122 0.11063 0.88422 0.0
C1188 C 0.40414 0.14617 0.82769 0.0
C1189 C 0.37438 0.11234 0.81705 0.0
C1190 C 0.41959 0.1339 0.84117 0.0
C1191 C 0.40601 0.08757 0.84423 0.0
C1192 C 0.3765 0.05406 0.83347 0.0
C1193 C 0.36066 0.06616 0.82021 0.0
C1194 C 0.40336 0.01875 0.88002 0.0
C1195 C 0.44665 0.04688 0.88688 0.0
C1196 C 0.39067 0.03197 0.86627 0.0
C1197 C 0.42105 0.07352 0.85872 0.0
C1198 C 0.46511 0.10106 0.86526 0.0
C1199 C 0.47776 0.08791 0.8792 0.0
H1200 H 0.94164 0.31235 0.53471 0.0
H1201 H 0.96402 0.19958 0.54508 0.0
H1202 H 0.99431 0.33419 0.51263 0.0
H1203 H 0.01881 0.22269 0.52344 0.0
H1204 H 0.09227 0.26098 0.47498 0.0
H1205 H 0.03662 0.23165 0.49647 0.0
H1206 H 0.07289 0.37081 0.50836 0.0
H1207 H 0.12636 0.39937 0.48646 0.0
C1208 C 0.95729 0.29172 0.53208 0.0
C1209 C 0.94827 0.254 0.54157 0.0
C1210 C 0.9883 0.30475 0.51957 0.0
C1211 C 0.01217 0.28112 0.51638 0.0
C1212 C 1.00123 0.2418 0.5254 0.0
C1213 C 0.96948 0.22827 0.53779 0.0
C1214 C 0.08911 0.28526 0.48248 0.0
C1215 C 0.11392 0.33253 0.47908 0.0
C1216 C 0.0569 0.26844 0.49477 0.0
C1217 C 0.0491 0.29861 0.50406 0.0
C1218 C 0.07642 0.34616 0.50121 0.0
C1219 C 0.10788 0.36277 0.48881 0.0
H1220 H 0.6723 0.74579 0.48348 0.0
H1221 H 0.80773 0.85969 0.47392 0.0
H1222 H 0.70157 0.72522 0.50621 0.0
H1223 H 0.83808 0.83781 0.49635 0.0
H1224 H 0.86786 0.80325 0.54649 0.0
H1225 H 0.84424 0.83044 0.52366 0.0
H1226 H 0.74344 0.69003 0.51226 0.0
H1227 H 0.7655 0.66367 0.53544 0.0
C1228 C 0.70842 0.76672 0.48634 0.0
C1229 C 0.73759 0.80449 0.47691 0.0
C1230 C 0.72553 0.75448 0.49928 0.0
C1231 C 0.77269 0.77892 0.50303 0.0
C1232 C 0.80162 0.81804 0.49395 0.0
C1233 C 0.78421 0.83079 0.48109 0.0
C1234 C 0.84145 0.77823 0.53884 0.0
C1235 C 0.81867 0.73126 0.54274 0.0
C1236 C 0.82763 0.79382 0.52576 0.0
C1237 C 0.79099 0.76272 0.51616 0.0
C1238 C 0.77057 0.71544 0.51958 0.0
C1239 C 0.78378 0.70007 0.53275 0.0
H1240 H 0.19974 0.94077 0.49559 0.0
H1241 H 0.34011 0.97542 0.48706 0.0
H1242 H 0.22506 0.99228 0.5183 0.0
H1243 H 0.36545 0.02796 0.50896 0.0
H1244 H 0.39527 0.08559 0.55774 0.0
H1245 H 0.36765 0.03304 0.53588 0.0
H1246 H 0.26508 0.07122 0.52615 0.0
H1247 H 0.29164 0.12278 0.54886 0.0
C1248 C 0.23585 0.9589 0.49865 0.0
C1249 C 0.26772 0.95342 0.48956 0.0
C1250 C 0.25053 0.98905 0.51153 0.0
C1251 C 0.29747 0.01468 0.51555 0.0
C1252 C 0.32898 0.00842 0.50654 0.0
C1253 C 0.31433 0.97809 0.49387 0.0
C1254 C 0.36716 0.08344 0.55088 0.0
C1255 C 0.34596 0.10888 0.55508 0.0
C1256 C 0.35127 0.05312 0.53821 0.0
C1257 C 0.31402 0.04759 0.52909 0.0
C1258 C 0.2934 0.07391 0.53301 0.0
C1259 C 0.30908 0.10409 0.54589 0.0
H1260 H 0.49757 0.42767 0.11949 0.0
H1261 H 0.62869 0.45711 0.10044 0.0
H1262 H 0.47553 0.34788 0.12266 0.0
H1263 H 0.60644 0.3759 0.1039 0.0
H1264 H 0.51361 0.21581 0.09343 0.0
H1265 H 0.54909 0.29963 0.09233 0.0
H1266 H 0.49319 0.29849 0.13804 0.0
H1267 H 0.45753 0.21529 0.139 0.0
C1268 C 0.52205 0.41719 0.11614 0.0
C1269 C 0.5649 0.44879 0.10966 0.0
C1270 C 0.50945 0.37131 0.11808 0.0
C1271 C 0.53927 0.35547 0.11361 0.0
C1272 C 0.58264 0.3871 0.10737 0.0
C1273 C 0.5955 0.43354 0.1055 0.0
C1274 C 0.50941 0.23366 0.10328 0.0
C1275 C 0.48195 0.2089 0.11615 0.0
C1276 C 0.52992 0.28163 0.1027 0.0
C1277 C 0.52348 0.30566 0.11502 0.0
C1278 C 0.49797 0.28094 0.1282 0.0
C1279 C 0.47732 0.23321 0.12873 0.0
H1280 H 0.62113 0.04985 0.1109 0.0
H1281 H 0.58942 0.1591 0.11436 0.0
H1282 H 0.70271 0.1067 0.10884 0.0
H1283 H 0.67097 0.21588 0.11259 0.0
H1284 H 0.81641 0.30423 0.09178 0.0
H1285 H 0.73453 0.24829 0.09432 0.0
H1286 H 0.76688 0.16357 0.12358 0.0
H1287 H 0.84816 0.21908 0.12104 0.0
C1288 C 0.63154 0.08596 0.1114 0.0
C1289 C 0.59852 0.09972 0.11283 0.0
C1290 C 0.67845 0.11868 0.11026 0.0
C1291 C 0.69372 0.16612 0.11051 0.0
C1292 C 0.66065 0.1798 0.11211 0.0
C1293 C 0.61377 0.1471 0.11327 0.0
C1294 C 0.80606 0.27386 0.09884 0.0
C1295 C 0.83927 0.26624 0.10606 0.0
C1296 C 0.75899 0.24169 0.10032 0.0
C1297 C 0.74382 0.20103 0.10909 0.0
C1298 C 0.77707 0.19383 0.11646 0.0
C1299 C 0.82395 0.22588 0.11498 0.0
H1300 H 0.72663 0.52442 0.10495 0.0
H1301 H 0.84381 0.65878 0.09657 0.0
H1302 H 0.77685 0.49217 0.10717 0.0
H1303 H 0.89448 0.62642 0.09827 0.0
H1304 H 0.9781 0.5668 0.11709 0.0
H1305 H 0.92527 0.59618 0.11631 0.0
H1306 H 0.82444 0.47185 0.09309 0.0
H1307 H 0.87699 0.44167 0.09452 0.0
C1308 C 0.76317 0.54695 0.10329 0.0
C1309 C 0.78133 0.59416 0.10046 0.0
C1310 C 0.79205 0.52842 0.10456 0.0
C1311 C 0.83986 0.55654 0.10291 0.0
C1312 C 0.85794 0.60377 0.09992 0.0
C1313 C 0.82901 0.62239 0.09883 0.0
C1314 C 0.9444 0.54548 0.11199 0.0
C1315 C 0.9317 0.50194 0.10584 0.0
C1316 C 0.91424 0.56256 0.11138 0.0
C1317 C 0.87075 0.53684 0.1044 0.0
C1318 C 0.85748 0.49256 0.09868 0.0
C1319 C 0.88756 0.47518 0.09948 0.0
H1320 H 0.4213 0.46236 0.9149 0.0
H1321 H 0.45294 0.60297 0.92034 0.0
H1322 H 0.33966 0.43705 0.91438 0.0
H1323 H 0.37091 0.57754 0.91961 0.0
H1324 H 0.21774 0.50523 0.93545 0.0
H1325 H 0.30046 0.53406 0.93534 0.0
H1326 H 0.28266 0.44015 0.8979 0.0
H1327 H 0.20061 0.41166 0.89793 0.0
C1328 C 0.4109 0.48799 0.91584 0.0
C1329 C 0.44384 0.53476 0.91761 0.0
C1330 C 0.36397 0.47345 0.91549 0.0
C1331 C 0.34855 0.50521 0.91693 0.0
C1332 C 0.38149 0.55207 0.91863 0.0
C1333 C 0.42856 0.56668 0.91892 0.0
C1334 C 0.23147 0.49098 0.92711 0.0
C1335 C 0.20207 0.45563 0.91683 0.0
C1336 C 0.27899 0.50758 0.92703 0.0
C1337 C 0.2983 0.48919 0.91669 0.0
C1338 C 0.26899 0.45447 0.90625 0.0
C1339 C 0.22168 0.43801 0.90631 0.0
H1340 H 0.43049 0.87123 0.92954 0.0
H1341 H 0.57112 0.98105 0.9248 0.0
H1342 H 0.45586 0.81478 0.92746 0.0
H1343 H 0.59636 0.92489 0.92294 0.0
H1344 H 0.62113 0.81418 0.90303 0.0
H1345 H 0.59266 0.86749 0.90491 0.0
H1346 H 0.49963 0.78529 0.94177 0.0
H1347 H 0.5285 0.7316 0.93997 0.0
C1348 C 0.46677 0.88337 0.92805 0.0
C1349 C 0.4987 0.93077 0.92728 0.0
C1350 C 0.48135 0.85098 0.92697 0.0
C1351 C 0.52817 0.86519 0.92499 0.0
C1352 C 0.55997 0.9126 0.92422 0.0
C1353 C 0.54548 0.94489 0.92537 0.0
C1354 C 0.59499 0.80747 0.91168 0.0
C1355 C 0.57767 0.76861 0.92149 0.0
C1356 C 0.57854 0.83819 0.91273 0.0
C1357 C 0.54412 0.83106 0.92359 0.0
C1358 C 0.52593 0.79171 0.93319 0.0
C1359 C 0.54253 0.76089 0.93216 0.0
H1360 H 0.31613 0.81823 0.91789 0.0
H1361 H 0.20625 0.83264 0.93795 0.0
H1362 H 0.26307 0.7362 0.91389 0.0
H1363 H 0.15352 0.75091 0.93436 0.0
H1364 H 0.05734 0.61472 0.9126 0.0
H1365 H 0.11332 0.69624 0.9146 0.0
H1366 H 0.21863 0.66363 0.92651 0.0
H1367 H 0.16278 0.58193 0.92392 0.0
C1368 C 0.2808 0.80375 0.92164 0.0
C1369 C 0.26535 0.83205 0.92814 0.0
C1370 C 0.25029 0.75669 0.91935 0.0
C1371 C 0.20368 0.73675 0.92361 0.0
C1372 C 0.18874 0.76504 0.9305 0.0
C1373 C 0.21906 0.81199 0.93266 0.0
C1374 C 0.09257 0.62492 0.91546 0.0
C1375 C 0.10548 0.59172 0.91815 0.0
C1376 C 0.12468 0.67177 0.91677 0.0
C1377 C 0.17053 0.6868 0.92099 0.0
C1378 C 0.18381 0.65355 0.92314 0.0
C1379 C 0.1517 0.6066 0.92169 0.0
H1380 H 0.14168 0.75141 0.46131 0.0
H1381 H 0.27475 0.78267 0.44363 0.0
H1382 H 0.11411 0.67002 0.45855 0.0
H1383 H 0.24734 0.70041 0.44131 0.0
H1384 H 0.1628 0.55675 0.41917 0.0
H1385 H 0.19459 0.6386 0.42428 0.0
H1386 H 0.11906 0.60592 0.46788 0.0
H1387 H 0.08685 0.52435 0.46259 0.0
C1388 C 0.16543 0.74086 0.45714 0.0
C1389 C 0.21034 0.77354 0.45256 0.0
C1390 C 0.1496 0.69404 0.45562 0.0
C1391 C 0.17833 0.67863 0.44956 0.0
C1392 C 0.22408 0.71124 0.44575 0.0
C1393 C 0.23998 0.75832 0.44725 0.0
C1394 C 0.15293 0.56721 0.4298 0.0
C1395 C 0.12204 0.53417 0.44039 0.0
C1396 C 0.17146 0.61404 0.43281 0.0
C1397 C 0.15966 0.62886 0.44656 0.0
C1398 C 0.12846 0.59572 0.4571 0.0
C1399 C 0.10974 0.54892 0.45402 0.0
H1400 H 0.52077 0.55539 0.43632 0.0
H1401 H 0.51034 0.67821 0.43776 0.0
H1402 H 0.43763 0.50876 0.43995 0.0
H1403 H 0.42784 0.63202 0.44143 0.0
H1404 H 0.27555 0.52388 0.42828 0.0
H1405 H 0.35847 0.5776 0.42728 0.0
H1406 H 0.38042 0.49263 0.46013 0.0
H1407 H 0.29817 0.43881 0.46078 0.0
C1408 C 0.50072 0.57232 0.43742 0.0
C1409 C 0.52201 0.62028 0.43654 0.0
C1410 C 0.45326 0.5458 0.43958 0.0
C1411 C 0.42626 0.56685 0.44104 0.0
C1412 C 0.44759 0.61481 0.44014 0.0
C1413 C 0.49492 0.64123 0.43794 0.0
C1414 C 0.29813 0.51764 0.43562 0.0
C1415 C 0.2808 0.47722 0.44448 0.0
C1416 C 0.34554 0.54813 0.435 0.0
C1417 C 0.37596 0.53859 0.44333 0.0
C1418 C 0.35796 0.50013 0.45323 0.0
C1419 C 0.31088 0.46967 0.45374 0.0
H1420 H 0.53538 0.76475 0.43704 0.0
H1421 H 0.63581 0.89843 0.45465 0.0
H1422 H 0.47617 0.78685 0.4387 0.0
H1423 H 0.57818 0.92095 0.45568 0.0
H1424 H 0.46415 0.94688 0.46536 0.0
H1425 H 0.51248 0.91253 0.46798 0.0
H1426 H 0.45589 0.83682 0.42499 0.0
H1427 H 0.40593 0.87012 0.42286 0.0
C1428 C 0.5446 0.79842 0.44152 0.0
C1429 C 0.59025 0.82985 0.44567 0.0
C1430 C 0.5109 0.81134 0.44229 0.0
C1431 C 0.52235 0.85585 0.44724 0.0
C1432 C 0.56765 0.88621 0.45204 0.0
C1433 C 0.60097 0.87333 0.45134 0.0
C1434 C 0.46228 0.9231 0.45644 0.0
C1435 C 0.43206 0.91185 0.44373 0.0
C1436 C 0.48986 0.90323 0.45794 0.0
C1437 C 0.48862 0.87224 0.4466 0.0
C1438 C 0.45746 0.86011 0.43405 0.0
C1439 C 0.42921 0.87949 0.43271 0.0
H1440 H 0.8972 0.86869 0.26735 0.0
H1441 H 0.86223 0.73263 0.25243 0.0
H1442 H 0.97871 0.89242 0.2665 0.0
H1443 H 0.9434 0.75641 0.25063 0.0
H1444 H 0.08683 0.79432 0.26659 0.0
H1445 H 0.00633 0.77242 0.26552 0.0
H1446 H 0.04455 0.91129 0.25231 0.0
H1447 H 0.12544 0.93361 0.25431 0.0
C1448 C 0.90713 0.84414 0.26359 0.0
C1449 C 0.8734 0.79873 0.26009 0.0
C1450 C 0.95395 0.8577 0.26301 0.0
C1451 C 0.9683 0.82638 0.25861 0.0
C1452 C 0.9342 0.78136 0.25453 0.0
C1453 C 0.88749 0.76766 0.25543 0.0
C1454 C 0.07808 0.82013 0.26333 0.0
C1455 C 0.1127 0.86573 0.26053 0.0
C1456 C 0.03162 0.8075 0.26261 0.0
C1457 C 0.01822 0.8399 0.25879 0.0
C1458 C 0.05307 0.88537 0.25559 0.0
C1459 C 0.09964 0.89817 0.25657 0.0
H1460 H 0.30165 0.15577 0.26282 0.0
H1461 H 0.16902 0.03173 0.26095 0.0
H1462 H 0.26497 0.2014 0.25848 0.0
H1463 H 0.13222 0.07766 0.25674 0.0
H1464 H 0.09268 0.19308 0.2683 0.0
H1465 H 0.11846 0.1367 0.27041 0.0
H1466 H 0.22481 0.2132 0.23626 0.0
H1467 H 0.1998 0.26944 0.2344 0.0
C1468 C 0.26471 0.13824 0.26144 0.0
C1469 C 0.23842 0.09015 0.26214 0.0
C1470 C 0.24366 0.16433 0.25892 0.0
C1471 C 0.19577 0.14297 0.25702 0.0
C1472 C 0.16916 0.09497 0.25818 0.0
C1473 C 0.1903 0.06876 0.26067 0.0
C1474 C 0.12061 0.19687 0.26092 0.0
C1475 C 0.1447 0.23577 0.25135 0.0
C1476 C 0.13549 0.16481 0.26217 0.0
C1477 C 0.17442 0.17137 0.25381 0.0
C1478 C 0.19555 0.20802 0.24317 0.0
C1479 C 0.18098 0.23997 0.242 0.0
H1480 H 0.73198 0.96206 0.24578 0.0
H1481 H 0.84009 0.93553 0.25969 0.0
H1482 H 0.78445 0.04393 0.24795 0.0
H1483 H 0.89349 0.01838 0.26143 0.0
H1484 H 0.95791 0.16531 0.28112 0.0
H1485 H 0.90677 0.08263 0.27808 0.0
H1486 H 0.84989 0.10718 0.23624 0.0
H1487 H 0.90044 0.18951 0.23944 0.0
C1488 C 0.76725 0.97371 0.24907 0.0
C1489 C 0.7818 0.94215 0.25261 0.0
C1490 C 0.79745 0.02085 0.25024 0.0
C1491 C 0.84318 0.03785 0.25492 0.0
C1492 C 0.85825 0.00638 0.25802 0.0
C1493 C 0.82784 0.95895 0.25687 0.0
C1494 C 0.93428 0.15293 0.27133 0.0
C1495 C 0.93303 0.18399 0.26059 0.0
C1496 C 0.90526 0.10558 0.2695 0.0
C1497 C 0.8744 0.08818 0.25685 0.0
C1498 C 0.87279 0.11935 0.24623 0.0
C1499 C 0.90163 0.16665 0.24811 0.0
H1500 H 0.84613 0.89283 0.7516 0.0
H1501 H 0.7404 0.86912 0.78526 0.0
H1502 H 0.87027 0.97458 0.75124 0.0
H1503 H 0.76409 0.95005 0.78473 0.0
H1504 H 0.78713 0.08935 0.76742 0.0
H1505 H 0.76377 0.00781 0.76753 0.0
H1506 H 0.90623 0.0434 0.76784 0.0
H1507 H 0.92956 0.12463 0.76759 0.0
C1508 C 0.82814 0.90485 0.75897 0.0
C1509 C 0.79091 0.87382 0.76832 0.0
C1510 C 0.84197 0.95182 0.75876 0.0
C1511 C 0.81888 0.96898 0.76787 0.0
C1512 C 0.78207 0.93805 0.77731 0.0
C1513 C 0.76842 0.89133 0.77758 0.0
C1514 C 0.81346 0.0798 0.76757 0.0
C1515 C 0.86023 0.11372 0.76753 0.0
C1516 C 0.80009 0.033 0.76767 0.0
C1517 C 0.83311 0.01888 0.76766 0.0
C1518 C 0.87984 0.05287 0.76764 0.0
C1519 C 0.8932 0.09958 0.76762 0.0
H1520 H 0.16103 0.96654 0.74886 0.0
H1521 H 0.18054 0.89117 0.78615 0.0
H1522 H 0.07824 0.91399 0.75001 0.0
H1523 H 0.09801 0.83884 0.78734 0.0
H1524 H 0.95431 0.72586 0.77314 0.0
H1525 H 0.03643 0.77909 0.7725 0.0
H1526 H 0.01161 0.89248 0.76682 0.0
H1527 H 0.92868 0.83865 0.76711 0.0
C1528 C 0.1477 0.93881 0.75731 0.0
C1529 C 0.17761 0.93312 0.76738 0.0
C1530 C 0.10018 0.90881 0.75803 0.0
C1531 C 0.08135 0.87229 0.76883 0.0
C1532 C 0.11131 0.86623 0.77874 0.0
C1533 C 0.15879 0.89618 0.77801 0.0
C1534 C 0.96618 0.76216 0.77186 0.0
C1535 C 0.93477 0.77795 0.77017 0.0
C1536 C 0.01344 0.79278 0.77156 0.0
C1537 C 0.03077 0.84012 0.76958 0.0
C1538 C 0.99943 0.85614 0.76815 0.0
C1539 C 0.95191 0.82537 0.76847 0.0
H1540 H 0.18475 0.08363 0.77032 0.0
H1541 H 0.27222 0.20633 0.79691 0.0
H1542 H 0.12414 0.10393 0.77042 0.0
H1543 H 0.21316 0.22713 0.79662 0.0
H1544 H 0.09681 0.25081 0.80075 0.0
H1545 H 0.14001 0.21151 0.80516 0.0
H1546 H 0.11368 0.16224 0.75734 0.0
H1547 H 0.06878 0.20042 0.75324 0.0
C1548 C 0.1906 0.11428 0.77648 0.0
C1549 C 0.23326 0.14357 0.78351 0.0
C1550 C 0.15618 0.12619 0.77638 0.0
C1551 C 0.16389 0.16736 0.78341 0.0
C1552 C 0.20561 0.1949 0.79126 0.0
C1553 C 0.23975 0.1831 0.79134 0.0
C1554 C 0.10023 0.23146 0.79122 0.0
C1555 C 0.08047 0.22941 0.77655 0.0
C1556 C 0.12482 0.20882 0.79374 0.0
C1557 C 0.13094 0.18426 0.78154 0.0
C1558 C 0.10931 0.18047 0.76705 0.0
C1559 C 0.084 0.20262 0.76462 0.0
H1560 H 0.54948 0.07982 0.60181 0.0
H1561 H 0.56208 0.21337 0.59629 0.0
H1562 H 0.631 0.11326 0.59572 0.0
H1563 H 0.64315 0.24661 0.59018 0.0
H1564 H 0.79899 0.29127 0.59619 0.0
H1565 H 0.71776 0.26472 0.60131 0.0
H1566 H 0.67913 0.14497 0.57256 0.0
H1567 H 0.75972 0.17087 0.56779 0.0
C1568 C 0.56968 0.11626 0.59938 0.0
C1569 C 0.54926 0.14379 0.59961 0.0
C1570 C 0.61624 0.13543 0.5958 0.0
C1571 C 0.64335 0.18253 0.59228 0.0
C1572 C 0.62329 0.21034 0.59295 0.0
C1573 C 0.57676 0.19119 0.59655 0.0
C1574 C 0.77299 0.25998 0.59065 0.0
C1575 C 0.78548 0.23287 0.58173 0.0
C1576 C 0.72655 0.24461 0.59364 0.0
C1577 C 0.69216 0.2021 0.58768 0.0
C1578 C 0.70485 0.1771 0.57773 0.0
C1579 C 0.75098 0.19223 0.57483 0.0
H1580 H 0.86388 0.38654 0.58457 0.0
H1581 H 0.99901 0.50721 0.58455 0.0
H1582 H 0.82913 0.43446 0.58215 0.0
H1583 H 0.96421 0.55568 0.58244 0.0
H1584 H 0.89592 0.62907 0.56338 0.0
H1585 H 0.92385 0.57498 0.5637 0.0
H1586 H 0.81555 0.48868 0.59607 0.0
H1587 H 0.78659 0.54249 0.59522 0.0
C1588 C 0.88619 0.42346 0.58437 0.0
C1589 C 0.93428 0.44331 0.5849 0.0
C1590 C 0.86619 0.45091 0.58293 0.0
C1591 C 0.8938 0.49885 0.58201 0.0
C1592 C 0.94193 0.51874 0.58278 0.0
C1593 C 0.96195 0.49119 0.5841 0.0
C1594 C 0.87747 0.59794 0.57027 0.0
C1595 C 0.83927 0.58985 0.57932 0.0
C1596 C 0.89382 0.56729 0.57062 0.0
C1597 C 0.87271 0.52817 0.58023 0.0
C1598 C 0.8326 0.51854 0.58853 0.0
C1599 C 0.81583 0.54912 0.58801 0.0
H1600 H 0.53151 0.28112 0.60052 0.0
H1601 H 0.43167 0.30046 0.57491 0.0
H1602 H 0.58706 0.36355 0.59791 0.0
H1603 H 0.48575 0.38172 0.57273 0.0
H1604 H 0.6015 0.52305 0.56201 0.0
H1605 H 0.55542 0.43952 0.56137 0.0
H1606 H 0.59406 0.43353 0.60926 0.0
H1607 H 0.64104 0.51727 0.60969 0.0
C1608 C 0.52179 0.30276 0.59412 0.0
C1609 C 0.47725 0.28457 0.58806 0.0
C1610 C 0.55326 0.3499 0.59277 0.0
C1611 C 0.54061 0.37924 0.58524 0.0
C1612 C 0.49688 0.36022 0.57846 0.0
C1613 C 0.4657 0.31354 0.57981 0.0
C1614 C 0.59956 0.50389 0.57246 0.0
C1615 C 0.6243 0.52656 0.58597 0.0
C1616 C 0.5735 0.45603 0.57207 0.0
C1617 C 0.57121 0.42984 0.58525 0.0
C1618 C 0.59584 0.45261 0.5988 0.0
C1619 C 0.62222 0.50049 0.59913 0.0
loop_
_geom_bond_atom_site_label_1
_geom_bond_atom_site_label_2
_geom_bond_distance
_geom_bond_site_symmetry_2
_ccdc_geom_bond_type
Co0 N5 2.057 . S
Co0 O17 2.021 . S
Co0 O20 2.062 . S
Co0 O24 2.117 . S
Co0 O25 2.020 1_565 S
C1 O21 1.259 . S
C1 O24 1.258 1_545 S
Co2 N11 2.057 . S
Co2 O18 2.117 . S
Co2 O19 2.020 1_545 S
Co2 O21 2.021 . S
Co2 O26 2.062 . S
C3 N5 1.316 . S
C3 N6 1.347 . S
C3 H8 0.931 . S
C4 N5 1.375 . S
C4 C7 1.350 . S
C4 H9 0.930 . S
N5 Co0 2.057 . S
N5 C3 1.316 . S
N5 C4 1.375 . S
N6 C3 1.347 . S
N6 C7 1.373 . S
C7 C4 1.350 . S
C7 N6 1.373 . S
C7 H28 0.931 . S
H8 C3 0.931 . S
H9 C4 0.930 . S
C10 O17 1.259 1_545 S
C10 O18 1.258 . S
N11 Co2 2.057 . S
N11 C12 1.316 . S
N11 C13 1.375 . S
C12 N11 1.316 . S
C12 N14 1.347 . S
C12 H23 0.931 . S
C13 N11 1.375 . S
C13 C15 1.350 . S
C13 H22 0.930 . S
N14 C12 1.347 . S
N14 C15 1.373 . S
C15 C13 1.350 . S
C15 N14 1.373 . S
C15 H29 0.931 . S
C16 O19 1.256 . S
C16 O20 1.255 . S
O17 Co0 2.021 . S
O17 C10 1.259 1_565 S
O18 Co2 2.117 . S
O18 C10 1.258 . S
O19 Co2 2.020 1_565 S
O19 C16 1.256 . S
O20 Co0 2.062 . S
O20 C16 1.255 . S
O21 C1 1.259 . S
O21 Co2 2.021 . S
H22 C13 0.930 . S
H23 C12 0.931 . S
O24 Co0 2.117 . S
O24 C1 1.258 1_565 S
O25 Co0 2.020 1_545 S
O25 C27 1.256 . S
O26 Co2 2.062 . S
O26 C27 1.255 . S
C27 O25 1.256 . S
C27 O26 1.255 . S
H28 C7 0.931 . S
H29 C15 0.931 . S
Co30 N35 2.057 . S
Co30 O47 2.021 . S
Co30 O50 2.062 . S
Co30 O54 2.117 . S
Co30 O55 2.020 . S
C31 O51 1.259 1_455 S
C31 O54 1.258 . S
Co32 N41 2.059 . S
Co32 O48 2.116 1_655 S
Co32 O49 2.013 1_655 S
Co32 O51 2.022 . S
Co32 O56 2.068 . S
C33 N35 1.316 . S
C33 N36 1.347 . S
C33 H38 0.931 . S
C34 N35 1.375 . S
C34 C37 1.350 . S
C34 H39 0.930 . S
N35 Co30 2.057 . S
N35 C33 1.316 . S
N35 C34 1.375 . S
N36 C33 1.347 . S
N36 C37 1.373 . S
C37 C34 1.350 . S
C37 N36 1.373 . S
C37 H58 0.931 . S
H38 C33 0.931 . S
H39 C34 0.930 . S
C40 O47 1.259 . S
C40 O48 1.258 . S
N41 Co32 2.059 . S
N41 C42 1.316 . S
N41 C43 1.375 . S
C42 N41 1.316 . S
C42 N44 1.347 . S
C42 H53 0.931 . S
C43 N41 1.375 . S
C43 C45 1.350 . S
C43 H52 0.930 . S
N44 C42 1.347 . S
N44 C45 1.373 . S
C45 C43 1.350 . S
C45 N44 1.373 . S
C45 H59 0.931 . S
C46 O49 1.256 . S
C46 O50 1.255 . S
O47 Co30 2.021 . S
O47 C40 1.259 . S
O48 Co32 2.116 1_455 S
O48 C40 1.258 . S
O49 Co32 2.013 1_455 S
O49 C46 1.256 . S
O50 Co30 2.062 . S
O50 C46 1.255 . S
O51 C31 1.259 1_655 S
O51 Co32 2.022 . S
H52 C43 0.930 . S
H53 C42 0.931 . S
O54 Co30 2.117 . S
O54 C31 1.258 . S
O55 Co30 2.020 . S
O55 C57 1.256 1_455 S
O56 Co32 2.068 . S
O56 C57 1.255 . S
C57 O55 1.256 1_655 S
C57 O56 1.255 . S
H58 C37 0.931 . S
H59 C45 0.931 . S
Co60 N65 2.057 . S
Co60 O77 2.021 . S
Co60 O80 2.062 . S
Co60 O84 2.117 . S
Co60 O85 2.020 . S
C61 O81 1.259 . S
C61 O84 1.258 . S
Co62 N71 2.057 . S
Co62 O78 2.117 . S
Co62 O79 2.020 . S
Co62 O81 2.021 . S
Co62 O86 2.062 . S
C63 N65 1.316 . S
C63 N66 1.347 . S
C63 H68 0.931 . S
C64 N65 1.375 . S
C64 C67 1.350 . S
C64 H69 0.930 . S
N65 Co60 2.057 . S
N65 C63 1.316 . S
N65 C64 1.375 . S
N66 C63 1.347 . S
N66 C67 1.373 . S
C67 C64 1.350 . S
C67 N66 1.373 . S
C67 H88 0.931 . S
H68 C63 0.931 . S
H69 C64 0.930 . S
C70 O77 1.259 . S
C70 O78 1.258 . S
N71 Co62 2.057 . S
N71 C72 1.316 . S
N71 C73 1.375 . S
C72 N71 1.316 . S
C72 N74 1.347 . S
C72 H83 0.931 . S
C73 N71 1.375 . S
C73 C75 1.350 . S
C73 H82 0.930 . S
N74 C72 1.347 . S
N74 C75 1.373 . S
C75 C73 1.350 . S
C75 N74 1.373 . S
C75 H89 0.931 . S
C76 O79 1.256 . S
C76 O80 1.255 . S
O77 Co60 2.021 . S
O77 C70 1.259 . S
O78 Co62 2.117 . S
O78 C70 1.258 . S
O79 Co62 2.020 . S
O79 C76 1.256 . S
O80 Co60 2.062 . S
O80 C76 1.255 . S
O81 C61 1.259 . S
O81 Co62 2.021 . S
H82 C73 0.930 . S
H83 C72 0.931 . S
O84 Co60 2.117 . S
O84 C61 1.258 . S
O85 Co60 2.020 . S
O85 C87 1.256 . S
O86 Co62 2.062 . S
O86 C87 1.255 . S
C87 O85 1.256 . S
C87 O86 1.255 . S
H88 C67 0.931 . S
H89 C75 0.931 . S
Co90 N95 2.057 . S
Co90 O107 2.021 . S
Co90 O110 2.062 . S
Co90 O114 2.117 . S
Co90 O115 2.020 1_655 S
C91 O111 1.259 . S
C91 O114 1.258 1_455 S
Co92 N101 2.057 . S
Co92 O108 2.117 . S
Co92 O109 2.020 1_455 S
Co92 O111 2.021 . S
Co92 O116 2.062 . S
C93 N95 1.316 . S
C93 N96 1.347 . S
C93 H98 0.931 . S
C94 N95 1.375 . S
C94 C97 1.350 . S
C94 H99 0.930 . S
N95 Co90 2.057 . S
N95 C93 1.316 . S
N95 C94 1.375 . S
N96 C93 1.347 . S
N96 C97 1.373 . S
C97 C94 1.350 . S
C97 N96 1.373 . S
C97 H118 0.931 . S
H98 C93 0.931 . S
H99 C94 0.930 . S
C100 O107 1.259 1_455 S
C100 O108 1.258 . S
N101 Co92 2.057 . S
N101 C102 1.316 . S
N101 C103 1.375 . S
C102 N101 1.316 . S
C102 N104 1.347 . S
C102 H113 0.931 . S
C103 N101 1.375 . S
C103 C105 1.350 . S
C103 H112 0.930 . S
N104 C102 1.347 . S
N104 C105 1.373 . S
C105 C103 1.350 . S
C105 N104 1.373 . S
C105 H119 0.931 . S
C106 O109 1.256 . S
C106 O110 1.255 . S
O107 Co90 2.021 . S
O107 C100 1.259 1_655 S
O108 Co92 2.117 . S
O108 C100 1.258 . S
O109 Co92 2.020 1_655 S
O109 C106 1.256 . S
O110 Co90 2.062 . S
O110 C106 1.255 . S
O111 C91 1.259 . S
O111 Co92 2.021 . S
H112 C103 0.930 . S
H113 C102 0.931 . S
O114 Co90 2.117 . S
O114 C91 1.258 1_655 S
O115 Co90 2.020 1_455 S
O115 C117 1.256 . S
O116 Co92 2.062 . S
O116 C117 1.255 . S
C117 O115 1.256 . S
C117 O116 1.255 . S
H118 C97 0.931 . S
H119 C105 0.931 . S
Co120 N125 2.057 . S
Co120 O137 2.021 . S
Co120 O140 2.062 . S
Co120 O144 2.117 . S
Co120 O145 2.020 . S
C121 O141 1.259 . S
C121 O144 1.258 . S
Co122 N131 2.057 . S
Co122 O138 2.117 . S
Co122 O139 2.020 . S
Co122 O141 2.021 . S
Co122 O146 2.062 . S
C123 N125 1.316 . S
C123 N126 1.347 . S
C123 H128 0.931 . S
C124 N125 1.375 . S
C124 C127 1.350 . S
C124 H129 0.930 . S
N125 Co120 2.057 . S
N125 C123 1.316 . S
N125 C124 1.375 . S
N126 C123 1.347 . S
N126 C127 1.373 . S
C127 C124 1.350 . S
C127 N126 1.373 . S
C127 H148 0.931 . S
H128 C123 0.931 . S
H129 C124 0.930 . S
C130 O137 1.259 . S
C130 O138 1.258 . S
N131 Co122 2.057 . S
N131 C132 1.316 . S
N131 C133 1.375 . S
C132 N131 1.316 . S
C132 N134 1.347 . S
C132 H143 0.931 . S
C133 N131 1.375 . S
C133 C135 1.350 . S
C133 H142 0.930 . S
N134 C132 1.347 . S
N134 C135 1.373 . S
C135 C133 1.350 . S
C135 N134 1.373 . S
C135 H149 0.931 . S
C136 O139 1.256 . S
C136 O140 1.255 . S
O137 Co120 2.021 . S
O137 C130 1.259 . S
O138 Co122 2.117 . S
O138 C130 1.258 . S
O139 Co122 2.020 . S
O139 C136 1.256 . S
O140 Co120 2.062 . S
O140 C136 1.255 . S
O141 C121 1.259 . S
O141 Co122 2.021 . S
H142 C133 0.930 . S
H143 C132 0.931 . S
O144 Co120 2.117 . S
O144 C121 1.258 . S
O145 Co120 2.020 . S
O145 C147 1.256 . S
O146 Co122 2.062 . S
O146 C147 1.255 . S
C147 O145 1.256 . S
C147 O146 1.255 . S
H148 C127 0.931 . S
H149 C135 0.931 . S
Co150 N155 2.057 . S
Co150 O167 2.021 . S
Co150 O170 2.062 . S
Co150 O174 2.117 . S
Co150 O175 2.020 . S
C151 O171 1.259 1_545 S
C151 O174 1.258 . S
Co152 N161 2.059 . S
Co152 O168 2.116 1_565 S
Co152 O169 2.013 1_565 S
Co152 O171 2.022 . S
Co152 O176 2.068 . S
C153 N155 1.316 . S
C153 N156 1.347 . S
C153 H158 0.931 . S
C154 N155 1.375 . S
C154 C157 1.350 . S
C154 H159 0.930 . S
N155 Co150 2.057 . S
N155 C153 1.316 . S
N155 C154 1.375 . S
N156 C153 1.347 . S
N156 C157 1.373 . S
C157 C154 1.350 . S
C157 N156 1.373 . S
C157 H178 0.931 . S
H158 C153 0.931 . S
H159 C154 0.930 . S
C160 O167 1.259 . S
C160 O168 1.258 . S
N161 Co152 2.059 . S
N161 C162 1.316 . S
N161 C163 1.375 . S
C162 N161 1.316 . S
C162 N164 1.347 . S
C162 H173 0.931 . S
C163 N161 1.375 . S
C163 C165 1.350 . S
C163 H172 0.930 . S
N164 C162 1.347 . S
N164 C165 1.373 . S
C165 C163 1.350 . S
C165 N164 1.373 . S
C165 H179 0.931 . S
C166 O169 1.256 . S
C166 O170 1.255 . S
O167 Co150 2.021 . S
O167 C160 1.259 . S
O168 Co152 2.116 1_545 S
O168 C160 1.258 . S
O169 Co152 2.013 1_545 S
O169 C166 1.256 . S
O170 Co150 2.062 . S
O170 C166 1.255 . S
O171 C151 1.259 1_565 S
O171 Co152 2.022 . S
H172 C163 0.930 . S
H173 C162 0.931 . S
O174 Co150 2.117 . S
O174 C151 1.258 . S
O175 Co150 2.020 . S
O175 C177 1.256 1_545 S
O176 Co152 2.068 . S
O176 C177 1.255 . S
C177 O175 1.256 1_565 S
C177 O176 1.255 . S
H178 C157 0.931 . S
H179 C165 0.931 . S
Co180 N185 2.057 . S
Co180 O197 2.021 . S
Co180 O200 2.062 . S
Co180 O204 2.117 . S
Co180 O205 2.020 . S
C181 O201 1.259 . S
C181 O204 1.258 . S
Co182 N191 2.057 . S
Co182 O198 2.117 . S
Co182 O199 2.020 . S
Co182 O201 2.021 . S
Co182 O206 2.062 . S
C183 N185 1.316 . S
C183 N186 1.347 . S
C183 H188 0.931 . S
C184 N185 1.375 . S
C184 C187 1.350 . S
C184 H189 0.930 . S
N185 Co180 2.057 . S
N185 C183 1.316 . S
N185 C184 1.375 . S
N186 C183 1.347 . S
N186 C187 1.373 . S
C187 C184 1.350 . S
C187 N186 1.373 . S
C187 H208 0.931 . S
H188 C183 0.931 . S
H189 C184 0.930 . S
C190 O197 1.259 . S
C190 O198 1.258 . S
N191 Co182 2.057 . S
N191 C192 1.316 . S
N191 C193 1.375 . S
C192 N191 1.316 . S
C192 N194 1.347 . S
C192 H203 0.931 . S
C193 N191 1.375 . S
C193 C195 1.350 . S
C193 H202 0.930 . S
N194 C192 1.347 . S
N194 C195 1.373 . S
C195 C193 1.350 . S
C195 N194 1.373 . S
C195 H209 0.931 . S
C196 O199 1.256 . S
C196 O200 1.255 . S
O197 Co180 2.021 . S
O197 C190 1.259 . S
O198 Co182 2.117 . S
O198 C190 1.258 . S
O199 Co182 2.020 . S
O199 C196 1.256 . S
O200 Co180 2.062 . S
O200 C196 1.255 . S
O201 C181 1.259 . S
O201 Co182 2.021 . S
H202 C193 0.930 . S
H203 C192 0.931 . S
O204 Co180 2.117 . S
O204 C181 1.258 . S
O205 Co180 2.020 . S
O205 C207 1.256 . S
O206 Co182 2.062 . S
O206 C207 1.255 . S
C207 O205 1.256 . S
C207 O206 1.255 . S
H208 C187 0.931 . S
H209 C195 0.931 . S
Co210 N215 2.057 . S
Co210 O227 2.021 . S
Co210 O230 2.062 . S
Co210 O234 2.117 . S
Co210 O235 2.020 . S
C211 O231 1.259 . S
C211 O234 1.258 . S
Co212 N221 2.057 . S
Co212 O228 2.117 . S
Co212 O229 2.020 . S
Co212 O231 2.021 . S
Co212 O236 2.062 . S
C213 N215 1.316 . S
C213 N216 1.347 1_565 S
C213 H218 0.931 . S
C214 N215 1.375 . S
C214 C217 1.350 1_565 S
C214 H219 0.930 . S
N215 Co210 2.057 . S
N215 C213 1.316 . S
N215 C214 1.375 . S
N216 C213 1.347 1_545 S
N216 C217 1.373 . S
C217 C214 1.350 1_545 S
C217 N216 1.373 . S
C217 H238 0.931 . S
H218 C213 0.931 . S
H219 C214 0.930 . S
C220 O227 1.259 . S
C220 O228 1.258 . S
N221 Co212 2.057 . S
N221 C222 1.316 . S
N221 C223 1.375 . S
C222 N221 1.316 . S
C222 N224 1.347 . S
C222 H233 0.931 . S
C223 N221 1.375 . S
C223 C225 1.350 . S
C223 H232 0.930 . S
N224 C222 1.347 . S
N224 C225 1.373 . S
C225 C223 1.350 . S
C225 N224 1.373 . S
C225 H239 0.931 . S
C226 O229 1.256 . S
C226 O230 1.255 . S
O227 Co210 2.021 . S
O227 C220 1.259 . S
O228 Co212 2.117 . S
O228 C220 1.258 . S
O229 Co212 2.020 . S
O229 C226 1.256 . S
O230 Co210 2.062 . S
O230 C226 1.255 . S
O231 C211 1.259 . S
O231 Co212 2.021 . S
H232 C223 0.930 . S
H233 C222 0.931 . S
O234 Co210 2.117 . S
O234 C211 1.258 . S
O235 Co210 2.020 . S
O235 C237 1.256 . S
O236 Co212 2.062 . S
O236 C237 1.255 . S
C237 O235 1.256 . S
C237 O236 1.255 . S
H238 C217 0.931 . S
H239 C225 0.931 . S
Co240 N245 2.057 . S
Co240 O257 2.021 . S
Co240 O260 2.062 . S
Co240 O264 2.117 . S
Co240 O265 2.020 . S
C241 O261 1.259 . S
C241 O264 1.258 . S
Co242 N251 2.057 . S
Co242 O258 2.117 . S
Co242 O259 2.020 . S
Co242 O261 2.021 . S
Co242 O266 2.062 . S
C243 N245 1.316 . S
C243 N246 1.347 . S
C243 H248 0.931 . S
C244 N245 1.375 . S
C244 C247 1.350 . S
C244 H249 0.930 . S
N245 Co240 2.057 . S
N245 C243 1.316 . S
N245 C244 1.375 . S
N246 C243 1.347 . S
N246 C247 1.373 . S
C247 C244 1.350 . S
C247 N246 1.373 . S
C247 H268 0.931 . S
H248 C243 0.931 . S
H249 C244 0.930 . S
C250 O257 1.259 . S
C250 O258 1.258 . S
N251 Co242 2.057 . S
N251 C252 1.316 . S
N251 C253 1.375 . S
C252 N251 1.316 . S
C252 N254 1.347 . S
C252 H263 0.931 . S
C253 N251 1.375 . S
C253 C255 1.350 . S
C253 H262 0.930 . S
N254 C252 1.347 . S
N254 C255 1.373 . S
C255 C253 1.350 . S
C255 N254 1.373 . S
C255 H269 0.931 . S
C256 O259 1.256 . S
C256 O260 1.255 . S
O257 Co240 2.021 . S
O257 C250 1.259 . S
O258 Co242 2.117 . S
O258 C250 1.258 . S
O259 Co242 2.020 . S
O259 C256 1.256 . S
O260 Co240 2.062 . S
O260 C256 1.255 . S
O261 C241 1.259 . S
O261 Co242 2.021 . S
H262 C253 0.930 . S
H263 C252 0.931 . S
O264 Co240 2.117 . S
O264 C241 1.258 . S
O265 Co240 2.020 . S
O265 C267 1.256 . S
O266 Co242 2.062 . S
O266 C267 1.255 . S
C267 O265 1.256 . S
C267 O266 1.255 . S
H268 C247 0.931 . S
H269 C255 0.931 . S
Co270 N275 2.057 . S
Co270 O287 2.021 . S
Co270 O290 2.062 . S
Co270 O294 2.117 . S
Co270 O295 2.020 . S
C271 O291 1.259 . S
C271 O294 1.258 . S
Co272 N281 2.057 . S
Co272 O288 2.117 . S
Co272 O289 2.020 . S
Co272 O291 2.021 . S
Co272 O296 2.062 . S
C273 N275 1.316 . S
C273 N276 1.347 . S
C273 H278 0.931 . S
C274 N275 1.375 . S
C274 C277 1.350 . S
C274 H279 0.930 . S
N275 Co270 2.057 . S
N275 C273 1.316 . S
N275 C274 1.375 . S
N276 C273 1.347 . S
N276 C277 1.373 . S
C277 C274 1.350 . S
C277 N276 1.373 . S
C277 H298 0.931 . S
H278 C273 0.931 . S
H279 C274 0.930 . S
C280 O287 1.259 . S
C280 O288 1.258 . S
N281 Co272 2.057 . S
N281 C282 1.316 . S
N281 C283 1.375 . S
C282 N281 1.316 . S
C282 N284 1.347 . S
C282 H293 0.931 . S
C283 N281 1.375 . S
C283 C285 1.350 . S
C283 H292 0.930 . S
N284 C282 1.347 . S
N284 C285 1.373 . S
C285 C283 1.350 . S
C285 N284 1.373 . S
C285 H299 0.931 . S
C286 O289 1.256 . S
C286 O290 1.255 . S
O287 Co270 2.021 . S
O287 C280 1.259 . S
O288 Co272 2.117 . S
O288 C280 1.258 . S
O289 Co272 2.020 . S
O289 C286 1.256 . S
O290 Co270 2.062 . S
O290 C286 1.255 . S
O291 C271 1.259 . S
O291 Co272 2.021 . S
H292 C283 0.930 . S
H293 C282 0.931 . S
O294 Co270 2.117 . S
O294 C271 1.258 . S
O295 Co270 2.020 . S
O295 C297 1.256 . S
O296 Co272 2.062 . S
O296 C297 1.255 . S
C297 O295 1.256 . S
C297 O296 1.255 . S
H298 C277 0.931 . S
H299 C285 0.931 . S
Co300 N305 2.057 . S
Co300 O317 2.021 . S
Co300 O320 2.062 . S
Co300 O324 2.117 . S
Co300 O325 2.020 . S
C301 O321 1.259 . S
C301 O324 1.258 . S
Co302 N311 2.057 . S
Co302 O318 2.117 . S
Co302 O319 2.020 . S
Co302 O321 2.021 . S
Co302 O326 2.062 . S
C303 N305 1.316 . S
C303 N306 1.347 . S
C303 H308 0.931 . S
C304 N305 1.375 . S
C304 C307 1.350 . S
C304 H309 0.930 . S
N305 Co300 2.057 . S
N305 C303 1.316 . S
N305 C304 1.375 . S
N306 C303 1.347 . S
N306 C307 1.373 . S
C307 C304 1.350 . S
C307 N306 1.373 . S
C307 H328 0.931 . S
H308 C303 0.931 . S
H309 C304 0.930 . S
C310 O317 1.259 . S
C310 O318 1.258 . S
N311 Co302 2.057 . S
N311 C312 1.316 1_565 S
N311 C313 1.375 1_565 S
C312 N311 1.316 1_545 S
C312 N314 1.347 . S
C312 H323 0.931 . S
C313 N311 1.375 1_545 S
C313 C315 1.350 . S
C313 H322 0.930 . S
N314 C312 1.347 . S
N314 C315 1.373 . S
C315 C313 1.350 . S
C315 N314 1.373 . S
C315 H329 0.931 . S
C316 O319 1.256 . S
C316 O320 1.255 . S
O317 Co300 2.021 . S
O317 C310 1.259 . S
O318 Co302 2.117 . S
O318 C310 1.258 . S
O319 Co302 2.020 . S
O319 C316 1.256 . S
O320 Co300 2.062 . S
O320 C316 1.255 . S
O321 C301 1.259 . S
O321 Co302 2.021 . S
H322 C313 0.930 . S
H323 C312 0.931 . S
O324 Co300 2.117 . S
O324 C301 1.258 . S
O325 Co300 2.020 . S
O325 C327 1.256 . S
O326 Co302 2.062 . S
O326 C327 1.255 . S
C327 O325 1.256 . S
C327 O326 1.255 . S
H328 C307 0.931 . S
H329 C315 0.931 . S
Co330 N335 2.057 . S
Co330 O347 2.021 . S
Co330 O350 2.062 . S
Co330 O354 2.117 . S
Co330 O355 2.020 . S
C331 O351 1.259 . S
C331 O354 1.258 . S
Co332 N341 2.057 . S
Co332 O348 2.117 . S
Co332 O349 2.020 . S
Co332 O351 2.021 . S
Co332 O356 2.062 . S
C333 N335 1.316 . S
C333 N336 1.347 . S
C333 H338 0.931 . S
C334 N335 1.375 . S
C334 C337 1.350 . S
C334 H339 0.930 . S
N335 Co330 2.057 . S
N335 C333 1.316 . S
N335 C334 1.375 . S
N336 C333 1.347 . S
N336 C337 1.373 . S
C337 C334 1.350 . S
C337 N336 1.373 . S
C337 H358 0.931 . S
H338 C333 0.931 . S
H339 C334 0.930 . S
C340 O347 1.259 . S
C340 O348 1.258 . S
N341 Co332 2.057 . S
N341 C342 1.316 . S
N341 C343 1.375 . S
C342 N341 1.316 . S
C342 N344 1.347 1_455 S
C342 H353 0.931 . S
C343 N341 1.375 . S
C343 C345 1.350 1_455 S
C343 H352 0.930 . S
N344 C342 1.347 1_655 S
N344 C345 1.373 . S
C345 C343 1.350 1_655 S
C345 N344 1.373 . S
C345 H359 0.931 . S
C346 O349 1.256 . S
C346 O350 1.255 . S
O347 Co330 2.021 . S
O347 C340 1.259 . S
O348 Co332 2.117 . S
O348 C340 1.258 . S
O349 Co332 2.020 . S
O349 C346 1.256 . S
O350 Co330 2.062 . S
O350 C346 1.255 . S
O351 C331 1.259 . S
O351 Co332 2.021 . S
H352 C343 0.930 . S
H353 C342 0.931 . S
O354 Co330 2.117 . S
O354 C331 1.258 . S
O355 Co330 2.020 . S
O355 C357 1.256 . S
O356 Co332 2.062 . S
O356 C357 1.255 . S
C357 O355 1.256 . S
C357 O356 1.255 . S
H358 C337 0.931 . S
H359 C345 0.931 . S
Co360 N365 2.057 . S
Co360 O377 2.021 . S
Co360 O380 2.062 . S
Co360 O384 2.117 . S
Co360 O385 2.020 . S
C361 O381 1.259 . S
C361 O384 1.258 . S
Co362 N371 2.057 . S
Co362 O378 2.117 . S
Co362 O379 2.020 . S
Co362 O381 2.021 . S
Co362 O386 2.062 . S
C363 N365 1.316 . S
C363 N366 1.347 . S
C363 H368 0.931 . S
C364 N365 1.375 . S
C364 C367 1.350 . S
C364 H369 0.930 . S
N365 Co360 2.057 . S
N365 C363 1.316 . S
N365 C364 1.375 . S
N366 C363 1.347 . S
N366 C367 1.373 . S
C367 C364 1.350 . S
C367 N366 1.373 . S
C367 H388 0.931 . S
H368 C363 0.931 . S
H369 C364 0.930 . S
C370 O377 1.259 . S
C370 O378 1.258 . S
N371 Co362 2.057 . S
N371 C372 1.316 . S
N371 C373 1.375 . S
C372 N371 1.316 . S
C372 N374 1.347 . S
C372 H383 0.931 . S
C373 N371 1.375 . S
C373 C375 1.350 . S
C373 H382 0.930 . S
N374 C372 1.347 . S
N374 C375 1.373 . S
C375 C373 1.350 . S
C375 N374 1.373 . S
C375 H389 0.931 . S
C376 O379 1.256 . S
C376 O380 1.255 . S
O377 Co360 2.021 . S
O377 C370 1.259 . S
O378 Co362 2.117 . S
O378 C370 1.258 . S
O379 Co362 2.020 . S
O379 C376 1.256 . S
O380 Co360 2.062 . S
O380 C376 1.255 . S
O381 C361 1.259 . S
O381 Co362 2.021 . S
H382 C373 0.930 . S
H383 C372 0.931 . S
O384 Co360 2.117 . S
O384 C361 1.258 . S
O385 Co360 2.020 . S
O385 C387 1.256 . S
O386 Co362 2.062 . S
O386 C387 1.255 . S
C387 O385 1.256 . S
C387 O386 1.255 . S
H388 C367 0.931 . S
H389 C375 0.931 . S
Co390 N395 2.057 . S
Co390 O407 2.021 . S
Co390 O410 2.062 . S
Co390 O414 2.117 . S
Co390 O415 2.020 . S
C391 O411 1.259 . S
C391 O414 1.258 . S
Co392 N401 2.057 . S
Co392 O408 2.117 . S
Co392 O409 2.020 . S
Co392 O411 2.021 . S
Co392 O416 2.062 . S
C393 N395 1.316 . S
C393 N396 1.347 . S
C393 H398 0.931 . S
C394 N395 1.375 . S
C394 C397 1.350 . S
C394 H399 0.930 . S
N395 Co390 2.057 . S
N395 C393 1.316 . S
N395 C394 1.375 . S
N396 C393 1.347 . S
N396 C397 1.373 . S
C397 C394 1.350 . S
C397 N396 1.373 . S
C397 H418 0.931 . S
H398 C393 0.931 . S
H399 C394 0.930 . S
C400 O407 1.259 . S
C400 O408 1.258 . S
N401 Co392 2.057 . S
N401 C402 1.316 . S
N401 C403 1.375 . S
C402 N401 1.316 . S
C402 N404 1.347 1_545 S
C402 H413 0.931 . S
C403 N401 1.375 . S
C403 C405 1.350 1_545 S
C403 H412 0.930 . S
N404 C402 1.347 1_565 S
N404 C405 1.373 . S
C405 C403 1.350 1_565 S
C405 N404 1.373 . S
C405 H419 0.931 . S
C406 O409 1.256 . S
C406 O410 1.255 . S
O407 Co390 2.021 . S
O407 C400 1.259 . S
O408 Co392 2.117 . S
O408 C400 1.258 . S
O409 Co392 2.020 . S
O409 C406 1.256 . S
O410 Co390 2.062 . S
O410 C406 1.255 . S
O411 C391 1.259 . S
O411 Co392 2.021 . S
H412 C403 0.930 . S
H413 C402 0.931 . S
O414 Co390 2.117 . S
O414 C391 1.258 . S
O415 Co390 2.020 . S
O415 C417 1.256 . S
O416 Co392 2.062 . S
O416 C417 1.255 . S
C417 O415 1.256 . S
C417 O416 1.255 . S
H418 C397 0.931 . S
H419 C405 0.931 . S
Co420 N425 2.057 . S
Co420 O437 2.021 . S
Co420 O440 2.062 . S
Co420 O444 2.117 . S
Co420 O445 2.020 . S
C421 O441 1.259 . S
C421 O444 1.258 . S
Co422 N431 2.057 . S
Co422 O438 2.117 . S
Co422 O439 2.020 . S
Co422 O441 2.021 . S
Co422 O446 2.062 . S
C423 N425 1.316 . S
C423 N426 1.347 . S
C423 H428 0.931 . S
C424 N425 1.375 . S
C424 C427 1.350 . S
C424 H429 0.930 . S
N425 Co420 2.057 . S
N425 C423 1.316 . S
N425 C424 1.375 . S
N426 C423 1.347 . S
N426 C427 1.373 . S
C427 C424 1.350 . S
C427 N426 1.373 . S
C427 H448 0.931 . S
H428 C423 0.931 . S
H429 C424 0.930 . S
C430 O437 1.259 . S
C430 O438 1.258 . S
N431 Co422 2.057 . S
N431 C432 1.316 1_655 S
N431 C433 1.375 1_655 S
C432 N431 1.316 1_455 S
C432 N434 1.347 . S
C432 H443 0.931 . S
C433 N431 1.375 1_455 S
C433 C435 1.350 . S
C433 H442 0.930 . S
N434 C432 1.347 . S
N434 C435 1.373 . S
C435 C433 1.350 . S
C435 N434 1.373 . S
C435 H449 0.931 . S
C436 O439 1.256 . S
C436 O440 1.255 . S
O437 Co420 2.021 . S
O437 C430 1.259 . S
O438 Co422 2.117 . S
O438 C430 1.258 . S
O439 Co422 2.020 . S
O439 C436 1.256 . S
O440 Co420 2.062 . S
O440 C436 1.255 . S
O441 C421 1.259 . S
O441 Co422 2.021 . S
H442 C433 0.930 . S
H443 C432 0.931 . S
O444 Co420 2.117 . S
O444 C421 1.258 . S
O445 Co420 2.020 . S
O445 C447 1.256 . S
O446 Co422 2.062 . S
O446 C447 1.255 . S
C447 O445 1.256 . S
C447 O446 1.255 . S
H448 C427 0.931 . S
H449 C435 0.931 . S
Co450 N455 2.057 . S
Co450 O467 2.021 . S
Co450 O470 2.062 . S
Co450 O474 2.117 . S
Co450 O475 2.020 . S
C451 O471 1.259 . S
C451 O474 1.258 . S
Co452 N461 2.057 . S
Co452 O468 2.117 . S
Co452 O469 2.020 . S
Co452 O471 2.021 . S
Co452 O476 2.062 . S
C453 N455 1.316 . S
C453 N456 1.347 . S
C453 H458 0.931 . S
C454 N455 1.375 . S
C454 C457 1.350 . S
C454 H459 0.930 . S
N455 Co450 2.057 . S
N455 C453 1.316 . S
N455 C454 1.375 . S
N456 C453 1.347 . S
N456 C457 1.373 . S
C457 C454 1.350 . S
C457 N456 1.373 . S
C457 H478 0.931 . S
H458 C453 0.931 . S
H459 C454 0.930 . S
C460 O467 1.259 . S
C460 O468 1.258 . S
N461 Co452 2.057 . S
N461 C462 1.316 . S
N461 C463 1.375 . S
C462 N461 1.316 . S
C462 N464 1.347 . S
C462 H473 0.931 . S
C463 N461 1.375 . S
C463 C465 1.350 . S
C463 H472 0.930 . S
N464 C462 1.347 . S
N464 C465 1.373 . S
C465 C463 1.350 . S
C465 N464 1.373 . S
C465 H479 0.931 . S
C466 O469 1.256 . S
C466 O470 1.255 . S
O467 Co450 2.021 . S
O467 C460 1.259 . S
O468 Co452 2.117 . S
O468 C460 1.258 . S
O469 Co452 2.020 . S
O469 C466 1.256 . S
O470 Co450 2.062 . S
O470 C466 1.255 . S
O471 C451 1.259 . S
O471 Co452 2.021 . S
H472 C463 0.930 . S
H473 C462 0.931 . S
O474 Co450 2.117 . S
O474 C451 1.258 . S
O475 Co450 2.020 . S
O475 C477 1.256 . S
O476 Co452 2.062 . S
O476 C477 1.255 . S
C477 O475 1.256 . S
C477 O476 1.255 . S
H478 C457 0.931 . S
H479 C465 0.931 . S
Co480 N485 2.057 . S
Co480 O497 2.021 . S
Co480 O500 2.062 . S
Co480 O504 2.117 . S
Co480 O505 2.020 . S
C481 O501 1.259 . S
C481 O504 1.258 . S
Co482 N491 2.057 . S
Co482 O498 2.117 . S
Co482 O499 2.020 . S
Co482 O501 2.021 . S
Co482 O506 2.062 . S
C483 N485 1.316 . S
C483 N486 1.347 . S
C483 H488 0.931 . S
C484 N485 1.375 . S
C484 C487 1.350 . S
C484 H489 0.930 . S
N485 Co480 2.057 . S
N485 C483 1.316 . S
N485 C484 1.375 . S
N486 C483 1.347 . S
N486 C487 1.373 . S
C487 C484 1.350 . S
C487 N486 1.373 . S
C487 H508 0.931 . S
H488 C483 0.931 . S
H489 C484 0.930 . S
C490 O497 1.259 . S
C490 O498 1.258 . S
N491 Co482 2.057 . S
N491 C492 1.316 . S
N491 C493 1.375 . S
C492 N491 1.316 . S
C492 N494 1.347 . S
C492 H503 0.931 . S
C493 N491 1.375 . S
C493 C495 1.350 . S
C493 H502 0.930 . S
N494 C492 1.347 . S
N494 C495 1.373 . S
C495 C493 1.350 . S
C495 N494 1.373 . S
C495 H509 0.931 . S
C496 O499 1.256 . S
C496 O500 1.255 . S
O497 Co480 2.021 . S
O497 C490 1.259 . S
O498 Co482 2.117 . S
O498 C490 1.258 . S
O499 Co482 2.020 . S
O499 C496 1.256 . S
O500 Co480 2.062 . S
O500 C496 1.255 . S
O501 C481 1.259 . S
O501 Co482 2.021 . S
H502 C493 0.930 . S
H503 C492 0.931 . S
O504 Co480 2.117 . S
O504 C481 1.258 . S
O505 Co480 2.020 . S
O505 C507 1.256 . S
O506 Co482 2.062 . S
O506 C507 1.255 . S
C507 O505 1.256 . S
C507 O506 1.255 . S
H508 C487 0.931 . S
H509 C495 0.931 . S
Co510 N515 2.057 . S
Co510 O527 2.021 . S
Co510 O530 2.062 . S
Co510 O534 2.117 . S
Co510 O535 2.020 . S
C511 O531 1.259 . S
C511 O534 1.258 . S
Co512 N521 2.057 . S
Co512 O528 2.117 . S
Co512 O529 2.020 . S
Co512 O531 2.021 . S
Co512 O536 2.062 . S
C513 N515 1.316 . S
C513 N516 1.347 1_655 S
C513 H518 0.931 . S
C514 N515 1.375 . S
C514 C517 1.350 1_655 S
C514 H519 0.930 . S
N515 Co510 2.057 . S
N515 C513 1.316 . S
N515 C514 1.375 . S
N516 C513 1.347 1_455 S
N516 C517 1.373 . S
C517 C514 1.350 1_455 S
C517 N516 1.373 . S
C517 H538 0.931 . S
H518 C513 0.931 . S
H519 C514 0.930 . S
C520 O527 1.259 . S
C520 O528 1.258 . S
N521 Co512 2.057 . S
N521 C522 1.316 . S
N521 C523 1.375 . S
C522 N521 1.316 . S
C522 N524 1.347 . S
C522 H533 0.931 . S
C523 N521 1.375 . S
C523 C525 1.350 . S
C523 H532 0.930 . S
N524 C522 1.347 . S
N524 C525 1.373 . S
C525 C523 1.350 . S
C525 N524 1.373 . S
C525 H539 0.931 . S
C526 O529 1.256 . S
C526 O530 1.255 . S
O527 Co510 2.021 . S
O527 C520 1.259 . S
O528 Co512 2.117 . S
O528 C520 1.258 . S
O529 Co512 2.020 . S
O529 C526 1.256 . S
O530 Co510 2.062 . S
O530 C526 1.255 . S
O531 C511 1.259 . S
O531 Co512 2.021 . S
H532 C523 0.930 . S
H533 C522 0.931 . S
O534 Co510 2.117 . S
O534 C511 1.258 . S
O535 Co510 2.020 . S
O535 C537 1.256 . S
O536 Co512 2.062 . S
O536 C537 1.255 . S
C537 O535 1.256 . S
C537 O536 1.255 . S
H538 C517 0.931 . S
H539 C525 0.931 . S
H540 C548 0.950 . S
H541 C553 0.950 . S
H542 C550 0.950 . S
H543 C552 0.950 . S
H544 C554 0.950 . S
H545 C556 0.950 . S
H546 C558 0.950 . S
H547 C559 0.950 . S
C548 H540 0.950 . S
C548 C549 1.386 . S
C548 C550 1.391 . S
C549 C548 1.386 . S
C549 C553 1.393 . S
C550 H542 0.950 . S
C550 C548 1.391 . S
C550 C551 1.400 . S
C551 C550 1.400 . S
C551 C552 1.398 . S
C551 C557 1.491 . S
C552 H543 0.950 . S
C552 C551 1.398 . S
C552 C553 1.391 . S
C553 H541 0.950 . S
C553 C549 1.393 . S
C553 C552 1.391 . S
C554 H544 0.950 . S
C554 C555 1.386 . S
C554 C556 1.391 . S
C555 C554 1.386 . S
C555 C559 1.393 . S
C556 H545 0.950 . S
C556 C554 1.391 . S
C556 C557 1.400 . S
C557 C551 1.491 . S
C557 C556 1.400 . S
C557 C558 1.398 . S
C558 H546 0.950 . S
C558 C557 1.398 . S
C558 C559 1.391 . S
C559 H547 0.950 . S
C559 C555 1.393 . S
C559 C558 1.391 . S
H560 C568 0.950 . S
H561 C573 0.950 . S
H562 C570 0.950 . S
H563 C572 0.950 . S
H564 C574 0.950 . S
H565 C576 0.950 . S
H566 C578 0.950 . S
H567 C579 0.950 . S
C568 H560 0.950 . S
C568 C569 1.386 . S
C568 C570 1.391 . S
C569 C568 1.386 . S
C569 C573 1.393 . S
C570 H562 0.950 . S
C570 C568 1.391 . S
C570 C571 1.400 . S
C571 C570 1.400 . S
C571 C572 1.398 . S
C571 C577 1.491 . S
C572 H563 0.950 . S
C572 C571 1.398 . S
C572 C573 1.391 . S
C573 H561 0.950 . S
C573 C569 1.393 . S
C573 C572 1.391 . S
C574 H564 0.950 . S
C574 C575 1.386 . S
C574 C576 1.391 . S
C575 C574 1.386 . S
C575 C579 1.393 . S
C576 H565 0.950 . S
C576 C574 1.391 . S
C576 C577 1.400 . S
C577 C571 1.491 . S
C577 C576 1.400 . S
C577 C578 1.398 . S
C578 H566 0.950 . S
C578 C577 1.398 . S
C578 C579 1.391 . S
C579 H567 0.950 . S
C579 C575 1.393 . S
C579 C578 1.391 . S
H580 C588 0.950 . S
H581 C593 0.950 . S
H582 C590 0.950 . S
H583 C592 0.950 . S
H584 C594 0.950 . S
H585 C596 0.950 . S
H586 C598 0.950 . S
H587 C599 0.950 . S
C588 H580 0.950 . S
C588 C589 1.386 . S
C588 C590 1.391 . S
C589 C588 1.386 . S
C589 C593 1.393 . S
C590 H582 0.950 . S
C590 C588 1.391 . S
C590 C591 1.400 . S
C591 C590 1.400 . S
C591 C592 1.398 . S
C591 C597 1.491 . S
C592 H583 0.950 . S
C592 C591 1.398 . S
C592 C593 1.391 . S
C593 H581 0.950 . S
C593 C589 1.393 . S
C593 C592 1.391 . S
C594 H584 0.950 . S
C594 C595 1.386 . S
C594 C596 1.391 . S
C595 C594 1.386 . S
C595 C599 1.393 . S
C596 H585 0.950 . S
C596 C594 1.391 . S
C596 C597 1.400 . S
C597 C591 1.491 . S
C597 C596 1.400 . S
C597 C598 1.398 . S
C598 H586 0.950 . S
C598 C597 1.398 . S
C598 C599 1.391 . S
C599 H587 0.950 . S
C599 C595 1.393 . S
C599 C598 1.391 . S
H600 C608 0.950 . S
H601 C613 0.950 . S
H602 C610 0.950 . S
H603 C612 0.950 . S
H604 C614 0.950 . S
H605 C616 0.950 . S
H606 C618 0.950 . S
H607 C619 0.950 . S
C608 H600 0.950 . S
C608 C609 1.386 . S
C608 C610 1.391 . S
C609 C608 1.386 . S
C609 C613 1.393 . S
C610 H602 0.950 . S
C610 C608 1.391 . S
C610 C611 1.400 . S
C611 C610 1.400 . S
C611 C612 1.398 . S
C611 C617 1.491 . S
C612 H603 0.950 . S
C612 C611 1.398 . S
C612 C613 1.391 . S
C613 H601 0.950 . S
C613 C609 1.393 . S
C613 C612 1.391 . S
C614 H604 0.950 . S
C614 C615 1.386 . S
C614 C616 1.391 . S
C615 C614 1.386 . S
C615 C619 1.393 . S
C616 H605 0.950 . S
C616 C614 1.391 . S
C616 C617 1.400 . S
C617 C611 1.491 . S
C617 C616 1.400 . S
C617 C618 1.398 . S
C618 H606 0.950 . S
C618 C617 1.398 . S
C618 C619 1.391 . S
C619 H607 0.950 . S
C619 C615 1.393 . S
C619 C618 1.391 . S
H620 C628 0.950 . S
H621 C633 0.950 . S
H622 C630 0.950 . S
H623 C632 0.950 . S
H624 C634 0.950 . S
H625 C636 0.950 . S
H626 C638 0.950 . S
H627 C639 0.950 . S
C628 H620 0.950 . S
C628 C629 1.386 . S
C628 C630 1.391 . S
C629 C628 1.386 . S
C629 C633 1.393 . S
C630 H622 0.950 . S
C630 C628 1.391 . S
C630 C631 1.400 . S
C631 C630 1.400 . S
C631 C632 1.398 . S
C631 C637 1.491 . S
C632 H623 0.950 . S
C632 C631 1.398 . S
C632 C633 1.391 . S
C633 H621 0.950 . S
C633 C629 1.393 . S
C633 C632 1.391 . S
C634 H624 0.950 . S
C634 C635 1.386 . S
C634 C636 1.391 . S
C635 C634 1.386 . S
C635 C639 1.393 . S
C636 H625 0.950 . S
C636 C634 1.391 . S
C636 C637 1.400 . S
C637 C631 1.491 . S
C637 C636 1.400 . S
C637 C638 1.398 . S
C638 H626 0.950 . S
C638 C637 1.398 . S
C638 C639 1.391 . S
C639 H627 0.950 . S
C639 C635 1.393 . S
C639 C638 1.391 . S
H640 C648 0.950 . S
H641 C653 0.950 . S
H642 C650 0.950 . S
H643 C652 0.950 . S
H644 C654 0.950 . S
H645 C656 0.950 . S
H646 C658 0.950 . S
H647 C659 0.950 . S
C648 H640 0.950 . S
C648 C649 1.386 . S
C648 C650 1.391 . S
C649 C648 1.386 . S
C649 C653 1.393 . S
C650 H642 0.950 . S
C650 C648 1.391 . S
C650 C651 1.400 . S
C651 C650 1.400 . S
C651 C652 1.398 . S
C651 C657 1.491 . S
C652 H643 0.950 . S
C652 C651 1.398 . S
C652 C653 1.391 . S
C653 H641 0.950 . S
C653 C649 1.393 . S
C653 C652 1.391 . S
C654 H644 0.950 . S
C654 C655 1.386 . S
C654 C656 1.391 . S
C655 C654 1.386 . S
C655 C659 1.393 . S
C656 H645 0.950 . S
C656 C654 1.391 . S
C656 C657 1.400 . S
C657 C651 1.491 . S
C657 C656 1.400 . S
C657 C658 1.398 . S
C658 H646 0.950 . S
C658 C657 1.398 . S
C658 C659 1.391 . S
C659 H647 0.950 . S
C659 C655 1.393 . S
C659 C658 1.391 . S
H660 C668 0.950 . S
H661 C673 0.950 1_565 S
H662 C670 0.950 . S
H663 C672 0.950 . S
H664 C674 0.950 . S
H665 C676 0.950 . S
H666 C678 0.950 . S
H667 C679 0.950 . S
C668 H660 0.950 . S
C668 C669 1.386 1_545 S
C668 C670 1.391 . S
C669 C668 1.386 1_565 S
C669 C673 1.393 1_565 S
C670 H662 0.950 . S
C670 C668 1.391 . S
C670 C671 1.400 . S
C671 C670 1.400 . S
C671 C672 1.398 . S
C671 C677 1.491 . S
C672 H663 0.950 . S
C672 C671 1.398 . S
C672 C673 1.391 . S
C673 H661 0.950 1_545 S
C673 C669 1.393 1_545 S
C673 C672 1.391 . S
C674 H664 0.950 . S
C674 C675 1.386 . S
C674 C676 1.391 . S
C675 C674 1.386 . S
C675 C679 1.393 . S
C676 H665 0.950 . S
C676 C674 1.391 . S
C676 C677 1.400 . S
C677 C671 1.491 . S
C677 C676 1.400 . S
C677 C678 1.398 . S
C678 H666 0.950 . S
C678 C677 1.398 . S
C678 C679 1.391 . S
C679 H667 0.950 . S
C679 C675 1.393 . S
C679 C678 1.391 . S
H680 C688 0.950 . S
H681 C693 0.950 . S
H682 C690 0.950 . S
H683 C692 0.950 . S
H684 C694 0.950 . S
H685 C696 0.950 . S
H686 C698 0.950 . S
H687 C699 0.950 . S
C688 H680 0.950 . S
C688 C689 1.386 . S
C688 C690 1.391 1_455 S
C689 C688 1.386 . S
C689 C693 1.393 . S
C690 H682 0.950 . S
C690 C688 1.391 1_655 S
C690 C691 1.400 . S
C691 C690 1.400 . S
C691 C692 1.398 . S
C691 C697 1.491 . S
C692 H683 0.950 . S
C692 C691 1.398 . S
C692 C693 1.391 1_655 S
C693 H681 0.950 . S
C693 C689 1.393 . S
C693 C692 1.391 1_455 S
C694 H684 0.950 . S
C694 C695 1.386 . S
C694 C696 1.391 . S
C695 C694 1.386 . S
C695 C699 1.393 . S
C696 H685 0.950 . S
C696 C694 1.391 . S
C696 C697 1.400 . S
C697 C691 1.491 . S
C697 C696 1.400 . S
C697 C698 1.398 . S
C698 H686 0.950 . S
C698 C697 1.398 . S
C698 C699 1.391 . S
C699 H687 0.950 . S
C699 C695 1.393 . S
C699 C698 1.391 . S
H700 C708 0.950 . S
H701 C713 0.950 . S
H702 C710 0.950 . S
H703 C712 0.950 . S
H704 C714 0.950 . S
H705 C716 0.950 . S
H706 C718 0.950 . S
H707 C719 0.950 . S
C708 H700 0.950 . S
C708 C709 1.386 . S
C708 C710 1.391 1_455 S
C709 C708 1.386 . S
C709 C713 1.393 1_455 S
C710 H702 0.950 . S
C710 C708 1.391 1_655 S
C710 C711 1.400 . S
C711 C710 1.400 . S
C711 C712 1.398 . S
C711 C717 1.491 . S
C712 H703 0.950 . S
C712 C711 1.398 . S
C712 C713 1.391 . S
C713 H701 0.950 . S
C713 C709 1.393 1_655 S
C713 C712 1.391 . S
C714 H704 0.950 . S
C714 C715 1.386 . S
C714 C716 1.391 . S
C715 C714 1.386 . S
C715 C719 1.393 . S
C716 H705 0.950 . S
C716 C714 1.391 . S
C716 C717 1.400 . S
C717 C711 1.491 . S
C717 C716 1.400 . S
C717 C718 1.398 . S
C718 H706 0.950 . S
C718 C717 1.398 . S
C718 C719 1.391 . S
C719 H707 0.950 . S
C719 C715 1.393 . S
C719 C718 1.391 . S
H720 C728 0.950 . S
H721 C733 0.950 . S
H722 C730 0.950 . S
H723 C732 0.950 . S
H724 C734 0.950 . S
H725 C736 0.950 . S
H726 C738 0.950 . S
H727 C739 0.950 . S
C728 H720 0.950 . S
C728 C729 1.386 . S
C728 C730 1.391 . S
C729 C728 1.386 . S
C729 C733 1.393 . S
C730 H722 0.950 . S
C730 C728 1.391 . S
C730 C731 1.400 . S
C731 C730 1.400 . S
C731 C732 1.398 . S
C731 C737 1.491 . S
C732 H723 0.950 . S
C732 C731 1.398 . S
C732 C733 1.391 . S
C733 H721 0.950 . S
C733 C729 1.393 . S
C733 C732 1.391 . S
C734 H724 0.950 . S
C734 C735 1.386 . S
C734 C736 1.391 . S
C735 C734 1.386 . S
C735 C739 1.393 . S
C736 H725 0.950 . S
C736 C734 1.391 . S
C736 C737 1.400 . S
C737 C731 1.491 . S
C737 C736 1.400 . S
C737 C738 1.398 . S
C738 H726 0.950 . S
C738 C737 1.398 . S
C738 C739 1.391 . S
C739 H727 0.950 . S
C739 C735 1.393 . S
C739 C738 1.391 . S
H740 C748 0.950 . S
H741 C753 0.950 . S
H742 C750 0.950 . S
H743 C752 0.950 . S
H744 C754 0.950 . S
H745 C756 0.950 . S
H746 C758 0.950 . S
H747 C759 0.950 . S
C748 H740 0.950 . S
C748 C749 1.386 . S
C748 C750 1.391 . S
C749 C748 1.386 . S
C749 C753 1.393 . S
C750 H742 0.950 . S
C750 C748 1.391 . S
C750 C751 1.400 . S
C751 C750 1.400 . S
C751 C752 1.398 . S
C751 C757 1.491 . S
C752 H743 0.950 . S
C752 C751 1.398 . S
C752 C753 1.391 . S
C753 H741 0.950 . S
C753 C749 1.393 . S
C753 C752 1.391 . S
C754 H744 0.950 . S
C754 C755 1.386 . S
C754 C756 1.391 . S
C755 C754 1.386 . S
C755 C759 1.393 . S
C756 H745 0.950 . S
C756 C754 1.391 . S
C756 C757 1.400 . S
C757 C751 1.491 . S
C757 C756 1.400 . S
C757 C758 1.398 . S
C758 H746 0.950 . S
C758 C757 1.398 . S
C758 C759 1.391 . S
C759 H747 0.950 . S
C759 C755 1.393 . S
C759 C758 1.391 . S
H760 C768 0.950 . S
H761 C773 0.950 . S
H762 C770 0.950 . S
H763 C772 0.950 . S
H764 C774 0.950 . S
H765 C776 0.950 . S
H766 C778 0.950 . S
H767 C779 0.950 . S
C768 H760 0.950 . S
C768 C769 1.386 . S
C768 C770 1.391 . S
C769 C768 1.386 . S
C769 C773 1.393 . S
C770 H762 0.950 . S
C770 C768 1.391 . S
C770 C771 1.400 . S
C771 C770 1.400 . S
C771 C772 1.398 . S
C771 C777 1.491 . S
C772 H763 0.950 . S
C772 C771 1.398 . S
C772 C773 1.391 . S
C773 H761 0.950 . S
C773 C769 1.393 . S
C773 C772 1.391 . S
C774 H764 0.950 . S
C774 C775 1.386 . S
C774 C776 1.391 . S
C775 C774 1.386 . S
C775 C779 1.393 . S
C776 H765 0.950 . S
C776 C774 1.391 . S
C776 C777 1.400 . S
C777 C771 1.491 . S
C777 C776 1.400 . S
C777 C778 1.398 . S
C778 H766 0.950 . S
C778 C777 1.398 . S
C778 C779 1.391 . S
C779 H767 0.950 . S
C779 C775 1.393 . S
C779 C778 1.391 . S
H780 C788 0.950 . S
H781 C793 0.950 . S
H782 C790 0.950 . S
H783 C792 0.950 . S
H784 C794 0.950 . S
H785 C796 0.950 . S
H786 C798 0.950 . S
H787 C799 0.950 . S
C788 H780 0.950 . S
C788 C789 1.386 . S
C788 C790 1.391 . S
C789 C788 1.386 . S
C789 C793 1.393 . S
C790 H782 0.950 . S
C790 C788 1.391 . S
C790 C791 1.400 . S
C791 C790 1.400 . S
C791 C792 1.398 . S
C791 C797 1.491 . S
C792 H783 0.950 . S
C792 C791 1.398 . S
C792 C793 1.391 . S
C793 H781 0.950 . S
C793 C789 1.393 . S
C793 C792 1.391 . S
C794 H784 0.950 . S
C794 C795 1.386 . S
C794 C796 1.391 . S
C795 C794 1.386 . S
C795 C799 1.393 . S
C796 H785 0.950 . S
C796 C794 1.391 . S
C796 C797 1.400 . S
C797 C791 1.491 . S
C797 C796 1.400 . S
C797 C798 1.398 . S
C798 H786 0.950 . S
C798 C797 1.398 . S
C798 C799 1.391 . S
C799 H787 0.950 . S
C799 C795 1.393 . S
C799 C798 1.391 . S
H800 C808 0.950 . S
H801 C813 0.950 . S
H802 C810 0.950 . S
H803 C812 0.950 . S
H804 C814 0.950 . S
H805 C816 0.950 . S
H806 C818 0.950 . S
H807 C819 0.950 . S
C808 H800 0.950 . S
C808 C809 1.386 . S
C808 C810 1.391 . S
C809 C808 1.386 . S
C809 C813 1.393 . S
C810 H802 0.950 . S
C810 C808 1.391 . S
C810 C811 1.400 . S
C811 C810 1.400 . S
C811 C812 1.398 . S
C811 C817 1.491 . S
C812 H803 0.950 . S
C812 C811 1.398 . S
C812 C813 1.391 . S
C813 H801 0.950 . S
C813 C809 1.393 . S
C813 C812 1.391 . S
C814 H804 0.950 . S
C814 C815 1.386 . S
C814 C816 1.391 . S
C815 C814 1.386 . S
C815 C819 1.393 . S
C816 H805 0.950 . S
C816 C814 1.391 . S
C816 C817 1.400 . S
C817 C811 1.491 . S
C817 C816 1.400 . S
C817 C818 1.398 . S
C818 H806 0.950 . S
C818 C817 1.398 . S
C818 C819 1.391 . S
C819 H807 0.950 . S
C819 C815 1.393 . S
C819 C818 1.391 . S
H820 C828 0.950 . S
H821 C833 0.950 . S
H822 C830 0.950 . S
H823 C832 0.950 . S
H824 C834 0.950 . S
H825 C836 0.950 . S
H826 C838 0.950 . S
H827 C839 0.950 . S
C828 H820 0.950 . S
C828 C829 1.386 . S
C828 C830 1.391 . S
C829 C828 1.386 . S
C829 C833 1.393 . S
C830 H822 0.950 . S
C830 C828 1.391 . S
C830 C831 1.400 . S
C831 C830 1.400 . S
C831 C832 1.398 . S
C831 C837 1.491 . S
C832 H823 0.950 . S
C832 C831 1.398 . S
C832 C833 1.391 . S
C833 H821 0.950 . S
C833 C829 1.393 . S
C833 C832 1.391 . S
C834 H824 0.950 . S
C834 C835 1.386 . S
C834 C836 1.391 . S
C835 C834 1.386 . S
C835 C839 1.393 . S
C836 H825 0.950 . S
C836 C834 1.391 . S
C836 C837 1.400 . S
C837 C831 1.491 . S
C837 C836 1.400 . S
C837 C838 1.398 . S
C838 H826 0.950 . S
C838 C837 1.398 . S
C838 C839 1.391 . S
C839 H827 0.950 . S
C839 C835 1.393 . S
C839 C838 1.391 . S
H840 C848 0.950 . S
H841 C853 0.950 . S
H842 C850 0.950 . S
H843 C852 0.950 . S
H844 C854 0.950 . S
H845 C856 0.950 . S
H846 C858 0.950 . S
H847 C859 0.950 . S
C848 H840 0.950 . S
C848 C849 1.386 1_455 S
C848 C850 1.391 . S
C849 C848 1.386 1_655 S
C849 C853 1.393 . S
C850 H842 0.950 . S
C850 C848 1.391 . S
C850 C851 1.400 . S
C851 C850 1.400 . S
C851 C852 1.398 . S
C851 C857 1.491 . S
C852 H843 0.950 . S
C852 C851 1.398 . S
C852 C853 1.391 1_455 S
C853 H841 0.950 . S
C853 C849 1.393 . S
C853 C852 1.391 1_655 S
C854 H844 0.950 . S
C854 C855 1.386 . S
C854 C856 1.391 . S
C855 C854 1.386 . S
C855 C859 1.393 . S
C856 H845 0.950 . S
C856 C854 1.391 . S
C856 C857 1.400 . S
C857 C851 1.491 . S
C857 C856 1.400 . S
C857 C858 1.398 . S
C858 H846 0.950 . S
C858 C857 1.398 . S
C858 C859 1.391 . S
C859 H847 0.950 . S
C859 C855 1.393 . S
C859 C858 1.391 . S
H860 C868 0.950 . S
H861 C873 0.950 . S
H862 C870 0.950 . S
H863 C872 0.950 . S
H864 C874 0.950 . S
H865 C876 0.950 . S
H866 C878 0.950 . S
H867 C879 0.950 1_545 S
C868 H860 0.950 . S
C868 C869 1.386 . S
C868 C870 1.391 . S
C869 C868 1.386 . S
C869 C873 1.393 . S
C870 H862 0.950 . S
C870 C868 1.391 . S
C870 C871 1.400 . S
C871 C870 1.400 . S
C871 C872 1.398 . S
C871 C877 1.491 . S
C872 H863 0.950 . S
C872 C871 1.398 . S
C872 C873 1.391 . S
C873 H861 0.950 . S
C873 C869 1.393 . S
C873 C872 1.391 . S
C874 H864 0.950 . S
C874 C875 1.386 1_565 S
C874 C876 1.391 . S
C875 C874 1.386 1_545 S
C875 C879 1.393 1_545 S
C876 H865 0.950 . S
C876 C874 1.391 . S
C876 C877 1.400 . S
C877 C871 1.491 . S
C877 C876 1.400 . S
C877 C878 1.398 . S
C878 H866 0.950 . S
C878 C877 1.398 . S
C878 C879 1.391 . S
C879 H867 0.950 1_565 S
C879 C875 1.393 1_565 S
C879 C878 1.391 . S
H880 C888 0.950 . S
H881 C893 0.950 1_565 S
H882 C890 0.950 . S
H883 C892 0.950 . S
H884 C894 0.950 . S
H885 C896 0.950 . S
H886 C898 0.950 . S
H887 C899 0.950 . S
C888 H880 0.950 . S
C888 C889 1.386 . S
C888 C890 1.391 . S
C889 C888 1.386 . S
C889 C893 1.393 . S
C890 H882 0.950 . S
C890 C888 1.391 . S
C890 C891 1.400 1_545 S
C891 C890 1.400 1_565 S
C891 C892 1.398 . S
C891 C897 1.491 . S
C892 H883 0.950 . S
C892 C891 1.398 . S
C892 C893 1.391 1_565 S
C893 H881 0.950 1_545 S
C893 C889 1.393 . S
C893 C892 1.391 1_545 S
C894 H884 0.950 . S
C894 C895 1.386 . S
C894 C896 1.391 . S
C895 C894 1.386 . S
C895 C899 1.393 . S
C896 H885 0.950 . S
C896 C894 1.391 . S
C896 C897 1.400 . S
C897 C891 1.491 . S
C897 C896 1.400 . S
C897 C898 1.398 . S
C898 H886 0.950 . S
C898 C897 1.398 . S
C898 C899 1.391 . S
C899 H887 0.950 . S
C899 C895 1.393 . S
C899 C898 1.391 . S
H900 C908 0.950 . S
H901 C913 0.950 . S
H902 C910 0.950 . S
H903 C912 0.950 . S
H904 C914 0.950 . S
H905 C916 0.950 . S
H906 C918 0.950 . S
H907 C919 0.950 . S
C908 H900 0.950 . S
C908 C909 1.386 1_565 S
C908 C910 1.391 . S
C909 C908 1.386 1_545 S
C909 C913 1.393 . S
C910 H902 0.950 . S
C910 C908 1.391 . S
C910 C911 1.400 1_565 S
C911 C910 1.400 1_545 S
C911 C912 1.398 . S
C911 C917 1.491 1_554 S
C912 H903 0.950 . S
C912 C911 1.398 . S
C912 C913 1.391 . S
C913 H901 0.950 . S
C913 C909 1.393 . S
C913 C912 1.391 . S
C914 H904 0.950 . S
C914 C915 1.386 . S
C914 C916 1.391 . S
C915 C914 1.386 . S
C915 C919 1.393 1_545 S
C916 H905 0.950 . S
C916 C914 1.391 . S
C916 C917 1.400 . S
C917 C911 1.491 1_556 S
C917 C916 1.400 . S
C917 C918 1.398 1_545 S
C918 H906 0.950 . S
C918 C917 1.398 1_565 S
C918 C919 1.391 . S
C919 H907 0.950 . S
C919 C915 1.393 1_565 S
C919 C918 1.391 . S
H920 C928 0.950 . S
H921 C933 0.950 . S
H922 C930 0.950 . S
H923 C932 0.950 . S
H924 C934 0.950 . S
H925 C936 0.950 . S
H926 C938 0.950 . S
H927 C939 0.950 . S
C928 H920 0.950 . S
C928 C929 1.386 . S
C928 C930 1.391 . S
C929 C928 1.386 . S
C929 C933 1.393 . S
C930 H922 0.950 . S
C930 C928 1.391 . S
C930 C931 1.400 . S
C931 C930 1.400 . S
C931 C932 1.398 . S
C931 C937 1.491 1_556 S
C932 H923 0.950 . S
C932 C931 1.398 . S
C932 C933 1.391 . S
C933 H921 0.950 . S
C933 C929 1.393 . S
C933 C932 1.391 . S
C934 H924 0.950 . S
C934 C935 1.386 . S
C934 C936 1.391 . S
C935 C934 1.386 . S
C935 C939 1.393 . S
C936 H925 0.950 . S
C936 C934 1.391 . S
C936 C937 1.400 . S
C937 C931 1.491 1_554 S
C937 C936 1.400 . S
C937 C938 1.398 . S
C938 H926 0.950 . S
C938 C937 1.398 . S
C938 C939 1.391 . S
C939 H927 0.950 . S
C939 C935 1.393 . S
C939 C938 1.391 . S
H940 C948 0.950 . S
H941 C953 0.950 . S
H942 C950 0.950 . S
H943 C952 0.950 . S
H944 C954 0.950 . S
H945 C956 0.950 . S
H946 C958 0.950 . S
H947 C959 0.950 . S
C948 H940 0.950 . S
C948 C949 1.386 . S
C948 C950 1.391 . S
C949 C948 1.386 . S
C949 C953 1.393 . S
C950 H942 0.950 . S
C950 C948 1.391 . S
C950 C951 1.400 . S
C951 C950 1.400 . S
C951 C952 1.398 . S
C951 C957 1.491 1_556 S
C952 H943 0.950 . S
C952 C951 1.398 . S
C952 C953 1.391 . S
C953 H941 0.950 . S
C953 C949 1.393 . S
C953 C952 1.391 . S
C954 H944 0.950 . S
C954 C955 1.386 . S
C954 C956 1.391 . S
C955 C954 1.386 . S
C955 C959 1.393 . S
C956 H945 0.950 . S
C956 C954 1.391 . S
C956 C957 1.400 . S
C957 C951 1.491 1_554 S
C957 C956 1.400 . S
C957 C958 1.398 . S
C958 H946 0.950 . S
C958 C957 1.398 . S
C958 C959 1.391 . S
C959 H947 0.950 . S
C959 C955 1.393 . S
C959 C958 1.391 . S
H960 C968 0.950 . S
H961 C973 0.950 . S
H962 C970 0.950 . S
H963 C972 0.950 . S
H964 C974 0.950 . S
H965 C976 0.950 . S
H966 C978 0.950 . S
H967 C979 0.950 . S
C968 H960 0.950 . S
C968 C969 1.386 . S
C968 C970 1.391 . S
C969 C968 1.386 . S
C969 C973 1.393 . S
C970 H962 0.950 . S
C970 C968 1.391 . S
C970 C971 1.400 . S
C971 C970 1.400 . S
C971 C972 1.398 . S
C971 C977 1.491 . S
C972 H963 0.950 . S
C972 C971 1.398 . S
C972 C973 1.391 . S
C973 H961 0.950 . S
C973 C969 1.393 . S
C973 C972 1.391 . S
C974 H964 0.950 . S
C974 C975 1.386 . S
C974 C976 1.391 . S
C975 C974 1.386 . S
C975 C979 1.393 . S
C976 H965 0.950 . S
C976 C974 1.391 . S
C976 C977 1.400 . S
C977 C971 1.491 . S
C977 C976 1.400 . S
C977 C978 1.398 . S
C978 H966 0.950 . S
C978 C977 1.398 . S
C978 C979 1.391 . S
C979 H967 0.950 . S
C979 C975 1.393 . S
C979 C978 1.391 . S
H980 C988 0.950 . S
H981 C993 0.950 . S
H982 C990 0.950 . S
H983 C992 0.950 . S
H984 C994 0.950 . S
H985 C996 0.950 . S
H986 C998 0.950 . S
H987 C999 0.950 . S
C988 H980 0.950 . S
C988 C989 1.386 . S
C988 C990 1.391 . S
C989 C988 1.386 . S
C989 C993 1.393 . S
C990 H982 0.950 . S
C990 C988 1.391 . S
C990 C991 1.400 . S
C991 C990 1.400 . S
C991 C992 1.398 . S
C991 C997 1.491 . S
C992 H983 0.950 . S
C992 C991 1.398 . S
C992 C993 1.391 . S
C993 H981 0.950 . S
C993 C989 1.393 . S
C993 C992 1.391 . S
C994 H984 0.950 . S
C994 C995 1.386 . S
C994 C996 1.391 . S
C995 C994 1.386 . S
C995 C999 1.393 . S
C996 H985 0.950 . S
C996 C994 1.391 . S
C996 C997 1.400 . S
C997 C991 1.491 . S
C997 C996 1.400 . S
C997 C998 1.398 . S
C998 H986 0.950 . S
C998 C997 1.398 . S
C998 C999 1.391 . S
C999 H987 0.950 . S
C999 C995 1.393 . S
C999 C998 1.391 . S
H1000 C1008 0.950 . S
H1001 C1013 0.950 . S
H1002 C1010 0.950 . S
H1003 C1012 0.950 . S
H1004 C1014 0.950 . S
H1005 C1016 0.950 . S
H1006 C1018 0.950 . S
H1007 C1019 0.950 . S
C1008 H1000 0.950 . S
C1008 C1009 1.386 . S
C1008 C1010 1.391 . S
C1009 C1008 1.386 . S
C1009 C1013 1.393 . S
C1010 H1002 0.950 . S
C1010 C1008 1.391 . S
C1010 C1011 1.400 . S
C1011 C1010 1.400 . S
C1011 C1012 1.398 . S
C1011 C1017 1.491 . S
C1012 H1003 0.950 . S
C1012 C1011 1.398 . S
C1012 C1013 1.391 . S
C1013 H1001 0.950 . S
C1013 C1009 1.393 . S
C1013 C1012 1.391 . S
C1014 H1004 0.950 . S
C1014 C1015 1.386 . S
C1014 C1016 1.391 . S
C1015 C1014 1.386 . S
C1015 C1019 1.393 . S
C1016 H1005 0.950 . S
C1016 C1014 1.391 . S
C1016 C1017 1.400 . S
C1017 C1011 1.491 . S
C1017 C1016 1.400 . S
C1017 C1018 1.398 . S
C1018 H1006 0.950 . S
C1018 C1017 1.398 . S
C1018 C1019 1.391 . S
C1019 H1007 0.950 . S
C1019 C1015 1.393 . S
C1019 C1018 1.391 . S
H1020 C1028 0.950 . S
H1021 C1033 0.950 . S
H1022 C1030 0.950 . S
H1023 C1032 0.950 . S
H1024 C1034 0.950 . S
H1025 C1036 0.950 . S
H1026 C1038 0.950 . S
H1027 C1039 0.950 . S
C1028 H1020 0.950 . S
C1028 C1029 1.386 . S
C1028 C1030 1.391 . S
C1029 C1028 1.386 . S
C1029 C1033 1.393 . S
C1030 H1022 0.950 . S
C1030 C1028 1.391 . S
C1030 C1031 1.400 . S
C1031 C1030 1.400 . S
C1031 C1032 1.398 . S
C1031 C1037 1.491 . S
C1032 H1023 0.950 . S
C1032 C1031 1.398 . S
C1032 C1033 1.391 . S
C1033 H1021 0.950 . S
C1033 C1029 1.393 . S
C1033 C1032 1.391 . S
C1034 H1024 0.950 . S
C1034 C1035 1.386 . S
C1034 C1036 1.391 . S
C1035 C1034 1.386 . S
C1035 C1039 1.393 . S
C1036 H1025 0.950 . S
C1036 C1034 1.391 . S
C1036 C1037 1.400 . S
C1037 C1031 1.491 . S
C1037 C1036 1.400 . S
C1037 C1038 1.398 . S
C1038 H1026 0.950 . S
C1038 C1037 1.398 . S
C1038 C1039 1.391 . S
C1039 H1027 0.950 . S
C1039 C1035 1.393 . S
C1039 C1038 1.391 . S
H1040 C1048 0.950 . S
H1041 C1053 0.950 . S
H1042 C1050 0.950 . S
H1043 C1052 0.950 . S
H1044 C1054 0.950 . S
H1045 C1056 0.950 . S
H1046 C1058 0.950 . S
H1047 C1059 0.950 . S
C1048 H1040 0.950 . S
C1048 C1049 1.386 . S
C1048 C1050 1.391 . S
C1049 C1048 1.386 . S
C1049 C1053 1.393 . S
C1050 H1042 0.950 . S
C1050 C1048 1.391 . S
C1050 C1051 1.400 . S
C1051 C1050 1.400 . S
C1051 C1052 1.398 . S
C1051 C1057 1.491 . S
C1052 H1043 0.950 . S
C1052 C1051 1.398 . S
C1052 C1053 1.391 . S
C1053 H1041 0.950 . S
C1053 C1049 1.393 . S
C1053 C1052 1.391 . S
C1054 H1044 0.950 . S
C1054 C1055 1.386 . S
C1054 C1056 1.391 . S
C1055 C1054 1.386 . S
C1055 C1059 1.393 . S
C1056 H1045 0.950 . S
C1056 C1054 1.391 . S
C1056 C1057 1.400 . S
C1057 C1051 1.491 . S
C1057 C1056 1.400 . S
C1057 C1058 1.398 . S
C1058 H1046 0.950 . S
C1058 C1057 1.398 . S
C1058 C1059 1.391 . S
C1059 H1047 0.950 . S
C1059 C1055 1.393 . S
C1059 C1058 1.391 . S
H1060 C1068 0.950 . S
H1061 C1073 0.950 . S
H1062 C1070 0.950 . S
H1063 C1072 0.950 . S
H1064 C1074 0.950 . S
H1065 C1076 0.950 . S
H1066 C1078 0.950 . S
H1067 C1079 0.950 . S
C1068 H1060 0.950 . S
C1068 C1069 1.386 . S
C1068 C1070 1.391 . S
C1069 C1068 1.386 . S
C1069 C1073 1.393 . S
C1070 H1062 0.950 . S
C1070 C1068 1.391 . S
C1070 C1071 1.400 . S
C1071 C1070 1.400 . S
C1071 C1072 1.398 . S
C1071 C1077 1.491 . S
C1072 H1063 0.950 . S
C1072 C1071 1.398 . S
C1072 C1073 1.391 . S
C1073 H1061 0.950 . S
C1073 C1069 1.393 . S
C1073 C1072 1.391 . S
C1074 H1064 0.950 . S
C1074 C1075 1.386 . S
C1074 C1076 1.391 . S
C1075 C1074 1.386 . S
C1075 C1079 1.393 . S
C1076 H1065 0.950 . S
C1076 C1074 1.391 . S
C1076 C1077 1.400 . S
C1077 C1071 1.491 . S
C1077 C1076 1.400 . S
C1077 C1078 1.398 . S
C1078 H1066 0.950 . S
C1078 C1077 1.398 . S
C1078 C1079 1.391 . S
C1079 H1067 0.950 . S
C1079 C1075 1.393 . S
C1079 C1078 1.391 . S
H1080 C1088 0.950 . S
H1081 C1093 0.950 . S
H1082 C1090 0.950 . S
H1083 C1092 0.953 . S
H1084 C1094 0.950 . S
H1085 C1096 0.950 . S
H1086 C1098 0.950 . S
H1087 C1099 0.950 . S
C1088 H1080 0.950 . S
C1088 C1089 1.386 . S
C1088 C1090 1.391 . S
C1089 C1088 1.386 . S
C1089 C1093 1.393 . S
C1090 H1082 0.950 . S
C1090 C1088 1.391 . S
C1090 C1091 1.400 . S
C1091 C1090 1.400 . S
C1091 C1092 1.398 . S
C1091 C1097 1.491 . S
C1092 H1083 0.953 . S
C1092 C1091 1.398 . S
C1092 C1093 1.391 . S
C1093 H1081 0.950 . S
C1093 C1089 1.393 . S
C1093 C1092 1.391 . S
C1094 H1084 0.950 . S
C1094 C1095 1.386 1_545 S
C1094 C1096 1.391 . S
C1095 C1094 1.386 1_565 S
C1095 C1099 1.393 . S
C1096 H1085 0.950 . S
C1096 C1094 1.391 . S
C1096 C1097 1.400 1_545 S
C1097 C1091 1.491 . S
C1097 C1096 1.400 1_565 S
C1097 C1098 1.398 . S
C1098 H1086 0.950 . S
C1098 C1097 1.398 . S
C1098 C1099 1.391 . S
C1099 H1087 0.950 . S
C1099 C1095 1.393 . S
C1099 C1098 1.391 . S
H1100 C1108 0.950 . S
H1101 C1113 0.961 . S
H1102 C1110 0.950 . S
H1103 C1112 0.950 . S
H1104 C1114 0.950 . S
H1105 C1116 0.950 . S
H1106 C1118 0.950 . S
H1107 C1119 0.950 . S
C1108 H1100 0.950 . S
C1108 C1109 1.386 . S
C1108 C1110 1.391 . S
C1109 C1108 1.386 . S
C1109 C1113 1.393 . S
C1110 H1102 0.950 . S
C1110 C1108 1.391 . S
C1110 C1111 1.400 . S
C1111 C1110 1.400 . S
C1111 C1112 1.398 . S
C1111 C1117 1.491 . S
C1112 H1103 0.950 . S
C1112 C1111 1.398 . S
C1112 C1113 1.391 . S
C1113 H1101 0.961 . S
C1113 C1109 1.393 . S
C1113 C1112 1.391 . S
C1114 H1104 0.950 . S
C1114 C1115 1.386 . S
C1114 C1116 1.391 . S
C1115 C1114 1.386 . S
C1115 C1119 1.393 . S
C1116 H1105 0.950 . S
C1116 C1114 1.391 . S
C1116 C1117 1.400 . S
C1117 C1111 1.491 . S
C1117 C1116 1.400 . S
C1117 C1118 1.398 . S
C1118 H1106 0.950 . S
C1118 C1117 1.398 . S
C1118 C1119 1.391 . S
C1119 H1107 0.950 . S
C1119 C1115 1.393 . S
C1119 C1118 1.391 . S
H1120 C1128 0.950 . S
H1121 C1133 0.950 . S
H1122 C1130 0.950 . S
H1123 C1132 0.950 . S
H1124 C1134 0.950 . S
H1125 C1136 0.950 . S
H1126 C1138 0.950 . S
H1127 C1139 0.950 . S
C1128 H1120 0.950 . S
C1128 C1129 1.386 . S
C1128 C1130 1.391 . S
C1129 C1128 1.386 . S
C1129 C1133 1.393 . S
C1130 H1122 0.950 . S
C1130 C1128 1.391 . S
C1130 C1131 1.400 . S
C1131 C1130 1.400 . S
C1131 C1132 1.398 . S
C1131 C1137 1.491 . S
C1132 H1123 0.950 . S
C1132 C1131 1.398 . S
C1132 C1133 1.391 . S
C1133 H1121 0.950 . S
C1133 C1129 1.393 . S
C1133 C1132 1.391 . S
C1134 H1124 0.950 . S
C1134 C1135 1.386 . S
C1134 C1136 1.391 . S
C1135 C1134 1.386 . S
C1135 C1139 1.393 . S
C1136 H1125 0.950 . S
C1136 C1134 1.391 . S
C1136 C1137 1.400 . S
C1137 C1131 1.491 . S
C1137 C1136 1.400 . S
C1137 C1138 1.398 . S
C1138 H1126 0.950 . S
C1138 C1137 1.398 . S
C1138 C1139 1.391 . S
C1139 H1127 0.950 . S
C1139 C1135 1.393 . S
C1139 C1138 1.391 . S
H1140 C1148 0.950 . S
H1141 C1153 0.950 . S
H1142 C1150 0.950 . S
H1143 C1152 0.950 1_455 S
H1144 C1154 0.950 . S
H1145 C1156 0.950 . S
H1146 C1158 0.950 . S
H1147 C1159 0.950 . S
C1148 H1140 0.950 . S
C1148 C1149 1.386 . S
C1148 C1150 1.391 . S
C1149 C1148 1.386 . S
C1149 C1153 1.393 1_655 S
C1150 H1142 0.950 . S
C1150 C1148 1.391 . S
C1150 C1151 1.400 . S
C1151 C1150 1.400 . S
C1151 C1152 1.398 . S
C1151 C1157 1.491 . S
C1152 H1143 0.950 1_655 S
C1152 C1151 1.398 . S
C1152 C1153 1.391 1_655 S
C1153 H1141 0.950 . S
C1153 C1149 1.393 1_455 S
C1153 C1152 1.391 1_455 S
C1154 H1144 0.950 . S
C1154 C1155 1.386 . S
C1154 C1156 1.391 . S
C1155 C1154 1.386 . S
C1155 C1159 1.393 . S
C1156 H1145 0.950 . S
C1156 C1154 1.391 . S
C1156 C1157 1.400 . S
C1157 C1151 1.491 . S
C1157 C1156 1.400 . S
C1157 C1158 1.398 . S
C1158 H1146 0.950 . S
C1158 C1157 1.398 . S
C1158 C1159 1.391 . S
C1159 H1147 0.950 . S
C1159 C1155 1.393 . S
C1159 C1158 1.391 . S
H1160 C1168 0.950 . S
H1161 C1173 0.950 . S
H1162 C1170 0.950 . S
H1163 C1172 0.950 . S
H1164 C1174 0.950 . S
H1165 C1176 0.950 . S
H1166 C1178 0.950 . S
H1167 C1179 0.950 . S
C1168 H1160 0.950 . S
C1168 C1169 1.386 . S
C1168 C1170 1.391 . S
C1169 C1168 1.386 . S
C1169 C1173 1.393 . S
C1170 H1162 0.950 . S
C1170 C1168 1.391 . S
C1170 C1171 1.400 . S
C1171 C1170 1.400 . S
C1171 C1172 1.398 . S
C1171 C1177 1.491 . S
C1172 H1163 0.950 . S
C1172 C1171 1.398 . S
C1172 C1173 1.391 . S
C1173 H1161 0.950 . S
C1173 C1169 1.393 . S
C1173 C1172 1.391 . S
C1174 H1164 0.950 . S
C1174 C1175 1.386 . S
C1174 C1176 1.391 . S
C1175 C1174 1.386 . S
C1175 C1179 1.393 . S
C1176 H1165 0.950 . S
C1176 C1174 1.391 . S
C1176 C1177 1.400 . S
C1177 C1171 1.491 . S
C1177 C1176 1.400 . S
C1177 C1178 1.398 . S
C1178 H1166 0.950 . S
C1178 C1177 1.398 . S
C1178 C1179 1.391 . S
C1179 H1167 0.950 . S
C1179 C1175 1.393 . S
C1179 C1178 1.391 . S
H1180 C1188 0.950 . S
H1181 C1193 0.950 . S
H1182 C1190 0.950 . S
H1183 C1192 0.950 . S
H1184 C1194 0.950 . S
H1185 C1196 0.950 . S
H1186 C1198 0.950 . S
H1187 C1199 0.950 . S
C1188 H1180 0.950 . S
C1188 C1189 1.386 . S
C1188 C1190 1.391 . S
C1189 C1188 1.386 . S
C1189 C1193 1.393 . S
C1190 H1182 0.950 . S
C1190 C1188 1.391 . S
C1190 C1191 1.400 . S
C1191 C1190 1.400 . S
C1191 C1192 1.398 . S
C1191 C1197 1.491 . S
C1192 H1183 0.950 . S
C1192 C1191 1.398 . S
C1192 C1193 1.391 . S
C1193 H1181 0.950 . S
C1193 C1189 1.393 . S
C1193 C1192 1.391 . S
C1194 H1184 0.950 . S
C1194 C1195 1.386 . S
C1194 C1196 1.391 . S
C1195 C1194 1.386 . S
C1195 C1199 1.393 . S
C1196 H1185 0.950 . S
C1196 C1194 1.391 . S
C1196 C1197 1.400 . S
C1197 C1191 1.491 . S
C1197 C1196 1.400 . S
C1197 C1198 1.398 . S
C1198 H1186 0.950 . S
C1198 C1197 1.398 . S
C1198 C1199 1.391 . S
C1199 H1187 0.950 . S
C1199 C1195 1.393 . S
C1199 C1198 1.391 . S
H1200 C1208 0.950 . S
H1201 C1213 0.950 . S
H1202 C1210 0.950 . S
H1203 C1212 0.950 1_455 S
H1204 C1214 0.950 . S
H1205 C1216 0.950 . S
H1206 C1218 0.950 . S
H1207 C1219 0.950 . S
C1208 H1200 0.950 . S
C1208 C1209 1.386 . S
C1208 C1210 1.391 . S
C1209 C1208 1.386 . S
C1209 C1213 1.393 . S
C1210 H1202 0.950 . S
C1210 C1208 1.391 . S
C1210 C1211 1.400 1_655 S
C1211 C1210 1.400 1_455 S
C1211 C1212 1.398 1_455 S
C1211 C1217 1.491 . S
C1212 H1203 0.950 1_655 S
C1212 C1211 1.398 1_655 S
C1212 C1213 1.391 . S
C1213 H1201 0.950 . S
C1213 C1209 1.393 . S
C1213 C1212 1.391 . S
C1214 H1204 0.950 . S
C1214 C1215 1.386 . S
C1214 C1216 1.391 . S
C1215 C1214 1.386 . S
C1215 C1219 1.393 . S
C1216 H1205 0.950 . S
C1216 C1214 1.391 . S
C1216 C1217 1.400 . S
C1217 C1211 1.491 . S
C1217 C1216 1.400 . S
C1217 C1218 1.398 . S
C1218 H1206 0.950 . S
C1218 C1217 1.398 . S
C1218 C1219 1.391 . S
C1219 H1207 0.950 . S
C1219 C1215 1.393 . S
C1219 C1218 1.391 . S
H1220 C1228 0.950 . S
H1221 C1233 0.950 . S
H1222 C1230 0.950 . S
H1223 C1232 0.950 . S
H1224 C1234 0.950 . S
H1225 C1236 0.950 . S
H1226 C1238 0.950 . S
H1227 C1239 0.950 . S
C1228 H1220 0.950 . S
C1228 C1229 1.386 . S
C1228 C1230 1.391 . S
C1229 C1228 1.386 . S
C1229 C1233 1.393 . S
C1230 H1222 0.950 . S
C1230 C1228 1.391 . S
C1230 C1231 1.400 . S
C1231 C1230 1.400 . S
C1231 C1232 1.398 . S
C1231 C1237 1.491 . S
C1232 H1223 0.950 . S
C1232 C1231 1.398 . S
C1232 C1233 1.391 . S
C1233 H1221 0.950 . S
C1233 C1229 1.393 . S
C1233 C1232 1.391 . S
C1234 H1224 0.950 . S
C1234 C1235 1.386 . S
C1234 C1236 1.391 . S
C1235 C1234 1.386 . S
C1235 C1239 1.393 . S
C1236 H1225 0.950 . S
C1236 C1234 1.391 . S
C1236 C1237 1.400 . S
C1237 C1231 1.491 . S
C1237 C1236 1.400 . S
C1237 C1238 1.398 . S
C1238 H1226 0.950 . S
C1238 C1237 1.398 . S
C1238 C1239 1.391 . S
C1239 H1227 0.950 . S
C1239 C1235 1.393 . S
C1239 C1238 1.391 . S
H1240 C1248 0.950 . S
H1241 C1253 0.950 . S
H1242 C1250 0.950 . S
H1243 C1252 0.950 . S
H1244 C1254 0.950 . S
H1245 C1256 0.950 1_565 S
H1246 C1258 0.950 . S
H1247 C1259 0.950 . S
C1248 H1240 0.950 . S
C1248 C1249 1.386 . S
C1248 C1250 1.391 1_565 S
C1249 C1248 1.386 . S
C1249 C1253 1.393 . S
C1250 H1242 0.950 . S
C1250 C1248 1.391 1_545 S
C1250 C1251 1.400 . S
C1251 C1250 1.400 . S
C1251 C1252 1.398 1_545 S
C1251 C1257 1.491 . S
C1252 H1243 0.950 . S
C1252 C1251 1.398 1_565 S
C1252 C1253 1.391 . S
C1253 H1241 0.950 . S
C1253 C1249 1.393 . S
C1253 C1252 1.391 . S
C1254 H1244 0.950 . S
C1254 C1255 1.386 . S
C1254 C1256 1.391 . S
C1255 C1254 1.386 . S
C1255 C1259 1.393 . S
C1256 H1245 0.950 1_545 S
C1256 C1254 1.391 . S
C1256 C1257 1.400 . S
C1257 C1251 1.491 . S
C1257 C1256 1.400 . S
C1257 C1258 1.398 . S
C1258 H1246 0.950 . S
C1258 C1257 1.398 . S
C1258 C1259 1.391 . S
C1259 H1247 0.950 . S
C1259 C1255 1.393 . S
C1259 C1258 1.391 . S
H1260 C1268 0.950 . S
H1261 C1273 0.950 . S
H1262 C1270 0.950 . S
H1263 C1272 0.950 . S
H1264 C1274 0.950 . S
H1265 C1276 0.950 . S
H1266 C1278 0.950 . S
H1267 C1279 0.950 . S
C1268 H1260 0.950 . S
C1268 C1269 1.386 . S
C1268 C1270 1.391 . S
C1269 C1268 1.386 . S
C1269 C1273 1.393 . S
C1270 H1262 0.950 . S
C1270 C1268 1.391 . S
C1270 C1271 1.400 . S
C1271 C1270 1.400 . S
C1271 C1272 1.398 . S
C1271 C1277 1.491 . S
C1272 H1263 0.950 . S
C1272 C1271 1.398 . S
C1272 C1273 1.391 . S
C1273 H1261 0.950 . S
C1273 C1269 1.393 . S
C1273 C1272 1.391 . S
C1274 H1264 0.950 . S
C1274 C1275 1.386 . S
C1274 C1276 1.391 . S
C1275 C1274 1.386 . S
C1275 C1279 1.393 . S
C1276 H1265 0.950 . S
C1276 C1274 1.391 . S
C1276 C1277 1.400 . S
C1277 C1271 1.491 . S
C1277 C1276 1.400 . S
C1277 C1278 1.398 . S
C1278 H1266 0.950 . S
C1278 C1277 1.398 . S
C1278 C1279 1.391 . S
C1279 H1267 0.950 . S
C1279 C1275 1.393 . S
C1279 C1278 1.391 . S
H1280 C1288 0.950 . S
H1281 C1293 0.950 . S
H1282 C1290 0.950 . S
H1283 C1292 0.950 . S
H1284 C1294 0.950 . S
H1285 C1296 0.950 . S
H1286 C1298 0.950 . S
H1287 C1299 0.950 . S
C1288 H1280 0.950 . S
C1288 C1289 1.386 . S
C1288 C1290 1.391 . S
C1289 C1288 1.386 . S
C1289 C1293 1.393 . S
C1290 H1282 0.950 . S
C1290 C1288 1.391 . S
C1290 C1291 1.400 . S
C1291 C1290 1.400 . S
C1291 C1292 1.398 . S
C1291 C1297 1.491 . S
C1292 H1283 0.950 . S
C1292 C1291 1.398 . S
C1292 C1293 1.391 . S
C1293 H1281 0.950 . S
C1293 C1289 1.393 . S
C1293 C1292 1.391 . S
C1294 H1284 0.950 . S
C1294 C1295 1.386 . S
C1294 C1296 1.391 . S
C1295 C1294 1.386 . S
C1295 C1299 1.393 . S
C1296 H1285 0.950 . S
C1296 C1294 1.391 . S
C1296 C1297 1.400 . S
C1297 C1291 1.491 . S
C1297 C1296 1.400 . S
C1297 C1298 1.398 . S
C1298 H1286 0.950 . S
C1298 C1297 1.398 . S
C1298 C1299 1.391 . S
C1299 H1287 0.950 . S
C1299 C1295 1.393 . S
C1299 C1298 1.391 . S
H1300 C1308 0.950 . S
H1301 C1313 0.950 . S
H1302 C1310 0.950 . S
H1303 C1312 0.950 . S
H1304 C1314 0.950 . S
H1305 C1316 0.950 . S
H1306 C1318 0.950 . S
H1307 C1319 0.950 . S
C1308 H1300 0.950 . S
C1308 C1309 1.386 . S
C1308 C1310 1.391 . S
C1309 C1308 1.386 . S
C1309 C1313 1.393 . S
C1310 H1302 0.950 . S
C1310 C1308 1.391 . S
C1310 C1311 1.400 . S
C1311 C1310 1.400 . S
C1311 C1312 1.398 . S
C1311 C1317 1.491 . S
C1312 H1303 0.950 . S
C1312 C1311 1.398 . S
C1312 C1313 1.391 . S
C1313 H1301 0.950 . S
C1313 C1309 1.393 . S
C1313 C1312 1.391 . S
C1314 H1304 0.950 . S
C1314 C1315 1.386 . S
C1314 C1316 1.391 . S
C1315 C1314 1.386 . S
C1315 C1319 1.393 . S
C1316 H1305 0.950 . S
C1316 C1314 1.391 . S
C1316 C1317 1.400 . S
C1317 C1311 1.491 . S
C1317 C1316 1.400 . S
C1317 C1318 1.398 . S
C1318 H1306 0.950 . S
C1318 C1317 1.398 . S
C1318 C1319 1.391 . S
C1319 H1307 0.950 . S
C1319 C1315 1.393 . S
C1319 C1318 1.391 . S
H1320 C1328 0.950 . S
H1321 C1333 0.950 . S
H1322 C1330 0.950 . S
H1323 C1332 0.950 . S
H1324 C1334 0.950 . S
H1325 C1336 0.950 . S
H1326 C1338 0.950 . S
H1327 C1339 0.950 . S
C1328 H1320 0.950 . S
C1328 C1329 1.386 . S
C1328 C1330 1.391 . S
C1329 C1328 1.386 . S
C1329 C1333 1.393 . S
C1330 H1322 0.950 . S
C1330 C1328 1.391 . S
C1330 C1331 1.400 . S
C1331 C1330 1.400 . S
C1331 C1332 1.398 . S
C1331 C1337 1.491 . S
C1332 H1323 0.950 . S
C1332 C1331 1.398 . S
C1332 C1333 1.391 . S
C1333 H1321 0.950 . S
C1333 C1329 1.393 . S
C1333 C1332 1.391 . S
C1334 H1324 0.950 . S
C1334 C1335 1.386 . S
C1334 C1336 1.391 . S
C1335 C1334 1.386 . S
C1335 C1339 1.393 . S
C1336 H1325 0.950 . S
C1336 C1334 1.391 . S
C1336 C1337 1.400 . S
C1337 C1331 1.491 . S
C1337 C1336 1.400 . S
C1337 C1338 1.398 . S
C1338 H1326 0.950 . S
C1338 C1337 1.398 . S
C1338 C1339 1.391 . S
C1339 H1327 0.950 . S
C1339 C1335 1.393 . S
C1339 C1338 1.391 . S
H1340 C1348 0.950 . S
H1341 C1353 0.950 . S
H1342 C1350 0.950 . S
H1343 C1352 0.950 . S
H1344 C1354 0.950 . S
H1345 C1356 0.950 . S
H1346 C1358 0.950 . S
H1347 C1359 0.950 . S
C1348 H1340 0.950 . S
C1348 C1349 1.386 . S
C1348 C1350 1.391 . S
C1349 C1348 1.386 . S
C1349 C1353 1.393 . S
C1350 H1342 0.950 . S
C1350 C1348 1.391 . S
C1350 C1351 1.400 . S
C1351 C1350 1.400 . S
C1351 C1352 1.398 . S
C1351 C1357 1.491 . S
C1352 H1343 0.950 . S
C1352 C1351 1.398 . S
C1352 C1353 1.391 . S
C1353 H1341 0.950 . S
C1353 C1349 1.393 . S
C1353 C1352 1.391 . S
C1354 H1344 0.950 . S
C1354 C1355 1.386 . S
C1354 C1356 1.391 . S
C1355 C1354 1.386 . S
C1355 C1359 1.393 . S
C1356 H1345 0.950 . S
C1356 C1354 1.391 . S
C1356 C1357 1.400 . S
C1357 C1351 1.491 . S
C1357 C1356 1.400 . S
C1357 C1358 1.398 . S
C1358 H1346 0.950 . S
C1358 C1357 1.398 . S
C1358 C1359 1.391 . S
C1359 H1347 0.950 . S
C1359 C1355 1.393 . S
C1359 C1358 1.391 . S
H1360 C1368 0.950 . S
H1361 C1373 0.950 . S
H1362 C1370 0.950 . S
H1363 C1372 0.950 . S
H1364 C1374 0.950 . S
H1365 C1376 0.950 . S
H1366 C1378 0.950 . S
H1367 C1379 0.950 . S
C1368 H1360 0.950 . S
C1368 C1369 1.386 . S
C1368 C1370 1.391 . S
C1369 C1368 1.386 . S
C1369 C1373 1.393 . S
C1370 H1362 0.950 . S
C1370 C1368 1.391 . S
C1370 C1371 1.400 . S
C1371 C1370 1.400 . S
C1371 C1372 1.398 . S
C1371 C1377 1.491 . S
C1372 H1363 0.950 . S
C1372 C1371 1.398 . S
C1372 C1373 1.391 . S
C1373 H1361 0.950 . S
C1373 C1369 1.393 . S
C1373 C1372 1.391 . S
C1374 H1364 0.950 . S
C1374 C1375 1.386 . S
C1374 C1376 1.391 . S
C1375 C1374 1.386 . S
C1375 C1379 1.393 . S
C1376 H1365 0.950 . S
C1376 C1374 1.391 . S
C1376 C1377 1.400 . S
C1377 C1371 1.491 . S
C1377 C1376 1.400 . S
C1377 C1378 1.398 . S
C1378 H1366 0.950 . S
C1378 C1377 1.398 . S
C1378 C1379 1.391 . S
C1379 H1367 0.950 . S
C1379 C1375 1.393 . S
C1379 C1378 1.391 . S
H1380 C1388 0.950 . S
H1381 C1393 0.950 . S
H1382 C1390 0.950 . S
H1383 C1392 0.950 . S
H1384 C1394 0.950 . S
H1385 C1396 0.950 . S
H1386 C1398 0.950 . S
H1387 C1399 0.950 . S
C1388 H1380 0.950 . S
C1388 C1389 1.386 . S
C1388 C1390 1.391 . S
C1389 C1388 1.386 . S
C1389 C1393 1.393 . S
C1390 H1382 0.950 . S
C1390 C1388 1.391 . S
C1390 C1391 1.400 . S
C1391 C1390 1.400 . S
C1391 C1392 1.398 . S
C1391 C1397 1.491 . S
C1392 H1383 0.950 . S
C1392 C1391 1.398 . S
C1392 C1393 1.391 . S
C1393 H1381 0.950 . S
C1393 C1389 1.393 . S
C1393 C1392 1.391 . S
C1394 H1384 0.950 . S
C1394 C1395 1.386 . S
C1394 C1396 1.391 . S
C1395 C1394 1.386 . S
C1395 C1399 1.393 . S
C1396 H1385 0.950 . S
C1396 C1394 1.391 . S
C1396 C1397 1.400 . S
C1397 C1391 1.491 . S
C1397 C1396 1.400 . S
C1397 C1398 1.398 . S
C1398 H1386 0.950 . S
C1398 C1397 1.398 . S
C1398 C1399 1.391 . S
C1399 H1387 0.950 . S
C1399 C1395 1.393 . S
C1399 C1398 1.391 . S
H1400 C1408 0.950 . S
H1401 C1413 0.950 . S
H1402 C1410 0.950 . S
H1403 C1412 0.950 . S
H1404 C1414 0.950 . S
H1405 C1416 0.950 . S
H1406 C1418 0.950 . S
H1407 C1419 0.950 . S
C1408 H1400 0.950 . S
C1408 C1409 1.386 . S
C1408 C1410 1.391 . S
C1409 C1408 1.386 . S
C1409 C1413 1.393 . S
C1410 H1402 0.950 . S
C1410 C1408 1.391 . S
C1410 C1411 1.400 . S
C1411 C1410 1.400 . S
C1411 C1412 1.398 . S
C1411 C1417 1.491 . S
C1412 H1403 0.950 . S
C1412 C1411 1.398 . S
C1412 C1413 1.391 . S
C1413 H1401 0.950 . S
C1413 C1409 1.393 . S
C1413 C1412 1.391 . S
C1414 H1404 0.950 . S
C1414 C1415 1.386 . S
C1414 C1416 1.391 . S
C1415 C1414 1.386 . S
C1415 C1419 1.393 . S
C1416 H1405 0.950 . S
C1416 C1414 1.391 . S
C1416 C1417 1.400 . S
C1417 C1411 1.491 . S
C1417 C1416 1.400 . S
C1417 C1418 1.398 . S
C1418 H1406 0.950 . S
C1418 C1417 1.398 . S
C1418 C1419 1.391 . S
C1419 H1407 0.950 . S
C1419 C1415 1.393 . S
C1419 C1418 1.391 . S
H1420 C1428 0.950 . S
H1421 C1433 0.950 . S
H1422 C1430 0.950 . S
H1423 C1432 0.950 . S
H1424 C1434 0.950 . S
H1425 C1436 0.950 . S
H1426 C1438 0.950 . S
H1427 C1439 0.950 . S
C1428 H1420 0.950 . S
C1428 C1429 1.386 . S
C1428 C1430 1.391 . S
C1429 C1428 1.386 . S
C1429 C1433 1.393 . S
C1430 H1422 0.950 . S
C1430 C1428 1.391 . S
C1430 C1431 1.400 . S
C1431 C1430 1.400 . S
C1431 C1432 1.398 . S
C1431 C1437 1.491 . S
C1432 H1423 0.950 . S
C1432 C1431 1.398 . S
C1432 C1433 1.391 . S
C1433 H1421 0.950 . S
C1433 C1429 1.393 . S
C1433 C1432 1.391 . S
C1434 H1424 0.950 . S
C1434 C1435 1.386 . S
C1434 C1436 1.391 . S
C1435 C1434 1.386 . S
C1435 C1439 1.393 . S
C1436 H1425 0.950 . S
C1436 C1434 1.391 . S
C1436 C1437 1.400 . S
C1437 C1431 1.491 . S
C1437 C1436 1.400 . S
C1437 C1438 1.398 . S
C1438 H1426 0.950 . S
C1438 C1437 1.398 . S
C1438 C1439 1.391 . S
C1439 H1427 0.950 . S
C1439 C1435 1.393 . S
C1439 C1438 1.391 . S
H1440 C1448 0.950 . S
H1441 C1453 0.950 . S
H1442 C1450 0.950 . S
H1443 C1452 0.950 . S
H1444 C1454 0.950 . S
H1445 C1456 0.950 . S
H1446 C1458 0.950 . S
H1447 C1459 0.950 . S
C1448 H1440 0.950 . S
C1448 C1449 1.386 . S
C1448 C1450 1.391 . S
C1449 C1448 1.386 . S
C1449 C1453 1.393 . S
C1450 H1442 0.950 . S
C1450 C1448 1.391 . S
C1450 C1451 1.400 . S
C1451 C1450 1.400 . S
C1451 C1452 1.398 . S
C1451 C1457 1.491 1_655 S
C1452 H1443 0.950 . S
C1452 C1451 1.398 . S
C1452 C1453 1.391 . S
C1453 H1441 0.950 . S
C1453 C1449 1.393 . S
C1453 C1452 1.391 . S
C1454 H1444 0.950 . S
C1454 C1455 1.386 . S
C1454 C1456 1.391 . S
C1455 C1454 1.386 . S
C1455 C1459 1.393 . S
C1456 H1445 0.950 . S
C1456 C1454 1.391 . S
C1456 C1457 1.400 . S
C1457 C1451 1.491 1_455 S
C1457 C1456 1.400 . S
C1457 C1458 1.398 . S
C1458 H1446 0.950 . S
C1458 C1457 1.398 . S
C1458 C1459 1.391 . S
C1459 H1447 0.950 . S
C1459 C1455 1.393 . S
C1459 C1458 1.391 . S
H1460 C1468 0.950 . S
H1461 C1473 0.950 . S
H1462 C1470 0.950 . S
H1463 C1472 0.950 . S
H1464 C1474 0.950 . S
H1465 C1476 0.950 . S
H1466 C1478 0.950 . S
H1467 C1479 0.950 . S
C1468 H1460 0.950 . S
C1468 C1469 1.386 . S
C1468 C1470 1.391 . S
C1469 C1468 1.386 . S
C1469 C1473 1.393 . S
C1470 H1462 0.950 . S
C1470 C1468 1.391 . S
C1470 C1471 1.400 . S
C1471 C1470 1.400 . S
C1471 C1472 1.398 . S
C1471 C1477 1.491 . S
C1472 H1463 0.950 . S
C1472 C1471 1.398 . S
C1472 C1473 1.391 . S
C1473 H1461 0.950 . S
C1473 C1469 1.393 . S
C1473 C1472 1.391 . S
C1474 H1464 0.950 . S
C1474 C1475 1.386 . S
C1474 C1476 1.391 . S
C1475 C1474 1.386 . S
C1475 C1479 1.393 . S
C1476 H1465 0.950 . S
C1476 C1474 1.391 . S
C1476 C1477 1.400 . S
C1477 C1471 1.491 . S
C1477 C1476 1.400 . S
C1477 C1478 1.398 . S
C1478 H1466 0.950 . S
C1478 C1477 1.398 . S
C1478 C1479 1.391 . S
C1479 H1467 0.950 . S
C1479 C1475 1.393 . S
C1479 C1478 1.391 . S
H1480 C1488 0.950 . S
H1481 C1493 0.950 . S
H1482 C1490 0.950 . S
H1483 C1492 0.950 . S
H1484 C1494 0.950 . S
H1485 C1496 0.950 . S
H1486 C1498 0.950 . S
H1487 C1499 0.950 . S
C1488 H1480 0.950 . S
C1488 C1489 1.386 . S
C1488 C1490 1.391 1_565 S
C1489 C1488 1.386 . S
C1489 C1493 1.393 . S
C1490 H1482 0.950 . S
C1490 C1488 1.391 1_545 S
C1490 C1491 1.400 . S
C1491 C1490 1.400 . S
C1491 C1492 1.398 . S
C1491 C1497 1.491 . S
C1492 H1483 0.950 . S
C1492 C1491 1.398 . S
C1492 C1493 1.391 1_545 S
C1493 H1481 0.950 . S
C1493 C1489 1.393 . S
C1493 C1492 1.391 1_565 S
C1494 H1484 0.950 . S
C1494 C1495 1.386 . S
C1494 C1496 1.391 . S
C1495 C1494 1.386 . S
C1495 C1499 1.393 . S
C1496 H1485 0.950 . S
C1496 C1494 1.391 . S
C1496 C1497 1.400 . S
C1497 C1491 1.491 . S
C1497 C1496 1.400 . S
C1497 C1498 1.398 . S
C1498 H1486 0.950 . S
C1498 C1497 1.398 . S
C1498 C1499 1.391 . S
C1499 H1487 0.950 . S
C1499 C1495 1.393 . S
C1499 C1498 1.391 . S
H1500 C1508 0.950 . S
H1501 C1513 0.950 . S
H1502 C1510 0.950 . S
H1503 C1512 0.950 . S
H1504 C1514 0.950 . S
H1505 C1516 0.945 1_565 S
H1506 C1518 0.950 . S
H1507 C1519 0.950 . S
C1508 H1500 0.950 . S
C1508 C1509 1.386 . S
C1508 C1510 1.391 . S
C1509 C1508 1.386 . S
C1509 C1513 1.393 . S
C1510 H1502 0.950 . S
C1510 C1508 1.391 . S
C1510 C1511 1.400 . S
C1511 C1510 1.400 . S
C1511 C1512 1.398 . S
C1511 C1517 1.491 1_565 S
C1512 H1503 0.950 . S
C1512 C1511 1.398 . S
C1512 C1513 1.391 . S
C1513 H1501 0.950 . S
C1513 C1509 1.393 . S
C1513 C1512 1.391 . S
C1514 H1504 0.950 . S
C1514 C1515 1.386 . S
C1514 C1516 1.391 . S
C1515 C1514 1.386 . S
C1515 C1519 1.393 . S
C1516 H1505 0.945 1_545 S
C1516 C1514 1.391 . S
C1516 C1517 1.400 . S
C1517 C1511 1.491 1_545 S
C1517 C1516 1.400 . S
C1517 C1518 1.398 . S
C1518 H1506 0.950 . S
C1518 C1517 1.398 . S
C1518 C1519 1.391 . S
C1519 H1507 0.950 . S
C1519 C1515 1.393 . S
C1519 C1518 1.391 . S
H1520 C1528 0.950 . S
H1521 C1533 0.950 . S
H1522 C1530 0.950 . S
H1523 C1532 0.950 . S
H1524 C1534 0.950 . S
H1525 C1536 0.950 . S
H1526 C1538 0.950 . S
H1527 C1539 0.950 . S
C1528 H1520 0.950 . S
C1528 C1529 1.386 . S
C1528 C1530 1.391 . S
C1529 C1528 1.386 . S
C1529 C1533 1.393 . S
C1530 H1522 0.950 . S
C1530 C1528 1.391 . S
C1530 C1531 1.400 . S
C1531 C1530 1.400 . S
C1531 C1532 1.398 . S
C1531 C1537 1.491 . S
C1532 H1523 0.950 . S
C1532 C1531 1.398 . S
C1532 C1533 1.391 . S
C1533 H1521 0.950 . S
C1533 C1529 1.393 . S
C1533 C1532 1.391 . S
C1534 H1524 0.950 . S
C1534 C1535 1.386 . S
C1534 C1536 1.391 1_655 S
C1535 C1534 1.386 . S
C1535 C1539 1.393 . S
C1536 H1525 0.950 . S
C1536 C1534 1.391 1_455 S
C1536 C1537 1.400 . S
C1537 C1531 1.491 . S
C1537 C1536 1.400 . S
C1537 C1538 1.398 . S
C1538 H1526 0.950 . S
C1538 C1537 1.398 . S
C1538 C1539 1.391 1_455 S
C1539 H1527 0.950 . S
C1539 C1535 1.393 . S
C1539 C1538 1.391 1_655 S
H1540 C1548 0.950 . S
H1541 C1553 0.950 . S
H1542 C1550 0.950 . S
H1543 C1552 0.950 . S
H1544 C1554 0.950 . S
H1545 C1556 0.950 . S
H1546 C1558 0.950 . S
H1547 C1559 0.950 . S
C1548 H1540 0.950 . S
C1548 C1549 1.386 . S
C1548 C1550 1.391 . S
C1549 C1548 1.386 . S
C1549 C1553 1.393 . S
C1550 H1542 0.950 . S
C1550 C1548 1.391 . S
C1550 C1551 1.400 . S
C1551 C1550 1.400 . S
C1551 C1552 1.398 . S
C1551 C1557 1.491 . S
C1552 H1543 0.950 . S
C1552 C1551 1.398 . S
C1552 C1553 1.391 . S
C1553 H1541 0.950 . S
C1553 C1549 1.393 . S
C1553 C1552 1.391 . S
C1554 H1544 0.950 . S
C1554 C1555 1.386 . S
C1554 C1556 1.391 . S
C1555 C1554 1.386 . S
C1555 C1559 1.393 . S
C1556 H1545 0.950 . S
C1556 C1554 1.391 . S
C1556 C1557 1.400 . S
C1557 C1551 1.491 . S
C1557 C1556 1.400 . S
C1557 C1558 1.398 . S
C1558 H1546 0.950 . S
C1558 C1557 1.398 . S
C1558 C1559 1.391 . S
C1559 H1547 0.950 . S
C1559 C1555 1.393 . S
C1559 C1558 1.391 . S
H1560 C1568 0.950 . S
H1561 C1573 0.950 . S
H1562 C1570 0.950 . S
H1563 C1572 0.950 . S
H1564 C1574 0.950 . S
H1565 C1576 0.950 . S
H1566 C1578 0.950 . S
H1567 C1579 0.950 . S
C1568 H1560 0.950 . S
C1568 C1569 1.386 . S
C1568 C1570 1.391 . S
C1569 C1568 1.386 . S
C1569 C1573 1.393 . S
C1570 H1562 0.950 . S
C1570 C1568 1.391 . S
C1570 C1571 1.400 . S
C1571 C1570 1.400 . S
C1571 C1572 1.398 . S
C1571 C1577 1.491 . S
C1572 H1563 0.950 . S
C1572 C1571 1.398 . S
C1572 C1573 1.391 . S
C1573 H1561 0.950 . S
C1573 C1569 1.393 . S
C1573 C1572 1.391 . S
C1574 H1564 0.950 . S
C1574 C1575 1.386 . S
C1574 C1576 1.391 . S
C1575 C1574 1.386 . S
C1575 C1579 1.393 . S
C1576 H1565 0.950 . S
C1576 C1574 1.391 . S
C1576 C1577 1.400 . S
C1577 C1571 1.491 . S
C1577 C1576 1.400 . S
C1577 C1578 1.398 . S
C1578 H1566 0.950 . S
C1578 C1577 1.398 . S
C1578 C1579 1.391 . S
C1579 H1567 0.950 . S
C1579 C1575 1.393 . S
C1579 C1578 1.391 . S
H1580 C1588 0.950 . S
H1581 C1593 0.950 . S
H1582 C1590 0.950 . S
H1583 C1592 0.950 . S
H1584 C1594 0.950 . S
H1585 C1596 0.950 . S
H1586 C1598 0.950 . S
H1587 C1599 0.950 . S
C1588 H1580 0.950 . S
C1588 C1589 1.386 . S
C1588 C1590 1.391 . S
C1589 C1588 1.386 . S
C1589 C1593 1.393 . S
C1590 H1582 0.950 . S
C1590 C1588 1.391 . S
C1590 C1591 1.400 . S
C1591 C1590 1.400 . S
C1591 C1592 1.398 . S
C1591 C1597 1.491 . S
C1592 H1583 0.950 . S
C1592 C1591 1.398 . S
C1592 C1593 1.391 . S
C1593 H1581 0.950 . S
C1593 C1589 1.393 . S
C1593 C1592 1.391 . S
C1594 H1584 0.950 . S
C1594 C1595 1.386 . S
C1594 C1596 1.391 . S
C1595 C1594 1.386 . S
C1595 C1599 1.393 . S
C1596 H1585 0.950 . S
C1596 C1594 1.391 . S
C1596 C1597 1.400 . S
C1597 C1591 1.491 . S
C1597 C1596 1.400 . S
C1597 C1598 1.398 . S
C1598 H1586 0.950 . S
C1598 C1597 1.398 . S
C1598 C1599 1.391 . S
C1599 H1587 0.950 . S
C1599 C1595 1.393 . S
C1599 C1598 1.391 . S
H1600 C1608 0.950 . S
H1601 C1613 0.950 . S
H1602 C1610 0.950 . S
H1603 C1612 0.950 . S
H1604 C1614 0.950 . S
H1605 C1616 0.950 . S
H1606 C1618 0.950 . S
H1607 C1619 0.950 . S
C1608 H1600 0.950 . S
C1608 C1609 1.386 . S
C1608 C1610 1.391 . S
C1609 C1608 1.386 . S
C1609 C1613 1.393 . S
C1610 H1602 0.950 . S
C1610 C1608 1.391 . S
C1610 C1611 1.400 . S
C1611 C1610 1.400 . S
C1611 C1612 1.398 . S
C1611 C1617 1.491 . S
C1612 H1603 0.950 . S
C1612 C1611 1.398 . S
C1612 C1613 1.391 . S
C1613 H1601 0.950 . S
C1613 C1609 1.393 . S
C1613 C1612 1.391 . S
C1614 H1604 0.950 . S
C1614 C1615 1.386 . S
C1614 C1616 1.391 . S
C1615 C1614 1.386 . S
C1615 C1619 1.393 . S
C1616 H1605 0.950 . S
C1616 C1614 1.391 . S
C1616 C1617 1.400 . S
C1617 C1611 1.491 . S
C1617 C1616 1.400 . S
C1617 C1618 1.398 . S
C1618 H1606 0.950 . S
C1618 C1617 1.398 . S
C1618 C1619 1.391 . S
C1619 H1607 0.950 . S
C1619 C1615 1.393 . S
C1619 C1618 1.391 . S
C549 N6 0.760 . S
C555 C76 0.750 . S
C569 C16 0.756 . S
C575 N36 0.744 . S
C589 C46 0.744 . S
C595 N66 0.732 . S
C609 N96 0.775 . S
C615 C136 0.763 . S
C629 C166 0.759 . S
C635 N126 0.748 . S
C649 N156 0.744 . S
C655 C106 0.756 . S
C669 C256 0.774 . S
C675 N186 0.779 . S
C689 C196 0.736 . S
C695 N216 0.734 . S
C709 N246 0.733 . S
C715 C226 0.745 . S
C729 C316 0.761 . S
C735 N276 0.772 . S
C749 N306 0.777 . S
C755 C346 0.766 . S
C769 C286 0.737 . S
C775 N336 0.728 . S
C789 N366 0.773 . S
C795 C436 0.762 . S
C809 C376 0.736 . S
C815 N396 0.729 . S
C829 C406 0.753 . S
C835 N426 0.764 . S
C849 C496 0.759 . S
C855 N456 0.771 . S
C869 C526 0.737 . S
C875 N486 0.739 . S
C889 C466 0.744 . S
C895 N516 0.731 . S
C909 C1 1.658 . S
C915 C151 1.669 . S
C929 C91 1.661 . S
C935 C31 1.664 . S
C949 C121 1.659 . S
C955 C61 1.666 . S
C969 C181 1.660 . S
C975 C331 1.669 . S
C989 C211 1.668 . S
C995 C271 1.662 . S
C1009 C301 1.662 . S
C1015 C241 1.668 . S
C1029 C361 1.668 . S
C1035 C511 1.658 . S
C1049 C451 1.669 . S
C1055 C391 1.658 . S
C1069 C481 1.661 . S
C1075 C421 1.669 . S
C1089 C310 1.968 . S
C1095 C10 1.966 1_565 S
C1109 C40 1.966 . S
C1115 C340 1.968 . S
C1129 C280 1.952 . S
C1135 C70 1.951 . S
C1149 C100 1.969 1_655 S
C1155 C430 1.968 . S
C1169 C130 1.969 . S
C1175 C370 1.969 . S
C1189 C400 1.965 . S
C1195 C160 1.967 . S
C1209 C490 1.951 . S
C1215 C190 1.951 . S
C1229 C220 1.951 . S
C1235 C520 1.952 . S
C1249 C250 1.962 . S
C1255 C460 1.965 . S
C1269 C87 1.298 . S
C1275 N14 1.264 . S
C1289 C27 1.295 . S
C1295 N44 1.263 . S
C1309 N74 1.280 . S
C1315 C57 1.305 . S
C1329 C147 1.297 . S
C1335 N104 1.262 . S
C1349 C177 1.301 . S
C1355 N134 1.275 . S
C1369 N164 1.279 . S
C1375 C117 1.305 . S
C1389 C267 1.295 . S
C1395 N194 1.258 . S
C1409 N224 1.255 . S
C1415 C207 1.292 . S
C1429 C237 1.303 . S
C1435 N254 1.278 . S
C1449 N284 1.278 . S
C1455 C327 1.303 . S
C1469 N314 1.259 . S
C1475 C357 1.293 . S
C1489 C297 1.293 . S
C1495 N344 1.258 . S
C1509 N374 1.281 . S
C1515 C447 1.305 . S
C1529 N404 1.281 . S
C1535 C387 1.305 . S
C1549 C417 1.302 . S
C1555 N434 1.276 . S
C1569 N464 1.255 . S
C1575 C507 1.292 . S
C1589 N494 1.281 . S
C1595 C537 1.306 . S
C1609 C477 1.302 . S
C1615 N524 1.276 . S
