# Generated by pormake.
# Topology zfp, (5)-cn, num edge types: 1
# Building blocks:
#     Node 0, Type 0, BuildingBlock: BEQFEK_clean_sbu_0, # of connection points: 5
#     Node 1, Type 0, BuildingBlock: BEQFEK_clean_sbu_0, # of connection points: 5
#     Node 2, Type 0, BuildingBlock: BEQFEK_clean_sbu_0, # of connection points: 5
#     Node 3, Type 0, BuildingBlock: BEQFEK_clean_sbu_0, # of connection points: 5
#     Node 4, Type 0, BuildingBlock: BEQFEK_clean_sbu_0, # of connection points: 5
#     Node 5, Type 0, BuildingBlock: BEQFEK_clean_sbu_0, # of connection points: 5
#     Node 6, Type 0, BuildingBlock: BEQFEK_clean_sbu_0, # of connection points: 5
#     Node 7, Type 0, BuildingBlock: BEQFEK_clean_sbu_0, # of connection points: 5
#     Node 8, Type 0, BuildingBlock: BEQFEK_clean_sbu_0, # of connection points: 5
#     Node 9, Type 0, BuildingBlock: BEQFEK_clean_sbu_0, # of connection points: 5
#     Node 10, Type 0, BuildingBlock: BEQFEK_clean_sbu_0, # of connection points: 5
#     Node 11, Type 0, BuildingBlock: BEQFEK_clean_sbu_0, # of connection points: 5
#     Node 12, Type 0, BuildingBlock: BEQFEK_clean_sbu_0, # of connection points: 5
#     Node 13, Type 0, BuildingBlock: BEQFEK_clean_sbu_0, # of connection points: 5
#     Node 14, Type 0, BuildingBlock: BEQFEK_clean_sbu_0, # of connection points: 5
#     Node 15, Type 0, BuildingBlock: BEQFEK_clean_sbu_0, # of connection points: 5
#     Edge 16, Type (0, 0), BuildingBlock: CIFDUS_clean_linker_0, # of connection points: 2
#     Edge 17, Type (0, 0), BuildingBlock: CIFDUS_clean_linker_0, # of connection points: 2
#     Edge 18, Type (0, 0), BuildingBlock: CIFDUS_clean_linker_0, # of connection points: 2
#     Edge 19, Type (0, 0), BuildingBlock: CIFDUS_clean_linker_0, # of connection points: 2
#     Edge 20, Type (0, 0), BuildingBlock: CIFDUS_clean_linker_0, # of connection points: 2
#     Edge 21, Type (0, 0), BuildingBlock: CIFDUS_clean_linker_0, # of connection points: 2
#     Edge 22, Type (0, 0), BuildingBlock: CIFDUS_clean_linker_0, # of connection points: 2
#     Edge 23, Type (0, 0), BuildingBlock: CIFDUS_clean_linker_0, # of connection points: 2
#     Edge 24, Type (0, 0), BuildingBlock: CIFDUS_clean_linker_0, # of connection points: 2
#     Edge 25, Type (0, 0), BuildingBlock: CIFDUS_clean_linker_0, # of connection points: 2
#     Edge 26, Type (0, 0), BuildingBlock: CIFDUS_clean_linker_0, # of connection points: 2
#     Edge 27, Type (0, 0), BuildingBlock: CIFDUS_clean_linker_0, # of connection points: 2
#     Edge 28, Type (0, 0), BuildingBlock: CIFDUS_clean_linker_0, # of connection points: 2
#     Edge 29, Type (0, 0), BuildingBlock: CIFDUS_clean_linker_0, # of connection points: 2
#     Edge 30, Type (0, 0), BuildingBlock: CIFDUS_clean_linker_0, # of connection points: 2
#     Edge 31, Type (0, 0), BuildingBlock: CIFDUS_clean_linker_0, # of connection points: 2
#     Edge 32, Type (0, 0), BuildingBlock: CIFDUS_clean_linker_0, # of connection points: 2
#     Edge 33, Type (0, 0), BuildingBlock: CIFDUS_clean_linker_0, # of connection points: 2
#     Edge 34, Type (0, 0), BuildingBlock: CIFDUS_clean_linker_0, # of connection points: 2
#     Edge 35, Type (0, 0), BuildingBlock: CIFDUS_clean_linker_0, # of connection points: 2
#     Edge 36, Type (0, 0), BuildingBlock: CIFDUS_clean_linker_0, # of connection points: 2
#     Edge 37, Type (0, 0), BuildingBlock: CIFDUS_clean_linker_0, # of connection points: 2
#     Edge 38, Type (0, 0), BuildingBlock: CIFDUS_clean_linker_0, # of connection points: 2
#     Edge 39, Type (0, 0), BuildingBlock: CIFDUS_clean_linker_0, # of connection points: 2
#     Edge 40, Type (0, 0), BuildingBlock: CIFDUS_clean_linker_0, # of connection points: 2
#     Edge 41, Type (0, 0), BuildingBlock: CIFDUS_clean_linker_0, # of connection points: 2
#     Edge 42, Type (0, 0), BuildingBlock: CIFDUS_clean_linker_0, # of connection points: 2
#     Edge 43, Type (0, 0), BuildingBlock: CIFDUS_clean_linker_0, # of connection points: 2
#     Edge 44, Type (0, 0), BuildingBlock: CIFDUS_clean_linker_0, # of connection points: 2
#     Edge 45, Type (0, 0), BuildingBlock: CIFDUS_clean_linker_0, # of connection points: 2
#     Edge 46, Type (0, 0), BuildingBlock: CIFDUS_clean_linker_0, # of connection points: 2
#     Edge 47, Type (0, 0), BuildingBlock: CIFDUS_clean_linker_0, # of connection points: 2
#     Edge 48, Type (0, 0), BuildingBlock: CIFDUS_clean_linker_0, # of connection points: 2
#     Edge 49, Type (0, 0), BuildingBlock: CIFDUS_clean_linker_0, # of connection points: 2
#     Edge 50, Type (0, 0), BuildingBlock: CIFDUS_clean_linker_0, # of connection points: 2
#     Edge 51, Type (0, 0), BuildingBlock: CIFDUS_clean_linker_0, # of connection points: 2
#     Edge 52, Type (0, 0), BuildingBlock: CIFDUS_clean_linker_0, # of connection points: 2
#     Edge 53, Type (0, 0), BuildingBlock: CIFDUS_clean_linker_0, # of connection points: 2
#     Edge 54, Type (0, 0), BuildingBlock: CIFDUS_clean_linker_0, # of connection points: 2
#     Edge 55, Type (0, 0), BuildingBlock: CIFDUS_clean_linker_0, # of connection points: 2
# Relax obj value: 0.107
# Max RMSD: 0.151
# Mean RMSD: 0.151
data_MOF--net-zfp--node1-BEQFEK_clean_sbu_0--edge1-CIFDUS_clean_linker_0
_symmetry_space_group_name_H-M    P1
_symmetry_Int_Tables_number       1
_symmetry_cell_setting            triclinic
loop_
_symmetry_equiv_pos_as_xyz
'x, y, z'
_cell_length_a     26.942233
_cell_length_b     26.934818
_cell_length_c     70.48384
_cell_angle_alpha  90.079324
_cell_angle_beta   90.016881
_cell_angle_gamma 89.94895
loop_
_atom_site_label
_atom_site_type_symbol
_atom_site_fract_x
_atom_site_fract_y
_atom_site_fract_z
_atom_type_partial_charge
Co0 Co 0.15611 0.3226 0.15299 0.0
Co1 Co 0.16771 0.32679 0.10834 0.0
C2 C 0.08784 0.26627 0.12792 0.0
O3 O 0.10376 0.27402 0.14474 0.0
O4 O 0.11034 0.28379 0.11353 0.0
C5 C 0.16234 0.28758 0.19232 0.0
O6 O 0.15893 0.24268 0.18514 0.0
C7 C 0.16366 0.29651 0.06807 0.0
C8 C 0.21389 0.35097 0.05474 0.0
C9 C 0.18255 0.31163 0.05069 0.0
N10 N 0.18282 0.3257 0.08175 0.0
N11 N 0.21298 0.35803 0.07366 0.0
C12 C 0.12887 0.25434 0.07173 0.0
H13 H 0.09121 0.26931 0.07454 0.0
H14 H 0.14118 0.2335 0.08445 0.0
H15 H 0.1272 0.22865 0.05942 0.0
C16 C 0.26526 0.30652 0.1497 0.0
N17 N 0.21995 0.31228 0.14185 0.0
N18 N 0.22422 0.31048 0.12328 0.0
C19 C 0.27197 0.30086 0.11874 0.0
C20 C 0.29998 0.29868 0.13533 0.0
C21 C 0.27551 0.31321 0.17043 0.0
H22 H 0.25219 0.3436 0.17618 0.0
H23 H 0.26615 0.27843 0.17804 0.0
H24 H 0.31501 0.32249 0.17307 0.0
O25 O 0.12836 0.38699 0.14528 0.0
O26 O 0.1413 0.39407 0.11427 0.0
H27 H 0.29994 0.32548 0.092 0.0
H28 H 0.32262 0.26544 0.09918 0.0
C29 C 0.28964 0.29014 0.09902 0.0
H30 H 0.25989 0.27192 0.09069 0.0
H31 H 0.23211 0.38569 0.08102 0.0
O32 O 0.16124 0.32482 0.18126 0.0
C33 C 0.12393 0.41098 0.12982 0.0
Co34 Co 0.69362 0.15046 0.65367 0.0
Co35 Co 0.70636 0.14957 0.60908 0.0
C36 C 0.7643 0.07999 0.63218 0.0
O37 O 0.7433 0.09717 0.6471 0.0
O38 O 0.75691 0.09939 0.61592 0.0
C39 C 0.6825 0.1291 0.69344 0.0
O40 O 0.6745 0.08393 0.68708 0.0
C41 C 0.72349 0.13801 0.56752 0.0
C42 C 0.67769 0.19973 0.55656 0.0
C43 C 0.70831 0.16126 0.55091 0.0
N44 N 0.70348 0.16248 0.58235 0.0
N45 N 0.67571 0.1989 0.57561 0.0
C46 C 0.75572 0.09306 0.56938 0.0
H47 H 0.73416 0.06277 0.57614 0.0
H48 H 0.78748 0.10172 0.57884 0.0
H49 H 0.76988 0.08046 0.5554 0.0
C50 C 0.70232 0.25871 0.64676 0.0
N51 N 0.7036 0.21126 0.64066 0.0
N52 N 0.71487 0.21047 0.62255 0.0
C53 C 0.72468 0.25725 0.61682 0.0
C54 C 0.71585 0.28992 0.63184 0.0
C55 C 0.684 0.27349 0.66601 0.0
H56 H 0.65575 0.24664 0.67104 0.0
H57 H 0.71552 0.27317 0.67614 0.0
H58 H 0.66727 0.31113 0.66578 0.0
O59 O 0.63039 0.12056 0.64646 0.0
O60 O 0.64174 0.11683 0.61525 0.0
H61 H 0.71939 0.28292 0.58808 0.0
H62 H 0.77571 0.2999 0.59994 0.0
C63 C 0.74807 0.2697 0.59814 0.0
H64 H 0.76669 0.2366 0.59202 0.0
H65 H 0.65438 0.22257 0.58404 0.0
O66 O 0.69277 0.16322 0.68164 0.0
C67 C 0.61629 0.10699 0.63003 0.0
Co68 Co 0.85917 0.68622 0.16239 0.0
Co69 Co 0.85709 0.69075 0.11788 0.0
C70 C 0.92607 0.75421 0.1384 0.0
O71 O 0.91085 0.73473 0.15386 0.0
O72 O 0.90537 0.74431 0.12258 0.0
C73 C 0.8348 0.72979 0.19874 0.0
O74 O 0.82456 0.76949 0.18865 0.0
C75 C 0.85345 0.7108 0.0764 0.0
C76 C 0.80705 0.64759 0.06711 0.0
C77 C 0.83148 0.68936 0.06055 0.0
N78 N 0.84216 0.68286 0.09163 0.0
N79 N 0.8148 0.64501 0.08591 0.0
C80 C 0.88177 0.75845 0.07737 0.0
H81 H 0.92182 0.75002 0.07914 0.0
H82 H 0.86958 0.78017 0.08992 0.0
H83 H 0.87647 0.78093 0.06435 0.0
C84 C 0.75047 0.69499 0.15667 0.0
N85 N 0.79729 0.69354 0.15 0.0
N86 N 0.79656 0.69985 0.13153 0.0
C87 C 0.74929 0.70845 0.12598 0.0
C88 C 0.71823 0.70532 0.14174 0.0
C89 C 0.73646 0.68173 0.17659 0.0
H90 H 0.76364 0.6551 0.1826 0.0
H91 H 0.73619 0.71571 0.18548 0.0
H92 H 0.69887 0.66493 0.17704 0.0
O93 O 0.88796 0.62147 0.1567 0.0
O94 O 0.89337 0.62871 0.12539 0.0
H95 H 0.72536 0.68943 0.09801 0.0
H96 H 0.70187 0.74797 0.10648 0.0
C97 C 0.73479 0.7232 0.10628 0.0
H98 H 0.76591 0.74262 0.09918 0.0
H99 H 0.80075 0.61778 0.09494 0.0
O100 O 0.85071 0.69105 0.19038 0.0
C101 C 0.90281 0.60538 0.14071 0.0
Co102 Co 0.33508 0.83975 0.65627 0.0
Co103 Co 0.33098 0.85643 0.61191 0.0
C104 C 0.27047 0.91885 0.63755 0.0
O105 O 0.28831 0.89583 0.65185 0.0
O106 O 0.28007 0.90499 0.62061 0.0
C107 C 0.30088 0.81503 0.69509 0.0
O108 O 0.25532 0.81439 0.68846 0.0
C109 C 0.30324 0.85692 0.57074 0.0
C110 C 0.37746 0.84402 0.5583 0.0
C111 C 0.32791 0.84963 0.55366 0.0
N112 N 0.33693 0.855 0.58487 0.0
N113 N 0.38121 0.84808 0.57723 0.0
C114 C 0.24858 0.86212 0.57367 0.0
H115 H 0.2386 0.85339 0.58858 0.0
H116 H 0.22815 0.83738 0.56378 0.0
H117 H 0.23752 0.90096 0.57057 0.0
C118 C 0.31686 0.73492 0.64388 0.0
N119 N 0.32311 0.78376 0.64025 0.0
N120 N 0.32216 0.79082 0.62178 0.0
C121 C 0.31585 0.74661 0.61306 0.0
C122 C 0.31202 0.70953 0.62672 0.0
C123 C 0.3129 0.71396 0.66347 0.0
H124 H 0.28051 0.73091 0.67068 0.0
H125 H 0.3079 0.67316 0.66344 0.0
H126 H 0.34658 0.72387 0.6717 0.0
O127 O 0.40073 0.86948 0.6512 0.0
O128 O 0.39405 0.88593 0.62053 0.0
H129 H 0.35091 0.75701 0.58617 0.0
H130 H 0.31728 0.69995 0.58785 0.0
C131 C 0.31696 0.73965 0.59198 0.0
H132 H 0.2842 0.75813 0.58558 0.0
H133 H 0.41392 0.84457 0.58504 0.0
O134 O 0.33695 0.82315 0.68388 0.0
C135 C 0.4176 0.88908 0.63611 0.0
Co136 Co 0.63116 0.18933 0.83897 0.0
Co137 Co 0.63739 0.1765 0.88322 0.0
C138 C 0.56226 0.24379 0.86689 0.0
O139 O 0.57657 0.23435 0.84989 0.0
O140 O 0.58551 0.22667 0.88121 0.0
C141 C 0.64824 0.2301 0.79974 0.0
O142 O 0.65387 0.27496 0.80675 0.0
C143 C 0.63942 0.18191 0.92522 0.0
C144 C 0.67685 0.11064 0.93147 0.0
C145 C 0.6543 0.15116 0.93993 0.0
N146 N 0.65262 0.16025 0.90877 0.0
N147 N 0.67542 0.11801 0.91264 0.0
C148 C 0.60876 0.22806 0.92656 0.0
H149 H 0.62192 0.25561 0.91601 0.0
H150 H 0.61009 0.24431 0.94101 0.0
H151 H 0.56967 0.21881 0.92312 0.0
C152 C 0.74201 0.19749 0.8449 0.0
N153 N 0.69476 0.19447 0.85129 0.0
N154 N 0.69566 0.19345 0.86991 0.0
C155 C 0.74267 0.19884 0.87604 0.0
C156 C 0.77436 0.20045 0.86043 0.0
C157 C 0.75585 0.1922 0.82443 0.0
H158 H 0.72897 0.16772 0.81706 0.0
H159 H 0.75486 0.22927 0.8176 0.0
H160 H 0.79361 0.17626 0.82284 0.0
O161 O 0.60409 0.12223 0.8422 0.0
O162 O 0.60578 0.11551 0.87347 0.0
H163 H 0.76253 0.16943 0.90319 0.0
H164 H 0.79017 0.22887 0.89794 0.0
C165 C 0.75609 0.20609 0.89648 0.0
H166 H 0.72537 0.225 0.90408 0.0
H167 H 0.68851 0.09339 0.90236 0.0
O168 O 0.63849 0.19417 0.81081 0.0
C169 C 0.5941 0.09846 0.85726 0.0
Co170 Co 0.81909 0.64858 0.34822 0.0
Co171 Co 0.80741 0.64853 0.39266 0.0
C172 C 0.74752 0.58034 0.37043 0.0
O173 O 0.76928 0.59661 0.35556 0.0
O174 O 0.75456 0.60036 0.3866 0.0
C175 C 0.79137 0.67813 0.30917 0.0
O176 O 0.75259 0.70108 0.31631 0.0
C177 C 0.79155 0.6388 0.43434 0.0
C178 C 0.83932 0.69947 0.44491 0.0
C179 C 0.80769 0.66217 0.45081 0.0
N180 N 0.81194 0.66213 0.41935 0.0
N181 N 0.8409 0.6979 0.42586 0.0
C182 C 0.75791 0.59487 0.43277 0.0
H183 H 0.77777 0.56422 0.42545 0.0
H184 H 0.72533 0.60484 0.42392 0.0
H185 H 0.74501 0.58216 0.4469 0.0
C186 C 0.81542 0.75774 0.35504 0.0
N187 N 0.81157 0.71025 0.3609 0.0
N188 N 0.80017 0.70966 0.37901 0.0
C189 C 0.79215 0.75671 0.38488 0.0
C190 C 0.80275 0.78923 0.37002 0.0
C191 C 0.83714 0.77231 0.3363 0.0
H192 H 0.86078 0.74201 0.33063 0.0
H193 H 0.80683 0.77973 0.32605 0.0
H194 H 0.85974 0.80654 0.33775 0.0
O195 O 0.88172 0.61853 0.355 0.0
O196 O 0.8704 0.61213 0.38607 0.0
H197 H 0.79775 0.78193 0.41371 0.0
H198 H 0.74215 0.80078 0.40175 0.0
C199 C 0.76886 0.76972 0.40355 0.0
H200 H 0.74921 0.73714 0.40954 0.0
H201 H 0.86263 0.72072 0.41726 0.0
O202 O 0.8212 0.65541 0.32012 0.0
C203 C 0.89543 0.60268 0.37111 0.0
Co204 Co 0.33831 0.81491 0.84381 0.0
Co205 Co 0.33388 0.81035 0.88857 0.0
C206 C 0.40344 0.74648 0.8684 0.0
O207 O 0.38863 0.76589 0.85286 0.0
O208 O 0.38218 0.75639 0.88411 0.0
C209 C 0.31103 0.7727 0.80732 0.0
O210 O 0.29275 0.73626 0.81752 0.0
C211 C 0.33822 0.79912 0.9307 0.0
C212 C 0.2876 0.85995 0.93907 0.0
C213 C 0.31857 0.82366 0.9464 0.0
N214 N 0.31923 0.81999 0.9149 0.0
N215 N 0.28907 0.85624 0.92008 0.0
C216 C 0.37813 0.76047 0.93051 0.0
H217 H 0.40644 0.7701 0.91971 0.0
H218 H 0.36167 0.72422 0.92647 0.0
H219 H 0.39642 0.75703 0.94455 0.0
C220 C 0.22904 0.81204 0.84921 0.0
N221 N 0.27569 0.80977 0.85603 0.0
N222 N 0.27401 0.80253 0.87446 0.0
C223 C 0.2262 0.79674 0.87977 0.0
C224 C 0.19579 0.80308 0.86395 0.0
C225 C 0.21655 0.82869 0.8295 0.0
H226 H 0.24662 0.85242 0.82377 0.0
H227 H 0.21219 0.79587 0.82015 0.0
H228 H 0.18116 0.84982 0.82939 0.0
O229 O 0.36891 0.87875 0.84959 0.0
O230 O 0.36986 0.87201 0.881 0.0
H231 H 0.1998 0.81546 0.90747 0.0
H232 H 0.17764 0.75692 0.89864 0.0
C233 C 0.21036 0.78187 0.8993 0.0
H234 H 0.24107 0.76265 0.90678 0.0
H235 H 0.27048 0.87941 0.91058 0.0
O236 O 0.3319 0.80909 0.81562 0.0
C237 C 0.38156 0.89497 0.86584 0.0
Co238 Co 0.18862 0.34901 0.33978 0.0
Co239 Co 0.16923 0.34566 0.38353 0.0
C240 C 0.2395 0.41955 0.36637 0.0
O241 O 0.2344 0.40313 0.34943 0.0
O242 O 0.21785 0.39866 0.38026 0.0
C243 C 0.19403 0.3737 0.30049 0.0
O244 O 0.18857 0.41879 0.30732 0.0
C245 C 0.19002 0.34052 0.4241 0.0
C246 C 0.11726 0.31636 0.43528 0.0
C247 C 0.16526 0.32828 0.44061 0.0
N248 N 0.1581 0.33563 0.4096 0.0
N249 N 0.11455 0.32175 0.41637 0.0
C250 C 0.24358 0.35379 0.42188 0.0
H251 H 0.25765 0.3403 0.40799 0.0
H252 H 0.26613 0.33782 0.43356 0.0
H253 H 0.24735 0.3948 0.42223 0.0
C254 C 0.2083 0.24034 0.34759 0.0
N255 N 0.19579 0.28687 0.35309 0.0
N256 N 0.18731 0.28643 0.37146 0.0
C257 C 0.194 0.24022 0.37823 0.0
C258 C 0.20771 0.2093 0.36342 0.0
C259 C 0.22226 0.2266 0.32774 0.0
H260 H 0.25036 0.25316 0.32235 0.0
H261 H 0.23713 0.18821 0.32695 0.0
H262 H 0.18901 0.22968 0.31852 0.0
O263 O 0.12085 0.37883 0.34281 0.0
O264 O 0.10783 0.37276 0.37375 0.0
H265 H 0.14744 0.23666 0.40272 0.0
H266 H 0.18897 0.18494 0.40062 0.0
C267 C 0.18539 0.22553 0.39846 0.0
H268 H 0.21238 0.24502 0.40771 0.0
H269 H 0.08323 0.31532 0.40802 0.0
O270 O 0.19713 0.33751 0.31199 0.0
C271 C 0.09404 0.3868 0.35741 0.0
Co272 Co 0.84008 0.69734 0.84903 0.0
Co273 Co 0.83147 0.70288 0.89332 0.0
C274 C 0.90407 0.76542 0.87381 0.0
O275 O 0.88877 0.74649 0.85829 0.0
O276 O 0.88293 0.75538 0.88957 0.0
C277 C 0.81976 0.73903 0.81223 0.0
O278 O 0.804 0.77791 0.82177 0.0
C279 C 0.82053 0.71878 0.93521 0.0
C280 C 0.77117 0.65538 0.94155 0.0
C281 C 0.79507 0.69533 0.94984 0.0
N282 N 0.81155 0.6937 0.91901 0.0
N283 N 0.7824 0.65573 0.92301 0.0
C284 C 0.85084 0.76514 0.93633 0.0
H285 H 0.8462 0.78719 0.92317 0.0
H286 H 0.84009 0.78784 0.94883 0.0
H287 H 0.8906 0.75491 0.93763 0.0
C288 C 0.73119 0.70272 0.85203 0.0
N289 N 0.77677 0.70389 0.85982 0.0
N290 N 0.77294 0.71147 0.87817 0.0
C291 C 0.72446 0.7181 0.88249 0.0
C292 C 0.69627 0.71247 0.86604 0.0
C293 C 0.72097 0.68669 0.83204 0.0
H294 H 0.75068 0.66151 0.82693 0.0
H295 H 0.71949 0.71974 0.8227 0.0
H296 H 0.68474 0.66725 0.83108 0.0
O297 O 0.86949 0.63388 0.85547 0.0
O298 O 0.86735 0.63997 0.88688 0.0
H299 H 0.69514 0.69831 0.9096 0.0
H300 H 0.67244 0.75638 0.90054 0.0
C301 C 0.70576 0.73232 0.90173 0.0
H302 H 0.73495 0.75221 0.90981 0.0
H303 H 0.76975 0.63023 0.91296 0.0
O304 O 0.83667 0.70171 0.82115 0.0
C305 C 0.88043 0.61728 0.87181 0.0
Co306 Co 0.31145 0.8494 0.34207 0.0
Co307 Co 0.32419 0.84674 0.38638 0.0
C308 C 0.25333 0.9176 0.36608 0.0
O309 O 0.26093 0.89785 0.34991 0.0
O310 O 0.27451 0.90124 0.38109 0.0
C311 C 0.27016 0.83801 0.3041 0.0
O312 O 0.22654 0.84592 0.31187 0.0
C313 C 0.3042 0.83239 0.42799 0.0
C314 C 0.38125 0.81962 0.43762 0.0
C315 C 0.33272 0.82169 0.44391 0.0
N316 N 0.33482 0.83599 0.41292 0.0
N317 N 0.38077 0.82892 0.41893 0.0
C318 C 0.24901 0.83667 0.42697 0.0
H319 H 0.23618 0.83388 0.41203 0.0
H320 H 0.23145 0.8073 0.43573 0.0
H321 H 0.23758 0.87318 0.43283 0.0
C322 C 0.29944 0.74103 0.34816 0.0
N323 N 0.30536 0.78754 0.35488 0.0
N324 N 0.31321 0.78567 0.37327 0.0
C325 C 0.31514 0.73761 0.37869 0.0
C326 C 0.30637 0.70739 0.36291 0.0
C327 C 0.2838 0.72967 0.32824 0.0
H328 H 0.25325 0.75496 0.32417 0.0
H329 H 0.27 0.69116 0.32665 0.0
H330 H 0.31552 0.7358 0.31848 0.0
O331 O 0.37668 0.88251 0.34687 0.0
O332 O 0.38669 0.87491 0.37794 0.0
H333 H 0.34092 0.68149 0.39853 0.0
H334 H 0.30056 0.72895 0.40832 0.0
C335 C 0.33093 0.72138 0.39809 0.0
H336 H 0.36389 0.74294 0.40252 0.0
H337 H 0.41192 0.82931 0.41015 0.0
O338 O 0.30886 0.83846 0.31439 0.0
C339 C 0.40202 0.88951 0.3619 0.0
Co340 Co 0.13975 0.33717 0.83902 0.0
Co341 Co 0.12929 0.32706 0.88303 0.0
C342 C 0.06189 0.27238 0.85522 0.0
O343 O 0.08507 0.28984 0.84099 0.0
O344 O 0.07654 0.28108 0.87218 0.0
C345 C 0.15368 0.31904 0.79878 0.0
O346 O 0.14013 0.27298 0.80202 0.0
C347 C 0.14888 0.29159 0.9229 0.0
C348 C 0.10615 0.34871 0.93845 0.0
C349 C 0.13562 0.3073 0.94102 0.0
N350 N 0.12828 0.3229 0.91021 0.0
N351 N 0.10252 0.35654 0.91971 0.0
C352 C 0.17647 0.24531 0.91777 0.0
H353 H 0.18189 0.24279 0.90219 0.0
H354 H 0.21284 0.24432 0.92511 0.0
H355 H 0.15502 0.21262 0.9227 0.0
C356 C 0.24384 0.31509 0.84743 0.0
N357 N 0.19655 0.31979 0.85327 0.0
N358 N 0.19494 0.32121 0.87191 0.0
C359 C 0.24228 0.32091 0.87847 0.0
C360 C 0.27508 0.31674 0.86312 0.0
C361 C 0.258 0.30639 0.82716 0.0
H362 H 0.22994 0.28235 0.82029 0.0
H363 H 0.29458 0.28775 0.82596 0.0
H364 H 0.25917 0.34241 0.81955 0.0
O365 O 0.11147 0.4012 0.84696 0.0
O366 O 0.10219 0.39355 0.87796 0.0
H367 H 0.28972 0.35583 0.89908 0.0
H368 H 0.26528 0.29671 0.90596 0.0
C369 C 0.25624 0.33187 0.89859 0.0
H370 H 0.22533 0.35061 0.90611 0.0
H371 H 0.08244 0.38523 0.91343 0.0
O372 O 0.15669 0.34956 0.81242 0.0
C373 C 0.09662 0.41818 0.86278 0.0
Co374 Co 0.68165 0.15296 0.33736 0.0
Co375 Co 0.68537 0.14424 0.38162 0.0
C376 C 0.74647 0.07772 0.35844 0.0
O377 O 0.72771 0.09773 0.3437 0.0
O378 O 0.73735 0.09489 0.37494 0.0
C379 C 0.72581 0.18336 0.30173 0.0
O380 O 0.76586 0.19342 0.31165 0.0
C381 C 0.71178 0.15077 0.4226 0.0
C382 C 0.63732 0.14428 0.43549 0.0
C383 C 0.68716 0.1484 0.43986 0.0
N384 N 0.67785 0.148 0.4086 0.0
N385 N 0.63347 0.14421 0.41647 0.0
C386 C 0.76666 0.15179 0.41955 0.0
H387 H 0.77555 0.15364 0.40419 0.0
H388 H 0.78294 0.18426 0.42698 0.0
H389 H 0.78347 0.1179 0.42578 0.0
C390 C 0.6929 0.25924 0.34649 0.0
N391 N 0.69059 0.21138 0.35184 0.0
N392 N 0.695 0.20855 0.37039 0.0
C393 C 0.70221 0.25489 0.37736 0.0
C394 C 0.70146 0.28859 0.36233 0.0
C395 C 0.68188 0.27739 0.32685 0.0
H396 H 0.65534 0.25215 0.31968 0.0
H397 H 0.71673 0.27891 0.31852 0.0
H398 H 0.66581 0.31534 0.32725 0.0
O399 O 0.61551 0.12613 0.34139 0.0
O400 O 0.62269 0.11253 0.37231 0.0
H401 H 0.67917 0.25392 0.40637 0.0
H402 H 0.71866 0.306 0.40035 0.0
C403 C 0.71157 0.26601 0.39784 0.0
H404 H 0.7443 0.24458 0.40266 0.0
H405 H 0.60046 0.14095 0.40883 0.0
O406 O 0.68758 0.16636 0.31001 0.0
C407 C 0.59895 0.10802 0.35674 0.0
Co408 Co 0.36009 0.82027 0.15952 0.0
Co409 Co 0.35283 0.81856 0.11519 0.0
C410 C 0.42731 0.75735 0.13329 0.0
O411 O 0.41231 0.77589 0.14895 0.0
O412 O 0.40459 0.76622 0.11776 0.0
C413 C 0.33925 0.77828 0.19694 0.0
O414 O 0.31684 0.74137 0.18828 0.0
C415 C 0.35084 0.81815 0.07258 0.0
C416 C 0.29505 0.87733 0.06826 0.0
C417 C 0.32693 0.84588 0.05863 0.0
N418 N 0.33345 0.83277 0.08965 0.0
N419 N 0.30006 0.86796 0.08685 0.0
C420 C 0.39274 0.78236 0.06997 0.0
H421 H 0.37822 0.74397 0.07124 0.0
H422 H 0.41043 0.78679 0.05586 0.0
H423 H 0.42085 0.78788 0.08128 0.0
C424 C 0.25137 0.81032 0.15601 0.0
N425 N 0.29724 0.81155 0.14847 0.0
N426 N 0.2943 0.80565 0.13 0.0
C427 C 0.24634 0.79713 0.12534 0.0
C428 C 0.21743 0.80005 0.14171 0.0
C429 C 0.23944 0.82609 0.17589 0.0
H430 H 0.26931 0.85007 0.18165 0.0
H431 H 0.23544 0.79295 0.18503 0.0
H432 H 0.20375 0.8467 0.17626 0.0
O433 O 0.38319 0.88681 0.1548 0.0
O434 O 0.38772 0.8809 0.12347 0.0
H435 H 0.21479 0.81762 0.09866 0.0
H436 H 0.1981 0.75656 0.10658 0.0
C437 C 0.22892 0.78382 0.10583 0.0
H438 H 0.25983 0.76803 0.09736 0.0
H439 H 0.28182 0.8868 0.09775 0.0
O440 O 0.35879 0.813 0.18736 0.0
C441 C 0.39639 0.90421 0.13888 0.0
Co442 Co 0.21076 0.34954 0.65019 0.0
Co443 Co 0.20125 0.34722 0.60633 0.0
C444 C 0.27101 0.41712 0.62429 0.0
O445 O 0.25988 0.39945 0.64055 0.0
O446 O 0.25269 0.39925 0.60902 0.0
C447 C 0.2111 0.3682 0.68984 0.0
O448 O 0.19571 0.41254 0.68475 0.0
C449 C 0.20694 0.33194 0.56459 0.0
C450 C 0.13331 0.29704 0.56051 0.0
C451 C 0.17643 0.30995 0.55111 0.0
N452 N 0.18285 0.33116 0.58128 0.0
N453 N 0.1388 0.31078 0.57866 0.0
C454 C 0.25923 0.34931 0.56216 0.0
H455 H 0.27949 0.34722 0.57585 0.0
H456 H 0.27862 0.32682 0.55123 0.0
H457 H 0.25884 0.3886 0.55745 0.0
C458 C 0.21056 0.24028 0.644 0.0
N459 N 0.21237 0.28744 0.63764 0.0
N460 N 0.21528 0.28708 0.61911 0.0
C461 C 0.21848 0.23969 0.61302 0.0
C462 C 0.21471 0.20789 0.62858 0.0
C463 C 0.19915 0.22717 0.66417 0.0
H464 H 0.17527 0.25613 0.67066 0.0
H465 H 0.23432 0.22514 0.67233 0.0
H466 H 0.17975 0.19095 0.66513 0.0
O467 O 0.14563 0.38193 0.64754 0.0
O468 O 0.14056 0.37922 0.61619 0.0
H469 H 0.19249 0.2215 0.58518 0.0
H470 H 0.24901 0.19012 0.59191 0.0
C471 C 0.22826 0.22564 0.59281 0.0
H472 H 0.25036 0.25497 0.58576 0.0
H473 H 0.11299 0.30494 0.58946 0.0
O474 O 0.22215 0.33673 0.67716 0.0
C475 C 0.12297 0.39196 0.6322 0.0
Co476 Co 0.65784 0.18276 0.15294 0.0
Co477 Co 0.66188 0.18023 0.10858 0.0
C478 C 0.59098 0.2468 0.12919 0.0
O479 O 0.60778 0.23191 0.14511 0.0
O480 O 0.61023 0.23252 0.11354 0.0
C481 C 0.66837 0.21889 0.19194 0.0
O482 O 0.67186 0.26415 0.18517 0.0
C483 C 0.66373 0.19996 0.06711 0.0
C484 C 0.68817 0.12593 0.05713 0.0
C485 C 0.67251 0.17199 0.05086 0.0
N486 N 0.67392 0.1713 0.08226 0.0
N487 N 0.68864 0.12731 0.07614 0.0
C488 C 0.63993 0.25001 0.06848 0.0
H489 H 0.60114 0.24549 0.07348 0.0
H490 H 0.65985 0.27279 0.07917 0.0
H491 H 0.63944 0.26937 0.05462 0.0
C492 C 0.76705 0.19497 0.14788 0.0
N493 N 0.72057 0.19073 0.14092 0.0
N494 N 0.72255 0.18844 0.1223 0.0
C495 C 0.77052 0.18995 0.1168 0.0
C496 C 0.80061 0.19424 0.13285 0.0
C497 C 0.77832 0.20248 0.16849 0.0
H498 H 0.76545 0.16977 0.17667 0.0
H499 H 0.75784 0.23547 0.17361 0.0
H500 H 0.81821 0.20901 0.17124 0.0
O501 O 0.62693 0.11835 0.14685 0.0
O502 O 0.62947 0.11773 0.11546 0.0
H503 H 0.77427 0.14502 0.09194 0.0
H504 H 0.82772 0.18301 0.09503 0.0
C505 C 0.78692 0.18206 0.09671 0.0
H506 H 0.7695 0.21041 0.08743 0.0
H507 H 0.69722 0.09752 0.08501 0.0
O508 O 0.66348 0.18222 0.18078 0.0
C509 C 0.61685 0.09795 0.13104 0.0
Co510 Co 0.84553 0.65233 0.66415 0.0
Co511 Co 0.83578 0.64685 0.61991 0.0
C512 C 0.77909 0.57752 0.64347 0.0
O513 O 0.79946 0.59695 0.65803 0.0
O514 O 0.78578 0.59576 0.62697 0.0
C515 C 0.80844 0.67685 0.70182 0.0
O516 O 0.7663 0.68859 0.69357 0.0
C517 C 0.80572 0.65395 0.57915 0.0
C518 C 0.87978 0.65525 0.56569 0.0
C519 C 0.82958 0.65492 0.56172 0.0
N520 N 0.84051 0.65346 0.5929 0.0
N521 N 0.88461 0.65441 0.58467 0.0
C522 C 0.75111 0.65043 0.58256 0.0
H523 H 0.74275 0.65175 0.59797 0.0
H524 H 0.73187 0.68135 0.57519 0.0
H525 H 0.737 0.61515 0.57645 0.0
C526 C 0.82935 0.75923 0.65663 0.0
N527 N 0.83273 0.7118 0.65072 0.0
N528 N 0.82618 0.71001 0.63223 0.0
C529 C 0.81664 0.75648 0.6259 0.0
C530 C 0.81812 0.78935 0.64124 0.0
C531 C 0.84173 0.77627 0.67631 0.0
H532 H 0.86975 0.75134 0.68278 0.0
H533 H 0.80771 0.77592 0.68515 0.0
H534 H 0.85649 0.81474 0.67616 0.0
O535 O 0.91132 0.62703 0.6582 0.0
O536 O 0.90022 0.61541 0.62737 0.0
H537 H 0.83825 0.76356 0.59689 0.0
H538 H 0.79037 0.80689 0.60412 0.0
C539 C 0.8045 0.76846 0.60572 0.0
H540 H 0.77599 0.74224 0.60048 0.0
H541 H 0.91818 0.65379 0.59204 0.0
O542 O 0.8448 0.66195 0.69187 0.0
C543 C 0.92613 0.6102 0.64236 0.0
H544 H 0.17626 0.37486 0.21112 0.0
H545 H 0.16413 0.21689 0.22023 0.0
H546 H 0.17512 0.22922 0.25433 0.0
H547 H 0.18635 0.28511 0.28173 0.0
H548 H 0.19715 0.44313 0.2724 0.0
H549 H 0.18892 0.43035 0.23828 0.0
C550 C 0.17598 0.34305 0.22054 0.0
C551 C 0.16914 0.29501 0.21306 0.0
C552 C 0.18226 0.35038 0.24014 0.0
C553 C 0.16918 0.2543 0.22554 0.0
C554 C 0.17552 0.2613 0.24507 0.0
C555 C 0.18728 0.31674 0.27223 0.0
C556 C 0.19232 0.36505 0.27968 0.0
C557 C 0.18192 0.3092 0.25255 0.0
C558 C 0.19321 0.40556 0.26712 0.0
C559 C 0.18842 0.39831 0.24757 0.0
H560 H 0.64921 0.14037 0.78204 0.0
H561 H 0.66467 0.29723 0.77111 0.0
H562 H 0.67778 0.27995 0.73737 0.0
H563 H 0.68419 0.22007 0.71088 0.0
H564 H 0.66836 0.0634 0.72231 0.0
H565 H 0.65636 0.08099 0.75592 0.0
C566 C 0.65532 0.17094 0.77232 0.0
C567 C 0.65573 0.22011 0.77917 0.0
C568 C 0.66297 0.16074 0.75298 0.0
C569 C 0.66405 0.25904 0.76629 0.0
C570 C 0.6716 0.24917 0.74697 0.0
C571 C 0.67834 0.18974 0.72073 0.0
C572 C 0.67718 0.14041 0.71399 0.0
C573 C 0.67113 0.20013 0.74014 0.0
C574 C 0.66937 0.10168 0.72701 0.0
C575 C 0.66244 0.1117 0.74628 0.0
H576 H 0.7611 0.74809 0.28372 0.0
H577 H 0.84741 0.61368 0.28862 0.0
H578 H 0.86856 0.61791 0.25501 0.0
H579 H 0.8631 0.6598 0.22426 0.0
H580 H 0.77984 0.79612 0.21935 0.0
H581 H 0.75732 0.79133 0.25289 0.0
C582 C 0.78423 0.71959 0.27737 0.0
C583 C 0.80238 0.68047 0.28862 0.0
C584 C 0.79713 0.72277 0.25806 0.0
C585 C 0.83296 0.6442 0.28028 0.0
C586 C 0.84511 0.64658 0.26105 0.0
C587 C 0.84009 0.68855 0.23052 0.0
C588 C 0.82318 0.72822 0.21928 0.0
C589 C 0.82757 0.68576 0.24983 0.0
C590 C 0.79361 0.76528 0.22767 0.0
C591 C 0.78051 0.76246 0.24685 0.0
H592 H 0.36797 0.81905 0.78098 0.0
H593 H 0.23699 0.72858 0.78703 0.0
H594 H 0.2217 0.73387 0.75286 0.0
H595 H 0.24467 0.766 0.72123 0.0
H596 H 0.37892 0.85167 0.71512 0.0
H597 H 0.39387 0.84638 0.74922 0.0
C598 C 0.33616 0.80041 0.77479 0.0
C599 C 0.30352 0.77372 0.78651 0.0
C600 C 0.32814 0.80281 0.75509 0.0
C601 C 0.26278 0.74922 0.77828 0.0
C602 C 0.25391 0.75239 0.75876 0.0
C603 C 0.27719 0.78341 0.7274 0.0
C604 C 0.31042 0.80947 0.71568 0.0
C605 C 0.28617 0.77935 0.74702 0.0
C606 C 0.35279 0.83129 0.72382 0.0
C607 C 0.36132 0.82843 0.74333 0.0
H608 H 0.86556 0.6756 0.78828 0.0
H609 H 0.75904 0.79523 0.78969 0.0
H610 H 0.74453 0.78553 0.75559 0.0
H611 H 0.76154 0.74183 0.7254 0.0
H612 H 0.87103 0.62483 0.72431 0.0
H613 H 0.88464 0.63441 0.75832 0.0
C614 C 0.83924 0.69966 0.78113 0.0
C615 C 0.8133 0.73594 0.79147 0.0
C616 C 0.83136 0.69407 0.76161 0.0
C617 C 0.77967 0.76716 0.78199 0.0
C618 C 0.77115 0.76144 0.76253 0.0
C619 C 0.78809 0.71831 0.73269 0.0
C620 C 0.81497 0.68245 0.72246 0.0
C621 C 0.79656 0.72476 0.75221 0.0
C622 C 0.84991 0.65271 0.73193 0.0
C623 C 0.85774 0.65815 0.75135 0.0
H624 H 0.35321 0.83889 0.28266 0.0
H625 H 0.19697 0.80428 0.28042 0.0
H626 H 0.20572 0.77735 0.2474 0.0
H627 H 0.25773 0.76591 0.21887 0.0
H628 H 0.41217 0.80728 0.22075 0.0
H629 H 0.40458 0.82828 0.2544 0.0
C630 C 0.32104 0.82539 0.27497 0.0
C631 C 0.27452 0.82362 0.28395 0.0
C632 C 0.32623 0.81066 0.25601 0.0
C633 C 0.23313 0.80637 0.27376 0.0
C634 C 0.23817 0.79069 0.25493 0.0
C635 C 0.28977 0.77871 0.2268 0.0
C636 C 0.3356 0.78448 0.21758 0.0
C637 C 0.28455 0.79275 0.2459 0.0
C638 C 0.3767 0.80224 0.22774 0.0
C639 C 0.37229 0.81449 0.24689 0.0
H640 H 0.19091 0.42524 0.72067 0.0
H641 H 0.22444 0.27471 0.70383 0.0
H642 H 0.2096 0.24601 0.73607 0.0
H643 H 0.18283 0.26294 0.76877 0.0
H644 H 0.152 0.4138 0.78579 0.0
H645 H 0.16992 0.44297 0.75379 0.0
C646 C 0.19542 0.38625 0.72409 0.0
C647 C 0.20821 0.35219 0.70982 0.0
C648 C 0.18686 0.3699 0.74267 0.0
C649 C 0.21436 0.30179 0.71452 0.0
C650 C 0.2057 0.28522 0.73295 0.0
C651 C 0.18003 0.30214 0.76542 0.0
C652 C 0.16566 0.33607 0.7795 0.0
C653 C 0.19107 0.31881 0.74706 0.0
C654 C 0.16294 0.38692 0.77513 0.0
C655 C 0.17315 0.40367 0.75685 0.0
H656 H 0.66301 0.14394 0.27614 0.0
H657 H 0.78179 0.25018 0.28181 0.0
H658 H 0.77252 0.27324 0.24836 0.0
H659 H 0.73008 0.26279 0.21741 0.0
H660 H 0.61529 0.15223 0.21189 0.0
H661 H 0.62299 0.13163 0.24548 0.0
C662 C 0.68692 0.17214 0.27005 0.0
C663 C 0.7229 0.19544 0.28137 0.0
C664 C 0.68173 0.18467 0.2509 0.0
C665 C 0.754 0.23151 0.27329 0.0
C666 C 0.7485 0.2449 0.25423 0.0
C667 C 0.70653 0.23463 0.22371 0.0
C668 C 0.67182 0.20936 0.2124 0.0
C669 C 0.71231 0.22184 0.24291 0.0
C670 C 0.64213 0.17216 0.22045 0.0
C671 C 0.64658 0.16032 0.2396 0.0
H672 H 0.24082 0.2973 0.01981 0.0
H673 H 0.08823 0.29574 0.03824 0.0
H674 H 0.0605 0.28519 0.00557 0.0
H675 H 0.07908 0.28875 0.97154 0.0
H676 H 0.23109 0.29305 0.95271 0.0
H677 H 0.25978 0.28892 0.98562 0.0
C678 C 0.2016 0.29356 0.01663 0.0
C679 C 0.16666 0.29688 0.0314 0.0
C680 C 0.18586 0.28806 0.99772 0.0
C681 C 0.11591 0.29222 0.02719 0.0
C682 C 0.09998 0.28669 0.00847 0.0
C683 C 0.11849 0.28715 0.97468 0.0
C684 C 0.15296 0.29061 0.9598 0.0
C685 C 0.13453 0.28609 0.9936 0.0
C686 C 0.20391 0.2891 0.96391 0.0
C687 C 0.22028 0.28761 0.98276 0.0
H688 H 0.67783 0.08193 0.46822 0.0
H689 H 0.73874 0.22547 0.45488 0.0
H690 H 0.75608 0.24037 0.48854 0.0
H691 H 0.74334 0.21666 0.52202 0.0
H692 H 0.68498 0.072 0.53531 0.0
H693 H 0.67782 0.05276 0.50144 0.0
C694 C 0.69606 0.11586 0.47273 0.0
C695 C 0.70713 0.1526 0.45926 0.0
C696 C 0.70596 0.12397 0.49205 0.0
C697 C 0.73056 0.19653 0.46507 0.0
C698 C 0.74002 0.20518 0.4843 0.0
C699 C 0.73034 0.18048 0.51742 0.0
C700 C 0.71477 0.14568 0.53099 0.0
C701 C 0.72644 0.1698 0.49796 0.0
C702 C 0.69773 0.099 0.52503 0.0
C703 C 0.69321 0.08823 0.50569 0.0
H704 H 0.87116 0.72174 0.97356 0.0
H705 H 0.71389 0.69212 0.97202 0.0
H706 H 0.71046 0.69371 0.00656 0.0
H707 H 0.75365 0.69266 0.03697 0.0
H708 H 0.91111 0.71952 0.03925 0.0
H709 H 0.91306 0.73096 0.00472 0.0
C710 C 0.83599 0.71724 0.98081 0.0
C711 C 0.79281 0.70681 0.97031 0.0
C712 C 0.83446 0.71717 0.00079 0.0
C713 C 0.7476 0.69997 0.97986 0.0
C714 C 0.74562 0.70074 -0.00041 0.0
C715 C 0.78821 0.70192 0.02991 0.0
C716 C 0.83212 0.70523 0.04052 0.0
C717 C 0.78905 0.70756 0.01017 0.0
C718 C 0.87672 0.71739 0.03133 0.0
C719 C 0.87788 0.72347 0.01159 0.0
H720 H 0.27925 0.88162 0.46769 0.0
H721 H 0.3564 0.74158 0.46458 0.0
H722 H 0.35412 0.73408 0.49903 0.0
H723 H 0.34385 0.77412 0.52983 0.0
H724 H 0.27004 0.91549 0.53392 0.0
H725 H 0.25646 0.9157 0.49942 0.0
C726 C 0.29385 0.84876 0.4746 0.0
C727 C 0.31809 0.8122 0.46373 0.0
C728 C 0.29378 0.84546 0.49458 0.0
C729 C 0.33769 0.77011 0.47275 0.0
C730 C 0.33666 0.76596 0.49243 0.0
C731 C 0.32364 0.80432 0.52317 0.0
C732 C 0.30827 0.84487 0.5342 0.0
C733 C 0.31693 0.80444 0.50347 0.0
C734 C 0.28194 0.88379 0.52561 0.0
C735 C 0.27461 0.88405 0.50589 0.0
H736 H 0.62278 0.11482 0.02648 0.0
H737 H 0.70193 0.25334 0.03033 0.0
H738 H 0.69735 0.26293 0.99574 0.0
H739 H 0.68026 0.22552 0.96416 0.0
H740 H 0.60616 0.08396 0.96114 0.0
H741 H 0.59912 0.0817 0.99564 0.0
C742 C 0.63824 0.14755 0.01974 0.0
C743 C 0.6624 0.18344 0.0308 0.0
C744 C 0.63675 0.15185 -1e-05 0.0
C745 C 0.68235 0.22571 0.02204 0.0
C746 C 0.68022 0.23085 0.00228 0.0
C747 C 0.6615 0.19498 0.97114 0.0
C748 C 0.64356 0.155 0.96031 0.0
C749 C 0.65879 0.19336 0.99106 0.0
C750 C 0.62018 0.115 0.96933 0.0
C751 C 0.61625 0.11367 0.98901 0.0
H752 H 0.83788 0.58661 0.53391 0.0
H753 H 0.77668 0.73065 0.54649 0.0
H754 H 0.75914 0.74402 0.51273 0.0
H755 H 0.7723 0.71892 0.47936 0.0
H756 H 0.83077 0.57362 0.4669 0.0
H757 H 0.8377 0.55583 0.50088 0.0
C758 C 0.81941 0.62025 0.52923 0.0
C759 C 0.80846 0.65767 0.54248 0.0
C760 C 0.80944 0.62746 0.50986 0.0
C761 C 0.78485 0.70128 0.53645 0.0
C762 C 0.77527 0.70903 0.51717 0.0
C763 C 0.78525 0.68293 0.48417 0.0
C764 C 0.801 0.64754 0.4708 0.0
C765 C 0.78895 0.67305 0.5037 0.0
C766 C 0.81796 0.60108 0.47702 0.0
C767 C 0.82231 0.59113 0.49642 0.0
H768 H 0.33514 0.76851 0.0334 0.0
H769 H 0.33561 0.92834 0.03744 0.0
H770 H 0.33743 0.93511 0.00301 0.0
H771 H 0.33152 0.89641 0.97188 0.0
H772 H 0.32764 0.73704 0.96684 0.0
H773 H 0.33544 0.72907 0.00141 0.0
C774 C 0.33679 0.80465 0.02667 0.0
C775 C 0.33528 0.84789 0.03791 0.0
C776 C 0.33691 0.80835 0.00671 0.0
C777 C 0.33651 0.89458 0.02907 0.0
C778 C 0.33751 0.89851 0.00939 0.0
C779 C 0.33291 0.85988 0.97833 0.0
C780 C 0.32928 0.81742 0.96686 0.0
C781 C 0.33648 0.85575 0.99809 0.0
C782 C 0.33126 0.77031 0.97537 0.0
C783 C 0.33525 0.76579 0.99514 0.0
H784 H 0.21956 0.37148 0.52526 0.0
H785 H 0.15036 0.22806 0.5316 0.0
H786 H 0.14671 0.21835 0.49726 0.0
H787 H 0.15189 0.25577 0.46585 0.0
H788 H 0.21887 0.39976 0.45896 0.0
H789 H 0.23586 0.4039 0.4931 0.0
C790 C 0.20531 0.33748 0.5191 0.0
C791 C 0.18499 0.30065 0.53083 0.0
C792 C 0.20239 0.33258 0.4993 0.0
C793 C 0.16574 0.25707 0.52273 0.0
C794 C 0.16355 0.25152 0.50314 0.0
C795 C 0.17104 0.28759 0.47185 0.0
C796 C 0.18387 0.3275 0.46016 0.0
C797 C 0.1799 0.28987 0.49135 0.0
C798 C 0.20901 0.36849 0.46783 0.0
C799 C 0.21834 0.37099 0.48732 0.0
H800 H 0.05753 0.43629 0.15687 0.0
H801 H 0.11008 0.47969 0.10146 0.0
H802 H 0.04363 0.54159 0.09932 0.0
H803 H 0.96973 0.58213 0.1131 0.0
H804 H 0.91726 0.53605 0.16822 0.0
H805 H 0.98405 0.47521 0.17027 0.0
C806 C 0.05514 0.45972 0.1444 0.0
C807 C 0.08922 0.45366 0.12943 0.0
C808 C 0.01612 0.49388 0.14302 0.0
C809 C 0.08471 0.48389 0.11327 0.0
C810 C 0.04643 0.51894 0.11197 0.0
C811 C 0.97239 0.55818 0.12541 0.0
C812 C 0.93831 0.56347 0.14045 0.0
C813 C 0.01152 0.52376 0.12666 0.0
C814 C 0.94282 0.53265 0.15643 0.0
C815 C 0.98124 0.49811 0.15768 0.0
H816 H 0.45203 0.95068 0.60858 0.0
H817 H 0.478 0.90644 0.66665 0.0
H818 H 0.53905 0.97271 0.67019 0.0
H819 H 0.5832 0.04436 0.65714 0.0
H820 H 0.55864 0.08776 0.59897 0.0
H821 H 0.49763 0.02117 0.5953 0.0
C822 C 0.47147 0.95497 0.62196 0.0
C823 C 0.46036 0.92346 0.63733 0.0
C824 C 0.50583 0.9937 0.62402 0.0
C825 C 0.48586 0.92994 0.65456 0.0
C826 C 0.52047 0.96813 0.65666 0.0
C827 C 0.56388 0.03984 0.64374 0.0
C828 C 0.57479 0.07147 0.62843 0.0
C829 C 0.53008 1.00069 0.64159 0.0
C830 C 0.55043 0.06424 0.61102 0.0
C831 C 0.5159 0.02596 0.60888 0.0
H832 H 0.43909 0.93169 0.83758 0.0
H833 H 0.40535 0.95018 0.89707 0.0
H834 H 0.47153 0.01163 0.89995 0.0
H835 H 0.53877 0.05965 0.88566 0.0
H836 H 0.57219 0.04186 0.82612 0.0
H837 H 0.50692 0.97932 0.82332 0.0
C838 C 0.44567 0.94966 0.85113 0.0
C839 C 0.41698 0.93669 0.86705 0.0
C840 C 0.48435 0.98418 0.85277 0.0
C841 C 0.42666 0.95973 0.88456 0.0
C842 C 0.46473 0.99458 0.88626 0.0
C843 C 0.53242 0.04154 0.87212 0.0
C844 C 0.56055 0.0552 0.85614 0.0
C845 C 0.49407 0.00669 0.8705 0.0
C846 C 0.55124 0.03184 0.83865 0.0
C847 C 0.51367 0.9964 0.83701 0.0
H848 H 0.0457 0.42912 0.38696 0.0
H849 H 0.04946 0.42589 0.32568 0.0
H850 H 0.99046 0.49499 0.32466 0.0
H851 H 0.94063 0.55775 0.3412 0.0
H852 H 0.93893 0.56164 0.4025 0.0
H853 H 0.99622 0.4914 0.4034 0.0
C854 C 0.03321 0.44285 0.3733 0.0
C855 C 0.05189 0.42202 0.35638 0.0
C856 C 1.00083 0.48349 0.37284 0.0
C857 C 0.03544 0.44088 0.3389 0.0
C858 C 0.00215 0.48073 0.33832 0.0
C859 C 0.95322 0.54379 0.3548 0.0
C860 C 0.93568 0.5653 0.37179 0.0
C861 C 0.98537 0.50284 0.35522 0.0
C862 C 0.95207 0.54614 0.38922 0.0
C863 C 0.98445 0.50568 0.38975 0.0
H864 H 0.947 0.5903 0.84524 0.0
H865 H 0.89707 0.55472 0.90178 0.0
H866 H 0.96342 0.49289 0.90473 0.0
H867 H 0.03446 0.44847 0.8909 0.0
H868 H 0.08448 0.48603 0.83448 0.0
H869 H 0.01976 0.54902 0.83208 0.0
C870 C 0.95008 0.56854 0.85813 0.0
C871 C 0.91659 0.5763 0.87314 0.0
C872 C 0.9889 0.53434 0.85989 0.0
C873 C 0.92203 0.54885 0.88994 0.0
C874 C 0.96014 0.51387 0.89168 0.0
C875 C 0.03187 0.47105 0.87821 0.0
C876 C 0.06427 0.46246 0.86287 0.0
C877 C 0.9939 0.5065 0.87675 0.0
C878 C 0.06005 0.49184 0.84649 0.0
C879 C 0.0228 0.52757 0.84503 0.0
H880 H 0.57998 0.03137 0.38021 0.0
H881 H 0.52466 0.10577 0.33032 0.0
H882 H 0.46134 0.04147 0.32632 0.0
H883 H 0.42185 0.96406 0.33714 0.0
H884 H 0.47875 0.88984 0.38684 0.0
H885 H 0.54243 0.95346 0.39044 0.0
C886 C 0.55356 0.03401 0.36864 0.0
C887 C 0.55646 0.07362 0.35575 0.0
C888 C 0.51842 0.9963 0.36611 0.0
C889 C 0.52276 0.07585 0.34055 0.0
C890 C 0.48689 0.0389 0.33816 0.0
C891 C 0.44891 0.96127 0.34849 0.0
C892 C 0.44586 0.92218 0.36163 0.0
C893 C 0.48471 0.99867 0.35075 0.0
C894 C 0.48054 0.9195 0.3765 0.0
C895 C 0.51664 0.95608 0.37867 0.0
H896 H 0.46537 0.92727 0.11236 0.0
H897 H 0.40485 0.97576 0.16598 0.0
H898 H 0.47076 0.03737 0.16901 0.0
H899 H 0.54667 0.07565 0.15693 0.0
H900 H 0.60699 0.02832 0.10316 0.0
H901 H 0.54068 0.96687 0.09993 0.0
C902 C 0.46603 0.95202 0.12451 0.0
C903 C 0.43015 0.94722 0.13887 0.0
C904 C 0.50471 0.98648 0.1264 0.0
C905 C 0.43197 0.97894 0.1547 0.0
C906 C 0.46987 0.01382 0.15654 0.0
C907 C 0.54586 0.05123 0.14468 0.0
C908 C 0.58203 0.05587 0.13045 0.0
C909 C 0.50691 0.01724 0.14265 0.0
C910 C 0.57979 0.02494 0.1144 0.0
C911 C 0.54167 0.99021 0.11247 0.0
H912 H 0.10182 0.46203 0.65858 0.0
H913 H 0.05012 0.40021 0.60563 0.0
H914 H 0.98718 0.46527 0.60329 0.0
H915 H 0.94785 0.54018 0.61601 0.0
H916 H 0.99964 0.60244 0.66889 0.0
H917 H 0.06261 0.53742 0.67125 0.0
C918 C 0.07613 0.46227 0.64672 0.0
C919 C 0.08015 0.42607 0.63242 0.0
C920 C 0.04099 0.50053 0.6452 0.0
C921 C 0.04741 0.42748 0.6169 0.0
C922 C 0.01176 0.46489 0.61546 0.0
C923 C 0.97346 0.5401 0.62789 0.0
C924 C 0.96928 0.57634 0.64218 0.0
C925 C 0.00869 0.50197 0.62939 0.0
C926 C 0.00226 0.57513 0.65764 0.0
C927 C 0.03797 0.53773 0.65909 0.0
H928 H 0.51805 0.22977 0.15419 0.0
H929 H 0.55035 0.31168 0.10315 0.0
H930 H 0.46307 0.33814 0.10127 0.0
H931 H 0.37668 0.33377 0.11345 0.0
H932 H 0.34507 0.23996 0.16155 0.0
H933 H 0.4332 0.22303 0.16549 0.0
C934 C 0.50641 0.25438 0.14285 0.0
C935 C 0.54093 0.2697 0.12905 0.0
C936 C 0.4561 0.26693 0.14131 0.0
C937 C 0.52467 0.30009 0.1141 0.0
C938 C 0.47474 0.31484 0.11297 0.0
C939 C 0.38904 0.30923 0.12467 0.0
C940 C 0.35412 0.28867 0.13735 0.0
C941 C 0.4399 0.29765 0.12631 0.0
C942 C 0.371 0.25741 0.15192 0.0
C943 C 0.42145 0.24733 0.15409 0.0
H944 H 0.74763 0.35144 0.66023 0.0
H945 H 0.68976 0.35378 0.60319 0.0
H946 H 0.70091 0.4435 0.60187 0.0
H947 H 0.73173 0.52113 0.61645 0.0
H948 H 0.7796 0.51881 0.67496 0.0
H949 H 0.7646 0.43003 0.67648 0.0
C950 C 0.73609 0.37148 0.64767 0.0
C951 C 0.71899 0.34528 0.63168 0.0
C952 C 0.74015 0.42353 0.64734 0.0
C953 C 0.70509 0.37236 0.61545 0.0
C954 C 0.71066 0.42398 0.61478 0.0
C955 C 0.7378 0.50148 0.62967 0.0
C956 C 0.75751 0.52692 0.64544 0.0
C957 C 0.7289 0.44995 0.63056 0.0
C958 C 0.76469 0.50058 0.66249 0.0
C959 C 0.75655 0.44947 0.66338 0.0
H960 H 0.49849 0.76889 0.15969 0.0
H961 H 0.47083 0.6986 0.10567 0.0
H962 H 0.55851 0.67367 0.10386 0.0
H963 H 0.64421 0.67625 0.11714 0.0
H964 H 0.67015 0.75783 0.16896 0.0
H965 H 0.58184 0.77341 0.17221 0.0
C966 C 0.51111 0.74727 0.14761 0.0
C967 C 0.47777 0.73505 0.13295 0.0
C968 C 0.56157 0.73541 0.14625 0.0
C969 C 0.4955 0.70804 0.11726 0.0
C970 C 0.54571 0.69414 0.11617 0.0
C971 C 0.63051 0.69775 0.12904 0.0
C972 C 0.66392 0.71504 0.14298 0.0
C973 C 0.57935 0.70851 0.13044 0.0
C974 C 0.64539 0.74261 0.15836 0.0
C975 C 0.5948 0.75201 0.16015 0.0
H976 H 0.23866 0.4949 0.60415 0.0
H977 H 0.35031 0.45229 0.64474 0.0
H978 H 0.37516 0.53954 0.64838 0.0
H979 H 0.36068 0.62885 0.64151 0.0
H980 H 0.24019 0.67005 0.60444 0.0
H981 H 0.22327 0.58275 0.59782 0.0
C982 C 0.26941 0.50458 0.61338 0.0
C983 C 0.29359 0.46715 0.62378 0.0
C984 C 0.28121 0.55481 0.61626 0.0
C985 C 0.33194 0.48041 0.6363 0.0
C986 C 0.3457 0.53031 0.63852 0.0
C987 C 0.33045 0.61857 0.63214 0.0
C988 C 0.30181 0.65591 0.62341 0.0
C989 C 0.31976 0.56799 0.62891 0.0
C990 C 0.26315 0.64206 0.61113 0.0
C991 C 0.25339 0.59213 0.60737 0.0
H992 H 0.00534 0.21073 0.87779 0.0
H993 H 0.00253 0.29279 0.82521 0.0
H994 H 0.91412 0.27789 0.82204 0.0
H995 H 0.83569 0.24942 0.83578 0.0
H996 H 0.83893 0.15589 0.88538 0.0
H997 H 0.92816 0.16854 0.88835 0.0
C998 C 0.98556 0.22438 0.86545 0.0
C999 C 0.01085 0.25313 0.85188 0.0
C1000 C 0.93428 0.2148 0.86339 0.0
C1001 C 0.98446 0.2703 0.8359 0.0
C1002 C 0.93354 0.26222 0.8341 0.0
C1003 C 0.85585 0.23055 0.84695 0.0
C1004 C 0.82986 0.20308 0.86067 0.0
C1005 C 0.90779 0.23559 0.84799 0.0
C1006 C 0.85723 0.17932 0.87509 0.0
C1007 C 0.90861 0.18591 0.87668 0.0
H1008 H 0.77611 0.85204 0.34133 0.0
H1009 H 0.82853 0.85222 0.39916 0.0
H1010 H 0.81946 0.94217 0.40055 0.0
H1011 H 0.7912 0.02056 0.38582 0.0
H1012 H 0.74932 0.02004 0.32664 0.0
H1013 H 0.76311 0.93104 0.32502 0.0
C1014 C 0.78707 0.87154 0.35409 0.0
C1015 C 0.8017 0.8447 0.37026 0.0
C1016 C 0.78434 0.92365 0.35449 0.0
C1017 C 0.81485 0.87127 0.38673 0.0
C1018 C 0.81053 0.92302 0.38745 0.0
C1019 C 0.78628 1.00124 0.37244 0.0
C1020 C 0.7684 0.02724 0.3565 0.0
C1021 C 0.79443 0.9496 0.3715 0.0
C1022 C 0.76275 0.00136 0.33924 0.0
C1023 C 0.77017 0.95014 0.33829 0.0
H1024 H 0.97182 0.75827 0.84588 0.0
H1025 H 0.9511 0.82009 0.90186 0.0
H1026 H 0.03983 0.84095 0.90322 0.0
H1027 H 0.12449 0.83496 0.88928 0.0
H1028 H 0.14312 0.75931 0.8357 0.0
H1029 H 0.0539 0.75108 0.83255 0.0
C1030 C 0.98611 0.77726 0.85831 0.0
C1031 C 0.95445 0.78794 0.8737 0.0
C1032 C 0.03718 0.78618 0.85946 0.0
C1033 C 0.9744 0.81181 0.88974 0.0
C1034 C 0.02524 0.82326 0.89058 0.0
C1035 C 0.10906 0.81626 0.87702 0.0
C1036 C 0.14081 0.79845 0.8626 0.0
C1037 C 0.05727 0.80929 0.87572 0.0
C1038 C 0.11989 0.7749 0.84671 0.0
C1039 C 0.0687 0.76966 0.84498 0.0
H1040 H 0.16637 0.1287 0.34591 0.0
H1041 H 0.28049 0.17193 0.38543 0.0
H1042 H 0.29922 0.08487 0.392 0.0
H1043 H 0.28462 0.99666 0.38608 0.0
H1044 H 0.17541 0.9518 0.34483 0.0
H1045 H 0.15208 0.03886 0.33975 0.0
C1046 C 0.19568 0.11877 0.35575 0.0
C1047 C 0.22217 0.15642 0.36517 0.0
C1048 C 0.20621 0.06839 0.35949 0.0
C1049 C 0.25979 0.14339 0.37802 0.0
C1050 C 0.27021 0.09369 0.38189 0.0
C1051 C 0.25468 0.00582 0.37639 0.0
C1052 C 0.23088 0.96778 0.3662 0.0
C1053 C 0.24346 0.05589 0.37282 0.0
C1054 C 0.19351 0.98041 0.35313 0.0
C1055 C 0.18069 0.0302 0.35004 0.0
H1056 H 0.47593 0.7592 0.84257 0.0
H1057 H 0.44524 0.68683 0.89586 0.0
H1058 H 0.53372 0.66734 0.8995 0.0
H1059 H 0.62087 0.67757 0.88865 0.0
H1060 H 0.64933 0.76076 0.83751 0.0
H1061 H 0.56075 0.7692 0.83192 0.0
C1062 C 0.48815 0.73801 0.85479 0.0
C1063 C 0.45375 0.72403 0.86882 0.0
C1064 C 0.53904 0.72963 0.85731 0.0
C1065 C 0.4708 0.69758 0.88474 0.0
C1066 C 0.52147 0.68695 0.88692 0.0
C1067 C 0.60759 0.69783 0.87638 0.0
C1068 C 0.64182 0.718 0.86339 0.0
C1069 C 0.55615 0.70413 0.87356 0.0
C1070 C 0.62397 0.74374 0.84747 0.0
C1071 C 0.57321 0.74889 0.84431 0.0
H1072 H 0.29547 0.47849 0.34247 0.0
H1073 H 0.22963 0.47492 0.39838 0.0
H1074 H 0.2445 0.56289 0.40222 0.0
H1075 H 0.26639 0.64299 0.38837 0.0
H1076 H 0.34478 0.647 0.33509 0.0
H1077 H 0.33347 0.55743 0.33137 0.0
C1078 C 0.28546 0.49671 0.35565 0.0
C1079 C 0.26059 0.4698 0.36989 0.0
C1080 C 0.29503 0.54787 0.35808 0.0
C1081 C 0.24849 0.49423 0.38701 0.0
C1082 C 0.25661 0.54494 0.38925 0.0
C1083 C 0.28245 0.62425 0.37621 0.0
C1084 C 0.3052 0.65208 0.36182 0.0
C1085 C 0.2784 0.57242 0.37466 0.0
C1086 C 0.32528 0.62684 0.34607 0.0
C1087 C 0.31937 0.57545 0.34402 0.0
H1088 H 0.50492 0.3055 0.84438 0.0
H1089 H 0.50419 0.2253 0.8974 0.0
H1090 H 0.41657 0.24235 0.90145 0.0
H1091 H 0.33761 0.27154 0.88833 0.0
H1092 H 0.33841 0.36188 0.83791 0.0
H1093 H 0.42757 0.34881 0.83439 0.0
C1094 C 0.48578 0.29269 0.85699 0.0
C1095 C 0.51152 0.26387 0.87044 0.0
C1096 C 0.43482 0.30343 0.85955 0.0
C1097 C 0.48591 0.24786 0.88678 0.0
C1098 C 0.43537 0.2572 0.88911 0.0
C1099 C 0.35727 0.28957 0.87686 0.0
C1100 C 0.33063 0.31596 0.86301 0.0
C1101 C 0.4091 0.28382 0.87536 0.0
C1102 C 0.35734 0.33917 0.84829 0.0
C1103 C 0.40861 0.33221 0.84636 0.0
H1104 H 0.66268 0.36408 0.38435 0.0
H1105 H 0.767 0.33389 0.33935 0.0
H1106 H 0.78372 0.42211 0.33595 0.0
H1107 H 0.77193 0.50704 0.34634 0.0
H1108 H 0.67666 0.53939 0.39392 0.0
H1109 H 0.65275 0.45146 0.39567 0.0
C1110 C 0.68951 0.37694 0.37401 0.0
C1111 C 0.71333 0.34246 0.36202 0.0
C1112 C 0.70006 0.42815 0.37243 0.0
C1113 C 0.74759 0.35968 0.34853 0.0
C1114 C 0.75726 0.41015 0.34659 0.0
C1115 C 0.74497 0.49527 0.35684 0.0
C1116 C 0.72526 0.53001 0.36971 0.0
C1117 C 0.73372 0.44466 0.35841 0.0
C1118 C 0.6917 0.51354 0.38362 0.0
C1119 C 0.67847 0.46319 0.38475 0.0
H1120 H 0.99918 0.74102 0.16394 0.0
H1121 H 0.96573 0.81718 0.11168 0.0
H1122 H 0.05334 0.84043 0.10838 0.0
H1123 H 0.14074 0.83315 0.11928 0.0
H1124 H 0.17255 0.74693 0.16939 0.0
H1125 H 0.08443 0.73379 0.17463 0.0
C1126 C 0.01063 0.7638 0.15204 0.0
C1127 C 0.97574 0.77785 0.1382 0.0
C1128 C 0.06113 0.77457 0.14972 0.0
C1129 C 0.99173 0.80633 0.12264 0.0
C1130 C 0.0419 0.81916 0.12066 0.0
C1131 C 0.12831 0.8112 0.13124 0.0
C1132 C 0.1633 0.7916 0.14407 0.0
C1133 C 0.0772 0.80228 0.13385 0.0
C1134 C 0.14652 0.76362 0.1596 0.0
C1135 C 0.09604 0.75575 0.16255 0.0
H1136 H 0.25349 0.14521 0.65519 0.0
H1137 H 0.1731 0.14476 0.60225 0.0
H1138 H 0.18017 0.0546 0.60057 0.0
H1139 H 0.21472 0.97598 0.61326 0.0
H1140 H 0.28312 0.97703 0.6687 0.0
H1141 H 0.27201 0.06632 0.67081 0.0
C1142 C 0.23599 0.12562 0.64355 0.0
C1143 C 0.21409 0.15239 0.62861 0.0
C1144 C 0.2374 0.07346 0.64323 0.0
C1145 C 0.19238 0.12569 0.61355 0.0
C1146 C 0.19563 0.07386 0.61272 0.0
C1147 C 0.22595 0.99556 0.62601 0.0
C1148 C 0.25029 0.96959 0.64065 0.0
C1149 C 0.21895 0.04734 0.62732 0.0
C1150 C 0.26423 0.99568 0.65715 0.0
C1151 C 0.25844 0.04707 0.65833 0.0
H1152 H 0.85996 0.25166 0.11103 0.0
H1153 H 0.86516 0.14506 0.1565 0.0
H1154 H 0.95507 0.15688 0.15935 0.0
H1155 H 0.03235 0.20066 0.14932 0.0
H1156 H 0.02587 0.29622 0.10021 0.0
H1157 H 0.93714 0.28349 0.09776 0.0
C1158 C 0.88083 0.22986 0.12121 0.0
C1159 C 0.8557 0.19812 0.1337 0.0
C1160 C 0.93265 0.23447 0.12197 0.0
C1161 C 0.88341 0.17093 0.14705 0.0
C1162 C 0.93492 0.17724 0.14855 0.0
C1163 C 0.01158 0.21778 0.13789 0.0
C1164 C 0.03601 0.24935 0.12502 0.0
C1165 C 0.96001 0.20938 0.13617 0.0
C1166 C 0.00846 0.27124 0.11023 0.0
C1167 C 0.95739 0.26447 0.10888 0.0
H1168 H 0.74562 0.00785 0.65772 0.0
H1169 H 0.83252 0.03871 0.60775 0.0
H1170 H 0.85827 0.95139 0.60622 0.0
H1171 H 0.85189 0.86472 0.61823 0.0
H1172 H 0.75701 0.83501 0.66616 0.0
H1173 H 0.7387 0.92312 0.66935 0.0
C1174 C 0.77117 0.99589 0.64673 0.0
C1175 C 0.78777 0.03009 0.63306 0.0
C1176 C 0.78378 0.9454 0.64541 0.0
C1177 C 0.81971 0.01335 0.6186 0.0
C1178 C 0.83405 0.96329 0.61763 0.0
C1179 C 0.82687 0.87763 0.62923 0.0
C1180 C 0.80608 0.84328 0.64202 0.0
C1181 C 0.81543 0.92868 0.63072 0.0
C1182 C 0.77417 0.86065 0.65634 0.0
C1183 C 0.76351 0.91108 0.65814 0.0
loop_
_geom_bond_atom_site_label_1
_geom_bond_atom_site_label_2
_geom_bond_distance
_geom_bond_site_symmetry_2
_ccdc_geom_bond_type
Co0 O3 1.970 . S
Co0 N17 1.989 . S
Co0 O25 1.967 . S
Co0 O32 1.920 . S
Co1 O4 1.966 . S
Co1 N10 2.022 . S
Co1 N18 1.993 . S
Co1 O26 1.941 . S
C2 O3 1.258 . S
C2 O4 1.263 . S
O3 Co0 1.970 . S
O3 C2 1.258 . S
O4 Co1 1.966 . S
O4 C2 1.263 . S
C5 O6 1.235 . S
C5 O32 1.289 . S
O6 C5 1.235 . S
C7 C9 1.400 . S
C7 N10 1.351 . S
C7 C12 1.501 . S
C8 C9 1.387 . S
C8 N11 1.341 . S
C9 C7 1.400 . S
C9 C8 1.387 . S
N10 Co1 2.022 . S
N10 C7 1.351 . S
N10 N11 1.365 . S
N11 C8 1.341 . S
N11 N10 1.365 . S
N11 H31 0.862 . S
C12 C7 1.501 . S
C12 H13 0.961 . S
C12 H14 0.961 . S
C12 H15 0.960 . S
H13 C12 0.961 . S
H14 C12 0.961 . S
H15 C12 0.960 . S
C16 N17 1.342 . S
C16 C20 1.401 . S
C16 C21 1.499 . S
N17 Co0 1.989 . S
N17 C16 1.342 . S
N17 N18 1.388 . S
N18 Co1 1.993 . S
N18 N17 1.388 . S
N18 C19 1.346 . S
C19 N18 1.346 . S
C19 C20 1.396 . S
C19 C29 1.510 . S
C20 C16 1.401 . S
C20 C19 1.396 . S
C21 C16 1.499 . S
C21 H22 0.959 . S
C21 H23 0.960 . S
C21 H24 0.961 . S
H22 C21 0.959 . S
H23 C21 0.960 . S
H24 C21 0.961 . S
O25 Co0 1.967 . S
O25 C33 1.258 . S
O26 Co1 1.941 . S
O26 C33 1.266 . S
H27 C29 0.959 . S
H28 C29 0.961 . S
C29 C19 1.510 . S
C29 H27 0.959 . S
C29 H28 0.961 . S
C29 H30 0.960 . S
H30 C29 0.960 . S
H31 N11 0.862 . S
O32 Co0 1.920 . S
O32 C5 1.289 . S
C33 O25 1.258 . S
C33 O26 1.266 . S
Co34 O37 1.970 . S
Co34 N51 1.989 . S
Co34 O59 1.967 . S
Co34 O66 1.920 . S
Co35 O38 1.966 . S
Co35 N44 2.022 . S
Co35 N52 1.993 . S
Co35 O60 1.941 . S
C36 O37 1.258 . S
C36 O38 1.263 . S
O37 Co34 1.970 . S
O37 C36 1.258 . S
O38 Co35 1.966 . S
O38 C36 1.263 . S
C39 O40 1.235 . S
C39 O66 1.289 . S
O40 C39 1.235 . S
C41 C43 1.400 . S
C41 N44 1.351 . S
C41 C46 1.501 . S
C42 C43 1.387 . S
C42 N45 1.341 . S
C43 C41 1.400 . S
C43 C42 1.387 . S
N44 Co35 2.022 . S
N44 C41 1.351 . S
N44 N45 1.365 . S
N45 C42 1.341 . S
N45 N44 1.365 . S
N45 H65 0.862 . S
C46 C41 1.501 . S
C46 H47 0.961 . S
C46 H48 0.961 . S
C46 H49 0.960 . S
H47 C46 0.961 . S
H48 C46 0.961 . S
H49 C46 0.960 . S
C50 N51 1.342 . S
C50 C54 1.401 . S
C50 C55 1.499 . S
N51 Co34 1.989 . S
N51 C50 1.342 . S
N51 N52 1.388 . S
N52 Co35 1.993 . S
N52 N51 1.388 . S
N52 C53 1.346 . S
C53 N52 1.346 . S
C53 C54 1.396 . S
C53 C63 1.510 . S
C54 C50 1.401 . S
C54 C53 1.396 . S
C55 C50 1.499 . S
C55 H56 0.959 . S
C55 H57 0.960 . S
C55 H58 0.961 . S
H56 C55 0.959 . S
H57 C55 0.960 . S
H58 C55 0.961 . S
O59 Co34 1.967 . S
O59 C67 1.258 . S
O60 Co35 1.941 . S
O60 C67 1.266 . S
H61 C63 0.959 . S
H62 C63 0.961 . S
C63 C53 1.510 . S
C63 H61 0.959 . S
C63 H62 0.961 . S
C63 H64 0.960 . S
H64 C63 0.960 . S
H65 N45 0.862 . S
O66 Co34 1.920 . S
O66 C39 1.289 . S
C67 O59 1.258 . S
C67 O60 1.266 . S
Co68 O71 1.970 . S
Co68 N85 1.989 . S
Co68 O93 1.967 . S
Co68 O100 1.920 . S
Co69 O72 1.966 . S
Co69 N78 2.022 . S
Co69 N86 1.993 . S
Co69 O94 1.941 . S
C70 O71 1.258 . S
C70 O72 1.263 . S
O71 Co68 1.970 . S
O71 C70 1.258 . S
O72 Co69 1.966 . S
O72 C70 1.263 . S
C73 O74 1.235 . S
C73 O100 1.289 . S
O74 C73 1.235 . S
C75 C77 1.400 . S
C75 N78 1.351 . S
C75 C80 1.501 . S
C76 C77 1.387 . S
C76 N79 1.341 . S
C77 C75 1.400 . S
C77 C76 1.387 . S
N78 Co69 2.022 . S
N78 C75 1.351 . S
N78 N79 1.365 . S
N79 C76 1.341 . S
N79 N78 1.365 . S
N79 H99 0.862 . S
C80 C75 1.501 . S
C80 H81 0.961 . S
C80 H82 0.961 . S
C80 H83 0.960 . S
H81 C80 0.961 . S
H82 C80 0.961 . S
H83 C80 0.960 . S
C84 N85 1.342 . S
C84 C88 1.401 . S
C84 C89 1.499 . S
N85 Co68 1.989 . S
N85 C84 1.342 . S
N85 N86 1.388 . S
N86 Co69 1.993 . S
N86 N85 1.388 . S
N86 C87 1.346 . S
C87 N86 1.346 . S
C87 C88 1.396 . S
C87 C97 1.510 . S
C88 C84 1.401 . S
C88 C87 1.396 . S
C89 C84 1.499 . S
C89 H90 0.959 . S
C89 H91 0.960 . S
C89 H92 0.961 . S
H90 C89 0.959 . S
H91 C89 0.960 . S
H92 C89 0.961 . S
O93 Co68 1.967 . S
O93 C101 1.258 . S
O94 Co69 1.941 . S
O94 C101 1.266 . S
H95 C97 0.959 . S
H96 C97 0.961 . S
C97 C87 1.510 . S
C97 H95 0.959 . S
C97 H96 0.961 . S
C97 H98 0.960 . S
H98 C97 0.960 . S
H99 N79 0.862 . S
O100 Co68 1.920 . S
O100 C73 1.289 . S
C101 O93 1.258 . S
C101 O94 1.266 . S
Co102 O105 1.970 . S
Co102 N119 1.989 . S
Co102 O127 1.967 . S
Co102 O134 1.920 . S
Co103 O106 1.966 . S
Co103 N112 2.022 . S
Co103 N120 1.993 . S
Co103 O128 1.941 . S
C104 O105 1.258 . S
C104 O106 1.263 . S
O105 Co102 1.970 . S
O105 C104 1.258 . S
O106 Co103 1.966 . S
O106 C104 1.263 . S
C107 O108 1.235 . S
C107 O134 1.289 . S
O108 C107 1.235 . S
C109 C111 1.400 . S
C109 N112 1.351 . S
C109 C114 1.501 . S
C110 C111 1.387 . S
C110 N113 1.341 . S
C111 C109 1.400 . S
C111 C110 1.387 . S
N112 Co103 2.022 . S
N112 C109 1.351 . S
N112 N113 1.365 . S
N113 C110 1.341 . S
N113 N112 1.365 . S
N113 H133 0.862 . S
C114 C109 1.501 . S
C114 H115 0.961 . S
C114 H116 0.961 . S
C114 H117 0.960 . S
H115 C114 0.961 . S
H116 C114 0.961 . S
H117 C114 0.960 . S
C118 N119 1.342 . S
C118 C122 1.401 . S
C118 C123 1.499 . S
N119 Co102 1.989 . S
N119 C118 1.342 . S
N119 N120 1.388 . S
N120 Co103 1.993 . S
N120 N119 1.388 . S
N120 C121 1.346 . S
C121 N120 1.346 . S
C121 C122 1.396 . S
C121 C131 1.510 . S
C122 C118 1.401 . S
C122 C121 1.396 . S
C123 C118 1.499 . S
C123 H124 0.959 . S
C123 H125 0.960 . S
C123 H126 0.961 . S
H124 C123 0.959 . S
H125 C123 0.960 . S
H126 C123 0.961 . S
O127 Co102 1.967 . S
O127 C135 1.258 . S
O128 Co103 1.941 . S
O128 C135 1.266 . S
H129 C131 0.959 . S
H130 C131 0.961 . S
C131 C121 1.510 . S
C131 H129 0.959 . S
C131 H130 0.961 . S
C131 H132 0.960 . S
H132 C131 0.960 . S
H133 N113 0.862 . S
O134 Co102 1.920 . S
O134 C107 1.289 . S
C135 O127 1.258 . S
C135 O128 1.266 . S
Co136 O139 1.970 . S
Co136 N153 1.989 . S
Co136 O161 1.967 . S
Co136 O168 1.920 . S
Co137 O140 1.966 . S
Co137 N146 2.022 . S
Co137 N154 1.993 . S
Co137 O162 1.941 . S
C138 O139 1.258 . S
C138 O140 1.263 . S
O139 Co136 1.970 . S
O139 C138 1.258 . S
O140 Co137 1.966 . S
O140 C138 1.263 . S
C141 O142 1.235 . S
C141 O168 1.289 . S
O142 C141 1.235 . S
C143 C145 1.400 . S
C143 N146 1.351 . S
C143 C148 1.501 . S
C144 C145 1.387 . S
C144 N147 1.341 . S
C145 C143 1.400 . S
C145 C144 1.387 . S
N146 Co137 2.022 . S
N146 C143 1.351 . S
N146 N147 1.365 . S
N147 C144 1.341 . S
N147 N146 1.365 . S
N147 H167 0.862 . S
C148 C143 1.501 . S
C148 H149 0.961 . S
C148 H150 0.961 . S
C148 H151 0.960 . S
H149 C148 0.961 . S
H150 C148 0.961 . S
H151 C148 0.960 . S
C152 N153 1.342 . S
C152 C156 1.401 . S
C152 C157 1.499 . S
N153 Co136 1.989 . S
N153 C152 1.342 . S
N153 N154 1.388 . S
N154 Co137 1.993 . S
N154 N153 1.388 . S
N154 C155 1.346 . S
C155 N154 1.346 . S
C155 C156 1.396 . S
C155 C165 1.510 . S
C156 C152 1.401 . S
C156 C155 1.396 . S
C157 C152 1.499 . S
C157 H158 0.959 . S
C157 H159 0.960 . S
C157 H160 0.961 . S
H158 C157 0.959 . S
H159 C157 0.960 . S
H160 C157 0.961 . S
O161 Co136 1.967 . S
O161 C169 1.258 . S
O162 Co137 1.941 . S
O162 C169 1.266 . S
H163 C165 0.959 . S
H164 C165 0.961 . S
C165 C155 1.510 . S
C165 H163 0.959 . S
C165 H164 0.961 . S
C165 H166 0.960 . S
H166 C165 0.960 . S
H167 N147 0.862 . S
O168 Co136 1.920 . S
O168 C141 1.289 . S
C169 O161 1.258 . S
C169 O162 1.266 . S
Co170 O173 1.970 . S
Co170 N187 1.989 . S
Co170 O195 1.967 . S
Co170 O202 1.920 . S
Co171 O174 1.966 . S
Co171 N180 2.022 . S
Co171 N188 1.993 . S
Co171 O196 1.941 . S
C172 O173 1.258 . S
C172 O174 1.263 . S
O173 Co170 1.970 . S
O173 C172 1.258 . S
O174 Co171 1.966 . S
O174 C172 1.263 . S
C175 O176 1.235 . S
C175 O202 1.289 . S
O176 C175 1.235 . S
C177 C179 1.400 . S
C177 N180 1.351 . S
C177 C182 1.501 . S
C178 C179 1.387 . S
C178 N181 1.341 . S
C179 C177 1.400 . S
C179 C178 1.387 . S
N180 Co171 2.022 . S
N180 C177 1.351 . S
N180 N181 1.365 . S
N181 C178 1.341 . S
N181 N180 1.365 . S
N181 H201 0.862 . S
C182 C177 1.501 . S
C182 H183 0.961 . S
C182 H184 0.961 . S
C182 H185 0.960 . S
H183 C182 0.961 . S
H184 C182 0.961 . S
H185 C182 0.960 . S
C186 N187 1.342 . S
C186 C190 1.401 . S
C186 C191 1.499 . S
N187 Co170 1.989 . S
N187 C186 1.342 . S
N187 N188 1.388 . S
N188 Co171 1.993 . S
N188 N187 1.388 . S
N188 C189 1.346 . S
C189 N188 1.346 . S
C189 C190 1.396 . S
C189 C199 1.510 . S
C190 C186 1.401 . S
C190 C189 1.396 . S
C191 C186 1.499 . S
C191 H192 0.959 . S
C191 H193 0.960 . S
C191 H194 0.961 . S
H192 C191 0.959 . S
H193 C191 0.960 . S
H194 C191 0.961 . S
O195 Co170 1.967 . S
O195 C203 1.258 . S
O196 Co171 1.941 . S
O196 C203 1.266 . S
H197 C199 0.959 . S
H198 C199 0.961 . S
C199 C189 1.510 . S
C199 H197 0.959 . S
C199 H198 0.961 . S
C199 H200 0.960 . S
H200 C199 0.960 . S
H201 N181 0.862 . S
O202 Co170 1.920 . S
O202 C175 1.289 . S
C203 O195 1.258 . S
C203 O196 1.266 . S
Co204 O207 1.970 . S
Co204 N221 1.989 . S
Co204 O229 1.967 . S
Co204 O236 1.920 . S
Co205 O208 1.966 . S
Co205 N214 2.022 . S
Co205 N222 1.993 . S
Co205 O230 1.941 . S
C206 O207 1.258 . S
C206 O208 1.263 . S
O207 Co204 1.970 . S
O207 C206 1.258 . S
O208 Co205 1.966 . S
O208 C206 1.263 . S
C209 O210 1.235 . S
C209 O236 1.289 . S
O210 C209 1.235 . S
C211 C213 1.400 . S
C211 N214 1.351 . S
C211 C216 1.501 . S
C212 C213 1.387 . S
C212 N215 1.341 . S
C213 C211 1.400 . S
C213 C212 1.387 . S
N214 Co205 2.022 . S
N214 C211 1.351 . S
N214 N215 1.365 . S
N215 C212 1.341 . S
N215 N214 1.365 . S
N215 H235 0.862 . S
C216 C211 1.501 . S
C216 H217 0.961 . S
C216 H218 0.961 . S
C216 H219 0.960 . S
H217 C216 0.961 . S
H218 C216 0.961 . S
H219 C216 0.960 . S
C220 N221 1.342 . S
C220 C224 1.401 . S
C220 C225 1.499 . S
N221 Co204 1.989 . S
N221 C220 1.342 . S
N221 N222 1.388 . S
N222 Co205 1.993 . S
N222 N221 1.388 . S
N222 C223 1.346 . S
C223 N222 1.346 . S
C223 C224 1.396 . S
C223 C233 1.510 . S
C224 C220 1.401 . S
C224 C223 1.396 . S
C225 C220 1.499 . S
C225 H226 0.959 . S
C225 H227 0.960 . S
C225 H228 0.961 . S
H226 C225 0.959 . S
H227 C225 0.960 . S
H228 C225 0.961 . S
O229 Co204 1.967 . S
O229 C237 1.258 . S
O230 Co205 1.941 . S
O230 C237 1.266 . S
H231 C233 0.959 . S
H232 C233 0.961 . S
C233 C223 1.510 . S
C233 H231 0.959 . S
C233 H232 0.961 . S
C233 H234 0.960 . S
H234 C233 0.960 . S
H235 N215 0.862 . S
O236 Co204 1.920 . S
O236 C209 1.289 . S
C237 O229 1.258 . S
C237 O230 1.266 . S
Co238 O241 1.970 . S
Co238 N255 1.989 . S
Co238 O263 1.967 . S
Co238 O270 1.920 . S
Co239 O242 1.966 . S
Co239 N248 2.022 . S
Co239 N256 1.993 . S
Co239 O264 1.941 . S
C240 O241 1.258 . S
C240 O242 1.263 . S
O241 Co238 1.970 . S
O241 C240 1.258 . S
O242 Co239 1.966 . S
O242 C240 1.263 . S
C243 O244 1.235 . S
C243 O270 1.289 . S
O244 C243 1.235 . S
C245 C247 1.400 . S
C245 N248 1.351 . S
C245 C250 1.501 . S
C246 C247 1.387 . S
C246 N249 1.341 . S
C247 C245 1.400 . S
C247 C246 1.387 . S
N248 Co239 2.022 . S
N248 C245 1.351 . S
N248 N249 1.365 . S
N249 C246 1.341 . S
N249 N248 1.365 . S
N249 H269 0.862 . S
C250 C245 1.501 . S
C250 H251 0.961 . S
C250 H252 0.961 . S
C250 H253 0.960 . S
H251 C250 0.961 . S
H252 C250 0.961 . S
H253 C250 0.960 . S
C254 N255 1.342 . S
C254 C258 1.401 . S
C254 C259 1.499 . S
N255 Co238 1.989 . S
N255 C254 1.342 . S
N255 N256 1.388 . S
N256 Co239 1.993 . S
N256 N255 1.388 . S
N256 C257 1.346 . S
C257 N256 1.346 . S
C257 C258 1.396 . S
C257 C267 1.510 . S
C258 C254 1.401 . S
C258 C257 1.396 . S
C259 C254 1.499 . S
C259 H260 0.959 . S
C259 H261 0.960 . S
C259 H262 0.961 . S
H260 C259 0.959 . S
H261 C259 0.960 . S
H262 C259 0.961 . S
O263 Co238 1.967 . S
O263 C271 1.258 . S
O264 Co239 1.941 . S
O264 C271 1.266 . S
H265 C267 0.959 . S
H266 C267 0.961 . S
C267 C257 1.510 . S
C267 H265 0.959 . S
C267 H266 0.961 . S
C267 H268 0.960 . S
H268 C267 0.960 . S
H269 N249 0.862 . S
O270 Co238 1.920 . S
O270 C243 1.289 . S
C271 O263 1.258 . S
C271 O264 1.266 . S
Co272 O275 1.970 . S
Co272 N289 1.989 . S
Co272 O297 1.967 . S
Co272 O304 1.920 . S
Co273 O276 1.966 . S
Co273 N282 2.022 . S
Co273 N290 1.993 . S
Co273 O298 1.941 . S
C274 O275 1.258 . S
C274 O276 1.263 . S
O275 Co272 1.970 . S
O275 C274 1.258 . S
O276 Co273 1.966 . S
O276 C274 1.263 . S
C277 O278 1.235 . S
C277 O304 1.289 . S
O278 C277 1.235 . S
C279 C281 1.400 . S
C279 N282 1.351 . S
C279 C284 1.501 . S
C280 C281 1.387 . S
C280 N283 1.341 . S
C281 C279 1.400 . S
C281 C280 1.387 . S
N282 Co273 2.022 . S
N282 C279 1.351 . S
N282 N283 1.365 . S
N283 C280 1.341 . S
N283 N282 1.365 . S
N283 H303 0.862 . S
C284 C279 1.501 . S
C284 H285 0.961 . S
C284 H286 0.961 . S
C284 H287 0.960 . S
H285 C284 0.961 . S
H286 C284 0.961 . S
H287 C284 0.960 . S
C288 N289 1.342 . S
C288 C292 1.401 . S
C288 C293 1.499 . S
N289 Co272 1.989 . S
N289 C288 1.342 . S
N289 N290 1.388 . S
N290 Co273 1.993 . S
N290 N289 1.388 . S
N290 C291 1.346 . S
C291 N290 1.346 . S
C291 C292 1.396 . S
C291 C301 1.510 . S
C292 C288 1.401 . S
C292 C291 1.396 . S
C293 C288 1.499 . S
C293 H294 0.959 . S
C293 H295 0.960 . S
C293 H296 0.961 . S
H294 C293 0.959 . S
H295 C293 0.960 . S
H296 C293 0.961 . S
O297 Co272 1.967 . S
O297 C305 1.258 . S
O298 Co273 1.941 . S
O298 C305 1.266 . S
H299 C301 0.959 . S
H300 C301 0.961 . S
C301 C291 1.510 . S
C301 H299 0.959 . S
C301 H300 0.961 . S
C301 H302 0.960 . S
H302 C301 0.960 . S
H303 N283 0.862 . S
O304 Co272 1.920 . S
O304 C277 1.289 . S
C305 O297 1.258 . S
C305 O298 1.266 . S
Co306 O309 1.970 . S
Co306 N323 1.989 . S
Co306 O331 1.967 . S
Co306 O338 1.920 . S
Co307 O310 1.966 . S
Co307 N316 2.022 . S
Co307 N324 1.993 . S
Co307 O332 1.941 . S
C308 O309 1.258 . S
C308 O310 1.263 . S
O309 Co306 1.970 . S
O309 C308 1.258 . S
O310 Co307 1.966 . S
O310 C308 1.263 . S
C311 O312 1.235 . S
C311 O338 1.289 . S
O312 C311 1.235 . S
C313 C315 1.400 . S
C313 N316 1.351 . S
C313 C318 1.501 . S
C314 C315 1.387 . S
C314 N317 1.341 . S
C315 C313 1.400 . S
C315 C314 1.387 . S
N316 Co307 2.022 . S
N316 C313 1.351 . S
N316 N317 1.365 . S
N317 C314 1.341 . S
N317 N316 1.365 . S
N317 H337 0.862 . S
C318 C313 1.501 . S
C318 H319 0.961 . S
C318 H320 0.961 . S
C318 H321 0.960 . S
H319 C318 0.961 . S
H320 C318 0.961 . S
H321 C318 0.960 . S
C322 N323 1.342 . S
C322 C326 1.401 . S
C322 C327 1.499 . S
N323 Co306 1.989 . S
N323 C322 1.342 . S
N323 N324 1.388 . S
N324 Co307 1.993 . S
N324 N323 1.388 . S
N324 C325 1.346 . S
C325 N324 1.346 . S
C325 C326 1.396 . S
C325 C335 1.510 . S
C326 C322 1.401 . S
C326 C325 1.396 . S
C327 C322 1.499 . S
C327 H328 0.959 . S
C327 H329 0.960 . S
C327 H330 0.961 . S
H328 C327 0.959 . S
H329 C327 0.960 . S
H330 C327 0.961 . S
O331 Co306 1.967 . S
O331 C339 1.258 . S
O332 Co307 1.941 . S
O332 C339 1.266 . S
H333 C335 0.959 . S
H334 C335 0.961 . S
C335 C325 1.510 . S
C335 H333 0.959 . S
C335 H334 0.961 . S
C335 H336 0.960 . S
H336 C335 0.960 . S
H337 N317 0.862 . S
O338 Co306 1.920 . S
O338 C311 1.289 . S
C339 O331 1.258 . S
C339 O332 1.266 . S
Co340 O343 1.970 . S
Co340 N357 1.989 . S
Co340 O365 1.967 . S
Co340 O372 1.920 . S
Co341 O344 1.966 . S
Co341 N350 2.022 . S
Co341 N358 1.993 . S
Co341 O366 1.941 . S
C342 O343 1.258 . S
C342 O344 1.263 . S
O343 Co340 1.970 . S
O343 C342 1.258 . S
O344 Co341 1.966 . S
O344 C342 1.263 . S
C345 O346 1.235 . S
C345 O372 1.289 . S
O346 C345 1.235 . S
C347 C349 1.400 . S
C347 N350 1.351 . S
C347 C352 1.501 . S
C348 C349 1.387 . S
C348 N351 1.341 . S
C349 C347 1.400 . S
C349 C348 1.387 . S
N350 Co341 2.022 . S
N350 C347 1.351 . S
N350 N351 1.365 . S
N351 C348 1.341 . S
N351 N350 1.365 . S
N351 H371 0.862 . S
C352 C347 1.501 . S
C352 H353 0.961 . S
C352 H354 0.961 . S
C352 H355 0.960 . S
H353 C352 0.961 . S
H354 C352 0.961 . S
H355 C352 0.960 . S
C356 N357 1.342 . S
C356 C360 1.401 . S
C356 C361 1.499 . S
N357 Co340 1.989 . S
N357 C356 1.342 . S
N357 N358 1.388 . S
N358 Co341 1.993 . S
N358 N357 1.388 . S
N358 C359 1.346 . S
C359 N358 1.346 . S
C359 C360 1.396 . S
C359 C369 1.510 . S
C360 C356 1.401 . S
C360 C359 1.396 . S
C361 C356 1.499 . S
C361 H362 0.959 . S
C361 H363 0.960 . S
C361 H364 0.961 . S
H362 C361 0.959 . S
H363 C361 0.960 . S
H364 C361 0.961 . S
O365 Co340 1.967 . S
O365 C373 1.258 . S
O366 Co341 1.941 . S
O366 C373 1.266 . S
H367 C369 0.959 . S
H368 C369 0.961 . S
C369 C359 1.510 . S
C369 H367 0.959 . S
C369 H368 0.961 . S
C369 H370 0.960 . S
H370 C369 0.960 . S
H371 N351 0.862 . S
O372 Co340 1.920 . S
O372 C345 1.289 . S
C373 O365 1.258 . S
C373 O366 1.266 . S
Co374 O377 1.970 . S
Co374 N391 1.989 . S
Co374 O399 1.967 . S
Co374 O406 1.920 . S
Co375 O378 1.966 . S
Co375 N384 2.022 . S
Co375 N392 1.993 . S
Co375 O400 1.941 . S
C376 O377 1.258 . S
C376 O378 1.263 . S
O377 Co374 1.970 . S
O377 C376 1.258 . S
O378 Co375 1.966 . S
O378 C376 1.263 . S
C379 O380 1.235 . S
C379 O406 1.289 . S
O380 C379 1.235 . S
C381 C383 1.400 . S
C381 N384 1.351 . S
C381 C386 1.501 . S
C382 C383 1.387 . S
C382 N385 1.341 . S
C383 C381 1.400 . S
C383 C382 1.387 . S
N384 Co375 2.022 . S
N384 C381 1.351 . S
N384 N385 1.365 . S
N385 C382 1.341 . S
N385 N384 1.365 . S
N385 H405 0.862 . S
C386 C381 1.501 . S
C386 H387 0.961 . S
C386 H388 0.961 . S
C386 H389 0.960 . S
H387 C386 0.961 . S
H388 C386 0.961 . S
H389 C386 0.960 . S
C390 N391 1.342 . S
C390 C394 1.401 . S
C390 C395 1.499 . S
N391 Co374 1.989 . S
N391 C390 1.342 . S
N391 N392 1.388 . S
N392 Co375 1.993 . S
N392 N391 1.388 . S
N392 C393 1.346 . S
C393 N392 1.346 . S
C393 C394 1.396 . S
C393 C403 1.510 . S
C394 C390 1.401 . S
C394 C393 1.396 . S
C395 C390 1.499 . S
C395 H396 0.959 . S
C395 H397 0.960 . S
C395 H398 0.961 . S
H396 C395 0.959 . S
H397 C395 0.960 . S
H398 C395 0.961 . S
O399 Co374 1.967 . S
O399 C407 1.258 . S
O400 Co375 1.941 . S
O400 C407 1.266 . S
H401 C403 0.959 . S
H402 C403 0.961 . S
C403 C393 1.510 . S
C403 H401 0.959 . S
C403 H402 0.961 . S
C403 H404 0.960 . S
H404 C403 0.960 . S
H405 N385 0.862 . S
O406 Co374 1.920 . S
O406 C379 1.289 . S
C407 O399 1.258 . S
C407 O400 1.266 . S
Co408 O411 1.970 . S
Co408 N425 1.989 . S
Co408 O433 1.967 . S
Co408 O440 1.920 . S
Co409 O412 1.966 . S
Co409 N418 2.022 . S
Co409 N426 1.993 . S
Co409 O434 1.941 . S
C410 O411 1.258 . S
C410 O412 1.263 . S
O411 Co408 1.970 . S
O411 C410 1.258 . S
O412 Co409 1.966 . S
O412 C410 1.263 . S
C413 O414 1.235 . S
C413 O440 1.289 . S
O414 C413 1.235 . S
C415 C417 1.400 . S
C415 N418 1.351 . S
C415 C420 1.501 . S
C416 C417 1.387 . S
C416 N419 1.341 . S
C417 C415 1.400 . S
C417 C416 1.387 . S
N418 Co409 2.022 . S
N418 C415 1.351 . S
N418 N419 1.365 . S
N419 C416 1.341 . S
N419 N418 1.365 . S
N419 H439 0.862 . S
C420 C415 1.501 . S
C420 H421 0.961 . S
C420 H422 0.961 . S
C420 H423 0.960 . S
H421 C420 0.961 . S
H422 C420 0.961 . S
H423 C420 0.960 . S
C424 N425 1.342 . S
C424 C428 1.401 . S
C424 C429 1.499 . S
N425 Co408 1.989 . S
N425 C424 1.342 . S
N425 N426 1.388 . S
N426 Co409 1.993 . S
N426 N425 1.388 . S
N426 C427 1.346 . S
C427 N426 1.346 . S
C427 C428 1.396 . S
C427 C437 1.510 . S
C428 C424 1.401 . S
C428 C427 1.396 . S
C429 C424 1.499 . S
C429 H430 0.959 . S
C429 H431 0.960 . S
C429 H432 0.961 . S
H430 C429 0.959 . S
H431 C429 0.960 . S
H432 C429 0.961 . S
O433 Co408 1.967 . S
O433 C441 1.258 . S
O434 Co409 1.941 . S
O434 C441 1.266 . S
H435 C437 0.959 . S
H436 C437 0.961 . S
C437 C427 1.510 . S
C437 H435 0.959 . S
C437 H436 0.961 . S
C437 H438 0.960 . S
H438 C437 0.960 . S
H439 N419 0.862 . S
O440 Co408 1.920 . S
O440 C413 1.289 . S
C441 O433 1.258 . S
C441 O434 1.266 . S
Co442 O445 1.970 . S
Co442 N459 1.989 . S
Co442 O467 1.967 . S
Co442 O474 1.920 . S
Co443 O446 1.966 . S
Co443 N452 2.022 . S
Co443 N460 1.993 . S
Co443 O468 1.941 . S
C444 O445 1.258 . S
C444 O446 1.263 . S
O445 Co442 1.970 . S
O445 C444 1.258 . S
O446 Co443 1.966 . S
O446 C444 1.263 . S
C447 O448 1.235 . S
C447 O474 1.289 . S
O448 C447 1.235 . S
C449 C451 1.400 . S
C449 N452 1.351 . S
C449 C454 1.501 . S
C450 C451 1.387 . S
C450 N453 1.341 . S
C451 C449 1.400 . S
C451 C450 1.387 . S
N452 Co443 2.022 . S
N452 C449 1.351 . S
N452 N453 1.365 . S
N453 C450 1.341 . S
N453 N452 1.365 . S
N453 H473 0.862 . S
C454 C449 1.501 . S
C454 H455 0.961 . S
C454 H456 0.961 . S
C454 H457 0.960 . S
H455 C454 0.961 . S
H456 C454 0.961 . S
H457 C454 0.960 . S
C458 N459 1.342 . S
C458 C462 1.401 . S
C458 C463 1.499 . S
N459 Co442 1.989 . S
N459 C458 1.342 . S
N459 N460 1.388 . S
N460 Co443 1.993 . S
N460 N459 1.388 . S
N460 C461 1.346 . S
C461 N460 1.346 . S
C461 C462 1.396 . S
C461 C471 1.510 . S
C462 C458 1.401 . S
C462 C461 1.396 . S
C463 C458 1.499 . S
C463 H464 0.959 . S
C463 H465 0.960 . S
C463 H466 0.961 . S
H464 C463 0.959 . S
H465 C463 0.960 . S
H466 C463 0.961 . S
O467 Co442 1.967 . S
O467 C475 1.258 . S
O468 Co443 1.941 . S
O468 C475 1.266 . S
H469 C471 0.959 . S
H470 C471 0.961 . S
C471 C461 1.510 . S
C471 H469 0.959 . S
C471 H470 0.961 . S
C471 H472 0.960 . S
H472 C471 0.960 . S
H473 N453 0.862 . S
O474 Co442 1.920 . S
O474 C447 1.289 . S
C475 O467 1.258 . S
C475 O468 1.266 . S
Co476 O479 1.970 . S
Co476 N493 1.989 . S
Co476 O501 1.967 . S
Co476 O508 1.920 . S
Co477 O480 1.966 . S
Co477 N486 2.022 . S
Co477 N494 1.993 . S
Co477 O502 1.941 . S
C478 O479 1.258 . S
C478 O480 1.263 . S
O479 Co476 1.970 . S
O479 C478 1.258 . S
O480 Co477 1.966 . S
O480 C478 1.263 . S
C481 O482 1.235 . S
C481 O508 1.289 . S
O482 C481 1.235 . S
C483 C485 1.400 . S
C483 N486 1.351 . S
C483 C488 1.501 . S
C484 C485 1.387 . S
C484 N487 1.341 . S
C485 C483 1.400 . S
C485 C484 1.387 . S
N486 Co477 2.022 . S
N486 C483 1.351 . S
N486 N487 1.365 . S
N487 C484 1.341 . S
N487 N486 1.365 . S
N487 H507 0.862 . S
C488 C483 1.501 . S
C488 H489 0.961 . S
C488 H490 0.961 . S
C488 H491 0.960 . S
H489 C488 0.961 . S
H490 C488 0.961 . S
H491 C488 0.960 . S
C492 N493 1.342 . S
C492 C496 1.401 . S
C492 C497 1.499 . S
N493 Co476 1.989 . S
N493 C492 1.342 . S
N493 N494 1.388 . S
N494 Co477 1.993 . S
N494 N493 1.388 . S
N494 C495 1.346 . S
C495 N494 1.346 . S
C495 C496 1.396 . S
C495 C505 1.510 . S
C496 C492 1.401 . S
C496 C495 1.396 . S
C497 C492 1.499 . S
C497 H498 0.959 . S
C497 H499 0.960 . S
C497 H500 0.961 . S
H498 C497 0.959 . S
H499 C497 0.960 . S
H500 C497 0.961 . S
O501 Co476 1.967 . S
O501 C509 1.258 . S
O502 Co477 1.941 . S
O502 C509 1.266 . S
H503 C505 0.959 . S
H504 C505 0.961 . S
C505 C495 1.510 . S
C505 H503 0.959 . S
C505 H504 0.961 . S
C505 H506 0.960 . S
H506 C505 0.960 . S
H507 N487 0.862 . S
O508 Co476 1.920 . S
O508 C481 1.289 . S
C509 O501 1.258 . S
C509 O502 1.266 . S
Co510 O513 1.970 . S
Co510 N527 1.989 . S
Co510 O535 1.967 . S
Co510 O542 1.920 . S
Co511 O514 1.966 . S
Co511 N520 2.022 . S
Co511 N528 1.993 . S
Co511 O536 1.941 . S
C512 O513 1.258 . S
C512 O514 1.263 . S
O513 Co510 1.970 . S
O513 C512 1.258 . S
O514 Co511 1.966 . S
O514 C512 1.263 . S
C515 O516 1.235 . S
C515 O542 1.289 . S
O516 C515 1.235 . S
C517 C519 1.400 . S
C517 N520 1.351 . S
C517 C522 1.501 . S
C518 C519 1.387 . S
C518 N521 1.341 . S
C519 C517 1.400 . S
C519 C518 1.387 . S
N520 Co511 2.022 . S
N520 C517 1.351 . S
N520 N521 1.365 . S
N521 C518 1.341 . S
N521 N520 1.365 . S
N521 H541 0.862 . S
C522 C517 1.501 . S
C522 H523 0.961 . S
C522 H524 0.961 . S
C522 H525 0.960 . S
H523 C522 0.961 . S
H524 C522 0.961 . S
H525 C522 0.960 . S
C526 N527 1.342 . S
C526 C530 1.401 . S
C526 C531 1.499 . S
N527 Co510 1.989 . S
N527 C526 1.342 . S
N527 N528 1.388 . S
N528 Co511 1.993 . S
N528 N527 1.388 . S
N528 C529 1.346 . S
C529 N528 1.346 . S
C529 C530 1.396 . S
C529 C539 1.510 . S
C530 C526 1.401 . S
C530 C529 1.396 . S
C531 C526 1.499 . S
C531 H532 0.959 . S
C531 H533 0.960 . S
C531 H534 0.961 . S
H532 C531 0.959 . S
H533 C531 0.960 . S
H534 C531 0.961 . S
O535 Co510 1.967 . S
O535 C543 1.258 . S
O536 Co511 1.941 . S
O536 C543 1.266 . S
H537 C539 0.959 . S
H538 C539 0.961 . S
C539 C529 1.510 . S
C539 H537 0.959 . S
C539 H538 0.961 . S
C539 H540 0.960 . S
H540 C539 0.960 . S
H541 N521 0.862 . S
O542 Co510 1.920 . S
O542 C515 1.289 . S
C543 O535 1.258 . S
C543 O536 1.266 . S
H544 C550 0.930 . S
H545 C553 0.930 . S
H546 C554 0.930 . S
H547 C555 0.930 . S
H548 C558 0.930 . S
H549 C559 0.930 . S
C550 H544 0.930 . S
C550 C551 1.355 . S
C550 C552 1.415 . S
C551 C550 1.355 . S
C551 C553 1.419 . S
C552 C550 1.415 . S
C552 C557 1.425 . S
C552 C559 1.409 . S
C553 H545 0.930 . S
C553 C551 1.419 . S
C553 C554 1.362 . S
C554 H546 0.930 . S
C554 C553 1.362 . S
C554 C557 1.409 . S
C555 H547 0.930 . S
C555 C556 1.355 . S
C555 C557 1.415 . S
C556 C555 1.355 . S
C556 C558 1.419 . S
C557 C552 1.425 . S
C557 C554 1.409 . S
C557 C555 1.415 . S
C558 H548 0.930 . S
C558 C556 1.419 . S
C558 C559 1.362 . S
C559 H549 0.930 . S
C559 C552 1.409 . S
C559 C558 1.362 . S
H560 C566 0.930 . S
H561 C569 0.930 . S
H562 C570 0.930 . S
H563 C571 0.930 . S
H564 C574 0.930 . S
H565 C575 0.930 . S
C566 H560 0.930 . S
C566 C567 1.355 . S
C566 C568 1.415 . S
C567 C566 1.355 . S
C567 C569 1.419 . S
C568 C566 1.415 . S
C568 C573 1.425 . S
C568 C575 1.409 . S
C569 H561 0.930 . S
C569 C567 1.419 . S
C569 C570 1.362 . S
C570 H562 0.930 . S
C570 C569 1.362 . S
C570 C573 1.409 . S
C571 H563 0.930 . S
C571 C572 1.355 . S
C571 C573 1.415 . S
C572 C571 1.355 . S
C572 C574 1.419 . S
C573 C568 1.425 . S
C573 C570 1.409 . S
C573 C571 1.415 . S
C574 H564 0.930 . S
C574 C572 1.419 . S
C574 C575 1.362 . S
C575 H565 0.930 . S
C575 C568 1.409 . S
C575 C574 1.362 . S
H576 C582 0.930 . S
H577 C585 0.930 . S
H578 C586 0.930 . S
H579 C587 0.930 . S
H580 C590 0.930 . S
H581 C591 0.930 . S
C582 H576 0.930 . S
C582 C583 1.355 . S
C582 C584 1.415 . S
C583 C582 1.355 . S
C583 C585 1.419 . S
C584 C582 1.415 . S
C584 C589 1.425 . S
C584 C591 1.409 . S
C585 H577 0.930 . S
C585 C583 1.419 . S
C585 C586 1.362 . S
C586 H578 0.930 . S
C586 C585 1.362 . S
C586 C589 1.409 . S
C587 H579 0.930 . S
C587 C588 1.355 . S
C587 C589 1.415 . S
C588 C587 1.355 . S
C588 C590 1.419 . S
C589 C584 1.425 . S
C589 C586 1.409 . S
C589 C587 1.415 . S
C590 H580 0.930 . S
C590 C588 1.419 . S
C590 C591 1.362 . S
C591 H581 0.930 . S
C591 C584 1.409 . S
C591 C590 1.362 . S
H592 C598 0.930 . S
H593 C601 0.930 . S
H594 C602 0.930 . S
H595 C603 0.930 . S
H596 C606 0.930 . S
H597 C607 0.930 . S
C598 H592 0.930 . S
C598 C599 1.355 . S
C598 C600 1.415 . S
C599 C598 1.355 . S
C599 C601 1.419 . S
C600 C598 1.415 . S
C600 C605 1.425 . S
C600 C607 1.409 . S
C601 H593 0.930 . S
C601 C599 1.419 . S
C601 C602 1.362 . S
C602 H594 0.930 . S
C602 C601 1.362 . S
C602 C605 1.409 . S
C603 H595 0.930 . S
C603 C604 1.355 . S
C603 C605 1.415 . S
C604 C603 1.355 . S
C604 C606 1.419 . S
C605 C600 1.425 . S
C605 C602 1.409 . S
C605 C603 1.415 . S
C606 H596 0.930 . S
C606 C604 1.419 . S
C606 C607 1.362 . S
C607 H597 0.930 . S
C607 C600 1.409 . S
C607 C606 1.362 . S
H608 C614 0.930 . S
H609 C617 0.930 . S
H610 C618 0.930 . S
H611 C619 0.930 . S
H612 C622 0.930 . S
H613 C623 0.930 . S
C614 H608 0.930 . S
C614 C615 1.355 . S
C614 C616 1.415 . S
C615 C614 1.355 . S
C615 C617 1.419 . S
C616 C614 1.415 . S
C616 C621 1.425 . S
C616 C623 1.409 . S
C617 H609 0.930 . S
C617 C615 1.419 . S
C617 C618 1.362 . S
C618 H610 0.930 . S
C618 C617 1.362 . S
C618 C621 1.409 . S
C619 H611 0.930 . S
C619 C620 1.355 . S
C619 C621 1.415 . S
C620 C619 1.355 . S
C620 C622 1.419 . S
C621 C616 1.425 . S
C621 C618 1.409 . S
C621 C619 1.415 . S
C622 H612 0.930 . S
C622 C620 1.419 . S
C622 C623 1.362 . S
C623 H613 0.930 . S
C623 C616 1.409 . S
C623 C622 1.362 . S
H624 C630 0.930 . S
H625 C633 0.930 . S
H626 C634 0.930 . S
H627 C635 0.930 . S
H628 C638 0.930 . S
H629 C639 0.930 . S
C630 H624 0.930 . S
C630 C631 1.355 . S
C630 C632 1.415 . S
C631 C630 1.355 . S
C631 C633 1.419 . S
C632 C630 1.415 . S
C632 C637 1.425 . S
C632 C639 1.409 . S
C633 H625 0.930 . S
C633 C631 1.419 . S
C633 C634 1.362 . S
C634 H626 0.930 . S
C634 C633 1.362 . S
C634 C637 1.409 . S
C635 H627 0.930 . S
C635 C636 1.355 . S
C635 C637 1.415 . S
C636 C635 1.355 . S
C636 C638 1.419 . S
C637 C632 1.425 . S
C637 C634 1.409 . S
C637 C635 1.415 . S
C638 H628 0.930 . S
C638 C636 1.419 . S
C638 C639 1.362 . S
C639 H629 0.930 . S
C639 C632 1.409 . S
C639 C638 1.362 . S
H640 C646 0.930 . S
H641 C649 0.930 . S
H642 C650 0.930 . S
H643 C651 0.930 . S
H644 C654 0.930 . S
H645 C655 0.930 . S
C646 H640 0.930 . S
C646 C647 1.355 . S
C646 C648 1.415 . S
C647 C646 1.355 . S
C647 C649 1.419 . S
C648 C646 1.415 . S
C648 C653 1.425 . S
C648 C655 1.409 . S
C649 H641 0.930 . S
C649 C647 1.419 . S
C649 C650 1.362 . S
C650 H642 0.930 . S
C650 C649 1.362 . S
C650 C653 1.409 . S
C651 H643 0.930 . S
C651 C652 1.355 . S
C651 C653 1.415 . S
C652 C651 1.355 . S
C652 C654 1.419 . S
C653 C648 1.425 . S
C653 C650 1.409 . S
C653 C651 1.415 . S
C654 H644 0.930 . S
C654 C652 1.419 . S
C654 C655 1.362 . S
C655 H645 0.930 . S
C655 C648 1.409 . S
C655 C654 1.362 . S
H656 C662 0.930 . S
H657 C665 0.930 . S
H658 C666 0.930 . S
H659 C667 0.930 . S
H660 C670 0.930 . S
H661 C671 0.930 . S
C662 H656 0.930 . S
C662 C663 1.355 . S
C662 C664 1.415 . S
C663 C662 1.355 . S
C663 C665 1.419 . S
C664 C662 1.415 . S
C664 C669 1.425 . S
C664 C671 1.409 . S
C665 H657 0.930 . S
C665 C663 1.419 . S
C665 C666 1.362 . S
C666 H658 0.930 . S
C666 C665 1.362 . S
C666 C669 1.409 . S
C667 H659 0.930 . S
C667 C668 1.355 . S
C667 C669 1.415 . S
C668 C667 1.355 . S
C668 C670 1.419 . S
C669 C664 1.425 . S
C669 C666 1.409 . S
C669 C667 1.415 . S
C670 H660 0.930 . S
C670 C668 1.419 . S
C670 C671 1.362 . S
C671 H661 0.930 . S
C671 C664 1.409 . S
C671 C670 1.362 . S
H672 C678 0.930 . S
H673 C681 0.930 . S
H674 C682 0.930 . S
H675 C683 0.930 . S
H676 C686 0.930 . S
H677 C687 0.930 . S
C678 H672 0.930 . S
C678 C679 1.355 . S
C678 C680 1.415 . S
C679 C678 1.355 . S
C679 C681 1.419 . S
C680 C678 1.415 . S
C680 C685 1.425 1_554 S
C680 C687 1.409 1_554 S
C681 H673 0.930 . S
C681 C679 1.419 . S
C681 C682 1.362 . S
C682 H674 0.930 . S
C682 C681 1.362 . S
C682 C685 1.409 1_554 S
C683 H675 0.930 . S
C683 C684 1.355 . S
C683 C685 1.415 . S
C684 C683 1.355 . S
C684 C686 1.419 . S
C685 C680 1.425 1_556 S
C685 C682 1.409 1_556 S
C685 C683 1.415 . S
C686 H676 0.930 . S
C686 C684 1.419 . S
C686 C687 1.362 . S
C687 H677 0.930 . S
C687 C680 1.409 1_556 S
C687 C686 1.362 . S
H688 C694 0.930 . S
H689 C697 0.930 . S
H690 C698 0.930 . S
H691 C699 0.930 . S
H692 C702 0.930 . S
H693 C703 0.930 . S
C694 H688 0.930 . S
C694 C695 1.355 . S
C694 C696 1.415 . S
C695 C694 1.355 . S
C695 C697 1.419 . S
C696 C694 1.415 . S
C696 C701 1.425 . S
C696 C703 1.409 . S
C697 H689 0.930 . S
C697 C695 1.419 . S
C697 C698 1.362 . S
C698 H690 0.930 . S
C698 C697 1.362 . S
C698 C701 1.409 . S
C699 H691 0.930 . S
C699 C700 1.355 . S
C699 C701 1.415 . S
C700 C699 1.355 . S
C700 C702 1.419 . S
C701 C696 1.425 . S
C701 C698 1.409 . S
C701 C699 1.415 . S
C702 H692 0.930 . S
C702 C700 1.419 . S
C702 C703 1.362 . S
C703 H693 0.930 . S
C703 C696 1.409 . S
C703 C702 1.362 . S
H704 C710 0.930 . S
H705 C713 0.930 . S
H706 C714 0.930 . S
H707 C715 0.930 . S
H708 C718 0.930 . S
H709 C719 0.930 . S
C710 H704 0.930 . S
C710 C711 1.355 . S
C710 C712 1.415 . S
C711 C710 1.355 . S
C711 C713 1.419 . S
C712 C710 1.415 . S
C712 C717 1.425 1_556 S
C712 C719 1.409 1_556 S
C713 H705 0.930 . S
C713 C711 1.419 . S
C713 C714 1.362 . S
C714 H706 0.930 . S
C714 C713 1.362 . S
C714 C717 1.409 1_556 S
C715 H707 0.930 . S
C715 C716 1.355 . S
C715 C717 1.415 . S
C716 C715 1.355 . S
C716 C718 1.419 . S
C717 C712 1.425 1_554 S
C717 C714 1.409 1_554 S
C717 C715 1.415 . S
C718 H708 0.930 . S
C718 C716 1.419 . S
C718 C719 1.362 . S
C719 H709 0.930 . S
C719 C712 1.409 1_554 S
C719 C718 1.362 . S
H720 C726 0.930 . S
H721 C729 0.930 . S
H722 C730 0.930 . S
H723 C731 0.930 . S
H724 C734 0.930 . S
H725 C735 0.930 . S
C726 H720 0.930 . S
C726 C727 1.355 . S
C726 C728 1.415 . S
C727 C726 1.355 . S
C727 C729 1.419 . S
C728 C726 1.415 . S
C728 C733 1.425 . S
C728 C735 1.409 . S
C729 H721 0.930 . S
C729 C727 1.419 . S
C729 C730 1.362 . S
C730 H722 0.930 . S
C730 C729 1.362 . S
C730 C733 1.409 . S
C731 H723 0.930 . S
C731 C732 1.355 . S
C731 C733 1.415 . S
C732 C731 1.355 . S
C732 C734 1.419 . S
C733 C728 1.425 . S
C733 C730 1.409 . S
C733 C731 1.415 . S
C734 H724 0.930 . S
C734 C732 1.419 . S
C734 C735 1.362 . S
C735 H725 0.930 . S
C735 C728 1.409 . S
C735 C734 1.362 . S
H736 C742 0.930 . S
H737 C745 0.930 . S
H738 C746 0.930 . S
H739 C747 0.930 . S
H740 C750 0.930 . S
H741 C751 0.930 . S
C742 H736 0.930 . S
C742 C743 1.355 . S
C742 C744 1.415 . S
C743 C742 1.355 . S
C743 C745 1.419 . S
C744 C742 1.415 . S
C744 C749 1.425 1_554 S
C744 C751 1.409 1_554 S
C745 H737 0.930 . S
C745 C743 1.419 . S
C745 C746 1.362 . S
C746 H738 0.930 . S
C746 C745 1.362 . S
C746 C749 1.409 1_554 S
C747 H739 0.930 . S
C747 C748 1.355 . S
C747 C749 1.415 . S
C748 C747 1.355 . S
C748 C750 1.419 . S
C749 C744 1.425 1_556 S
C749 C746 1.409 1_556 S
C749 C747 1.415 . S
C750 H740 0.930 . S
C750 C748 1.419 . S
C750 C751 1.362 . S
C751 H741 0.930 . S
C751 C744 1.409 1_556 S
C751 C750 1.362 . S
H752 C758 0.930 . S
H753 C761 0.930 . S
H754 C762 0.930 . S
H755 C763 0.930 . S
H756 C766 0.930 . S
H757 C767 0.930 . S
C758 H752 0.930 . S
C758 C759 1.355 . S
C758 C760 1.415 . S
C759 C758 1.355 . S
C759 C761 1.419 . S
C760 C758 1.415 . S
C760 C765 1.425 . S
C760 C767 1.409 . S
C761 H753 0.930 . S
C761 C759 1.419 . S
C761 C762 1.362 . S
C762 H754 0.930 . S
C762 C761 1.362 . S
C762 C765 1.409 . S
C763 H755 0.930 . S
C763 C764 1.355 . S
C763 C765 1.415 . S
C764 C763 1.355 . S
C764 C766 1.419 . S
C765 C760 1.425 . S
C765 C762 1.409 . S
C765 C763 1.415 . S
C766 H756 0.930 . S
C766 C764 1.419 . S
C766 C767 1.362 . S
C767 H757 0.930 . S
C767 C760 1.409 . S
C767 C766 1.362 . S
H768 C774 0.930 . S
H769 C777 0.930 . S
H770 C778 0.930 . S
H771 C779 0.930 . S
H772 C782 0.930 . S
H773 C783 0.930 . S
C774 H768 0.930 . S
C774 C775 1.355 . S
C774 C776 1.415 . S
C775 C774 1.355 . S
C775 C777 1.419 . S
C776 C774 1.415 . S
C776 C781 1.425 1_554 S
C776 C783 1.409 1_554 S
C777 H769 0.930 . S
C777 C775 1.419 . S
C777 C778 1.362 . S
C778 H770 0.930 . S
C778 C777 1.362 . S
C778 C781 1.409 1_554 S
C779 H771 0.930 . S
C779 C780 1.355 . S
C779 C781 1.415 . S
C780 C779 1.355 . S
C780 C782 1.419 . S
C781 C776 1.425 1_556 S
C781 C778 1.409 1_556 S
C781 C779 1.415 . S
C782 H772 0.930 . S
C782 C780 1.419 . S
C782 C783 1.362 . S
C783 H773 0.930 . S
C783 C776 1.409 1_556 S
C783 C782 1.362 . S
H784 C790 0.930 . S
H785 C793 0.930 . S
H786 C794 0.930 . S
H787 C795 0.930 . S
H788 C798 0.930 . S
H789 C799 0.930 . S
C790 H784 0.930 . S
C790 C791 1.355 . S
C790 C792 1.415 . S
C791 C790 1.355 . S
C791 C793 1.419 . S
C792 C790 1.415 . S
C792 C797 1.425 . S
C792 C799 1.409 . S
C793 H785 0.930 . S
C793 C791 1.419 . S
C793 C794 1.362 . S
C794 H786 0.930 . S
C794 C793 1.362 . S
C794 C797 1.409 . S
C795 H787 0.930 . S
C795 C796 1.355 . S
C795 C797 1.415 . S
C796 C795 1.355 . S
C796 C798 1.419 . S
C797 C792 1.425 . S
C797 C794 1.409 . S
C797 C795 1.415 . S
C798 H788 0.930 . S
C798 C796 1.419 . S
C798 C799 1.362 . S
C799 H789 0.930 . S
C799 C792 1.409 . S
C799 C798 1.362 . S
H800 C806 0.930 . S
H801 C809 0.930 . S
H802 C810 0.930 . S
H803 C811 0.930 . S
H804 C814 0.930 . S
H805 C815 0.930 . S
C806 H800 0.930 . S
C806 C807 1.355 . S
C806 C808 1.415 1_455 S
C807 C806 1.355 . S
C807 C809 1.419 . S
C808 C806 1.415 1_655 S
C808 C813 1.425 1_655 S
C808 C815 1.409 . S
C809 H801 0.930 . S
C809 C807 1.419 . S
C809 C810 1.362 . S
C810 H802 0.930 . S
C810 C809 1.362 . S
C810 C813 1.409 . S
C811 H803 0.930 . S
C811 C812 1.355 . S
C811 C813 1.415 1_655 S
C812 C811 1.355 . S
C812 C814 1.419 . S
C813 C808 1.425 1_455 S
C813 C810 1.409 . S
C813 C811 1.415 1_455 S
C814 H804 0.930 . S
C814 C812 1.419 . S
C814 C815 1.362 . S
C815 H805 0.930 . S
C815 C808 1.409 . S
C815 C814 1.362 . S
H816 C822 0.930 . S
H817 C825 0.930 . S
H818 C826 0.930 . S
H819 C827 0.930 . S
H820 C830 0.930 . S
H821 C831 0.930 . S
C822 H816 0.930 . S
C822 C823 1.355 . S
C822 C824 1.415 . S
C823 C822 1.355 . S
C823 C825 1.419 . S
C824 C822 1.415 . S
C824 C829 1.425 1_565 S
C824 C831 1.409 . S
C825 H817 0.930 . S
C825 C823 1.419 . S
C825 C826 1.362 1_565 S
C826 H818 0.930 . S
C826 C825 1.362 1_545 S
C826 C829 1.409 . S
C827 H819 0.930 . S
C827 C828 1.355 . S
C827 C829 1.415 . S
C828 C827 1.355 . S
C828 C830 1.419 . S
C829 C824 1.425 1_545 S
C829 C826 1.409 . S
C829 C827 1.415 . S
C830 H820 0.930 . S
C830 C828 1.419 . S
C830 C831 1.362 1_545 S
C831 H821 0.930 . S
C831 C824 1.409 . S
C831 C830 1.362 1_565 S
H832 C838 0.930 . S
H833 C841 0.930 . S
H834 C842 0.930 . S
H835 C843 0.930 . S
H836 C846 0.930 . S
H837 C847 0.930 . S
C838 H832 0.930 . S
C838 C839 1.355 . S
C838 C840 1.415 1_565 S
C839 C838 1.355 . S
C839 C841 1.419 . S
C840 C838 1.415 1_545 S
C840 C845 1.425 1_545 S
C840 C847 1.409 . S
C841 H833 0.930 . S
C841 C839 1.419 . S
C841 C842 1.362 . S
C842 H834 0.930 . S
C842 C841 1.362 . S
C842 C845 1.409 . S
C843 H835 0.930 . S
C843 C844 1.355 . S
C843 C845 1.415 1_545 S
C844 C843 1.355 . S
C844 C846 1.419 . S
C845 C840 1.425 1_565 S
C845 C842 1.409 . S
C845 C843 1.415 1_565 S
C846 H836 0.930 . S
C846 C844 1.419 . S
C846 C847 1.362 . S
C847 H837 0.930 . S
C847 C840 1.409 . S
C847 C846 1.362 . S
H848 C854 0.930 . S
H849 C857 0.930 . S
H850 C858 0.930 . S
H851 C859 0.930 . S
H852 C862 0.930 . S
H853 C863 0.930 . S
C854 H848 0.930 . S
C854 C855 1.355 . S
C854 C856 1.415 1_455 S
C855 C854 1.355 . S
C855 C857 1.419 . S
C856 C854 1.415 1_655 S
C856 C861 1.425 1_655 S
C856 C863 1.409 . S
C857 H849 0.930 . S
C857 C855 1.419 . S
C857 C858 1.362 . S
C858 H850 0.930 . S
C858 C857 1.362 . S
C858 C861 1.409 . S
C859 H851 0.930 . S
C859 C860 1.355 . S
C859 C861 1.415 1_655 S
C860 C859 1.355 . S
C860 C862 1.419 . S
C861 C856 1.425 1_455 S
C861 C858 1.409 . S
C861 C859 1.415 1_455 S
C862 H852 0.930 . S
C862 C860 1.419 . S
C862 C863 1.362 . S
C863 H853 0.930 . S
C863 C856 1.409 . S
C863 C862 1.362 . S
H864 C870 0.930 . S
H865 C873 0.930 . S
H866 C874 0.930 . S
H867 C875 0.930 . S
H868 C878 0.930 . S
H869 C879 0.930 . S
C870 H864 0.930 . S
C870 C871 1.355 . S
C870 C872 1.415 . S
C871 C870 1.355 . S
C871 C873 1.419 . S
C872 C870 1.415 . S
C872 C877 1.425 1_655 S
C872 C879 1.409 . S
C873 H865 0.930 . S
C873 C871 1.419 . S
C873 C874 1.362 1_655 S
C874 H866 0.930 . S
C874 C873 1.362 1_455 S
C874 C877 1.409 . S
C875 H867 0.930 . S
C875 C876 1.355 . S
C875 C877 1.415 . S
C876 C875 1.355 . S
C876 C878 1.419 . S
C877 C872 1.425 1_455 S
C877 C874 1.409 . S
C877 C875 1.415 . S
C878 H868 0.930 . S
C878 C876 1.419 . S
C878 C879 1.362 1_455 S
C879 H869 0.930 . S
C879 C872 1.409 . S
C879 C878 1.362 1_655 S
H880 C886 0.930 . S
H881 C889 0.930 . S
H882 C890 0.930 . S
H883 C891 0.930 . S
H884 C894 0.930 . S
H885 C895 0.930 . S
C886 H880 0.930 . S
C886 C887 1.355 . S
C886 C888 1.415 . S
C887 C886 1.355 . S
C887 C889 1.419 . S
C888 C886 1.415 . S
C888 C893 1.425 1_545 S
C888 C895 1.409 . S
C889 H881 0.930 . S
C889 C887 1.419 . S
C889 C890 1.362 1_545 S
C890 H882 0.930 . S
C890 C889 1.362 1_565 S
C890 C893 1.409 . S
C891 H883 0.930 . S
C891 C892 1.355 . S
C891 C893 1.415 . S
C892 C891 1.355 . S
C892 C894 1.419 . S
C893 C888 1.425 1_565 S
C893 C890 1.409 . S
C893 C891 1.415 . S
C894 H884 0.930 . S
C894 C892 1.419 . S
C894 C895 1.362 1_565 S
C895 H885 0.930 . S
C895 C888 1.409 . S
C895 C894 1.362 1_545 S
H896 C902 0.930 . S
H897 C905 0.930 . S
H898 C906 0.930 . S
H899 C907 0.930 . S
H900 C910 0.930 . S
H901 C911 0.930 . S
C902 H896 0.930 . S
C902 C903 1.355 . S
C902 C904 1.415 . S
C903 C902 1.355 . S
C903 C905 1.419 . S
C904 C902 1.415 . S
C904 C909 1.425 1_565 S
C904 C911 1.409 . S
C905 H897 0.930 . S
C905 C903 1.419 . S
C905 C906 1.362 1_565 S
C906 H898 0.930 . S
C906 C905 1.362 1_545 S
C906 C909 1.409 . S
C907 H899 0.930 . S
C907 C908 1.355 . S
C907 C909 1.415 . S
C908 C907 1.355 . S
C908 C910 1.419 . S
C909 C904 1.425 1_545 S
C909 C906 1.409 . S
C909 C907 1.415 . S
C910 H900 0.930 . S
C910 C908 1.419 . S
C910 C911 1.362 1_545 S
C911 H901 0.930 . S
C911 C904 1.409 . S
C911 C910 1.362 1_565 S
H912 C918 0.930 . S
H913 C921 0.930 . S
H914 C922 0.930 . S
H915 C923 0.930 . S
H916 C926 0.930 . S
H917 C927 0.930 . S
C918 H912 0.930 . S
C918 C919 1.355 . S
C918 C920 1.415 1_455 S
C919 C918 1.355 . S
C919 C921 1.419 . S
C920 C918 1.415 1_655 S
C920 C925 1.425 1_655 S
C920 C927 1.409 . S
C921 H913 0.930 . S
C921 C919 1.419 . S
C921 C922 1.362 . S
C922 H914 0.930 . S
C922 C921 1.362 . S
C922 C925 1.409 . S
C923 H915 0.930 . S
C923 C924 1.355 . S
C923 C925 1.415 1_655 S
C924 C923 1.355 . S
C924 C926 1.419 . S
C925 C920 1.425 1_455 S
C925 C922 1.409 . S
C925 C923 1.415 1_455 S
C926 H916 0.930 . S
C926 C924 1.419 . S
C926 C927 1.362 . S
C927 H917 0.930 . S
C927 C920 1.409 . S
C927 C926 1.362 . S
H928 C934 0.930 . S
H929 C937 0.930 . S
H930 C938 0.930 . S
H931 C939 0.930 . S
H932 C942 0.930 . S
H933 C943 0.930 . S
C934 H928 0.930 . S
C934 C935 1.355 . S
C934 C936 1.415 . S
C935 C934 1.355 . S
C935 C937 1.419 . S
C936 C934 1.415 . S
C936 C941 1.425 . S
C936 C943 1.409 . S
C937 H929 0.930 . S
C937 C935 1.419 . S
C937 C938 1.362 . S
C938 H930 0.930 . S
C938 C937 1.362 . S
C938 C941 1.409 . S
C939 H931 0.930 . S
C939 C940 1.355 . S
C939 C941 1.415 . S
C940 C939 1.355 . S
C940 C942 1.419 . S
C941 C936 1.425 . S
C941 C938 1.409 . S
C941 C939 1.415 . S
C942 H932 0.930 . S
C942 C940 1.419 . S
C942 C943 1.362 . S
C943 H933 0.930 . S
C943 C936 1.409 . S
C943 C942 1.362 . S
H944 C950 0.930 . S
H945 C953 0.930 . S
H946 C954 0.930 . S
H947 C955 0.930 . S
H948 C958 0.930 . S
H949 C959 0.930 . S
C950 H944 0.930 . S
C950 C951 1.355 . S
C950 C952 1.415 . S
C951 C950 1.355 . S
C951 C953 1.419 . S
C952 C950 1.415 . S
C952 C957 1.425 . S
C952 C959 1.409 . S
C953 H945 0.930 . S
C953 C951 1.419 . S
C953 C954 1.362 . S
C954 H946 0.930 . S
C954 C953 1.362 . S
C954 C957 1.409 . S
C955 H947 0.930 . S
C955 C956 1.355 . S
C955 C957 1.415 . S
C956 C955 1.355 . S
C956 C958 1.419 . S
C957 C952 1.425 . S
C957 C954 1.409 . S
C957 C955 1.415 . S
C958 H948 0.930 . S
C958 C956 1.419 . S
C958 C959 1.362 . S
C959 H949 0.930 . S
C959 C952 1.409 . S
C959 C958 1.362 . S
H960 C966 0.930 . S
H961 C969 0.930 . S
H962 C970 0.930 . S
H963 C971 0.930 . S
H964 C974 0.930 . S
H965 C975 0.930 . S
C966 H960 0.930 . S
C966 C967 1.355 . S
C966 C968 1.415 . S
C967 C966 1.355 . S
C967 C969 1.419 . S
C968 C966 1.415 . S
C968 C973 1.425 . S
C968 C975 1.409 . S
C969 H961 0.930 . S
C969 C967 1.419 . S
C969 C970 1.362 . S
C970 H962 0.930 . S
C970 C969 1.362 . S
C970 C973 1.409 . S
C971 H963 0.930 . S
C971 C972 1.355 . S
C971 C973 1.415 . S
C972 C971 1.355 . S
C972 C974 1.419 . S
C973 C968 1.425 . S
C973 C970 1.409 . S
C973 C971 1.415 . S
C974 H964 0.930 . S
C974 C972 1.419 . S
C974 C975 1.362 . S
C975 H965 0.930 . S
C975 C968 1.409 . S
C975 C974 1.362 . S
H976 C982 0.930 . S
H977 C985 0.930 . S
H978 C986 0.930 . S
H979 C987 0.930 . S
H980 C990 0.930 . S
H981 C991 0.930 . S
C982 H976 0.930 . S
C982 C983 1.355 . S
C982 C984 1.415 . S
C983 C982 1.355 . S
C983 C985 1.419 . S
C984 C982 1.415 . S
C984 C989 1.425 . S
C984 C991 1.409 . S
C985 H977 0.930 . S
C985 C983 1.419 . S
C985 C986 1.362 . S
C986 H978 0.930 . S
C986 C985 1.362 . S
C986 C989 1.409 . S
C987 H979 0.930 . S
C987 C988 1.355 . S
C987 C989 1.415 . S
C988 C987 1.355 . S
C988 C990 1.419 . S
C989 C984 1.425 . S
C989 C986 1.409 . S
C989 C987 1.415 . S
C990 H980 0.930 . S
C990 C988 1.419 . S
C990 C991 1.362 . S
C991 H981 0.930 . S
C991 C984 1.409 . S
C991 C990 1.362 . S
H992 C998 0.930 . S
H993 C1001 0.930 . S
H994 C1002 0.930 . S
H995 C1003 0.930 . S
H996 C1006 0.930 . S
H997 C1007 0.930 . S
C998 H992 0.930 . S
C998 C999 1.355 . S
C998 C1000 1.415 . S
C999 C998 1.355 . S
C999 C1001 1.419 . S
C1000 C998 1.415 . S
C1000 C1005 1.425 . S
C1000 C1007 1.409 . S
C1001 H993 0.930 . S
C1001 C999 1.419 . S
C1001 C1002 1.362 . S
C1002 H994 0.930 . S
C1002 C1001 1.362 . S
C1002 C1005 1.409 . S
C1003 H995 0.930 . S
C1003 C1004 1.355 . S
C1003 C1005 1.415 . S
C1004 C1003 1.355 . S
C1004 C1006 1.419 . S
C1005 C1000 1.425 . S
C1005 C1002 1.409 . S
C1005 C1003 1.415 . S
C1006 H996 0.930 . S
C1006 C1004 1.419 . S
C1006 C1007 1.362 . S
C1007 H997 0.930 . S
C1007 C1000 1.409 . S
C1007 C1006 1.362 . S
H1008 C1014 0.930 . S
H1009 C1017 0.930 . S
H1010 C1018 0.930 . S
H1011 C1019 0.930 . S
H1012 C1022 0.930 . S
H1013 C1023 0.930 . S
C1014 H1008 0.930 . S
C1014 C1015 1.355 . S
C1014 C1016 1.415 . S
C1015 C1014 1.355 . S
C1015 C1017 1.419 . S
C1016 C1014 1.415 . S
C1016 C1021 1.425 . S
C1016 C1023 1.409 . S
C1017 H1009 0.930 . S
C1017 C1015 1.419 . S
C1017 C1018 1.362 . S
C1018 H1010 0.930 . S
C1018 C1017 1.362 . S
C1018 C1021 1.409 . S
C1019 H1011 0.930 . S
C1019 C1020 1.355 . S
C1019 C1021 1.415 . S
C1020 C1019 1.355 . S
C1020 C1022 1.419 . S
C1021 C1016 1.425 . S
C1021 C1018 1.409 . S
C1021 C1019 1.415 . S
C1022 H1012 0.930 . S
C1022 C1020 1.419 . S
C1022 C1023 1.362 . S
C1023 H1013 0.930 . S
C1023 C1016 1.409 . S
C1023 C1022 1.362 . S
H1024 C1030 0.930 . S
H1025 C1033 0.930 . S
H1026 C1034 0.930 . S
H1027 C1035 0.930 . S
H1028 C1038 0.930 . S
H1029 C1039 0.930 . S
C1030 H1024 0.930 . S
C1030 C1031 1.355 . S
C1030 C1032 1.415 . S
C1031 C1030 1.355 . S
C1031 C1033 1.419 . S
C1032 C1030 1.415 . S
C1032 C1037 1.425 . S
C1032 C1039 1.409 . S
C1033 H1025 0.930 . S
C1033 C1031 1.419 . S
C1033 C1034 1.362 . S
C1034 H1026 0.930 . S
C1034 C1033 1.362 . S
C1034 C1037 1.409 . S
C1035 H1027 0.930 . S
C1035 C1036 1.355 . S
C1035 C1037 1.415 . S
C1036 C1035 1.355 . S
C1036 C1038 1.419 . S
C1037 C1032 1.425 . S
C1037 C1034 1.409 . S
C1037 C1035 1.415 . S
C1038 H1028 0.930 . S
C1038 C1036 1.419 . S
C1038 C1039 1.362 . S
C1039 H1029 0.930 . S
C1039 C1032 1.409 . S
C1039 C1038 1.362 . S
H1040 C1046 0.930 . S
H1041 C1049 0.930 . S
H1042 C1050 0.930 . S
H1043 C1051 0.930 . S
H1044 C1054 0.930 . S
H1045 C1055 0.930 . S
C1046 H1040 0.930 . S
C1046 C1047 1.355 . S
C1046 C1048 1.415 . S
C1047 C1046 1.355 . S
C1047 C1049 1.419 . S
C1048 C1046 1.415 . S
C1048 C1053 1.425 . S
C1048 C1055 1.409 . S
C1049 H1041 0.930 . S
C1049 C1047 1.419 . S
C1049 C1050 1.362 . S
C1050 H1042 0.930 . S
C1050 C1049 1.362 . S
C1050 C1053 1.409 . S
C1051 H1043 0.930 . S
C1051 C1052 1.355 . S
C1051 C1053 1.415 . S
C1052 C1051 1.355 . S
C1052 C1054 1.419 . S
C1053 C1048 1.425 . S
C1053 C1050 1.409 . S
C1053 C1051 1.415 . S
C1054 H1044 0.930 . S
C1054 C1052 1.419 . S
C1054 C1055 1.362 . S
C1055 H1045 0.930 . S
C1055 C1048 1.409 . S
C1055 C1054 1.362 . S
H1056 C1062 0.930 . S
H1057 C1065 0.930 . S
H1058 C1066 0.930 . S
H1059 C1067 0.930 . S
H1060 C1070 0.930 . S
H1061 C1071 0.930 . S
C1062 H1056 0.930 . S
C1062 C1063 1.355 . S
C1062 C1064 1.415 . S
C1063 C1062 1.355 . S
C1063 C1065 1.419 . S
C1064 C1062 1.415 . S
C1064 C1069 1.425 . S
C1064 C1071 1.409 . S
C1065 H1057 0.930 . S
C1065 C1063 1.419 . S
C1065 C1066 1.362 . S
C1066 H1058 0.930 . S
C1066 C1065 1.362 . S
C1066 C1069 1.409 . S
C1067 H1059 0.930 . S
C1067 C1068 1.355 . S
C1067 C1069 1.415 . S
C1068 C1067 1.355 . S
C1068 C1070 1.419 . S
C1069 C1064 1.425 . S
C1069 C1066 1.409 . S
C1069 C1067 1.415 . S
C1070 H1060 0.930 . S
C1070 C1068 1.419 . S
C1070 C1071 1.362 . S
C1071 H1061 0.930 . S
C1071 C1064 1.409 . S
C1071 C1070 1.362 . S
H1072 C1078 0.930 . S
H1073 C1081 0.930 . S
H1074 C1082 0.930 . S
H1075 C1083 0.930 . S
H1076 C1086 0.930 . S
H1077 C1087 0.930 . S
C1078 H1072 0.930 . S
C1078 C1079 1.355 . S
C1078 C1080 1.415 . S
C1079 C1078 1.355 . S
C1079 C1081 1.419 . S
C1080 C1078 1.415 . S
C1080 C1085 1.425 . S
C1080 C1087 1.409 . S
C1081 H1073 0.930 . S
C1081 C1079 1.419 . S
C1081 C1082 1.362 . S
C1082 H1074 0.930 . S
C1082 C1081 1.362 . S
C1082 C1085 1.409 . S
C1083 H1075 0.930 . S
C1083 C1084 1.355 . S
C1083 C1085 1.415 . S
C1084 C1083 1.355 . S
C1084 C1086 1.419 . S
C1085 C1080 1.425 . S
C1085 C1082 1.409 . S
C1085 C1083 1.415 . S
C1086 H1076 0.930 . S
C1086 C1084 1.419 . S
C1086 C1087 1.362 . S
C1087 H1077 0.930 . S
C1087 C1080 1.409 . S
C1087 C1086 1.362 . S
H1088 C1094 0.930 . S
H1089 C1097 0.930 . S
H1090 C1098 0.930 . S
H1091 C1099 0.930 . S
H1092 C1102 0.930 . S
H1093 C1103 0.930 . S
C1094 H1088 0.930 . S
C1094 C1095 1.355 . S
C1094 C1096 1.415 . S
C1095 C1094 1.355 . S
C1095 C1097 1.419 . S
C1096 C1094 1.415 . S
C1096 C1101 1.425 . S
C1096 C1103 1.409 . S
C1097 H1089 0.930 . S
C1097 C1095 1.419 . S
C1097 C1098 1.362 . S
C1098 H1090 0.930 . S
C1098 C1097 1.362 . S
C1098 C1101 1.409 . S
C1099 H1091 0.930 . S
C1099 C1100 1.355 . S
C1099 C1101 1.415 . S
C1100 C1099 1.355 . S
C1100 C1102 1.419 . S
C1101 C1096 1.425 . S
C1101 C1098 1.409 . S
C1101 C1099 1.415 . S
C1102 H1092 0.930 . S
C1102 C1100 1.419 . S
C1102 C1103 1.362 . S
C1103 H1093 0.930 . S
C1103 C1096 1.409 . S
C1103 C1102 1.362 . S
H1104 C1110 0.930 . S
H1105 C1113 0.930 . S
H1106 C1114 0.930 . S
H1107 C1115 0.930 . S
H1108 C1118 0.930 . S
H1109 C1119 0.930 . S
C1110 H1104 0.930 . S
C1110 C1111 1.355 . S
C1110 C1112 1.415 . S
C1111 C1110 1.355 . S
C1111 C1113 1.419 . S
C1112 C1110 1.415 . S
C1112 C1117 1.425 . S
C1112 C1119 1.409 . S
C1113 H1105 0.930 . S
C1113 C1111 1.419 . S
C1113 C1114 1.362 . S
C1114 H1106 0.930 . S
C1114 C1113 1.362 . S
C1114 C1117 1.409 . S
C1115 H1107 0.930 . S
C1115 C1116 1.355 . S
C1115 C1117 1.415 . S
C1116 C1115 1.355 . S
C1116 C1118 1.419 . S
C1117 C1112 1.425 . S
C1117 C1114 1.409 . S
C1117 C1115 1.415 . S
C1118 H1108 0.930 . S
C1118 C1116 1.419 . S
C1118 C1119 1.362 . S
C1119 H1109 0.930 . S
C1119 C1112 1.409 . S
C1119 C1118 1.362 . S
H1120 C1126 0.930 . S
H1121 C1129 0.930 . S
H1122 C1130 0.930 . S
H1123 C1131 0.930 . S
H1124 C1134 0.930 . S
H1125 C1135 0.930 . S
C1126 H1120 0.930 . S
C1126 C1127 1.355 . S
C1126 C1128 1.415 . S
C1127 C1126 1.355 . S
C1127 C1129 1.419 . S
C1128 C1126 1.415 . S
C1128 C1133 1.425 . S
C1128 C1135 1.409 . S
C1129 H1121 0.930 . S
C1129 C1127 1.419 . S
C1129 C1130 1.362 . S
C1130 H1122 0.930 . S
C1130 C1129 1.362 . S
C1130 C1133 1.409 . S
C1131 H1123 0.930 . S
C1131 C1132 1.355 . S
C1131 C1133 1.415 . S
C1132 C1131 1.355 . S
C1132 C1134 1.419 . S
C1133 C1128 1.425 . S
C1133 C1130 1.409 . S
C1133 C1131 1.415 . S
C1134 H1124 0.930 . S
C1134 C1132 1.419 . S
C1134 C1135 1.362 . S
C1135 H1125 0.930 . S
C1135 C1128 1.409 . S
C1135 C1134 1.362 . S
H1136 C1142 0.930 . S
H1137 C1145 0.930 . S
H1138 C1146 0.930 . S
H1139 C1147 0.930 . S
H1140 C1150 0.930 . S
H1141 C1151 0.930 . S
C1142 H1136 0.930 . S
C1142 C1143 1.355 . S
C1142 C1144 1.415 . S
C1143 C1142 1.355 . S
C1143 C1145 1.419 . S
C1144 C1142 1.415 . S
C1144 C1149 1.425 . S
C1144 C1151 1.409 . S
C1145 H1137 0.930 . S
C1145 C1143 1.419 . S
C1145 C1146 1.362 . S
C1146 H1138 0.930 . S
C1146 C1145 1.362 . S
C1146 C1149 1.409 . S
C1147 H1139 0.930 . S
C1147 C1148 1.355 . S
C1147 C1149 1.415 . S
C1148 C1147 1.355 . S
C1148 C1150 1.419 . S
C1149 C1144 1.425 . S
C1149 C1146 1.409 . S
C1149 C1147 1.415 . S
C1150 H1140 0.930 . S
C1150 C1148 1.419 . S
C1150 C1151 1.362 . S
C1151 H1141 0.930 . S
C1151 C1144 1.409 . S
C1151 C1150 1.362 . S
H1152 C1158 0.930 . S
H1153 C1161 0.930 . S
H1154 C1162 0.930 . S
H1155 C1163 0.930 . S
H1156 C1166 0.930 . S
H1157 C1167 0.930 . S
C1158 H1152 0.930 . S
C1158 C1159 1.355 . S
C1158 C1160 1.415 . S
C1159 C1158 1.355 . S
C1159 C1161 1.419 . S
C1160 C1158 1.415 . S
C1160 C1165 1.425 . S
C1160 C1167 1.409 . S
C1161 H1153 0.930 . S
C1161 C1159 1.419 . S
C1161 C1162 1.362 . S
C1162 H1154 0.930 . S
C1162 C1161 1.362 . S
C1162 C1165 1.409 . S
C1163 H1155 0.930 . S
C1163 C1164 1.355 . S
C1163 C1165 1.415 . S
C1164 C1163 1.355 . S
C1164 C1166 1.419 . S
C1165 C1160 1.425 . S
C1165 C1162 1.409 . S
C1165 C1163 1.415 . S
C1166 H1156 0.930 . S
C1166 C1164 1.419 . S
C1166 C1167 1.362 . S
C1167 H1157 0.930 . S
C1167 C1160 1.409 . S
C1167 C1166 1.362 . S
H1168 C1174 0.930 . S
H1169 C1177 0.930 . S
H1170 C1178 0.930 . S
H1171 C1179 0.930 . S
H1172 C1182 0.930 . S
H1173 C1183 0.930 . S
C1174 H1168 0.930 . S
C1174 C1175 1.355 . S
C1174 C1176 1.415 . S
C1175 C1174 1.355 . S
C1175 C1177 1.419 . S
C1176 C1174 1.415 . S
C1176 C1181 1.425 . S
C1176 C1183 1.409 . S
C1177 H1169 0.930 . S
C1177 C1175 1.419 . S
C1177 C1178 1.362 . S
C1178 H1170 0.930 . S
C1178 C1177 1.362 . S
C1178 C1181 1.409 . S
C1179 H1171 0.930 . S
C1179 C1180 1.355 . S
C1179 C1181 1.415 . S
C1180 C1179 1.355 . S
C1180 C1182 1.419 . S
C1181 C1176 1.425 . S
C1181 C1178 1.409 . S
C1181 C1179 1.415 . S
C1182 H1172 0.930 . S
C1182 C1180 1.419 . S
C1182 C1183 1.362 . S
C1183 H1173 0.930 . S
C1183 C1176 1.409 . S
C1183 C1182 1.362 . S
C551 C5 1.752 . S
C556 C243 1.751 . S
C567 C141 1.742 . S
C572 C39 1.751 . S
C583 C175 1.752 . S
C588 C73 1.743 . S
C599 C209 1.719 . S
C604 C107 1.730 . S
C615 C277 1.731 . S
C620 C515 1.744 . S
C631 C311 1.735 . S
C636 C413 1.747 . S
C647 C447 1.718 . S
C652 C345 1.728 . S
C663 C379 1.740 . S
C668 C481 1.750 . S
C679 C9 1.439 . S
C684 C349 1.525 . S
C695 C383 1.496 . S
C700 C43 1.469 . S
C711 C281 1.504 . S
C716 C77 1.461 . S
C727 C315 1.450 . S
C732 C111 1.514 . S
C743 C485 1.498 . S
C748 C145 1.467 . S
C759 C519 1.524 . S
C764 C179 1.440 . S
C775 C417 1.438 . S
C780 C213 1.526 . S
C791 C451 1.446 . S
C796 C247 1.518 . S
C807 C33 0.829 . S
C812 C101 0.855 . S
C823 C135 0.803 . S
C828 C67 0.783 . S
C839 C237 0.780 . S
C844 C169 0.773 . S
C855 C271 0.831 . S
C860 C203 0.806 . S
C871 C305 0.777 . S
C876 C373 0.791 . S
C887 C407 0.796 . S
C892 C339 0.779 . S
C903 C441 0.894 . S
C908 C509 0.884 . S
C919 C475 0.817 . S
C924 C543 0.843 . S
C935 C478 1.414 . S
C940 C20 1.403 . S
C951 C54 1.419 . S
C956 C512 1.389 . S
C967 C410 1.390 . S
C972 C88 1.403 . S
C983 C444 1.418 . S
C988 C122 1.408 . S
C999 C342 1.385 1_655 S
C1004 C156 1.418 . S
C1015 C190 1.418 . S
C1020 C376 1.385 1_565 S
C1031 C274 1.397 1_455 S
C1036 C224 1.402 . S
C1047 C258 1.415 . S
C1052 C308 1.412 1_545 S
C1063 C206 1.418 . S
C1068 C292 1.406 . S
C1079 C240 1.388 . S
C1084 C326 1.404 . S
C1095 C138 1.394 . S
C1100 C360 1.402 . S
C1111 C394 1.402 . S
C1116 C172 1.412 . S
C1127 C70 1.413 1_455 S
C1132 C428 1.403 . S
C1143 C462 1.419 . S
C1148 C104 1.387 1_545 S
C1159 C496 1.413 . S
C1164 C2 1.375 1_655 S
C1175 C36 1.418 1_565 S
C1180 C530 1.409 . S
