# Generated by pormake.
# Topology uky, (4)-cn, num edge types: 1
# Building blocks:
#     Node 0, Type 0, BuildingBlock: QUQFOY_clean_sbu_1, # of connection points: 4
#     Node 1, Type 0, BuildingBlock: QUQFOY_clean_sbu_1, # of connection points: 4
#     Node 2, Type 0, BuildingBlock: QUQFOY_clean_sbu_1, # of connection points: 4
#     Node 3, Type 0, BuildingBlock: QUQFOY_clean_sbu_1, # of connection points: 4
#     Node 4, Type 0, BuildingBlock: QUQFOY_clean_sbu_1, # of connection points: 4
#     Node 5, Type 0, BuildingBlock: QUQFOY_clean_sbu_1, # of connection points: 4
#     Node 6, Type 0, BuildingBlock: QUQFOY_clean_sbu_1, # of connection points: 4
#     Node 7, Type 0, BuildingBlock: QUQFOY_clean_sbu_1, # of connection points: 4
#     Node 8, Type 0, BuildingBlock: QUQFOY_clean_sbu_1, # of connection points: 4
#     Node 9, Type 0, BuildingBlock: QUQFOY_clean_sbu_1, # of connection points: 4
#     Node 10, Type 0, BuildingBlock: QUQFOY_clean_sbu_1, # of connection points: 4
#     Node 11, Type 0, BuildingBlock: QUQFOY_clean_sbu_1, # of connection points: 4
#     Node 12, Type 0, BuildingBlock: QUQFOY_clean_sbu_1, # of connection points: 4
#     Node 13, Type 0, BuildingBlock: QUQFOY_clean_sbu_1, # of connection points: 4
#     Node 14, Type 0, BuildingBlock: QUQFOY_clean_sbu_1, # of connection points: 4
#     Node 15, Type 0, BuildingBlock: QUQFOY_clean_sbu_1, # of connection points: 4
#     Node 16, Type 0, BuildingBlock: QUQFOY_clean_sbu_1, # of connection points: 4
#     Node 17, Type 0, BuildingBlock: QUQFOY_clean_sbu_1, # of connection points: 4
#     Node 18, Type 0, BuildingBlock: QUQFOY_clean_sbu_1, # of connection points: 4
#     Node 19, Type 0, BuildingBlock: QUQFOY_clean_sbu_1, # of connection points: 4
#     Node 20, Type 0, BuildingBlock: QUQFOY_clean_sbu_1, # of connection points: 4
#     Node 21, Type 0, BuildingBlock: QUQFOY_clean_sbu_1, # of connection points: 4
#     Node 22, Type 0, BuildingBlock: QUQFOY_clean_sbu_1, # of connection points: 4
#     Node 23, Type 0, BuildingBlock: QUQFOY_clean_sbu_1, # of connection points: 4
#     Node 24, Type 0, BuildingBlock: QUQFOY_clean_sbu_1, # of connection points: 4
#     Node 25, Type 0, BuildingBlock: QUQFOY_clean_sbu_1, # of connection points: 4
#     Node 26, Type 0, BuildingBlock: QUQFOY_clean_sbu_1, # of connection points: 4
#     Node 27, Type 0, BuildingBlock: QUQFOY_clean_sbu_1, # of connection points: 4
#     Node 28, Type 0, BuildingBlock: QUQFOY_clean_sbu_1, # of connection points: 4
#     Node 29, Type 0, BuildingBlock: QUQFOY_clean_sbu_1, # of connection points: 4
#     Node 30, Type 0, BuildingBlock: QUQFOY_clean_sbu_1, # of connection points: 4
#     Node 31, Type 0, BuildingBlock: QUQFOY_clean_sbu_1, # of connection points: 4
#     Node 32, Type 0, BuildingBlock: QUQFOY_clean_sbu_1, # of connection points: 4
#     Node 33, Type 0, BuildingBlock: QUQFOY_clean_sbu_1, # of connection points: 4
#     Node 34, Type 0, BuildingBlock: QUQFOY_clean_sbu_1, # of connection points: 4
#     Node 35, Type 0, BuildingBlock: QUQFOY_clean_sbu_1, # of connection points: 4
#     Node 36, Type 0, BuildingBlock: QUQFOY_clean_sbu_1, # of connection points: 4
#     Node 37, Type 0, BuildingBlock: QUQFOY_clean_sbu_1, # of connection points: 4
#     Node 38, Type 0, BuildingBlock: QUQFOY_clean_sbu_1, # of connection points: 4
#     Node 39, Type 0, BuildingBlock: QUQFOY_clean_sbu_1, # of connection points: 4
#     Node 40, Type 0, BuildingBlock: QUQFOY_clean_sbu_1, # of connection points: 4
#     Node 41, Type 0, BuildingBlock: QUQFOY_clean_sbu_1, # of connection points: 4
#     Node 42, Type 0, BuildingBlock: QUQFOY_clean_sbu_1, # of connection points: 4
#     Node 43, Type 0, BuildingBlock: QUQFOY_clean_sbu_1, # of connection points: 4
#     Node 44, Type 0, BuildingBlock: QUQFOY_clean_sbu_1, # of connection points: 4
#     Node 45, Type 0, BuildingBlock: QUQFOY_clean_sbu_1, # of connection points: 4
#     Node 46, Type 0, BuildingBlock: QUQFOY_clean_sbu_1, # of connection points: 4
#     Node 47, Type 0, BuildingBlock: QUQFOY_clean_sbu_1, # of connection points: 4
#     Edge 48, Type (0, 0), BuildingBlock: AJUNOK_clean_linker_0, # of connection points: 2
#     Edge 49, Type (0, 0), BuildingBlock: AJUNOK_clean_linker_0, # of connection points: 2
#     Edge 50, Type (0, 0), BuildingBlock: AJUNOK_clean_linker_0, # of connection points: 2
#     Edge 51, Type (0, 0), BuildingBlock: AJUNOK_clean_linker_0, # of connection points: 2
#     Edge 52, Type (0, 0), BuildingBlock: AJUNOK_clean_linker_0, # of connection points: 2
#     Edge 53, Type (0, 0), BuildingBlock: AJUNOK_clean_linker_0, # of connection points: 2
#     Edge 54, Type (0, 0), BuildingBlock: AJUNOK_clean_linker_0, # of connection points: 2
#     Edge 55, Type (0, 0), BuildingBlock: AJUNOK_clean_linker_0, # of connection points: 2
#     Edge 56, Type (0, 0), BuildingBlock: AJUNOK_clean_linker_0, # of connection points: 2
#     Edge 57, Type (0, 0), BuildingBlock: AJUNOK_clean_linker_0, # of connection points: 2
#     Edge 58, Type (0, 0), BuildingBlock: AJUNOK_clean_linker_0, # of connection points: 2
#     Edge 59, Type (0, 0), BuildingBlock: AJUNOK_clean_linker_0, # of connection points: 2
#     Edge 60, Type (0, 0), BuildingBlock: AJUNOK_clean_linker_0, # of connection points: 2
#     Edge 61, Type (0, 0), BuildingBlock: AJUNOK_clean_linker_0, # of connection points: 2
#     Edge 62, Type (0, 0), BuildingBlock: AJUNOK_clean_linker_0, # of connection points: 2
#     Edge 63, Type (0, 0), BuildingBlock: AJUNOK_clean_linker_0, # of connection points: 2
#     Edge 64, Type (0, 0), BuildingBlock: AJUNOK_clean_linker_0, # of connection points: 2
#     Edge 65, Type (0, 0), BuildingBlock: AJUNOK_clean_linker_0, # of connection points: 2
#     Edge 66, Type (0, 0), BuildingBlock: AJUNOK_clean_linker_0, # of connection points: 2
#     Edge 67, Type (0, 0), BuildingBlock: AJUNOK_clean_linker_0, # of connection points: 2
#     Edge 68, Type (0, 0), BuildingBlock: AJUNOK_clean_linker_0, # of connection points: 2
#     Edge 69, Type (0, 0), BuildingBlock: AJUNOK_clean_linker_0, # of connection points: 2
#     Edge 70, Type (0, 0), BuildingBlock: AJUNOK_clean_linker_0, # of connection points: 2
#     Edge 71, Type (0, 0), BuildingBlock: AJUNOK_clean_linker_0, # of connection points: 2
#     Edge 72, Type (0, 0), BuildingBlock: AJUNOK_clean_linker_0, # of connection points: 2
#     Edge 73, Type (0, 0), BuildingBlock: AJUNOK_clean_linker_0, # of connection points: 2
#     Edge 74, Type (0, 0), BuildingBlock: AJUNOK_clean_linker_0, # of connection points: 2
#     Edge 75, Type (0, 0), BuildingBlock: AJUNOK_clean_linker_0, # of connection points: 2
#     Edge 76, Type (0, 0), BuildingBlock: AJUNOK_clean_linker_0, # of connection points: 2
#     Edge 77, Type (0, 0), BuildingBlock: AJUNOK_clean_linker_0, # of connection points: 2
#     Edge 78, Type (0, 0), BuildingBlock: AJUNOK_clean_linker_0, # of connection points: 2
#     Edge 79, Type (0, 0), BuildingBlock: AJUNOK_clean_linker_0, # of connection points: 2
#     Edge 80, Type (0, 0), BuildingBlock: AJUNOK_clean_linker_0, # of connection points: 2
#     Edge 81, Type (0, 0), BuildingBlock: AJUNOK_clean_linker_0, # of connection points: 2
#     Edge 82, Type (0, 0), BuildingBlock: AJUNOK_clean_linker_0, # of connection points: 2
#     Edge 83, Type (0, 0), BuildingBlock: AJUNOK_clean_linker_0, # of connection points: 2
#     Edge 84, Type (0, 0), BuildingBlock: AJUNOK_clean_linker_0, # of connection points: 2
#     Edge 85, Type (0, 0), BuildingBlock: AJUNOK_clean_linker_0, # of connection points: 2
#     Edge 86, Type (0, 0), BuildingBlock: AJUNOK_clean_linker_0, # of connection points: 2
#     Edge 87, Type (0, 0), BuildingBlock: AJUNOK_clean_linker_0, # of connection points: 2
#     Edge 88, Type (0, 0), BuildingBlock: AJUNOK_clean_linker_0, # of connection points: 2
#     Edge 89, Type (0, 0), BuildingBlock: AJUNOK_clean_linker_0, # of connection points: 2
#     Edge 90, Type (0, 0), BuildingBlock: AJUNOK_clean_linker_0, # of connection points: 2
#     Edge 91, Type (0, 0), BuildingBlock: AJUNOK_clean_linker_0, # of connection points: 2
#     Edge 92, Type (0, 0), BuildingBlock: AJUNOK_clean_linker_0, # of connection points: 2
#     Edge 93, Type (0, 0), BuildingBlock: AJUNOK_clean_linker_0, # of connection points: 2
#     Edge 94, Type (0, 0), BuildingBlock: AJUNOK_clean_linker_0, # of connection points: 2
#     Edge 95, Type (0, 0), BuildingBlock: AJUNOK_clean_linker_0, # of connection points: 2
#     Edge 96, Type (0, 0), BuildingBlock: AJUNOK_clean_linker_0, # of connection points: 2
#     Edge 97, Type (0, 0), BuildingBlock: AJUNOK_clean_linker_0, # of connection points: 2
#     Edge 98, Type (0, 0), BuildingBlock: AJUNOK_clean_linker_0, # of connection points: 2
#     Edge 99, Type (0, 0), BuildingBlock: AJUNOK_clean_linker_0, # of connection points: 2
#     Edge 100, Type (0, 0), BuildingBlock: AJUNOK_clean_linker_0, # of connection points: 2
#     Edge 101, Type (0, 0), BuildingBlock: AJUNOK_clean_linker_0, # of connection points: 2
#     Edge 102, Type (0, 0), BuildingBlock: AJUNOK_clean_linker_0, # of connection points: 2
#     Edge 103, Type (0, 0), BuildingBlock: AJUNOK_clean_linker_0, # of connection points: 2
#     Edge 104, Type (0, 0), BuildingBlock: AJUNOK_clean_linker_0, # of connection points: 2
#     Edge 105, Type (0, 0), BuildingBlock: AJUNOK_clean_linker_0, # of connection points: 2
#     Edge 106, Type (0, 0), BuildingBlock: AJUNOK_clean_linker_0, # of connection points: 2
#     Edge 107, Type (0, 0), BuildingBlock: AJUNOK_clean_linker_0, # of connection points: 2
#     Edge 108, Type (0, 0), BuildingBlock: AJUNOK_clean_linker_0, # of connection points: 2
#     Edge 109, Type (0, 0), BuildingBlock: AJUNOK_clean_linker_0, # of connection points: 2
#     Edge 110, Type (0, 0), BuildingBlock: AJUNOK_clean_linker_0, # of connection points: 2
#     Edge 111, Type (0, 0), BuildingBlock: AJUNOK_clean_linker_0, # of connection points: 2
#     Edge 112, Type (0, 0), BuildingBlock: AJUNOK_clean_linker_0, # of connection points: 2
#     Edge 113, Type (0, 0), BuildingBlock: AJUNOK_clean_linker_0, # of connection points: 2
#     Edge 114, Type (0, 0), BuildingBlock: AJUNOK_clean_linker_0, # of connection points: 2
#     Edge 115, Type (0, 0), BuildingBlock: AJUNOK_clean_linker_0, # of connection points: 2
#     Edge 116, Type (0, 0), BuildingBlock: AJUNOK_clean_linker_0, # of connection points: 2
#     Edge 117, Type (0, 0), BuildingBlock: AJUNOK_clean_linker_0, # of connection points: 2
#     Edge 118, Type (0, 0), BuildingBlock: AJUNOK_clean_linker_0, # of connection points: 2
#     Edge 119, Type (0, 0), BuildingBlock: AJUNOK_clean_linker_0, # of connection points: 2
#     Edge 120, Type (0, 0), BuildingBlock: AJUNOK_clean_linker_0, # of connection points: 2
#     Edge 121, Type (0, 0), BuildingBlock: AJUNOK_clean_linker_0, # of connection points: 2
#     Edge 122, Type (0, 0), BuildingBlock: AJUNOK_clean_linker_0, # of connection points: 2
#     Edge 123, Type (0, 0), BuildingBlock: AJUNOK_clean_linker_0, # of connection points: 2
#     Edge 124, Type (0, 0), BuildingBlock: AJUNOK_clean_linker_0, # of connection points: 2
#     Edge 125, Type (0, 0), BuildingBlock: AJUNOK_clean_linker_0, # of connection points: 2
#     Edge 126, Type (0, 0), BuildingBlock: AJUNOK_clean_linker_0, # of connection points: 2
#     Edge 127, Type (0, 0), BuildingBlock: AJUNOK_clean_linker_0, # of connection points: 2
#     Edge 128, Type (0, 0), BuildingBlock: AJUNOK_clean_linker_0, # of connection points: 2
#     Edge 129, Type (0, 0), BuildingBlock: AJUNOK_clean_linker_0, # of connection points: 2
#     Edge 130, Type (0, 0), BuildingBlock: AJUNOK_clean_linker_0, # of connection points: 2
#     Edge 131, Type (0, 0), BuildingBlock: AJUNOK_clean_linker_0, # of connection points: 2
#     Edge 132, Type (0, 0), BuildingBlock: AJUNOK_clean_linker_0, # of connection points: 2
#     Edge 133, Type (0, 0), BuildingBlock: AJUNOK_clean_linker_0, # of connection points: 2
#     Edge 134, Type (0, 0), BuildingBlock: AJUNOK_clean_linker_0, # of connection points: 2
#     Edge 135, Type (0, 0), BuildingBlock: AJUNOK_clean_linker_0, # of connection points: 2
#     Edge 136, Type (0, 0), BuildingBlock: AJUNOK_clean_linker_0, # of connection points: 2
#     Edge 137, Type (0, 0), BuildingBlock: AJUNOK_clean_linker_0, # of connection points: 2
#     Edge 138, Type (0, 0), BuildingBlock: AJUNOK_clean_linker_0, # of connection points: 2
#     Edge 139, Type (0, 0), BuildingBlock: AJUNOK_clean_linker_0, # of connection points: 2
#     Edge 140, Type (0, 0), BuildingBlock: AJUNOK_clean_linker_0, # of connection points: 2
#     Edge 141, Type (0, 0), BuildingBlock: AJUNOK_clean_linker_0, # of connection points: 2
#     Edge 142, Type (0, 0), BuildingBlock: AJUNOK_clean_linker_0, # of connection points: 2
#     Edge 143, Type (0, 0), BuildingBlock: AJUNOK_clean_linker_0, # of connection points: 2
# Relax obj value: 0.297
# Max RMSD: 0.260
# Mean RMSD: 0.254
data_MOF--net-uky--node1-QUQFOY_clean_sbu_1--edge1-AJUNOK_clean_linker_0
_symmetry_space_group_name_H-M    P1
_symmetry_Int_Tables_number       1
_symmetry_cell_setting            triclinic
loop_
_symmetry_equiv_pos_as_xyz
'x, y, z'
_cell_length_a     47.712858
_cell_length_b     47.727491
_cell_length_c     47.703589
_cell_angle_alpha  89.99811
_cell_angle_beta   89.961557
_cell_angle_gamma 89.963482
loop_
_atom_site_label
_atom_site_type_symbol
_atom_site_fract_x
_atom_site_fract_y
_atom_site_fract_z
_atom_type_partial_charge
O0 O 0.24427 0.18451 0.42878 0.0
Cd1 Cd 0.23137 0.1777 0.38792 0.0
Cd2 Cd 0.2362 0.23271 0.3858 0.0
O3 O 0.23516 0.22969 0.42889 0.0
O4 O 0.20597 0.14447 0.38881 0.0
O5 O 0.19161 0.18773 0.37962 0.0
C6 C 0.1856 0.16168 0.384 0.0
C7 C 0.21363 0.26929 0.36191 0.0
C8 C 0.24181 0.2075 0.44203 0.0
C9 C 0.27791 0.19763 0.35358 0.0
O10 O 0.27268 0.22057 0.36605 0.0
O11 O 0.26144 0.17686 0.35634 0.0
O12 O 0.23507 0.27362 0.37772 0.0
O13 O 0.20373 0.24415 0.36097 0.0
O14 O 0.0731 0.9922 0.6789 0.0
Cd15 Cd 0.07853 0.97879 0.63807 0.0
Cd16 Cd 0.02345 0.98485 0.63777 0.0
O17 O 0.02775 0.98429 0.68089 0.0
O18 O 0.11201 0.95367 0.63845 0.0
O19 O 0.06869 0.93887 0.63034 0.0
C20 C 0.0949 0.93314 0.63417 0.0
C21 C 0.98597 0.96254 0.61501 0.0
C22 C 0.05063 0.99041 0.69311 0.0
C23 C 0.0584 0.02525 0.60368 0.0
O24 O 0.03577 0.02071 0.617 0.0
O25 O 0.079 0.00853 0.6063 0.0
O26 O 0.98232 0.98421 0.63069 0.0
O27 O 0.01098 0.95229 0.6135 0.0
O28 O 0.25982 0.82 0.92803 0.0
Cd29 Cd 0.27594 0.82342 0.88795 0.0
Cd30 Cd 0.26925 0.76897 0.88876 0.0
O31 O 0.26957 0.77506 0.93168 0.0
O32 O 0.30273 0.85567 0.88666 0.0
O33 O 0.31576 0.81097 0.88605 0.0
C34 C 0.32252 0.83718 0.88723 0.0
C35 C 0.29185 0.73136 0.86645 0.0
C36 C 0.26216 0.79805 0.94301 0.0
C37 C 0.23052 0.80252 0.85261 0.0
O38 O 0.23352 0.7808 0.8677 0.0
O39 O 0.24831 0.8223 0.85422 0.0
O40 O 0.27037 0.72769 0.88242 0.0
O41 O 0.30186 0.75643 0.86462 0.0
O42 O 0.43553 0.01233 0.17789 0.0
Cd43 Cd 0.42822 0.02526 0.13716 0.0
Cd44 Cd 0.48357 0.02161 0.13456 0.0
O45 O 0.48056 0.02213 0.17771 0.0
O46 O 0.39444 0.04998 0.13839 0.0
O47 O 0.43729 0.06527 0.1288 0.0
C48 C 0.41113 0.07072 0.13344 0.0
C49 C 0.52055 0.04439 0.11139 0.0
C50 C 0.45858 0.01503 0.19097 0.0
C51 C 0.44905 0.97935 0.10231 0.0
O52 O 0.47201 0.98517 0.11447 0.0
O53 O 0.42778 0.99509 0.10568 0.0
O54 O 0.52461 0.02282 0.12707 0.0
O55 O 0.49537 0.0542 0.10993 0.0
O56 O 0.24081 0.82179 0.07747 0.0
Cd57 Cd 0.22769 0.82697 0.11848 0.0
Cd58 Cd 0.23485 0.77204 0.11878 0.0
O59 O 0.23387 0.77627 0.07571 0.0
O60 O 0.2021 0.86009 0.11836 0.0
O61 O 0.18791 0.81658 0.12646 0.0
C62 C 0.18181 0.84272 0.12273 0.0
C63 C 0.21337 0.7344 0.14199 0.0
C64 C 0.23934 0.79925 0.06337 0.0
C65 C 0.27477 0.80749 0.15257 0.0
O66 O 0.27069 0.78488 0.13912 0.0
O67 O 0.25758 0.82774 0.15015 0.0
O68 O 0.23489 0.73095 0.12605 0.0
O69 O 0.20274 0.75925 0.14345 0.0
O70 O 0.4361 0.99405 0.32452 0.0
Cd71 Cd 0.42927 0.98095 0.36533 0.0
Cd72 Cd 0.48458 0.98689 0.36761 0.0
O73 O 0.48161 0.98661 0.32451 0.0
O74 O 0.39578 0.95588 0.36419 0.0
O75 O 0.43878 0.94102 0.37375 0.0
C76 C 0.41267 0.93532 0.36924 0.0
C77 C 0.52222 0.96502 0.39057 0.0
C78 C 0.45925 0.99262 0.31135 0.0
C79 C 0.44841 0.02766 0.40004 0.0
O80 O 0.47161 0.02276 0.3879 0.0
O81 O 0.42784 0.01101 0.39688 0.0
O82 O 0.52559 0.98696 0.37525 0.0
O83 O 0.49738 0.95436 0.39179 0.0
O84 O 0.26023 0.18376 0.57572 0.0
Cd85 Cd 0.27331 0.17653 0.61646 0.0
Cd86 Cd 0.26838 0.23157 0.61913 0.0
O87 O 0.2691 0.22898 0.57602 0.0
O88 O 0.2985 0.14313 0.61512 0.0
O89 O 0.31318 0.18617 0.62471 0.0
C90 C 0.31899 0.16011 0.62006 0.0
C91 C 0.29092 0.26807 0.64313 0.0
C92 C 0.26249 0.20691 0.56269 0.0
C93 C 0.22697 0.19616 0.65131 0.0
O94 O 0.23208 0.21922 0.63904 0.0
O95 O 0.24342 0.17541 0.64821 0.0
O96 O 0.26934 0.27241 0.62751 0.0
O97 O 0.30099 0.24297 0.64379 0.0
O98 O 0.07207 0.00942 0.8282 0.0
Cd99 Cd 0.07747 0.02313 0.86894 0.0
Cd100 Cd 0.02258 0.01693 0.8689 0.0
O101 O 0.02681 0.01777 0.8258 0.0
O102 O 0.11193 0.04673 0.86797 0.0
O103 O 0.06932 0.06365 0.87584 0.0
C104 C 0.09571 0.06811 0.87155 0.0
C105 C 0.98611 0.03969 0.89274 0.0
C106 C 0.04977 0.01153 0.81379 0.0
C107 C 0.05704 0.97686 0.9034 0.0
O108 O 0.03475 0.98091 0.8894 0.0
O109 O 0.07741 0.9939 0.90119 0.0
O110 O 0.98163 0.01833 0.87682 0.0
O111 O 0.01129 0.04956 0.89354 0.0
O112 O 0.42574 0.24559 0.18215 0.0
Cd113 Cd 0.38518 0.23129 0.17704 0.0
Cd114 Cd 0.38527 0.23759 0.23202 0.0
O115 O 0.42832 0.23724 0.22739 0.0
O116 O 0.3863 0.20701 0.143 0.0
O117 O 0.37879 0.1908 0.18593 0.0
C118 C 0.38308 0.18587 0.1596 0.0
C119 C 0.36296 0.21549 0.26989 0.0
C120 C 0.44022 0.24373 0.20444 0.0
C121 C 0.35043 0.27745 0.19728 0.0
O122 O 0.36424 0.27328 0.21967 0.0
O123 O 0.35279 0.26047 0.17684 0.0
O124 O 0.37851 0.23728 0.2732 0.0
O125 O 0.36136 0.20499 0.24498 0.0
O126 O 0.01129 0.17924 0.43601 0.0
Cd127 Cd 0.02482 0.13868 0.42853 0.0
Cd128 Cd 0.01992 0.13588 0.48379 0.0
O129 O 0.02054 0.17898 0.48118 0.0
O130 O 0.04876 0.14071 0.39429 0.0
O131 O 0.06523 0.13112 0.4367 0.0
C132 C 0.06998 0.13627 0.4105 0.0
C133 C 0.04181 0.11173 0.5206 0.0
C134 C 0.01367 0.19227 0.45914 0.0
C135 C 0.97909 0.10311 0.44842 0.0
O136 O 0.98383 0.1158 0.47134 0.0
O137 O 0.99547 0.10647 0.42765 0.0
O138 O 0.02031 0.12756 0.52466 0.0
O139 O 0.05229 0.1111 0.49564 0.0
O140 O 0.07847 0.75925 0.6832 0.0
Cd141 Cd 0.11933 0.77262 0.67777 0.0
Cd142 Cd 0.11947 0.76553 0.73237 0.0
O143 O 0.07644 0.76765 0.72847 0.0
O144 O 0.11842 0.7967 0.64362 0.0
O145 O 0.12642 0.81301 0.68643 0.0
C146 C 0.12204 0.81785 0.66012 0.0
C147 C 0.1441 0.78697 0.76899 0.0
C148 C 0.0642 0.76167 0.70558 0.0
C149 C 0.15321 0.72556 0.69737 0.0
O150 O 0.13897 0.72921 0.71959 0.0
O151 O 0.15145 0.74317 0.67743 0.0
O152 O 0.1276 0.76603 0.77327 0.0
O153 O 0.14505 0.79724 0.74396 0.0
O154 O 0.49864 0.82865 0.93348 0.0
Cd155 Cd 0.48264 0.86876 0.93005 0.0
Cd156 Cd 0.48945 0.86785 0.98415 0.0
O157 O 0.48792 0.82501 0.97821 0.0
O158 O 0.45542 0.86999 0.89811 0.0
O159 O 0.44301 0.87036 0.94301 0.0
C160 C 0.43591 0.86912 0.9169 0.0
C161 C 0.46683 0.89163 0.02075 0.0
C162 C 0.49557 0.81363 0.95532 0.0
C163 C 0.52872 0.90313 0.95068 0.0
O164 O 0.52576 0.88777 0.97221 0.0
O165 O 0.51041 0.90244 0.93131 0.0
O166 O 0.48777 0.87514 0.02527 0.0
O167 O 0.45726 0.89298 0.99548 0.0
O168 O 0.42758 0.76085 0.32072 0.0
Cd169 Cd 0.38693 0.77438 0.32743 0.0
Cd170 Cd 0.38514 0.76888 0.27264 0.0
O171 O 0.42818 0.77051 0.27567 0.0
O172 O 0.38867 0.79879 0.36134 0.0
O173 O 0.37962 0.81471 0.3186 0.0
C174 C 0.38468 0.81981 0.34474 0.0
C175 C 0.36072 0.79077 0.23604 0.0
C176 C 0.44109 0.76358 0.2979 0.0
C177 C 0.35296 0.72756 0.30793 0.0
O178 O 0.36596 0.73228 0.28517 0.0
O179 O 0.35506 0.74462 0.32831 0.0
O180 O 0.37688 0.76957 0.23175 0.0
O181 O 0.35977 0.80088 0.26113 0.0
O182 O 0.49415 0.17611 0.57125 0.0
Cd183 Cd 0.47986 0.13559 0.57656 0.0
Cd184 Cd 0.48628 0.13544 0.52157 0.0
O185 O 0.48587 0.17849 0.52598 0.0
O186 O 0.45557 0.1368 0.61059 0.0
O187 O 0.43943 0.12903 0.56767 0.0
C188 C 0.43447 0.13338 0.59398 0.0
C189 C 0.46449 0.11295 0.48367 0.0
C190 C 0.49231 0.19047 0.54889 0.0
C191 C 0.52602 0.1008 0.55658 0.0
O192 O 0.52197 0.11454 0.53412 0.0
O193 O 0.50897 0.10321 0.57695 0.0
O194 O 0.48624 0.12858 0.48041 0.0
O195 O 0.45384 0.11136 0.50851 0.0
O196 O 0.07831 0.24189 0.8233 0.0
Cd197 Cd 0.11925 0.22874 0.82869 0.0
Cd198 Cd 0.11972 0.23513 0.77363 0.0
O199 O 0.07668 0.23398 0.77792 0.0
O200 O 0.11886 0.2036 0.86209 0.0
O201 O 0.12713 0.18886 0.81875 0.0
C202 C 0.12317 0.18309 0.84494 0.0
C203 C 0.14243 0.21352 0.73566 0.0
C204 C 0.06427 0.2399 0.80075 0.0
C205 C 0.15302 0.27571 0.80902 0.0
O206 O 0.13989 0.27118 0.7863 0.0
O207 O 0.15085 0.25865 0.82939 0.0
O208 O 0.12663 0.23516 0.73245 0.0
O209 O 0.14421 0.20296 0.76052 0.0
O210 O 0.00676 0.82635 0.07326 0.0
Cd211 Cd 0.02058 0.8668 0.0805 0.0
Cd212 Cd 0.01578 0.86948 0.02531 0.0
O213 O 0.01598 0.82642 0.02808 0.0
O214 O 0.04496 0.8647 0.1144 0.0
O215 O 0.06091 0.87404 0.07171 0.0
C216 C 0.06598 0.8689 0.09784 0.0
C217 C 0.03822 0.89281 0.98832 0.0
C218 C 0.00904 0.81325 0.05016 0.0
C219 C 0.97508 0.90268 0.06067 0.0
O220 O 0.97989 0.89007 0.03771 0.0
O221 O 0.99136 0.89915 0.08149 0.0
O222 O 0.01641 0.87743 0.98438 0.0
O223 O 0.04857 0.8936 0.01331 0.0
O224 O 0.18105 0.42857 0.24483 0.0
Cd225 Cd 0.17537 0.38802 0.23068 0.0
Cd226 Cd 0.23014 0.38734 0.23675 0.0
O227 O 0.22628 0.43044 0.23622 0.0
O228 O 0.14228 0.38902 0.20507 0.0
O229 O 0.1858 0.38102 0.19074 0.0
C230 C 0.1597 0.38509 0.18469 0.0
C231 C 0.26703 0.3636 0.21451 0.0
C232 C 0.20354 0.44269 0.24285 0.0
C233 C 0.19514 0.35322 0.27684 0.0
O234 O 0.21763 0.36685 0.27266 0.0
O235 O 0.17474 0.35569 0.25986 0.0
O236 O 0.27112 0.37943 0.236 0.0
O237 O 0.24203 0.3628 0.20422 0.0
O238 O 0.68224 0.07886 0.7577 0.0
Cd239 Cd 0.67748 0.1197 0.77148 0.0
Cd240 Cd 0.73189 0.11944 0.76397 0.0
O241 O 0.72758 0.07647 0.76553 0.0
O242 O 0.64464 0.11962 0.79752 0.0
O243 O 0.68844 0.12677 0.81128 0.0
C244 C 0.66233 0.12331 0.81769 0.0
C245 C 0.76884 0.14332 0.78574 0.0
C246 C 0.70459 0.06444 0.75951 0.0
C247 C 0.69675 0.15319 0.72405 0.0
O248 O 0.71908 0.13916 0.72776 0.0
O249 O 0.67696 0.15176 0.74189 0.0
O250 O 0.77289 0.12714 0.76449 0.0
O251 O 0.74382 0.14448 0.796 0.0
O252 O 0.17808 0.43734 0.01101 0.0
Cd253 Cd 0.13729 0.43193 0.0245 0.0
Cd254 Cd 0.13716 0.48693 0.0179 0.0
O255 O 0.18027 0.48273 0.01858 0.0
O256 O 0.13825 0.39741 0.04807 0.0
O257 O 0.13002 0.43989 0.06505 0.0
C258 C 0.13443 0.41352 0.06948 0.0
C259 C 0.11392 0.52382 0.04063 0.0
C260 C 0.19239 0.45973 0.01274 0.0
C261 C 0.10292 0.45204 0.97785 0.0
O262 O 0.1165 0.47456 0.98202 0.0
O263 O 0.1054 0.43166 0.99487 0.0
O264 O 0.12956 0.52793 0.01899 0.0
O265 O 0.1128 0.49869 0.05063 0.0
O266 O 0.81882 0.92991 0.26308 0.0
Cd267 Cd 0.82618 0.88916 0.27601 0.0
Cd268 Cd 0.77088 0.8865 0.2718 0.0
O269 O 0.77357 0.92961 0.27195 0.0
O270 O 0.85972 0.89023 0.30104 0.0
O271 O 0.81673 0.88057 0.31591 0.0
C272 C 0.84285 0.88506 0.3216 0.0
C273 C 0.73409 0.86298 0.2945 0.0
C274 C 0.79564 0.94291 0.26523 0.0
C275 C 0.80596 0.85402 0.23007 0.0
O276 O 0.78289 0.86613 0.23562 0.0
O277 O 0.82708 0.85762 0.24593 0.0
O278 O 0.72995 0.87851 0.27281 0.0
O279 O 0.75916 0.86216 0.30462 0.0
O280 O 0.82782 0.07408 0.01039 0.0
Cd281 Cd 0.86832 0.07922 0.02484 0.0
Cd282 Cd 0.86812 0.02445 0.01942 0.0
O283 O 0.82508 0.02909 0.0198 0.0
O284 O 0.86729 0.11309 0.04938 0.0
O285 O 0.8745 0.07 0.06527 0.0
C286 C 0.87033 0.09628 0.07039 0.0
C287 C 0.89086 0.98741 0.04236 0.0
C288 C 0.81327 0.05191 0.01273 0.0
C289 C 0.90303 0.05835 0.97901 0.0
O290 O 0.88904 0.03612 0.98341 0.0
O291 O 0.90084 0.07896 0.99579 0.0
O292 O 0.87516 0.98335 0.02078 0.0
O293 O 0.89217 0.01254 0.05228 0.0
O294 O 0.32223 0.57396 0.74627 0.0
Cd295 Cd 0.32925 0.61476 0.73329 0.0
Cd296 Cd 0.27425 0.61702 0.73844 0.0
O297 O 0.27708 0.57399 0.73703 0.0
O298 O 0.36318 0.61324 0.70881 0.0
O299 O 0.32049 0.62271 0.69304 0.0
C300 C 0.34663 0.61768 0.68784 0.0
C301 C 0.23771 0.64108 0.71603 0.0
C302 C 0.29922 0.56077 0.74369 0.0
C303 C 0.30945 0.64884 0.78019 0.0
O304 O 0.28652 0.63635 0.77507 0.0
O305 O 0.3301 0.6463 0.76346 0.0
O306 O 0.23336 0.62521 0.73744 0.0
O307 O 0.26288 0.64205 0.70612 0.0
O308 O 0.17912 0.57028 0.49688 0.0
Cd309 Cd 0.13872 0.57789 0.48297 0.0
Cd310 Cd 0.1355 0.5226 0.48881 0.0
O311 O 0.17865 0.525 0.48835 0.0
O312 O 0.14131 0.61207 0.45903 0.0
O313 O 0.13144 0.56978 0.44246 0.0
C314 C 0.13689 0.59591 0.43777 0.0
C315 C 0.1119 0.48497 0.46775 0.0
C316 C 0.19204 0.54705 0.49491 0.0
C317 C 0.10256 0.55899 0.52874 0.0
O318 O 0.11512 0.5359 0.52449 0.0
O319 O 0.10626 0.57945 0.51205 0.0
O320 O 0.12748 0.48171 0.48953 0.0
O321 O 0.11093 0.50963 0.45666 0.0
O322 O 0.32736 0.43667 0.99406 0.0
Cd323 Cd 0.36808 0.43087 0.98045 0.0
Cd324 Cd 0.36837 0.48591 0.98614 0.0
O325 O 0.32527 0.48184 0.98532 0.0
O326 O 0.36703 0.39624 0.95707 0.0
O327 O 0.3753 0.43863 0.93986 0.0
C328 C 0.37087 0.41224 0.93556 0.0
C329 C 0.39168 0.52288 0.96363 0.0
C330 C 0.31309 0.45906 0.99183 0.0
C331 C 0.4024 0.45137 0.02676 0.0
O332 O 0.38881 0.47383 0.02225 0.0
O333 O 0.40004 0.43079 0.00998 0.0
O334 O 0.37582 0.52693 0.98511 0.0
O335 O 0.39299 0.49777 0.95362 0.0
O336 O 0.74325 0.68737 0.92843 0.0
Cd337 Cd 0.7309 0.68236 0.88719 0.0
Cd338 Cd 0.73754 0.73726 0.88779 0.0
O339 O 0.73573 0.73277 0.93081 0.0
O340 O 0.70655 0.64834 0.88686 0.0
O341 O 0.69083 0.69134 0.87882 0.0
C342 C 0.68565 0.66499 0.88242 0.0
C343 C 0.7152 0.7741 0.86415 0.0
C344 C 0.74124 0.70966 0.94287 0.0
C345 C 0.77865 0.70265 0.85454 0.0
O346 O 0.77407 0.72507 0.86814 0.0
O347 O 0.76141 0.68238 0.85604 0.0
O348 O 0.73638 0.77829 0.88035 0.0
O349 O 0.70543 0.74891 0.86263 0.0
O350 O 0.57217 0.49603 0.1778 0.0
Cd351 Cd 0.57742 0.48262 0.13684 0.0
Cd352 Cd 0.52282 0.49023 0.13669 0.0
O353 O 0.52671 0.48882 0.17972 0.0
O354 O 0.6105 0.45692 0.13718 0.0
O355 O 0.56696 0.44281 0.12913 0.0
C356 C 0.59308 0.43665 0.13292 0.0
C357 C 0.48585 0.46854 0.11278 0.0
C358 C 0.54966 0.49448 0.192 0.0
C359 C 0.55842 0.53007 0.10314 0.0
O360 O 0.53588 0.52626 0.1168 0.0
O361 O 0.5783 0.51238 0.10496 0.0
O362 O 0.48187 0.48994 0.12876 0.0
O363 O 0.5108 0.4581 0.11183 0.0
O364 O 0.757 0.32362 0.42543 0.0
Cd365 Cd 0.77309 0.32722 0.38537 0.0
Cd366 Cd 0.76658 0.27286 0.38582 0.0
O367 O 0.76794 0.27895 0.42865 0.0
O368 O 0.80117 0.35837 0.38469 0.0
O369 O 0.81226 0.31313 0.38368 0.0
C370 C 0.82009 0.33899 0.38556 0.0
C371 C 0.78842 0.23483 0.36355 0.0
C372 C 0.76025 0.30169 0.44025 0.0
C373 C 0.72765 0.30666 0.3501 0.0
O374 O 0.73066 0.28497 0.36523 0.0
O375 O 0.74553 0.32636 0.35156 0.0
O376 O 0.76707 0.23155 0.37976 0.0
O377 O 0.79869 0.25976 0.36135 0.0
O378 O 0.93122 0.51303 0.67922 0.0
Cd379 Cd 0.92422 0.52594 0.63842 0.0
Cd380 Cd 0.97935 0.52134 0.63613 0.0
O381 O 0.97619 0.5231 0.67916 0.0
O382 O 0.8903 0.55034 0.63992 0.0
O383 O 0.93301 0.56612 0.63048 0.0
C384 C 0.90687 0.57129 0.63555 0.0
C385 C 0.01669 0.54287 0.61238 0.0
C386 C 0.95417 0.51611 0.69241 0.0
C387 C 0.94426 0.47922 0.60453 0.0
O388 O 0.96715 0.48458 0.61701 0.0
O389 O 0.92349 0.49578 0.60693 0.0
O390 O 0.02039 0.52159 0.62857 0.0
O391 O 0.99172 0.5532 0.61089 0.0
O392 O 0.74546 0.3241 0.57558 0.0
Cd393 Cd 0.73264 0.32931 0.61656 0.0
Cd394 Cd 0.73779 0.27422 0.61651 0.0
O395 O 0.736 0.27905 0.57351 0.0
O396 O 0.70839 0.36335 0.61606 0.0
O397 O 0.69238 0.3204 0.62393 0.0
C398 C 0.68735 0.34668 0.61961 0.0
C399 C 0.71511 0.23709 0.63941 0.0
C400 C 0.74236 0.30186 0.56129 0.0
C401 C 0.77933 0.30803 0.6501 0.0
O402 O 0.77435 0.28569 0.63649 0.0
O403 O 0.76273 0.32882 0.64808 0.0
O404 O 0.73636 0.23307 0.62324 0.0
O405 O 0.70552 0.26233 0.64141 0.0
O406 O 0.93197 0.49845 0.8267 0.0
Cd407 Cd 0.92656 0.48246 0.86668 0.0
Cd408 Cd 0.98111 0.48884 0.86865 0.0
O409 O 0.97688 0.48788 0.82569 0.0
O410 O 0.89548 0.45432 0.86636 0.0
O411 O 0.94068 0.44334 0.86926 0.0
C412 C 0.91491 0.43544 0.86656 0.0
C413 C 0.01869 0.46762 0.8922 0.0
C414 C 0.95473 0.49562 0.81305 0.0
C415 C 0.94581 0.52765 0.90305 0.0
O416 O 0.96814 0.52459 0.88888 0.0
O417 O 0.92605 0.50994 0.90061 0.0
O418 O 0.02219 0.48903 0.87612 0.0
O419 O 0.99391 0.45684 0.89337 0.0
O420 O 0.75947 0.68585 0.07782 0.0
Cd421 Cd 0.77337 0.67987 0.11843 0.0
Cd422 Cd 0.76674 0.73482 0.11922 0.0
O423 O 0.76741 0.73117 0.07608 0.0
O424 O 0.81387 0.68805 0.12551 0.0
O425 O 0.79719 0.64553 0.11695 0.0
C426 C 0.81849 0.66175 0.12089 0.0
C427 C 0.78887 0.7716 0.14312 0.0
C428 C 0.76123 0.70839 0.06374 0.0
C429 C 0.72701 0.69943 0.15336 0.0
O430 O 0.73095 0.72201 0.1398 0.0
O431 O 0.74414 0.67917 0.1507 0.0
O432 O 0.76732 0.77572 0.12738 0.0
O433 O 0.79928 0.74662 0.14374 0.0
O434 O 0.57094 0.51225 0.32732 0.0
Cd435 Cd 0.57574 0.52474 0.36851 0.0
Cd436 Cd 0.52085 0.51792 0.36812 0.0
O437 O 0.52546 0.51944 0.32505 0.0
O438 O 0.60886 0.5503 0.36902 0.0
O439 O 0.56524 0.56438 0.37684 0.0
C440 C 0.5914 0.57054 0.3734 0.0
C441 C 0.48394 0.54004 0.39196 0.0
C442 C 0.5486 0.51407 0.31294 0.0
C443 C 0.55576 0.47726 0.40175 0.0
O444 O 0.53328 0.48171 0.38818 0.0
O445 O 0.57612 0.49434 0.39971 0.0
O446 O 0.47979 0.51883 0.37577 0.0
O447 O 0.50902 0.55012 0.39307 0.0
O448 O 0.92872 0.74549 0.68336 0.0
Cd449 Cd 0.88756 0.73281 0.67847 0.0
Cd450 Cd 0.88786 0.74041 0.73334 0.0
O451 O 0.93085 0.73844 0.72885 0.0
O452 O 0.88735 0.70751 0.64512 0.0
O453 O 0.87921 0.69303 0.68855 0.0
C454 C 0.88282 0.68712 0.66234 0.0
C455 C 0.86456 0.71933 0.77116 0.0
C456 C 0.94305 0.74378 0.70576 0.0
C457 C 0.85459 0.78069 0.69778 0.0
O458 O 0.86816 0.7766 0.72032 0.0
O459 O 0.85623 0.7631 0.67781 0.0
O460 O 0.88074 0.74067 0.77447 0.0
O461 O 0.86285 0.7087 0.74632 0.0
O462 O 0.51264 0.67879 0.93151 0.0
Cd463 Cd 0.52575 0.63791 0.92587 0.0
Cd464 Cd 0.51969 0.63752 0.98093 0.0
O465 O 0.52154 0.68052 0.9767 0.0
O466 O 0.5496 0.63901 0.89155 0.0
O467 O 0.56619 0.63065 0.93419 0.0
C468 C 0.57087 0.63535 0.90789 0.0
C469 C 0.54138 0.61438 0.01853 0.0
C470 C 0.51533 0.6929 0.95393 0.0
C471 C 0.47858 0.60463 0.94591 0.0
O472 O 0.4832 0.618 0.96847 0.0
O473 O 0.49576 0.60631 0.92557 0.0
O474 O 0.52002 0.6305 0.02207 0.0
O475 O 0.5516 0.61247 0.99352 0.0
O476 O 0.57512 0.26236 0.18165 0.0
Cd477 Cd 0.61603 0.27558 0.17608 0.0
Cd478 Cd 0.61612 0.26861 0.23061 0.0
O479 O 0.57309 0.27079 0.22691 0.0
O480 O 0.61509 0.29981 0.14198 0.0
O481 O 0.62342 0.31593 0.18479 0.0
C482 C 0.61893 0.32089 0.15852 0.0
C483 C 0.64106 0.29033 0.26688 0.0
C484 C 0.56085 0.26474 0.20404 0.0
C485 C 0.64906 0.22795 0.19556 0.0
O486 O 0.6351 0.23198 0.21789 0.0
O487 O 0.64783 0.24568 0.17568 0.0
O488 O 0.62453 0.26946 0.27145 0.0
O489 O 0.64193 0.30031 0.24173 0.0
O490 O 0.99544 0.3264 0.43736 0.0
Cd491 Cd 0.98027 0.36662 0.4316 0.0
Cd492 Cd 0.98519 0.36842 0.48634 0.0
O493 O 0.98411 0.3254 0.48209 0.0
O494 O 0.95335 0.36673 0.39943 0.0
O495 O 0.94066 0.37004 0.44415 0.0
C496 C 0.93371 0.36736 0.41809 0.0
C497 C 0.96265 0.39197 0.52326 0.0
C498 C 0.99212 0.31273 0.46004 0.0
C499 C 0.02584 0.40181 0.45196 0.0
O500 O 0.02163 0.38816 0.47441 0.0
O501 O 0.0086 0.3998 0.43173 0.0
O502 O 0.98393 0.37589 0.52744 0.0
O503 O 0.95289 0.39342 0.49806 0.0
O504 O 0.92858 0.25834 0.82057 0.0
Cd505 Cd 0.88835 0.27408 0.82377 0.0
Cd506 Cd 0.88951 0.26698 0.76938 0.0
O507 O 0.93237 0.26803 0.77559 0.0
O508 O 0.88691 0.3019 0.8552 0.0
O509 O 0.88627 0.31337 0.81007 0.0
C510 C 0.88761 0.32102 0.83602 0.0
C511 C 0.86628 0.28961 0.73244 0.0
C512 C 0.94365 0.26091 0.7987 0.0
C513 C 0.85347 0.22828 0.80293 0.0
O514 O 0.86885 0.23111 0.78138 0.0
O515 O 0.85475 0.24628 0.82256 0.0
O516 O 0.88254 0.26844 0.72816 0.0
O517 O 0.86491 0.29939 0.75763 0.0
O518 O 0.99219 0.67933 0.07272 0.0
Cd519 Cd 0.97968 0.6384 0.07956 0.0
Cd520 Cd 0.98422 0.63638 0.02466 0.0
O521 O 0.9822 0.6794 0.02772 0.0
O522 O 0.9543 0.63914 0.11283 0.0
O523 O 0.93996 0.6299 0.06956 0.0
C524 C 0.93394 0.63433 0.09563 0.0
C525 C 0.96224 0.61213 0.98798 0.0
C526 C 0.98907 0.69259 0.0498 0.0
C527 C 0.02668 0.60496 0.05945 0.0
O528 O 0.02121 0.61751 0.03661 0.0
O529 O 0.01012 0.60718 0.08024 0.0
O530 O 0.98329 0.62848 0.98371 0.0
O531 O 0.95236 0.61081 0.01314 0.0
O532 O 0.57445 0.74528 0.32312 0.0
Cd533 Cd 0.6149 0.73175 0.33106 0.0
Cd534 Cd 0.61837 0.73682 0.27574 0.0
O535 O 0.57526 0.73619 0.27792 0.0
O536 O 0.61235 0.70748 0.36502 0.0
O537 O 0.62269 0.69145 0.32258 0.0
C538 C 0.61708 0.68644 0.34864 0.0
C539 C 0.6423 0.71554 0.23839 0.0
C540 C 0.5617 0.74297 0.29982 0.0
C541 C 0.65055 0.77763 0.31199 0.0
O542 O 0.63836 0.77276 0.28882 0.0
O543 O 0.64692 0.76124 0.3327 0.0
O544 O 0.62664 0.73723 0.23486 0.0
O545 O 0.64304 0.70461 0.26314 0.0
O546 O 0.51309 0.32522 0.57103 0.0
Cd547 Cd 0.52598 0.36632 0.57595 0.0
Cd548 Cd 0.51783 0.36607 0.52135 0.0
O549 O 0.51943 0.32307 0.52541 0.0
O550 O 0.55134 0.36644 0.60925 0.0
O551 O 0.56581 0.37451 0.56581 0.0
C552 C 0.57175 0.3709 0.59201 0.0
C553 C 0.53937 0.39024 0.48441 0.0
C554 C 0.51432 0.31091 0.54858 0.0
C555 C 0.4779 0.39932 0.55723 0.0
O556 O 0.48173 0.38572 0.53465 0.0
O557 O 0.49575 0.39771 0.57696 0.0
O558 O 0.51806 0.37415 0.4804 0.0
O559 O 0.54983 0.39112 0.50935 0.0
O560 O 0.68252 0.92935 0.74133 0.0
Cd561 Cd 0.67777 0.88808 0.72901 0.0
Cd562 Cd 0.73268 0.88861 0.736 0.0
O563 O 0.728 0.93154 0.7341 0.0
O564 O 0.64456 0.88754 0.70357 0.0
O565 O 0.68811 0.87956 0.68932 0.0
C566 C 0.66192 0.88307 0.68326 0.0
C567 C 0.77048 0.86561 0.7145 0.0
C568 C 0.70489 0.94369 0.73944 0.0
C569 C 0.69756 0.85564 0.77701 0.0
O570 O 0.7201 0.86906 0.77243 0.0
O571 O 0.67736 0.85711 0.75967 0.0
O572 O 0.77386 0.88179 0.73583 0.0
O573 O 0.74555 0.86363 0.70417 0.0
O574 O 0.18297 0.57766 0.26324 0.0
Cd575 Cd 0.17838 0.61869 0.2763 0.0
Cd576 Cd 0.23305 0.6181 0.26866 0.0
O577 O 0.22848 0.57509 0.27006 0.0
O578 O 0.14526 0.61878 0.30193 0.0
O579 O 0.18886 0.62645 0.3161 0.0
C580 C 0.16271 0.62282 0.32224 0.0
C581 C 0.27041 0.64138 0.29053 0.0
C582 C 0.20527 0.56315 0.26473 0.0
C583 C 0.19764 0.65163 0.22844 0.0
O584 O 0.22017 0.63802 0.23254 0.0
O585 O 0.17769 0.6501 0.24609 0.0
O586 O 0.27415 0.62541 0.26908 0.0
O587 O 0.2454 0.64291 0.30079 0.0
O588 O 0.68039 0.93367 0.50957 0.0
Cd589 Cd 0.63956 0.92631 0.52231 0.0
Cd590 Cd 0.63715 0.98127 0.51771 0.0
O591 O 0.6802 0.97859 0.51978 0.0
O592 O 0.64112 0.8921 0.54629 0.0
O593 O 0.63138 0.93454 0.56259 0.0
C594 C 0.63647 0.90836 0.56744 0.0
C595 C 0.61234 0.01759 0.53965 0.0
C596 C 0.69353 0.95662 0.51279 0.0
C597 C 0.60566 0.94634 0.47559 0.0
O598 O 0.61834 0.96915 0.48079 0.0
O599 O 0.60801 0.92566 0.49224 0.0
O600 O 0.6287 0.02208 0.51864 0.0
O601 O 0.61141 0.99244 0.54958 0.0
O602 O 0.32247 0.42694 0.76124 0.0
Cd603 Cd 0.3295 0.38635 0.7747 0.0
Cd604 Cd 0.27425 0.38388 0.77029 0.0
O605 O 0.27739 0.42695 0.77091 0.0
O606 O 0.36272 0.38779 0.80006 0.0
O607 O 0.31949 0.37863 0.81461 0.0
C608 C 0.34553 0.38328 0.82052 0.0
C609 C 0.23658 0.36093 0.79208 0.0
C610 C 0.29944 0.44012 0.76387 0.0
C611 C 0.30948 0.35106 0.729 0.0
O612 O 0.28655 0.36358 0.73421 0.0
O613 O 0.33044 0.35437 0.74512 0.0
O614 O 0.23319 0.37659 0.77038 0.0
O615 O 0.26145 0.35945 0.80263 0.0
O616 O 0.32596 0.56927 0.51329 0.0
Cd617 Cd 0.36692 0.576 0.52589 0.0
Cd618 Cd 0.36913 0.52072 0.52027 0.0
O619 O 0.32602 0.5239 0.5214 0.0
O620 O 0.36613 0.60918 0.55142 0.0
O621 O 0.37566 0.56595 0.56563 0.0
C622 C 0.37124 0.59199 0.57172 0.0
C623 C 0.39244 0.48301 0.54161 0.0
C624 C 0.31278 0.5462 0.51534 0.0
C625 C 0.40144 0.55646 0.47904 0.0
O626 O 0.38908 0.53344 0.48411 0.0
O627 O 0.39825 0.5772 0.49551 0.0
O628 O 0.37659 0.47968 0.52004 0.0
O629 O 0.39393 0.50783 0.55228 0.0
O630 O 0.81785 0.07636 0.24418 0.0
Cd631 Cd 0.82473 0.11716 0.23122 0.0
Cd632 Cd 0.76948 0.11937 0.23656 0.0
O633 O 0.77249 0.07627 0.23601 0.0
O634 O 0.85849 0.11605 0.20646 0.0
O635 O 0.81563 0.12568 0.19121 0.0
C636 C 0.8418 0.12113 0.18575 0.0
C637 C 0.73234 0.14272 0.21423 0.0
C638 C 0.79478 0.06315 0.24234 0.0
C639 C 0.80501 0.15148 0.27798 0.0
O640 O 0.78192 0.13929 0.2728 0.0
O641 O 0.82574 0.14854 0.26145 0.0
O642 O 0.72847 0.12717 0.23594 0.0
O643 O 0.75739 0.14395 0.20405 0.0
O644 O 0.6786 0.07455 0.99265 0.0
Cd645 Cd 0.6379 0.08001 0.97882 0.0
Cd646 Cd 0.63749 0.02537 0.98715 0.0
O647 O 0.68054 0.02909 0.98549 0.0
O648 O 0.6396 0.11395 0.95447 0.0
O649 O 0.63095 0.07121 0.93836 0.0
C650 C 0.63586 0.09739 0.93339 0.0
C651 C 0.61377 0.98761 0.96658 0.0
C652 C 0.69279 0.05206 0.99104 0.0
C653 C 0.60415 0.06179 0.02646 0.0
O654 O 0.6179 0.03924 0.02306 0.0
O655 O 0.60579 0.08129 0.00835 0.0
O656 O 0.62984 0.9844 0.98803 0.0
O657 O 0.61234 0.0123 0.95557 0.0
O658 O 0.82758 0.93363 0.49624 0.0
Cd659 Cd 0.86821 0.92645 0.48279 0.0
Cd660 Cd 0.8708 0.98148 0.48843 0.0
O661 O 0.82772 0.97885 0.4874 0.0
O662 O 0.86615 0.89261 0.45831 0.0
O663 O 0.87575 0.93525 0.44248 0.0
C664 C 0.87044 0.90917 0.43732 0.0
C665 C 0.89473 0.01842 0.4665 0.0
C666 C 0.81447 0.95672 0.49396 0.0
C667 C 0.9029 0.94551 0.52941 0.0
O668 O 0.89046 0.96856 0.52467 0.0
O669 O 0.9001 0.92506 0.51253 0.0
O670 O 0.87904 0.02235 0.48812 0.0
O671 O 0.89559 0.99346 0.45608 0.0
C672 C 0.25479 0.18284 0.51669 0.0
C673 C 0.25728 0.20795 0.53197 0.0
C674 C 0.24981 0.18298 0.48775 0.0
C675 C 0.24688 0.20824 0.47278 0.0
H676 H 0.25684 0.16277 0.52709 0.0
H677 H 0.24814 0.16302 0.47709 0.0
S678 S 0.25137 0.27993 0.50285 0.0
N679 N 0.25631 0.25891 0.52988 0.0
N680 N 0.24685 0.25919 0.47555 0.0
C681 C 0.24921 0.23357 0.48779 0.0
C682 C 0.25446 0.23343 0.5173 0.0
C683 C 0.02576 0.99698 0.73909 0.0
C684 C 0.05105 0.99578 0.72386 0.0
C685 C 0.02553 1.00228 0.76802 0.0
C686 C 0.05058 0.0064 0.78304 0.0
H687 H 0.00587 0.9939 0.7286 0.0
H688 H 0.0055 0.0029 0.77871 0.0
S689 S 0.12253 0.00583 0.75316 0.0
N690 N 0.10191 0.99947 0.72616 0.0
N691 N 0.10144 0.00937 0.78035 0.0
C692 C 0.07604 0.00533 0.7681 0.0
C693 C 0.07628 1.00005 0.73861 0.0
C694 C 0.25488 0.7741 0.98926 0.0
C695 C 0.25607 0.79909 0.9736 0.0
C696 C 0.24917 0.77435 0.0181 0.0
C697 C 0.24461 0.79962 0.03263 0.0
H698 H 0.25832 0.75405 0.9792 0.0
H699 H 0.24864 0.75451 0.02912 0.0
S700 S 0.24499 0.87098 1.00145 0.0
N701 N 0.25187 0.84993 0.97489 0.0
N702 N 0.24124 0.85039 0.02898 0.0
C703 C 0.24562 0.82481 0.01724 0.0
C704 C 0.2513 0.82454 0.98781 0.0
C705 C 0.43472 1.00018 0.26557 0.0
C706 C 0.45998 0.99822 0.28069 0.0
C707 C 0.43456 0.00562 0.23672 0.0
C708 C 0.45965 0.00957 0.22166 0.0
H709 H 0.41478 0.99734 0.27605 0.0
H710 H 0.41449 0.00683 0.22619 0.0
S711 S 0.53161 0.00687 0.2513 0.0
N712 N 0.5109 1.00084 0.27835 0.0
N713 N 0.51059 0.01117 0.22417 0.0
C714 C 0.48512 0.0078 0.2365 0.0
C715 C 0.48529 1.00208 0.26593 0.0
C716 C 0.51525 0.2559 0.22875 0.0
C717 C 0.53007 0.25989 0.20354 0.0
C718 C 0.48633 0.25061 0.22882 0.0
C719 C 0.47091 0.24931 0.20368 0.0
H720 H 0.5261 0.25655 0.24868 0.0
H721 H 0.47602 0.24759 0.24883 0.0
S722 S 0.4996 0.25909 0.13187 0.0
N723 N 0.52695 0.2627 0.15268 0.0
N724 N 0.47276 0.25283 0.15277 0.0
C725 C 0.48543 0.25352 0.17829 0.0
C726 C 0.51491 0.25878 0.17822 0.0
C727 C 1.00134 0.26731 0.43534 0.0
C728 C 0.9976 0.28206 0.46063 0.0
C729 C 0.00647 0.2384 0.43513 0.0
C730 C 0.00833 0.22295 0.46022 0.0
H731 H 1.00014 0.27812 0.41541 0.0
H732 H 0.00914 0.22814 0.41506 0.0
S733 S 1.00028 0.25149 0.53224 0.0
N734 N 0.99619 0.27891 0.51156 0.0
N735 N 0.00595 0.22465 0.51116 0.0
C736 C 0.00475 0.23741 0.4857 0.0
C737 C 0.99933 0.26688 0.48593 0.0
C738 C 0.0184 0.75362 0.73017 0.0
C739 C 0.03334 0.7573 0.70499 0.0
C740 C 0.98934 0.74913 0.73019 0.0
C741 C 0.97391 0.74833 0.70503 0.0
H742 H 0.02922 0.75398 0.75012 0.0
H743 H 0.97893 0.74638 0.75018 0.0
S744 S 0.00297 0.75752 0.63328 0.0
N745 N 0.03039 0.7603 0.65414 0.0
N746 N 0.97594 0.75193 0.65413 0.0
C747 C 0.98859 0.75216 0.67966 0.0
C748 C 0.01821 0.75661 0.67965 0.0
C749 C 0.5012 0.76715 0.97919 0.0
C750 C 0.50098 0.78294 0.95424 0.0
C751 C 0.50614 0.73819 0.9789 0.0
C752 C 0.51081 0.7237 0.95364 0.0
H753 H 0.49759 0.77719 0.99922 0.0
H754 H 0.50595 0.72704 0.9987 0.0
S755 S 0.51305 0.75518 0.88244 0.0
N756 N 0.50637 0.78181 0.90348 0.0
N757 N 0.51553 0.72747 0.90297 0.0
C758 C 0.5108 0.7392 0.9285 0.0
C759 C 0.50594 0.76875 0.92882 0.0
C760 C 0.51541 0.75052 0.32338 0.0
C761 C 0.53102 0.74823 0.29844 0.0
C762 C 0.48648 0.75546 0.32291 0.0
C763 C 0.47185 0.75854 0.29747 0.0
H764 H 0.52555 0.74831 0.34358 0.0
H765 H 0.47556 0.75697 0.34277 0.0
S766 S 0.50286 0.75467 0.22611 0.0
N767 N 0.52961 0.74961 0.24743 0.0
N768 N 0.47527 0.75899 0.24655 0.0
C769 C 0.48718 0.75644 0.27231 0.0
C770 C 0.51669 0.75123 0.27278 0.0
C771 C 0.50566 0.26515 0.52415 0.0
C772 C 0.50914 0.28018 0.54931 0.0
C773 C 0.50012 0.23628 0.52423 0.0
C774 C 0.498 0.22113 0.54948 0.0
H775 H 0.50699 0.27576 0.50412 0.0
H776 H 0.4976 0.22579 0.50426 0.0
S777 S 0.50568 0.25045 0.62125 0.0
N778 N 0.51026 0.27754 0.60028 0.0
N779 N 0.49989 0.22347 0.60044 0.0
C780 C 0.50156 0.23586 0.57483 0.0
C781 C 0.5071 0.26529 0.57475 0.0
C782 C 0.98994 0.25304 0.77502 0.0
C783 C 0.97432 0.25543 0.79996 0.0
C784 C 0.01885 0.2478 0.7755 0.0
C785 C 0.03349 0.24494 0.80097 0.0
H786 H 0.97976 0.2551 0.75483 0.0
H787 H 0.02981 0.24621 0.75568 0.0
S788 S 1.0025 0.24947 0.87233 0.0
N789 N 0.97578 0.25455 0.85097 0.0
N790 N 0.03002 0.24479 0.8519 0.0
C791 C 0.01815 0.2473 0.82611 0.0
C792 C 0.98865 0.2525 0.82562 0.0
C793 C 0.99701 0.73832 0.07425 0.0
C794 C 0.99374 0.72338 0.04902 0.0
C795 C 1.00178 0.76728 0.07435 0.0
C796 C 0.00373 0.78258 0.04919 0.0
H797 H 0.99582 0.72762 0.09425 0.0
H798 H 0.0042 0.77766 0.09439 0.0
S799 S 0.99648 0.7536 0.97727 0.0
N800 N 0.99259 0.72624 0.99807 0.0
N801 N 1.00168 0.78061 0.99824 0.0
C802 C 1.00045 0.76796 0.02375 0.0
C803 C 0.9954 0.73844 0.02366 0.0
C804 C 0.22868 0.48847 0.24921 0.0
C805 C 0.20333 0.47336 0.24859 0.0
C806 C 0.22913 0.51735 0.25472 0.0
C807 C 0.20424 0.53242 0.25966 0.0
H808 H 0.24845 0.47796 0.24545 0.0
H809 H 0.2492 0.52795 0.2548 0.0
S810 S 0.13224 0.5028 0.26101 0.0
N811 N 0.1526 0.47579 0.25385 0.0
N812 N 0.15348 0.52988 0.26413 0.0
C813 C 0.17873 0.51758 0.25926 0.0
C814 C 0.17827 0.48815 0.25376 0.0
C815 C 0.72913 0.01831 0.75353 0.0
C816 C 0.70395 0.03371 0.75425 0.0
C817 C 0.72923 0.98936 0.74846 0.0
C818 C 0.70414 0.97449 0.74408 0.0
H819 H 0.74906 0.02865 0.75685 0.0
H820 H 0.7492 0.97855 0.74827 0.0
S821 S 0.63243 0.00488 0.74326 0.0
N822 N 0.65313 0.03178 0.74972 0.0
N823 N 0.65336 0.97751 0.74027 0.0
C824 C 0.67878 0.98961 0.74462 0.0
C825 C 0.67868 0.01913 0.74966 0.0
C826 C 0.23816 0.48406 0.00369 0.0
C827 C 0.22314 0.45898 0.00764 0.0
C828 C 0.26711 0.48388 0.99845 0.0
C829 C 0.28234 0.45861 0.99713 0.0
H830 H 0.22748 0.50408 0.00444 0.0
H831 H 0.27761 0.50378 0.99554 0.0
S832 S 0.25304 0.38705 0.00647 0.0
N833 N 0.22585 0.4081 0.01017 0.0
N834 N 0.28005 0.40773 1.00036 0.0
C835 C 0.26759 0.43335 1.00117 0.0
C836 C 0.2381 0.43354 0.00639 0.0
C837 C 0.81938 0.01753 0.25061 0.0
C838 C 0.79409 0.0325 0.24796 0.0
C839 C 0.81959 0.98871 0.2562 0.0
C840 C 0.79452 0.97355 0.25958 0.0
H841 H 0.83934 0.02809 0.24826 0.0
H842 H 0.8397 0.97831 0.25797 0.0
S843 S 0.72245 0.00276 0.25484 0.0
N844 N 0.74314 0.02989 0.24923 0.0
N845 N 0.74352 0.97579 0.25981 0.0
C846 C 0.769 0.98823 0.25706 0.0
C847 C 0.76879 0.01763 0.2512 0.0
C848 C 0.73812 0.02754 1.00148 0.0
C849 C 0.72352 0.05261 0.9961 0.0
C850 C 0.76701 0.02754 0.00692 0.0
C851 C 0.78261 0.0526 0.00701 0.0
H852 H 0.72712 0.00769 1.00179 0.0
H853 H 0.77716 0.00766 0.01103 0.0
S854 S 0.7545 0.12396 0.99324 0.0
N855 N 0.727 0.10318 0.99061 0.0
N856 N 0.78115 0.10324 1.00076 0.0
C857 C 0.76829 0.07783 1.0014 0.0
C858 C 0.73884 0.07782 0.99599 0.0
C859 C 0.32368 0.48596 0.75596 0.0
C860 C 0.29851 0.47083 0.75871 0.0
C861 C 0.32362 0.51491 0.75113 0.0
C862 C 0.2984 0.53002 0.74862 0.0
H863 H 0.34372 0.47544 0.75771 0.0
H864 H 0.34363 0.52547 0.74925 0.0
S865 S 0.22659 0.50036 0.75387 0.0
N866 N 0.24753 0.4732 0.75839 0.0
N867 N 0.24743 0.52756 0.74922 0.0
C868 C 0.27302 0.51516 0.75118 0.0
C869 C 0.27307 0.48564 0.75628 0.0
C870 C 0.26704 0.5708 0.50753 0.0
C871 C 0.28198 0.54551 0.51044 0.0
C872 C 0.23809 0.571 0.50263 0.0
C873 C 0.22275 0.54593 0.50022 0.0
H874 H 0.27774 0.59074 0.50911 0.0
H875 H 0.22773 0.59109 0.50054 0.0
S876 S 0.25173 0.47389 0.50628 0.0
N877 N 0.27909 0.49457 0.51065 0.0
N878 N 0.22474 0.49496 0.50135 0.0
C879 C 0.23737 0.52042 0.50309 0.0
C880 C 0.26691 0.52022 0.50824 0.0
C881 C 0.75479 0.73343 0.01786 0.0
C882 C 0.75591 0.70809 0.03298 0.0
C883 C 0.74976 0.73375 0.98888 0.0
C884 C 0.74583 0.70875 0.97371 0.0
H885 H 0.75777 0.75327 0.02845 0.0
H886 H 0.74924 0.75381 0.97827 0.0
S887 S 0.74626 0.63672 0.0033 0.0
N888 N 0.7523 0.65725 0.03045 0.0
N889 N 0.74292 0.65789 0.97617 0.0
C890 C 0.74677 0.68325 0.98856 0.0
C891 C 0.75177 0.68292 0.01809 0.0
C892 C 0.52448 0.50547 0.26699 0.0
C893 C 0.5495 0.50947 0.2821 0.0
C894 C 0.52477 0.50055 0.238 0.0
C895 C 0.55008 0.49958 0.22279 0.0
H896 H 0.50443 0.50589 0.27764 0.0
H897 H 0.50489 0.49754 0.22747 0.0
S898 S 0.62149 0.50945 0.25229 0.0
N899 N 0.60036 0.5126 0.2795 0.0
N900 N 0.60092 0.5034 0.22517 0.0
C901 C 0.57527 0.50375 0.23762 0.0
C902 C 0.57498 0.50866 0.26717 0.0
C903 C 0.7555 0.27739 0.4866 0.0
C904 C 0.75521 0.30248 0.47101 0.0
C905 C 0.75106 0.27739 0.51565 0.0
C906 C 0.74642 0.30246 0.53043 0.0
H907 H 0.75915 0.2575 0.47633 0.0
H908 H 0.75162 0.25751 0.52663 0.0
S909 S 0.74287 0.37386 0.4996 0.0
N910 N 0.74932 0.35314 0.47267 0.0
N911 N 0.7411 0.35308 0.52719 0.0
C912 C 0.7459 0.32772 0.51515 0.0
C913 C 0.75024 0.32771 0.4855 0.0
C914 C 0.92996 0.50885 0.73846 0.0
C915 C 0.9551 0.51129 0.72318 0.0
C916 C 0.93008 0.50401 0.76744 0.0
C917 C 0.95535 0.50114 0.78239 0.0
H918 H 0.9099 0.51078 0.72801 0.0
H919 H 0.91012 0.50225 0.77813 0.0
S920 S 0.02709 0.50588 0.75235 0.0
N921 N 0.00607 0.51059 0.7253 0.0
N922 N 0.00632 0.50139 0.77966 0.0
C923 C 0.98069 0.50358 0.76739 0.0
C924 C 0.98057 0.5087 0.73788 0.0
C925 C 0.76841 0.93241 0.50017 0.0
C926 C 0.78371 0.95758 0.49887 0.0
C927 C 0.73939 0.93239 0.50465 0.0
C928 C 0.72437 0.95754 0.50826 0.0
H929 H 0.77885 0.91242 0.49749 0.0
H930 H 0.72871 0.91238 0.50537 0.0
S931 S 0.75454 0.0293 0.5072 0.0
N932 N 0.78164 0.00846 0.50186 0.0
N933 N 0.72715 0.00844 0.5104 0.0
C934 C 0.73941 0.98292 0.5072 0.0
C935 C 0.76901 0.98294 0.50245 0.0
C936 C 0.21167 0.33879 0.32407 0.0
C937 C 0.1943 0.33352 0.30086 0.0
C938 C 0.21601 0.31854 0.34479 0.0
C939 C 0.2034 0.29195 0.34312 0.0
H940 H 0.22302 0.35838 0.32569 0.0
H941 H 0.2306 0.32339 0.36149 0.0
S942 S 0.15306 0.26886 0.28845 0.0
N943 N 0.16199 0.3009 0.27885 0.0
N944 N 0.1703 0.26252 0.31779 0.0
C945 C 0.18427 0.28709 0.32113 0.0
C946 C 0.17968 0.30795 0.30001 0.0
C947 C 0.96899 0.93634 0.57256 0.0
C948 C 0.96295 0.95245 0.59661 0.0
C949 C 0.94869 0.93208 0.55157 0.0
C950 C 0.9218 0.94393 0.55395 0.0
H951 H 0.99 0.92849 0.569 0.0
H952 H 0.9547 0.92119 0.53257 0.0
S953 S 0.89366 0.98276 0.61514 0.0
N954 N 0.92665 0.97638 0.62336 0.0
N955 N 0.88893 0.96875 0.58386 0.0
C956 C 0.91483 0.9579 0.57891 0.0
C957 C 0.93529 0.96204 0.60028 0.0
C958 C 0.31851 0.71438 0.82422 0.0
C959 C 0.30191 0.70835 0.84795 0.0
C960 C 0.32289 0.69425 0.80309 0.0
C961 C 0.31067 0.66752 0.80494 0.0
H962 H 0.32671 0.73529 0.82103 0.0
H963 H 0.33423 0.70031 0.78436 0.0
S964 S 0.2703 0.63933 0.86512 0.0
N965 N 0.27697 0.67213 0.87383 0.0
N966 N 0.28484 0.63473 0.83405 0.0
C967 C 0.29612 0.6605 0.82958 0.0
C968 C 0.29186 0.68079 0.85112 0.0
C969 C 0.55759 0.07426 0.04755 0.0
C970 C 0.58489 0.06361 0.05072 0.0
C971 C 0.53713 0.06991 0.06838 0.0
C972 C 0.54342 0.05488 0.09304 0.0
H973 H 0.55144 0.0842 0.02808 0.0
H974 H 0.51587 0.07672 0.06425 0.0
S975 S 0.61354 0.02817 0.11368 0.0
N976 N 0.61825 0.04128 0.08201 0.0
N977 N 0.58017 0.03343 0.12116 0.0
C978 C 0.57138 0.04659 0.09747 0.0
C979 C 0.59202 0.05085 0.07628 0.0
C980 C 0.18779 0.71739 0.18482 0.0
C981 C 0.20386 0.71139 0.16073 0.0
C982 C 0.18394 0.69722 0.20601 0.0
C983 C 0.19617 0.67049 0.20383 0.0
H984 H 0.17959 0.73828 0.18821 0.0
H985 H 0.17296 0.70322 0.22496 0.0
S986 S 0.23519 0.64245 0.14266 0.0
N987 N 0.2283 0.67528 0.13421 0.0
N988 N 0.22136 0.63776 0.17404 0.0
C989 C 0.21018 0.66353 0.17885 0.0
C990 C 0.21392 0.68387 0.15728 0.0
C991 C 0.56006 0.93311 0.45299 0.0
C992 C 0.58676 0.94544 0.45102 0.0
C993 C 0.53967 0.93781 0.43221 0.0
C994 C 0.5454 0.95486 0.40874 0.0
H995 H 0.55426 0.92142 0.47158 0.0
H996 H 0.51881 0.92947 0.43547 0.0
S997 S 0.61413 0.98696 0.39128 0.0
N998 N 0.61915 0.97187 0.422 0.0
N999 N 0.58124 0.98037 0.38287 0.0
C1000 C 0.57289 0.96505 0.40541 0.0
C1001 C 0.59345 0.96044 0.42658 0.0
C1002 C 0.28801 0.31703 0.66098 0.0
C1003 C 0.30113 0.29063 0.66204 0.0
C1004 C 0.29237 0.33704 0.6819 0.0
C1005 C 0.31029 0.33175 0.70468 0.0
H1006 H 0.27302 0.32186 0.64463 0.0
H1007 H 0.28063 0.35646 0.6808 0.0
S1008 S 0.35293 0.26766 0.71542 0.0
N1009 N 0.33524 0.26142 0.68632 0.0
N1010 N 0.3436 0.29941 0.72562 0.0
C1011 C 0.32539 0.30644 0.7049 0.0
C1012 C 0.32077 0.28579 0.68359 0.0
C1013 C 0.9172 0.04111 0.93187 0.0
C1014 C 0.92262 0.05877 0.95483 0.0
C1015 C 0.93717 0.03681 0.91083 0.0
C1016 C 0.96364 0.04976 0.91191 0.0
H1017 H 0.89768 0.02958 0.93064 0.0
H1018 H 0.9322 0.02204 0.89433 0.0
S1019 S 0.9871 0.10069 0.96589 0.0
N1020 N 0.95529 0.09154 0.97606 0.0
N1021 N 0.99315 0.08328 0.93657 0.0
C1022 C 0.96866 0.06905 0.93373 0.0
C1023 C 0.94808 0.07361 0.95517 0.0
C1024 C 0.32123 0.18856 0.28753 0.0
C1025 C 0.34481 0.20547 0.29316 0.0
C1026 C 0.30041 0.1841 0.30797 0.0
C1027 C 0.30244 0.19656 0.3346 0.0
H1028 H 0.31792 0.18015 0.26671 0.0
H1029 H 0.28177 0.1725 0.30224 0.0
S1030 S 0.36238 0.23785 0.36174 0.0
N1031 N 0.37078 0.23101 0.32887 0.0
N1032 N 0.33157 0.22299 0.36685 0.0
C1033 C 0.32695 0.21145 0.34121 0.0
C1034 C 0.34817 0.21579 0.32061 0.0
C1035 C 0.04157 0.07245 0.58937 0.0
C1036 C 0.05934 0.0495 0.58425 0.0
C1037 C 0.03778 0.09354 0.56939 0.0
C1038 C 0.05136 0.09251 0.54321 0.0
H1039 H 0.02956 0.07363 0.60863 0.0
H1040 H 0.0229 0.11005 0.57409 0.0
S1041 S 0.10282 0.03858 0.5207 0.0
N1042 N 0.09289 0.02833 0.55226 0.0
N1043 N 0.08557 0.06793 0.51437 0.0
C1044 C 0.07076 0.07071 0.53854 0.0
C1045 C 0.0748 0.04922 0.55914 0.0
C1046 C 0.16201 0.7831 0.8179 0.0
C1047 C 0.16364 0.79612 0.79149 0.0
C1048 C 0.18309 0.78657 0.83794 0.0
C1049 C 0.20668 0.80343 0.83264 0.0
H1050 H 0.14495 0.76896 0.8228 0.0
H1051 H 0.1813 0.7751 0.85746 0.0
S1052 S 0.21953 0.84505 0.76824 0.0
N1053 N 0.18964 0.82874 0.76208 0.0
N1054 N 0.22923 0.83545 0.80006 0.0
C1055 C 0.20769 0.81826 0.80718 0.0
C1056 C 0.18619 0.81457 0.78653 0.0
C1057 C 0.47102 0.91089 0.06916 0.0
C1058 C 0.45706 0.911 0.04318 0.0
C1059 C 0.46693 0.93231 0.08875 0.0
C1060 C 0.44843 0.95464 0.08345 0.0
H1061 H 0.48645 0.89493 0.07393 0.0
H1062 H 0.47926 0.9319 0.10781 0.0
S1063 S 0.40371 0.96299 0.02047 0.0
N1064 N 0.4217 0.93402 0.01444 0.0
N1065 N 0.41382 0.97418 0.05163 0.0
C1066 C 0.43261 0.95396 0.05861 0.0
C1067 C 0.43697 0.93217 0.03839 0.0
C1068 C 0.34319 0.7876 0.18695 0.0
C1069 C 0.34157 0.80049 0.21344 0.0
C1070 C 0.32226 0.79149 0.16682 0.0
C1071 C 0.2989 0.80868 0.17211 0.0
H1072 H 0.36004 0.77316 0.1821 0.0
H1073 H 0.32387 0.77997 0.14731 0.0
S1074 S 0.28637 0.85031 0.23655 0.0
N1075 N 0.31599 0.8335 0.2428 0.0
N1076 N 0.27669 0.84099 0.20465 0.0
C1077 C 0.29803 0.82351 0.19757 0.0
C1078 C 0.31936 0.81937 0.21831 0.0
C1079 C 0.43434 0.04983 0.44564 0.0
C1080 C 0.44676 0.05214 0.419 0.0
C1081 C 0.43834 0.07074 0.46606 0.0
C1082 C 0.45475 0.09466 0.4604 0.0
H1083 H 0.42315 0.03094 0.45138 0.0
H1084 H 0.43003 0.06723 0.4869 0.0
S1085 S 0.48671 0.11296 0.39178 0.0
N1086 N 0.47253 0.08184 0.38671 0.0
N1087 N 0.47969 0.1212 0.42465 0.0
C1088 C 0.46497 0.09827 0.43294 0.0
C1089 C 0.46109 0.07696 0.41236 0.0
C1090 C 0.18427 0.18689 0.71772 0.0
C1091 C 0.16054 0.20367 0.71227 0.0
C1092 C 0.20495 0.18252 0.69711 0.0
C1093 C 0.2026 0.19493 0.67048 0.0
H1094 H 0.18781 0.1785 0.73852 0.0
H1095 H 0.22371 0.17102 0.70269 0.0
S1096 S 0.14217 0.23586 0.64379 0.0
N1097 N 0.13409 0.22902 0.67674 0.0
N1098 N 0.17303 0.22117 0.63845 0.0
C1099 C 0.17794 0.20968 0.66407 0.0
C1100 C 0.15687 0.21393 0.68484 0.0
C1101 C 0.03567 0.90949 0.9389 0.0
C1102 C 0.04845 0.91131 0.96542 0.0
C1103 C 0.04007 0.92996 0.91842 0.0
C1104 C 0.05766 0.95306 0.92338 0.0
H1105 H 0.02093 0.89285 0.93429 0.0
H1106 H 0.02862 0.92823 0.89888 0.0
S1107 S 0.09923 0.96584 0.98778 0.0
N1108 N 0.08181 0.9367 0.99448 0.0
N1109 N 0.09025 0.97516 0.95567 0.0
C1110 C 0.07239 0.95406 0.94889 0.0
C1111 C 0.06774 0.9332 0.96998 0.0
C1112 C 0.31595 0.34563 0.21809 0.0
C1113 C 0.28967 0.34449 0.20476 0.0
C1114 C 0.33599 0.32461 0.21414 0.0
C1115 C 0.33084 0.3016 0.19646 0.0
H1116 H 0.32068 0.36216 0.23291 0.0
H1117 H 0.35533 0.3259 0.22596 0.0
S1118 S 0.26704 0.29047 0.1535 0.0
N1119 N 0.26071 0.3198 0.17078 0.0
N1120 N 0.29869 0.28032 0.16319 0.0
C1121 C 0.30561 0.30123 0.18121 0.0
C1122 C 0.28496 0.32266 0.1854 0.0
C1123 C 0.81802 0.16053 0.78235 0.0
C1124 C 0.7916 0.16229 0.79536 0.0
C1125 C 0.83834 0.18124 0.7863 0.0
C1126 C 0.83332 0.20459 0.8036 0.0
H1127 H 0.82269 0.1437 0.76784 0.0
H1128 H 0.85784 0.17939 0.77478 0.0
S1129 S 0.76911 0.21735 0.84562 0.0
N1130 N 0.76256 0.18791 0.82864 0.0
N1131 N 0.80103 0.22685 0.83617 0.0
C1132 C 0.80787 0.20561 0.81848 0.0
C1133 C 0.78695 0.18447 0.81433 0.0
C1134 C 0.05021 0.55972 0.07233 0.0
C1135 C 0.05167 0.58661 0.06037 0.0
C1136 C 0.07158 0.53991 0.06763 0.0
C1137 C 0.09513 0.54644 0.05098 0.0
H1138 H 0.03163 0.55331 0.08369 0.0
H1139 H 0.06872 0.51887 0.07564 0.0
S1140 S 0.11122 0.61601 0.01999 0.0
N1141 N 0.08018 0.62005 0.03473 0.0
N1142 N 0.1204 0.58325 0.02629 0.0
C1143 C 0.09789 0.57414 0.0412 0.0
C1144 C 0.07612 0.5941 0.04578 0.0
C1145 C 0.6647 0.82502 0.29589 0.0
C1146 C 0.66991 0.80185 0.31333 0.0
C1147 C 0.68488 0.84584 0.29179 0.0
C1148 C 0.71135 0.84427 0.3047 0.0
H1149 H 0.64525 0.82648 0.28426 0.0
H1150 H 0.68012 0.86248 0.2771 0.0
S1151 S 0.73411 0.78975 0.35539 0.0
N1152 N 0.70222 0.78002 0.34608 0.0
N1153 N 0.74051 0.81911 0.3382 0.0
C1154 C 0.71608 0.82235 0.32395 0.0
C1155 C 0.69527 0.80115 0.32831 0.0
C1156 C 0.90745 0.93795 0.03986 0.0
C1157 C 0.90929 0.96446 0.05266 0.0
C1158 C 0.92799 0.9175 0.04414 0.0
C1159 C 0.95114 0.92245 0.06167 0.0
H1160 H 0.8908 0.93336 0.02514 0.0
H1161 H 0.92632 0.89801 0.03261 0.0
S1162 S 0.96399 0.98674 0.10333 0.0
N1163 N 0.93476 0.99346 0.08603 0.0
N1164 N 0.97331 0.95466 0.09426 0.0
C1165 C 0.95214 0.9479 0.07648 0.0
C1166 C 0.93123 0.96899 0.07193 0.0
C1167 C 0.18823 0.65769 0.71798 0.0
C1168 C 0.215 0.65979 0.70575 0.0
C1169 C 0.16781 0.67823 0.71355 0.0
C1170 C 0.1731 0.70168 0.6965 0.0
H1171 H 0.18335 0.64078 0.73231 0.0
H1172 H 0.14806 0.67629 0.7246 0.0
S1173 S 0.23832 0.7153 0.65643 0.0
N1174 N 0.2447 0.68583 0.67343 0.0
N1175 N 0.20602 0.72442 0.66496 0.0
C1176 C 0.1989 0.70298 0.68229 0.0
C1177 C 0.21992 0.68204 0.68695 0.0
C1178 C 0.04802 0.44757 0.43838 0.0
C1179 C 0.05026 0.42089 0.45071 0.0
C1180 C 0.06912 0.46782 0.44222 0.0
C1181 C 0.09317 0.46194 0.45837 0.0
H1182 H 0.02911 0.45345 0.42728 0.0
H1183 H 0.06572 0.48867 0.43393 0.0
S1184 S 0.1113 0.39321 0.49009 0.0
N1185 N 0.08002 0.38838 0.47618 0.0
N1186 N 0.11967 0.42602 0.48308 0.0
C1187 C 0.09664 0.43449 0.4686 0.0
C1188 C 0.07516 0.41408 0.46487 0.0
C1189 C 0.45576 0.55901 0.93308 0.0
C1190 C 0.45382 0.58598 0.94479 0.0
C1191 C 0.43446 0.53908 0.93744 0.0
C1192 C 0.41049 0.54556 0.95352 0.0
H1193 H 0.47462 0.55267 0.92214 0.0
H1194 H 0.43767 0.518 0.92966 0.0
S1195 S 0.39309 0.61523 0.98359 0.0
N1196 N 0.42442 0.6194 0.96951 0.0
N1197 N 0.38436 0.58235 0.97736 0.0
C1198 C 0.40729 0.5733 0.96304 0.0
C1199 C 0.42898 0.5934 0.95879 0.0
C1200 C 0.68914 0.79018 0.82126 0.0
C1201 C 0.70513 0.79673 0.84524 0.0
C1202 C 0.68477 0.81007 0.79992 0.0
C1203 C 0.69638 0.83707 0.80183 0.0
H1204 H 0.68143 0.76908 0.81808 0.0
H1205 H 0.67392 0.80366 0.78104 0.0
S1206 S 0.73487 0.86652 0.86257 0.0
N1207 N 0.72875 0.83363 0.87136 0.0
N1208 N 0.72087 0.87061 0.83121 0.0
C1209 C 0.71027 0.84456 0.82668 0.0
C1210 C 0.71453 0.82451 0.84842 0.0
C1211 C 0.43707 0.47278 0.09462 0.0
C1212 C 0.46313 0.45897 0.09372 0.0
C1213 C 0.41701 0.46882 0.07365 0.0
C1214 C 0.42192 0.45065 0.05095 0.0
H1215 H 0.43255 0.48795 0.1109 0.0
H1216 H 0.39786 0.48099 0.07472 0.0
S1217 S 0.48502 0.40639 0.04062 0.0
N1218 N 0.49158 0.42407 0.06966 0.0
N1219 N 0.45356 0.41647 0.03026 0.0
C1220 C 0.4469 0.43498 0.05086 0.0
C1221 C 0.46757 0.43918 0.07222 0.0
C1222 C 0.81493 0.21712 0.32158 0.0
C1223 C 0.7981 0.21153 0.34525 0.0
C1224 C 0.81907 0.19678 0.30062 0.0
C1225 C 0.80635 0.17029 0.30259 0.0
H1226 H 0.82356 0.23785 0.3183 0.0
H1227 H 0.83064 0.20249 0.28192 0.0
S1228 S 0.76513 0.14323 0.36269 0.0
N1229 N 0.77235 0.17595 0.37123 0.0
N1230 N 0.77977 0.13816 0.33174 0.0
C1231 C 0.79154 0.16369 0.32718 0.0
C1232 C 0.78753 0.18419 0.34856 0.0
C1233 C 0.06623 0.53937 0.59619 0.0
C1234 C 0.03989 0.55247 0.59389 0.0
C1235 C 0.08698 0.54317 0.57585 0.0
C1236 C 0.08251 0.56049 0.55244 0.0
H1237 H 0.07048 0.52481 0.6131 0.0
H1238 H 0.10633 0.53145 0.57791 0.0
S1239 S 0.01881 0.60272 0.53831 0.0
N1240 N 0.01155 0.58584 0.56766 0.0
N1241 N 0.05091 0.59317 0.52948 0.0
C1242 C 0.05722 0.57556 0.55094 0.0
C1243 C 0.03582 0.5715 0.57165 0.0
C1244 C 0.68922 0.22026 0.68213 0.0
C1245 C 0.70471 0.21411 0.65769 0.0
C1246 C 0.68463 0.19976 0.70285 0.0
C1247 C 0.69552 0.17254 0.69983 0.0
H1248 H 0.68212 0.24144 0.68615 0.0
H1249 H 0.67424 0.20582 0.72212 0.0
S1250 S 0.73243 0.14422 0.63752 0.0
N1251 N 0.72703 0.17754 0.62996 0.0
N1252 N 0.71875 0.1394 0.66894 0.0
C1253 C 0.70886 0.16555 0.67451 0.0
C1254 C 0.71336 0.18623 0.65342 0.0
C1255 C 0.08778 0.46906 0.93092 0.0
C1256 C 0.08324 0.45101 0.95379 0.0
C1257 C 0.06754 0.47261 0.91002 0.0
C1258 C 0.04168 0.45848 0.91117 0.0
H1259 H 0.10676 0.48144 0.92964 0.0
H1260 H 0.07176 0.4877 0.89359 0.0
S1261 S 0.02075 0.40616 0.96489 0.0
N1262 N 0.05215 0.41667 0.97496 0.0
N1263 N 0.01381 0.4235 0.93574 0.0
C1264 C 0.03761 0.43884 0.93288 0.0
C1265 C 0.05846 0.43507 0.95416 0.0
C1266 C 0.78868 0.84004 0.18297 0.0
C1267 C 0.80687 0.83491 0.20557 0.0
C1268 C 0.78474 0.82022 0.16176 0.0
C1269 C 0.79855 0.79415 0.16236 0.0
H1270 H 0.77646 0.85918 0.18219 0.0
H1271 H 0.76955 0.8249 0.14555 0.0
S1272 S 0.85103 0.77171 0.2153 0.0
N1273 N 0.841 0.80309 0.22595 0.0
N1274 N 0.8334 0.76544 0.18617 0.0
C1275 C 0.81835 0.7895 0.18381 0.0
C1276 C 0.82255 0.80996 0.20539 0.0
C1277 C 0.4154 0.53966 0.43172 0.0
C1278 C 0.4205 0.55767 0.45448 0.0
C1279 C 0.43525 0.53586 0.41048 0.0
C1280 C 0.46131 0.54965 0.41118 0.0
H1281 H 0.39629 0.52742 0.43085 0.0
H1282 H 0.43061 0.52075 0.39418 0.0
S1283 S 0.48356 0.60196 0.46434 0.0
N1284 N 0.45223 0.59178 0.475 0.0
N1285 N 0.48988 0.58448 0.43513 0.0
C1286 C 0.46589 0.56936 0.43273 0.0
C1287 C 0.44541 0.57341 0.45436 0.0
C1288 C 0.8013 0.68906 0.809 0.0
C1289 C 0.80323 0.70168 0.83557 0.0
C1290 C 0.8223 0.69318 0.78869 0.0
C1291 C 0.84598 0.70992 0.79436 0.0
H1292 H 0.78266 0.67749 0.80323 0.0
H1293 H 0.8191 0.68457 0.76793 0.0
S1294 S 0.86333 0.74272 0.8628 0.0
N1295 N 0.83238 0.72814 0.86781 0.0
N1296 N 0.87188 0.73558 0.83004 0.0
C1297 C 0.84921 0.72048 0.82173 0.0
C1298 C 0.8278 0.71646 0.84222 0.0
C1299 C 0.57134 0.55119 0.0567 0.0
C1300 C 0.55985 0.55421 0.08369 0.0
C1301 C 0.56706 0.57181 0.03604 0.0
C1302 C 0.55129 0.59615 0.04177 0.0
H1303 H 0.582 0.53199 0.05094 0.0
H1304 H 0.57467 0.56779 0.01502 0.0
S1305 S 0.5219 0.61632 0.11102 0.0
N1306 N 0.53568 0.58502 0.11623 0.0
N1307 N 0.52797 0.62381 0.07778 0.0
C1308 C 0.54199 0.60043 0.06946 0.0
C1309 C 0.54617 0.57943 0.09031 0.0
C1310 C 0.65895 0.28719 0.31584 0.0
C1311 C 0.66065 0.29975 0.28921 0.0
C1312 C 0.68006 0.29089 0.33582 0.0
C1313 C 0.70374 0.30753 0.33022 0.0
H1314 H 0.64182 0.27321 0.32098 0.0
H1315 H 0.67823 0.27974 0.35552 0.0
S1316 S 0.71677 0.34803 0.26515 0.0
N1317 N 0.68678 0.33178 0.25927 0.0
N1318 N 0.72643 0.33891 0.29712 0.0
C1319 C 0.7048 0.32195 0.30453 0.0
C1320 C 0.68327 0.31802 0.28396 0.0
C1321 C 0.9314 0.45589 0.55917 0.0
C1322 C 0.94323 0.45429 0.58611 0.0
C1323 C 0.936 0.43454 0.53934 0.0
C1324 C 0.95245 0.41084 0.54589 0.0
H1325 H 0.92019 0.47457 0.55276 0.0
H1326 H 0.92809 0.4375 0.51827 0.0
S1327 S 0.98304 0.39439 0.61557 0.0
N1328 N 0.96852 0.42553 0.61961 0.0
N1329 N 0.9768 0.38533 0.58276 0.0
C1330 C 0.9621 0.40796 0.57363 0.0
C1331 C 0.95761 0.42972 0.59361 0.0
C1332 C 0.84743 0.28558 0.68384 0.0
C1333 C 0.84714 0.29947 0.70986 0.0
C1334 C 0.8262 0.28981 0.66408 0.0
C1335 C 0.80385 0.30835 0.66926 0.0
H1336 H 0.86339 0.27011 0.67916 0.0
H1337 H 0.82678 0.27757 0.64496 0.0
S1338 S 0.79517 0.35295 0.73234 0.0
N1339 N 0.82402 0.33484 0.73853 0.0
N1340 N 0.78419 0.34294 0.70108 0.0
C1341 C 0.80438 0.32409 0.69418 0.0
C1342 C 0.826 0.31961 0.71455 0.0
C1343 C 0.9609 0.57516 0.91801 0.0
C1344 C 0.9444 0.5513 0.92317 0.0
C1345 C 0.96472 0.59574 0.93848 0.0
C1346 C 0.95244 0.59329 0.96519 0.0
H1347 H 0.97196 0.57745 0.8983 0.0
H1348 H 0.97866 0.613 0.93369 0.0
S1349 S 0.90427 0.53663 0.98813 0.0
N1350 N 0.91321 0.52776 0.95586 0.0
N1351 N 0.92055 0.56646 0.99467 0.0
C1352 C 0.93414 0.57059 0.96998 0.0
C1353 C 0.93008 0.5496 0.94889 0.0
C1354 C 0.65934 0.71959 0.18918 0.0
C1355 C 0.66109 0.70611 0.21536 0.0
C1356 C 0.67997 0.71587 0.16869 0.0
C1357 C 0.70317 0.69827 0.17329 0.0
H1358 H 0.64262 0.73434 0.18486 0.0
H1359 H 0.67825 0.72781 0.14944 0.0
S1360 S 0.7159 0.6551 0.23668 0.0
N1361 N 0.68658 0.67216 0.24368 0.0
N1362 N 0.72533 0.66499 0.20485 0.0
C1363 C 0.70414 0.6829 0.19843 0.0
C1364 C 0.68312 0.68686 0.21954 0.0
C1365 C 0.5385 0.43016 0.41598 0.0
C1366 C 0.55669 0.4528 0.42097 0.0
C1367 C 0.53473 0.40895 0.43584 0.0
C1368 C 0.54876 0.40953 0.46178 0.0
H1369 H 0.52616 0.42932 0.39694 0.0
H1370 H 0.51952 0.39274 0.43129 0.0
S1371 S 0.60157 0.46229 0.48372 0.0
N1372 N 0.59118 0.47305 0.4525 0.0
N1373 N 0.58394 0.43321 0.49013 0.0
C1374 C 0.5686 0.43096 0.46626 0.0
C1375 C 0.5726 0.45258 0.44579 0.0
C1376 C 0.7881 0.82326 0.68857 0.0
C1377 C 0.79376 0.84731 0.70478 0.0
C1378 C 0.80863 0.80249 0.6844 0.0
C1379 C 0.83541 0.80505 0.69644 0.0
H1380 H 0.76722 0.81957 0.68049 0.0
H1381 H 0.80289 0.78352 0.67335 0.0
S1382 S 0.86259 0.86634 0.73571 0.0
N1383 N 0.82957 0.87426 0.72913 0.0
N1384 N 0.86776 0.83518 0.72161 0.0
C1385 C 0.84201 0.83001 0.71058 0.0
C1386 C 0.82129 0.85117 0.71465 0.0
C1387 C 0.2872 0.68384 0.31683 0.0
C1388 C 0.29333 0.66 0.30045 0.0
C1389 C 0.30735 0.70493 0.32118 0.0
C1390 C 0.33419 0.7029 0.30917 0.0
H1391 H 0.26623 0.68712 0.32489 0.0
H1392 H 0.30125 0.72374 0.33235 0.0
S1393 S 0.36257 0.64239 0.26946 0.0
N1394 N 0.32968 0.63385 0.27595 0.0
N1395 N 0.36714 0.67352 0.2838 0.0
C1396 C 0.34127 0.67816 0.29485 0.0
C1397 C 0.32096 0.65668 0.2906 0.0
C1398 C 0.57347 0.08659 0.54038 0.0
C1399 C 0.55012 0.08119 0.55755 0.0
C1400 C 0.5945 0.06656 0.53648 0.0
C1401 C 0.593 0.04005 0.54933 0.0
H1402 H 0.57503 0.10613 0.52892 0.0
H1403 H 0.61135 0.07151 0.52208 0.0
S1404 S 0.53784 0.01665 0.59905 0.0
N1405 N 0.52802 0.04853 0.58977 0.0
N1406 N 0.5675 0.01053 0.58225 0.0
C1407 C 0.57076 0.03505 0.56815 0.0
C1408 C 0.54934 0.0557 0.57231 0.0
C1409 C 0.2192 0.31867 0.81828 0.0
C1410 C 0.21342 0.34259 0.80192 0.0
C1411 C 0.1988 0.29779 0.82246 0.0
C1412 C 0.17207 0.30013 0.81028 0.0
H1413 H 0.24009 0.31515 0.82643 0.0
H1414 H 0.20462 0.2789 0.83363 0.0
S1415 S 0.14458 0.36104 0.7706 0.0
N1416 N 0.17751 0.36921 0.7773 0.0
N1417 N 0.13959 0.32991 0.78482 0.0
C1418 C 0.16534 0.32497 0.79599 0.0
C1419 C 0.1859 0.34624 0.79193 0.0
C1420 C 0.43518 0.46564 0.56704 0.0
C1421 C 0.41093 0.45985 0.55118 0.0
C1422 C 0.45611 0.44521 0.5709 0.0
C1423 C 0.4535 0.41841 0.55891 0.0
H1424 H 0.43889 0.48655 0.57502 0.0
H1425 H 0.47522 0.45104 0.58167 0.0
S1426 S 0.39175 0.39093 0.52056 0.0
N1427 N 0.38378 0.42392 0.52725 0.0
N1428 N 0.42314 0.38591 0.5342 0.0
C1429 C 0.42836 0.41169 0.54515 0.0
C1430 C 0.40705 0.4323 0.54138 0.0
C1431 C 0.69528 0.20603 0.18319 0.0
C1432 C 0.66816 0.2035 0.19447 0.0
C1433 C 0.71563 0.18517 0.18786 0.0
C1434 C 0.70943 0.16111 0.20385 0.0
H1435 H 0.7014 0.22504 0.17239 0.0
H1436 H 0.73677 0.18883 0.18041 0.0
S1437 S 0.63969 0.14216 0.23278 0.0
N1438 N 0.635 0.17337 0.21862 0.0
N1439 N 0.67288 0.13417 0.2271 0.0
C1440 C 0.68162 0.15729 0.21292 0.0
C1441 C 0.66108 0.1785 0.20832 0.0
C1442 C 0.57071 0.97016 0.94176 0.0
C1443 C 0.59512 0.96443 0.9574 0.0
C1444 C 0.54989 0.94963 0.93792 0.0
C1445 C 0.55276 0.92277 0.94971 0.0
H1446 H 0.56684 0.99107 0.93383 0.0
H1447 H 0.53074 0.95538 0.92717 0.0
S1448 S 0.61494 0.89553 0.98768 0.0
N1449 N 0.62259 0.92861 0.98114 0.0
N1450 N 0.58354 0.89036 0.97415 0.0
C1451 C 0.57801 0.91617 0.96339 0.0
C1452 C 0.59918 0.9369 0.96716 0.0
C1453 C 0.93213 0.08818 0.46524 0.0
C1454 C 0.95516 0.08333 0.4475 0.0
C1455 C 0.91162 0.06771 0.46953 0.0
C1456 C 0.91336 0.04131 0.45649 0.0
H1457 H 0.9305 0.10759 0.47691 0.0
H1458 H 0.89503 0.07224 0.48437 0.0
S1459 S 0.96781 0.01928 0.40534 0.0
N1460 N 0.97718 0.0513 0.41457 0.0
N1461 N 0.93867 0.01249 0.42279 0.0
C1462 C 0.93522 0.03687 0.43708 0.0
C1463 C 0.95611 0.05796 0.43254 0.0
C1464 C 0.12123 0.12539 0.41303 0.0
C1465 C 0.09904 0.13988 0.40015 0.0
C1466 C 0.14923 0.13131 0.40622 0.0
C1467 C 0.15608 0.15251 0.38685 0.0
H1468 H 0.11695 0.10985 0.42903 0.0
H1469 H 0.16562 0.12025 0.41737 0.0
S1470 S 0.10578 0.19562 0.34625 0.0
N1471 N 0.08581 0.17525 0.36585 0.0
N1472 N 0.13843 0.18698 0.35383 0.0
C1473 C 0.13411 0.1665 0.37314 0.0
C1474 C 0.10559 0.16001 0.37957 0.0
C1475 C 0.12583 0.89714 0.65621 0.0
C1476 C 0.10447 0.90375 0.63695 0.0
C1477 C 0.13222 0.86921 0.66288 0.0
C1478 C 0.11807 0.84688 0.64991 0.0
H1479 H 0.13667 0.91365 0.66739 0.0
H1480 H 0.14785 0.86508 0.67882 0.0
S1481 S 0.06197 0.853 0.59635 0.0
N1482 N 0.07012 0.88573 0.60403 0.0
N1483 N 0.08276 0.83326 0.61575 0.0
C1484 C 0.09775 0.85321 0.62946 0.0
C1485 C 0.09077 0.88164 0.62321 0.0
C1486 C 0.39342 0.83979 0.92229 0.0
C1487 C 0.40679 0.86242 0.90902 0.0
C1488 C 0.36654 0.83122 0.91421 0.0
C1489 C 0.3517 0.84552 0.89317 0.0
H1490 H 0.40407 0.8282 0.93867 0.0
H1491 H 0.35702 0.81367 0.92503 0.0
S1492 S 0.37725 0.90639 0.85228 0.0
N1493 N 0.40354 0.8987 0.87349 0.0
N1494 N 0.35214 0.88363 0.85941 0.0
C1495 C 0.36464 0.86845 0.87998 0.0
C1496 C 0.39247 0.8766 0.88759 0.0
C1497 C 0.37372 0.13436 0.16285 0.0
C1498 C 0.38728 0.15682 0.14946 0.0
C1499 C 0.3803 0.10647 0.15613 0.0
C1500 C 0.40129 0.10003 0.13637 0.0
H1501 H 0.35839 0.13835 0.17914 0.0
H1502 H 0.36993 0.08987 0.16763 0.0
S1503 S 0.44217 0.15116 0.09453 0.0
N1504 N 0.42161 0.17071 0.11437 0.0
N1505 N 0.43462 0.11835 0.10254 0.0
C1506 C 0.41439 0.12226 0.12222 0.0
C1507 C 0.4072 0.15064 0.12855 0.0
C1508 C 0.1453 0.87333 0.10111 0.0
C1509 C 0.15227 0.85192 0.12019 0.0
C1510 C 0.11725 0.87948 0.0947 0.0
C1511 C 0.09515 0.865 0.10774 0.0
H1512 H 0.16162 0.88443 0.08988 0.0
H1513 H 0.11286 0.8952 0.07891 0.0
S1514 S 0.10224 0.80866 0.16094 0.0
N1515 N 0.13484 0.81718 0.15304 0.0
N1516 N 0.08214 0.82935 0.14181 0.0
C1517 C 0.10183 0.84461 0.12801 0.0
C1518 C 0.1304 0.83789 0.134 0.0
C1519 C 0.38157 0.89921 0.34758 0.0
C1520 C 0.40301 0.90592 0.36672 0.0
C1521 C 0.37495 0.87125 0.34131 0.0
C1522 C 0.38895 0.84896 0.35456 0.0
H1523 H 0.37081 0.91566 0.33621 0.0
H1524 H 0.35924 0.86705 0.32547 0.0
S1525 S 0.44516 0.85533 0.40797 0.0
N1526 N 0.43725 0.88803 0.39985 0.0
N1527 N 0.42421 0.83552 0.38886 0.0
C1528 C 0.40936 0.8554 0.37488 0.0
C1529 C 0.41656 0.88386 0.38074 0.0
C1530 C 0.3831 0.12331 0.59094 0.0
C1531 C 0.40538 0.13735 0.60411 0.0
C1532 C 0.35513 0.12957 0.59765 0.0
C1533 C 0.34844 0.15068 0.61717 0.0
H1534 H 0.38728 0.10784 0.57485 0.0
H1535 H 0.33866 0.11882 0.58633 0.0
S1536 S 0.39906 0.19282 0.65833 0.0
N1537 N 0.41888 0.17229 0.6387 0.0
N1538 N 0.36635 0.18469 0.65052 0.0
C1539 C 0.37051 0.16427 0.63109 0.0
C1540 C 0.39898 0.15743 0.62478 0.0
C1541 C 0.10075 0.14728 0.87577 0.0
C1542 C 0.1201 0.15371 0.85441 0.0
C1543 C 0.09368 0.11942 0.882 0.0
C1544 C 0.10634 0.09698 0.86771 0.0
H1545 H 0.08978 0.16389 0.88669 0.0
H1546 H 0.07768 0.11545 0.89763 0.0
S1547 S 0.16 0.10257 0.8116 0.0
N1548 N 0.15279 0.13538 0.81993 0.0
N1549 N 0.14032 0.08302 0.8323 0.0
C1550 C 0.12689 0.1031 0.84742 0.0
C1551 C 0.13355 0.13147 0.84058 0.0
C1552 C 0.12937 0.40792 0.14866 0.0
C1553 C 0.15065 0.38852 0.1552 0.0
C1554 C 0.12348 0.41522 0.12077 0.0
C1555 C 0.13804 0.40277 0.09838 0.0
H1556 H 0.11822 0.41871 0.16525 0.0
H1557 H 0.10787 0.43122 0.11674 0.0
S1558 S 0.19417 0.34916 0.10422 0.0
N1559 N 0.18541 0.35607 0.13699 0.0
N1560 N 0.17368 0.36898 0.08457 0.0
C1561 C 0.1583 0.38222 0.10458 0.0
C1562 C 0.16479 0.37532 0.133 0.0
C1563 C 0.63092 0.10259 0.85416 0.0
C1564 C 0.65345 0.12041 0.84733 0.0
C1565 C 0.6247 0.09586 0.88214 0.0
C1566 C 0.64022 0.1074 0.90434 0.0
H1567 H 0.61887 0.09259 0.83773 0.0
H1568 H 0.608 0.08109 0.88641 0.0
S1569 S 0.70021 0.15647 0.89783 0.0
N1570 N 0.6907 0.15017 0.86516 0.0
N1571 N 0.67841 0.13836 0.91772 0.0
C1572 C 0.66193 0.12629 0.89787 0.0
C1573 C 0.66871 0.13258 0.86938 0.0
C1574 C 0.87384 0.90659 0.35787 0.0
C1575 C 0.85249 0.88742 0.35103 0.0
C1576 C 0.88035 0.91277 0.3859 0.0
C1577 C 0.86632 0.89941 0.40811 0.0
H1578 H 0.8846 0.91807 0.34149 0.0
H1579 H 0.89599 0.92865 0.3902 0.0
S1580 S 0.81037 0.84577 0.40133 0.0
N1581 N 0.81835 0.85406 0.36868 0.0
N1582 N 0.83117 0.86489 0.4213 0.0
C1583 C 0.84602 0.87903 0.40152 0.0
C1584 C 0.83894 0.87325 0.37299 0.0
C1585 C 0.8728 0.09891 0.14985 0.0
C1586 C 0.85172 0.11852 0.15642 0.0
C1587 C 0.87952 0.09254 0.12191 0.0
C1588 C 0.86603 0.10615 0.09953 0.0
H1589 H 0.88314 0.08726 0.16637 0.0
H1590 H 0.89491 0.07634 0.11779 0.0
S1591 S 0.81095 0.16082 0.10557 0.0
N1592 N 0.81837 0.15245 0.13833 0.0
N1593 N 0.83167 0.14128 0.08587 0.0
C1594 C 0.84602 0.12692 0.10585 0.0
C1595 C 0.83868 0.13288 0.13428 0.0
C1596 C 0.34936 0.62227 0.60845 0.0
C1597 C 0.36877 0.6012 0.6013 0.0
C1598 C 0.34305 0.62831 0.63656 0.0
C1599 C 0.3565 0.61407 0.65858 0.0
H1600 H 0.3378 0.63316 0.59222 0.0
H1601 H 0.327 0.64373 0.64108 0.0
S1602 S 0.41074 0.55874 0.65102 0.0
N1603 N 0.40243 0.56711 0.61848 0.0
N1604 N 0.39136 0.57906 0.67128 0.0
C1605 C 0.37711 0.59407 0.65171 0.0
C1606 C 0.38302 0.58745 0.62308 0.0
C1607 C 0.13207 0.60079 0.35851 0.0
C1608 C 0.15359 0.61983 0.35178 0.0
C1609 C 0.12606 0.59384 0.38647 0.0
C1610 C 0.14078 0.60628 0.40874 0.0
H1611 H 0.12079 0.59 0.34204 0.0
H1612 H 0.11022 0.57812 0.39065 0.0
S1613 S 0.19754 0.65909 0.40236 0.0
N1614 N 0.18873 0.65197 0.36965 0.0
N1615 N 0.17681 0.63973 0.4222 0.0
C1616 C 0.1613 0.62649 0.40233 0.0
C1617 C 0.16789 0.63304 0.37385 0.0
C1618 C 0.38162 0.41392 0.88424 0.0
C1619 C 0.36731 0.40134 0.90671 0.0
C1620 C 0.37572 0.4065 0.85639 0.0
C1621 C 0.3547 0.38681 0.84997 0.0
H1622 H 0.39701 0.43014 0.88817 0.0
H1623 H 0.38664 0.41742 0.83974 0.0
S1624 S 0.31202 0.34692 0.90121 0.0
N1625 N 0.33227 0.36706 0.92073 0.0
N1626 N 0.32053 0.35389 0.86838 0.0
C1627 C 0.34087 0.37344 0.87226 0.0
C1628 C 0.34735 0.38048 0.90063 0.0
C1629 C 0.62242 0.6259 0.91033 0.0
C1630 C 0.59982 0.63987 0.8976 0.0
C1631 C 0.65024 0.63292 0.90378 0.0
C1632 C 0.65645 0.65475 0.8849 0.0
H1633 H 0.61859 0.60995 0.92602 0.0
H1634 H 0.66695 0.62222 0.91481 0.0
S1635 S 0.60487 0.697 0.84501 0.0
N1636 N 0.58553 0.67551 0.86404 0.0
N1637 N 0.63776 0.68932 0.85255 0.0
C1638 C 0.63407 0.66825 0.87136 0.0
C1639 C 0.60577 0.66063 0.87749 0.0
C1640 C 0.62977 0.37213 0.16122 0.0
C1641 C 0.61515 0.35 0.14842 0.0
C1642 C 0.6237 0.40015 0.15463 0.0
C1643 C 0.6022 0.40709 0.13564 0.0
H1644 H 0.64556 0.36777 0.17695 0.0
H1645 H 0.63493 0.4165 0.16567 0.0
S1646 S 0.55841 0.35694 0.09564 0.0
N1647 N 0.57918 0.33691 0.11475 0.0
N1648 N 0.56714 0.38956 0.10319 0.0
C1649 C 0.58799 0.38517 0.12209 0.0
C1650 C 0.59465 0.35663 0.12826 0.0
C1651 C 0.86429 0.36682 0.37879 0.0
C1652 C 0.84925 0.34589 0.3931 0.0
C1653 C 0.89179 0.37387 0.38686 0.0
C1654 C 0.90444 0.36111 0.41026 0.0
H1655 H 0.85491 0.37746 0.36106 0.0
H1656 H 0.90308 0.38958 0.37499 0.0
S1657 S 0.87334 0.30582 0.45517 0.0
N1658 N 0.8489 0.31264 0.43164 0.0
N1659 N 0.89981 0.32677 0.44758 0.0
C1660 C 0.88932 0.3406 0.42498 0.0
C1661 C 0.86189 0.33277 0.41621 0.0
C1662 C 0.90413 0.65064 0.63142 0.0
C1663 C 0.88507 0.65764 0.65287 0.0
C1664 C 0.91031 0.62257 0.6251 0.0
C1665 C 0.89705 0.6005 0.63942 0.0
H1666 H 0.91553 0.66692 0.62047 0.0
H1667 H 0.92612 0.61814 0.6094 0.0
S1668 S 0.84374 0.60773 0.69571 0.0
N1669 N 0.85196 0.6403 0.68742 0.0
N1670 N 0.86275 0.5876 0.67492 0.0
C1671 C 0.87677 0.60725 0.6598 0.0
C1672 C 0.87101 0.63581 0.66671 0.0
C1673 C 0.60806 0.35041 0.62368 0.0
C1674 C 0.60125 0.36864 0.60147 0.0
C1675 C 0.63606 0.34418 0.63023 0.0
C1676 C 0.65826 0.35661 0.6154 0.0
H1677 H 0.59166 0.33967 0.63513 0.0
H1678 H 0.64035 0.32899 0.64656 0.0
S1679 S 0.65169 0.40731 0.55674 0.0
N1680 N 0.61901 0.39994 0.56545 0.0
N1681 N 0.6716 0.38904 0.57838 0.0
C1682 C 0.65176 0.37602 0.59415 0.0
C1683 C 0.62325 0.38182 0.58701 0.0
C1684 C 0.88013 0.36372 0.86596 0.0
C1685 C 0.89369 0.35045 0.84335 0.0
C1686 C 0.88689 0.39142 0.87353 0.0
C1687 C 0.90828 0.40609 0.85953 0.0
H1688 H 0.864 0.35275 0.87758 0.0
H1689 H 0.87564 0.40126 0.89063 0.0
S1690 S 0.9505 0.3804 0.79952 0.0
N1691 N 0.92932 0.35412 0.8071 0.0
N1692 N 0.94286 0.40545 0.82215 0.0
C1693 C 0.92221 0.39286 0.83723 0.0
C1694 C 0.91471 0.36519 0.82894 0.0
C1695 C 0.86972 0.66388 0.13184 0.0
C1696 C 0.84747 0.6512 0.11731 0.0
C1697 C 0.89768 0.6568 0.12597 0.0
C1698 C 0.90442 0.63738 0.10478 0.0
H1699 H 0.86553 0.6799 0.14738 0.0
H1700 H 0.91413 0.6678 0.13707 0.0
S1701 S 0.85387 0.59737 0.06147 0.0
N1702 N 0.83402 0.61711 0.08185 0.0
N1703 N 0.88656 0.60459 0.0702 0.0
C1704 C 0.88236 0.6239 0.09072 0.0
C1705 C 0.85389 0.63059 0.09716 0.0
C1706 C 0.62822 0.63527 0.34593 0.0
C1707 C 0.6133 0.65728 0.35862 0.0
C1708 C 0.62222 0.60719 0.35233 0.0
C1709 C 0.60052 0.60011 0.37105 0.0
H1710 H 0.64419 0.63973 0.3304 0.0
H1711 H 0.63365 0.59094 0.34134 0.0
S1712 S 0.55605 0.64989 0.41087 0.0
N1713 N 0.5769 0.67009 0.39202 0.0
N1714 N 0.56503 0.61735 0.40325 0.0
C1715 C 0.58605 0.6219 0.38456 0.0
C1716 C 0.59261 0.65049 0.37857 0.0
C1717 C 0.62531 0.91106 0.61863 0.0
C1718 C 0.63997 0.89815 0.59656 0.0
C1719 C 0.63128 0.90454 0.6467 0.0
C1720 C 0.65269 0.88548 0.65372 0.0
H1721 H 0.60963 0.92689 0.61421 0.0
H1722 H 0.6201 0.91574 0.663 0.0
S1723 S 0.69627 0.84489 0.60378 0.0
N1724 N 0.67569 0.86409 0.58363 0.0
N1725 N 0.68753 0.85266 0.63637 0.0
C1726 C 0.66683 0.87171 0.63187 0.0
C1727 C 0.66029 0.87782 0.60329 0.0
loop_
_geom_bond_atom_site_label_1
_geom_bond_atom_site_label_2
_geom_bond_distance
_geom_bond_site_symmetry_2
_ccdc_geom_bond_type
O0 Cd1 2.223 . S
O0 C8 1.315 . S
Cd1 O0 2.223 . S
Cd1 O4 2.297 . S
Cd1 O5 2.439 . S
Cd1 O11 2.240 . S
Cd2 O3 2.240 . S
Cd2 O10 2.223 . S
Cd2 O12 2.297 . S
Cd2 O13 2.439 . S
O3 Cd2 2.240 . S
O3 C8 1.279 . S
O4 Cd1 2.297 . S
O4 C6 1.247 . S
O5 Cd1 2.439 . S
O5 C6 1.208 . S
C6 O4 1.247 . S
C6 O5 1.208 . S
C7 O12 1.247 . S
C7 O13 1.208 . S
C8 O0 1.315 . S
C8 O3 1.279 . S
C9 O10 1.315 . S
C9 O11 1.279 . S
O10 Cd2 2.223 . S
O10 C9 1.315 . S
O11 Cd1 2.240 . S
O11 C9 1.279 . S
O12 Cd2 2.297 . S
O12 C7 1.247 . S
O13 Cd2 2.439 . S
O13 C7 1.208 . S
O14 Cd15 2.223 . S
O14 C22 1.315 . S
Cd15 O14 2.223 . S
Cd15 O18 2.297 . S
Cd15 O19 2.439 . S
Cd15 O25 2.240 . S
Cd16 O17 2.240 . S
Cd16 O24 2.223 1_565 S
Cd16 O26 2.297 . S
Cd16 O27 2.439 . S
O17 Cd16 2.240 . S
O17 C22 1.279 1_655 S
O18 Cd15 2.297 . S
O18 C20 1.247 . S
O19 Cd15 2.439 . S
O19 C20 1.208 . S
C20 O18 1.247 . S
C20 O19 1.208 . S
C21 O26 1.247 . S
C21 O27 1.208 . S
C22 O14 1.315 . S
C22 O17 1.279 1_455 S
C23 O24 1.315 1_455 S
C23 O25 1.279 1_545 S
O24 Cd16 2.223 1_545 S
O24 C23 1.315 1_655 S
O25 Cd15 2.240 . S
O25 C23 1.279 1_565 S
O26 Cd16 2.297 . S
O26 C21 1.247 . S
O27 Cd16 2.439 . S
O27 C21 1.208 . S
O28 Cd29 2.223 . S
O28 C36 1.315 . S
Cd29 O28 2.223 . S
Cd29 O32 2.297 . S
Cd29 O33 2.439 . S
Cd29 O39 2.240 . S
Cd30 O31 2.240 . S
Cd30 O38 2.223 . S
Cd30 O40 2.297 . S
Cd30 O41 2.439 . S
O31 Cd30 2.240 . S
O31 C36 1.279 . S
O32 Cd29 2.297 . S
O32 C34 1.247 . S
O33 Cd29 2.439 . S
O33 C34 1.208 . S
C34 O32 1.247 . S
C34 O33 1.208 . S
C35 O40 1.247 . S
C35 O41 1.208 . S
C36 O28 1.315 . S
C36 O31 1.279 . S
C37 O38 1.315 . S
C37 O39 1.279 . S
O38 Cd30 2.223 . S
O38 C37 1.315 . S
O39 Cd29 2.240 . S
O39 C37 1.279 . S
O40 Cd30 2.297 . S
O40 C35 1.247 . S
O41 Cd30 2.439 . S
O41 C35 1.208 . S
O42 Cd43 2.223 . S
O42 C50 1.315 . S
Cd43 O42 2.223 . S
Cd43 O46 2.297 . S
Cd43 O47 2.439 . S
Cd43 O53 2.240 . S
Cd44 O45 2.240 . S
Cd44 O52 2.223 1_545 S
Cd44 O54 2.297 . S
Cd44 O55 2.439 . S
O45 Cd44 2.240 . S
O45 C50 1.279 . S
O46 Cd43 2.297 . S
O46 C48 1.247 . S
O47 Cd43 2.439 . S
O47 C48 1.208 . S
C48 O46 1.247 . S
C48 O47 1.208 . S
C49 O54 1.247 . S
C49 O55 1.208 . S
C50 O42 1.315 . S
C50 O45 1.279 . S
C51 O52 1.315 . S
C51 O53 1.279 1_565 S
O52 Cd44 2.223 1_565 S
O52 C51 1.315 . S
O53 Cd43 2.240 . S
O53 C51 1.279 1_545 S
O54 Cd44 2.297 . S
O54 C49 1.247 . S
O55 Cd44 2.439 . S
O55 C49 1.208 . S
O56 Cd57 2.223 . S
O56 C64 1.315 . S
Cd57 O56 2.223 . S
Cd57 O60 2.297 . S
Cd57 O61 2.439 . S
Cd57 O67 2.240 . S
Cd58 O59 2.240 . S
Cd58 O66 2.223 . S
Cd58 O68 2.297 . S
Cd58 O69 2.439 . S
O59 Cd58 2.240 . S
O59 C64 1.279 . S
O60 Cd57 2.297 . S
O60 C62 1.247 . S
O61 Cd57 2.439 . S
O61 C62 1.208 . S
C62 O60 1.247 . S
C62 O61 1.208 . S
C63 O68 1.247 . S
C63 O69 1.208 . S
C64 O56 1.315 . S
C64 O59 1.279 . S
C65 O66 1.315 . S
C65 O67 1.279 . S
O66 Cd58 2.223 . S
O66 C65 1.315 . S
O67 Cd57 2.240 . S
O67 C65 1.279 . S
O68 Cd58 2.297 . S
O68 C63 1.247 . S
O69 Cd58 2.439 . S
O69 C63 1.208 . S
O70 Cd71 2.223 . S
O70 C78 1.315 . S
Cd71 O70 2.223 . S
Cd71 O74 2.297 . S
Cd71 O75 2.439 . S
Cd71 O81 2.240 . S
Cd72 O73 2.240 . S
Cd72 O80 2.223 1_565 S
Cd72 O82 2.297 . S
Cd72 O83 2.439 . S
O73 Cd72 2.240 . S
O73 C78 1.279 . S
O74 Cd71 2.297 . S
O74 C76 1.247 . S
O75 Cd71 2.439 . S
O75 C76 1.208 . S
C76 O74 1.247 . S
C76 O75 1.208 . S
C77 O82 1.247 . S
C77 O83 1.208 . S
C78 O70 1.315 . S
C78 O73 1.279 . S
C79 O80 1.315 . S
C79 O81 1.279 1_545 S
O80 Cd72 2.223 1_545 S
O80 C79 1.315 . S
O81 Cd71 2.240 . S
O81 C79 1.279 1_565 S
O82 Cd72 2.297 . S
O82 C77 1.247 . S
O83 Cd72 2.439 . S
O83 C77 1.208 . S
O84 Cd85 2.223 . S
O84 C92 1.315 . S
Cd85 O84 2.223 . S
Cd85 O88 2.297 . S
Cd85 O89 2.439 . S
Cd85 O95 2.240 . S
Cd86 O87 2.240 . S
Cd86 O94 2.223 . S
Cd86 O96 2.297 . S
Cd86 O97 2.439 . S
O87 Cd86 2.240 . S
O87 C92 1.279 . S
O88 Cd85 2.297 . S
O88 C90 1.247 . S
O89 Cd85 2.439 . S
O89 C90 1.208 . S
C90 O88 1.247 . S
C90 O89 1.208 . S
C91 O96 1.247 . S
C91 O97 1.208 . S
C92 O84 1.315 . S
C92 O87 1.279 . S
C93 O94 1.315 . S
C93 O95 1.279 . S
O94 Cd86 2.223 . S
O94 C93 1.315 . S
O95 Cd85 2.240 . S
O95 C93 1.279 . S
O96 Cd86 2.297 . S
O96 C91 1.247 . S
O97 Cd86 2.439 . S
O97 C91 1.208 . S
O98 Cd99 2.223 . S
O98 C106 1.315 . S
Cd99 O98 2.223 . S
Cd99 O102 2.297 . S
Cd99 O103 2.439 . S
Cd99 O109 2.240 . S
Cd100 O101 2.240 . S
Cd100 O108 2.223 1_545 S
Cd100 O110 2.297 . S
Cd100 O111 2.439 . S
O101 Cd100 2.240 . S
O101 C106 1.279 1_655 S
O102 Cd99 2.297 . S
O102 C104 1.247 . S
O103 Cd99 2.439 . S
O103 C104 1.208 . S
C104 O102 1.247 . S
C104 O103 1.208 . S
C105 O110 1.247 . S
C105 O111 1.208 . S
C106 O98 1.315 . S
C106 O101 1.279 1_455 S
C107 O108 1.315 1_455 S
C107 O109 1.279 1_565 S
O108 Cd100 2.223 1_565 S
O108 C107 1.315 1_655 S
O109 Cd99 2.240 . S
O109 C107 1.279 1_545 S
O110 Cd100 2.297 . S
O110 C105 1.247 . S
O111 Cd100 2.439 . S
O111 C105 1.208 . S
O112 Cd113 2.223 . S
O112 C120 1.315 . S
Cd113 O112 2.223 . S
Cd113 O116 2.297 . S
Cd113 O117 2.439 . S
Cd113 O123 2.240 . S
Cd114 O115 2.240 . S
Cd114 O122 2.223 . S
Cd114 O124 2.297 . S
Cd114 O125 2.439 . S
O115 Cd114 2.240 . S
O115 C120 1.279 . S
O116 Cd113 2.297 . S
O116 C118 1.247 . S
O117 Cd113 2.439 . S
O117 C118 1.208 . S
C118 O116 1.247 . S
C118 O117 1.208 . S
C119 O124 1.247 . S
C119 O125 1.208 . S
C120 O112 1.315 . S
C120 O115 1.279 . S
C121 O122 1.315 . S
C121 O123 1.279 . S
O122 Cd114 2.223 . S
O122 C121 1.315 . S
O123 Cd113 2.240 . S
O123 C121 1.279 . S
O124 Cd114 2.297 . S
O124 C119 1.247 . S
O125 Cd114 2.439 . S
O125 C119 1.208 . S
O126 Cd127 2.223 . S
O126 C134 1.315 . S
Cd127 O126 2.223 . S
Cd127 O130 2.297 . S
Cd127 O131 2.439 . S
Cd127 O137 2.240 . S
Cd128 O129 2.240 . S
Cd128 O136 2.223 1_455 S
Cd128 O138 2.297 . S
Cd128 O139 2.439 . S
O129 Cd128 2.240 . S
O129 C134 1.279 . S
O130 Cd127 2.297 . S
O130 C132 1.247 . S
O131 Cd127 2.439 . S
O131 C132 1.208 . S
C132 O130 1.247 . S
C132 O131 1.208 . S
C133 O138 1.247 . S
C133 O139 1.208 . S
C134 O126 1.315 . S
C134 O129 1.279 . S
C135 O136 1.315 . S
C135 O137 1.279 1_655 S
O136 Cd128 2.223 1_655 S
O136 C135 1.315 . S
O137 Cd127 2.240 . S
O137 C135 1.279 1_455 S
O138 Cd128 2.297 . S
O138 C133 1.247 . S
O139 Cd128 2.439 . S
O139 C133 1.208 . S
O140 Cd141 2.223 . S
O140 C148 1.315 . S
Cd141 O140 2.223 . S
Cd141 O144 2.297 . S
Cd141 O145 2.439 . S
Cd141 O151 2.240 . S
Cd142 O143 2.240 . S
Cd142 O150 2.223 . S
Cd142 O152 2.297 . S
Cd142 O153 2.439 . S
O143 Cd142 2.240 . S
O143 C148 1.279 . S
O144 Cd141 2.297 . S
O144 C146 1.247 . S
O145 Cd141 2.439 . S
O145 C146 1.208 . S
C146 O144 1.247 . S
C146 O145 1.208 . S
C147 O152 1.247 . S
C147 O153 1.208 . S
C148 O140 1.315 . S
C148 O143 1.279 . S
C149 O150 1.315 . S
C149 O151 1.279 . S
O150 Cd142 2.223 . S
O150 C149 1.315 . S
O151 Cd141 2.240 . S
O151 C149 1.279 . S
O152 Cd142 2.297 . S
O152 C147 1.247 . S
O153 Cd142 2.439 . S
O153 C147 1.208 . S
O154 Cd155 2.223 . S
O154 C162 1.315 . S
Cd155 O154 2.223 . S
Cd155 O158 2.297 . S
Cd155 O159 2.439 . S
Cd155 O165 2.240 . S
Cd156 O157 2.240 . S
Cd156 O164 2.223 . S
Cd156 O166 2.297 . S
Cd156 O167 2.439 . S
O157 Cd156 2.240 . S
O157 C162 1.279 1_554 S
O158 Cd155 2.297 . S
O158 C160 1.247 . S
O159 Cd155 2.439 . S
O159 C160 1.208 . S
C160 O158 1.247 . S
C160 O159 1.208 . S
C161 O166 1.247 . S
C161 O167 1.208 . S
C162 O154 1.315 . S
C162 O157 1.279 1_556 S
C163 O164 1.315 1_556 S
C163 O165 1.279 . S
O164 Cd156 2.223 . S
O164 C163 1.315 1_554 S
O165 Cd155 2.240 . S
O165 C163 1.279 . S
O166 Cd156 2.297 . S
O166 C161 1.247 . S
O167 Cd156 2.439 . S
O167 C161 1.208 . S
O168 Cd169 2.223 . S
O168 C176 1.315 . S
Cd169 O168 2.223 . S
Cd169 O172 2.297 . S
Cd169 O173 2.439 . S
Cd169 O179 2.240 . S
Cd170 O171 2.240 . S
Cd170 O178 2.223 . S
Cd170 O180 2.297 . S
Cd170 O181 2.439 . S
O171 Cd170 2.240 . S
O171 C176 1.279 . S
O172 Cd169 2.297 . S
O172 C174 1.247 . S
O173 Cd169 2.439 . S
O173 C174 1.208 . S
C174 O172 1.247 . S
C174 O173 1.208 . S
C175 O180 1.247 . S
C175 O181 1.208 . S
C176 O168 1.315 . S
C176 O171 1.279 . S
C177 O178 1.315 . S
C177 O179 1.279 . S
O178 Cd170 2.223 . S
O178 C177 1.315 . S
O179 Cd169 2.240 . S
O179 C177 1.279 . S
O180 Cd170 2.297 . S
O180 C175 1.247 . S
O181 Cd170 2.439 . S
O181 C175 1.208 . S
O182 Cd183 2.223 . S
O182 C190 1.315 . S
Cd183 O182 2.223 . S
Cd183 O186 2.297 . S
Cd183 O187 2.439 . S
Cd183 O193 2.240 . S
Cd184 O185 2.240 . S
Cd184 O192 2.223 . S
Cd184 O194 2.297 . S
Cd184 O195 2.439 . S
O185 Cd184 2.240 . S
O185 C190 1.279 . S
O186 Cd183 2.297 . S
O186 C188 1.247 . S
O187 Cd183 2.439 . S
O187 C188 1.208 . S
C188 O186 1.247 . S
C188 O187 1.208 . S
C189 O194 1.247 . S
C189 O195 1.208 . S
C190 O182 1.315 . S
C190 O185 1.279 . S
C191 O192 1.315 . S
C191 O193 1.279 . S
O192 Cd184 2.223 . S
O192 C191 1.315 . S
O193 Cd183 2.240 . S
O193 C191 1.279 . S
O194 Cd184 2.297 . S
O194 C189 1.247 . S
O195 Cd184 2.439 . S
O195 C189 1.208 . S
O196 Cd197 2.223 . S
O196 C204 1.315 . S
Cd197 O196 2.223 . S
Cd197 O200 2.297 . S
Cd197 O201 2.439 . S
Cd197 O207 2.240 . S
Cd198 O199 2.240 . S
Cd198 O206 2.223 . S
Cd198 O208 2.297 . S
Cd198 O209 2.439 . S
O199 Cd198 2.240 . S
O199 C204 1.279 . S
O200 Cd197 2.297 . S
O200 C202 1.247 . S
O201 Cd197 2.439 . S
O201 C202 1.208 . S
C202 O200 1.247 . S
C202 O201 1.208 . S
C203 O208 1.247 . S
C203 O209 1.208 . S
C204 O196 1.315 . S
C204 O199 1.279 . S
C205 O206 1.315 . S
C205 O207 1.279 . S
O206 Cd198 2.223 . S
O206 C205 1.315 . S
O207 Cd197 2.240 . S
O207 C205 1.279 . S
O208 Cd198 2.297 . S
O208 C203 1.247 . S
O209 Cd198 2.439 . S
O209 C203 1.208 . S
O210 Cd211 2.223 . S
O210 C218 1.315 . S
Cd211 O210 2.223 . S
Cd211 O214 2.297 . S
Cd211 O215 2.439 . S
Cd211 O221 2.240 . S
Cd212 O213 2.240 . S
Cd212 O220 2.223 1_455 S
Cd212 O222 2.297 . S
Cd212 O223 2.439 . S
O213 Cd212 2.240 . S
O213 C218 1.279 1_556 S
O214 Cd211 2.297 . S
O214 C216 1.247 . S
O215 Cd211 2.439 . S
O215 C216 1.208 . S
C216 O214 1.247 . S
C216 O215 1.208 . S
C217 O222 1.247 . S
C217 O223 1.208 . S
C218 O210 1.315 . S
C218 O213 1.279 1_554 S
C219 O220 1.315 1_554 S
C219 O221 1.279 1_655 S
O220 Cd212 2.223 1_655 S
O220 C219 1.315 1_556 S
O221 Cd211 2.240 . S
O221 C219 1.279 1_455 S
O222 Cd212 2.297 . S
O222 C217 1.247 . S
O223 Cd212 2.439 . S
O223 C217 1.208 . S
O224 Cd225 2.223 . S
O224 C232 1.315 . S
Cd225 O224 2.223 . S
Cd225 O228 2.297 . S
Cd225 O229 2.439 . S
Cd225 O235 2.240 . S
Cd226 O227 2.240 . S
Cd226 O234 2.223 . S
Cd226 O236 2.297 . S
Cd226 O237 2.439 . S
O227 Cd226 2.240 . S
O227 C232 1.279 . S
O228 Cd225 2.297 . S
O228 C230 1.247 . S
O229 Cd225 2.439 . S
O229 C230 1.208 . S
C230 O228 1.247 . S
C230 O229 1.208 . S
C231 O236 1.247 . S
C231 O237 1.208 . S
C232 O224 1.315 . S
C232 O227 1.279 . S
C233 O234 1.315 . S
C233 O235 1.279 . S
O234 Cd226 2.223 . S
O234 C233 1.315 . S
O235 Cd225 2.240 . S
O235 C233 1.279 . S
O236 Cd226 2.297 . S
O236 C231 1.247 . S
O237 Cd226 2.439 . S
O237 C231 1.208 . S
O238 Cd239 2.223 . S
O238 C246 1.315 . S
Cd239 O238 2.223 . S
Cd239 O242 2.297 . S
Cd239 O243 2.439 . S
Cd239 O249 2.240 . S
Cd240 O241 2.240 . S
Cd240 O248 2.223 . S
Cd240 O250 2.297 . S
Cd240 O251 2.439 . S
O241 Cd240 2.240 . S
O241 C246 1.279 . S
O242 Cd239 2.297 . S
O242 C244 1.247 . S
O243 Cd239 2.439 . S
O243 C244 1.208 . S
C244 O242 1.247 . S
C244 O243 1.208 . S
C245 O250 1.247 . S
C245 O251 1.208 . S
C246 O238 1.315 . S
C246 O241 1.279 . S
C247 O248 1.315 . S
C247 O249 1.279 . S
O248 Cd240 2.223 . S
O248 C247 1.315 . S
O249 Cd239 2.240 . S
O249 C247 1.279 . S
O250 Cd240 2.297 . S
O250 C245 1.247 . S
O251 Cd240 2.439 . S
O251 C245 1.208 . S
O252 Cd253 2.223 . S
O252 C260 1.315 . S
Cd253 O252 2.223 . S
Cd253 O256 2.297 . S
Cd253 O257 2.439 . S
Cd253 O263 2.240 . S
Cd254 O255 2.240 . S
Cd254 O262 2.223 1_554 S
Cd254 O264 2.297 . S
Cd254 O265 2.439 . S
O255 Cd254 2.240 . S
O255 C260 1.279 . S
O256 Cd253 2.297 . S
O256 C258 1.247 . S
O257 Cd253 2.439 . S
O257 C258 1.208 . S
C258 O256 1.247 . S
C258 O257 1.208 . S
C259 O264 1.247 . S
C259 O265 1.208 . S
C260 O252 1.315 . S
C260 O255 1.279 . S
C261 O262 1.315 . S
C261 O263 1.279 1_556 S
O262 Cd254 2.223 1_556 S
O262 C261 1.315 . S
O263 Cd253 2.240 . S
O263 C261 1.279 1_554 S
O264 Cd254 2.297 . S
O264 C259 1.247 . S
O265 Cd254 2.439 . S
O265 C259 1.208 . S
O266 Cd267 2.223 . S
O266 C274 1.315 . S
Cd267 O266 2.223 . S
Cd267 O270 2.297 . S
Cd267 O271 2.439 . S
Cd267 O277 2.240 . S
Cd268 O269 2.240 . S
Cd268 O276 2.223 . S
Cd268 O278 2.297 . S
Cd268 O279 2.439 . S
O269 Cd268 2.240 . S
O269 C274 1.279 . S
O270 Cd267 2.297 . S
O270 C272 1.247 . S
O271 Cd267 2.439 . S
O271 C272 1.208 . S
C272 O270 1.247 . S
C272 O271 1.208 . S
C273 O278 1.247 . S
C273 O279 1.208 . S
C274 O266 1.315 . S
C274 O269 1.279 . S
C275 O276 1.315 . S
C275 O277 1.279 . S
O276 Cd268 2.223 . S
O276 C275 1.315 . S
O277 Cd267 2.240 . S
O277 C275 1.279 . S
O278 Cd268 2.297 . S
O278 C273 1.247 . S
O279 Cd268 2.439 . S
O279 C273 1.208 . S
O280 Cd281 2.223 . S
O280 C288 1.315 . S
Cd281 O280 2.223 . S
Cd281 O284 2.297 . S
Cd281 O285 2.439 . S
Cd281 O291 2.240 . S
Cd282 O283 2.240 . S
Cd282 O290 2.223 1_554 S
Cd282 O292 2.297 . S
Cd282 O293 2.439 . S
O283 Cd282 2.240 . S
O283 C288 1.279 1_565 S
O284 Cd281 2.297 . S
O284 C286 1.247 . S
O285 Cd281 2.439 . S
O285 C286 1.208 . S
C286 O284 1.247 . S
C286 O285 1.208 . S
C287 O292 1.247 . S
C287 O293 1.208 . S
C288 O280 1.315 . S
C288 O283 1.279 1_545 S
C289 O290 1.315 1_545 S
C289 O291 1.279 1_556 S
O290 Cd282 2.223 1_556 S
O290 C289 1.315 1_565 S
O291 Cd281 2.240 . S
O291 C289 1.279 1_554 S
O292 Cd282 2.297 . S
O292 C287 1.247 . S
O293 Cd282 2.439 . S
O293 C287 1.208 . S
O294 Cd295 2.223 . S
O294 C302 1.315 . S
Cd295 O294 2.223 . S
Cd295 O298 2.297 . S
Cd295 O299 2.439 . S
Cd295 O305 2.240 . S
Cd296 O297 2.240 . S
Cd296 O304 2.223 . S
Cd296 O306 2.297 . S
Cd296 O307 2.439 . S
O297 Cd296 2.240 . S
O297 C302 1.279 . S
O298 Cd295 2.297 . S
O298 C300 1.247 . S
O299 Cd295 2.439 . S
O299 C300 1.208 . S
C300 O298 1.247 . S
C300 O299 1.208 . S
C301 O306 1.247 . S
C301 O307 1.208 . S
C302 O294 1.315 . S
C302 O297 1.279 . S
C303 O304 1.315 . S
C303 O305 1.279 . S
O304 Cd296 2.223 . S
O304 C303 1.315 . S
O305 Cd295 2.240 . S
O305 C303 1.279 . S
O306 Cd296 2.297 . S
O306 C301 1.247 . S
O307 Cd296 2.439 . S
O307 C301 1.208 . S
O308 Cd309 2.223 . S
O308 C316 1.315 . S
Cd309 O308 2.223 . S
Cd309 O312 2.297 . S
Cd309 O313 2.439 . S
Cd309 O319 2.240 . S
Cd310 O311 2.240 . S
Cd310 O318 2.223 . S
Cd310 O320 2.297 . S
Cd310 O321 2.439 . S
O311 Cd310 2.240 . S
O311 C316 1.279 . S
O312 Cd309 2.297 . S
O312 C314 1.247 . S
O313 Cd309 2.439 . S
O313 C314 1.208 . S
C314 O312 1.247 . S
C314 O313 1.208 . S
C315 O320 1.247 . S
C315 O321 1.208 . S
C316 O308 1.315 . S
C316 O311 1.279 . S
C317 O318 1.315 . S
C317 O319 1.279 . S
O318 Cd310 2.223 . S
O318 C317 1.315 . S
O319 Cd309 2.240 . S
O319 C317 1.279 . S
O320 Cd310 2.297 . S
O320 C315 1.247 . S
O321 Cd310 2.439 . S
O321 C315 1.208 . S
O322 Cd323 2.223 . S
O322 C330 1.315 . S
Cd323 O322 2.223 . S
Cd323 O326 2.297 . S
Cd323 O327 2.439 . S
Cd323 O333 2.240 . S
Cd324 O325 2.240 . S
Cd324 O332 2.223 1_556 S
Cd324 O334 2.297 . S
Cd324 O335 2.439 . S
O325 Cd324 2.240 . S
O325 C330 1.279 . S
O326 Cd323 2.297 . S
O326 C328 1.247 . S
O327 Cd323 2.439 . S
O327 C328 1.208 . S
C328 O326 1.247 . S
C328 O327 1.208 . S
C329 O334 1.247 . S
C329 O335 1.208 . S
C330 O322 1.315 . S
C330 O325 1.279 . S
C331 O332 1.315 . S
C331 O333 1.279 1_554 S
O332 Cd324 2.223 1_554 S
O332 C331 1.315 . S
O333 Cd323 2.240 . S
O333 C331 1.279 1_556 S
O334 Cd324 2.297 . S
O334 C329 1.247 . S
O335 Cd324 2.439 . S
O335 C329 1.208 . S
O336 Cd337 2.223 . S
O336 C344 1.315 . S
Cd337 O336 2.223 . S
Cd337 O340 2.297 . S
Cd337 O341 2.439 . S
Cd337 O347 2.240 . S
Cd338 O339 2.240 . S
Cd338 O346 2.223 . S
Cd338 O348 2.297 . S
Cd338 O349 2.439 . S
O339 Cd338 2.240 . S
O339 C344 1.279 . S
O340 Cd337 2.297 . S
O340 C342 1.247 . S
O341 Cd337 2.439 . S
O341 C342 1.208 . S
C342 O340 1.247 . S
C342 O341 1.208 . S
C343 O348 1.247 . S
C343 O349 1.208 . S
C344 O336 1.315 . S
C344 O339 1.279 . S
C345 O346 1.315 . S
C345 O347 1.279 . S
O346 Cd338 2.223 . S
O346 C345 1.315 . S
O347 Cd337 2.240 . S
O347 C345 1.279 . S
O348 Cd338 2.297 . S
O348 C343 1.247 . S
O349 Cd338 2.439 . S
O349 C343 1.208 . S
O350 Cd351 2.223 . S
O350 C358 1.315 . S
Cd351 O350 2.223 . S
Cd351 O354 2.297 . S
Cd351 O355 2.439 . S
Cd351 O361 2.240 . S
Cd352 O353 2.240 . S
Cd352 O360 2.223 . S
Cd352 O362 2.297 . S
Cd352 O363 2.439 . S
O353 Cd352 2.240 . S
O353 C358 1.279 . S
O354 Cd351 2.297 . S
O354 C356 1.247 . S
O355 Cd351 2.439 . S
O355 C356 1.208 . S
C356 O354 1.247 . S
C356 O355 1.208 . S
C357 O362 1.247 . S
C357 O363 1.208 . S
C358 O350 1.315 . S
C358 O353 1.279 . S
C359 O360 1.315 . S
C359 O361 1.279 . S
O360 Cd352 2.223 . S
O360 C359 1.315 . S
O361 Cd351 2.240 . S
O361 C359 1.279 . S
O362 Cd352 2.297 . S
O362 C357 1.247 . S
O363 Cd352 2.439 . S
O363 C357 1.208 . S
O364 Cd365 2.223 . S
O364 C372 1.315 . S
Cd365 O364 2.223 . S
Cd365 O368 2.297 . S
Cd365 O369 2.439 . S
Cd365 O375 2.240 . S
Cd366 O367 2.240 . S
Cd366 O374 2.223 . S
Cd366 O376 2.297 . S
Cd366 O377 2.439 . S
O367 Cd366 2.240 . S
O367 C372 1.279 . S
O368 Cd365 2.297 . S
O368 C370 1.247 . S
O369 Cd365 2.439 . S
O369 C370 1.208 . S
C370 O368 1.247 . S
C370 O369 1.208 . S
C371 O376 1.247 . S
C371 O377 1.208 . S
C372 O364 1.315 . S
C372 O367 1.279 . S
C373 O374 1.315 . S
C373 O375 1.279 . S
O374 Cd366 2.223 . S
O374 C373 1.315 . S
O375 Cd365 2.240 . S
O375 C373 1.279 . S
O376 Cd366 2.297 . S
O376 C371 1.247 . S
O377 Cd366 2.439 . S
O377 C371 1.208 . S
O378 Cd379 2.223 . S
O378 C386 1.315 . S
Cd379 O378 2.223 . S
Cd379 O382 2.297 . S
Cd379 O383 2.439 . S
Cd379 O389 2.240 . S
Cd380 O381 2.240 . S
Cd380 O388 2.223 . S
Cd380 O390 2.297 . S
Cd380 O391 2.439 . S
O381 Cd380 2.240 . S
O381 C386 1.279 1_455 S
O382 Cd379 2.297 . S
O382 C384 1.247 . S
O383 Cd379 2.439 . S
O383 C384 1.208 . S
C384 O382 1.247 . S
C384 O383 1.208 . S
C385 O390 1.247 . S
C385 O391 1.208 . S
C386 O378 1.315 . S
C386 O381 1.279 1_655 S
C387 O388 1.315 1_655 S
C387 O389 1.279 . S
O388 Cd380 2.223 . S
O388 C387 1.315 1_455 S
O389 Cd379 2.240 . S
O389 C387 1.279 . S
O390 Cd380 2.297 . S
O390 C385 1.247 . S
O391 Cd380 2.439 . S
O391 C385 1.208 . S
O392 Cd393 2.223 . S
O392 C400 1.315 . S
Cd393 O392 2.223 . S
Cd393 O396 2.297 . S
Cd393 O397 2.439 . S
Cd393 O403 2.240 . S
Cd394 O395 2.240 . S
Cd394 O402 2.223 . S
Cd394 O404 2.297 . S
Cd394 O405 2.439 . S
O395 Cd394 2.240 . S
O395 C400 1.279 . S
O396 Cd393 2.297 . S
O396 C398 1.247 . S
O397 Cd393 2.439 . S
O397 C398 1.208 . S
C398 O396 1.247 . S
C398 O397 1.208 . S
C399 O404 1.247 . S
C399 O405 1.208 . S
C400 O392 1.315 . S
C400 O395 1.279 . S
C401 O402 1.315 . S
C401 O403 1.279 . S
O402 Cd394 2.223 . S
O402 C401 1.315 . S
O403 Cd393 2.240 . S
O403 C401 1.279 . S
O404 Cd394 2.297 . S
O404 C399 1.247 . S
O405 Cd394 2.439 . S
O405 C399 1.208 . S
O406 Cd407 2.223 . S
O406 C414 1.315 . S
Cd407 O406 2.223 . S
Cd407 O410 2.297 . S
Cd407 O411 2.439 . S
Cd407 O417 2.240 . S
Cd408 O409 2.240 . S
Cd408 O416 2.223 . S
Cd408 O418 2.297 . S
Cd408 O419 2.439 . S
O409 Cd408 2.240 . S
O409 C414 1.279 1_455 S
O410 Cd407 2.297 . S
O410 C412 1.247 . S
O411 Cd407 2.439 . S
O411 C412 1.208 . S
C412 O410 1.247 . S
C412 O411 1.208 . S
C413 O418 1.247 . S
C413 O419 1.208 . S
C414 O406 1.315 . S
C414 O409 1.279 1_655 S
C415 O416 1.315 1_655 S
C415 O417 1.279 . S
O416 Cd408 2.223 . S
O416 C415 1.315 1_455 S
O417 Cd407 2.240 . S
O417 C415 1.279 . S
O418 Cd408 2.297 . S
O418 C413 1.247 . S
O419 Cd408 2.439 . S
O419 C413 1.208 . S
O420 Cd421 2.223 . S
O420 C428 1.315 . S
Cd421 O420 2.223 . S
Cd421 O424 2.297 . S
Cd421 O425 2.439 . S
Cd421 O431 2.240 . S
Cd422 O423 2.240 . S
Cd422 O430 2.223 . S
Cd422 O432 2.297 . S
Cd422 O433 2.439 . S
O423 Cd422 2.240 . S
O423 C428 1.279 . S
O424 Cd421 2.297 . S
O424 C426 1.247 . S
O425 Cd421 2.439 . S
O425 C426 1.208 . S
C426 O424 1.247 . S
C426 O425 1.208 . S
C427 O432 1.247 . S
C427 O433 1.208 . S
C428 O420 1.315 . S
C428 O423 1.279 . S
C429 O430 1.315 . S
C429 O431 1.279 . S
O430 Cd422 2.223 . S
O430 C429 1.315 . S
O431 Cd421 2.240 . S
O431 C429 1.279 . S
O432 Cd422 2.297 . S
O432 C427 1.247 . S
O433 Cd422 2.439 . S
O433 C427 1.208 . S
O434 Cd435 2.223 . S
O434 C442 1.315 . S
Cd435 O434 2.223 . S
Cd435 O438 2.297 . S
Cd435 O439 2.439 . S
Cd435 O445 2.240 . S
Cd436 O437 2.240 . S
Cd436 O444 2.223 . S
Cd436 O446 2.297 . S
Cd436 O447 2.439 . S
O437 Cd436 2.240 . S
O437 C442 1.279 . S
O438 Cd435 2.297 . S
O438 C440 1.247 . S
O439 Cd435 2.439 . S
O439 C440 1.208 . S
C440 O438 1.247 . S
C440 O439 1.208 . S
C441 O446 1.247 . S
C441 O447 1.208 . S
C442 O434 1.315 . S
C442 O437 1.279 . S
C443 O444 1.315 . S
C443 O445 1.279 . S
O444 Cd436 2.223 . S
O444 C443 1.315 . S
O445 Cd435 2.240 . S
O445 C443 1.279 . S
O446 Cd436 2.297 . S
O446 C441 1.247 . S
O447 Cd436 2.439 . S
O447 C441 1.208 . S
O448 Cd449 2.223 . S
O448 C456 1.315 . S
Cd449 O448 2.223 . S
Cd449 O452 2.297 . S
Cd449 O453 2.439 . S
Cd449 O459 2.240 . S
Cd450 O451 2.240 . S
Cd450 O458 2.223 . S
Cd450 O460 2.297 . S
Cd450 O461 2.439 . S
O451 Cd450 2.240 . S
O451 C456 1.279 . S
O452 Cd449 2.297 . S
O452 C454 1.247 . S
O453 Cd449 2.439 . S
O453 C454 1.208 . S
C454 O452 1.247 . S
C454 O453 1.208 . S
C455 O460 1.247 . S
C455 O461 1.208 . S
C456 O448 1.315 . S
C456 O451 1.279 . S
C457 O458 1.315 . S
C457 O459 1.279 . S
O458 Cd450 2.223 . S
O458 C457 1.315 . S
O459 Cd449 2.240 . S
O459 C457 1.279 . S
O460 Cd450 2.297 . S
O460 C455 1.247 . S
O461 Cd450 2.439 . S
O461 C455 1.208 . S
O462 Cd463 2.223 . S
O462 C470 1.315 . S
Cd463 O462 2.223 . S
Cd463 O466 2.297 . S
Cd463 O467 2.439 . S
Cd463 O473 2.240 . S
Cd464 O465 2.240 . S
Cd464 O472 2.223 . S
Cd464 O474 2.297 . S
Cd464 O475 2.439 . S
O465 Cd464 2.240 . S
O465 C470 1.279 1_554 S
O466 Cd463 2.297 . S
O466 C468 1.247 . S
O467 Cd463 2.439 . S
O467 C468 1.208 . S
C468 O466 1.247 . S
C468 O467 1.208 . S
C469 O474 1.247 . S
C469 O475 1.208 . S
C470 O462 1.315 . S
C470 O465 1.279 1_556 S
C471 O472 1.315 1_556 S
C471 O473 1.279 . S
O472 Cd464 2.223 . S
O472 C471 1.315 1_554 S
O473 Cd463 2.240 . S
O473 C471 1.279 . S
O474 Cd464 2.297 . S
O474 C469 1.247 . S
O475 Cd464 2.439 . S
O475 C469 1.208 . S
O476 Cd477 2.223 . S
O476 C484 1.315 . S
Cd477 O476 2.223 . S
Cd477 O480 2.297 . S
Cd477 O481 2.439 . S
Cd477 O487 2.240 . S
Cd478 O479 2.240 . S
Cd478 O486 2.223 . S
Cd478 O488 2.297 . S
Cd478 O489 2.439 . S
O479 Cd478 2.240 . S
O479 C484 1.279 . S
O480 Cd477 2.297 . S
O480 C482 1.247 . S
O481 Cd477 2.439 . S
O481 C482 1.208 . S
C482 O480 1.247 . S
C482 O481 1.208 . S
C483 O488 1.247 . S
C483 O489 1.208 . S
C484 O476 1.315 . S
C484 O479 1.279 . S
C485 O486 1.315 . S
C485 O487 1.279 . S
O486 Cd478 2.223 . S
O486 C485 1.315 . S
O487 Cd477 2.240 . S
O487 C485 1.279 . S
O488 Cd478 2.297 . S
O488 C483 1.247 . S
O489 Cd478 2.439 . S
O489 C483 1.208 . S
O490 Cd491 2.223 . S
O490 C498 1.315 . S
Cd491 O490 2.223 . S
Cd491 O494 2.297 . S
Cd491 O495 2.439 . S
Cd491 O501 2.240 . S
Cd492 O493 2.240 . S
Cd492 O500 2.223 1_655 S
Cd492 O502 2.297 . S
Cd492 O503 2.439 . S
O493 Cd492 2.240 . S
O493 C498 1.279 . S
O494 Cd491 2.297 . S
O494 C496 1.247 . S
O495 Cd491 2.439 . S
O495 C496 1.208 . S
C496 O494 1.247 . S
C496 O495 1.208 . S
C497 O502 1.247 . S
C497 O503 1.208 . S
C498 O490 1.315 . S
C498 O493 1.279 . S
C499 O500 1.315 . S
C499 O501 1.279 1_455 S
O500 Cd492 2.223 1_455 S
O500 C499 1.315 . S
O501 Cd491 2.240 . S
O501 C499 1.279 1_655 S
O502 Cd492 2.297 . S
O502 C497 1.247 . S
O503 Cd492 2.439 . S
O503 C497 1.208 . S
O504 Cd505 2.223 . S
O504 C512 1.315 . S
Cd505 O504 2.223 . S
Cd505 O508 2.297 . S
Cd505 O509 2.439 . S
Cd505 O515 2.240 . S
Cd506 O507 2.240 . S
Cd506 O514 2.223 . S
Cd506 O516 2.297 . S
Cd506 O517 2.439 . S
O507 Cd506 2.240 . S
O507 C512 1.279 . S
O508 Cd505 2.297 . S
O508 C510 1.247 . S
O509 Cd505 2.439 . S
O509 C510 1.208 . S
C510 O508 1.247 . S
C510 O509 1.208 . S
C511 O516 1.247 . S
C511 O517 1.208 . S
C512 O504 1.315 . S
C512 O507 1.279 . S
C513 O514 1.315 . S
C513 O515 1.279 . S
O514 Cd506 2.223 . S
O514 C513 1.315 . S
O515 Cd505 2.240 . S
O515 C513 1.279 . S
O516 Cd506 2.297 . S
O516 C511 1.247 . S
O517 Cd506 2.439 . S
O517 C511 1.208 . S
O518 Cd519 2.223 . S
O518 C526 1.315 . S
Cd519 O518 2.223 . S
Cd519 O522 2.297 . S
Cd519 O523 2.439 . S
Cd519 O529 2.240 . S
Cd520 O521 2.240 . S
Cd520 O528 2.223 1_655 S
Cd520 O530 2.297 . S
Cd520 O531 2.439 . S
O521 Cd520 2.240 . S
O521 C526 1.279 1_556 S
O522 Cd519 2.297 . S
O522 C524 1.247 . S
O523 Cd519 2.439 . S
O523 C524 1.208 . S
C524 O522 1.247 . S
C524 O523 1.208 . S
C525 O530 1.247 . S
C525 O531 1.208 . S
C526 O518 1.315 . S
C526 O521 1.279 1_554 S
C527 O528 1.315 1_554 S
C527 O529 1.279 1_455 S
O528 Cd520 2.223 1_455 S
O528 C527 1.315 1_556 S
O529 Cd519 2.240 . S
O529 C527 1.279 1_655 S
O530 Cd520 2.297 . S
O530 C525 1.247 . S
O531 Cd520 2.439 . S
O531 C525 1.208 . S
O532 Cd533 2.223 . S
O532 C540 1.315 . S
Cd533 O532 2.223 . S
Cd533 O536 2.297 . S
Cd533 O537 2.439 . S
Cd533 O543 2.240 . S
Cd534 O535 2.240 . S
Cd534 O542 2.223 . S
Cd534 O544 2.297 . S
Cd534 O545 2.439 . S
O535 Cd534 2.240 . S
O535 C540 1.279 . S
O536 Cd533 2.297 . S
O536 C538 1.247 . S
O537 Cd533 2.439 . S
O537 C538 1.208 . S
C538 O536 1.247 . S
C538 O537 1.208 . S
C539 O544 1.247 . S
C539 O545 1.208 . S
C540 O532 1.315 . S
C540 O535 1.279 . S
C541 O542 1.315 . S
C541 O543 1.279 . S
O542 Cd534 2.223 . S
O542 C541 1.315 . S
O543 Cd533 2.240 . S
O543 C541 1.279 . S
O544 Cd534 2.297 . S
O544 C539 1.247 . S
O545 Cd534 2.439 . S
O545 C539 1.208 . S
O546 Cd547 2.223 . S
O546 C554 1.315 . S
Cd547 O546 2.223 . S
Cd547 O550 2.297 . S
Cd547 O551 2.439 . S
Cd547 O557 2.240 . S
Cd548 O549 2.240 . S
Cd548 O556 2.223 . S
Cd548 O558 2.297 . S
Cd548 O559 2.439 . S
O549 Cd548 2.240 . S
O549 C554 1.279 . S
O550 Cd547 2.297 . S
O550 C552 1.247 . S
O551 Cd547 2.439 . S
O551 C552 1.208 . S
C552 O550 1.247 . S
C552 O551 1.208 . S
C553 O558 1.247 . S
C553 O559 1.208 . S
C554 O546 1.315 . S
C554 O549 1.279 . S
C555 O556 1.315 . S
C555 O557 1.279 . S
O556 Cd548 2.223 . S
O556 C555 1.315 . S
O557 Cd547 2.240 . S
O557 C555 1.279 . S
O558 Cd548 2.297 . S
O558 C553 1.247 . S
O559 Cd548 2.439 . S
O559 C553 1.208 . S
O560 Cd561 2.223 . S
O560 C568 1.315 . S
Cd561 O560 2.223 . S
Cd561 O564 2.297 . S
Cd561 O565 2.439 . S
Cd561 O571 2.240 . S
Cd562 O563 2.240 . S
Cd562 O570 2.223 . S
Cd562 O572 2.297 . S
Cd562 O573 2.439 . S
O563 Cd562 2.240 . S
O563 C568 1.279 . S
O564 Cd561 2.297 . S
O564 C566 1.247 . S
O565 Cd561 2.439 . S
O565 C566 1.208 . S
C566 O564 1.247 . S
C566 O565 1.208 . S
C567 O572 1.247 . S
C567 O573 1.208 . S
C568 O560 1.315 . S
C568 O563 1.279 . S
C569 O570 1.315 . S
C569 O571 1.279 . S
O570 Cd562 2.223 . S
O570 C569 1.315 . S
O571 Cd561 2.240 . S
O571 C569 1.279 . S
O572 Cd562 2.297 . S
O572 C567 1.247 . S
O573 Cd562 2.439 . S
O573 C567 1.208 . S
O574 Cd575 2.223 . S
O574 C582 1.315 . S
Cd575 O574 2.223 . S
Cd575 O578 2.297 . S
Cd575 O579 2.439 . S
Cd575 O585 2.240 . S
Cd576 O577 2.240 . S
Cd576 O584 2.223 . S
Cd576 O586 2.297 . S
Cd576 O587 2.439 . S
O577 Cd576 2.240 . S
O577 C582 1.279 . S
O578 Cd575 2.297 . S
O578 C580 1.247 . S
O579 Cd575 2.439 . S
O579 C580 1.208 . S
C580 O578 1.247 . S
C580 O579 1.208 . S
C581 O586 1.247 . S
C581 O587 1.208 . S
C582 O574 1.315 . S
C582 O577 1.279 . S
C583 O584 1.315 . S
C583 O585 1.279 . S
O584 Cd576 2.223 . S
O584 C583 1.315 . S
O585 Cd575 2.240 . S
O585 C583 1.279 . S
O586 Cd576 2.297 . S
O586 C581 1.247 . S
O587 Cd576 2.439 . S
O587 C581 1.208 . S
O588 Cd589 2.223 . S
O588 C596 1.315 . S
Cd589 O588 2.223 . S
Cd589 O592 2.297 . S
Cd589 O593 2.439 . S
Cd589 O599 2.240 . S
Cd590 O591 2.240 . S
Cd590 O598 2.223 . S
Cd590 O600 2.297 . S
Cd590 O601 2.439 . S
O591 Cd590 2.240 . S
O591 C596 1.279 1_545 S
O592 Cd589 2.297 . S
O592 C594 1.247 . S
O593 Cd589 2.439 . S
O593 C594 1.208 . S
C594 O592 1.247 . S
C594 O593 1.208 . S
C595 O600 1.247 . S
C595 O601 1.208 . S
C596 O588 1.315 . S
C596 O591 1.279 1_565 S
C597 O598 1.315 1_565 S
C597 O599 1.279 . S
O598 Cd590 2.223 . S
O598 C597 1.315 1_545 S
O599 Cd589 2.240 . S
O599 C597 1.279 . S
O600 Cd590 2.297 . S
O600 C595 1.247 . S
O601 Cd590 2.439 . S
O601 C595 1.208 . S
O602 Cd603 2.223 . S
O602 C610 1.315 . S
Cd603 O602 2.223 . S
Cd603 O606 2.297 . S
Cd603 O607 2.439 . S
Cd603 O613 2.240 . S
Cd604 O605 2.240 . S
Cd604 O612 2.223 . S
Cd604 O614 2.297 . S
Cd604 O615 2.439 . S
O605 Cd604 2.240 . S
O605 C610 1.279 . S
O606 Cd603 2.297 . S
O606 C608 1.247 . S
O607 Cd603 2.439 . S
O607 C608 1.208 . S
C608 O606 1.247 . S
C608 O607 1.208 . S
C609 O614 1.247 . S
C609 O615 1.208 . S
C610 O602 1.315 . S
C610 O605 1.279 . S
C611 O612 1.315 . S
C611 O613 1.279 . S
O612 Cd604 2.223 . S
O612 C611 1.315 . S
O613 Cd603 2.240 . S
O613 C611 1.279 . S
O614 Cd604 2.297 . S
O614 C609 1.247 . S
O615 Cd604 2.439 . S
O615 C609 1.208 . S
O616 Cd617 2.223 . S
O616 C624 1.315 . S
Cd617 O616 2.223 . S
Cd617 O620 2.297 . S
Cd617 O621 2.439 . S
Cd617 O627 2.240 . S
Cd618 O619 2.240 . S
Cd618 O626 2.223 . S
Cd618 O628 2.297 . S
Cd618 O629 2.439 . S
O619 Cd618 2.240 . S
O619 C624 1.279 . S
O620 Cd617 2.297 . S
O620 C622 1.247 . S
O621 Cd617 2.439 . S
O621 C622 1.208 . S
C622 O620 1.247 . S
C622 O621 1.208 . S
C623 O628 1.247 . S
C623 O629 1.208 . S
C624 O616 1.315 . S
C624 O619 1.279 . S
C625 O626 1.315 . S
C625 O627 1.279 . S
O626 Cd618 2.223 . S
O626 C625 1.315 . S
O627 Cd617 2.240 . S
O627 C625 1.279 . S
O628 Cd618 2.297 . S
O628 C623 1.247 . S
O629 Cd618 2.439 . S
O629 C623 1.208 . S
O630 Cd631 2.223 . S
O630 C638 1.315 . S
Cd631 O630 2.223 . S
Cd631 O634 2.297 . S
Cd631 O635 2.439 . S
Cd631 O641 2.240 . S
Cd632 O633 2.240 . S
Cd632 O640 2.223 . S
Cd632 O642 2.297 . S
Cd632 O643 2.439 . S
O633 Cd632 2.240 . S
O633 C638 1.279 . S
O634 Cd631 2.297 . S
O634 C636 1.247 . S
O635 Cd631 2.439 . S
O635 C636 1.208 . S
C636 O634 1.247 . S
C636 O635 1.208 . S
C637 O642 1.247 . S
C637 O643 1.208 . S
C638 O630 1.315 . S
C638 O633 1.279 . S
C639 O640 1.315 . S
C639 O641 1.279 . S
O640 Cd632 2.223 . S
O640 C639 1.315 . S
O641 Cd631 2.240 . S
O641 C639 1.279 . S
O642 Cd632 2.297 . S
O642 C637 1.247 . S
O643 Cd632 2.439 . S
O643 C637 1.208 . S
O644 Cd645 2.223 . S
O644 C652 1.315 . S
Cd645 O644 2.223 . S
Cd645 O648 2.297 . S
Cd645 O649 2.439 . S
Cd645 O655 2.240 . S
Cd646 O647 2.240 . S
Cd646 O654 2.223 1_556 S
Cd646 O656 2.297 . S
Cd646 O657 2.439 . S
O647 Cd646 2.240 . S
O647 C652 1.279 1_565 S
O648 Cd645 2.297 . S
O648 C650 1.247 . S
O649 Cd645 2.439 . S
O649 C650 1.208 . S
C650 O648 1.247 . S
C650 O649 1.208 . S
C651 O656 1.247 . S
C651 O657 1.208 . S
C652 O644 1.315 . S
C652 O647 1.279 1_545 S
C653 O654 1.315 1_545 S
C653 O655 1.279 1_554 S
O654 Cd646 2.223 1_554 S
O654 C653 1.315 1_565 S
O655 Cd645 2.240 . S
O655 C653 1.279 1_556 S
O656 Cd646 2.297 . S
O656 C651 1.247 . S
O657 Cd646 2.439 . S
O657 C651 1.208 . S
O658 Cd659 2.223 . S
O658 C666 1.315 . S
Cd659 O658 2.223 . S
Cd659 O662 2.297 . S
Cd659 O663 2.439 . S
Cd659 O669 2.240 . S
Cd660 O661 2.240 . S
Cd660 O668 2.223 . S
Cd660 O670 2.297 . S
Cd660 O671 2.439 . S
O661 Cd660 2.240 . S
O661 C666 1.279 1_545 S
O662 Cd659 2.297 . S
O662 C664 1.247 . S
O663 Cd659 2.439 . S
O663 C664 1.208 . S
C664 O662 1.247 . S
C664 O663 1.208 . S
C665 O670 1.247 . S
C665 O671 1.208 . S
C666 O658 1.315 . S
C666 O661 1.279 1_565 S
C667 O668 1.315 1_565 S
C667 O669 1.279 . S
O668 Cd660 2.223 . S
O668 C667 1.315 1_545 S
O669 Cd659 2.240 . S
O669 C667 1.279 . S
O670 Cd660 2.297 . S
O670 C665 1.247 . S
O671 Cd660 2.439 . S
O671 C665 1.208 . S
C672 C673 1.369 . S
C672 C674 1.419 . S
C672 H676 0.930 . S
C673 C672 1.369 . S
C673 C682 1.429 . S
C674 C672 1.419 . S
C674 C675 1.363 . S
C674 H677 0.929 . S
C675 C674 1.363 . S
C675 C681 1.428 . S
H676 C672 0.930 . S
H677 C674 0.929 . S
S678 N679 1.613 . S
S678 N680 1.610 . S
N679 S678 1.613 . S
N679 C682 1.350 . S
N680 S678 1.610 . S
N680 C681 1.351 . S
C681 C675 1.428 . S
C681 N680 1.351 . S
C681 C682 1.434 . S
C682 C673 1.429 . S
C682 N679 1.350 . S
C682 C681 1.434 . S
C683 C684 1.369 1_655 S
C683 C685 1.419 . S
C683 H687 0.930 . S
C684 C683 1.369 1_455 S
C684 C693 1.429 1_565 S
C685 C683 1.419 . S
C685 C686 1.362 1_665 S
C685 H688 0.929 . S
C686 C685 1.362 1_445 S
C686 C692 1.429 . S
H687 C683 0.930 . S
H688 C685 0.929 . S
S689 N690 1.613 . S
S689 N691 1.610 . S
N690 S689 1.613 . S
N690 C693 1.350 . S
N691 S689 1.610 . S
N691 C692 1.351 . S
C692 C686 1.429 . S
C692 N691 1.351 . S
C692 C693 1.434 . S
C693 C684 1.429 1_545 S
C693 N690 1.350 . S
C693 C692 1.434 . S
C694 C695 1.369 . S
C694 C696 1.419 1_556 S
C694 H698 0.930 . S
C695 C694 1.369 . S
C695 C704 1.429 . S
C696 C694 1.419 1_554 S
C696 C697 1.363 . S
C696 H699 0.929 . S
C697 C696 1.363 . S
C697 C703 1.428 . S
H698 C694 0.930 . S
H699 C696 0.929 . S
S700 N701 1.613 . S
S700 N702 1.610 1_556 S
N701 S700 1.613 . S
N701 C704 1.350 . S
N702 S700 1.610 1_554 S
N702 C703 1.351 . S
C703 C697 1.428 . S
C703 N702 1.351 . S
C703 C704 1.434 1_554 S
C704 C695 1.429 . S
C704 N701 1.350 . S
C704 C703 1.434 1_556 S
C705 C706 1.369 . S
C705 C707 1.419 . S
C705 H709 0.930 . S
C706 C705 1.369 . S
C706 C715 1.429 1_565 S
C707 C705 1.419 . S
C707 C708 1.348 1_565 S
C707 H710 0.929 . S
C708 C707 1.348 1_545 S
C708 C714 1.443 . S
H709 C705 0.930 . S
H710 C707 0.929 . S
S711 N712 1.613 . S
S711 N713 1.610 . S
N712 S711 1.613 . S
N712 C715 1.350 . S
N713 S711 1.610 . S
N713 C714 1.351 . S
C714 C708 1.443 . S
C714 N713 1.351 . S
C714 C715 1.434 . S
C715 C706 1.429 1_545 S
C715 N712 1.350 . S
C715 C714 1.434 . S
C716 C717 1.369 . S
C716 C718 1.419 . S
C716 H720 0.930 . S
C717 C716 1.369 . S
C717 C726 1.429 . S
C718 C716 1.419 . S
C718 C719 1.363 . S
C718 H721 0.929 . S
C719 C718 1.363 . S
C719 C725 1.428 . S
H720 C716 0.930 . S
H721 C718 0.929 . S
S722 N723 1.613 . S
S722 N724 1.610 . S
N723 S722 1.613 . S
N723 C726 1.350 . S
N724 S722 1.610 . S
N724 C725 1.351 . S
C725 C719 1.428 . S
C725 N724 1.351 . S
C725 C726 1.434 . S
C726 C717 1.429 . S
C726 N723 1.350 . S
C726 C725 1.434 . S
C727 C728 1.369 1_455 S
C727 C729 1.419 . S
C727 H731 0.930 . S
C728 C727 1.369 1_655 S
C728 C737 1.429 . S
C729 C727 1.419 . S
C729 C730 1.362 . S
C729 H732 0.929 . S
C730 C729 1.362 . S
C730 C736 1.430 1_455 S
H731 C727 0.930 . S
H732 C729 0.929 . S
S733 N734 1.613 . S
S733 N735 1.610 . S
N734 S733 1.613 . S
N734 C737 1.350 . S
N735 S733 1.610 . S
N735 C736 1.351 . S
C736 C730 1.430 1_655 S
C736 N735 1.351 . S
C736 C737 1.434 . S
C737 C728 1.429 . S
C737 N734 1.350 . S
C737 C736 1.434 . S
C738 C739 1.369 . S
C738 C740 1.419 1_455 S
C738 H742 0.930 . S
C739 C738 1.369 . S
C739 C748 1.429 . S
C740 C738 1.419 1_655 S
C740 C741 1.363 . S
C740 H743 0.929 . S
C741 C740 1.363 . S
C741 C747 1.428 . S
H742 C738 0.930 . S
H743 C740 0.929 . S
S744 N745 1.616 1_655 S
S744 N746 1.607 . S
N745 S744 1.616 1_455 S
N745 C748 1.350 . S
N746 S744 1.607 . S
N746 C747 1.351 . S
C747 C741 1.428 . S
C747 N746 1.351 . S
C747 C748 1.434 1_655 S
C748 C739 1.429 . S
C748 N745 1.350 . S
C748 C747 1.434 1_455 S
C749 C750 1.369 1_554 S
C749 C751 1.419 . S
C749 H753 0.930 . S
C750 C749 1.369 1_556 S
C750 C759 1.429 . S
C751 C749 1.419 . S
C751 C752 1.363 1_554 S
C751 H754 0.929 . S
C752 C751 1.363 1_556 S
C752 C758 1.428 . S
H753 C749 0.930 . S
H754 C751 0.929 . S
S755 N756 1.613 . S
S755 N757 1.610 . S
N756 S755 1.613 . S
N756 C759 1.350 . S
N757 S755 1.610 . S
N757 C758 1.351 . S
C758 C752 1.428 . S
C758 N757 1.351 . S
C758 C759 1.434 . S
C759 C750 1.429 . S
C759 N756 1.350 . S
C759 C758 1.434 . S
C760 C761 1.369 . S
C760 C762 1.419 . S
C760 H764 0.930 . S
C761 C760 1.369 . S
C761 C770 1.429 . S
C762 C760 1.419 . S
C762 C763 1.363 . S
C762 H765 0.929 . S
C763 C762 1.363 . S
C763 C769 1.428 . S
H764 C760 0.930 . S
H765 C762 0.929 . S
S766 N767 1.613 . S
S766 N768 1.610 . S
N767 S766 1.613 . S
N767 C770 1.350 . S
N768 S766 1.610 . S
N768 C769 1.351 . S
C769 C763 1.428 . S
C769 N768 1.351 . S
C769 C770 1.434 . S
C770 C761 1.429 . S
C770 N767 1.350 . S
C770 C769 1.434 . S
C771 C772 1.369 . S
C771 C773 1.419 . S
C771 H775 0.930 . S
C772 C771 1.369 . S
C772 C781 1.429 . S
C773 C771 1.419 . S
C773 C774 1.363 . S
C773 H776 0.929 . S
C774 C773 1.363 . S
C774 C780 1.428 . S
H775 C771 0.930 . S
H776 C773 0.929 . S
S777 N778 1.613 . S
S777 N779 1.610 . S
N778 S777 1.613 . S
N778 C781 1.350 . S
N779 S777 1.610 . S
N779 C780 1.351 . S
C780 C774 1.428 . S
C780 N779 1.351 . S
C780 C781 1.434 . S
C781 C772 1.429 . S
C781 N778 1.350 . S
C781 C780 1.434 . S
C782 C783 1.369 . S
C782 C784 1.419 1_655 S
C782 H786 0.930 . S
C783 C782 1.369 . S
C783 C792 1.429 . S
C784 C782 1.419 1_455 S
C784 C785 1.363 . S
C784 H787 0.929 . S
C785 C784 1.363 . S
C785 C791 1.428 . S
H786 C782 0.930 . S
H787 C784 0.929 . S
S788 N789 1.585 1_455 S
S788 N790 1.639 . S
N789 S788 1.585 1_655 S
N789 C792 1.350 . S
N790 S788 1.639 . S
N790 C791 1.351 . S
C791 C785 1.428 . S
C791 N790 1.351 . S
C791 C792 1.434 1_455 S
C792 C783 1.429 . S
C792 N789 1.350 . S
C792 C791 1.434 1_655 S
C793 C794 1.369 1_455 S
C793 C795 1.419 . S
C793 H797 0.930 . S
C794 C793 1.369 1_655 S
C794 C803 1.429 1_554 S
C795 C793 1.419 . S
C795 C796 1.364 . S
C795 H798 0.929 . S
C796 C795 1.364 . S
C796 C802 1.428 1_454 S
H797 C793 0.930 . S
H798 C795 0.929 . S
S799 N800 1.613 . S
S799 N801 1.610 . S
N800 S799 1.613 . S
N800 C803 1.350 . S
N801 S799 1.610 . S
N801 C802 1.351 . S
C802 C796 1.428 1_656 S
C802 N801 1.351 . S
C802 C803 1.434 . S
C803 C794 1.429 1_556 S
C803 N800 1.350 . S
C803 C802 1.434 . S
C804 C805 1.369 . S
C804 C806 1.419 . S
C804 H808 0.930 . S
C805 C804 1.369 . S
C805 C814 1.429 . S
C806 C804 1.419 . S
C806 C807 1.363 . S
C806 H809 0.929 . S
C807 C806 1.363 . S
C807 C813 1.428 . S
H808 C804 0.930 . S
H809 C806 0.929 . S
S810 N811 1.613 . S
S810 N812 1.610 . S
N811 S810 1.613 . S
N811 C814 1.350 . S
N812 S810 1.610 . S
N812 C813 1.351 . S
C813 C807 1.428 . S
C813 N812 1.351 . S
C813 C814 1.434 . S
C814 C805 1.429 . S
C814 N811 1.350 . S
C814 C813 1.434 . S
C815 C816 1.369 . S
C815 C817 1.419 1_545 S
C815 H819 0.930 . S
C816 C815 1.369 . S
C816 C825 1.429 . S
C817 C815 1.419 1_565 S
C817 C818 1.363 . S
C817 H820 0.929 . S
C818 C817 1.363 . S
C818 C824 1.428 . S
H819 C815 0.930 . S
H820 C817 0.929 . S
S821 N822 1.613 . S
S821 N823 1.610 1_545 S
N822 S821 1.613 . S
N822 C825 1.350 . S
N823 S821 1.610 1_565 S
N823 C824 1.351 . S
C824 C818 1.428 . S
C824 N823 1.351 . S
C824 C825 1.434 1_565 S
C825 C816 1.429 . S
C825 N822 1.350 . S
C825 C824 1.434 1_545 S
C826 C827 1.367 1_556 S
C826 C828 1.419 . S
C826 H830 0.930 . S
C827 C826 1.367 1_554 S
C827 C836 1.431 . S
C828 C826 1.419 . S
C828 C829 1.363 . S
C828 H831 0.929 . S
C829 C828 1.363 . S
C829 C835 1.428 1_556 S
H830 C826 0.930 . S
H831 C828 0.929 . S
S832 N833 1.613 . S
S832 N834 1.610 . S
N833 S832 1.613 . S
N833 C836 1.350 . S
N834 S832 1.610 . S
N834 C835 1.351 . S
C835 C829 1.428 1_554 S
C835 N834 1.351 . S
C835 C836 1.434 . S
C836 C827 1.431 . S
C836 N833 1.350 . S
C836 C835 1.434 . S
C837 C838 1.369 . S
C837 C839 1.419 1_545 S
C837 H841 0.930 . S
C838 C837 1.369 . S
C838 C847 1.429 . S
C839 C837 1.419 1_565 S
C839 C840 1.363 . S
C839 H842 0.929 . S
C840 C839 1.363 . S
C840 C846 1.428 . S
H841 C837 0.930 . S
H842 C839 0.929 . S
S843 N844 1.607 1_565 S
S843 N845 1.616 . S
N844 S843 1.607 1_545 S
N844 C847 1.350 . S
N845 S843 1.616 . S
N845 C846 1.351 . S
C846 C840 1.428 . S
C846 N845 1.351 . S
C846 C847 1.434 1_565 S
C847 C838 1.429 . S
C847 N844 1.350 . S
C847 C846 1.434 1_545 S
C848 C849 1.369 1_564 S
C848 C850 1.419 . S
C848 H852 0.930 . S
C849 C848 1.369 1_546 S
C849 C858 1.429 . S
C850 C848 1.419 . S
C850 C851 1.364 1_564 S
C850 H853 0.929 . S
C851 C850 1.364 1_546 S
C851 C857 1.428 . S
H852 C848 0.930 . S
H853 C850 0.929 . S
S854 N855 1.613 . S
S854 N856 1.610 . S
N855 S854 1.613 . S
N855 C858 1.350 . S
N856 S854 1.610 . S
N856 C857 1.351 . S
C857 C851 1.428 . S
C857 N856 1.351 . S
C857 C858 1.434 . S
C858 C849 1.429 . S
C858 N855 1.350 . S
C858 C857 1.434 . S
C859 C860 1.369 . S
C859 C861 1.419 . S
C859 H863 0.930 . S
C860 C859 1.369 . S
C860 C869 1.429 . S
C861 C859 1.419 . S
C861 C862 1.363 . S
C861 H864 0.929 . S
C862 C861 1.363 . S
C862 C868 1.428 . S
H863 C859 0.930 . S
H864 C861 0.929 . S
S865 N866 1.613 . S
S865 N867 1.610 . S
N866 S865 1.613 . S
N866 C869 1.350 . S
N867 S865 1.610 . S
N867 C868 1.351 . S
C868 C862 1.428 . S
C868 N867 1.351 . S
C868 C869 1.434 . S
C869 C860 1.429 . S
C869 N866 1.350 . S
C869 C868 1.434 . S
C870 C871 1.369 . S
C870 C872 1.419 . S
C870 H874 0.930 . S
C871 C870 1.369 . S
C871 C880 1.429 . S
C872 C870 1.419 . S
C872 C873 1.363 . S
C872 H875 0.929 . S
C873 C872 1.363 . S
C873 C879 1.428 . S
H874 C870 0.930 . S
H875 C872 0.929 . S
S876 N877 1.613 . S
S876 N878 1.610 . S
N877 S876 1.613 . S
N877 C880 1.350 . S
N878 S876 1.610 . S
N878 C879 1.351 . S
C879 C873 1.428 . S
C879 N878 1.351 . S
C879 C880 1.434 . S
C880 C871 1.429 . S
C880 N877 1.350 . S
C880 C879 1.434 . S
C881 C882 1.369 . S
C881 C883 1.419 1_554 S
C881 H885 0.930 . S
C882 C881 1.369 . S
C882 C891 1.429 . S
C883 C881 1.419 1_556 S
C883 C884 1.363 . S
C883 H886 0.929 . S
C884 C883 1.363 . S
C884 C890 1.428 . S
H885 C881 0.930 . S
H886 C883 0.929 . S
S887 N888 1.613 . S
S887 N889 1.610 1_554 S
N888 S887 1.613 . S
N888 C891 1.350 . S
N889 S887 1.610 1_556 S
N889 C890 1.351 . S
C890 C884 1.428 . S
C890 N889 1.351 . S
C890 C891 1.434 1_556 S
C891 C882 1.429 . S
C891 N888 1.350 . S
C891 C890 1.434 1_554 S
C892 C893 1.369 . S
C892 C894 1.419 . S
C892 H896 0.930 . S
C893 C892 1.369 . S
C893 C902 1.429 . S
C894 C892 1.419 . S
C894 C895 1.363 . S
C894 H897 0.929 . S
C895 C894 1.363 . S
C895 C901 1.428 . S
H896 C892 0.930 . S
H897 C894 0.929 . S
S898 N899 1.613 . S
S898 N900 1.610 . S
N899 S898 1.613 . S
N899 C902 1.350 . S
N900 S898 1.610 . S
N900 C901 1.351 . S
C901 C895 1.428 . S
C901 N900 1.351 . S
C901 C902 1.434 . S
C902 C893 1.429 . S
C902 N899 1.350 . S
C902 C901 1.434 . S
C903 C904 1.369 . S
C903 C905 1.419 . S
C903 H907 0.930 . S
C904 C903 1.369 . S
C904 C913 1.429 . S
C905 C903 1.419 . S
C905 C906 1.363 . S
C905 H908 0.929 . S
C906 C905 1.363 . S
C906 C912 1.428 . S
H907 C903 0.930 . S
H908 C905 0.929 . S
S909 N910 1.613 . S
S909 N911 1.610 . S
N910 S909 1.613 . S
N910 C913 1.350 . S
N911 S909 1.610 . S
N911 C912 1.351 . S
C912 C906 1.428 . S
C912 N911 1.351 . S
C912 C913 1.434 . S
C913 C904 1.429 . S
C913 N910 1.350 . S
C913 C912 1.434 . S
C914 C915 1.369 . S
C914 C916 1.419 . S
C914 H918 0.930 . S
C915 C914 1.369 . S
C915 C924 1.429 1_655 S
C916 C914 1.419 . S
C916 C917 1.363 . S
C916 H919 0.929 . S
C917 C916 1.363 . S
C917 C923 1.428 1_655 S
H918 C914 0.930 . S
H919 C916 0.929 . S
S920 N921 1.613 . S
S920 N922 1.610 . S
N921 S920 1.613 . S
N921 C924 1.350 . S
N922 S920 1.610 . S
N922 C923 1.351 . S
C923 C917 1.428 1_455 S
C923 N922 1.351 . S
C923 C924 1.434 . S
C924 C915 1.429 1_455 S
C924 N921 1.350 . S
C924 C923 1.434 . S
C925 C926 1.369 . S
C925 C927 1.419 . S
C925 H929 0.930 . S
C926 C925 1.369 . S
C926 C935 1.429 1_565 S
C927 C925 1.419 . S
C927 C928 1.363 . S
C927 H930 0.929 . S
C928 C927 1.363 . S
C928 C934 1.428 1_565 S
H929 C925 0.930 . S
H930 C927 0.929 . S
S931 N932 1.613 . S
S931 N933 1.610 . S
N932 S931 1.613 . S
N932 C935 1.350 . S
N933 S931 1.610 . S
N933 C934 1.351 . S
C934 C928 1.428 1_545 S
C934 N933 1.351 . S
C934 C935 1.434 . S
C935 C926 1.429 1_545 S
C935 N932 1.350 . S
C935 C934 1.434 . S
C936 C937 1.369 . S
C936 C938 1.419 . S
C936 H940 0.930 . S
C937 C936 1.369 . S
C937 C946 1.429 . S
C938 C936 1.419 . S
C938 C939 1.363 . S
C938 H941 0.929 . S
C939 C938 1.363 . S
C939 C945 1.428 . S
H940 C936 0.930 . S
H941 C938 0.929 . S
S942 N943 1.613 . S
S942 N944 1.610 . S
N943 S942 1.613 . S
N943 C946 1.350 . S
N944 S942 1.610 . S
N944 C945 1.351 . S
C945 C939 1.428 . S
C945 N944 1.351 . S
C945 C946 1.434 . S
C946 C937 1.429 . S
C946 N943 1.350 . S
C946 C945 1.434 . S
C947 C948 1.369 . S
C947 C949 1.419 . S
C947 H951 0.930 . S
C948 C947 1.369 . S
C948 C957 1.429 . S
C949 C947 1.419 . S
C949 C950 1.363 . S
C949 H952 0.912 1_565 S
C950 C949 1.363 . S
C950 C956 1.428 . S
H951 C947 0.930 . S
H952 C949 0.912 1_545 S
S953 N954 1.613 . S
S953 N955 1.610 . S
N954 S953 1.613 . S
N954 C957 1.350 . S
N955 S953 1.610 . S
N955 C956 1.351 . S
C956 C950 1.428 . S
C956 N955 1.351 . S
C956 C957 1.434 . S
C957 C948 1.429 . S
C957 N954 1.350 . S
C957 C956 1.434 . S
C958 C959 1.369 . S
C958 C960 1.419 . S
C958 H962 0.930 . S
C959 C958 1.369 . S
C959 C968 1.429 . S
C960 C958 1.419 . S
C960 C961 1.363 . S
C960 H963 0.929 . S
C961 C960 1.363 . S
C961 C967 1.428 . S
H962 C958 0.930 . S
H963 C960 0.929 . S
S964 N965 1.613 . S
S964 N966 1.610 . S
N965 S964 1.613 . S
N965 C968 1.350 . S
N966 S964 1.610 . S
N966 C967 1.351 . S
C967 C961 1.428 . S
C967 N966 1.351 . S
C967 C968 1.434 . S
C968 C959 1.429 . S
C968 N965 1.350 . S
C968 C967 1.434 . S
C969 C970 1.369 . S
C969 C971 1.419 . S
C969 H973 0.930 . S
C970 C969 1.369 . S
C970 C979 1.429 . S
C971 C969 1.419 . S
C971 C972 1.363 . S
C971 H974 0.929 . S
C972 C971 1.363 . S
C972 C978 1.428 . S
H973 C969 0.930 . S
H974 C971 0.929 . S
S975 N976 1.616 . S
S975 N977 1.625 . S
N976 S975 1.616 . S
N976 C979 1.350 . S
N977 S975 1.625 . S
N977 C978 1.351 . S
C978 C972 1.428 . S
C978 N977 1.351 . S
C978 C979 1.434 . S
C979 C970 1.429 . S
C979 N976 1.350 . S
C979 C978 1.434 . S
C980 C981 1.369 . S
C980 C982 1.419 . S
C980 H984 0.930 . S
C981 C980 1.369 . S
C981 C990 1.429 . S
C982 C980 1.419 . S
C982 C983 1.363 . S
C982 H985 0.929 . S
C983 C982 1.363 . S
C983 C989 1.428 . S
H984 C980 0.930 . S
H985 C982 0.929 . S
S986 N987 1.613 . S
S986 N988 1.610 . S
N987 S986 1.613 . S
N987 C990 1.350 . S
N988 S986 1.610 . S
N988 C989 1.351 . S
C989 C983 1.428 . S
C989 N988 1.351 . S
C989 C990 1.434 . S
C990 C981 1.429 . S
C990 N987 1.350 . S
C990 C989 1.434 . S
C991 C992 1.369 . S
C991 C993 1.419 . S
C991 H995 0.930 . S
C992 C991 1.369 . S
C992 C1001 1.429 . S
C993 C991 1.419 . S
C993 C994 1.363 . S
C993 H996 0.929 . S
C994 C993 1.363 . S
C994 C1000 1.428 . S
H995 C991 0.930 . S
H996 C993 0.929 . S
S997 N998 1.613 . S
S997 N999 1.610 . S
N998 S997 1.613 . S
N998 C1001 1.350 . S
N999 S997 1.610 . S
N999 C1000 1.351 . S
C1000 C994 1.428 . S
C1000 N999 1.351 . S
C1000 C1001 1.434 . S
C1001 C992 1.429 . S
C1001 N998 1.350 . S
C1001 C1000 1.434 . S
C1002 C1003 1.369 . S
C1002 C1004 1.419 . S
C1002 H1006 0.930 . S
C1003 C1002 1.369 . S
C1003 C1012 1.429 . S
C1004 C1002 1.419 . S
C1004 C1005 1.363 . S
C1004 H1007 0.929 . S
C1005 C1004 1.363 . S
C1005 C1011 1.428 . S
H1006 C1002 0.930 . S
H1007 C1004 0.929 . S
S1008 N1009 1.613 . S
S1008 N1010 1.610 . S
N1009 S1008 1.613 . S
N1009 C1012 1.350 . S
N1010 S1008 1.610 . S
N1010 C1011 1.351 . S
C1011 C1005 1.428 . S
C1011 N1010 1.351 . S
C1011 C1012 1.434 . S
C1012 C1003 1.429 . S
C1012 N1009 1.350 . S
C1012 C1011 1.434 . S
C1013 C1014 1.369 . S
C1013 C1015 1.419 . S
C1013 H1017 0.930 . S
C1014 C1013 1.369 . S
C1014 C1023 1.429 . S
C1015 C1013 1.419 . S
C1015 C1016 1.363 . S
C1015 H1018 0.929 . S
C1016 C1015 1.363 . S
C1016 C1022 1.428 . S
H1017 C1013 0.930 . S
H1018 C1015 0.929 . S
S1019 N1020 1.613 1_556 S
S1019 N1021 1.610 . S
N1020 S1019 1.613 1_554 S
N1020 C1023 1.348 1_554 S
N1021 S1019 1.610 . S
N1021 C1022 1.351 . S
C1022 C1016 1.428 . S
C1022 N1021 1.351 . S
C1022 C1023 1.434 . S
C1023 C1014 1.429 . S
C1023 N1020 1.348 1_556 S
C1023 C1022 1.434 . S
C1024 C1025 1.369 . S
C1024 C1026 1.419 . S
C1024 H1028 0.930 . S
C1025 C1024 1.369 . S
C1025 C1034 1.429 . S
C1026 C1024 1.419 . S
C1026 C1027 1.363 . S
C1026 H1029 0.929 . S
C1027 C1026 1.363 . S
C1027 C1033 1.428 . S
H1028 C1024 0.930 . S
H1029 C1026 0.929 . S
S1030 N1031 1.613 . S
S1030 N1032 1.610 . S
N1031 S1030 1.613 . S
N1031 C1034 1.350 . S
N1032 S1030 1.610 . S
N1032 C1033 1.351 . S
C1033 C1027 1.428 . S
C1033 N1032 1.351 . S
C1033 C1034 1.434 . S
C1034 C1025 1.429 . S
C1034 N1031 1.350 . S
C1034 C1033 1.434 . S
C1035 C1036 1.369 . S
C1035 C1037 1.419 . S
C1035 H1039 0.930 . S
C1036 C1035 1.369 . S
C1036 C1045 1.429 . S
C1037 C1035 1.419 . S
C1037 C1038 1.363 . S
C1037 H1040 0.929 . S
C1038 C1037 1.363 . S
C1038 C1044 1.428 . S
H1039 C1035 0.930 . S
H1040 C1037 0.929 . S
S1041 N1042 1.613 . S
S1041 N1043 1.610 . S
N1042 S1041 1.613 . S
N1042 C1045 1.350 . S
N1043 S1041 1.610 . S
N1043 C1044 1.351 . S
C1044 C1038 1.428 . S
C1044 N1043 1.351 . S
C1044 C1045 1.434 . S
C1045 C1036 1.429 . S
C1045 N1042 1.350 . S
C1045 C1044 1.434 . S
C1046 C1047 1.369 . S
C1046 C1048 1.419 . S
C1046 H1050 0.930 . S
C1047 C1046 1.369 . S
C1047 C1056 1.429 . S
C1048 C1046 1.419 . S
C1048 C1049 1.363 . S
C1048 H1051 0.929 . S
C1049 C1048 1.363 . S
C1049 C1055 1.428 . S
H1050 C1046 0.930 . S
H1051 C1048 0.929 . S
S1052 N1053 1.613 . S
S1052 N1054 1.610 . S
N1053 S1052 1.613 . S
N1053 C1056 1.350 . S
N1054 S1052 1.610 . S
N1054 C1055 1.351 . S
C1055 C1049 1.428 . S
C1055 N1054 1.351 . S
C1055 C1056 1.434 . S
C1056 C1047 1.429 . S
C1056 N1053 1.350 . S
C1056 C1055 1.434 . S
C1057 C1058 1.369 . S
C1057 C1059 1.419 . S
C1057 H1061 0.930 . S
C1058 C1057 1.369 . S
C1058 C1067 1.429 . S
C1059 C1057 1.419 . S
C1059 C1060 1.363 . S
C1059 H1062 0.929 . S
C1060 C1059 1.363 . S
C1060 C1066 1.428 . S
H1061 C1057 0.930 . S
H1062 C1059 0.929 . S
S1063 N1064 1.613 . S
S1063 N1065 1.610 . S
N1064 S1063 1.613 . S
N1064 C1067 1.350 . S
N1065 S1063 1.610 . S
N1065 C1066 1.351 . S
C1066 C1060 1.428 . S
C1066 N1065 1.351 . S
C1066 C1067 1.434 . S
C1067 C1058 1.429 . S
C1067 N1064 1.350 . S
C1067 C1066 1.434 . S
C1068 C1069 1.369 . S
C1068 C1070 1.419 . S
C1068 H1072 0.930 . S
C1069 C1068 1.369 . S
C1069 C1078 1.429 . S
C1070 C1068 1.419 . S
C1070 C1071 1.363 . S
C1070 H1073 0.929 . S
C1071 C1070 1.363 . S
C1071 C1077 1.428 . S
H1072 C1068 0.930 . S
H1073 C1070 0.929 . S
S1074 N1075 1.613 . S
S1074 N1076 1.610 . S
N1075 S1074 1.613 . S
N1075 C1078 1.350 . S
N1076 S1074 1.610 . S
N1076 C1077 1.351 . S
C1077 C1071 1.428 . S
C1077 N1076 1.351 . S
C1077 C1078 1.434 . S
C1078 C1069 1.429 . S
C1078 N1075 1.350 . S
C1078 C1077 1.434 . S
C1079 C1080 1.369 . S
C1079 C1081 1.419 . S
C1079 H1083 0.930 . S
C1080 C1079 1.369 . S
C1080 C1089 1.429 . S
C1081 C1079 1.419 . S
C1081 C1082 1.363 . S
C1081 H1084 0.929 . S
C1082 C1081 1.363 . S
C1082 C1088 1.428 . S
H1083 C1079 0.930 . S
H1084 C1081 0.929 . S
S1085 N1086 1.613 . S
S1085 N1087 1.610 . S
N1086 S1085 1.613 . S
N1086 C1089 1.350 . S
N1087 S1085 1.610 . S
N1087 C1088 1.351 . S
C1088 C1082 1.428 . S
C1088 N1087 1.351 . S
C1088 C1089 1.434 . S
C1089 C1080 1.429 . S
C1089 N1086 1.350 . S
C1089 C1088 1.434 . S
C1090 C1091 1.369 . S
C1090 C1092 1.419 . S
C1090 H1094 0.930 . S
C1091 C1090 1.369 . S
C1091 C1100 1.429 . S
C1092 C1090 1.419 . S
C1092 C1093 1.363 . S
C1092 H1095 0.929 . S
C1093 C1092 1.363 . S
C1093 C1099 1.428 . S
H1094 C1090 0.930 . S
H1095 C1092 0.929 . S
S1096 N1097 1.613 . S
S1096 N1098 1.610 . S
N1097 S1096 1.613 . S
N1097 C1100 1.350 . S
N1098 S1096 1.610 . S
N1098 C1099 1.351 . S
C1099 C1093 1.428 . S
C1099 N1098 1.351 . S
C1099 C1100 1.434 . S
C1100 C1091 1.429 . S
C1100 N1097 1.350 . S
C1100 C1099 1.434 . S
C1101 C1102 1.369 . S
C1101 C1103 1.419 . S
C1101 H1105 0.930 . S
C1102 C1101 1.369 . S
C1102 C1111 1.429 . S
C1103 C1101 1.419 . S
C1103 C1104 1.363 . S
C1103 H1106 0.929 . S
C1104 C1103 1.363 . S
C1104 C1110 1.428 . S
H1105 C1101 0.930 . S
H1106 C1103 0.929 . S
S1107 N1108 1.613 . S
S1107 N1109 1.611 . S
N1108 S1107 1.613 . S
N1108 C1111 1.350 . S
N1109 S1107 1.611 . S
N1109 C1110 1.365 . S
C1110 C1104 1.428 . S
C1110 N1109 1.365 . S
C1110 C1111 1.434 . S
C1111 C1102 1.429 . S
C1111 N1108 1.350 . S
C1111 C1110 1.434 . S
C1112 C1113 1.369 . S
C1112 C1114 1.419 . S
C1112 H1116 0.930 . S
C1113 C1112 1.369 . S
C1113 C1122 1.429 . S
C1114 C1112 1.419 . S
C1114 C1115 1.363 . S
C1114 H1117 0.929 . S
C1115 C1114 1.363 . S
C1115 C1121 1.428 . S
H1116 C1112 0.930 . S
H1117 C1114 0.929 . S
S1118 N1119 1.613 . S
S1118 N1120 1.610 . S
N1119 S1118 1.613 . S
N1119 C1122 1.350 . S
N1120 S1118 1.610 . S
N1120 C1121 1.351 . S
C1121 C1115 1.428 . S
C1121 N1120 1.351 . S
C1121 C1122 1.434 . S
C1122 C1113 1.429 . S
C1122 N1119 1.350 . S
C1122 C1121 1.434 . S
C1123 C1124 1.369 . S
C1123 C1125 1.419 . S
C1123 H1127 0.930 . S
C1124 C1123 1.369 . S
C1124 C1133 1.429 . S
C1125 C1123 1.419 . S
C1125 C1126 1.363 . S
C1125 H1128 0.929 . S
C1126 C1125 1.363 . S
C1126 C1132 1.428 . S
H1127 C1123 0.930 . S
H1128 C1125 0.929 . S
S1129 N1130 1.613 . S
S1129 N1131 1.610 . S
N1130 S1129 1.613 . S
N1130 C1133 1.350 . S
N1131 S1129 1.610 . S
N1131 C1132 1.351 . S
C1132 C1126 1.428 . S
C1132 N1131 1.351 . S
C1132 C1133 1.434 . S
C1133 C1124 1.429 . S
C1133 N1130 1.350 . S
C1133 C1132 1.434 . S
C1134 C1135 1.369 . S
C1134 C1136 1.419 . S
C1134 H1138 0.930 . S
C1135 C1134 1.369 . S
C1135 C1144 1.429 . S
C1136 C1134 1.419 . S
C1136 C1137 1.363 . S
C1136 H1139 0.929 . S
C1137 C1136 1.363 . S
C1137 C1143 1.428 . S
H1138 C1134 0.930 . S
H1139 C1136 0.929 . S
S1140 N1141 1.613 . S
S1140 N1142 1.610 . S
N1141 S1140 1.613 . S
N1141 C1144 1.350 . S
N1142 S1140 1.610 . S
N1142 C1143 1.351 . S
C1143 C1137 1.428 . S
C1143 N1142 1.351 . S
C1143 C1144 1.434 . S
C1144 C1135 1.429 . S
C1144 N1141 1.350 . S
C1144 C1143 1.434 . S
C1145 C1146 1.369 . S
C1145 C1147 1.419 . S
C1145 H1149 0.930 . S
C1146 C1145 1.369 . S
C1146 C1155 1.429 . S
C1147 C1145 1.419 . S
C1147 C1148 1.363 . S
C1147 H1150 0.929 . S
C1148 C1147 1.363 . S
C1148 C1154 1.428 . S
H1149 C1145 0.930 . S
H1150 C1147 0.929 . S
S1151 N1152 1.613 . S
S1151 N1153 1.610 . S
N1152 S1151 1.613 . S
N1152 C1155 1.350 . S
N1153 S1151 1.610 . S
N1153 C1154 1.351 . S
C1154 C1148 1.428 . S
C1154 N1153 1.351 . S
C1154 C1155 1.434 . S
C1155 C1146 1.429 . S
C1155 N1152 1.350 . S
C1155 C1154 1.434 . S
C1156 C1157 1.369 . S
C1156 C1158 1.419 . S
C1156 H1160 0.930 . S
C1157 C1156 1.369 . S
C1157 C1166 1.429 . S
C1158 C1156 1.419 . S
C1158 C1159 1.363 . S
C1158 H1161 0.929 . S
C1159 C1158 1.363 . S
C1159 C1165 1.428 . S
H1160 C1156 0.930 . S
H1161 C1158 0.929 . S
S1162 N1163 1.613 1_556 S
S1162 N1164 1.610 . S
N1163 S1162 1.613 1_554 S
N1163 C1166 1.350 . S
N1164 S1162 1.610 . S
N1164 C1165 1.351 1_556 S
C1165 C1159 1.428 . S
C1165 N1164 1.351 1_554 S
C1165 C1166 1.434 . S
C1166 C1157 1.429 . S
C1166 N1163 1.350 . S
C1166 C1165 1.434 . S
C1167 C1168 1.369 . S
C1167 C1169 1.419 . S
C1167 H1171 0.930 . S
C1168 C1167 1.369 . S
C1168 C1177 1.429 . S
C1169 C1167 1.419 . S
C1169 C1170 1.363 . S
C1169 H1172 0.929 . S
C1170 C1169 1.363 . S
C1170 C1176 1.428 . S
H1171 C1167 0.930 . S
H1172 C1169 0.929 . S
S1173 N1174 1.613 . S
S1173 N1175 1.610 . S
N1174 S1173 1.613 . S
N1174 C1177 1.350 . S
N1175 S1173 1.610 . S
N1175 C1176 1.351 . S
C1176 C1170 1.428 . S
C1176 N1175 1.351 . S
C1176 C1177 1.434 . S
C1177 C1168 1.429 . S
C1177 N1174 1.350 . S
C1177 C1176 1.434 . S
C1178 C1179 1.369 . S
C1178 C1180 1.419 . S
C1178 H1182 0.930 . S
C1179 C1178 1.369 . S
C1179 C1188 1.429 . S
C1180 C1178 1.419 . S
C1180 C1181 1.363 . S
C1180 H1183 0.929 . S
C1181 C1180 1.363 . S
C1181 C1187 1.428 . S
H1182 C1178 0.930 . S
H1183 C1180 0.929 . S
S1184 N1185 1.613 . S
S1184 N1186 1.610 . S
N1185 S1184 1.613 . S
N1185 C1188 1.350 . S
N1186 S1184 1.610 . S
N1186 C1187 1.351 . S
C1187 C1181 1.428 . S
C1187 N1186 1.351 . S
C1187 C1188 1.434 . S
C1188 C1179 1.429 . S
C1188 N1185 1.350 . S
C1188 C1187 1.434 . S
C1189 C1190 1.369 . S
C1189 C1191 1.419 . S
C1189 H1193 0.930 . S
C1190 C1189 1.369 . S
C1190 C1199 1.429 . S
C1191 C1189 1.419 . S
C1191 C1192 1.363 . S
C1191 H1194 0.929 . S
C1192 C1191 1.363 . S
C1192 C1198 1.428 . S
H1193 C1189 0.930 . S
H1194 C1191 0.929 . S
S1195 N1196 1.613 . S
S1195 N1197 1.610 . S
N1196 S1195 1.613 . S
N1196 C1199 1.350 1_554 S
N1197 S1195 1.610 . S
N1197 C1198 1.351 1_554 S
C1198 C1192 1.428 . S
C1198 N1197 1.351 1_556 S
C1198 C1199 1.434 . S
C1199 C1190 1.429 . S
C1199 N1196 1.350 1_556 S
C1199 C1198 1.434 . S
C1200 C1201 1.369 . S
C1200 C1202 1.419 . S
C1200 H1204 0.930 . S
C1201 C1200 1.369 . S
C1201 C1210 1.429 . S
C1202 C1200 1.419 . S
C1202 C1203 1.363 . S
C1202 H1205 0.929 . S
C1203 C1202 1.363 . S
C1203 C1209 1.428 . S
H1204 C1200 0.930 . S
H1205 C1202 0.929 . S
S1206 N1207 1.613 . S
S1206 N1208 1.610 . S
N1207 S1206 1.613 . S
N1207 C1210 1.350 . S
N1208 S1206 1.610 . S
N1208 C1209 1.351 . S
C1209 C1203 1.428 . S
C1209 N1208 1.351 . S
C1209 C1210 1.434 . S
C1210 C1201 1.429 . S
C1210 N1207 1.350 . S
C1210 C1209 1.434 . S
C1211 C1212 1.369 . S
C1211 C1213 1.419 . S
C1211 H1215 0.930 . S
C1212 C1211 1.369 . S
C1212 C1221 1.429 . S
C1213 C1211 1.419 . S
C1213 C1214 1.363 . S
C1213 H1216 0.929 . S
C1214 C1213 1.363 . S
C1214 C1220 1.428 . S
H1215 C1211 0.930 . S
H1216 C1213 0.929 . S
S1217 N1218 1.613 . S
S1217 N1219 1.610 . S
N1218 S1217 1.613 . S
N1218 C1221 1.350 . S
N1219 S1217 1.610 . S
N1219 C1220 1.351 . S
C1220 C1214 1.428 . S
C1220 N1219 1.351 . S
C1220 C1221 1.434 . S
C1221 C1212 1.429 . S
C1221 N1218 1.350 . S
C1221 C1220 1.434 . S
C1222 C1223 1.369 . S
C1222 C1224 1.419 . S
C1222 H1226 0.930 . S
C1223 C1222 1.369 . S
C1223 C1232 1.429 . S
C1224 C1222 1.419 . S
C1224 C1225 1.363 . S
C1224 H1227 0.929 . S
C1225 C1224 1.363 . S
C1225 C1231 1.428 . S
H1226 C1222 0.930 . S
H1227 C1224 0.929 . S
S1228 N1229 1.613 . S
S1228 N1230 1.610 . S
N1229 S1228 1.613 . S
N1229 C1232 1.350 . S
N1230 S1228 1.610 . S
N1230 C1231 1.351 . S
C1231 C1225 1.428 . S
C1231 N1230 1.351 . S
C1231 C1232 1.434 . S
C1232 C1223 1.429 . S
C1232 N1229 1.350 . S
C1232 C1231 1.434 . S
C1233 C1234 1.369 . S
C1233 C1235 1.419 . S
C1233 H1237 0.930 . S
C1234 C1233 1.369 . S
C1234 C1243 1.429 . S
C1235 C1233 1.419 . S
C1235 C1236 1.363 . S
C1235 H1238 0.929 . S
C1236 C1235 1.363 . S
C1236 C1242 1.428 . S
H1237 C1233 0.930 . S
H1238 C1235 0.929 . S
S1239 N1240 1.613 . S
S1239 N1241 1.610 . S
N1240 S1239 1.613 . S
N1240 C1243 1.350 . S
N1241 S1239 1.610 . S
N1241 C1242 1.351 . S
C1242 C1236 1.428 . S
C1242 N1241 1.351 . S
C1242 C1243 1.434 . S
C1243 C1234 1.429 . S
C1243 N1240 1.350 . S
C1243 C1242 1.434 . S
C1244 C1245 1.369 . S
C1244 C1246 1.419 . S
C1244 H1248 0.930 . S
C1245 C1244 1.369 . S
C1245 C1254 1.429 . S
C1246 C1244 1.419 . S
C1246 C1247 1.363 . S
C1246 H1249 0.929 . S
C1247 C1246 1.363 . S
C1247 C1253 1.428 . S
H1248 C1244 0.930 . S
H1249 C1246 0.929 . S
S1250 N1251 1.613 . S
S1250 N1252 1.610 . S
N1251 S1250 1.613 . S
N1251 C1254 1.350 . S
N1252 S1250 1.610 . S
N1252 C1253 1.351 . S
C1253 C1247 1.428 . S
C1253 N1252 1.351 . S
C1253 C1254 1.434 . S
C1254 C1245 1.429 . S
C1254 N1251 1.350 . S
C1254 C1253 1.434 . S
C1255 C1256 1.369 . S
C1255 C1257 1.419 . S
C1255 H1259 0.930 . S
C1256 C1255 1.369 . S
C1256 C1265 1.429 . S
C1257 C1255 1.419 . S
C1257 C1258 1.363 . S
C1257 H1260 0.929 . S
C1258 C1257 1.363 . S
C1258 C1264 1.428 . S
H1259 C1255 0.930 . S
H1260 C1257 0.929 . S
S1261 N1262 1.613 1_556 S
S1261 N1263 1.649 . S
N1262 S1261 1.613 1_554 S
N1262 C1265 1.352 1_554 S
N1263 S1261 1.649 . S
N1263 C1264 1.351 . S
C1264 C1258 1.428 . S
C1264 N1263 1.351 . S
C1264 C1265 1.434 . S
C1265 C1256 1.429 . S
C1265 N1262 1.352 1_556 S
C1265 C1264 1.434 . S
C1266 C1267 1.369 . S
C1266 C1268 1.419 . S
C1266 H1270 0.930 . S
C1267 C1266 1.369 . S
C1267 C1276 1.429 . S
C1268 C1266 1.419 . S
C1268 C1269 1.363 . S
C1268 H1271 0.929 . S
C1269 C1268 1.363 . S
C1269 C1275 1.428 . S
H1270 C1266 0.930 . S
H1271 C1268 0.929 . S
S1272 N1273 1.613 . S
S1272 N1274 1.610 . S
N1273 S1272 1.613 . S
N1273 C1276 1.350 . S
N1274 S1272 1.610 . S
N1274 C1275 1.351 . S
C1275 C1269 1.428 . S
C1275 N1274 1.351 . S
C1275 C1276 1.434 . S
C1276 C1267 1.429 . S
C1276 N1273 1.350 . S
C1276 C1275 1.434 . S
C1277 C1278 1.369 . S
C1277 C1279 1.419 . S
C1277 H1281 0.930 . S
C1278 C1277 1.369 . S
C1278 C1287 1.429 . S
C1279 C1277 1.419 . S
C1279 C1280 1.363 . S
C1279 H1282 0.929 . S
C1280 C1279 1.363 . S
C1280 C1286 1.428 . S
H1281 C1277 0.930 . S
H1282 C1279 0.929 . S
S1283 N1284 1.613 . S
S1283 N1285 1.610 . S
N1284 S1283 1.613 . S
N1284 C1287 1.350 . S
N1285 S1283 1.610 . S
N1285 C1286 1.351 . S
C1286 C1280 1.428 . S
C1286 N1285 1.351 . S
C1286 C1287 1.434 . S
C1287 C1278 1.429 . S
C1287 N1284 1.350 . S
C1287 C1286 1.434 . S
C1288 C1289 1.369 . S
C1288 C1290 1.419 . S
C1288 H1292 0.930 . S
C1289 C1288 1.369 . S
C1289 C1298 1.429 . S
C1290 C1288 1.419 . S
C1290 C1291 1.363 . S
C1290 H1293 0.929 . S
C1291 C1290 1.363 . S
C1291 C1297 1.428 . S
H1292 C1288 0.930 . S
H1293 C1290 0.929 . S
S1294 N1295 1.613 . S
S1294 N1296 1.610 . S
N1295 S1294 1.613 . S
N1295 C1298 1.350 . S
N1296 S1294 1.610 . S
N1296 C1297 1.351 . S
C1297 C1291 1.428 . S
C1297 N1296 1.351 . S
C1297 C1298 1.434 . S
C1298 C1289 1.429 . S
C1298 N1295 1.350 . S
C1298 C1297 1.434 . S
C1299 C1300 1.369 . S
C1299 C1301 1.419 . S
C1299 H1303 0.930 . S
C1300 C1299 1.369 . S
C1300 C1309 1.429 . S
C1301 C1299 1.419 . S
C1301 C1302 1.363 . S
C1301 H1304 0.929 . S
C1302 C1301 1.363 . S
C1302 C1308 1.428 . S
H1303 C1299 0.930 . S
H1304 C1301 0.929 . S
S1305 N1306 1.613 . S
S1305 N1307 1.610 . S
N1306 S1305 1.613 . S
N1306 C1309 1.350 . S
N1307 S1305 1.610 . S
N1307 C1308 1.351 . S
C1308 C1302 1.428 . S
C1308 N1307 1.351 . S
C1308 C1309 1.434 . S
C1309 C1300 1.429 . S
C1309 N1306 1.350 . S
C1309 C1308 1.434 . S
C1310 C1311 1.369 . S
C1310 C1312 1.419 . S
C1310 H1314 0.930 . S
C1311 C1310 1.369 . S
C1311 C1320 1.429 . S
C1312 C1310 1.419 . S
C1312 C1313 1.363 . S
C1312 H1315 0.929 . S
C1313 C1312 1.363 . S
C1313 C1319 1.428 . S
H1314 C1310 0.930 . S
H1315 C1312 0.929 . S
S1316 N1317 1.613 . S
S1316 N1318 1.610 . S
N1317 S1316 1.613 . S
N1317 C1320 1.350 . S
N1318 S1316 1.610 . S
N1318 C1319 1.351 . S
C1319 C1313 1.428 . S
C1319 N1318 1.351 . S
C1319 C1320 1.434 . S
C1320 C1311 1.429 . S
C1320 N1317 1.350 . S
C1320 C1319 1.434 . S
C1321 C1322 1.369 . S
C1321 C1323 1.419 . S
C1321 H1325 0.930 . S
C1322 C1321 1.369 . S
C1322 C1331 1.429 . S
C1323 C1321 1.419 . S
C1323 C1324 1.363 . S
C1323 H1326 0.929 . S
C1324 C1323 1.363 . S
C1324 C1330 1.428 . S
H1325 C1321 0.930 . S
H1326 C1323 0.929 . S
S1327 N1328 1.613 . S
S1327 N1329 1.610 . S
N1328 S1327 1.613 . S
N1328 C1331 1.350 . S
N1329 S1327 1.610 . S
N1329 C1330 1.351 . S
C1330 C1324 1.428 . S
C1330 N1329 1.351 . S
C1330 C1331 1.434 . S
C1331 C1322 1.429 . S
C1331 N1328 1.350 . S
C1331 C1330 1.434 . S
C1332 C1333 1.369 . S
C1332 C1334 1.419 . S
C1332 H1336 0.930 . S
C1333 C1332 1.369 . S
C1333 C1342 1.429 . S
C1334 C1332 1.419 . S
C1334 C1335 1.363 . S
C1334 H1337 0.929 . S
C1335 C1334 1.363 . S
C1335 C1341 1.428 . S
H1336 C1332 0.930 . S
H1337 C1334 0.929 . S
S1338 N1339 1.613 . S
S1338 N1340 1.610 . S
N1339 S1338 1.613 . S
N1339 C1342 1.350 . S
N1340 S1338 1.610 . S
N1340 C1341 1.351 . S
C1341 C1335 1.428 . S
C1341 N1340 1.351 . S
C1341 C1342 1.434 . S
C1342 C1333 1.429 . S
C1342 N1339 1.350 . S
C1342 C1341 1.434 . S
C1343 C1344 1.369 . S
C1343 C1345 1.419 . S
C1343 H1347 0.930 1_655 S
C1344 C1343 1.369 . S
C1344 C1353 1.429 . S
C1345 C1343 1.419 . S
C1345 C1346 1.363 . S
C1345 H1348 0.950 . S
C1346 C1345 1.363 . S
C1346 C1352 1.428 . S
H1347 C1343 0.930 1_455 S
H1348 C1345 0.950 . S
S1349 N1350 1.613 . S
S1349 N1351 1.610 . S
N1350 S1349 1.613 . S
N1350 C1353 1.350 . S
N1351 S1349 1.610 . S
N1351 C1352 1.351 . S
C1352 C1346 1.428 . S
C1352 N1351 1.351 . S
C1352 C1353 1.434 . S
C1353 C1344 1.429 . S
C1353 N1350 1.350 . S
C1353 C1352 1.434 . S
C1354 C1355 1.369 . S
C1354 C1356 1.419 . S
C1354 H1358 0.930 . S
C1355 C1354 1.369 . S
C1355 C1364 1.429 . S
C1356 C1354 1.419 . S
C1356 C1357 1.363 . S
C1356 H1359 0.929 . S
C1357 C1356 1.363 . S
C1357 C1363 1.428 . S
H1358 C1354 0.930 . S
H1359 C1356 0.929 . S
S1360 N1361 1.613 . S
S1360 N1362 1.610 . S
N1361 S1360 1.613 . S
N1361 C1364 1.350 . S
N1362 S1360 1.610 . S
N1362 C1363 1.351 . S
C1363 C1357 1.428 . S
C1363 N1362 1.351 . S
C1363 C1364 1.434 . S
C1364 C1355 1.429 . S
C1364 N1361 1.350 . S
C1364 C1363 1.434 . S
C1365 C1366 1.369 . S
C1365 C1367 1.419 . S
C1365 H1369 0.930 . S
C1366 C1365 1.369 . S
C1366 C1375 1.429 . S
C1367 C1365 1.419 . S
C1367 C1368 1.363 . S
C1367 H1370 0.929 . S
C1368 C1367 1.363 . S
C1368 C1374 1.428 . S
H1369 C1365 0.930 . S
H1370 C1367 0.929 . S
S1371 N1372 1.613 . S
S1371 N1373 1.610 . S
N1372 S1371 1.613 . S
N1372 C1375 1.350 . S
N1373 S1371 1.610 . S
N1373 C1374 1.351 . S
C1374 C1368 1.428 . S
C1374 N1373 1.351 . S
C1374 C1375 1.434 . S
C1375 C1366 1.429 . S
C1375 N1372 1.350 . S
C1375 C1374 1.434 . S
C1376 C1377 1.369 . S
C1376 C1378 1.419 . S
C1376 H1380 0.930 . S
C1377 C1376 1.369 . S
C1377 C1386 1.429 . S
C1378 C1376 1.419 . S
C1378 C1379 1.363 . S
C1378 H1381 0.929 . S
C1379 C1378 1.363 . S
C1379 C1385 1.428 . S
H1380 C1376 0.930 . S
H1381 C1378 0.929 . S
S1382 N1383 1.613 . S
S1382 N1384 1.610 . S
N1383 S1382 1.613 . S
N1383 C1386 1.350 . S
N1384 S1382 1.610 . S
N1384 C1385 1.351 . S
C1385 C1379 1.428 . S
C1385 N1384 1.351 . S
C1385 C1386 1.434 . S
C1386 C1377 1.429 . S
C1386 N1383 1.350 . S
C1386 C1385 1.434 . S
C1387 C1388 1.369 . S
C1387 C1389 1.419 . S
C1387 H1391 0.930 . S
C1388 C1387 1.369 . S
C1388 C1397 1.429 . S
C1389 C1387 1.419 . S
C1389 C1390 1.363 . S
C1389 H1392 0.929 . S
C1390 C1389 1.363 . S
C1390 C1396 1.428 . S
H1391 C1387 0.930 . S
H1392 C1389 0.929 . S
S1393 N1394 1.613 . S
S1393 N1395 1.610 . S
N1394 S1393 1.613 . S
N1394 C1397 1.350 . S
N1395 S1393 1.610 . S
N1395 C1396 1.351 . S
C1396 C1390 1.428 . S
C1396 N1395 1.351 . S
C1396 C1397 1.434 . S
C1397 C1388 1.429 . S
C1397 N1394 1.350 . S
C1397 C1396 1.434 . S
C1398 C1399 1.369 . S
C1398 C1400 1.419 . S
C1398 H1402 0.930 . S
C1399 C1398 1.369 . S
C1399 C1408 1.429 . S
C1400 C1398 1.419 . S
C1400 C1401 1.363 . S
C1400 H1403 0.929 . S
C1401 C1400 1.363 . S
C1401 C1407 1.428 . S
H1402 C1398 0.930 . S
H1403 C1400 0.929 . S
S1404 N1405 1.613 . S
S1404 N1406 1.610 . S
N1405 S1404 1.613 . S
N1405 C1408 1.350 . S
N1406 S1404 1.610 . S
N1406 C1407 1.351 . S
C1407 C1401 1.428 . S
C1407 N1406 1.351 . S
C1407 C1408 1.434 . S
C1408 C1399 1.429 . S
C1408 N1405 1.350 . S
C1408 C1407 1.434 . S
C1409 C1410 1.369 . S
C1409 C1411 1.419 . S
C1409 H1413 0.930 . S
C1410 C1409 1.369 . S
C1410 C1419 1.429 . S
C1411 C1409 1.419 . S
C1411 C1412 1.363 . S
C1411 H1414 0.929 . S
C1412 C1411 1.363 . S
C1412 C1418 1.428 . S
H1413 C1409 0.930 . S
H1414 C1411 0.929 . S
S1415 N1416 1.613 . S
S1415 N1417 1.610 . S
N1416 S1415 1.613 . S
N1416 C1419 1.350 . S
N1417 S1415 1.610 . S
N1417 C1418 1.351 . S
C1418 C1412 1.428 . S
C1418 N1417 1.351 . S
C1418 C1419 1.434 . S
C1419 C1410 1.429 . S
C1419 N1416 1.350 . S
C1419 C1418 1.434 . S
C1420 C1421 1.369 . S
C1420 C1422 1.419 . S
C1420 H1424 0.930 . S
C1421 C1420 1.369 . S
C1421 C1430 1.429 . S
C1422 C1420 1.419 . S
C1422 C1423 1.363 . S
C1422 H1425 0.929 . S
C1423 C1422 1.363 . S
C1423 C1429 1.428 . S
H1424 C1420 0.930 . S
H1425 C1422 0.929 . S
S1426 N1427 1.613 . S
S1426 N1428 1.610 . S
N1427 S1426 1.613 . S
N1427 C1430 1.350 . S
N1428 S1426 1.610 . S
N1428 C1429 1.351 . S
C1429 C1423 1.428 . S
C1429 N1428 1.351 . S
C1429 C1430 1.434 . S
C1430 C1421 1.429 . S
C1430 N1427 1.350 . S
C1430 C1429 1.434 . S
C1431 C1432 1.369 . S
C1431 C1433 1.419 . S
C1431 H1435 0.930 . S
C1432 C1431 1.369 . S
C1432 C1441 1.429 . S
C1433 C1431 1.419 . S
C1433 C1434 1.363 . S
C1433 H1436 0.929 . S
C1434 C1433 1.363 . S
C1434 C1440 1.428 . S
H1435 C1431 0.930 . S
H1436 C1433 0.929 . S
S1437 N1438 1.613 . S
S1437 N1439 1.610 . S
N1438 S1437 1.613 . S
N1438 C1441 1.350 . S
N1439 S1437 1.610 . S
N1439 C1440 1.351 . S
C1440 C1434 1.428 . S
C1440 N1439 1.351 . S
C1440 C1441 1.434 . S
C1441 C1432 1.429 . S
C1441 N1438 1.350 . S
C1441 C1440 1.434 . S
C1442 C1443 1.369 . S
C1442 C1444 1.419 . S
C1442 H1446 0.930 . S
C1443 C1442 1.369 . S
C1443 C1452 1.429 . S
C1444 C1442 1.419 . S
C1444 C1445 1.363 . S
C1444 H1447 0.929 . S
C1445 C1444 1.363 . S
C1445 C1451 1.428 . S
H1446 C1442 0.930 . S
H1447 C1444 0.929 . S
S1448 N1449 1.613 . S
S1448 N1450 1.610 . S
N1449 S1448 1.613 . S
N1449 C1452 1.350 1_554 S
N1450 S1448 1.610 . S
N1450 C1451 1.351 1_554 S
C1451 C1445 1.428 . S
C1451 N1450 1.351 1_556 S
C1451 C1452 1.434 . S
C1452 C1443 1.429 . S
C1452 N1449 1.350 1_556 S
C1452 C1451 1.434 . S
C1453 C1454 1.369 . S
C1453 C1455 1.419 . S
C1453 H1457 0.930 . S
C1454 C1453 1.369 . S
C1454 C1463 1.429 . S
C1455 C1453 1.419 . S
C1455 C1456 1.363 . S
C1455 H1458 0.929 . S
C1456 C1455 1.363 . S
C1456 C1462 1.428 . S
H1457 C1453 0.930 . S
H1458 C1455 0.929 . S
S1459 N1460 1.614 . S
S1459 N1461 1.610 . S
N1460 S1459 1.614 . S
N1460 C1463 1.366 . S
N1461 S1459 1.610 . S
N1461 C1462 1.351 . S
C1462 C1456 1.428 . S
C1462 N1461 1.351 . S
C1462 C1463 1.434 . S
C1463 C1454 1.429 . S
C1463 N1460 1.366 . S
C1463 C1462 1.434 . S
C1464 C1465 1.369 . S
C1464 C1466 1.419 . S
C1464 H1468 0.930 . S
C1465 C1464 1.369 . S
C1465 C1474 1.429 . S
C1466 C1464 1.419 . S
C1466 C1467 1.363 . S
C1466 H1469 0.929 . S
C1467 C1466 1.363 . S
C1467 C1473 1.428 . S
H1468 C1464 0.930 . S
H1469 C1466 0.929 . S
S1470 N1471 1.613 . S
S1470 N1472 1.610 . S
N1471 S1470 1.613 . S
N1471 C1474 1.350 . S
N1472 S1470 1.610 . S
N1472 C1473 1.351 . S
C1473 C1467 1.428 . S
C1473 N1472 1.351 . S
C1473 C1474 1.434 . S
C1474 C1465 1.429 . S
C1474 N1471 1.350 . S
C1474 C1473 1.434 . S
C1475 C1476 1.369 . S
C1475 C1477 1.419 . S
C1475 H1479 0.930 . S
C1476 C1475 1.369 . S
C1476 C1485 1.429 . S
C1477 C1475 1.419 . S
C1477 C1478 1.363 . S
C1477 H1480 0.929 . S
C1478 C1477 1.363 . S
C1478 C1484 1.428 . S
H1479 C1475 0.930 . S
H1480 C1477 0.929 . S
S1481 N1482 1.613 . S
S1481 N1483 1.610 . S
N1482 S1481 1.613 . S
N1482 C1485 1.350 . S
N1483 S1481 1.610 . S
N1483 C1484 1.351 . S
C1484 C1478 1.428 . S
C1484 N1483 1.351 . S
C1484 C1485 1.434 . S
C1485 C1476 1.429 . S
C1485 N1482 1.350 . S
C1485 C1484 1.434 . S
C1486 C1487 1.369 . S
C1486 C1488 1.419 . S
C1486 H1490 0.930 . S
C1487 C1486 1.369 . S
C1487 C1496 1.429 . S
C1488 C1486 1.419 . S
C1488 C1489 1.363 . S
C1488 H1491 0.929 . S
C1489 C1488 1.363 . S
C1489 C1495 1.428 . S
H1490 C1486 0.930 . S
H1491 C1488 0.929 . S
S1492 N1493 1.613 . S
S1492 N1494 1.610 . S
N1493 S1492 1.613 . S
N1493 C1496 1.350 . S
N1494 S1492 1.610 . S
N1494 C1495 1.351 . S
C1495 C1489 1.428 . S
C1495 N1494 1.351 . S
C1495 C1496 1.434 . S
C1496 C1487 1.429 . S
C1496 N1493 1.350 . S
C1496 C1495 1.434 . S
C1497 C1498 1.369 . S
C1497 C1499 1.419 . S
C1497 H1501 0.930 . S
C1498 C1497 1.369 . S
C1498 C1507 1.429 . S
C1499 C1497 1.419 . S
C1499 C1500 1.363 . S
C1499 H1502 0.929 . S
C1500 C1499 1.363 . S
C1500 C1506 1.428 . S
H1501 C1497 0.930 . S
H1502 C1499 0.929 . S
S1503 N1504 1.613 . S
S1503 N1505 1.610 . S
N1504 S1503 1.613 . S
N1504 C1507 1.350 . S
N1505 S1503 1.610 . S
N1505 C1506 1.351 . S
C1506 C1500 1.428 . S
C1506 N1505 1.351 . S
C1506 C1507 1.434 . S
C1507 C1498 1.429 . S
C1507 N1504 1.350 . S
C1507 C1506 1.434 . S
C1508 C1509 1.369 . S
C1508 C1510 1.419 . S
C1508 H1512 0.930 . S
C1509 C1508 1.369 . S
C1509 C1518 1.429 . S
C1510 C1508 1.419 . S
C1510 C1511 1.363 . S
C1510 H1513 0.929 . S
C1511 C1510 1.363 . S
C1511 C1517 1.428 . S
H1512 C1508 0.930 . S
H1513 C1510 0.929 . S
S1514 N1515 1.613 . S
S1514 N1516 1.610 . S
N1515 S1514 1.613 . S
N1515 C1518 1.350 . S
N1516 S1514 1.610 . S
N1516 C1517 1.351 . S
C1517 C1511 1.428 . S
C1517 N1516 1.351 . S
C1517 C1518 1.434 . S
C1518 C1509 1.429 . S
C1518 N1515 1.350 . S
C1518 C1517 1.434 . S
C1519 C1520 1.369 . S
C1519 C1521 1.419 . S
C1519 H1523 0.930 . S
C1520 C1519 1.369 . S
C1520 C1529 1.429 . S
C1521 C1519 1.419 . S
C1521 C1522 1.363 . S
C1521 H1524 0.929 . S
C1522 C1521 1.363 . S
C1522 C1528 1.428 . S
H1523 C1519 0.930 . S
H1524 C1521 0.929 . S
S1525 N1526 1.613 . S
S1525 N1527 1.610 . S
N1526 S1525 1.613 . S
N1526 C1529 1.350 . S
N1527 S1525 1.610 . S
N1527 C1528 1.351 . S
C1528 C1522 1.428 . S
C1528 N1527 1.351 . S
C1528 C1529 1.434 . S
C1529 C1520 1.429 . S
C1529 N1526 1.350 . S
C1529 C1528 1.434 . S
C1530 C1531 1.369 . S
C1530 C1532 1.419 . S
C1530 H1534 0.930 . S
C1531 C1530 1.369 . S
C1531 C1540 1.429 . S
C1532 C1530 1.419 . S
C1532 C1533 1.363 . S
C1532 H1535 0.929 . S
C1533 C1532 1.363 . S
C1533 C1539 1.428 . S
H1534 C1530 0.930 . S
H1535 C1532 0.929 . S
S1536 N1537 1.613 . S
S1536 N1538 1.610 . S
N1537 S1536 1.613 . S
N1537 C1540 1.350 . S
N1538 S1536 1.610 . S
N1538 C1539 1.351 . S
C1539 C1533 1.428 . S
C1539 N1538 1.351 . S
C1539 C1540 1.434 . S
C1540 C1531 1.429 . S
C1540 N1537 1.350 . S
C1540 C1539 1.434 . S
C1541 C1542 1.369 . S
C1541 C1543 1.419 . S
C1541 H1545 0.930 . S
C1542 C1541 1.369 . S
C1542 C1551 1.429 . S
C1543 C1541 1.419 . S
C1543 C1544 1.363 . S
C1543 H1546 0.929 . S
C1544 C1543 1.363 . S
C1544 C1550 1.428 . S
H1545 C1541 0.930 . S
H1546 C1543 0.929 . S
S1547 N1548 1.613 . S
S1547 N1549 1.610 . S
N1548 S1547 1.613 . S
N1548 C1551 1.350 . S
N1549 S1547 1.610 . S
N1549 C1550 1.351 . S
C1550 C1544 1.428 . S
C1550 N1549 1.351 . S
C1550 C1551 1.434 . S
C1551 C1542 1.429 . S
C1551 N1548 1.350 . S
C1551 C1550 1.434 . S
C1552 C1553 1.369 . S
C1552 C1554 1.419 . S
C1552 H1556 0.930 . S
C1553 C1552 1.369 . S
C1553 C1562 1.429 . S
C1554 C1552 1.419 . S
C1554 C1555 1.363 . S
C1554 H1557 0.929 . S
C1555 C1554 1.363 . S
C1555 C1561 1.428 . S
H1556 C1552 0.930 . S
H1557 C1554 0.929 . S
S1558 N1559 1.613 . S
S1558 N1560 1.610 . S
N1559 S1558 1.613 . S
N1559 C1562 1.350 . S
N1560 S1558 1.610 . S
N1560 C1561 1.351 . S
C1561 C1555 1.428 . S
C1561 N1560 1.351 . S
C1561 C1562 1.434 . S
C1562 C1553 1.429 . S
C1562 N1559 1.350 . S
C1562 C1561 1.434 . S
C1563 C1564 1.369 . S
C1563 C1565 1.419 . S
C1563 H1567 0.930 . S
C1564 C1563 1.369 . S
C1564 C1573 1.429 . S
C1565 C1563 1.419 . S
C1565 C1566 1.363 . S
C1565 H1568 0.929 . S
C1566 C1565 1.363 . S
C1566 C1572 1.428 . S
H1567 C1563 0.930 . S
H1568 C1565 0.929 . S
S1569 N1570 1.613 . S
S1569 N1571 1.610 . S
N1570 S1569 1.613 . S
N1570 C1573 1.350 . S
N1571 S1569 1.610 . S
N1571 C1572 1.351 . S
C1572 C1566 1.428 . S
C1572 N1571 1.351 . S
C1572 C1573 1.434 . S
C1573 C1564 1.429 . S
C1573 N1570 1.350 . S
C1573 C1572 1.434 . S
C1574 C1575 1.369 . S
C1574 C1576 1.419 . S
C1574 H1578 0.930 . S
C1575 C1574 1.369 . S
C1575 C1584 1.429 . S
C1576 C1574 1.419 . S
C1576 C1577 1.363 . S
C1576 H1579 0.929 . S
C1577 C1576 1.363 . S
C1577 C1583 1.428 . S
H1578 C1574 0.930 . S
H1579 C1576 0.929 . S
S1580 N1581 1.613 . S
S1580 N1582 1.610 . S
N1581 S1580 1.613 . S
N1581 C1584 1.350 . S
N1582 S1580 1.610 . S
N1582 C1583 1.351 . S
C1583 C1577 1.428 . S
C1583 N1582 1.351 . S
C1583 C1584 1.434 . S
C1584 C1575 1.429 . S
C1584 N1581 1.350 . S
C1584 C1583 1.434 . S
C1585 C1586 1.369 . S
C1585 C1587 1.419 . S
C1585 H1589 0.930 . S
C1586 C1585 1.369 . S
C1586 C1595 1.429 . S
C1587 C1585 1.419 . S
C1587 C1588 1.363 . S
C1587 H1590 0.929 . S
C1588 C1587 1.363 . S
C1588 C1594 1.428 . S
H1589 C1585 0.930 . S
H1590 C1587 0.929 . S
S1591 N1592 1.613 . S
S1591 N1593 1.610 . S
N1592 S1591 1.613 . S
N1592 C1595 1.350 . S
N1593 S1591 1.610 . S
N1593 C1594 1.351 . S
C1594 C1588 1.428 . S
C1594 N1593 1.351 . S
C1594 C1595 1.434 . S
C1595 C1586 1.429 . S
C1595 N1592 1.350 . S
C1595 C1594 1.434 . S
C1596 C1597 1.369 . S
C1596 C1598 1.419 . S
C1596 H1600 0.930 . S
C1597 C1596 1.369 . S
C1597 C1606 1.429 . S
C1598 C1596 1.419 . S
C1598 C1599 1.363 . S
C1598 H1601 0.929 . S
C1599 C1598 1.363 . S
C1599 C1605 1.428 . S
H1600 C1596 0.930 . S
H1601 C1598 0.929 . S
S1602 N1603 1.613 . S
S1602 N1604 1.610 . S
N1603 S1602 1.613 . S
N1603 C1606 1.350 . S
N1604 S1602 1.610 . S
N1604 C1605 1.351 . S
C1605 C1599 1.428 . S
C1605 N1604 1.351 . S
C1605 C1606 1.434 . S
C1606 C1597 1.429 . S
C1606 N1603 1.350 . S
C1606 C1605 1.434 . S
C1607 C1608 1.369 . S
C1607 C1609 1.419 . S
C1607 H1611 0.930 . S
C1608 C1607 1.369 . S
C1608 C1617 1.429 . S
C1609 C1607 1.419 . S
C1609 C1610 1.363 . S
C1609 H1612 0.929 . S
C1610 C1609 1.363 . S
C1610 C1616 1.428 . S
H1611 C1607 0.930 . S
H1612 C1609 0.929 . S
S1613 N1614 1.613 . S
S1613 N1615 1.610 . S
N1614 S1613 1.613 . S
N1614 C1617 1.350 . S
N1615 S1613 1.610 . S
N1615 C1616 1.351 . S
C1616 C1610 1.428 . S
C1616 N1615 1.351 . S
C1616 C1617 1.434 . S
C1617 C1608 1.429 . S
C1617 N1614 1.350 . S
C1617 C1616 1.434 . S
C1618 C1619 1.369 . S
C1618 C1620 1.419 . S
C1618 H1622 0.930 . S
C1619 C1618 1.369 . S
C1619 C1628 1.429 . S
C1620 C1618 1.419 . S
C1620 C1621 1.363 . S
C1620 H1623 0.929 . S
C1621 C1620 1.363 . S
C1621 C1627 1.428 . S
H1622 C1618 0.930 . S
H1623 C1620 0.929 . S
S1624 N1625 1.613 . S
S1624 N1626 1.610 . S
N1625 S1624 1.613 . S
N1625 C1628 1.350 . S
N1626 S1624 1.610 . S
N1626 C1627 1.351 . S
C1627 C1621 1.428 . S
C1627 N1626 1.351 . S
C1627 C1628 1.434 . S
C1628 C1619 1.429 . S
C1628 N1625 1.350 . S
C1628 C1627 1.434 . S
C1629 C1630 1.369 . S
C1629 C1631 1.419 . S
C1629 H1633 0.930 . S
C1630 C1629 1.369 . S
C1630 C1639 1.429 . S
C1631 C1629 1.419 . S
C1631 C1632 1.363 . S
C1631 H1634 0.929 . S
C1632 C1631 1.363 . S
C1632 C1638 1.428 . S
H1633 C1629 0.930 . S
H1634 C1631 0.929 . S
S1635 N1636 1.613 . S
S1635 N1637 1.610 . S
N1636 S1635 1.613 . S
N1636 C1639 1.350 . S
N1637 S1635 1.610 . S
N1637 C1638 1.351 . S
C1638 C1632 1.428 . S
C1638 N1637 1.351 . S
C1638 C1639 1.434 . S
C1639 C1630 1.429 . S
C1639 N1636 1.350 . S
C1639 C1638 1.434 . S
C1640 C1641 1.369 . S
C1640 C1642 1.419 . S
C1640 H1644 0.930 . S
C1641 C1640 1.369 . S
C1641 C1650 1.429 . S
C1642 C1640 1.419 . S
C1642 C1643 1.363 . S
C1642 H1645 0.929 . S
C1643 C1642 1.363 . S
C1643 C1649 1.428 . S
H1644 C1640 0.930 . S
H1645 C1642 0.929 . S
S1646 N1647 1.613 . S
S1646 N1648 1.610 . S
N1647 S1646 1.613 . S
N1647 C1650 1.350 . S
N1648 S1646 1.610 . S
N1648 C1649 1.351 . S
C1649 C1643 1.428 . S
C1649 N1648 1.351 . S
C1649 C1650 1.434 . S
C1650 C1641 1.429 . S
C1650 N1647 1.350 . S
C1650 C1649 1.434 . S
C1651 C1652 1.369 . S
C1651 C1653 1.419 . S
C1651 H1655 0.930 . S
C1652 C1651 1.369 . S
C1652 C1661 1.429 . S
C1653 C1651 1.419 . S
C1653 C1654 1.363 . S
C1653 H1656 0.929 . S
C1654 C1653 1.363 . S
C1654 C1660 1.428 . S
H1655 C1651 0.930 . S
H1656 C1653 0.929 . S
S1657 N1658 1.613 . S
S1657 N1659 1.610 . S
N1658 S1657 1.613 . S
N1658 C1661 1.350 . S
N1659 S1657 1.610 . S
N1659 C1660 1.351 . S
C1660 C1654 1.428 . S
C1660 N1659 1.351 . S
C1660 C1661 1.434 . S
C1661 C1652 1.429 . S
C1661 N1658 1.350 . S
C1661 C1660 1.434 . S
C1662 C1663 1.369 . S
C1662 C1664 1.419 . S
C1662 H1666 0.930 . S
C1663 C1662 1.369 . S
C1663 C1672 1.429 . S
C1664 C1662 1.419 . S
C1664 C1665 1.363 . S
C1664 H1667 0.929 . S
C1665 C1664 1.363 . S
C1665 C1671 1.428 . S
H1666 C1662 0.930 . S
H1667 C1664 0.929 . S
S1668 N1669 1.613 . S
S1668 N1670 1.610 . S
N1669 S1668 1.613 . S
N1669 C1672 1.350 . S
N1670 S1668 1.610 . S
N1670 C1671 1.351 . S
C1671 C1665 1.428 . S
C1671 N1670 1.351 . S
C1671 C1672 1.434 . S
C1672 C1663 1.429 . S
C1672 N1669 1.350 . S
C1672 C1671 1.434 . S
C1673 C1674 1.369 . S
C1673 C1675 1.419 . S
C1673 H1677 0.930 . S
C1674 C1673 1.369 . S
C1674 C1683 1.429 . S
C1675 C1673 1.419 . S
C1675 C1676 1.363 . S
C1675 H1678 0.929 . S
C1676 C1675 1.363 . S
C1676 C1682 1.428 . S
H1677 C1673 0.930 . S
H1678 C1675 0.929 . S
S1679 N1680 1.613 . S
S1679 N1681 1.610 . S
N1680 S1679 1.613 . S
N1680 C1683 1.350 . S
N1681 S1679 1.610 . S
N1681 C1682 1.351 . S
C1682 C1676 1.428 . S
C1682 N1681 1.351 . S
C1682 C1683 1.434 . S
C1683 C1674 1.429 . S
C1683 N1680 1.350 . S
C1683 C1682 1.434 . S
C1684 C1685 1.369 . S
C1684 C1686 1.419 . S
C1684 H1688 0.930 . S
C1685 C1684 1.369 . S
C1685 C1694 1.429 . S
C1686 C1684 1.419 . S
C1686 C1687 1.363 . S
C1686 H1689 0.929 . S
C1687 C1686 1.363 . S
C1687 C1693 1.428 . S
H1688 C1684 0.930 . S
H1689 C1686 0.929 . S
S1690 N1691 1.613 . S
S1690 N1692 1.610 . S
N1691 S1690 1.613 . S
N1691 C1694 1.350 . S
N1692 S1690 1.610 . S
N1692 C1693 1.351 . S
C1693 C1687 1.428 . S
C1693 N1692 1.351 . S
C1693 C1694 1.434 . S
C1694 C1685 1.429 . S
C1694 N1691 1.350 . S
C1694 C1693 1.434 . S
C1695 C1696 1.369 . S
C1695 C1697 1.419 . S
C1695 H1699 0.930 . S
C1696 C1695 1.369 . S
C1696 C1705 1.429 . S
C1697 C1695 1.419 . S
C1697 C1698 1.363 . S
C1697 H1700 0.929 . S
C1698 C1697 1.363 . S
C1698 C1704 1.428 . S
H1699 C1695 0.930 . S
H1700 C1697 0.929 . S
S1701 N1702 1.613 . S
S1701 N1703 1.610 . S
N1702 S1701 1.613 . S
N1702 C1705 1.350 . S
N1703 S1701 1.610 . S
N1703 C1704 1.351 . S
C1704 C1698 1.428 . S
C1704 N1703 1.351 . S
C1704 C1705 1.434 . S
C1705 C1696 1.429 . S
C1705 N1702 1.350 . S
C1705 C1704 1.434 . S
C1706 C1707 1.369 . S
C1706 C1708 1.419 . S
C1706 H1710 0.930 . S
C1707 C1706 1.369 . S
C1707 C1716 1.429 . S
C1708 C1706 1.419 . S
C1708 C1709 1.363 . S
C1708 H1711 0.929 . S
C1709 C1708 1.363 . S
C1709 C1715 1.428 . S
H1710 C1706 0.930 . S
H1711 C1708 0.929 . S
S1712 N1713 1.613 . S
S1712 N1714 1.610 . S
N1713 S1712 1.613 . S
N1713 C1716 1.350 . S
N1714 S1712 1.610 . S
N1714 C1715 1.351 . S
C1715 C1709 1.428 . S
C1715 N1714 1.351 . S
C1715 C1716 1.434 . S
C1716 C1707 1.429 . S
C1716 N1713 1.350 . S
C1716 C1715 1.434 . S
C1717 C1718 1.369 . S
C1717 C1719 1.419 . S
C1717 H1721 0.930 . S
C1718 C1717 1.369 . S
C1718 C1727 1.429 . S
C1719 C1717 1.419 . S
C1719 C1720 1.363 . S
C1719 H1722 0.929 . S
C1720 C1719 1.363 . S
C1720 C1726 1.428 . S
H1721 C1717 0.930 . S
H1722 C1719 0.929 . S
S1723 N1724 1.613 . S
S1723 N1725 1.610 . S
N1724 S1723 1.613 . S
N1724 C1727 1.350 . S
N1725 S1723 1.610 . S
N1725 C1726 1.351 . S
C1726 C1720 1.428 . S
C1726 N1725 1.351 . S
C1726 C1727 1.434 . S
C1727 C1718 1.429 . S
C1727 N1724 1.350 . S
C1727 C1726 1.434 . S
C673 C92 1.272 . S
C675 C8 1.274 . S
C684 C22 1.295 . S
C686 C106 1.296 . S
C695 C36 1.282 . S
C697 C64 1.279 . S
C706 C78 1.285 . S
C708 C50 1.284 . S
C717 C484 1.266 . S
C719 C120 1.270 . S
C728 C498 1.281 . S
C730 C134 1.285 . S
C739 C148 1.257 . S
C741 C456 1.265 . S
C750 C162 1.282 . S
C752 C470 1.282 . S
C761 C540 1.256 . S
C763 C176 1.246 . S
C772 C554 1.263 . S
C774 C190 1.275 . S
C783 C512 1.277 . S
C785 C204 1.283 . S
C794 C526 1.301 . S
C796 C218 1.301 . S
C805 C232 1.271 . S
C807 C582 1.267 . S
C816 C246 1.264 . S
C818 C568 1.256 . S
C827 C260 1.282 . S
C829 C330 1.280 . S
C838 C638 1.286 . S
C840 C274 1.286 . S
C849 C652 1.292 . S
C851 C288 1.300 1_556 S
C860 C610 1.254 . S
C862 C302 1.252 . S
C871 C624 1.271 . S
C873 C316 1.275 . S
C882 C428 1.264 . S
C884 C344 1.256 . S
C893 C442 1.263 . S
C895 C358 1.275 . S
C904 C372 1.246 . S
C906 C400 1.247 . S
C915 C386 1.286 . S
C917 C414 1.288 . S
C926 C666 1.289 . S
C928 C596 1.281 . S
C937 C233 1.306 . S
C939 C7 1.256 . S
C948 C21 1.281 . S
C950 C667 1.323 . S
C959 C35 1.259 . S
C961 C303 1.315 . S
C970 C653 1.299 . S
C972 C49 1.252 . S
C981 C63 1.254 . S
C983 C583 1.312 . S
C992 C597 1.305 . S
C994 C77 1.257 . S
C1003 C91 1.258 . S
C1005 C611 1.313 . S
C1014 C289 1.311 . S
C1016 C105 1.277 . S
C1025 C119 1.249 . S
C1027 C9 1.308 . S
C1036 C23 1.297 . S
C1038 C133 1.258 . S
C1047 C147 1.256 . S
C1049 C37 1.306 . S
C1058 C161 1.274 . S
C1060 C51 1.327 . S
C1069 C175 1.260 . S
C1071 C65 1.309 . S
C1080 C79 1.324 . S
C1082 C189 1.261 . S
C1091 C203 1.254 . S
C1093 C93 1.312 . S
C1102 C217 1.273 . S
C1104 C107 1.309 . S
C1113 C231 1.264 . S
C1115 C121 1.312 . S
C1124 C245 1.259 . S
C1126 C513 1.307 . S
C1135 C527 1.303 . S
C1137 C259 1.255 . S
C1146 C541 1.315 . S
C1148 C273 1.268 . S
C1157 C287 1.265 . S
C1159 C219 1.307 . S
C1168 C301 1.253 . S
C1170 C149 1.307 . S
C1179 C499 1.319 . S
C1181 C315 1.261 . S
C1190 C471 1.300 . S
C1192 C329 1.255 . S
C1201 C343 1.264 . S
C1203 C569 1.316 . S
C1212 C357 1.264 . S
C1214 C331 1.320 . S
C1223 C371 1.247 . S
C1225 C639 1.309 . S
C1234 C385 1.284 . S
C1236 C317 1.333 . S
C1245 C399 1.263 . S
C1247 C247 1.314 . S
C1256 C261 1.329 . S
C1258 C413 1.285 . S
C1267 C275 1.305 . S
C1269 C427 1.255 . S
C1278 C625 1.328 . S
C1280 C441 1.276 . S
C1289 C345 1.310 . S
C1291 C455 1.252 . S
C1300 C359 1.335 . S
C1302 C469 1.284 . S
C1311 C483 1.257 . S
C1313 C373 1.313 . S
C1322 C387 1.306 . S
C1324 C497 1.258 . S
C1333 C511 1.272 . S
C1335 C401 1.321 . S
C1344 C415 1.324 . S
C1346 C525 1.284 . S
C1355 C539 1.259 . S
C1357 C429 1.308 . S
C1366 C443 1.334 . S
C1368 C553 1.275 . S
C1377 C567 1.253 . S
C1379 C457 1.313 . S
C1388 C581 1.255 . S
C1390 C177 1.315 . S
C1399 C191 1.337 . S
C1401 C595 1.293 . S
C1410 C609 1.257 . S
C1412 C205 1.312 . S
C1421 C623 1.265 . S
C1423 C555 1.328 . S
C1432 C485 1.310 . S
C1434 C637 1.255 . S
C1443 C651 1.270 . S
C1445 C163 1.316 . S
C1454 C135 1.327 . S
C1456 C665 1.284 . S
C1465 C132 0.985 . S
C1467 C6 0.999 . S
C1476 C20 0.972 . S
C1478 C146 0.956 . S
C1487 C160 0.985 . S
C1489 C34 0.974 . S
C1498 C118 0.984 . S
C1500 C48 0.999 . S
C1509 C62 0.985 . S
C1511 C216 0.972 . S
C1520 C76 0.982 . S
C1522 C174 0.983 . S
C1531 C188 0.990 . S
C1533 C90 0.998 . S
C1542 C202 0.983 . S
C1544 C104 0.973 . S
C1553 C230 1.000 . S
C1555 C258 0.985 . S
C1564 C244 0.964 . S
C1566 C650 0.969 . S
C1575 C272 0.982 . S
C1577 C664 0.983 . S
C1586 C636 0.985 . S
C1588 C286 0.975 . S
C1597 C622 0.991 . S
C1599 C300 0.980 . S
C1608 C580 1.001 . S
C1610 C314 0.993 . S
C1619 C328 0.971 . S
C1621 C608 0.988 . S
C1630 C468 0.959 . S
C1632 C342 0.967 . S
C1641 C482 0.989 . S
C1643 C356 0.999 . S
C1652 C370 0.977 . S
C1654 C496 0.986 . S
C1663 C454 0.966 . S
C1665 C384 0.963 . S
C1674 C552 0.980 . S
C1676 C398 0.991 . S
C1685 C510 0.979 . S
C1687 C412 0.985 . S
C1696 C426 0.956 . S
C1698 C524 0.971 . S
C1707 C538 0.978 . S
C1709 C440 0.991 . S
C1718 C594 0.964 . S
C1720 C566 0.963 . S
