# Generated by pormake.
# Topology smc, (6)-cn, num edge types: 1
# Building blocks:
#     Node 0, Type 0, BuildingBlock: UKALOJ_clean_sbu_0, # of connection points: 6
#     Node 1, Type 0, BuildingBlock: UKALOJ_clean_sbu_0, # of connection points: 6
#     Node 2, Type 0, BuildingBlock: UKALOJ_clean_sbu_0, # of connection points: 6
#     Node 3, Type 0, BuildingBlock: UKALOJ_clean_sbu_0, # of connection points: 6
#     Node 4, Type 0, BuildingBlock: UKALOJ_clean_sbu_0, # of connection points: 6
#     Node 5, Type 0, BuildingBlock: UKALOJ_clean_sbu_0, # of connection points: 6
#     Node 6, Type 0, BuildingBlock: UKALOJ_clean_sbu_0, # of connection points: 6
#     Node 7, Type 0, BuildingBlock: UKALOJ_clean_sbu_0, # of connection points: 6
#     Node 8, Type 0, BuildingBlock: UKALOJ_clean_sbu_0, # of connection points: 6
#     Edge 9, Type (0, 0), BuildingBlock: CIFDUS_clean_linker_0, # of connection points: 2
#     Edge 10, Type (0, 0), BuildingBlock: CIFDUS_clean_linker_0, # of connection points: 2
#     Edge 11, Type (0, 0), BuildingBlock: CIFDUS_clean_linker_0, # of connection points: 2
#     Edge 12, Type (0, 0), BuildingBlock: CIFDUS_clean_linker_0, # of connection points: 2
#     Edge 13, Type (0, 0), BuildingBlock: CIFDUS_clean_linker_0, # of connection points: 2
#     Edge 14, Type (0, 0), BuildingBlock: CIFDUS_clean_linker_0, # of connection points: 2
#     Edge 15, Type (0, 0), BuildingBlock: CIFDUS_clean_linker_0, # of connection points: 2
#     Edge 16, Type (0, 0), BuildingBlock: CIFDUS_clean_linker_0, # of connection points: 2
#     Edge 17, Type (0, 0), BuildingBlock: CIFDUS_clean_linker_0, # of connection points: 2
#     Edge 18, Type (0, 0), BuildingBlock: CIFDUS_clean_linker_0, # of connection points: 2
#     Edge 19, Type (0, 0), BuildingBlock: CIFDUS_clean_linker_0, # of connection points: 2
#     Edge 20, Type (0, 0), BuildingBlock: CIFDUS_clean_linker_0, # of connection points: 2
#     Edge 21, Type (0, 0), BuildingBlock: CIFDUS_clean_linker_0, # of connection points: 2
#     Edge 22, Type (0, 0), BuildingBlock: CIFDUS_clean_linker_0, # of connection points: 2
#     Edge 23, Type (0, 0), BuildingBlock: CIFDUS_clean_linker_0, # of connection points: 2
#     Edge 24, Type (0, 0), BuildingBlock: CIFDUS_clean_linker_0, # of connection points: 2
#     Edge 25, Type (0, 0), BuildingBlock: CIFDUS_clean_linker_0, # of connection points: 2
#     Edge 26, Type (0, 0), BuildingBlock: CIFDUS_clean_linker_0, # of connection points: 2
#     Edge 27, Type (0, 0), BuildingBlock: CIFDUS_clean_linker_0, # of connection points: 2
#     Edge 28, Type (0, 0), BuildingBlock: CIFDUS_clean_linker_0, # of connection points: 2
#     Edge 29, Type (0, 0), BuildingBlock: CIFDUS_clean_linker_0, # of connection points: 2
#     Edge 30, Type (0, 0), BuildingBlock: CIFDUS_clean_linker_0, # of connection points: 2
#     Edge 31, Type (0, 0), BuildingBlock: CIFDUS_clean_linker_0, # of connection points: 2
#     Edge 32, Type (0, 0), BuildingBlock: CIFDUS_clean_linker_0, # of connection points: 2
#     Edge 33, Type (0, 0), BuildingBlock: CIFDUS_clean_linker_0, # of connection points: 2
#     Edge 34, Type (0, 0), BuildingBlock: CIFDUS_clean_linker_0, # of connection points: 2
#     Edge 35, Type (0, 0), BuildingBlock: CIFDUS_clean_linker_0, # of connection points: 2
# Relax obj value: 0.098
# Max RMSD: 0.210
# Mean RMSD: 0.209
data_MOF--net-smc--node1-UKALOJ_clean_sbu_0--edge1-CIFDUS_clean_linker_0
_symmetry_space_group_name_H-M    P1
_symmetry_Int_Tables_number       1
_symmetry_cell_setting            triclinic
loop_
_symmetry_equiv_pos_as_xyz
'x, y, z'
_cell_length_a     24.902141
_cell_length_b     24.935031
_cell_length_c     53.786577
_cell_angle_alpha  90.01474
_cell_angle_beta   89.615607
_cell_angle_gamma 120.36589
loop_
_atom_site_label
_atom_site_type_symbol
_atom_site_fract_x
_atom_site_fract_y
_atom_site_fract_z
_atom_type_partial_charge
Zn0 Zn 0.0009 0.42975 0.06894 0.0
O1 O 0.06725 0.52283 0.07138 0.0
C2 C 0.0994 0.40596 0.05127 0.0
Zn3 Zn 0.00895 0.43326 0.02742 0.0
C4 C 0.08959 0.55561 0.05193 0.0
O5 O 0.0743 0.5302 0.03061 0.0
C6 C 0.91389 0.30862 0.04567 0.0
O7 O 0.94013 0.45463 0.02444 0.0
O8 O 0.93204 0.45667 0.06518 0.0
N9 N 0.02159 0.43867 0.98934 0.0
C10 C 0.98316 0.40561 0.97066 0.0
C11 C 0.07233 0.46484 0.95447 0.0
N12 N 0.07691 0.47588 0.97915 0.0
N13 N 0.01389 0.42067 0.94868 0.0
C14 C 0.03177 0.43329 0.12505 0.0
C15 C 0.94269 0.39474 0.14241 0.0
N16 N -0.00953 0.42369 0.107 0.0
N17 N 0.93518 0.40019 0.11789 0.0
N18 N 0.0029 0.4149 0.14734 0.0
H19 H 0.11667 0.49344 0.10467 0.0
H20 H 0.12591 0.48982 0.13781 0.0
H21 H 0.1123 0.42571 0.11848 0.0
C22 C 0.10065 0.46265 0.12117 0.0
C23 C 0.9152 0.36 0.97371 0.0
H24 H 0.89565 0.37226 0.98982 0.0
H25 H 0.88959 0.35847 0.95667 0.0
H26 H 0.90893 0.3132 0.9767 0.0
O27 O 0.94099 0.33735 0.02574 0.0
O28 O 0.93195 0.33621 0.06637 0.0
C29 C 0.91625 0.46431 0.04354 0.0
O30 O 0.07157 0.40606 0.07113 0.0
O31 O 0.0802 0.41372 0.03056 0.0
Zn32 Zn 0.5855 0.5899 0.06195 0.0
O33 O 0.48964 0.56085 0.06156 0.0
C34 C 0.61497 0.70936 0.04049 0.0
Zn35 Zn 0.58818 0.58692 1.02031 0.0
C36 C 0.46289 0.55054 0.0406 0.0
O37 O 0.49428 0.55995 1.02074 0.0
C38 C 0.70871 0.61893 0.04198 0.0
O39 O 0.56146 0.49153 1.02136 0.0
O40 O 0.56122 0.49723 0.06221 0.0
N41 N 0.58675 0.5882 0.98178 0.0
C42 C 0.61832 0.57905 0.96329 0.0
C43 C 0.55625 0.60296 0.94626 0.0
N44 N 0.54828 0.60298 0.97103 0.0
N45 N 0.60015 0.58833 0.94076 0.0
C46 C 0.57891 0.62589 0.11697 0.0
C47 C 0.60837 0.57112 0.13655 0.0
N48 N 0.58687 0.59053 0.10004 0.0
N49 N 0.60474 0.55623 0.1123 0.0
N50 N 0.59272 0.61502 0.13999 0.0
H51 H 0.5227 0.65086 0.09503 0.0
H52 H 0.52941 0.67275 0.12745 0.0
H53 H 0.59398 0.7152 0.10648 0.0
C54 C 0.5545 0.66841 0.11115 0.0
C55 C 0.66388 0.55766 0.96738 0.0
H56 H 0.66531 0.53088 0.95116 0.0
H57 H 0.71088 0.59888 0.96992 0.0
H58 H 0.65119 0.52838 0.98436 0.0
O59 O 0.68228 0.6119 1.02108 0.0
O60 O 0.67942 0.61565 0.06185 0.0
C61 C 0.55253 0.46566 0.0426 0.0
O62 O 0.60919 0.68232 0.06108 0.0
O63 O 0.61108 0.68102 1.02032 0.0
Zn64 Zn 0.42341 0.00419 1.01697 0.0
O65 O 0.51896 0.06843 1.01345 0.0
C66 C 0.40553 0.10199 0.03638 0.0
Zn67 Zn 0.432 0.00647 0.05858 0.0
C68 C 0.55273 0.0874 0.03271 0.0
O69 O 0.52785 0.0702 0.05412 0.0
C70 C 0.30443 0.91729 0.04204 0.0
O71 O 0.45374 0.93496 0.0592 0.0
O72 O 0.44446 0.93341 1.01848 0.0
N73 N 0.44099 0.01822 0.09696 0.0
C74 C 0.41185 0.98252 0.11717 0.0
C75 C 0.47996 0.07173 0.13037 0.0
N76 N 0.48314 0.07354 0.10538 0.0
N77 N 0.43537 0.01525 0.13842 0.0
C78 C 0.42662 0.03358 0.96013 0.0
C79 C 0.39257 0.94373 0.94441 0.0
N80 N 0.41508 -0.00632 0.97911 0.0
N81 N 0.39408 0.93797 0.96924 0.0
N82 N 0.4126 0.00325 0.93816 0.0
H83 H 0.48524 0.11925 0.97955 0.0
H84 H 0.48204 0.12737 0.94625 0.0
H85 H 0.41688 0.11304 0.96564 0.0
C86 C 0.45472 0.10238 0.96306 0.0
C87 C 0.36312 0.91522 0.11599 0.0
H88 H 0.37028 0.89353 0.09925 0.0
H89 H 0.36416 0.89028 0.1329 0.0
H90 H 0.3167 0.91108 0.11484 0.0
O91 O 0.33641 0.94004 0.06163 0.0
O92 O 0.32916 0.93855 1.02092 0.0
C93 C 0.4568 0.91353 0.03808 0.0
O94 O 0.40383 0.07563 1.01601 0.0
O95 O 0.41376 0.08069 0.05661 0.0
Zn96 Zn 0.6776 0.7822 0.39534 0.0
O97 O 0.74602 0.87715 0.39431 0.0
C98 C 0.77119 0.75235 0.37575 0.0
Zn99 Zn 0.67719 0.77584 0.35379 0.0
C100 C 0.76365 0.90304 0.37307 0.0
O101 O 0.74325 0.87072 0.35345 0.0
C102 C 0.58544 0.65678 0.37557 0.0
O103 O 0.60795 0.79947 0.35267 0.0
O104 O 0.60989 0.8092 0.39333 0.0
N105 N 0.68057 0.77405 0.31572 0.0
C106 C 0.63739 0.73853 0.29879 0.0
C107 C 0.72298 0.79303 0.27924 0.0
N108 N 0.73361 0.80819 0.30348 0.0
N109 N 0.66297 0.74915 0.2758 0.0
C110 C 0.71266 0.78556 0.4517 0.0
C111 C 0.62655 0.75979 0.46972 0.0
N112 N 0.67265 0.78112 0.43387 0.0
N113 N 0.61934 0.76559 0.44522 0.0
N114 N 0.68466 0.77168 0.47434 0.0
H115 H 0.79805 0.83905 0.43107 0.0
H116 H 0.80784 0.82997 0.46386 0.0
H117 H 0.78453 0.76569 0.44304 0.0
C118 C 0.77983 0.80665 0.44714 0.0
C119 C 0.56976 0.69578 0.30453 0.0
H120 H 0.555 0.71209 0.32094 0.0
H121 H 0.54081 0.69241 0.28834 0.0
H122 H 0.56176 0.64875 0.30857 0.0
O123 O 0.61001 0.68143 0.35484 0.0
O124 O 0.60659 0.68814 0.39539 0.0
C125 C 0.58952 0.81384 0.37229 0.0
O126 O 0.74742 0.75759 0.39593 0.0
O127 O 0.74842 0.75559 0.35517 0.0
Zn128 Zn 0.26337 0.94262 0.35409 0.0
O129 O 0.23739 0.84807 0.35044 0.0
C130 C 0.37568 0.96216 0.38197 0.0
Zn131 Zn 0.2498 0.93122 0.39564 0.0
C132 C 0.21957 0.814 0.36989 0.0
O133 O 0.22235 0.83812 0.39101 0.0
C134 C 0.28393 0.05712 0.38087 0.0
O135 O 0.15719 0.90725 0.38882 0.0
O136 O 0.17047 0.91692 0.34816 0.0
N137 N 0.2313 0.91831 0.43335 0.0
C138 C 0.26773 0.94809 0.45301 0.0
C139 C 0.17704 0.88533 0.46728 0.0
N140 N 0.17495 0.87938 0.44229 0.0
N141 N 0.23488 0.92802 0.47445 0.0
C142 C 0.2786 0.93118 0.29511 0.0
C143 C 0.33872 0.02713 0.28669 0.0
N144 N 0.28663 0.96309 0.3165 0.0
N145 N 0.32379 0.02259 0.31098 0.0
N146 N 0.31111 0.97053 0.27616 0.0
H147 H 0.19871 0.84278 0.30377 0.0
H148 H 0.23444 0.84588 0.27388 0.0
H149 H 0.27126 0.84366 0.30225 0.0
C150 C 0.24344 0.86181 0.29344 0.0
C151 C 0.33428 -0.0004 0.45122 0.0
H152 H 0.34634 0.03231 0.467 0.0
H153 H 0.36491 0.9793 0.45191 0.0
H154 H 0.34354 0.02585 0.43363 0.0
O155 O 0.27426 0.02352 0.3999 0.0
O156 O 0.28479 0.03578 0.35949 0.0
C157 C 0.135 0.90239 0.36714 0.0
O158 O 0.35548 0.96515 0.36069 0.0
O159 O 0.34127 0.95135 0.40101 0.0
Zn160 Zn 0.09621 0.35309 0.40408 0.0
O161 O 0.12038 0.282 0.40299 0.0
C162 C 0.97419 0.26571 0.38358 0.0
Zn163 Zn 0.09828 0.35799 0.36252 0.0
C164 C 0.12847 0.26497 0.38164 0.0
O165 O 0.12011 0.28859 0.36226 0.0
C166 C 0.07362 0.45172 0.38419 0.0
O167 O 0.19531 0.42433 0.36271 0.0
O168 O 0.19008 0.41837 0.40362 0.0
N169 N 0.09443 0.35366 0.32424 0.0
C170 C 0.09912 0.39357 0.30626 0.0
C171 C 0.06857 0.30617 0.28891 0.0
N172 N 0.07592 0.29952 0.31329 0.0
N173 N 0.08237 0.36474 0.28401 0.0
C174 C 0.06686 0.30996 0.45981 0.0
C175 C 0.10893 0.39758 0.47814 0.0
N176 N 0.09622 0.35437 0.44225 0.0
N177 N 0.12278 0.40862 0.45378 0.0
N178 N 0.07381 0.33603 0.48252 0.0
H179 H 0.02631 0.23171 0.43443 0.0
H180 H 0.04916 0.2169 0.4637 0.0
H181 H 0.98057 0.22315 0.46213 0.0
C182 C 0.0283 0.24172 0.45451 0.0
C183 C 0.12242 0.46104 0.31025 0.0
H184 H 0.15403 0.47851 0.32645 0.0
H185 H 0.14733 0.48827 0.29343 0.0
H186 H 0.08193 0.46712 0.31363 0.0
O187 O 0.07788 0.42961 0.36348 0.0
O188 O 0.07625 0.4262 0.40424 0.0
C189 C 0.22175 0.44043 0.38381 0.0
O190 O 0.00175 0.28697 0.40403 0.0
O191 O 0.00304 0.28957 0.36333 0.0
Zn192 Zn 0.33106 0.09264 0.68875 0.0
O193 O 0.26027 0.11645 0.68748 0.0
C194 C 0.24378 0.97116 0.71126 0.0
Zn195 Zn 0.33464 0.09631 0.73034 0.0
C196 C 0.24151 0.12421 0.7085 0.0
O197 O 0.26393 0.11613 0.72826 0.0
C198 C 0.42917 0.07144 0.71132 0.0
O199 O 0.39926 0.19315 0.72867 0.0
O200 O 0.39629 0.18692 0.68784 0.0
N201 N 0.32823 0.09815 0.76848 0.0
C202 C 0.36766 0.10834 0.78737 0.0
C203 C 0.28006 0.08482 0.80351 0.0
N204 N 0.27398 0.08386 0.77865 0.0
N205 N 0.33841 0.09989 0.80953 0.0
C206 C 0.29219 0.06272 0.63252 0.0
C207 C 0.38113 0.09824 0.6153 0.0
N208 N 0.33538 0.08915 0.65054 0.0
N209 N 0.3905 0.11153 0.63968 0.0
N210 N 0.31982 0.06749 0.61016 0.0
H211 H 0.21207 0.02196 0.65714 0.0
H212 H 0.205 0.05951 0.63023 0.0
H213 H 0.1998 0.98519 0.62698 0.0
C214 C 0.22336 0.03002 0.63712 0.0
C215 C 0.43518 0.12958 0.78409 0.0
H216 H 0.45398 0.15923 0.76726 0.0
H217 H 0.46212 0.15603 0.80058 0.0
H218 H 0.4404 0.08823 0.78189 0.0
O219 O 0.40712 0.07787 0.73171 0.0
O220 O 0.40402 0.07248 0.69096 0.0
C221 C 0.41618 0.21932 0.70744 0.0
O222 O 0.26421 -0.00173 0.69047 0.0
O223 O 0.26794 0.00069 0.7312 0.0
Zn224 Zn 0.90728 0.24483 0.69255 0.0
O225 O 0.88342 0.15143 0.69674 0.0
C226 C 0.0351 0.28057 0.70625 0.0
Zn227 Zn 0.92211 0.25852 0.73352 0.0
C228 C 0.88116 0.12961 0.71831 0.0
O229 O 0.89674 0.16508 0.73706 0.0
C230 C 0.94078 0.37175 0.70869 0.0
O231 O 0.82755 0.2315 0.73843 0.0
O232 O 0.81391 0.21655 0.69805 0.0
N233 N 0.93812 0.26912 0.77105 0.0
C234 C 0.93381 0.30601 0.78836 0.0
C235 C 0.96959 0.25457 0.80633 0.0
N236 N 0.96022 0.23717 0.78232 0.0
N237 N 0.95371 0.298 0.81063 0.0
C238 C 0.92633 0.27104 0.63574 0.0
C239 C 0.86409 0.1824 0.62014 0.0
N240 N 0.89498 0.23231 0.65481 0.0
N241 N 0.85625 0.1773 0.64505 0.0
N242 N 0.90758 0.24089 0.61386 0.0
H243 H 0.01229 0.35075 0.62307 0.0
H244 H 0.95826 0.36807 0.63824 0.0
H245 H 0.0028 0.34406 0.65634 0.0
C246 C 0.97816 0.33705 0.63856 0.0
C247 C 0.90702 0.34698 0.7837 0.0
H248 H 0.8727 0.32826 0.76843 0.0
H249 H 0.88431 0.3514 0.80077 0.0
H250 H 0.94509 0.3939 0.77825 0.0
O251 O 0.94584 0.35138 0.72964 0.0
O252 O 0.92723 0.33724 0.68964 0.0
C253 C 0.79173 0.21375 0.71968 0.0
O254 O 0.00041 0.26999 0.6876 0.0
O255 O 0.01469 0.2818 0.72783 0.0
Zn256 Zn 0.76363 0.67149 0.73064 0.0
O257 O 0.78547 0.60059 0.7272 0.0
C258 C 0.63516 0.58179 0.71575 0.0
Zn259 Zn 0.7512 0.67172 0.68921 0.0
C260 C 0.78819 0.58124 0.70557 0.0
O261 O 0.77418 0.60197 0.68663 0.0
C262 C 0.73342 0.76679 0.71368 0.0
O263 O 0.84619 0.73761 0.68476 0.0
O264 O 0.85841 0.73571 0.72514 0.0
N265 N 0.73795 0.66824 0.65115 0.0
C266 C 0.74584 0.71193 0.6343 0.0
C267 C 0.70971 0.62622 0.61488 0.0
N268 N 0.71571 0.61512 0.63895 0.0
N269 N 0.72804 0.68663 0.61144 0.0
C270 C 0.74688 0.63773 0.78794 0.0
C271 C 0.81492 0.72379 0.80363 0.0
N272 N 0.7769 0.67712 0.76881 0.0
N273 N 0.81934 0.7304 0.77871 0.0
N274 N 0.7695 0.66613 0.81005 0.0
H275 H 0.70588 0.55231 0.76723 0.0
H276 H 0.69872 0.54268 0.80071 0.0
H277 H 0.65184 0.56674 0.78415 0.0
C278 C 0.6982 0.5708 0.78482 0.0
C279 C 0.7742 0.77972 0.63996 0.0
H280 H 0.80714 0.7933 0.65564 0.0
H281 H 0.79897 0.80834 0.6234 0.0
H282 H 0.73674 0.78932 0.64518 0.0
O283 O 0.72974 0.7421 0.69266 0.0
O284 O 0.74512 0.74492 0.73289 0.0
C285 C 0.88156 0.75477 0.7036 0.0
O286 O 0.66862 0.60489 0.73491 0.0
O287 O 0.65782 0.60367 0.69439 0.0
H288 H 0.37588 0.49055 0.07696 0.0
H289 H 0.39794 0.54719 0.99989 0.0
H290 H 0.28565 0.49676 0.99551 0.0
H291 H 0.1827 0.44266 1.01382 0.0
H292 H 0.15768 0.38796 0.09107 0.0
H293 H 0.26986 0.42963 0.0949 0.0
C294 C 0.35598 0.49216 0.0593 0.0
C295 C 0.39508 0.52317 0.03887 0.0
C296 C 0.2911 0.46265 0.05682 0.0
C297 C 0.36881 0.52397 1.01594 0.0
C298 C 0.30462 0.49484 1.01336 0.0
C299 C 0.20129 0.43855 0.03144 0.0
C300 C 0.16203 0.41348 0.05231 0.0
C301 C 0.26549 0.46445 0.03368 0.0
C302 C 0.18714 0.40825 0.07487 0.0
C303 C 0.25126 0.43238 0.07709 0.0
H304 H 0.5367 0.9027 0.06883 0.0
H305 H 0.43517 0.83344 1.00039 0.0
H306 H 0.48562 0.77289 0.99271 0.0
H307 H 0.5543 0.73602 1.00627 0.0
H308 H 0.65304 0.80062 0.07543 0.0
H309 H 0.61004 0.86896 0.08153 0.0
C310 C 0.52511 0.87362 0.05245 0.0
C311 C 0.48171 0.87161 0.03539 0.0
C312 C 0.55503 0.83967 0.04793 0.0
C313 C 0.46806 0.83508 1.0139 0.0
C314 C 0.49727 0.80097 1.00937 0.0
C315 C 0.56809 0.76658 1.02227 0.0
C316 C 0.60688 0.76369 0.04034 0.0
C317 C 0.54083 0.80302 0.02622 0.0
C318 C 0.62336 0.8025 0.06125 0.0
C319 C 0.59813 0.84079 0.06489 0.0
H320 H 0.26351 0.83532 0.08013 0.0
H321 H 0.21813 0.86108 1.00547 0.0
H322 H 0.14591 0.74939 1.00192 0.0
H323 H 0.10689 0.64358 1.01808 0.0
H324 H 0.15681 0.61894 0.09215 0.0
H325 H 0.21769 0.7313 0.09762 0.0
C326 C 0.23656 0.81694 0.06335 0.0
C327 C 0.24674 0.85632 0.04302 0.0
C328 C 0.19777 0.75265 0.06099 0.0
C329 C 0.21126 0.83157 1.02138 0.0
C330 C 0.17067 0.76766 1.0192 0.0
C331 C 0.13148 0.66296 0.03533 0.0
C332 C 0.12856 0.62333 0.05448 0.0
C333 C 0.16587 0.72758 0.03846 0.0
C334 C 0.15914 0.64873 0.07702 0.0
C335 C 0.19353 0.71287 0.08024 0.0
H336 H 0.45438 0.18825 0.07243 0.0
H337 H 0.37861 0.15745 0.99843 0.0
H338 H 0.4193 0.26896 0.99339 0.0
H339 H 0.48444 0.37596 1.00885 0.0
H340 H 0.56202 0.40501 0.08251 0.0
H341 H 0.51371 0.29321 0.08861 0.0
C342 C 0.44531 0.20559 0.05541 0.0
C343 C 0.41389 0.16478 0.03578 0.0
C344 C 0.4708 0.2696 0.05231 0.0
C345 C 0.40294 0.18812 1.01379 0.0
C346 C 0.42674 0.25187 1.0108 0.0
C347 C 0.49116 0.35766 0.0261 0.0
C348 C 0.52731 0.39844 0.04506 0.0
C349 C 0.46256 0.2932 0.02963 0.0
C350 C 0.53468 0.37436 0.06756 0.0
C351 C 0.50678 0.31051 0.07115 0.0
H352 H 0.63864 0.10672 0.06755 0.0
H353 H 0.61944 0.1518 0.99183 0.0
H354 H 0.73246 0.21537 0.98769 0.0
H355 H 0.83461 0.26554 1.00693 0.0
H356 H 0.85435 0.22465 0.08303 0.0
H357 H 0.74279 0.14971 0.08545 0.0
C358 C 0.6592 0.13054 0.05015 0.0
C359 C 0.62085 0.12565 0.03018 0.0
C360 C 0.72406 0.16672 0.04787 0.0
C361 C 0.64806 0.15552 1.00757 0.0
C362 C 0.7126 0.19156 1.00515 0.0
C363 C 0.81521 0.23893 0.02375 0.0
C364 C 0.85282 0.25091 0.04474 0.0
C365 C 0.75089 0.19823 0.02531 0.0
C366 C 0.82634 0.21627 0.06658 0.0
C367 C 0.76248 0.17402 0.06807 0.0
H368 H 0.89458 0.53554 0.07575 0.0
H369 H 0.85023 0.45453 1.00242 0.0
H370 H 0.79275 0.50729 0.99365 0.0
H371 H 0.75074 0.57115 1.00736 0.0
H372 H 0.78728 0.64717 0.08143 0.0
H373 H 0.85507 0.60429 0.08895 0.0
C374 C 0.87159 0.52893 0.05801 0.0
C375 C 0.87585 0.49067 0.03989 0.0
C376 C 0.8389 0.55986 0.05296 0.0
C377 C 0.84711 0.48344 1.01675 0.0
C378 C 0.81474 0.51398 1.01161 0.0
C379 C 0.77477 0.57994 0.02491 0.0
C380 C 0.76388 0.6121 0.04379 0.0
C381 C 0.8103 0.55215 0.02957 0.0
C382 C 0.79516 0.62262 0.06654 0.0
C383 C 0.83307 0.5973 0.07098 0.0
H384 H 0.85538 0.79637 0.33842 0.0
H385 H 0.82811 0.72766 0.4138 0.0
H386 H 0.94007 0.76894 0.41771 0.0
H387 H 0.04574 0.83373 0.40107 0.0
H388 H 0.07264 0.90444 0.32596 0.0
H389 H 0.95999 0.85367 0.32067 0.0
C390 C 0.87357 0.78888 0.35552 0.0
C391 C 0.83372 0.75982 0.37597 0.0
C392 C 0.93785 0.81455 0.35786 0.0
C393 C 0.85809 0.75073 0.39797 0.0
C394 C 0.92204 0.77465 0.40024 0.0
C395 C 0.02699 0.83836 0.38358 0.0
C396 C 0.06733 0.87376 0.36408 0.0
C397 C 0.96243 0.80868 0.38062 0.0
C398 C 0.04243 0.87807 0.34133 0.0
C399 C 0.97814 0.84877 0.33826 0.0
H400 H 0.19595 0.24063 0.41481 0.0
H401 H 0.1196 0.19811 0.34079 0.0
H402 H 0.17187 0.13984 0.33252 0.0
H403 H 0.23547 0.09779 0.3465 0.0
H404 H 0.30662 0.13216 0.42125 0.0
H405 H 0.26254 0.19918 0.42871 0.0
C406 C 0.19021 0.21785 0.39704 0.0
C407 C 0.15367 0.22324 0.37853 0.0
C408 C 0.22087 0.18457 0.39228 0.0
C409 C 0.14734 0.19441 0.3554 0.0
C410 C 0.1776 0.16151 0.35054 0.0
C411 C 0.24305 0.12142 0.36419 0.0
C412 C 0.27479 0.11073 0.3832 0.0
C413 C 0.21462 0.15654 0.36878 0.0
C414 C 0.28291 0.14047 0.40623 0.0
C415 C 0.2569 0.1779 0.41062 0.0
H416 H 0.93208 0.18497 0.34542 0.0
H417 H 0.89325 0.20592 0.42201 0.0
H418 H 0.82335 0.09364 0.42555 0.0
H419 H 0.78364 0.98905 0.40827 0.0
H420 H 0.8279 0.96919 0.33229 0.0
H421 H 0.88691 0.08181 0.32736 0.0
C422 C 0.90691 0.16532 0.36268 0.0
C423 C 0.91797 0.20362 0.38344 0.0
C424 C 0.86962 0.10078 0.36496 0.0
C425 C 0.88533 0.1773 0.40573 0.0
C426 C 0.84613 0.11307 0.40788 0.0
C427 C 0.8066 0.00946 0.39071 0.0
C428 C 0.80237 0.97101 0.37082 0.0
C429 C 0.84007 0.07425 0.38792 0.0
C430 C 0.83111 -0.00208 0.34798 0.0
C431 C 0.86443 0.06225 0.34507 0.0
H432 H 0.16674 0.73025 0.40733 0.0
H433 H 0.20345 0.74464 0.32824 0.0
H434 H 0.14987 0.63154 0.32528 0.0
H435 H 0.0992 0.53053 0.34554 0.0
H436 H 0.06881 0.51555 0.42485 0.0
H437 H 0.11074 0.62771 0.4272 0.0
C438 C 0.1633 0.7088 0.38941 0.0
C439 C 0.1899 0.7459 0.36806 0.0
C440 C 0.1325 0.64394 0.38785 0.0
C441 C 0.18414 0.71723 0.34499 0.0
C442 C 0.1531 0.6526 0.34325 0.0
C443 C 0.1006 0.55121 0.36327 0.0
C444 C 0.08156 0.51455 0.38495 0.0
C445 C 0.12771 0.6157 0.36461 0.0
C446 C 0.08329 0.54262 0.40783 0.0
C447 C 0.10799 0.60683 0.40923 0.0
H448 H 0.31132 0.45751 0.35022 0.0
H449 H 0.28326 0.51272 0.423 0.0
H450 H 0.39524 0.57564 0.42874 0.0
H451 H 0.50001 0.62019 0.41223 0.0
H452 H 0.53062 0.56874 0.33917 0.0
H453 H 0.4187 0.49705 0.33477 0.0
C454 C 0.32995 0.48382 0.36719 0.0
C455 C 0.28936 0.48139 0.38599 0.0
C456 C 0.39459 0.51945 0.37053 0.0
C457 C 0.31376 0.51438 0.40818 0.0
C458 C 0.37771 0.55 0.41157 0.0
C459 C 0.48259 0.59213 0.39558 0.0
C460 C 0.52334 0.60046 0.37588 0.0
C461 C 0.41845 0.55315 0.39283 0.0
C462 C 0.49989 0.56372 0.35445 0.0
C463 C 0.43592 0.52319 0.35184 0.0
H464 H 0.42663 0.93116 0.34451 0.0
H465 H 0.44303 0.96947 0.42323 0.0
H466 H 0.51191 0.92657 0.42723 0.0
H467 H 0.55843 0.86877 0.40892 0.0
H468 H 0.53438 0.82451 0.33062 0.0
H469 H 0.47579 0.87782 0.32608 0.0
C470 C 0.44649 0.93173 0.36247 0.0
C471 C 0.42982 0.9535 0.38355 0.0
C472 C 0.48295 0.90407 0.36484 0.0
C473 C 0.45541 0.95314 0.40671 0.0
C474 C 0.49409 0.92791 0.40905 0.0
C475 C 0.54002 0.87045 0.3909 0.0
C476 C 0.55019 0.84214 0.3702 0.0
C477 C 0.5063 0.90125 0.38838 0.0
C478 C 0.52676 0.84544 0.34691 0.0
C479 C 0.49366 0.87633 0.34423 0.0
H480 H 0.70329 0.14883 0.68549 0.0
H481 H 0.72824 0.21212 0.76157 0.0
H482 H 0.6155 0.16264 0.76689 0.0
H483 H 0.51185 0.10926 0.74889 0.0
H484 H 0.4871 0.05085 0.67224 0.0
H485 H 0.59845 0.08863 0.66844 0.0
C486 C 0.68416 0.15202 0.70323 0.0
C487 C 0.72399 0.18501 0.72299 0.0
C488 C 0.61962 0.12351 0.70615 0.0
C489 C 0.69848 0.18761 0.746 0.0
C490 C 0.63413 0.15907 0.74909 0.0
C491 C 0.53029 0.10334 0.73152 0.0
C492 C 0.49127 0.07775 0.71084 0.0
C493 C 0.59444 0.12765 0.72918 0.0
C494 C 0.51622 0.07056 0.68843 0.0
C495 C 0.57992 0.09275 0.68617 0.0
H496 H 0.88116 0.39952 0.67386 0.0
H497 H 0.98182 0.46562 0.74263 0.0
H498 H 0.94175 0.5364 0.74803 0.0
H499 H 0.86939 0.5709 0.73537 0.0
H500 H 0.76773 0.50323 0.6669 0.0
H501 H 0.81599 0.44026 0.65947 0.0
C502 C 0.89581 0.43063 0.68969 0.0
C503 C 0.93374 0.42686 0.708 0.0
C504 C 0.8708 0.46929 0.69312 0.0
C505 C 0.95214 0.46734 0.72842 0.0
C506 C 0.92876 0.5073 0.73164 0.0
C507 C 0.85744 0.54188 0.71896 0.0
C508 C 0.8142 0.54046 0.70196 0.0
C509 C 0.88612 0.50676 0.71461 0.0
C510 C 0.80034 0.50423 0.68039 0.0
C511 C 0.82822 0.46868 0.67604 0.0
H512 H 0.58089 0.50043 0.67847 0.0
H513 H 0.56425 0.52339 0.75714 0.0
H514 H 0.49347 0.4113 0.76168 0.0
H515 H 0.4465 0.30592 0.74385 0.0
H516 H 0.46978 0.28544 0.66538 0.0
H517 H 0.52906 0.39767 0.66037 0.0
C518 C 0.56061 0.48138 0.69655 0.0
C519 C 0.57856 0.52002 0.71752 0.0
C520 C 0.52266 0.41708 0.69918 0.0
C521 C 0.55174 0.49439 0.74077 0.0
C522 C 0.51177 0.4303 0.7434 0.0
C523 C 0.46483 0.32611 0.72571 0.0
C524 C 0.45449 0.28739 0.70511 0.0
C525 C 0.49904 0.39097 0.72288 0.0
C526 C 0.47757 0.31416 0.68161 0.0
C527 C 0.51113 0.37836 0.67865 0.0
H528 H 0.79138 0.85402 0.74893 0.0
H529 H 0.69247 0.81911 0.67974 0.0
H530 H 0.73048 0.93012 0.67498 0.0
H531 H 0.80075 0.03745 0.6883 0.0
H532 H 0.90071 0.07207 0.7572 0.0
H533 H 0.85401 0.96033 0.76409 0.0
C534 C 0.77664 0.87041 0.73316 0.0
C535 C 0.73983 0.82869 0.71454 0.0
C536 C 0.80033 0.93423 0.73015 0.0
C537 C 0.72135 0.85062 0.69417 0.0
C538 C 0.74348 0.91403 0.69134 0.0
C539 C 0.81256 0.02043 0.70473 0.0
C540 C 0.85495 0.06258 0.72198 0.0
C541 C 0.78494 0.95636 0.70872 0.0
C542 C 0.86869 0.04023 0.74354 0.0
C543 C 0.84176 0.97649 0.74756 0.0
H544 H 0.96896 0.78172 0.73874 0.0
H545 H 0.94685 0.80808 0.66089 0.0
H546 H 0.05971 0.86639 0.65538 0.0
H547 H 0.16333 0.9168 0.67336 0.0
H548 H 0.18542 0.89802 0.75186 0.0
H549 H 0.07354 0.82631 0.75611 0.0
C550 C -0.01124 0.80035 0.72056 0.0
C551 C 0.94963 0.79159 0.70035 0.0
C552 C 0.0535 0.83382 0.71754 0.0
C553 C 0.976 0.81497 0.67683 0.0
C554 C 0.04046 0.84786 0.67362 0.0
C555 C 0.14405 0.89621 0.69134 0.0
C556 C 0.18251 0.91369 0.71236 0.0
C557 C 0.07954 0.85829 0.69393 0.0
C558 C 0.15673 0.88563 0.73541 0.0
C559 C 0.09269 0.84535 0.73792 0.0
H560 H 0.21569 0.18747 0.67362 0.0
H561 H 0.17589 0.11967 0.74933 0.0
H562 H 0.11932 0.17392 0.75649 0.0
H563 H 0.07846 0.23703 0.74138 0.0
H564 H 0.10706 0.29769 0.66486 0.0
H565 H 0.17344 0.25236 0.6582 0.0
C566 C 0.1938 0.18397 0.69152 0.0
C567 C 0.19975 0.14951 0.71086 0.0
C568 C 0.16111 0.21549 0.69562 0.0
C569 C 0.17189 0.14588 0.7341 0.0
C570 C 0.13999 0.17731 0.73833 0.0
C571 C 0.10057 0.24201 0.72339 0.0
C572 C 0.08852 0.27115 0.70371 0.0
C573 C 0.13467 0.21245 0.71931 0.0
C574 C 0.11644 0.276 0.68038 0.0
C575 C 0.15344 0.24924 0.67647 0.0
H576 H 0.11098 0.34396 0.2384 0.0
H577 H 0.02147 0.42804 0.27787 0.0
H578 H -0.00835 0.45453 0.23864 0.0
H579 H -0.01444 0.44809 0.19276 0.0
H580 H 0.07093 0.35953 0.15355 0.0
H581 H 0.10778 0.3404 0.19265 0.0
C582 C 0.08574 0.36887 0.23827 0.0
C583 C 0.07006 0.38561 0.26093 0.0
C584 C 0.06766 0.38278 0.21561 0.0
C585 C 0.03638 0.41694 0.26068 0.0
C586 C 0.01843 0.43122 0.23823 0.0
C587 C 0.01277 0.42521 0.19293 0.0
C588 C 0.02692 0.40664 0.17036 0.0
C589 C 0.03319 0.41374 0.21557 0.0
C590 C 0.06144 0.37622 0.17063 0.0
C591 C 0.08189 0.36464 0.19301 0.0
H592 H 0.67769 0.79812 0.23029 0.0
H593 H 0.59408 0.62458 0.27034 0.0
H594 H 0.55912 0.56705 0.23142 0.0
H595 H 0.55978 0.56618 0.18562 0.0
H596 H 0.64816 0.73966 0.14546 0.0
H597 H 0.67322 0.79718 0.18446 0.0
C598 C 0.651 0.74773 0.23036 0.0
C599 C 0.63723 0.71563 0.2531 0.0
C600 C 0.63204 0.71501 0.20784 0.0
C601 C 0.60335 0.65033 0.25314 0.0
C602 C 0.58406 0.61741 0.23085 0.0
C603 C 0.58359 0.61654 0.18553 0.0
C604 C 0.6008 0.64857 0.16274 0.0
C605 C 0.59898 0.64926 0.20807 0.0
C606 C 0.63244 0.71388 0.16271 0.0
C607 C 0.64759 0.74682 0.18504 0.0
H608 H 0.32022 0.95021 0.15997 0.0
H609 H 0.51664 0.04518 0.17545 0.0
H610 H 0.49489 0.03363 0.22003 0.0
H611 H 0.42083 0.00641 0.25466 0.0
H612 H 0.22445 0.91304 0.24033 0.0
H613 H 0.24464 0.91253 0.19549 0.0
C614 C 0.35803 0.96662 0.17311 0.0
C615 C 0.42016 -0.0017 0.16433 0.0
C616 C 0.34504 0.96037 0.19898 0.0
C617 C 0.46862 0.02075 0.18172 0.0
C618 C 0.45619 0.01425 0.20722 0.0
C619 C 0.38253 0.9847 0.24169 0.0
C620 C 0.3213 0.95916 0.25072 0.0
C621 C 0.39476 0.98561 0.21607 0.0
C622 C 0.27187 0.93183 0.23381 0.0
C623 C 0.28358 0.9322 0.20817 0.0
H624 H 0.37087 0.07905 0.92365 0.0
H625 H 0.45273 0.97354 0.89688 0.0
H626 H 0.44267 -0.00053 0.8539 0.0
H627 H 0.40157 0.04418 0.82404 0.0
H628 H 0.31702 0.14725 0.85071 0.0
H629 H 0.33764 0.13114 0.89374 0.0
C630 C 0.38826 0.06348 0.90843 0.0
C631 C 0.41345 0.0253 0.91336 0.0
C632 C 0.38136 0.07782 0.88381 0.0
C633 C 0.43353 0.00327 0.89342 0.0
C634 C 0.42769 0.01801 0.86891 0.0
C635 C 0.38965 0.06485 0.83924 0.0
C636 C 0.3589 0.09786 0.83428 0.0
C637 C 0.40061 0.05429 0.86386 0.0
C638 C 0.34122 0.12216 0.8542 0.0
C639 C 0.35282 0.11277 0.87874 0.0
H640 H 0.02942 0.47352 0.90368 0.0
H641 H 0.95682 0.29732 0.94105 0.0
H642 H 0.92709 0.24306 0.90131 0.0
H643 H 0.92663 0.24601 0.8557 0.0
H644 H 0.00218 0.42171 0.81772 0.0
H645 H 0.02526 0.476 0.85761 0.0
C646 C 0.00654 0.42326 0.90296 0.0
C647 C -0.00606 0.38926 0.9252 0.0
C648 C -0.00991 0.39239 0.87992 0.0
C649 C 0.96502 0.3242 0.92421 0.0
C650 C 0.94864 0.29324 0.90148 0.0
C651 C 0.94745 0.29611 0.85627 0.0
C652 C 0.96159 0.32968 0.83389 0.0
C653 C 0.96137 0.32686 0.87922 0.0
C654 C -0.01089 0.39467 0.83471 0.0
C655 C 0.00304 0.42577 0.85752 0.0
H656 H 0.65006 0.59892 0.82618 0.0
H657 H 0.84019 0.69181 0.85086 0.0
H658 H 0.80488 0.67129 0.89425 0.0
H659 H 0.71952 0.63504 0.92519 0.0
H660 H 0.52968 0.54245 0.90011 0.0
H661 H 0.56498 0.55363 0.8569 0.0
C662 C 0.68376 0.61261 0.84095 0.0
C663 C 0.74778 0.64582 0.8352 0.0
C664 C 0.66303 0.60112 0.86586 0.0
C665 C 0.79071 0.66579 0.8548 0.0
C666 C 0.77051 0.65417 0.87961 0.0
C667 C 0.68592 0.61554 0.91033 0.0
C668 C 0.62193 0.58717 0.91591 0.0
C669 C 0.70672 0.62287 0.88541 0.0
C670 C 0.5791 0.56422 0.89628 0.0
C671 C 0.59928 0.57074 0.87157 0.0
H672 H 0.66643 0.80314 0.52007 0.0
H673 H 0.74464 0.70768 0.48084 0.0
H674 H 0.76898 0.67625 0.52017 0.0
H675 H 0.76144 0.66963 0.56596 0.0
H676 H 0.68069 0.7624 0.60536 0.0
H677 H 0.66412 0.8013 0.5661 0.0
C678 C 0.68969 0.7763 0.52026 0.0
C679 C 0.70508 0.75913 0.49755 0.0
C680 C 0.70272 0.75757 0.54305 0.0
C681 C 0.73437 0.7235 0.49797 0.0
C682 C 0.7475 0.70473 0.5205 0.0
C683 C 0.74093 0.699 0.56586 0.0
C684 C 0.72331 0.71401 0.58852 0.0
C685 C 0.73112 0.72074 0.54316 0.0
C686 C 0.69625 0.75166 0.58823 0.0
C687 C 0.68616 0.77335 0.56575 0.0
H688 H 0.18306 0.96895 0.50771 0.0
H689 H 0.33264 0.93183 0.49704 0.0
H690 H 0.37125 0.97033 0.53888 0.0
H691 H 0.36375 0.01689 0.578 0.0
H692 H 0.21834 0.06074 0.58788 0.0
H693 H 0.176 0.01656 0.54721 0.0
C694 C 0.22378 0.96903 0.51477 0.0
C695 C 0.25542 0.94814 0.49944 0.0
C696 C 0.2461 -0.00788 0.5387 0.0
C697 C 0.30827 0.9485 0.50852 0.0
C698 C 0.33013 0.97033 0.5324 0.0
C699 C 0.32269 0.01665 0.57126 0.0
C700 C 0.29336 0.04062 0.58634 0.0
C701 C 0.29975 -0.00722 0.54755 0.0
C702 C 0.24046 0.0404 0.57724 0.0
C703 C 0.2167 0.01587 0.55376 0.0
H704 H 0.95369 0.19116 0.58221 0.0
H705 H 0.9169 0.34115 0.59107 0.0
H706 H 0.96432 0.38345 0.55033 0.0
H707 H 0.01866 0.37886 0.51278 0.0
H708 H 0.06205 0.23292 0.50509 0.0
H709 H 0.00906 0.18707 0.54449 0.0
C710 C 0.95571 0.23272 0.57496 0.0
C711 C 0.93223 0.26335 0.5894 0.0
C712 C -0.016 0.25713 0.55178 0.0
C713 C 0.93527 0.31742 0.58018 0.0
C714 C 0.96227 0.34142 0.55697 0.0
C715 C 0.01637 0.33696 0.51977 0.0
C716 C 0.04269 0.30834 0.50569 0.0
C717 C -0.01268 0.31198 0.54273 0.0
C718 C 0.03991 0.25435 0.51499 0.0
C719 C 0.01034 0.22863 0.53772 0.0
loop_
_geom_bond_atom_site_label_1
_geom_bond_atom_site_label_2
_geom_bond_distance
_geom_bond_site_symmetry_2
_ccdc_geom_bond_type
Zn0 O1 2.055 . S
Zn0 O8 2.046 1_455 S
Zn0 N16 2.036 . S
Zn0 O28 2.053 1_455 S
Zn0 O30 2.066 . S
O1 Zn0 2.055 . S
O1 C4 1.259 . S
C2 O30 1.256 . S
C2 O31 1.244 . S
Zn3 O5 2.048 . S
Zn3 O7 2.055 1_456 S
Zn3 N9 2.036 . S
Zn3 O27 2.066 1_455 S
Zn3 O31 2.053 1_556 S
C4 O1 1.259 . S
C4 O5 1.243 1_554 S
O5 Zn3 2.048 . S
O5 C4 1.243 1_556 S
C6 O27 1.256 1_554 S
C6 O28 1.244 . S
O7 Zn3 2.055 1_654 S
O7 C29 1.259 . S
O8 Zn0 2.046 1_655 S
O8 C29 1.254 . S
N9 Zn3 2.036 . S
N9 C10 1.298 1_455 S
N9 N12 1.398 . S
C10 N9 1.298 1_655 S
C10 N13 1.367 . S
C10 C23 1.481 . S
C11 N12 1.299 . S
C11 N13 1.379 1_455 S
N12 N9 1.398 . S
N12 C11 1.299 . S
N13 C10 1.367 . S
N13 C11 1.379 1_655 S
C14 N16 1.298 . S
C14 N18 1.367 . S
C14 C22 1.481 . S
C15 N17 1.299 . S
C15 N18 1.379 1_655 S
N16 Zn0 2.036 . S
N16 C14 1.298 . S
N16 N17 1.398 1_455 S
N17 C15 1.299 . S
N17 N16 1.398 1_655 S
N18 C14 1.367 . S
N18 C15 1.379 1_455 S
H19 C22 0.980 . S
H20 C22 0.981 . S
H21 C22 0.981 . S
C22 C14 1.481 . S
C22 H19 0.980 . S
C22 H20 0.981 . S
C22 H21 0.981 . S
C23 C10 1.481 . S
C23 H24 0.980 . S
C23 H25 0.981 . S
C23 H26 0.981 . S
H24 C23 0.980 . S
H25 C23 0.981 . S
H26 C23 0.981 . S
O27 Zn3 2.066 1_655 S
O27 C6 1.256 1_556 S
O28 Zn0 2.053 1_655 S
O28 C6 1.244 . S
C29 O7 1.259 . S
C29 O8 1.254 . S
O30 Zn0 2.066 . S
O30 C2 1.256 . S
O31 C2 1.244 . S
O31 Zn3 2.053 1_554 S
Zn32 O33 2.055 . S
Zn32 O40 2.046 . S
Zn32 N48 2.036 . S
Zn32 O60 2.053 . S
Zn32 O62 2.066 . S
O33 Zn32 2.055 . S
O33 C36 1.259 . S
C34 O62 1.256 . S
C34 O63 1.244 . S
Zn35 O37 2.048 . S
Zn35 O39 2.055 1_556 S
Zn35 N41 2.036 . S
Zn35 O59 2.066 . S
Zn35 O63 2.053 1_556 S
C36 O33 1.259 . S
C36 O37 1.243 1_554 S
O37 Zn35 2.048 . S
O37 C36 1.243 1_556 S
C38 O59 1.256 1_554 S
C38 O60 1.244 . S
O39 Zn35 2.055 1_554 S
O39 C61 1.259 . S
O40 Zn32 2.046 . S
O40 C61 1.254 . S
N41 Zn35 2.036 . S
N41 C42 1.298 . S
N41 N44 1.398 . S
C42 N41 1.298 . S
C42 N45 1.367 . S
C42 C55 1.481 . S
C43 N44 1.299 . S
C43 N45 1.379 . S
N44 N41 1.398 . S
N44 C43 1.299 . S
N45 C42 1.367 . S
N45 C43 1.379 . S
C46 N48 1.298 . S
C46 N50 1.367 . S
C46 C54 1.481 . S
C47 N49 1.299 . S
C47 N50 1.379 . S
N48 Zn32 2.036 . S
N48 C46 1.298 . S
N48 N49 1.398 . S
N49 C47 1.299 . S
N49 N48 1.398 . S
N50 C46 1.367 . S
N50 C47 1.379 . S
H51 C54 0.980 . S
H52 C54 0.981 . S
H53 C54 0.981 . S
C54 C46 1.481 . S
C54 H51 0.980 . S
C54 H52 0.981 . S
C54 H53 0.981 . S
C55 C42 1.481 . S
C55 H56 0.980 . S
C55 H57 0.981 . S
C55 H58 0.981 . S
H56 C55 0.980 . S
H57 C55 0.981 . S
H58 C55 0.981 . S
O59 Zn35 2.066 . S
O59 C38 1.256 1_556 S
O60 Zn32 2.053 . S
O60 C38 1.244 . S
C61 O39 1.259 . S
C61 O40 1.254 . S
O62 Zn32 2.066 . S
O62 C34 1.256 . S
O63 C34 1.244 . S
O63 Zn35 2.053 1_554 S
Zn64 O65 2.055 1_556 S
Zn64 O72 2.048 1_545 S
Zn64 N80 2.036 . S
Zn64 O92 2.053 1_546 S
Zn64 O94 2.066 . S
O65 Zn64 2.055 1_554 S
O65 C68 1.259 . S
C66 O94 1.256 1_554 S
C66 O95 1.244 . S
Zn67 O69 2.046 . S
Zn67 O71 2.055 1_545 S
Zn67 N73 2.036 . S
Zn67 O91 2.066 1_545 S
Zn67 O95 2.053 . S
C68 O65 1.259 . S
C68 O69 1.254 . S
O69 Zn67 2.046 . S
O69 C68 1.254 . S
C70 O91 1.256 . S
C70 O92 1.244 . S
O71 Zn67 2.055 1_565 S
O71 C93 1.259 . S
O72 Zn64 2.048 1_565 S
O72 C93 1.243 1_556 S
N73 Zn67 2.036 . S
N73 C74 1.298 1_545 S
N73 N76 1.398 . S
C74 N73 1.298 1_565 S
C74 N77 1.367 . S
C74 C87 1.481 . S
C75 N76 1.299 . S
C75 N77 1.379 1_545 S
N76 N73 1.398 . S
N76 C75 1.299 . S
N77 C74 1.367 . S
N77 C75 1.379 1_565 S
C78 N80 1.298 . S
C78 N82 1.367 . S
C78 C86 1.481 . S
C79 N81 1.299 . S
C79 N82 1.379 1_565 S
N80 Zn64 2.036 . S
N80 C78 1.298 . S
N80 N81 1.398 1_545 S
N81 C79 1.299 . S
N81 N80 1.398 1_565 S
N82 C78 1.367 . S
N82 C79 1.379 1_545 S
H83 C86 0.980 . S
H84 C86 0.981 . S
H85 C86 0.981 . S
C86 C78 1.481 . S
C86 H83 0.980 . S
C86 H84 0.981 . S
C86 H85 0.981 . S
C87 C74 1.481 . S
C87 H88 0.980 . S
C87 H89 0.981 . S
C87 H90 0.981 . S
H88 C87 0.980 . S
H89 C87 0.981 . S
H90 C87 0.981 . S
O91 Zn67 2.066 1_565 S
O91 C70 1.256 . S
O92 Zn64 2.053 1_564 S
O92 C70 1.244 . S
C93 O71 1.259 . S
C93 O72 1.243 1_554 S
O94 Zn64 2.066 . S
O94 C66 1.256 1_556 S
O95 C66 1.244 . S
O95 Zn67 2.053 . S
Zn96 O97 2.055 . S
Zn96 O104 2.046 . S
Zn96 N112 2.036 . S
Zn96 O124 2.053 . S
Zn96 O126 2.066 . S
O97 Zn96 2.055 . S
O97 C100 1.259 . S
C98 O126 1.256 . S
C98 O127 1.244 . S
Zn99 O101 2.046 . S
Zn99 O103 2.055 . S
Zn99 N105 2.036 . S
Zn99 O123 2.066 . S
Zn99 O127 2.053 . S
C100 O97 1.259 . S
C100 O101 1.254 . S
O101 Zn99 2.046 . S
O101 C100 1.254 . S
C102 O123 1.256 . S
C102 O124 1.244 . S
O103 Zn99 2.055 . S
O103 C125 1.259 . S
O104 Zn96 2.046 . S
O104 C125 1.254 . S
N105 Zn99 2.036 . S
N105 C106 1.298 . S
N105 N108 1.398 . S
C106 N105 1.298 . S
C106 N109 1.367 . S
C106 C119 1.481 . S
C107 N108 1.299 . S
C107 N109 1.379 . S
N108 N105 1.398 . S
N108 C107 1.299 . S
N109 C106 1.367 . S
N109 C107 1.379 . S
C110 N112 1.298 . S
C110 N114 1.367 . S
C110 C118 1.481 . S
C111 N113 1.299 . S
C111 N114 1.379 . S
N112 Zn96 2.036 . S
N112 C110 1.298 . S
N112 N113 1.398 . S
N113 C111 1.299 . S
N113 N112 1.398 . S
N114 C110 1.367 . S
N114 C111 1.379 . S
H115 C118 0.980 . S
H116 C118 0.981 . S
H117 C118 0.981 . S
C118 C110 1.481 . S
C118 H115 0.980 . S
C118 H116 0.981 . S
C118 H117 0.981 . S
C119 C106 1.481 . S
C119 H120 0.980 . S
C119 H121 0.981 . S
C119 H122 0.981 . S
H120 C119 0.980 . S
H121 C119 0.981 . S
H122 C119 0.981 . S
O123 Zn99 2.066 . S
O123 C102 1.256 . S
O124 Zn96 2.053 . S
O124 C102 1.244 . S
C125 O103 1.259 . S
C125 O104 1.254 . S
O126 Zn96 2.066 . S
O126 C98 1.256 . S
O127 C98 1.244 . S
O127 Zn99 2.053 . S
Zn128 O129 2.055 . S
Zn128 O136 2.046 . S
Zn128 N144 2.036 . S
Zn128 O156 2.053 . S
Zn128 O158 2.066 . S
O129 Zn128 2.055 . S
O129 C132 1.259 . S
C130 O158 1.256 . S
C130 O159 1.244 . S
Zn131 O133 2.046 . S
Zn131 O135 2.055 . S
Zn131 N137 2.036 . S
Zn131 O155 2.066 . S
Zn131 O159 2.053 . S
C132 O129 1.259 . S
C132 O133 1.254 . S
O133 Zn131 2.046 . S
O133 C132 1.254 . S
C134 O155 1.256 1_545 S
C134 O156 1.244 1_545 S
O135 Zn131 2.055 . S
O135 C157 1.259 . S
O136 Zn128 2.046 . S
O136 C157 1.254 . S
N137 Zn131 2.036 . S
N137 C138 1.298 . S
N137 N140 1.398 . S
C138 N137 1.298 . S
C138 N141 1.367 . S
C138 C151 1.481 . S
C139 N140 1.299 . S
C139 N141 1.379 . S
N140 N137 1.398 . S
N140 C139 1.299 . S
N141 C138 1.367 . S
N141 C139 1.379 . S
C142 N144 1.298 . S
C142 N146 1.367 . S
C142 C150 1.481 . S
C143 N145 1.299 . S
C143 N146 1.379 . S
N144 Zn128 2.036 . S
N144 C142 1.298 . S
N144 N145 1.398 . S
N145 C143 1.299 . S
N145 N144 1.398 . S
N146 C142 1.367 . S
N146 C143 1.379 . S
H147 C150 0.980 . S
H148 C150 0.981 . S
H149 C150 0.981 . S
C150 C142 1.481 . S
C150 H147 0.980 . S
C150 H148 0.981 . S
C150 H149 0.981 . S
C151 C138 1.481 . S
C151 H152 0.980 . S
C151 H153 0.981 . S
C151 H154 0.981 . S
H152 C151 0.980 . S
H153 C151 0.981 . S
H154 C151 0.981 . S
O155 Zn131 2.066 . S
O155 C134 1.256 1_565 S
O156 Zn128 2.053 . S
O156 C134 1.244 1_565 S
C157 O135 1.259 . S
C157 O136 1.254 . S
O158 Zn128 2.066 . S
O158 C130 1.256 . S
O159 C130 1.244 . S
O159 Zn131 2.053 . S
Zn160 O161 2.055 . S
Zn160 O168 2.046 . S
Zn160 N176 2.036 . S
Zn160 O188 2.053 . S
Zn160 O190 2.066 . S
O161 Zn160 2.055 . S
O161 C164 1.259 . S
C162 O190 1.256 . S
C162 O191 1.244 . S
Zn163 O165 2.046 . S
Zn163 O167 2.055 . S
Zn163 N169 2.036 . S
Zn163 O187 2.066 . S
Zn163 O191 2.053 . S
C164 O161 1.259 . S
C164 O165 1.254 . S
O165 Zn163 2.046 . S
O165 C164 1.254 . S
C166 O187 1.256 . S
C166 O188 1.244 . S
O167 Zn163 2.055 . S
O167 C189 1.259 . S
O168 Zn160 2.046 . S
O168 C189 1.254 . S
N169 Zn163 2.036 . S
N169 C170 1.298 . S
N169 N172 1.398 . S
C170 N169 1.298 . S
C170 N173 1.367 . S
C170 C183 1.481 . S
C171 N172 1.299 . S
C171 N173 1.379 . S
N172 N169 1.398 . S
N172 C171 1.299 . S
N173 C170 1.367 . S
N173 C171 1.379 . S
C174 N176 1.298 . S
C174 N178 1.367 . S
C174 C182 1.481 . S
C175 N177 1.299 . S
C175 N178 1.379 . S
N176 Zn160 2.036 . S
N176 C174 1.298 . S
N176 N177 1.398 . S
N177 C175 1.299 . S
N177 N176 1.398 . S
N178 C174 1.367 . S
N178 C175 1.379 . S
H179 C182 0.980 . S
H180 C182 0.981 . S
H181 C182 0.981 . S
C182 C174 1.481 . S
C182 H179 0.980 . S
C182 H180 0.981 . S
C182 H181 0.981 . S
C183 C170 1.481 . S
C183 H184 0.980 . S
C183 H185 0.981 . S
C183 H186 0.981 . S
H184 C183 0.980 . S
H185 C183 0.981 . S
H186 C183 0.981 . S
O187 Zn163 2.066 . S
O187 C166 1.256 . S
O188 Zn160 2.053 . S
O188 C166 1.244 . S
C189 O167 1.259 . S
C189 O168 1.254 . S
O190 Zn160 2.066 . S
O190 C162 1.256 . S
O191 C162 1.244 . S
O191 Zn163 2.053 . S
Zn192 O193 2.055 . S
Zn192 O200 2.046 . S
Zn192 N208 2.036 . S
Zn192 O220 2.053 . S
Zn192 O222 2.066 . S
O193 Zn192 2.055 . S
O193 C196 1.259 . S
C194 O222 1.256 . S
C194 O223 1.244 . S
Zn195 O197 2.046 . S
Zn195 O199 2.055 . S
Zn195 N201 2.036 . S
Zn195 O219 2.066 . S
Zn195 O223 2.053 . S
C196 O193 1.259 . S
C196 O197 1.254 . S
O197 Zn195 2.046 . S
O197 C196 1.254 . S
C198 O219 1.256 . S
C198 O220 1.244 . S
O199 Zn195 2.055 . S
O199 C221 1.259 . S
O200 Zn192 2.046 . S
O200 C221 1.254 . S
N201 Zn195 2.036 . S
N201 C202 1.298 . S
N201 N204 1.398 . S
C202 N201 1.298 . S
C202 N205 1.367 . S
C202 C215 1.481 . S
C203 N204 1.299 . S
C203 N205 1.379 . S
N204 N201 1.398 . S
N204 C203 1.299 . S
N205 C202 1.367 . S
N205 C203 1.379 . S
C206 N208 1.298 . S
C206 N210 1.367 . S
C206 C214 1.481 . S
C207 N209 1.299 . S
C207 N210 1.379 . S
N208 Zn192 2.036 . S
N208 C206 1.298 . S
N208 N209 1.398 . S
N209 C207 1.299 . S
N209 N208 1.398 . S
N210 C206 1.367 . S
N210 C207 1.379 . S
H211 C214 0.980 . S
H212 C214 0.981 . S
H213 C214 0.981 . S
C214 C206 1.481 . S
C214 H211 0.980 . S
C214 H212 0.981 . S
C214 H213 0.981 . S
C215 C202 1.481 . S
C215 H216 0.980 . S
C215 H217 0.981 . S
C215 H218 0.981 . S
H216 C215 0.980 . S
H217 C215 0.981 . S
H218 C215 0.981 . S
O219 Zn195 2.066 . S
O219 C198 1.256 . S
O220 Zn192 2.053 . S
O220 C198 1.244 . S
C221 O199 1.259 . S
C221 O200 1.254 . S
O222 Zn192 2.066 . S
O222 C194 1.256 . S
O223 C194 1.244 . S
O223 Zn195 2.053 . S
Zn224 O225 2.055 . S
Zn224 O232 2.046 . S
Zn224 N240 2.036 . S
Zn224 O252 2.053 . S
Zn224 O254 2.066 . S
O225 Zn224 2.055 . S
O225 C228 1.259 . S
C226 O254 1.256 1_455 S
C226 O255 1.244 1_455 S
Zn227 O229 2.046 . S
Zn227 O231 2.055 . S
Zn227 N233 2.036 . S
Zn227 O251 2.066 . S
Zn227 O255 2.053 . S
C228 O225 1.259 . S
C228 O229 1.254 . S
O229 Zn227 2.046 . S
O229 C228 1.254 . S
C230 O251 1.256 . S
C230 O252 1.244 . S
O231 Zn227 2.055 . S
O231 C253 1.259 . S
O232 Zn224 2.046 . S
O232 C253 1.254 . S
N233 Zn227 2.036 . S
N233 C234 1.298 . S
N233 N236 1.398 . S
C234 N233 1.298 . S
C234 N237 1.367 . S
C234 C247 1.481 . S
C235 N236 1.299 . S
C235 N237 1.379 . S
N236 N233 1.398 . S
N236 C235 1.299 . S
N237 C234 1.367 . S
N237 C235 1.379 . S
C238 N240 1.298 . S
C238 N242 1.367 . S
C238 C246 1.481 . S
C239 N241 1.299 . S
C239 N242 1.379 . S
N240 Zn224 2.036 . S
N240 C238 1.298 . S
N240 N241 1.398 . S
N241 C239 1.299 . S
N241 N240 1.398 . S
N242 C238 1.367 . S
N242 C239 1.379 . S
H243 C246 0.980 . S
H244 C246 0.981 . S
H245 C246 0.981 . S
C246 C238 1.481 . S
C246 H243 0.980 . S
C246 H244 0.981 . S
C246 H245 0.981 . S
C247 C234 1.481 . S
C247 H248 0.980 . S
C247 H249 0.981 . S
C247 H250 0.981 . S
H248 C247 0.980 . S
H249 C247 0.981 . S
H250 C247 0.981 . S
O251 Zn227 2.066 . S
O251 C230 1.256 . S
O252 Zn224 2.053 . S
O252 C230 1.244 . S
C253 O231 1.259 . S
C253 O232 1.254 . S
O254 Zn224 2.066 . S
O254 C226 1.256 1_655 S
O255 C226 1.244 1_655 S
O255 Zn227 2.053 . S
Zn256 O257 2.055 . S
Zn256 O264 2.046 . S
Zn256 N272 2.036 . S
Zn256 O284 2.053 . S
Zn256 O286 2.066 . S
O257 Zn256 2.055 . S
O257 C260 1.259 . S
C258 O286 1.256 . S
C258 O287 1.244 . S
Zn259 O261 2.046 . S
Zn259 O263 2.055 . S
Zn259 N265 2.036 . S
Zn259 O283 2.066 . S
Zn259 O287 2.053 . S
C260 O257 1.259 . S
C260 O261 1.254 . S
O261 Zn259 2.046 . S
O261 C260 1.254 . S
C262 O283 1.256 . S
C262 O284 1.244 . S
O263 Zn259 2.055 . S
O263 C285 1.259 . S
O264 Zn256 2.046 . S
O264 C285 1.254 . S
N265 Zn259 2.036 . S
N265 C266 1.298 . S
N265 N268 1.398 . S
C266 N265 1.298 . S
C266 N269 1.367 . S
C266 C279 1.481 . S
C267 N268 1.299 . S
C267 N269 1.379 . S
N268 N265 1.398 . S
N268 C267 1.299 . S
N269 C266 1.367 . S
N269 C267 1.379 . S
C270 N272 1.298 . S
C270 N274 1.367 . S
C270 C278 1.481 . S
C271 N273 1.299 . S
C271 N274 1.379 . S
N272 Zn256 2.036 . S
N272 C270 1.298 . S
N272 N273 1.398 . S
N273 C271 1.299 . S
N273 N272 1.398 . S
N274 C270 1.367 . S
N274 C271 1.379 . S
H275 C278 0.980 . S
H276 C278 0.981 . S
H277 C278 0.981 . S
C278 C270 1.481 . S
C278 H275 0.980 . S
C278 H276 0.981 . S
C278 H277 0.981 . S
C279 C266 1.481 . S
C279 H280 0.980 . S
C279 H281 0.981 . S
C279 H282 0.981 . S
H280 C279 0.980 . S
H281 C279 0.981 . S
H282 C279 0.981 . S
O283 Zn259 2.066 . S
O283 C262 1.256 . S
O284 Zn256 2.053 . S
O284 C262 1.244 . S
C285 O263 1.259 . S
C285 O264 1.254 . S
O286 Zn256 2.066 . S
O286 C258 1.256 . S
O287 C258 1.244 . S
O287 Zn259 2.053 . S
H288 C294 0.930 . S
H289 C297 0.930 . S
H290 C298 0.930 . S
H291 C299 0.930 1_556 S
H292 C302 0.930 . S
H293 C303 0.930 . S
C294 H288 0.930 . S
C294 C295 1.355 . S
C294 C296 1.415 . S
C295 C294 1.355 . S
C295 C297 1.419 1_554 S
C296 C294 1.415 . S
C296 C301 1.425 . S
C296 C303 1.409 . S
C297 H289 0.930 . S
C297 C295 1.419 1_556 S
C297 C298 1.362 . S
C298 H290 0.930 . S
C298 C297 1.362 . S
C298 C301 1.409 1_556 S
C299 H291 0.930 1_554 S
C299 C300 1.355 . S
C299 C301 1.415 . S
C300 C299 1.355 . S
C300 C302 1.419 . S
C301 C296 1.425 . S
C301 C298 1.409 1_554 S
C301 C299 1.415 . S
C302 H292 0.930 . S
C302 C300 1.419 . S
C302 C303 1.362 . S
C303 H293 0.930 . S
C303 C296 1.409 . S
C303 C302 1.362 . S
H304 C310 0.930 . S
H305 C313 0.930 . S
H306 C314 0.930 . S
H307 C315 0.930 . S
H308 C318 0.930 . S
H309 C319 0.930 . S
C310 H304 0.930 . S
C310 C311 1.355 . S
C310 C312 1.415 . S
C311 C310 1.355 . S
C311 C313 1.419 . S
C312 C310 1.415 . S
C312 C317 1.425 . S
C312 C319 1.409 . S
C313 H305 0.930 . S
C313 C311 1.419 . S
C313 C314 1.362 . S
C314 H306 0.930 . S
C314 C313 1.362 . S
C314 C317 1.409 . S
C315 H307 0.930 . S
C315 C316 1.355 . S
C315 C317 1.415 . S
C316 C315 1.355 . S
C316 C318 1.419 . S
C317 C312 1.425 . S
C317 C314 1.409 . S
C317 C315 1.415 . S
C318 H308 0.930 . S
C318 C316 1.419 . S
C318 C319 1.362 . S
C319 H309 0.930 . S
C319 C312 1.409 . S
C319 C318 1.362 . S
H320 C326 0.930 . S
H321 C329 0.930 . S
H322 C330 0.930 . S
H323 C331 0.930 . S
H324 C334 0.930 . S
H325 C335 0.930 . S
C326 H320 0.930 . S
C326 C327 1.355 . S
C326 C328 1.415 . S
C327 C326 1.355 . S
C327 C329 1.419 . S
C328 C326 1.415 . S
C328 C333 1.425 . S
C328 C335 1.409 . S
C329 H321 0.930 . S
C329 C327 1.419 . S
C329 C330 1.362 . S
C330 H322 0.930 . S
C330 C329 1.362 . S
C330 C333 1.409 . S
C331 H323 0.930 . S
C331 C332 1.355 . S
C331 C333 1.415 . S
C332 C331 1.355 . S
C332 C334 1.419 . S
C333 C328 1.425 . S
C333 C330 1.409 . S
C333 C331 1.415 . S
C334 H324 0.930 . S
C334 C332 1.419 . S
C334 C335 1.362 . S
C335 H325 0.930 . S
C335 C328 1.409 . S
C335 C334 1.362 . S
H336 C342 0.930 . S
H337 C345 0.930 . S
H338 C346 0.930 . S
H339 C347 0.930 1_556 S
H340 C350 0.930 . S
H341 C351 0.930 . S
C342 H336 0.930 . S
C342 C343 1.355 . S
C342 C344 1.415 . S
C343 C342 1.355 . S
C343 C345 1.419 1_554 S
C344 C342 1.415 . S
C344 C349 1.425 . S
C344 C351 1.409 . S
C345 H337 0.930 . S
C345 C343 1.419 1_556 S
C345 C346 1.362 . S
C346 H338 0.930 . S
C346 C345 1.362 . S
C346 C349 1.409 1_556 S
C347 H339 0.930 1_554 S
C347 C348 1.355 . S
C347 C349 1.415 . S
C348 C347 1.355 . S
C348 C350 1.419 . S
C349 C344 1.425 . S
C349 C346 1.409 1_554 S
C349 C347 1.415 . S
C350 H340 0.930 . S
C350 C348 1.419 . S
C350 C351 1.362 . S
C351 H341 0.930 . S
C351 C344 1.409 . S
C351 C350 1.362 . S
H352 C358 0.930 . S
H353 C361 0.930 1_556 S
H354 C362 0.930 . S
H355 C363 0.930 1_556 S
H356 C366 0.930 . S
H357 C367 0.930 . S
C358 H352 0.930 . S
C358 C359 1.355 . S
C358 C360 1.415 . S
C359 C358 1.355 . S
C359 C361 1.419 . S
C360 C358 1.415 . S
C360 C365 1.425 . S
C360 C367 1.409 . S
C361 H353 0.930 1_554 S
C361 C359 1.419 . S
C361 C362 1.362 1_554 S
C362 H354 0.930 . S
C362 C361 1.362 1_556 S
C362 C365 1.409 1_556 S
C363 H355 0.930 1_554 S
C363 C364 1.355 . S
C363 C365 1.415 . S
C364 C363 1.355 . S
C364 C366 1.419 . S
C365 C360 1.425 . S
C365 C362 1.409 1_554 S
C365 C363 1.415 . S
C366 H356 0.930 . S
C366 C364 1.419 . S
C366 C367 1.362 . S
C367 H357 0.930 . S
C367 C360 1.409 . S
C367 C366 1.362 . S
H368 C374 0.930 . S
H369 C377 0.930 1_556 S
H370 C378 0.930 1_556 S
H371 C379 0.930 . S
H372 C382 0.930 . S
H373 C383 0.930 . S
C374 H368 0.930 . S
C374 C375 1.355 . S
C374 C376 1.415 . S
C375 C374 1.355 . S
C375 C377 1.419 . S
C376 C374 1.415 . S
C376 C381 1.425 . S
C376 C383 1.409 . S
C377 H369 0.930 1_554 S
C377 C375 1.419 . S
C377 C378 1.362 . S
C378 H370 0.930 1_554 S
C378 C377 1.362 . S
C378 C381 1.409 . S
C379 H371 0.930 . S
C379 C380 1.355 . S
C379 C381 1.415 . S
C380 C379 1.355 . S
C380 C382 1.419 . S
C381 C376 1.425 . S
C381 C378 1.409 . S
C381 C379 1.415 . S
C382 H372 0.930 . S
C382 C380 1.419 . S
C382 C383 1.362 . S
C383 H373 0.930 . S
C383 C376 1.409 . S
C383 C382 1.362 . S
H384 C390 0.930 . S
H385 C393 0.930 . S
H386 C394 0.930 . S
H387 C395 0.930 . S
H388 C398 0.930 . S
H389 C399 0.930 . S
C390 H384 0.930 . S
C390 C391 1.355 . S
C390 C392 1.415 . S
C391 C390 1.355 . S
C391 C393 1.419 . S
C392 C390 1.415 . S
C392 C397 1.425 . S
C392 C399 1.409 . S
C393 H385 0.930 . S
C393 C391 1.419 . S
C393 C394 1.362 . S
C394 H386 0.930 . S
C394 C393 1.362 . S
C394 C397 1.409 . S
C395 H387 0.930 . S
C395 C396 1.355 . S
C395 C397 1.415 1_455 S
C396 C395 1.355 . S
C396 C398 1.419 . S
C397 C392 1.425 . S
C397 C394 1.409 . S
C397 C395 1.415 1_655 S
C398 H388 0.930 . S
C398 C396 1.419 . S
C398 C399 1.362 1_455 S
C399 H389 0.930 . S
C399 C392 1.409 . S
C399 C398 1.362 1_655 S
H400 C406 0.930 . S
H401 C409 0.930 . S
H402 C410 0.930 . S
H403 C411 0.930 . S
H404 C414 0.930 1_565 S
H405 C415 0.930 . S
C406 H400 0.930 . S
C406 C407 1.355 . S
C406 C408 1.415 . S
C407 C406 1.355 . S
C407 C409 1.419 . S
C408 C406 1.415 . S
C408 C413 1.425 . S
C408 C415 1.409 . S
C409 H401 0.930 . S
C409 C407 1.419 . S
C409 C410 1.362 . S
C410 H402 0.930 . S
C410 C409 1.362 . S
C410 C413 1.409 . S
C411 H403 0.930 . S
C411 C412 1.355 . S
C411 C413 1.415 . S
C412 C411 1.355 . S
C412 C414 1.419 . S
C413 C408 1.425 . S
C413 C410 1.409 . S
C413 C411 1.415 . S
C414 H404 0.930 1_545 S
C414 C412 1.419 . S
C414 C415 1.362 . S
C415 H405 0.930 . S
C415 C408 1.409 . S
C415 C414 1.362 . S
H416 C422 0.930 1_455 S
H417 C425 0.930 . S
H418 C426 0.930 . S
H419 C427 0.930 . S
H420 C430 0.930 . S
H421 C431 0.930 . S
C422 H416 0.930 1_655 S
C422 C423 1.355 . S
C422 C424 1.415 . S
C423 C422 1.355 . S
C423 C425 1.419 . S
C424 C422 1.415 . S
C424 C429 1.425 . S
C424 C431 1.409 . S
C425 H417 0.930 . S
C425 C423 1.419 . S
C425 C426 1.362 . S
C426 H418 0.930 . S
C426 C425 1.362 . S
C426 C429 1.409 . S
C427 H419 0.930 . S
C427 C428 1.355 1_545 S
C427 C429 1.415 . S
C428 C427 1.355 1_565 S
C428 C430 1.419 . S
C429 C424 1.425 . S
C429 C426 1.409 . S
C429 C427 1.415 . S
C430 H420 0.930 . S
C430 C428 1.419 . S
C430 C431 1.362 1_565 S
C431 H421 0.930 . S
C431 C424 1.409 . S
C431 C430 1.362 1_545 S
H432 C438 0.930 . S
H433 C441 0.930 . S
H434 C442 0.930 . S
H435 C443 0.930 . S
H436 C446 0.930 . S
H437 C447 0.930 . S
C438 H432 0.930 . S
C438 C439 1.355 . S
C438 C440 1.415 . S
C439 C438 1.355 . S
C439 C441 1.419 . S
C440 C438 1.415 . S
C440 C445 1.425 . S
C440 C447 1.409 . S
C441 H433 0.930 . S
C441 C439 1.419 . S
C441 C442 1.362 . S
C442 H434 0.930 . S
C442 C441 1.362 . S
C442 C445 1.409 . S
C443 H435 0.930 . S
C443 C444 1.355 . S
C443 C445 1.415 . S
C444 C443 1.355 . S
C444 C446 1.419 . S
C445 C440 1.425 . S
C445 C442 1.409 . S
C445 C443 1.415 . S
C446 H436 0.930 . S
C446 C444 1.419 . S
C446 C447 1.362 . S
C447 H437 0.930 . S
C447 C440 1.409 . S
C447 C446 1.362 . S
H448 C454 0.930 . S
H449 C457 0.930 . S
H450 C458 0.930 . S
H451 C459 0.930 . S
H452 C462 0.930 . S
H453 C463 0.930 . S
C454 H448 0.930 . S
C454 C455 1.355 . S
C454 C456 1.415 . S
C455 C454 1.355 . S
C455 C457 1.419 . S
C456 C454 1.415 . S
C456 C461 1.425 . S
C456 C463 1.409 . S
C457 H449 0.930 . S
C457 C455 1.419 . S
C457 C458 1.362 . S
C458 H450 0.930 . S
C458 C457 1.362 . S
C458 C461 1.409 . S
C459 H451 0.930 . S
C459 C460 1.355 . S
C459 C461 1.415 . S
C460 C459 1.355 . S
C460 C462 1.419 . S
C461 C456 1.425 . S
C461 C458 1.409 . S
C461 C459 1.415 . S
C462 H452 0.930 . S
C462 C460 1.419 . S
C462 C463 1.362 . S
C463 H453 0.930 . S
C463 C456 1.409 . S
C463 C462 1.362 . S
H464 C470 0.930 . S
H465 C473 0.930 . S
H466 C474 0.930 . S
H467 C475 0.930 . S
H468 C478 0.930 . S
H469 C479 0.930 . S
C470 H464 0.930 . S
C470 C471 1.355 . S
C470 C472 1.415 . S
C471 C470 1.355 . S
C471 C473 1.419 . S
C472 C470 1.415 . S
C472 C477 1.425 . S
C472 C479 1.409 . S
C473 H465 0.930 . S
C473 C471 1.419 . S
C473 C474 1.362 . S
C474 H466 0.930 . S
C474 C473 1.362 . S
C474 C477 1.409 . S
C475 H467 0.930 . S
C475 C476 1.355 . S
C475 C477 1.415 . S
C476 C475 1.355 . S
C476 C478 1.419 . S
C477 C472 1.425 . S
C477 C474 1.409 . S
C477 C475 1.415 . S
C478 H468 0.930 . S
C478 C476 1.419 . S
C478 C479 1.362 . S
C479 H469 0.930 . S
C479 C472 1.409 . S
C479 C478 1.362 . S
H480 C486 0.930 . S
H481 C489 0.930 . S
H482 C490 0.930 . S
H483 C491 0.930 . S
H484 C494 0.930 . S
H485 C495 0.930 . S
C486 H480 0.930 . S
C486 C487 1.355 . S
C486 C488 1.415 . S
C487 C486 1.355 . S
C487 C489 1.419 . S
C488 C486 1.415 . S
C488 C493 1.425 . S
C488 C495 1.409 . S
C489 H481 0.930 . S
C489 C487 1.419 . S
C489 C490 1.362 . S
C490 H482 0.930 . S
C490 C489 1.362 . S
C490 C493 1.409 . S
C491 H483 0.930 . S
C491 C492 1.355 . S
C491 C493 1.415 . S
C492 C491 1.355 . S
C492 C494 1.419 . S
C493 C488 1.425 . S
C493 C490 1.409 . S
C493 C491 1.415 . S
C494 H484 0.930 . S
C494 C492 1.419 . S
C494 C495 1.362 . S
C495 H485 0.930 . S
C495 C488 1.409 . S
C495 C494 1.362 . S
H496 C502 0.930 . S
H497 C505 0.930 . S
H498 C506 0.930 . S
H499 C507 0.930 . S
H500 C510 0.930 . S
H501 C511 0.930 . S
C502 H496 0.930 . S
C502 C503 1.355 . S
C502 C504 1.415 . S
C503 C502 1.355 . S
C503 C505 1.419 . S
C504 C502 1.415 . S
C504 C509 1.425 . S
C504 C511 1.409 . S
C505 H497 0.930 . S
C505 C503 1.419 . S
C505 C506 1.362 . S
C506 H498 0.930 . S
C506 C505 1.362 . S
C506 C509 1.409 . S
C507 H499 0.930 . S
C507 C508 1.355 . S
C507 C509 1.415 . S
C508 C507 1.355 . S
C508 C510 1.419 . S
C509 C504 1.425 . S
C509 C506 1.409 . S
C509 C507 1.415 . S
C510 H500 0.930 . S
C510 C508 1.419 . S
C510 C511 1.362 . S
C511 H501 0.930 . S
C511 C504 1.409 . S
C511 C510 1.362 . S
H512 C518 0.930 . S
H513 C521 0.930 . S
H514 C522 0.930 . S
H515 C523 0.930 . S
H516 C526 0.930 . S
H517 C527 0.930 . S
C518 H512 0.930 . S
C518 C519 1.355 . S
C518 C520 1.415 . S
C519 C518 1.355 . S
C519 C521 1.419 . S
C520 C518 1.415 . S
C520 C525 1.425 . S
C520 C527 1.409 . S
C521 H513 0.930 . S
C521 C519 1.419 . S
C521 C522 1.362 . S
C522 H514 0.930 . S
C522 C521 1.362 . S
C522 C525 1.409 . S
C523 H515 0.930 . S
C523 C524 1.355 . S
C523 C525 1.415 . S
C524 C523 1.355 . S
C524 C526 1.419 . S
C525 C520 1.425 . S
C525 C522 1.409 . S
C525 C523 1.415 . S
C526 H516 0.930 . S
C526 C524 1.419 . S
C526 C527 1.362 . S
C527 H517 0.930 . S
C527 C520 1.409 . S
C527 C526 1.362 . S
H528 C534 0.930 . S
H529 C537 0.930 . S
H530 C538 0.930 . S
H531 C539 0.930 . S
H532 C542 0.930 . S
H533 C543 0.930 . S
C534 H528 0.930 . S
C534 C535 1.355 . S
C534 C536 1.415 . S
C535 C534 1.355 . S
C535 C537 1.419 . S
C536 C534 1.415 . S
C536 C541 1.425 . S
C536 C543 1.409 . S
C537 H529 0.930 . S
C537 C535 1.419 . S
C537 C538 1.362 . S
C538 H530 0.930 . S
C538 C537 1.362 . S
C538 C541 1.409 . S
C539 H531 0.930 . S
C539 C540 1.355 . S
C539 C541 1.415 1_545 S
C540 C539 1.355 . S
C540 C542 1.419 . S
C541 C536 1.425 . S
C541 C538 1.409 . S
C541 C539 1.415 1_565 S
C542 H532 0.930 . S
C542 C540 1.419 . S
C542 C543 1.362 1_545 S
C543 H533 0.930 . S
C543 C536 1.409 . S
C543 C542 1.362 1_565 S
H544 C550 0.930 . S
H545 C553 0.932 . S
H546 C554 0.930 . S
H547 C555 0.930 . S
H548 C558 0.930 . S
H549 C559 0.930 . S
C550 H544 0.930 . S
C550 C551 1.355 1_455 S
C550 C552 1.415 . S
C551 C550 1.355 1_655 S
C551 C553 1.419 1_655 S
C552 C550 1.415 . S
C552 C557 1.425 . S
C552 C559 1.409 . S
C553 H545 0.932 . S
C553 C551 1.419 1_455 S
C553 C554 1.362 . S
C554 H546 0.930 . S
C554 C553 1.362 . S
C554 C557 1.409 . S
C555 H547 0.930 . S
C555 C556 1.355 . S
C555 C557 1.415 . S
C556 C555 1.355 . S
C556 C558 1.419 1_565 S
C557 C552 1.425 . S
C557 C554 1.409 . S
C557 C555 1.415 . S
C558 H548 0.930 . S
C558 C556 1.419 1_545 S
C558 C559 1.362 1_545 S
C559 H549 0.930 . S
C559 C552 1.409 . S
C559 C558 1.362 1_565 S
H560 C566 0.930 . S
H561 C569 0.930 . S
H562 C570 0.930 . S
H563 C571 0.930 . S
H564 C574 0.930 . S
H565 C575 0.930 . S
C566 H560 0.930 . S
C566 C567 1.355 . S
C566 C568 1.415 . S
C567 C566 1.355 . S
C567 C569 1.419 . S
C568 C566 1.415 . S
C568 C573 1.425 . S
C568 C575 1.409 . S
C569 H561 0.930 . S
C569 C567 1.419 . S
C569 C570 1.362 . S
C570 H562 0.930 . S
C570 C569 1.362 . S
C570 C573 1.409 . S
C571 H563 0.930 . S
C571 C572 1.355 . S
C571 C573 1.415 . S
C572 C571 1.355 . S
C572 C574 1.419 . S
C573 C568 1.425 . S
C573 C570 1.409 . S
C573 C571 1.415 . S
C574 H564 0.930 . S
C574 C572 1.419 . S
C574 C575 1.362 . S
C575 H565 0.930 . S
C575 C568 1.409 . S
C575 C574 1.362 . S
H576 C582 0.930 . S
H577 C585 0.930 . S
H578 C586 0.930 . S
H579 C587 0.930 . S
H580 C590 0.930 . S
H581 C591 0.930 . S
C582 H576 0.930 . S
C582 C583 1.355 . S
C582 C584 1.415 . S
C583 C582 1.355 . S
C583 C585 1.419 . S
C584 C582 1.415 . S
C584 C589 1.425 . S
C584 C591 1.409 . S
C585 H577 0.930 . S
C585 C583 1.419 . S
C585 C586 1.362 . S
C586 H578 0.930 . S
C586 C585 1.362 . S
C586 C589 1.409 . S
C587 H579 0.930 . S
C587 C588 1.355 . S
C587 C589 1.415 . S
C588 C587 1.355 . S
C588 C590 1.419 . S
C589 C584 1.425 . S
C589 C586 1.409 . S
C589 C587 1.415 . S
C590 H580 0.930 . S
C590 C588 1.419 . S
C590 C591 1.362 . S
C591 H581 0.930 . S
C591 C584 1.409 . S
C591 C590 1.362 . S
H592 C598 0.930 . S
H593 C601 0.930 . S
H594 C602 0.930 . S
H595 C603 0.930 . S
H596 C606 0.930 . S
H597 C607 0.930 . S
C598 H592 0.930 . S
C598 C599 1.355 . S
C598 C600 1.415 . S
C599 C598 1.355 . S
C599 C601 1.419 . S
C600 C598 1.415 . S
C600 C605 1.425 . S
C600 C607 1.409 . S
C601 H593 0.930 . S
C601 C599 1.419 . S
C601 C602 1.362 . S
C602 H594 0.930 . S
C602 C601 1.362 . S
C602 C605 1.409 . S
C603 H595 0.930 . S
C603 C604 1.355 . S
C603 C605 1.415 . S
C604 C603 1.355 . S
C604 C606 1.419 . S
C605 C600 1.425 . S
C605 C602 1.409 . S
C605 C603 1.415 . S
C606 H596 0.930 . S
C606 C604 1.419 . S
C606 C607 1.362 . S
C607 H597 0.930 . S
C607 C600 1.409 . S
C607 C606 1.362 . S
H608 C614 0.930 . S
H609 C617 0.930 . S
H610 C618 0.930 1_545 S
H611 C619 0.930 . S
H612 C622 0.930 . S
H613 C623 0.930 . S
C614 H608 0.930 . S
C614 C615 1.355 . S
C614 C616 1.415 . S
C615 C614 1.355 . S
C615 C617 1.419 1_565 S
C616 C614 1.415 . S
C616 C621 1.425 . S
C616 C623 1.409 . S
C617 H609 0.930 . S
C617 C615 1.419 1_545 S
C617 C618 1.362 1_545 S
C618 H610 0.930 1_565 S
C618 C617 1.362 1_565 S
C618 C621 1.409 . S
C619 H611 0.930 . S
C619 C620 1.355 . S
C619 C621 1.415 . S
C620 C619 1.355 . S
C620 C622 1.419 . S
C621 C616 1.425 . S
C621 C618 1.409 . S
C621 C619 1.415 . S
C622 H612 0.930 . S
C622 C620 1.419 . S
C622 C623 1.362 . S
C623 H613 0.930 . S
C623 C616 1.409 . S
C623 C622 1.362 . S
H624 C630 0.930 . S
H625 C633 0.930 . S
H626 C634 0.930 . S
H627 C635 0.930 . S
H628 C638 0.930 . S
H629 C639 0.930 . S
C630 H624 0.930 . S
C630 C631 1.355 . S
C630 C632 1.415 . S
C631 C630 1.355 . S
C631 C633 1.419 . S
C632 C630 1.415 . S
C632 C637 1.425 . S
C632 C639 1.409 . S
C633 H625 0.930 . S
C633 C631 1.419 . S
C633 C634 1.362 . S
C634 H626 0.930 . S
C634 C633 1.362 . S
C634 C637 1.409 . S
C635 H627 0.930 . S
C635 C636 1.355 . S
C635 C637 1.415 . S
C636 C635 1.355 . S
C636 C638 1.419 . S
C637 C632 1.425 . S
C637 C634 1.409 . S
C637 C635 1.415 . S
C638 H628 0.930 . S
C638 C636 1.419 . S
C638 C639 1.362 . S
C639 H629 0.930 . S
C639 C632 1.409 . S
C639 C638 1.362 . S
H640 C646 0.930 . S
H641 C649 0.930 . S
H642 C650 0.930 . S
H643 C651 0.930 . S
H644 C654 0.930 . S
H645 C655 0.930 . S
C646 H640 0.930 . S
C646 C647 1.355 . S
C646 C648 1.415 . S
C647 C646 1.355 . S
C647 C649 1.419 . S
C648 C646 1.415 . S
C648 C653 1.425 . S
C648 C655 1.409 . S
C649 H641 0.930 . S
C649 C647 1.419 . S
C649 C650 1.362 . S
C650 H642 0.930 . S
C650 C649 1.362 . S
C650 C653 1.409 . S
C651 H643 0.930 . S
C651 C652 1.355 . S
C651 C653 1.415 . S
C652 C651 1.355 . S
C652 C654 1.419 . S
C653 C648 1.425 . S
C653 C650 1.409 . S
C653 C651 1.415 . S
C654 H644 0.930 . S
C654 C652 1.419 . S
C654 C655 1.362 . S
C655 H645 0.930 . S
C655 C648 1.409 . S
C655 C654 1.362 . S
H656 C662 0.930 . S
H657 C665 0.930 . S
H658 C666 0.930 . S
H659 C667 0.930 . S
H660 C670 0.930 . S
H661 C671 0.930 . S
C662 H656 0.930 . S
C662 C663 1.355 . S
C662 C664 1.415 . S
C663 C662 1.355 . S
C663 C665 1.419 . S
C664 C662 1.415 . S
C664 C669 1.425 . S
C664 C671 1.409 . S
C665 H657 0.930 . S
C665 C663 1.419 . S
C665 C666 1.362 . S
C666 H658 0.930 . S
C666 C665 1.362 . S
C666 C669 1.409 . S
C667 H659 0.930 . S
C667 C668 1.355 . S
C667 C669 1.415 . S
C668 C667 1.355 . S
C668 C670 1.419 . S
C669 C664 1.425 . S
C669 C666 1.409 . S
C669 C667 1.415 . S
C670 H660 0.930 . S
C670 C668 1.419 . S
C670 C671 1.362 . S
C671 H661 0.930 . S
C671 C664 1.409 . S
C671 C670 1.362 . S
H672 C678 0.930 . S
H673 C681 0.930 . S
H674 C682 0.930 . S
H675 C683 0.930 . S
H676 C686 0.930 . S
H677 C687 0.930 . S
C678 H672 0.930 . S
C678 C679 1.355 . S
C678 C680 1.415 . S
C679 C678 1.355 . S
C679 C681 1.419 . S
C680 C678 1.415 . S
C680 C685 1.425 . S
C680 C687 1.409 . S
C681 H673 0.930 . S
C681 C679 1.419 . S
C681 C682 1.362 . S
C682 H674 0.930 . S
C682 C681 1.362 . S
C682 C685 1.409 . S
C683 H675 0.930 . S
C683 C684 1.355 . S
C683 C685 1.415 . S
C684 C683 1.355 . S
C684 C686 1.419 . S
C685 C680 1.425 . S
C685 C682 1.409 . S
C685 C683 1.415 . S
C686 H676 0.930 . S
C686 C684 1.419 . S
C686 C687 1.362 . S
C687 H677 0.930 . S
C687 C680 1.409 . S
C687 C686 1.362 . S
H688 C694 0.930 . S
H689 C697 0.930 . S
H690 C698 0.930 . S
H691 C699 0.930 . S
H692 C702 0.930 . S
H693 C703 0.930 . S
C694 H688 0.930 . S
C694 C695 1.355 . S
C694 C696 1.415 . S
C695 C694 1.355 . S
C695 C697 1.419 1_565 S
C696 C694 1.415 . S
C696 C701 1.425 1_565 S
C696 C703 1.409 . S
C697 H689 0.930 . S
C697 C695 1.419 1_545 S
C697 C698 1.362 . S
C698 H690 0.930 . S
C698 C697 1.362 . S
C698 C701 1.409 . S
C699 H691 0.930 . S
C699 C700 1.355 . S
C699 C701 1.415 . S
C700 C699 1.355 . S
C700 C702 1.419 . S
C701 C696 1.425 1_545 S
C701 C698 1.409 . S
C701 C699 1.415 . S
C702 H692 0.930 . S
C702 C700 1.419 . S
C702 C703 1.362 1_545 S
C703 H693 0.930 . S
C703 C696 1.409 . S
C703 C702 1.362 1_565 S
H704 C710 0.930 . S
H705 C713 0.930 . S
H706 C714 0.930 . S
H707 C715 0.930 . S
H708 C718 0.930 . S
H709 C719 0.930 . S
C710 H704 0.930 . S
C710 C711 1.355 . S
C710 C712 1.415 1_655 S
C711 C710 1.355 . S
C711 C713 1.419 . S
C712 C710 1.415 1_455 S
C712 C717 1.425 . S
C712 C719 1.409 . S
C713 H705 0.930 . S
C713 C711 1.419 . S
C713 C714 1.362 1_655 S
C714 H706 0.930 . S
C714 C713 1.362 1_455 S
C714 C717 1.409 . S
C715 H707 0.930 . S
C715 C716 1.355 . S
C715 C717 1.415 . S
C716 C715 1.355 . S
C716 C718 1.419 . S
C717 C712 1.425 . S
C717 C714 1.409 . S
C717 C715 1.415 . S
C718 H708 0.930 . S
C718 C716 1.419 . S
C718 C719 1.362 . S
C719 H709 0.930 . S
C719 C712 1.409 . S
C719 C718 1.362 . S
C295 C36 1.160 . S
C300 C2 1.136 . S
C311 C93 1.150 . S
C316 C34 1.124 . S
C327 C70 1.183 . S
C332 C4 1.183 . S
C343 C66 1.163 . S
C348 C61 1.176 . S
C359 C68 1.183 . S
C364 C6 1.184 . S
C375 C29 1.157 . S
C380 C38 1.139 . S
C391 C98 1.147 . S
C396 C157 1.167 . S
C407 C164 1.150 . S
C412 C134 1.125 . S
C423 C162 1.186 1_655 S
C428 C100 1.185 . S
C439 C132 1.154 . S
C444 C166 1.133 . S
C455 C189 1.150 . S
C460 C102 1.123 . S
C471 C130 1.123 . S
C476 C125 1.150 . S
C487 C253 1.157 . S
C492 C198 1.140 . S
C503 C230 1.129 . S
C508 C260 1.156 . S
C519 C258 1.188 . S
C524 C221 1.188 . S
C535 C262 1.181 . S
C540 C228 1.185 . S
C551 C285 1.159 . S
C556 C194 1.143 1_565 S
C567 C196 1.165 . S
C572 C226 1.144 . S
C583 N173 1.819 . S
C588 N18 1.808 . S
C599 N109 1.807 . S
C604 N50 1.820 . S
C615 N77 1.808 . S
C620 N146 1.836 . S
C631 N82 1.819 . S
C636 N205 1.827 . S
C647 N13 1.824 . S
C652 N237 1.803 . S
C663 N274 1.796 . S
C668 N45 1.843 . S
C679 N114 1.795 . S
C684 N269 1.835 . S
C695 N141 1.802 . S
C700 N210 1.826 . S
C711 N242 1.793 . S
C716 N178 1.841 . S
