# Generated by pormake.
# Topology wmy, (6)-cn, num edge types: 1
# Building blocks:
#     Node 0, Type 0, BuildingBlock: IZENUY_clean_sbu_0, # of connection points: 6
#     Node 1, Type 0, BuildingBlock: IZENUY_clean_sbu_0, # of connection points: 6
#     Node 2, Type 0, BuildingBlock: IZENUY_clean_sbu_0, # of connection points: 6
#     Node 3, Type 0, BuildingBlock: IZENUY_clean_sbu_0, # of connection points: 6
#     Node 4, Type 0, BuildingBlock: IZENUY_clean_sbu_0, # of connection points: 6
#     Node 5, Type 0, BuildingBlock: IZENUY_clean_sbu_0, # of connection points: 6
#     Node 6, Type 0, BuildingBlock: IZENUY_clean_sbu_0, # of connection points: 6
#     Node 7, Type 0, BuildingBlock: IZENUY_clean_sbu_0, # of connection points: 6
#     Node 8, Type 0, BuildingBlock: IZENUY_clean_sbu_0, # of connection points: 6
#     Node 9, Type 0, BuildingBlock: IZENUY_clean_sbu_0, # of connection points: 6
#     Node 10, Type 0, BuildingBlock: IZENUY_clean_sbu_0, # of connection points: 6
#     Node 11, Type 0, BuildingBlock: IZENUY_clean_sbu_0, # of connection points: 6
#     Node 12, Type 0, BuildingBlock: IZENUY_clean_sbu_0, # of connection points: 6
#     Node 13, Type 0, BuildingBlock: IZENUY_clean_sbu_0, # of connection points: 6
#     Node 14, Type 0, BuildingBlock: IZENUY_clean_sbu_0, # of connection points: 6
#     Node 15, Type 0, BuildingBlock: IZENUY_clean_sbu_0, # of connection points: 6
#     Node 16, Type 0, BuildingBlock: IZENUY_clean_sbu_0, # of connection points: 6
#     Node 17, Type 0, BuildingBlock: IZENUY_clean_sbu_0, # of connection points: 6
#     Node 18, Type 0, BuildingBlock: IZENUY_clean_sbu_0, # of connection points: 6
#     Node 19, Type 0, BuildingBlock: IZENUY_clean_sbu_0, # of connection points: 6
#     Node 20, Type 0, BuildingBlock: IZENUY_clean_sbu_0, # of connection points: 6
#     Node 21, Type 0, BuildingBlock: IZENUY_clean_sbu_0, # of connection points: 6
#     Node 22, Type 0, BuildingBlock: IZENUY_clean_sbu_0, # of connection points: 6
#     Node 23, Type 0, BuildingBlock: IZENUY_clean_sbu_0, # of connection points: 6
#     Node 24, Type 0, BuildingBlock: IZENUY_clean_sbu_0, # of connection points: 6
#     Node 25, Type 0, BuildingBlock: IZENUY_clean_sbu_0, # of connection points: 6
#     Node 26, Type 0, BuildingBlock: IZENUY_clean_sbu_0, # of connection points: 6
#     Node 27, Type 0, BuildingBlock: IZENUY_clean_sbu_0, # of connection points: 6
#     Node 28, Type 0, BuildingBlock: IZENUY_clean_sbu_0, # of connection points: 6
#     Node 29, Type 0, BuildingBlock: IZENUY_clean_sbu_0, # of connection points: 6
#     Node 30, Type 0, BuildingBlock: IZENUY_clean_sbu_0, # of connection points: 6
#     Node 31, Type 0, BuildingBlock: IZENUY_clean_sbu_0, # of connection points: 6
#     Node 32, Type 0, BuildingBlock: IZENUY_clean_sbu_0, # of connection points: 6
#     Node 33, Type 0, BuildingBlock: IZENUY_clean_sbu_0, # of connection points: 6
#     Node 34, Type 0, BuildingBlock: IZENUY_clean_sbu_0, # of connection points: 6
#     Node 35, Type 0, BuildingBlock: IZENUY_clean_sbu_0, # of connection points: 6
#     Edge 36, Type (0, 0), BuildingBlock: KIFKEQ_clean_linker_1, # of connection points: 2
#     Edge 37, Type (0, 0), BuildingBlock: KIFKEQ_clean_linker_1, # of connection points: 2
#     Edge 38, Type (0, 0), BuildingBlock: KIFKEQ_clean_linker_1, # of connection points: 2
#     Edge 39, Type (0, 0), BuildingBlock: KIFKEQ_clean_linker_1, # of connection points: 2
#     Edge 40, Type (0, 0), BuildingBlock: KIFKEQ_clean_linker_1, # of connection points: 2
#     Edge 41, Type (0, 0), BuildingBlock: KIFKEQ_clean_linker_1, # of connection points: 2
#     Edge 42, Type (0, 0), BuildingBlock: KIFKEQ_clean_linker_1, # of connection points: 2
#     Edge 43, Type (0, 0), BuildingBlock: KIFKEQ_clean_linker_1, # of connection points: 2
#     Edge 44, Type (0, 0), BuildingBlock: KIFKEQ_clean_linker_1, # of connection points: 2
#     Edge 45, Type (0, 0), BuildingBlock: KIFKEQ_clean_linker_1, # of connection points: 2
#     Edge 46, Type (0, 0), BuildingBlock: KIFKEQ_clean_linker_1, # of connection points: 2
#     Edge 47, Type (0, 0), BuildingBlock: KIFKEQ_clean_linker_1, # of connection points: 2
#     Edge 48, Type (0, 0), BuildingBlock: KIFKEQ_clean_linker_1, # of connection points: 2
#     Edge 49, Type (0, 0), BuildingBlock: KIFKEQ_clean_linker_1, # of connection points: 2
#     Edge 50, Type (0, 0), BuildingBlock: KIFKEQ_clean_linker_1, # of connection points: 2
#     Edge 51, Type (0, 0), BuildingBlock: KIFKEQ_clean_linker_1, # of connection points: 2
#     Edge 52, Type (0, 0), BuildingBlock: KIFKEQ_clean_linker_1, # of connection points: 2
#     Edge 53, Type (0, 0), BuildingBlock: KIFKEQ_clean_linker_1, # of connection points: 2
#     Edge 54, Type (0, 0), BuildingBlock: KIFKEQ_clean_linker_1, # of connection points: 2
#     Edge 55, Type (0, 0), BuildingBlock: KIFKEQ_clean_linker_1, # of connection points: 2
#     Edge 56, Type (0, 0), BuildingBlock: KIFKEQ_clean_linker_1, # of connection points: 2
#     Edge 57, Type (0, 0), BuildingBlock: KIFKEQ_clean_linker_1, # of connection points: 2
#     Edge 58, Type (0, 0), BuildingBlock: KIFKEQ_clean_linker_1, # of connection points: 2
#     Edge 59, Type (0, 0), BuildingBlock: KIFKEQ_clean_linker_1, # of connection points: 2
#     Edge 60, Type (0, 0), BuildingBlock: KIFKEQ_clean_linker_1, # of connection points: 2
#     Edge 61, Type (0, 0), BuildingBlock: KIFKEQ_clean_linker_1, # of connection points: 2
#     Edge 62, Type (0, 0), BuildingBlock: KIFKEQ_clean_linker_1, # of connection points: 2
#     Edge 63, Type (0, 0), BuildingBlock: KIFKEQ_clean_linker_1, # of connection points: 2
#     Edge 64, Type (0, 0), BuildingBlock: KIFKEQ_clean_linker_1, # of connection points: 2
#     Edge 65, Type (0, 0), BuildingBlock: KIFKEQ_clean_linker_1, # of connection points: 2
#     Edge 66, Type (0, 0), BuildingBlock: KIFKEQ_clean_linker_1, # of connection points: 2
#     Edge 67, Type (0, 0), BuildingBlock: KIFKEQ_clean_linker_1, # of connection points: 2
#     Edge 68, Type (0, 0), BuildingBlock: KIFKEQ_clean_linker_1, # of connection points: 2
#     Edge 69, Type (0, 0), BuildingBlock: KIFKEQ_clean_linker_1, # of connection points: 2
#     Edge 70, Type (0, 0), BuildingBlock: KIFKEQ_clean_linker_1, # of connection points: 2
#     Edge 71, Type (0, 0), BuildingBlock: KIFKEQ_clean_linker_1, # of connection points: 2
#     Edge 72, Type (0, 0), BuildingBlock: KIFKEQ_clean_linker_1, # of connection points: 2
#     Edge 73, Type (0, 0), BuildingBlock: KIFKEQ_clean_linker_1, # of connection points: 2
#     Edge 74, Type (0, 0), BuildingBlock: KIFKEQ_clean_linker_1, # of connection points: 2
#     Edge 75, Type (0, 0), BuildingBlock: KIFKEQ_clean_linker_1, # of connection points: 2
#     Edge 76, Type (0, 0), BuildingBlock: KIFKEQ_clean_linker_1, # of connection points: 2
#     Edge 77, Type (0, 0), BuildingBlock: KIFKEQ_clean_linker_1, # of connection points: 2
#     Edge 78, Type (0, 0), BuildingBlock: KIFKEQ_clean_linker_1, # of connection points: 2
#     Edge 79, Type (0, 0), BuildingBlock: KIFKEQ_clean_linker_1, # of connection points: 2
#     Edge 80, Type (0, 0), BuildingBlock: KIFKEQ_clean_linker_1, # of connection points: 2
#     Edge 81, Type (0, 0), BuildingBlock: KIFKEQ_clean_linker_1, # of connection points: 2
#     Edge 82, Type (0, 0), BuildingBlock: KIFKEQ_clean_linker_1, # of connection points: 2
#     Edge 83, Type (0, 0), BuildingBlock: KIFKEQ_clean_linker_1, # of connection points: 2
#     Edge 84, Type (0, 0), BuildingBlock: KIFKEQ_clean_linker_1, # of connection points: 2
#     Edge 85, Type (0, 0), BuildingBlock: KIFKEQ_clean_linker_1, # of connection points: 2
#     Edge 86, Type (0, 0), BuildingBlock: KIFKEQ_clean_linker_1, # of connection points: 2
#     Edge 87, Type (0, 0), BuildingBlock: KIFKEQ_clean_linker_1, # of connection points: 2
#     Edge 88, Type (0, 0), BuildingBlock: KIFKEQ_clean_linker_1, # of connection points: 2
#     Edge 89, Type (0, 0), BuildingBlock: KIFKEQ_clean_linker_1, # of connection points: 2
#     Edge 90, Type (0, 0), BuildingBlock: KIFKEQ_clean_linker_1, # of connection points: 2
#     Edge 91, Type (0, 0), BuildingBlock: KIFKEQ_clean_linker_1, # of connection points: 2
#     Edge 92, Type (0, 0), BuildingBlock: KIFKEQ_clean_linker_1, # of connection points: 2
#     Edge 93, Type (0, 0), BuildingBlock: KIFKEQ_clean_linker_1, # of connection points: 2
#     Edge 94, Type (0, 0), BuildingBlock: KIFKEQ_clean_linker_1, # of connection points: 2
#     Edge 95, Type (0, 0), BuildingBlock: KIFKEQ_clean_linker_1, # of connection points: 2
#     Edge 96, Type (0, 0), BuildingBlock: KIFKEQ_clean_linker_1, # of connection points: 2
#     Edge 97, Type (0, 0), BuildingBlock: KIFKEQ_clean_linker_1, # of connection points: 2
#     Edge 98, Type (0, 0), BuildingBlock: KIFKEQ_clean_linker_1, # of connection points: 2
#     Edge 99, Type (0, 0), BuildingBlock: KIFKEQ_clean_linker_1, # of connection points: 2
#     Edge 100, Type (0, 0), BuildingBlock: KIFKEQ_clean_linker_1, # of connection points: 2
#     Edge 101, Type (0, 0), BuildingBlock: KIFKEQ_clean_linker_1, # of connection points: 2
#     Edge 102, Type (0, 0), BuildingBlock: KIFKEQ_clean_linker_1, # of connection points: 2
#     Edge 103, Type (0, 0), BuildingBlock: KIFKEQ_clean_linker_1, # of connection points: 2
#     Edge 104, Type (0, 0), BuildingBlock: KIFKEQ_clean_linker_1, # of connection points: 2
#     Edge 105, Type (0, 0), BuildingBlock: KIFKEQ_clean_linker_1, # of connection points: 2
#     Edge 106, Type (0, 0), BuildingBlock: KIFKEQ_clean_linker_1, # of connection points: 2
#     Edge 107, Type (0, 0), BuildingBlock: KIFKEQ_clean_linker_1, # of connection points: 2
#     Edge 108, Type (0, 0), BuildingBlock: KIFKEQ_clean_linker_1, # of connection points: 2
#     Edge 109, Type (0, 0), BuildingBlock: KIFKEQ_clean_linker_1, # of connection points: 2
#     Edge 110, Type (0, 0), BuildingBlock: KIFKEQ_clean_linker_1, # of connection points: 2
#     Edge 111, Type (0, 0), BuildingBlock: KIFKEQ_clean_linker_1, # of connection points: 2
#     Edge 112, Type (0, 0), BuildingBlock: KIFKEQ_clean_linker_1, # of connection points: 2
#     Edge 113, Type (0, 0), BuildingBlock: KIFKEQ_clean_linker_1, # of connection points: 2
#     Edge 114, Type (0, 0), BuildingBlock: KIFKEQ_clean_linker_1, # of connection points: 2
#     Edge 115, Type (0, 0), BuildingBlock: KIFKEQ_clean_linker_1, # of connection points: 2
#     Edge 116, Type (0, 0), BuildingBlock: KIFKEQ_clean_linker_1, # of connection points: 2
#     Edge 117, Type (0, 0), BuildingBlock: KIFKEQ_clean_linker_1, # of connection points: 2
#     Edge 118, Type (0, 0), BuildingBlock: KIFKEQ_clean_linker_1, # of connection points: 2
#     Edge 119, Type (0, 0), BuildingBlock: KIFKEQ_clean_linker_1, # of connection points: 2
#     Edge 120, Type (0, 0), BuildingBlock: KIFKEQ_clean_linker_1, # of connection points: 2
#     Edge 121, Type (0, 0), BuildingBlock: KIFKEQ_clean_linker_1, # of connection points: 2
#     Edge 122, Type (0, 0), BuildingBlock: KIFKEQ_clean_linker_1, # of connection points: 2
#     Edge 123, Type (0, 0), BuildingBlock: KIFKEQ_clean_linker_1, # of connection points: 2
#     Edge 124, Type (0, 0), BuildingBlock: KIFKEQ_clean_linker_1, # of connection points: 2
#     Edge 125, Type (0, 0), BuildingBlock: KIFKEQ_clean_linker_1, # of connection points: 2
#     Edge 126, Type (0, 0), BuildingBlock: KIFKEQ_clean_linker_1, # of connection points: 2
#     Edge 127, Type (0, 0), BuildingBlock: KIFKEQ_clean_linker_1, # of connection points: 2
#     Edge 128, Type (0, 0), BuildingBlock: KIFKEQ_clean_linker_1, # of connection points: 2
#     Edge 129, Type (0, 0), BuildingBlock: KIFKEQ_clean_linker_1, # of connection points: 2
#     Edge 130, Type (0, 0), BuildingBlock: KIFKEQ_clean_linker_1, # of connection points: 2
#     Edge 131, Type (0, 0), BuildingBlock: KIFKEQ_clean_linker_1, # of connection points: 2
#     Edge 132, Type (0, 0), BuildingBlock: KIFKEQ_clean_linker_1, # of connection points: 2
#     Edge 133, Type (0, 0), BuildingBlock: KIFKEQ_clean_linker_1, # of connection points: 2
#     Edge 134, Type (0, 0), BuildingBlock: KIFKEQ_clean_linker_1, # of connection points: 2
#     Edge 135, Type (0, 0), BuildingBlock: KIFKEQ_clean_linker_1, # of connection points: 2
#     Edge 136, Type (0, 0), BuildingBlock: KIFKEQ_clean_linker_1, # of connection points: 2
#     Edge 137, Type (0, 0), BuildingBlock: KIFKEQ_clean_linker_1, # of connection points: 2
#     Edge 138, Type (0, 0), BuildingBlock: KIFKEQ_clean_linker_1, # of connection points: 2
#     Edge 139, Type (0, 0), BuildingBlock: KIFKEQ_clean_linker_1, # of connection points: 2
#     Edge 140, Type (0, 0), BuildingBlock: KIFKEQ_clean_linker_1, # of connection points: 2
#     Edge 141, Type (0, 0), BuildingBlock: KIFKEQ_clean_linker_1, # of connection points: 2
#     Edge 142, Type (0, 0), BuildingBlock: KIFKEQ_clean_linker_1, # of connection points: 2
#     Edge 143, Type (0, 0), BuildingBlock: KIFKEQ_clean_linker_1, # of connection points: 2
# Relax obj value: 0.470
# Max RMSD: 0.183
# Mean RMSD: 0.183
data_MOF--net-wmy--node1-IZENUY_clean_sbu_0--edge1-KIFKEQ_clean_linker_1
_symmetry_space_group_name_H-M    P1
_symmetry_Int_Tables_number       1
_symmetry_cell_setting            triclinic
loop_
_symmetry_equiv_pos_as_xyz
'x, y, z'
_cell_length_a     54.165269
_cell_length_b     54.166243
_cell_length_c     55.896894
_cell_angle_alpha  89.991958
_cell_angle_beta   89.987519
_cell_angle_gamma 120.00331
loop_
_atom_site_label
_atom_site_type_symbol
_atom_site_fract_x
_atom_site_fract_y
_atom_site_fract_z
_atom_type_partial_charge
Fe0 Fe 0.02567 0.1493 0.09215 0.0
Fe1 Fe 0.99417 0.17373 0.12013 0.0
O2 O 0.02632 0.17404 0.11297 0.0
Fe3 Fe 0.05947 0.1991 0.12613 0.0
O4 O 0.06458 0.17114 0.1392 0.0
O5 O 0.05553 0.14746 0.1055 0.0
O6 O 0.00283 0.12011 0.1112 0.0
C7 C 0.9791 0.11514 0.11936 0.0
C8 C 0.07335 0.19694 0.07752 0.0
O9 O 0.97187 0.13422 0.11902 0.0
C10 C 0.03568 0.23225 0.11499 0.0
O11 O 0.99557 0.14564 0.07465 0.0
O12 O 0.98674 0.17791 0.08913 0.0
O13 O 0.08112 0.202 0.09929 0.0
O14 O 0.04853 0.17768 0.07216 0.0
C15 C 0.01965 0.18469 0.16442 0.0
O16 O 0.01142 0.21305 0.12246 0.0
O17 O 0.0566 0.2282 0.11372 0.0
C18 C 0.98545 0.16198 0.07226 0.0
O19 O 0.99838 0.16945 0.15151 0.0
O20 O 0.04391 0.20098 0.15515 0.0
C21 C 0.0645 0.15165 0.12682 0.0
Fe22 Fe 0.85448 0.87235 0.09685 0.0
Fe23 Fe 0.82221 0.81295 0.11928 0.0
O24 O 0.82555 0.84672 0.11381 0.0
Fe25 Fe 0.80018 0.85502 0.12557 0.0
O26 O 0.82553 0.89334 0.12943 0.0
O27 O 0.86703 0.89717 0.12172 0.0
O28 O 0.87953 0.86102 0.10652 0.0
C29 C 0.87954 0.84804 0.12526 0.0
C30 C 0.80844 0.87931 0.08142 0.0
O31 O 0.85658 0.82904 0.13446 0.0
C32 C 0.76675 0.79769 0.11069 0.0
O33 O 0.84364 0.84905 0.07099 0.0
O34 O 0.83804 0.81138 0.09053 0.0
O35 O 0.79039 0.86105 0.09567 0.0
O36 O 0.83482 0.88851 0.0841 0.0
C37 C 0.80789 0.82746 0.16354 0.0
O38 O 0.78767 0.79494 0.10451 0.0
O39 O 0.77025 0.81826 0.12381 0.0
C40 C 0.84109 0.82459 0.07102 0.0
O41 O 0.80602 0.80862 0.14903 0.0
O42 O 0.80875 0.84986 0.15595 0.0
C43 C 0.85244 0.90679 0.13121 0.0
Fe44 Fe 0.13957 0.94109 0.12632 0.0
Fe45 Fe 0.1228 0.97698 0.09564 0.0
O46 O 0.14807 0.97434 0.11362 0.0
Fe47 Fe 0.18176 0.00494 0.11888 0.0
O48 O 0.18555 0.99412 0.14925 0.0
O49 O 0.14415 0.95572 0.1562 0.0
O50 O 0.10121 0.92851 0.12966 0.0
C51 C 0.08763 0.94197 0.13038 0.0
C52 C 0.19714 0.96444 0.11214 0.0
O53 O 0.09751 0.96587 0.12016 0.0
C54 C 0.17099 0.0099 0.06992 0.0
O55 O 0.13413 0.9244 0.09689 0.0
O56 O 0.10655 0.94062 0.08411 0.0
O57 O 0.19999 0.98796 0.10543 0.0
O58 O 0.17638 0.94771 0.12531 0.0
C59 C 0.1476 0.02843 0.12193 0.0
O60 O 0.14653 0.98801 0.07014 0.0
O61 O 0.18383 0.0211 0.08935 0.0
C62 C 0.11614 0.9237 0.08213 0.0
O63 O 0.1344 0.01393 0.10376 0.0
O64 O 0.16553 0.024 0.13262 0.0
C65 C 0.16639 0.9774 0.16368 0.0
Fe66 Fe 0.14744 0.02456 0.40931 0.0
Fe67 Fe 0.17581 0.99486 0.3843 0.0
O68 O 0.17413 0.02617 0.39028 0.0
Fe69 Fe 0.1992 0.05901 0.37702 0.0
O70 O 0.17499 0.07357 0.37532 0.0
O71 O 0.13362 0.03772 0.38608 0.0
O72 O 0.12048 0.98866 0.40005 0.0
C73 C 0.11847 0.97504 0.38106 0.0
C74 C 0.19668 0.07606 0.42246 0.0
O75 O 0.14037 0.97725 0.371 0.0
C76 C 0.2321 0.03405 0.39 0.0
O77 O 0.15931 0.01139 0.43393 0.0
O78 O 0.16165 0.97803 0.41359 0.0
O79 O 0.21247 0.07565 0.40603 0.0
O80 O 0.16988 0.06019 0.42181 0.0
C81 C 0.18738 0.02253 0.33959 0.0
O82 O 0.21128 0.01092 0.39731 0.0
O83 O 0.22816 0.05062 0.37656 0.0
C84 C 0.16063 0.98884 0.43341 0.0
O85 O 0.19005 0.0058 0.35382 0.0
O86 O 0.18711 0.04428 0.34734 0.0
C87 C 0.14806 0.06146 0.37586 0.0
Fe88 Fe 0.98319 0.13323 0.41527 0.0
Fe89 Fe 0.00961 0.1894 0.38755 0.0
O90 O 0.97949 0.15607 0.39491 0.0
Fe91 Fe 0.94597 0.14578 0.38167 0.0
O92 O 0.93385 0.10741 0.38104 0.0
O93 O 0.97114 0.10499 0.39324 0.0
O94 O 0.01975 0.14392 0.40622 0.0
C95 C 0.03269 0.15475 0.3868 0.0
C96 C 0.92986 0.12747 0.42775 0.0
O97 O 0.02812 0.17201 0.37513 0.0
C98 C 0.96843 0.20401 0.39277 0.0
O99 O 0.9954 0.15986 0.43876 0.0
O100 O 0.02738 0.19464 0.41675 0.0
O101 O 0.92912 0.14242 0.41071 0.0
O102 O 0.94737 0.11849 0.42786 0.0
C103 C 0.98167 0.17011 0.34329 0.0
O104 O 0.99243 0.20814 0.39963 0.0
O105 O 0.9521 0.1824 0.3802 0.0
C106 C 0.01746 0.18406 0.43712 0.0
O107 O 0.9978 0.19053 0.35693 0.0
O108 O 0.96051 0.14808 0.35181 0.0
C109 C 0.94743 0.09405 0.38264 0.0
Fe110 Fe 0.82288 0.82634 0.38622 0.0
Fe111 Fe 0.86415 0.80315 0.37698 0.0
O112 O 0.85682 0.82908 0.3891 0.0
Fe113 Fe 0.88402 0.85838 0.40465 0.0
O114 O 0.88467 0.88237 0.38208 0.0
O115 O 0.83819 0.86562 0.38293 0.0
O116 O 0.82428 0.82521 0.3541 0.0
C117 C 0.83035 0.80992 0.34123 0.0
C118 C 0.83557 0.84824 0.43112 0.0
O119 O 0.84203 0.79661 0.34998 0.0
C120 C 0.88829 0.81457 0.42362 0.0
O121 O 0.80229 0.78694 0.38865 0.0
O122 O 0.83541 0.77511 0.39349 0.0
O123 O 0.8604 0.86491 0.42359 0.0
O124 O 0.81857 0.82731 0.41855 0.0
C125 C 0.91515 0.85052 0.36835 0.0
O126 O 0.8873 0.80536 0.40244 0.0
O127 O 0.88385 0.83498 0.42757 0.0
C128 C 0.80991 0.76929 0.3952 0.0
O129 O 0.89403 0.82926 0.35926 0.0
O130 O 0.91377 0.85853 0.38918 0.0
C131 C 0.86334 0.88491 0.37702 0.0
Fe132 Fe 0.98783 0.85432 0.91239 0.0
Fe133 Fe 0.01117 0.82177 0.88457 0.0
O134 O 0.98228 0.82686 0.89244 0.0
Fe135 Fe 0.94806 0.80455 0.8801 0.0
O136 O 0.93733 0.83177 0.87993 0.0
O137 O 0.97618 0.87105 0.89039 0.0
O138 O 0.0245 0.87876 0.90248 0.0
C139 C 0.0364 0.87975 0.88273 0.0
C140 C 0.9343 0.80841 0.92643 0.0
O141 O 0.03051 0.85728 0.87146 0.0
C142 C 0.96827 0.76688 0.89085 0.0
O143 O 0.99941 0.8392 0.93564 0.0
O144 O 0.03011 0.83443 0.91339 0.0
O145 O 0.93213 0.79202 0.90949 0.0
O146 O 0.95236 0.83476 0.92585 0.0
C147 C 0.98188 0.81345 0.84114 0.0
O148 O 0.99296 0.78597 0.89717 0.0
O149 O 0.95261 0.77321 0.87844 0.0
C150 C 0.0203 0.83521 0.93378 0.0
O151 O 0.99778 0.80836 0.85439 0.0
O152 O 0.96188 0.81605 0.85003 0.0
C153 C 0.95182 0.85869 0.88082 0.0
Fe154 Fe 0.13749 0.12145 0.90427 0.0
Fe155 Fe 0.17311 0.18137 0.88374 0.0
O156 O 0.16756 0.14638 0.88786 0.0
Fe157 Fe 0.19132 0.13585 0.87607 0.0
O158 O 0.16345 0.1057 0.85984 0.0
O159 O 0.13408 0.08955 0.89003 0.0
O160 O 0.11427 0.12192 0.88155 0.0
C161 C 0.11385 0.14411 0.87533 0.0
C162 C 0.17926 0.11389 0.92359 0.0
O163 O 0.13433 0.16881 0.88077 0.0
C164 C 0.22917 0.19057 0.89149 0.0
O165 O 0.13387 0.14764 0.92228 0.0
O166 O 0.17338 0.18748 0.91587 0.0
O167 O 0.18816 0.11374 0.9025 0.0
O168 O 0.16019 0.12038 0.92733 0.0
C169 C 0.18659 0.16953 0.83902 0.0
O170 O 0.21245 0.19956 0.88555 0.0
O171 O 0.22127 0.16445 0.89102 0.0
C172 C 0.15229 0.1723 0.92901 0.0
O173 O 0.17334 0.1783 0.85171 0.0
O174 O 0.19826 0.15639 0.8481 0.0
C175 C 0.14175 0.08588 0.86972 0.0
Fe176 Fe 0.81781 0.99379 0.88924 0.0
Fe177 Fe 0.85549 0.05944 0.88277 0.0
O178 O 0.84826 0.02696 0.89689 0.0
Fe179 Fe 0.8721 0.02816 0.91906 0.0
O180 O 0.8809 0.00607 0.90144 0.0
O181 O 0.83702 0.97342 0.89153 0.0
O182 O 0.82719 0.99805 0.85792 0.0
C183 C 0.83283 0.019 0.84471 0.0
C184 C 0.81922 0.9856 0.93745 0.0
O185 O 0.83999 0.04321 0.85357 0.0
C186 C 0.86987 0.0751 0.93168 0.0
O187 O 0.79427 0.00921 0.88583 0.0
O188 O 0.82222 0.05539 0.89302 0.0
O189 O 0.84596 0.99767 0.93639 0.0
O190 O 0.80492 0.98577 0.91987 0.0
C191 C 0.90899 0.06724 0.88474 0.0
O192 O 0.87237 0.08188 0.90965 0.0
O193 O 0.86418 0.05044 0.9378 0.0
C194 C 0.79784 0.03362 0.89117 0.0
O195 O 0.88956 0.06569 0.87137 0.0
O196 O 0.9037 0.05872 0.90617 0.0
C197 C 0.8636 0.98191 0.89303 0.0
Fe198 Fe 0.81004 0.94728 0.62739 0.0
Fe199 Fe 0.86113 0.98613 0.59618 0.0
O200 O 0.83279 0.98149 0.61482 0.0
Fe201 Fe 0.8278 0.01114 0.62038 0.0
O202 O 0.82997 0.00799 0.65236 0.0
O203 O 0.80523 0.96117 0.6561 0.0
O204 O 0.83925 0.94547 0.64165 0.0
C205 C 0.86029 0.94759 0.63036 0.0
C206 C 0.77125 0.96416 0.61485 0.0
O207 O 0.86583 0.95806 0.60963 0.0
C208 C 0.84394 0.02127 0.57346 0.0
O209 O 0.81097 0.92768 0.60038 0.0
O210 O 0.83629 0.96193 0.57446 0.0
O211 O 0.78837 0.98989 0.62061 0.0
O212 O 0.77907 0.94586 0.61442 0.0
C213 C 0.88747 0.03279 0.62474 0.0
O214 O 0.863 0.01528 0.57843 0.0
O215 O 0.82508 0.01718 0.58861 0.0
C216 C 0.81772 0.93643 0.57892 0.0
O217 O 0.88658 0.01034 0.61744 0.0
O218 O 0.86672 0.03719 0.62129 0.0
C219 C 0.81741 0.98598 0.66518 0.0
Fe220 Fe 0.06082 0.86297 0.62702 0.0
Fe221 Fe 0.02382 0.87842 0.59628 0.0
O222 O 0.02725 0.85376 0.61449 0.0
Fe223 Fe 0.99706 0.81994 0.6204 0.0
O224 O 0.00888 0.81696 0.65058 0.0
O225 O 0.04648 0.85908 0.65703 0.0
O226 O 0.07346 0.90141 0.62946 0.0
C227 C 0.05966 0.91459 0.63023 0.0
C228 C 0.03786 0.80526 0.61364 0.0
O229 O 0.03568 0.90435 0.62022 0.0
C230 C 0.99038 0.8294 0.57154 0.0
O231 O 0.07696 0.86762 0.59755 0.0
O232 O 0.05969 0.89398 0.58357 0.0
O233 O 0.01424 0.80203 0.60678 0.0
O234 O 0.05438 0.82622 0.62673 0.0
C235 C 0.97419 0.85465 0.6246 0.0
O236 O 0.01187 0.85407 0.57124 0.0
O237 O 0.97979 0.81697 0.59125 0.0
C238 C 0.07624 0.88392 0.58174 0.0
O239 O 0.98729 0.86722 0.60571 0.0
O240 O 0.97828 0.83608 0.63447 0.0
C241 C 0.0252 0.83663 0.66479 0.0
Fe242 Fe 0.14879 0.2048 0.6232 0.0
Fe243 Fe 0.13251 0.15538 0.58827 0.0
O244 O 0.15661 0.18021 0.60902 0.0
Fe245 Fe 0.18864 0.18021 0.61572 0.0
O246 O 0.19101 0.19256 0.64666 0.0
O247 O 0.15029 0.19116 0.65258 0.0
O248 O 0.10992 0.18063 0.62396 0.0
C249 C 0.0951 0.15379 0.62186 0.0
C250 C 0.20746 0.23719 0.61209 0.0
O251 O 0.10442 0.1401 0.6104 0.0
C252 C 0.18234 0.1692 0.56587 0.0
O253 O 0.14647 0.22001 0.59471 0.0
O254 O 0.12001 0.17872 0.57684 0.0
O255 O 0.20968 0.21641 0.6045 0.0
O256 O 0.18632 0.23324 0.62473 0.0
C257 C 0.14967 0.12321 0.61563 0.0
O258 O 0.15907 0.16911 0.56473 0.0
O259 O 0.19235 0.16779 0.58599 0.0
C260 C 0.13081 0.20544 0.57754 0.0
O261 O 0.1406 0.12748 0.59611 0.0
O262 O 0.16886 0.14386 0.62733 0.0
C263 C 0.17151 0.1901 0.66063 0.0
Fe264 Fe 0.65507 0.51121 0.45394 0.0
Fe265 Fe 0.71838 0.52993 0.45986 0.0
O266 O 0.68472 0.50712 0.44676 0.0
Fe267 Fe 0.68048 0.48005 0.42682 0.0
O268 O 0.64383 0.45481 0.43607 0.0
O269 O 0.63611 0.47556 0.46674 0.0
O270 O 0.66724 0.52435 0.48459 0.0
C271 C 0.68309 0.51955 0.49822 0.0
C272 C 0.64687 0.49697 0.40442 0.0
O273 O 0.70378 0.51787 0.48969 0.0
C274 C 0.73376 0.52699 0.41377 0.0
O275 O 0.67287 0.54717 0.4416 0.0
O276 O 0.71283 0.56077 0.46132 0.0
O277 O 0.66874 0.49452 0.40312 0.0
O278 O 0.63707 0.49842 0.42467 0.0
C279 C 0.716 0.47635 0.45944 0.0
O280 O 0.73505 0.54303 0.43072 0.0
O281 O 0.71624 0.5005 0.41408 0.0
C282 C 0.69687 0.56668 0.44886 0.0
O283 O 0.72998 0.50331 0.46054 0.0
O284 O 0.69212 0.46374 0.44911 0.0
C285 C 0.63129 0.45338 0.45555 0.0
Fe286 Fe 0.52151 0.21099 0.43451 0.0
Fe287 Fe 0.48775 0.1512 0.45617 0.0
O288 O 0.49199 0.18539 0.45097 0.0
Fe289 Fe 0.46673 0.19403 0.4623 0.0
O290 O 0.49249 0.23209 0.4666 0.0
O291 O 0.53399 0.23566 0.45955 0.0
O292 O 0.54582 0.1988 0.44442 0.0
C293 C 0.54511 0.18491 0.46281 0.0
C294 C 0.4764 0.21869 0.41815 0.0
O295 O 0.52178 0.16629 0.47175 0.0
C296 C 0.43274 0.13705 0.44688 0.0
O297 O 0.51072 0.18805 0.40849 0.0
O298 O 0.50382 0.14969 0.42764 0.0
O299 O 0.45784 0.20055 0.43218 0.0
O300 O 0.50265 0.22784 0.42155 0.0
C301 C 0.47328 0.16572 0.50021 0.0
O302 O 0.45353 0.13401 0.44091 0.0
O303 O 0.43637 0.15757 0.46012 0.0
C304 C 0.50721 0.16322 0.40829 0.0
O305 O 0.47109 0.14682 0.48563 0.0
O306 O 0.47453 0.18834 0.49275 0.0
C307 C 0.5194 0.24555 0.46864 0.0
Fe308 Fe 0.78641 0.30778 0.43167 0.0
Fe309 Fe 0.84496 0.33838 0.45572 0.0
O310 O 0.81217 0.30673 0.45025 0.0
Fe311 Fe 0.80522 0.27403 0.46324 0.0
O312 O 0.76641 0.25944 0.46603 0.0
O313 O 0.76048 0.29524 0.45566 0.0
O314 O 0.79555 0.34399 0.44022 0.0
C315 C 0.80744 0.35796 0.45895 0.0
C316 C 0.78362 0.25615 0.41845 0.0
O317 O 0.82693 0.35567 0.46921 0.0
C318 C 0.86289 0.29976 0.4493 0.0
O319 O 0.81089 0.32036 0.40652 0.0
O320 O 0.84665 0.35456 0.42634 0.0
O321 O 0.80127 0.25761 0.43392 0.0
O322 O 0.77237 0.27167 0.41986 0.0
C323 C 0.8304 0.3108 0.50065 0.0
O324 O 0.86472 0.32282 0.44242 0.0
O325 O 0.84266 0.28273 0.46275 0.0
C326 C 0.83478 0.343 0.40673 0.0
O327 O 0.84907 0.32803 0.48614 0.0
O328 O 0.80874 0.28847 0.49317 0.0
C329 C 0.75174 0.27178 0.46628 0.0
Fe330 Fe 0.81264 0.34951 0.74777 0.0
Fe331 Fe 0.84563 0.32462 0.72243 0.0
O332 O 0.84065 0.35397 0.72882 0.0
Fe333 Fe 0.86379 0.38778 0.71597 0.0
O334 O 0.83725 0.39933 0.71447 0.0
O335 O 0.79722 0.3614 0.72479 0.0
O336 O 0.7878 0.31293 0.73801 0.0
C337 C 0.78759 0.29995 0.71913 0.0
C338 C 0.85924 0.40271 0.76172 0.0
O339 O 0.8104 0.30484 0.70899 0.0
C340 C 0.90072 0.36745 0.72874 0.0
O341 O 0.82594 0.33757 0.77217 0.0
O342 O 0.83236 0.30676 0.75162 0.0
O343 O 0.87581 0.40423 0.74518 0.0
O344 O 0.83273 0.38516 0.7609 0.0
C345 C 0.85476 0.35251 0.67799 0.0
O346 O 0.88136 0.34305 0.73545 0.0
O347 O 0.89471 0.3826 0.71538 0.0
C348 C 0.82956 0.31638 0.77149 0.0
O349 O 0.8593 0.33676 0.692 0.0
O350 O 0.85291 0.3733 0.68606 0.0
C351 C 0.8103 0.38555 0.71494 0.0
Fe352 Fe 0.67482 0.51768 0.72061 0.0
Fe353 Fe 0.61052 0.47583 0.71528 0.0
O354 O 0.64384 0.48523 0.72849 0.0
Fe355 Fe 0.6466 0.46242 0.74946 0.0
O356 O 0.68275 0.4715 0.74041 0.0
O357 O 0.69173 0.49855 0.70852 0.0
O358 O 0.66299 0.51891 0.68997 0.0
C359 C 0.64587 0.49873 0.67657 0.0
C360 C 0.68223 0.51345 0.77028 0.0
O361 O 0.62464 0.47707 0.6854 0.0
C362 C 0.59409 0.45872 0.76159 0.0
O363 O 0.65914 0.53796 0.73231 0.0
O364 O 0.61813 0.513 0.71349 0.0
O365 O 0.65958 0.48983 0.77226 0.0
O366 O 0.69281 0.52286 0.7498 0.0
C367 C 0.60995 0.42307 0.71739 0.0
O368 O 0.59383 0.47349 0.74421 0.0
O369 O 0.61108 0.44914 0.76214 0.0
C370 C 0.63541 0.5347 0.72559 0.0
O371 O 0.59718 0.43718 0.71515 0.0
O372 O 0.63358 0.43352 0.72808 0.0
C373 C 0.69529 0.48088 0.72059 0.0
Fe374 Fe 0.54684 0.18634 0.74479 0.0
Fe375 Fe 0.48742 0.15472 0.72228 0.0
O376 O 0.52191 0.15888 0.72614 0.0
Fe377 Fe 0.53185 0.13595 0.71164 0.0
O378 O 0.56198 0.16527 0.69646 0.0
O379 O 0.57844 0.1914 0.72876 0.0
O380 O 0.54716 0.21288 0.72535 0.0
C381 C 0.52552 0.21439 0.71947 0.0
C382 C 0.55473 0.1428 0.75849 0.0
O383 O 0.50046 0.19366 0.72313 0.0
C384 C 0.47708 0.09788 0.72625 0.0
O385 O 0.52051 0.1872 0.76475 0.0
O386 O 0.47982 0.15051 0.75408 0.0
O387 O 0.55462 0.13655 0.73658 0.0
O388 O 0.54767 0.16073 0.76487 0.0
C389 C 0.49922 0.14518 0.67651 0.0
O390 O 0.46878 0.1153 0.72064 0.0
O391 O 0.5031 0.10519 0.72575 0.0
C392 C 0.4952 0.16843 0.76958 0.0
O393 O 0.49199 0.15867 0.69043 0.0
O394 O 0.51077 0.13137 0.68434 0.0
C395 C 0.58178 0.18607 0.70742 0.0
Fe396 Fe 0.64971 0.19131 0.245 0.0
Fe397 Fe 0.67459 0.15712 0.22263 0.0
O398 O 0.64497 0.16209 0.22754 0.0
Fe399 Fe 0.61071 0.13862 0.21556 0.0
O400 O 0.60869 0.16713 0.20007 0.0
O401 O 0.62074 0.19448 0.23156 0.0
O402 O 0.67264 0.21541 0.22252 0.0
C403 C 0.69477 0.21598 0.2148 0.0
C404 C 0.60079 0.14865 0.26365 0.0
O405 O 0.70013 0.19611 0.21973 0.0
C406 C 0.62814 0.10097 0.23049 0.0
O407 O 0.68021 0.19533 0.26226 0.0
O408 O 0.68105 0.15638 0.25455 0.0
O409 O 0.5918 0.14103 0.24233 0.0
O410 O 0.62641 0.16739 0.26773 0.0
C411 C 0.64888 0.14389 0.17813 0.0
O412 O 0.65373 0.11779 0.22418 0.0
O413 O 0.60959 0.10844 0.22987 0.0
C414 C 0.68701 0.17709 0.26811 0.0
O415 O 0.67089 0.15726 0.19074 0.0
O416 O 0.62412 0.13222 0.18725 0.0
C417 C 0.61066 0.18849 0.21071 0.0
Fe418 Fe 0.8065 0.45815 0.24306 0.0
Fe419 Fe 0.84186 0.51719 0.22009 0.0
O420 O 0.83625 0.48254 0.22612 0.0
Fe421 Fe 0.86026 0.47218 0.21489 0.0
O422 O 0.83358 0.43455 0.2112 0.0
O423 O 0.79287 0.43259 0.21859 0.0
O424 O 0.78314 0.47127 0.23277 0.0
C425 C 0.78415 0.48458 0.21394 0.0
C426 C 0.85037 0.44812 0.25918 0.0
O427 O 0.80763 0.50257 0.20475 0.0
C428 C 0.89618 0.5288 0.22978 0.0
O429 O 0.81826 0.48192 0.26859 0.0
O430 O 0.82649 0.5203 0.24865 0.0
O431 O 0.86916 0.46565 0.24497 0.0
O432 O 0.82437 0.44057 0.2564 0.0
C433 C 0.8546 0.50026 0.17636 0.0
O434 O 0.87642 0.53383 0.23502 0.0
O435 O 0.89136 0.50797 0.21647 0.0
C436 C 0.82237 0.507 0.26828 0.0
O437 O 0.85798 0.52007 0.19043 0.0
O438 O 0.85229 0.47743 0.18441 0.0
C439 C 0.80675 0.42198 0.20931 0.0
Fe440 Fe 0.53989 0.35173 0.24297 0.0
Fe441 Fe 0.48198 0.32363 0.2176 0.0
O442 O 0.51517 0.35448 0.22424 0.0
Fe443 Fe 0.52342 0.38799 0.21206 0.0
O444 O 0.56206 0.40199 0.21013 0.0
O445 O 0.56716 0.36559 0.21995 0.0
O446 O 0.53058 0.31599 0.2326 0.0
C447 C 0.51859 0.303 0.21348 0.0
C448 C 0.54295 0.40307 0.25799 0.0
O449 O 0.49951 0.30624 0.20355 0.0
C450 C 0.46551 0.36311 0.22499 0.0
O451 O 0.51449 0.33799 0.26735 0.0
O452 O 0.47878 0.3055 0.24638 0.0
O453 O 0.52704 0.40362 0.24169 0.0
O454 O 0.55349 0.3869 0.2566 0.0
C455 C 0.49874 0.35287 0.17354 0.0
O456 O 0.46277 0.33951 0.23137 0.0
O457 O 0.48624 0.38015 0.21196 0.0
C458 C 0.49031 0.31589 0.26636 0.0
O459 O 0.47913 0.33579 0.18749 0.0
O460 O 0.5206 0.37443 0.18181 0.0
C461 C 0.5766 0.38957 0.21008 0.0
Fe462 Fe 0.48849 0.33754 0.94931 0.0
Fe463 Fe 0.46781 0.27328 0.95818 0.0
O464 O 0.49031 0.30617 0.94338 0.0
Fe465 Fe 0.51534 0.30751 0.92237 0.0
O466 O 0.54418 0.33194 0.94109 0.0
O467 O 0.52772 0.36138 0.94776 0.0
O468 O 0.49345 0.33554 0.98106 0.0
C469 C 0.48081 0.31452 0.99489 0.0
C470 C 0.50002 0.34524 0.90136 0.0
O471 O 0.46655 0.28937 0.98682 0.0
C472 C 0.46909 0.25775 0.9096 0.0
O473 O 0.44921 0.31839 0.95193 0.0
O474 O 0.43625 0.27282 0.94756 0.0
O475 O 0.51733 0.33644 0.90428 0.0
O476 O 0.48344 0.34318 0.91796 0.0
C477 C 0.51711 0.27139 0.95734 0.0
O478 O 0.46486 0.25125 0.93171 0.0
O479 O 0.48696 0.28278 0.90312 0.0
C480 C 0.43035 0.29258 0.94808 0.0
O481 O 0.498 0.27113 0.97033 0.0
O482 O 0.51944 0.27907 0.9358 0.0
C483 C 0.54741 0.35509 0.94921 0.0
Fe484 Fe 0.66221 0.15217 0.95589 0.0
Fe485 Fe 0.72682 0.19022 0.96403 0.0
O486 O 0.69451 0.18468 0.95114 0.0
Fe487 Fe 0.69453 0.2116 0.93347 0.0
O488 O 0.65866 0.20337 0.94227 0.0
O489 O 0.64539 0.17034 0.97005 0.0
O490 O 0.67197 0.14656 0.98605 0.0
C491 C 0.68923 0.16459 1.00093 0.0
C492 C 0.65879 0.16453 0.90736 0.0
O493 O 0.71203 0.1861 0.99389 0.0
C494 C 0.74505 0.21264 0.91946 0.0
O495 O 0.67704 0.13215 0.9419 0.0
O496 O 0.71695 0.15241 0.96255 0.0
O497 O 0.68157 0.18824 0.9077 0.0
O498 O 0.64667 0.15212 0.92664 0.0
C499 C 0.73083 0.24429 0.96875 0.0
O500 O 0.74341 0.19471 0.93473 0.0
O501 O 0.73046 0.22484 0.92154 0.0
C502 C 0.69963 0.13289 0.94867 0.0
O503 O 0.74267 0.22919 0.96773 0.0
O504 O 0.70754 0.23648 0.95818 0.0
C505 C 0.6441 0.19083 0.96062 0.0
Fe506 Fe 0.85165 0.5094 0.95486 0.0
Fe507 Fe 0.80712 0.52846 0.96087 0.0
O508 O 0.81792 0.5056 0.94786 0.0
Fe509 Fe 0.79499 0.47865 0.92795 0.0
O510 O 0.80695 0.45382 0.93646 0.0
O511 O 0.83485 0.47337 0.96747 0.0
O512 O 0.85297 0.52253 0.98543 0.0
C513 C 0.8328 0.51886 0.99916 0.0
C514 C 0.8455 0.49642 0.90528 0.0
O515 O 0.81034 0.5171 0.99078 0.0
C516 C 0.78652 0.52458 0.91562 0.0
O517 O 0.86995 0.54544 0.94274 0.0
O518 O 0.84332 0.5593 0.96171 0.0
O519 O 0.82102 0.49373 0.90409 0.0
O520 O 0.8565 0.49697 0.92545 0.0
C521 C 0.75619 0.47455 0.961 0.0
O522 O 0.80279 0.54117 0.93166 0.0
O523 O 0.77862 0.49836 0.91597 0.0
C524 C 0.86512 0.56499 0.94928 0.0
O525 O 0.76901 0.50152 0.96218 0.0
O526 O 0.76757 0.46208 0.95058 0.0
C527 C 0.81688 0.45143 0.95621 0.0
Fe528 Fe 0.34772 0.81028 0.76273 0.0
Fe529 Fe 0.32152 0.84081 0.78976 0.0
O530 O 0.35152 0.83726 0.78266 0.0
Fe531 Fe 0.38524 0.86075 0.79554 0.0
O532 O 0.39736 0.83459 0.79632 0.0
O533 O 0.35994 0.7945 0.78505 0.0
O534 O 0.31116 0.78452 0.77198 0.0
C535 C 0.29802 0.78289 0.79115 0.0
C536 C 0.40045 0.85776 0.74929 0.0
O537 O 0.30266 0.80501 0.80239 0.0
C538 C 0.36301 0.89666 0.78441 0.0
O539 O 0.33555 0.82429 0.73902 0.0
O540 O 0.30382 0.82822 0.76049 0.0
O541 O 0.40156 0.87372 0.76625 0.0
O542 O 0.38336 0.83117 0.7498 0.0
C543 C 0.34995 0.85 0.83403 0.0
O544 O 0.33895 0.87689 0.77751 0.0
O545 O 0.37915 0.89113 0.79692 0.0
C546 C 0.31391 0.82713 0.74031 0.0
O547 O 0.33335 0.85366 0.8204 0.0
O548 O 0.37119 0.84922 0.82557 0.0
C549 C 0.38388 0.80762 0.79528 0.0
Fe550 Fe 0.16157 0.4814 0.7898 0.0
Fe551 Fe 0.14073 0.5251 0.79407 0.0
O552 O 0.16599 0.51568 0.78407 0.0
Fe553 Fe 0.19612 0.54072 0.76784 0.0
O554 O 0.2192 0.5416 0.79134 0.0
O555 O 0.20045 0.49497 0.79302 0.0
O556 O 0.16103 0.48611 0.82156 0.0
C557 C 0.14576 0.49357 0.83292 0.0
C558 C 0.18262 0.48926 0.74469 0.0
O559 O 0.133 0.50485 0.82241 0.0
C560 C 0.15449 0.54708 0.74663 0.0
O561 O 0.12223 0.46211 0.78805 0.0
O562 O 0.11242 0.4956 0.77811 0.0
O563 O 0.20071 0.51436 0.75079 0.0
O564 O 0.16169 0.47407 0.758 0.0
C565 C 0.18925 0.57593 0.80125 0.0
O566 O 0.14448 0.54685 0.76729 0.0
O567 O 0.17383 0.54079 0.74385 0.0
C568 C 0.1056 0.46977 0.77918 0.0
O569 O 0.16714 0.55597 0.81066 0.0
O570 O 0.19816 0.57237 0.78144 0.0
C571 C 0.22027 0.52002 0.79826 0.0
Fe572 Fe 0.464 0.64855 0.76136 0.0
Fe573 Fe 0.5212 0.67795 0.78765 0.0
O574 O 0.48871 0.6466 0.78067 0.0
Fe575 Fe 0.48101 0.61337 0.79317 0.0
O576 O 0.44221 0.59855 0.79453 0.0
O577 O 0.43659 0.63451 0.78416 0.0
O578 O 0.47229 0.68413 0.77113 0.0
C579 C 0.48331 0.69719 0.79041 0.0
C580 C 0.46239 0.59765 0.74732 0.0
O581 O 0.50245 0.69458 0.80099 0.0
C582 C 0.5392 0.63947 0.78115 0.0
O583 O 0.48972 0.66269 0.73721 0.0
O584 O 0.52449 0.69561 0.75866 0.0
O585 O 0.47842 0.59776 0.76376 0.0
O586 O 0.4513 0.61334 0.74827 0.0
C587 C 0.50405 0.64872 0.83172 0.0
O588 O 0.54152 0.66285 0.7746 0.0
O589 O 0.51844 0.62217 0.794 0.0
C590 C 0.51335 0.68549 0.73848 0.0
O591 O 0.52372 0.66628 0.81805 0.0
O592 O 0.48282 0.6268 0.82323 0.0
C593 C 0.42746 0.61074 0.79434 0.0
Fe594 Fe 0.52937 0.71698 0.04923 0.0
Fe595 Fe 0.47975 0.68032 0.08299 0.0
O596 O 0.50571 0.68342 0.06232 0.0
Fe597 Fe 0.50782 0.65277 0.05473 0.0
O598 O 0.51989 0.66431 0.02394 0.0
O599 O 0.51697 0.70307 0.01933 0.0
O600 O 0.50356 0.72968 0.0492 0.0
C601 C 0.47658 0.71602 0.05039 0.0
C602 C 0.56425 0.69308 0.05894 0.0
O603 O 0.46356 0.69227 0.06092 0.0
C604 C 0.49646 0.64612 0.10462 0.0
O605 O 0.54335 0.73331 0.07834 0.0
O606 O 0.50125 0.71616 0.09528 0.0
O607 O 0.54414 0.6693 0.06595 0.0
O608 O 0.55929 0.71013 0.04713 0.0
C609 C 0.45009 0.63029 0.0554 0.0
O610 O 0.4945 0.66828 0.10623 0.0
O611 O 0.49607 0.63554 0.08428 0.0
C612 C 0.52789 0.73282 0.09545 0.0
O613 O 0.45336 0.64377 0.07469 0.0
O614 O 0.4714 0.6346 0.04304 0.0
C615 C 0.51705 0.68161 0.01057 0.0
Fe616 Fe 0.3383 0.84543 0.05777 0.0
Fe617 Fe 0.27288 0.80875 0.05046 0.0
O618 O 0.30493 0.81497 0.06475 0.0
Fe619 Fe 0.30315 0.7902 0.08615 0.0
O620 O 0.32584 0.78213 0.06845 0.0
O621 O 0.35868 0.82641 0.06019 0.0
O622 O 0.33437 0.8361 0.02639 0.0
C623 C 0.31375 0.83133 0.01307 0.0
C624 C 0.34525 0.84252 0.10607 0.0
O625 O 0.28998 0.82582 0.02188 0.0
C626 C 0.25593 0.79211 0.09864 0.0
O627 O 0.32312 0.8692 0.05429 0.0
O628 O 0.2771 0.84157 0.06208 0.0
O629 O 0.33302 0.81577 0.10432 0.0
O630 O 0.3457 0.85753 0.0887 0.0
C631 C 0.26479 0.75508 0.05059 0.0
O632 O 0.24968 0.7906 0.07659 0.0
O633 O 0.28033 0.79722 0.10498 0.0
C634 C 0.29899 0.86585 0.06036 0.0
O635 O 0.26654 0.77511 0.03787 0.0
O636 O 0.27304 0.7593 0.07211 0.0
C637 C 0.35027 0.79987 0.0608 0.0
Fe638 Fe 0.14602 0.49034 0.05672 0.0
Fe639 Fe 0.19192 0.47247 0.04928 0.0
O640 O 0.18073 0.4954 0.06191 0.0
Fe641 Fe 0.20475 0.52402 0.08016 0.0
O642 O 0.20539 0.54916 0.05883 0.0
O643 O 0.15864 0.52919 0.0557 0.0
O644 O 0.151 0.49244 0.02477 0.0
C645 C 0.15992 0.47945 0.01191 0.0
C646 C 0.15272 0.50646 0.10354 0.0
O647 O 0.17254 0.46721 0.0209 0.0
C648 C 0.21213 0.48127 0.09738 0.0
O649 O 0.12791 0.451 0.05659 0.0
O650 O 0.16256 0.44154 0.06273 0.0
O651 O 0.17762 0.52573 0.09829 0.0
O652 O 0.13775 0.48764 0.08848 0.0
C653 C 0.24196 0.52272 0.04551 0.0
O654 O 0.21306 0.47388 0.0759 0.0
O655 O 0.20493 0.49961 0.10197 0.0
C656 C 0.13646 0.43384 0.06233 0.0
O657 O 0.22279 0.50153 0.03451 0.0
O658 O 0.23725 0.52873 0.06617 0.0
C659 C 0.18367 0.54986 0.05169 0.0
Fe660 Fe 0.34505 0.49538 0.55456 0.0
Fe661 Fe 0.28085 0.47246 0.54879 0.0
O662 O 0.31413 0.49737 0.56133 0.0
Fe663 Fe 0.31662 0.52436 0.58051 0.0
O664 O 0.35272 0.55084 0.57117 0.0
O665 O 0.36231 0.53075 0.5411 0.0
O666 O 0.33328 0.48091 0.5243 0.0
C667 C 0.31605 0.48325 0.51046 0.0
C668 C 0.3521 0.51029 0.6037 0.0
O669 O 0.29462 0.48375 0.51871 0.0
C670 C 0.26462 0.47607 0.59423 0.0
O671 O 0.32932 0.46002 0.56764 0.0
O672 O 0.28865 0.44307 0.54829 0.0
O673 O 0.32968 0.51189 0.60486 0.0
O674 O 0.36249 0.50953 0.58358 0.0
C675 C 0.28005 0.52441 0.5471 0.0
O676 O 0.2651 0.45985 0.57826 0.0
O677 O 0.28082 0.5028 0.59314 0.0
C678 C 0.30587 0.43921 0.56092 0.0
O679 O 0.26709 0.49739 0.54713 0.0
O680 O 0.30382 0.53852 0.55738 0.0
C681 C 0.36554 0.55269 0.55178 0.0
Fe682 Fe 0.51293 0.85825 0.55464 0.0
Fe683 Fe 0.53182 0.81378 0.54887 0.0
O684 O 0.50892 0.82455 0.56192 0.0
Fe685 Fe 0.48198 0.80173 0.58199 0.0
O686 O 0.45661 0.81296 0.57276 0.0
O687 O 0.47716 0.84158 0.54208 0.0
O688 O 0.52584 0.85901 0.52391 0.0
C689 C 0.52109 0.83826 0.51041 0.0
C690 C 0.4988 0.85237 0.60421 0.0
O691 O 0.51959 0.81602 0.51908 0.0
C692 C 0.52915 0.79576 0.59502 0.0
O693 O 0.54896 0.87654 0.56682 0.0
O694 O 0.56251 0.85014 0.54719 0.0
O695 O 0.49643 0.82809 0.60558 0.0
O696 O 0.50031 0.8636 0.58394 0.0
C697 C 0.47846 0.76243 0.54951 0.0
O698 O 0.54509 0.81045 0.57799 0.0
O699 O 0.50263 0.78669 0.59478 0.0
C700 C 0.56846 0.87195 0.55972 0.0
O701 O 0.5054 0.77559 0.54839 0.0
O702 O 0.46568 0.77356 0.55981 0.0
C703 C 0.45507 0.82441 0.55351 0.0
Fe704 Fe 0.21205 0.69343 0.57797 0.0
Fe705 Fe 0.15367 0.66326 0.5535 0.0
O706 O 0.18643 0.69473 0.55942 0.0
Fe707 Fe 0.19346 0.72758 0.54661 0.0
O708 O 0.23229 0.74284 0.54478 0.0
O709 O 0.23855 0.70712 0.55435 0.0
O710 O 0.20353 0.65763 0.56852 0.0
C711 C 0.19106 0.64353 0.54997 0.0
C712 C 0.21293 0.74389 0.59217 0.0
O713 O 0.17164 0.64607 0.53989 0.0
C714 C 0.13568 0.70167 0.55968 0.0
O715 O 0.18743 0.67974 0.60286 0.0
O716 O 0.15154 0.6464 0.58263 0.0
O717 O 0.19642 0.7434 0.57599 0.0
O718 O 0.22484 0.72893 0.59072 0.0
C719 C 0.16964 0.69109 0.50895 0.0
O720 O 0.1339 0.67875 0.56689 0.0
O721 O 0.15595 0.7185 0.54621 0.0
C722 C 0.16378 0.65693 0.60236 0.0
O723 O 0.15021 0.67424 0.52315 0.0
O724 O 0.19105 0.71347 0.51672 0.0
C725 C 0.24733 0.73097 0.54444 0.0
Fe726 Fe 0.15462 0.67114 0.28771 0.0
Fe727 Fe 0.13539 0.6079 0.29529 0.0
O728 O 0.15737 0.64074 0.28055 0.0
Fe729 Fe 0.1823 0.6435 0.25882 0.0
O730 O 0.20869 0.68055 0.26602 0.0
O731 O 0.19147 0.69022 0.29807 0.0
O732 O 0.14419 0.6609 0.31888 0.0
C733 C 0.14913 0.64526 0.33254 0.0
C734 C 0.16358 0.67629 0.23754 0.0
O735 O 0.14959 0.62378 0.32436 0.0
C736 C 0.13408 0.58961 0.24944 0.0
O737 O 0.11768 0.65337 0.27783 0.0
O738 O 0.10503 0.61395 0.29811 0.0
O739 O 0.16583 0.65429 0.236 0.0
O740 O 0.16467 0.6873 0.25778 0.0
C741 C 0.18866 0.60978 0.29178 0.0
O742 O 0.11974 0.58965 0.26722 0.0
O743 O 0.16049 0.60705 0.24784 0.0
C744 C 0.09852 0.62966 0.28594 0.0
O745 O 0.16189 0.59611 0.29482 0.0
O746 O 0.2004 0.63282 0.28014 0.0
C747 C 0.21236 0.69419 0.28529 0.0
Fe748 Fe 0.39331 0.52317 0.29605 0.0
Fe749 Fe 0.35903 0.54103 0.26417 0.0
O750 O 0.36041 0.51578 0.28313 0.0
Fe751 Fe 0.32893 0.48307 0.28937 0.0
O752 O 0.34002 0.47992 0.31984 0.0
O753 O 0.37906 0.52106 0.32583 0.0
O754 O 0.40837 0.56203 0.29758 0.0
C755 C 0.39628 0.57687 0.29758 0.0
C756 C 0.3675 0.46515 0.2834 0.0
O757 O 0.37254 0.56787 0.28746 0.0
C758 C 0.32271 0.49226 0.24028 0.0
O759 O 0.40935 0.52595 0.26683 0.0
O760 O 0.39452 0.55379 0.25148 0.0
O761 O 0.34444 0.46317 0.27634 0.0
O762 O 0.38441 0.48564 0.2967 0.0
C763 C 0.30938 0.52074 0.2923 0.0
O764 O 0.34543 0.51598 0.23959 0.0
O765 O 0.31206 0.48048 0.26016 0.0
C766 C 0.40978 0.54219 0.25043 0.0
O767 O 0.32329 0.53264 0.27352 0.0
O768 O 0.31168 0.50127 0.30262 0.0
C769 C 0.35703 0.4995 0.33383 0.0
Fe770 Fe 0.47534 0.86243 0.29311 0.0
Fe771 Fe 0.46255 0.81239 0.25989 0.0
O772 O 0.4855 0.83899 0.28016 0.0
Fe773 Fe 0.51877 0.84215 0.28771 0.0
O774 O 0.51963 0.85521 0.31835 0.0
O775 O 0.47703 0.85002 0.32304 0.0
O776 O 0.43695 0.83669 0.29325 0.0
C777 C 0.4231 0.80978 0.29176 0.0
C778 C 0.53393 0.89799 0.28285 0.0
O779 O 0.43392 0.79653 0.28178 0.0
C780 C 0.51336 0.82826 0.23818 0.0
O781 O 0.47264 0.87606 0.26396 0.0
O782 O 0.44849 0.83385 0.24683 0.0
O783 O 0.53786 0.87814 0.27561 0.0
O784 O 0.51201 0.89258 0.29501 0.0
C785 C 0.48405 0.78443 0.28861 0.0
O786 O 0.48928 0.82634 0.23652 0.0
O787 O 0.52412 0.82939 0.25858 0.0
C788 C 0.45791 0.86044 0.24679 0.0
O789 O 0.4728 0.78634 0.26936 0.0
O790 O 0.5013 0.80633 0.3002 0.0
C791 C 0.49917 0.85139 0.33182 0.0
H792 H 0.12547 0.20047 0.0748 0.0
H793 H 0.06679 0.21693 0.03532 0.0
H794 H 0.15052 0.20293 0.03749 0.0
H795 H 0.09204 0.22008 0.99831 0.0
H796 H 0.10017 0.15909 0.94502 0.0
H797 H 0.08787 0.17536 0.98103 0.0
H798 H 0.17716 0.22892 0.99777 0.0
H799 H 0.1897 0.21254 0.96092 0.0
C800 C 0.11886 0.20605 0.05834 0.0
C801 C 0.09411 0.20827 0.05778 0.0
C802 C 0.13314 0.2074 0.03699 0.0
C803 C 0.12284 0.21111 0.01496 0.0
C804 C 0.10015 0.21672 0.01498 0.0
C805 C 0.0858 0.21508 0.03615 0.0
C806 C 0.11729 0.17453 0.95619 0.0
C807 C 0.1459 0.18445 0.95021 0.0
C808 C 0.11023 0.1841 0.97675 0.0
C809 C 0.13155 0.20366 0.99212 0.0
C810 C 0.16032 0.21394 0.98615 0.0
C811 C 0.16747 0.20466 0.96511 0.0
H812 H 0.76282 0.85633 0.05024 0.0
H813 H 0.83635 0.9354 0.07189 0.0
H814 H 0.75592 0.88094 0.01603 0.0
H815 H 0.83002 0.95961 0.03818 0.0
H816 H 0.81565 0.00442 0.98134 0.0
H817 H 0.80323 0.97719 0.01861 0.0
H818 H 0.78176 0.90075 0.97857 0.0
H819 H 0.79295 0.92802 0.9413 0.0
C820 C 0.77701 0.87904 0.048 0.0
C821 C 0.80021 0.89396 0.06353 0.0
C822 C 0.77325 0.89309 0.02837 0.0
C823 C 0.79243 0.92231 0.02425 0.0
C824 C 0.8145 0.93731 0.04082 0.0
C825 C 0.81834 0.92333 0.0601 0.0
C826 C 0.8072 0.98158 0.98058 0.0
C827 C 0.80505 0.96817 0.95864 0.0
C828 C 0.80034 0.966 1.00187 0.0
C829 C 0.79201 0.93683 1.00168 0.0
C830 C 0.78784 0.92306 0.97945 0.0
C831 C 0.7943 0.93864 0.95809 0.0
H832 H 0.14147 0.90212 0.05253 0.0
H833 H 0.06068 0.89501 0.07047 0.0
H834 H 0.11943 0.87163 0.01728 0.0
H835 H 0.03901 0.86558 0.03571 0.0
H836 H 0.0779 0.86554 0.94053 0.0
H837 H 0.10246 0.87905 0.97907 0.0
H838 H 0.02313 0.82249 0.01493 0.0
H839 H 0.99853 0.81045 0.97653 0.0
C840 C 0.1189 0.8934 0.04927 0.0
C841 C 0.10277 0.90099 0.06402 0.0
C842 C 0.10633 0.8762 0.02904 0.0
C843 C 0.07742 0.86615 0.02354 0.0
C844 C 0.06113 0.87238 0.03941 0.0
C845 C 0.07363 0.88956 0.0593 0.0
C846 C 0.06598 0.85544 0.95665 0.0
C847 C 0.03631 0.83736 0.95572 0.0
C848 C 0.08005 0.86306 0.97876 0.0
C849 C 0.06466 0.85236 1.0002 0.0
C850 C 0.0355 0.83178 0.99884 0.0
C851 C 0.0214 0.82473 0.97687 0.0
H852 H 0.20407 0.06588 0.46817 0.0
H853 H 0.21283 0.13216 0.4203 0.0
H854 H 0.2096 0.09605 0.50248 0.0
H855 H 0.21846 0.16274 0.45468 0.0
H856 H 0.22471 0.15585 0.56175 0.0
H857 H 0.23857 0.14025 0.52578 0.0
H858 H 0.18122 0.1565 0.48385 0.0
H859 H 0.16755 0.17233 0.51965 0.0
C860 C 0.20845 0.08746 0.46509 0.0
C861 C 0.20849 0.09702 0.4418 0.0
C862 C 0.2116 0.10477 0.48468 0.0
C863 C 0.21433 0.13176 0.48129 0.0
C864 C 0.21625 0.142 0.45782 0.0
C865 C 0.21336 0.12471 0.43819 0.0
C866 C 0.21552 0.1567 0.54478 0.0
C867 C 0.1946 0.16482 0.54365 0.0
C868 C 0.22344 0.1477 0.52419 0.0
C869 C 0.2108 0.14687 0.50203 0.0
C870 C 0.19154 0.15708 0.50061 0.0
C871 C 0.18349 0.16592 0.5212 0.0
H872 H 0.85329 0.00558 0.53031 0.0
H873 H 0.84107 0.06977 0.56504 0.0
H874 H 0.86615 0.03289 0.49328 0.0
H875 H 0.85457 0.09776 0.52774 0.0
H876 H 0.93262 0.14951 0.47182 0.0
H877 H 0.90325 0.12348 0.50636 0.0
H878 H 0.84944 0.05263 0.46038 0.0
H879 H 0.87894 0.07882 0.42595 0.0
C880 C 0.85273 0.0253 0.52978 0.0
C881 C 0.84618 0.03559 0.55044 0.0
C882 C 0.85996 0.04091 0.50854 0.0
C883 C 0.86136 0.06751 0.50755 0.0
C884 C 0.85364 0.07732 0.52799 0.0
C885 C 0.84576 0.06129 0.54923 0.0
C886 C 0.91371 0.12893 0.46903 0.0
C887 C 0.90765 0.11626 0.4463 0.0
C888 C 0.89691 0.11398 0.48877 0.0
C889 C 0.87413 0.08591 0.48612 0.0
C890 C 0.86692 0.07416 0.46299 0.0
C891 C 0.88358 0.0892 0.44326 0.0
H892 H 0.93522 0.78628 0.5654 0.0
H893 H 0.01066 0.84554 0.5262 0.0
H894 H 0.90791 0.77268 0.52816 0.0
H895 H 0.98338 0.83209 0.4892 0.0
H896 H 0.93026 0.80031 0.42338 0.0
H897 H 0.95403 0.79478 0.45872 0.0
H898 H 0.89396 0.80259 0.50443 0.0
H899 H 0.87058 0.80817 0.46941 0.0
C900 C 0.94612 0.79594 0.54881 0.0
C901 C 0.97497 0.81739 0.54881 0.0
C902 C 0.93047 0.78817 0.5275 0.0
C903 C 0.94344 0.80149 0.50579 0.0
C904 C 0.9728 0.82127 0.50557 0.0
C905 C 0.98837 0.8292 0.52685 0.0
C906 C 0.92172 0.79993 0.44099 0.0
C907 C 0.89882 0.80491 0.44379 0.0
C908 C 0.93537 0.79695 0.46118 0.0
C909 C 0.92595 0.79841 0.48435 0.0
C910 C 0.90159 0.80107 0.48688 0.0
C911 C 0.88831 0.80448 0.46683 0.0
H912 H 0.84165 0.84275 0.02528 0.0
H913 H 0.85394 0.78196 0.0661 0.0
H914 H 0.85801 0.82977 0.98931 0.0
H915 H 0.87032 0.76903 0.03002 0.0
H916 H 0.94507 0.8024 0.97236 0.0
H917 H 0.91582 0.7986 0.00695 0.0
H918 H 0.84921 0.79089 0.95969 0.0
H919 H 0.87869 0.79445 0.92501 0.0
C920 C 0.84736 0.82626 0.0265 0.0
C921 C 0.84685 0.81368 0.04863 0.0
C922 C 0.8565 0.81865 0.00583 0.0
C923 C 0.86556 0.79846 0.00688 0.0
C924 C 0.86363 0.78478 0.02873 0.0
C925 C 0.85418 0.79217 0.04937 0.0
C926 C 0.92369 0.7987 0.96947 0.0
C927 C 0.9138 0.79823 0.94622 0.0
C928 C 0.90694 0.79656 0.98921 0.0
C929 C 0.88025 0.79455 0.98603 0.0
C930 C 0.86973 0.79249 0.96265 0.0
C931 C 0.88638 0.79421 0.94286 0.0
H932 H 0.18167 0.12812 0.97027 0.0
H933 H 0.19553 0.07344 0.92264 0.0
H934 H 0.18819 0.10437 0.00462 0.0
H935 H 0.20192 0.04935 0.95728 0.0
H936 H 0.15423 0.98949 0.02465 0.0
H937 H 0.16487 0.01724 0.98791 0.0
H938 H 0.22226 0.0936 0.02681 0.0
H939 H 0.21163 0.06588 0.06367 0.0
C940 C 0.18665 0.11133 0.96719 0.0
C941 C 0.18783 0.10241 0.94385 0.0
C942 C 0.19063 0.09789 0.98685 0.0
C943 C 0.19551 0.07497 0.98361 0.0
C944 C 0.1981 0.06692 0.96024 0.0
C945 C 0.19457 0.08075 0.94047 0.0
C946 C 0.1696 0.0121 0.02528 0.0
C947 C 0.18171 0.02558 0.04713 0.0
C948 C 0.17588 0.02794 0.00419 0.0
C949 C 0.19419 0.05761 0.00457 0.0
C950 C 0.20787 0.07078 0.02608 0.0
C951 C 0.20183 0.05488 0.04715 0.0
H952 H 0.91548 0.12901 0.92816 0.0
H953 H 0.85232 0.0703 0.9778 0.0
H954 H 0.94365 0.15897 0.96167 0.0
H955 H 0.88018 0.10039 0.01118 0.0
H956 H 0.93554 0.163 0.06797 0.0
H957 H 0.9049 0.14994 0.03235 0.0
H958 H 0.96847 0.14212 0.99173 0.0
H959 H 0.99852 0.15445 0.02721 0.0
C960 C 0.90699 0.12319 0.94612 0.0
C961 C 0.88181 0.09727 0.95043 0.0
C962 C 0.92321 0.14022 0.9653 0.0
C963 C 0.91421 0.13186 0.98902 0.0
C964 C 0.88756 0.10749 0.99311 0.0
C965 C 0.87163 0.09022 0.974 0.0
C966 C 0.94316 0.15918 0.05124 0.0
C967 C 0.96923 0.15949 0.0503 0.0
C968 C 0.92565 0.15166 0.03093 0.0
C969 C 0.93435 0.1451 0.00927 0.0
C970 C 0.96133 0.14741 0.00805 0.0
C971 C 0.97844 0.15424 0.0284 0.0
H972 H 0.79318 0.81444 0.46331 0.0
H973 H 0.8559 0.90184 0.44725 0.0
H974 H 0.77989 0.83057 0.49994 0.0
H975 H 0.84277 0.91758 0.48303 0.0
H976 H 0.80417 0.94605 0.53489 0.0
H977 H 0.80025 0.91959 0.49852 0.0
H978 H 0.80689 0.85601 0.54015 0.0
H979 H 0.8101 0.88237 0.57691 0.0
C980 C 0.80385 0.83699 0.46745 0.0
C981 C 0.82565 0.85686 0.45251 0.0
C982 C 0.79635 0.84616 0.48837 0.0
C983 C 0.81008 0.87535 0.49417 0.0
C984 C 0.83142 0.89502 0.47888 0.0
C985 C 0.83915 0.88592 0.45844 0.0
C986 C 0.80384 0.92593 0.53636 0.0
C987 C 0.80783 0.9164 0.55859 0.0
C988 C 0.80165 0.91082 0.51556 0.0
C989 C 0.80387 0.88608 0.51648 0.0
C990 C 0.80506 0.87499 0.53895 0.0
C991 C 0.80694 0.89006 0.55995 0.0
H992 H 0.13063 0.9281 0.58116 0.0
H993 H 0.06528 0.8634 0.53681 0.0
H994 H 0.15821 0.95265 0.54537 0.0
H995 H 0.09231 0.88784 0.50102 0.0
H996 H 0.14863 0.93356 0.43896 0.0
H997 H 0.13488 0.90548 0.47579 0.0
H998 H 0.14841 0.97958 0.51561 0.0
H999 H 0.16248 0.00763 0.47905 0.0
C1000 C 0.12279 0.91862 0.56374 0.0
C1001 C 0.0962 0.89375 0.56156 0.0
C1002 C 0.13833 0.93278 0.54326 0.0
C1003 C 0.12736 0.92235 0.5203 0.0
C1004 C 0.1016 0.8963 0.51836 0.0
C1005 C 0.08609 0.88224 0.53882 0.0
C1006 C 0.14919 0.94398 0.45565 0.0
C1007 C 0.15626 0.97275 0.45599 0.0
C1008 C 0.14121 0.92785 0.47674 0.0
C1009 C 0.14036 0.94021 0.49863 0.0
C1010 C 0.1491 0.96941 0.49914 0.0
C1011 C 0.15692 0.98546 0.47809 0.0
H1012 H 0.08931 0.2193 0.58105 0.0
H1013 H 0.14927 0.21655 0.53203 0.0
H1014 H 0.0625 0.22305 0.54727 0.0
H1015 H 0.12273 0.22014 0.49829 0.0
H1016 H 0.07229 0.2288 0.43983 0.0
H1017 H 0.10311 0.24498 0.47501 0.0
H1018 H 0.03285 0.18497 0.51877 0.0
H1019 H 0.00201 0.16903 0.48379 0.0
C1020 C 0.09749 0.22096 0.56307 0.0
C1021 C 0.12155 0.21821 0.55901 0.0
C1022 C 0.08197 0.22268 0.54373 0.0
C1023 C 0.09029 0.22159 0.52007 0.0
C1024 C 0.11586 0.22137 0.51623 0.0
C1025 C 0.1312 0.21945 0.53553 0.0
C1026 C 0.06324 0.21948 0.45705 0.0
C1027 C 0.03476 0.19727 0.45891 0.0
C1028 C 0.08095 0.22873 0.47719 0.0
C1029 C 0.07053 0.21615 0.49968 0.0
C1030 C 0.04154 0.19535 0.5018 0.0
C1031 C 0.02389 0.186 0.48166 0.0
H1032 H 0.78884 0.53919 0.41465 0.0
H1033 H 0.72365 0.53586 0.36836 0.0
H1034 H 0.8175 0.54224 0.37958 0.0
H1035 H 0.75199 0.53891 0.33334 0.0
H1036 H 0.81129 0.55095 0.27298 0.0
H1037 H 0.7965 0.56539 0.30921 0.0
H1038 H 0.80725 0.50379 0.35013 0.0
H1039 H 0.82207 0.48945 0.31411 0.0
C1040 C 0.78131 0.54041 0.39698 0.0
C1041 C 0.7544 0.5378 0.39405 0.0
C1042 C 0.79747 0.54179 0.37692 0.0
C1043 C 0.78693 0.54062 0.35367 0.0
C1044 C 0.76091 0.54022 0.35095 0.0
C1045 C 0.74469 0.53854 0.37097 0.0
C1046 C 0.81106 0.5409 0.2898 0.0
C1047 C 0.81753 0.51879 0.2906 0.0
C1048 C 0.80249 0.54913 0.31052 0.0
C1049 C 0.8006 0.53569 0.33253 0.0
C1050 C 0.80876 0.51481 0.33355 0.0
C1051 C 0.81702 0.50639 0.31283 0.0
H1052 H 0.43149 0.1945 0.3863 0.0
H1053 H 0.50536 0.27413 0.40635 0.0
H1054 H 0.4264 0.21718 0.34989 0.0
H1055 H 0.50101 0.29634 0.37042 0.0
H1056 H 0.48932 0.33807 0.30951 0.0
H1057 H 0.47654 0.31369 0.34797 0.0
H1058 H 0.45212 0.23382 0.31242 0.0
H1059 H 0.4635 0.25827 0.27375 0.0
C1060 C 0.44611 0.21696 0.38322 0.0
C1061 C 0.46887 0.23255 0.39902 0.0
C1062 C 0.44345 0.22989 0.36229 0.0
C1063 C 0.46335 0.25863 0.35706 0.0
C1064 C 0.48495 0.27439 0.37382 0.0
C1065 C 0.48763 0.26155 0.39444 0.0
C1066 C 0.48063 0.3152 0.30993 0.0
C1067 C 0.47781 0.30011 0.28878 0.0
C1068 C 0.47339 0.30119 0.33196 0.0
C1069 C 0.46397 0.27184 0.33345 0.0
C1070 C 0.45918 0.25637 0.31203 0.0
C1071 C 0.46584 0.27038 0.28986 0.0
H1072 H 0.68382 0.13993 0.30292 0.0
H1073 H 0.73212 0.22778 0.28041 0.0
H1074 H 0.71119 0.15239 0.34052 0.0
H1075 H 0.75973 0.24002 0.31729 0.0
H1076 H 0.81432 0.25552 0.38036 0.0
H1077 H 0.7944 0.23036 0.34251 0.0
H1078 H 0.71075 0.18586 0.37465 0.0
H1079 H 0.73063 0.21142 0.41215 0.0
C1080 C 0.70076 0.16167 0.30577 0.0
C1081 C 0.7058 0.18297 0.28898 0.0
C1082 C 0.71635 0.16879 0.3272 0.0
C1083 C 0.73769 0.19713 0.33172 0.0
C1084 C 0.74373 0.21795 0.31417 0.0
C1085 C 0.72776 0.211 0.29317 0.0
C1086 C 0.79195 0.23942 0.37954 0.0
C1087 C 0.77396 0.23509 0.39905 0.0
C1088 C 0.78052 0.2252 0.35791 0.0
C1089 C 0.75102 0.20623 0.35567 0.0
C1090 C 0.73357 0.20007 0.37594 0.0
C1091 C 0.74491 0.21466 0.39737 0.0
H1092 H 0.83236 0.50138 0.85901 0.0
H1093 H 0.88677 0.48155 0.90162 0.0
H1094 H 0.84579 0.48516 0.82322 0.0
H1095 H 0.90011 0.46526 0.86572 0.0
H1096 H 0.8607 0.39023 0.80798 0.0
H1097 H 0.8669 0.42059 0.84234 0.0
H1098 H 0.88507 0.49049 0.7947 0.0
H1099 H 0.8792 0.45985 0.76019 0.0
C1100 C 0.8477 0.49419 0.86065 0.0
C1101 C 0.8581 0.49228 0.88321 0.0
C1102 C 0.85558 0.48512 0.84011 0.0
C1103 C 0.87381 0.47373 0.84174 0.0
C1104 C 0.88585 0.47377 0.86401 0.0
C1105 C 0.87824 0.48315 0.88454 0.0
C1106 C 0.86706 0.41239 0.80498 0.0
C1107 C 0.86977 0.42294 0.78167 0.0
C1108 C 0.87068 0.4298 0.82458 0.0
C1109 C 0.87645 0.45791 0.82118 0.0
C1110 C 0.88065 0.46891 0.79779 0.0
C1111 C 0.87751 0.45154 0.77812 0.0
H1112 H 0.50378 0.39743 0.89742 0.0
H1113 H 0.50429 0.33043 0.85614 0.0
H1114 H 0.5198 0.42857 0.862 0.0
H1115 H 0.51953 0.36099 0.82084 0.0
H1116 H 0.53917 0.41636 0.75758 0.0
H1117 H 0.50767 0.38927 0.79086 0.0
H1118 H 0.56897 0.44934 0.84092 0.0
H1119 H 0.60044 0.47601 0.80764 0.0
C1120 C 0.50629 0.38906 0.88057 0.0
C1121 C 0.50279 0.36158 0.87941 0.0
C1122 C 0.51561 0.40688 0.86038 0.0
C1123 C 0.52089 0.39721 0.83864 0.0
C1124 C 0.51532 0.36897 0.8372 0.0
C1125 C 0.50668 0.35149 0.85742 0.0
C1126 C 0.5452 0.4244 0.77565 0.0
C1127 C 0.5719 0.44844 0.78015 0.0
C1128 C 0.52736 0.4088 0.79469 0.0
C1129 C 0.53588 0.41714 0.8185 0.0
C1130 C 0.56161 0.44258 0.82279 0.0
C1131 C 0.57962 0.45789 0.80378 0.0
H1132 H 0.53525 0.09977 0.79108 0.0
H1133 H 0.61102 0.17396 0.76541 0.0
H1134 H 0.56167 0.0975 0.82575 0.0
H1135 H 0.6371 0.17325 0.80041 0.0
H1136 H 0.6828 0.1696 0.86356 0.0
H1137 H 0.65861 0.15576 0.82503 0.0
H1138 H 0.57736 0.12275 0.86107 0.0
H1139 H 0.60161 0.13476 0.89943 0.0
C1140 C 0.55779 0.1151 0.79267 0.0
C1141 C 0.57136 0.13685 0.77572 0.0
C1142 C 0.57287 0.11416 0.81264 0.0
C1143 C 0.60152 0.13548 0.81627 0.0
C1144 C 0.61532 0.15616 0.79829 0.0
C1145 C 0.60039 0.15672 0.77819 0.0
C1146 C 0.65973 0.15891 0.86313 0.0
C1147 C 0.64405 0.15354 0.88437 0.0
C1148 C 0.64581 0.15109 0.84106 0.0
C1149 C 0.61594 0.13852 0.83971 0.0
C1150 C 0.60028 0.13196 0.86119 0.0
C1151 C 0.61419 0.1391 0.88328 0.0
H1152 H 0.51911 0.12009 0.40285 0.0
H1153 H 0.50676 0.18139 0.36286 0.0
H1154 H 0.53511 0.10738 0.36644 0.0
H1155 H 0.52274 0.16863 0.32656 0.0
H1156 H 0.54474 0.13446 0.26217 0.0
H1157 H 0.51451 0.1296 0.29654 0.0
H1158 H 0.58132 0.13921 0.34443 0.0
H1159 H 0.61144 0.14426 0.3103 0.0
C1160 C 0.51919 0.13039 0.38621 0.0
C1161 C 0.51218 0.15212 0.38577 0.0
C1162 C 0.52837 0.12312 0.36541 0.0
C1163 C 0.53031 0.13715 0.34377 0.0
C1164 C 0.52123 0.1573 0.34297 0.0
C1165 C 0.51236 0.16481 0.3638 0.0
C1166 C 0.55259 0.13475 0.28006 0.0
C1167 C 0.5805 0.14006 0.28368 0.0
C1168 C 0.53537 0.1321 0.29966 0.0
C1169 C 0.54566 0.13417 0.32309 0.0
C1170 C 0.57274 0.13727 0.32659 0.0
C1171 C 0.59006 0.14038 0.30707 0.0
H1172 H 0.86568 0.40059 0.39989 0.0
H1173 H 0.82981 0.32035 0.36236 0.0
H1174 H 0.87711 0.42594 0.36182 0.0
H1175 H 0.84274 0.34562 0.32426 0.0
H1176 H 0.81798 0.39262 0.26968 0.0
H1177 H 0.82142 0.36741 0.30385 0.0
H1178 H 0.90097 0.44183 0.32403 0.0
H1179 H 0.89675 0.46771 0.2895 0.0
C1180 C 0.86103 0.38844 0.38346 0.0
C1181 C 0.84631 0.35849 0.38401 0.0
C1182 C 0.86779 0.40299 0.36159 0.0
C1183 C 0.86038 0.38786 0.33985 0.0
C1184 C 0.848 0.35798 0.3406 0.0
C1185 C 0.84066 0.34344 0.36241 0.0
C1186 C 0.83651 0.40353 0.28116 0.0
C1187 C 0.8569 0.43224 0.27715 0.0
C1188 C 0.83869 0.38891 0.30072 0.0
C1189 C 0.86144 0.4025 0.31692 0.0
C1190 C 0.88296 0.43081 0.31208 0.0
C1191 C 0.88076 0.44556 0.29223 0.0
H1192 H 0.58942 0.47689 0.40079 0.0
H1193 H 0.66528 0.50441 0.35817 0.0
H1194 H 0.56019 0.45946 0.36464 0.0
H1195 H 0.63615 0.48706 0.32218 0.0
H1196 H 0.57851 0.46071 0.25841 0.0
H1197 H 0.60171 0.49013 0.29387 0.0
H1198 H 0.55088 0.41748 0.33925 0.0
H1199 H 0.52822 0.38841 0.30393 0.0
C1200 C 0.59992 0.47994 0.38367 0.0
C1201 C 0.62966 0.49178 0.38239 0.0
C1202 C 0.58316 0.4698 0.36298 0.0
C1203 C 0.59582 0.4717 0.34055 0.0
C1204 C 0.62571 0.48547 0.33911 0.0
C1205 C 0.64241 0.49526 0.35978 0.0
C1206 C 0.57168 0.45149 0.27605 0.0
C1207 C 0.55139 0.4225 0.2786 0.0
C1208 C 0.58509 0.46817 0.2963 0.0
C1209 C 0.57817 0.45613 0.31939 0.0
C1210 C 0.55644 0.42756 0.32182 0.0
C1211 C 0.54344 0.41087 0.30162 0.0
H1212 H 0.44257 0.16248 0.77671 0.0
H1213 H 0.52023 0.18097 0.8131 0.0
H1214 H 0.42625 0.17605 0.8128 0.0
H1215 H 0.50363 0.1936 0.8492 0.0
H1216 H 0.46365 0.20516 0.91434 0.0
H1217 H 0.46178 0.17425 0.88156 0.0
H1218 H 0.45257 0.22915 0.83082 0.0
H1219 H 0.45514 0.26039 0.86342 0.0
C1220 C 0.45565 0.16851 0.79267 0.0
C1221 C 0.48269 0.17087 0.79221 0.0
C1222 C 0.44636 0.17629 0.81322 0.0
C1223 C 0.46365 0.18572 0.83373 0.0
C1224 C 0.48974 0.18605 0.83373 0.0
C1225 C 0.49931 0.17902 0.81306 0.0
C1226 C 0.46013 0.20999 0.89628 0.0
C1227 C 0.45972 0.23521 0.89132 0.0
C1228 C 0.45919 0.19239 0.87756 0.0
C1229 C 0.45714 0.19943 0.85373 0.0
C1230 C 0.45389 0.22312 0.84905 0.0
C1231 C 0.45547 0.24103 0.86767 0.0
H1232 H 0.73592 0.19017 0.87511 0.0
H1233 H 0.79897 0.25742 0.91913 0.0
H1234 H 0.7633 0.21419 0.83931 0.0
H1235 H 0.82711 0.28129 0.88348 0.0
H1236 H 0.83121 0.33488 0.81705 0.0
H1237 H 0.81737 0.30691 0.85349 0.0
H1238 H 0.80533 0.23322 0.81382 0.0
H1239 H 0.81879 0.26136 0.77693 0.0
C1240 C 0.75638 0.20945 0.87711 0.0
C1241 C 0.76563 0.22186 0.89972 0.0
C1242 C 0.77211 0.22328 0.85663 0.0
C1243 C 0.79729 0.2499 0.85845 0.0
C1244 C 0.80761 0.26105 0.8814 0.0
C1245 C 0.79177 0.24725 0.90184 0.0
C1246 C 0.82608 0.31284 0.81607 0.0
C1247 C 0.82577 0.30029 0.79398 0.0
C1248 C 0.81837 0.2968 0.8371 0.0
C1249 C 0.81011 0.26771 0.83666 0.0
C1250 C 0.8113 0.2555 0.81476 0.0
C1251 C 0.81917 0.27166 0.79364 0.0
H1252 H 0.66224 0.51553 0.81434 0.0
H1253 H 0.74009 0.5403 0.7756 0.0
H1254 H 0.6886 0.5286 0.8519 0.0
H1255 H 0.76638 0.55182 0.81325 0.0
H1256 H 0.80989 0.57028 0.88459 0.0
H1257 H 0.78546 0.57696 0.85017 0.0
H1258 H 0.70634 0.50391 0.87324 0.0
H1259 H 0.73041 0.49807 0.90725 0.0
C1260 C 0.68511 0.52417 0.81389 0.0
C1261 C 0.69907 0.52656 0.79215 0.0
C1262 C 0.70024 0.53151 0.83541 0.0
C1263 C 0.72958 0.54059 0.83577 0.0
C1264 C 0.7439 0.54507 0.81377 0.0
C1265 C 0.72881 0.53832 0.79214 0.0
C1266 C 0.78709 0.55644 0.88257 0.0
C1267 C 0.77198 0.53364 0.89843 0.0
C1268 C 0.77313 0.55999 0.86277 0.0
C1269 C 0.74387 0.54088 0.85872 0.0
C1270 C 0.72867 0.51939 0.87574 0.0
C1271 C 0.74253 0.51586 0.89526 0.0
H1272 H 0.38615 0.85599 0.70305 0.0
H1273 H 0.45858 0.88284 0.74957 0.0
H1274 H 0.41632 0.8639 0.6682 0.0
H1275 H 0.48911 0.89045 0.71453 0.0
H1276 H 0.50683 0.84229 0.65056 0.0
H1277 H 0.48828 0.85311 0.68637 0.0
H1278 H 0.45832 0.89905 0.6434 0.0
H1279 H 0.47703 0.88832 0.60746 0.0
C1280 C 0.4088 0.86449 0.70568 0.0
C1281 C 0.42017 0.8691 0.72885 0.0
C1282 C 0.42612 0.86908 0.68574 0.0
C1283 C 0.45512 0.87778 0.68859 0.0
C1284 C 0.46683 0.88373 0.7118 0.0
C1285 C 0.44949 0.87963 0.7318 0.0
C1286 C 0.49695 0.85534 0.64882 0.0
C1287 C 0.49317 0.86421 0.62614 0.0
C1288 C 0.48648 0.8617 0.66938 0.0
C1289 C 0.47165 0.87676 0.6677 0.0
C1290 C 0.46951 0.88724 0.64522 0.0
C1291 C 0.48036 0.88122 0.62466 0.0
H1292 H 0.12668 0.59964 0.60636 0.0
H1293 H 0.17828 0.67529 0.64842 0.0
H1294 H 0.11698 0.57027 0.64213 0.0
H1295 H 0.16848 0.64588 0.6841 0.0
H1296 H 0.13562 0.58549 0.74722 0.0
H1297 H 0.13046 0.61059 0.7128 0.0
H1298 H 0.15201 0.56132 0.66531 0.0
H1299 H 0.15734 0.53649 0.69953 0.0
C1300 C 0.13537 0.61007 0.62331 0.0
C1301 C 0.15354 0.63977 0.62452 0.0
C1302 C 0.12991 0.59323 0.64375 0.0
C1303 C 0.14216 0.60578 0.66582 0.0
C1304 C 0.1586 0.63562 0.66736 0.0
C1305 C 0.16436 0.65244 0.64689 0.0
C1306 C 0.13865 0.57964 0.72938 0.0
C1307 C 0.14712 0.55922 0.72602 0.0
C1308 C 0.13583 0.59408 0.70974 0.0
C1309 C 0.14088 0.58793 0.68642 0.0
C1310 C 0.1477 0.56632 0.68304 0.0
C1311 C 0.15097 0.55226 0.70264 0.0
H1312 H 0.48139 0.60739 0.70192 0.0
H1313 H 0.42028 0.54249 0.74889 0.0
H1314 H 0.45558 0.57879 0.66721 0.0
H1315 H 0.39421 0.51351 0.71416 0.0
H1316 H 0.33555 0.50962 0.65004 0.0
H1317 H 0.36545 0.5237 0.68561 0.0
H1318 H 0.43679 0.53463 0.64305 0.0
H1319 H 0.40695 0.52075 0.60731 0.0
C1320 C 0.46317 0.58631 0.70473 0.0
C1321 C 0.45299 0.57678 0.72789 0.0
C1322 C 0.4483 0.56994 0.6849 0.0
C1323 C 0.42269 0.54397 0.68794 0.0
C1324 C 0.41375 0.53352 0.71127 0.0
C1325 C 0.42881 0.54985 0.73112 0.0
C1326 C 0.35748 0.51456 0.64829 0.0
C1327 C 0.36896 0.51451 0.62575 0.0
C1328 C 0.37457 0.52237 0.66875 0.0
C1329 C 0.40355 0.53043 0.66712 0.0
C1330 C 0.41461 0.52878 0.64481 0.0
C1331 C 0.39746 0.52077 0.62436 0.0
H1332 H 0.53209 0.7213 0.14155 0.0
H1333 H 0.54697 0.7898 0.09374 0.0
H1334 H 0.53741 0.75133 0.1759 0.0
H1335 H 0.55227 0.8202 0.1282 0.0
H1336 H 0.501 0.83257 0.19153 0.0
H1337 H 0.51447 0.81559 0.15629 0.0
H1338 H 0.56714 0.79475 0.20015 0.0
H1339 H 0.55353 0.81165 0.23556 0.0
C1340 C 0.53771 0.74327 0.13851 0.0
C1341 C 0.53959 0.75349 0.11515 0.0
C1342 C 0.54073 0.7605 0.15815 0.0
C1343 C 0.54512 0.78815 0.1548 0.0
C1344 C 0.54877 0.79896 0.13135 0.0
C1345 C 0.54609 0.78175 0.11165 0.0
C1346 C 0.51593 0.82494 0.19362 0.0
C1347 C 0.52587 0.82312 0.21643 0.0
C1348 C 0.52385 0.8154 0.17335 0.0
C1349 C 0.54174 0.80362 0.17542 0.0
C1350 C 0.55313 0.80348 0.19801 0.0
C1351 C 0.54542 0.81329 0.21828 0.0
H1352 H 0.1696 0.72946 0.23419 0.0
H1353 H 0.16347 0.66039 0.19101 0.0
H1354 H 0.18332 0.75992 0.19888 0.0
H1355 H 0.17748 0.69098 0.15586 0.0
H1356 H 0.20087 0.74876 0.09386 0.0
H1357 H 0.16907 0.7208 0.12661 0.0
H1358 H 0.22941 0.78021 0.17766 0.0
H1359 H 0.26091 0.8079 0.14511 0.0
C1360 C 0.17056 0.72054 0.21711 0.0
C1361 C 0.16607 0.69266 0.21553 0.0
C1362 C 0.17846 0.73804 0.19688 0.0
C1363 C 0.18183 0.72799 0.17465 0.0
C1364 C 0.1749 0.69934 0.17269 0.0
C1365 C 0.16712 0.68186 0.19292 0.0
C1366 C 0.20673 0.75639 0.11204 0.0
C1367 C 0.23341 0.78034 0.11703 0.0
C1368 C 0.18867 0.74026 0.13078 0.0
C1369 C 0.19688 0.74811 0.15472 0.0
C1370 C 0.22231 0.77365 0.15946 0.0
C1371 C 0.24045 0.7895 0.14081 0.0
H1372 H 0.34087 0.50815 0.19431 0.0
H1373 H 0.26637 0.45164 0.23584 0.0
H1374 H 0.31144 0.49681 0.15858 0.0
H1375 H 0.23696 0.44018 0.19995 0.0
H1376 H 0.19868 0.47774 0.14441 0.0
H1377 H 0.22403 0.47211 0.17795 0.0
H1378 H 0.27877 0.46016 0.12885 0.0
H1379 H 0.25318 0.46582 0.09503 0.0
C1380 C 0.31831 0.49283 0.19572 0.0
C1381 C 0.30589 0.4812 0.21801 0.0
C1382 C 0.30148 0.48615 0.17518 0.0
C1383 C 0.27184 0.46781 0.17651 0.0
C1384 C 0.25972 0.45462 0.19846 0.0
C1385 C 0.27659 0.46113 0.21899 0.0
C1386 C 0.21573 0.47329 0.14076 0.0
C1387 C 0.22416 0.4725 0.11714 0.0
C1388 C 0.23012 0.46984 0.15998 0.0
C1389 C 0.25348 0.46582 0.15604 0.0
C1390 C 0.26093 0.46341 0.13239 0.0
C1391 C 0.24621 0.46648 0.11307 0.0
H1392 H 0.26218 0.44275 0.63146 0.0
H1393 H 0.22131 0.48635 0.60114 0.0
H1394 H 0.23625 0.43642 0.66911 0.0
H1395 H 0.19495 0.47955 0.63839 0.0
H1396 H 0.14634 0.4573 0.70877 0.0
H1397 H 0.15962 0.44376 0.67089 0.0
H1398 H 0.24625 0.47995 0.69605 0.0
H1399 H 0.23322 0.49404 0.73327 0.0
C1400 C 0.24667 0.44977 0.63255 0.0
C1401 C 0.24345 0.46482 0.61355 0.0
C1402 C 0.232 0.44633 0.65405 0.0
C1403 C 0.21364 0.45753 0.65663 0.0
C1404 C 0.20866 0.47038 0.63681 0.0
C1405 C 0.22373 0.47431 0.61554 0.0
C1406 C 0.16801 0.46171 0.70628 0.0
C1407 C 0.18885 0.47683 0.72372 0.0
C1408 C 0.1756 0.45403 0.6847 0.0
C1409 C 0.20391 0.46067 0.68064 0.0
C1410 C 0.22421 0.47419 0.69881 0.0
C1411 C 0.21682 0.48247 0.72 0.0
H1412 H 0.53316 0.81145 0.64108 0.0
H1413 H 0.54692 0.75682 0.59359 0.0
H1414 H 0.53765 0.78638 0.67557 0.0
H1415 H 0.55128 0.73129 0.6282 0.0
H1416 H 0.49934 0.66855 0.69199 0.0
H1417 H 0.51277 0.69874 0.65654 0.0
H1418 H 0.56737 0.77225 0.69968 0.0
H1419 H 0.55386 0.74207 0.73526 0.0
C1420 C 0.53832 0.79476 0.63815 0.0
C1421 C 0.54015 0.78626 0.61485 0.0
C1422 C 0.54086 0.78035 0.65786 0.0
C1423 C 0.54469 0.75674 0.65462 0.0
C1424 C 0.54823 0.74934 0.63123 0.0
C1425 C 0.54607 0.76408 0.61147 0.0
C1426 C 0.51462 0.69106 0.69388 0.0
C1427 C 0.52519 0.70294 0.71653 0.0
C1428 C 0.52252 0.70834 0.6735 0.0
C1429 C 0.54101 0.73793 0.67532 0.0
C1430 C 0.5529 0.74955 0.69775 0.0
C1431 C 0.5452 0.73222 0.71812 0.0
H1432 H 0.25276 0.80011 0.59321 0.0
H1433 H 0.19242 0.73045 0.63696 0.0
H1434 H 0.27544 0.82811 0.6293 0.0
H1435 H 0.21497 0.75796 0.673 0.0
H1436 H 0.25788 0.81304 0.73589 0.0
H1437 H 0.22952 0.79972 0.69917 0.0
H1438 H 0.30482 0.8199 0.658 0.0
H1439 H 0.33301 0.83337 0.69441 0.0
C1440 C 0.24368 0.79135 0.61057 0.0
C1441 C 0.22073 0.76344 0.61251 0.0
C1442 C 0.25678 0.80716 0.6312 0.0
C1443 C 0.24716 0.79518 0.65404 0.0
C1444 C 0.22271 0.76801 0.65575 0.0
C1445 C 0.20976 0.75221 0.63515 0.0
C1446 C 0.26847 0.81528 0.71892 0.0
C1447 C 0.29763 0.82388 0.71809 0.0
C1448 C 0.2522 0.80754 0.69791 0.0
C1449 C 0.26485 0.80857 0.67567 0.0
C1450 C 0.2944 0.81911 0.67475 0.0
C1451 C 0.31056 0.8266 0.6957 0.0
H1452 H 0.1 0.49975 0.11322 0.0
H1453 H 0.1795 0.51807 0.146 0.0
H1454 H 0.08485 0.51133 0.15112 0.0
H1455 H 0.16437 0.52892 0.18362 0.0
H1456 H 0.13222 0.53898 0.25157 0.0
H1457 H 0.12787 0.5091 0.21715 0.0
H1458 H 0.10683 0.56079 0.17219 0.0
H1459 H 0.11124 0.59056 0.2067 0.0
C1460 C 0.1138 0.50542 0.12871 0.0
C1461 C 0.14093 0.5082 0.1268 0.0
C1462 C 0.10521 0.51211 0.15029 0.0
C1463 C 0.12337 0.52089 0.17033 0.0
C1464 C 0.14971 0.52183 0.16864 0.0
C1465 C 0.15849 0.51583 0.14707 0.0
C1466 C 0.12527 0.54297 0.23455 0.0
C1467 C 0.12166 0.56668 0.23168 0.0
C1468 C 0.12301 0.52608 0.21485 0.0
C1469 C 0.11723 0.53278 0.19197 0.0
C1470 C 0.11097 0.55492 0.18963 0.0
C1471 C 0.11343 0.57192 0.20934 0.0
H1472 H 0.48245 0.59012 0.10834 0.0
H1473 H 0.50264 0.66454 0.15081 0.0
H1474 H 0.46849 0.56102 0.1446 0.0
H1475 H 0.48849 0.6355 0.18684 0.0
H1476 H 0.46632 0.5811 0.25069 0.0
H1477 H 0.49548 0.60466 0.21528 0.0
H1478 H 0.42592 0.54669 0.16984 0.0
H1479 H 0.3972 0.52337 0.20517 0.0
C1480 C 0.48453 0.6004 0.12543 0.0
C1481 C 0.49319 0.62956 0.12665 0.0
C1482 C 0.47644 0.5837 0.14618 0.0
C1483 C 0.47714 0.59589 0.16856 0.0
C1484 C 0.48792 0.62545 0.16993 0.0
C1485 C 0.49579 0.64208 0.14922 0.0
C1486 C 0.45792 0.57274 0.23309 0.0
C1487 C 0.42983 0.55031 0.23044 0.0
C1488 C 0.4744 0.58635 0.21286 0.0
C1489 C 0.46294 0.57767 0.18975 0.0
C1490 C 0.43556 0.55369 0.18732 0.0
C1491 C 0.41908 0.54029 0.20751 0.0
H1492 H 0.32992 0.82492 0.15165 0.0
H1493 H 0.39906 0.88886 0.10943 0.0
H1494 H 0.36055 0.83962 0.18688 0.0
H1495 H 0.43018 0.90332 0.14481 0.0
H1496 H 0.47413 0.86794 0.20048 0.0
H1497 H 0.44822 0.87307 0.16679 0.0
H1498 H 0.39075 0.88018 0.21614 0.0
H1499 H 0.41716 0.87549 0.24987 0.0
C1500 C 0.35152 0.84265 0.15011 0.0
C1501 C 0.36216 0.85575 0.12787 0.0
C1502 C 0.36904 0.85117 0.1703 0.0
C1503 C 0.39779 0.87261 0.16861 0.0
C1504 C 0.40809 0.88676 0.14661 0.0
C1505 C 0.39028 0.87862 0.12644 0.0
C1506 C 0.45676 0.87192 0.20406 0.0
C1507 C 0.44784 0.87181 0.22764 0.0
C1508 C 0.4419 0.87483 0.18482 0.0
C1509 C 0.4174 0.87697 0.18883 0.0
C1510 C 0.40957 0.87861 0.21254 0.0
C1511 C 0.42477 0.87618 0.23181 0.0
H1512 H 0.04376 0.09554 0.12109 0.0
H1513 H 0.1153 0.1709 0.15082 0.0
H1514 H 0.06913 0.06933 0.12632 0.0
H1515 H 0.14118 0.14443 0.15564 0.0
H1516 H 0.13946 0.04438 0.16659 0.0
H1517 H 0.12164 0.07748 0.17508 0.0
H1518 H 0.12853 0.09902 0.10018 0.0
H1519 H 0.14566 0.06601 0.09166 0.0
C1520 C 0.06462 0.10622 0.12941 0.0
C1521 C 0.07766 0.13519 0.13548 0.0
C1522 C 0.07906 0.09123 0.13245 0.0
C1523 C 0.10696 0.10495 0.14138 0.0
C1524 C 0.11949 0.13342 0.149 0.0
C1525 C 0.10474 0.14847 0.14625 0.0
C1526 C 0.13805 0.05698 0.15217 0.0
C1527 C 0.14367 0.0526 0.12847 0.0
C1528 C 0.12792 0.07583 0.15702 0.0
C1529 C 0.12387 0.09067 0.13823 0.0
C1530 C 0.13167 0.08787 0.11492 0.0
C1531 C 0.14134 0.06894 0.11006 0.0
H1532 H 0.83533 0.94556 0.1237 0.0
H1533 H 0.90319 0.93605 0.1544 0.0
H1534 H 0.86469 0.99718 0.12666 0.0
H1535 H 0.932 0.98762 0.15897 0.0
H1536 H 0.98933 0.07102 0.1208 0.0
H1537 H 0.957 0.02196 0.13013 0.0
H1538 H 0.89087 0.04198 0.14631 0.0
H1539 H 0.92363 0.09199 0.13579 0.0
C1540 C 0.85615 0.95454 0.13197 0.0
C1541 C 0.86724 0.93695 0.13851 0.0
C1542 C 0.87299 0.98418 0.13376 0.0
C1543 C 0.90105 0.99673 0.14252 0.0
C1544 C 0.91087 0.97879 0.15136 0.0
C1545 C 0.89434 0.94923 0.14898 0.0
C1546 C 0.968 0.06527 0.12648 0.0
C1547 C 0.95904 0.08556 0.12723 0.0
C1548 C 0.94941 0.03691 0.13221 0.0
C1549 C 0.92124 0.0278 0.13922 0.0
C1550 C 0.91237 0.0482 0.14079 0.0
C1551 C 0.93112 0.07685 0.13484 0.0
H1552 H 0.90883 0.88655 0.15972 0.0
H1553 H 0.91313 0.8269 0.11133 0.0
H1554 H 0.95988 0.90788 0.16812 0.0
H1555 H 0.96409 0.84807 0.11949 0.0
H1556 H 0.05457 0.88571 0.14256 0.0
H1557 H 0.00305 0.85931 0.14848 0.0
H1558 H 1.00065 0.93748 0.14145 0.0
H1559 H 0.0521 0.96394 0.1357 0.0
C1560 C 0.92058 0.87733 0.15166 0.0
C1561 C 0.90723 0.85486 0.13526 0.0
C1562 C 0.94978 0.8897 0.15622 0.0
C1563 C 0.96607 0.87978 0.14437 0.0
C1564 C 0.95212 0.85597 0.12917 0.0
C1565 C 0.92297 0.84377 0.1245 0.0
C1566 C 0.04317 0.8974 0.14279 0.0
C1567 C 0.05745 0.92692 0.13831 0.0
C1568 C 0.01362 0.8822 0.14609 0.0
C1569 C 0.99774 0.89623 0.14522 0.0
C1570 C 0.01227 0.92603 0.14241 0.0
C1571 C 0.04178 0.9412 0.13894 0.0
H1572 H 0.07889 0.16304 0.41171 0.0
H1573 H 0.03422 0.12973 0.34513 0.0
H1574 H 0.10998 0.14358 0.40258 0.0
H1575 H 0.06483 0.10926 0.33626 0.0
H1576 H 0.09182 0.04071 0.36524 0.0
H1577 H 0.06712 0.06801 0.36191 0.0
H1578 H 0.14723 0.14633 0.36979 0.0
H1579 H 0.1721 0.11924 0.37266 0.0
C1580 C 0.0763 0.15215 0.39483 0.0
C1581 C 0.05453 0.14805 0.37897 0.0
C1582 C 0.09403 0.14106 0.38959 0.0
C1583 C 0.08976 0.12498 0.36871 0.0
C1584 C 0.06856 0.12169 0.35241 0.0
C1585 C 0.05126 0.1335 0.35738 0.0
C1586 C 0.10424 0.06378 0.36563 0.0
C1587 C 0.13386 0.07781 0.36938 0.0
C1588 C 0.09013 0.07938 0.36359 0.0
C1589 C 0.10533 0.10922 0.36568 0.0
C1590 C 0.13509 0.12333 0.36812 0.0
C1591 C 0.14928 0.10779 0.3697 0.0
H1592 H 0.89171 0.05894 0.3694 0.0
H1593 H 0.97143 0.06024 0.37978 0.0
H1594 H 0.86779 0.00765 0.36184 0.0
H1595 H 0.94755 0.00922 0.37265 0.0
H1596 H 0.83566 0.91351 0.39008 0.0
H1597 H 0.85434 0.96484 0.38618 0.0
H1598 H 0.92393 0.9721 0.34312 0.0
H1599 H 0.90567 0.92112 0.34759 0.0
C1600 C 0.90422 0.04839 0.36976 0.0
C1601 C 0.93348 0.06369 0.37535 0.0
C1602 C 0.89045 0.01897 0.36557 0.0
C1603 C 0.9057 0.00429 0.36665 0.0
C1604 C 0.93517 0.01986 0.37132 0.0
C1605 C 0.94887 0.04915 0.37561 0.0
C1606 C 0.85438 0.92598 0.37913 0.0
C1607 C 0.86941 0.91348 0.36935 0.0
C1608 C 0.86516 0.9554 0.37692 0.0
C1609 C 0.891 0.97267 0.36477 0.0
C1610 C 0.9044 0.95954 0.35311 0.0
C1611 C 0.89382 0.93032 0.35549 0.0
H1612 H 0.07265 0.98169 0.38555 0.0
H1613 H 0.09934 0.9257 0.35466 0.0
H1614 H 0.02409 0.94965 0.37298 0.0
H1615 H 0.04991 0.893 0.34197 0.0
H1616 H 0.95292 0.8318 0.37076 0.0
H1617 H 0.00455 0.86179 0.36594 0.0
H1618 H 0.99261 0.92937 0.33779 0.0
H1619 H 0.94111 0.89946 0.34317 0.0
C1620 C 0.06811 0.96254 0.37586 0.0
C1621 C 0.08969 0.95598 0.37137 0.0
C1622 C 0.0403 0.94433 0.36835 0.0
C1623 C 0.03317 0.91887 0.3563 0.0
C1624 C 0.05485 0.91254 0.35118 0.0
C1625 C 0.08304 0.93118 0.35841 0.0
C1626 C 0.96137 0.85254 0.36241 0.0
C1627 C 0.9433 0.8634 0.35711 0.0
C1628 C 0.99089 0.86974 0.35969 0.0
C1629 C 0.00263 0.89808 0.35184 0.0
C1630 C 0.98416 0.90773 0.34415 0.0
C1631 C 0.95472 0.89059 0.34699 0.0
H1632 H 0.89499 0.84055 0.88249 0.0
H1633 H 0.9768 0.91455 0.86744 0.0
H1634 H 0.87256 0.86979 0.88107 0.0
H1635 H 0.95418 0.94365 0.86458 0.0
H1636 H 0.9171 0.99192 0.90164 0.0
H1637 H 0.93694 0.96185 0.89361 0.0
H1638 H 0.8574 0.89897 0.86156 0.0
H1639 H 0.83675 0.92921 0.87066 0.0
C1640 C 0.90805 0.86296 0.87815 0.0
C1641 C 0.93774 0.87541 0.87546 0.0
C1642 C 0.89513 0.87974 0.87721 0.0
C1643 C 0.91157 0.90926 0.87319 0.0
C1644 C 0.94094 0.92116 0.8685 0.0
C1645 C 0.95394 0.9045 0.86996 0.0
C1646 C 0.90365 0.97178 0.89275 0.0
C1647 C 0.87516 0.96298 0.8869 0.0
C1648 C 0.91529 0.95456 0.88785 0.0
C1649 C 0.89901 0.92803 0.87662 0.0
C1650 C 0.87054 0.91922 0.87038 0.0
C1651 C 0.85869 0.93653 0.87553 0.0
H1652 H 0.08581 0.04843 0.86261 0.0
H1653 H 0.16921 0.05681 0.85909 0.0
H1654 H 0.06376 0.99665 0.85843 0.0
H1655 H 0.14711 0.00476 0.85584 0.0
H1656 H 0.08421 0.91984 0.90479 0.0
H1657 H 0.11333 0.97004 0.89335 0.0
H1658 H 0.06292 0.95395 0.8294 0.0
H1659 H 0.03446 0.90328 0.84042 0.0
C1660 C 0.09934 0.03919 0.86008 0.0
C1661 C 0.12911 0.05645 0.86089 0.0
C1662 C 0.08678 0.00964 0.85769 0.0
C1663 C 0.1038 0.99685 0.85679 0.0
C1664 C 0.13361 0.01424 0.85631 0.0
C1665 C 0.1462 0.04391 0.85802 0.0
C1666 C 0.08013 0.92688 0.88785 0.0
C1667 C 0.05744 0.90787 0.87332 0.0
C1668 C 0.09676 0.95549 0.88129 0.0
C1669 C 0.09038 0.96571 0.86046 0.0
C1670 C 0.06837 0.94644 0.84541 0.0
C1671 C 0.05225 0.91757 0.85164 0.0
H1672 H 0.93909 0.11553 0.85737 0.0
H1673 H 0.94573 0.04891 0.89398 0.0
H1674 H 0.99045 0.13929 0.84771 0.0
H1675 H 0.99613 0.07187 0.88386 0.0
H1676 H 0.07656 0.10145 0.84693 0.0
H1677 H 0.02603 0.08544 0.84235 0.0
H1678 H 0.03781 0.16023 0.87976 0.0
H1679 H 0.08878 0.17644 0.88444 0.0
C1680 C 0.95141 0.10576 0.86289 0.0
C1681 C 0.93867 0.08047 0.8764 0.0
C1682 C 0.98064 0.11935 0.85749 0.0
C1683 C 0.99702 0.10722 0.86492 0.0
C1684 C 0.98387 0.08147 0.8777 0.0
C1685 C 0.95511 0.0684 0.88357 0.0
C1686 C 0.0686 0.11502 0.85343 0.0
C1687 C 0.0864 0.13992 0.86639 0.0
C1688 C 0.03973 0.10587 0.85075 0.0
C1689 C 0.02812 0.12146 0.86095 0.0
C1690 C 0.04641 0.14798 0.87162 0.0
C1691 C 0.07551 0.15722 0.8743 0.0
H1692 H 0.91739 0.83092 0.61608 0.0
H1693 H 0.98754 0.89786 0.6551 0.0
H1694 H 0.88794 0.85232 0.62559 0.0
H1695 H 0.95833 0.9194 0.66465 0.0
H1696 H 0.91697 0.96879 0.62779 0.0
H1697 H 0.94279 0.94325 0.63418 0.0
H1698 H 0.86498 0.86914 0.65755 0.0
H1699 H 0.83909 0.8952 0.65146 0.0
C1700 C 0.92604 0.8496 0.62746 0.0
C1701 C 0.95447 0.86277 0.63505 0.0
C1702 C 0.90926 0.86183 0.63294 0.0
C1703 C 0.92092 0.88761 0.64577 0.0
C1704 C 0.94886 0.89961 0.65467 0.0
C1705 C 0.9655 0.88728 0.64932 0.0
C1706 C 0.90558 0.94733 0.63497 0.0
C1707 C 0.87615 0.93392 0.63917 0.0
C1708 C 0.92034 0.93272 0.63873 0.0
C1709 C 0.90587 0.90417 0.64634 0.0
C1710 C 0.87661 0.89113 0.65166 0.0
C1711 C 0.86188 0.90605 0.64836 0.0
H1712 H 0.03468 0.94513 0.64409 0.0
H1713 H 0.11699 0.95231 0.6332 0.0
H1714 H 0.0575 0.99675 0.64772 0.0
H1715 H 0.13978 0.00415 0.63614 0.0
H1716 H 0.17242 0.10017 0.64693 0.0
H1717 H 0.1512 0.04957 0.65815 0.0
H1718 H 0.07805 0.02935 0.61393 0.0
H1719 H 0.09874 0.07889 0.60305 0.0
C1720 C 0.05771 0.9577 0.64296 0.0
C1721 C 0.07398 0.94474 0.63788 0.0
C1722 C 0.07078 0.98727 0.64499 0.0
C1723 C 0.10037 0.00453 0.64165 0.0
C1724 C 0.11696 0.99143 0.63883 0.0
C1725 C 0.10387 0.96172 0.63705 0.0
C1726 C 0.15171 0.08481 0.63986 0.0
C1727 C 0.13743 0.09342 0.62387 0.0
C1728 C 0.13961 0.05595 0.64624 0.0
C1729 C 0.11283 0.03552 0.6371 0.0
C1730 C 0.09842 0.04451 0.62168 0.0
C1731 C 0.11053 0.07297 0.61516 0.0
H1732 H 0.92141 0.02674 0.65646 0.0
H1733 H 0.91635 0.08906 0.61186 0.0
H1734 H 0.9721 0.05938 0.66272 0.0
H1735 H 0.96755 0.12159 0.61734 0.0
H1736 H 0.06009 0.09652 0.62632 0.0
H1737 H 0.00915 0.07098 0.63359 0.0
H1738 H 0.01032 0.15085 0.64212 0.0
H1739 H 0.0617 0.17667 0.63441 0.0
C1740 C 0.9311 0.04783 0.64856 0.0
C1741 C 0.9152 0.05542 0.63356 0.0
C1742 C 0.96014 0.06641 0.65196 0.0
C1743 C 0.974 0.09277 0.64004 0.0
C1744 C 0.9575 0.10146 0.62682 0.0
C1745 C 0.9282 0.08289 0.62368 0.0
C1746 C 0.04963 0.1087 0.63006 0.0
C1747 C 0.06492 0.13862 0.62958 0.0
C1748 C 0.02039 0.09404 0.63446 0.0
C1749 C 0.00563 0.10888 0.63849 0.0
C1750 C 0.02107 0.13884 0.63894 0.0
C1751 C 0.0505 0.15359 0.63466 0.0
H1752 H 0.76247 0.34605 0.48705 0.0
H1753 H 0.83197 0.41422 0.44843 0.0
H1754 H 0.74112 0.37607 0.49344 0.0
H1755 H 0.81056 0.44428 0.45424 0.0
H1756 H 0.77093 0.4968 0.47471 0.0
H1757 H 0.79542 0.46986 0.48104 0.0
H1758 H 0.71724 0.39164 0.46582 0.0
H1759 H 0.69267 0.4184 0.45993 0.0
C1760 C 0.77355 0.36783 0.48059 0.0
C1761 C 0.79894 0.37815 0.46759 0.0
C1762 C 0.76123 0.3849 0.48398 0.0
C1763 C 0.77397 0.41249 0.47415 0.0
C1764 C 0.80035 0.4233 0.46231 0.0
C1765 C 0.81267 0.40619 0.45898 0.0
C1766 C 0.75883 0.4738 0.47313 0.0
C1767 C 0.72987 0.4598 0.46653 0.0
C1768 C 0.77294 0.45839 0.47664 0.0
C1769 C 0.75838 0.42862 0.47377 0.0
C1770 C 0.72908 0.41452 0.46842 0.0
C1771 C 0.715 0.4299 0.46485 0.0
H1772 H 0.49523 0.27872 0.47572 0.0
H1773 H 0.57634 0.28135 0.47739 0.0
H1774 H 0.51979 0.33051 0.47868 0.0
H1775 H 0.60077 0.33332 0.48074 0.0
H1776 H 0.63428 0.42821 0.49648 0.0
H1777 H 0.6052 0.37732 0.50663 0.0
H1778 H 0.55325 0.36428 0.44413 0.0
H1779 H 0.5828 0.41468 0.43369 0.0
C1780 C 0.51824 0.29021 0.47741 0.0
C1781 C 0.53388 0.2759 0.47592 0.0
C1782 C 0.53224 0.31989 0.47907 0.0
C1783 C 0.56209 0.3358 0.47975 0.0
C1784 C 0.57768 0.32145 0.48036 0.0
C1785 C 0.5637 0.29174 0.47832 0.0
C1786 C 0.61607 0.41449 0.48542 0.0
C1787 C 0.61037 0.4251 0.46451 0.0
C1788 C 0.59966 0.3855 0.4911 0.0
C1789 C 0.57699 0.36703 0.4762 0.0
C1790 C 0.57037 0.37816 0.45606 0.0
C1791 C 0.58719 0.4069 0.45009 0.0
H1792 H 0.71793 0.21435 0.47362 0.0
H1793 H 0.71757 0.29386 0.47713 0.0
H1794 H 0.66637 0.18816 0.47998 0.0
H1795 H 0.6662 0.26771 0.48346 0.0
H1796 H 0.57437 0.21629 0.50123 0.0
H1797 H 0.6251 0.23447 0.50943 0.0
H1798 H 0.62809 0.18313 0.45159 0.0
H1799 H 0.57761 0.16527 0.4435 0.0
C1800 C 0.70699 0.22627 0.47634 0.0
C1801 C 0.72177 0.25618 0.47458 0.0
C1802 C 0.67746 0.21124 0.47989 0.0
C1803 C 0.66222 0.22586 0.48209 0.0
C1804 C 0.67734 0.25583 0.48206 0.0
C1805 C 0.70677 0.27082 0.47824 0.0
C1806 C 0.58574 0.20813 0.49099 0.0
C1807 C 0.57229 0.18918 0.47199 0.0
C1808 C 0.61474 0.21868 0.4955 0.0
C1809 C 0.63059 0.21031 0.48109 0.0
C1810 C 0.61641 0.18969 0.46321 0.0
C1811 C 0.58756 0.17944 0.45856 0.0
H1812 H 0.75247 0.36266 0.71019 0.0
H1813 H 0.8323 0.44217 0.70534 0.0
H1814 H 0.72657 0.38866 0.70589 0.0
H1815 H 0.80635 0.46794 0.70126 0.0
H1816 H 0.74646 0.49629 0.74038 0.0
H1817 H 0.77585 0.47439 0.7332 0.0
H1818 H 0.71759 0.4217 0.67791 0.0
H1819 H 0.68849 0.44422 0.6849 0.0
C1820 C 0.76448 0.38557 0.70778 0.0
C1821 C 0.79445 0.40034 0.7084 0.0
C1822 C 0.74965 0.40042 0.70518 0.0
C1823 C 0.7645 0.43033 0.70343 0.0
C1824 C 0.7944 0.44492 0.70277 0.0
C1825 C 0.80922 0.43008 0.70503 0.0
C1826 C 0.74058 0.48073 0.72616 0.0
C1827 C 0.71568 0.47219 0.71287 0.0
C1828 C 0.75729 0.46817 0.72206 0.0
C1829 C 0.74897 0.44635 0.70499 0.0
C1830 C 0.72445 0.43847 0.69116 0.0
C1831 C 0.70802 0.45147 0.69497 0.0
H1832 H 0.56487 0.24853 0.68745 0.0
H1833 H 0.49867 0.24352 0.73359 0.0
H1834 H 0.58229 0.299 0.68074 0.0
H1835 H 0.51673 0.2946 0.72761 0.0
H1836 H 0.63319 0.38884 0.7134 0.0
H1837 H 0.60843 0.3375 0.70837 0.0
H1838 H 0.52827 0.33615 0.70184 0.0
H1839 H 0.55319 0.38791 0.70734 0.0
C1840 C 0.55367 0.25821 0.69571 0.0
C1841 C 0.53063 0.24234 0.71117 0.0
C1842 C 0.56376 0.28714 0.69203 0.0
C1843 C 0.55136 0.30099 0.7041 0.0
C1844 C 0.52673 0.28455 0.71801 0.0
C1845 C 0.51634 0.25533 0.72144 0.0
C1846 C 0.61034 0.37771 0.71058 0.0
C1847 C 0.59517 0.39246 0.71093 0.0
C1848 C 0.59611 0.34823 0.70749 0.0
C1849 C 0.56631 0.33267 0.70466 0.0
C1850 C 0.55119 0.34751 0.70414 0.0
C1851 C 0.56551 0.37716 0.70711 0.0
H1852 H 0.61627 0.2428 0.7025 0.0
H1853 H 0.61336 0.16236 0.69327 0.0
H1854 H 0.66807 0.26798 0.69791 0.0
H1855 H 0.66553 0.18753 0.68932 0.0
H1856 H 0.75118 0.2469 0.73582 0.0
H1857 H 0.70107 0.21661 0.72446 0.0
H1858 H 0.71091 0.27741 0.66999 0.0
H1859 H 0.76127 0.30731 0.68108 0.0
C1860 C 0.62672 0.23064 0.69858 0.0
C1861 C 0.61098 0.20077 0.69792 0.0
C1862 C 0.65632 0.245 0.69598 0.0
C1863 C 0.67078 0.22966 0.69332 0.0
C1864 C 0.65485 0.1998 0.69129 0.0
C1865 C 0.62507 0.18546 0.69333 0.0
C1866 C 0.7428 0.25313 0.72085 0.0
C1867 C 0.75988 0.27907 0.70907 0.0
C1868 C 0.71422 0.23586 0.71431 0.0
C1869 C 0.70217 0.24467 0.6963 0.0
C1870 C 0.71973 0.27009 0.68383 0.0
C1871 C 0.74846 0.28707 0.69007 0.0
H1872 H 0.55901 0.16772 0.18818 0.0
H1873 H 0.63245 0.24517 0.21264 0.0
H1874 H 0.53374 0.19416 0.18086 0.0
H1875 H 0.60768 0.27144 0.20537 0.0
H1876 H 0.56451 0.31791 0.18582 0.0
H1877 H 0.58598 0.28869 0.17625 0.0
H1878 H 0.51511 0.21625 0.21028 0.0
H1879 H 0.49352 0.24561 0.21935 0.0
C1880 C 0.57001 0.19052 0.19122 0.0
C1881 C 0.59757 0.20451 0.20101 0.0
C1882 C 0.55553 0.20558 0.18724 0.0
C1883 C 0.56868 0.23486 0.19259 0.0
C1884 C 0.59702 0.24902 0.20075 0.0
C1885 C 0.6112 0.23397 0.20505 0.0
C1886 C 0.55315 0.29547 0.19045 0.0
C1887 C 0.52744 0.28379 0.20315 0.0
C1888 C 0.56544 0.2788 0.18512 0.0
C1889 C 0.55238 0.25024 0.1927 0.0
C1890 C 0.52554 0.23807 0.20394 0.0
C1891 C 0.51321 0.25481 0.20922 0.0
H1892 H 0.83045 0.39069 0.19368 0.0
H1893 H 0.74913 0.38532 0.20639 0.0
H1894 H 0.80638 0.33941 0.1871 0.0
H1895 H 0.72518 0.33405 0.19988 0.0
H1896 H 0.75166 0.2482 0.22479 0.0
H1897 H 0.78123 0.2991 0.21589 0.0
H1898 H 0.7141 0.29511 0.17139 0.0
H1899 H 0.68458 0.24457 0.18066 0.0
C1900 C 0.80739 0.37869 0.19464 0.0
C1901 C 0.7917 0.39206 0.20095 0.0
C1902 C 0.79368 0.34929 0.19093 0.0
C1903 C 0.76399 0.3327 0.19316 0.0
C1904 C 0.74813 0.34631 0.19782 0.0
C1905 C 0.76184 0.3757 0.20169 0.0
C1906 C 0.74386 0.25802 0.21229 0.0
C1907 C 0.71592 0.24276 0.20352 0.0
C1908 C 0.76066 0.28714 0.20724 0.0
C1909 C 0.74966 0.30115 0.19334 0.0
C1910 C 0.72287 0.285 0.18253 0.0
C1911 C 0.70612 0.25608 0.18766 0.0
H1912 H 0.75077 0.50512 0.22963 0.0
H1913 H 0.75554 0.44917 0.17739 0.0
H1914 H 0.69979 0.48417 0.2218 0.0
H1915 H 0.70437 0.4279 0.16947 0.0
H1916 H 0.61303 0.36891 0.20339 0.0
H1917 H 0.66438 0.39639 0.19699 0.0
H1918 H 0.66022 0.47384 0.19314 0.0
H1919 H 0.6088 0.44642 0.19962 0.0
C1920 C 0.74105 0.48923 0.21566 0.0
C1921 C 0.75694 0.47905 0.20375 0.0
C1922 C 0.71187 0.47713 0.21122 0.0
C1923 C 0.69802 0.45423 0.19512 0.0
C1924 C 0.71444 0.4454 0.18205 0.0
C1925 C 0.74372 0.45776 0.18633 0.0
C1926 C 0.62295 0.39173 0.20075 0.0
C1927 C 0.60683 0.40548 0.20235 0.0
C1928 C 0.65238 0.40747 0.19688 0.0
C1929 C 0.66637 0.43732 0.19468 0.0
C1930 C 0.65004 0.4509 0.19496 0.0
C1931 C 0.62057 0.43513 0.1986 0.0
H1932 H 0.65933 0.24352 0.97568 0.0
H1933 H 0.58596 0.16007 0.96576 0.0
H1934 H 0.62835 0.26331 0.98297 0.0
H1935 H 0.55449 0.18008 0.9719 0.0
H1936 H 0.50473 0.22667 0.98812 0.0
H1937 H 0.53529 0.20588 0.99633 0.0
H1938 H 0.60171 0.27141 0.9528 0.0
H1939 H 0.57173 0.29184 0.94499 0.0
C1940 C 0.63646 0.22933 0.97561 0.0
C1941 C 0.62494 0.2004 0.97009 0.0
C1942 C 0.61869 0.24064 0.97962 0.0
C1943 C 0.58894 0.22341 0.97748 0.0
C1944 C 0.5773 0.19391 0.97378 0.0
C1945 C 0.59524 0.18244 0.97019 0.0
C1946 C 0.52614 0.23685 0.98086 0.0
C1947 C 0.5359 0.26076 0.96586 0.0
C1948 C 0.5435 0.22486 0.98537 0.0
C1949 C 0.57099 0.23702 0.9753 0.0
C1950 C 0.58092 0.2617 0.96123 0.0
C1951 C 0.56363 0.27333 0.95656 0.0
H1952 H 0.70912 0.27396 0.99057 0.0
H1953 H 0.7882 0.28179 0.96585 0.0
H1954 H 0.73247 0.32551 0.99541 0.0
H1955 H 0.81154 0.3337 0.97001 0.0
H1956 H 0.84524 0.43008 0.98297 0.0
H1957 H 0.82673 0.37967 0.99404 0.0
H1958 H 0.74625 0.3576 0.96084 0.0
H1959 H 0.76442 0.40681 0.94996 0.0
C1960 C 0.73169 0.28671 0.98672 0.0
C1961 C 0.74673 0.27399 0.97747 0.0
C1962 C 0.74508 0.31622 0.98946 0.0
C1963 C 0.77368 0.33372 0.98256 0.0
C1964 C 0.78951 0.3208 0.97553 0.0
C1965 C 0.77613 0.29108 0.97309 0.0
C1966 C 0.82351 0.41435 0.97845 0.0
C1967 C 0.80635 0.42227 0.96543 0.0
C1968 C 0.81296 0.3856 0.98468 0.0
C1969 C 0.78494 0.36468 0.9785 0.0
C1970 C 0.76771 0.3731 0.96631 0.0
C1971 C 0.77827 0.40138 0.95982 0.0
H1972 H 0.72183 0.41675 0.96033 0.0
H1973 H 0.72099 0.49469 0.97505 0.0
H1974 H 0.67034 0.39 0.96321 0.0
H1975 H 0.66914 0.4676 0.97861 0.0
H1976 H 0.57943 0.34267 0.97799 0.0
H1977 H 0.62951 0.37312 0.98802 0.0
H1978 H 0.62984 0.44323 0.9507 0.0
H1979 H 0.57906 0.41276 0.94165 0.0
C1980 C 0.71071 0.42812 0.96472 0.0
C1981 C 0.72555 0.45791 0.96716 0.0
C1982 C 0.68109 0.41272 0.96656 0.0
C1983 C 0.66552 0.42667 0.97104 0.0
C1984 C 0.68046 0.45628 0.97482 0.0
C1985 C 0.7102 0.47175 0.97296 0.0
C1986 C 0.59011 0.36482 0.97246 0.0
C1987 C 0.57567 0.37541 0.95883 0.0
C1988 C 0.61881 0.38221 0.97806 0.0
C1989 C 0.63388 0.41042 0.96968 0.0
C1990 C 0.61884 0.42163 0.95752 0.0
C1991 C 0.58982 0.40424 0.95226 0.0
H1992 H 0.50491 0.75321 0.78041 0.0
H1993 H 0.43854 0.68267 0.81955 0.0
H1994 H 0.48136 0.78105 0.78761 0.0
H1995 H 0.41494 0.71044 0.82715 0.0
H1996 H 0.36259 0.74988 0.79478 0.0
H1997 H 0.38906 0.72482 0.79986 0.0
H1998 H 0.46516 0.80443 0.81632 0.0
H1999 H 0.43881 0.82964 0.81095 0.0
C2000 C 0.48585 0.74419 0.79135 0.0
C2001 C 0.47364 0.71615 0.79977 0.0
C2002 C 0.47231 0.76002 0.79548 0.0
C2003 C 0.44615 0.74788 0.80784 0.0
C2004 C 0.43489 0.72028 0.81738 0.0
C2005 C 0.44849 0.70452 0.81329 0.0
C2006 C 0.38484 0.76202 0.79986 0.0
C2007 C 0.39863 0.79183 0.80211 0.0
C2008 C 0.4 0.74761 0.80294 0.0
C2009 C 0.4293 0.76268 0.80832 0.0
C2010 C 0.44271 0.79228 0.81187 0.0
C2011 C 0.42753 0.80669 0.80889 0.0
H2012 H 0.16199 0.60589 0.80894 0.0
H2013 H 0.24464 0.61245 0.81142 0.0
H2014 H 0.18474 0.65798 0.81244 0.0
H2015 H 0.26727 0.66426 0.8158 0.0
H2016 H 0.29729 0.75778 0.83343 0.0
H2017 H 0.26758 0.70689 0.84332 0.0
H2018 H 0.22114 0.69329 0.77736 0.0
H2019 H 0.25149 0.74371 0.7671 0.0
C2020 C 0.18487 0.61838 0.81136 0.0
C2021 C 0.20164 0.60532 0.81015 0.0
C2022 C 0.19786 0.6481 0.8132 0.0
C2023 C 0.2277 0.66502 0.81447 0.0
C2024 C 0.24422 0.65166 0.81517 0.0
C2025 C 0.23131 0.62209 0.81267 0.0
C2026 C 0.28014 0.74398 0.82147 0.0
C2027 C 0.2764 0.75446 0.79962 0.0
C2028 C 0.26329 0.71497 0.82707 0.0
C2029 C 0.242 0.69631 0.81116 0.0
C2030 C 0.23712 0.70731 0.79006 0.0
C2031 C 0.25446 0.73606 0.78417 0.0
H2032 H 0.39538 0.55419 0.80632 0.0
H2033 H 0.39162 0.63184 0.80072 0.0
H2034 H 0.34428 0.5275 0.81486 0.0
H2035 H 0.34084 0.60527 0.80876 0.0
H2036 H 0.25018 0.49395 0.78504 0.0
H2037 H 0.30142 0.51358 0.79065 0.0
H2038 H 0.30389 0.57826 0.8375 0.0
H2039 H 0.25302 0.5592 0.83111 0.0
C2040 C 0.38377 0.56564 0.80727 0.0
C2041 C 0.3975 0.59511 0.80259 0.0
C2042 C 0.35448 0.55031 0.81205 0.0
C2043 C 0.33845 0.5642 0.81247 0.0
C2044 C 0.35255 0.5939 0.80895 0.0
C2045 C 0.38169 0.60915 0.80409 0.0
C2046 C 0.26155 0.51165 0.79725 0.0
C2047 C 0.2479 0.52529 0.80748 0.0
C2048 C 0.29091 0.52296 0.80046 0.0
C2049 C 0.30684 0.54791 0.81409 0.0
C2050 C 0.29236 0.55948 0.82642 0.0
C2051 C 0.26322 0.54844 0.82296 0.0
H2052 H 0.40376 0.82878 0.04022 0.0
H2053 H 0.34077 0.74618 0.0674 0.0
H2054 H 0.43542 0.8098 0.03121 0.0
H2055 H 0.37223 0.72785 0.0594 0.0
H2056 H 0.4224 0.69147 0.03349 0.0
H2057 H 0.39281 0.71345 0.0299 0.0
H2058 H 0.46427 0.79445 0.05151 0.0
H2059 H 0.49418 0.77266 0.05364 0.0
C2060 C 0.39667 0.80666 0.04425 0.0
C2061 C 0.36975 0.78907 0.05457 0.0
C2062 C 0.41479 0.79579 0.03915 0.0
C2063 C 0.40633 0.76718 0.04436 0.0
C2064 C 0.37929 0.74972 0.05447 0.0
C2065 C 0.36126 0.76042 0.05934 0.0
C2066 C 0.43187 0.71412 0.03689 0.0
C2067 C 0.4604 0.73031 0.0441 0.0
C2068 C 0.41493 0.72672 0.03503 0.0
C2069 C 0.42592 0.7556 0.04106 0.0
C2070 C 0.45507 0.77223 0.04664 0.0
C2071 C 0.47222 0.75972 0.04796 0.0
H2072 H 0.21166 0.72297 0.03079 0.0
H2073 H 0.28733 0.72104 0.05159 0.0
H2074 H 0.18698 0.67113 0.02346 0.0
H2075 H 0.26333 0.67007 0.04409 0.0
H2076 H 0.15421 0.57793 0.0608 0.0
H2077 H 0.17152 0.62855 0.05269 0.0
H2078 H 0.24161 0.63341 0.01202 0.0
H2079 H 0.22479 0.58339 0.02059 0.0
C2080 C 0.22319 0.71157 0.03303 0.0
C2081 C 0.25135 0.72575 0.04156 0.0
C2082 C 0.20908 0.68202 0.02906 0.0
C2083 C 0.22327 0.6666 0.03307 0.0
C2084 C 0.25193 0.68134 0.04042 0.0
C2085 C 0.26569 0.71051 0.0448 0.0
C2086 C 0.17269 0.58965 0.04943 0.0
C2087 C 0.1885 0.57706 0.04164 0.0
C2088 C 0.18258 0.61857 0.04474 0.0
C2089 C 0.20822 0.635 0.03209 0.0
C2090 C 0.22209 0.62139 0.02215 0.0
C2091 C 0.21245 0.59278 0.02703 0.0
H2092 H 0.27983 0.57861 0.05079 0.0
H2093 H 0.27149 0.50078 0.02217 0.0
H2094 H 0.33154 0.60165 0.04721 0.0
H2095 H 0.32379 0.52409 0.01879 0.0
H2096 H 0.42711 0.61447 0.01019 0.0
H2097 H 0.37584 0.58634 1.00039 0.0
H2098 H 0.35605 0.57046 0.07549 0.0
H2099 H 0.40651 0.59822 0.08529 0.0
C2100 C 0.28905 0.56674 0.04298 0.0
C2101 C 0.27173 0.5379 0.0369 0.0
C2102 C 0.31859 0.57993 0.0409 0.0
C2103 C 0.33146 0.56456 0.03279 0.0
C2104 C 0.31421 0.53639 0.02484 0.0
C2105 C 0.28438 0.52313 0.02675 0.0
C2106 C 0.41179 0.60418 0.02446 0.0
C2107 C 0.42071 0.60871 0.0485 0.0
C2108 C 0.38258 0.58822 0.01886 0.0
C2109 C 0.36224 0.57651 0.03726 0.0
C2110 C 0.37141 0.57939 0.06105 0.0
C2111 C 0.40027 0.59532 0.06662 0.0
H2112 H 0.22306 0.50175 0.53819 0.0
H2113 H 0.30307 0.58135 0.53869 0.0
H2114 H 0.19758 0.52786 0.53218 0.0
H2115 H 0.27761 0.6073 0.53283 0.0
H2116 H 0.22698 0.64874 0.51424 0.0
H2117 H 0.24635 0.6171 0.50652 0.0
H2118 H 0.1909 0.55937 0.56102 0.0
H2119 H 0.17175 0.59106 0.56855 0.0
C2120 C 0.23526 0.52474 0.5365 0.0
C2121 C 0.26506 0.53953 0.53926 0.0
C2122 C 0.22064 0.53967 0.53316 0.0
C2123 C 0.23557 0.5696 0.53222 0.0
C2124 C 0.26551 0.58422 0.53328 0.0
C2125 C 0.28009 0.56935 0.53683 0.0
C2126 C 0.2184 0.62878 0.52392 0.0
C2127 C 0.1978 0.62195 0.54176 0.0
C2128 C 0.22956 0.61083 0.51966 0.0
C2129 C 0.22019 0.58581 0.5332 0.0
C2130 C 0.19826 0.57827 0.55006 0.0
C2131 C 0.18733 0.59635 0.55444 0.0
H2132 H 0.42059 0.72646 0.55023 0.0
H2133 H 0.49979 0.72922 0.53314 0.0
H2134 H 0.39497 0.67501 0.5444 0.0
H2135 H 0.47402 0.67778 0.52706 0.0
H2136 H 0.42168 0.58614 0.56185 0.0
H2137 H 0.45014 0.63764 0.55537 0.0
H2138 H 0.38027 0.63532 0.51612 0.0
H2139 H 0.3519 0.58383 0.52292 0.0
C2140 C 0.43249 0.7162 0.54481 0.0
C2141 C 0.4623 0.73196 0.54249 0.0
C2142 C 0.41776 0.68669 0.5413 0.0
C2143 C 0.43251 0.67227 0.53542 0.0
C2144 C 0.46212 0.68823 0.53187 0.0
C2145 C 0.47684 0.71774 0.53527 0.0
C2146 C 0.41297 0.5966 0.55108 0.0
C2147 C 0.38496 0.58126 0.54252 0.0
C2148 C 0.42915 0.62605 0.54739 0.0
C2149 C 0.41737 0.6406 0.53536 0.0
C2150 C 0.38982 0.62477 0.52564 0.0
C2151 C 0.37373 0.59534 0.52927 0.0
H2152 H 0.42888 0.80064 0.51144 0.0
H2153 H 0.41749 0.83304 0.57851 0.0
H2154 H 0.37788 0.78057 0.50251 0.0
H2155 H 0.36703 0.81397 0.56935 0.0
H2156 H 0.28024 0.78882 0.54117 0.0
H2157 H 0.33206 0.81655 0.53728 0.0
H2158 H 0.3349 0.73893 0.52797 0.0
H2159 H 0.28305 0.71099 0.53227 0.0
C2160 C 0.41563 0.80434 0.52377 0.0
C2161 C 0.42683 0.81843 0.54554 0.0
C2162 C 0.38658 0.79278 0.51876 0.0
C2163 C 0.36868 0.79585 0.53523 0.0
C2164 C 0.38046 0.81163 0.55624 0.0
C2165 C 0.40923 0.82249 0.5615 0.0
C2166 C 0.29179 0.77766 0.53767 0.0
C2167 C 0.27763 0.74769 0.53732 0.0
C2168 C 0.32143 0.79357 0.53549 0.0
C2169 C 0.33735 0.77983 0.53239 0.0
C2170 C 0.32303 0.75001 0.53015 0.0
C2171 C 0.29342 0.73405 0.53278 0.0
H2172 H 0.32251 0.56815 0.31729 0.0
H2173 H 0.25217 0.49402 0.2852 0.0
H2174 H 0.29217 0.58913 0.3234 0.0
H2175 H 0.22175 0.51513 0.29057 0.0
H2176 H 0.16978 0.55614 0.30978 0.0
H2177 H 0.19762 0.53261 0.31645 0.0
H2178 H 0.27404 0.60961 0.29519 0.0
H2179 H 0.24648 0.63323 0.28905 0.0
C2180 C 0.30025 0.55607 0.31219 0.0
C2181 C 0.28941 0.52946 0.30107 0.0
C2182 C 0.28296 0.56815 0.31542 0.0
C2183 C 0.25462 0.55401 0.30718 0.0
C2184 C 0.24336 0.52649 0.29736 0.0
C2185 C 0.26068 0.51434 0.29428 0.0
C2186 C 0.19261 0.56819 0.30692 0.0
C2187 C 0.20585 0.59652 0.29865 0.0
C2188 C 0.20852 0.55463 0.31062 0.0
C2189 C 0.23804 0.56913 0.30626 0.0
C2190 C 0.25142 0.59785 0.29904 0.0
C2191 C 0.23554 0.61137 0.29531 0.0
H2192 H 0.46236 0.7578 0.33108 0.0
H2193 H 0.49177 0.74722 0.26219 0.0
H2194 H 0.44405 0.707 0.33986 0.0
H2195 H 0.47449 0.69702 0.27118 0.0
H2196 H 0.37516 0.61113 0.31109 0.0
H2197 H 0.40177 0.66303 0.31517 0.0
H2198 H 0.48049 0.66321 0.30284 0.0
H2199 H 0.45406 0.61126 0.29923 0.0
C2200 C 0.46573 0.74478 0.31825 0.0
C2201 C 0.47845 0.75613 0.29604 0.0
C2202 C 0.4552 0.71586 0.32319 0.0
C2203 C 0.45803 0.69827 0.30622 0.0
C2204 C 0.47239 0.71023 0.28467 0.0
C2205 C 0.48218 0.73883 0.27949 0.0
C2206 C 0.39821 0.62218 0.30991 0.0
C2207 C 0.41251 0.6072 0.30463 0.0
C2208 C 0.41342 0.65182 0.3124 0.0
C2209 C 0.44311 0.66698 0.30924 0.0
C2210 C 0.45759 0.6519 0.30537 0.0
C2211 C 0.44245 0.62221 0.30336 0.0
H2212 H 0.24152 0.69452 0.32488 0.0
H2213 H 0.24925 0.74027 0.25959 0.0
H2214 H 0.29326 0.72408 0.33137 0.0
H2215 H 0.30055 0.77039 0.26642 0.0
H2216 H 0.38835 0.83247 0.29637 0.0
H2217 H 0.33646 0.8069 0.29944 0.0
H2218 H 0.33575 0.72699 0.30278 0.0
H2219 H 0.38784 0.75246 0.2992 0.0
C2220 C 0.2542 0.71158 0.31243 0.0
C2221 C 0.24162 0.71554 0.29192 0.0
C2222 C 0.28368 0.72824 0.31601 0.0
C2223 C 0.30075 0.74947 0.2994 0.0
C2224 C 0.28779 0.75434 0.27959 0.0
C2225 C 0.25854 0.73723 0.2757 0.0
C2226 C 0.37726 0.80949 0.29823 0.0
C2227 C 0.39222 0.79445 0.29737 0.0
C2228 C 0.34755 0.79491 0.29993 0.0
C2229 C 0.33222 0.76506 0.30133 0.0
C2230 C 0.34718 0.75006 0.30191 0.0
C2231 C 0.37692 0.76462 0.29974 0.0
H2232 H 0.95482 0.1294 0.30864 0.0
H2233 H 0.02174 0.2167 0.3185 0.0
H2234 H 0.96527 0.13331 0.26597 0.0
H2235 H 0.03167 0.22087 0.27571 0.0
H2236 H 0.05971 0.20937 0.20044 0.0
H2237 H 0.05107 0.20591 0.24367 0.0
H2238 H 0.96045 0.15522 0.23093 0.0
H2239 H 0.969 0.15798 0.18828 0.0
C2240 C 0.97157 0.14953 0.30169 0.0
C2241 C 0.98726 0.17276 0.31707 0.0
C2242 C 0.97755 0.15184 0.27715 0.0
C2243 C 0.9993 0.17749 0.26725 0.0
C2244 C 0.01504 0.20069 0.28266 0.0
C2245 C 0.00913 0.19835 0.30723 0.0
C2246 C 0.03798 0.19754 0.20692 0.0
C2247 C 0.01513 0.18389 0.19078 0.0
C2248 C 0.03298 0.19562 0.23171 0.0
C2249 C 0.00502 0.18007 0.24091 0.0
C2250 C 0.98228 0.16684 0.22467 0.0
C2251 C 0.98725 0.16863 0.20006 0.0
H2252 H 0.79663 0.82689 0.31888 0.0
H2253 H 0.84963 0.78981 0.30465 0.0
H2254 H 0.78935 0.82906 0.27629 0.0
H2255 H 0.84274 0.79255 0.26165 0.0
H2256 H 0.80488 0.78111 0.18617 0.0
H2257 H 0.80833 0.77438 0.22892 0.0
H2258 H 0.8172 0.8569 0.24278 0.0
H2259 H 0.81318 0.86341 0.20016 0.0
C2260 C 0.8067 0.81908 0.30666 0.0
C2261 C 0.8239 0.80832 0.31525 0.0
C2262 C 0.80265 0.82052 0.28216 0.0
C2263 C 0.81577 0.81138 0.26547 0.0
C2264 C 0.83217 0.79965 0.27401 0.0
C2265 C 0.83617 0.7981 0.29866 0.0
C2266 C 0.80733 0.79775 0.19834 0.0
C2267 C 0.80858 0.82276 0.18967 0.0
C2268 C 0.80954 0.79395 0.22287 0.0
C2269 C 0.81301 0.81505 0.23934 0.0
C2270 C 0.81407 0.83997 0.23066 0.0
C2271 C 0.81186 0.84377 0.20617 0.0
H2272 H 0.20962 0.9946 0.31505 0.0
H2273 H 0.16178 0.03813 0.30557 0.0
H2274 H 0.2055 0.98396 0.27215 0.0
H2275 H 0.15704 0.02671 0.26278 0.0
H2276 H 0.12503 0.9619 0.19743 0.0
H2277 H 0.13122 0.97404 0.24003 0.0
H2278 H 0.22255 0.01794 0.23117 0.0
H2279 H 0.2165 0.00654 0.18835 0.0
C2280 C 0.19828 0.00191 0.30379 0.0
C2281 C 0.18606 0.01724 0.31359 0.0
C2282 C 0.19601 0.99589 0.27931 0.0
C2283 C 0.1809 0.00448 0.26435 0.0
C2284 C 0.16871 0.01983 0.27407 0.0
C2285 C 0.17156 0.02646 0.29845 0.0
C2286 C 0.14642 0.97399 0.2046 0.0
C2287 C 0.17029 0.98322 0.18962 0.0
C2288 C 0.14992 0.98107 0.22888 0.0
C2289 C 0.17733 0.99694 0.2387 0.0
C2290 C 0.20122 0.00564 0.22391 0.0
C2291 C 0.19774 0.99915 0.19949 0.0
H2292 H 0.0409 0.87798 0.69873 0.0
H2293 H 0.99617 0.78656 0.68936 0.0
H2294 H 0.0289 0.87154 0.74139 0.0
H2295 H 0.98473 0.78024 0.73207 0.0
H2296 H 0.00571 0.7885 0.81473 0.0
H2297 H 0.01595 0.79371 0.77184 0.0
H2298 H 0.97954 0.84839 0.76576 0.0
H2299 H 0.96868 0.84275 0.80869 0.0
C2300 C 0.0288 0.85655 0.70584 0.0
C2301 C 0.01955 0.83277 0.69077 0.0
C2302 C 0.02174 0.8529 0.73014 0.0
C2303 C 0.00583 0.82541 0.73988 0.0
C2304 C 0.99706 0.80164 0.72494 0.0
C2305 C 0.00359 0.80527 0.70055 0.0
C2306 C 0.99967 0.80144 0.8042 0.0
C2307 C 0.98632 0.81516 0.815 0.0
C2308 C 0.00548 0.80435 0.7797 0.0
C2309 C 0.99862 0.82152 0.76563 0.0
C2310 C 0.98516 0.83516 0.77633 0.0
C2311 C 0.97877 0.83176 0.80079 0.0
H2312 H 0.21556 0.18944 0.68406 0.0
H2313 H 0.1346 0.1849 0.69642 0.0
H2314 H 0.22092 0.18539 0.72692 0.0
H2315 H 0.13975 0.18027 0.73923 0.0
H2316 H 0.17098 0.20348 0.8152 0.0
H2317 H 0.16843 0.20885 0.77236 0.0
H2318 H 0.20103 0.15165 0.76015 0.0
H2319 H 0.20411 0.14659 0.80339 0.0
C2320 C 0.19886 0.18755 0.69589 0.0
C2321 C 0.17472 0.18771 0.68676 0.0
C2322 C 0.20188 0.18501 0.72048 0.0
C2323 C 0.18084 0.1826 0.73655 0.0
C2324 C 0.1566 0.18257 0.7274 0.0
C2325 C 0.15358 0.1851 0.70282 0.0
C2326 C 0.17782 0.19213 0.80347 0.0
C2327 C 0.18765 0.17447 0.81281 0.0
C2328 C 0.17613 0.19507 0.77883 0.0
C2329 C 0.18414 0.1804 0.76278 0.0
C2330 C 0.19482 0.16338 0.77203 0.0
C2331 C 0.19657 0.16045 0.79681 0.0
H2332 H 0.80043 0.96885 0.8211 0.0
H2333 H 0.85761 0.05856 0.80881 0.0
H2334 H 0.7948 0.96053 0.77827 0.0
H2335 H 0.85338 0.05015 0.76575 0.0
H2336 H 0.82273 0.03219 0.68926 0.0
H2337 H 0.82499 0.03994 0.73221 0.0
H2338 H 0.81596 0.95683 0.7437 0.0
H2339 H 0.81208 0.94861 0.70063 0.0
C2340 C 0.81205 0.98682 0.8092 0.0
C2341 C 0.82948 0.01441 0.81842 0.0
C2342 C 0.809 0.98201 0.78451 0.0
C2343 C 0.82371 0.00455 0.76822 0.0
C2344 C 0.84121 0.03221 0.77753 0.0
C2345 C 0.84383 0.0371 0.80229 0.0
C2346 C 0.82098 0.01547 0.70099 0.0
C2347 C 0.81714 0.98973 0.6915 0.0
C2348 C 0.82257 0.02002 0.72572 0.0
C2349 C 0.82093 0.99919 0.74174 0.0
C2350 C 0.81684 0.97329 0.73215 0.0
C2351 C 0.8147 0.96854 0.70738 0.0
H2352 H 0.629 0.45617 0.6433 0.0
H2353 H 0.67261 0.5478 0.65037 0.0
H2354 H 0.63827 0.46127 0.60007 0.0
H2355 H 0.68113 0.55276 0.60717 0.0
H2356 H 0.65713 0.54239 0.52501 0.0
H2357 H 0.6476 0.53723 0.56811 0.0
H2358 H 0.68675 0.48498 0.57367 0.0
H2359 H 0.69702 0.49073 0.53065 0.0
C2360 C 0.64028 0.47735 0.6356 0.0
C2361 C 0.65005 0.50157 0.65025 0.0
C2362 C 0.64572 0.48025 0.61092 0.0
C2363 C 0.66042 0.50741 0.60032 0.0
C2364 C 0.66966 0.53159 0.61487 0.0
C2365 C 0.66484 0.52872 0.63959 0.0
C2366 C 0.66383 0.52992 0.53544 0.0
C2367 C 0.67798 0.51711 0.52444 0.0
C2368 C 0.65841 0.52701 0.56009 0.0
C2369 C 0.66635 0.51062 0.57418 0.0
C2370 C 0.68026 0.49759 0.56319 0.0
C2371 C 0.68631 0.50107 0.53863 0.0
H2372 H 0.51742 0.12558 0.63881 0.0
H2373 H 0.46766 0.16563 0.65558 0.0
H2374 H 0.50985 0.12948 0.59613 0.0
H2375 H 0.45971 0.16891 0.61334 0.0
H2376 H 0.48143 0.20253 0.53687 0.0
H2377 H 0.48698 0.19609 0.57924 0.0
H2378 H 0.47343 0.11183 0.56487 0.0
H2379 H 0.46846 0.11846 0.52239 0.0
C2380 C 0.50464 0.13489 0.63344 0.0
C2381 C 0.49333 0.14543 0.65064 0.0
C2382 C 0.50022 0.13706 0.60901 0.0
C2383 C 0.48437 0.14975 0.60133 0.0
C2384 C 0.4725 0.15956 0.61859 0.0
C2385 C 0.47695 0.15749 0.64288 0.0
C2386 C 0.47936 0.18253 0.54274 0.0
C2387 C 0.47438 0.161 0.52621 0.0
C2388 C 0.4825 0.1788 0.56707 0.0
C2389 C 0.48066 0.15342 0.57546 0.0
C2390 C 0.47534 0.13176 0.55896 0.0
C2391 C 0.47224 0.1355 0.53463 0.0
H2392 H 0.80072 0.2749 0.53774 0.0
H2393 H 0.86994 0.35984 0.52258 0.0
H2394 H 0.8074 0.28525 0.58057 0.0
H2395 H 0.87654 0.37004 0.56532 0.0
H2396 H 0.85474 0.3866 0.64173 0.0
H2397 H 0.84931 0.37626 0.5989 0.0
H2398 H 0.84412 0.29531 0.61237 0.0
H2399 H 0.84951 0.30553 0.65516 0.0
C2400 C 0.81742 0.29571 0.54351 0.0
C2401 C 0.83484 0.3165 0.52671 0.0
C2402 C 0.82131 0.30159 0.56804 0.0
C2403 C 0.84248 0.32847 0.57629 0.0
C2404 C 0.85989 0.34922 0.5595 0.0
C2405 C 0.85621 0.34327 0.53502 0.0
C2406 C 0.85259 0.36666 0.63556 0.0
C2407 C 0.85267 0.34695 0.65189 0.0
C2408 C 0.84958 0.36079 0.61102 0.0
C2409 C 0.84625 0.33495 0.60229 0.0
C2410 C 0.84638 0.31528 0.61859 0.0
C2411 C 0.84969 0.32126 0.64309 0.0
H2412 H 0.64275 0.12018 0.02237 0.0
H2413 H 0.72112 0.19806 0.03822 0.0
H2414 H 0.63178 0.11271 0.06499 0.0
H2415 H 0.70986 0.19079 0.0807 0.0
H2416 H 0.69781 0.15574 0.15514 0.0
H2417 H 0.7067 0.15885 0.11246 0.0
H2418 H 0.61857 0.13312 0.09883 0.0
H2419 H 0.6094 0.12952 0.142 0.0
C2420 C 0.65769 0.13569 0.03492 0.0
C2421 C 0.68296 0.15963 0.02686 0.0
C2422 C 0.65125 0.13148 0.05934 0.0
C2423 C 0.66997 0.15108 0.07624 0.0
C2424 C 0.6952 0.17503 0.06816 0.0
C2425 C 0.70163 0.17925 0.04379 0.0
C2426 C 0.68017 0.15053 0.14313 0.0
C2427 C 0.65289 0.14261 0.15203 0.0
C2428 C 0.68537 0.15249 0.11861 0.0
C2429 C 0.66349 0.1467 0.10225 0.0
C2430 C 0.63587 0.13765 0.11102 0.0
C2431 C 0.63061 0.13559 0.13572 0.0
H2432 H 0.877 0.55002 0.1508 0.0
H2433 H 0.82818 0.45846 0.14299 0.0
H2434 H 0.87207 0.55547 0.1078 0.0
H2435 H 0.8227 0.46405 0.10021 0.0
H2436 H 0.79105 0.49255 0.03282 0.0
H2437 H 0.79711 0.48843 0.07583 0.0
H2438 H 0.88838 0.53902 0.06764 0.0
H2439 H 0.88249 0.54258 0.02457 0.0
C2440 C 0.86531 0.5311 0.13991 0.0
C2441 C 0.85313 0.50381 0.15023 0.0
C2442 C 0.86252 0.53423 0.11535 0.0
C2443 C 0.84688 0.51017 0.10082 0.0
C2444 C 0.8347 0.48292 0.11111 0.0
C2445 C 0.83805 0.47975 0.13552 0.0
C2446 C 0.81239 0.50293 0.04023 0.0
C2447 C 0.83629 0.51786 0.02534 0.0
C2448 C 0.81584 0.50044 0.06477 0.0
C2449 C 0.84321 0.51338 0.07495 0.0
C2450 C 0.86707 0.52894 0.0602 0.0
C2451 C 0.86367 0.53088 0.03559 0.0
H2452 H 0.46011 0.27531 0.03153 0.0
H2453 H 0.50539 0.36599 0.01783 0.0
H2454 H 0.46428 0.28467 0.07451 0.0
H2455 H 0.50885 0.37526 0.06054 0.0
H2456 H 0.53758 0.38246 0.13821 0.0
H2457 H 0.53291 0.37271 0.09541 0.0
H2458 H 0.44754 0.30231 0.10643 0.0
H2459 H 0.45248 0.31159 0.14931 0.0
C2460 C 0.47075 0.29721 0.03764 0.0
C2461 C 0.48243 0.31984 0.02113 0.0
C2462 C 0.47303 0.30261 0.06231 0.0
C2463 C 0.48699 0.33077 0.07109 0.0
C2464 C 0.49841 0.35333 0.05453 0.0
C2465 C 0.49622 0.34796 0.02994 0.0
C2466 C 0.51775 0.36499 0.13152 0.0
C2467 C 0.4954 0.3479 0.14727 0.0
C2468 C 0.51501 0.35944 0.1069 0.0
C2469 C 0.48982 0.33669 0.09736 0.0
C2470 C 0.4674 0.31973 0.11312 0.0
C2471 C 0.47017 0.32523 0.13774 0.0
H2472 H 0.29968 0.83299 0.85712 0.0
H2473 H 0.38857 0.86199 0.87017 0.0
H2474 H 0.2904 0.82775 0.8999 0.0
H2475 H 0.37984 0.85851 0.91312 0.0
H2476 H 0.35233 0.82369 0.98779 0.0
H2477 H 0.3606 0.82773 0.94491 0.0
H2478 H 0.29482 0.85009 0.93605 0.0
H2479 H 0.28551 0.84427 0.97898 0.0
C2480 C 0.31736 0.83867 0.86921 0.0
C2481 C 0.34487 0.84792 0.86024 0.0
C2482 C 0.31209 0.83585 0.89385 0.0
C2483 C 0.3343 0.8427 0.9103 0.0
C2484 C 0.36196 0.85237 0.9012 0.0
C2485 C 0.3671 0.85463 0.87651 0.0
C2486 C 0.33958 0.8294 0.97665 0.0
C2487 C 0.31826 0.83367 0.9868 0.0
C2488 C 0.34449 0.83198 0.95197 0.0
C2489 C 0.32861 0.83951 0.93671 0.0
C2490 C 0.30724 0.8438 0.94698 0.0
C2491 C 0.30194 0.84062 0.97167 0.0
H2492 H 0.12196 0.48986 0.98828 0.0
H2493 H 0.18714 0.4675 0.97627 0.0
H2494 H 0.11534 0.49089 0.94536 0.0
H2495 H 0.18142 0.4697 0.93322 0.0
H2496 H 0.15074 0.45296 0.85741 0.0
H2497 H 0.1515 0.44726 0.90044 0.0
H2498 H 0.1371 0.51818 0.91084 0.0
H2499 H 0.1351 0.52299 0.86751 0.0
C2500 C 0.13495 0.48521 0.97645 0.0
C2501 C 0.15509 0.47856 0.98573 0.0
C2502 C 0.13129 0.48602 0.95177 0.0
C2503 C 0.14788 0.48052 0.93566 0.0
C2504 C 0.16785 0.47357 0.94499 0.0
C2505 C 0.17126 0.47242 0.96972 0.0
C2506 C 0.1474 0.46715 0.86889 0.0
C2507 C 0.14295 0.48851 0.85907 0.0
C2508 C 0.14811 0.46405 0.89362 0.0
C2509 C 0.14482 0.48251 0.90928 0.0
C2510 C 0.13944 0.50335 0.89942 0.0
C2511 C 0.13832 0.50618 0.87456 0.0
H2512 H 0.5099 0.63473 0.98639 0.0
H2513 H 0.52061 0.71849 0.97515 0.0
H2514 H 0.50719 0.62704 0.94333 0.0
H2515 H 0.51775 0.71062 0.9319 0.0
H2516 H 0.54277 0.6964 0.85599 0.0
H2517 H 0.54601 0.7047 0.8991 0.0
H2518 H 0.47402 0.62032 0.90999 0.0
H2519 H 0.47077 0.61189 0.86694 0.0
C2520 C 0.51173 0.65156 0.97475 0.0
C2521 C 0.51556 0.67729 0.98427 0.0
C2522 C 0.50998 0.64703 0.95005 0.0
C2523 C 0.51222 0.66819 0.93421 0.0
C2524 C 0.51621 0.69401 0.94366 0.0
C2525 C 0.5177 0.69846 0.96843 0.0
C2526 C 0.52771 0.67954 0.86757 0.0
C2527 C 0.5066 0.65341 0.85798 0.0
C2528 C 0.52945 0.68441 0.89226 0.0
C2529 C 0.51027 0.66318 0.90795 0.0
C2530 C 0.48928 0.637 0.89839 0.0
C2531 C 0.48738 0.63221 0.8737 0.0
H2532 H 0.37346 0.54197 0.3667 0.0
H2533 H 0.3277 0.45027 0.35951 0.0
H2534 H 0.36211 0.5371 0.40949 0.0
H2535 H 0.3171 0.44552 0.40245 0.0
H2536 H 0.34248 0.45977 0.48553 0.0
H2537 H 0.35195 0.46298 0.44247 0.0
H2538 H 0.31033 0.51259 0.43358 0.0
H2539 H 0.30007 0.50877 0.47661 0.0
C2540 C 0.36127 0.52081 0.37432 0.0
C2541 C 0.35152 0.49649 0.35983 0.0
C2542 C 0.35463 0.51806 0.3987 0.0
C2543 C 0.3387 0.49096 0.40909 0.0
C2544 C 0.32943 0.46663 0.39475 0.0
C2545 C 0.33548 0.46937 0.37026 0.0
C2546 C 0.33516 0.47117 0.47436 0.0
C2547 C 0.32048 0.48397 0.48436 0.0
C2548 C 0.34052 0.47292 0.44978 0.0
C2549 C 0.33192 0.4881 0.43489 0.0
C2550 C 0.31722 0.50087 0.44482 0.0
C2551 C 0.31124 0.49853 0.46932 0.0
H2552 H 0.54843 0.8752 0.35789 0.0
H2553 H 0.45691 0.82526 0.36526 0.0
H2554 H 0.55369 0.87257 0.40116 0.0
H2555 H 0.46233 0.82204 0.40854 0.0
H2556 H 0.49282 0.795 0.47836 0.0
H2557 H 0.48691 0.79876 0.43529 0.0
H2558 H 0.53766 0.89036 0.43999 0.0
H2559 H 0.543 0.88674 0.48318 0.0
C2560 C 0.52944 0.86366 0.36874 0.0
C2561 C 0.50224 0.85049 0.35815 0.0
C2562 C 0.53248 0.86225 0.39351 0.0
C2563 C 0.50843 0.84706 0.40816 0.0
C2564 C 0.48122 0.83379 0.39762 0.0
C2565 C 0.47813 0.83577 0.3729 0.0
C2566 C 0.50279 0.81594 0.4702 0.0
C2567 C 0.51846 0.84057 0.48417 0.0
C2568 C 0.49922 0.81807 0.4456 0.0
C2569 C 0.5118 0.84485 0.43434 0.0
C2570 C 0.52781 0.86946 0.44822 0.0
C2571 C 0.53081 0.86737 0.47292 0.0
H2572 H 0.14908 0.61154 0.36934 0.0
H2573 H 0.15721 0.69361 0.35444 0.0
H2574 H 0.15454 0.62274 0.41213 0.0
H2575 H 0.16252 0.7046 0.39696 0.0
H2576 H 0.20199 0.72569 0.47221 0.0
H2577 H 0.19774 0.71418 0.42962 0.0
H2578 H 0.12658 0.63041 0.44448 0.0
H2579 H 0.13078 0.64176 0.48702 0.0
C2580 C 0.15203 0.63191 0.37516 0.0
C2581 C 0.15256 0.6516 0.35849 0.0
C2582 C 0.15503 0.63827 0.39964 0.0
C2583 C 0.15897 0.66456 0.40785 0.0
C2584 C 0.1598 0.6843 0.39115 0.0
C2585 C 0.15653 0.67787 0.36679 0.0
C2586 C 0.18537 0.70486 0.46639 0.0
C2587 C 0.1666 0.68473 0.48301 0.0
C2588 C 0.18292 0.6983 0.44201 0.0
C2589 C 0.16186 0.67137 0.43376 0.0
C2590 C 0.1432 0.65121 0.45035 0.0
C2591 C 0.14546 0.65785 0.47469 0.0
H2592 H 0.08174 0.40993 0.08048 0.0
H2593 H 0.14515 0.38919 0.05684 0.0
H2594 H 0.05026 0.3597 0.09204 0.0
H2595 H 0.11422 0.33991 0.06814 0.0
H2596 H 0.04942 0.25041 0.06992 0.0
H2597 H 0.06788 0.29875 0.05497 0.0
H2598 H 0.05218 0.32453 0.12377 0.0
H2599 H 0.03292 0.27541 0.13861 0.0
C2600 C 0.08877 0.39465 0.07747 0.0
C2601 C 0.11592 0.40352 0.06774 0.0
C2602 C 0.07088 0.36603 0.08421 0.0
C2603 C 0.07968 0.34583 0.08081 0.0
C2604 C 0.10657 0.35479 0.07066 0.0
C2605 C 0.12443 0.38316 0.06432 0.0
C2606 C 0.04907 0.26621 0.0816 0.0
C2607 C 0.03986 0.25937 0.10536 0.0
C2608 C 0.05976 0.2939 0.0731 0.0
C2609 C 0.06193 0.31555 0.08831 0.0
C2610 C 0.05064 0.30824 0.11162 0.0
C2611 C 0.03965 0.28023 0.12013 0.0
H2612 H 0.74964 0.76562 0.06985 0.0
H2613 H 0.71784 0.78169 0.1354 0.0
H2614 H 0.70044 0.73458 0.05616 0.0
H2615 H 0.66898 0.75034 0.12199 0.0
H2616 H 0.61188 0.72945 0.03383 0.0
H2617 H 0.66149 0.74911 0.04615 0.0
H2618 H 0.63384 0.69687 0.1097 0.0
H2619 H 0.58406 0.67668 0.09715 0.0
C2620 C 0.73217 0.76201 0.08151 0.0
C2621 C 0.73749 0.77615 0.1036 0.0
C2622 C 0.70411 0.74437 0.07367 0.0
C2623 C 0.68101 0.74006 0.08807 0.0
C2624 C 0.68641 0.75307 0.11065 0.0
C2625 C 0.71435 0.77116 0.11824 0.0
C2626 C 0.61641 0.72172 0.05018 0.0
C2627 C 0.59413 0.70164 0.0646 0.0
C2628 C 0.64479 0.73284 0.05713 0.0
C2629 C 0.65142 0.72452 0.07887 0.0
C2630 C 0.62923 0.70361 0.09285 0.0
C2631 C 0.60082 0.69202 0.08564 0.0
H2632 H 0.2338 0.984 0.07405 0.0
H2633 H 0.20888 0.92669 0.13445 0.0
H2634 H 0.26603 0.9673 0.06062 0.0
H2635 H 0.24125 0.91039 0.12121 0.0
H2636 H 0.31351 0.89729 0.10083 0.0
H2637 H 0.29429 0.92755 0.11404 0.0
H2638 H 0.2548 0.91774 0.04494 0.0
H2639 H 0.2737 0.88721 0.03202 0.0
C2640 C 0.23558 0.96824 0.08467 0.0
C2641 C 0.2187 0.95655 0.10525 0.0
C2642 C 0.25396 0.95866 0.07695 0.0
C2643 C 0.25624 0.93767 0.08994 0.0
C2644 C 0.24023 0.92687 0.11102 0.0
C2645 C 0.22151 0.93603 0.11848 0.0
C2646 C 0.30171 0.90265 0.08823 0.0
C2647 C 0.29538 0.89045 0.06534 0.0
C2648 C 0.29048 0.91965 0.09583 0.0
C2649 C 0.27294 0.92485 0.08055 0.0
C2650 C 0.26848 0.91435 0.057 0.0
C2651 C 0.27935 0.897 0.04956 0.0
H2652 H 0.24971 0.01909 0.43049 0.0
H2653 H 0.28092 0.06809 0.36537 0.0
H2654 H 0.29888 0.03893 0.44464 0.0
H2655 H 0.32986 0.08742 0.37934 0.0
H2656 H 0.38321 0.1232 0.46985 0.0
H2657 H 0.33466 0.09219 0.45563 0.0
H2658 H 0.36744 0.07284 0.39234 0.0
H2659 H 0.4163 0.10361 0.4068 0.0
C2660 C 0.26707 0.03351 0.41897 0.0
C2661 C 0.26153 0.04221 0.39691 0.0
C2662 C 0.29513 0.04491 0.4271 0.0
C2663 C 0.31808 0.0647 0.41307 0.0
C2664 C 0.31257 0.07203 0.39041 0.0
C2665 C 0.28457 0.0611 0.3825 0.0
C2666 C 0.38007 0.11199 0.45307 0.0
C2667 C 0.40351 0.11591 0.43936 0.0
C2668 C 0.35229 0.09408 0.44505 0.0
C2669 C 0.34736 0.08013 0.42293 0.0
C2670 C 0.37074 0.08338 0.40947 0.0
C2671 C 0.3986 0.10088 0.41776 0.0
H2672 H 0.98463 0.2393 0.43159 0.0
H2673 H 0.93022 0.21413 0.36928 0.0
H2674 H 0.96382 0.26784 0.44547 0.0
H2675 H 0.90993 0.24307 0.38295 0.0
H2676 H 0.87983 0.26715 0.47348 0.0
H2677 H 0.91073 0.24951 0.45903 0.0
H2678 H 0.92448 0.2964 0.39327 0.0
H2679 H 0.89393 0.31465 0.40794 0.0
C2680 C 0.96873 0.2404 0.4206 0.0
C2681 C 0.95895 0.2244 0.39941 0.0
C2682 C 0.95678 0.25661 0.42859 0.0
C2683 C 0.93531 0.25762 0.41526 0.0
C2684 C 0.92663 0.24285 0.39345 0.0
C2685 C 0.93813 0.22618 0.38571 0.0
C2686 C 0.88988 0.27413 0.45613 0.0
C2687 C 0.88447 0.29223 0.44181 0.0
C2688 C 0.90767 0.26415 0.44793 0.0
C2689 C 0.91994 0.2716 0.42505 0.0
C2690 C 0.91523 0.29037 0.41098 0.0
C2691 C 0.89791 0.30088 0.41941 0.0
H2692 H 0.75085 0.73905 0.39137 0.0
H2693 H 0.82227 0.73474 0.42107 0.0
H2694 H 0.71841 0.69052 0.40637 0.0
H2695 H 0.7906 0.68715 0.43534 0.0
H2696 H 0.73185 0.61246 0.47606 0.0
H2697 H 0.75438 0.66255 0.4652 0.0
H2698 H 0.70761 0.63994 0.39865 0.0
H2699 H 0.68411 0.58942 0.41006 0.0
C2700 C 0.75958 0.72792 0.40118 0.0
C2701 C 0.78917 0.74076 0.40489 0.0
C2702 C 0.74108 0.70014 0.40964 0.0
C2703 C 0.75188 0.68503 0.42226 0.0
C2704 C 0.78138 0.69824 0.42616 0.0
C2705 C 0.79966 0.72558 0.41768 0.0
C2706 C 0.72596 0.61816 0.4593 0.0
C2707 C 0.70657 0.597 0.44374 0.0
C2708 C 0.73893 0.64688 0.45303 0.0
C2709 C 0.7333 0.65523 0.4308 0.0
C2710 C 0.71238 0.63424 0.41591 0.0
C2711 C 0.69901 0.60532 0.42239 0.0
H2712 H 0.85851 0.61059 0.95862 0.0
H2713 H 0.91588 0.5877 0.92432 0.0
H2714 H 0.88693 0.659 0.9439 0.0
H2715 H 0.94472 0.63697 0.90976 0.0
H2716 H 0.99534 0.74295 0.9155 0.0
H2717 H 0.9738 0.69358 0.93007 0.0
H2718 H 0.89423 0.67375 0.89664 0.0
H2719 H 0.91532 0.72227 0.8819 0.0
C2720 C 0.87742 0.61591 0.94824 0.0
C2721 C 0.88475 0.5951 0.9425 0.0
C2722 C 0.89365 0.64369 0.9398 0.0
C2723 C 0.91779 0.65152 0.92562 0.0
C2724 C 0.92616 0.63132 0.92075 0.0
C2725 C 0.90963 0.6032 0.92902 0.0
C2726 C 0.9734 0.7279 0.91095 0.0
C2727 C 0.95702 0.73666 0.89766 0.0
C2728 C 0.96117 0.69973 0.91923 0.0
C2729 C 0.93238 0.68013 0.91456 0.0
C2730 C 0.91644 0.6886 0.90058 0.0
C2731 C 0.92861 0.71643 0.89213 0.0
H2732 H 0.38438 0.24609 0.9658 0.0
H2733 H 0.40837 0.31989 0.92142 0.0
H2734 H 0.33508 0.22582 0.95309 0.0
H2735 H 0.35847 0.29907 0.90813 0.0
H2736 H 0.25432 0.24739 0.90523 0.0
H2737 H 0.3029 0.27721 0.92138 0.0
H2738 H 0.31937 0.20787 0.91054 0.0
H2739 H 0.27194 0.17859 0.89474 0.0
C2740 C 0.37893 0.25824 0.95367 0.0
C2741 C 0.40019 0.28435 0.94435 0.0
C2742 C 0.35072 0.24662 0.94634 0.0
C2743 C 0.34307 0.26059 0.92923 0.0
C2744 C 0.36383 0.28787 0.92133 0.0
C2745 C 0.3923 0.29975 0.92892 0.0
C2746 C 0.26852 0.23875 0.90611 0.0
C2747 C 0.25902 0.21043 0.89903 0.0
C2748 C 0.29623 0.25577 0.91534 0.0
C2749 C 0.31462 0.24458 0.91769 0.0
C2750 C 0.30545 0.21684 0.90953 0.0
C2751 C 0.27816 0.20006 0.90039 0.0
H2752 H 0.68249 0.10177 0.90736 0.0
H2753 H 0.73192 0.11445 0.97148 0.0
H2754 H 0.6987 0.07 0.89164 0.0
H2755 H 0.74756 0.08236 0.95599 0.0
H2756 H 0.76002 0.01168 0.92777 0.0
H2757 H 0.72896 0.02963 0.94192 0.0
H2758 H 0.75115 0.08394 0.87975 0.0
H2759 H 0.78262 0.06653 0.86607 0.0
C2760 C 0.69624 0.09723 0.91832 0.0
C2761 C 0.70608 0.1107 0.94059 0.0
C2762 C 0.70553 0.07913 0.9093 0.0
C2763 C 0.72427 0.07365 0.92265 0.0
C2764 C 0.73284 0.08591 0.94545 0.0
C2765 C 0.72406 0.10446 0.95423 0.0
C2766 C 0.75729 0.02659 0.91674 0.0
C2767 C 0.77331 0.03755 0.89574 0.0
C2768 C 0.73979 0.03704 0.9249 0.0
C2769 C 0.73773 0.0582 0.91193 0.0
C2770 C 0.75208 0.06742 0.88995 0.0
C2771 C 0.77002 0.05745 0.8821 0.0
H2772 H 0.72965 0.90977 0.6061 0.0
H2773 H 0.74431 0.99592 0.60853 0.0
H2774 H 0.6817 0.89273 0.59204 0.0
H2775 H 0.69517 0.97822 0.59426 0.0
H2776 H 0.5905 0.91364 0.5945 0.0
H2777 H 0.64035 0.9404 0.60806 0.0
H2778 H 0.6643 0.90187 0.55187 0.0
H2779 H 0.61514 0.87528 0.53847 0.0
C2780 C 0.72269 0.9252 0.60373 0.0
C2781 C 0.74116 0.95439 0.60822 0.0
C2782 C 0.69509 0.91532 0.59557 0.0
C2783 C 0.68489 0.9342 0.59166 0.0
C2784 C 0.70265 0.96326 0.59705 0.0
C2785 C 0.73069 0.97334 0.60518 0.0
C2786 C 0.60657 0.91141 0.58476 0.0
C2787 C 0.59877 0.89196 0.56566 0.0
C2788 C 0.63505 0.92678 0.59249 0.0
C2789 C 0.65602 0.92284 0.58121 0.0
C2790 C 0.64847 0.90496 0.56112 0.0
C2791 C 0.62025 0.88971 0.55346 0.0
H2792 H 0.07525 0.79382 0.63692 0.0
H2793 H 0.01935 0.76878 0.57556 0.0
H2794 H 0.09266 0.76222 0.62398 0.0
H2795 H 0.0372 0.73742 0.56245 0.0
H2796 H 0.10526 0.68857 0.60129 0.0
H2797 H 0.07586 0.70843 0.61538 0.0
H2798 H 0.08863 0.75214 0.54799 0.0
H2799 H 0.11828 0.73284 0.53412 0.0
C2800 C 0.06644 0.7813 0.62083 0.0
C2801 C 0.04608 0.7839 0.60716 0.0
C2802 C 0.07623 0.76305 0.61355 0.0
C2803 C 0.06623 0.74741 0.59224 0.0
C2804 C 0.04521 0.74928 0.57895 0.0
C2805 C 0.035 0.76716 0.58647 0.0
C2806 C 0.10119 0.70189 0.58934 0.0
C2807 C 0.11411 0.70933 0.56669 0.0
C2808 C 0.08455 0.71333 0.59743 0.0
C2809 C 0.08006 0.73181 0.58275 0.0
C2810 C 0.09155 0.73776 0.55956 0.0
C2811 C 0.10863 0.72685 0.55169 0.0
H2812 H 0.27128 0.39058 0.53633 0.0
H2813 H 0.32311 0.42152 0.60001 0.0
H2814 H 0.25404 0.34156 0.54916 0.0
H2815 H 0.30534 0.37223 0.61306 0.0
H2816 H 0.24131 0.25577 0.5724 0.0
H2817 H 0.27142 0.30532 0.55943 0.0
H2818 H 0.25278 0.33451 0.62519 0.0
H2819 H 0.22238 0.28518 0.63797 0.0
C2820 C 0.27929 0.38687 0.5529 0.0
C2821 C 0.29841 0.40982 0.56725 0.0
C2822 C 0.26959 0.35883 0.56014 0.0
C2823 C 0.2784 0.35319 0.58207 0.0
C2824 C 0.29828 0.37609 0.59606 0.0
C2825 C 0.30846 0.40421 0.58857 0.0
C2826 C 0.24421 0.27281 0.58429 0.0
C2827 C 0.2294 0.26669 0.60611 0.0
C2828 C 0.2613 0.30108 0.57683 0.0
C2829 C 0.26434 0.32364 0.59132 0.0
C2830 C 0.25099 0.31751 0.61379 0.0
C2831 C 0.23348 0.2893 0.62102 0.0
H2832 H 0.0843 0.46972 0.73581 0.0
H2833 H 0.06308 0.42298 0.80218 0.0
H2834 H 0.03537 0.44066 0.72216 0.0
H2835 H 0.01319 0.39457 0.78916 0.0
H2836 H 0.92566 0.33991 0.75158 0.0
H2837 H 0.97613 0.36031 0.76241 0.0
H2838 H 0.99384 0.44129 0.73286 0.0
H2839 H 0.94457 0.42105 0.72154 0.0
C2840 C 0.06906 0.45292 0.74736 0.0
C2841 C 0.07727 0.44863 0.77004 0.0
C2842 C 0.04094 0.43641 0.73969 0.0
C2843 C 0.02003 0.41575 0.75482 0.0
C2844 C 0.02867 0.41025 0.77703 0.0
C2845 C 0.05718 0.42649 0.78452 0.0
C2846 C 0.9405 0.36198 0.74724 0.0
C2847 C 0.93106 0.37869 0.73539 0.0
C2848 C 0.96938 0.37371 0.75355 0.0
C2849 C 0.98928 0.40236 0.74816 0.0
C2850 C 0.97951 0.41894 0.73664 0.0
C2851 C 0.951 0.40729 0.73026 0.0
H2852 H 0.56908 0.65249 0.73927 0.0
H2853 H 0.55639 0.60767 0.80609 0.0
H2854 H 0.59777 0.63213 0.72446 0.0
H2855 H 0.58548 0.58798 0.79154 0.0
H2856 H 0.6551 0.57217 0.76291 0.0
H2857 H 0.63737 0.60352 0.77629 0.0
H2858 H 0.5802 0.5775 0.71588 0.0
H2859 H 0.59745 0.54577 0.70269 0.0
C2860 C 0.5731 0.63896 0.751 0.0
C2861 C 0.56051 0.63157 0.77378 0.0
C2862 C 0.58933 0.62722 0.74249 0.0
C2863 C 0.59378 0.60851 0.75688 0.0
C2864 C 0.58258 0.60253 0.78017 0.0
C2865 C 0.56586 0.6137 0.78845 0.0
C2866 C 0.63913 0.57355 0.75225 0.0
C2867 C 0.62754 0.55641 0.73182 0.0
C2868 C 0.62896 0.5914 0.75995 0.0
C2869 C 0.60748 0.5929 0.74708 0.0
C2870 C 0.59698 0.57693 0.72598 0.0
C2871 C 0.60672 0.55865 0.71854 0.0
H2872 H 0.41803 0.07067 0.72902 0.0
H2873 H 0.48959 0.05751 0.74066 0.0
H2874 H 0.38566 0.02213 0.744 0.0
H2875 H 0.4577 0.01003 0.75534 0.0
H2876 H 0.40373 0.9437 0.80717 0.0
H2877 H 0.42734 0.99269 0.79314 0.0
H2878 H 0.37002 0.96759 0.73288 0.0
H2879 H 0.34589 0.91795 0.74711 0.0
C2880 C 0.42684 0.05751 0.73459 0.0
C2881 C 0.45648 0.06817 0.73374 0.0
C2882 C 0.40833 0.02978 0.7431 0.0
C2883 C 0.41926 0.01253 0.75117 0.0
C2884 C 0.44869 0.023 0.74969 0.0
C2885 C 0.46699 0.05031 0.7411 0.0
C2886 C 0.39574 0.94856 0.79114 0.0
C2887 C 0.37321 0.92683 0.77805 0.0
C2888 C 0.4093 0.97666 0.78311 0.0
C2889 C 0.40084 0.98383 0.7617 0.0
C2890 C 0.37694 0.96261 0.74945 0.0
C2891 C 0.36319 0.93425 0.75759 0.0
H2892 H 0.57788 0.06464 0.25167 0.0
H2893 H 0.65701 0.0707 0.22874 0.0
H2894 H 0.56101 0.01678 0.26565 0.0
H2895 H 0.63971 0.02179 0.24331 0.0
H2896 H 0.57117 0.91999 0.24506 0.0
H2897 H 0.59919 0.97042 0.23353 0.0
H2898 H 0.57276 0.99398 0.29838 0.0
H2899 H 0.54442 0.94403 0.30949 0.0
C2900 C 0.59182 0.05581 0.24961 0.0
C2901 C 0.61888 0.07165 0.23898 0.0
C2902 C 0.58216 0.02831 0.25791 0.0
C2903 C 0.59918 0.01563 0.25593 0.0
C2904 C 0.62619 0.03113 0.24512 0.0
C2905 C 0.63609 0.05908 0.23686 0.0
C2906 C 0.57193 0.93607 0.25705 0.0
C2907 C 0.55518 0.92811 0.27793 0.0
C2908 C 0.58803 0.96489 0.25049 0.0
C2909 C 0.58769 0.98605 0.26484 0.0
C2910 C 0.57291 0.97809 0.2867 0.0
C2911 C 0.55668 0.94948 0.29307 0.0
H2912 H 0.07492 0.65449 0.25797 0.0
H2913 H 0.05278 0.58149 0.30318 0.0
H2914 H 0.02473 0.63319 0.24599 0.0
H2915 H 0.00326 0.56055 0.29106 0.0
H2916 H 0.93858 0.51616 0.23004 0.0
H2917 H 0.98644 0.54412 0.24586 0.0
H2918 H 0.96929 0.61104 0.26576 0.0
H2919 H 0.9204 0.58259 0.24999 0.0
C2920 C 0.05937 0.63427 0.26571 0.0
C2921 C 0.06797 0.61953 0.28128 0.0
C2922 C 0.0307 0.6222 0.25892 0.0
C2923 C 0.01034 0.59519 0.2675 0.0
C2924 C 0.01865 0.58133 0.2841 0.0
C2925 C 0.04707 0.59336 0.29098 0.0
C2926 C 0.94484 0.53688 0.23761 0.0
C2927 C 0.92561 0.54714 0.23872 0.0
C2928 C 0.97226 0.55281 0.24679 0.0
C2929 C 0.98138 0.57956 0.25713 0.0
C2930 C 0.96262 0.5904 0.25783 0.0
C2931 C 0.93474 0.57413 0.2489 0.0
H2932 H 0.40244 0.45056 0.30689 0.0
H2933 H 0.35043 0.43155 0.24349 0.0
H2934 H 0.42025 0.41978 0.29253 0.0
H2935 H 0.36873 0.40107 0.22894 0.0
H2936 H 0.45086 0.39788 0.20143 0.0
H2937 H 0.42112 0.41674 0.21612 0.0
H2938 H 0.4037 0.3668 0.28057 0.0
H2939 H 0.43315 0.34739 0.26564 0.0
C2940 C 0.39449 0.43945 0.29006 0.0
C2941 C 0.37514 0.44354 0.27626 0.0
C2942 C 0.40454 0.4217 0.28193 0.0
C2943 C 0.39587 0.40811 0.25963 0.0
C2944 C 0.37574 0.41135 0.24619 0.0
C2945 C 0.36522 0.42868 0.25456 0.0
C2946 C 0.44023 0.39049 0.21852 0.0
C2947 C 0.44436 0.37125 0.23244 0.0
C2948 C 0.42309 0.40116 0.22685 0.0
C2949 C 0.41017 0.39323 0.24947 0.0
C2950 C 0.41347 0.37323 0.26307 0.0
C2951 C 0.43017 0.36207 0.25449 0.0
loop_
_geom_bond_atom_site_label_1
_geom_bond_atom_site_label_2
_geom_bond_distance
_geom_bond_site_symmetry_2
_ccdc_geom_bond_type
Fe0 O2 1.918 . S
Fe0 O5 1.997 . S
Fe0 O6 2.002 1_455 S
Fe0 O11 1.976 1_455 S
Fe0 O14 1.996 . S
Fe1 O2 1.918 1_655 S
Fe1 O9 1.997 . S
Fe1 O12 1.996 . S
Fe1 O16 1.976 1_655 S
Fe1 O19 2.002 . S
O2 Fe0 1.918 . S
O2 Fe1 1.918 1_455 S
O2 Fe3 1.918 . S
Fe3 O2 1.918 . S
Fe3 O4 2.002 . S
Fe3 O13 1.976 . S
Fe3 O17 1.996 . S
Fe3 O20 1.997 . S
O4 Fe3 2.002 . S
O4 C21 1.295 . S
O5 Fe0 1.997 . S
O5 C21 1.235 . S
O6 Fe0 2.002 1_655 S
O6 C7 1.295 . S
C7 O6 1.295 . S
C7 O9 1.235 . S
C8 O13 1.287 . S
C8 O14 1.255 . S
O9 Fe1 1.997 . S
O9 C7 1.235 . S
C10 O16 1.287 . S
C10 O17 1.255 . S
O11 Fe0 1.976 1_655 S
O11 C18 1.287 . S
O12 Fe1 1.996 . S
O12 C18 1.255 . S
O13 Fe3 1.976 . S
O13 C8 1.287 . S
O14 Fe0 1.996 . S
O14 C8 1.255 . S
C15 O19 1.295 1_455 S
C15 O20 1.235 . S
O16 Fe1 1.976 1_455 S
O16 C10 1.287 . S
O17 Fe3 1.996 . S
O17 C10 1.255 . S
C18 O11 1.287 . S
C18 O12 1.255 . S
O19 Fe1 2.002 . S
O19 C15 1.295 1_655 S
O20 Fe3 1.997 . S
O20 C15 1.235 . S
C21 O4 1.295 . S
C21 O5 1.235 . S
Fe22 O24 1.918 . S
Fe22 O27 1.997 . S
Fe22 O28 2.002 . S
Fe22 O33 1.976 . S
Fe22 O36 1.996 . S
Fe23 O24 1.918 . S
Fe23 O31 1.997 . S
Fe23 O34 1.996 . S
Fe23 O38 1.976 . S
Fe23 O41 2.002 . S
O24 Fe22 1.918 . S
O24 Fe23 1.918 . S
O24 Fe25 1.918 . S
Fe25 O24 1.918 . S
Fe25 O26 2.002 . S
Fe25 O35 1.976 . S
Fe25 O39 1.996 . S
Fe25 O42 1.997 . S
O26 Fe25 2.002 . S
O26 C43 1.295 . S
O27 Fe22 1.997 . S
O27 C43 1.235 . S
O28 Fe22 2.002 . S
O28 C29 1.295 . S
C29 O28 1.295 . S
C29 O31 1.235 . S
C30 O35 1.287 . S
C30 O36 1.255 . S
O31 Fe23 1.997 . S
O31 C29 1.235 . S
C32 O38 1.287 . S
C32 O39 1.255 . S
O33 Fe22 1.976 . S
O33 C40 1.287 . S
O34 Fe23 1.996 . S
O34 C40 1.255 . S
O35 Fe25 1.976 . S
O35 C30 1.287 . S
O36 Fe22 1.996 . S
O36 C30 1.255 . S
C37 O41 1.295 . S
C37 O42 1.235 . S
O38 Fe23 1.976 . S
O38 C32 1.287 . S
O39 Fe25 1.996 . S
O39 C32 1.255 . S
C40 O33 1.287 . S
C40 O34 1.255 . S
O41 Fe23 2.002 . S
O41 C37 1.295 . S
O42 Fe25 1.997 . S
O42 C37 1.235 . S
C43 O26 1.295 . S
C43 O27 1.235 . S
Fe44 O46 1.918 . S
Fe44 O49 1.997 . S
Fe44 O50 2.002 . S
Fe44 O55 1.976 . S
Fe44 O58 1.996 . S
Fe45 O46 1.918 . S
Fe45 O53 1.997 . S
Fe45 O56 1.996 . S
Fe45 O60 1.976 1_565 S
Fe45 O63 2.002 1_565 S
O46 Fe44 1.918 . S
O46 Fe45 1.918 . S
O46 Fe47 1.918 1_565 S
Fe47 O46 1.918 1_545 S
Fe47 O48 2.002 . S
Fe47 O57 1.976 1_545 S
Fe47 O61 1.996 . S
Fe47 O64 1.997 . S
O48 Fe47 2.002 . S
O48 C65 1.295 1_545 S
O49 Fe44 1.997 . S
O49 C65 1.235 . S
O50 Fe44 2.002 . S
O50 C51 1.295 . S
C51 O50 1.295 . S
C51 O53 1.235 . S
C52 O57 1.287 . S
C52 O58 1.255 . S
O53 Fe45 1.997 . S
O53 C51 1.235 . S
C54 O60 1.287 . S
C54 O61 1.255 . S
O55 Fe44 1.976 . S
O55 C62 1.287 . S
O56 Fe45 1.996 . S
O56 C62 1.255 . S
O57 Fe47 1.976 1_565 S
O57 C52 1.287 . S
O58 Fe44 1.996 . S
O58 C52 1.255 . S
C59 O63 1.295 . S
C59 O64 1.235 . S
O60 Fe45 1.976 1_545 S
O60 C54 1.287 . S
O61 Fe47 1.996 . S
O61 C54 1.255 . S
C62 O55 1.287 . S
C62 O56 1.255 . S
O63 Fe45 2.002 1_545 S
O63 C59 1.295 . S
O64 Fe47 1.997 . S
O64 C59 1.235 . S
C65 O48 1.295 1_565 S
C65 O49 1.235 . S
Fe66 O68 1.918 . S
Fe66 O71 1.997 . S
Fe66 O72 2.002 1_545 S
Fe66 O77 1.976 1_545 S
Fe66 O80 1.996 . S
Fe67 O68 1.918 1_565 S
Fe67 O75 1.997 . S
Fe67 O78 1.996 . S
Fe67 O82 1.976 1_565 S
Fe67 O85 2.002 . S
O68 Fe66 1.918 . S
O68 Fe67 1.918 1_545 S
O68 Fe69 1.918 . S
Fe69 O68 1.918 . S
Fe69 O70 2.002 . S
Fe69 O79 1.976 . S
Fe69 O83 1.996 . S
Fe69 O86 1.997 . S
O70 Fe69 2.002 . S
O70 C87 1.295 . S
O71 Fe66 1.997 . S
O71 C87 1.235 . S
O72 Fe66 2.002 1_565 S
O72 C73 1.295 . S
C73 O72 1.295 . S
C73 O75 1.235 . S
C74 O79 1.287 . S
C74 O80 1.255 . S
O75 Fe67 1.997 . S
O75 C73 1.235 . S
C76 O82 1.287 . S
C76 O83 1.255 . S
O77 Fe66 1.976 1_565 S
O77 C84 1.287 . S
O78 Fe67 1.996 . S
O78 C84 1.255 . S
O79 Fe69 1.976 . S
O79 C74 1.287 . S
O80 Fe66 1.996 . S
O80 C74 1.255 . S
C81 O85 1.295 1_545 S
C81 O86 1.235 . S
O82 Fe67 1.976 1_545 S
O82 C76 1.287 . S
O83 Fe69 1.996 . S
O83 C76 1.255 . S
C84 O77 1.287 . S
C84 O78 1.255 . S
O85 Fe67 2.002 . S
O85 C81 1.295 1_565 S
O86 Fe69 1.997 . S
O86 C81 1.235 . S
C87 O70 1.295 . S
C87 O71 1.235 . S
Fe88 O90 1.918 . S
Fe88 O93 1.997 . S
Fe88 O94 2.002 1_655 S
Fe88 O99 1.976 1_655 S
Fe88 O102 1.996 . S
Fe89 O90 1.918 1_455 S
Fe89 O97 1.997 . S
Fe89 O100 1.996 . S
Fe89 O104 1.976 1_455 S
Fe89 O107 2.002 . S
O90 Fe88 1.918 . S
O90 Fe89 1.918 1_655 S
O90 Fe91 1.918 . S
Fe91 O90 1.918 . S
Fe91 O92 2.002 . S
Fe91 O101 1.976 . S
Fe91 O105 1.996 . S
Fe91 O108 1.997 . S
O92 Fe91 2.002 . S
O92 C109 1.295 . S
O93 Fe88 1.997 . S
O93 C109 1.235 . S
O94 Fe88 2.002 1_455 S
O94 C95 1.295 . S
C95 O94 1.295 . S
C95 O97 1.235 . S
C96 O101 1.287 . S
C96 O102 1.255 . S
O97 Fe89 1.997 . S
O97 C95 1.235 . S
C98 O104 1.287 . S
C98 O105 1.255 . S
O99 Fe88 1.976 1_455 S
O99 C106 1.287 . S
O100 Fe89 1.996 . S
O100 C106 1.255 . S
O101 Fe91 1.976 . S
O101 C96 1.287 . S
O102 Fe88 1.996 . S
O102 C96 1.255 . S
C103 O107 1.295 1_655 S
C103 O108 1.235 . S
O104 Fe89 1.976 1_655 S
O104 C98 1.287 . S
O105 Fe91 1.996 . S
O105 C98 1.255 . S
C106 O99 1.287 . S
C106 O100 1.255 . S
O107 Fe89 2.002 . S
O107 C103 1.295 1_455 S
O108 Fe91 1.997 . S
O108 C103 1.235 . S
C109 O92 1.295 . S
C109 O93 1.235 . S
Fe110 O112 1.918 . S
Fe110 O115 1.997 . S
Fe110 O116 2.002 . S
Fe110 O121 1.976 . S
Fe110 O124 1.996 . S
Fe111 O112 1.918 . S
Fe111 O119 1.997 . S
Fe111 O122 1.996 . S
Fe111 O126 1.976 . S
Fe111 O129 2.002 . S
O112 Fe110 1.918 . S
O112 Fe111 1.918 . S
O112 Fe113 1.918 . S
Fe113 O112 1.918 . S
Fe113 O114 2.002 . S
Fe113 O123 1.976 . S
Fe113 O127 1.996 . S
Fe113 O130 1.997 . S
O114 Fe113 2.002 . S
O114 C131 1.295 . S
O115 Fe110 1.997 . S
O115 C131 1.235 . S
O116 Fe110 2.002 . S
O116 C117 1.295 . S
C117 O116 1.295 . S
C117 O119 1.235 . S
C118 O123 1.287 . S
C118 O124 1.255 . S
O119 Fe111 1.997 . S
O119 C117 1.235 . S
C120 O126 1.287 . S
C120 O127 1.255 . S
O121 Fe110 1.976 . S
O121 C128 1.287 . S
O122 Fe111 1.996 . S
O122 C128 1.255 . S
O123 Fe113 1.976 . S
O123 C118 1.287 . S
O124 Fe110 1.996 . S
O124 C118 1.255 . S
C125 O129 1.295 . S
C125 O130 1.235 . S
O126 Fe111 1.976 . S
O126 C120 1.287 . S
O127 Fe113 1.996 . S
O127 C120 1.255 . S
C128 O121 1.287 . S
C128 O122 1.255 . S
O129 Fe111 2.002 . S
O129 C125 1.295 . S
O130 Fe113 1.997 . S
O130 C125 1.235 . S
C131 O114 1.295 . S
C131 O115 1.235 . S
Fe132 O134 1.918 . S
Fe132 O137 1.997 . S
Fe132 O138 2.002 1_655 S
Fe132 O143 1.976 1_655 S
Fe132 O146 1.996 . S
Fe133 O134 1.918 1_455 S
Fe133 O141 1.997 . S
Fe133 O144 1.996 . S
Fe133 O148 1.976 1_455 S
Fe133 O151 2.002 . S
O134 Fe132 1.918 . S
O134 Fe133 1.918 1_655 S
O134 Fe135 1.918 . S
Fe135 O134 1.918 . S
Fe135 O136 2.002 . S
Fe135 O145 1.976 . S
Fe135 O149 1.996 . S
Fe135 O152 1.997 . S
O136 Fe135 2.002 . S
O136 C153 1.295 . S
O137 Fe132 1.997 . S
O137 C153 1.235 . S
O138 Fe132 2.002 1_455 S
O138 C139 1.295 . S
C139 O138 1.295 . S
C139 O141 1.235 . S
C140 O145 1.287 . S
C140 O146 1.255 . S
O141 Fe133 1.997 . S
O141 C139 1.235 . S
C142 O148 1.287 . S
C142 O149 1.255 . S
O143 Fe132 1.976 1_455 S
O143 C150 1.287 . S
O144 Fe133 1.996 . S
O144 C150 1.255 . S
O145 Fe135 1.976 . S
O145 C140 1.287 . S
O146 Fe132 1.996 . S
O146 C140 1.255 . S
C147 O151 1.295 1_655 S
C147 O152 1.235 . S
O148 Fe133 1.976 1_655 S
O148 C142 1.287 . S
O149 Fe135 1.996 . S
O149 C142 1.255 . S
C150 O143 1.287 . S
C150 O144 1.255 . S
O151 Fe133 2.002 . S
O151 C147 1.295 1_455 S
O152 Fe135 1.997 . S
O152 C147 1.235 . S
C153 O136 1.295 . S
C153 O137 1.235 . S
Fe154 O156 1.918 . S
Fe154 O159 1.997 . S
Fe154 O160 2.002 . S
Fe154 O165 1.976 . S
Fe154 O168 1.996 . S
Fe155 O156 1.918 . S
Fe155 O163 1.997 . S
Fe155 O166 1.996 . S
Fe155 O170 1.976 . S
Fe155 O173 2.002 . S
O156 Fe154 1.918 . S
O156 Fe155 1.918 . S
O156 Fe157 1.918 . S
Fe157 O156 1.918 . S
Fe157 O158 2.002 . S
Fe157 O167 1.976 . S
Fe157 O171 1.996 . S
Fe157 O174 1.997 . S
O158 Fe157 2.002 . S
O158 C175 1.295 . S
O159 Fe154 1.997 . S
O159 C175 1.235 . S
O160 Fe154 2.002 . S
O160 C161 1.295 . S
C161 O160 1.295 . S
C161 O163 1.235 . S
C162 O167 1.287 . S
C162 O168 1.255 . S
O163 Fe155 1.997 . S
O163 C161 1.235 . S
C164 O170 1.287 . S
C164 O171 1.255 . S
O165 Fe154 1.976 . S
O165 C172 1.287 . S
O166 Fe155 1.996 . S
O166 C172 1.255 . S
O167 Fe157 1.976 . S
O167 C162 1.287 . S
O168 Fe154 1.996 . S
O168 C162 1.255 . S
C169 O173 1.295 . S
C169 O174 1.235 . S
O170 Fe155 1.976 . S
O170 C164 1.287 . S
O171 Fe157 1.996 . S
O171 C164 1.255 . S
C172 O165 1.287 . S
C172 O166 1.255 . S
O173 Fe155 2.002 . S
O173 C169 1.295 . S
O174 Fe157 1.997 . S
O174 C169 1.235 . S
C175 O158 1.295 . S
C175 O159 1.235 . S
Fe176 O178 1.918 1_565 S
Fe176 O181 1.997 . S
Fe176 O182 2.002 . S
Fe176 O187 1.976 1_565 S
Fe176 O190 1.996 . S
Fe177 O178 1.918 . S
Fe177 O185 1.997 . S
Fe177 O188 1.996 . S
Fe177 O192 1.976 . S
Fe177 O195 2.002 . S
O178 Fe176 1.918 1_545 S
O178 Fe177 1.918 . S
O178 Fe179 1.918 . S
Fe179 O178 1.918 . S
Fe179 O180 2.002 1_545 S
Fe179 O189 1.976 1_545 S
Fe179 O193 1.996 . S
Fe179 O196 1.997 . S
O180 Fe179 2.002 1_565 S
O180 C197 1.295 . S
O181 Fe176 1.997 . S
O181 C197 1.235 . S
O182 Fe176 2.002 . S
O182 C183 1.295 1_565 S
C183 O182 1.295 1_545 S
C183 O185 1.235 . S
C184 O189 1.287 . S
C184 O190 1.255 . S
O185 Fe177 1.997 . S
O185 C183 1.235 . S
C186 O192 1.287 . S
C186 O193 1.255 . S
O187 Fe176 1.976 1_545 S
O187 C194 1.287 . S
O188 Fe177 1.996 . S
O188 C194 1.255 . S
O189 Fe179 1.976 1_565 S
O189 C184 1.287 . S
O190 Fe176 1.996 . S
O190 C184 1.255 . S
C191 O195 1.295 . S
C191 O196 1.235 . S
O192 Fe177 1.976 . S
O192 C186 1.287 . S
O193 Fe179 1.996 . S
O193 C186 1.255 . S
C194 O187 1.287 . S
C194 O188 1.255 . S
O195 Fe177 2.002 . S
O195 C191 1.295 . S
O196 Fe179 1.997 . S
O196 C191 1.235 . S
C197 O180 1.295 . S
C197 O181 1.235 . S
Fe198 O200 1.918 . S
Fe198 O203 1.997 . S
Fe198 O204 2.002 . S
Fe198 O209 1.976 . S
Fe198 O212 1.996 . S
Fe199 O200 1.918 . S
Fe199 O207 1.997 . S
Fe199 O210 1.996 . S
Fe199 O214 1.976 1_565 S
Fe199 O217 2.002 1_565 S
O200 Fe198 1.918 . S
O200 Fe199 1.918 . S
O200 Fe201 1.918 1_565 S
Fe201 O200 1.918 1_545 S
Fe201 O202 2.002 . S
Fe201 O211 1.976 1_545 S
Fe201 O215 1.996 . S
Fe201 O218 1.997 . S
O202 Fe201 2.002 . S
O202 C219 1.295 1_545 S
O203 Fe198 1.997 . S
O203 C219 1.235 . S
O204 Fe198 2.002 . S
O204 C205 1.295 . S
C205 O204 1.295 . S
C205 O207 1.235 . S
C206 O211 1.287 . S
C206 O212 1.255 . S
O207 Fe199 1.997 . S
O207 C205 1.235 . S
C208 O214 1.287 . S
C208 O215 1.255 . S
O209 Fe198 1.976 . S
O209 C216 1.287 . S
O210 Fe199 1.996 . S
O210 C216 1.255 . S
O211 Fe201 1.976 1_565 S
O211 C206 1.287 . S
O212 Fe198 1.996 . S
O212 C206 1.255 . S
C213 O217 1.295 . S
C213 O218 1.235 . S
O214 Fe199 1.976 1_545 S
O214 C208 1.287 . S
O215 Fe201 1.996 . S
O215 C208 1.255 . S
C216 O209 1.287 . S
C216 O210 1.255 . S
O217 Fe199 2.002 1_545 S
O217 C213 1.295 . S
O218 Fe201 1.997 . S
O218 C213 1.235 . S
C219 O202 1.295 1_565 S
C219 O203 1.235 . S
Fe220 O222 1.918 . S
Fe220 O225 1.997 . S
Fe220 O226 2.002 . S
Fe220 O231 1.976 . S
Fe220 O234 1.996 . S
Fe221 O222 1.918 . S
Fe221 O229 1.997 . S
Fe221 O232 1.996 . S
Fe221 O236 1.976 1_455 S
Fe221 O239 2.002 1_455 S
O222 Fe220 1.918 . S
O222 Fe221 1.918 . S
O222 Fe223 1.918 1_455 S
Fe223 O222 1.918 1_655 S
Fe223 O224 2.002 . S
Fe223 O233 1.976 1_655 S
Fe223 O237 1.996 . S
Fe223 O240 1.997 . S
O224 Fe223 2.002 . S
O224 C241 1.295 1_655 S
O225 Fe220 1.997 . S
O225 C241 1.235 . S
O226 Fe220 2.002 . S
O226 C227 1.295 . S
C227 O226 1.295 . S
C227 O229 1.235 . S
C228 O233 1.287 . S
C228 O234 1.255 . S
O229 Fe221 1.997 . S
O229 C227 1.235 . S
C230 O236 1.287 . S
C230 O237 1.255 . S
O231 Fe220 1.976 . S
O231 C238 1.287 . S
O232 Fe221 1.996 . S
O232 C238 1.255 . S
O233 Fe223 1.976 1_455 S
O233 C228 1.287 . S
O234 Fe220 1.996 . S
O234 C228 1.255 . S
C235 O239 1.295 . S
C235 O240 1.235 . S
O236 Fe221 1.976 1_655 S
O236 C230 1.287 . S
O237 Fe223 1.996 . S
O237 C230 1.255 . S
C238 O231 1.287 . S
C238 O232 1.255 . S
O239 Fe221 2.002 1_655 S
O239 C235 1.295 . S
O240 Fe223 1.997 . S
O240 C235 1.235 . S
C241 O224 1.295 1_455 S
C241 O225 1.235 . S
Fe242 O244 1.918 . S
Fe242 O247 1.997 . S
Fe242 O248 2.002 . S
Fe242 O253 1.976 . S
Fe242 O256 1.996 . S
Fe243 O244 1.918 . S
Fe243 O251 1.997 . S
Fe243 O254 1.996 . S
Fe243 O258 1.976 . S
Fe243 O261 2.002 . S
O244 Fe242 1.918 . S
O244 Fe243 1.918 . S
O244 Fe245 1.918 . S
Fe245 O244 1.918 . S
Fe245 O246 2.002 . S
Fe245 O255 1.976 . S
Fe245 O259 1.996 . S
Fe245 O262 1.997 . S
O246 Fe245 2.002 . S
O246 C263 1.295 . S
O247 Fe242 1.997 . S
O247 C263 1.235 . S
O248 Fe242 2.002 . S
O248 C249 1.295 . S
C249 O248 1.295 . S
C249 O251 1.235 . S
C250 O255 1.287 . S
C250 O256 1.255 . S
O251 Fe243 1.997 . S
O251 C249 1.235 . S
C252 O258 1.287 . S
C252 O259 1.255 . S
O253 Fe242 1.976 . S
O253 C260 1.287 . S
O254 Fe243 1.996 . S
O254 C260 1.255 . S
O255 Fe245 1.976 . S
O255 C250 1.287 . S
O256 Fe242 1.996 . S
O256 C250 1.255 . S
C257 O261 1.295 . S
C257 O262 1.235 . S
O258 Fe243 1.976 . S
O258 C252 1.287 . S
O259 Fe245 1.996 . S
O259 C252 1.255 . S
C260 O253 1.287 . S
C260 O254 1.255 . S
O261 Fe243 2.002 . S
O261 C257 1.295 . S
O262 Fe245 1.997 . S
O262 C257 1.235 . S
C263 O246 1.295 . S
C263 O247 1.235 . S
Fe264 O266 1.918 . S
Fe264 O269 1.997 . S
Fe264 O270 2.002 . S
Fe264 O275 1.976 . S
Fe264 O278 1.996 . S
Fe265 O266 1.918 . S
Fe265 O273 1.997 . S
Fe265 O276 1.996 . S
Fe265 O280 1.976 . S
Fe265 O283 2.002 . S
O266 Fe264 1.918 . S
O266 Fe265 1.918 . S
O266 Fe267 1.918 . S
Fe267 O266 1.918 . S
Fe267 O268 2.002 . S
Fe267 O277 1.976 . S
Fe267 O281 1.996 . S
Fe267 O284 1.997 . S
O268 Fe267 2.002 . S
O268 C285 1.295 . S
O269 Fe264 1.997 . S
O269 C285 1.235 . S
O270 Fe264 2.002 . S
O270 C271 1.295 . S
C271 O270 1.295 . S
C271 O273 1.235 . S
C272 O277 1.287 . S
C272 O278 1.255 . S
O273 Fe265 1.997 . S
O273 C271 1.235 . S
C274 O280 1.287 . S
C274 O281 1.255 . S
O275 Fe264 1.976 . S
O275 C282 1.287 . S
O276 Fe265 1.996 . S
O276 C282 1.255 . S
O277 Fe267 1.976 . S
O277 C272 1.287 . S
O278 Fe264 1.996 . S
O278 C272 1.255 . S
C279 O283 1.295 . S
C279 O284 1.235 . S
O280 Fe265 1.976 . S
O280 C274 1.287 . S
O281 Fe267 1.996 . S
O281 C274 1.255 . S
C282 O275 1.287 . S
C282 O276 1.255 . S
O283 Fe265 2.002 . S
O283 C279 1.295 . S
O284 Fe267 1.997 . S
O284 C279 1.235 . S
C285 O268 1.295 . S
C285 O269 1.235 . S
Fe286 O288 1.918 . S
Fe286 O291 1.997 . S
Fe286 O292 2.002 . S
Fe286 O297 1.976 . S
Fe286 O300 1.996 . S
Fe287 O288 1.918 . S
Fe287 O295 1.997 . S
Fe287 O298 1.996 . S
Fe287 O302 1.976 . S
Fe287 O305 2.002 . S
O288 Fe286 1.918 . S
O288 Fe287 1.918 . S
O288 Fe289 1.918 . S
Fe289 O288 1.918 . S
Fe289 O290 2.002 . S
Fe289 O299 1.976 . S
Fe289 O303 1.996 . S
Fe289 O306 1.997 . S
O290 Fe289 2.002 . S
O290 C307 1.295 . S
O291 Fe286 1.997 . S
O291 C307 1.235 . S
O292 Fe286 2.002 . S
O292 C293 1.295 . S
C293 O292 1.295 . S
C293 O295 1.235 . S
C294 O299 1.287 . S
C294 O300 1.255 . S
O295 Fe287 1.997 . S
O295 C293 1.235 . S
C296 O302 1.287 . S
C296 O303 1.255 . S
O297 Fe286 1.976 . S
O297 C304 1.287 . S
O298 Fe287 1.996 . S
O298 C304 1.255 . S
O299 Fe289 1.976 . S
O299 C294 1.287 . S
O300 Fe286 1.996 . S
O300 C294 1.255 . S
C301 O305 1.295 . S
C301 O306 1.235 . S
O302 Fe287 1.976 . S
O302 C296 1.287 . S
O303 Fe289 1.996 . S
O303 C296 1.255 . S
C304 O297 1.287 . S
C304 O298 1.255 . S
O305 Fe287 2.002 . S
O305 C301 1.295 . S
O306 Fe289 1.997 . S
O306 C301 1.235 . S
C307 O290 1.295 . S
C307 O291 1.235 . S
Fe308 O310 1.918 . S
Fe308 O313 1.997 . S
Fe308 O314 2.002 . S
Fe308 O319 1.976 . S
Fe308 O322 1.996 . S
Fe309 O310 1.918 . S
Fe309 O317 1.997 . S
Fe309 O320 1.996 . S
Fe309 O324 1.976 . S
Fe309 O327 2.002 . S
O310 Fe308 1.918 . S
O310 Fe309 1.918 . S
O310 Fe311 1.918 . S
Fe311 O310 1.918 . S
Fe311 O312 2.002 . S
Fe311 O321 1.976 . S
Fe311 O325 1.996 . S
Fe311 O328 1.997 . S
O312 Fe311 2.002 . S
O312 C329 1.295 . S
O313 Fe308 1.997 . S
O313 C329 1.235 . S
O314 Fe308 2.002 . S
O314 C315 1.295 . S
C315 O314 1.295 . S
C315 O317 1.235 . S
C316 O321 1.287 . S
C316 O322 1.255 . S
O317 Fe309 1.997 . S
O317 C315 1.235 . S
C318 O324 1.287 . S
C318 O325 1.255 . S
O319 Fe308 1.976 . S
O319 C326 1.287 . S
O320 Fe309 1.996 . S
O320 C326 1.255 . S
O321 Fe311 1.976 . S
O321 C316 1.287 . S
O322 Fe308 1.996 . S
O322 C316 1.255 . S
C323 O327 1.295 . S
C323 O328 1.235 . S
O324 Fe309 1.976 . S
O324 C318 1.287 . S
O325 Fe311 1.996 . S
O325 C318 1.255 . S
C326 O319 1.287 . S
C326 O320 1.255 . S
O327 Fe309 2.002 . S
O327 C323 1.295 . S
O328 Fe311 1.997 . S
O328 C323 1.235 . S
C329 O312 1.295 . S
C329 O313 1.235 . S
Fe330 O332 1.918 . S
Fe330 O335 1.997 . S
Fe330 O336 2.002 . S
Fe330 O341 1.976 . S
Fe330 O344 1.996 . S
Fe331 O332 1.918 . S
Fe331 O339 1.997 . S
Fe331 O342 1.996 . S
Fe331 O346 1.976 . S
Fe331 O349 2.002 . S
O332 Fe330 1.918 . S
O332 Fe331 1.918 . S
O332 Fe333 1.918 . S
Fe333 O332 1.918 . S
Fe333 O334 2.002 . S
Fe333 O343 1.976 . S
Fe333 O347 1.996 . S
Fe333 O350 1.997 . S
O334 Fe333 2.002 . S
O334 C351 1.295 . S
O335 Fe330 1.997 . S
O335 C351 1.235 . S
O336 Fe330 2.002 . S
O336 C337 1.295 . S
C337 O336 1.295 . S
C337 O339 1.235 . S
C338 O343 1.287 . S
C338 O344 1.255 . S
O339 Fe331 1.997 . S
O339 C337 1.235 . S
C340 O346 1.287 . S
C340 O347 1.255 . S
O341 Fe330 1.976 . S
O341 C348 1.287 . S
O342 Fe331 1.996 . S
O342 C348 1.255 . S
O343 Fe333 1.976 . S
O343 C338 1.287 . S
O344 Fe330 1.996 . S
O344 C338 1.255 . S
C345 O349 1.295 . S
C345 O350 1.235 . S
O346 Fe331 1.976 . S
O346 C340 1.287 . S
O347 Fe333 1.996 . S
O347 C340 1.255 . S
C348 O341 1.287 . S
C348 O342 1.255 . S
O349 Fe331 2.002 . S
O349 C345 1.295 . S
O350 Fe333 1.997 . S
O350 C345 1.235 . S
C351 O334 1.295 . S
C351 O335 1.235 . S
Fe352 O354 1.918 . S
Fe352 O357 1.997 . S
Fe352 O358 2.002 . S
Fe352 O363 1.976 . S
Fe352 O366 1.996 . S
Fe353 O354 1.918 . S
Fe353 O361 1.997 . S
Fe353 O364 1.996 . S
Fe353 O368 1.976 . S
Fe353 O371 2.002 . S
O354 Fe352 1.918 . S
O354 Fe353 1.918 . S
O354 Fe355 1.918 . S
Fe355 O354 1.918 . S
Fe355 O356 2.002 . S
Fe355 O365 1.976 . S
Fe355 O369 1.996 . S
Fe355 O372 1.997 . S
O356 Fe355 2.002 . S
O356 C373 1.295 . S
O357 Fe352 1.997 . S
O357 C373 1.235 . S
O358 Fe352 2.002 . S
O358 C359 1.295 . S
C359 O358 1.295 . S
C359 O361 1.235 . S
C360 O365 1.287 . S
C360 O366 1.255 . S
O361 Fe353 1.997 . S
O361 C359 1.235 . S
C362 O368 1.287 . S
C362 O369 1.255 . S
O363 Fe352 1.976 . S
O363 C370 1.287 . S
O364 Fe353 1.996 . S
O364 C370 1.255 . S
O365 Fe355 1.976 . S
O365 C360 1.287 . S
O366 Fe352 1.996 . S
O366 C360 1.255 . S
C367 O371 1.295 . S
C367 O372 1.235 . S
O368 Fe353 1.976 . S
O368 C362 1.287 . S
O369 Fe355 1.996 . S
O369 C362 1.255 . S
C370 O363 1.287 . S
C370 O364 1.255 . S
O371 Fe353 2.002 . S
O371 C367 1.295 . S
O372 Fe355 1.997 . S
O372 C367 1.235 . S
C373 O356 1.295 . S
C373 O357 1.235 . S
Fe374 O376 1.918 . S
Fe374 O379 1.997 . S
Fe374 O380 2.002 . S
Fe374 O385 1.976 . S
Fe374 O388 1.996 . S
Fe375 O376 1.918 . S
Fe375 O383 1.997 . S
Fe375 O386 1.996 . S
Fe375 O390 1.976 . S
Fe375 O393 2.002 . S
O376 Fe374 1.918 . S
O376 Fe375 1.918 . S
O376 Fe377 1.918 . S
Fe377 O376 1.918 . S
Fe377 O378 2.002 . S
Fe377 O387 1.976 . S
Fe377 O391 1.996 . S
Fe377 O394 1.997 . S
O378 Fe377 2.002 . S
O378 C395 1.295 . S
O379 Fe374 1.997 . S
O379 C395 1.235 . S
O380 Fe374 2.002 . S
O380 C381 1.295 . S
C381 O380 1.295 . S
C381 O383 1.235 . S
C382 O387 1.287 . S
C382 O388 1.255 . S
O383 Fe375 1.997 . S
O383 C381 1.235 . S
C384 O390 1.287 . S
C384 O391 1.255 . S
O385 Fe374 1.976 . S
O385 C392 1.287 . S
O386 Fe375 1.996 . S
O386 C392 1.255 . S
O387 Fe377 1.976 . S
O387 C382 1.287 . S
O388 Fe374 1.996 . S
O388 C382 1.255 . S
C389 O393 1.295 . S
C389 O394 1.235 . S
O390 Fe375 1.976 . S
O390 C384 1.287 . S
O391 Fe377 1.996 . S
O391 C384 1.255 . S
C392 O385 1.287 . S
C392 O386 1.255 . S
O393 Fe375 2.002 . S
O393 C389 1.295 . S
O394 Fe377 1.997 . S
O394 C389 1.235 . S
C395 O378 1.295 . S
C395 O379 1.235 . S
Fe396 O398 1.918 . S
Fe396 O401 1.997 . S
Fe396 O402 2.002 . S
Fe396 O407 1.976 . S
Fe396 O410 1.996 . S
Fe397 O398 1.918 . S
Fe397 O405 1.997 . S
Fe397 O408 1.996 . S
Fe397 O412 1.976 . S
Fe397 O415 2.002 . S
O398 Fe396 1.918 . S
O398 Fe397 1.918 . S
O398 Fe399 1.918 . S
Fe399 O398 1.918 . S
Fe399 O400 2.002 . S
Fe399 O409 1.976 . S
Fe399 O413 1.996 . S
Fe399 O416 1.997 . S
O400 Fe399 2.002 . S
O400 C417 1.295 . S
O401 Fe396 1.997 . S
O401 C417 1.235 . S
O402 Fe396 2.002 . S
O402 C403 1.295 . S
C403 O402 1.295 . S
C403 O405 1.235 . S
C404 O409 1.287 . S
C404 O410 1.255 . S
O405 Fe397 1.997 . S
O405 C403 1.235 . S
C406 O412 1.287 . S
C406 O413 1.255 . S
O407 Fe396 1.976 . S
O407 C414 1.287 . S
O408 Fe397 1.996 . S
O408 C414 1.255 . S
O409 Fe399 1.976 . S
O409 C404 1.287 . S
O410 Fe396 1.996 . S
O410 C404 1.255 . S
C411 O415 1.295 . S
C411 O416 1.235 . S
O412 Fe397 1.976 . S
O412 C406 1.287 . S
O413 Fe399 1.996 . S
O413 C406 1.255 . S
C414 O407 1.287 . S
C414 O408 1.255 . S
O415 Fe397 2.002 . S
O415 C411 1.295 . S
O416 Fe399 1.997 . S
O416 C411 1.235 . S
C417 O400 1.295 . S
C417 O401 1.235 . S
Fe418 O420 1.918 . S
Fe418 O423 1.997 . S
Fe418 O424 2.002 . S
Fe418 O429 1.976 . S
Fe418 O432 1.996 . S
Fe419 O420 1.918 . S
Fe419 O427 1.997 . S
Fe419 O430 1.996 . S
Fe419 O434 1.976 . S
Fe419 O437 2.002 . S
O420 Fe418 1.918 . S
O420 Fe419 1.918 . S
O420 Fe421 1.918 . S
Fe421 O420 1.918 . S
Fe421 O422 2.002 . S
Fe421 O431 1.976 . S
Fe421 O435 1.996 . S
Fe421 O438 1.997 . S
O422 Fe421 2.002 . S
O422 C439 1.295 . S
O423 Fe418 1.997 . S
O423 C439 1.235 . S
O424 Fe418 2.002 . S
O424 C425 1.295 . S
C425 O424 1.295 . S
C425 O427 1.235 . S
C426 O431 1.287 . S
C426 O432 1.255 . S
O427 Fe419 1.997 . S
O427 C425 1.235 . S
C428 O434 1.287 . S
C428 O435 1.255 . S
O429 Fe418 1.976 . S
O429 C436 1.287 . S
O430 Fe419 1.996 . S
O430 C436 1.255 . S
O431 Fe421 1.976 . S
O431 C426 1.287 . S
O432 Fe418 1.996 . S
O432 C426 1.255 . S
C433 O437 1.295 . S
C433 O438 1.235 . S
O434 Fe419 1.976 . S
O434 C428 1.287 . S
O435 Fe421 1.996 . S
O435 C428 1.255 . S
C436 O429 1.287 . S
C436 O430 1.255 . S
O437 Fe419 2.002 . S
O437 C433 1.295 . S
O438 Fe421 1.997 . S
O438 C433 1.235 . S
C439 O422 1.295 . S
C439 O423 1.235 . S
Fe440 O442 1.918 . S
Fe440 O445 1.997 . S
Fe440 O446 2.002 . S
Fe440 O451 1.976 . S
Fe440 O454 1.996 . S
Fe441 O442 1.918 . S
Fe441 O449 1.997 . S
Fe441 O452 1.996 . S
Fe441 O456 1.976 . S
Fe441 O459 2.002 . S
O442 Fe440 1.918 . S
O442 Fe441 1.918 . S
O442 Fe443 1.918 . S
Fe443 O442 1.918 . S
Fe443 O444 2.002 . S
Fe443 O453 1.976 . S
Fe443 O457 1.996 . S
Fe443 O460 1.997 . S
O444 Fe443 2.002 . S
O444 C461 1.295 . S
O445 Fe440 1.997 . S
O445 C461 1.235 . S
O446 Fe440 2.002 . S
O446 C447 1.295 . S
C447 O446 1.295 . S
C447 O449 1.235 . S
C448 O453 1.287 . S
C448 O454 1.255 . S
O449 Fe441 1.997 . S
O449 C447 1.235 . S
C450 O456 1.287 . S
C450 O457 1.255 . S
O451 Fe440 1.976 . S
O451 C458 1.287 . S
O452 Fe441 1.996 . S
O452 C458 1.255 . S
O453 Fe443 1.976 . S
O453 C448 1.287 . S
O454 Fe440 1.996 . S
O454 C448 1.255 . S
C455 O459 1.295 . S
C455 O460 1.235 . S
O456 Fe441 1.976 . S
O456 C450 1.287 . S
O457 Fe443 1.996 . S
O457 C450 1.255 . S
C458 O451 1.287 . S
C458 O452 1.255 . S
O459 Fe441 2.002 . S
O459 C455 1.295 . S
O460 Fe443 1.997 . S
O460 C455 1.235 . S
C461 O444 1.295 . S
C461 O445 1.235 . S
Fe462 O464 1.918 . S
Fe462 O467 1.997 . S
Fe462 O468 2.002 . S
Fe462 O473 1.976 . S
Fe462 O476 1.996 . S
Fe463 O464 1.918 . S
Fe463 O471 1.997 . S
Fe463 O474 1.996 . S
Fe463 O478 1.976 . S
Fe463 O481 2.002 . S
O464 Fe462 1.918 . S
O464 Fe463 1.918 . S
O464 Fe465 1.918 . S
Fe465 O464 1.918 . S
Fe465 O466 2.002 . S
Fe465 O475 1.976 . S
Fe465 O479 1.996 . S
Fe465 O482 1.997 . S
O466 Fe465 2.002 . S
O466 C483 1.295 . S
O467 Fe462 1.997 . S
O467 C483 1.235 . S
O468 Fe462 2.002 . S
O468 C469 1.295 . S
C469 O468 1.295 . S
C469 O471 1.235 . S
C470 O475 1.287 . S
C470 O476 1.255 . S
O471 Fe463 1.997 . S
O471 C469 1.235 . S
C472 O478 1.287 . S
C472 O479 1.255 . S
O473 Fe462 1.976 . S
O473 C480 1.287 . S
O474 Fe463 1.996 . S
O474 C480 1.255 . S
O475 Fe465 1.976 . S
O475 C470 1.287 . S
O476 Fe462 1.996 . S
O476 C470 1.255 . S
C477 O481 1.295 . S
C477 O482 1.235 . S
O478 Fe463 1.976 . S
O478 C472 1.287 . S
O479 Fe465 1.996 . S
O479 C472 1.255 . S
C480 O473 1.287 . S
C480 O474 1.255 . S
O481 Fe463 2.002 . S
O481 C477 1.295 . S
O482 Fe465 1.997 . S
O482 C477 1.235 . S
C483 O466 1.295 . S
C483 O467 1.235 . S
Fe484 O486 1.918 . S
Fe484 O489 1.997 . S
Fe484 O490 2.002 . S
Fe484 O495 1.976 . S
Fe484 O498 1.996 . S
Fe485 O486 1.918 . S
Fe485 O493 1.997 . S
Fe485 O496 1.996 . S
Fe485 O500 1.976 . S
Fe485 O503 2.002 . S
O486 Fe484 1.918 . S
O486 Fe485 1.918 . S
O486 Fe487 1.918 . S
Fe487 O486 1.918 . S
Fe487 O488 2.002 . S
Fe487 O497 1.976 . S
Fe487 O501 1.996 . S
Fe487 O504 1.997 . S
O488 Fe487 2.002 . S
O488 C505 1.295 . S
O489 Fe484 1.997 . S
O489 C505 1.235 . S
O490 Fe484 2.002 . S
O490 C491 1.295 . S
C491 O490 1.295 . S
C491 O493 1.235 . S
C492 O497 1.287 . S
C492 O498 1.255 . S
O493 Fe485 1.997 . S
O493 C491 1.235 . S
C494 O500 1.287 . S
C494 O501 1.255 . S
O495 Fe484 1.976 . S
O495 C502 1.287 . S
O496 Fe485 1.996 . S
O496 C502 1.255 . S
O497 Fe487 1.976 . S
O497 C492 1.287 . S
O498 Fe484 1.996 . S
O498 C492 1.255 . S
C499 O503 1.295 . S
C499 O504 1.235 . S
O500 Fe485 1.976 . S
O500 C494 1.287 . S
O501 Fe487 1.996 . S
O501 C494 1.255 . S
C502 O495 1.287 . S
C502 O496 1.255 . S
O503 Fe485 2.002 . S
O503 C499 1.295 . S
O504 Fe487 1.997 . S
O504 C499 1.235 . S
C505 O488 1.295 . S
C505 O489 1.235 . S
Fe506 O508 1.918 . S
Fe506 O511 1.997 . S
Fe506 O512 2.002 . S
Fe506 O517 1.976 . S
Fe506 O520 1.996 . S
Fe507 O508 1.918 . S
Fe507 O515 1.997 . S
Fe507 O518 1.996 . S
Fe507 O522 1.976 . S
Fe507 O525 2.002 . S
O508 Fe506 1.918 . S
O508 Fe507 1.918 . S
O508 Fe509 1.918 . S
Fe509 O508 1.918 . S
Fe509 O510 2.002 . S
Fe509 O519 1.976 . S
Fe509 O523 1.996 . S
Fe509 O526 1.997 . S
O510 Fe509 2.002 . S
O510 C527 1.295 . S
O511 Fe506 1.997 . S
O511 C527 1.235 . S
O512 Fe506 2.002 . S
O512 C513 1.295 . S
C513 O512 1.295 . S
C513 O515 1.235 . S
C514 O519 1.287 . S
C514 O520 1.255 . S
O515 Fe507 1.997 . S
O515 C513 1.235 . S
C516 O522 1.287 . S
C516 O523 1.255 . S
O517 Fe506 1.976 . S
O517 C524 1.287 . S
O518 Fe507 1.996 . S
O518 C524 1.255 . S
O519 Fe509 1.976 . S
O519 C514 1.287 . S
O520 Fe506 1.996 . S
O520 C514 1.255 . S
C521 O525 1.295 . S
C521 O526 1.235 . S
O522 Fe507 1.976 . S
O522 C516 1.287 . S
O523 Fe509 1.996 . S
O523 C516 1.255 . S
C524 O517 1.287 . S
C524 O518 1.255 . S
O525 Fe507 2.002 . S
O525 C521 1.295 . S
O526 Fe509 1.997 . S
O526 C521 1.235 . S
C527 O510 1.295 . S
C527 O511 1.235 . S
Fe528 O530 1.918 . S
Fe528 O533 1.997 . S
Fe528 O534 2.002 . S
Fe528 O539 1.976 . S
Fe528 O542 1.996 . S
Fe529 O530 1.918 . S
Fe529 O537 1.997 . S
Fe529 O540 1.996 . S
Fe529 O544 1.976 . S
Fe529 O547 2.002 . S
O530 Fe528 1.918 . S
O530 Fe529 1.918 . S
O530 Fe531 1.918 . S
Fe531 O530 1.918 . S
Fe531 O532 2.002 . S
Fe531 O541 1.976 . S
Fe531 O545 1.996 . S
Fe531 O548 1.997 . S
O532 Fe531 2.002 . S
O532 C549 1.295 . S
O533 Fe528 1.997 . S
O533 C549 1.235 . S
O534 Fe528 2.002 . S
O534 C535 1.295 . S
C535 O534 1.295 . S
C535 O537 1.235 . S
C536 O541 1.287 . S
C536 O542 1.255 . S
O537 Fe529 1.997 . S
O537 C535 1.235 . S
C538 O544 1.287 . S
C538 O545 1.255 . S
O539 Fe528 1.976 . S
O539 C546 1.287 . S
O540 Fe529 1.996 . S
O540 C546 1.255 . S
O541 Fe531 1.976 . S
O541 C536 1.287 . S
O542 Fe528 1.996 . S
O542 C536 1.255 . S
C543 O547 1.295 . S
C543 O548 1.235 . S
O544 Fe529 1.976 . S
O544 C538 1.287 . S
O545 Fe531 1.996 . S
O545 C538 1.255 . S
C546 O539 1.287 . S
C546 O540 1.255 . S
O547 Fe529 2.002 . S
O547 C543 1.295 . S
O548 Fe531 1.997 . S
O548 C543 1.235 . S
C549 O532 1.295 . S
C549 O533 1.235 . S
Fe550 O552 1.918 . S
Fe550 O555 1.997 . S
Fe550 O556 2.002 . S
Fe550 O561 1.976 . S
Fe550 O564 1.996 . S
Fe551 O552 1.918 . S
Fe551 O559 1.997 . S
Fe551 O562 1.996 . S
Fe551 O566 1.976 . S
Fe551 O569 2.002 . S
O552 Fe550 1.918 . S
O552 Fe551 1.918 . S
O552 Fe553 1.918 . S
Fe553 O552 1.918 . S
Fe553 O554 2.002 . S
Fe553 O563 1.976 . S
Fe553 O567 1.996 . S
Fe553 O570 1.997 . S
O554 Fe553 2.002 . S
O554 C571 1.295 . S
O555 Fe550 1.997 . S
O555 C571 1.235 . S
O556 Fe550 2.002 . S
O556 C557 1.295 . S
C557 O556 1.295 . S
C557 O559 1.235 . S
C558 O563 1.287 . S
C558 O564 1.255 . S
O559 Fe551 1.997 . S
O559 C557 1.235 . S
C560 O566 1.287 . S
C560 O567 1.255 . S
O561 Fe550 1.976 . S
O561 C568 1.287 . S
O562 Fe551 1.996 . S
O562 C568 1.255 . S
O563 Fe553 1.976 . S
O563 C558 1.287 . S
O564 Fe550 1.996 . S
O564 C558 1.255 . S
C565 O569 1.295 . S
C565 O570 1.235 . S
O566 Fe551 1.976 . S
O566 C560 1.287 . S
O567 Fe553 1.996 . S
O567 C560 1.255 . S
C568 O561 1.287 . S
C568 O562 1.255 . S
O569 Fe551 2.002 . S
O569 C565 1.295 . S
O570 Fe553 1.997 . S
O570 C565 1.235 . S
C571 O554 1.295 . S
C571 O555 1.235 . S
Fe572 O574 1.918 . S
Fe572 O577 1.997 . S
Fe572 O578 2.002 . S
Fe572 O583 1.976 . S
Fe572 O586 1.996 . S
Fe573 O574 1.918 . S
Fe573 O581 1.997 . S
Fe573 O584 1.996 . S
Fe573 O588 1.976 . S
Fe573 O591 2.002 . S
O574 Fe572 1.918 . S
O574 Fe573 1.918 . S
O574 Fe575 1.918 . S
Fe575 O574 1.918 . S
Fe575 O576 2.002 . S
Fe575 O585 1.976 . S
Fe575 O589 1.996 . S
Fe575 O592 1.997 . S
O576 Fe575 2.002 . S
O576 C593 1.295 . S
O577 Fe572 1.997 . S
O577 C593 1.235 . S
O578 Fe572 2.002 . S
O578 C579 1.295 . S
C579 O578 1.295 . S
C579 O581 1.235 . S
C580 O585 1.287 . S
C580 O586 1.255 . S
O581 Fe573 1.997 . S
O581 C579 1.235 . S
C582 O588 1.287 . S
C582 O589 1.255 . S
O583 Fe572 1.976 . S
O583 C590 1.287 . S
O584 Fe573 1.996 . S
O584 C590 1.255 . S
O585 Fe575 1.976 . S
O585 C580 1.287 . S
O586 Fe572 1.996 . S
O586 C580 1.255 . S
C587 O591 1.295 . S
C587 O592 1.235 . S
O588 Fe573 1.976 . S
O588 C582 1.287 . S
O589 Fe575 1.996 . S
O589 C582 1.255 . S
C590 O583 1.287 . S
C590 O584 1.255 . S
O591 Fe573 2.002 . S
O591 C587 1.295 . S
O592 Fe575 1.997 . S
O592 C587 1.235 . S
C593 O576 1.295 . S
C593 O577 1.235 . S
Fe594 O596 1.918 . S
Fe594 O599 1.997 . S
Fe594 O600 2.002 . S
Fe594 O605 1.976 . S
Fe594 O608 1.996 . S
Fe595 O596 1.918 . S
Fe595 O603 1.997 . S
Fe595 O606 1.996 . S
Fe595 O610 1.976 . S
Fe595 O613 2.002 . S
O596 Fe594 1.918 . S
O596 Fe595 1.918 . S
O596 Fe597 1.918 . S
Fe597 O596 1.918 . S
Fe597 O598 2.002 . S
Fe597 O607 1.976 . S
Fe597 O611 1.996 . S
Fe597 O614 1.997 . S
O598 Fe597 2.002 . S
O598 C615 1.295 . S
O599 Fe594 1.997 . S
O599 C615 1.235 . S
O600 Fe594 2.002 . S
O600 C601 1.295 . S
C601 O600 1.295 . S
C601 O603 1.235 . S
C602 O607 1.287 . S
C602 O608 1.255 . S
O603 Fe595 1.997 . S
O603 C601 1.235 . S
C604 O610 1.287 . S
C604 O611 1.255 . S
O605 Fe594 1.976 . S
O605 C612 1.287 . S
O606 Fe595 1.996 . S
O606 C612 1.255 . S
O607 Fe597 1.976 . S
O607 C602 1.287 . S
O608 Fe594 1.996 . S
O608 C602 1.255 . S
C609 O613 1.295 . S
C609 O614 1.235 . S
O610 Fe595 1.976 . S
O610 C604 1.287 . S
O611 Fe597 1.996 . S
O611 C604 1.255 . S
C612 O605 1.287 . S
C612 O606 1.255 . S
O613 Fe595 2.002 . S
O613 C609 1.295 . S
O614 Fe597 1.997 . S
O614 C609 1.235 . S
C615 O598 1.295 . S
C615 O599 1.235 . S
Fe616 O618 1.918 . S
Fe616 O621 1.997 . S
Fe616 O622 2.002 . S
Fe616 O627 1.976 . S
Fe616 O630 1.996 . S
Fe617 O618 1.918 . S
Fe617 O625 1.997 . S
Fe617 O628 1.996 . S
Fe617 O632 1.976 . S
Fe617 O635 2.002 . S
O618 Fe616 1.918 . S
O618 Fe617 1.918 . S
O618 Fe619 1.918 . S
Fe619 O618 1.918 . S
Fe619 O620 2.002 . S
Fe619 O629 1.976 . S
Fe619 O633 1.996 . S
Fe619 O636 1.997 . S
O620 Fe619 2.002 . S
O620 C637 1.295 . S
O621 Fe616 1.997 . S
O621 C637 1.235 . S
O622 Fe616 2.002 . S
O622 C623 1.295 . S
C623 O622 1.295 . S
C623 O625 1.235 . S
C624 O629 1.287 . S
C624 O630 1.255 . S
O625 Fe617 1.997 . S
O625 C623 1.235 . S
C626 O632 1.287 . S
C626 O633 1.255 . S
O627 Fe616 1.976 . S
O627 C634 1.287 . S
O628 Fe617 1.996 . S
O628 C634 1.255 . S
O629 Fe619 1.976 . S
O629 C624 1.287 . S
O630 Fe616 1.996 . S
O630 C624 1.255 . S
C631 O635 1.295 . S
C631 O636 1.235 . S
O632 Fe617 1.976 . S
O632 C626 1.287 . S
O633 Fe619 1.996 . S
O633 C626 1.255 . S
C634 O627 1.287 . S
C634 O628 1.255 . S
O635 Fe617 2.002 . S
O635 C631 1.295 . S
O636 Fe619 1.997 . S
O636 C631 1.235 . S
C637 O620 1.295 . S
C637 O621 1.235 . S
Fe638 O640 1.918 . S
Fe638 O643 1.997 . S
Fe638 O644 2.002 . S
Fe638 O649 1.976 . S
Fe638 O652 1.996 . S
Fe639 O640 1.918 . S
Fe639 O647 1.997 . S
Fe639 O650 1.996 . S
Fe639 O654 1.976 . S
Fe639 O657 2.002 . S
O640 Fe638 1.918 . S
O640 Fe639 1.918 . S
O640 Fe641 1.918 . S
Fe641 O640 1.918 . S
Fe641 O642 2.002 . S
Fe641 O651 1.976 . S
Fe641 O655 1.996 . S
Fe641 O658 1.997 . S
O642 Fe641 2.002 . S
O642 C659 1.295 . S
O643 Fe638 1.997 . S
O643 C659 1.235 . S
O644 Fe638 2.002 . S
O644 C645 1.295 . S
C645 O644 1.295 . S
C645 O647 1.235 . S
C646 O651 1.287 . S
C646 O652 1.255 . S
O647 Fe639 1.997 . S
O647 C645 1.235 . S
C648 O654 1.287 . S
C648 O655 1.255 . S
O649 Fe638 1.976 . S
O649 C656 1.287 . S
O650 Fe639 1.996 . S
O650 C656 1.255 . S
O651 Fe641 1.976 . S
O651 C646 1.287 . S
O652 Fe638 1.996 . S
O652 C646 1.255 . S
C653 O657 1.295 . S
C653 O658 1.235 . S
O654 Fe639 1.976 . S
O654 C648 1.287 . S
O655 Fe641 1.996 . S
O655 C648 1.255 . S
C656 O649 1.287 . S
C656 O650 1.255 . S
O657 Fe639 2.002 . S
O657 C653 1.295 . S
O658 Fe641 1.997 . S
O658 C653 1.235 . S
C659 O642 1.295 . S
C659 O643 1.235 . S
Fe660 O662 1.918 . S
Fe660 O665 1.997 . S
Fe660 O666 2.002 . S
Fe660 O671 1.976 . S
Fe660 O674 1.996 . S
Fe661 O662 1.918 . S
Fe661 O669 1.997 . S
Fe661 O672 1.996 . S
Fe661 O676 1.976 . S
Fe661 O679 2.002 . S
O662 Fe660 1.918 . S
O662 Fe661 1.918 . S
O662 Fe663 1.918 . S
Fe663 O662 1.918 . S
Fe663 O664 2.002 . S
Fe663 O673 1.976 . S
Fe663 O677 1.996 . S
Fe663 O680 1.997 . S
O664 Fe663 2.002 . S
O664 C681 1.295 . S
O665 Fe660 1.997 . S
O665 C681 1.235 . S
O666 Fe660 2.002 . S
O666 C667 1.295 . S
C667 O666 1.295 . S
C667 O669 1.235 . S
C668 O673 1.287 . S
C668 O674 1.255 . S
O669 Fe661 1.997 . S
O669 C667 1.235 . S
C670 O676 1.287 . S
C670 O677 1.255 . S
O671 Fe660 1.976 . S
O671 C678 1.287 . S
O672 Fe661 1.996 . S
O672 C678 1.255 . S
O673 Fe663 1.976 . S
O673 C668 1.287 . S
O674 Fe660 1.996 . S
O674 C668 1.255 . S
C675 O679 1.295 . S
C675 O680 1.235 . S
O676 Fe661 1.976 . S
O676 C670 1.287 . S
O677 Fe663 1.996 . S
O677 C670 1.255 . S
C678 O671 1.287 . S
C678 O672 1.255 . S
O679 Fe661 2.002 . S
O679 C675 1.295 . S
O680 Fe663 1.997 . S
O680 C675 1.235 . S
C681 O664 1.295 . S
C681 O665 1.235 . S
Fe682 O684 1.918 . S
Fe682 O687 1.997 . S
Fe682 O688 2.002 . S
Fe682 O693 1.976 . S
Fe682 O696 1.996 . S
Fe683 O684 1.918 . S
Fe683 O691 1.997 . S
Fe683 O694 1.996 . S
Fe683 O698 1.976 . S
Fe683 O701 2.002 . S
O684 Fe682 1.918 . S
O684 Fe683 1.918 . S
O684 Fe685 1.918 . S
Fe685 O684 1.918 . S
Fe685 O686 2.002 . S
Fe685 O695 1.976 . S
Fe685 O699 1.996 . S
Fe685 O702 1.997 . S
O686 Fe685 2.002 . S
O686 C703 1.295 . S
O687 Fe682 1.997 . S
O687 C703 1.235 . S
O688 Fe682 2.002 . S
O688 C689 1.295 . S
C689 O688 1.295 . S
C689 O691 1.235 . S
C690 O695 1.287 . S
C690 O696 1.255 . S
O691 Fe683 1.997 . S
O691 C689 1.235 . S
C692 O698 1.287 . S
C692 O699 1.255 . S
O693 Fe682 1.976 . S
O693 C700 1.287 . S
O694 Fe683 1.996 . S
O694 C700 1.255 . S
O695 Fe685 1.976 . S
O695 C690 1.287 . S
O696 Fe682 1.996 . S
O696 C690 1.255 . S
C697 O701 1.295 . S
C697 O702 1.235 . S
O698 Fe683 1.976 . S
O698 C692 1.287 . S
O699 Fe685 1.996 . S
O699 C692 1.255 . S
C700 O693 1.287 . S
C700 O694 1.255 . S
O701 Fe683 2.002 . S
O701 C697 1.295 . S
O702 Fe685 1.997 . S
O702 C697 1.235 . S
C703 O686 1.295 . S
C703 O687 1.235 . S
Fe704 O706 1.918 . S
Fe704 O709 1.997 . S
Fe704 O710 2.002 . S
Fe704 O715 1.976 . S
Fe704 O718 1.996 . S
Fe705 O706 1.918 . S
Fe705 O713 1.997 . S
Fe705 O716 1.996 . S
Fe705 O720 1.976 . S
Fe705 O723 2.002 . S
O706 Fe704 1.918 . S
O706 Fe705 1.918 . S
O706 Fe707 1.918 . S
Fe707 O706 1.918 . S
Fe707 O708 2.002 . S
Fe707 O717 1.976 . S
Fe707 O721 1.996 . S
Fe707 O724 1.997 . S
O708 Fe707 2.002 . S
O708 C725 1.295 . S
O709 Fe704 1.997 . S
O709 C725 1.235 . S
O710 Fe704 2.002 . S
O710 C711 1.295 . S
C711 O710 1.295 . S
C711 O713 1.235 . S
C712 O717 1.287 . S
C712 O718 1.255 . S
O713 Fe705 1.997 . S
O713 C711 1.235 . S
C714 O720 1.287 . S
C714 O721 1.255 . S
O715 Fe704 1.976 . S
O715 C722 1.287 . S
O716 Fe705 1.996 . S
O716 C722 1.255 . S
O717 Fe707 1.976 . S
O717 C712 1.287 . S
O718 Fe704 1.996 . S
O718 C712 1.255 . S
C719 O723 1.295 . S
C719 O724 1.235 . S
O720 Fe705 1.976 . S
O720 C714 1.287 . S
O721 Fe707 1.996 . S
O721 C714 1.255 . S
C722 O715 1.287 . S
C722 O716 1.255 . S
O723 Fe705 2.002 . S
O723 C719 1.295 . S
O724 Fe707 1.997 . S
O724 C719 1.235 . S
C725 O708 1.295 . S
C725 O709 1.235 . S
Fe726 O728 1.918 . S
Fe726 O731 1.997 . S
Fe726 O732 2.002 . S
Fe726 O737 1.976 . S
Fe726 O740 1.996 . S
Fe727 O728 1.918 . S
Fe727 O735 1.997 . S
Fe727 O738 1.996 . S
Fe727 O742 1.976 . S
Fe727 O745 2.002 . S
O728 Fe726 1.918 . S
O728 Fe727 1.918 . S
O728 Fe729 1.918 . S
Fe729 O728 1.918 . S
Fe729 O730 2.002 . S
Fe729 O739 1.976 . S
Fe729 O743 1.996 . S
Fe729 O746 1.997 . S
O730 Fe729 2.002 . S
O730 C747 1.295 . S
O731 Fe726 1.997 . S
O731 C747 1.235 . S
O732 Fe726 2.002 . S
O732 C733 1.295 . S
C733 O732 1.295 . S
C733 O735 1.235 . S
C734 O739 1.287 . S
C734 O740 1.255 . S
O735 Fe727 1.997 . S
O735 C733 1.235 . S
C736 O742 1.287 . S
C736 O743 1.255 . S
O737 Fe726 1.976 . S
O737 C744 1.287 . S
O738 Fe727 1.996 . S
O738 C744 1.255 . S
O739 Fe729 1.976 . S
O739 C734 1.287 . S
O740 Fe726 1.996 . S
O740 C734 1.255 . S
C741 O745 1.295 . S
C741 O746 1.235 . S
O742 Fe727 1.976 . S
O742 C736 1.287 . S
O743 Fe729 1.996 . S
O743 C736 1.255 . S
C744 O737 1.287 . S
C744 O738 1.255 . S
O745 Fe727 2.002 . S
O745 C741 1.295 . S
O746 Fe729 1.997 . S
O746 C741 1.235 . S
C747 O730 1.295 . S
C747 O731 1.235 . S
Fe748 O750 1.918 . S
Fe748 O753 1.997 . S
Fe748 O754 2.002 . S
Fe748 O759 1.976 . S
Fe748 O762 1.996 . S
Fe749 O750 1.918 . S
Fe749 O757 1.997 . S
Fe749 O760 1.996 . S
Fe749 O764 1.976 . S
Fe749 O767 2.002 . S
O750 Fe748 1.918 . S
O750 Fe749 1.918 . S
O750 Fe751 1.918 . S
Fe751 O750 1.918 . S
Fe751 O752 2.002 . S
Fe751 O761 1.976 . S
Fe751 O765 1.996 . S
Fe751 O768 1.997 . S
O752 Fe751 2.002 . S
O752 C769 1.295 . S
O753 Fe748 1.997 . S
O753 C769 1.235 . S
O754 Fe748 2.002 . S
O754 C755 1.295 . S
C755 O754 1.295 . S
C755 O757 1.235 . S
C756 O761 1.287 . S
C756 O762 1.255 . S
O757 Fe749 1.997 . S
O757 C755 1.235 . S
C758 O764 1.287 . S
C758 O765 1.255 . S
O759 Fe748 1.976 . S
O759 C766 1.287 . S
O760 Fe749 1.996 . S
O760 C766 1.255 . S
O761 Fe751 1.976 . S
O761 C756 1.287 . S
O762 Fe748 1.996 . S
O762 C756 1.255 . S
C763 O767 1.295 . S
C763 O768 1.235 . S
O764 Fe749 1.976 . S
O764 C758 1.287 . S
O765 Fe751 1.996 . S
O765 C758 1.255 . S
C766 O759 1.287 . S
C766 O760 1.255 . S
O767 Fe749 2.002 . S
O767 C763 1.295 . S
O768 Fe751 1.997 . S
O768 C763 1.235 . S
C769 O752 1.295 . S
C769 O753 1.235 . S
Fe770 O772 1.918 . S
Fe770 O775 1.997 . S
Fe770 O776 2.002 . S
Fe770 O781 1.976 . S
Fe770 O784 1.996 . S
Fe771 O772 1.918 . S
Fe771 O779 1.997 . S
Fe771 O782 1.996 . S
Fe771 O786 1.976 . S
Fe771 O789 2.002 . S
O772 Fe770 1.918 . S
O772 Fe771 1.918 . S
O772 Fe773 1.918 . S
Fe773 O772 1.918 . S
Fe773 O774 2.002 . S
Fe773 O783 1.976 . S
Fe773 O787 1.996 . S
Fe773 O790 1.997 . S
O774 Fe773 2.002 . S
O774 C791 1.295 . S
O775 Fe770 1.997 . S
O775 C791 1.235 . S
O776 Fe770 2.002 . S
O776 C777 1.295 . S
C777 O776 1.295 . S
C777 O779 1.235 . S
C778 O783 1.287 . S
C778 O784 1.255 . S
O779 Fe771 1.997 . S
O779 C777 1.235 . S
C780 O786 1.287 . S
C780 O787 1.255 . S
O781 Fe770 1.976 . S
O781 C788 1.287 . S
O782 Fe771 1.996 . S
O782 C788 1.255 . S
O783 Fe773 1.976 . S
O783 C778 1.287 . S
O784 Fe770 1.996 . S
O784 C778 1.255 . S
C785 O789 1.295 . S
C785 O790 1.235 . S
O786 Fe771 1.976 . S
O786 C780 1.287 . S
O787 Fe773 1.996 . S
O787 C780 1.255 . S
C788 O781 1.287 . S
C788 O782 1.255 . S
O789 Fe771 2.002 . S
O789 C785 1.295 . S
O790 Fe773 1.997 . S
O790 C785 1.235 . S
C791 O774 1.295 . S
C791 O775 1.235 . S
H792 C800 0.950 . S
H793 C805 0.950 . S
H794 C802 0.950 . S
H795 C804 0.950 . S
H796 C806 0.950 . S
H797 C808 0.950 . S
H798 C810 0.950 . S
H799 C811 0.950 . S
C800 H792 0.950 . S
C800 C801 1.386 . S
C800 C802 1.391 . S
C801 C800 1.386 . S
C801 C805 1.393 . S
C802 H794 0.950 . S
C802 C800 1.391 . S
C802 C803 1.400 . S
C803 C802 1.400 . S
C803 C804 1.398 . S
C803 C809 1.491 1_554 S
C804 H795 0.950 . S
C804 C803 1.398 . S
C804 C805 1.391 . S
C805 H793 0.950 . S
C805 C801 1.393 . S
C805 C804 1.391 . S
C806 H796 0.950 . S
C806 C807 1.386 . S
C806 C808 1.391 . S
C807 C806 1.386 . S
C807 C811 1.393 . S
C808 H797 0.950 . S
C808 C806 1.391 . S
C808 C809 1.400 . S
C809 C803 1.491 1_556 S
C809 C808 1.400 . S
C809 C810 1.398 . S
C810 H798 0.950 . S
C810 C809 1.398 . S
C810 C811 1.391 . S
C811 H799 0.950 . S
C811 C807 1.393 . S
C811 C810 1.391 . S
H812 C820 0.950 . S
H813 C825 0.950 . S
H814 C822 0.950 1_556 S
H815 C824 0.950 . S
H816 C826 0.950 . S
H817 C828 0.950 1_554 S
H818 C830 0.950 . S
H819 C831 0.950 . S
C820 H812 0.950 . S
C820 C821 1.386 . S
C820 C822 1.391 . S
C821 C820 1.386 . S
C821 C825 1.393 . S
C822 H814 0.950 1_554 S
C822 C820 1.391 . S
C822 C823 1.400 . S
C823 C822 1.400 . S
C823 C824 1.398 . S
C823 C829 1.491 1_554 S
C824 H815 0.950 . S
C824 C823 1.398 . S
C824 C825 1.391 . S
C825 H813 0.950 . S
C825 C821 1.393 . S
C825 C824 1.391 . S
C826 H816 0.950 . S
C826 C827 1.386 . S
C826 C828 1.391 . S
C827 C826 1.386 . S
C827 C831 1.393 . S
C828 H817 0.950 1_556 S
C828 C826 1.391 . S
C828 C829 1.400 . S
C829 C823 1.491 1_556 S
C829 C828 1.400 . S
C829 C830 1.398 . S
C830 H818 0.950 . S
C830 C829 1.398 . S
C830 C831 1.391 . S
C831 H819 0.950 . S
C831 C827 1.393 . S
C831 C830 1.391 . S
H832 C840 0.950 . S
H833 C845 0.950 . S
H834 C842 0.950 . S
H835 C844 0.950 . S
H836 C846 0.950 . S
H837 C848 0.950 . S
H838 C850 0.950 . S
H839 C851 0.950 . S
C840 H832 0.950 . S
C840 C841 1.386 . S
C840 C842 1.391 . S
C841 C840 1.386 . S
C841 C845 1.393 . S
C842 H834 0.950 . S
C842 C840 1.391 . S
C842 C843 1.400 . S
C843 C842 1.400 . S
C843 C844 1.398 . S
C843 C849 1.491 1_554 S
C844 H835 0.950 . S
C844 C843 1.398 . S
C844 C845 1.391 . S
C845 H833 0.950 . S
C845 C841 1.393 . S
C845 C844 1.391 . S
C846 H836 0.950 . S
C846 C847 1.386 . S
C846 C848 1.391 . S
C847 C846 1.386 . S
C847 C851 1.393 . S
C848 H837 0.950 . S
C848 C846 1.391 . S
C848 C849 1.400 . S
C849 C843 1.491 1_556 S
C849 C848 1.400 . S
C849 C850 1.398 . S
C850 H838 0.950 . S
C850 C849 1.398 . S
C850 C851 1.391 . S
C851 H839 0.950 . S
C851 C847 1.393 . S
C851 C850 1.391 . S
H852 C860 0.950 . S
H853 C865 0.950 . S
H854 C862 0.950 . S
H855 C864 0.950 . S
H856 C866 0.950 . S
H857 C868 0.950 . S
H858 C870 0.950 . S
H859 C871 0.950 . S
C860 H852 0.950 . S
C860 C861 1.386 . S
C860 C862 1.391 . S
C861 C860 1.386 . S
C861 C865 1.393 . S
C862 H854 0.950 . S
C862 C860 1.391 . S
C862 C863 1.400 . S
C863 C862 1.400 . S
C863 C864 1.398 . S
C863 C869 1.491 . S
C864 H855 0.950 . S
C864 C863 1.398 . S
C864 C865 1.391 . S
C865 H853 0.950 . S
C865 C861 1.393 . S
C865 C864 1.391 . S
C866 H856 0.950 . S
C866 C867 1.386 . S
C866 C868 1.391 . S
C867 C866 1.386 . S
C867 C871 1.393 . S
C868 H857 0.950 . S
C868 C866 1.391 . S
C868 C869 1.400 . S
C869 C863 1.491 . S
C869 C868 1.400 . S
C869 C870 1.398 . S
C870 H858 0.950 . S
C870 C869 1.398 . S
C870 C871 1.391 . S
C871 H859 0.950 . S
C871 C867 1.393 . S
C871 C870 1.391 . S
H872 C880 0.950 . S
H873 C885 0.950 . S
H874 C882 0.950 . S
H875 C884 0.950 . S
H876 C886 0.950 . S
H877 C888 0.950 . S
H878 C890 0.950 . S
H879 C891 0.950 . S
C880 H872 0.950 . S
C880 C881 1.386 . S
C880 C882 1.391 . S
C881 C880 1.386 . S
C881 C885 1.393 . S
C882 H874 0.950 . S
C882 C880 1.391 . S
C882 C883 1.400 . S
C883 C882 1.400 . S
C883 C884 1.398 . S
C883 C889 1.491 . S
C884 H875 0.950 . S
C884 C883 1.398 . S
C884 C885 1.391 . S
C885 H873 0.950 . S
C885 C881 1.393 . S
C885 C884 1.391 . S
C886 H876 0.950 . S
C886 C887 1.386 . S
C886 C888 1.391 . S
C887 C886 1.386 . S
C887 C891 1.393 . S
C888 H877 0.950 . S
C888 C886 1.391 . S
C888 C889 1.400 . S
C889 C883 1.491 . S
C889 C888 1.400 . S
C889 C890 1.398 . S
C890 H878 0.950 . S
C890 C889 1.398 . S
C890 C891 1.391 . S
C891 H879 0.950 . S
C891 C887 1.393 . S
C891 C890 1.391 . S
H892 C900 0.950 . S
H893 C905 0.950 . S
H894 C902 0.950 . S
H895 C904 0.950 . S
H896 C906 0.950 . S
H897 C908 0.950 . S
H898 C910 0.950 . S
H899 C911 0.950 . S
C900 H892 0.950 . S
C900 C901 1.386 . S
C900 C902 1.391 . S
C901 C900 1.386 . S
C901 C905 1.393 . S
C902 H894 0.950 . S
C902 C900 1.391 . S
C902 C903 1.400 . S
C903 C902 1.400 . S
C903 C904 1.398 . S
C903 C909 1.491 . S
C904 H895 0.950 . S
C904 C903 1.398 . S
C904 C905 1.391 . S
C905 H893 0.950 . S
C905 C901 1.393 . S
C905 C904 1.391 . S
C906 H896 0.950 . S
C906 C907 1.386 . S
C906 C908 1.391 . S
C907 C906 1.386 . S
C907 C911 1.393 . S
C908 H897 0.950 . S
C908 C906 1.391 . S
C908 C909 1.400 . S
C909 C903 1.491 . S
C909 C908 1.400 . S
C909 C910 1.398 . S
C910 H898 0.950 . S
C910 C909 1.398 . S
C910 C911 1.391 . S
C911 H899 0.950 . S
C911 C907 1.393 . S
C911 C910 1.391 . S
H912 C920 0.950 . S
H913 C925 0.950 . S
H914 C922 0.950 1_556 S
H915 C924 0.950 . S
H916 C926 0.950 . S
H917 C928 0.950 1_554 S
H918 C930 0.950 . S
H919 C931 0.950 . S
C920 H912 0.950 . S
C920 C921 1.386 . S
C920 C922 1.391 . S
C921 C920 1.386 . S
C921 C925 1.393 . S
C922 H914 0.950 1_554 S
C922 C920 1.391 . S
C922 C923 1.400 . S
C923 C922 1.400 . S
C923 C924 1.398 . S
C923 C929 1.491 1_554 S
C924 H915 0.950 . S
C924 C923 1.398 . S
C924 C925 1.391 . S
C925 H913 0.950 . S
C925 C921 1.393 . S
C925 C924 1.391 . S
C926 H916 0.950 . S
C926 C927 1.386 . S
C926 C928 1.391 . S
C927 C926 1.386 . S
C927 C931 1.393 . S
C928 H917 0.950 1_556 S
C928 C926 1.391 . S
C928 C929 1.400 . S
C929 C923 1.491 1_556 S
C929 C928 1.400 . S
C929 C930 1.398 . S
C930 H918 0.950 . S
C930 C929 1.398 . S
C930 C931 1.391 . S
C931 H919 0.950 . S
C931 C927 1.393 . S
C931 C930 1.391 . S
H932 C940 0.950 . S
H933 C945 0.950 . S
H934 C942 0.950 . S
H935 C944 0.950 . S
H936 C946 0.950 . S
H937 C948 0.950 . S
H938 C950 0.950 . S
H939 C951 0.950 . S
C940 H932 0.950 . S
C940 C941 1.386 . S
C940 C942 1.391 . S
C941 C940 1.386 . S
C941 C945 1.393 . S
C942 H934 0.950 . S
C942 C940 1.391 . S
C942 C943 1.400 . S
C943 C942 1.400 . S
C943 C944 1.398 . S
C943 C949 1.491 1_556 S
C944 H935 0.950 . S
C944 C943 1.398 . S
C944 C945 1.391 . S
C945 H933 0.950 . S
C945 C941 1.393 . S
C945 C944 1.391 . S
C946 H936 0.950 . S
C946 C947 1.386 . S
C946 C948 1.391 . S
C947 C946 1.386 . S
C947 C951 1.393 . S
C948 H937 0.950 . S
C948 C946 1.391 . S
C948 C949 1.400 . S
C949 C943 1.491 1_554 S
C949 C948 1.400 . S
C949 C950 1.398 . S
C950 H938 0.950 . S
C950 C949 1.398 . S
C950 C951 1.391 . S
C951 H939 0.950 . S
C951 C947 1.393 . S
C951 C950 1.391 . S
H952 C960 0.950 . S
H953 C965 0.950 . S
H954 C962 0.950 . S
H955 C964 0.950 1_554 S
H956 C966 0.950 . S
H957 C968 0.950 . S
H958 C970 0.950 1_556 S
H959 C971 0.950 . S
C960 H952 0.950 . S
C960 C961 1.386 . S
C960 C962 1.391 . S
C961 C960 1.386 . S
C961 C965 1.393 . S
C962 H954 0.950 . S
C962 C960 1.391 . S
C962 C963 1.400 . S
C963 C962 1.400 . S
C963 C964 1.398 . S
C963 C969 1.491 1_556 S
C964 H955 0.950 1_556 S
C964 C963 1.398 . S
C964 C965 1.391 . S
C965 H953 0.950 . S
C965 C961 1.393 . S
C965 C964 1.391 . S
C966 H956 0.950 . S
C966 C967 1.386 . S
C966 C968 1.391 . S
C967 C966 1.386 . S
C967 C971 1.393 . S
C968 H957 0.950 . S
C968 C966 1.391 . S
C968 C969 1.400 . S
C969 C963 1.491 1_554 S
C969 C968 1.400 . S
C969 C970 1.398 . S
C970 H958 0.950 1_554 S
C970 C969 1.398 . S
C970 C971 1.391 . S
C971 H959 0.950 . S
C971 C967 1.393 . S
C971 C970 1.391 . S
H972 C980 0.950 . S
H973 C985 0.950 . S
H974 C982 0.950 . S
H975 C984 0.950 . S
H976 C986 0.950 . S
H977 C988 0.950 . S
H978 C990 0.950 . S
H979 C991 0.950 . S
C980 H972 0.950 . S
C980 C981 1.386 . S
C980 C982 1.391 . S
C981 C980 1.386 . S
C981 C985 1.393 . S
C982 H974 0.950 . S
C982 C980 1.391 . S
C982 C983 1.400 . S
C983 C982 1.400 . S
C983 C984 1.398 . S
C983 C989 1.491 . S
C984 H975 0.950 . S
C984 C983 1.398 . S
C984 C985 1.391 . S
C985 H973 0.950 . S
C985 C981 1.393 . S
C985 C984 1.391 . S
C986 H976 0.950 . S
C986 C987 1.386 . S
C986 C988 1.391 . S
C987 C986 1.386 . S
C987 C991 1.393 . S
C988 H977 0.950 . S
C988 C986 1.391 . S
C988 C989 1.400 . S
C989 C983 1.491 . S
C989 C988 1.400 . S
C989 C990 1.398 . S
C990 H978 0.950 . S
C990 C989 1.398 . S
C990 C991 1.391 . S
C991 H979 0.950 . S
C991 C987 1.393 . S
C991 C990 1.391 . S
H992 C1000 0.950 . S
H993 C1005 0.950 . S
H994 C1002 0.950 . S
H995 C1004 0.950 . S
H996 C1006 0.950 . S
H997 C1008 0.950 . S
H998 C1010 0.950 . S
H999 C1011 0.950 . S
C1000 H992 0.950 . S
C1000 C1001 1.386 . S
C1000 C1002 1.391 . S
C1001 C1000 1.386 . S
C1001 C1005 1.393 . S
C1002 H994 0.950 . S
C1002 C1000 1.391 . S
C1002 C1003 1.400 . S
C1003 C1002 1.400 . S
C1003 C1004 1.398 . S
C1003 C1009 1.491 . S
C1004 H995 0.950 . S
C1004 C1003 1.398 . S
C1004 C1005 1.391 . S
C1005 H993 0.950 . S
C1005 C1001 1.393 . S
C1005 C1004 1.391 . S
C1006 H996 0.950 . S
C1006 C1007 1.386 . S
C1006 C1008 1.391 . S
C1007 C1006 1.386 . S
C1007 C1011 1.393 . S
C1008 H997 0.950 . S
C1008 C1006 1.391 . S
C1008 C1009 1.400 . S
C1009 C1003 1.491 . S
C1009 C1008 1.400 . S
C1009 C1010 1.398 . S
C1010 H998 0.950 . S
C1010 C1009 1.398 . S
C1010 C1011 1.391 . S
C1011 H999 0.950 . S
C1011 C1007 1.393 . S
C1011 C1010 1.391 . S
H1012 C1020 0.950 . S
H1013 C1025 0.950 . S
H1014 C1022 0.950 . S
H1015 C1024 0.950 . S
H1016 C1026 0.950 . S
H1017 C1028 0.950 . S
H1018 C1030 0.950 . S
H1019 C1031 0.950 . S
C1020 H1012 0.950 . S
C1020 C1021 1.386 . S
C1020 C1022 1.391 . S
C1021 C1020 1.386 . S
C1021 C1025 1.393 . S
C1022 H1014 0.950 . S
C1022 C1020 1.391 . S
C1022 C1023 1.400 . S
C1023 C1022 1.400 . S
C1023 C1024 1.398 . S
C1023 C1029 1.491 . S
C1024 H1015 0.950 . S
C1024 C1023 1.398 . S
C1024 C1025 1.391 . S
C1025 H1013 0.950 . S
C1025 C1021 1.393 . S
C1025 C1024 1.391 . S
C1026 H1016 0.950 . S
C1026 C1027 1.386 . S
C1026 C1028 1.391 . S
C1027 C1026 1.386 . S
C1027 C1031 1.393 . S
C1028 H1017 0.950 . S
C1028 C1026 1.391 . S
C1028 C1029 1.400 . S
C1029 C1023 1.491 . S
C1029 C1028 1.400 . S
C1029 C1030 1.398 . S
C1030 H1018 0.950 . S
C1030 C1029 1.398 . S
C1030 C1031 1.391 . S
C1031 H1019 0.950 . S
C1031 C1027 1.393 . S
C1031 C1030 1.391 . S
H1032 C1040 0.950 . S
H1033 C1045 0.950 . S
H1034 C1042 0.950 . S
H1035 C1044 0.950 . S
H1036 C1046 0.950 . S
H1037 C1048 0.950 . S
H1038 C1050 0.950 . S
H1039 C1051 0.950 . S
C1040 H1032 0.950 . S
C1040 C1041 1.386 . S
C1040 C1042 1.391 . S
C1041 C1040 1.386 . S
C1041 C1045 1.393 . S
C1042 H1034 0.950 . S
C1042 C1040 1.391 . S
C1042 C1043 1.400 . S
C1043 C1042 1.400 . S
C1043 C1044 1.398 . S
C1043 C1049 1.491 . S
C1044 H1035 0.950 . S
C1044 C1043 1.398 . S
C1044 C1045 1.391 . S
C1045 H1033 0.950 . S
C1045 C1041 1.393 . S
C1045 C1044 1.391 . S
C1046 H1036 0.950 . S
C1046 C1047 1.386 . S
C1046 C1048 1.391 . S
C1047 C1046 1.386 . S
C1047 C1051 1.393 . S
C1048 H1037 0.950 . S
C1048 C1046 1.391 . S
C1048 C1049 1.400 . S
C1049 C1043 1.491 . S
C1049 C1048 1.400 . S
C1049 C1050 1.398 . S
C1050 H1038 0.950 . S
C1050 C1049 1.398 . S
C1050 C1051 1.391 . S
C1051 H1039 0.950 . S
C1051 C1047 1.393 . S
C1051 C1050 1.391 . S
H1052 C1060 0.950 . S
H1053 C1065 0.950 . S
H1054 C1062 0.950 . S
H1055 C1064 0.950 . S
H1056 C1066 0.950 . S
H1057 C1068 0.950 . S
H1058 C1070 0.950 . S
H1059 C1071 0.950 . S
C1060 H1052 0.950 . S
C1060 C1061 1.386 . S
C1060 C1062 1.391 . S
C1061 C1060 1.386 . S
C1061 C1065 1.393 . S
C1062 H1054 0.950 . S
C1062 C1060 1.391 . S
C1062 C1063 1.400 . S
C1063 C1062 1.400 . S
C1063 C1064 1.398 . S
C1063 C1069 1.491 . S
C1064 H1055 0.950 . S
C1064 C1063 1.398 . S
C1064 C1065 1.391 . S
C1065 H1053 0.950 . S
C1065 C1061 1.393 . S
C1065 C1064 1.391 . S
C1066 H1056 0.950 . S
C1066 C1067 1.386 . S
C1066 C1068 1.391 . S
C1067 C1066 1.386 . S
C1067 C1071 1.393 . S
C1068 H1057 0.950 . S
C1068 C1066 1.391 . S
C1068 C1069 1.400 . S
C1069 C1063 1.491 . S
C1069 C1068 1.400 . S
C1069 C1070 1.398 . S
C1070 H1058 0.950 . S
C1070 C1069 1.398 . S
C1070 C1071 1.391 . S
C1071 H1059 0.950 . S
C1071 C1067 1.393 . S
C1071 C1070 1.391 . S
H1072 C1080 0.950 . S
H1073 C1085 0.950 . S
H1074 C1082 0.950 . S
H1075 C1084 0.950 . S
H1076 C1086 0.950 . S
H1077 C1088 0.950 . S
H1078 C1090 0.950 . S
H1079 C1091 0.950 . S
C1080 H1072 0.950 . S
C1080 C1081 1.386 . S
C1080 C1082 1.391 . S
C1081 C1080 1.386 . S
C1081 C1085 1.393 . S
C1082 H1074 0.950 . S
C1082 C1080 1.391 . S
C1082 C1083 1.400 . S
C1083 C1082 1.400 . S
C1083 C1084 1.398 . S
C1083 C1089 1.491 . S
C1084 H1075 0.950 . S
C1084 C1083 1.398 . S
C1084 C1085 1.391 . S
C1085 H1073 0.950 . S
C1085 C1081 1.393 . S
C1085 C1084 1.391 . S
C1086 H1076 0.950 . S
C1086 C1087 1.386 . S
C1086 C1088 1.391 . S
C1087 C1086 1.386 . S
C1087 C1091 1.393 . S
C1088 H1077 0.950 . S
C1088 C1086 1.391 . S
C1088 C1089 1.400 . S
C1089 C1083 1.491 . S
C1089 C1088 1.400 . S
C1089 C1090 1.398 . S
C1090 H1078 0.950 . S
C1090 C1089 1.398 . S
C1090 C1091 1.391 . S
C1091 H1079 0.950 . S
C1091 C1087 1.393 . S
C1091 C1090 1.391 . S
H1092 C1100 0.950 . S
H1093 C1105 0.950 . S
H1094 C1102 0.950 . S
H1095 C1104 0.950 . S
H1096 C1106 0.950 . S
H1097 C1108 0.950 . S
H1098 C1110 0.950 . S
H1099 C1111 0.950 . S
C1100 H1092 0.950 . S
C1100 C1101 1.386 . S
C1100 C1102 1.391 . S
C1101 C1100 1.386 . S
C1101 C1105 1.393 . S
C1102 H1094 0.950 . S
C1102 C1100 1.391 . S
C1102 C1103 1.400 . S
C1103 C1102 1.400 . S
C1103 C1104 1.398 . S
C1103 C1109 1.491 . S
C1104 H1095 0.950 . S
C1104 C1103 1.398 . S
C1104 C1105 1.391 . S
C1105 H1093 0.950 . S
C1105 C1101 1.393 . S
C1105 C1104 1.391 . S
C1106 H1096 0.950 . S
C1106 C1107 1.386 . S
C1106 C1108 1.391 . S
C1107 C1106 1.386 . S
C1107 C1111 1.393 . S
C1108 H1097 0.950 . S
C1108 C1106 1.391 . S
C1108 C1109 1.400 . S
C1109 C1103 1.491 . S
C1109 C1108 1.400 . S
C1109 C1110 1.398 . S
C1110 H1098 0.950 . S
C1110 C1109 1.398 . S
C1110 C1111 1.391 . S
C1111 H1099 0.950 . S
C1111 C1107 1.393 . S
C1111 C1110 1.391 . S
H1112 C1120 0.950 . S
H1113 C1125 0.950 . S
H1114 C1122 0.950 . S
H1115 C1124 0.950 . S
H1116 C1126 0.950 . S
H1117 C1128 0.950 . S
H1118 C1130 0.950 . S
H1119 C1131 0.950 . S
C1120 H1112 0.950 . S
C1120 C1121 1.386 . S
C1120 C1122 1.391 . S
C1121 C1120 1.386 . S
C1121 C1125 1.393 . S
C1122 H1114 0.950 . S
C1122 C1120 1.391 . S
C1122 C1123 1.400 . S
C1123 C1122 1.400 . S
C1123 C1124 1.398 . S
C1123 C1129 1.491 . S
C1124 H1115 0.950 . S
C1124 C1123 1.398 . S
C1124 C1125 1.391 . S
C1125 H1113 0.950 . S
C1125 C1121 1.393 . S
C1125 C1124 1.391 . S
C1126 H1116 0.950 . S
C1126 C1127 1.386 . S
C1126 C1128 1.391 . S
C1127 C1126 1.386 . S
C1127 C1131 1.393 . S
C1128 H1117 0.950 . S
C1128 C1126 1.391 . S
C1128 C1129 1.400 . S
C1129 C1123 1.491 . S
C1129 C1128 1.400 . S
C1129 C1130 1.398 . S
C1130 H1118 0.950 . S
C1130 C1129 1.398 . S
C1130 C1131 1.391 . S
C1131 H1119 0.950 . S
C1131 C1127 1.393 . S
C1131 C1130 1.391 . S
H1132 C1140 0.950 . S
H1133 C1145 0.950 . S
H1134 C1142 0.950 . S
H1135 C1144 0.950 . S
H1136 C1146 0.950 . S
H1137 C1148 0.950 . S
H1138 C1150 0.950 . S
H1139 C1151 0.950 . S
C1140 H1132 0.950 . S
C1140 C1141 1.386 . S
C1140 C1142 1.391 . S
C1141 C1140 1.386 . S
C1141 C1145 1.393 . S
C1142 H1134 0.950 . S
C1142 C1140 1.391 . S
C1142 C1143 1.400 . S
C1143 C1142 1.400 . S
C1143 C1144 1.398 . S
C1143 C1149 1.491 . S
C1144 H1135 0.950 . S
C1144 C1143 1.398 . S
C1144 C1145 1.391 . S
C1145 H1133 0.950 . S
C1145 C1141 1.393 . S
C1145 C1144 1.391 . S
C1146 H1136 0.950 . S
C1146 C1147 1.386 . S
C1146 C1148 1.391 . S
C1147 C1146 1.386 . S
C1147 C1151 1.393 . S
C1148 H1137 0.950 . S
C1148 C1146 1.391 . S
C1148 C1149 1.400 . S
C1149 C1143 1.491 . S
C1149 C1148 1.400 . S
C1149 C1150 1.398 . S
C1150 H1138 0.950 . S
C1150 C1149 1.398 . S
C1150 C1151 1.391 . S
C1151 H1139 0.950 . S
C1151 C1147 1.393 . S
C1151 C1150 1.391 . S
H1152 C1160 0.950 . S
H1153 C1165 0.950 . S
H1154 C1162 0.950 . S
H1155 C1164 0.950 . S
H1156 C1166 0.950 . S
H1157 C1168 0.950 . S
H1158 C1170 0.950 . S
H1159 C1171 0.950 . S
C1160 H1152 0.950 . S
C1160 C1161 1.386 . S
C1160 C1162 1.391 . S
C1161 C1160 1.386 . S
C1161 C1165 1.393 . S
C1162 H1154 0.950 . S
C1162 C1160 1.391 . S
C1162 C1163 1.400 . S
C1163 C1162 1.400 . S
C1163 C1164 1.398 . S
C1163 C1169 1.491 . S
C1164 H1155 0.950 . S
C1164 C1163 1.398 . S
C1164 C1165 1.391 . S
C1165 H1153 0.950 . S
C1165 C1161 1.393 . S
C1165 C1164 1.391 . S
C1166 H1156 0.950 . S
C1166 C1167 1.386 . S
C1166 C1168 1.391 . S
C1167 C1166 1.386 . S
C1167 C1171 1.393 . S
C1168 H1157 0.950 . S
C1168 C1166 1.391 . S
C1168 C1169 1.400 . S
C1169 C1163 1.491 . S
C1169 C1168 1.400 . S
C1169 C1170 1.398 . S
C1170 H1158 0.950 . S
C1170 C1169 1.398 . S
C1170 C1171 1.391 . S
C1171 H1159 0.950 . S
C1171 C1167 1.393 . S
C1171 C1170 1.391 . S
H1172 C1180 0.950 . S
H1173 C1185 0.950 . S
H1174 C1182 0.950 . S
H1175 C1184 0.950 . S
H1176 C1186 0.950 . S
H1177 C1188 0.950 . S
H1178 C1190 0.950 . S
H1179 C1191 0.950 . S
C1180 H1172 0.950 . S
C1180 C1181 1.386 . S
C1180 C1182 1.391 . S
C1181 C1180 1.386 . S
C1181 C1185 1.393 . S
C1182 H1174 0.950 . S
C1182 C1180 1.391 . S
C1182 C1183 1.400 . S
C1183 C1182 1.400 . S
C1183 C1184 1.398 . S
C1183 C1189 1.491 . S
C1184 H1175 0.950 . S
C1184 C1183 1.398 . S
C1184 C1185 1.391 . S
C1185 H1173 0.950 . S
C1185 C1181 1.393 . S
C1185 C1184 1.391 . S
C1186 H1176 0.950 . S
C1186 C1187 1.386 . S
C1186 C1188 1.391 . S
C1187 C1186 1.386 . S
C1187 C1191 1.393 . S
C1188 H1177 0.950 . S
C1188 C1186 1.391 . S
C1188 C1189 1.400 . S
C1189 C1183 1.491 . S
C1189 C1188 1.400 . S
C1189 C1190 1.398 . S
C1190 H1178 0.950 . S
C1190 C1189 1.398 . S
C1190 C1191 1.391 . S
C1191 H1179 0.950 . S
C1191 C1187 1.393 . S
C1191 C1190 1.391 . S
H1192 C1200 0.950 . S
H1193 C1205 0.950 . S
H1194 C1202 0.950 . S
H1195 C1204 0.950 . S
H1196 C1206 0.950 . S
H1197 C1208 0.950 . S
H1198 C1210 0.950 . S
H1199 C1211 0.950 . S
C1200 H1192 0.950 . S
C1200 C1201 1.386 . S
C1200 C1202 1.391 . S
C1201 C1200 1.386 . S
C1201 C1205 1.393 . S
C1202 H1194 0.950 . S
C1202 C1200 1.391 . S
C1202 C1203 1.400 . S
C1203 C1202 1.400 . S
C1203 C1204 1.398 . S
C1203 C1209 1.491 . S
C1204 H1195 0.950 . S
C1204 C1203 1.398 . S
C1204 C1205 1.391 . S
C1205 H1193 0.950 . S
C1205 C1201 1.393 . S
C1205 C1204 1.391 . S
C1206 H1196 0.950 . S
C1206 C1207 1.386 . S
C1206 C1208 1.391 . S
C1207 C1206 1.386 . S
C1207 C1211 1.393 . S
C1208 H1197 0.950 . S
C1208 C1206 1.391 . S
C1208 C1209 1.400 . S
C1209 C1203 1.491 . S
C1209 C1208 1.400 . S
C1209 C1210 1.398 . S
C1210 H1198 0.950 . S
C1210 C1209 1.398 . S
C1210 C1211 1.391 . S
C1211 H1199 0.950 . S
C1211 C1207 1.393 . S
C1211 C1210 1.391 . S
H1212 C1220 0.950 . S
H1213 C1225 0.950 . S
H1214 C1222 0.950 . S
H1215 C1224 0.950 . S
H1216 C1226 0.950 . S
H1217 C1228 0.950 . S
H1218 C1230 0.950 . S
H1219 C1231 0.950 . S
C1220 H1212 0.950 . S
C1220 C1221 1.386 . S
C1220 C1222 1.391 . S
C1221 C1220 1.386 . S
C1221 C1225 1.393 . S
C1222 H1214 0.950 . S
C1222 C1220 1.391 . S
C1222 C1223 1.400 . S
C1223 C1222 1.400 . S
C1223 C1224 1.398 . S
C1223 C1229 1.491 . S
C1224 H1215 0.950 . S
C1224 C1223 1.398 . S
C1224 C1225 1.391 . S
C1225 H1213 0.950 . S
C1225 C1221 1.393 . S
C1225 C1224 1.391 . S
C1226 H1216 0.950 . S
C1226 C1227 1.386 . S
C1226 C1228 1.391 . S
C1227 C1226 1.386 . S
C1227 C1231 1.393 . S
C1228 H1217 0.950 . S
C1228 C1226 1.391 . S
C1228 C1229 1.400 . S
C1229 C1223 1.491 . S
C1229 C1228 1.400 . S
C1229 C1230 1.398 . S
C1230 H1218 0.950 . S
C1230 C1229 1.398 . S
C1230 C1231 1.391 . S
C1231 H1219 0.950 . S
C1231 C1227 1.393 . S
C1231 C1230 1.391 . S
H1232 C1240 0.950 . S
H1233 C1245 0.950 . S
H1234 C1242 0.950 . S
H1235 C1244 0.950 . S
H1236 C1246 0.950 . S
H1237 C1248 0.950 . S
H1238 C1250 0.950 . S
H1239 C1251 0.950 . S
C1240 H1232 0.950 . S
C1240 C1241 1.386 . S
C1240 C1242 1.391 . S
C1241 C1240 1.386 . S
C1241 C1245 1.393 . S
C1242 H1234 0.950 . S
C1242 C1240 1.391 . S
C1242 C1243 1.400 . S
C1243 C1242 1.400 . S
C1243 C1244 1.398 . S
C1243 C1249 1.491 . S
C1244 H1235 0.950 . S
C1244 C1243 1.398 . S
C1244 C1245 1.391 . S
C1245 H1233 0.950 . S
C1245 C1241 1.393 . S
C1245 C1244 1.391 . S
C1246 H1236 0.950 . S
C1246 C1247 1.386 . S
C1246 C1248 1.391 . S
C1247 C1246 1.386 . S
C1247 C1251 1.393 . S
C1248 H1237 0.950 . S
C1248 C1246 1.391 . S
C1248 C1249 1.400 . S
C1249 C1243 1.491 . S
C1249 C1248 1.400 . S
C1249 C1250 1.398 . S
C1250 H1238 0.950 . S
C1250 C1249 1.398 . S
C1250 C1251 1.391 . S
C1251 H1239 0.950 . S
C1251 C1247 1.393 . S
C1251 C1250 1.391 . S
H1252 C1260 0.950 . S
H1253 C1265 0.950 . S
H1254 C1262 0.950 . S
H1255 C1264 0.950 . S
H1256 C1266 0.950 . S
H1257 C1268 0.950 . S
H1258 C1270 0.950 . S
H1259 C1271 0.950 . S
C1260 H1252 0.950 . S
C1260 C1261 1.386 . S
C1260 C1262 1.391 . S
C1261 C1260 1.386 . S
C1261 C1265 1.393 . S
C1262 H1254 0.950 . S
C1262 C1260 1.391 . S
C1262 C1263 1.400 . S
C1263 C1262 1.400 . S
C1263 C1264 1.398 . S
C1263 C1269 1.491 . S
C1264 H1255 0.950 . S
C1264 C1263 1.398 . S
C1264 C1265 1.391 . S
C1265 H1253 0.950 . S
C1265 C1261 1.393 . S
C1265 C1264 1.391 . S
C1266 H1256 0.950 . S
C1266 C1267 1.386 . S
C1266 C1268 1.391 . S
C1267 C1266 1.386 . S
C1267 C1271 1.393 . S
C1268 H1257 0.950 . S
C1268 C1266 1.391 . S
C1268 C1269 1.400 . S
C1269 C1263 1.491 . S
C1269 C1268 1.400 . S
C1269 C1270 1.398 . S
C1270 H1258 0.950 . S
C1270 C1269 1.398 . S
C1270 C1271 1.391 . S
C1271 H1259 0.950 . S
C1271 C1267 1.393 . S
C1271 C1270 1.391 . S
H1272 C1280 0.950 . S
H1273 C1285 0.950 . S
H1274 C1282 0.950 . S
H1275 C1284 0.950 . S
H1276 C1286 0.950 . S
H1277 C1288 0.950 . S
H1278 C1290 0.950 . S
H1279 C1291 0.950 . S
C1280 H1272 0.950 . S
C1280 C1281 1.386 . S
C1280 C1282 1.391 . S
C1281 C1280 1.386 . S
C1281 C1285 1.393 . S
C1282 H1274 0.950 . S
C1282 C1280 1.391 . S
C1282 C1283 1.400 . S
C1283 C1282 1.400 . S
C1283 C1284 1.398 . S
C1283 C1289 1.491 . S
C1284 H1275 0.950 . S
C1284 C1283 1.398 . S
C1284 C1285 1.391 . S
C1285 H1273 0.950 . S
C1285 C1281 1.393 . S
C1285 C1284 1.391 . S
C1286 H1276 0.950 . S
C1286 C1287 1.386 . S
C1286 C1288 1.391 . S
C1287 C1286 1.386 . S
C1287 C1291 1.393 . S
C1288 H1277 0.950 . S
C1288 C1286 1.391 . S
C1288 C1289 1.400 . S
C1289 C1283 1.491 . S
C1289 C1288 1.400 . S
C1289 C1290 1.398 . S
C1290 H1278 0.950 . S
C1290 C1289 1.398 . S
C1290 C1291 1.391 . S
C1291 H1279 0.950 . S
C1291 C1287 1.393 . S
C1291 C1290 1.391 . S
H1292 C1300 0.950 . S
H1293 C1305 0.950 . S
H1294 C1302 0.950 . S
H1295 C1304 0.950 . S
H1296 C1306 0.950 . S
H1297 C1308 0.950 . S
H1298 C1310 0.950 . S
H1299 C1311 0.950 . S
C1300 H1292 0.950 . S
C1300 C1301 1.386 . S
C1300 C1302 1.391 . S
C1301 C1300 1.386 . S
C1301 C1305 1.393 . S
C1302 H1294 0.950 . S
C1302 C1300 1.391 . S
C1302 C1303 1.400 . S
C1303 C1302 1.400 . S
C1303 C1304 1.398 . S
C1303 C1309 1.491 . S
C1304 H1295 0.950 . S
C1304 C1303 1.398 . S
C1304 C1305 1.391 . S
C1305 H1293 0.950 . S
C1305 C1301 1.393 . S
C1305 C1304 1.391 . S
C1306 H1296 0.950 . S
C1306 C1307 1.386 . S
C1306 C1308 1.391 . S
C1307 C1306 1.386 . S
C1307 C1311 1.393 . S
C1308 H1297 0.950 . S
C1308 C1306 1.391 . S
C1308 C1309 1.400 . S
C1309 C1303 1.491 . S
C1309 C1308 1.400 . S
C1309 C1310 1.398 . S
C1310 H1298 0.950 . S
C1310 C1309 1.398 . S
C1310 C1311 1.391 . S
C1311 H1299 0.950 . S
C1311 C1307 1.393 . S
C1311 C1310 1.391 . S
H1312 C1320 0.950 . S
H1313 C1325 0.950 . S
H1314 C1322 0.950 . S
H1315 C1324 0.950 . S
H1316 C1326 0.950 . S
H1317 C1328 0.950 . S
H1318 C1330 0.950 . S
H1319 C1331 0.950 . S
C1320 H1312 0.950 . S
C1320 C1321 1.386 . S
C1320 C1322 1.391 . S
C1321 C1320 1.386 . S
C1321 C1325 1.393 . S
C1322 H1314 0.950 . S
C1322 C1320 1.391 . S
C1322 C1323 1.400 . S
C1323 C1322 1.400 . S
C1323 C1324 1.398 . S
C1323 C1329 1.491 . S
C1324 H1315 0.950 . S
C1324 C1323 1.398 . S
C1324 C1325 1.391 . S
C1325 H1313 0.950 . S
C1325 C1321 1.393 . S
C1325 C1324 1.391 . S
C1326 H1316 0.950 . S
C1326 C1327 1.386 . S
C1326 C1328 1.391 . S
C1327 C1326 1.386 . S
C1327 C1331 1.393 . S
C1328 H1317 0.950 . S
C1328 C1326 1.391 . S
C1328 C1329 1.400 . S
C1329 C1323 1.491 . S
C1329 C1328 1.400 . S
C1329 C1330 1.398 . S
C1330 H1318 0.950 . S
C1330 C1329 1.398 . S
C1330 C1331 1.391 . S
C1331 H1319 0.950 . S
C1331 C1327 1.393 . S
C1331 C1330 1.391 . S
H1332 C1340 0.950 . S
H1333 C1345 0.950 . S
H1334 C1342 0.950 . S
H1335 C1344 0.950 . S
H1336 C1346 0.950 . S
H1337 C1348 0.950 . S
H1338 C1350 0.950 . S
H1339 C1351 0.950 . S
C1340 H1332 0.950 . S
C1340 C1341 1.386 . S
C1340 C1342 1.391 . S
C1341 C1340 1.386 . S
C1341 C1345 1.393 . S
C1342 H1334 0.950 . S
C1342 C1340 1.391 . S
C1342 C1343 1.400 . S
C1343 C1342 1.400 . S
C1343 C1344 1.398 . S
C1343 C1349 1.491 . S
C1344 H1335 0.950 . S
C1344 C1343 1.398 . S
C1344 C1345 1.391 . S
C1345 H1333 0.950 . S
C1345 C1341 1.393 . S
C1345 C1344 1.391 . S
C1346 H1336 0.950 . S
C1346 C1347 1.386 . S
C1346 C1348 1.391 . S
C1347 C1346 1.386 . S
C1347 C1351 1.393 . S
C1348 H1337 0.950 . S
C1348 C1346 1.391 . S
C1348 C1349 1.400 . S
C1349 C1343 1.491 . S
C1349 C1348 1.400 . S
C1349 C1350 1.398 . S
C1350 H1338 0.950 . S
C1350 C1349 1.398 . S
C1350 C1351 1.391 . S
C1351 H1339 0.950 . S
C1351 C1347 1.393 . S
C1351 C1350 1.391 . S
H1352 C1360 0.950 . S
H1353 C1365 0.950 . S
H1354 C1362 0.950 . S
H1355 C1364 0.950 . S
H1356 C1366 0.950 . S
H1357 C1368 0.950 . S
H1358 C1370 0.950 . S
H1359 C1371 0.950 . S
C1360 H1352 0.950 . S
C1360 C1361 1.386 . S
C1360 C1362 1.391 . S
C1361 C1360 1.386 . S
C1361 C1365 1.393 . S
C1362 H1354 0.950 . S
C1362 C1360 1.391 . S
C1362 C1363 1.400 . S
C1363 C1362 1.400 . S
C1363 C1364 1.398 . S
C1363 C1369 1.491 . S
C1364 H1355 0.950 . S
C1364 C1363 1.398 . S
C1364 C1365 1.391 . S
C1365 H1353 0.950 . S
C1365 C1361 1.393 . S
C1365 C1364 1.391 . S
C1366 H1356 0.950 . S
C1366 C1367 1.386 . S
C1366 C1368 1.391 . S
C1367 C1366 1.386 . S
C1367 C1371 1.393 . S
C1368 H1357 0.950 . S
C1368 C1366 1.391 . S
C1368 C1369 1.400 . S
C1369 C1363 1.491 . S
C1369 C1368 1.400 . S
C1369 C1370 1.398 . S
C1370 H1358 0.950 . S
C1370 C1369 1.398 . S
C1370 C1371 1.391 . S
C1371 H1359 0.950 . S
C1371 C1367 1.393 . S
C1371 C1370 1.391 . S
H1372 C1380 0.950 . S
H1373 C1385 0.950 . S
H1374 C1382 0.950 . S
H1375 C1384 0.950 . S
H1376 C1386 0.950 . S
H1377 C1388 0.950 . S
H1378 C1390 0.950 . S
H1379 C1391 0.950 . S
C1380 H1372 0.950 . S
C1380 C1381 1.386 . S
C1380 C1382 1.391 . S
C1381 C1380 1.386 . S
C1381 C1385 1.393 . S
C1382 H1374 0.950 . S
C1382 C1380 1.391 . S
C1382 C1383 1.400 . S
C1383 C1382 1.400 . S
C1383 C1384 1.398 . S
C1383 C1389 1.491 . S
C1384 H1375 0.950 . S
C1384 C1383 1.398 . S
C1384 C1385 1.391 . S
C1385 H1373 0.950 . S
C1385 C1381 1.393 . S
C1385 C1384 1.391 . S
C1386 H1376 0.950 . S
C1386 C1387 1.386 . S
C1386 C1388 1.391 . S
C1387 C1386 1.386 . S
C1387 C1391 1.393 . S
C1388 H1377 0.950 . S
C1388 C1386 1.391 . S
C1388 C1389 1.400 . S
C1389 C1383 1.491 . S
C1389 C1388 1.400 . S
C1389 C1390 1.398 . S
C1390 H1378 0.950 . S
C1390 C1389 1.398 . S
C1390 C1391 1.391 . S
C1391 H1379 0.950 . S
C1391 C1387 1.393 . S
C1391 C1390 1.391 . S
H1392 C1400 0.950 . S
H1393 C1405 0.950 . S
H1394 C1402 0.950 . S
H1395 C1404 0.950 . S
H1396 C1406 0.950 . S
H1397 C1408 0.950 . S
H1398 C1410 0.950 . S
H1399 C1411 0.950 . S
C1400 H1392 0.950 . S
C1400 C1401 1.386 . S
C1400 C1402 1.391 . S
C1401 C1400 1.386 . S
C1401 C1405 1.393 . S
C1402 H1394 0.950 . S
C1402 C1400 1.391 . S
C1402 C1403 1.400 . S
C1403 C1402 1.400 . S
C1403 C1404 1.398 . S
C1403 C1409 1.491 . S
C1404 H1395 0.950 . S
C1404 C1403 1.398 . S
C1404 C1405 1.391 . S
C1405 H1393 0.950 . S
C1405 C1401 1.393 . S
C1405 C1404 1.391 . S
C1406 H1396 0.950 . S
C1406 C1407 1.386 . S
C1406 C1408 1.391 . S
C1407 C1406 1.386 . S
C1407 C1411 1.393 . S
C1408 H1397 0.950 . S
C1408 C1406 1.391 . S
C1408 C1409 1.400 . S
C1409 C1403 1.491 . S
C1409 C1408 1.400 . S
C1409 C1410 1.398 . S
C1410 H1398 0.950 . S
C1410 C1409 1.398 . S
C1410 C1411 1.391 . S
C1411 H1399 0.950 . S
C1411 C1407 1.393 . S
C1411 C1410 1.391 . S
H1412 C1420 0.950 . S
H1413 C1425 0.950 . S
H1414 C1422 0.950 . S
H1415 C1424 0.950 . S
H1416 C1426 0.950 . S
H1417 C1428 0.950 . S
H1418 C1430 0.950 . S
H1419 C1431 0.950 . S
C1420 H1412 0.950 . S
C1420 C1421 1.386 . S
C1420 C1422 1.391 . S
C1421 C1420 1.386 . S
C1421 C1425 1.393 . S
C1422 H1414 0.950 . S
C1422 C1420 1.391 . S
C1422 C1423 1.400 . S
C1423 C1422 1.400 . S
C1423 C1424 1.398 . S
C1423 C1429 1.491 . S
C1424 H1415 0.950 . S
C1424 C1423 1.398 . S
C1424 C1425 1.391 . S
C1425 H1413 0.950 . S
C1425 C1421 1.393 . S
C1425 C1424 1.391 . S
C1426 H1416 0.950 . S
C1426 C1427 1.386 . S
C1426 C1428 1.391 . S
C1427 C1426 1.386 . S
C1427 C1431 1.393 . S
C1428 H1417 0.950 . S
C1428 C1426 1.391 . S
C1428 C1429 1.400 . S
C1429 C1423 1.491 . S
C1429 C1428 1.400 . S
C1429 C1430 1.398 . S
C1430 H1418 0.950 . S
C1430 C1429 1.398 . S
C1430 C1431 1.391 . S
C1431 H1419 0.950 . S
C1431 C1427 1.393 . S
C1431 C1430 1.391 . S
H1432 C1440 0.950 . S
H1433 C1445 0.950 . S
H1434 C1442 0.950 . S
H1435 C1444 0.950 . S
H1436 C1446 0.950 . S
H1437 C1448 0.950 . S
H1438 C1450 0.950 . S
H1439 C1451 0.950 . S
C1440 H1432 0.950 . S
C1440 C1441 1.386 . S
C1440 C1442 1.391 . S
C1441 C1440 1.386 . S
C1441 C1445 1.393 . S
C1442 H1434 0.950 . S
C1442 C1440 1.391 . S
C1442 C1443 1.400 . S
C1443 C1442 1.400 . S
C1443 C1444 1.398 . S
C1443 C1449 1.491 . S
C1444 H1435 0.950 . S
C1444 C1443 1.398 . S
C1444 C1445 1.391 . S
C1445 H1433 0.950 . S
C1445 C1441 1.393 . S
C1445 C1444 1.391 . S
C1446 H1436 0.950 . S
C1446 C1447 1.386 . S
C1446 C1448 1.391 . S
C1447 C1446 1.386 . S
C1447 C1451 1.393 . S
C1448 H1437 0.950 . S
C1448 C1446 1.391 . S
C1448 C1449 1.400 . S
C1449 C1443 1.491 . S
C1449 C1448 1.400 . S
C1449 C1450 1.398 . S
C1450 H1438 0.950 . S
C1450 C1449 1.398 . S
C1450 C1451 1.391 . S
C1451 H1439 0.950 . S
C1451 C1447 1.393 . S
C1451 C1450 1.391 . S
H1452 C1460 0.950 . S
H1453 C1465 0.950 . S
H1454 C1462 0.950 . S
H1455 C1464 0.950 . S
H1456 C1466 0.950 . S
H1457 C1468 0.950 . S
H1458 C1470 0.950 . S
H1459 C1471 0.950 . S
C1460 H1452 0.950 . S
C1460 C1461 1.386 . S
C1460 C1462 1.391 . S
C1461 C1460 1.386 . S
C1461 C1465 1.393 . S
C1462 H1454 0.950 . S
C1462 C1460 1.391 . S
C1462 C1463 1.400 . S
C1463 C1462 1.400 . S
C1463 C1464 1.398 . S
C1463 C1469 1.491 . S
C1464 H1455 0.950 . S
C1464 C1463 1.398 . S
C1464 C1465 1.391 . S
C1465 H1453 0.950 . S
C1465 C1461 1.393 . S
C1465 C1464 1.391 . S
C1466 H1456 0.950 . S
C1466 C1467 1.386 . S
C1466 C1468 1.391 . S
C1467 C1466 1.386 . S
C1467 C1471 1.393 . S
C1468 H1457 0.950 . S
C1468 C1466 1.391 . S
C1468 C1469 1.400 . S
C1469 C1463 1.491 . S
C1469 C1468 1.400 . S
C1469 C1470 1.398 . S
C1470 H1458 0.950 . S
C1470 C1469 1.398 . S
C1470 C1471 1.391 . S
C1471 H1459 0.950 . S
C1471 C1467 1.393 . S
C1471 C1470 1.391 . S
H1472 C1480 0.950 . S
H1473 C1485 0.950 . S
H1474 C1482 0.950 . S
H1475 C1484 0.950 . S
H1476 C1486 0.950 . S
H1477 C1488 0.950 . S
H1478 C1490 0.950 . S
H1479 C1491 0.950 . S
C1480 H1472 0.950 . S
C1480 C1481 1.386 . S
C1480 C1482 1.391 . S
C1481 C1480 1.386 . S
C1481 C1485 1.393 . S
C1482 H1474 0.950 . S
C1482 C1480 1.391 . S
C1482 C1483 1.400 . S
C1483 C1482 1.400 . S
C1483 C1484 1.398 . S
C1483 C1489 1.491 . S
C1484 H1475 0.950 . S
C1484 C1483 1.398 . S
C1484 C1485 1.391 . S
C1485 H1473 0.950 . S
C1485 C1481 1.393 . S
C1485 C1484 1.391 . S
C1486 H1476 0.950 . S
C1486 C1487 1.386 . S
C1486 C1488 1.391 . S
C1487 C1486 1.386 . S
C1487 C1491 1.393 . S
C1488 H1477 0.950 . S
C1488 C1486 1.391 . S
C1488 C1489 1.400 . S
C1489 C1483 1.491 . S
C1489 C1488 1.400 . S
C1489 C1490 1.398 . S
C1490 H1478 0.950 . S
C1490 C1489 1.398 . S
C1490 C1491 1.391 . S
C1491 H1479 0.950 . S
C1491 C1487 1.393 . S
C1491 C1490 1.391 . S
H1492 C1500 0.950 . S
H1493 C1505 0.950 . S
H1494 C1502 0.950 . S
H1495 C1504 0.950 . S
H1496 C1506 0.950 . S
H1497 C1508 0.950 . S
H1498 C1510 0.950 . S
H1499 C1511 0.950 . S
C1500 H1492 0.950 . S
C1500 C1501 1.386 . S
C1500 C1502 1.391 . S
C1501 C1500 1.386 . S
C1501 C1505 1.393 . S
C1502 H1494 0.950 . S
C1502 C1500 1.391 . S
C1502 C1503 1.400 . S
C1503 C1502 1.400 . S
C1503 C1504 1.398 . S
C1503 C1509 1.491 . S
C1504 H1495 0.950 . S
C1504 C1503 1.398 . S
C1504 C1505 1.391 . S
C1505 H1493 0.950 . S
C1505 C1501 1.393 . S
C1505 C1504 1.391 . S
C1506 H1496 0.950 . S
C1506 C1507 1.386 . S
C1506 C1508 1.391 . S
C1507 C1506 1.386 . S
C1507 C1511 1.393 . S
C1508 H1497 0.950 . S
C1508 C1506 1.391 . S
C1508 C1509 1.400 . S
C1509 C1503 1.491 . S
C1509 C1508 1.400 . S
C1509 C1510 1.398 . S
C1510 H1498 0.950 . S
C1510 C1509 1.398 . S
C1510 C1511 1.391 . S
C1511 H1499 0.950 . S
C1511 C1507 1.393 . S
C1511 C1510 1.391 . S
H1512 C1520 0.950 . S
H1513 C1525 0.950 . S
H1514 C1522 0.950 . S
H1515 C1524 0.950 . S
H1516 C1526 0.950 . S
H1517 C1528 0.950 . S
H1518 C1530 0.950 . S
H1519 C1531 0.950 . S
C1520 H1512 0.950 . S
C1520 C1521 1.386 . S
C1520 C1522 1.391 . S
C1521 C1520 1.386 . S
C1521 C1525 1.393 . S
C1522 H1514 0.950 . S
C1522 C1520 1.391 . S
C1522 C1523 1.400 . S
C1523 C1522 1.400 . S
C1523 C1524 1.398 . S
C1523 C1529 1.491 . S
C1524 H1515 0.950 . S
C1524 C1523 1.398 . S
C1524 C1525 1.391 . S
C1525 H1513 0.950 . S
C1525 C1521 1.393 . S
C1525 C1524 1.391 . S
C1526 H1516 0.950 . S
C1526 C1527 1.386 . S
C1526 C1528 1.391 . S
C1527 C1526 1.386 . S
C1527 C1531 1.393 . S
C1528 H1517 0.950 . S
C1528 C1526 1.391 . S
C1528 C1529 1.400 . S
C1529 C1523 1.491 . S
C1529 C1528 1.400 . S
C1529 C1530 1.398 . S
C1530 H1518 0.950 . S
C1530 C1529 1.398 . S
C1530 C1531 1.391 . S
C1531 H1519 0.950 . S
C1531 C1527 1.393 . S
C1531 C1530 1.391 . S
H1532 C1540 0.950 . S
H1533 C1545 0.950 . S
H1534 C1542 0.950 . S
H1535 C1544 0.950 . S
H1536 C1546 0.950 . S
H1537 C1548 0.950 . S
H1538 C1550 0.950 . S
H1539 C1551 0.950 . S
C1540 H1532 0.950 . S
C1540 C1541 1.386 . S
C1540 C1542 1.391 . S
C1541 C1540 1.386 . S
C1541 C1545 1.393 . S
C1542 H1534 0.950 . S
C1542 C1540 1.391 . S
C1542 C1543 1.400 . S
C1543 C1542 1.400 . S
C1543 C1544 1.398 . S
C1543 C1549 1.491 1_565 S
C1544 H1535 0.950 . S
C1544 C1543 1.398 . S
C1544 C1545 1.391 . S
C1545 H1533 0.950 . S
C1545 C1541 1.393 . S
C1545 C1544 1.391 . S
C1546 H1536 0.950 . S
C1546 C1547 1.386 . S
C1546 C1548 1.391 . S
C1547 C1546 1.386 . S
C1547 C1551 1.393 . S
C1548 H1537 0.950 . S
C1548 C1546 1.391 . S
C1548 C1549 1.400 . S
C1549 C1543 1.491 1_545 S
C1549 C1548 1.400 . S
C1549 C1550 1.398 . S
C1550 H1538 0.950 . S
C1550 C1549 1.398 . S
C1550 C1551 1.391 . S
C1551 H1539 0.950 . S
C1551 C1547 1.393 . S
C1551 C1550 1.391 . S
H1552 C1560 0.950 . S
H1553 C1565 0.950 . S
H1554 C1562 0.950 . S
H1555 C1564 0.950 . S
H1556 C1566 0.950 . S
H1557 C1568 0.950 . S
H1558 C1570 0.950 . S
H1559 C1571 0.950 . S
C1560 H1552 0.950 . S
C1560 C1561 1.386 . S
C1560 C1562 1.391 . S
C1561 C1560 1.386 . S
C1561 C1565 1.393 . S
C1562 H1554 0.950 . S
C1562 C1560 1.391 . S
C1562 C1563 1.400 . S
C1563 C1562 1.400 . S
C1563 C1564 1.398 . S
C1563 C1569 1.491 1_655 S
C1564 H1555 0.950 . S
C1564 C1563 1.398 . S
C1564 C1565 1.391 . S
C1565 H1553 0.950 . S
C1565 C1561 1.393 . S
C1565 C1564 1.391 . S
C1566 H1556 0.950 . S
C1566 C1567 1.386 . S
C1566 C1568 1.391 . S
C1567 C1566 1.386 . S
C1567 C1571 1.393 . S
C1568 H1557 0.950 . S
C1568 C1566 1.391 . S
C1568 C1569 1.400 . S
C1569 C1563 1.491 1_455 S
C1569 C1568 1.400 . S
C1569 C1570 1.398 . S
C1570 H1558 0.950 . S
C1570 C1569 1.398 . S
C1570 C1571 1.391 . S
C1571 H1559 0.950 . S
C1571 C1567 1.393 . S
C1571 C1570 1.391 . S
H1572 C1580 0.950 . S
H1573 C1585 0.950 . S
H1574 C1582 0.950 . S
H1575 C1584 0.950 . S
H1576 C1586 0.950 . S
H1577 C1588 0.950 . S
H1578 C1590 0.950 . S
H1579 C1591 0.950 . S
C1580 H1572 0.950 . S
C1580 C1581 1.386 . S
C1580 C1582 1.391 . S
C1581 C1580 1.386 . S
C1581 C1585 1.393 . S
C1582 H1574 0.950 . S
C1582 C1580 1.391 . S
C1582 C1583 1.400 . S
C1583 C1582 1.400 . S
C1583 C1584 1.398 . S
C1583 C1589 1.491 . S
C1584 H1575 0.950 . S
C1584 C1583 1.398 . S
C1584 C1585 1.391 . S
C1585 H1573 0.950 . S
C1585 C1581 1.393 . S
C1585 C1584 1.391 . S
C1586 H1576 0.950 . S
C1586 C1587 1.386 . S
C1586 C1588 1.391 . S
C1587 C1586 1.386 . S
C1587 C1591 1.393 . S
C1588 H1577 0.950 . S
C1588 C1586 1.391 . S
C1588 C1589 1.400 . S
C1589 C1583 1.491 . S
C1589 C1588 1.400 . S
C1589 C1590 1.398 . S
C1590 H1578 0.950 . S
C1590 C1589 1.398 . S
C1590 C1591 1.391 . S
C1591 H1579 0.950 . S
C1591 C1587 1.393 . S
C1591 C1590 1.391 . S
H1592 C1600 0.950 . S
H1593 C1605 0.950 . S
H1594 C1602 0.950 . S
H1595 C1604 0.950 . S
H1596 C1606 0.950 . S
H1597 C1608 0.950 . S
H1598 C1610 0.950 . S
H1599 C1611 0.950 . S
C1600 H1592 0.950 . S
C1600 C1601 1.386 . S
C1600 C1602 1.391 . S
C1601 C1600 1.386 . S
C1601 C1605 1.393 . S
C1602 H1594 0.950 . S
C1602 C1600 1.391 . S
C1602 C1603 1.400 . S
C1603 C1602 1.400 . S
C1603 C1604 1.398 . S
C1603 C1609 1.491 1_545 S
C1604 H1595 0.950 . S
C1604 C1603 1.398 . S
C1604 C1605 1.391 . S
C1605 H1593 0.950 . S
C1605 C1601 1.393 . S
C1605 C1604 1.391 . S
C1606 H1596 0.950 . S
C1606 C1607 1.386 . S
C1606 C1608 1.391 . S
C1607 C1606 1.386 . S
C1607 C1611 1.393 . S
C1608 H1597 0.950 . S
C1608 C1606 1.391 . S
C1608 C1609 1.400 . S
C1609 C1603 1.491 1_565 S
C1609 C1608 1.400 . S
C1609 C1610 1.398 . S
C1610 H1598 0.950 . S
C1610 C1609 1.398 . S
C1610 C1611 1.391 . S
C1611 H1599 0.950 . S
C1611 C1607 1.393 . S
C1611 C1610 1.391 . S
H1612 C1620 0.950 . S
H1613 C1625 0.950 . S
H1614 C1622 0.950 . S
H1615 C1624 0.950 . S
H1616 C1626 0.950 . S
H1617 C1628 0.950 . S
H1618 C1630 0.950 . S
H1619 C1631 0.950 . S
C1620 H1612 0.950 . S
C1620 C1621 1.386 . S
C1620 C1622 1.391 . S
C1621 C1620 1.386 . S
C1621 C1625 1.393 . S
C1622 H1614 0.950 . S
C1622 C1620 1.391 . S
C1622 C1623 1.400 . S
C1623 C1622 1.400 . S
C1623 C1624 1.398 . S
C1623 C1629 1.491 1_455 S
C1624 H1615 0.950 . S
C1624 C1623 1.398 . S
C1624 C1625 1.391 . S
C1625 H1613 0.950 . S
C1625 C1621 1.393 . S
C1625 C1624 1.391 . S
C1626 H1616 0.950 . S
C1626 C1627 1.386 . S
C1626 C1628 1.391 . S
C1627 C1626 1.386 . S
C1627 C1631 1.393 . S
C1628 H1617 0.950 . S
C1628 C1626 1.391 . S
C1628 C1629 1.400 . S
C1629 C1623 1.491 1_655 S
C1629 C1628 1.400 . S
C1629 C1630 1.398 . S
C1630 H1618 0.950 . S
C1630 C1629 1.398 . S
C1630 C1631 1.391 . S
C1631 H1619 0.950 . S
C1631 C1627 1.393 . S
C1631 C1630 1.391 . S
H1632 C1640 0.950 . S
H1633 C1645 0.950 . S
H1634 C1642 0.950 . S
H1635 C1644 0.950 . S
H1636 C1646 0.950 . S
H1637 C1648 0.950 . S
H1638 C1650 0.950 . S
H1639 C1651 0.950 . S
C1640 H1632 0.950 . S
C1640 C1641 1.386 . S
C1640 C1642 1.391 . S
C1641 C1640 1.386 . S
C1641 C1645 1.393 . S
C1642 H1634 0.950 . S
C1642 C1640 1.391 . S
C1642 C1643 1.400 . S
C1643 C1642 1.400 . S
C1643 C1644 1.398 . S
C1643 C1649 1.491 . S
C1644 H1635 0.950 . S
C1644 C1643 1.398 . S
C1644 C1645 1.391 . S
C1645 H1633 0.950 . S
C1645 C1641 1.393 . S
C1645 C1644 1.391 . S
C1646 H1636 0.950 . S
C1646 C1647 1.386 . S
C1646 C1648 1.391 . S
C1647 C1646 1.386 . S
C1647 C1651 1.393 . S
C1648 H1637 0.950 . S
C1648 C1646 1.391 . S
C1648 C1649 1.400 . S
C1649 C1643 1.491 . S
C1649 C1648 1.400 . S
C1649 C1650 1.398 . S
C1650 H1638 0.950 . S
C1650 C1649 1.398 . S
C1650 C1651 1.391 . S
C1651 H1639 0.950 . S
C1651 C1647 1.393 . S
C1651 C1650 1.391 . S
H1652 C1660 0.950 . S
H1653 C1665 0.950 . S
H1654 C1662 0.950 . S
H1655 C1664 0.950 . S
H1656 C1666 0.950 . S
H1657 C1668 0.950 . S
H1658 C1670 0.950 . S
H1659 C1671 0.950 . S
C1660 H1652 0.950 . S
C1660 C1661 1.386 . S
C1660 C1662 1.391 . S
C1661 C1660 1.386 . S
C1661 C1665 1.393 . S
C1662 H1654 0.950 . S
C1662 C1660 1.391 . S
C1662 C1663 1.400 . S
C1663 C1662 1.400 . S
C1663 C1664 1.398 . S
C1663 C1669 1.491 1_545 S
C1664 H1655 0.950 . S
C1664 C1663 1.398 . S
C1664 C1665 1.391 . S
C1665 H1653 0.950 . S
C1665 C1661 1.393 . S
C1665 C1664 1.391 . S
C1666 H1656 0.950 . S
C1666 C1667 1.386 . S
C1666 C1668 1.391 . S
C1667 C1666 1.386 . S
C1667 C1671 1.393 . S
C1668 H1657 0.950 . S
C1668 C1666 1.391 . S
C1668 C1669 1.400 . S
C1669 C1663 1.491 1_565 S
C1669 C1668 1.400 . S
C1669 C1670 1.398 . S
C1670 H1658 0.950 . S
C1670 C1669 1.398 . S
C1670 C1671 1.391 . S
C1671 H1659 0.950 . S
C1671 C1667 1.393 . S
C1671 C1670 1.391 . S
H1672 C1680 0.950 . S
H1673 C1685 0.950 . S
H1674 C1682 0.950 . S
H1675 C1684 0.950 . S
H1676 C1686 0.950 . S
H1677 C1688 0.950 . S
H1678 C1690 0.950 . S
H1679 C1691 0.950 . S
C1680 H1672 0.950 . S
C1680 C1681 1.386 . S
C1680 C1682 1.391 . S
C1681 C1680 1.386 . S
C1681 C1685 1.393 . S
C1682 H1674 0.950 . S
C1682 C1680 1.391 . S
C1682 C1683 1.400 . S
C1683 C1682 1.400 . S
C1683 C1684 1.398 . S
C1683 C1689 1.491 1_655 S
C1684 H1675 0.950 . S
C1684 C1683 1.398 . S
C1684 C1685 1.391 . S
C1685 H1673 0.950 . S
C1685 C1681 1.393 . S
C1685 C1684 1.391 . S
C1686 H1676 0.950 . S
C1686 C1687 1.386 . S
C1686 C1688 1.391 . S
C1687 C1686 1.386 . S
C1687 C1691 1.393 . S
C1688 H1677 0.950 . S
C1688 C1686 1.391 . S
C1688 C1689 1.400 . S
C1689 C1683 1.491 1_455 S
C1689 C1688 1.400 . S
C1689 C1690 1.398 . S
C1690 H1678 0.950 . S
C1690 C1689 1.398 . S
C1690 C1691 1.391 . S
C1691 H1679 0.950 . S
C1691 C1687 1.393 . S
C1691 C1690 1.391 . S
H1692 C1700 0.950 . S
H1693 C1705 0.950 . S
H1694 C1702 0.950 . S
H1695 C1704 0.950 . S
H1696 C1706 0.950 . S
H1697 C1708 0.950 . S
H1698 C1710 0.950 . S
H1699 C1711 0.950 . S
C1700 H1692 0.950 . S
C1700 C1701 1.386 . S
C1700 C1702 1.391 . S
C1701 C1700 1.386 . S
C1701 C1705 1.393 . S
C1702 H1694 0.950 . S
C1702 C1700 1.391 . S
C1702 C1703 1.400 . S
C1703 C1702 1.400 . S
C1703 C1704 1.398 . S
C1703 C1709 1.491 . S
C1704 H1695 0.950 . S
C1704 C1703 1.398 . S
C1704 C1705 1.391 . S
C1705 H1693 0.950 . S
C1705 C1701 1.393 . S
C1705 C1704 1.391 . S
C1706 H1696 0.950 . S
C1706 C1707 1.386 . S
C1706 C1708 1.391 . S
C1707 C1706 1.386 . S
C1707 C1711 1.393 . S
C1708 H1697 0.950 . S
C1708 C1706 1.391 . S
C1708 C1709 1.400 . S
C1709 C1703 1.491 . S
C1709 C1708 1.400 . S
C1709 C1710 1.398 . S
C1710 H1698 0.950 . S
C1710 C1709 1.398 . S
C1710 C1711 1.391 . S
C1711 H1699 0.950 . S
C1711 C1707 1.393 . S
C1711 C1710 1.391 . S
H1712 C1720 0.950 . S
H1713 C1725 0.950 . S
H1714 C1722 0.950 . S
H1715 C1724 0.950 . S
H1716 C1726 0.950 . S
H1717 C1728 0.950 . S
H1718 C1730 0.950 . S
H1719 C1731 0.950 . S
C1720 H1712 0.950 . S
C1720 C1721 1.386 . S
C1720 C1722 1.391 . S
C1721 C1720 1.386 . S
C1721 C1725 1.393 . S
C1722 H1714 0.950 . S
C1722 C1720 1.391 . S
C1722 C1723 1.400 . S
C1723 C1722 1.400 . S
C1723 C1724 1.398 . S
C1723 C1729 1.491 1_565 S
C1724 H1715 0.950 . S
C1724 C1723 1.398 . S
C1724 C1725 1.391 . S
C1725 H1713 0.950 . S
C1725 C1721 1.393 . S
C1725 C1724 1.391 . S
C1726 H1716 0.950 . S
C1726 C1727 1.386 . S
C1726 C1728 1.391 . S
C1727 C1726 1.386 . S
C1727 C1731 1.393 . S
C1728 H1717 0.950 . S
C1728 C1726 1.391 . S
C1728 C1729 1.400 . S
C1729 C1723 1.491 1_545 S
C1729 C1728 1.400 . S
C1729 C1730 1.398 . S
C1730 H1718 0.950 . S
C1730 C1729 1.398 . S
C1730 C1731 1.391 . S
C1731 H1719 0.950 . S
C1731 C1727 1.393 . S
C1731 C1730 1.391 . S
H1732 C1740 0.950 . S
H1733 C1745 0.950 . S
H1734 C1742 0.950 . S
H1735 C1744 0.950 . S
H1736 C1746 0.950 . S
H1737 C1748 0.950 . S
H1738 C1750 0.950 . S
H1739 C1751 0.950 . S
C1740 H1732 0.950 . S
C1740 C1741 1.386 . S
C1740 C1742 1.391 . S
C1741 C1740 1.386 . S
C1741 C1745 1.393 . S
C1742 H1734 0.950 . S
C1742 C1740 1.391 . S
C1742 C1743 1.400 . S
C1743 C1742 1.400 . S
C1743 C1744 1.398 . S
C1743 C1749 1.491 1_655 S
C1744 H1735 0.950 . S
C1744 C1743 1.398 . S
C1744 C1745 1.391 . S
C1745 H1733 0.950 . S
C1745 C1741 1.393 . S
C1745 C1744 1.391 . S
C1746 H1736 0.950 . S
C1746 C1747 1.386 . S
C1746 C1748 1.391 . S
C1747 C1746 1.386 . S
C1747 C1751 1.393 . S
C1748 H1737 0.950 . S
C1748 C1746 1.391 . S
C1748 C1749 1.400 . S
C1749 C1743 1.491 1_455 S
C1749 C1748 1.400 . S
C1749 C1750 1.398 . S
C1750 H1738 0.950 . S
C1750 C1749 1.398 . S
C1750 C1751 1.391 . S
C1751 H1739 0.950 . S
C1751 C1747 1.393 . S
C1751 C1750 1.391 . S
H1752 C1760 0.950 . S
H1753 C1765 0.950 . S
H1754 C1762 0.950 . S
H1755 C1764 0.950 . S
H1756 C1766 0.950 . S
H1757 C1768 0.950 . S
H1758 C1770 0.950 . S
H1759 C1771 0.950 . S
C1760 H1752 0.950 . S
C1760 C1761 1.386 . S
C1760 C1762 1.391 . S
C1761 C1760 1.386 . S
C1761 C1765 1.393 . S
C1762 H1754 0.950 . S
C1762 C1760 1.391 . S
C1762 C1763 1.400 . S
C1763 C1762 1.400 . S
C1763 C1764 1.398 . S
C1763 C1769 1.491 . S
C1764 H1755 0.950 . S
C1764 C1763 1.398 . S
C1764 C1765 1.391 . S
C1765 H1753 0.950 . S
C1765 C1761 1.393 . S
C1765 C1764 1.391 . S
C1766 H1756 0.950 . S
C1766 C1767 1.386 . S
C1766 C1768 1.391 . S
C1767 C1766 1.386 . S
C1767 C1771 1.393 . S
C1768 H1757 0.950 . S
C1768 C1766 1.391 . S
C1768 C1769 1.400 . S
C1769 C1763 1.491 . S
C1769 C1768 1.400 . S
C1769 C1770 1.398 . S
C1770 H1758 0.950 . S
C1770 C1769 1.398 . S
C1770 C1771 1.391 . S
C1771 H1759 0.950 . S
C1771 C1767 1.393 . S
C1771 C1770 1.391 . S
H1772 C1780 0.950 . S
H1773 C1785 0.950 . S
H1774 C1782 0.950 . S
H1775 C1784 0.950 . S
H1776 C1786 0.950 . S
H1777 C1788 0.950 . S
H1778 C1790 0.950 . S
H1779 C1791 0.950 . S
C1780 H1772 0.950 . S
C1780 C1781 1.386 . S
C1780 C1782 1.391 . S
C1781 C1780 1.386 . S
C1781 C1785 1.393 . S
C1782 H1774 0.950 . S
C1782 C1780 1.391 . S
C1782 C1783 1.400 . S
C1783 C1782 1.400 . S
C1783 C1784 1.398 . S
C1783 C1789 1.491 . S
C1784 H1775 0.950 . S
C1784 C1783 1.398 . S
C1784 C1785 1.391 . S
C1785 H1773 0.950 . S
C1785 C1781 1.393 . S
C1785 C1784 1.391 . S
C1786 H1776 0.950 . S
C1786 C1787 1.386 . S
C1786 C1788 1.391 . S
C1787 C1786 1.386 . S
C1787 C1791 1.393 . S
C1788 H1777 0.950 . S
C1788 C1786 1.391 . S
C1788 C1789 1.400 . S
C1789 C1783 1.491 . S
C1789 C1788 1.400 . S
C1789 C1790 1.398 . S
C1790 H1778 0.950 . S
C1790 C1789 1.398 . S
C1790 C1791 1.391 . S
C1791 H1779 0.950 . S
C1791 C1787 1.393 . S
C1791 C1790 1.391 . S
H1792 C1800 0.950 . S
H1793 C1805 0.950 . S
H1794 C1802 0.950 . S
H1795 C1804 0.950 . S
H1796 C1806 0.950 . S
H1797 C1808 0.950 . S
H1798 C1810 0.950 . S
H1799 C1811 0.950 . S
C1800 H1792 0.950 . S
C1800 C1801 1.386 . S
C1800 C1802 1.391 . S
C1801 C1800 1.386 . S
C1801 C1805 1.393 . S
C1802 H1794 0.950 . S
C1802 C1800 1.391 . S
C1802 C1803 1.400 . S
C1803 C1802 1.400 . S
C1803 C1804 1.398 . S
C1803 C1809 1.491 . S
C1804 H1795 0.950 . S
C1804 C1803 1.398 . S
C1804 C1805 1.391 . S
C1805 H1793 0.950 . S
C1805 C1801 1.393 . S
C1805 C1804 1.391 . S
C1806 H1796 0.950 . S
C1806 C1807 1.386 . S
C1806 C1808 1.391 . S
C1807 C1806 1.386 . S
C1807 C1811 1.393 . S
C1808 H1797 0.950 . S
C1808 C1806 1.391 . S
C1808 C1809 1.400 . S
C1809 C1803 1.491 . S
C1809 C1808 1.400 . S
C1809 C1810 1.398 . S
C1810 H1798 0.950 . S
C1810 C1809 1.398 . S
C1810 C1811 1.391 . S
C1811 H1799 0.950 . S
C1811 C1807 1.393 . S
C1811 C1810 1.391 . S
H1812 C1820 0.950 . S
H1813 C1825 0.950 . S
H1814 C1822 0.950 . S
H1815 C1824 0.950 . S
H1816 C1826 0.950 . S
H1817 C1828 0.950 . S
H1818 C1830 0.950 . S
H1819 C1831 0.950 . S
C1820 H1812 0.950 . S
C1820 C1821 1.386 . S
C1820 C1822 1.391 . S
C1821 C1820 1.386 . S
C1821 C1825 1.393 . S
C1822 H1814 0.950 . S
C1822 C1820 1.391 . S
C1822 C1823 1.400 . S
C1823 C1822 1.400 . S
C1823 C1824 1.398 . S
C1823 C1829 1.491 . S
C1824 H1815 0.950 . S
C1824 C1823 1.398 . S
C1824 C1825 1.391 . S
C1825 H1813 0.950 . S
C1825 C1821 1.393 . S
C1825 C1824 1.391 . S
C1826 H1816 0.950 . S
C1826 C1827 1.386 . S
C1826 C1828 1.391 . S
C1827 C1826 1.386 . S
C1827 C1831 1.393 . S
C1828 H1817 0.950 . S
C1828 C1826 1.391 . S
C1828 C1829 1.400 . S
C1829 C1823 1.491 . S
C1829 C1828 1.400 . S
C1829 C1830 1.398 . S
C1830 H1818 0.950 . S
C1830 C1829 1.398 . S
C1830 C1831 1.391 . S
C1831 H1819 0.950 . S
C1831 C1827 1.393 . S
C1831 C1830 1.391 . S
H1832 C1840 0.950 . S
H1833 C1845 0.950 . S
H1834 C1842 0.950 . S
H1835 C1844 0.950 . S
H1836 C1846 0.950 . S
H1837 C1848 0.950 . S
H1838 C1850 0.950 . S
H1839 C1851 0.950 . S
C1840 H1832 0.950 . S
C1840 C1841 1.386 . S
C1840 C1842 1.391 . S
C1841 C1840 1.386 . S
C1841 C1845 1.393 . S
C1842 H1834 0.950 . S
C1842 C1840 1.391 . S
C1842 C1843 1.400 . S
C1843 C1842 1.400 . S
C1843 C1844 1.398 . S
C1843 C1849 1.491 . S
C1844 H1835 0.950 . S
C1844 C1843 1.398 . S
C1844 C1845 1.391 . S
C1845 H1833 0.950 . S
C1845 C1841 1.393 . S
C1845 C1844 1.391 . S
C1846 H1836 0.950 . S
C1846 C1847 1.386 . S
C1846 C1848 1.391 . S
C1847 C1846 1.386 . S
C1847 C1851 1.393 . S
C1848 H1837 0.950 . S
C1848 C1846 1.391 . S
C1848 C1849 1.400 . S
C1849 C1843 1.491 . S
C1849 C1848 1.400 . S
C1849 C1850 1.398 . S
C1850 H1838 0.950 . S
C1850 C1849 1.398 . S
C1850 C1851 1.391 . S
C1851 H1839 0.950 . S
C1851 C1847 1.393 . S
C1851 C1850 1.391 . S
H1852 C1860 0.950 . S
H1853 C1865 0.950 . S
H1854 C1862 0.950 . S
H1855 C1864 0.950 . S
H1856 C1866 0.950 . S
H1857 C1868 0.950 . S
H1858 C1870 0.950 . S
H1859 C1871 0.950 . S
C1860 H1852 0.950 . S
C1860 C1861 1.386 . S
C1860 C1862 1.391 . S
C1861 C1860 1.386 . S
C1861 C1865 1.393 . S
C1862 H1854 0.950 . S
C1862 C1860 1.391 . S
C1862 C1863 1.400 . S
C1863 C1862 1.400 . S
C1863 C1864 1.398 . S
C1863 C1869 1.491 . S
C1864 H1855 0.950 . S
C1864 C1863 1.398 . S
C1864 C1865 1.391 . S
C1865 H1853 0.950 . S
C1865 C1861 1.393 . S
C1865 C1864 1.391 . S
C1866 H1856 0.950 . S
C1866 C1867 1.386 . S
C1866 C1868 1.391 . S
C1867 C1866 1.386 . S
C1867 C1871 1.393 . S
C1868 H1857 0.950 . S
C1868 C1866 1.391 . S
C1868 C1869 1.400 . S
C1869 C1863 1.491 . S
C1869 C1868 1.400 . S
C1869 C1870 1.398 . S
C1870 H1858 0.950 . S
C1870 C1869 1.398 . S
C1870 C1871 1.391 . S
C1871 H1859 0.950 . S
C1871 C1867 1.393 . S
C1871 C1870 1.391 . S
H1872 C1880 0.950 . S
H1873 C1885 0.950 . S
H1874 C1882 0.950 . S
H1875 C1884 0.950 . S
H1876 C1886 0.950 . S
H1877 C1888 0.950 . S
H1878 C1890 0.950 . S
H1879 C1891 0.950 . S
C1880 H1872 0.950 . S
C1880 C1881 1.386 . S
C1880 C1882 1.391 . S
C1881 C1880 1.386 . S
C1881 C1885 1.393 . S
C1882 H1874 0.950 . S
C1882 C1880 1.391 . S
C1882 C1883 1.400 . S
C1883 C1882 1.400 . S
C1883 C1884 1.398 . S
C1883 C1889 1.491 . S
C1884 H1875 0.950 . S
C1884 C1883 1.398 . S
C1884 C1885 1.391 . S
C1885 H1873 0.950 . S
C1885 C1881 1.393 . S
C1885 C1884 1.391 . S
C1886 H1876 0.950 . S
C1886 C1887 1.386 . S
C1886 C1888 1.391 . S
C1887 C1886 1.386 . S
C1887 C1891 1.393 . S
C1888 H1877 0.950 . S
C1888 C1886 1.391 . S
C1888 C1889 1.400 . S
C1889 C1883 1.491 . S
C1889 C1888 1.400 . S
C1889 C1890 1.398 . S
C1890 H1878 0.950 . S
C1890 C1889 1.398 . S
C1890 C1891 1.391 . S
C1891 H1879 0.950 . S
C1891 C1887 1.393 . S
C1891 C1890 1.391 . S
H1892 C1900 0.950 . S
H1893 C1905 0.950 . S
H1894 C1902 0.950 . S
H1895 C1904 0.950 . S
H1896 C1906 0.950 . S
H1897 C1908 0.950 . S
H1898 C1910 0.950 . S
H1899 C1911 0.950 . S
C1900 H1892 0.950 . S
C1900 C1901 1.386 . S
C1900 C1902 1.391 . S
C1901 C1900 1.386 . S
C1901 C1905 1.393 . S
C1902 H1894 0.950 . S
C1902 C1900 1.391 . S
C1902 C1903 1.400 . S
C1903 C1902 1.400 . S
C1903 C1904 1.398 . S
C1903 C1909 1.491 . S
C1904 H1895 0.950 . S
C1904 C1903 1.398 . S
C1904 C1905 1.391 . S
C1905 H1893 0.950 . S
C1905 C1901 1.393 . S
C1905 C1904 1.391 . S
C1906 H1896 0.950 . S
C1906 C1907 1.386 . S
C1906 C1908 1.391 . S
C1907 C1906 1.386 . S
C1907 C1911 1.393 . S
C1908 H1897 0.950 . S
C1908 C1906 1.391 . S
C1908 C1909 1.400 . S
C1909 C1903 1.491 . S
C1909 C1908 1.400 . S
C1909 C1910 1.398 . S
C1910 H1898 0.950 . S
C1910 C1909 1.398 . S
C1910 C1911 1.391 . S
C1911 H1899 0.950 . S
C1911 C1907 1.393 . S
C1911 C1910 1.391 . S
H1912 C1920 0.950 . S
H1913 C1925 0.950 . S
H1914 C1922 0.950 . S
H1915 C1924 0.950 . S
H1916 C1926 0.950 . S
H1917 C1928 0.950 . S
H1918 C1930 0.950 . S
H1919 C1931 0.950 . S
C1920 H1912 0.950 . S
C1920 C1921 1.386 . S
C1920 C1922 1.391 . S
C1921 C1920 1.386 . S
C1921 C1925 1.393 . S
C1922 H1914 0.950 . S
C1922 C1920 1.391 . S
C1922 C1923 1.400 . S
C1923 C1922 1.400 . S
C1923 C1924 1.398 . S
C1923 C1929 1.491 . S
C1924 H1915 0.950 . S
C1924 C1923 1.398 . S
C1924 C1925 1.391 . S
C1925 H1913 0.950 . S
C1925 C1921 1.393 . S
C1925 C1924 1.391 . S
C1926 H1916 0.950 . S
C1926 C1927 1.386 . S
C1926 C1928 1.391 . S
C1927 C1926 1.386 . S
C1927 C1931 1.393 . S
C1928 H1917 0.950 . S
C1928 C1926 1.391 . S
C1928 C1929 1.400 . S
C1929 C1923 1.491 . S
C1929 C1928 1.400 . S
C1929 C1930 1.398 . S
C1930 H1918 0.950 . S
C1930 C1929 1.398 . S
C1930 C1931 1.391 . S
C1931 H1919 0.950 . S
C1931 C1927 1.393 . S
C1931 C1930 1.391 . S
H1932 C1940 0.950 . S
H1933 C1945 0.950 . S
H1934 C1942 0.950 . S
H1935 C1944 0.950 . S
H1936 C1946 0.950 . S
H1937 C1948 0.950 . S
H1938 C1950 0.950 . S
H1939 C1951 0.950 . S
C1940 H1932 0.950 . S
C1940 C1941 1.386 . S
C1940 C1942 1.391 . S
C1941 C1940 1.386 . S
C1941 C1945 1.393 . S
C1942 H1934 0.950 . S
C1942 C1940 1.391 . S
C1942 C1943 1.400 . S
C1943 C1942 1.400 . S
C1943 C1944 1.398 . S
C1943 C1949 1.491 . S
C1944 H1935 0.950 . S
C1944 C1943 1.398 . S
C1944 C1945 1.391 . S
C1945 H1933 0.950 . S
C1945 C1941 1.393 . S
C1945 C1944 1.391 . S
C1946 H1936 0.950 . S
C1946 C1947 1.386 . S
C1946 C1948 1.391 . S
C1947 C1946 1.386 . S
C1947 C1951 1.393 . S
C1948 H1937 0.950 . S
C1948 C1946 1.391 . S
C1948 C1949 1.400 . S
C1949 C1943 1.491 . S
C1949 C1948 1.400 . S
C1949 C1950 1.398 . S
C1950 H1938 0.950 . S
C1950 C1949 1.398 . S
C1950 C1951 1.391 . S
C1951 H1939 0.950 . S
C1951 C1947 1.393 . S
C1951 C1950 1.391 . S
H1952 C1960 0.950 . S
H1953 C1965 0.950 . S
H1954 C1962 0.950 . S
H1955 C1964 0.950 . S
H1956 C1966 0.950 . S
H1957 C1968 0.950 . S
H1958 C1970 0.950 . S
H1959 C1971 0.950 . S
C1960 H1952 0.950 . S
C1960 C1961 1.386 . S
C1960 C1962 1.391 . S
C1961 C1960 1.386 . S
C1961 C1965 1.393 . S
C1962 H1954 0.950 . S
C1962 C1960 1.391 . S
C1962 C1963 1.400 . S
C1963 C1962 1.400 . S
C1963 C1964 1.398 . S
C1963 C1969 1.491 . S
C1964 H1955 0.950 . S
C1964 C1963 1.398 . S
C1964 C1965 1.391 . S
C1965 H1953 0.950 . S
C1965 C1961 1.393 . S
C1965 C1964 1.391 . S
C1966 H1956 0.950 . S
C1966 C1967 1.386 . S
C1966 C1968 1.391 . S
C1967 C1966 1.386 . S
C1967 C1971 1.393 . S
C1968 H1957 0.950 . S
C1968 C1966 1.391 . S
C1968 C1969 1.400 . S
C1969 C1963 1.491 . S
C1969 C1968 1.400 . S
C1969 C1970 1.398 . S
C1970 H1958 0.950 . S
C1970 C1969 1.398 . S
C1970 C1971 1.391 . S
C1971 H1959 0.950 . S
C1971 C1967 1.393 . S
C1971 C1970 1.391 . S
H1972 C1980 0.950 . S
H1973 C1985 0.950 . S
H1974 C1982 0.950 . S
H1975 C1984 0.950 . S
H1976 C1986 0.950 . S
H1977 C1988 0.950 . S
H1978 C1990 0.950 . S
H1979 C1991 0.950 . S
C1980 H1972 0.950 . S
C1980 C1981 1.386 . S
C1980 C1982 1.391 . S
C1981 C1980 1.386 . S
C1981 C1985 1.393 . S
C1982 H1974 0.950 . S
C1982 C1980 1.391 . S
C1982 C1983 1.400 . S
C1983 C1982 1.400 . S
C1983 C1984 1.398 . S
C1983 C1989 1.491 . S
C1984 H1975 0.950 . S
C1984 C1983 1.398 . S
C1984 C1985 1.391 . S
C1985 H1973 0.950 . S
C1985 C1981 1.393 . S
C1985 C1984 1.391 . S
C1986 H1976 0.950 . S
C1986 C1987 1.386 . S
C1986 C1988 1.391 . S
C1987 C1986 1.386 . S
C1987 C1991 1.393 . S
C1988 H1977 0.950 . S
C1988 C1986 1.391 . S
C1988 C1989 1.400 . S
C1989 C1983 1.491 . S
C1989 C1988 1.400 . S
C1989 C1990 1.398 . S
C1990 H1978 0.950 . S
C1990 C1989 1.398 . S
C1990 C1991 1.391 . S
C1991 H1979 0.950 . S
C1991 C1987 1.393 . S
C1991 C1990 1.391 . S
H1992 C2000 0.950 . S
H1993 C2005 0.950 . S
H1994 C2002 0.950 . S
H1995 C2004 0.950 . S
H1996 C2006 0.950 . S
H1997 C2008 0.950 . S
H1998 C2010 0.950 . S
H1999 C2011 0.950 . S
C2000 H1992 0.950 . S
C2000 C2001 1.386 . S
C2000 C2002 1.391 . S
C2001 C2000 1.386 . S
C2001 C2005 1.393 . S
C2002 H1994 0.950 . S
C2002 C2000 1.391 . S
C2002 C2003 1.400 . S
C2003 C2002 1.400 . S
C2003 C2004 1.398 . S
C2003 C2009 1.491 . S
C2004 H1995 0.950 . S
C2004 C2003 1.398 . S
C2004 C2005 1.391 . S
C2005 H1993 0.950 . S
C2005 C2001 1.393 . S
C2005 C2004 1.391 . S
C2006 H1996 0.950 . S
C2006 C2007 1.386 . S
C2006 C2008 1.391 . S
C2007 C2006 1.386 . S
C2007 C2011 1.393 . S
C2008 H1997 0.950 . S
C2008 C2006 1.391 . S
C2008 C2009 1.400 . S
C2009 C2003 1.491 . S
C2009 C2008 1.400 . S
C2009 C2010 1.398 . S
C2010 H1998 0.950 . S
C2010 C2009 1.398 . S
C2010 C2011 1.391 . S
C2011 H1999 0.950 . S
C2011 C2007 1.393 . S
C2011 C2010 1.391 . S
H2012 C2020 0.950 . S
H2013 C2025 0.950 . S
H2014 C2022 0.950 . S
H2015 C2024 0.950 . S
H2016 C2026 0.950 . S
H2017 C2028 0.950 . S
H2018 C2030 0.950 . S
H2019 C2031 0.950 . S
C2020 H2012 0.950 . S
C2020 C2021 1.386 . S
C2020 C2022 1.391 . S
C2021 C2020 1.386 . S
C2021 C2025 1.393 . S
C2022 H2014 0.950 . S
C2022 C2020 1.391 . S
C2022 C2023 1.400 . S
C2023 C2022 1.400 . S
C2023 C2024 1.398 . S
C2023 C2029 1.491 . S
C2024 H2015 0.950 . S
C2024 C2023 1.398 . S
C2024 C2025 1.391 . S
C2025 H2013 0.950 . S
C2025 C2021 1.393 . S
C2025 C2024 1.391 . S
C2026 H2016 0.950 . S
C2026 C2027 1.386 . S
C2026 C2028 1.391 . S
C2027 C2026 1.386 . S
C2027 C2031 1.393 . S
C2028 H2017 0.950 . S
C2028 C2026 1.391 . S
C2028 C2029 1.400 . S
C2029 C2023 1.491 . S
C2029 C2028 1.400 . S
C2029 C2030 1.398 . S
C2030 H2018 0.950 . S
C2030 C2029 1.398 . S
C2030 C2031 1.391 . S
C2031 H2019 0.950 . S
C2031 C2027 1.393 . S
C2031 C2030 1.391 . S
H2032 C2040 0.950 . S
H2033 C2045 0.950 . S
H2034 C2042 0.950 . S
H2035 C2044 0.950 . S
H2036 C2046 0.950 . S
H2037 C2048 0.950 . S
H2038 C2050 0.950 . S
H2039 C2051 0.950 . S
C2040 H2032 0.950 . S
C2040 C2041 1.386 . S
C2040 C2042 1.391 . S
C2041 C2040 1.386 . S
C2041 C2045 1.393 . S
C2042 H2034 0.950 . S
C2042 C2040 1.391 . S
C2042 C2043 1.400 . S
C2043 C2042 1.400 . S
C2043 C2044 1.398 . S
C2043 C2049 1.491 . S
C2044 H2035 0.950 . S
C2044 C2043 1.398 . S
C2044 C2045 1.391 . S
C2045 H2033 0.950 . S
C2045 C2041 1.393 . S
C2045 C2044 1.391 . S
C2046 H2036 0.950 . S
C2046 C2047 1.386 . S
C2046 C2048 1.391 . S
C2047 C2046 1.386 . S
C2047 C2051 1.393 . S
C2048 H2037 0.950 . S
C2048 C2046 1.391 . S
C2048 C2049 1.400 . S
C2049 C2043 1.491 . S
C2049 C2048 1.400 . S
C2049 C2050 1.398 . S
C2050 H2038 0.950 . S
C2050 C2049 1.398 . S
C2050 C2051 1.391 . S
C2051 H2039 0.950 . S
C2051 C2047 1.393 . S
C2051 C2050 1.391 . S
H2052 C2060 0.950 . S
H2053 C2065 0.950 . S
H2054 C2062 0.950 . S
H2055 C2064 0.950 . S
H2056 C2066 0.950 . S
H2057 C2068 0.950 . S
H2058 C2070 0.950 . S
H2059 C2071 0.950 . S
C2060 H2052 0.950 . S
C2060 C2061 1.386 . S
C2060 C2062 1.391 . S
C2061 C2060 1.386 . S
C2061 C2065 1.393 . S
C2062 H2054 0.950 . S
C2062 C2060 1.391 . S
C2062 C2063 1.400 . S
C2063 C2062 1.400 . S
C2063 C2064 1.398 . S
C2063 C2069 1.491 . S
C2064 H2055 0.950 . S
C2064 C2063 1.398 . S
C2064 C2065 1.391 . S
C2065 H2053 0.950 . S
C2065 C2061 1.393 . S
C2065 C2064 1.391 . S
C2066 H2056 0.950 . S
C2066 C2067 1.386 . S
C2066 C2068 1.391 . S
C2067 C2066 1.386 . S
C2067 C2071 1.393 . S
C2068 H2057 0.950 . S
C2068 C2066 1.391 . S
C2068 C2069 1.400 . S
C2069 C2063 1.491 . S
C2069 C2068 1.400 . S
C2069 C2070 1.398 . S
C2070 H2058 0.950 . S
C2070 C2069 1.398 . S
C2070 C2071 1.391 . S
C2071 H2059 0.950 . S
C2071 C2067 1.393 . S
C2071 C2070 1.391 . S
H2072 C2080 0.950 . S
H2073 C2085 0.950 . S
H2074 C2082 0.950 . S
H2075 C2084 0.950 . S
H2076 C2086 0.950 . S
H2077 C2088 0.950 . S
H2078 C2090 0.950 . S
H2079 C2091 0.950 . S
C2080 H2072 0.950 . S
C2080 C2081 1.386 . S
C2080 C2082 1.391 . S
C2081 C2080 1.386 . S
C2081 C2085 1.393 . S
C2082 H2074 0.950 . S
C2082 C2080 1.391 . S
C2082 C2083 1.400 . S
C2083 C2082 1.400 . S
C2083 C2084 1.398 . S
C2083 C2089 1.491 . S
C2084 H2075 0.950 . S
C2084 C2083 1.398 . S
C2084 C2085 1.391 . S
C2085 H2073 0.950 . S
C2085 C2081 1.393 . S
C2085 C2084 1.391 . S
C2086 H2076 0.950 . S
C2086 C2087 1.386 . S
C2086 C2088 1.391 . S
C2087 C2086 1.386 . S
C2087 C2091 1.393 . S
C2088 H2077 0.950 . S
C2088 C2086 1.391 . S
C2088 C2089 1.400 . S
C2089 C2083 1.491 . S
C2089 C2088 1.400 . S
C2089 C2090 1.398 . S
C2090 H2078 0.950 . S
C2090 C2089 1.398 . S
C2090 C2091 1.391 . S
C2091 H2079 0.950 . S
C2091 C2087 1.393 . S
C2091 C2090 1.391 . S
H2092 C2100 0.950 . S
H2093 C2105 0.950 . S
H2094 C2102 0.950 . S
H2095 C2104 0.950 . S
H2096 C2106 0.950 . S
H2097 C2108 0.950 . S
H2098 C2110 0.950 . S
H2099 C2111 0.950 . S
C2100 H2092 0.950 . S
C2100 C2101 1.386 . S
C2100 C2102 1.391 . S
C2101 C2100 1.386 . S
C2101 C2105 1.393 . S
C2102 H2094 0.950 . S
C2102 C2100 1.391 . S
C2102 C2103 1.400 . S
C2103 C2102 1.400 . S
C2103 C2104 1.398 . S
C2103 C2109 1.491 . S
C2104 H2095 0.950 . S
C2104 C2103 1.398 . S
C2104 C2105 1.391 . S
C2105 H2093 0.950 . S
C2105 C2101 1.393 . S
C2105 C2104 1.391 . S
C2106 H2096 0.950 . S
C2106 C2107 1.386 . S
C2106 C2108 1.391 . S
C2107 C2106 1.386 . S
C2107 C2111 1.393 . S
C2108 H2097 0.950 . S
C2108 C2106 1.391 . S
C2108 C2109 1.400 . S
C2109 C2103 1.491 . S
C2109 C2108 1.400 . S
C2109 C2110 1.398 . S
C2110 H2098 0.950 . S
C2110 C2109 1.398 . S
C2110 C2111 1.391 . S
C2111 H2099 0.950 . S
C2111 C2107 1.393 . S
C2111 C2110 1.391 . S
H2112 C2120 0.950 . S
H2113 C2125 0.950 . S
H2114 C2122 0.950 . S
H2115 C2124 0.950 . S
H2116 C2126 0.950 . S
H2117 C2128 0.950 . S
H2118 C2130 0.950 . S
H2119 C2131 0.950 . S
C2120 H2112 0.950 . S
C2120 C2121 1.386 . S
C2120 C2122 1.391 . S
C2121 C2120 1.386 . S
C2121 C2125 1.393 . S
C2122 H2114 0.950 . S
C2122 C2120 1.391 . S
C2122 C2123 1.400 . S
C2123 C2122 1.400 . S
C2123 C2124 1.398 . S
C2123 C2129 1.491 . S
C2124 H2115 0.950 . S
C2124 C2123 1.398 . S
C2124 C2125 1.391 . S
C2125 H2113 0.950 . S
C2125 C2121 1.393 . S
C2125 C2124 1.391 . S
C2126 H2116 0.950 . S
C2126 C2127 1.386 . S
C2126 C2128 1.391 . S
C2127 C2126 1.386 . S
C2127 C2131 1.393 . S
C2128 H2117 0.950 . S
C2128 C2126 1.391 . S
C2128 C2129 1.400 . S
C2129 C2123 1.491 . S
C2129 C2128 1.400 . S
C2129 C2130 1.398 . S
C2130 H2118 0.950 . S
C2130 C2129 1.398 . S
C2130 C2131 1.391 . S
C2131 H2119 0.950 . S
C2131 C2127 1.393 . S
C2131 C2130 1.391 . S
H2132 C2140 0.950 . S
H2133 C2145 0.950 . S
H2134 C2142 0.950 . S
H2135 C2144 0.950 . S
H2136 C2146 0.950 . S
H2137 C2148 0.950 . S
H2138 C2150 0.950 . S
H2139 C2151 0.950 . S
C2140 H2132 0.950 . S
C2140 C2141 1.386 . S
C2140 C2142 1.391 . S
C2141 C2140 1.386 . S
C2141 C2145 1.393 . S
C2142 H2134 0.950 . S
C2142 C2140 1.391 . S
C2142 C2143 1.400 . S
C2143 C2142 1.400 . S
C2143 C2144 1.398 . S
C2143 C2149 1.491 . S
C2144 H2135 0.950 . S
C2144 C2143 1.398 . S
C2144 C2145 1.391 . S
C2145 H2133 0.950 . S
C2145 C2141 1.393 . S
C2145 C2144 1.391 . S
C2146 H2136 0.950 . S
C2146 C2147 1.386 . S
C2146 C2148 1.391 . S
C2147 C2146 1.386 . S
C2147 C2151 1.393 . S
C2148 H2137 0.950 . S
C2148 C2146 1.391 . S
C2148 C2149 1.400 . S
C2149 C2143 1.491 . S
C2149 C2148 1.400 . S
C2149 C2150 1.398 . S
C2150 H2138 0.950 . S
C2150 C2149 1.398 . S
C2150 C2151 1.391 . S
C2151 H2139 0.950 . S
C2151 C2147 1.393 . S
C2151 C2150 1.391 . S
H2152 C2160 0.950 . S
H2153 C2165 0.950 . S
H2154 C2162 0.950 . S
H2155 C2164 0.950 . S
H2156 C2166 0.950 . S
H2157 C2168 0.950 . S
H2158 C2170 0.950 . S
H2159 C2171 0.950 . S
C2160 H2152 0.950 . S
C2160 C2161 1.386 . S
C2160 C2162 1.391 . S
C2161 C2160 1.386 . S
C2161 C2165 1.393 . S
C2162 H2154 0.950 . S
C2162 C2160 1.391 . S
C2162 C2163 1.400 . S
C2163 C2162 1.400 . S
C2163 C2164 1.398 . S
C2163 C2169 1.491 . S
C2164 H2155 0.950 . S
C2164 C2163 1.398 . S
C2164 C2165 1.391 . S
C2165 H2153 0.950 . S
C2165 C2161 1.393 . S
C2165 C2164 1.391 . S
C2166 H2156 0.950 . S
C2166 C2167 1.386 . S
C2166 C2168 1.391 . S
C2167 C2166 1.386 . S
C2167 C2171 1.393 . S
C2168 H2157 0.950 . S
C2168 C2166 1.391 . S
C2168 C2169 1.400 . S
C2169 C2163 1.491 . S
C2169 C2168 1.400 . S
C2169 C2170 1.398 . S
C2170 H2158 0.950 . S
C2170 C2169 1.398 . S
C2170 C2171 1.391 . S
C2171 H2159 0.950 . S
C2171 C2167 1.393 . S
C2171 C2170 1.391 . S
H2172 C2180 0.950 . S
H2173 C2185 0.950 . S
H2174 C2182 0.950 . S
H2175 C2184 0.950 . S
H2176 C2186 0.950 . S
H2177 C2188 0.950 . S
H2178 C2190 0.950 . S
H2179 C2191 0.950 . S
C2180 H2172 0.950 . S
C2180 C2181 1.386 . S
C2180 C2182 1.391 . S
C2181 C2180 1.386 . S
C2181 C2185 1.393 . S
C2182 H2174 0.950 . S
C2182 C2180 1.391 . S
C2182 C2183 1.400 . S
C2183 C2182 1.400 . S
C2183 C2184 1.398 . S
C2183 C2189 1.491 . S
C2184 H2175 0.950 . S
C2184 C2183 1.398 . S
C2184 C2185 1.391 . S
C2185 H2173 0.950 . S
C2185 C2181 1.393 . S
C2185 C2184 1.391 . S
C2186 H2176 0.950 . S
C2186 C2187 1.386 . S
C2186 C2188 1.391 . S
C2187 C2186 1.386 . S
C2187 C2191 1.393 . S
C2188 H2177 0.950 . S
C2188 C2186 1.391 . S
C2188 C2189 1.400 . S
C2189 C2183 1.491 . S
C2189 C2188 1.400 . S
C2189 C2190 1.398 . S
C2190 H2178 0.950 . S
C2190 C2189 1.398 . S
C2190 C2191 1.391 . S
C2191 H2179 0.950 . S
C2191 C2187 1.393 . S
C2191 C2190 1.391 . S
H2192 C2200 0.950 . S
H2193 C2205 0.950 . S
H2194 C2202 0.950 . S
H2195 C2204 0.950 . S
H2196 C2206 0.950 . S
H2197 C2208 0.950 . S
H2198 C2210 0.950 . S
H2199 C2211 0.950 . S
C2200 H2192 0.950 . S
C2200 C2201 1.386 . S
C2200 C2202 1.391 . S
C2201 C2200 1.386 . S
C2201 C2205 1.393 . S
C2202 H2194 0.950 . S
C2202 C2200 1.391 . S
C2202 C2203 1.400 . S
C2203 C2202 1.400 . S
C2203 C2204 1.398 . S
C2203 C2209 1.491 . S
C2204 H2195 0.950 . S
C2204 C2203 1.398 . S
C2204 C2205 1.391 . S
C2205 H2193 0.950 . S
C2205 C2201 1.393 . S
C2205 C2204 1.391 . S
C2206 H2196 0.950 . S
C2206 C2207 1.386 . S
C2206 C2208 1.391 . S
C2207 C2206 1.386 . S
C2207 C2211 1.393 . S
C2208 H2197 0.950 . S
C2208 C2206 1.391 . S
C2208 C2209 1.400 . S
C2209 C2203 1.491 . S
C2209 C2208 1.400 . S
C2209 C2210 1.398 . S
C2210 H2198 0.950 . S
C2210 C2209 1.398 . S
C2210 C2211 1.391 . S
C2211 H2199 0.950 . S
C2211 C2207 1.393 . S
C2211 C2210 1.391 . S
H2212 C2220 0.950 . S
H2213 C2225 0.950 . S
H2214 C2222 0.950 . S
H2215 C2224 0.950 . S
H2216 C2226 0.950 . S
H2217 C2228 0.950 . S
H2218 C2230 0.950 . S
H2219 C2231 0.950 . S
C2220 H2212 0.950 . S
C2220 C2221 1.386 . S
C2220 C2222 1.391 . S
C2221 C2220 1.386 . S
C2221 C2225 1.393 . S
C2222 H2214 0.950 . S
C2222 C2220 1.391 . S
C2222 C2223 1.400 . S
C2223 C2222 1.400 . S
C2223 C2224 1.398 . S
C2223 C2229 1.491 . S
C2224 H2215 0.950 . S
C2224 C2223 1.398 . S
C2224 C2225 1.391 . S
C2225 H2213 0.950 . S
C2225 C2221 1.393 . S
C2225 C2224 1.391 . S
C2226 H2216 0.950 . S
C2226 C2227 1.386 . S
C2226 C2228 1.391 . S
C2227 C2226 1.386 . S
C2227 C2231 1.393 . S
C2228 H2217 0.950 . S
C2228 C2226 1.391 . S
C2228 C2229 1.400 . S
C2229 C2223 1.491 . S
C2229 C2228 1.400 . S
C2229 C2230 1.398 . S
C2230 H2218 0.950 . S
C2230 C2229 1.398 . S
C2230 C2231 1.391 . S
C2231 H2219 0.950 . S
C2231 C2227 1.393 . S
C2231 C2230 1.391 . S
H2232 C2240 0.950 . S
H2233 C2245 0.950 . S
H2234 C2242 0.950 . S
H2235 C2244 0.950 . S
H2236 C2246 0.950 . S
H2237 C2248 0.950 . S
H2238 C2250 0.950 . S
H2239 C2251 0.950 . S
C2240 H2232 0.950 . S
C2240 C2241 1.386 . S
C2240 C2242 1.391 . S
C2241 C2240 1.386 . S
C2241 C2245 1.393 1_655 S
C2242 H2234 0.950 . S
C2242 C2240 1.391 . S
C2242 C2243 1.400 . S
C2243 C2242 1.400 . S
C2243 C2244 1.398 1_655 S
C2243 C2249 1.491 1_655 S
C2244 H2235 0.950 . S
C2244 C2243 1.398 1_455 S
C2244 C2245 1.391 . S
C2245 H2233 0.950 . S
C2245 C2241 1.393 1_455 S
C2245 C2244 1.391 . S
C2246 H2236 0.950 . S
C2246 C2247 1.386 . S
C2246 C2248 1.391 . S
C2247 C2246 1.386 . S
C2247 C2251 1.393 1_455 S
C2248 H2237 0.950 . S
C2248 C2246 1.391 . S
C2248 C2249 1.400 . S
C2249 C2243 1.491 1_455 S
C2249 C2248 1.400 . S
C2249 C2250 1.398 1_455 S
C2250 H2238 0.950 . S
C2250 C2249 1.398 1_655 S
C2250 C2251 1.391 . S
C2251 H2239 0.950 . S
C2251 C2247 1.393 1_655 S
C2251 C2250 1.391 . S
H2252 C2260 0.950 . S
H2253 C2265 0.950 . S
H2254 C2262 0.950 . S
H2255 C2264 0.950 . S
H2256 C2266 0.950 . S
H2257 C2268 0.950 . S
H2258 C2270 0.950 . S
H2259 C2271 0.950 . S
C2260 H2252 0.950 . S
C2260 C2261 1.386 . S
C2260 C2262 1.391 . S
C2261 C2260 1.386 . S
C2261 C2265 1.393 . S
C2262 H2254 0.950 . S
C2262 C2260 1.391 . S
C2262 C2263 1.400 . S
C2263 C2262 1.400 . S
C2263 C2264 1.398 . S
C2263 C2269 1.491 . S
C2264 H2255 0.950 . S
C2264 C2263 1.398 . S
C2264 C2265 1.391 . S
C2265 H2253 0.950 . S
C2265 C2261 1.393 . S
C2265 C2264 1.391 . S
C2266 H2256 0.950 . S
C2266 C2267 1.386 . S
C2266 C2268 1.391 . S
C2267 C2266 1.386 . S
C2267 C2271 1.393 . S
C2268 H2257 0.950 . S
C2268 C2266 1.391 . S
C2268 C2269 1.400 . S
C2269 C2263 1.491 . S
C2269 C2268 1.400 . S
C2269 C2270 1.398 . S
C2270 H2258 0.950 . S
C2270 C2269 1.398 . S
C2270 C2271 1.391 . S
C2271 H2259 0.950 . S
C2271 C2267 1.393 . S
C2271 C2270 1.391 . S
H2272 C2280 0.950 . S
H2273 C2285 0.950 . S
H2274 C2282 0.950 . S
H2275 C2284 0.950 1_565 S
H2276 C2286 0.950 . S
H2277 C2288 0.950 . S
H2278 C2290 0.950 1_545 S
H2279 C2291 0.950 . S
C2280 H2272 0.950 . S
C2280 C2281 1.386 . S
C2280 C2282 1.391 . S
C2281 C2280 1.386 . S
C2281 C2285 1.393 . S
C2282 H2274 0.950 . S
C2282 C2280 1.391 . S
C2282 C2283 1.400 . S
C2283 C2282 1.400 . S
C2283 C2284 1.398 . S
C2283 C2289 1.491 1_545 S
C2284 H2275 0.950 1_545 S
C2284 C2283 1.398 . S
C2284 C2285 1.391 . S
C2285 H2273 0.950 . S
C2285 C2281 1.393 . S
C2285 C2284 1.391 . S
C2286 H2276 0.950 . S
C2286 C2287 1.386 . S
C2286 C2288 1.391 . S
C2287 C2286 1.386 . S
C2287 C2291 1.393 . S
C2288 H2277 0.950 . S
C2288 C2286 1.391 . S
C2288 C2289 1.400 . S
C2289 C2283 1.491 1_565 S
C2289 C2288 1.400 . S
C2289 C2290 1.398 . S
C2290 H2278 0.950 1_565 S
C2290 C2289 1.398 . S
C2290 C2291 1.391 . S
C2291 H2279 0.950 . S
C2291 C2287 1.393 . S
C2291 C2290 1.391 . S
H2292 C2300 0.950 . S
H2293 C2305 0.950 . S
H2294 C2302 0.950 . S
H2295 C2304 0.950 . S
H2296 C2306 0.950 . S
H2297 C2308 0.950 . S
H2298 C2310 0.950 . S
H2299 C2311 0.950 . S
C2300 H2292 0.950 . S
C2300 C2301 1.386 . S
C2300 C2302 1.391 . S
C2301 C2300 1.386 . S
C2301 C2305 1.393 . S
C2302 H2294 0.950 . S
C2302 C2300 1.391 . S
C2302 C2303 1.400 . S
C2303 C2302 1.400 . S
C2303 C2304 1.398 1_455 S
C2303 C2309 1.491 1_455 S
C2304 H2295 0.950 . S
C2304 C2303 1.398 1_655 S
C2304 C2305 1.391 1_655 S
C2305 H2293 0.950 . S
C2305 C2301 1.393 . S
C2305 C2304 1.391 1_455 S
C2306 H2296 0.950 . S
C2306 C2307 1.386 . S
C2306 C2308 1.391 . S
C2307 C2306 1.386 . S
C2307 C2311 1.393 . S
C2308 H2297 0.950 . S
C2308 C2306 1.391 . S
C2308 C2309 1.400 . S
C2309 C2303 1.491 1_655 S
C2309 C2308 1.400 . S
C2309 C2310 1.398 1_655 S
C2310 H2298 0.950 . S
C2310 C2309 1.398 1_455 S
C2310 C2311 1.391 1_455 S
C2311 H2299 0.950 . S
C2311 C2307 1.393 . S
C2311 C2310 1.391 1_655 S
H2312 C2320 0.950 . S
H2313 C2325 0.950 . S
H2314 C2322 0.950 . S
H2315 C2324 0.950 . S
H2316 C2326 0.950 . S
H2317 C2328 0.950 . S
H2318 C2330 0.950 . S
H2319 C2331 0.950 . S
C2320 H2312 0.950 . S
C2320 C2321 1.386 . S
C2320 C2322 1.391 . S
C2321 C2320 1.386 . S
C2321 C2325 1.393 . S
C2322 H2314 0.950 . S
C2322 C2320 1.391 . S
C2322 C2323 1.400 . S
C2323 C2322 1.400 . S
C2323 C2324 1.398 . S
C2323 C2329 1.491 . S
C2324 H2315 0.950 . S
C2324 C2323 1.398 . S
C2324 C2325 1.391 . S
C2325 H2313 0.950 . S
C2325 C2321 1.393 . S
C2325 C2324 1.391 . S
C2326 H2316 0.950 . S
C2326 C2327 1.386 . S
C2326 C2328 1.391 . S
C2327 C2326 1.386 . S
C2327 C2331 1.393 . S
C2328 H2317 0.950 . S
C2328 C2326 1.391 . S
C2328 C2329 1.400 . S
C2329 C2323 1.491 . S
C2329 C2328 1.400 . S
C2329 C2330 1.398 . S
C2330 H2318 0.950 . S
C2330 C2329 1.398 . S
C2330 C2331 1.391 . S
C2331 H2319 0.950 . S
C2331 C2327 1.393 . S
C2331 C2330 1.391 . S
H2332 C2340 0.950 . S
H2333 C2345 0.950 . S
H2334 C2342 0.950 . S
H2335 C2344 0.950 . S
H2336 C2346 0.950 . S
H2337 C2348 0.950 . S
H2338 C2350 0.950 . S
H2339 C2351 0.950 . S
C2340 H2332 0.950 . S
C2340 C2341 1.386 1_565 S
C2340 C2342 1.391 . S
C2341 C2340 1.386 1_545 S
C2341 C2345 1.393 . S
C2342 H2334 0.950 . S
C2342 C2340 1.391 . S
C2342 C2343 1.400 1_565 S
C2343 C2342 1.400 1_545 S
C2343 C2344 1.398 . S
C2343 C2349 1.491 1_545 S
C2344 H2335 0.950 . S
C2344 C2343 1.398 . S
C2344 C2345 1.391 . S
C2345 H2333 0.950 . S
C2345 C2341 1.393 . S
C2345 C2344 1.391 . S
C2346 H2336 0.950 . S
C2346 C2347 1.386 1_545 S
C2346 C2348 1.391 . S
C2347 C2346 1.386 1_565 S
C2347 C2351 1.393 . S
C2348 H2337 0.950 . S
C2348 C2346 1.391 . S
C2348 C2349 1.400 1_545 S
C2349 C2343 1.491 1_565 S
C2349 C2348 1.400 1_565 S
C2349 C2350 1.398 . S
C2350 H2338 0.950 . S
C2350 C2349 1.398 . S
C2350 C2351 1.391 . S
C2351 H2339 0.950 . S
C2351 C2347 1.393 . S
C2351 C2350 1.391 . S
H2352 C2360 0.950 . S
H2353 C2365 0.950 . S
H2354 C2362 0.950 . S
H2355 C2364 0.950 . S
H2356 C2366 0.950 . S
H2357 C2368 0.950 . S
H2358 C2370 0.950 . S
H2359 C2371 0.950 . S
C2360 H2352 0.950 . S
C2360 C2361 1.386 . S
C2360 C2362 1.391 . S
C2361 C2360 1.386 . S
C2361 C2365 1.393 . S
C2362 H2354 0.950 . S
C2362 C2360 1.391 . S
C2362 C2363 1.400 . S
C2363 C2362 1.400 . S
C2363 C2364 1.398 . S
C2363 C2369 1.491 . S
C2364 H2355 0.950 . S
C2364 C2363 1.398 . S
C2364 C2365 1.391 . S
C2365 H2353 0.950 . S
C2365 C2361 1.393 . S
C2365 C2364 1.391 . S
C2366 H2356 0.950 . S
C2366 C2367 1.386 . S
C2366 C2368 1.391 . S
C2367 C2366 1.386 . S
C2367 C2371 1.393 . S
C2368 H2357 0.950 . S
C2368 C2366 1.391 . S
C2368 C2369 1.400 . S
C2369 C2363 1.491 . S
C2369 C2368 1.400 . S
C2369 C2370 1.398 . S
C2370 H2358 0.950 . S
C2370 C2369 1.398 . S
C2370 C2371 1.391 . S
C2371 H2359 0.950 . S
C2371 C2367 1.393 . S
C2371 C2370 1.391 . S
H2372 C2380 0.950 . S
H2373 C2385 0.950 . S
H2374 C2382 0.950 . S
H2375 C2384 0.950 . S
H2376 C2386 0.950 . S
H2377 C2388 0.950 . S
H2378 C2390 0.950 . S
H2379 C2391 0.950 . S
C2380 H2372 0.950 . S
C2380 C2381 1.386 . S
C2380 C2382 1.391 . S
C2381 C2380 1.386 . S
C2381 C2385 1.393 . S
C2382 H2374 0.950 . S
C2382 C2380 1.391 . S
C2382 C2383 1.400 . S
C2383 C2382 1.400 . S
C2383 C2384 1.398 . S
C2383 C2389 1.491 . S
C2384 H2375 0.950 . S
C2384 C2383 1.398 . S
C2384 C2385 1.391 . S
C2385 H2373 0.950 . S
C2385 C2381 1.393 . S
C2385 C2384 1.391 . S
C2386 H2376 0.950 . S
C2386 C2387 1.386 . S
C2386 C2388 1.391 . S
C2387 C2386 1.386 . S
C2387 C2391 1.393 . S
C2388 H2377 0.950 . S
C2388 C2386 1.391 . S
C2388 C2389 1.400 . S
C2389 C2383 1.491 . S
C2389 C2388 1.400 . S
C2389 C2390 1.398 . S
C2390 H2378 0.950 . S
C2390 C2389 1.398 . S
C2390 C2391 1.391 . S
C2391 H2379 0.950 . S
C2391 C2387 1.393 . S
C2391 C2390 1.391 . S
H2392 C2400 0.950 . S
H2393 C2405 0.950 . S
H2394 C2402 0.950 . S
H2395 C2404 0.950 . S
H2396 C2406 0.950 . S
H2397 C2408 0.950 . S
H2398 C2410 0.950 . S
H2399 C2411 0.950 . S
C2400 H2392 0.950 . S
C2400 C2401 1.386 . S
C2400 C2402 1.391 . S
C2401 C2400 1.386 . S
C2401 C2405 1.393 . S
C2402 H2394 0.950 . S
C2402 C2400 1.391 . S
C2402 C2403 1.400 . S
C2403 C2402 1.400 . S
C2403 C2404 1.398 . S
C2403 C2409 1.491 . S
C2404 H2395 0.950 . S
C2404 C2403 1.398 . S
C2404 C2405 1.391 . S
C2405 H2393 0.950 . S
C2405 C2401 1.393 . S
C2405 C2404 1.391 . S
C2406 H2396 0.950 . S
C2406 C2407 1.386 . S
C2406 C2408 1.391 . S
C2407 C2406 1.386 . S
C2407 C2411 1.393 . S
C2408 H2397 0.950 . S
C2408 C2406 1.391 . S
C2408 C2409 1.400 . S
C2409 C2403 1.491 . S
C2409 C2408 1.400 . S
C2409 C2410 1.398 . S
C2410 H2398 0.950 . S
C2410 C2409 1.398 . S
C2410 C2411 1.391 . S
C2411 H2399 0.950 . S
C2411 C2407 1.393 . S
C2411 C2410 1.391 . S
H2412 C2420 0.950 . S
H2413 C2425 0.950 . S
H2414 C2422 0.950 . S
H2415 C2424 0.950 . S
H2416 C2426 0.950 . S
H2417 C2428 0.950 . S
H2418 C2430 0.950 . S
H2419 C2431 0.950 . S
C2420 H2412 0.950 . S
C2420 C2421 1.386 . S
C2420 C2422 1.391 . S
C2421 C2420 1.386 . S
C2421 C2425 1.393 . S
C2422 H2414 0.950 . S
C2422 C2420 1.391 . S
C2422 C2423 1.400 . S
C2423 C2422 1.400 . S
C2423 C2424 1.398 . S
C2423 C2429 1.491 . S
C2424 H2415 0.950 . S
C2424 C2423 1.398 . S
C2424 C2425 1.391 . S
C2425 H2413 0.950 . S
C2425 C2421 1.393 . S
C2425 C2424 1.391 . S
C2426 H2416 0.950 . S
C2426 C2427 1.386 . S
C2426 C2428 1.391 . S
C2427 C2426 1.386 . S
C2427 C2431 1.393 . S
C2428 H2417 0.950 . S
C2428 C2426 1.391 . S
C2428 C2429 1.400 . S
C2429 C2423 1.491 . S
C2429 C2428 1.400 . S
C2429 C2430 1.398 . S
C2430 H2418 0.950 . S
C2430 C2429 1.398 . S
C2430 C2431 1.391 . S
C2431 H2419 0.950 . S
C2431 C2427 1.393 . S
C2431 C2430 1.391 . S
H2432 C2440 0.950 . S
H2433 C2445 0.950 . S
H2434 C2442 0.950 . S
H2435 C2444 0.950 . S
H2436 C2446 0.950 . S
H2437 C2448 0.950 . S
H2438 C2450 0.950 . S
H2439 C2451 0.950 . S
C2440 H2432 0.950 . S
C2440 C2441 1.386 . S
C2440 C2442 1.391 . S
C2441 C2440 1.386 . S
C2441 C2445 1.393 . S
C2442 H2434 0.950 . S
C2442 C2440 1.391 . S
C2442 C2443 1.400 . S
C2443 C2442 1.400 . S
C2443 C2444 1.398 . S
C2443 C2449 1.491 . S
C2444 H2435 0.950 . S
C2444 C2443 1.398 . S
C2444 C2445 1.391 . S
C2445 H2433 0.950 . S
C2445 C2441 1.393 . S
C2445 C2444 1.391 . S
C2446 H2436 0.950 . S
C2446 C2447 1.386 . S
C2446 C2448 1.391 . S
C2447 C2446 1.386 . S
C2447 C2451 1.393 . S
C2448 H2437 0.950 . S
C2448 C2446 1.391 . S
C2448 C2449 1.400 . S
C2449 C2443 1.491 . S
C2449 C2448 1.400 . S
C2449 C2450 1.398 . S
C2450 H2438 0.950 . S
C2450 C2449 1.398 . S
C2450 C2451 1.391 . S
C2451 H2439 0.950 . S
C2451 C2447 1.393 . S
C2451 C2450 1.391 . S
H2452 C2460 0.950 . S
H2453 C2465 0.950 . S
H2454 C2462 0.950 . S
H2455 C2464 0.950 . S
H2456 C2466 0.950 . S
H2457 C2468 0.950 . S
H2458 C2470 0.950 . S
H2459 C2471 0.950 . S
C2460 H2452 0.950 . S
C2460 C2461 1.386 . S
C2460 C2462 1.391 . S
C2461 C2460 1.386 . S
C2461 C2465 1.393 . S
C2462 H2454 0.950 . S
C2462 C2460 1.391 . S
C2462 C2463 1.400 . S
C2463 C2462 1.400 . S
C2463 C2464 1.398 . S
C2463 C2469 1.491 . S
C2464 H2455 0.950 . S
C2464 C2463 1.398 . S
C2464 C2465 1.391 . S
C2465 H2453 0.950 . S
C2465 C2461 1.393 . S
C2465 C2464 1.391 . S
C2466 H2456 0.950 . S
C2466 C2467 1.386 . S
C2466 C2468 1.391 . S
C2467 C2466 1.386 . S
C2467 C2471 1.393 . S
C2468 H2457 0.950 . S
C2468 C2466 1.391 . S
C2468 C2469 1.400 . S
C2469 C2463 1.491 . S
C2469 C2468 1.400 . S
C2469 C2470 1.398 . S
C2470 H2458 0.950 . S
C2470 C2469 1.398 . S
C2470 C2471 1.391 . S
C2471 H2459 0.950 . S
C2471 C2467 1.393 . S
C2471 C2470 1.391 . S
H2472 C2480 0.950 . S
H2473 C2485 0.950 . S
H2474 C2482 0.950 . S
H2475 C2484 0.950 . S
H2476 C2486 0.950 . S
H2477 C2488 0.950 . S
H2478 C2490 0.950 . S
H2479 C2491 0.950 . S
C2480 H2472 0.950 . S
C2480 C2481 1.386 . S
C2480 C2482 1.391 . S
C2481 C2480 1.386 . S
C2481 C2485 1.393 . S
C2482 H2474 0.950 . S
C2482 C2480 1.391 . S
C2482 C2483 1.400 . S
C2483 C2482 1.400 . S
C2483 C2484 1.398 . S
C2483 C2489 1.491 . S
C2484 H2475 0.950 . S
C2484 C2483 1.398 . S
C2484 C2485 1.391 . S
C2485 H2473 0.950 . S
C2485 C2481 1.393 . S
C2485 C2484 1.391 . S
C2486 H2476 0.950 . S
C2486 C2487 1.386 . S
C2486 C2488 1.391 . S
C2487 C2486 1.386 . S
C2487 C2491 1.393 . S
C2488 H2477 0.950 . S
C2488 C2486 1.391 . S
C2488 C2489 1.400 . S
C2489 C2483 1.491 . S
C2489 C2488 1.400 . S
C2489 C2490 1.398 . S
C2490 H2478 0.950 . S
C2490 C2489 1.398 . S
C2490 C2491 1.391 . S
C2491 H2479 0.950 . S
C2491 C2487 1.393 . S
C2491 C2490 1.391 . S
H2492 C2500 0.950 . S
H2493 C2505 0.950 . S
H2494 C2502 0.950 . S
H2495 C2504 0.950 . S
H2496 C2506 0.950 . S
H2497 C2508 0.950 . S
H2498 C2510 0.950 . S
H2499 C2511 0.950 . S
C2500 H2492 0.950 . S
C2500 C2501 1.386 . S
C2500 C2502 1.391 . S
C2501 C2500 1.386 . S
C2501 C2505 1.393 . S
C2502 H2494 0.950 . S
C2502 C2500 1.391 . S
C2502 C2503 1.400 . S
C2503 C2502 1.400 . S
C2503 C2504 1.398 . S
C2503 C2509 1.491 . S
C2504 H2495 0.950 . S
C2504 C2503 1.398 . S
C2504 C2505 1.391 . S
C2505 H2493 0.950 . S
C2505 C2501 1.393 . S
C2505 C2504 1.391 . S
C2506 H2496 0.950 . S
C2506 C2507 1.386 . S
C2506 C2508 1.391 . S
C2507 C2506 1.386 . S
C2507 C2511 1.393 . S
C2508 H2497 0.950 . S
C2508 C2506 1.391 . S
C2508 C2509 1.400 . S
C2509 C2503 1.491 . S
C2509 C2508 1.400 . S
C2509 C2510 1.398 . S
C2510 H2498 0.950 . S
C2510 C2509 1.398 . S
C2510 C2511 1.391 . S
C2511 H2499 0.950 . S
C2511 C2507 1.393 . S
C2511 C2510 1.391 . S
H2512 C2520 0.950 . S
H2513 C2525 0.950 . S
H2514 C2522 0.950 . S
H2515 C2524 0.950 . S
H2516 C2526 0.950 . S
H2517 C2528 0.950 . S
H2518 C2530 0.950 . S
H2519 C2531 0.950 . S
C2520 H2512 0.950 . S
C2520 C2521 1.386 . S
C2520 C2522 1.391 . S
C2521 C2520 1.386 . S
C2521 C2525 1.393 . S
C2522 H2514 0.950 . S
C2522 C2520 1.391 . S
C2522 C2523 1.400 . S
C2523 C2522 1.400 . S
C2523 C2524 1.398 . S
C2523 C2529 1.491 . S
C2524 H2515 0.950 . S
C2524 C2523 1.398 . S
C2524 C2525 1.391 . S
C2525 H2513 0.950 . S
C2525 C2521 1.393 . S
C2525 C2524 1.391 . S
C2526 H2516 0.950 . S
C2526 C2527 1.386 . S
C2526 C2528 1.391 . S
C2527 C2526 1.386 . S
C2527 C2531 1.393 . S
C2528 H2517 0.950 . S
C2528 C2526 1.391 . S
C2528 C2529 1.400 . S
C2529 C2523 1.491 . S
C2529 C2528 1.400 . S
C2529 C2530 1.398 . S
C2530 H2518 0.950 . S
C2530 C2529 1.398 . S
C2530 C2531 1.391 . S
C2531 H2519 0.950 . S
C2531 C2527 1.393 . S
C2531 C2530 1.391 . S
H2532 C2540 0.950 . S
H2533 C2545 0.950 . S
H2534 C2542 0.950 . S
H2535 C2544 0.950 . S
H2536 C2546 0.950 . S
H2537 C2548 0.950 . S
H2538 C2550 0.950 . S
H2539 C2551 0.950 . S
C2540 H2532 0.950 . S
C2540 C2541 1.386 . S
C2540 C2542 1.391 . S
C2541 C2540 1.386 . S
C2541 C2545 1.393 . S
C2542 H2534 0.950 . S
C2542 C2540 1.391 . S
C2542 C2543 1.400 . S
C2543 C2542 1.400 . S
C2543 C2544 1.398 . S
C2543 C2549 1.491 . S
C2544 H2535 0.950 . S
C2544 C2543 1.398 . S
C2544 C2545 1.391 . S
C2545 H2533 0.950 . S
C2545 C2541 1.393 . S
C2545 C2544 1.391 . S
C2546 H2536 0.950 . S
C2546 C2547 1.386 . S
C2546 C2548 1.391 . S
C2547 C2546 1.386 . S
C2547 C2551 1.393 . S
C2548 H2537 0.950 . S
C2548 C2546 1.391 . S
C2548 C2549 1.400 . S
C2549 C2543 1.491 . S
C2549 C2548 1.400 . S
C2549 C2550 1.398 . S
C2550 H2538 0.950 . S
C2550 C2549 1.398 . S
C2550 C2551 1.391 . S
C2551 H2539 0.950 . S
C2551 C2547 1.393 . S
C2551 C2550 1.391 . S
H2552 C2560 0.950 . S
H2553 C2565 0.950 . S
H2554 C2562 0.950 . S
H2555 C2564 0.950 . S
H2556 C2566 0.950 . S
H2557 C2568 0.950 . S
H2558 C2570 0.950 . S
H2559 C2571 0.950 . S
C2560 H2552 0.950 . S
C2560 C2561 1.386 . S
C2560 C2562 1.391 . S
C2561 C2560 1.386 . S
C2561 C2565 1.393 . S
C2562 H2554 0.950 . S
C2562 C2560 1.391 . S
C2562 C2563 1.400 . S
C2563 C2562 1.400 . S
C2563 C2564 1.398 . S
C2563 C2569 1.491 . S
C2564 H2555 0.950 . S
C2564 C2563 1.398 . S
C2564 C2565 1.391 . S
C2565 H2553 0.950 . S
C2565 C2561 1.393 . S
C2565 C2564 1.391 . S
C2566 H2556 0.950 . S
C2566 C2567 1.386 . S
C2566 C2568 1.391 . S
C2567 C2566 1.386 . S
C2567 C2571 1.393 . S
C2568 H2557 0.950 . S
C2568 C2566 1.391 . S
C2568 C2569 1.400 . S
C2569 C2563 1.491 . S
C2569 C2568 1.400 . S
C2569 C2570 1.398 . S
C2570 H2558 0.950 . S
C2570 C2569 1.398 . S
C2570 C2571 1.391 . S
C2571 H2559 0.950 . S
C2571 C2567 1.393 . S
C2571 C2570 1.391 . S
H2572 C2580 0.950 . S
H2573 C2585 0.950 . S
H2574 C2582 0.950 . S
H2575 C2584 0.950 . S
H2576 C2586 0.950 . S
H2577 C2588 0.950 . S
H2578 C2590 0.950 . S
H2579 C2591 0.950 . S
C2580 H2572 0.950 . S
C2580 C2581 1.386 . S
C2580 C2582 1.391 . S
C2581 C2580 1.386 . S
C2581 C2585 1.393 . S
C2582 H2574 0.950 . S
C2582 C2580 1.391 . S
C2582 C2583 1.400 . S
C2583 C2582 1.400 . S
C2583 C2584 1.398 . S
C2583 C2589 1.491 . S
C2584 H2575 0.950 . S
C2584 C2583 1.398 . S
C2584 C2585 1.391 . S
C2585 H2573 0.950 . S
C2585 C2581 1.393 . S
C2585 C2584 1.391 . S
C2586 H2576 0.950 . S
C2586 C2587 1.386 . S
C2586 C2588 1.391 . S
C2587 C2586 1.386 . S
C2587 C2591 1.393 . S
C2588 H2577 0.950 . S
C2588 C2586 1.391 . S
C2588 C2589 1.400 . S
C2589 C2583 1.491 . S
C2589 C2588 1.400 . S
C2589 C2590 1.398 . S
C2590 H2578 0.950 . S
C2590 C2589 1.398 . S
C2590 C2591 1.391 . S
C2591 H2579 0.950 . S
C2591 C2587 1.393 . S
C2591 C2590 1.391 . S
H2592 C2600 0.950 . S
H2593 C2605 0.950 . S
H2594 C2602 0.950 . S
H2595 C2604 0.950 . S
H2596 C2606 0.950 . S
H2597 C2608 0.950 . S
H2598 C2610 0.950 . S
H2599 C2611 0.950 . S
C2600 H2592 0.950 . S
C2600 C2601 1.386 . S
C2600 C2602 1.391 . S
C2601 C2600 1.386 . S
C2601 C2605 1.393 . S
C2602 H2594 0.950 . S
C2602 C2600 1.391 . S
C2602 C2603 1.400 . S
C2603 C2602 1.400 . S
C2603 C2604 1.398 . S
C2603 C2609 1.491 . S
C2604 H2595 0.950 . S
C2604 C2603 1.398 . S
C2604 C2605 1.391 . S
C2605 H2593 0.950 . S
C2605 C2601 1.393 . S
C2605 C2604 1.391 . S
C2606 H2596 0.950 . S
C2606 C2607 1.386 . S
C2606 C2608 1.391 . S
C2607 C2606 1.386 . S
C2607 C2611 1.393 . S
C2608 H2597 0.950 . S
C2608 C2606 1.391 . S
C2608 C2609 1.400 . S
C2609 C2603 1.491 . S
C2609 C2608 1.400 . S
C2609 C2610 1.398 . S
C2610 H2598 0.950 . S
C2610 C2609 1.398 . S
C2610 C2611 1.391 . S
C2611 H2599 0.950 . S
C2611 C2607 1.393 . S
C2611 C2610 1.391 . S
H2612 C2620 0.950 . S
H2613 C2625 0.950 . S
H2614 C2622 0.950 . S
H2615 C2624 0.950 . S
H2616 C2626 0.950 . S
H2617 C2628 0.950 . S
H2618 C2630 0.950 . S
H2619 C2631 0.950 . S
C2620 H2612 0.950 . S
C2620 C2621 1.386 . S
C2620 C2622 1.391 . S
C2621 C2620 1.386 . S
C2621 C2625 1.393 . S
C2622 H2614 0.950 . S
C2622 C2620 1.391 . S
C2622 C2623 1.400 . S
C2623 C2622 1.400 . S
C2623 C2624 1.398 . S
C2623 C2629 1.491 . S
C2624 H2615 0.950 . S
C2624 C2623 1.398 . S
C2624 C2625 1.391 . S
C2625 H2613 0.950 . S
C2625 C2621 1.393 . S
C2625 C2624 1.391 . S
C2626 H2616 0.950 . S
C2626 C2627 1.386 . S
C2626 C2628 1.391 . S
C2627 C2626 1.386 . S
C2627 C2631 1.393 . S
C2628 H2617 0.950 . S
C2628 C2626 1.391 . S
C2628 C2629 1.400 . S
C2629 C2623 1.491 . S
C2629 C2628 1.400 . S
C2629 C2630 1.398 . S
C2630 H2618 0.950 . S
C2630 C2629 1.398 . S
C2630 C2631 1.391 . S
C2631 H2619 0.950 . S
C2631 C2627 1.393 . S
C2631 C2630 1.391 . S
H2632 C2640 0.950 . S
H2633 C2645 0.950 . S
H2634 C2642 0.950 . S
H2635 C2644 0.950 . S
H2636 C2646 0.950 . S
H2637 C2648 0.950 . S
H2638 C2650 0.950 . S
H2639 C2651 0.950 . S
C2640 H2632 0.950 . S
C2640 C2641 1.386 . S
C2640 C2642 1.391 . S
C2641 C2640 1.386 . S
C2641 C2645 1.393 . S
C2642 H2634 0.950 . S
C2642 C2640 1.391 . S
C2642 C2643 1.400 . S
C2643 C2642 1.400 . S
C2643 C2644 1.398 . S
C2643 C2649 1.491 . S
C2644 H2635 0.950 . S
C2644 C2643 1.398 . S
C2644 C2645 1.391 . S
C2645 H2633 0.950 . S
C2645 C2641 1.393 . S
C2645 C2644 1.391 . S
C2646 H2636 0.950 . S
C2646 C2647 1.386 . S
C2646 C2648 1.391 . S
C2647 C2646 1.386 . S
C2647 C2651 1.393 . S
C2648 H2637 0.950 . S
C2648 C2646 1.391 . S
C2648 C2649 1.400 . S
C2649 C2643 1.491 . S
C2649 C2648 1.400 . S
C2649 C2650 1.398 . S
C2650 H2638 0.950 . S
C2650 C2649 1.398 . S
C2650 C2651 1.391 . S
C2651 H2639 0.950 . S
C2651 C2647 1.393 . S
C2651 C2650 1.391 . S
H2652 C2660 0.969 . S
H2653 C2665 0.950 . S
H2654 C2662 0.950 . S
H2655 C2664 0.950 . S
H2656 C2666 0.950 . S
H2657 C2668 0.950 . S
H2658 C2670 0.950 . S
H2659 C2671 0.950 . S
C2660 H2652 0.969 . S
C2660 C2661 1.386 . S
C2660 C2662 1.391 . S
C2661 C2660 1.386 . S
C2661 C2665 1.393 . S
C2662 H2654 0.950 . S
C2662 C2660 1.391 . S
C2662 C2663 1.400 . S
C2663 C2662 1.400 . S
C2663 C2664 1.398 . S
C2663 C2669 1.491 . S
C2664 H2655 0.950 . S
C2664 C2663 1.398 . S
C2664 C2665 1.391 . S
C2665 H2653 0.950 . S
C2665 C2661 1.393 . S
C2665 C2664 1.391 . S
C2666 H2656 0.950 . S
C2666 C2667 1.386 . S
C2666 C2668 1.391 . S
C2667 C2666 1.386 . S
C2667 C2671 1.393 . S
C2668 H2657 0.950 . S
C2668 C2666 1.391 . S
C2668 C2669 1.400 . S
C2669 C2663 1.491 . S
C2669 C2668 1.400 . S
C2669 C2670 1.398 . S
C2670 H2658 0.950 . S
C2670 C2669 1.398 . S
C2670 C2671 1.391 . S
C2671 H2659 0.950 . S
C2671 C2667 1.393 . S
C2671 C2670 1.391 . S
H2672 C2680 0.950 . S
H2673 C2685 0.950 . S
H2674 C2682 0.950 . S
H2675 C2684 0.950 . S
H2676 C2686 0.950 . S
H2677 C2688 0.950 . S
H2678 C2690 0.950 . S
H2679 C2691 0.950 . S
C2680 H2672 0.950 . S
C2680 C2681 1.386 . S
C2680 C2682 1.391 . S
C2681 C2680 1.386 . S
C2681 C2685 1.393 . S
C2682 H2674 0.950 . S
C2682 C2680 1.391 . S
C2682 C2683 1.400 . S
C2683 C2682 1.400 . S
C2683 C2684 1.398 . S
C2683 C2689 1.491 . S
C2684 H2675 0.950 . S
C2684 C2683 1.398 . S
C2684 C2685 1.391 . S
C2685 H2673 0.950 . S
C2685 C2681 1.393 . S
C2685 C2684 1.391 . S
C2686 H2676 0.950 . S
C2686 C2687 1.386 . S
C2686 C2688 1.391 . S
C2687 C2686 1.386 . S
C2687 C2691 1.393 . S
C2688 H2677 0.950 . S
C2688 C2686 1.391 . S
C2688 C2689 1.400 . S
C2689 C2683 1.491 . S
C2689 C2688 1.400 . S
C2689 C2690 1.398 . S
C2690 H2678 0.950 . S
C2690 C2689 1.398 . S
C2690 C2691 1.391 . S
C2691 H2679 0.950 . S
C2691 C2687 1.393 . S
C2691 C2690 1.391 . S
H2692 C2700 0.950 . S
H2693 C2705 0.950 . S
H2694 C2702 0.950 . S
H2695 C2704 0.950 . S
H2696 C2706 0.950 . S
H2697 C2708 0.950 . S
H2698 C2710 0.950 . S
H2699 C2711 0.950 . S
C2700 H2692 0.950 . S
C2700 C2701 1.386 . S
C2700 C2702 1.391 . S
C2701 C2700 1.386 . S
C2701 C2705 1.393 . S
C2702 H2694 0.950 . S
C2702 C2700 1.391 . S
C2702 C2703 1.400 . S
C2703 C2702 1.400 . S
C2703 C2704 1.398 . S
C2703 C2709 1.491 . S
C2704 H2695 0.950 . S
C2704 C2703 1.398 . S
C2704 C2705 1.391 . S
C2705 H2693 0.950 . S
C2705 C2701 1.393 . S
C2705 C2704 1.391 . S
C2706 H2696 0.950 . S
C2706 C2707 1.386 . S
C2706 C2708 1.391 . S
C2707 C2706 1.386 . S
C2707 C2711 1.393 . S
C2708 H2697 0.950 . S
C2708 C2706 1.391 . S
C2708 C2709 1.400 . S
C2709 C2703 1.491 . S
C2709 C2708 1.400 . S
C2709 C2710 1.398 . S
C2710 H2698 0.950 . S
C2710 C2709 1.398 . S
C2710 C2711 1.391 . S
C2711 H2699 0.950 . S
C2711 C2707 1.393 . S
C2711 C2710 1.391 . S
H2712 C2720 0.950 . S
H2713 C2725 0.950 . S
H2714 C2722 0.950 . S
H2715 C2724 0.950 . S
H2716 C2726 0.950 . S
H2717 C2728 0.950 . S
H2718 C2730 0.950 . S
H2719 C2731 0.950 . S
C2720 H2712 0.950 . S
C2720 C2721 1.386 . S
C2720 C2722 1.391 . S
C2721 C2720 1.386 . S
C2721 C2725 1.393 . S
C2722 H2714 0.950 . S
C2722 C2720 1.391 . S
C2722 C2723 1.400 . S
C2723 C2722 1.400 . S
C2723 C2724 1.398 . S
C2723 C2729 1.491 . S
C2724 H2715 0.950 . S
C2724 C2723 1.398 . S
C2724 C2725 1.391 . S
C2725 H2713 0.950 . S
C2725 C2721 1.393 . S
C2725 C2724 1.391 . S
C2726 H2716 0.950 . S
C2726 C2727 1.386 . S
C2726 C2728 1.391 . S
C2727 C2726 1.386 . S
C2727 C2731 1.393 . S
C2728 H2717 0.950 . S
C2728 C2726 1.391 . S
C2728 C2729 1.400 . S
C2729 C2723 1.491 . S
C2729 C2728 1.400 . S
C2729 C2730 1.398 . S
C2730 H2718 0.950 . S
C2730 C2729 1.398 . S
C2730 C2731 1.391 . S
C2731 H2719 0.950 . S
C2731 C2727 1.393 . S
C2731 C2730 1.391 . S
H2732 C2740 0.950 . S
H2733 C2745 0.950 . S
H2734 C2742 0.950 . S
H2735 C2744 0.950 . S
H2736 C2746 0.950 . S
H2737 C2748 0.950 . S
H2738 C2750 0.950 . S
H2739 C2751 0.950 . S
C2740 H2732 0.950 . S
C2740 C2741 1.386 . S
C2740 C2742 1.391 . S
C2741 C2740 1.386 . S
C2741 C2745 1.393 . S
C2742 H2734 0.950 . S
C2742 C2740 1.391 . S
C2742 C2743 1.400 . S
C2743 C2742 1.400 . S
C2743 C2744 1.398 . S
C2743 C2749 1.491 . S
C2744 H2735 0.950 . S
C2744 C2743 1.398 . S
C2744 C2745 1.391 . S
C2745 H2733 0.950 . S
C2745 C2741 1.393 . S
C2745 C2744 1.391 . S
C2746 H2736 0.950 . S
C2746 C2747 1.386 . S
C2746 C2748 1.391 . S
C2747 C2746 1.386 . S
C2747 C2751 1.393 . S
C2748 H2737 0.950 . S
C2748 C2746 1.391 . S
C2748 C2749 1.400 . S
C2749 C2743 1.491 . S
C2749 C2748 1.400 . S
C2749 C2750 1.398 . S
C2750 H2738 0.950 . S
C2750 C2749 1.398 . S
C2750 C2751 1.391 . S
C2751 H2739 0.950 . S
C2751 C2747 1.393 . S
C2751 C2750 1.391 . S
H2752 C2760 0.950 . S
H2753 C2765 0.950 . S
H2754 C2762 0.950 . S
H2755 C2764 0.950 . S
H2756 C2766 0.950 . S
H2757 C2768 0.950 . S
H2758 C2770 0.950 . S
H2759 C2771 0.950 . S
C2760 H2752 0.950 . S
C2760 C2761 1.386 . S
C2760 C2762 1.391 . S
C2761 C2760 1.386 . S
C2761 C2765 1.393 . S
C2762 H2754 0.950 . S
C2762 C2760 1.391 . S
C2762 C2763 1.400 . S
C2763 C2762 1.400 . S
C2763 C2764 1.398 . S
C2763 C2769 1.491 . S
C2764 H2755 0.950 . S
C2764 C2763 1.398 . S
C2764 C2765 1.391 . S
C2765 H2753 0.950 . S
C2765 C2761 1.393 . S
C2765 C2764 1.391 . S
C2766 H2756 0.950 . S
C2766 C2767 1.386 . S
C2766 C2768 1.391 . S
C2767 C2766 1.386 . S
C2767 C2771 1.393 . S
C2768 H2757 0.950 . S
C2768 C2766 1.391 . S
C2768 C2769 1.400 . S
C2769 C2763 1.491 . S
C2769 C2768 1.400 . S
C2769 C2770 1.398 . S
C2770 H2758 0.950 . S
C2770 C2769 1.398 . S
C2770 C2771 1.391 . S
C2771 H2759 0.950 . S
C2771 C2767 1.393 . S
C2771 C2770 1.391 . S
H2772 C2780 0.950 . S
H2773 C2785 0.950 . S
H2774 C2782 0.950 . S
H2775 C2784 0.950 . S
H2776 C2786 0.950 . S
H2777 C2788 0.950 . S
H2778 C2790 0.950 . S
H2779 C2791 0.950 . S
C2780 H2772 0.950 . S
C2780 C2781 1.386 . S
C2780 C2782 1.391 . S
C2781 C2780 1.386 . S
C2781 C2785 1.393 . S
C2782 H2774 0.950 . S
C2782 C2780 1.391 . S
C2782 C2783 1.400 . S
C2783 C2782 1.400 . S
C2783 C2784 1.398 . S
C2783 C2789 1.491 . S
C2784 H2775 0.950 . S
C2784 C2783 1.398 . S
C2784 C2785 1.391 . S
C2785 H2773 0.950 . S
C2785 C2781 1.393 . S
C2785 C2784 1.391 . S
C2786 H2776 0.950 . S
C2786 C2787 1.386 . S
C2786 C2788 1.391 . S
C2787 C2786 1.386 . S
C2787 C2791 1.393 . S
C2788 H2777 0.950 . S
C2788 C2786 1.391 . S
C2788 C2789 1.400 . S
C2789 C2783 1.491 . S
C2789 C2788 1.400 . S
C2789 C2790 1.398 . S
C2790 H2778 0.950 . S
C2790 C2789 1.398 . S
C2790 C2791 1.391 . S
C2791 H2779 0.950 . S
C2791 C2787 1.393 . S
C2791 C2790 1.391 . S
H2792 C2800 0.950 . S
H2793 C2805 0.950 . S
H2794 C2802 0.950 . S
H2795 C2804 0.950 . S
H2796 C2806 0.950 . S
H2797 C2808 0.950 . S
H2798 C2810 0.950 . S
H2799 C2811 0.950 . S
C2800 H2792 0.950 . S
C2800 C2801 1.386 . S
C2800 C2802 1.391 . S
C2801 C2800 1.386 . S
C2801 C2805 1.393 . S
C2802 H2794 0.950 . S
C2802 C2800 1.391 . S
C2802 C2803 1.400 . S
C2803 C2802 1.400 . S
C2803 C2804 1.398 . S
C2803 C2809 1.491 . S
C2804 H2795 0.950 . S
C2804 C2803 1.398 . S
C2804 C2805 1.391 . S
C2805 H2793 0.950 . S
C2805 C2801 1.393 . S
C2805 C2804 1.391 . S
C2806 H2796 0.950 . S
C2806 C2807 1.386 . S
C2806 C2808 1.391 . S
C2807 C2806 1.386 . S
C2807 C2811 1.393 . S
C2808 H2797 0.950 . S
C2808 C2806 1.391 . S
C2808 C2809 1.400 . S
C2809 C2803 1.491 . S
C2809 C2808 1.400 . S
C2809 C2810 1.398 . S
C2810 H2798 0.950 . S
C2810 C2809 1.398 . S
C2810 C2811 1.391 . S
C2811 H2799 0.950 . S
C2811 C2807 1.393 . S
C2811 C2810 1.391 . S
H2812 C2820 0.950 . S
H2813 C2825 0.950 . S
H2814 C2822 0.950 . S
H2815 C2824 0.950 . S
H2816 C2826 0.950 . S
H2817 C2828 0.950 . S
H2818 C2830 0.950 . S
H2819 C2831 0.950 . S
C2820 H2812 0.950 . S
C2820 C2821 1.386 . S
C2820 C2822 1.391 . S
C2821 C2820 1.386 . S
C2821 C2825 1.393 . S
C2822 H2814 0.950 . S
C2822 C2820 1.391 . S
C2822 C2823 1.400 . S
C2823 C2822 1.400 . S
C2823 C2824 1.398 . S
C2823 C2829 1.491 . S
C2824 H2815 0.950 . S
C2824 C2823 1.398 . S
C2824 C2825 1.391 . S
C2825 H2813 0.950 . S
C2825 C2821 1.393 . S
C2825 C2824 1.391 . S
C2826 H2816 0.950 . S
C2826 C2827 1.386 . S
C2826 C2828 1.391 . S
C2827 C2826 1.386 . S
C2827 C2831 1.393 . S
C2828 H2817 0.950 . S
C2828 C2826 1.391 . S
C2828 C2829 1.400 . S
C2829 C2823 1.491 . S
C2829 C2828 1.400 . S
C2829 C2830 1.398 . S
C2830 H2818 0.950 . S
C2830 C2829 1.398 . S
C2830 C2831 1.391 . S
C2831 H2819 0.950 . S
C2831 C2827 1.393 . S
C2831 C2830 1.391 . S
H2832 C2840 0.950 . S
H2833 C2845 0.950 . S
H2834 C2842 0.950 . S
H2835 C2844 0.950 . S
H2836 C2846 0.950 . S
H2837 C2848 0.950 . S
H2838 C2850 0.950 . S
H2839 C2851 0.950 . S
C2840 H2832 0.950 . S
C2840 C2841 1.386 . S
C2840 C2842 1.391 . S
C2841 C2840 1.386 . S
C2841 C2845 1.393 . S
C2842 H2834 0.950 . S
C2842 C2840 1.391 . S
C2842 C2843 1.400 . S
C2843 C2842 1.400 . S
C2843 C2844 1.398 . S
C2843 C2849 1.491 1_455 S
C2844 H2835 0.950 . S
C2844 C2843 1.398 . S
C2844 C2845 1.391 . S
C2845 H2833 0.950 . S
C2845 C2841 1.393 . S
C2845 C2844 1.391 . S
C2846 H2836 0.950 . S
C2846 C2847 1.386 . S
C2846 C2848 1.391 . S
C2847 C2846 1.386 . S
C2847 C2851 1.393 . S
C2848 H2837 0.950 . S
C2848 C2846 1.391 . S
C2848 C2849 1.400 . S
C2849 C2843 1.491 1_655 S
C2849 C2848 1.400 . S
C2849 C2850 1.398 . S
C2850 H2838 0.950 . S
C2850 C2849 1.398 . S
C2850 C2851 1.391 . S
C2851 H2839 0.950 . S
C2851 C2847 1.393 . S
C2851 C2850 1.391 . S
H2852 C2860 0.950 . S
H2853 C2865 0.950 . S
H2854 C2862 0.950 . S
H2855 C2864 0.950 . S
H2856 C2866 0.950 . S
H2857 C2868 0.950 . S
H2858 C2870 0.950 . S
H2859 C2871 0.950 . S
C2860 H2852 0.950 . S
C2860 C2861 1.386 . S
C2860 C2862 1.391 . S
C2861 C2860 1.386 . S
C2861 C2865 1.393 . S
C2862 H2854 0.950 . S
C2862 C2860 1.391 . S
C2862 C2863 1.400 . S
C2863 C2862 1.400 . S
C2863 C2864 1.398 . S
C2863 C2869 1.491 . S
C2864 H2855 0.950 . S
C2864 C2863 1.398 . S
C2864 C2865 1.391 . S
C2865 H2853 0.950 . S
C2865 C2861 1.393 . S
C2865 C2864 1.391 . S
C2866 H2856 0.950 . S
C2866 C2867 1.386 . S
C2866 C2868 1.391 . S
C2867 C2866 1.386 . S
C2867 C2871 1.393 . S
C2868 H2857 0.950 . S
C2868 C2866 1.391 . S
C2868 C2869 1.400 . S
C2869 C2863 1.491 . S
C2869 C2868 1.400 . S
C2869 C2870 1.398 . S
C2870 H2858 0.950 . S
C2870 C2869 1.398 . S
C2870 C2871 1.391 . S
C2871 H2859 0.950 . S
C2871 C2867 1.393 . S
C2871 C2870 1.391 . S
H2872 C2880 0.950 . S
H2873 C2885 0.950 . S
H2874 C2882 0.950 . S
H2875 C2884 0.950 . S
H2876 C2886 0.950 . S
H2877 C2888 0.950 . S
H2878 C2890 0.950 . S
H2879 C2891 0.950 . S
C2880 H2872 0.950 . S
C2880 C2881 1.386 . S
C2880 C2882 1.391 . S
C2881 C2880 1.386 . S
C2881 C2885 1.393 . S
C2882 H2874 0.950 . S
C2882 C2880 1.391 . S
C2882 C2883 1.400 . S
C2883 C2882 1.400 . S
C2883 C2884 1.398 . S
C2883 C2889 1.491 1_545 S
C2884 H2875 0.950 . S
C2884 C2883 1.398 . S
C2884 C2885 1.391 . S
C2885 H2873 0.950 . S
C2885 C2881 1.393 . S
C2885 C2884 1.391 . S
C2886 H2876 0.950 . S
C2886 C2887 1.386 . S
C2886 C2888 1.391 . S
C2887 C2886 1.386 . S
C2887 C2891 1.393 . S
C2888 H2877 0.950 . S
C2888 C2886 1.391 . S
C2888 C2889 1.400 . S
C2889 C2883 1.491 1_565 S
C2889 C2888 1.400 . S
C2889 C2890 1.398 . S
C2890 H2878 0.950 . S
C2890 C2889 1.398 . S
C2890 C2891 1.391 . S
C2891 H2879 0.950 . S
C2891 C2887 1.393 . S
C2891 C2890 1.391 . S
H2892 C2900 0.950 . S
H2893 C2905 0.950 . S
H2894 C2902 0.950 . S
H2895 C2904 0.950 . S
H2896 C2906 0.950 . S
H2897 C2908 0.950 . S
H2898 C2910 0.950 . S
H2899 C2911 0.950 . S
C2900 H2892 0.950 . S
C2900 C2901 1.386 . S
C2900 C2902 1.391 . S
C2901 C2900 1.386 . S
C2901 C2905 1.393 . S
C2902 H2894 0.950 . S
C2902 C2900 1.391 . S
C2902 C2903 1.400 . S
C2903 C2902 1.400 . S
C2903 C2904 1.398 . S
C2903 C2909 1.491 1_545 S
C2904 H2895 0.950 . S
C2904 C2903 1.398 . S
C2904 C2905 1.391 . S
C2905 H2893 0.950 . S
C2905 C2901 1.393 . S
C2905 C2904 1.391 . S
C2906 H2896 0.950 . S
C2906 C2907 1.386 . S
C2906 C2908 1.391 . S
C2907 C2906 1.386 . S
C2907 C2911 1.393 . S
C2908 H2897 0.950 . S
C2908 C2906 1.391 . S
C2908 C2909 1.400 . S
C2909 C2903 1.491 1_565 S
C2909 C2908 1.400 . S
C2909 C2910 1.398 . S
C2910 H2898 0.950 . S
C2910 C2909 1.398 . S
C2910 C2911 1.391 . S
C2911 H2899 0.950 . S
C2911 C2907 1.393 . S
C2911 C2910 1.391 . S
H2912 C2920 0.950 . S
H2913 C2925 0.950 . S
H2914 C2922 0.950 . S
H2915 C2924 0.950 . S
H2916 C2926 0.950 . S
H2917 C2928 0.950 . S
H2918 C2930 0.950 . S
H2919 C2931 0.950 . S
C2920 H2912 0.950 . S
C2920 C2921 1.386 . S
C2920 C2922 1.391 . S
C2921 C2920 1.386 . S
C2921 C2925 1.393 . S
C2922 H2914 0.950 . S
C2922 C2920 1.391 . S
C2922 C2923 1.400 . S
C2923 C2922 1.400 . S
C2923 C2924 1.398 . S
C2923 C2929 1.491 1_455 S
C2924 H2915 0.950 . S
C2924 C2923 1.398 . S
C2924 C2925 1.391 . S
C2925 H2913 0.950 . S
C2925 C2921 1.393 . S
C2925 C2924 1.391 . S
C2926 H2916 0.950 . S
C2926 C2927 1.386 . S
C2926 C2928 1.391 . S
C2927 C2926 1.386 . S
C2927 C2931 1.393 . S
C2928 H2917 0.950 . S
C2928 C2926 1.391 . S
C2928 C2929 1.400 . S
C2929 C2923 1.491 1_655 S
C2929 C2928 1.400 . S
C2929 C2930 1.398 . S
C2930 H2918 0.950 . S
C2930 C2929 1.398 . S
C2930 C2931 1.391 . S
C2931 H2919 0.950 . S
C2931 C2927 1.393 . S
C2931 C2930 1.391 . S
H2932 C2940 0.950 . S
H2933 C2945 0.950 . S
H2934 C2942 0.950 . S
H2935 C2944 0.950 . S
H2936 C2946 0.950 . S
H2937 C2948 0.950 . S
H2938 C2950 0.950 . S
H2939 C2951 0.950 . S
C2940 H2932 0.950 . S
C2940 C2941 1.386 . S
C2940 C2942 1.391 . S
C2941 C2940 1.386 . S
C2941 C2945 1.393 . S
C2942 H2934 0.950 . S
C2942 C2940 1.391 . S
C2942 C2943 1.400 . S
C2943 C2942 1.400 . S
C2943 C2944 1.398 . S
C2943 C2949 1.491 . S
C2944 H2935 0.950 . S
C2944 C2943 1.398 . S
C2944 C2945 1.391 . S
C2945 H2933 0.950 . S
C2945 C2941 1.393 . S
C2945 C2944 1.391 . S
C2946 H2936 0.950 . S
C2946 C2947 1.386 . S
C2946 C2948 1.391 . S
C2947 C2946 1.386 . S
C2947 C2951 1.393 . S
C2948 H2937 0.950 . S
C2948 C2946 1.391 . S
C2948 C2949 1.400 . S
C2949 C2943 1.491 . S
C2949 C2948 1.400 . S
C2949 C2950 1.398 . S
C2950 H2938 0.950 . S
C2950 C2949 1.398 . S
C2950 C2951 1.391 . S
C2951 H2939 0.950 . S
C2951 C2947 1.393 . S
C2951 C2950 1.391 . S
C801 C8 0.933 . S
C807 C172 0.933 . S
C821 C30 0.949 . S
C827 C184 0.905 . S
C841 C62 0.934 . S
C847 C150 0.927 . S
C861 C74 0.943 . S
C867 C252 0.918 . S
C881 C208 0.943 . S
C887 C96 0.924 . S
C901 C230 0.913 . S
C907 C120 0.945 . S
C921 C40 0.910 . S
C927 C140 0.947 . S
C941 C162 0.932 . S
C947 C54 0.929 . S
C961 C186 0.950 . S
C967 C18 0.904 . S
C981 C118 0.908 . S
C987 C216 0.947 . S
C1001 C238 0.947 . S
C1007 C84 0.912 . S
C1021 C260 0.938 . S
C1027 C106 0.920 . S
C1041 C274 0.923 . S
C1047 C436 0.944 . S
C1061 C294 0.948 . S
C1067 C458 0.906 . S
C1081 C414 0.943 . S
C1087 C316 0.925 . S
C1101 C514 0.941 . S
C1107 C338 0.925 . S
C1121 C470 0.904 . S
C1127 C362 0.950 . S
C1141 C382 0.946 . S
C1147 C492 0.909 . S
C1161 C304 0.944 . S
C1167 C404 0.924 . S
C1181 C326 0.940 . S
C1187 C426 0.927 . S
C1201 C272 0.944 . S
C1207 C448 0.923 . S
C1221 C392 0.943 . S
C1227 C472 0.924 . S
C1241 C494 0.928 . S
C1247 C348 0.936 . S
C1261 C360 0.904 . S
C1267 C516 0.950 . S
C1281 C536 0.937 . S
C1287 C690 0.922 . S
C1301 C722 0.913 . S
C1307 C560 0.943 . S
C1321 C580 0.950 . S
C1327 C668 0.904 . S
C1341 C612 0.949 . S
C1347 C780 0.907 . S
C1361 C734 0.929 . S
C1367 C626 0.936 . S
C1381 C758 0.933 . S
C1387 C648 0.930 . S
C1401 C670 0.923 . S
C1407 C558 0.945 . S
C1421 C692 0.934 . S
C1427 C590 0.926 . S
C1441 C712 0.936 . S
C1447 C546 0.928 . S
C1461 C646 0.944 . S
C1467 C736 0.924 . S
C1481 C604 0.932 . S
C1487 C766 0.930 . S
C1501 C624 0.905 . S
C1507 C788 0.950 . S
C1521 C21 1.151 . S
C1527 C59 1.134 . S
C1541 C43 1.167 . S
C1547 C7 1.142 . S
C1561 C29 1.158 . S
C1567 C51 1.145 . S
C1581 C95 1.127 . S
C1587 C87 1.170 . S
C1601 C109 1.167 . S
C1607 C131 1.141 . S
C1621 C73 1.155 . S
C1627 C125 1.156 . S
C1641 C153 1.154 . S
C1647 C197 1.157 . S
C1661 C175 1.170 . S
C1667 C139 1.128 . S
C1681 C191 1.146 . S
C1687 C161 1.159 . S
C1701 C235 1.144 . S
C1707 C205 1.145 . S
C1721 C227 1.168 . S
C1727 C257 1.140 . S
C1741 C213 1.133 . S
C1747 C249 1.152 . S
C1761 C315 1.150 . S
C1767 C279 1.143 . S
C1781 C307 1.170 . S
C1787 C285 1.134 . S
C1801 C329 1.170 . S
C1807 C293 1.131 . S
C1821 C351 1.145 . S
C1827 C373 1.143 . S
C1841 C381 1.154 . S
C1847 C367 1.157 . S
C1861 C395 1.143 . S
C1867 C337 1.157 . S
C1881 C417 1.143 . S
C1887 C447 1.151 . S
C1901 C439 1.154 . S
C1907 C403 1.131 . S
C1921 C425 1.143 . S
C1927 C461 1.145 . S
C1941 C505 1.129 . S
C1947 C477 1.170 . S
C1961 C499 1.157 . S
C1967 C527 1.128 . S
C1981 C521 1.163 . S
C1987 C483 1.147 . S
C2001 C579 1.125 . S
C2007 C549 1.165 . S
C2021 C565 1.170 . S
C2027 C535 1.133 . S
C2041 C593 1.165 . S
C2047 C571 1.145 . S
C2061 C637 1.127 . S
C2067 C601 1.160 . S
C2081 C631 1.166 . S
C2087 C659 1.144 . S
C2101 C653 1.158 . S
C2107 C609 1.128 . S
C2121 C675 1.143 . S
C2127 C711 1.149 . S
C2141 C697 1.170 . S
C2147 C681 1.127 . S
C2161 C703 1.125 . S
C2167 C725 1.167 . S
C2181 C763 1.134 . S
C2187 C741 1.170 . S
C2201 C785 1.134 . S
C2207 C755 1.152 . S
C2221 C747 1.129 . S
C2227 C777 1.170 . S
C2241 C103 1.555 . S
C2247 C15 1.555 . S
C2261 C117 1.556 . S
C2267 C37 1.556 . S
C2281 C81 1.553 . S
C2287 C65 1.553 . S
C2301 C241 1.553 . S
C2307 C147 1.553 . S
C2321 C263 1.558 . S
C2327 C169 1.558 . S
C2341 C183 1.562 . S
C2347 C219 1.562 . S
C2361 C359 1.563 . S
C2367 C271 1.563 . S
C2381 C389 1.555 . S
C2387 C301 1.555 . S
C2401 C323 1.557 . S
C2407 C345 1.558 . S
C2421 C491 1.557 1_554 S
C2427 C411 1.557 . S
C2441 C433 1.562 . S
C2447 C513 1.563 1_554 S
C2461 C469 1.561 1_554 S
C2467 C455 1.561 . S
C2481 C543 1.554 . S
C2487 C623 1.554 1_556 S
C2501 C645 1.561 1_556 S
C2507 C557 1.561 . S
C2521 C615 1.555 1_556 S
C2527 C587 1.555 . S
C2541 C769 1.553 . S
C2547 C667 1.553 . S
C2561 C791 1.563 . S
C2567 C689 1.563 . S
C2581 C733 1.555 . S
C2587 C719 1.555 . S
C2601 C656 1.337 . S
C2607 C10 1.320 . S
C2621 C32 1.329 . S
C2627 C602 1.333 . S
C2641 C52 1.329 . S
C2647 C634 1.314 . S
C2661 C76 1.333 . S
C2667 C296 1.328 . S
C2681 C98 1.334 . S
C2687 C318 1.328 . S
C2701 C128 1.318 . S
C2707 C282 1.337 . S
C2721 C524 1.323 . S
C2727 C142 1.336 . S
C2741 C480 1.337 . S
C2747 C164 1.318 . S
C2761 C502 1.317 . S
C2767 C194 1.337 . S
C2781 C206 1.323 . S
C2787 C700 1.336 . S
C2801 C228 1.323 . S
C2807 C714 1.337 . S
C2821 C678 1.331 . S
C2827 C250 1.332 . S
C2841 C568 1.320 . S
C2847 C340 1.318 . S
C2861 C582 1.321 . S
C2867 C370 1.318 . S
C2881 C384 1.332 . S
C2887 C538 1.330 . S
C2901 C406 1.324 . S
C2907 C778 1.336 . S
C2921 C744 1.320 . S
C2927 C428 1.318 . S
C2941 C756 1.332 . S
C2947 C450 1.314 . S
