# Generated by pormake.
# Topology cag, (4)-cn, num edge types: 1
# Building blocks:
#     Node 0, Type 0, BuildingBlock: UXUYUI_clean_sbu_0, # of connection points: 4
#     Node 1, Type 0, BuildingBlock: UXUYUI_clean_sbu_0, # of connection points: 4
#     Node 2, Type 0, BuildingBlock: UXUYUI_clean_sbu_0, # of connection points: 4
#     Node 3, Type 0, BuildingBlock: UXUYUI_clean_sbu_0, # of connection points: 4
#     Node 4, Type 0, BuildingBlock: UXUYUI_clean_sbu_0, # of connection points: 4
#     Node 5, Type 0, BuildingBlock: UXUYUI_clean_sbu_0, # of connection points: 4
#     Node 6, Type 0, BuildingBlock: UXUYUI_clean_sbu_0, # of connection points: 4
#     Node 7, Type 0, BuildingBlock: UXUYUI_clean_sbu_0, # of connection points: 4
#     Node 8, Type 0, BuildingBlock: UXUYUI_clean_sbu_0, # of connection points: 4
#     Node 9, Type 0, BuildingBlock: UXUYUI_clean_sbu_0, # of connection points: 4
#     Node 10, Type 0, BuildingBlock: UXUYUI_clean_sbu_0, # of connection points: 4
#     Node 11, Type 0, BuildingBlock: UXUYUI_clean_sbu_0, # of connection points: 4
#     Node 12, Type 0, BuildingBlock: UXUYUI_clean_sbu_0, # of connection points: 4
#     Node 13, Type 0, BuildingBlock: UXUYUI_clean_sbu_0, # of connection points: 4
#     Node 14, Type 0, BuildingBlock: UXUYUI_clean_sbu_0, # of connection points: 4
#     Node 15, Type 0, BuildingBlock: UXUYUI_clean_sbu_0, # of connection points: 4
#     Edge 16, Type (0, 0), BuildingBlock: CIFDUS_clean_linker_0, # of connection points: 2
#     Edge 17, Type (0, 0), BuildingBlock: CIFDUS_clean_linker_0, # of connection points: 2
#     Edge 18, Type (0, 0), BuildingBlock: CIFDUS_clean_linker_0, # of connection points: 2
#     Edge 19, Type (0, 0), BuildingBlock: CIFDUS_clean_linker_0, # of connection points: 2
#     Edge 20, Type (0, 0), BuildingBlock: CIFDUS_clean_linker_0, # of connection points: 2
#     Edge 21, Type (0, 0), BuildingBlock: CIFDUS_clean_linker_0, # of connection points: 2
#     Edge 22, Type (0, 0), BuildingBlock: CIFDUS_clean_linker_0, # of connection points: 2
#     Edge 23, Type (0, 0), BuildingBlock: CIFDUS_clean_linker_0, # of connection points: 2
#     Edge 24, Type (0, 0), BuildingBlock: CIFDUS_clean_linker_0, # of connection points: 2
#     Edge 25, Type (0, 0), BuildingBlock: CIFDUS_clean_linker_0, # of connection points: 2
#     Edge 26, Type (0, 0), BuildingBlock: CIFDUS_clean_linker_0, # of connection points: 2
#     Edge 27, Type (0, 0), BuildingBlock: CIFDUS_clean_linker_0, # of connection points: 2
#     Edge 28, Type (0, 0), BuildingBlock: CIFDUS_clean_linker_0, # of connection points: 2
#     Edge 29, Type (0, 0), BuildingBlock: CIFDUS_clean_linker_0, # of connection points: 2
#     Edge 30, Type (0, 0), BuildingBlock: CIFDUS_clean_linker_0, # of connection points: 2
#     Edge 31, Type (0, 0), BuildingBlock: CIFDUS_clean_linker_0, # of connection points: 2
#     Edge 32, Type (0, 0), BuildingBlock: CIFDUS_clean_linker_0, # of connection points: 2
#     Edge 33, Type (0, 0), BuildingBlock: CIFDUS_clean_linker_0, # of connection points: 2
#     Edge 34, Type (0, 0), BuildingBlock: CIFDUS_clean_linker_0, # of connection points: 2
#     Edge 35, Type (0, 0), BuildingBlock: CIFDUS_clean_linker_0, # of connection points: 2
#     Edge 36, Type (0, 0), BuildingBlock: CIFDUS_clean_linker_0, # of connection points: 2
#     Edge 37, Type (0, 0), BuildingBlock: CIFDUS_clean_linker_0, # of connection points: 2
#     Edge 38, Type (0, 0), BuildingBlock: CIFDUS_clean_linker_0, # of connection points: 2
#     Edge 39, Type (0, 0), BuildingBlock: CIFDUS_clean_linker_0, # of connection points: 2
#     Edge 40, Type (0, 0), BuildingBlock: CIFDUS_clean_linker_0, # of connection points: 2
#     Edge 41, Type (0, 0), BuildingBlock: CIFDUS_clean_linker_0, # of connection points: 2
#     Edge 42, Type (0, 0), BuildingBlock: CIFDUS_clean_linker_0, # of connection points: 2
#     Edge 43, Type (0, 0), BuildingBlock: CIFDUS_clean_linker_0, # of connection points: 2
#     Edge 44, Type (0, 0), BuildingBlock: CIFDUS_clean_linker_0, # of connection points: 2
#     Edge 45, Type (0, 0), BuildingBlock: CIFDUS_clean_linker_0, # of connection points: 2
#     Edge 46, Type (0, 0), BuildingBlock: CIFDUS_clean_linker_0, # of connection points: 2
#     Edge 47, Type (0, 0), BuildingBlock: CIFDUS_clean_linker_0, # of connection points: 2
# Relax obj value: 0.065
# Max RMSD: 0.090
# Mean RMSD: 0.089
data_MOF--net-cag--node1-UXUYUI_clean_sbu_0--edge1-CIFDUS_clean_linker_0
_symmetry_space_group_name_H-M    P1
_symmetry_Int_Tables_number       1
_symmetry_cell_setting            triclinic
loop_
_symmetry_equiv_pos_as_xyz
'x, y, z'
_cell_length_a     56.17575
_cell_length_b     66.426324
_cell_length_c     58.22948
_cell_angle_alpha  90.084817
_cell_angle_beta   90.038584
_cell_angle_gamma 90.027468
loop_
_atom_site_label
_atom_site_type_symbol
_atom_site_fract_x
_atom_site_fract_y
_atom_site_fract_z
_atom_type_partial_charge
Li0 Li 0.31054 0.15506 0.08398 0.0
Li1 Li 0.34753 0.14166 0.10075 0.0
Li2 Li 0.31588 0.11808 0.08523 0.0
Li3 Li 0.31061 0.13623 0.12185 0.0
C4 C 0.33788 0.144 0.04625 0.0
N5 N 0.3426 0.1552 1.00077 0.0
C6 C 0.35682 0.15625 0.03942 0.0
C7 C 0.32161 0.13713 0.02985 0.0
C8 C 0.35882 0.16185 0.01639 0.0
C9 C 0.32422 0.14303 1.00697 0.0
C10 C 0.34068 0.17673 0.12288 0.0
C11 C 0.36849 0.18747 0.15202 0.0
N12 N 0.37138 0.20525 0.1408 0.0
C13 C 0.34372 0.1952 0.11179 0.0
C14 C 0.35296 0.17291 0.14329 0.0
C15 C 0.35939 0.20939 0.12107 0.0
C16 C 0.27261 0.17976 0.06871 0.0
N17 N 0.29655 0.17701 0.06728 0.0
C18 C 0.3003 0.20622 0.04351 0.0
C19 C 0.31043 0.18989 0.05505 0.0
C20 C 0.27557 0.20941 0.04455 0.0
C21 C 0.2617 0.19579 0.0573 0.0
H22 H 0.26196 0.1696 0.0789 0.0
H23 H 0.32949 0.18781 0.0547 0.0
C24 C 0.39441 0.12988 0.11165 0.0
N25 N 0.38126 0.14543 0.10337 0.0
C26 C 0.41915 0.13144 0.11316 0.0
C27 C 0.4165 0.16503 0.09753 0.0
C28 C 0.39178 0.16281 0.09635 0.0
C29 C 0.43058 0.14915 0.10588 0.0
H30 H 0.38571 0.11611 0.11683 0.0
H31 H 0.38104 0.17485 0.08943 0.0
C32 C 0.26741 0.12595 0.087 0.0
N33 N 0.22613 0.10916 0.06957 0.0
C34 C 0.25191 0.11543 0.10143 0.0
C35 C 0.26167 0.12823 0.06379 0.0
C36 C 0.2312 0.10697 0.09227 0.0
C37 C 0.24079 0.11956 0.05528 0.0
C38 C 0.33719 0.10373 0.13255 0.0
C39 C 0.32696 0.08454 0.13235 0.0
C40 C 0.34938 0.11033 0.1521 0.0
C41 C 0.32868 0.07244 0.15189 0.0
C42 C 0.35069 0.0978 0.1713 0.0
N43 N 0.34037 0.07928 0.17081 0.0
C44 C 0.32645 0.0884 0.05214 0.0
C45 C 0.29342 0.08016 0.07558 0.0
C46 C 0.32449 0.07009 0.04047 0.0
N47 N 0.31097 0.09314 0.06925 0.0
C48 C 0.29091 0.0616 0.06448 0.0
C49 C 0.30662 0.05633 0.04669 0.0
H50 H 0.34061 0.09874 0.04778 0.0
H51 H 0.28174 0.08395 0.08964 0.0
C52 C 0.29674 0.15135 0.16545 0.0
N53 N 0.29653 0.13473 0.15179 0.0
C54 C 0.28654 0.15076 0.18733 0.0
C55 C 0.27586 0.11601 0.18065 0.0
C56 C 0.28626 0.11728 0.15891 0.0
C57 C 0.27588 0.13291 0.19521 0.0
H58 H 0.30462 0.16516 0.15928 0.0
H59 H 0.28604 0.10433 0.14767 0.0
O60 O 0.33561 0.13843 0.06877 0.0
O61 O 0.32562 0.16255 0.1139 0.0
O62 O 0.28786 0.13423 0.09565 0.0
O63 O 0.33547 0.11588 0.11365 0.0
H64 H 0.36974 0.16153 0.05179 0.0
H65 H 0.30729 0.12714 0.03464 0.0
H66 H 0.37329 0.17147 0.01092 0.0
H67 H 0.3117 0.13786 0.99413 0.0
H68 H 0.37821 0.18465 0.16773 0.0
H69 H 0.33417 0.19853 0.09616 0.0
H70 H 0.35051 0.15888 0.15232 0.0
H71 H 0.36201 0.22369 0.11258 0.0
H72 H 0.31184 0.21652 0.03437 0.0
H73 H 0.24257 0.19744 0.05846 0.0
H74 H 0.42921 0.11889 0.11995 0.0
H75 H 0.42453 0.17883 0.09139 0.0
H76 H 0.25586 0.11373 0.11948 0.0
H77 H 0.27305 0.13681 0.05253 0.0
H78 H 0.21914 0.09867 0.10322 0.0
H79 H 0.23619 0.12117 0.03734 0.0
H80 H 0.31767 0.07908 0.11734 0.0
H81 H 0.35779 0.12495 0.15242 0.0
H82 H 0.32069 0.05762 0.152 0.0
H83 H 0.35996 0.10279 0.18657 0.0
H84 H 0.33725 0.0665 0.02715 0.0
H85 H 0.27686 0.05147 0.06981 0.0
H86 H 0.28662 0.16425 0.19779 0.0
H87 H 0.26805 0.10188 0.18604 0.0
Li88 Li 0.18999 0.89462 0.5831 0.0
Li89 Li 0.19334 0.87486 0.61726 0.0
Li90 Li 0.19735 0.85718 0.58026 0.0
Li91 Li 0.15856 0.871 0.59451 0.0
C92 C 0.23834 0.87938 0.60527 0.0
N93 N 0.27868 0.88008 0.63236 0.0
C94 C 0.24831 0.89776 0.61194 0.0
C95 C 0.24893 0.86136 0.61221 0.0
C96 C 0.26872 0.89779 0.62567 0.0
C97 C 0.26931 0.86204 0.62596 0.0
C98 C 0.16903 0.908 0.629 0.0
C99 C 0.15877 0.91418 0.66862 0.0
N100 N 0.16904 0.93269 0.66726 0.0
C101 C 0.17944 0.9271 0.62799 0.0
C102 C 0.15853 0.9015 0.64946 0.0
C103 C 0.17927 0.93935 0.64752 0.0
C104 C 0.17597 0.93157 0.5643 0.0
N105 N 0.19524 0.91962 0.56778 0.0
C106 C 0.22009 0.94271 0.54738 0.0
C107 C 0.21708 0.92482 0.55971 0.0
C108 C 0.20034 0.95519 0.54295 0.0
C109 C 0.17805 0.94932 0.55169 0.0
H110 H 0.15881 0.92706 0.57095 0.0
H111 H 0.23211 0.91498 0.56266 0.0
C112 C 0.20616 0.85609 0.65906 0.0
N113 N 0.20601 0.87418 0.64817 0.0
C114 C 0.21443 0.85451 0.68161 0.0
C115 C 0.223 0.89012 0.68126 0.0
C116 C 0.21477 0.89095 0.65863 0.0
C117 C 0.22271 0.87173 0.6932 0.0
H118 H 0.19987 0.8428 0.6502 0.0
H119 H 0.21522 0.90508 0.64952 0.0
C120 C 0.16672 0.8844 0.54467 0.0
N121 N 0.15448 0.90756 0.50704 0.0
C122 C 0.14413 0.89315 0.54325 0.0
C123 C 0.18308 0.88747 0.52693 0.0
C124 C 0.13827 0.90477 0.52408 0.0
C125 C 0.17657 0.89924 0.50807 0.0
C126 C 0.16067 0.83652 0.61398 0.0
C127 C 0.15262 0.82186 0.59857 0.0
C128 C 0.14931 0.83884 0.63516 0.0
C129 C 0.13334 0.80971 0.60467 0.0
C130 C 0.13007 0.8264 0.64061 0.0
N131 N 0.12255 0.81221 0.62538 0.0
C132 C 0.21255 0.81704 0.57256 0.0
C133 C 0.22537 0.84034 0.54442 0.0
C134 C 0.22375 0.80126 0.5609 0.0
N135 N 0.21322 0.83607 0.564 0.0
C136 C 0.23689 0.82504 0.53223 0.0
C137 C 0.23603 0.80513 0.54035 0.0
H138 H 0.20342 0.81411 0.58854 0.0
H139 H 0.22621 0.85565 0.5383 0.0
C140 C 0.11126 0.876 0.6104 0.0
N141 N 0.12481 0.86682 0.59415 0.0
C142 C 0.08652 0.87417 0.60993 0.0
C143 C 0.09003 0.85345 0.57596 0.0
C144 C 0.11476 0.85556 0.57719 0.0
C145 C 0.07556 0.86295 0.5924 0.0
H146 H 0.11961 0.8851 0.62347 0.0
H147 H 0.12595 0.84853 0.56438 0.0
O148 O 0.21808 0.87902 0.59229 0.0
O149 O 0.16885 0.89587 0.60998 0.0
O150 O 0.17301 0.87334 0.56356 0.0
O151 O 0.17907 0.84899 0.60806 0.0
H152 H 0.24019 0.91183 0.60682 0.0
H153 H 0.24133 0.84703 0.60723 0.0
H154 H 0.27656 0.91189 0.6311 0.0
H155 H 0.27763 0.84822 0.63159 0.0
H156 H 0.15087 0.90928 0.6846 0.0
H157 H 0.18776 0.93239 0.6124 0.0
H158 H 0.15063 0.8867 0.65068 0.0
H159 H 0.18733 0.95413 0.647 0.0
H160 H 0.23773 0.94665 0.5414 0.0
H161 H 0.16214 0.95805 0.54842 0.0
H162 H 0.21445 0.83989 0.68981 0.0
H163 H 0.22909 0.90385 0.6894 0.0
H164 H 0.13138 0.89136 0.55697 0.0
H165 H 0.20075 0.88116 0.52786 0.0
H166 H 0.12089 0.91169 0.52283 0.0
H167 H 0.18912 0.90183 0.49431 0.0
H168 H 0.16085 0.82015 0.58189 0.0
H169 H 0.15514 0.85023 0.6472 0.0
H170 H 0.12684 0.79837 0.59286 0.0
H171 H 0.12107 0.82807 0.65692 0.0
H172 H 0.22307 0.78624 0.56808 0.0
H173 H 0.2461 0.82874 0.51646 0.0
H174 H 0.07604 0.882 0.62274 0.0
H175 H 0.0823 0.84456 0.56224 0.0
Li176 Li 0.30939 0.87758 0.89454 0.0
Li177 Li 0.31614 0.8948 0.93038 0.0
Li178 Li 0.34762 0.87473 0.91548 0.0
Li179 Li 0.3108 0.85887 0.93329 0.0
C180 C 0.34384 0.90462 0.88108 0.0
N181 N 0.36467 0.91594 0.84009 0.0
C182 C 0.34327 0.92474 0.87409 0.0
C183 C 0.35497 0.89028 0.8672 0.0
C184 C 0.35389 0.93016 0.85331 0.0
C185 C 0.36543 0.89629 0.84656 0.0
C186 C 0.26846 0.89025 0.92772 0.0
C187 C 0.23474 0.89645 0.9523 0.0
N188 N 0.23027 0.91379 0.94068 0.0
C189 C 0.26344 0.90803 0.91588 0.0
C190 C 0.25396 0.8843 0.94598 0.0
C191 C 0.24409 0.91978 0.92276 0.0
C192 C 0.28987 0.86055 0.85378 0.0
N193 N 0.29528 0.87808 0.86468 0.0
C194 C 0.28375 0.89711 0.83168 0.0
C195 C 0.29193 0.89618 0.85429 0.0
C196 C 0.27867 0.87924 0.8197 0.0
C197 C 0.28144 0.86078 0.83117 0.0
H198 H 0.29253 0.84637 0.8625 0.0
H199 H 0.296 0.90992 0.86344 0.0
C200 C 0.32615 0.93516 0.93947 0.0
N201 N 0.31134 0.92009 0.94611 0.0
C202 C 0.32501 0.95403 0.94995 0.0
C203 C 0.29355 0.94159 0.97434 0.0
C204 C 0.29537 0.92289 0.9634 0.0
C205 C 0.30846 0.95753 0.96759 0.0
H206 H 0.33926 0.93242 0.92627 0.0
H207 H 0.28427 0.91057 0.96898 0.0
C208 C 0.33774 0.8354 0.89568 0.0
N209 N 0.35944 0.8004 0.88076 0.0
C210 C 0.34321 0.82012 0.9113 0.0
C211 C 0.34305 0.83274 0.87241 0.0
C212 C 0.35424 0.80257 0.90344 0.0
C213 C 0.35411 0.81499 0.86523 0.0
C214 C 0.33935 0.88555 0.96758 0.0
C215 C 0.35829 0.89905 0.96979 0.0
C216 C 0.32321 0.88323 0.98563 0.0
C217 C 0.36066 0.91019 0.99004 0.0
C218 C 0.32623 0.8946 1.00563 0.0
N219 N 0.34471 0.90775 1.00738 0.0
C220 C 0.39341 0.89096 0.91125 0.0
C221 C 0.39357 0.85532 0.91203 0.0
C222 C 0.41814 0.89139 0.90907 0.0
N223 N 0.3816 0.87311 0.91246 0.0
C224 C 0.41835 0.85504 0.9099 0.0
C225 C 0.43097 0.87326 0.90834 0.0
H226 H 0.38358 0.90493 0.91212 0.0
H227 H 0.38403 0.84132 0.91349 0.0
C228 C 0.27887 0.82681 0.9434 0.0
N229 N 0.29901 0.83644 0.95029 0.0
C230 C 0.27068 0.80991 0.95537 0.0
C231 C 0.30403 0.81328 0.98132 0.0
C232 C 0.31154 0.83009 0.96889 0.0
C233 C 0.2834 0.80284 0.97455 0.0
H234 H 0.26932 0.83214 0.92846 0.0
H235 H 0.32759 0.83796 0.97391 0.0
O236 O 0.33304 0.89904 0.90117 0.0
O237 O 0.28732 0.87857 0.92131 0.0
O238 O 0.32664 0.85259 0.90304 0.0
O239 O 0.33637 0.87491 0.94767 0.0
H240 H 0.33448 0.93602 0.88448 0.0
H241 H 0.35563 0.8747 0.87235 0.0
H242 H 0.35351 0.94566 0.84767 0.0
H243 H 0.37414 0.88533 0.83569 0.0
H244 H 0.22341 0.8921 0.96647 0.0
H245 H 0.27454 0.9128 0.90172 0.0
H246 H 0.25762 0.87053 0.95525 0.0
H247 H 0.24008 0.93366 0.91389 0.0
H248 H 0.28147 0.91167 0.82362 0.0
H249 H 0.27781 0.84665 0.82254 0.0
H250 H 0.33733 0.96564 0.94456 0.0
H251 H 0.28051 0.94356 0.98784 0.0
H252 H 0.33934 0.82189 0.92935 0.0
H253 H 0.33862 0.84421 0.85995 0.0
H254 H 0.35872 0.7907 0.91537 0.0
H255 H 0.35839 0.81278 0.84729 0.0
H256 H 0.37087 0.90107 0.95593 0.0
H257 H 0.30829 0.873 0.98408 0.0
H258 H 0.37514 0.9208 0.99194 0.0
H259 H 0.31379 0.89307 0.01969 0.0
H260 H 0.42714 0.90579 0.90839 0.0
H261 H 0.4275 0.8407 0.90933 0.0
H262 H 0.25484 0.80223 0.94936 0.0
H263 H 0.31424 0.80858 0.99615 0.0
Li264 Li 0.19749 0.15531 0.43594 0.0
Li265 Li 0.15875 0.14304 0.42023 0.0
Li266 Li 0.18858 0.11995 0.4334 0.0
Li267 Li 0.19539 0.13808 0.39871 0.0
C268 C 0.17053 0.13187 0.47275 0.0
N269 N 0.16914 0.11203 0.5144 0.0
C270 C 0.14906 0.12403 0.48092 0.0
C271 C 0.19124 0.12982 0.48586 0.0
C272 C 0.14875 0.114 0.502 0.0
C273 C 0.19018 0.1197 0.50685 0.0
C274 C 0.1723 0.18328 0.40976 0.0
C275 C 0.16577 0.21657 0.39456 0.0
N276 N 0.15596 0.22225 0.41491 0.0
C277 C 0.16216 0.18944 0.43055 0.0
C278 C 0.17418 0.19694 0.39164 0.0
C279 C 0.15401 0.20921 0.4328 0.0
C280 C 0.23009 0.1871 0.44134 0.0
N281 N 0.21276 0.17658 0.45231 0.0
C282 C 0.21666 0.19745 0.48559 0.0
C283 C 0.20581 0.18148 0.47396 0.0
C284 C 0.23466 0.20868 0.47475 0.0
C285 C 0.24129 0.2033 0.45225 0.0
H286 H 0.235 0.18303 0.42398 0.0
H287 H 0.19169 0.17309 0.48216 0.0
C288 C 0.11169 0.13079 0.42509 0.0
N289 N 0.12496 0.14673 0.418 0.0
C290 C 0.08686 0.13156 0.4242 0.0
C291 C 0.08969 0.16508 0.40838 0.0
C292 C 0.11449 0.16355 0.4093 0.0
C293 C 0.07556 0.14896 0.41596 0.0
H294 H 0.12047 0.11741 0.43141 0.0
H295 H 0.12522 0.17576 0.40286 0.0
C296 C 0.23558 0.12042 0.417 0.0
N297 N 0.27011 0.09388 0.40199 0.0
C298 C 0.22905 0.1024 0.40625 0.0
C299 C 0.25966 0.12495 0.42008 0.0
C300 C 0.24677 0.08919 0.39879 0.0
C301 C 0.27686 0.11133 0.41238 0.0
C302 C 0.15654 0.11522 0.38538 0.0
C303 C 0.14842 0.09596 0.37968 0.0
C304 C 0.15094 0.1315 0.37116 0.0
C305 C 0.13486 0.09329 0.35978 0.0
C306 C 0.13733 0.1282 0.35143 0.0
N307 N 0.12964 0.10933 0.34619 0.0
C308 C 0.17102 0.08397 0.45148 0.0
C309 C 0.21209 0.08866 0.45929 0.0
C310 C 0.17064 0.06654 0.46483 0.0
N311 N 0.19145 0.09477 0.44924 0.0
C312 C 0.21262 0.07104 0.4724 0.0
C313 C 0.19159 0.05998 0.47557 0.0
H314 H 0.15483 0.08931 0.44347 0.0
H315 H 0.22798 0.09773 0.45771 0.0
C316 C 0.21985 0.15509 0.36149 0.0
N317 N 0.20934 0.13781 0.36878 0.0
C318 C 0.23066 0.15594 0.33991 0.0
C319 C 0.21968 0.12117 0.33372 0.0
C320 C 0.20908 0.12099 0.35543 0.0
C321 C 0.23071 0.13881 0.32568 0.0
H322 H 0.21984 0.16821 0.3725 0.0
H323 H 0.20079 0.10737 0.36168 0.0
O324 O 0.1714 0.14116 0.45181 0.0
O325 O 0.18084 0.16413 0.4072 0.0
O326 O 0.21863 0.13375 0.4243 0.0
O327 O 0.16975 0.11794 0.40488 0.0
H328 H 0.13286 0.12556 0.47106 0.0
H329 H 0.20804 0.13567 0.47967 0.0
H330 H 0.13229 0.10774 0.50847 0.0
H331 H 0.20611 0.11783 0.51707 0.0
H332 H 0.16708 0.2273 0.38066 0.0
H333 H 0.16049 0.17908 0.44475 0.0
H334 H 0.18205 0.19241 0.37547 0.0
H335 H 0.14611 0.21417 0.44877 0.0
H336 H 0.2111 0.20082 0.50298 0.0
H337 H 0.25472 0.2117 0.443 0.0
H338 H 0.07661 0.1188 0.43021 0.0
H339 H 0.08164 0.1786 0.40149 0.0
H340 H 0.21052 0.09861 0.40372 0.0
H341 H 0.26499 0.13886 0.42831 0.0
H342 H 0.24197 0.0752 0.39046 0.0
H343 H 0.29557 0.11464 0.41466 0.0
H344 H 0.15258 0.08322 0.39054 0.0
H345 H 0.157 0.14652 0.37525 0.0
H346 H 0.12847 0.07846 0.35515 0.0
H347 H 0.13288 0.14066 0.34028 0.0
H348 H 0.1541 0.05834 0.46687 0.0
H349 H 0.22905 0.06649 0.48065 0.0
H350 H 0.23868 0.16993 0.33435 0.0
H351 H 0.21957 0.10754 0.3235 0.0
Li352 Li 0.689 0.8943 0.93411 0.0
Li353 Li 0.69246 0.85731 0.93444 0.0
Li354 Li 0.69221 0.87634 0.89669 0.0
Li355 Li 0.65594 0.87204 0.92 0.0
C356 C 0.73783 0.88551 0.92457 0.0
N357 N 0.78295 0.90172 0.92868 0.0
C358 C 0.75228 0.88032 0.94319 0.0
C359 C 0.74652 0.89862 0.90779 0.0
C360 C 0.77498 0.88877 0.94504 0.0
C361 C 0.76933 0.90674 0.91024 0.0
C362 C 0.66826 0.86665 0.97297 0.0
C363 C 0.65731 0.83975 0.99869 0.0
N364 N 0.66664 0.85033 0.01658 0.0
C365 C 0.67759 0.87731 0.99163 0.0
C366 C 0.65788 0.84777 0.97654 0.0
C367 C 0.67665 0.86878 0.01354 0.0
C368 C 0.6792 0.93381 0.94856 0.0
N369 N 0.69537 0.9187 0.95067 0.0
C370 C 0.71744 0.9379 0.97825 0.0
C371 C 0.71424 0.92041 0.9652 0.0
C372 C 0.70105 0.95379 0.97633 0.0
C373 C 0.68181 0.9516 0.96111 0.0
H374 H 0.66395 0.93189 0.93744 0.0
H375 H 0.72644 0.908 0.96722 0.0
C376 C 0.70519 0.81647 0.93946 0.0
N377 N 0.70585 0.83466 0.95013 0.0
C378 C 0.71376 0.79929 0.95054 0.0
C379 C 0.72362 0.81988 0.98342 0.0
C380 C 0.71527 0.83671 0.97152 0.0
C381 C 0.72288 0.80075 0.97301 0.0
H382 H 0.69793 0.81527 0.92231 0.0
H383 H 0.71592 0.85136 0.97956 0.0
C384 C 0.66854 0.91394 0.89255 0.0
N385 N 0.66842 0.94787 0.86515 0.0
C386 C 0.64842 0.91876 0.87954 0.0
C387 C 0.68849 0.9265 0.89182 0.0
C388 C 0.64874 0.93594 0.86573 0.0
C389 C 0.68811 0.94355 0.87782 0.0
C390 C 0.65891 0.83899 0.89494 0.0
C391 C 0.65393 0.84126 0.87157 0.0
C392 C 0.64634 0.8248 0.90782 0.0
C393 C 0.63617 0.82942 0.86152 0.0
C394 C 0.6287 0.81327 0.89715 0.0
N395 N 0.62401 0.81581 0.87442 0.0
C396 C 0.72544 0.86566 0.86285 0.0
C397 C 0.69444 0.88636 0.84865 0.0
C398 C 0.73551 0.86429 0.84095 0.0
N399 N 0.70528 0.87657 0.86629 0.0
C400 C 0.70404 0.88558 0.82652 0.0
C401 C 0.72478 0.87432 0.82242 0.0
H402 H 0.73358 0.85786 0.87713 0.0
H403 H 0.67807 0.89446 0.85156 0.0
C404 C 0.61 0.86667 0.93857 0.0
N405 N 0.6221 0.86926 0.9186 0.0
C406 C 0.58529 0.86455 0.93844 0.0
C407 C 0.58576 0.86818 0.89716 0.0
C408 C 0.61053 0.8702 0.8981 0.0
C409 C 0.57282 0.86526 0.91754 0.0
H410 H 0.61947 0.86647 0.95469 0.0
H411 H 0.62053 0.87253 0.88248 0.0
O412 O 0.71564 0.87722 0.92239 0.0
O413 O 0.66919 0.8747 0.95138 0.0
O414 O 0.66852 0.89712 0.90606 0.0
O415 O 0.67595 0.85067 0.90516 0.0
H416 H 0.74596 0.87002 0.95618 0.0
H417 H 0.73591 0.90234 0.8929 0.0
H418 H 0.78626 0.88503 0.95947 0.0
H419 H 0.77624 0.91696 0.89743 0.0
H420 H 0.64948 0.8251 1.00166 0.0
H421 H 0.68552 0.89198 0.98924 0.0
H422 H 0.65054 0.83934 0.96231 0.0
H423 H 0.68389 0.87683 0.02811 0.0
H424 H 0.73252 0.93895 0.9898 0.0
H425 H 0.66847 0.96328 0.95944 0.0
H426 H 0.71331 0.78505 0.94149 0.0
H427 H 0.73014 0.82188 1.00076 0.0
H428 H 0.63277 0.90928 0.88002 0.0
H429 H 0.70397 0.92325 0.90217 0.0
H430 H 0.63334 0.9398 0.85548 0.0
H431 H 0.70344 0.95339 0.8771 0.0
H432 H 0.66349 0.85216 0.86135 0.0
H433 H 0.65011 0.82276 0.92588 0.0
H434 H 0.63202 0.8311 0.84348 0.0
H435 H 0.61873 0.80231 0.90694 0.0
H436 H 0.7516 0.85555 0.83857 0.0
H437 H 0.69499 0.89327 0.81264 0.0
H438 H 0.57601 0.86277 0.95461 0.0
H439 H 0.57689 0.86873 0.88066 0.0
Li440 Li 0.81723 0.15675 0.43192 0.0
Li441 Li 0.81937 0.11928 0.43191 0.0
Li442 Li 0.8504 0.13919 0.41501 0.0
Li443 Li 0.81284 0.13738 0.3961 0.0
C444 C 0.86125 0.14274 0.45845 0.0
N445 N 0.90502 0.15026 0.47837 0.0
C446 C 0.87337 0.12738 0.46991 0.0
C447 C 0.87129 0.16197 0.45729 0.0
C448 C 0.89551 0.13147 0.47982 0.0
C449 C 0.89346 0.16546 0.46744 0.0
C450 C 0.77401 0.13713 0.43951 0.0
C451 C 0.73237 0.13677 0.44953 0.0
N452 N 0.73834 0.13798 0.47213 0.0
C453 C 0.77975 0.13839 0.46284 0.0
C454 C 0.75016 0.13636 0.43277 0.0
C455 C 0.76145 0.1388 0.47907 0.0
C456 C 0.79026 0.19229 0.43937 0.0
N457 N 0.80652 0.17966 0.44892 0.0
C458 C 0.80696 0.19914 0.48351 0.0
C459 C 0.81473 0.18265 0.47064 0.0
C460 C 0.79024 0.21249 0.4741 0.0
C461 C 0.78173 0.20885 0.45177 0.0
H462 H 0.78384 0.18943 0.42215 0.0
H463 H 0.82714 0.17211 0.47811 0.0
C464 C 0.83348 0.08297 0.45091 0.0
N465 N 0.81383 0.09465 0.44818 0.0
C466 C 0.83203 0.06463 0.46249 0.0
C467 C 0.78993 0.07031 0.46782 0.0
C468 C 0.79218 0.0885 0.45596 0.0
C469 C 0.81008 0.05814 0.4714 0.0
H470 H 0.85032 0.08789 0.44389 0.0
H471 H 0.77657 0.09757 0.45294 0.0
C472 C 0.84154 0.16852 0.38131 0.0
N473 N 0.85973 0.1815 0.33982 0.0
C474 C 0.85318 0.15499 0.36674 0.0
C475 C 0.83914 0.18865 0.37477 0.0
C476 C 0.86225 0.16185 0.34584 0.0
C477 C 0.84846 0.19492 0.35373 0.0
C478 C 0.82689 0.09743 0.39267 0.0
C479 C 0.84257 0.08382 0.3824 0.0
C480 C 0.80255 0.09303 0.39342 0.0
C481 C 0.83364 0.06601 0.37294 0.0
C482 C 0.79432 0.07506 0.38378 0.0
N483 N 0.8099 0.06204 0.37382 0.0
C484 C 0.89568 0.12171 0.41448 0.0
C485 C 0.89649 0.15665 0.40638 0.0
C486 C 0.92047 0.12072 0.41331 0.0
N487 N 0.88426 0.13948 0.41114 0.0
C488 C 0.92132 0.15631 0.40482 0.0
C489 C 0.93371 0.13818 0.40843 0.0
H490 H 0.88549 0.10836 0.41854 0.0
H491 H 0.88701 0.17067 0.4041 0.0
C492 C 0.77642 0.14732 0.36431 0.0
N493 N 0.79708 0.13692 0.36686 0.0
C494 C 0.76473 0.14762 0.34307 0.0
C495 C 0.79572 0.12641 0.32756 0.0
C496 C 0.80686 0.12663 0.349 0.0
C497 C 0.77437 0.13707 0.32428 0.0
H498 H 0.76912 0.15552 0.37874 0.0
H499 H 0.82341 0.1186 0.35133 0.0
O500 O 0.83987 0.13892 0.44804 0.0
O501 O 0.79153 0.13708 0.42322 0.0
O502 O 0.83228 0.1622 0.40179 0.0
O503 O 0.83554 0.11485 0.40209 0.0
H504 H 0.86582 0.11245 0.47111 0.0
H505 H 0.86224 0.17399 0.44829 0.0
H506 H 0.90515 0.11969 0.48866 0.0
H507 H 0.90153 0.18023 0.4665 0.0
H508 H 0.71383 0.13615 0.44456 0.0
H509 H 0.7981 0.13894 0.46841 0.0
H510 H 0.74545 0.13546 0.41476 0.0
H511 H 0.76562 0.13975 0.49717 0.0
H512 H 0.81366 0.20123 0.5008 0.0
H513 H 0.76887 0.21883 0.44391 0.0
H514 H 0.84792 0.05555 0.4642 0.0
H515 H 0.77263 0.06598 0.47435 0.0
H516 H 0.85523 0.13936 0.37149 0.0
H517 H 0.83012 0.19929 0.38585 0.0
H518 H 0.87129 0.15153 0.3344 0.0
H519 H 0.84673 0.21046 0.34845 0.0
H520 H 0.86146 0.087 0.38175 0.0
H521 H 0.79011 0.10332 0.40132 0.0
H522 H 0.84557 0.05534 0.36491 0.0
H523 H 0.77555 0.07146 0.38422 0.0
H524 H 0.92916 0.10648 0.41668 0.0
H525 H 0.93066 0.17011 0.40076 0.0
H526 H 0.74852 0.1563 0.34134 0.0
H527 H 0.8037 0.1178 0.31377 0.0
Li528 Li 0.65597 0.14075 0.09665 0.0
Li529 Li 0.69542 0.13741 0.1198 0.0
Li530 Li 0.69318 0.15573 0.08325 0.0
Li531 Li 0.68981 0.12035 0.08296 0.0
C532 C 0.67519 0.18236 0.11133 0.0
N533 N 0.67567 0.22379 0.10758 0.0
C534 C 0.6946 0.19337 0.11957 0.0
C535 C 0.65596 0.19239 0.1013 0.0
C536 C 0.69453 0.21432 0.11746 0.0
C537 C 0.65654 0.21336 0.09956 0.0
C538 C 0.66965 0.09618 0.11228 0.0
C539 C 0.68632 0.06391 0.12222 0.0
N540 N 0.66801 0.05464 0.11114 0.0
C541 C 0.65092 0.08636 0.10111 0.0
C542 C 0.68746 0.08491 0.12299 0.0
C543 C 0.65045 0.06533 0.10068 0.0
C544 C 0.61033 0.13231 0.08075 0.0
N545 N 0.62222 0.14178 0.09798 0.0
C546 C 0.58554 0.15039 0.11637 0.0
C547 C 0.61045 0.15083 0.11558 0.0
C548 C 0.57275 0.14044 0.09894 0.0
C549 C 0.58552 0.1315 0.08085 0.0
H550 H 0.6202 0.1252 0.06701 0.0
H551 H 0.62041 0.15815 0.12913 0.0
C552 C 0.72885 0.1485 0.15336 0.0
N553 N 0.70909 0.13713 0.14977 0.0
C554 C 0.73976 0.14888 0.17491 0.0
C555 C 0.70979 0.1258 0.18875 0.0
C556 C 0.69937 0.12594 0.16691 0.0
C557 C 0.73034 0.13736 0.193 0.0
H558 H 0.73619 0.15724 0.13939 0.0
H559 H 0.68362 0.11704 0.16357 0.0
C560 C 0.66905 0.1466 0.0441 0.0
N561 N 0.66768 0.16135 0.9998 0.0
C562 C 0.68803 0.14307 0.02914 0.0
C563 C 0.64923 0.15742 0.03648 0.0
C564 C 0.68704 0.15072 1.00683 0.0
C565 C 0.64892 0.1648 0.01403 0.0
C566 C 0.73756 0.12557 0.08952 0.0
C567 C 0.74815 0.12605 0.06782 0.0
C568 C 0.74791 0.11414 0.10703 0.0
C569 C 0.76873 0.11477 0.06386 0.0
C570 C 0.76853 0.10311 0.10239 0.0
N571 N 0.7784 0.10363 0.08108 0.0
C572 C 0.73062 0.18127 0.06978 0.0
C573 C 0.69331 0.19141 0.05488 0.0
C574 C 0.74198 0.19714 0.05851 0.0
N575 N 0.70675 0.17854 0.06758 0.0
C576 C 0.70397 0.20733 0.04305 0.0
C577 C 0.72872 0.21033 0.04461 0.0
H578 H 0.74089 0.17111 0.08036 0.0
H579 H 0.67429 0.18933 0.05382 0.0
C580 C 0.67891 0.093 0.04818 0.0
N581 N 0.69496 0.09603 0.06532 0.0
C582 C 0.6802 0.07593 0.03428 0.0
C583 C 0.71424 0.06485 0.05618 0.0
C584 C 0.71225 0.0822 0.06973 0.0
C585 C 0.69815 0.0616 0.03804 0.0
H586 H 0.66476 0.10375 0.04545 0.0
H587 H 0.72431 0.08438 0.08392 0.0
O588 O 0.67519 0.16182 0.11264 0.0
O589 O 0.67086 0.11673 0.11223 0.0
O590 O 0.6697 0.13929 0.06602 0.0
O591 O 0.71756 0.13667 0.09378 0.0
H592 H 0.70967 0.1858 0.12726 0.0
H593 H 0.64089 0.18404 0.09467 0.0
H594 H 0.70951 0.22304 0.12361 0.0
H595 H 0.64185 0.22133 0.09173 0.0
H596 H 0.70006 0.05499 0.13032 0.0
H597 H 0.63708 0.09488 0.09262 0.0
H598 H 0.70217 0.0923 0.13156 0.0
H599 H 0.63616 0.05751 0.09196 0.0
H600 H 0.57644 0.15731 0.13074 0.0
H601 H 0.57644 0.12394 0.06687 0.0
H602 H 0.75532 0.15827 0.17739 0.0
H603 H 0.70204 0.11648 0.20203 0.0
H604 H 0.70333 0.1345 0.03471 0.0
H605 H 0.6344 0.16028 0.04787 0.0
H606 H 0.70165 0.14818 0.99509 0.0
H607 H 0.63378 0.17332 1.00793 0.0
H608 H 0.74062 0.1351 0.05422 0.0
H609 H 0.74001 0.11362 0.12394 0.0
H610 H 0.77705 0.11493 0.04711 0.0
H611 H 0.77665 0.09411 0.11573 0.0
H612 H 0.76097 0.19906 0.06081 0.0
H613 H 0.69293 0.21693 0.03247 0.0
H614 H 0.66697 0.07383 0.02096 0.0
H615 H 0.72833 0.05419 0.05979 0.0
Li616 Li 0.81264 0.87991 0.62214 0.0
Li617 Li 0.85112 0.87336 0.60217 0.0
Li618 Li 0.8225 0.89641 0.58651 0.0
Li619 Li 0.81399 0.86132 0.58553 0.0
C620 C 0.84162 0.91895 0.61809 0.0
N621 N 0.84511 0.96043 0.61937 0.0
C622 C 0.86351 0.92833 0.61416 0.0
C623 C 0.82155 0.93066 0.62288 0.0
C624 C 0.8649 0.94933 0.61482 0.0
C625 C 0.82367 0.95161 0.62341 0.0
C626 C 0.83594 0.84474 0.63535 0.0
C627 C 0.84086 0.81574 0.65975 0.0
N628 N 0.85135 0.82759 0.67592 0.0
C629 C 0.84675 0.85665 0.65222 0.0
C630 C 0.83291 0.82413 0.63914 0.0
C631 C 0.85442 0.84769 0.67261 0.0
C632 C 0.78022 0.86865 0.65735 0.0
N633 N 0.79781 0.88181 0.65166 0.0
C634 C 0.79558 0.8973 0.6887 0.0
C635 C 0.80576 0.89582 0.66689 0.0
C636 C 0.77734 0.88399 0.69508 0.0
C637 C 0.76976 0.86941 0.67915 0.0
H638 H 0.77446 0.85749 0.64499 0.0
H639 H 0.82022 0.90572 0.66225 0.0
C640 C 0.89864 0.88162 0.59292 0.0
N641 N 0.88467 0.86844 0.60462 0.0
C642 C 0.92337 0.87959 0.59315 0.0
C643 C 0.91901 0.85015 0.61709 0.0
C644 C 0.89432 0.85263 0.6162 0.0
C645 C 0.93387 0.86379 0.60554 0.0
H646 H 0.89049 0.8937 0.58329 0.0
H647 H 0.883 0.84179 0.62458 0.0
C648 C 0.77462 0.88569 0.57849 0.0
N649 N 0.73974 0.89009 0.54541 0.0
C650 C 0.78088 0.88747 0.55535 0.0
C651 C 0.75064 0.88615 0.58481 0.0
C652 C 0.76298 0.88967 0.53888 0.0
C653 C 0.73326 0.88839 0.56783 0.0
C654 C 0.85345 0.8624 0.5569 0.0
C655 C 0.86232 0.86841 0.53558 0.0
C656 C 0.85799 0.84292 0.56486 0.0
C657 C 0.87556 0.85479 0.52249 0.0
C658 C 0.8713 0.82975 0.55126 0.0
N659 N 0.87974 0.83591 0.53054 0.0
C660 C 0.84094 0.92666 0.55843 0.0
C661 C 0.80113 0.93308 0.56977 0.0
C662 C 0.8419 0.9449 0.54663 0.0
N663 N 0.82084 0.92118 0.56979 0.0
C664 C 0.80123 0.9514 0.55797 0.0
C665 C 0.82189 0.95757 0.54635 0.0
H666 H 0.85637 0.91692 0.55885 0.0
H667 H 0.78547 0.92851 0.57922 0.0
C668 C 0.78872 0.8246 0.57908 0.0
N669 N 0.79967 0.84006 0.56805 0.0
C670 C 0.77854 0.80879 0.56653 0.0
C671 C 0.79111 0.82515 0.53155 0.0
C672 C 0.8009 0.84063 0.54473 0.0
C673 C 0.77971 0.8089 0.54239 0.0
H674 H 0.7879 0.82456 0.59764 0.0
H675 H 0.80965 0.85306 0.53628 0.0
O676 O 0.83971 0.89844 0.61683 0.0
O677 O 0.82787 0.85316 0.61539 0.0
O678 O 0.79176 0.88346 0.59499 0.0
O679 O 0.84056 0.8757 0.56986 0.0
H680 H 0.87925 0.91953 0.61058 0.0
H681 H 0.80441 0.92364 0.62573 0.0
H682 H 0.8817 0.95679 0.61169 0.0
H683 H 0.80824 0.96085 0.6269 0.0
H684 H 0.83866 0.7998 0.6629 0.0
H685 H 0.84933 0.87261 0.64959 0.0
H686 H 0.8245 0.81474 0.62627 0.0
H687 H 0.86284 0.85671 0.68579 0.0
H688 H 0.80221 0.90852 0.70061 0.0
H689 H 0.75571 0.85889 0.68342 0.0
H690 H 0.93418 0.89046 0.58403 0.0
H691 H 0.92639 0.83753 0.62645 0.0
H692 H 0.79934 0.88722 0.55014 0.0
H693 H 0.74553 0.88479 0.60266 0.0
H694 H 0.76757 0.89107 0.52092 0.0
H695 H 0.71463 0.88878 0.57247 0.0
H696 H 0.85899 0.88346 0.52922 0.0
H697 H 0.85132 0.83797 0.58131 0.0
H698 H 0.88252 0.85923 0.50594 0.0
H699 H 0.87494 0.81464 0.55719 0.0
H700 H 0.8581 0.94901 0.53772 0.0
H701 H 0.78553 0.96085 0.55839 0.0
H702 H 0.76967 0.79675 0.57565 0.0
H703 H 0.79281 0.82579 0.51305 0.0
Li704 Li 0.81314 0.65539 0.08479 0.0
Li705 Li 0.84788 0.6385 0.09838 0.0
Li706 Li 0.81486 0.61925 0.0836 0.0
Li707 Li 0.81213 0.63618 0.12235 0.0
C708 C 0.83624 0.64985 0.04725 0.0
N709 N 0.83746 0.67399 0.00858 0.0
C710 C 0.85616 0.66185 0.04272 0.0
C711 C 0.81687 0.6503 0.03215 0.0
C712 C 0.85647 0.67387 0.02305 0.0
C713 C 0.81783 0.66257 0.01271 0.0
C714 C 0.84775 0.6715 0.12504 0.0
C715 C 0.8669 0.68246 0.15998 0.0
N716 N 0.88272 0.69331 0.14737 0.0
C717 C 0.86415 0.68281 0.11243 0.0
C718 C 0.84909 0.67133 0.14902 0.0
C719 C 0.88173 0.6937 0.12404 0.0
C720 C 0.77705 0.68089 0.06622 0.0
N721 N 0.80076 0.6793 0.07054 0.0
C722 C 0.80782 0.71151 0.05355 0.0
C723 C 0.81604 0.69433 0.06478 0.0
C724 C 0.78343 0.7136 0.04863 0.0
C725 C 0.76795 0.69799 0.0553 0.0
H726 H 0.76517 0.66889 0.07127 0.0
H727 H 0.83476 0.69285 0.06849 0.0
C728 C 0.89341 0.63238 0.07988 0.0
N729 N 0.88224 0.63785 0.09962 0.0
C730 C 0.91816 0.631 0.07902 0.0
C731 C 0.91966 0.63981 0.11923 0.0
C732 C 0.89482 0.64118 0.11924 0.0
C733 C 0.93172 0.63476 0.09886 0.0
H734 H 0.88305 0.62888 0.06475 0.0
H735 H 0.88561 0.64453 0.13506 0.0
C736 C 0.77014 0.62333 0.09184 0.0
N737 N 0.73459 0.59581 0.08229 0.0
C738 C 0.76271 0.60974 0.10868 0.0
C739 C 0.75944 0.62297 0.07016 0.0
C740 C 0.74471 0.59594 0.10351 0.0
C741 C 0.74151 0.60892 0.06566 0.0
C742 C 0.85232 0.60283 0.11775 0.0
C743 C 0.86307 0.59083 0.10097 0.0
C744 C 0.86219 0.60383 0.13976 0.0
C745 C 0.88365 0.58007 0.10649 0.0
C746 C 0.88277 0.59282 0.14461 0.0
N747 N 0.89299 0.58128 0.12801 0.0
C748 C 0.80635 0.59444 0.04436 0.0
C749 C 0.80368 0.57778 0.08018 0.0
C750 C 0.80273 0.57633 0.03266 0.0
N751 N 0.80689 0.59484 0.06768 0.0
C752 C 0.80031 0.55926 0.06917 0.0
C753 C 0.80014 0.55829 0.04502 0.0
H754 H 0.80931 0.60804 0.03474 0.0
H755 H 0.80448 0.57847 0.09872 0.0
C756 C 0.78524 0.65201 0.15844 0.0
N757 N 0.79852 0.63578 0.15232 0.0
C758 C 0.77446 0.65286 0.18002 0.0
C759 C 0.79122 0.62024 0.18868 0.0
C760 C 0.80161 0.61998 0.16684 0.0
C761 C 0.77736 0.63683 0.1955 0.0
H762 H 0.78309 0.66434 0.14649 0.0
H763 H 0.81194 0.6071 0.16139 0.0
O764 O 0.83548 0.63807 0.06656 0.0
O765 O 0.83031 0.66081 0.11405 0.0
O766 O 0.78831 0.63647 0.09633 0.0
O767 O 0.83258 0.61392 0.11247 0.0
H768 H 0.87107 0.66225 0.05443 0.0
H769 H 0.80098 0.64169 0.03568 0.0
H770 H 0.87175 0.68325 0.0194 0.0
H771 H 0.80289 0.66313 1.001 0.0
H772 H 0.86818 0.68243 0.17852 0.0
H773 H 0.86369 0.68282 0.09389 0.0
H774 H 0.83659 0.66265 0.15906 0.0
H775 H 0.89465 0.70238 0.11449 0.0
H776 H 0.82059 0.72286 0.04847 0.0
H777 H 0.74896 0.69902 0.05235 0.0
H778 H 0.92655 0.62713 0.06287 0.0
H779 H 0.92924 0.64229 0.13512 0.0
H780 H 0.77095 0.60969 0.12547 0.0
H781 H 0.76508 0.63328 0.05688 0.0
H782 H 0.73885 0.58528 0.11635 0.0
H783 H 0.73316 0.6084 0.04893 0.0
H784 H 0.85579 0.59007 0.08378 0.0
H785 H 0.8543 0.6133 0.15283 0.0
H786 H 0.89224 0.57082 0.09364 0.0
H787 H 0.8907 0.59355 0.16152 0.0
H788 H 0.80232 0.57648 0.01407 0.0
H789 H 0.79873 0.5458 0.0795 0.0
H790 H 0.76416 0.66604 0.18463 0.0
H791 H 0.79366 0.60745 0.19995 0.0
Li792 Li 0.69311 0.39365 0.58498 0.0
Li793 Li 0.6968 0.37573 0.62049 0.0
Li794 Li 0.69672 0.35736 0.58394 0.0
Li795 Li 0.66016 0.37372 0.59869 0.0
C796 C 0.73991 0.38807 0.60219 0.0
N797 N 0.7787 0.41012 0.61706 0.0
C798 C 0.73679 0.40754 0.61079 0.0
C799 C 0.76275 0.3798 0.60116 0.0
C800 C 0.75662 0.41845 0.61822 0.0
C801 C 0.78214 0.39119 0.60876 0.0
C802 C 0.66123 0.40295 0.63204 0.0
C803 C 0.64018 0.39358 0.6665 0.0
N804 N 0.63466 0.41325 0.6702 0.0
C805 C 0.65534 0.42306 0.63617 0.0
C806 C 0.65358 0.38806 0.64731 0.0
C807 C 0.6419 0.42797 0.65556 0.0
C808 C 0.67993 0.43 0.56515 0.0
N809 N 0.69912 0.41788 0.56823 0.0
C810 C 0.72336 0.43993 0.54576 0.0
C811 C 0.72058 0.4224 0.55874 0.0
C812 C 0.70375 0.45273 0.54204 0.0
C813 C 0.68177 0.44742 0.55193 0.0
H814 H 0.66298 0.42581 0.57255 0.0
H815 H 0.73548 0.4123 0.56102 0.0
C816 C 0.71448 0.35925 0.66234 0.0
N817 N 0.70959 0.37666 0.65104 0.0
C818 C 0.72273 0.35974 0.68503 0.0
C819 C 0.72118 0.39605 0.68385 0.0
C820 C 0.71279 0.39486 0.66132 0.0
C821 C 0.72608 0.37834 0.69618 0.0
H822 H 0.71166 0.34497 0.65382 0.0
H823 H 0.7086 0.40852 0.65212 0.0
C824 C 0.67589 0.3809 0.54529 0.0
N825 N 0.68163 0.39592 0.50143 0.0
C826 C 0.65663 0.3896 0.53381 0.0
C827 C 0.69803 0.37973 0.53443 0.0
C828 C 0.6599 0.39714 0.51164 0.0
C829 C 0.70058 0.38744 0.51226 0.0
C830 C 0.66716 0.33287 0.60983 0.0
C831 C 0.65428 0.32904 0.58973 0.0
C832 C 0.66848 0.31811 0.62685 0.0
C833 C 0.64294 0.31048 0.58701 0.0
C834 C 0.65687 0.29973 0.62349 0.0
N835 N 0.64446 0.29632 0.6038 0.0
C836 C 0.72752 0.32416 0.5751 0.0
C837 C 0.69709 0.32921 0.54752 0.0
C838 C 0.73598 0.30745 0.56292 0.0
N839 N 0.70843 0.33465 0.56721 0.0
C840 C 0.70503 0.31274 0.53475 0.0
C841 C 0.72472 0.30152 0.54238 0.0
H842 H 0.73609 0.32874 0.59091 0.0
H843 H 0.68182 0.33766 0.54169 0.0
C844 C 0.61491 0.38847 0.58912 0.0
N845 N 0.62619 0.37343 0.60056 0.0
C846 C 0.59016 0.39013 0.58993 0.0
C847 C 0.589 0.36093 0.61461 0.0
C848 C 0.61383 0.3599 0.61341 0.0
C849 C 0.57685 0.37623 0.60278 0.0
H850 H 0.62524 0.39935 0.57958 0.0
H851 H 0.62319 0.34849 0.62305 0.0
O852 O 0.72079 0.37697 0.595 0.0
O853 O 0.67433 0.39801 0.61305 0.0
O854 O 0.6733 0.37402 0.56729 0.0
O855 O 0.67868 0.35084 0.61288 0.0
H856 H 0.71925 0.41419 0.61172 0.0
H857 H 0.76544 0.36472 0.59459 0.0
H858 H 0.75445 0.43354 0.62492 0.0
H859 H 0.79993 0.38498 0.60807 0.0
H860 H 0.63416 0.38221 0.67845 0.0
H861 H 0.6611 0.43475 0.62448 0.0
H862 H 0.65794 0.37241 0.64444 0.0
H863 H 0.63722 0.44348 0.65897 0.0
H864 H 0.74074 0.44338 0.53877 0.0
H865 H 0.66594 0.45637 0.54914 0.0
H866 H 0.72594 0.34566 0.69386 0.0
H867 H 0.72383 0.41076 0.69147 0.0
H868 H 0.63936 0.39058 0.54191 0.0
H869 H 0.71319 0.37324 0.54319 0.0
H870 H 0.64518 0.40397 0.50257 0.0
H871 H 0.71765 0.38676 0.50371 0.0
H872 H 0.65289 0.34028 0.57641 0.0
H873 H 0.67837 0.32082 0.64251 0.0
H874 H 0.63291 0.30733 0.57155 0.0
H875 H 0.65775 0.28817 0.63653 0.0
H876 H 0.75098 0.29912 0.56971 0.0
H877 H 0.69595 0.30902 0.5189 0.0
H878 H 0.58153 0.40213 0.58049 0.0
H879 H 0.57947 0.35015 0.62508 0.0
Li880 Li 0.8129 0.37527 0.89757 0.0
Li881 Li 0.81709 0.39536 0.93214 0.0
Li882 Li 0.84877 0.37283 0.92028 0.0
Li883 Li 0.81169 0.35948 0.93493 0.0
C884 C 0.85028 0.40052 0.88498 0.0
N885 N 0.87819 0.40815 0.84694 0.0
C886 C 0.8577 0.42014 0.88019 0.0
C887 C 0.85706 0.38476 0.87045 0.0
C888 C 0.8718 0.42369 0.86086 0.0
C889 C 0.87117 0.38893 0.8513 0.0
C890 C 0.77127 0.39201 0.91422 0.0
C891 C 0.72974 0.39964 0.90823 0.0
N892 N 0.73598 0.41722 0.89792 0.0
C893 C 0.77725 0.41018 0.9036 0.0
C894 C 0.74732 0.3867 0.9166 0.0
C895 C 0.75916 0.42271 0.89546 0.0
C896 C 0.79397 0.35596 0.85848 0.0
N897 N 0.80046 0.37425 0.86692 0.0
C898 C 0.79009 0.39008 0.8314 0.0
C899 C 0.79869 0.39118 0.85391 0.0
C900 C 0.78351 0.37134 0.82212 0.0
C901 C 0.78552 0.35413 0.83598 0.0
H902 H 0.79548 0.34276 0.86922 0.0
H903 H 0.8042 0.40553 0.86088 0.0
C904 C 0.83273 0.43229 0.94791 0.0
N905 N 0.81274 0.42085 0.94673 0.0
C906 C 0.83224 0.45108 0.95861 0.0
C907 C 0.79049 0.44606 0.96677 0.0
C908 C 0.79184 0.42722 0.95602 0.0
C909 C 0.81089 0.45833 0.96813 0.0
H910 H 0.84918 0.42667 0.94067 0.0
H911 H 0.77624 0.41771 0.95513 0.0
C912 C 0.84012 0.3321 0.91187 0.0
N913 N 0.86112 0.29539 0.92119 0.0
C914 C 0.85403 0.32966 0.93158 0.0
C915 C 0.83694 0.31588 0.89687 0.0
C916 C 0.86448 0.31099 0.936 0.0
C917 C 0.84769 0.29743 0.90189 0.0
C918 C 0.82905 0.37866 0.97396 0.0
C919 C 0.84657 0.37917 0.99099 0.0
C920 C 0.8051 0.38064 0.98006 0.0
C921 C 0.83983 0.38163 0.01391 0.0
C922 C 0.79908 0.38308 1.00317 0.0
N923 N 0.81642 0.38353 0.01947 0.0
C924 C 0.894 0.38531 0.9328 0.0
C925 C 0.89507 0.35833 0.90611 0.0
C926 C 0.91879 0.38657 0.93276 0.0
N927 N 0.88269 0.37141 0.91958 0.0
C928 C 0.91997 0.35892 0.90575 0.0
C929 C 0.93211 0.37331 0.91905 0.0
H930 H 0.88365 0.39561 0.94318 0.0
H931 H 0.88565 0.34766 0.89541 0.0
C932 C 0.77445 0.33316 0.94716 0.0
N933 N 0.79721 0.3384 0.95242 0.0
C934 C 0.76289 0.31801 0.95951 0.0
C935 C 0.79855 0.31366 0.98221 0.0
C936 C 0.8093 0.32909 0.96965 0.0
C937 C 0.77501 0.30799 0.97723 0.0
H938 H 0.76529 0.34077 0.93334 0.0
H939 H 0.82727 0.33368 0.97374 0.0
O940 O 0.83653 0.39688 0.90391 0.0
O941 O 0.78859 0.37939 0.92234 0.0
O942 O 0.82959 0.35021 0.90712 0.0
O943 O 0.83551 0.37628 0.95148 0.0
H944 H 0.8526 0.43248 0.8913 0.0
H945 H 0.8515 0.36947 0.87387 0.0
H946 H 0.87767 0.43881 0.85693 0.0
H947 H 0.87655 0.37689 0.83991 0.0
H948 H 0.71114 0.3957 0.90995 0.0
H949 H 0.79563 0.41466 0.9017 0.0
H950 H 0.74236 0.37272 0.92483 0.0
H951 H 0.76356 0.4368 0.8872 0.0
H952 H 0.78907 0.40368 0.82122 0.0
H953 H 0.78043 0.33944 0.82956 0.0
H954 H 0.84857 0.45971 0.95966 0.0
H955 H 0.7736 0.45103 0.9737 0.0
H956 H 0.85682 0.34202 0.94336 0.0
H957 H 0.82628 0.31751 0.8815 0.0
H958 H 0.87528 0.3089 0.9512 0.0
H959 H 0.84536 0.28475 0.89044 0.0
H960 H 0.86519 0.37766 0.98652 0.0
H961 H 0.79127 0.38027 0.96715 0.0
H962 H 0.8532 0.38205 0.02728 0.0
H963 H 0.78062 0.38463 1.00813 0.0
H964 H 0.92747 0.39778 0.9434 0.0
H965 H 0.92959 0.34858 0.89475 0.0
H966 H 0.74479 0.31397 0.95504 0.0
H967 H 0.80839 0.30644 0.99592 0.0
Li968 Li 0.70079 0.65508 0.43814 0.0
Li969 Li 0.66233 0.64114 0.42179 0.0
Li970 Li 0.69374 0.61906 0.43503 0.0
Li971 Li 0.69954 0.63742 0.4001 0.0
C972 C 0.66904 0.62884 0.47261 0.0
N973 N 0.65664 0.60645 0.51076 0.0
C974 C 0.64554 0.62246 0.47564 0.0
C975 C 0.68617 0.62405 0.48916 0.0
C976 C 0.63963 0.61112 0.49501 0.0
C977 C 0.67957 0.61264 0.50826 0.0
C978 C 0.6752 0.67255 0.39011 0.0
C979 C 0.65152 0.67271 0.35555 0.0
N980 N 0.65934 0.69164 0.35088 0.0
C981 C 0.68304 0.69198 0.38497 0.0
C982 C 0.65934 0.66279 0.37531 0.0
C983 C 0.67479 0.7014 0.36505 0.0
C984 C 0.72767 0.6909 0.44492 0.0
N985 N 0.71401 0.67676 0.45545 0.0
C986 C 0.71875 0.69328 0.49167 0.0
C987 C 0.70928 0.67776 0.47832 0.0
C988 C 0.73294 0.70812 0.48133 0.0
C989 C 0.73728 0.70688 0.4576 0.0
H990 H 0.73109 0.68975 0.42668 0.0
H991 H 0.69813 0.66647 0.48621 0.0
C992 C 0.61479 0.62886 0.41653 0.0
N993 N 0.6289 0.64518 0.42007 0.0
C994 C 0.59006 0.63092 0.4162 0.0
C995 C 0.59487 0.66662 0.42288 0.0
C996 C 0.61954 0.66385 0.42313 0.0
C997 C 0.57974 0.64999 0.41952 0.0
H998 H 0.62277 0.61416 0.41444 0.0
H999 H 0.63126 0.67655 0.42593 0.0
C1000 C 0.7439 0.62878 0.43461 0.0
N1001 N 0.78732 0.61745 0.4528 0.0
C1002 C 0.76014 0.61796 0.42124 0.0
C1003 C 0.7499 0.63407 0.45713 0.0
C1004 C 0.78195 0.6123 0.43078 0.0
C1005 C 0.77189 0.62814 0.46604 0.0
C1006 C 0.67955 0.59958 0.39443 0.0
C1007 C 0.7025 0.59148 0.3947 0.0
C1008 C 0.66169 0.59009 0.38168 0.0
C1009 C 0.70721 0.57397 0.38219 0.0
C1010 C 0.66711 0.57261 0.36938 0.0
N1011 N 0.68957 0.56498 0.36989 0.0
C1012 C 0.67634 0.58323 0.45282 0.0
C1013 C 0.71797 0.58591 0.45863 0.0
C1014 C 0.67554 0.56552 0.46564 0.0
N1015 N 0.69719 0.59337 0.45011 0.0
C1016 C 0.71807 0.56797 0.47118 0.0
C1017 C 0.69656 0.55785 0.47522 0.0
H1018 H 0.66012 0.58931 0.4456 0.0
H1019 H 0.73441 0.59394 0.45622 0.0
C1020 C 0.73611 0.64329 0.36751 0.0
N1021 N 0.71319 0.63712 0.37002 0.0
C1022 C 0.74705 0.64267 0.34596 0.0
C1023 C 0.71046 0.62969 0.32988 0.0
C1024 C 0.70026 0.6305 0.35175 0.0
C1025 C 0.73423 0.63572 0.32677 0.0
H1026 H 0.74593 0.64862 0.3823 0.0
H1027 H 0.68205 0.62568 0.35417 0.0
O1028 O 0.67526 0.63953 0.45343 0.0
O1029 O 0.68331 0.66305 0.40939 0.0
O1030 O 0.72255 0.63459 0.42546 0.0
O1031 O 0.67453 0.61682 0.40636 0.0
H1032 H 0.63201 0.6261 0.46311 0.0
H1033 H 0.70444 0.62877 0.4871 0.0
H1034 H 0.62154 0.60599 0.49748 0.0
H1035 H 0.6927 0.60864 0.52106 0.0
H1036 H 0.63929 0.66532 0.34391 0.0
H1037 H 0.69538 0.69969 0.39624 0.0
H1038 H 0.65328 0.64766 0.37891 0.0
H1039 H 0.6807 0.71645 0.36084 0.0
H1040 H 0.71474 0.69384 0.50985 0.0
H1041 H 0.74824 0.71797 0.44901 0.0
H1042 H 0.57915 0.61762 0.41395 0.0
H1043 H 0.58774 0.68162 0.42524 0.0
H1044 H 0.75595 0.61395 0.40368 0.0
H1045 H 0.73771 0.64258 0.46767 0.0
H1046 H 0.79464 0.60384 0.42066 0.0
H1047 H 0.7767 0.63204 0.48348 0.0
H1048 H 0.7165 0.59859 0.40447 0.0
H1049 H 0.64385 0.59623 0.3812 0.0
H1050 H 0.7249 0.56754 0.38227 0.0
H1051 H 0.65346 0.56512 0.3594 0.0
H1052 H 0.65865 0.55799 0.46822 0.0
H1053 H 0.73462 0.56246 0.47834 0.0
H1054 H 0.7653 0.64772 0.34432 0.0
H1055 H 0.69998 0.62404 0.31565 0.0
Li1056 Li 0.18876 0.39404 0.93371 0.0
Li1057 Li 0.19532 0.35858 0.93253 0.0
Li1058 Li 0.19457 0.37819 0.89681 0.0
Li1059 Li 0.1577 0.37244 0.91959 0.0
C1060 C 0.23631 0.38122 0.93755 0.0
N1061 N 0.27385 0.38319 0.96815 0.0
C1062 C 0.23197 0.38304 0.96109 0.0
C1063 C 0.25974 0.38043 0.92956 0.0
C1064 C 0.25118 0.38401 0.97629 0.0
C1065 C 0.27848 0.38144 0.94531 0.0
C1066 C 0.15887 0.35997 0.96445 0.0
C1067 C 0.14017 0.32762 0.96987 0.0
N1068 N 0.13398 0.33313 0.99157 0.0
C1069 C 0.15233 0.3653 0.98679 0.0
C1070 C 0.15276 0.34097 0.9559 0.0
C1071 C 0.13976 0.35152 1.00024 0.0
C1072 C 0.17728 0.42422 0.96609 0.0
N1073 N 0.19392 0.41854 0.95043 0.0
C1074 C 0.21569 0.44903 0.95654 0.0
C1075 C 0.21308 0.43036 0.94574 0.0
C1076 C 0.19858 0.45545 0.97254 0.0
C1077 C 0.17934 0.44267 0.9775 0.0
H1078 H 0.16212 0.41459 0.96932 0.0
H1079 H 0.22603 0.4255 0.93316 0.0
C1080 C 0.2175 0.3204 0.93409 0.0
N1081 N 0.20997 0.33601 0.94731 0.0
C1082 C 0.22782 0.30344 0.94422 0.0
C1083 C 0.22277 0.31907 0.98138 0.0
C1084 C 0.2124 0.33565 0.97054 0.0
C1085 C 0.23058 0.30257 0.96822 0.0
H1086 H 0.21536 0.32108 0.91565 0.0
H1087 H 0.20627 0.34824 0.98072 0.0
C1088 C 0.1696 0.41813 0.90326 0.0
N1089 N 0.17098 0.45967 0.90076 0.0
C1090 C 0.15006 0.42953 0.91043 0.0
C1091 C 0.18981 0.42787 0.89472 0.0
C1092 C 0.15112 0.45051 0.90907 0.0
C1093 C 0.19016 0.44887 0.89359 0.0
C1094 C 0.16834 0.34477 0.88381 0.0
C1095 C 0.15562 0.35763 0.86929 0.0
C1096 C 0.17101 0.32451 0.87786 0.0
C1097 C 0.14578 0.34998 0.84905 0.0
C1098 C 0.16087 0.31743 0.85747 0.0
N1099 N 0.14858 0.3302 0.84361 0.0
C1100 C 0.2266 0.36897 0.86081 0.0
C1101 C 0.19678 0.39267 0.85094 0.0
C1102 C 0.23619 0.37 0.83867 0.0
N1103 N 0.20732 0.3803 0.8665 0.0
C1104 C 0.20594 0.39435 0.82874 0.0
C1105 C 0.22592 0.38295 0.82237 0.0
H1106 H 0.2345 0.35914 0.87349 0.0
H1107 H 0.18118 0.40122 0.85575 0.0
C1108 C 0.11051 0.38263 0.92999 0.0
N1109 N 0.12381 0.36844 0.91913 0.0
C1110 C 0.08572 0.38104 0.93058 0.0
C1111 C 0.08868 0.34988 0.90938 0.0
C1112 C 0.11343 0.352 0.90937 0.0
C1113 C 0.0744 0.36458 0.91996 0.0
H1114 H 0.11924 0.3951 0.93847 0.0
H1115 H 0.12424 0.34041 0.90166 0.0
O1116 O 0.21785 0.38015 0.92227 0.0
O1117 O 0.17115 0.37341 0.95117 0.0
O1118 O 0.16921 0.39759 0.90506 0.0
O1119 O 0.17849 0.35193 0.90356 0.0
H1120 H 0.21397 0.38366 0.96762 0.0
H1121 H 0.26338 0.37901 0.91138 0.0
H1122 H 0.24807 0.38539 0.99456 0.0
H1123 H 0.29671 0.38083 0.93937 0.0
H1124 H 0.13532 0.31289 0.96347 0.0
H1125 H 0.15695 0.37994 0.99366 0.0
H1126 H 0.15766 0.33651 0.93869 0.0
H1127 H 0.13458 0.35545 0.01756 0.0
H1128 H 0.23088 0.45838 0.95237 0.0
H1129 H 0.16564 0.44715 0.98954 0.0
H1130 H 0.23325 0.29102 0.93335 0.0
H1131 H 0.22483 0.3193 0.99986 0.0
H1132 H 0.13427 0.4223 0.91704 0.0
H1133 H 0.20528 0.41932 0.88949 0.0
H1134 H 0.13616 0.45952 0.91465 0.0
H1135 H 0.20575 0.4566 0.88719 0.0
H1136 H 0.15323 0.37332 0.87363 0.0
H1137 H 0.18079 0.31435 0.88889 0.0
H1138 H 0.13589 0.35975 0.83768 0.0
H1139 H 0.16279 0.30178 0.85266 0.0
H1140 H 0.25167 0.36102 0.83446 0.0
H1141 H 0.1973 0.40428 0.81658 0.0
H1142 H 0.07558 0.39246 0.93956 0.0
H1143 H 0.08086 0.33693 0.90095 0.0
Li1144 Li 0.31749 0.65343 0.43323 0.0
Li1145 Li 0.32279 0.61678 0.43138 0.0
Li1146 Li 0.35447 0.64067 0.41788 0.0
Li1147 Li 0.31818 0.63564 0.39467 0.0
C1148 C 0.34129 0.64362 0.4713 0.0
N1149 N 0.33954 0.65817 0.51573 0.0
C1150 C 0.32996 0.6325 0.48847 0.0
C1151 C 0.35196 0.66203 0.47677 0.0
C1152 C 0.32922 0.64014 0.51083 0.0
C1153 C 0.3508 0.66917 0.49932 0.0
C1154 C 0.27354 0.62316 0.42107 0.0
C1155 C 0.24509 0.60032 0.4041 0.0
N1156 N 0.23001 0.60374 0.42195 0.0
C1157 C 0.2576 0.62667 0.43905 0.0
C1158 C 0.2671 0.61008 0.40329 0.0
C1159 C 0.23575 0.61662 0.43927 0.0
C1160 C 0.30487 0.69406 0.4425 0.0
N1161 N 0.30297 0.67486 0.45035 0.0
C1162 C 0.28023 0.68605 0.48266 0.0
C1163 C 0.29088 0.67063 0.46998 0.0
C1164 C 0.28185 0.70607 0.475 0.0
C1165 C 0.29443 0.70996 0.45462 0.0
H1166 H 0.31433 0.69703 0.42671 0.0
H1167 H 0.28957 0.65527 0.47589 0.0
C1168 C 0.338 0.57904 0.4457 0.0
N1169 N 0.31867 0.59133 0.44632 0.0
C1170 C 0.33733 0.56014 0.45611 0.0
C1171 C 0.29704 0.56698 0.46828 0.0
C1172 C 0.29844 0.58576 0.45748 0.0
C1173 C 0.31664 0.55385 0.46757 0.0
H1174 H 0.35404 0.58398 0.43713 0.0
H1175 H 0.28348 0.59589 0.45824 0.0
C1176 C 0.34958 0.67447 0.39471 0.0
N1177 N 0.38326 0.69985 0.37585 0.0
C1178 C 0.35333 0.67464 0.37099 0.0
C1179 C 0.36277 0.68736 0.40882 0.0
C1180 C 0.37048 0.68755 0.36179 0.0
C1181 C 0.37977 0.70003 0.39897 0.0
C1182 C 0.34475 0.59867 0.39002 0.0
C1183 C 0.36559 0.59492 0.37763 0.0
C1184 C 0.32609 0.58477 0.3892 0.0
C1185 C 0.36723 0.57748 0.36428 0.0
C1186 C 0.32842 0.56749 0.3757 0.0
N1187 N 0.34876 0.56425 0.36359 0.0
C1188 C 0.40168 0.64503 0.43472 0.0
C1189 C 0.39815 0.64407 0.39418 0.0
C1190 C 0.42648 0.64593 0.43309 0.0
N1191 N 0.38812 0.644 0.41541 0.0
C1192 C 0.42285 0.64502 0.39175 0.0
C1193 C 0.43742 0.6457 0.41137 0.0
H1194 H 0.39327 0.64462 0.4514 0.0
H1195 H 0.38697 0.64299 0.37911 0.0
C1196 C 0.28449 0.64368 0.35949 0.0
N1197 N 0.30602 0.6352 0.36396 0.0
C1198 C 0.27562 0.64418 0.33703 0.0
C1199 C 0.31123 0.62718 0.32422 0.0
C1200 C 0.31945 0.62715 0.34685 0.0
C1201 C 0.28907 0.63588 0.31896 0.0
H1202 H 0.2743 0.65024 0.37336 0.0
H1203 H 0.33677 0.62097 0.35066 0.0
O1204 O 0.34198 0.63649 0.44927 0.0
O1205 O 0.29494 0.63303 0.42051 0.0
O1206 O 0.33314 0.66171 0.40407 0.0
O1207 O 0.34289 0.6157 0.40318 0.0
H1208 H 0.32168 0.6182 0.48455 0.0
H1209 H 0.3609 0.67077 0.46371 0.0
H1210 H 0.3204 0.63175 0.52427 0.0
H1211 H 0.35884 0.68345 0.50376 0.0
H1212 H 0.23994 0.59011 0.39049 0.0
H1213 H 0.26209 0.63692 0.4528 0.0
H1214 H 0.27884 0.6076 0.38887 0.0
H1215 H 0.22334 0.61908 0.45319 0.0
H1216 H 0.271 0.68233 0.49841 0.0
H1217 H 0.29586 0.72509 0.44785 0.0
H1218 H 0.35303 0.5507 0.45551 0.0
H1219 H 0.28072 0.56272 0.4769 0.0
H1220 H 0.34322 0.66482 0.35981 0.0
H1221 H 0.36001 0.68748 0.42719 0.0
H1222 H 0.37366 0.68777 0.34347 0.0
H1223 H 0.39021 0.70999 0.4097 0.0
H1224 H 0.38032 0.60539 0.37823 0.0
H1225 H 0.31014 0.5871 0.39917 0.0
H1226 H 0.3832 0.57445 0.35451 0.0
H1227 H 0.3141 0.55661 0.37493 0.0
H1228 H 0.43697 0.64612 0.4487 0.0
H1229 H 0.43044 0.64505 0.37466 0.0
H1230 H 0.25865 0.65136 0.33383 0.0
H1231 H 0.32216 0.62039 0.31101 0.0
Li1232 Li 0.15692 0.64033 0.09727 0.0
Li1233 Li 0.19439 0.63645 0.12086 0.0
Li1234 Li 0.19307 0.65517 0.0829 0.0
Li1235 Li 0.18957 0.61961 0.08364 0.0
C1236 C 0.16023 0.67277 0.12422 0.0
N1237 N 0.12637 0.69454 0.14812 0.0
C1238 C 0.15969 0.6722 0.14822 0.0
C1239 C 0.14364 0.68455 0.11241 0.0
C1240 C 0.14243 0.68329 0.15998 0.0
C1241 C 0.12663 0.69539 0.12479 0.0
C1242 C 0.16282 0.59675 0.11122 0.0
C1243 C 0.16649 0.56186 0.12207 0.0
N1244 N 0.14855 0.55708 0.10733 0.0
C1245 C 0.14439 0.5915 0.09622 0.0
C1246 C 0.17396 0.58183 0.12428 0.0
C1247 C 0.13745 0.57135 0.09449 0.0
C1248 C 0.10943 0.64151 0.08076 0.0
N1249 N 0.12305 0.64185 0.10007 0.0
C1250 C 0.0883 0.64332 0.12372 0.0
C1251 C 0.11301 0.64234 0.12131 0.0
C1252 C 0.0738 0.64318 0.10408 0.0
C1253 C 0.08463 0.64213 0.08238 0.0
H1254 H 0.1178 0.6405 0.0641 0.0
H1255 H 0.12422 0.64195 0.13641 0.0
C1256 C 0.22483 0.64797 0.15748 0.0
N1257 N 0.20667 0.63554 0.15136 0.0
C1258 C 0.23339 0.64801 0.18005 0.0
C1259 C 0.2045 0.62237 0.18948 0.0
C1260 C 0.19638 0.62295 0.16682 0.0
C1261 C 0.2232 0.63508 0.19647 0.0
H1262 H 0.23247 0.65801 0.14487 0.0
H1263 H 0.18167 0.61351 0.1616 0.0
C1264 C 0.17005 0.6491 0.04579 0.0
N1265 N 0.17229 0.67182 1.00611 0.0
C1266 C 0.186 0.64393 0.02833 0.0
C1267 C 0.15519 0.6658 0.04301 0.0
C1268 C 0.18685 0.65559 0.0084 0.0
C1269 C 0.15662 0.67711 0.02285 0.0
C1270 C 0.23599 0.62305 0.09037 0.0
C1271 C 0.24333 0.61948 0.06779 0.0
C1272 C 0.24775 0.61352 0.1085 0.0
C1273 C 0.26221 0.60627 0.06372 0.0
C1274 C 0.26658 0.60043 0.10372 0.0
N1275 N 0.27334 0.5971 0.08162 0.0
C1276 C 0.19561 0.6966 0.07113 0.0
C1277 C 0.22382 0.67629 0.05178 0.0
C1278 C 0.20316 0.7136 0.05907 0.0
N1279 N 0.20573 0.67834 0.06711 0.0
C1280 C 0.23194 0.69291 0.03929 0.0
C1281 C 0.22143 0.71189 0.04271 0.0
H1282 H 0.1815 0.69796 0.08358 0.0
H1283 H 0.23164 0.66168 0.04885 0.0
C1284 C 0.18392 0.59089 0.04799 0.0
N1285 N 0.19526 0.59425 0.06829 0.0
C1286 C 0.18545 0.57215 0.03717 0.0
C1287 C 0.20996 0.56042 0.0685 0.0
C1288 C 0.20817 0.57946 0.07859 0.0
C1289 C 0.19839 0.55655 0.04757 0.0
H1290 H 0.17299 0.60255 0.04054 0.0
H1291 H 0.21646 0.58221 0.09504 0.0
O1292 O 0.17692 0.66187 0.1124 0.0
O1293 O 0.17035 0.6163 0.11258 0.0
O1294 O 0.16941 0.6382 0.06572 0.0
O1295 O 0.21752 0.6359 0.09475 0.0
H1296 H 0.17239 0.66328 0.15771 0.0
H1297 H 0.14359 0.68506 0.09386 0.0
H1298 H 0.14177 0.68293 0.17854 0.0
H1299 H 0.11357 0.70442 0.11584 0.0
H1300 H 0.17505 0.55014 0.13196 0.0
H1301 H 0.13581 0.6028 0.08574 0.0
H1302 H 0.18854 0.58556 0.13567 0.0
H1303 H 0.12331 0.56706 0.08285 0.0
H1304 H 0.08058 0.64379 0.14076 0.0
H1305 H 0.07404 0.64197 0.06683 0.0
H1306 H 0.24753 0.65834 0.18464 0.0
H1307 H 0.19623 0.61197 0.20136 0.0
H1308 H 0.19786 0.63123 0.03026 0.0
H1309 H 0.14287 0.67014 0.05638 0.0
H1310 H 0.19921 0.65182 0.99482 0.0
H1311 H 0.14532 0.69013 0.02055 0.0
H1312 H 0.23431 0.62656 0.05354 0.0
H1313 H 0.24231 0.61607 0.12608 0.0
H1314 H 0.26795 0.60325 0.04632 0.0
H1315 H 0.27578 0.5929 0.11758 0.0
H1316 H 0.19483 0.72796 0.06263 0.0
H1317 H 0.24592 0.69081 0.02672 0.0
H1318 H 0.17587 0.56968 0.02127 0.0
H1319 H 0.22009 0.54878 0.07709 0.0
Li1320 Li 0.31291 0.3772 0.62165 0.0
Li1321 Li 0.35151 0.37417 0.60157 0.0
Li1322 Li 0.31963 0.39461 0.58669 0.0
Li1323 Li 0.31429 0.35889 0.58581 0.0
C1324 C 0.33604 0.41849 0.61833 0.0
N1325 N 0.33278 0.45995 0.62047 0.0
C1326 C 0.3555 0.43043 0.61217 0.0
C1327 C 0.31497 0.42762 0.62571 0.0
C1328 C 0.35347 0.45137 0.61332 0.0
C1329 C 0.31367 0.44861 0.62666 0.0
C1330 C 0.33294 0.3436 0.63577 0.0
C1331 C 0.32112 0.31827 0.66312 0.0
N1332 N 0.33434 0.32764 0.67955 0.0
C1333 C 0.34652 0.35291 0.65289 0.0
C1334 C 0.32021 0.32609 0.64088 0.0
C1335 C 0.34696 0.34463 0.67492 0.0
C1336 C 0.28013 0.36423 0.65525 0.0
N1337 N 0.29838 0.37721 0.65133 0.0
C1338 C 0.2977 0.38809 0.69049 0.0
C1339 C 0.30725 0.38908 0.66836 0.0
C1340 C 0.27909 0.37458 0.69517 0.0
C1341 C 0.27025 0.36258 0.67718 0.0
H1342 H 0.2736 0.35485 0.6414 0.0
H1343 H 0.32208 0.39899 0.66488 0.0
C1344 C 0.3986 0.38536 0.59237 0.0
N1345 N 0.38522 0.37141 0.60352 0.0
C1346 C 0.4234 0.38392 0.59235 0.0
C1347 C 0.42022 0.35357 0.61497 0.0
C1348 C 0.39546 0.35558 0.6145 0.0
C1349 C 0.43457 0.36788 0.60381 0.0
H1350 H 0.38994 0.39743 0.58316 0.0
H1351 H 0.38444 0.34436 0.62268 0.0
C1352 C 0.27359 0.38092 0.57888 0.0
N1353 N 0.23905 0.38369 0.54522 0.0
C1354 C 0.28008 0.38147 0.55571 0.0
C1355 C 0.24955 0.38176 0.58492 0.0
C1356 C 0.26235 0.38288 0.53896 0.0
C1357 C 0.23235 0.38317 0.56765 0.0
C1358 C 0.35336 0.36346 0.55586 0.0
C1359 C 0.36071 0.37053 0.53442 0.0
C1360 C 0.36074 0.34445 0.56331 0.0
C1361 C 0.37527 0.35842 0.52071 0.0
C1362 C 0.37531 0.33281 0.54911 0.0
N1363 N 0.3822 0.33997 0.52829 0.0
C1364 C 0.33295 0.42566 0.55684 0.0
C1365 C 0.2942 0.42996 0.57216 0.0
C1366 C 0.33116 0.44381 0.54491 0.0
N1367 N 0.31466 0.41915 0.57016 0.0
C1368 C 0.29164 0.44822 0.56051 0.0
C1369 C 0.31031 0.45541 0.54667 0.0
H1370 H 0.34912 0.41687 0.55582 0.0
H1371 H 0.27999 0.42453 0.58304 0.0
C1372 C 0.28507 0.32477 0.58135 0.0
N1373 N 0.30037 0.33669 0.56945 0.0
C1374 C 0.27385 0.30851 0.57058 0.0
C1375 C 0.29397 0.31728 0.53534 0.0
C1376 C 0.30463 0.33347 0.54673 0.0
C1377 C 0.27838 0.30452 0.54729 0.0
H1378 H 0.2814 0.32805 0.59919 0.0
H1379 H 0.31601 0.34357 0.53727 0.0
O1380 O 0.33738 0.39798 0.61664 0.0
O1381 O 0.33164 0.35192 0.61433 0.0
O1382 O 0.29051 0.3794 0.59571 0.0
O1383 O 0.33935 0.37534 0.5695 0.0
H1384 H 0.37192 0.42362 0.60643 0.0
H1385 H 0.29965 0.41859 0.63027 0.0
H1386 H 0.36835 0.4608 0.60849 0.0
H1387 H 0.29742 0.45588 0.63218 0.0
H1388 H 0.31129 0.30477 0.66734 0.0
H1389 H 0.35629 0.36659 0.64928 0.0
H1390 H 0.30971 0.31862 0.62784 0.0
H1391 H 0.35724 0.35177 0.68838 0.0
H1392 H 0.30523 0.39741 0.70393 0.0
H1393 H 0.25582 0.35206 0.68005 0.0
H1394 H 0.43367 0.39504 0.58305 0.0
H1395 H 0.42802 0.341 0.62408 0.0
H1396 H 0.29855 0.38084 0.55063 0.0
H1397 H 0.24425 0.3813 0.60279 0.0
H1398 H 0.26712 0.38332 0.52097 0.0
H1399 H 0.21367 0.38384 0.57209 0.0
H1400 H 0.3552 0.38523 0.52843 0.0
H1401 H 0.35529 0.33868 0.57983 0.0
H1402 H 0.38107 0.3637 0.50406 0.0
H1403 H 0.38113 0.31807 0.55466 0.0
H1404 H 0.34617 0.44889 0.5348 0.0
H1405 H 0.27519 0.45657 0.56223 0.0
H1406 H 0.26191 0.29907 0.58043 0.0
H1407 H 0.29751 0.31502 0.51724 0.0
H1408 H 0.28719 0.22597 1.00301 0.0
H1409 H 0.23878 0.23285 0.06006 0.0
H1410 H 0.22032 0.26164 0.04129 0.0
H1411 H 0.21794 0.28505 0.00886 0.0
H1412 H 0.26791 0.27956 0.95289 0.0
H1413 H 0.28563 0.2501 0.97109 0.0
C1414 C 0.27277 0.23386 0.01149 0.0
C1415 C 0.2644 0.22707 0.03294 0.0
C1416 C 0.26242 0.25069 1.00076 0.0
C1417 C 0.24539 0.2374 0.0434 0.0
C1418 C 0.23489 0.25401 0.03274 0.0
C1419 C 0.23289 0.2776 1.00073 0.0
C1420 C 0.24149 0.28462 0.97946 0.0
C1421 C 0.24329 0.26082 0.01145 0.0
C1422 C 0.26061 0.2744 0.96905 0.0
C1423 C 0.2709 0.2576 0.97954 0.0
H1424 H 0.29906 0.74386 0.48337 0.0
H1425 H 0.23825 0.70568 0.49592 0.0
H1426 H 0.21905 0.73268 0.51748 0.0
H1427 H 0.21912 0.76732 0.53226 0.0
H1428 H 0.2797 0.80565 0.51949 0.0
H1429 H 0.29907 0.77859 0.49809 0.0
C1430 C 0.28151 0.74149 0.49064 0.0
C1431 C 0.2702 0.72269 0.48803 0.0
C1432 C 0.27044 0.75716 0.50289 0.0
C1433 C 0.24759 0.71985 0.49791 0.0
C1434 C 0.23649 0.73534 0.51013 0.0
C1435 C 0.23666 0.7697 0.52499 0.0
C1436 C 0.2479 0.78853 0.52751 0.0
C1437 C 0.24775 0.75405 0.51275 0.0
C1438 C 0.27048 0.79142 0.51761 0.0
C1439 C 0.28165 0.77591 0.50546 0.0
H1440 H 0.23801 0.79196 0.98598 0.0
H1441 H 0.31105 0.7725 0.99176 0.0
H1442 H 0.29845 0.74287 0.01328 0.0
H1443 H 0.26676 0.72256 0.03084 0.0
H1444 H 0.19361 0.74149 0.02412 0.0
H1445 H 0.2062 0.77115 1.00263 0.0
C1446 C 0.25116 0.78114 0.99173 0.0
C1447 C 0.27547 0.78457 0.98729 0.0
C1448 C 0.24379 0.76403 1.00404 0.0
C1449 C 0.29226 0.77047 0.99521 0.0
C1450 C 0.28506 0.75343 1.00742 0.0
C1451 C 0.25353 0.73305 0.02448 0.0
C1452 C 0.22926 0.72977 0.02922 0.0
C1453 C 0.26088 0.75006 0.01199 0.0
C1454 C 0.21244 0.74375 0.02108 0.0
C1455 C 0.21961 0.76068 0.00864 0.0
H1456 H 0.29871 0.27741 0.51825 0.0
H1457 H 0.23174 0.29305 0.54976 0.0
H1458 H 0.21234 0.26492 0.53013 0.0
H1459 H 0.21425 0.23627 0.50354 0.0
H1460 H 0.28161 0.2199 0.47308 0.0
H1461 H 0.3008 0.24823 0.49229 0.0
C1462 C 0.27984 0.27472 0.5207 0.0
C1463 C 0.26669 0.28732 0.53543 0.0
C1464 C 0.26881 0.25848 0.50941 0.0
C1465 C 0.24232 0.28346 0.5387 0.0
C1466 C 0.23119 0.26744 0.52739 0.0
C1467 C 0.23319 0.23869 0.50129 0.0
C1468 C 0.24637 0.2259 0.48676 0.0
C1469 C 0.24426 0.25485 0.51271 0.0
C1470 C 0.27085 0.22963 0.4838 0.0
C1471 C 0.28192 0.24577 0.49493 0.0
H1472 H 0.74727 0.71612 0.01717 0.0
H1473 H 0.79911 0.75256 0.05304 0.0
H1474 H 0.78571 0.78223 0.03228 0.0
H1475 H 0.75966 0.79789 1.00375 0.0
H1476 H 0.70518 0.76221 0.97066 0.0
H1477 H 0.71938 0.73229 0.9905 0.0
C1478 C 0.75545 0.73057 0.02077 0.0
C1479 C 0.77438 0.7319 0.0366 0.0
C1480 C 0.7473 0.74778 0.00914 0.0
C1481 C 0.7849 0.75084 0.04062 0.0
C1482 C 0.77712 0.76792 0.02887 0.0
C1483 C 0.75057 0.78369 1.00108 0.0
C1484 C 0.7314 0.78248 0.9855 0.0
C1485 C 0.75838 0.76657 0.01304 0.0
C1486 C 0.7203 0.76369 0.98207 0.0
C1487 C 0.72827 0.74653 0.99361 0.0
H1488 H 0.74452 0.2247 0.48057 0.0
H1489 H 0.81702 0.23951 0.49814 0.0
H1490 H 0.80328 0.26824 0.52085 0.0
H1491 H 0.77069 0.28939 0.5353 0.0
H1492 H 0.698 0.27354 0.51918 0.0
H1493 H 0.71182 0.24528 0.49605 0.0
C1494 C 0.75729 0.23432 0.48926 0.0
C1495 C 0.78174 0.23004 0.48763 0.0
C1496 C 0.74924 0.25068 0.50249 0.0
C1497 C 0.79808 0.24243 0.49926 0.0
C1498 C 0.79024 0.25889 0.51219 0.0
C1499 C 0.75781 0.27964 0.527 0.0
C1500 C 0.7333 0.2838 0.52894 0.0
C1501 C 0.76585 0.26314 0.51397 0.0
C1502 C 0.71698 0.27105 0.5177 0.0
C1503 C 0.72485 0.25475 0.50455 0.0
H1504 H 0.79257 0.27098 0.98751 0.0
H1505 H 0.73078 0.30864 0.99652 0.0
H1506 H 0.71115 0.28199 0.01846 0.0
H1507 H 0.71176 0.24817 0.03541 0.0
H1508 H 0.77275 0.20978 0.02426 0.0
H1509 H 0.79262 0.23669 1.00339 0.0
C1510 C 0.77485 0.27336 0.9944 0.0
C1511 C 0.76316 0.29175 0.99047 0.0
C1512 C 0.76358 0.2579 1.00676 0.0
C1513 C 0.74007 0.29455 0.9992 0.0
C1514 C 0.72889 0.27935 0.01181 0.0
C1515 C 0.72927 0.24553 0.0282 0.0
C1516 C 0.74069 0.22688 0.03165 0.0
C1517 C 0.74046 0.26094 0.01567 0.0
C1518 C 0.76361 0.22403 0.02241 0.0
C1519 C 0.77498 0.23939 0.01025 0.0
H1520 H 0.78004 0.76862 0.55191 0.0
H1521 H 0.75583 0.81157 0.50146 0.0
H1522 H 0.74009 0.78428 0.47786 0.0
H1523 H 0.73283 0.74816 0.47156 0.0
H1524 H 0.75563 0.70534 0.52263 0.0
H1525 H 0.77187 0.73263 0.54611 0.0
C1526 C 0.77106 0.77207 0.5359 0.0
C1527 C 0.7693 0.79219 0.52849 0.0
C1528 C 0.76175 0.7563 0.52249 0.0
C1529 C 0.75788 0.79625 0.50747 0.0
C1530 C 0.74872 0.78064 0.49399 0.0
C1531 C 0.74151 0.74482 0.48776 0.0
C1532 C 0.74308 0.72477 0.49532 0.0
C1533 C 0.75062 0.76061 0.50127 0.0
C1534 C 0.75405 0.72068 0.51651 0.0
C1535 C 0.7634 0.73626 0.52991 0.0
H1536 H 0.31007 0.04822 1.00097 0.0
H1537 H 0.29947 0.01958 0.06662 0.0
H1538 H 0.29829 0.98661 0.04797 0.0
H1539 H 0.30201 0.96578 0.01319 0.0
H1540 H 0.31201 0.9946 0.94749 0.0
H1541 H 0.31215 0.02752 0.96605 0.0
C1542 C 0.30757 0.03475 0.0112 0.0
C1543 C 0.30493 0.03638 0.03516 0.0
C1544 C 0.30699 0.01583 1.00038 0.0
C1545 C 0.30132 0.01879 0.04812 0.0
C1546 C 0.30079 0.99991 0.03749 0.0
C1547 C 0.30387 0.97926 1.00287 0.0
C1548 C 0.30717 0.97762 0.97896 0.0
C1549 C 0.30376 0.99823 0.01364 0.0
C1550 C 0.30988 0.99532 0.96596 0.0
C1551 C 0.30982 0.0142 0.97654 0.0
H1552 H 0.17576 0.99056 0.5476 0.0
H1553 H 0.23032 0.96226 0.50644 0.0
H1554 H 0.23349 0.99251 0.48305 0.0
H1555 H 0.21957 0.02666 0.47305 0.0
H1556 H 0.16256 0.05346 0.512 0.0
H1557 H 0.1611 0.02394 0.53706 0.0
C1558 C 0.18815 0.99078 0.53335 0.0
C1559 C 0.20275 0.97395 0.52896 0.0
C1560 C 0.18932 0.00798 0.51939 0.0
C1561 C 0.2191 0.97498 0.51066 0.0
C1562 C 0.2208 0.99225 0.49705 0.0
C1563 C 0.20694 0.02599 0.48711 0.0
C1564 C 0.19119 0.04212 0.49074 0.0
C1565 C 0.20588 0.00879 0.50114 0.0
C1566 C 0.17473 0.04111 0.50884 0.0
C1567 C 0.17395 0.02429 0.52318 0.0
H1568 H 0.6951 0.9927 0.96301 0.0
H1569 H 0.71207 0.95624 0.02202 0.0
H1570 H 0.71367 0.98635 0.04616 0.0
H1571 H 0.70818 0.02291 0.05089 0.0
H1572 H 0.69162 0.05927 0.9916 0.0
H1573 H 0.69152 0.02933 0.96735 0.0
C1574 C 0.69912 0.99135 0.98116 0.0
C1575 C 0.70337 0.97223 0.99069 0.0
C1576 C 0.69988 0.00871 0.99496 0.0
C1577 C 0.70893 0.97078 0.01418 0.0
C1578 C 0.70971 0.98799 0.02804 0.0
C1579 C 0.7049 0.02434 0.03261 0.0
C1580 C 0.6997 0.04336 0.02318 0.0
C1581 C 0.70499 0.00702 0.01866 0.0
C1582 C 0.69522 0.04482 0.99946 0.0
C1583 C 0.69529 0.0277 0.98551 0.0
H1584 H 0.84212 0.04239 0.50162 0.0
H1585 H 0.77395 0.03029 0.47019 0.0
H1586 H 0.77116 0.99861 0.49121 0.0
H1587 H 0.78861 0.97379 0.51777 0.0
H1588 H 0.85738 0.98552 0.54798 0.0
H1589 H 0.85963 0.01764 0.52776 0.0
C1590 C 0.82675 0.03275 0.49912 0.0
C1591 C 0.8083 0.03881 0.48427 0.0
C1592 C 0.82542 0.01439 0.51096 0.0
C1593 C 0.7883 0.02622 0.48171 0.0
C1594 C 0.78675 0.008 0.49361 0.0
C1595 C 0.80399 0.98347 0.52004 0.0
C1596 C 0.82282 0.97725 0.53431 0.0
C1597 C 0.80523 1.0019 0.50824 0.0
C1598 C 0.84277 0.98984 0.53688 0.0
C1599 C 0.84403 0.00825 0.52541 0.0
H1600 H 0.78634 0.46963 1.00674 0.0
H1601 H 0.83373 0.4927 0.95465 0.0
H1602 H 0.83464 0.52526 0.97385 0.0
H1603 H 0.82307 0.54694 1.00582 0.0
H1604 H 0.7737 0.52497 0.05677 0.0
H1605 H 0.77259 0.49225 0.0376 0.0
C1606 C 0.7966 0.48184 0.99938 0.0
C1607 C 0.81015 0.47852 0.97935 0.0
C1608 C 0.79683 0.50073 0.01036 0.0
C1609 C 0.82354 0.49457 0.97029 0.0
C1610 C 0.82396 0.51329 0.98118 0.0
C1611 C 0.81166 0.53519 0.01257 0.0
C1612 C 0.7985 0.53856 0.0328 0.0
C1613 C 0.81082 0.5165 1.00129 0.0
C1614 C 0.78432 0.52282 0.04146 0.0
C1615 C 0.78355 0.5041 0.03041 0.0
H1616 H 0.68063 0.48866 0.54748 0.0
H1617 H 0.73189 0.45871 0.50396 0.0
H1618 H 0.73519 0.48884 0.48036 0.0
H1619 H 0.72251 0.52349 0.47113 0.0
H1620 H 0.66875 0.55207 0.51268 0.0
H1621 H 0.66697 0.52249 0.53759 0.0
C1622 C 0.6923 0.4885 0.53266 0.0
C1623 C 0.70599 0.47127 0.52769 0.0
C1624 C 0.69355 0.50566 0.51865 0.0
C1625 C 0.72142 0.47176 0.50863 0.0
C1626 C 0.72318 0.48897 0.49492 0.0
C1627 C 0.7105 0.52318 0.48571 0.0
C1628 C 0.69578 0.53984 0.49013 0.0
C1629 C 0.70924 0.50597 0.49969 0.0
C1630 C 0.68011 0.53931 0.5089 0.0
C1631 C 0.67915 0.52245 0.52316 0.0
H1632 H 0.2062 0.54672 1.0028 0.0
H1633 H 0.19135 0.52054 0.06899 0.0
H1634 H 0.19038 0.48695 0.05177 0.0
H1635 H 0.19287 0.46505 0.01769 0.0
H1636 H 0.20815 0.49122 0.95158 0.0
H1637 H 0.20987 0.52472 0.96893 0.0
C1638 C 0.20272 0.53365 0.01342 0.0
C1639 C 0.19883 0.53612 0.03712 0.0
C1640 C 0.20226 0.51438 1.00341 0.0
C1641 C 0.19464 0.51902 0.05074 0.0
C1642 C 0.19395 0.49983 0.04088 0.0
C1643 C 0.19652 0.47811 1.0071 0.0
C1644 C 0.20034 0.47566 0.98339 0.0
C1645 C 0.19759 0.49733 0.01722 0.0
C1646 C 0.20537 0.49268 0.96991 0.0
C1647 C 0.20623 0.51186 0.9798 0.0
H1648 H 0.29846 0.54445 0.50969 0.0
H1649 H 0.33305 0.51809 0.45074 0.0
H1650 H 0.33368 0.48537 0.46974 0.0
H1651 H 0.32507 0.46433 0.50329 0.0
H1652 H 0.2911 0.49066 0.5626 0.0
H1653 H 0.28902 0.52312 0.54304 0.0
C1654 C 0.30587 0.53149 0.5009 0.0
C1655 C 0.3158 0.53377 0.47886 0.0
C1656 C 0.30623 0.51268 0.51196 0.0
C1657 C 0.3256 0.51684 0.46783 0.0
C1658 C 0.32587 0.49809 0.47864 0.0
C1659 C 0.31734 0.47719 0.51201 0.0
C1660 C 0.30832 0.47501 0.53443 0.0
C1661 C 0.31645 0.49587 0.50078 0.0
C1662 C 0.29795 0.49179 0.54527 0.0
C1663 C 0.29689 0.51042 0.53415 0.0
H1664 H 0.54067 0.16956 0.11101 0.0
H1665 H 0.54535 0.10767 0.08875 0.0
H1666 H 0.50208 0.10501 0.08887 0.0
H1667 H 0.4629 0.12024 0.0947 0.0
H1668 H 0.45779 0.1818 0.11798 0.0
H1669 H 0.50118 0.18458 0.11798 0.0
C1670 C 0.53223 0.15544 0.10641 0.0
C1671 C 0.54631 0.1389 0.09973 0.0
C1672 C 0.50724 0.15395 0.1066 0.0
C1673 C 0.53501 0.12077 0.09357 0.0
C1674 C 0.51023 0.11917 0.09376 0.0
C1675 C 0.47124 0.1342 0.10008 0.0
C1676 C 0.45703 0.15077 0.10637 0.0
C1677 C 0.49618 0.13567 0.10016 0.0
C1678 C 0.46824 0.16886 0.11281 0.0
C1679 C 0.49307 0.17044 0.11294 0.0
H1680 H 0.96549 0.86671 0.57031 0.0
H1681 H 0.96124 0.85629 0.64329 0.0
H1682 H 1.00463 0.85434 0.64557 0.0
H1683 H 0.04386 0.85672 0.62702 0.0
H1684 H 0.04808 0.86731 0.55406 0.0
H1685 H 1.00467 0.86792 0.55154 0.0
C1686 C 0.97409 0.86406 0.58671 0.0
C1687 C 0.96018 0.86176 0.60662 0.0
C1688 C 0.99904 0.86295 0.58789 0.0
C1689 C 0.97154 0.85798 0.62769 0.0
C1690 C 0.99635 0.85696 0.62903 0.0
C1691 C 0.03525 0.85918 0.61058 0.0
C1692 C 0.04919 0.86203 0.59078 0.0
C1693 C 0.01028 0.85959 0.60927 0.0
C1694 C 0.03778 0.86488 0.56953 0.0
C1695 C 0.01296 0.86537 0.5681 0.0
H1696 H 0.46276 0.84973 0.93129 0.0
H1697 H 0.45854 0.89731 0.88108 0.0
H1698 H 0.50193 0.8987 0.87905 0.0
H1699 H 0.54111 0.8871 0.89239 0.0
H1700 H 0.54525 0.83916 0.94217 0.0
H1701 H 0.50187 0.83716 0.9434 0.0
C1702 C 0.47131 0.86022 0.91967 0.0
C1703 C 0.45738 0.87344 0.90642 0.0
C1704 C 0.49628 0.86094 0.91856 0.0
C1705 C 0.46882 0.88716 0.89171 0.0
C1706 C 0.49364 0.8879 0.89045 0.0
C1707 C 0.53253 0.87603 0.90327 0.0
C1708 C 0.54644 0.86337 0.91723 0.0
C1709 C 0.50755 0.87496 0.90392 0.0
C1710 C 0.53499 0.84929 0.93148 0.0
C1711 C 0.51017 0.84807 0.93213 0.0
H1712 H 0.04426 0.12098 0.40006 0.0
H1713 H 0.04778 0.18005 0.43069 0.0
H1714 H 1.00431 0.18207 0.43087 0.0
H1715 H 0.96536 0.16661 0.42342 0.0
H1716 H 0.96191 0.10806 0.39122 0.0
H1717 H 0.00524 0.10614 0.39103 0.0
C1718 C 0.03547 0.13426 0.40684 0.0
C1719 C 0.04919 0.15031 0.41543 0.0
C1720 C 0.01049 0.13536 0.40676 0.0
C1721 C 0.0376 0.16756 0.42383 0.0
C1722 C 0.01276 0.16868 0.42404 0.0
C1723 C 0.97402 0.15354 0.41603 0.0
C1724 C 0.96023 0.13746 0.40748 0.0
C1725 C 0.99902 0.15264 0.41561 0.0
C1726 C 0.97194 0.12052 0.39834 0.0
C1727 C 0.99678 0.11945 0.39806 0.0
H1728 H 0.04159 0.61905 0.08288 0.0
H1729 H 0.04719 0.66885 0.13014 0.0
H1730 H 1.00376 0.67053 0.13301 0.0
H1731 H 0.96424 0.65844 0.12113 0.0
H1732 H 0.95892 0.6075 0.07523 0.0
H1733 H 1.00214 0.60593 0.07248 0.0
C1734 C 0.03325 0.63031 0.09373 0.0
C1735 C 0.04751 0.64388 0.10617 0.0
C1736 C 0.00834 0.63107 0.09543 0.0
C1737 C 0.03655 0.65818 0.12048 0.0
C1738 C 0.01174 0.65919 0.12205 0.0
C1739 C 0.97248 0.6468 0.11077 0.0
C1740 C 0.95819 0.63326 0.09822 0.0
C1741 C 0.99745 0.64574 0.10954 0.0
C1742 C 0.96934 0.61844 0.08468 0.0
C1743 C 0.99412 0.61742 0.08321 0.0
H1744 H 0.54418 0.34598 0.59996 0.0
H1745 H 0.55032 0.41032 0.60842 0.0
H1746 H 0.50703 0.41337 0.60964 0.0
H1747 H 0.46744 0.39783 0.60834 0.0
H1748 H 0.46116 0.33354 0.59919 0.0
H1749 H 0.50445 0.33038 0.59879 0.0
C1750 C 0.53604 0.36064 0.60228 0.0
C1751 C 0.55049 0.37789 0.60402 0.0
C1752 C 0.5111 0.3623 0.60296 0.0
C1753 C 0.53963 0.39682 0.60673 0.0
C1754 C 0.51487 0.39857 0.60754 0.0
C1755 C 0.47551 0.38313 0.60605 0.0
C1756 C 0.46099 0.36596 0.6038 0.0
C1757 C 0.50043 0.38143 0.60557 0.0
C1758 C 0.47184 0.347 0.60128 0.0
C1759 C 0.49663 0.34518 0.60089 0.0
H1760 H 0.04161 0.39462 0.91542 0.0
H1761 H 0.04747 0.33032 0.92463 0.0
H1762 H 1.0042 0.32726 0.92421 0.0
H1763 H 0.96449 0.34291 0.92206 0.0
H1764 H 0.95881 0.4073 0.91449 0.0
H1765 H 1.00215 0.41027 0.91394 0.0
C1766 C 0.03348 0.37994 0.91762 0.0
C1767 C 0.04793 0.36275 0.92 0.0
C1768 C 0.00855 0.3783 0.91776 0.0
C1769 C 0.03692 0.34382 0.92239 0.0
C1770 C 0.01212 0.34204 0.92231 0.0
C1771 C 0.97278 0.35755 0.92014 0.0
C1772 C 0.95847 0.37486 0.91835 0.0
C1773 C 0.99775 0.35918 0.92003 0.0
C1774 C 0.96944 0.39378 0.91614 0.0
C1775 C 0.99422 0.39548 0.91573 0.0
H1776 H 0.54692 0.63168 0.39201 0.0
H1777 H 0.55323 0.67358 0.44841 0.0
H1778 H 0.50997 0.67659 0.45026 0.0
H1779 H 0.47023 0.66659 0.43662 0.0
H1780 H 0.46409 0.62351 0.38134 0.0
H1781 H 0.50732 0.62176 0.37833 0.0
C1782 C 0.53885 0.64138 0.40482 0.0
C1783 C 0.55339 0.65234 0.42006 0.0
C1784 C 0.51394 0.64285 0.406 0.0
C1785 C 0.54256 0.66514 0.43625 0.0
C1786 C 0.51778 0.66677 0.43745 0.0
C1787 C 0.47834 0.65673 0.424 0.0
C1788 C 0.46384 0.64523 0.40922 0.0
C1789 C 0.50328 0.65558 0.42252 0.0
C1790 C 0.47472 0.63278 0.39272 0.0
C1791 C 0.49949 0.63164 0.39109 0.0
H1792 H 0.29216 0.14907 0.23537 0.0
H1793 H 0.23391 0.11471 0.20696 0.0
H1794 H 0.21509 0.11322 0.24469 0.0
H1795 H 0.2147 0.12224 0.28563 0.0
H1796 H 0.27294 0.15661 0.31404 0.0
H1797 H 0.29188 0.15793 0.27635 0.0
C1798 C 0.27525 0.1414 0.23738 0.0
C1799 C 0.26452 0.13201 0.2183 0.0
C1800 C 0.26441 0.1407 0.25912 0.0
C1801 C 0.24277 0.12185 0.22136 0.0
C1802 C 0.2319 0.12109 0.24292 0.0
C1803 C 0.23165 0.12985 0.28365 0.0
C1804 C 0.24231 0.13935 0.30269 0.0
C1805 C 0.24254 0.13047 0.26192 0.0
C1806 C 0.26413 0.14941 0.29966 0.0
C1807 C 0.27506 0.15008 0.27812 0.0
H1808 H 0.24295 0.85801 0.79914 0.0
H1809 H 0.29756 0.90201 0.7853 0.0
H1810 H 0.28537 0.90341 0.74507 0.0
H1811 H 0.25947 0.89195 0.71374 0.0
H1812 H 0.20378 0.84889 0.72786 0.0
H1813 H 0.21656 0.84692 0.76781 0.0
C1814 C 0.25226 0.8678 0.78727 0.0
C1815 C 0.2711 0.87991 0.79524 0.0
C1816 C 0.2451 0.8686 0.76414 0.0
C1817 C 0.28282 0.89271 0.77969 0.0
C1818 C 0.27594 0.89344 0.75664 0.0
C1819 C 0.24992 0.88229 0.72556 0.0
C1820 C 0.2307 0.87055 0.71762 0.0
C1821 C 0.25706 0.8815 0.74868 0.0
C1822 C 0.21889 0.85785 0.73326 0.0
C1823 C 0.22606 0.85682 0.75621 0.0
H1824 H 0.73186 0.90454 0.79164 0.0
H1825 H 0.74037 0.84049 0.80041 0.0
H1826 H 0.75681 0.83769 0.76166 0.0
H1827 H 0.76903 0.85351 0.72525 0.0
H1828 H 0.76145 0.91768 0.71695 0.0
H1829 H 0.7443 0.92037 0.75541 0.0
C1830 C 0.73718 0.88996 0.785 0.0
C1831 C 0.73488 0.87275 0.79888 0.0
C1832 C 0.74678 0.88848 0.76276 0.0
C1833 C 0.74217 0.854 0.79015 0.0
C1834 C 0.75146 0.85237 0.76796 0.0
C1835 C 0.76343 0.86804 0.73184 0.0
C1836 C 0.76644 0.88536 0.71827 0.0
C1837 C 0.75387 0.86951 0.7541 0.0
C1838 C 0.75945 0.90415 0.72713 0.0
C1839 C 0.7496 0.90569 0.74909 0.0
H1840 H 0.79516 0.13852 0.28192 0.0
H1841 H 0.72646 0.13593 0.31499 0.0
H1842 H 0.70686 0.13612 0.27756 0.0
H1843 H 0.70918 0.13688 0.23536 0.0
H1844 H 0.77807 0.13758 0.20251 0.0
H1845 H 0.79752 0.13816 0.23992 0.0
C1846 C 0.7759 0.13774 0.28101 0.0
C1847 C 0.76238 0.1372 0.30138 0.0
C1848 C 0.76472 0.13755 0.25941 0.0
C1849 C 0.73739 0.13665 0.2997 0.0
C1850 C 0.72614 0.13661 0.27826 0.0
C1851 C 0.72845 0.13693 0.23634 0.0
C1852 C 0.74206 0.13729 0.21602 0.0
C1853 C 0.73962 0.13702 0.25799 0.0
C1854 C 0.76705 0.13767 0.21777 0.0
C1855 C 0.77824 0.13786 0.23919 0.0
H1856 H 0.71505 0.64607 0.2854 0.0
H1857 H 0.77918 0.62279 0.31632 0.0
H1858 H 0.79809 0.62094 0.27862 0.0
H1859 H 0.79651 0.62607 0.23678 0.0
H1860 H 0.7322 0.64904 0.2059 0.0
H1861 H 0.71329 0.65078 0.24359 0.0
C1862 C 0.73309 0.64042 0.28388 0.0
C1863 C 0.74565 0.6346 0.30372 0.0
C1864 C 0.74386 0.63936 0.26212 0.0
C1865 C 0.76917 0.62762 0.30141 0.0
C1866 C 0.77997 0.62644 0.27982 0.0
C1867 C 0.77828 0.63128 0.23828 0.0
C1868 C 0.76583 0.63744 0.21851 0.0
C1869 C 0.76749 0.63228 0.26005 0.0
C1870 C 0.74232 0.64443 0.22083 0.0
C1871 C 0.73143 0.64535 0.24238 0.0
H1872 H 0.7586 0.35424 0.71793 0.0
H1873 H 0.71177 0.40477 0.72961 0.0
H1874 H 0.72572 0.40731 0.76911 0.0
H1875 H 0.75101 0.39515 0.80063 0.0
H1876 H 0.79663 0.34386 0.78958 0.0
H1877 H 0.78292 0.34137 0.74982 0.0
C1878 C 0.7512 0.36567 0.72914 0.0
C1879 C 0.73426 0.37939 0.72056 0.0
C1880 C 0.75901 0.36687 0.75207 0.0
C1881 C 0.72518 0.39425 0.73544 0.0
C1882 C 0.73301 0.39564 0.75816 0.0
C1883 C 0.75803 0.3835 0.78946 0.0
C1884 C 0.77486 0.36975 0.79804 0.0
C1885 C 0.74998 0.38209 0.76665 0.0
C1886 C 0.78352 0.35453 0.78346 0.0
C1887 C 0.77576 0.35316 0.76069 0.0
H1888 H 0.26663 0.40484 0.72429 0.0
H1889 H 0.26957 0.34013 0.71895 0.0
H1890 H 0.25375 0.33694 0.7579 0.0
H1891 H 0.23898 0.35259 0.79354 0.0
H1892 H 0.23534 0.4173 0.79851 0.0
H1893 H 0.25157 0.42046 0.75974 0.0
C1894 C 0.26392 0.39005 0.73173 0.0
C1895 C 0.26927 0.37275 0.71876 0.0
C1896 C 0.25468 0.38834 0.75407 0.0
C1897 C 0.26536 0.35367 0.7285 0.0
C1898 C 0.25644 0.35184 0.7508 0.0
C1899 C 0.24191 0.36737 0.78616 0.0
C1900 C 0.23601 0.38468 0.79888 0.0
C1901 C 0.25103 0.36907 0.76376 0.0
C1902 C 0.23956 0.40374 0.78899 0.0
C1903 C 0.24892 0.40556 0.76686 0.0
H1904 H 0.24338 0.63126 0.30343 0.0
H1905 H 0.3151 0.64213 0.27979 0.0
H1906 H 0.30123 0.64237 0.24015 0.0
H1907 H 0.26889 0.6393 0.21204 0.0
H1908 H 0.19678 0.63072 0.23578 0.0
H1909 H 0.21074 0.6298 0.2754 0.0
C1910 C 0.25598 0.63394 0.28967 0.0
C1911 C 0.28032 0.63652 0.29475 0.0
C1912 C 0.24785 0.63439 0.26682 0.0
C1913 C 0.29634 0.63967 0.27651 0.0
C1914 C 0.28841 0.63997 0.25377 0.0
C1915 C 0.25613 0.63749 0.22585 0.0
C1916 C 0.23179 0.63497 0.22074 0.0
C1917 C 0.26421 0.63731 0.24871 0.0
C1918 C 0.21567 0.63231 0.23901 0.0
C1919 C 0.22361 0.63193 0.26176 0.0
loop_
_geom_bond_atom_site_label_1
_geom_bond_atom_site_label_2
_geom_bond_distance
_geom_bond_site_symmetry_2
_ccdc_geom_bond_type
Li0 N17 1.990 . S
Li0 O60 1.956 . S
Li0 O61 1.970 . S
Li0 O62 1.961 . S
Li1 N25 1.990 . S
Li1 O60 1.970 . S
Li1 O61 1.956 . S
Li1 O63 1.961 . S
Li2 N47 1.990 . S
Li2 O60 1.961 . S
Li2 O62 1.956 . S
Li2 O63 1.970 . S
Li3 N53 1.990 . S
Li3 O61 1.961 . S
Li3 O62 1.970 . S
Li3 O63 1.956 . S
C4 C6 1.348 . S
C4 C7 1.356 . S
C4 O60 1.325 . S
N5 C8 1.314 1_556 S
N5 C9 1.279 1_556 S
C6 C4 1.348 . S
C6 C8 1.353 . S
C6 H64 0.929 . S
C7 C4 1.356 . S
C7 C9 1.358 . S
C7 H65 0.930 . S
C8 N5 1.314 1_554 S
C8 C6 1.353 . S
C8 H66 0.930 . S
C9 N5 1.279 1_554 S
C9 C7 1.358 . S
C9 H67 0.930 1_554 S
C10 C13 1.348 . S
C10 C14 1.356 . S
C10 O61 1.325 . S
C11 N12 1.279 . S
C11 C14 1.358 . S
C11 H68 0.930 . S
N12 C11 1.279 . S
N12 C15 1.314 . S
C13 C10 1.348 . S
C13 C15 1.353 . S
C13 H69 0.929 . S
C14 C10 1.356 . S
C14 C11 1.358 . S
C14 H70 0.930 . S
C15 N12 1.314 . S
C15 C13 1.353 . S
C15 H71 0.930 . S
C16 N17 1.314 . S
C16 C21 1.353 . S
C16 H22 0.930 . S
N17 Li0 1.990 . S
N17 C16 1.314 . S
N17 C19 1.279 . S
C18 C19 1.358 . S
C18 C20 1.356 . S
C18 H72 0.930 . S
C19 N17 1.279 . S
C19 C18 1.358 . S
C19 H23 0.930 . S
C20 C18 1.356 . S
C20 C21 1.348 . S
C21 C16 1.353 . S
C21 C20 1.348 . S
C21 H73 0.929 . S
H22 C16 0.930 . S
H23 C19 0.930 . S
C24 N25 1.314 . S
C24 C26 1.353 . S
C24 H30 0.930 . S
N25 Li1 1.990 . S
N25 C24 1.314 . S
N25 C28 1.279 . S
C26 C24 1.353 . S
C26 C29 1.348 . S
C26 H74 0.929 . S
C27 C28 1.358 . S
C27 C29 1.356 . S
C27 H75 0.930 . S
C28 N25 1.279 . S
C28 C27 1.358 . S
C28 H31 0.930 . S
C29 C26 1.348 . S
C29 C27 1.356 . S
H30 C24 0.930 . S
H31 C28 0.930 . S
C32 C34 1.348 . S
C32 C35 1.356 . S
C32 O62 1.325 . S
N33 C36 1.314 . S
N33 C37 1.279 . S
C34 C32 1.348 . S
C34 C36 1.353 . S
C34 H76 0.929 . S
C35 C32 1.356 . S
C35 C37 1.358 . S
C35 H77 0.930 . S
C36 N33 1.314 . S
C36 C34 1.353 . S
C36 H78 0.930 . S
C37 N33 1.279 . S
C37 C35 1.358 . S
C37 H79 0.930 . S
C38 C39 1.348 . S
C38 C40 1.356 . S
C38 O63 1.325 . S
C39 C38 1.348 . S
C39 C41 1.353 . S
C39 H80 0.929 . S
C40 C38 1.356 . S
C40 C42 1.358 . S
C40 H81 0.930 . S
C41 C39 1.353 . S
C41 N43 1.314 . S
C41 H82 0.930 . S
C42 C40 1.358 . S
C42 N43 1.279 . S
C42 H83 0.930 . S
N43 C41 1.314 . S
N43 C42 1.279 . S
C44 C46 1.353 . S
C44 N47 1.314 . S
C44 H50 0.930 . S
C45 N47 1.279 . S
C45 C48 1.358 . S
C45 H51 0.930 . S
C46 C44 1.353 . S
C46 C49 1.348 . S
C46 H84 0.929 . S
N47 Li2 1.990 . S
N47 C44 1.314 . S
N47 C45 1.279 . S
C48 C45 1.358 . S
C48 C49 1.356 . S
C48 H85 0.930 . S
C49 C46 1.348 . S
C49 C48 1.356 . S
H50 C44 0.930 . S
H51 C45 0.930 . S
C52 N53 1.314 . S
C52 C54 1.353 . S
C52 H58 0.930 . S
N53 Li3 1.990 . S
N53 C52 1.314 . S
N53 C56 1.279 . S
C54 C52 1.353 . S
C54 C57 1.348 . S
C54 H86 0.929 . S
C55 C56 1.358 . S
C55 C57 1.356 . S
C55 H87 0.930 . S
C56 N53 1.279 . S
C56 C55 1.358 . S
C56 H59 0.930 . S
C57 C54 1.348 . S
C57 C55 1.356 . S
H58 C52 0.930 . S
H59 C56 0.930 . S
O60 Li0 1.956 . S
O60 Li1 1.970 . S
O60 Li2 1.961 . S
O60 C4 1.325 . S
O61 Li0 1.970 . S
O61 Li1 1.956 . S
O61 Li3 1.961 . S
O61 C10 1.325 . S
O62 Li0 1.961 . S
O62 Li2 1.956 . S
O62 Li3 1.970 . S
O62 C32 1.325 . S
O63 Li1 1.961 . S
O63 Li2 1.970 . S
O63 Li3 1.956 . S
O63 C38 1.325 . S
H64 C6 0.929 . S
H65 C7 0.930 . S
H66 C8 0.930 . S
H67 C9 0.930 1_556 S
H68 C11 0.930 . S
H69 C13 0.929 . S
H70 C14 0.930 . S
H71 C15 0.930 . S
H72 C18 0.930 . S
H73 C21 0.929 . S
H74 C26 0.929 . S
H75 C27 0.930 . S
H76 C34 0.929 . S
H77 C35 0.930 . S
H78 C36 0.930 . S
H79 C37 0.930 . S
H80 C39 0.929 . S
H81 C40 0.930 . S
H82 C41 0.930 . S
H83 C42 0.930 . S
H84 C46 0.929 . S
H85 C48 0.930 . S
H86 C54 0.929 . S
H87 C55 0.930 . S
Li88 N105 1.990 . S
Li88 O148 1.956 . S
Li88 O149 1.970 . S
Li88 O150 1.961 . S
Li89 N113 1.990 . S
Li89 O148 1.970 . S
Li89 O149 1.956 . S
Li89 O151 1.961 . S
Li90 N135 1.990 . S
Li90 O148 1.961 . S
Li90 O150 1.956 . S
Li90 O151 1.970 . S
Li91 N141 1.990 . S
Li91 O149 1.961 . S
Li91 O150 1.970 . S
Li91 O151 1.956 . S
C92 C94 1.348 . S
C92 C95 1.356 . S
C92 O148 1.325 . S
N93 C96 1.314 . S
N93 C97 1.279 . S
C94 C92 1.348 . S
C94 C96 1.353 . S
C94 H152 0.929 . S
C95 C92 1.356 . S
C95 C97 1.358 . S
C95 H153 0.930 . S
C96 N93 1.314 . S
C96 C94 1.353 . S
C96 H154 0.930 . S
C97 N93 1.279 . S
C97 C95 1.358 . S
C97 H155 0.930 . S
C98 C101 1.348 . S
C98 C102 1.356 . S
C98 O149 1.325 . S
C99 N100 1.279 . S
C99 C102 1.358 . S
C99 H156 0.930 . S
N100 C99 1.279 . S
N100 C103 1.314 . S
C101 C98 1.348 . S
C101 C103 1.353 . S
C101 H157 0.929 . S
C102 C98 1.356 . S
C102 C99 1.358 . S
C102 H158 0.930 . S
C103 N100 1.314 . S
C103 C101 1.353 . S
C103 H159 0.930 . S
C104 N105 1.314 . S
C104 C109 1.353 . S
C104 H110 0.930 . S
N105 Li88 1.990 . S
N105 C104 1.314 . S
N105 C107 1.279 . S
C106 C107 1.358 . S
C106 C108 1.356 . S
C106 H160 0.930 . S
C107 N105 1.279 . S
C107 C106 1.358 . S
C107 H111 0.930 . S
C108 C106 1.356 . S
C108 C109 1.348 . S
C109 C104 1.353 . S
C109 C108 1.348 . S
C109 H161 0.929 . S
H110 C104 0.930 . S
H111 C107 0.930 . S
C112 N113 1.314 . S
C112 C114 1.353 . S
C112 H118 0.930 . S
N113 Li89 1.990 . S
N113 C112 1.314 . S
N113 C116 1.279 . S
C114 C112 1.353 . S
C114 C117 1.348 . S
C114 H162 0.929 . S
C115 C116 1.358 . S
C115 C117 1.356 . S
C115 H163 0.930 . S
C116 N113 1.279 . S
C116 C115 1.358 . S
C116 H119 0.930 . S
C117 C114 1.348 . S
C117 C115 1.356 . S
H118 C112 0.930 . S
H119 C116 0.930 . S
C120 C122 1.348 . S
C120 C123 1.356 . S
C120 O150 1.325 . S
N121 C124 1.314 . S
N121 C125 1.279 . S
C122 C120 1.348 . S
C122 C124 1.353 . S
C122 H164 0.929 . S
C123 C120 1.356 . S
C123 C125 1.358 . S
C123 H165 0.930 . S
C124 N121 1.314 . S
C124 C122 1.353 . S
C124 H166 0.930 . S
C125 N121 1.279 . S
C125 C123 1.358 . S
C125 H167 0.930 . S
C126 C127 1.348 . S
C126 C128 1.356 . S
C126 O151 1.325 . S
C127 C126 1.348 . S
C127 C129 1.353 . S
C127 H168 0.929 . S
C128 C126 1.356 . S
C128 C130 1.358 . S
C128 H169 0.930 . S
C129 C127 1.353 . S
C129 N131 1.314 . S
C129 H170 0.930 . S
C130 C128 1.358 . S
C130 N131 1.279 . S
C130 H171 0.930 . S
N131 C129 1.314 . S
N131 C130 1.279 . S
C132 C134 1.353 . S
C132 N135 1.314 . S
C132 H138 0.930 . S
C133 N135 1.279 . S
C133 C136 1.358 . S
C133 H139 0.930 . S
C134 C132 1.353 . S
C134 C137 1.348 . S
C134 H172 0.929 . S
N135 Li90 1.990 . S
N135 C132 1.314 . S
N135 C133 1.279 . S
C136 C133 1.358 . S
C136 C137 1.356 . S
C136 H173 0.930 . S
C137 C134 1.348 . S
C137 C136 1.356 . S
H138 C132 0.930 . S
H139 C133 0.930 . S
C140 N141 1.314 . S
C140 C142 1.353 . S
C140 H146 0.930 . S
N141 Li91 1.990 . S
N141 C140 1.314 . S
N141 C144 1.279 . S
C142 C140 1.353 . S
C142 C145 1.348 . S
C142 H174 0.929 . S
C143 C144 1.358 . S
C143 C145 1.356 . S
C143 H175 0.930 . S
C144 N141 1.279 . S
C144 C143 1.358 . S
C144 H147 0.930 . S
C145 C142 1.348 . S
C145 C143 1.356 . S
H146 C140 0.930 . S
H147 C144 0.930 . S
O148 Li88 1.956 . S
O148 Li89 1.970 . S
O148 Li90 1.961 . S
O148 C92 1.325 . S
O149 Li88 1.970 . S
O149 Li89 1.956 . S
O149 Li91 1.961 . S
O149 C98 1.325 . S
O150 Li88 1.961 . S
O150 Li90 1.956 . S
O150 Li91 1.970 . S
O150 C120 1.325 . S
O151 Li89 1.961 . S
O151 Li90 1.970 . S
O151 Li91 1.956 . S
O151 C126 1.325 . S
H152 C94 0.929 . S
H153 C95 0.930 . S
H154 C96 0.930 . S
H155 C97 0.930 . S
H156 C99 0.930 . S
H157 C101 0.929 . S
H158 C102 0.930 . S
H159 C103 0.930 . S
H160 C106 0.930 . S
H161 C109 0.929 . S
H162 C114 0.929 . S
H163 C115 0.930 . S
H164 C122 0.929 . S
H165 C123 0.930 . S
H166 C124 0.930 . S
H167 C125 0.930 . S
H168 C127 0.929 . S
H169 C128 0.930 . S
H170 C129 0.930 . S
H171 C130 0.930 . S
H172 C134 0.929 . S
H173 C136 0.930 . S
H174 C142 0.929 . S
H175 C143 0.930 . S
Li176 N193 1.990 . S
Li176 O236 1.956 . S
Li176 O237 1.970 . S
Li176 O238 1.961 . S
Li177 N201 1.990 . S
Li177 O236 1.970 . S
Li177 O237 1.956 . S
Li177 O239 1.961 . S
Li178 N223 1.990 . S
Li178 O236 1.961 . S
Li178 O238 1.956 . S
Li178 O239 1.970 . S
Li179 N229 1.990 . S
Li179 O237 1.961 . S
Li179 O238 1.970 . S
Li179 O239 1.956 . S
C180 C182 1.348 . S
C180 C183 1.356 . S
C180 O236 1.325 . S
N181 C184 1.314 . S
N181 C185 1.279 . S
C182 C180 1.348 . S
C182 C184 1.353 . S
C182 H240 0.929 . S
C183 C180 1.356 . S
C183 C185 1.358 . S
C183 H241 0.930 . S
C184 N181 1.314 . S
C184 C182 1.353 . S
C184 H242 0.930 . S
C185 N181 1.279 . S
C185 C183 1.358 . S
C185 H243 0.930 . S
C186 C189 1.348 . S
C186 C190 1.356 . S
C186 O237 1.325 . S
C187 N188 1.279 . S
C187 C190 1.358 . S
C187 H244 0.930 . S
N188 C187 1.279 . S
N188 C191 1.314 . S
C189 C186 1.348 . S
C189 C191 1.353 . S
C189 H245 0.929 . S
C190 C186 1.356 . S
C190 C187 1.358 . S
C190 H246 0.930 . S
C191 N188 1.314 . S
C191 C189 1.353 . S
C191 H247 0.930 . S
C192 N193 1.314 . S
C192 C197 1.353 . S
C192 H198 0.930 . S
N193 Li176 1.990 . S
N193 C192 1.314 . S
N193 C195 1.279 . S
C194 C195 1.358 . S
C194 C196 1.356 . S
C194 H248 0.930 . S
C195 N193 1.279 . S
C195 C194 1.358 . S
C195 H199 0.930 . S
C196 C194 1.356 . S
C196 C197 1.348 . S
C197 C192 1.353 . S
C197 C196 1.348 . S
C197 H249 0.929 . S
H198 C192 0.930 . S
H199 C195 0.930 . S
C200 N201 1.314 . S
C200 C202 1.353 . S
C200 H206 0.930 . S
N201 Li177 1.990 . S
N201 C200 1.314 . S
N201 C204 1.279 . S
C202 C200 1.353 . S
C202 C205 1.348 . S
C202 H250 0.929 . S
C203 C204 1.358 . S
C203 C205 1.356 . S
C203 H251 0.930 . S
C204 N201 1.279 . S
C204 C203 1.358 . S
C204 H207 0.930 . S
C205 C202 1.348 . S
C205 C203 1.356 . S
H206 C200 0.930 . S
H207 C204 0.930 . S
C208 C210 1.348 . S
C208 C211 1.356 . S
C208 O238 1.325 . S
N209 C212 1.314 . S
N209 C213 1.279 . S
C210 C208 1.348 . S
C210 C212 1.353 . S
C210 H252 0.929 . S
C211 C208 1.356 . S
C211 C213 1.358 . S
C211 H253 0.930 . S
C212 N209 1.314 . S
C212 C210 1.353 . S
C212 H254 0.930 . S
C213 N209 1.279 . S
C213 C211 1.358 . S
C213 H255 0.930 . S
C214 C215 1.348 . S
C214 C216 1.356 . S
C214 O239 1.325 . S
C215 C214 1.348 . S
C215 C217 1.353 . S
C215 H256 0.929 . S
C216 C214 1.356 . S
C216 C218 1.358 . S
C216 H257 0.930 . S
C217 C215 1.353 . S
C217 N219 1.314 1_556 S
C217 H258 0.930 . S
C218 C216 1.358 . S
C218 N219 1.279 1_556 S
C218 H259 0.930 1_556 S
N219 C217 1.314 1_554 S
N219 C218 1.279 1_554 S
C220 C222 1.353 . S
C220 N223 1.314 . S
C220 H226 0.930 . S
C221 N223 1.279 . S
C221 C224 1.358 . S
C221 H227 0.930 . S
C222 C220 1.353 . S
C222 C225 1.348 . S
C222 H260 0.929 . S
N223 Li178 1.990 . S
N223 C220 1.314 . S
N223 C221 1.279 . S
C224 C221 1.358 . S
C224 C225 1.356 . S
C224 H261 0.930 . S
C225 C222 1.348 . S
C225 C224 1.356 . S
H226 C220 0.930 . S
H227 C221 0.930 . S
C228 N229 1.314 . S
C228 C230 1.353 . S
C228 H234 0.930 . S
N229 Li179 1.990 . S
N229 C228 1.314 . S
N229 C232 1.279 . S
C230 C228 1.353 . S
C230 C233 1.348 . S
C230 H262 0.929 . S
C231 C232 1.358 . S
C231 C233 1.356 . S
C231 H263 0.930 . S
C232 N229 1.279 . S
C232 C231 1.358 . S
C232 H235 0.930 . S
C233 C230 1.348 . S
C233 C231 1.356 . S
H234 C228 0.930 . S
H235 C232 0.930 . S
O236 Li176 1.956 . S
O236 Li177 1.970 . S
O236 Li178 1.961 . S
O236 C180 1.325 . S
O237 Li176 1.970 . S
O237 Li177 1.956 . S
O237 Li179 1.961 . S
O237 C186 1.325 . S
O238 Li176 1.961 . S
O238 Li178 1.956 . S
O238 Li179 1.970 . S
O238 C208 1.325 . S
O239 Li177 1.961 . S
O239 Li178 1.970 . S
O239 Li179 1.956 . S
O239 C214 1.325 . S
H240 C182 0.929 . S
H241 C183 0.930 . S
H242 C184 0.930 . S
H243 C185 0.930 . S
H244 C187 0.930 . S
H245 C189 0.929 . S
H246 C190 0.930 . S
H247 C191 0.930 . S
H248 C194 0.930 . S
H249 C197 0.929 . S
H250 C202 0.929 . S
H251 C203 0.930 . S
H252 C210 0.929 . S
H253 C211 0.930 . S
H254 C212 0.930 . S
H255 C213 0.930 . S
H256 C215 0.929 . S
H257 C216 0.930 . S
H258 C217 0.930 . S
H259 C218 0.930 1_554 S
H260 C222 0.929 . S
H261 C224 0.930 . S
H262 C230 0.929 . S
H263 C231 0.930 . S
Li264 N281 1.990 . S
Li264 O324 1.956 . S
Li264 O325 1.970 . S
Li264 O326 1.961 . S
Li265 N289 1.990 . S
Li265 O324 1.970 . S
Li265 O325 1.956 . S
Li265 O327 1.961 . S
Li266 N311 1.990 . S
Li266 O324 1.961 . S
Li266 O326 1.956 . S
Li266 O327 1.970 . S
Li267 N317 1.990 . S
Li267 O325 1.961 . S
Li267 O326 1.970 . S
Li267 O327 1.956 . S
C268 C270 1.348 . S
C268 C271 1.356 . S
C268 O324 1.325 . S
N269 C272 1.314 . S
N269 C273 1.279 . S
C270 C268 1.348 . S
C270 C272 1.353 . S
C270 H328 0.929 . S
C271 C268 1.356 . S
C271 C273 1.358 . S
C271 H329 0.930 . S
C272 N269 1.314 . S
C272 C270 1.353 . S
C272 H330 0.930 . S
C273 N269 1.279 . S
C273 C271 1.358 . S
C273 H331 0.930 . S
C274 C277 1.348 . S
C274 C278 1.356 . S
C274 O325 1.325 . S
C275 N276 1.279 . S
C275 C278 1.358 . S
C275 H332 0.930 . S
N276 C275 1.279 . S
N276 C279 1.314 . S
C277 C274 1.348 . S
C277 C279 1.353 . S
C277 H333 0.929 . S
C278 C274 1.356 . S
C278 C275 1.358 . S
C278 H334 0.930 . S
C279 N276 1.314 . S
C279 C277 1.353 . S
C279 H335 0.930 . S
C280 N281 1.314 . S
C280 C285 1.353 . S
C280 H286 0.930 . S
N281 Li264 1.990 . S
N281 C280 1.314 . S
N281 C283 1.279 . S
C282 C283 1.358 . S
C282 C284 1.356 . S
C282 H336 0.930 . S
C283 N281 1.279 . S
C283 C282 1.358 . S
C283 H287 0.930 . S
C284 C282 1.356 . S
C284 C285 1.348 . S
C285 C280 1.353 . S
C285 C284 1.348 . S
C285 H337 0.929 . S
H286 C280 0.930 . S
H287 C283 0.930 . S
C288 N289 1.314 . S
C288 C290 1.353 . S
C288 H294 0.930 . S
N289 Li265 1.990 . S
N289 C288 1.314 . S
N289 C292 1.279 . S
C290 C288 1.353 . S
C290 C293 1.348 . S
C290 H338 0.929 . S
C291 C292 1.358 . S
C291 C293 1.356 . S
C291 H339 0.930 . S
C292 N289 1.279 . S
C292 C291 1.358 . S
C292 H295 0.930 . S
C293 C290 1.348 . S
C293 C291 1.356 . S
H294 C288 0.930 . S
H295 C292 0.930 . S
C296 C298 1.348 . S
C296 C299 1.356 . S
C296 O326 1.325 . S
N297 C300 1.314 . S
N297 C301 1.279 . S
C298 C296 1.348 . S
C298 C300 1.353 . S
C298 H340 0.929 . S
C299 C296 1.356 . S
C299 C301 1.358 . S
C299 H341 0.930 . S
C300 N297 1.314 . S
C300 C298 1.353 . S
C300 H342 0.930 . S
C301 N297 1.279 . S
C301 C299 1.358 . S
C301 H343 0.930 . S
C302 C303 1.348 . S
C302 C304 1.356 . S
C302 O327 1.325 . S
C303 C302 1.348 . S
C303 C305 1.353 . S
C303 H344 0.929 . S
C304 C302 1.356 . S
C304 C306 1.358 . S
C304 H345 0.930 . S
C305 C303 1.353 . S
C305 N307 1.314 . S
C305 H346 0.930 . S
C306 C304 1.358 . S
C306 N307 1.279 . S
C306 H347 0.930 . S
N307 C305 1.314 . S
N307 C306 1.279 . S
C308 C310 1.353 . S
C308 N311 1.314 . S
C308 H314 0.930 . S
C309 N311 1.279 . S
C309 C312 1.358 . S
C309 H315 0.930 . S
C310 C308 1.353 . S
C310 C313 1.348 . S
C310 H348 0.929 . S
N311 Li266 1.990 . S
N311 C308 1.314 . S
N311 C309 1.279 . S
C312 C309 1.358 . S
C312 C313 1.356 . S
C312 H349 0.930 . S
C313 C310 1.348 . S
C313 C312 1.356 . S
H314 C308 0.930 . S
H315 C309 0.930 . S
C316 N317 1.314 . S
C316 C318 1.353 . S
C316 H322 0.930 . S
N317 Li267 1.990 . S
N317 C316 1.314 . S
N317 C320 1.279 . S
C318 C316 1.353 . S
C318 C321 1.348 . S
C318 H350 0.929 . S
C319 C320 1.358 . S
C319 C321 1.356 . S
C319 H351 0.930 . S
C320 N317 1.279 . S
C320 C319 1.358 . S
C320 H323 0.930 . S
C321 C318 1.348 . S
C321 C319 1.356 . S
H322 C316 0.930 . S
H323 C320 0.930 . S
O324 Li264 1.956 . S
O324 Li265 1.970 . S
O324 Li266 1.961 . S
O324 C268 1.325 . S
O325 Li264 1.970 . S
O325 Li265 1.956 . S
O325 Li267 1.961 . S
O325 C274 1.325 . S
O326 Li264 1.961 . S
O326 Li266 1.956 . S
O326 Li267 1.970 . S
O326 C296 1.325 . S
O327 Li265 1.961 . S
O327 Li266 1.970 . S
O327 Li267 1.956 . S
O327 C302 1.325 . S
H328 C270 0.929 . S
H329 C271 0.930 . S
H330 C272 0.930 . S
H331 C273 0.930 . S
H332 C275 0.930 . S
H333 C277 0.929 . S
H334 C278 0.930 . S
H335 C279 0.930 . S
H336 C282 0.930 . S
H337 C285 0.929 . S
H338 C290 0.929 . S
H339 C291 0.930 . S
H340 C298 0.929 . S
H341 C299 0.930 . S
H342 C300 0.930 . S
H343 C301 0.930 . S
H344 C303 0.929 . S
H345 C304 0.930 . S
H346 C305 0.930 . S
H347 C306 0.930 . S
H348 C310 0.929 . S
H349 C312 0.930 . S
H350 C318 0.929 . S
H351 C319 0.930 . S
Li352 N369 1.990 . S
Li352 O412 1.956 . S
Li352 O413 1.970 . S
Li352 O414 1.961 . S
Li353 N377 1.990 . S
Li353 O412 1.970 . S
Li353 O413 1.956 . S
Li353 O415 1.961 . S
Li354 N399 1.990 . S
Li354 O412 1.961 . S
Li354 O414 1.956 . S
Li354 O415 1.970 . S
Li355 N405 1.990 . S
Li355 O413 1.961 . S
Li355 O414 1.970 . S
Li355 O415 1.956 . S
C356 C358 1.348 . S
C356 C359 1.356 . S
C356 O412 1.325 . S
N357 C360 1.314 . S
N357 C361 1.279 . S
C358 C356 1.348 . S
C358 C360 1.353 . S
C358 H416 0.929 . S
C359 C356 1.356 . S
C359 C361 1.358 . S
C359 H417 0.930 . S
C360 N357 1.314 . S
C360 C358 1.353 . S
C360 H418 0.930 . S
C361 N357 1.279 . S
C361 C359 1.358 . S
C361 H419 0.930 . S
C362 C365 1.348 . S
C362 C366 1.356 . S
C362 O413 1.325 . S
C363 N364 1.279 1_556 S
C363 C366 1.358 . S
C363 H420 0.930 . S
N364 C363 1.279 1_554 S
N364 C367 1.314 1_554 S
C365 C362 1.348 . S
C365 C367 1.353 . S
C365 H421 0.929 . S
C366 C362 1.356 . S
C366 C363 1.358 . S
C366 H422 0.930 . S
C367 N364 1.314 1_556 S
C367 C365 1.353 . S
C367 H423 0.930 1_556 S
C368 N369 1.314 . S
C368 C373 1.353 . S
C368 H374 0.930 . S
N369 Li352 1.990 . S
N369 C368 1.314 . S
N369 C371 1.279 . S
C370 C371 1.358 . S
C370 C372 1.356 . S
C370 H424 0.930 . S
C371 N369 1.279 . S
C371 C370 1.358 . S
C371 H375 0.930 . S
C372 C370 1.356 . S
C372 C373 1.348 . S
C373 C368 1.353 . S
C373 C372 1.348 . S
C373 H425 0.929 . S
H374 C368 0.930 . S
H375 C371 0.930 . S
C376 N377 1.314 . S
C376 C378 1.353 . S
C376 H382 0.930 . S
N377 Li353 1.990 . S
N377 C376 1.314 . S
N377 C380 1.279 . S
C378 C376 1.353 . S
C378 C381 1.348 . S
C378 H426 0.929 . S
C379 C380 1.358 . S
C379 C381 1.356 . S
C379 H427 0.930 . S
C380 N377 1.279 . S
C380 C379 1.358 . S
C380 H383 0.930 . S
C381 C378 1.348 . S
C381 C379 1.356 . S
H382 C376 0.930 . S
H383 C380 0.930 . S
C384 C386 1.348 . S
C384 C387 1.356 . S
C384 O414 1.325 . S
N385 C388 1.314 . S
N385 C389 1.279 . S
C386 C384 1.348 . S
C386 C388 1.353 . S
C386 H428 0.929 . S
C387 C384 1.356 . S
C387 C389 1.358 . S
C387 H429 0.930 . S
C388 N385 1.314 . S
C388 C386 1.353 . S
C388 H430 0.930 . S
C389 N385 1.279 . S
C389 C387 1.358 . S
C389 H431 0.930 . S
C390 C391 1.348 . S
C390 C392 1.356 . S
C390 O415 1.325 . S
C391 C390 1.348 . S
C391 C393 1.353 . S
C391 H432 0.929 . S
C392 C390 1.356 . S
C392 C394 1.358 . S
C392 H433 0.930 . S
C393 C391 1.353 . S
C393 N395 1.314 . S
C393 H434 0.930 . S
C394 C392 1.358 . S
C394 N395 1.279 . S
C394 H435 0.930 . S
N395 C393 1.314 . S
N395 C394 1.279 . S
C396 C398 1.353 . S
C396 N399 1.314 . S
C396 H402 0.930 . S
C397 N399 1.279 . S
C397 C400 1.358 . S
C397 H403 0.930 . S
C398 C396 1.353 . S
C398 C401 1.348 . S
C398 H436 0.929 . S
N399 Li354 1.990 . S
N399 C396 1.314 . S
N399 C397 1.279 . S
C400 C397 1.358 . S
C400 C401 1.356 . S
C400 H437 0.930 . S
C401 C398 1.348 . S
C401 C400 1.356 . S
H402 C396 0.930 . S
H403 C397 0.930 . S
C404 N405 1.314 . S
C404 C406 1.353 . S
C404 H410 0.930 . S
N405 Li355 1.990 . S
N405 C404 1.314 . S
N405 C408 1.279 . S
C406 C404 1.353 . S
C406 C409 1.348 . S
C406 H438 0.929 . S
C407 C408 1.358 . S
C407 C409 1.356 . S
C407 H439 0.930 . S
C408 N405 1.279 . S
C408 C407 1.358 . S
C408 H411 0.930 . S
C409 C406 1.348 . S
C409 C407 1.356 . S
H410 C404 0.930 . S
H411 C408 0.930 . S
O412 Li352 1.956 . S
O412 Li353 1.970 . S
O412 Li354 1.961 . S
O412 C356 1.325 . S
O413 Li352 1.970 . S
O413 Li353 1.956 . S
O413 Li355 1.961 . S
O413 C362 1.325 . S
O414 Li352 1.961 . S
O414 Li354 1.956 . S
O414 Li355 1.970 . S
O414 C384 1.325 . S
O415 Li353 1.961 . S
O415 Li354 1.970 . S
O415 Li355 1.956 . S
O415 C390 1.325 . S
H416 C358 0.929 . S
H417 C359 0.930 . S
H418 C360 0.930 . S
H419 C361 0.930 . S
H420 C363 0.930 . S
H421 C365 0.929 . S
H422 C366 0.930 . S
H423 C367 0.930 1_554 S
H424 C370 0.930 . S
H425 C373 0.929 . S
H426 C378 0.929 . S
H427 C379 0.930 . S
H428 C386 0.929 . S
H429 C387 0.930 . S
H430 C388 0.930 . S
H431 C389 0.930 . S
H432 C391 0.929 . S
H433 C392 0.930 . S
H434 C393 0.930 . S
H435 C394 0.930 . S
H436 C398 0.929 . S
H437 C400 0.930 . S
H438 C406 0.929 . S
H439 C407 0.930 . S
Li440 N457 1.990 . S
Li440 O500 1.956 . S
Li440 O501 1.970 . S
Li440 O502 1.961 . S
Li441 N465 1.990 . S
Li441 O500 1.970 . S
Li441 O501 1.956 . S
Li441 O503 1.961 . S
Li442 N487 1.990 . S
Li442 O500 1.961 . S
Li442 O502 1.956 . S
Li442 O503 1.970 . S
Li443 N493 1.990 . S
Li443 O501 1.961 . S
Li443 O502 1.970 . S
Li443 O503 1.956 . S
C444 C446 1.348 . S
C444 C447 1.356 . S
C444 O500 1.325 . S
N445 C448 1.314 . S
N445 C449 1.279 . S
C446 C444 1.348 . S
C446 C448 1.353 . S
C446 H504 0.929 . S
C447 C444 1.356 . S
C447 C449 1.358 . S
C447 H505 0.930 . S
C448 N445 1.314 . S
C448 C446 1.353 . S
C448 H506 0.930 . S
C449 N445 1.279 . S
C449 C447 1.358 . S
C449 H507 0.930 . S
C450 C453 1.348 . S
C450 C454 1.356 . S
C450 O501 1.325 . S
C451 N452 1.279 . S
C451 C454 1.358 . S
C451 H508 0.930 . S
N452 C451 1.279 . S
N452 C455 1.314 . S
C453 C450 1.348 . S
C453 C455 1.353 . S
C453 H509 0.929 . S
C454 C450 1.356 . S
C454 C451 1.358 . S
C454 H510 0.930 . S
C455 N452 1.314 . S
C455 C453 1.353 . S
C455 H511 0.930 . S
C456 N457 1.314 . S
C456 C461 1.353 . S
C456 H462 0.930 . S
N457 Li440 1.990 . S
N457 C456 1.314 . S
N457 C459 1.279 . S
C458 C459 1.358 . S
C458 C460 1.356 . S
C458 H512 0.930 . S
C459 N457 1.279 . S
C459 C458 1.358 . S
C459 H463 0.930 . S
C460 C458 1.356 . S
C460 C461 1.348 . S
C461 C456 1.353 . S
C461 C460 1.348 . S
C461 H513 0.929 . S
H462 C456 0.930 . S
H463 C459 0.930 . S
C464 N465 1.314 . S
C464 C466 1.353 . S
C464 H470 0.930 . S
N465 Li441 1.990 . S
N465 C464 1.314 . S
N465 C468 1.279 . S
C466 C464 1.353 . S
C466 C469 1.348 . S
C466 H514 0.929 . S
C467 C468 1.358 . S
C467 C469 1.356 . S
C467 H515 0.930 . S
C468 N465 1.279 . S
C468 C467 1.358 . S
C468 H471 0.930 . S
C469 C466 1.348 . S
C469 C467 1.356 . S
H470 C464 0.930 . S
H471 C468 0.930 . S
C472 C474 1.348 . S
C472 C475 1.356 . S
C472 O502 1.325 . S
N473 C476 1.314 . S
N473 C477 1.279 . S
C474 C472 1.348 . S
C474 C476 1.353 . S
C474 H516 0.929 . S
C475 C472 1.356 . S
C475 C477 1.358 . S
C475 H517 0.930 . S
C476 N473 1.314 . S
C476 C474 1.353 . S
C476 H518 0.930 . S
C477 N473 1.279 . S
C477 C475 1.358 . S
C477 H519 0.930 . S
C478 C479 1.348 . S
C478 C480 1.356 . S
C478 O503 1.325 . S
C479 C478 1.348 . S
C479 C481 1.353 . S
C479 H520 0.929 . S
C480 C478 1.356 . S
C480 C482 1.358 . S
C480 H521 0.930 . S
C481 C479 1.353 . S
C481 N483 1.314 . S
C481 H522 0.930 . S
C482 C480 1.358 . S
C482 N483 1.279 . S
C482 H523 0.930 . S
N483 C481 1.314 . S
N483 C482 1.279 . S
C484 C486 1.353 . S
C484 N487 1.314 . S
C484 H490 0.930 . S
C485 N487 1.279 . S
C485 C488 1.358 . S
C485 H491 0.930 . S
C486 C484 1.353 . S
C486 C489 1.348 . S
C486 H524 0.929 . S
N487 Li442 1.990 . S
N487 C484 1.314 . S
N487 C485 1.279 . S
C488 C485 1.358 . S
C488 C489 1.356 . S
C488 H525 0.930 . S
C489 C486 1.348 . S
C489 C488 1.356 . S
H490 C484 0.930 . S
H491 C485 0.930 . S
C492 N493 1.314 . S
C492 C494 1.353 . S
C492 H498 0.930 . S
N493 Li443 1.990 . S
N493 C492 1.314 . S
N493 C496 1.279 . S
C494 C492 1.353 . S
C494 C497 1.348 . S
C494 H526 0.929 . S
C495 C496 1.358 . S
C495 C497 1.356 . S
C495 H527 0.930 . S
C496 N493 1.279 . S
C496 C495 1.358 . S
C496 H499 0.930 . S
C497 C494 1.348 . S
C497 C495 1.356 . S
H498 C492 0.930 . S
H499 C496 0.930 . S
O500 Li440 1.956 . S
O500 Li441 1.970 . S
O500 Li442 1.961 . S
O500 C444 1.325 . S
O501 Li440 1.970 . S
O501 Li441 1.956 . S
O501 Li443 1.961 . S
O501 C450 1.325 . S
O502 Li440 1.961 . S
O502 Li442 1.956 . S
O502 Li443 1.970 . S
O502 C472 1.325 . S
O503 Li441 1.961 . S
O503 Li442 1.970 . S
O503 Li443 1.956 . S
O503 C478 1.325 . S
H504 C446 0.929 . S
H505 C447 0.930 . S
H506 C448 0.930 . S
H507 C449 0.930 . S
H508 C451 0.930 . S
H509 C453 0.929 . S
H510 C454 0.930 . S
H511 C455 0.930 . S
H512 C458 0.930 . S
H513 C461 0.929 . S
H514 C466 0.929 . S
H515 C467 0.930 . S
H516 C474 0.929 . S
H517 C475 0.930 . S
H518 C476 0.930 . S
H519 C477 0.930 . S
H520 C479 0.929 . S
H521 C480 0.930 . S
H522 C481 0.930 . S
H523 C482 0.930 . S
H524 C486 0.929 . S
H525 C488 0.930 . S
H526 C494 0.929 . S
H527 C495 0.930 . S
Li528 N545 1.990 . S
Li528 O588 1.956 . S
Li528 O589 1.970 . S
Li528 O590 1.961 . S
Li529 N553 1.990 . S
Li529 O588 1.970 . S
Li529 O589 1.956 . S
Li529 O591 1.961 . S
Li530 N575 1.990 . S
Li530 O588 1.961 . S
Li530 O590 1.956 . S
Li530 O591 1.970 . S
Li531 N581 1.990 . S
Li531 O589 1.961 . S
Li531 O590 1.970 . S
Li531 O591 1.956 . S
C532 C534 1.348 . S
C532 C535 1.356 . S
C532 O588 1.325 . S
N533 C536 1.314 . S
N533 C537 1.279 . S
C534 C532 1.348 . S
C534 C536 1.353 . S
C534 H592 0.929 . S
C535 C532 1.356 . S
C535 C537 1.358 . S
C535 H593 0.930 . S
C536 N533 1.314 . S
C536 C534 1.353 . S
C536 H594 0.930 . S
C537 N533 1.279 . S
C537 C535 1.358 . S
C537 H595 0.930 . S
C538 C541 1.348 . S
C538 C542 1.356 . S
C538 O589 1.325 . S
C539 N540 1.279 . S
C539 C542 1.358 . S
C539 H596 0.930 . S
N540 C539 1.279 . S
N540 C543 1.314 . S
C541 C538 1.348 . S
C541 C543 1.353 . S
C541 H597 0.929 . S
C542 C538 1.356 . S
C542 C539 1.358 . S
C542 H598 0.930 . S
C543 N540 1.314 . S
C543 C541 1.353 . S
C543 H599 0.930 . S
C544 N545 1.314 . S
C544 C549 1.353 . S
C544 H550 0.930 . S
N545 Li528 1.990 . S
N545 C544 1.314 . S
N545 C547 1.279 . S
C546 C547 1.358 . S
C546 C548 1.356 . S
C546 H600 0.930 . S
C547 N545 1.279 . S
C547 C546 1.358 . S
C547 H551 0.930 . S
C548 C546 1.356 . S
C548 C549 1.348 . S
C549 C544 1.353 . S
C549 C548 1.348 . S
C549 H601 0.929 . S
H550 C544 0.930 . S
H551 C547 0.930 . S
C552 N553 1.314 . S
C552 C554 1.353 . S
C552 H558 0.930 . S
N553 Li529 1.990 . S
N553 C552 1.314 . S
N553 C556 1.279 . S
C554 C552 1.353 . S
C554 C557 1.348 . S
C554 H602 0.929 . S
C555 C556 1.358 . S
C555 C557 1.356 . S
C555 H603 0.930 . S
C556 N553 1.279 . S
C556 C555 1.358 . S
C556 H559 0.930 . S
C557 C554 1.348 . S
C557 C555 1.356 . S
H558 C552 0.930 . S
H559 C556 0.930 . S
C560 C562 1.348 . S
C560 C563 1.356 . S
C560 O590 1.325 . S
N561 C564 1.314 1_556 S
N561 C565 1.279 1_556 S
C562 C560 1.348 . S
C562 C564 1.353 . S
C562 H604 0.929 . S
C563 C560 1.356 . S
C563 C565 1.358 . S
C563 H605 0.930 . S
C564 N561 1.314 1_554 S
C564 C562 1.353 . S
C564 H606 0.930 1_554 S
C565 N561 1.279 1_554 S
C565 C563 1.358 . S
C565 H607 0.930 . S
C566 C567 1.348 . S
C566 C568 1.356 . S
C566 O591 1.325 . S
C567 C566 1.348 . S
C567 C569 1.353 . S
C567 H608 0.929 . S
C568 C566 1.356 . S
C568 C570 1.358 . S
C568 H609 0.930 . S
C569 C567 1.353 . S
C569 N571 1.314 . S
C569 H610 0.930 . S
C570 C568 1.358 . S
C570 N571 1.279 . S
C570 H611 0.930 . S
N571 C569 1.314 . S
N571 C570 1.279 . S
C572 C574 1.353 . S
C572 N575 1.314 . S
C572 H578 0.930 . S
C573 N575 1.279 . S
C573 C576 1.358 . S
C573 H579 0.930 . S
C574 C572 1.353 . S
C574 C577 1.348 . S
C574 H612 0.929 . S
N575 Li530 1.990 . S
N575 C572 1.314 . S
N575 C573 1.279 . S
C576 C573 1.358 . S
C576 C577 1.356 . S
C576 H613 0.930 . S
C577 C574 1.348 . S
C577 C576 1.356 . S
H578 C572 0.930 . S
H579 C573 0.930 . S
C580 N581 1.314 . S
C580 C582 1.353 . S
C580 H586 0.930 . S
N581 Li531 1.990 . S
N581 C580 1.314 . S
N581 C584 1.279 . S
C582 C580 1.353 . S
C582 C585 1.348 . S
C582 H614 0.929 . S
C583 C584 1.358 . S
C583 C585 1.356 . S
C583 H615 0.930 . S
C584 N581 1.279 . S
C584 C583 1.358 . S
C584 H587 0.930 . S
C585 C582 1.348 . S
C585 C583 1.356 . S
H586 C580 0.930 . S
H587 C584 0.930 . S
O588 Li528 1.956 . S
O588 Li529 1.970 . S
O588 Li530 1.961 . S
O588 C532 1.325 . S
O589 Li528 1.970 . S
O589 Li529 1.956 . S
O589 Li531 1.961 . S
O589 C538 1.325 . S
O590 Li528 1.961 . S
O590 Li530 1.956 . S
O590 Li531 1.970 . S
O590 C560 1.325 . S
O591 Li529 1.961 . S
O591 Li530 1.970 . S
O591 Li531 1.956 . S
O591 C566 1.325 . S
H592 C534 0.929 . S
H593 C535 0.930 . S
H594 C536 0.930 . S
H595 C537 0.930 . S
H596 C539 0.930 . S
H597 C541 0.929 . S
H598 C542 0.930 . S
H599 C543 0.930 . S
H600 C546 0.930 . S
H601 C549 0.929 . S
H602 C554 0.929 . S
H603 C555 0.930 . S
H604 C562 0.929 . S
H605 C563 0.930 . S
H606 C564 0.930 1_556 S
H607 C565 0.930 . S
H608 C567 0.929 . S
H609 C568 0.930 . S
H610 C569 0.930 . S
H611 C570 0.930 . S
H612 C574 0.929 . S
H613 C576 0.930 . S
H614 C582 0.929 . S
H615 C583 0.930 . S
Li616 N633 1.990 . S
Li616 O676 1.956 . S
Li616 O677 1.970 . S
Li616 O678 1.961 . S
Li617 N641 1.990 . S
Li617 O676 1.970 . S
Li617 O677 1.956 . S
Li617 O679 1.961 . S
Li618 N663 1.990 . S
Li618 O676 1.961 . S
Li618 O678 1.956 . S
Li618 O679 1.970 . S
Li619 N669 1.990 . S
Li619 O677 1.961 . S
Li619 O678 1.970 . S
Li619 O679 1.956 . S
C620 C622 1.348 . S
C620 C623 1.356 . S
C620 O676 1.325 . S
N621 C624 1.314 . S
N621 C625 1.279 . S
C622 C620 1.348 . S
C622 C624 1.353 . S
C622 H680 0.929 . S
C623 C620 1.356 . S
C623 C625 1.358 . S
C623 H681 0.930 . S
C624 N621 1.314 . S
C624 C622 1.353 . S
C624 H682 0.930 . S
C625 N621 1.279 . S
C625 C623 1.358 . S
C625 H683 0.930 . S
C626 C629 1.348 . S
C626 C630 1.356 . S
C626 O677 1.325 . S
C627 N628 1.279 . S
C627 C630 1.358 . S
C627 H684 0.930 . S
N628 C627 1.279 . S
N628 C631 1.314 . S
C629 C626 1.348 . S
C629 C631 1.353 . S
C629 H685 0.929 . S
C630 C626 1.356 . S
C630 C627 1.358 . S
C630 H686 0.930 . S
C631 N628 1.314 . S
C631 C629 1.353 . S
C631 H687 0.930 . S
C632 N633 1.314 . S
C632 C637 1.353 . S
C632 H638 0.930 . S
N633 Li616 1.990 . S
N633 C632 1.314 . S
N633 C635 1.279 . S
C634 C635 1.358 . S
C634 C636 1.356 . S
C634 H688 0.930 . S
C635 N633 1.279 . S
C635 C634 1.358 . S
C635 H639 0.930 . S
C636 C634 1.356 . S
C636 C637 1.348 . S
C637 C632 1.353 . S
C637 C636 1.348 . S
C637 H689 0.929 . S
H638 C632 0.930 . S
H639 C635 0.930 . S
C640 N641 1.314 . S
C640 C642 1.353 . S
C640 H646 0.930 . S
N641 Li617 1.990 . S
N641 C640 1.314 . S
N641 C644 1.279 . S
C642 C640 1.353 . S
C642 C645 1.348 . S
C642 H690 0.929 . S
C643 C644 1.358 . S
C643 C645 1.356 . S
C643 H691 0.930 . S
C644 N641 1.279 . S
C644 C643 1.358 . S
C644 H647 0.930 . S
C645 C642 1.348 . S
C645 C643 1.356 . S
H646 C640 0.930 . S
H647 C644 0.930 . S
C648 C650 1.348 . S
C648 C651 1.356 . S
C648 O678 1.325 . S
N649 C652 1.314 . S
N649 C653 1.279 . S
C650 C648 1.348 . S
C650 C652 1.353 . S
C650 H692 0.929 . S
C651 C648 1.356 . S
C651 C653 1.358 . S
C651 H693 0.930 . S
C652 N649 1.314 . S
C652 C650 1.353 . S
C652 H694 0.930 . S
C653 N649 1.279 . S
C653 C651 1.358 . S
C653 H695 0.930 . S
C654 C655 1.348 . S
C654 C656 1.356 . S
C654 O679 1.325 . S
C655 C654 1.348 . S
C655 C657 1.353 . S
C655 H696 0.929 . S
C656 C654 1.356 . S
C656 C658 1.358 . S
C656 H697 0.930 . S
C657 C655 1.353 . S
C657 N659 1.314 . S
C657 H698 0.930 . S
C658 C656 1.358 . S
C658 N659 1.279 . S
C658 H699 0.930 . S
N659 C657 1.314 . S
N659 C658 1.279 . S
C660 C662 1.353 . S
C660 N663 1.314 . S
C660 H666 0.930 . S
C661 N663 1.279 . S
C661 C664 1.358 . S
C661 H667 0.930 . S
C662 C660 1.353 . S
C662 C665 1.348 . S
C662 H700 0.929 . S
N663 Li618 1.990 . S
N663 C660 1.314 . S
N663 C661 1.279 . S
C664 C661 1.358 . S
C664 C665 1.356 . S
C664 H701 0.930 . S
C665 C662 1.348 . S
C665 C664 1.356 . S
H666 C660 0.930 . S
H667 C661 0.930 . S
C668 N669 1.314 . S
C668 C670 1.353 . S
C668 H674 0.930 . S
N669 Li619 1.990 . S
N669 C668 1.314 . S
N669 C672 1.279 . S
C670 C668 1.353 . S
C670 C673 1.348 . S
C670 H702 0.929 . S
C671 C672 1.358 . S
C671 C673 1.356 . S
C671 H703 0.930 . S
C672 N669 1.279 . S
C672 C671 1.358 . S
C672 H675 0.930 . S
C673 C670 1.348 . S
C673 C671 1.356 . S
H674 C668 0.930 . S
H675 C672 0.930 . S
O676 Li616 1.956 . S
O676 Li617 1.970 . S
O676 Li618 1.961 . S
O676 C620 1.325 . S
O677 Li616 1.970 . S
O677 Li617 1.956 . S
O677 Li619 1.961 . S
O677 C626 1.325 . S
O678 Li616 1.961 . S
O678 Li618 1.956 . S
O678 Li619 1.970 . S
O678 C648 1.325 . S
O679 Li617 1.961 . S
O679 Li618 1.970 . S
O679 Li619 1.956 . S
O679 C654 1.325 . S
H680 C622 0.929 . S
H681 C623 0.930 . S
H682 C624 0.930 . S
H683 C625 0.930 . S
H684 C627 0.930 . S
H685 C629 0.929 . S
H686 C630 0.930 . S
H687 C631 0.930 . S
H688 C634 0.930 . S
H689 C637 0.929 . S
H690 C642 0.929 . S
H691 C643 0.930 . S
H692 C650 0.929 . S
H693 C651 0.930 . S
H694 C652 0.930 . S
H695 C653 0.930 . S
H696 C655 0.929 . S
H697 C656 0.930 . S
H698 C657 0.930 . S
H699 C658 0.930 . S
H700 C662 0.929 . S
H701 C664 0.930 . S
H702 C670 0.929 . S
H703 C671 0.930 . S
Li704 N721 1.990 . S
Li704 O764 1.956 . S
Li704 O765 1.970 . S
Li704 O766 1.961 . S
Li705 N729 1.990 . S
Li705 O764 1.970 . S
Li705 O765 1.956 . S
Li705 O767 1.961 . S
Li706 N751 1.990 . S
Li706 O764 1.961 . S
Li706 O766 1.956 . S
Li706 O767 1.970 . S
Li707 N757 1.990 . S
Li707 O765 1.961 . S
Li707 O766 1.970 . S
Li707 O767 1.956 . S
C708 C710 1.348 . S
C708 C711 1.356 . S
C708 O764 1.325 . S
N709 C712 1.314 1_556 S
N709 C713 1.279 1_556 S
C710 C708 1.348 . S
C710 C712 1.353 . S
C710 H768 0.929 . S
C711 C708 1.356 . S
C711 C713 1.358 . S
C711 H769 0.930 . S
C712 N709 1.314 1_554 S
C712 C710 1.353 . S
C712 H770 0.930 . S
C713 N709 1.279 1_554 S
C713 C711 1.358 . S
C713 H771 0.930 1_554 S
C714 C717 1.348 . S
C714 C718 1.356 . S
C714 O765 1.325 . S
C715 N716 1.279 . S
C715 C718 1.358 . S
C715 H772 0.930 . S
N716 C715 1.279 . S
N716 C719 1.314 . S
C717 C714 1.348 . S
C717 C719 1.353 . S
C717 H773 0.929 . S
C718 C714 1.356 . S
C718 C715 1.358 . S
C718 H774 0.930 . S
C719 N716 1.314 . S
C719 C717 1.353 . S
C719 H775 0.930 . S
C720 N721 1.314 . S
C720 C725 1.353 . S
C720 H726 0.930 . S
N721 Li704 1.990 . S
N721 C720 1.314 . S
N721 C723 1.279 . S
C722 C723 1.358 . S
C722 C724 1.356 . S
C722 H776 0.930 . S
C723 N721 1.279 . S
C723 C722 1.358 . S
C723 H727 0.930 . S
C724 C722 1.356 . S
C724 C725 1.348 . S
C725 C720 1.353 . S
C725 C724 1.348 . S
C725 H777 0.929 . S
H726 C720 0.930 . S
H727 C723 0.930 . S
C728 N729 1.314 . S
C728 C730 1.353 . S
C728 H734 0.930 . S
N729 Li705 1.990 . S
N729 C728 1.314 . S
N729 C732 1.279 . S
C730 C728 1.353 . S
C730 C733 1.348 . S
C730 H778 0.929 . S
C731 C732 1.358 . S
C731 C733 1.356 . S
C731 H779 0.930 . S
C732 N729 1.279 . S
C732 C731 1.358 . S
C732 H735 0.930 . S
C733 C730 1.348 . S
C733 C731 1.356 . S
H734 C728 0.930 . S
H735 C732 0.930 . S
C736 C738 1.348 . S
C736 C739 1.356 . S
C736 O766 1.325 . S
N737 C740 1.314 . S
N737 C741 1.279 . S
C738 C736 1.348 . S
C738 C740 1.353 . S
C738 H780 0.929 . S
C739 C736 1.356 . S
C739 C741 1.358 . S
C739 H781 0.930 . S
C740 N737 1.314 . S
C740 C738 1.353 . S
C740 H782 0.930 . S
C741 N737 1.279 . S
C741 C739 1.358 . S
C741 H783 0.930 . S
C742 C743 1.348 . S
C742 C744 1.356 . S
C742 O767 1.325 . S
C743 C742 1.348 . S
C743 C745 1.353 . S
C743 H784 0.929 . S
C744 C742 1.356 . S
C744 C746 1.358 . S
C744 H785 0.930 . S
C745 C743 1.353 . S
C745 N747 1.314 . S
C745 H786 0.930 . S
C746 C744 1.358 . S
C746 N747 1.279 . S
C746 H787 0.930 . S
N747 C745 1.314 . S
N747 C746 1.279 . S
C748 C750 1.353 . S
C748 N751 1.314 . S
C748 H754 0.930 . S
C749 N751 1.279 . S
C749 C752 1.358 . S
C749 H755 0.930 . S
C750 C748 1.353 . S
C750 C753 1.348 . S
C750 H788 0.929 . S
N751 Li706 1.990 . S
N751 C748 1.314 . S
N751 C749 1.279 . S
C752 C749 1.358 . S
C752 C753 1.356 . S
C752 H789 0.930 . S
C753 C750 1.348 . S
C753 C752 1.356 . S
H754 C748 0.930 . S
H755 C749 0.930 . S
C756 N757 1.314 . S
C756 C758 1.353 . S
C756 H762 0.930 . S
N757 Li707 1.990 . S
N757 C756 1.314 . S
N757 C760 1.279 . S
C758 C756 1.353 . S
C758 C761 1.348 . S
C758 H790 0.929 . S
C759 C760 1.358 . S
C759 C761 1.356 . S
C759 H791 0.930 . S
C760 N757 1.279 . S
C760 C759 1.358 . S
C760 H763 0.930 . S
C761 C758 1.348 . S
C761 C759 1.356 . S
H762 C756 0.930 . S
H763 C760 0.930 . S
O764 Li704 1.956 . S
O764 Li705 1.970 . S
O764 Li706 1.961 . S
O764 C708 1.325 . S
O765 Li704 1.970 . S
O765 Li705 1.956 . S
O765 Li707 1.961 . S
O765 C714 1.325 . S
O766 Li704 1.961 . S
O766 Li706 1.956 . S
O766 Li707 1.970 . S
O766 C736 1.325 . S
O767 Li705 1.961 . S
O767 Li706 1.970 . S
O767 Li707 1.956 . S
O767 C742 1.325 . S
H768 C710 0.929 . S
H769 C711 0.930 . S
H770 C712 0.930 . S
H771 C713 0.930 1_556 S
H772 C715 0.930 . S
H773 C717 0.929 . S
H774 C718 0.930 . S
H775 C719 0.930 . S
H776 C722 0.930 . S
H777 C725 0.929 . S
H778 C730 0.929 . S
H779 C731 0.930 . S
H780 C738 0.929 . S
H781 C739 0.930 . S
H782 C740 0.930 . S
H783 C741 0.930 . S
H784 C743 0.929 . S
H785 C744 0.930 . S
H786 C745 0.930 . S
H787 C746 0.930 . S
H788 C750 0.929 . S
H789 C752 0.930 . S
H790 C758 0.929 . S
H791 C759 0.930 . S
Li792 N809 1.990 . S
Li792 O852 1.956 . S
Li792 O853 1.970 . S
Li792 O854 1.961 . S
Li793 N817 1.990 . S
Li793 O852 1.970 . S
Li793 O853 1.956 . S
Li793 O855 1.961 . S
Li794 N839 1.990 . S
Li794 O852 1.961 . S
Li794 O854 1.956 . S
Li794 O855 1.970 . S
Li795 N845 1.990 . S
Li795 O853 1.961 . S
Li795 O854 1.970 . S
Li795 O855 1.956 . S
C796 C798 1.348 . S
C796 C799 1.356 . S
C796 O852 1.325 . S
N797 C800 1.314 . S
N797 C801 1.279 . S
C798 C796 1.348 . S
C798 C800 1.353 . S
C798 H856 0.929 . S
C799 C796 1.356 . S
C799 C801 1.358 . S
C799 H857 0.930 . S
C800 N797 1.314 . S
C800 C798 1.353 . S
C800 H858 0.930 . S
C801 N797 1.279 . S
C801 C799 1.358 . S
C801 H859 0.930 . S
C802 C805 1.348 . S
C802 C806 1.356 . S
C802 O853 1.325 . S
C803 N804 1.279 . S
C803 C806 1.358 . S
C803 H860 0.930 . S
N804 C803 1.279 . S
N804 C807 1.314 . S
C805 C802 1.348 . S
C805 C807 1.353 . S
C805 H861 0.929 . S
C806 C802 1.356 . S
C806 C803 1.358 . S
C806 H862 0.930 . S
C807 N804 1.314 . S
C807 C805 1.353 . S
C807 H863 0.930 . S
C808 N809 1.314 . S
C808 C813 1.353 . S
C808 H814 0.930 . S
N809 Li792 1.990 . S
N809 C808 1.314 . S
N809 C811 1.279 . S
C810 C811 1.358 . S
C810 C812 1.356 . S
C810 H864 0.930 . S
C811 N809 1.279 . S
C811 C810 1.358 . S
C811 H815 0.930 . S
C812 C810 1.356 . S
C812 C813 1.348 . S
C813 C808 1.353 . S
C813 C812 1.348 . S
C813 H865 0.929 . S
H814 C808 0.930 . S
H815 C811 0.930 . S
C816 N817 1.314 . S
C816 C818 1.353 . S
C816 H822 0.930 . S
N817 Li793 1.990 . S
N817 C816 1.314 . S
N817 C820 1.279 . S
C818 C816 1.353 . S
C818 C821 1.348 . S
C818 H866 0.929 . S
C819 C820 1.358 . S
C819 C821 1.356 . S
C819 H867 0.930 . S
C820 N817 1.279 . S
C820 C819 1.358 . S
C820 H823 0.930 . S
C821 C818 1.348 . S
C821 C819 1.356 . S
H822 C816 0.930 . S
H823 C820 0.930 . S
C824 C826 1.348 . S
C824 C827 1.356 . S
C824 O854 1.325 . S
N825 C828 1.314 . S
N825 C829 1.279 . S
C826 C824 1.348 . S
C826 C828 1.353 . S
C826 H868 0.929 . S
C827 C824 1.356 . S
C827 C829 1.358 . S
C827 H869 0.930 . S
C828 N825 1.314 . S
C828 C826 1.353 . S
C828 H870 0.930 . S
C829 N825 1.279 . S
C829 C827 1.358 . S
C829 H871 0.930 . S
C830 C831 1.348 . S
C830 C832 1.356 . S
C830 O855 1.325 . S
C831 C830 1.348 . S
C831 C833 1.353 . S
C831 H872 0.929 . S
C832 C830 1.356 . S
C832 C834 1.358 . S
C832 H873 0.930 . S
C833 C831 1.353 . S
C833 N835 1.314 . S
C833 H874 0.930 . S
C834 C832 1.358 . S
C834 N835 1.279 . S
C834 H875 0.930 . S
N835 C833 1.314 . S
N835 C834 1.279 . S
C836 C838 1.353 . S
C836 N839 1.314 . S
C836 H842 0.930 . S
C837 N839 1.279 . S
C837 C840 1.358 . S
C837 H843 0.930 . S
C838 C836 1.353 . S
C838 C841 1.348 . S
C838 H876 0.929 . S
N839 Li794 1.990 . S
N839 C836 1.314 . S
N839 C837 1.279 . S
C840 C837 1.358 . S
C840 C841 1.356 . S
C840 H877 0.930 . S
C841 C838 1.348 . S
C841 C840 1.356 . S
H842 C836 0.930 . S
H843 C837 0.930 . S
C844 N845 1.314 . S
C844 C846 1.353 . S
C844 H850 0.930 . S
N845 Li795 1.990 . S
N845 C844 1.314 . S
N845 C848 1.279 . S
C846 C844 1.353 . S
C846 C849 1.348 . S
C846 H878 0.929 . S
C847 C848 1.358 . S
C847 C849 1.356 . S
C847 H879 0.930 . S
C848 N845 1.279 . S
C848 C847 1.358 . S
C848 H851 0.930 . S
C849 C846 1.348 . S
C849 C847 1.356 . S
H850 C844 0.930 . S
H851 C848 0.930 . S
O852 Li792 1.956 . S
O852 Li793 1.970 . S
O852 Li794 1.961 . S
O852 C796 1.325 . S
O853 Li792 1.970 . S
O853 Li793 1.956 . S
O853 Li795 1.961 . S
O853 C802 1.325 . S
O854 Li792 1.961 . S
O854 Li794 1.956 . S
O854 Li795 1.970 . S
O854 C824 1.325 . S
O855 Li793 1.961 . S
O855 Li794 1.970 . S
O855 Li795 1.956 . S
O855 C830 1.325 . S
H856 C798 0.929 . S
H857 C799 0.930 . S
H858 C800 0.930 . S
H859 C801 0.930 . S
H860 C803 0.930 . S
H861 C805 0.929 . S
H862 C806 0.930 . S
H863 C807 0.930 . S
H864 C810 0.930 . S
H865 C813 0.929 . S
H866 C818 0.929 . S
H867 C819 0.930 . S
H868 C826 0.929 . S
H869 C827 0.930 . S
H870 C828 0.930 . S
H871 C829 0.930 . S
H872 C831 0.929 . S
H873 C832 0.930 . S
H874 C833 0.930 . S
H875 C834 0.930 . S
H876 C838 0.929 . S
H877 C840 0.930 . S
H878 C846 0.929 . S
H879 C847 0.930 . S
Li880 N897 1.990 . S
Li880 O940 1.956 . S
Li880 O941 1.970 . S
Li880 O942 1.961 . S
Li881 N905 1.990 . S
Li881 O940 1.970 . S
Li881 O941 1.956 . S
Li881 O943 1.961 . S
Li882 N927 1.990 . S
Li882 O940 1.961 . S
Li882 O942 1.956 . S
Li882 O943 1.970 . S
Li883 N933 1.990 . S
Li883 O941 1.961 . S
Li883 O942 1.970 . S
Li883 O943 1.956 . S
C884 C886 1.348 . S
C884 C887 1.356 . S
C884 O940 1.325 . S
N885 C888 1.314 . S
N885 C889 1.279 . S
C886 C884 1.348 . S
C886 C888 1.353 . S
C886 H944 0.929 . S
C887 C884 1.356 . S
C887 C889 1.358 . S
C887 H945 0.930 . S
C888 N885 1.314 . S
C888 C886 1.353 . S
C888 H946 0.930 . S
C889 N885 1.279 . S
C889 C887 1.358 . S
C889 H947 0.930 . S
C890 C893 1.348 . S
C890 C894 1.356 . S
C890 O941 1.325 . S
C891 N892 1.279 . S
C891 C894 1.358 . S
C891 H948 0.930 . S
N892 C891 1.279 . S
N892 C895 1.314 . S
C893 C890 1.348 . S
C893 C895 1.353 . S
C893 H949 0.929 . S
C894 C890 1.356 . S
C894 C891 1.358 . S
C894 H950 0.930 . S
C895 N892 1.314 . S
C895 C893 1.353 . S
C895 H951 0.930 . S
C896 N897 1.314 . S
C896 C901 1.353 . S
C896 H902 0.930 . S
N897 Li880 1.990 . S
N897 C896 1.314 . S
N897 C899 1.279 . S
C898 C899 1.358 . S
C898 C900 1.356 . S
C898 H952 0.930 . S
C899 N897 1.279 . S
C899 C898 1.358 . S
C899 H903 0.930 . S
C900 C898 1.356 . S
C900 C901 1.348 . S
C901 C896 1.353 . S
C901 C900 1.348 . S
C901 H953 0.929 . S
H902 C896 0.930 . S
H903 C899 0.930 . S
C904 N905 1.314 . S
C904 C906 1.353 . S
C904 H910 0.930 . S
N905 Li881 1.990 . S
N905 C904 1.314 . S
N905 C908 1.279 . S
C906 C904 1.353 . S
C906 C909 1.348 . S
C906 H954 0.929 . S
C907 C908 1.358 . S
C907 C909 1.356 . S
C907 H955 0.930 . S
C908 N905 1.279 . S
C908 C907 1.358 . S
C908 H911 0.930 . S
C909 C906 1.348 . S
C909 C907 1.356 . S
H910 C904 0.930 . S
H911 C908 0.930 . S
C912 C914 1.348 . S
C912 C915 1.356 . S
C912 O942 1.325 . S
N913 C916 1.314 . S
N913 C917 1.279 . S
C914 C912 1.348 . S
C914 C916 1.353 . S
C914 H956 0.929 . S
C915 C912 1.356 . S
C915 C917 1.358 . S
C915 H957 0.930 . S
C916 N913 1.314 . S
C916 C914 1.353 . S
C916 H958 0.930 . S
C917 N913 1.279 . S
C917 C915 1.358 . S
C917 H959 0.930 . S
C918 C919 1.348 . S
C918 C920 1.356 . S
C918 O943 1.325 . S
C919 C918 1.348 . S
C919 C921 1.353 . S
C919 H960 0.929 . S
C920 C918 1.356 . S
C920 C922 1.358 . S
C920 H961 0.930 . S
C921 C919 1.353 . S
C921 N923 1.314 1_556 S
C921 H962 0.930 . S
C922 C920 1.358 . S
C922 N923 1.279 1_556 S
C922 H963 0.930 1_556 S
N923 C921 1.314 1_554 S
N923 C922 1.279 1_554 S
C924 C926 1.353 . S
C924 N927 1.314 . S
C924 H930 0.930 . S
C925 N927 1.279 . S
C925 C928 1.358 . S
C925 H931 0.930 . S
C926 C924 1.353 . S
C926 C929 1.348 . S
C926 H964 0.929 . S
N927 Li882 1.990 . S
N927 C924 1.314 . S
N927 C925 1.279 . S
C928 C925 1.358 . S
C928 C929 1.356 . S
C928 H965 0.930 . S
C929 C926 1.348 . S
C929 C928 1.356 . S
H930 C924 0.930 . S
H931 C925 0.930 . S
C932 N933 1.314 . S
C932 C934 1.353 . S
C932 H938 0.930 . S
N933 Li883 1.990 . S
N933 C932 1.314 . S
N933 C936 1.279 . S
C934 C932 1.353 . S
C934 C937 1.348 . S
C934 H966 0.929 . S
C935 C936 1.358 . S
C935 C937 1.356 . S
C935 H967 0.930 . S
C936 N933 1.279 . S
C936 C935 1.358 . S
C936 H939 0.930 . S
C937 C934 1.348 . S
C937 C935 1.356 . S
H938 C932 0.930 . S
H939 C936 0.930 . S
O940 Li880 1.956 . S
O940 Li881 1.970 . S
O940 Li882 1.961 . S
O940 C884 1.325 . S
O941 Li880 1.970 . S
O941 Li881 1.956 . S
O941 Li883 1.961 . S
O941 C890 1.325 . S
O942 Li880 1.961 . S
O942 Li882 1.956 . S
O942 Li883 1.970 . S
O942 C912 1.325 . S
O943 Li881 1.961 . S
O943 Li882 1.970 . S
O943 Li883 1.956 . S
O943 C918 1.325 . S
H944 C886 0.929 . S
H945 C887 0.930 . S
H946 C888 0.930 . S
H947 C889 0.930 . S
H948 C891 0.930 . S
H949 C893 0.929 . S
H950 C894 0.930 . S
H951 C895 0.930 . S
H952 C898 0.930 . S
H953 C901 0.929 . S
H954 C906 0.929 . S
H955 C907 0.930 . S
H956 C914 0.929 . S
H957 C915 0.930 . S
H958 C916 0.930 . S
H959 C917 0.930 . S
H960 C919 0.929 . S
H961 C920 0.930 . S
H962 C921 0.930 . S
H963 C922 0.930 1_554 S
H964 C926 0.929 . S
H965 C928 0.930 . S
H966 C934 0.929 . S
H967 C935 0.930 . S
Li968 N985 1.990 . S
Li968 O1028 1.956 . S
Li968 O1029 1.970 . S
Li968 O1030 1.961 . S
Li969 N993 1.990 . S
Li969 O1028 1.970 . S
Li969 O1029 1.956 . S
Li969 O1031 1.961 . S
Li970 N1015 1.990 . S
Li970 O1028 1.961 . S
Li970 O1030 1.956 . S
Li970 O1031 1.970 . S
Li971 N1021 1.990 . S
Li971 O1029 1.961 . S
Li971 O1030 1.970 . S
Li971 O1031 1.956 . S
C972 C974 1.348 . S
C972 C975 1.356 . S
C972 O1028 1.325 . S
N973 C976 1.314 . S
N973 C977 1.279 . S
C974 C972 1.348 . S
C974 C976 1.353 . S
C974 H1032 0.929 . S
C975 C972 1.356 . S
C975 C977 1.358 . S
C975 H1033 0.930 . S
C976 N973 1.314 . S
C976 C974 1.353 . S
C976 H1034 0.930 . S
C977 N973 1.279 . S
C977 C975 1.358 . S
C977 H1035 0.930 . S
C978 C981 1.348 . S
C978 C982 1.356 . S
C978 O1029 1.325 . S
C979 N980 1.279 . S
C979 C982 1.358 . S
C979 H1036 0.930 . S
N980 C979 1.279 . S
N980 C983 1.314 . S
C981 C978 1.348 . S
C981 C983 1.353 . S
C981 H1037 0.929 . S
C982 C978 1.356 . S
C982 C979 1.358 . S
C982 H1038 0.930 . S
C983 N980 1.314 . S
C983 C981 1.353 . S
C983 H1039 0.930 . S
C984 N985 1.314 . S
C984 C989 1.353 . S
C984 H990 0.930 . S
N985 Li968 1.990 . S
N985 C984 1.314 . S
N985 C987 1.279 . S
C986 C987 1.358 . S
C986 C988 1.356 . S
C986 H1040 0.930 . S
C987 N985 1.279 . S
C987 C986 1.358 . S
C987 H991 0.930 . S
C988 C986 1.356 . S
C988 C989 1.348 . S
C989 C984 1.353 . S
C989 C988 1.348 . S
C989 H1041 0.929 . S
H990 C984 0.930 . S
H991 C987 0.930 . S
C992 N993 1.314 . S
C992 C994 1.353 . S
C992 H998 0.930 . S
N993 Li969 1.990 . S
N993 C992 1.314 . S
N993 C996 1.279 . S
C994 C992 1.353 . S
C994 C997 1.348 . S
C994 H1042 0.929 . S
C995 C996 1.358 . S
C995 C997 1.356 . S
C995 H1043 0.930 . S
C996 N993 1.279 . S
C996 C995 1.358 . S
C996 H999 0.930 . S
C997 C994 1.348 . S
C997 C995 1.356 . S
H998 C992 0.930 . S
H999 C996 0.930 . S
C1000 C1002 1.348 . S
C1000 C1003 1.356 . S
C1000 O1030 1.325 . S
N1001 C1004 1.314 . S
N1001 C1005 1.279 . S
C1002 C1000 1.348 . S
C1002 C1004 1.353 . S
C1002 H1044 0.929 . S
C1003 C1000 1.356 . S
C1003 C1005 1.358 . S
C1003 H1045 0.930 . S
C1004 N1001 1.314 . S
C1004 C1002 1.353 . S
C1004 H1046 0.930 . S
C1005 N1001 1.279 . S
C1005 C1003 1.358 . S
C1005 H1047 0.930 . S
C1006 C1007 1.348 . S
C1006 C1008 1.356 . S
C1006 O1031 1.325 . S
C1007 C1006 1.348 . S
C1007 C1009 1.353 . S
C1007 H1048 0.929 . S
C1008 C1006 1.356 . S
C1008 C1010 1.358 . S
C1008 H1049 0.930 . S
C1009 C1007 1.353 . S
C1009 N1011 1.314 . S
C1009 H1050 0.930 . S
C1010 C1008 1.358 . S
C1010 N1011 1.279 . S
C1010 H1051 0.930 . S
N1011 C1009 1.314 . S
N1011 C1010 1.279 . S
C1012 C1014 1.353 . S
C1012 N1015 1.314 . S
C1012 H1018 0.930 . S
C1013 N1015 1.279 . S
C1013 C1016 1.358 . S
C1013 H1019 0.930 . S
C1014 C1012 1.353 . S
C1014 C1017 1.348 . S
C1014 H1052 0.929 . S
N1015 Li970 1.990 . S
N1015 C1012 1.314 . S
N1015 C1013 1.279 . S
C1016 C1013 1.358 . S
C1016 C1017 1.356 . S
C1016 H1053 0.930 . S
C1017 C1014 1.348 . S
C1017 C1016 1.356 . S
H1018 C1012 0.930 . S
H1019 C1013 0.930 . S
C1020 N1021 1.314 . S
C1020 C1022 1.353 . S
C1020 H1026 0.930 . S
N1021 Li971 1.990 . S
N1021 C1020 1.314 . S
N1021 C1024 1.279 . S
C1022 C1020 1.353 . S
C1022 C1025 1.348 . S
C1022 H1054 0.929 . S
C1023 C1024 1.358 . S
C1023 C1025 1.356 . S
C1023 H1055 0.930 . S
C1024 N1021 1.279 . S
C1024 C1023 1.358 . S
C1024 H1027 0.930 . S
C1025 C1022 1.348 . S
C1025 C1023 1.356 . S
H1026 C1020 0.930 . S
H1027 C1024 0.930 . S
O1028 Li968 1.956 . S
O1028 Li969 1.970 . S
O1028 Li970 1.961 . S
O1028 C972 1.325 . S
O1029 Li968 1.970 . S
O1029 Li969 1.956 . S
O1029 Li971 1.961 . S
O1029 C978 1.325 . S
O1030 Li968 1.961 . S
O1030 Li970 1.956 . S
O1030 Li971 1.970 . S
O1030 C1000 1.325 . S
O1031 Li969 1.961 . S
O1031 Li970 1.970 . S
O1031 Li971 1.956 . S
O1031 C1006 1.325 . S
H1032 C974 0.929 . S
H1033 C975 0.930 . S
H1034 C976 0.930 . S
H1035 C977 0.930 . S
H1036 C979 0.930 . S
H1037 C981 0.929 . S
H1038 C982 0.930 . S
H1039 C983 0.930 . S
H1040 C986 0.930 . S
H1041 C989 0.929 . S
H1042 C994 0.929 . S
H1043 C995 0.930 . S
H1044 C1002 0.929 . S
H1045 C1003 0.930 . S
H1046 C1004 0.930 . S
H1047 C1005 0.930 . S
H1048 C1007 0.929 . S
H1049 C1008 0.930 . S
H1050 C1009 0.930 . S
H1051 C1010 0.930 . S
H1052 C1014 0.929 . S
H1053 C1016 0.930 . S
H1054 C1022 0.929 . S
H1055 C1023 0.930 . S
Li1056 N1073 1.990 . S
Li1056 O1116 1.956 . S
Li1056 O1117 1.970 . S
Li1056 O1118 1.961 . S
Li1057 N1081 1.990 . S
Li1057 O1116 1.970 . S
Li1057 O1117 1.956 . S
Li1057 O1119 1.961 . S
Li1058 N1103 1.990 . S
Li1058 O1116 1.961 . S
Li1058 O1118 1.956 . S
Li1058 O1119 1.970 . S
Li1059 N1109 1.990 . S
Li1059 O1117 1.961 . S
Li1059 O1118 1.970 . S
Li1059 O1119 1.956 . S
C1060 C1062 1.348 . S
C1060 C1063 1.356 . S
C1060 O1116 1.325 . S
N1061 C1064 1.314 . S
N1061 C1065 1.279 . S
C1062 C1060 1.348 . S
C1062 C1064 1.353 . S
C1062 H1120 0.929 . S
C1063 C1060 1.356 . S
C1063 C1065 1.358 . S
C1063 H1121 0.930 . S
C1064 N1061 1.314 . S
C1064 C1062 1.353 . S
C1064 H1122 0.930 . S
C1065 N1061 1.279 . S
C1065 C1063 1.358 . S
C1065 H1123 0.930 . S
C1066 C1069 1.348 . S
C1066 C1070 1.356 . S
C1066 O1117 1.325 . S
C1067 N1068 1.279 1_556 S
C1067 C1070 1.358 . S
C1067 H1124 0.930 . S
N1068 C1067 1.279 1_554 S
N1068 C1071 1.314 1_554 S
C1069 C1066 1.348 . S
C1069 C1071 1.353 . S
C1069 H1125 0.929 . S
C1070 C1066 1.356 . S
C1070 C1067 1.358 . S
C1070 H1126 0.930 . S
C1071 N1068 1.314 1_556 S
C1071 C1069 1.353 . S
C1071 H1127 0.930 1_556 S
C1072 N1073 1.314 . S
C1072 C1077 1.353 . S
C1072 H1078 0.930 . S
N1073 Li1056 1.990 . S
N1073 C1072 1.314 . S
N1073 C1075 1.279 . S
C1074 C1075 1.358 . S
C1074 C1076 1.356 . S
C1074 H1128 0.930 . S
C1075 N1073 1.279 . S
C1075 C1074 1.358 . S
C1075 H1079 0.930 . S
C1076 C1074 1.356 . S
C1076 C1077 1.348 . S
C1077 C1072 1.353 . S
C1077 C1076 1.348 . S
C1077 H1129 0.929 . S
H1078 C1072 0.930 . S
H1079 C1075 0.930 . S
C1080 N1081 1.314 . S
C1080 C1082 1.353 . S
C1080 H1086 0.930 . S
N1081 Li1057 1.990 . S
N1081 C1080 1.314 . S
N1081 C1084 1.279 . S
C1082 C1080 1.353 . S
C1082 C1085 1.348 . S
C1082 H1130 0.929 . S
C1083 C1084 1.358 . S
C1083 C1085 1.356 . S
C1083 H1131 0.930 . S
C1084 N1081 1.279 . S
C1084 C1083 1.358 . S
C1084 H1087 0.930 . S
C1085 C1082 1.348 . S
C1085 C1083 1.356 . S
H1086 C1080 0.930 . S
H1087 C1084 0.930 . S
C1088 C1090 1.348 . S
C1088 C1091 1.356 . S
C1088 O1118 1.325 . S
N1089 C1092 1.314 . S
N1089 C1093 1.279 . S
C1090 C1088 1.348 . S
C1090 C1092 1.353 . S
C1090 H1132 0.929 . S
C1091 C1088 1.356 . S
C1091 C1093 1.358 . S
C1091 H1133 0.930 . S
C1092 N1089 1.314 . S
C1092 C1090 1.353 . S
C1092 H1134 0.930 . S
C1093 N1089 1.279 . S
C1093 C1091 1.358 . S
C1093 H1135 0.930 . S
C1094 C1095 1.348 . S
C1094 C1096 1.356 . S
C1094 O1119 1.325 . S
C1095 C1094 1.348 . S
C1095 C1097 1.353 . S
C1095 H1136 0.929 . S
C1096 C1094 1.356 . S
C1096 C1098 1.358 . S
C1096 H1137 0.930 . S
C1097 C1095 1.353 . S
C1097 N1099 1.314 . S
C1097 H1138 0.930 . S
C1098 C1096 1.358 . S
C1098 N1099 1.279 . S
C1098 H1139 0.930 . S
N1099 C1097 1.314 . S
N1099 C1098 1.279 . S
C1100 C1102 1.353 . S
C1100 N1103 1.314 . S
C1100 H1106 0.930 . S
C1101 N1103 1.279 . S
C1101 C1104 1.358 . S
C1101 H1107 0.930 . S
C1102 C1100 1.353 . S
C1102 C1105 1.348 . S
C1102 H1140 0.929 . S
N1103 Li1058 1.990 . S
N1103 C1100 1.314 . S
N1103 C1101 1.279 . S
C1104 C1101 1.358 . S
C1104 C1105 1.356 . S
C1104 H1141 0.930 . S
C1105 C1102 1.348 . S
C1105 C1104 1.356 . S
H1106 C1100 0.930 . S
H1107 C1101 0.930 . S
C1108 N1109 1.314 . S
C1108 C1110 1.353 . S
C1108 H1114 0.930 . S
N1109 Li1059 1.990 . S
N1109 C1108 1.314 . S
N1109 C1112 1.279 . S
C1110 C1108 1.353 . S
C1110 C1113 1.348 . S
C1110 H1142 0.929 . S
C1111 C1112 1.358 . S
C1111 C1113 1.356 . S
C1111 H1143 0.930 . S
C1112 N1109 1.279 . S
C1112 C1111 1.358 . S
C1112 H1115 0.930 . S
C1113 C1110 1.348 . S
C1113 C1111 1.356 . S
H1114 C1108 0.930 . S
H1115 C1112 0.930 . S
O1116 Li1056 1.956 . S
O1116 Li1057 1.970 . S
O1116 Li1058 1.961 . S
O1116 C1060 1.325 . S
O1117 Li1056 1.970 . S
O1117 Li1057 1.956 . S
O1117 Li1059 1.961 . S
O1117 C1066 1.325 . S
O1118 Li1056 1.961 . S
O1118 Li1058 1.956 . S
O1118 Li1059 1.970 . S
O1118 C1088 1.325 . S
O1119 Li1057 1.961 . S
O1119 Li1058 1.970 . S
O1119 Li1059 1.956 . S
O1119 C1094 1.325 . S
H1120 C1062 0.929 . S
H1121 C1063 0.930 . S
H1122 C1064 0.930 . S
H1123 C1065 0.930 . S
H1124 C1067 0.930 . S
H1125 C1069 0.929 . S
H1126 C1070 0.930 . S
H1127 C1071 0.930 1_554 S
H1128 C1074 0.930 . S
H1129 C1077 0.929 . S
H1130 C1082 0.929 . S
H1131 C1083 0.930 . S
H1132 C1090 0.929 . S
H1133 C1091 0.930 . S
H1134 C1092 0.930 . S
H1135 C1093 0.930 . S
H1136 C1095 0.929 . S
H1137 C1096 0.930 . S
H1138 C1097 0.930 . S
H1139 C1098 0.930 . S
H1140 C1102 0.929 . S
H1141 C1104 0.930 . S
H1142 C1110 0.929 . S
H1143 C1111 0.930 . S
Li1144 N1161 1.990 . S
Li1144 O1204 1.956 . S
Li1144 O1205 1.970 . S
Li1144 O1206 1.961 . S
Li1145 N1169 1.990 . S
Li1145 O1204 1.970 . S
Li1145 O1205 1.956 . S
Li1145 O1207 1.961 . S
Li1146 N1191 1.990 . S
Li1146 O1204 1.961 . S
Li1146 O1206 1.956 . S
Li1146 O1207 1.970 . S
Li1147 N1197 1.990 . S
Li1147 O1205 1.961 . S
Li1147 O1206 1.970 . S
Li1147 O1207 1.956 . S
C1148 C1150 1.348 . S
C1148 C1151 1.356 . S
C1148 O1204 1.325 . S
N1149 C1152 1.314 . S
N1149 C1153 1.279 . S
C1150 C1148 1.348 . S
C1150 C1152 1.353 . S
C1150 H1208 0.929 . S
C1151 C1148 1.356 . S
C1151 C1153 1.358 . S
C1151 H1209 0.930 . S
C1152 N1149 1.314 . S
C1152 C1150 1.353 . S
C1152 H1210 0.930 . S
C1153 N1149 1.279 . S
C1153 C1151 1.358 . S
C1153 H1211 0.930 . S
C1154 C1157 1.348 . S
C1154 C1158 1.356 . S
C1154 O1205 1.325 . S
C1155 N1156 1.279 . S
C1155 C1158 1.358 . S
C1155 H1212 0.930 . S
N1156 C1155 1.279 . S
N1156 C1159 1.314 . S
C1157 C1154 1.348 . S
C1157 C1159 1.353 . S
C1157 H1213 0.929 . S
C1158 C1154 1.356 . S
C1158 C1155 1.358 . S
C1158 H1214 0.930 . S
C1159 N1156 1.314 . S
C1159 C1157 1.353 . S
C1159 H1215 0.930 . S
C1160 N1161 1.314 . S
C1160 C1165 1.353 . S
C1160 H1166 0.930 . S
N1161 Li1144 1.990 . S
N1161 C1160 1.314 . S
N1161 C1163 1.279 . S
C1162 C1163 1.358 . S
C1162 C1164 1.356 . S
C1162 H1216 0.930 . S
C1163 N1161 1.279 . S
C1163 C1162 1.358 . S
C1163 H1167 0.930 . S
C1164 C1162 1.356 . S
C1164 C1165 1.348 . S
C1165 C1160 1.353 . S
C1165 C1164 1.348 . S
C1165 H1217 0.929 . S
H1166 C1160 0.930 . S
H1167 C1163 0.930 . S
C1168 N1169 1.314 . S
C1168 C1170 1.353 . S
C1168 H1174 0.930 . S
N1169 Li1145 1.990 . S
N1169 C1168 1.314 . S
N1169 C1172 1.279 . S
C1170 C1168 1.353 . S
C1170 C1173 1.348 . S
C1170 H1218 0.929 . S
C1171 C1172 1.358 . S
C1171 C1173 1.356 . S
C1171 H1219 0.930 . S
C1172 N1169 1.279 . S
C1172 C1171 1.358 . S
C1172 H1175 0.930 . S
C1173 C1170 1.348 . S
C1173 C1171 1.356 . S
H1174 C1168 0.930 . S
H1175 C1172 0.930 . S
C1176 C1178 1.348 . S
C1176 C1179 1.356 . S
C1176 O1206 1.325 . S
N1177 C1180 1.314 . S
N1177 C1181 1.279 . S
C1178 C1176 1.348 . S
C1178 C1180 1.353 . S
C1178 H1220 0.929 . S
C1179 C1176 1.356 . S
C1179 C1181 1.358 . S
C1179 H1221 0.930 . S
C1180 N1177 1.314 . S
C1180 C1178 1.353 . S
C1180 H1222 0.930 . S
C1181 N1177 1.279 . S
C1181 C1179 1.358 . S
C1181 H1223 0.930 . S
C1182 C1183 1.348 . S
C1182 C1184 1.356 . S
C1182 O1207 1.325 . S
C1183 C1182 1.348 . S
C1183 C1185 1.353 . S
C1183 H1224 0.929 . S
C1184 C1182 1.356 . S
C1184 C1186 1.358 . S
C1184 H1225 0.930 . S
C1185 C1183 1.353 . S
C1185 N1187 1.314 . S
C1185 H1226 0.930 . S
C1186 C1184 1.358 . S
C1186 N1187 1.279 . S
C1186 H1227 0.930 . S
N1187 C1185 1.314 . S
N1187 C1186 1.279 . S
C1188 C1190 1.353 . S
C1188 N1191 1.314 . S
C1188 H1194 0.930 . S
C1189 N1191 1.279 . S
C1189 C1192 1.358 . S
C1189 H1195 0.930 . S
C1190 C1188 1.353 . S
C1190 C1193 1.348 . S
C1190 H1228 0.929 . S
N1191 Li1146 1.990 . S
N1191 C1188 1.314 . S
N1191 C1189 1.279 . S
C1192 C1189 1.358 . S
C1192 C1193 1.356 . S
C1192 H1229 0.930 . S
C1193 C1190 1.348 . S
C1193 C1192 1.356 . S
H1194 C1188 0.930 . S
H1195 C1189 0.930 . S
C1196 N1197 1.314 . S
C1196 C1198 1.353 . S
C1196 H1202 0.930 . S
N1197 Li1147 1.990 . S
N1197 C1196 1.314 . S
N1197 C1200 1.279 . S
C1198 C1196 1.353 . S
C1198 C1201 1.348 . S
C1198 H1230 0.929 . S
C1199 C1200 1.358 . S
C1199 C1201 1.356 . S
C1199 H1231 0.930 . S
C1200 N1197 1.279 . S
C1200 C1199 1.358 . S
C1200 H1203 0.930 . S
C1201 C1198 1.348 . S
C1201 C1199 1.356 . S
H1202 C1196 0.930 . S
H1203 C1200 0.930 . S
O1204 Li1144 1.956 . S
O1204 Li1145 1.970 . S
O1204 Li1146 1.961 . S
O1204 C1148 1.325 . S
O1205 Li1144 1.970 . S
O1205 Li1145 1.956 . S
O1205 Li1147 1.961 . S
O1205 C1154 1.325 . S
O1206 Li1144 1.961 . S
O1206 Li1146 1.956 . S
O1206 Li1147 1.970 . S
O1206 C1176 1.325 . S
O1207 Li1145 1.961 . S
O1207 Li1146 1.970 . S
O1207 Li1147 1.956 . S
O1207 C1182 1.325 . S
H1208 C1150 0.929 . S
H1209 C1151 0.930 . S
H1210 C1152 0.930 . S
H1211 C1153 0.930 . S
H1212 C1155 0.930 . S
H1213 C1157 0.929 . S
H1214 C1158 0.930 . S
H1215 C1159 0.930 . S
H1216 C1162 0.930 . S
H1217 C1165 0.929 . S
H1218 C1170 0.929 . S
H1219 C1171 0.930 . S
H1220 C1178 0.929 . S
H1221 C1179 0.930 . S
H1222 C1180 0.930 . S
H1223 C1181 0.930 . S
H1224 C1183 0.929 . S
H1225 C1184 0.930 . S
H1226 C1185 0.930 . S
H1227 C1186 0.930 . S
H1228 C1190 0.929 . S
H1229 C1192 0.930 . S
H1230 C1198 0.929 . S
H1231 C1199 0.930 . S
Li1232 N1249 1.990 . S
Li1232 O1292 1.956 . S
Li1232 O1293 1.970 . S
Li1232 O1294 1.961 . S
Li1233 N1257 1.990 . S
Li1233 O1292 1.970 . S
Li1233 O1293 1.956 . S
Li1233 O1295 1.961 . S
Li1234 N1279 1.990 . S
Li1234 O1292 1.961 . S
Li1234 O1294 1.956 . S
Li1234 O1295 1.970 . S
Li1235 N1285 1.990 . S
Li1235 O1293 1.961 . S
Li1235 O1294 1.970 . S
Li1235 O1295 1.956 . S
C1236 C1238 1.348 . S
C1236 C1239 1.356 . S
C1236 O1292 1.325 . S
N1237 C1240 1.314 . S
N1237 C1241 1.279 . S
C1238 C1236 1.348 . S
C1238 C1240 1.353 . S
C1238 H1296 0.929 . S
C1239 C1236 1.356 . S
C1239 C1241 1.358 . S
C1239 H1297 0.930 . S
C1240 N1237 1.314 . S
C1240 C1238 1.353 . S
C1240 H1298 0.930 . S
C1241 N1237 1.279 . S
C1241 C1239 1.358 . S
C1241 H1299 0.930 . S
C1242 C1245 1.348 . S
C1242 C1246 1.356 . S
C1242 O1293 1.325 . S
C1243 N1244 1.279 . S
C1243 C1246 1.358 . S
C1243 H1300 0.930 . S
N1244 C1243 1.279 . S
N1244 C1247 1.314 . S
C1245 C1242 1.348 . S
C1245 C1247 1.353 . S
C1245 H1301 0.929 . S
C1246 C1242 1.356 . S
C1246 C1243 1.358 . S
C1246 H1302 0.930 . S
C1247 N1244 1.314 . S
C1247 C1245 1.353 . S
C1247 H1303 0.930 . S
C1248 N1249 1.314 . S
C1248 C1253 1.353 . S
C1248 H1254 0.930 . S
N1249 Li1232 1.990 . S
N1249 C1248 1.314 . S
N1249 C1251 1.279 . S
C1250 C1251 1.358 . S
C1250 C1252 1.356 . S
C1250 H1304 0.930 . S
C1251 N1249 1.279 . S
C1251 C1250 1.358 . S
C1251 H1255 0.930 . S
C1252 C1250 1.356 . S
C1252 C1253 1.348 . S
C1253 C1248 1.353 . S
C1253 C1252 1.348 . S
C1253 H1305 0.929 . S
H1254 C1248 0.930 . S
H1255 C1251 0.930 . S
C1256 N1257 1.314 . S
C1256 C1258 1.353 . S
C1256 H1262 0.930 . S
N1257 Li1233 1.990 . S
N1257 C1256 1.314 . S
N1257 C1260 1.279 . S
C1258 C1256 1.353 . S
C1258 C1261 1.348 . S
C1258 H1306 0.929 . S
C1259 C1260 1.358 . S
C1259 C1261 1.356 . S
C1259 H1307 0.930 . S
C1260 N1257 1.279 . S
C1260 C1259 1.358 . S
C1260 H1263 0.930 . S
C1261 C1258 1.348 . S
C1261 C1259 1.356 . S
H1262 C1256 0.930 . S
H1263 C1260 0.930 . S
C1264 C1266 1.348 . S
C1264 C1267 1.356 . S
C1264 O1294 1.325 . S
N1265 C1268 1.314 1_556 S
N1265 C1269 1.279 1_556 S
C1266 C1264 1.348 . S
C1266 C1268 1.353 . S
C1266 H1308 0.929 . S
C1267 C1264 1.356 . S
C1267 C1269 1.358 . S
C1267 H1309 0.930 . S
C1268 N1265 1.314 1_554 S
C1268 C1266 1.353 . S
C1268 H1310 0.930 1_554 S
C1269 N1265 1.279 1_554 S
C1269 C1267 1.358 . S
C1269 H1311 0.930 . S
C1270 C1271 1.348 . S
C1270 C1272 1.356 . S
C1270 O1295 1.325 . S
C1271 C1270 1.348 . S
C1271 C1273 1.353 . S
C1271 H1312 0.929 . S
C1272 C1270 1.356 . S
C1272 C1274 1.358 . S
C1272 H1313 0.930 . S
C1273 C1271 1.353 . S
C1273 N1275 1.314 . S
C1273 H1314 0.930 . S
C1274 C1272 1.358 . S
C1274 N1275 1.279 . S
C1274 H1315 0.930 . S
N1275 C1273 1.314 . S
N1275 C1274 1.279 . S
C1276 C1278 1.353 . S
C1276 N1279 1.314 . S
C1276 H1282 0.930 . S
C1277 N1279 1.279 . S
C1277 C1280 1.358 . S
C1277 H1283 0.930 . S
C1278 C1276 1.353 . S
C1278 C1281 1.348 . S
C1278 H1316 0.929 . S
N1279 Li1234 1.990 . S
N1279 C1276 1.314 . S
N1279 C1277 1.279 . S
C1280 C1277 1.358 . S
C1280 C1281 1.356 . S
C1280 H1317 0.930 . S
C1281 C1278 1.348 . S
C1281 C1280 1.356 . S
H1282 C1276 0.930 . S
H1283 C1277 0.930 . S
C1284 N1285 1.314 . S
C1284 C1286 1.353 . S
C1284 H1290 0.930 . S
N1285 Li1235 1.990 . S
N1285 C1284 1.314 . S
N1285 C1288 1.279 . S
C1286 C1284 1.353 . S
C1286 C1289 1.348 . S
C1286 H1318 0.929 . S
C1287 C1288 1.358 . S
C1287 C1289 1.356 . S
C1287 H1319 0.930 . S
C1288 N1285 1.279 . S
C1288 C1287 1.358 . S
C1288 H1291 0.930 . S
C1289 C1286 1.348 . S
C1289 C1287 1.356 . S
H1290 C1284 0.930 . S
H1291 C1288 0.930 . S
O1292 Li1232 1.956 . S
O1292 Li1233 1.970 . S
O1292 Li1234 1.961 . S
O1292 C1236 1.325 . S
O1293 Li1232 1.970 . S
O1293 Li1233 1.956 . S
O1293 Li1235 1.961 . S
O1293 C1242 1.325 . S
O1294 Li1232 1.961 . S
O1294 Li1234 1.956 . S
O1294 Li1235 1.970 . S
O1294 C1264 1.325 . S
O1295 Li1233 1.961 . S
O1295 Li1234 1.970 . S
O1295 Li1235 1.956 . S
O1295 C1270 1.325 . S
H1296 C1238 0.929 . S
H1297 C1239 0.930 . S
H1298 C1240 0.930 . S
H1299 C1241 0.930 . S
H1300 C1243 0.930 . S
H1301 C1245 0.929 . S
H1302 C1246 0.930 . S
H1303 C1247 0.930 . S
H1304 C1250 0.930 . S
H1305 C1253 0.929 . S
H1306 C1258 0.929 . S
H1307 C1259 0.930 . S
H1308 C1266 0.929 . S
H1309 C1267 0.930 . S
H1310 C1268 0.930 1_556 S
H1311 C1269 0.930 . S
H1312 C1271 0.929 . S
H1313 C1272 0.930 . S
H1314 C1273 0.930 . S
H1315 C1274 0.930 . S
H1316 C1278 0.929 . S
H1317 C1280 0.930 . S
H1318 C1286 0.929 . S
H1319 C1287 0.930 . S
Li1320 N1337 1.990 . S
Li1320 O1380 1.956 . S
Li1320 O1381 1.970 . S
Li1320 O1382 1.961 . S
Li1321 N1345 1.990 . S
Li1321 O1380 1.970 . S
Li1321 O1381 1.956 . S
Li1321 O1383 1.961 . S
Li1322 N1367 1.990 . S
Li1322 O1380 1.961 . S
Li1322 O1382 1.956 . S
Li1322 O1383 1.970 . S
Li1323 N1373 1.990 . S
Li1323 O1381 1.961 . S
Li1323 O1382 1.970 . S
Li1323 O1383 1.956 . S
C1324 C1326 1.348 . S
C1324 C1327 1.356 . S
C1324 O1380 1.325 . S
N1325 C1328 1.314 . S
N1325 C1329 1.279 . S
C1326 C1324 1.348 . S
C1326 C1328 1.353 . S
C1326 H1384 0.929 . S
C1327 C1324 1.356 . S
C1327 C1329 1.358 . S
C1327 H1385 0.930 . S
C1328 N1325 1.314 . S
C1328 C1326 1.353 . S
C1328 H1386 0.930 . S
C1329 N1325 1.279 . S
C1329 C1327 1.358 . S
C1329 H1387 0.930 . S
C1330 C1333 1.348 . S
C1330 C1334 1.356 . S
C1330 O1381 1.325 . S
C1331 N1332 1.279 . S
C1331 C1334 1.358 . S
C1331 H1388 0.930 . S
N1332 C1331 1.279 . S
N1332 C1335 1.314 . S
C1333 C1330 1.348 . S
C1333 C1335 1.353 . S
C1333 H1389 0.929 . S
C1334 C1330 1.356 . S
C1334 C1331 1.358 . S
C1334 H1390 0.930 . S
C1335 N1332 1.314 . S
C1335 C1333 1.353 . S
C1335 H1391 0.930 . S
C1336 N1337 1.314 . S
C1336 C1341 1.353 . S
C1336 H1342 0.930 . S
N1337 Li1320 1.990 . S
N1337 C1336 1.314 . S
N1337 C1339 1.279 . S
C1338 C1339 1.358 . S
C1338 C1340 1.356 . S
C1338 H1392 0.930 . S
C1339 N1337 1.279 . S
C1339 C1338 1.358 . S
C1339 H1343 0.930 . S
C1340 C1338 1.356 . S
C1340 C1341 1.348 . S
C1341 C1336 1.353 . S
C1341 C1340 1.348 . S
C1341 H1393 0.929 . S
H1342 C1336 0.930 . S
H1343 C1339 0.930 . S
C1344 N1345 1.314 . S
C1344 C1346 1.353 . S
C1344 H1350 0.930 . S
N1345 Li1321 1.990 . S
N1345 C1344 1.314 . S
N1345 C1348 1.279 . S
C1346 C1344 1.353 . S
C1346 C1349 1.348 . S
C1346 H1394 0.929 . S
C1347 C1348 1.358 . S
C1347 C1349 1.356 . S
C1347 H1395 0.930 . S
C1348 N1345 1.279 . S
C1348 C1347 1.358 . S
C1348 H1351 0.930 . S
C1349 C1346 1.348 . S
C1349 C1347 1.356 . S
H1350 C1344 0.930 . S
H1351 C1348 0.930 . S
C1352 C1354 1.348 . S
C1352 C1355 1.356 . S
C1352 O1382 1.325 . S
N1353 C1356 1.314 . S
N1353 C1357 1.279 . S
C1354 C1352 1.348 . S
C1354 C1356 1.353 . S
C1354 H1396 0.929 . S
C1355 C1352 1.356 . S
C1355 C1357 1.358 . S
C1355 H1397 0.930 . S
C1356 N1353 1.314 . S
C1356 C1354 1.353 . S
C1356 H1398 0.930 . S
C1357 N1353 1.279 . S
C1357 C1355 1.358 . S
C1357 H1399 0.930 . S
C1358 C1359 1.348 . S
C1358 C1360 1.356 . S
C1358 O1383 1.325 . S
C1359 C1358 1.348 . S
C1359 C1361 1.353 . S
C1359 H1400 0.929 . S
C1360 C1358 1.356 . S
C1360 C1362 1.358 . S
C1360 H1401 0.930 . S
C1361 C1359 1.353 . S
C1361 N1363 1.314 . S
C1361 H1402 0.930 . S
C1362 C1360 1.358 . S
C1362 N1363 1.279 . S
C1362 H1403 0.930 . S
N1363 C1361 1.314 . S
N1363 C1362 1.279 . S
C1364 C1366 1.353 . S
C1364 N1367 1.314 . S
C1364 H1370 0.930 . S
C1365 N1367 1.279 . S
C1365 C1368 1.358 . S
C1365 H1371 0.930 . S
C1366 C1364 1.353 . S
C1366 C1369 1.348 . S
C1366 H1404 0.929 . S
N1367 Li1322 1.990 . S
N1367 C1364 1.314 . S
N1367 C1365 1.279 . S
C1368 C1365 1.358 . S
C1368 C1369 1.356 . S
C1368 H1405 0.930 . S
C1369 C1366 1.348 . S
C1369 C1368 1.356 . S
H1370 C1364 0.930 . S
H1371 C1365 0.930 . S
C1372 N1373 1.314 . S
C1372 C1374 1.353 . S
C1372 H1378 0.930 . S
N1373 Li1323 1.990 . S
N1373 C1372 1.314 . S
N1373 C1376 1.279 . S
C1374 C1372 1.353 . S
C1374 C1377 1.348 . S
C1374 H1406 0.929 . S
C1375 C1376 1.358 . S
C1375 C1377 1.356 . S
C1375 H1407 0.930 . S
C1376 N1373 1.279 . S
C1376 C1375 1.358 . S
C1376 H1379 0.930 . S
C1377 C1374 1.348 . S
C1377 C1375 1.356 . S
H1378 C1372 0.930 . S
H1379 C1376 0.930 . S
O1380 Li1320 1.956 . S
O1380 Li1321 1.970 . S
O1380 Li1322 1.961 . S
O1380 C1324 1.325 . S
O1381 Li1320 1.970 . S
O1381 Li1321 1.956 . S
O1381 Li1323 1.961 . S
O1381 C1330 1.325 . S
O1382 Li1320 1.961 . S
O1382 Li1322 1.956 . S
O1382 Li1323 1.970 . S
O1382 C1352 1.325 . S
O1383 Li1321 1.961 . S
O1383 Li1322 1.970 . S
O1383 Li1323 1.956 . S
O1383 C1358 1.325 . S
H1384 C1326 0.929 . S
H1385 C1327 0.930 . S
H1386 C1328 0.930 . S
H1387 C1329 0.930 . S
H1388 C1331 0.930 . S
H1389 C1333 0.929 . S
H1390 C1334 0.930 . S
H1391 C1335 0.930 . S
H1392 C1338 0.930 . S
H1393 C1341 0.929 . S
H1394 C1346 0.929 . S
H1395 C1347 0.930 . S
H1396 C1354 0.929 . S
H1397 C1355 0.930 . S
H1398 C1356 0.930 . S
H1399 C1357 0.930 . S
H1400 C1359 0.929 . S
H1401 C1360 0.930 . S
H1402 C1361 0.930 . S
H1403 C1362 0.930 . S
H1404 C1366 0.929 . S
H1405 C1368 0.930 . S
H1406 C1374 0.929 . S
H1407 C1375 0.930 . S
H1408 C1414 0.930 1_556 S
H1409 C1417 0.930 . S
H1410 C1418 0.930 . S
H1411 C1419 0.930 1_554 S
H1412 C1422 0.930 . S
H1413 C1423 0.930 . S
C1414 H1408 0.930 1_554 S
C1414 C1415 1.355 . S
C1414 C1416 1.415 1_554 S
C1415 C1414 1.355 . S
C1415 C1417 1.419 . S
C1416 C1414 1.415 1_556 S
C1416 C1421 1.425 1_556 S
C1416 C1423 1.409 . S
C1417 H1409 0.930 . S
C1417 C1415 1.419 . S
C1417 C1418 1.362 . S
C1418 H1410 0.930 . S
C1418 C1417 1.362 . S
C1418 C1421 1.409 . S
C1419 H1411 0.930 1_556 S
C1419 C1420 1.355 . S
C1419 C1421 1.415 1_556 S
C1420 C1419 1.355 . S
C1420 C1422 1.419 . S
C1421 C1416 1.425 1_554 S
C1421 C1418 1.409 . S
C1421 C1419 1.415 1_554 S
C1422 H1412 0.930 . S
C1422 C1420 1.419 . S
C1422 C1423 1.362 . S
C1423 H1413 0.930 . S
C1423 C1416 1.409 . S
C1423 C1422 1.362 . S
H1424 C1430 0.930 . S
H1425 C1433 0.930 . S
H1426 C1434 0.930 . S
H1427 C1435 0.930 . S
H1428 C1438 0.930 . S
H1429 C1439 0.930 . S
C1430 H1424 0.930 . S
C1430 C1431 1.355 . S
C1430 C1432 1.415 . S
C1431 C1430 1.355 . S
C1431 C1433 1.419 . S
C1432 C1430 1.415 . S
C1432 C1437 1.425 . S
C1432 C1439 1.409 . S
C1433 H1425 0.930 . S
C1433 C1431 1.419 . S
C1433 C1434 1.362 . S
C1434 H1426 0.930 . S
C1434 C1433 1.362 . S
C1434 C1437 1.409 . S
C1435 H1427 0.930 . S
C1435 C1436 1.355 . S
C1435 C1437 1.415 . S
C1436 C1435 1.355 . S
C1436 C1438 1.419 . S
C1437 C1432 1.425 . S
C1437 C1434 1.409 . S
C1437 C1435 1.415 . S
C1438 H1428 0.930 . S
C1438 C1436 1.419 . S
C1438 C1439 1.362 . S
C1439 H1429 0.930 . S
C1439 C1432 1.409 . S
C1439 C1438 1.362 . S
H1440 C1446 0.930 . S
H1441 C1449 0.930 . S
H1442 C1450 0.930 . S
H1443 C1451 0.930 . S
H1444 C1454 0.930 . S
H1445 C1455 0.930 . S
C1446 H1440 0.930 . S
C1446 C1447 1.355 . S
C1446 C1448 1.415 1_556 S
C1447 C1446 1.355 . S
C1447 C1449 1.419 . S
C1448 C1446 1.415 1_554 S
C1448 C1453 1.425 1_554 S
C1448 C1455 1.409 . S
C1449 H1441 0.930 . S
C1449 C1447 1.419 . S
C1449 C1450 1.362 . S
C1450 H1442 0.930 . S
C1450 C1449 1.362 . S
C1450 C1453 1.409 . S
C1451 H1443 0.930 . S
C1451 C1452 1.355 . S
C1451 C1453 1.415 1_554 S
C1452 C1451 1.355 . S
C1452 C1454 1.419 . S
C1453 C1448 1.425 1_556 S
C1453 C1450 1.409 . S
C1453 C1451 1.415 1_556 S
C1454 H1444 0.930 . S
C1454 C1452 1.419 . S
C1454 C1455 1.362 . S
C1455 H1445 0.930 . S
C1455 C1448 1.409 . S
C1455 C1454 1.362 . S
H1456 C1462 0.930 . S
H1457 C1465 0.930 . S
H1458 C1466 0.930 . S
H1459 C1467 0.930 . S
H1460 C1470 0.930 . S
H1461 C1471 0.930 . S
C1462 H1456 0.930 . S
C1462 C1463 1.355 . S
C1462 C1464 1.415 . S
C1463 C1462 1.355 . S
C1463 C1465 1.419 . S
C1464 C1462 1.415 . S
C1464 C1469 1.425 . S
C1464 C1471 1.409 . S
C1465 H1457 0.930 . S
C1465 C1463 1.419 . S
C1465 C1466 1.362 . S
C1466 H1458 0.930 . S
C1466 C1465 1.362 . S
C1466 C1469 1.409 . S
C1467 H1459 0.930 . S
C1467 C1468 1.355 . S
C1467 C1469 1.415 . S
C1468 C1467 1.355 . S
C1468 C1470 1.419 . S
C1469 C1464 1.425 . S
C1469 C1466 1.409 . S
C1469 C1467 1.415 . S
C1470 H1460 0.930 . S
C1470 C1468 1.419 . S
C1470 C1471 1.362 . S
C1471 H1461 0.930 . S
C1471 C1464 1.409 . S
C1471 C1470 1.362 . S
H1472 C1478 0.930 . S
H1473 C1481 0.930 . S
H1474 C1482 0.930 . S
H1475 C1483 0.930 . S
H1476 C1486 0.930 . S
H1477 C1487 0.930 . S
C1478 H1472 0.930 . S
C1478 C1479 1.355 . S
C1478 C1480 1.415 . S
C1479 C1478 1.355 . S
C1479 C1481 1.419 . S
C1480 C1478 1.415 . S
C1480 C1485 1.425 1_554 S
C1480 C1487 1.409 1_554 S
C1481 H1473 0.930 . S
C1481 C1479 1.419 . S
C1481 C1482 1.362 . S
C1482 H1474 0.930 . S
C1482 C1481 1.362 . S
C1482 C1485 1.409 1_554 S
C1483 H1475 0.930 . S
C1483 C1484 1.355 . S
C1483 C1485 1.415 . S
C1484 C1483 1.355 . S
C1484 C1486 1.419 . S
C1485 C1480 1.425 1_556 S
C1485 C1482 1.409 1_556 S
C1485 C1483 1.415 . S
C1486 H1476 0.930 . S
C1486 C1484 1.419 . S
C1486 C1487 1.362 . S
C1487 H1477 0.930 . S
C1487 C1480 1.409 1_556 S
C1487 C1486 1.362 . S
H1488 C1494 0.930 . S
H1489 C1497 0.930 . S
H1490 C1498 0.930 . S
H1491 C1499 0.930 . S
H1492 C1502 0.930 . S
H1493 C1503 0.930 . S
C1494 H1488 0.930 . S
C1494 C1495 1.355 . S
C1494 C1496 1.415 . S
C1495 C1494 1.355 . S
C1495 C1497 1.419 . S
C1496 C1494 1.415 . S
C1496 C1501 1.425 . S
C1496 C1503 1.409 . S
C1497 H1489 0.930 . S
C1497 C1495 1.419 . S
C1497 C1498 1.362 . S
C1498 H1490 0.930 . S
C1498 C1497 1.362 . S
C1498 C1501 1.409 . S
C1499 H1491 0.930 . S
C1499 C1500 1.355 . S
C1499 C1501 1.415 . S
C1500 C1499 1.355 . S
C1500 C1502 1.419 . S
C1501 C1496 1.425 . S
C1501 C1498 1.409 . S
C1501 C1499 1.415 . S
C1502 H1492 0.930 . S
C1502 C1500 1.419 . S
C1502 C1503 1.362 . S
C1503 H1493 0.930 . S
C1503 C1496 1.409 . S
C1503 C1502 1.362 . S
H1504 C1510 0.930 . S
H1505 C1513 0.930 . S
H1506 C1514 0.930 . S
H1507 C1515 0.930 . S
H1508 C1518 0.930 . S
H1509 C1519 0.930 . S
C1510 H1504 0.930 . S
C1510 C1511 1.355 . S
C1510 C1512 1.401 1_556 S
C1511 C1510 1.355 . S
C1511 C1513 1.419 . S
C1512 C1510 1.401 1_554 S
C1512 C1517 1.422 1_554 S
C1512 C1519 1.425 . S
C1513 H1505 0.930 . S
C1513 C1511 1.419 . S
C1513 C1514 1.362 . S
C1514 H1506 0.930 . S
C1514 C1513 1.362 . S
C1514 C1517 1.438 . S
C1515 H1507 0.930 . S
C1515 C1516 1.355 . S
C1515 C1517 1.390 1_554 S
C1516 C1515 1.355 . S
C1516 C1518 1.419 . S
C1517 C1512 1.422 1_556 S
C1517 C1514 1.438 . S
C1517 C1515 1.390 1_556 S
C1518 H1508 0.930 . S
C1518 C1516 1.419 . S
C1518 C1519 1.362 . S
C1519 H1509 0.930 . S
C1519 C1512 1.425 . S
C1519 C1518 1.362 . S
H1520 C1526 0.930 . S
H1521 C1529 0.930 . S
H1522 C1530 0.930 . S
H1523 C1531 0.930 . S
H1524 C1534 0.930 . S
H1525 C1535 0.930 . S
C1526 H1520 0.930 . S
C1526 C1527 1.355 . S
C1526 C1528 1.415 . S
C1527 C1526 1.355 . S
C1527 C1529 1.419 . S
C1528 C1526 1.415 . S
C1528 C1533 1.425 . S
C1528 C1535 1.409 . S
C1529 H1521 0.930 . S
C1529 C1527 1.419 . S
C1529 C1530 1.362 . S
C1530 H1522 0.930 . S
C1530 C1529 1.362 . S
C1530 C1533 1.409 . S
C1531 H1523 0.930 . S
C1531 C1532 1.355 . S
C1531 C1533 1.415 . S
C1532 C1531 1.355 . S
C1532 C1534 1.419 . S
C1533 C1528 1.425 . S
C1533 C1530 1.409 . S
C1533 C1531 1.415 . S
C1534 H1524 0.930 . S
C1534 C1532 1.419 . S
C1534 C1535 1.362 . S
C1535 H1525 0.930 . S
C1535 C1528 1.409 . S
C1535 C1534 1.362 . S
H1536 C1542 0.930 1_556 S
H1537 C1545 0.930 . S
H1538 C1546 0.930 . S
H1539 C1547 0.930 1_554 S
H1540 C1550 0.930 . S
H1541 C1551 0.930 . S
C1542 H1536 0.930 1_554 S
C1542 C1543 1.355 . S
C1542 C1544 1.415 1_554 S
C1543 C1542 1.355 . S
C1543 C1545 1.419 . S
C1544 C1542 1.415 1_556 S
C1544 C1549 1.425 1_546 S
C1544 C1551 1.409 . S
C1545 H1537 0.930 . S
C1545 C1543 1.419 . S
C1545 C1546 1.362 1_545 S
C1546 H1538 0.930 . S
C1546 C1545 1.362 1_565 S
C1546 C1549 1.409 . S
C1547 H1539 0.930 1_556 S
C1547 C1548 1.355 . S
C1547 C1549 1.415 1_556 S
C1548 C1547 1.355 . S
C1548 C1550 1.419 . S
C1549 C1544 1.425 1_564 S
C1549 C1546 1.409 . S
C1549 C1547 1.415 1_554 S
C1550 H1540 0.930 . S
C1550 C1548 1.419 . S
C1550 C1551 1.362 1_565 S
C1551 H1541 0.930 . S
C1551 C1544 1.409 . S
C1551 C1550 1.362 1_545 S
H1552 C1558 0.930 . S
H1553 C1561 0.930 . S
H1554 C1562 0.930 . S
H1555 C1563 0.930 . S
H1556 C1566 0.930 . S
H1557 C1567 0.930 . S
C1558 H1552 0.930 . S
C1558 C1559 1.355 . S
C1558 C1560 1.415 1_565 S
C1559 C1558 1.355 . S
C1559 C1561 1.419 . S
C1560 C1558 1.415 1_545 S
C1560 C1565 1.425 1_545 S
C1560 C1567 1.409 . S
C1561 H1553 0.930 . S
C1561 C1559 1.419 . S
C1561 C1562 1.362 . S
C1562 H1554 0.930 . S
C1562 C1561 1.362 . S
C1562 C1565 1.409 . S
C1563 H1555 0.930 . S
C1563 C1564 1.355 . S
C1563 C1565 1.415 1_545 S
C1564 C1563 1.355 . S
C1564 C1566 1.419 . S
C1565 C1560 1.425 1_565 S
C1565 C1562 1.409 . S
C1565 C1563 1.415 1_565 S
C1566 H1556 0.930 . S
C1566 C1564 1.419 . S
C1566 C1567 1.362 . S
C1567 H1557 0.930 . S
C1567 C1560 1.409 . S
C1567 C1566 1.362 . S
H1568 C1574 0.930 . S
H1569 C1577 0.930 . S
H1570 C1578 0.930 . S
H1571 C1579 0.930 . S
H1572 C1582 0.930 . S
H1573 C1583 0.930 . S
C1574 H1568 0.930 . S
C1574 C1575 1.355 . S
C1574 C1576 1.415 1_565 S
C1575 C1574 1.355 . S
C1575 C1577 1.419 . S
C1576 C1574 1.415 1_545 S
C1576 C1581 1.425 1_546 S
C1576 C1583 1.409 . S
C1577 H1569 0.930 . S
C1577 C1575 1.419 . S
C1577 C1578 1.362 1_556 S
C1578 H1570 0.930 . S
C1578 C1577 1.362 1_554 S
C1578 C1581 1.409 . S
C1579 H1571 0.930 . S
C1579 C1580 1.355 . S
C1579 C1581 1.415 1_545 S
C1580 C1579 1.355 . S
C1580 C1582 1.419 . S
C1581 C1576 1.425 1_564 S
C1581 C1578 1.409 . S
C1581 C1579 1.415 1_565 S
C1582 H1572 0.930 . S
C1582 C1580 1.419 . S
C1582 C1583 1.362 1_554 S
C1583 H1573 0.930 . S
C1583 C1576 1.409 . S
C1583 C1582 1.362 1_556 S
H1584 C1590 0.930 . S
H1585 C1593 0.930 . S
H1586 C1594 0.930 . S
H1587 C1595 0.930 . S
H1588 C1598 0.930 . S
H1589 C1599 0.930 . S
C1590 H1584 0.930 . S
C1590 C1591 1.355 . S
C1590 C1592 1.415 . S
C1591 C1590 1.355 . S
C1591 C1593 1.419 . S
C1592 C1590 1.415 . S
C1592 C1597 1.425 1_545 S
C1592 C1599 1.409 . S
C1593 H1585 0.930 . S
C1593 C1591 1.419 . S
C1593 C1594 1.362 1_545 S
C1594 H1586 0.930 . S
C1594 C1593 1.362 1_565 S
C1594 C1597 1.409 . S
C1595 H1587 0.930 . S
C1595 C1596 1.355 . S
C1595 C1597 1.415 . S
C1596 C1595 1.355 . S
C1596 C1598 1.419 . S
C1597 C1592 1.425 1_565 S
C1597 C1594 1.409 . S
C1597 C1595 1.415 . S
C1598 H1588 0.930 . S
C1598 C1596 1.419 . S
C1598 C1599 1.362 1_565 S
C1599 H1589 0.930 . S
C1599 C1592 1.409 . S
C1599 C1598 1.362 1_545 S
H1600 C1606 0.930 . S
H1601 C1609 0.930 . S
H1602 C1610 0.930 . S
H1603 C1611 0.930 . S
H1604 C1614 0.930 . S
H1605 C1615 0.930 . S
C1606 H1600 0.930 . S
C1606 C1607 1.355 . S
C1606 C1608 1.415 . S
C1607 C1606 1.355 . S
C1607 C1609 1.419 . S
C1608 C1606 1.415 . S
C1608 C1613 1.425 1_556 S
C1608 C1615 1.409 1_556 S
C1609 H1601 0.930 . S
C1609 C1607 1.419 . S
C1609 C1610 1.362 . S
C1610 H1602 0.930 . S
C1610 C1609 1.362 . S
C1610 C1613 1.409 1_556 S
C1611 H1603 0.930 . S
C1611 C1612 1.355 . S
C1611 C1613 1.415 . S
C1612 C1611 1.355 . S
C1612 C1614 1.419 . S
C1613 C1608 1.425 1_554 S
C1613 C1610 1.409 1_554 S
C1613 C1611 1.415 . S
C1614 H1604 0.930 . S
C1614 C1612 1.419 . S
C1614 C1615 1.362 . S
C1615 H1605 0.930 . S
C1615 C1608 1.409 1_554 S
C1615 C1614 1.362 . S
H1616 C1622 0.930 . S
H1617 C1625 0.930 . S
H1618 C1626 0.930 . S
H1619 C1627 0.930 . S
H1620 C1630 0.930 . S
H1621 C1631 0.930 . S
C1622 H1616 0.930 . S
C1622 C1623 1.355 . S
C1622 C1624 1.415 . S
C1623 C1622 1.355 . S
C1623 C1625 1.419 . S
C1624 C1622 1.415 . S
C1624 C1629 1.425 . S
C1624 C1631 1.409 . S
C1625 H1617 0.930 . S
C1625 C1623 1.419 . S
C1625 C1626 1.362 . S
C1626 H1618 0.930 . S
C1626 C1625 1.362 . S
C1626 C1629 1.409 . S
C1627 H1619 0.930 . S
C1627 C1628 1.355 . S
C1627 C1629 1.415 . S
C1628 C1627 1.355 . S
C1628 C1630 1.419 . S
C1629 C1624 1.425 . S
C1629 C1626 1.409 . S
C1629 C1627 1.415 . S
C1630 H1620 0.930 . S
C1630 C1628 1.419 . S
C1630 C1631 1.362 . S
C1631 H1621 0.930 . S
C1631 C1624 1.409 . S
C1631 C1630 1.362 . S
H1632 C1638 0.930 1_556 S
H1633 C1641 0.930 . S
H1634 C1642 0.930 . S
H1635 C1643 0.930 1_554 S
H1636 C1646 0.930 . S
H1637 C1647 0.930 . S
C1638 H1632 0.930 1_554 S
C1638 C1639 1.355 . S
C1638 C1640 1.415 1_554 S
C1639 C1638 1.355 . S
C1639 C1641 1.419 . S
C1640 C1638 1.415 1_556 S
C1640 C1645 1.425 1_556 S
C1640 C1647 1.409 . S
C1641 H1633 0.930 . S
C1641 C1639 1.419 . S
C1641 C1642 1.362 . S
C1642 H1634 0.930 . S
C1642 C1641 1.362 . S
C1642 C1645 1.409 . S
C1643 H1635 0.930 1_556 S
C1643 C1644 1.355 . S
C1643 C1645 1.415 1_556 S
C1644 C1643 1.355 . S
C1644 C1646 1.419 . S
C1645 C1640 1.425 1_554 S
C1645 C1642 1.409 . S
C1645 C1643 1.415 1_554 S
C1646 H1636 0.930 . S
C1646 C1644 1.419 . S
C1646 C1647 1.362 . S
C1647 H1637 0.930 . S
C1647 C1640 1.409 . S
C1647 C1646 1.362 . S
H1648 C1654 0.930 . S
H1649 C1657 0.930 . S
H1650 C1658 0.930 . S
H1651 C1659 0.930 . S
H1652 C1662 0.930 . S
H1653 C1663 0.930 . S
C1654 H1648 0.930 . S
C1654 C1655 1.355 . S
C1654 C1656 1.415 . S
C1655 C1654 1.355 . S
C1655 C1657 1.419 . S
C1656 C1654 1.415 . S
C1656 C1661 1.425 . S
C1656 C1663 1.409 . S
C1657 H1649 0.930 . S
C1657 C1655 1.419 . S
C1657 C1658 1.362 . S
C1658 H1650 0.930 . S
C1658 C1657 1.362 . S
C1658 C1661 1.409 . S
C1659 H1651 0.930 . S
C1659 C1660 1.355 . S
C1659 C1661 1.415 . S
C1660 C1659 1.355 . S
C1660 C1662 1.419 . S
C1661 C1656 1.425 . S
C1661 C1658 1.409 . S
C1661 C1659 1.415 . S
C1662 H1652 0.930 . S
C1662 C1660 1.419 . S
C1662 C1663 1.362 . S
C1663 H1653 0.930 . S
C1663 C1656 1.409 . S
C1663 C1662 1.362 . S
H1664 C1670 0.930 . S
H1665 C1673 0.930 . S
H1666 C1674 0.930 . S
H1667 C1675 0.930 . S
H1668 C1678 0.930 . S
H1669 C1679 0.930 . S
C1670 H1664 0.930 . S
C1670 C1671 1.355 . S
C1670 C1672 1.415 . S
C1671 C1670 1.355 . S
C1671 C1673 1.419 . S
C1672 C1670 1.415 . S
C1672 C1677 1.425 . S
C1672 C1679 1.409 . S
C1673 H1665 0.930 . S
C1673 C1671 1.419 . S
C1673 C1674 1.362 . S
C1674 H1666 0.930 . S
C1674 C1673 1.362 . S
C1674 C1677 1.409 . S
C1675 H1667 0.930 . S
C1675 C1676 1.355 . S
C1675 C1677 1.415 . S
C1676 C1675 1.355 . S
C1676 C1678 1.419 . S
C1677 C1672 1.425 . S
C1677 C1674 1.409 . S
C1677 C1675 1.415 . S
C1678 H1668 0.930 . S
C1678 C1676 1.419 . S
C1678 C1679 1.362 . S
C1679 H1669 0.930 . S
C1679 C1672 1.409 . S
C1679 C1678 1.362 . S
H1680 C1686 0.930 . S
H1681 C1689 0.930 . S
H1682 C1690 0.930 . S
H1683 C1691 0.930 . S
H1684 C1694 0.930 . S
H1685 C1695 0.930 . S
C1686 H1680 0.930 . S
C1686 C1687 1.355 . S
C1686 C1688 1.415 . S
C1687 C1686 1.355 . S
C1687 C1689 1.419 . S
C1688 C1686 1.415 . S
C1688 C1693 1.425 1_655 S
C1688 C1695 1.409 1_655 S
C1689 H1681 0.930 . S
C1689 C1687 1.419 . S
C1689 C1690 1.362 . S
C1690 H1682 0.930 . S
C1690 C1689 1.362 . S
C1690 C1693 1.409 1_655 S
C1691 H1683 0.930 . S
C1691 C1692 1.355 . S
C1691 C1693 1.415 . S
C1692 C1691 1.355 . S
C1692 C1694 1.419 . S
C1693 C1688 1.425 1_455 S
C1693 C1690 1.409 1_455 S
C1693 C1691 1.415 . S
C1694 H1684 0.930 . S
C1694 C1692 1.419 . S
C1694 C1695 1.362 . S
C1695 H1685 0.930 . S
C1695 C1688 1.409 1_455 S
C1695 C1694 1.362 . S
H1696 C1702 0.930 . S
H1697 C1705 0.930 . S
H1698 C1706 0.930 . S
H1699 C1707 0.930 . S
H1700 C1710 0.930 . S
H1701 C1711 0.930 . S
C1702 H1696 0.930 . S
C1702 C1703 1.355 . S
C1702 C1704 1.415 . S
C1703 C1702 1.355 . S
C1703 C1705 1.419 . S
C1704 C1702 1.415 . S
C1704 C1709 1.425 . S
C1704 C1711 1.409 . S
C1705 H1697 0.930 . S
C1705 C1703 1.419 . S
C1705 C1706 1.362 . S
C1706 H1698 0.930 . S
C1706 C1705 1.362 . S
C1706 C1709 1.409 . S
C1707 H1699 0.930 . S
C1707 C1708 1.355 . S
C1707 C1709 1.415 . S
C1708 C1707 1.355 . S
C1708 C1710 1.419 . S
C1709 C1704 1.425 . S
C1709 C1706 1.409 . S
C1709 C1707 1.415 . S
C1710 H1700 0.930 . S
C1710 C1708 1.419 . S
C1710 C1711 1.362 . S
C1711 H1701 0.930 . S
C1711 C1704 1.409 . S
C1711 C1710 1.362 . S
H1712 C1718 0.930 . S
H1713 C1721 0.930 . S
H1714 C1722 0.930 . S
H1715 C1723 0.930 . S
H1716 C1726 0.930 . S
H1717 C1727 0.930 . S
C1718 H1712 0.930 . S
C1718 C1719 1.355 . S
C1718 C1720 1.415 . S
C1719 C1718 1.355 . S
C1719 C1721 1.419 . S
C1720 C1718 1.415 . S
C1720 C1725 1.425 1_455 S
C1720 C1727 1.409 1_455 S
C1721 H1713 0.930 . S
C1721 C1719 1.419 . S
C1721 C1722 1.362 . S
C1722 H1714 0.930 . S
C1722 C1721 1.362 . S
C1722 C1725 1.409 1_455 S
C1723 H1715 0.930 . S
C1723 C1724 1.355 . S
C1723 C1725 1.415 . S
C1724 C1723 1.355 . S
C1724 C1726 1.419 . S
C1725 C1720 1.425 1_655 S
C1725 C1722 1.409 1_655 S
C1725 C1723 1.415 . S
C1726 H1716 0.930 . S
C1726 C1724 1.419 . S
C1726 C1727 1.362 . S
C1727 H1717 0.930 . S
C1727 C1720 1.409 1_655 S
C1727 C1726 1.362 . S
H1728 C1734 0.930 . S
H1729 C1737 0.930 . S
H1730 C1738 0.930 . S
H1731 C1739 0.930 . S
H1732 C1742 0.930 . S
H1733 C1743 0.930 . S
C1734 H1728 0.930 . S
C1734 C1735 1.355 . S
C1734 C1736 1.415 . S
C1735 C1734 1.355 . S
C1735 C1737 1.419 . S
C1736 C1734 1.415 . S
C1736 C1741 1.425 1_455 S
C1736 C1743 1.409 1_455 S
C1737 H1729 0.930 . S
C1737 C1735 1.419 . S
C1737 C1738 1.362 . S
C1738 H1730 0.930 . S
C1738 C1737 1.362 . S
C1738 C1741 1.409 1_455 S
C1739 H1731 0.930 . S
C1739 C1740 1.355 . S
C1739 C1741 1.415 . S
C1740 C1739 1.355 . S
C1740 C1742 1.419 . S
C1741 C1736 1.425 1_655 S
C1741 C1738 1.409 1_655 S
C1741 C1739 1.415 . S
C1742 H1732 0.930 . S
C1742 C1740 1.419 . S
C1742 C1743 1.362 . S
C1743 H1733 0.930 . S
C1743 C1736 1.409 1_655 S
C1743 C1742 1.362 . S
H1744 C1750 0.930 . S
H1745 C1753 0.930 . S
H1746 C1754 0.930 . S
H1747 C1755 0.930 . S
H1748 C1758 0.930 . S
H1749 C1759 0.930 . S
C1750 H1744 0.930 . S
C1750 C1751 1.355 . S
C1750 C1752 1.415 . S
C1751 C1750 1.355 . S
C1751 C1753 1.419 . S
C1752 C1750 1.415 . S
C1752 C1757 1.425 . S
C1752 C1759 1.409 . S
C1753 H1745 0.930 . S
C1753 C1751 1.419 . S
C1753 C1754 1.362 . S
C1754 H1746 0.930 . S
C1754 C1753 1.362 . S
C1754 C1757 1.409 . S
C1755 H1747 0.930 . S
C1755 C1756 1.355 . S
C1755 C1757 1.415 . S
C1756 C1755 1.355 . S
C1756 C1758 1.419 . S
C1757 C1752 1.425 . S
C1757 C1754 1.409 . S
C1757 C1755 1.415 . S
C1758 H1748 0.930 . S
C1758 C1756 1.419 . S
C1758 C1759 1.362 . S
C1759 H1749 0.930 . S
C1759 C1752 1.409 . S
C1759 C1758 1.362 . S
H1760 C1766 0.930 . S
H1761 C1769 0.930 . S
H1762 C1770 0.930 . S
H1763 C1771 0.930 . S
H1764 C1774 0.930 . S
H1765 C1775 0.930 . S
C1766 H1760 0.930 . S
C1766 C1767 1.355 . S
C1766 C1768 1.415 . S
C1767 C1766 1.355 . S
C1767 C1769 1.419 . S
C1768 C1766 1.415 . S
C1768 C1773 1.425 1_455 S
C1768 C1775 1.409 1_455 S
C1769 H1761 0.930 . S
C1769 C1767 1.419 . S
C1769 C1770 1.362 . S
C1770 H1762 0.930 . S
C1770 C1769 1.362 . S
C1770 C1773 1.409 1_455 S
C1771 H1763 0.930 . S
C1771 C1772 1.355 . S
C1771 C1773 1.415 . S
C1772 C1771 1.355 . S
C1772 C1774 1.419 . S
C1773 C1768 1.425 1_655 S
C1773 C1770 1.409 1_655 S
C1773 C1771 1.415 . S
C1774 H1764 0.930 . S
C1774 C1772 1.419 . S
C1774 C1775 1.362 . S
C1775 H1765 0.930 . S
C1775 C1768 1.409 1_655 S
C1775 C1774 1.362 . S
H1776 C1782 0.930 . S
H1777 C1785 0.930 . S
H1778 C1786 0.930 . S
H1779 C1787 0.930 . S
H1780 C1790 0.930 . S
H1781 C1791 0.930 . S
C1782 H1776 0.930 . S
C1782 C1783 1.355 . S
C1782 C1784 1.415 . S
C1783 C1782 1.355 . S
C1783 C1785 1.419 . S
C1784 C1782 1.415 . S
C1784 C1789 1.425 . S
C1784 C1791 1.409 . S
C1785 H1777 0.930 . S
C1785 C1783 1.419 . S
C1785 C1786 1.362 . S
C1786 H1778 0.930 . S
C1786 C1785 1.362 . S
C1786 C1789 1.409 . S
C1787 H1779 0.930 . S
C1787 C1788 1.355 . S
C1787 C1789 1.415 . S
C1788 C1787 1.355 . S
C1788 C1790 1.419 . S
C1789 C1784 1.425 . S
C1789 C1786 1.409 . S
C1789 C1787 1.415 . S
C1790 H1780 0.930 . S
C1790 C1788 1.419 . S
C1790 C1791 1.362 . S
C1791 H1781 0.930 . S
C1791 C1784 1.409 . S
C1791 C1790 1.362 . S
H1792 C1798 0.930 . S
H1793 C1801 0.930 . S
H1794 C1802 0.930 . S
H1795 C1803 0.930 . S
H1796 C1806 0.930 . S
H1797 C1807 0.930 . S
C1798 H1792 0.930 . S
C1798 C1799 1.355 . S
C1798 C1800 1.415 . S
C1799 C1798 1.355 . S
C1799 C1801 1.419 . S
C1800 C1798 1.415 . S
C1800 C1805 1.425 . S
C1800 C1807 1.409 . S
C1801 H1793 0.930 . S
C1801 C1799 1.419 . S
C1801 C1802 1.362 . S
C1802 H1794 0.930 . S
C1802 C1801 1.362 . S
C1802 C1805 1.409 . S
C1803 H1795 0.930 . S
C1803 C1804 1.355 . S
C1803 C1805 1.415 . S
C1804 C1803 1.355 . S
C1804 C1806 1.419 . S
C1805 C1800 1.425 . S
C1805 C1802 1.409 . S
C1805 C1803 1.415 . S
C1806 H1796 0.930 . S
C1806 C1804 1.419 . S
C1806 C1807 1.362 . S
C1807 H1797 0.930 . S
C1807 C1800 1.409 . S
C1807 C1806 1.362 . S
H1808 C1814 0.930 . S
H1809 C1817 0.930 . S
H1810 C1818 0.930 . S
H1811 C1819 0.930 . S
H1812 C1822 0.930 . S
H1813 C1823 0.930 . S
C1814 H1808 0.930 . S
C1814 C1815 1.355 . S
C1814 C1816 1.415 . S
C1815 C1814 1.355 . S
C1815 C1817 1.419 . S
C1816 C1814 1.415 . S
C1816 C1821 1.425 . S
C1816 C1823 1.409 . S
C1817 H1809 0.930 . S
C1817 C1815 1.419 . S
C1817 C1818 1.362 . S
C1818 H1810 0.930 . S
C1818 C1817 1.362 . S
C1818 C1821 1.409 . S
C1819 H1811 0.930 . S
C1819 C1820 1.355 . S
C1819 C1821 1.415 . S
C1820 C1819 1.355 . S
C1820 C1822 1.419 . S
C1821 C1816 1.425 . S
C1821 C1818 1.409 . S
C1821 C1819 1.415 . S
C1822 H1812 0.930 . S
C1822 C1820 1.419 . S
C1822 C1823 1.362 . S
C1823 H1813 0.930 . S
C1823 C1816 1.409 . S
C1823 C1822 1.362 . S
H1824 C1830 0.930 . S
H1825 C1833 0.930 . S
H1826 C1834 0.930 . S
H1827 C1835 0.930 . S
H1828 C1838 0.930 . S
H1829 C1839 0.930 . S
C1830 H1824 0.930 . S
C1830 C1831 1.355 . S
C1830 C1832 1.415 . S
C1831 C1830 1.355 . S
C1831 C1833 1.419 . S
C1832 C1830 1.415 . S
C1832 C1837 1.425 . S
C1832 C1839 1.409 . S
C1833 H1825 0.930 . S
C1833 C1831 1.419 . S
C1833 C1834 1.362 . S
C1834 H1826 0.930 . S
C1834 C1833 1.362 . S
C1834 C1837 1.409 . S
C1835 H1827 0.930 . S
C1835 C1836 1.355 . S
C1835 C1837 1.415 . S
C1836 C1835 1.355 . S
C1836 C1838 1.419 . S
C1837 C1832 1.425 . S
C1837 C1834 1.409 . S
C1837 C1835 1.415 . S
C1838 H1828 0.930 . S
C1838 C1836 1.419 . S
C1838 C1839 1.362 . S
C1839 H1829 0.930 . S
C1839 C1832 1.409 . S
C1839 C1838 1.362 . S
H1840 C1846 0.930 . S
H1841 C1849 0.930 . S
H1842 C1850 0.930 . S
H1843 C1851 0.930 . S
H1844 C1854 0.930 . S
H1845 C1855 0.930 . S
C1846 H1840 0.930 . S
C1846 C1847 1.355 . S
C1846 C1848 1.415 . S
C1847 C1846 1.355 . S
C1847 C1849 1.419 . S
C1848 C1846 1.415 . S
C1848 C1853 1.425 . S
C1848 C1855 1.409 . S
C1849 H1841 0.930 . S
C1849 C1847 1.419 . S
C1849 C1850 1.362 . S
C1850 H1842 0.930 . S
C1850 C1849 1.362 . S
C1850 C1853 1.409 . S
C1851 H1843 0.930 . S
C1851 C1852 1.355 . S
C1851 C1853 1.415 . S
C1852 C1851 1.355 . S
C1852 C1854 1.419 . S
C1853 C1848 1.425 . S
C1853 C1850 1.409 . S
C1853 C1851 1.415 . S
C1854 H1844 0.930 . S
C1854 C1852 1.419 . S
C1854 C1855 1.362 . S
C1855 H1845 0.930 . S
C1855 C1848 1.409 . S
C1855 C1854 1.362 . S
H1856 C1862 0.930 . S
H1857 C1865 0.930 . S
H1858 C1866 0.930 . S
H1859 C1867 0.930 . S
H1860 C1870 0.930 . S
H1861 C1871 0.930 . S
C1862 H1856 0.930 . S
C1862 C1863 1.355 . S
C1862 C1864 1.415 . S
C1863 C1862 1.355 . S
C1863 C1865 1.419 . S
C1864 C1862 1.415 . S
C1864 C1869 1.425 . S
C1864 C1871 1.409 . S
C1865 H1857 0.930 . S
C1865 C1863 1.419 . S
C1865 C1866 1.362 . S
C1866 H1858 0.930 . S
C1866 C1865 1.362 . S
C1866 C1869 1.409 . S
C1867 H1859 0.930 . S
C1867 C1868 1.355 . S
C1867 C1869 1.415 . S
C1868 C1867 1.355 . S
C1868 C1870 1.419 . S
C1869 C1864 1.425 . S
C1869 C1866 1.409 . S
C1869 C1867 1.415 . S
C1870 H1860 0.930 . S
C1870 C1868 1.419 . S
C1870 C1871 1.362 . S
C1871 H1861 0.930 . S
C1871 C1864 1.409 . S
C1871 C1870 1.362 . S
H1872 C1878 0.930 . S
H1873 C1881 0.930 . S
H1874 C1882 0.930 . S
H1875 C1883 0.930 . S
H1876 C1886 0.930 . S
H1877 C1887 0.930 . S
C1878 H1872 0.930 . S
C1878 C1879 1.355 . S
C1878 C1880 1.415 . S
C1879 C1878 1.355 . S
C1879 C1881 1.419 . S
C1880 C1878 1.415 . S
C1880 C1885 1.425 . S
C1880 C1887 1.409 . S
C1881 H1873 0.930 . S
C1881 C1879 1.419 . S
C1881 C1882 1.362 . S
C1882 H1874 0.930 . S
C1882 C1881 1.362 . S
C1882 C1885 1.409 . S
C1883 H1875 0.930 . S
C1883 C1884 1.355 . S
C1883 C1885 1.415 . S
C1884 C1883 1.355 . S
C1884 C1886 1.419 . S
C1885 C1880 1.425 . S
C1885 C1882 1.409 . S
C1885 C1883 1.415 . S
C1886 H1876 0.930 . S
C1886 C1884 1.419 . S
C1886 C1887 1.362 . S
C1887 H1877 0.930 . S
C1887 C1880 1.409 . S
C1887 C1886 1.362 . S
H1888 C1894 0.930 . S
H1889 C1897 0.930 . S
H1890 C1898 0.930 . S
H1891 C1899 0.930 . S
H1892 C1902 0.930 . S
H1893 C1903 0.930 . S
C1894 H1888 0.930 . S
C1894 C1895 1.355 . S
C1894 C1896 1.415 . S
C1895 C1894 1.355 . S
C1895 C1897 1.419 . S
C1896 C1894 1.415 . S
C1896 C1901 1.425 . S
C1896 C1903 1.409 . S
C1897 H1889 0.930 . S
C1897 C1895 1.419 . S
C1897 C1898 1.362 . S
C1898 H1890 0.930 . S
C1898 C1897 1.362 . S
C1898 C1901 1.409 . S
C1899 H1891 0.930 . S
C1899 C1900 1.355 . S
C1899 C1901 1.415 . S
C1900 C1899 1.355 . S
C1900 C1902 1.419 . S
C1901 C1896 1.425 . S
C1901 C1898 1.409 . S
C1901 C1899 1.415 . S
C1902 H1892 0.930 . S
C1902 C1900 1.419 . S
C1902 C1903 1.362 . S
C1903 H1893 0.930 . S
C1903 C1896 1.409 . S
C1903 C1902 1.362 . S
H1904 C1910 0.930 . S
H1905 C1913 0.930 . S
H1906 C1914 0.930 . S
H1907 C1915 0.930 . S
H1908 C1918 0.930 . S
H1909 C1919 0.930 . S
C1910 H1904 0.930 . S
C1910 C1911 1.355 . S
C1910 C1912 1.415 . S
C1911 C1910 1.355 . S
C1911 C1913 1.419 . S
C1912 C1910 1.415 . S
C1912 C1917 1.425 . S
C1912 C1919 1.409 . S
C1913 H1905 0.930 . S
C1913 C1911 1.419 . S
C1913 C1914 1.362 . S
C1914 H1906 0.930 . S
C1914 C1913 1.362 . S
C1914 C1917 1.409 . S
C1915 H1907 0.930 . S
C1915 C1916 1.355 . S
C1915 C1917 1.415 . S
C1916 C1915 1.355 . S
C1916 C1918 1.419 . S
C1917 C1912 1.425 . S
C1917 C1914 1.409 . S
C1917 C1915 1.415 . S
C1918 H1908 0.930 . S
C1918 C1916 1.419 . S
C1918 C1919 1.362 . S
C1919 H1909 0.930 . S
C1919 C1912 1.409 . S
C1919 C1918 1.362 . S
C1415 C20 1.343 . S
C1420 C1085 1.341 . S
C1431 C1164 1.338 . S
C1436 C137 1.336 . S
C1447 C233 1.332 . S
C1452 C1281 1.327 . S
C1463 C1377 1.346 . S
C1468 C284 1.344 . S
C1479 C724 1.330 . S
C1484 C381 1.326 . S
C1495 C460 1.327 . S
C1500 C841 1.332 . S
C1511 C937 1.345 . S
C1516 C577 1.346 . S
C1527 C673 1.329 . S
C1532 C988 1.331 . S
C1543 C49 1.506 . S
C1548 C205 1.490 . S
C1559 C108 1.489 . S
C1564 C313 1.481 . S
C1575 C372 1.497 . S
C1580 C585 1.477 . S
C1591 C469 1.496 . S
C1596 C665 1.488 . S
C1607 C909 1.484 . S
C1612 C753 1.505 . S
C1623 C812 1.493 . S
C1628 C1017 1.480 . S
C1639 C1289 1.484 . S
C1644 C1076 1.498 . S
C1655 C1173 1.485 . S
C1660 C1369 1.498 . S
C1671 C548 1.512 . S
C1676 C29 1.525 . S
C1687 C645 1.522 . S
C1692 C145 1.517 . S
C1703 C225 1.513 . S
C1708 C409 1.518 . S
C1719 C293 1.525 . S
C1724 C489 1.512 . S
C1735 C1252 1.522 . S
C1740 C733 1.511 . S
C1751 C849 1.511 . S
C1756 C1349 1.522 . S
C1767 C1113 1.517 . S
C1772 C929 1.515 . S
C1783 C997 1.523 . S
C1788 C1193 1.515 . S
C1799 C57 1.345 . S
C1804 C321 1.342 . S
C1815 C196 1.323 . S
C1820 C117 1.324 . S
C1831 C401 1.322 . S
C1836 C636 1.320 . S
C1847 C497 1.328 . S
C1852 C557 1.327 . S
C1863 C1025 1.348 . S
C1868 C761 1.346 . S
C1879 C821 1.324 . S
C1884 C900 1.323 . S
C1895 C1340 1.320 . S
C1900 C1105 1.319 . S
C1911 C1201 1.311 . S
C1916 C1261 1.312 . S
