# Generated by pormake.
# Topology atn, (4)-cn, num edge types: 1
# Building blocks:
#     Node 0, Type 0, BuildingBlock: QUQFOY_clean_sbu_1, # of connection points: 4
#     Node 1, Type 0, BuildingBlock: QUQFOY_clean_sbu_1, # of connection points: 4
#     Node 2, Type 0, BuildingBlock: QUQFOY_clean_sbu_1, # of connection points: 4
#     Node 3, Type 0, BuildingBlock: QUQFOY_clean_sbu_1, # of connection points: 4
#     Node 4, Type 0, BuildingBlock: QUQFOY_clean_sbu_1, # of connection points: 4
#     Node 5, Type 0, BuildingBlock: QUQFOY_clean_sbu_1, # of connection points: 4
#     Node 6, Type 0, BuildingBlock: QUQFOY_clean_sbu_1, # of connection points: 4
#     Node 7, Type 0, BuildingBlock: QUQFOY_clean_sbu_1, # of connection points: 4
#     Node 8, Type 0, BuildingBlock: QUQFOY_clean_sbu_1, # of connection points: 4
#     Node 9, Type 0, BuildingBlock: QUQFOY_clean_sbu_1, # of connection points: 4
#     Node 10, Type 0, BuildingBlock: QUQFOY_clean_sbu_1, # of connection points: 4
#     Node 11, Type 0, BuildingBlock: QUQFOY_clean_sbu_1, # of connection points: 4
#     Node 12, Type 0, BuildingBlock: QUQFOY_clean_sbu_1, # of connection points: 4
#     Node 13, Type 0, BuildingBlock: QUQFOY_clean_sbu_1, # of connection points: 4
#     Node 14, Type 0, BuildingBlock: QUQFOY_clean_sbu_1, # of connection points: 4
#     Node 15, Type 0, BuildingBlock: QUQFOY_clean_sbu_1, # of connection points: 4
#     Edge 16, Type (0, 0), BuildingBlock: EZIPEK_clean_linker_0, # of connection points: 2
#     Edge 17, Type (0, 0), BuildingBlock: EZIPEK_clean_linker_0, # of connection points: 2
#     Edge 18, Type (0, 0), BuildingBlock: EZIPEK_clean_linker_0, # of connection points: 2
#     Edge 19, Type (0, 0), BuildingBlock: EZIPEK_clean_linker_0, # of connection points: 2
#     Edge 20, Type (0, 0), BuildingBlock: EZIPEK_clean_linker_0, # of connection points: 2
#     Edge 21, Type (0, 0), BuildingBlock: EZIPEK_clean_linker_0, # of connection points: 2
#     Edge 22, Type (0, 0), BuildingBlock: EZIPEK_clean_linker_0, # of connection points: 2
#     Edge 23, Type (0, 0), BuildingBlock: EZIPEK_clean_linker_0, # of connection points: 2
#     Edge 24, Type (0, 0), BuildingBlock: EZIPEK_clean_linker_0, # of connection points: 2
#     Edge 25, Type (0, 0), BuildingBlock: EZIPEK_clean_linker_0, # of connection points: 2
#     Edge 26, Type (0, 0), BuildingBlock: EZIPEK_clean_linker_0, # of connection points: 2
#     Edge 27, Type (0, 0), BuildingBlock: EZIPEK_clean_linker_0, # of connection points: 2
#     Edge 28, Type (0, 0), BuildingBlock: EZIPEK_clean_linker_0, # of connection points: 2
#     Edge 29, Type (0, 0), BuildingBlock: EZIPEK_clean_linker_0, # of connection points: 2
#     Edge 30, Type (0, 0), BuildingBlock: EZIPEK_clean_linker_0, # of connection points: 2
#     Edge 31, Type (0, 0), BuildingBlock: EZIPEK_clean_linker_0, # of connection points: 2
#     Edge 32, Type (0, 0), BuildingBlock: EZIPEK_clean_linker_0, # of connection points: 2
#     Edge 33, Type (0, 0), BuildingBlock: EZIPEK_clean_linker_0, # of connection points: 2
#     Edge 34, Type (0, 0), BuildingBlock: EZIPEK_clean_linker_0, # of connection points: 2
#     Edge 35, Type (0, 0), BuildingBlock: EZIPEK_clean_linker_0, # of connection points: 2
#     Edge 36, Type (0, 0), BuildingBlock: EZIPEK_clean_linker_0, # of connection points: 2
#     Edge 37, Type (0, 0), BuildingBlock: EZIPEK_clean_linker_0, # of connection points: 2
#     Edge 38, Type (0, 0), BuildingBlock: EZIPEK_clean_linker_0, # of connection points: 2
#     Edge 39, Type (0, 0), BuildingBlock: EZIPEK_clean_linker_0, # of connection points: 2
#     Edge 40, Type (0, 0), BuildingBlock: EZIPEK_clean_linker_0, # of connection points: 2
#     Edge 41, Type (0, 0), BuildingBlock: EZIPEK_clean_linker_0, # of connection points: 2
#     Edge 42, Type (0, 0), BuildingBlock: EZIPEK_clean_linker_0, # of connection points: 2
#     Edge 43, Type (0, 0), BuildingBlock: EZIPEK_clean_linker_0, # of connection points: 2
#     Edge 44, Type (0, 0), BuildingBlock: EZIPEK_clean_linker_0, # of connection points: 2
#     Edge 45, Type (0, 0), BuildingBlock: EZIPEK_clean_linker_0, # of connection points: 2
#     Edge 46, Type (0, 0), BuildingBlock: EZIPEK_clean_linker_0, # of connection points: 2
#     Edge 47, Type (0, 0), BuildingBlock: EZIPEK_clean_linker_0, # of connection points: 2
# Relax obj value: 0.063
# Max RMSD: 0.084
# Mean RMSD: 0.084
data_MOF--net-atn--node1-QUQFOY_clean_sbu_1--edge1-EZIPEK_clean_linker_0
_symmetry_space_group_name_H-M    P1
_symmetry_Int_Tables_number       1
_symmetry_cell_setting            triclinic
loop_
_symmetry_equiv_pos_as_xyz
'x, y, z'
_cell_length_a     46.45247
_cell_length_b     46.537196
_cell_length_c     20.752438
_cell_angle_alpha  90.266547
_cell_angle_beta   89.971862
_cell_angle_gamma 90.103477
loop_
_atom_site_label
_atom_site_type_symbol
_atom_site_fract_x
_atom_site_fract_y
_atom_site_fract_z
_atom_type_partial_charge
O0 O 0.20061 0.37761 0.18014 0.0
Cd1 Cd 0.22354 0.38934 0.10018 0.0
Cd2 Cd 0.18961 0.35043 0.04362 0.0
O3 O 0.16798 0.3505 0.13124 0.0
O4 O 0.24006 0.42799 0.11733 0.0
O5 O 0.20705 0.41926 0.04242 0.0
C6 C 0.22333 0.43741 0.07257 0.0
C7 C 0.16764 0.35354 0.94223 0.0
C8 C 0.17797 0.36231 0.18204 0.0
C9 C 0.25307 0.33724 0.05512 0.0
O10 O 0.22797 0.32812 0.04206 0.0
O11 O 0.25702 0.36274 0.07514 0.0
O12 O 0.16691 0.33016 0.97538 0.0
O13 O 0.1788 0.37599 0.96922 0.0
O14 O 0.62688 0.19954 0.16108 0.0
Cd15 Cd 0.61296 0.22295 0.08372 0.0
Cd16 Cd 0.64493 0.18609 1.0216 0.0
O17 O 0.63943 0.16168 0.10426 0.0
O18 O 0.5747 0.23984 0.10401 0.0
O19 O 0.58166 0.20613 0.02955 0.0
C20 C 0.5642 0.22265 0.06095 0.0
C21 C 0.64182 0.16598 0.91791 0.0
C22 C 0.63491 0.17347 0.1587 0.0
C23 C 0.66572 0.2476 0.03609 0.0
O24 O 0.67231 0.22145 0.02638 0.0
O25 O 0.64044 0.25445 0.05317 0.0
O26 O 0.6643 0.1627 0.95353 0.0
O27 O 0.62014 0.17911 0.94327 0.0
O28 O 0.80182 0.6209 0.16287 0.0
Cd29 Cd 0.77863 0.60659 0.08507 0.0
Cd30 Cd 0.80899 0.64781 1.02365 0.0
O31 O 0.83101 0.65052 0.11096 0.0
O32 O 0.76461 0.56742 0.10591 0.0
O33 O 0.79543 0.57663 0.02687 0.0
C34 C 0.78063 0.55817 0.05949 0.0
C35 C 0.83061 0.64796 0.92121 0.0
C36 C 0.82286 0.63833 0.16278 0.0
C37 C 0.7446 0.65565 0.03967 0.0
O38 O 0.76867 0.66633 1.02342 0.0
O39 O 0.74293 0.63043 0.06231 0.0
O40 O 0.82932 0.67088 0.95626 0.0
O41 O 0.8218 0.62422 0.94664 0.0
O42 O 0.38217 0.80618 0.17071 0.0
Cd43 Cd 0.39452 0.78084 0.09482 0.0
Cd44 Cd 0.35378 0.81057 0.03163 0.0
O45 O 0.35231 0.83417 0.11687 0.0
O46 O 0.4338 0.76718 0.11513 0.0
O47 O 0.42355 0.79514 0.03161 0.0
C48 C 0.44236 0.78147 0.06555 0.0
C49 C 0.35237 0.83091 0.92872 0.0
C50 C 0.36501 0.82731 0.16896 0.0
C51 C 0.3442 0.74693 0.05331 0.0
O52 O 0.33404 0.77077 0.03445 0.0
O53 O 0.36936 0.74535 0.07679 0.0
O54 O 0.33026 0.83137 0.96624 0.0
O55 O 0.37618 0.8207 0.95108 0.0
O56 O 0.20527 0.61915 0.90704 0.0
Cd57 Cd 0.22749 0.60698 0.98765 0.0
Cd58 Cd 0.19489 0.64738 0.04414 0.0
O59 O 0.1742 0.64827 0.95501 0.0
O60 O 0.2427 0.56782 0.971 0.0
O61 O 0.20975 0.57766 0.04536 0.0
C62 C 0.22549 0.55898 1.01554 0.0
C63 C 0.17208 0.64512 0.14506 0.0
C64 C 0.18366 0.63576 0.90448 0.0
C65 C 0.25904 0.6579 0.03427 0.0
O66 O 0.23432 0.66791 0.0475 0.0
O67 O 0.26193 0.63242 1.0132 0.0
O68 O 0.1723 0.66844 0.11164 0.0
O69 O 0.18267 0.62229 0.1186 0.0
O70 O 0.37697 0.19944 0.91717 0.0
Cd71 Cd 0.39215 0.22223 0.99498 0.0
Cd72 Cd 0.35702 0.18768 0.05563 0.0
O73 O 0.36407 0.1621 0.97425 0.0
O74 O 0.43057 0.23822 0.97299 0.0
O75 O 0.4235 0.20526 0.04846 0.0
C76 C 0.44103 0.22142 1.0164 0.0
C77 C 0.35534 0.16969 0.16051 0.0
C78 C 0.36853 0.17349 0.91955 0.0
C79 C 0.34044 0.24992 0.03891 0.0
O80 O 0.33165 0.22423 0.04567 0.0
O81 O 0.36656 0.25511 1.02578 0.0
O82 O 0.33488 0.16471 0.12005 0.0
O83 O 0.37785 0.18332 0.14044 0.0
O84 O 0.80164 0.37518 0.8991 0.0
Cd85 Cd 0.77921 0.38768 0.97948 0.0
Cd86 Cd 0.81593 0.35472 0.03573 0.0
O87 O 0.84038 0.36612 0.95546 0.0
O88 O 0.76187 0.42599 0.96421 0.0
O89 O 0.79705 0.4181 0.03446 0.0
C90 C 0.77991 0.43591 1.00616 0.0
C91 C 0.83478 0.353 0.13995 0.0
C92 C 0.82839 0.36973 0.90107 0.0
C93 C 0.75517 0.33371 1.02017 0.0
O94 O 0.7815 0.32639 1.0238 0.0
O95 O 0.74841 0.35976 1.01113 0.0
O96 O 0.84233 0.33463 0.09644 0.0
O97 O 0.81809 0.37382 0.12303 0.0
O98 O 0.62621 0.80587 0.90694 0.0
Cd99 Cd 0.61215 0.78086 0.98161 0.0
Cd100 Cd 0.65443 0.80874 0.04604 0.0
O101 O 0.65898 0.83117 0.96003 0.0
O102 O 0.57283 0.76816 0.95771 0.0
O103 O 0.58247 0.79521 0.04359 0.0
C104 C 0.56388 0.78199 1.00781 0.0
C105 C 0.65352 0.83043 0.1485 0.0
C106 C 0.6454 0.82531 0.90826 0.0
C107 C 0.66015 0.74445 1.02491 0.0
O108 O 0.6712 0.76766 0.04588 0.0
O109 O 0.6354 0.74425 0.99913 0.0
O110 O 0.67705 0.82814 0.11587 0.0
O111 O 0.62994 0.82227 0.1209 0.0
O112 O 0.70298 0.8831 0.65901 0.0
Cd113 Cd 0.72653 0.89695 0.58156 0.0
Cd114 Cd 0.69698 0.85548 0.51957 0.0
O115 O 0.67498 0.85233 0.6066 0.0
O116 O 0.74035 0.93626 0.60242 0.0
O117 O 0.70973 0.92658 0.52317 0.0
C118 C 0.72428 0.94526 0.55604 0.0
C119 C 0.67562 0.85574 0.41703 0.0
C120 C 0.68249 0.86502 0.65853 0.0
C121 C 0.7611 0.84777 0.53709 0.0
O122 O 0.73723 0.83702 0.51956 0.0
O123 O 0.76248 0.87304 0.5601 0.0
O124 O 0.67685 0.83267 0.45109 0.0
O125 O 0.68433 0.87939 0.44352 0.0
O126 O 0.12463 0.69222 0.66309 0.0
Cd127 Cd 0.11208 0.72044 0.59425 0.0
Cd128 Cd 0.14685 0.68986 0.51509 0.0
O129 O 0.15404 0.66709 0.60065 0.0
O130 O 0.07321 0.7346 0.61677 0.0
O131 O 0.08294 0.70871 0.52888 0.0
C132 C 0.0644 0.72177 0.56509 0.0
C133 C 0.14618 0.66749 0.41279 0.0
C134 C 0.14279 0.6722 0.65568 0.0
C135 C 0.16076 0.75304 0.54258 0.0
O136 O 0.16534 0.73026 0.51016 0.0
O137 O 0.1397 0.75434 0.58138 0.0
O138 O 0.16955 0.67025 0.44557 0.0
O139 O 0.1225 0.67527 0.44035 0.0
O140 O 0.3012 0.12809 0.67581 0.0
Cd141 Cd 0.27792 0.11328 0.59878 0.0
Cd142 Cd 0.31174 0.14859 0.53531 0.0
O143 O 0.33766 0.14187 0.6163 0.0
O144 O 0.26235 0.07471 0.61938 0.0
O145 O 0.2951 0.08268 0.54345 0.0
C146 C 0.27913 0.06479 0.57494 0.0
C147 C 0.3306 0.15038 0.43077 0.0
C148 C 0.32706 0.13677 0.67165 0.0
C149 C 0.24897 0.16423 0.55501 0.0
O150 O 0.27444 0.17325 0.54489 0.0
O151 O 0.24445 0.13833 0.57051 0.0
O152 O 0.33495 0.17091 0.47152 0.0
O153 O 0.31704 0.12778 0.45034 0.0
O154 O 0.87337 0.30899 0.65556 0.0
Cd155 Cd 0.88657 0.28357 0.58028 0.0
Cd156 Cd 0.85346 0.31906 0.51779 0.0
O157 O 0.86136 0.34591 0.59625 0.0
O158 O 0.92378 0.26613 0.60663 0.0
O159 O 0.91927 0.29665 0.52522 0.0
C160 C 0.93553 0.28095 0.56122 0.0
C161 C 0.85677 0.33391 0.41088 0.0
C162 C 0.866 0.33518 0.65145 0.0
C163 C 0.83264 0.25838 0.54 0.0
O164 O 0.82554 0.28444 0.53082 0.0
O165 O 0.85852 0.25193 0.55287 0.0
O166 O 0.83546 0.34166 0.44677 0.0
O167 O 0.87734 0.31934 0.4368 0.0
O168 O 0.69861 0.12961 0.40565 0.0
Cd169 Cd 0.72221 0.11605 0.48302 0.0
Cd170 Cd 0.68501 0.14734 0.54565 0.0
O171 O 0.6606 0.1415 0.46265 0.0
O172 O 0.73959 0.07804 0.46331 0.0
O173 O 0.70553 0.08492 0.53693 0.0
C174 C 0.72242 0.06756 0.50622 0.0
C175 C 0.66486 0.14387 0.6491 0.0
C176 C 0.67237 0.13718 0.40814 0.0
C177 C 0.74639 0.16879 0.5316 0.0
O178 O 0.72014 0.17507 0.54141 0.0
O179 O 0.75349 0.14368 0.51401 0.0
O180 O 0.66131 0.16631 0.6138 0.0
O181 O 0.67834 0.12244 0.6236 0.0
O182 O 0.87984 0.69815 0.40936 0.0
Cd183 Cd 0.89444 0.72342 0.48348 0.0
Cd184 Cd 0.85324 0.69518 0.55085 0.0
O185 O 0.84884 0.672 0.46522 0.0
O186 O 0.9337 0.73618 0.45926 0.0
O187 O 0.92423 0.70918 0.54484 0.0
C188 C 0.94274 0.72239 0.50903 0.0
C189 C 0.85362 0.67382 0.6535 0.0
C190 C 0.86124 0.6782 0.41222 0.0
C191 C 0.84633 0.75929 0.52831 0.0
O192 O 0.83583 0.73605 0.55006 0.0
O193 O 0.8709 0.75976 0.50167 0.0
O194 O 0.83029 0.67599 0.62025 0.0
O195 O 0.87731 0.68203 0.62659 0.0
O196 O 0.30306 0.88396 0.41432 0.0
Cd197 Cd 0.27743 0.8949 0.49009 0.0
Cd198 Cd 0.3107 0.85813 0.55632 0.0
O199 O 0.33317 0.85654 0.4691 0.0
O200 O 0.26159 0.93361 0.47328 0.0
O201 O 0.29229 0.92411 0.55243 0.0
C202 C 0.27732 0.94264 0.52053 0.0
C203 C 0.33192 0.85522 0.65859 0.0
C204 C 0.32506 0.86789 0.41634 0.0
C205 C 0.24756 0.84291 0.5334 0.0
O206 O 0.27203 0.83637 0.55631 0.0
O207 O 0.2439 0.86692 0.5059 0.0
O208 O 0.33309 0.83415 0.61825 0.0
O209 O 0.32107 0.87916 0.639 0.0
O210 O 0.12156 0.30552 0.42899 0.0
Cd211 Cd 0.10775 0.27984 0.50264 0.0
Cd212 Cd 0.14558 0.31181 0.57015 0.0
O213 O 0.14864 0.33545 0.48594 0.0
O214 O 0.06924 0.26518 0.47692 0.0
O215 O 0.0767 0.29306 0.56254 0.0
C216 C 0.05903 0.27919 0.52559 0.0
C217 C 0.14366 0.33254 0.67344 0.0
C218 C 0.13791 0.32734 0.43237 0.0
C219 C 0.15868 0.24868 0.54744 0.0
O220 O 0.16697 0.27302 0.56815 0.0
O221 O 0.13408 0.24552 0.52178 0.0
O222 O 0.16706 0.33224 0.64003 0.0
O223 O 0.12057 0.32299 0.64606 0.0
C224 C 0.22077 0.50767 0.97955 0.0
C225 C 0.22346 0.52795 0.03057 0.0
C226 C 0.2203 0.48885 0.10858 0.0
C227 C 0.22245 0.4685 0.05759 0.0
N228 N 0.2305 0.45912 0.94422 0.0
N229 N 0.23151 0.53709 0.14402 0.0
C230 C 0.22422 0.47801 0.99285 0.0
C231 C 0.22475 0.51839 0.09532 0.0
N232 N 0.21377 0.5165 0.91884 0.0
N233 N 0.21286 0.48022 0.16923 0.0
H234 H 0.23622 0.55872 0.13642 0.0
H235 H 0.23544 0.53044 0.19108 0.0
H236 H 0.20786 0.45897 0.18045 0.0
H237 H 0.2084 0.49464 0.20649 0.0
H238 H 0.20893 0.50222 0.88153 0.0
H239 H 0.2095 0.53789 0.90756 0.0
H240 H 0.23476 0.46567 0.89721 0.0
H241 H 0.23451 0.43738 0.95185 0.0
C242 C 0.49179 0.21813 0.97527 0.0
C243 C 0.47252 0.22058 0.02819 0.0
C244 C 0.51346 0.21932 0.10233 0.0
C245 C 0.5327 0.22142 0.0493 0.0
N246 N 0.53946 0.22862 0.93494 0.0
N247 N 0.46565 0.2295 0.14207 0.0
C248 C 0.52171 0.22239 0.98555 0.0
C249 C 0.48348 0.22279 0.09183 0.0
N250 N 0.48177 0.21059 0.91561 0.0
N251 N 0.52355 0.21279 0.16235 0.0
H252 H 0.44373 0.2335 0.13645 0.0
H253 H 0.47322 0.23413 0.18824 0.0
H254 H 0.54517 0.2086 0.17178 0.0
H255 H 0.51002 0.20831 0.20113 0.0
H256 H 0.49534 0.20586 0.87699 0.0
H257 H 0.4602 0.20587 0.9065 0.0
H258 H 0.53186 0.23232 0.88848 0.0
H259 H 0.56131 0.23316 0.94037 0.0
C260 C 0.78201 0.48703 0.96802 0.0
C261 C 0.78137 0.4672 1.01988 0.0
C262 C 0.7862 0.50719 0.09611 0.0
C263 C 0.7821 0.52698 0.04505 0.0
N264 N 0.77026 0.53503 0.93307 0.0
N265 N 0.77707 0.45912 0.13456 0.0
C266 C 0.77845 0.51677 0.98105 0.0
C267 C 0.78194 0.47742 0.0844 0.0
N268 N 0.78719 0.47775 0.90654 0.0
N269 N 0.79521 0.51661 0.15524 0.0
H270 H 0.77245 0.43736 0.12829 0.0
H271 H 0.77451 0.46618 0.18194 0.0
H272 H 0.79999 0.53809 0.16507 0.0
H273 H 0.8011 0.5027 0.19216 0.0
H274 H 0.79059 0.49175 0.86821 0.0
H275 H 0.79139 0.45634 0.89505 0.0
H276 H 0.76455 0.52792 0.88711 0.0
H277 H 0.76617 0.5568 0.94069 0.0
C278 C 0.51777 0.80863 0.02773 0.0
C279 C 0.5329 0.78222 1.02378 0.0
C280 C 0.48782 0.75568 0.03768 0.0
C281 C 0.47323 0.78199 0.04855 0.0
N282 N 0.47515 0.83334 0.06569 0.0
N283 N 0.53345 0.73074 0.03777 0.0
C284 C 0.48839 0.80848 0.04671 0.0
C285 C 0.51824 0.75574 0.03226 0.0
N286 N 0.53107 0.83373 1.0109 0.0
N287 N 0.47254 0.73075 0.03015 0.0
H288 H 0.55587 0.72994 0.03585 0.0
H289 H 0.52406 0.71126 0.05071 0.0
H290 H 0.45012 0.72991 0.03218 0.0
H291 H 0.48187 0.71145 1.01549 0.0
H292 H 0.52017 0.85314 1.00614 0.0
H293 H 0.55248 0.83475 0.99589 0.0
H294 H 0.4861 0.8527 0.07204 0.0
H295 H 0.45376 0.83416 0.08083 0.0
C296 C 0.7209 0.01648 0.46652 0.0
C297 C 0.72179 0.03624 0.51891 0.0
C298 C 0.7183 0.9961 0.59418 0.0
C299 C 0.72227 0.97644 0.54241 0.0
N300 N 0.73317 0.96875 0.42961 0.0
N301 N 0.72741 0.04416 0.63357 0.0
C302 C 0.72513 0.9868 0.47852 0.0
C303 C 0.72212 0.02591 0.58313 0.0
N304 N 0.71482 0.02576 0.40565 0.0
N305 N 0.70977 0.98654 0.65338 0.0
H306 H 0.73186 0.06595 0.62773 0.0
H307 H 0.73054 0.03701 0.68057 0.0
H308 H 0.70513 0.96503 0.66276 0.0
H309 H 0.70405 1.00038 0.69087 0.0
H310 H 0.71129 0.01174 0.36713 0.0
H311 H 0.70998 0.04709 0.39508 0.0
H312 H 0.73824 0.97603 0.38355 0.0
H313 H 0.73779 0.94707 0.43643 0.0
C314 C 0.98881 0.69549 0.52597 0.0
C315 C 0.97377 0.72197 0.52441 0.0
C316 C 0.01894 0.74821 0.54058 0.0
C317 C 0.03346 0.72171 0.54877 0.0
N318 N 0.03143 0.67015 0.56111 0.0
N319 N 0.97334 0.77327 0.54214 0.0
C320 C 0.01822 0.6953 0.54461 0.0
C321 C 0.9885 0.7483 0.53495 0.0
N322 N 0.97538 0.67065 0.50722 0.0
N323 N 0.03431 0.7732 0.53584 0.0
H324 H 0.95093 0.77417 0.53975 0.0
H325 H 0.98272 0.79259 0.55666 0.0
H326 H 0.05673 0.77394 0.53848 0.0
H327 H 0.02511 0.79276 0.5231 0.0
H328 H 0.9862 0.65127 0.50061 0.0
H329 H 0.95393 0.66988 0.49251 0.0
H330 H 0.02045 0.65074 0.56582 0.0
H331 H 0.05285 0.66905 0.57589 0.0
C332 C 0.28133 0.01358 0.61256 0.0
C333 C 0.27999 0.03352 0.56099 0.0
C334 C 0.28275 0.99367 0.48414 0.0
C335 C 0.27909 0.9738 0.53527 0.0
N336 N 0.26914 0.96573 0.64818 0.0
N337 N 0.27296 0.04169 0.44694 0.0
C338 C 0.27683 0.98394 0.59964 0.0
C339 C 0.27895 0.02339 0.49645 0.0
N340 N 0.28805 0.02265 0.67345 0.0
N341 N 0.29106 0.98442 0.42435 0.0
H342 H 0.26835 0.06341 0.45374 0.0
H343 H 0.26934 0.03458 0.39992 0.0
H344 H 0.29589 0.96302 0.41399 0.0
H345 H 0.29648 0.99849 0.38732 0.0
H346 H 0.29183 0.0085 0.71129 0.0
H347 H 0.29317 0.04394 0.6845 0.0
H348 H 0.26455 0.97284 0.69476 0.0
H349 H 0.26431 0.9441 0.64061 0.0
C350 C 0.01282 0.30642 0.54029 0.0
C351 C 0.02759 0.27977 0.53737 0.0
C352 C 0.98159 0.25404 0.54272 0.0
C353 C 0.96714 0.28056 0.5522 0.0
N354 N 0.96983 0.33151 0.57445 0.0
N355 N 0.02667 0.22821 0.54932 0.0
C356 C 0.98297 0.30666 0.55506 0.0
C357 C 0.01215 0.25354 0.54242 0.0
N358 N 0.02687 0.33144 0.52603 0.0
N359 N 0.96616 0.22949 0.53137 0.0
H360 H 0.04907 0.22703 0.55116 0.0
H361 H 0.0165 0.20881 0.55976 0.0
H362 H 0.94373 0.22907 0.52956 0.0
H363 H 0.97562 0.21015 0.51749 0.0
H364 H 0.01632 0.35103 0.52068 0.0
H365 H 0.04856 0.33228 0.51326 0.0
H366 H 0.98109 0.35045 0.58391 0.0
H367 H 0.94817 0.33257 0.58741 0.0
C368 C 0.29123 0.30737 0.10751 0.0
C369 C 0.27755 0.31711 0.05042 0.0
C370 C 0.30518 0.28264 0.98584 0.0
C371 C 0.31968 0.2738 0.04252 0.0
N372 N 0.33061 0.28058 0.15501 0.0
N373 N 0.27472 0.31817 0.93457 0.0
C374 C 0.314 0.28711 0.10269 0.0
C375 C 0.28548 0.30593 0.98929 0.0
N376 N 0.28146 0.31631 0.16647 0.0
N377 N 0.30973 0.26826 0.92911 0.0
H378 H 0.26037 0.33539 0.93553 0.0
H379 H 0.28178 0.31301 0.88834 0.0
H380 H 0.32469 0.25169 0.92428 0.0
H381 H 0.29744 0.27139 0.88782 0.0
H382 H 0.28815 0.30737 0.20984 0.0
H383 H 0.265 0.33129 0.17227 0.0
H384 H 0.32962 0.29171 0.19858 0.0
H385 H 0.34709 0.26538 0.15338 0.0
C386 C 0.72883 0.29564 0.08186 0.0
C387 C 0.73226 0.31166 1.02436 0.0
C388 C 0.69024 0.28751 0.97689 0.0
C389 C 0.68833 0.26988 0.03221 0.0
N390 N 0.70734 0.25442 0.13454 0.0
N391 N 0.71961 0.31977 0.91312 0.0
C392 C 0.70817 0.27308 0.08382 0.0
C393 C 0.71379 0.30688 0.9708 0.0
N394 N 0.74438 0.3029 0.13552 0.0
N395 N 0.66946 0.28583 0.93038 0.0
H396 H 0.73697 0.33367 0.90627 0.0
H397 H 0.70886 0.31481 0.87049 0.0
H398 H 0.65254 0.27108 0.932 0.0
H399 H 0.66777 0.30036 0.89257 0.0
H400 H 0.74077 0.29411 0.18085 0.0
H401 H 0.75938 0.3196 0.13625 0.0
H402 H 0.72328 0.2534 0.1697 0.0
H403 H 0.69162 0.23854 0.13947 0.0
C404 C 0.70746 0.68628 0.09371 0.0
C405 C 0.71876 0.67396 0.03636 0.0
C406 C 0.68859 0.70543 0.97078 0.0
C407 C 0.67728 0.71779 0.02817 0.0
N408 N 0.67035 0.71574 0.14301 0.0
N409 N 0.71584 0.66657 0.92176 0.0
C410 C 0.68493 0.70678 0.08933 0.0
C411 C 0.70786 0.68185 0.97528 0.0
N412 N 0.71931 0.67959 0.15206 0.0
N413 N 0.68229 0.71729 0.91228 0.0
H414 H 0.73 0.6492 0.92383 0.0
H415 H 0.70658 0.66935 0.87656 0.0
H416 H 0.66795 0.73428 0.90662 0.0
H417 H 0.69265 0.71157 0.86964 0.0
H418 H 0.71452 0.69051 0.19461 0.0
H419 H 0.73543 0.66423 0.15757 0.0
H420 H 0.67294 0.70656 0.18829 0.0
H421 H 0.65363 0.73067 0.14108 0.0
C422 C 0.29742 0.688 0.98292 0.0
C423 C 0.28431 0.67709 0.03966 0.0
C424 C 0.31256 0.71036 0.10625 0.0
C425 C 0.32585 0.72105 0.04958 0.0
N426 N 0.33573 0.71669 0.93608 0.0
N427 N 0.28323 0.67313 0.15523 0.0
C428 C 0.31979 0.70874 0.98851 0.0
C429 C 0.29314 0.6868 0.10139 0.0
N430 N 0.28747 0.67966 0.92369 0.0
N431 N 0.31745 0.72363 0.16418 0.0
H432 H 0.269 0.65576 0.15303 0.0
H433 H 0.2909 0.67724 0.20148 0.0
H434 H 0.33199 0.74055 0.16994 0.0
H435 H 0.30582 0.71919 0.20585 0.0
H436 H 0.29349 0.68949 0.88079 0.0
H437 H 0.27168 0.66396 0.91736 0.0
H438 H 0.33444 0.70653 0.89139 0.0
H439 H 0.35216 0.73198 0.93866 0.0
C440 C 0.81673 0.79639 0.47181 0.0
C441 C 0.8285 0.7855 0.52995 0.0
C442 C 0.79831 0.81817 0.59324 0.0
C443 C 0.78695 0.82941 0.53506 0.0
N444 N 0.78962 0.83431 0.41986 0.0
N445 N 0.83573 0.79001 0.64441 0.0
C446 C 0.79764 0.82016 0.47455 0.0
C447 C 0.82097 0.79775 0.59023 0.0
N448 N 0.82238 0.78294 0.41443 0.0
N449 N 0.78634 0.8257 0.65113 0.0
H450 H 0.85246 0.77507 0.64357 0.0
H451 H 0.83323 0.80019 0.68884 0.0
H452 H 0.7699 0.8408 0.65568 0.0
H453 H 0.79127 0.81555 0.69433 0.0
H454 H 0.81172 0.78773 0.3717 0.0
H455 H 0.8362 0.76541 0.41008 0.0
H456 H 0.79878 0.83047 0.37484 0.0
H457 H 0.77562 0.85184 0.42059 0.0
C458 C 0.23191 0.7917 0.52138 0.0
C459 C 0.2244 0.82078 0.53337 0.0
C460 C 0.17374 0.8061 0.54053 0.0
C461 C 0.18226 0.77675 0.53986 0.0
N462 N 0.22173 0.74302 0.55149 0.0
N463 N 0.18798 0.85469 0.56787 0.0
C464 C 0.212 0.76989 0.53666 0.0
C465 C 0.19522 0.82783 0.5467 0.0
N466 N 0.25751 0.78466 0.493 0.0
N467 N 0.1455 0.8134 0.53291 0.0
H468 H 0.20312 0.87081 0.57642 0.0
H469 H 0.16732 0.85989 0.58364 0.0
H470 H 0.1293 0.79829 0.52474 0.0
H471 H 0.13873 0.8346 0.52749 0.0
H472 H 0.26253 0.76365 0.47934 0.0
H473 H 0.27193 0.79992 0.47548 0.0
H474 H 0.24361 0.73816 0.55425 0.0
H475 H 0.20849 0.72683 0.56939 0.0
C476 C 0.21623 0.19622 0.49209 0.0
C477 C 0.2245 0.18441 0.55211 0.0
C478 C 0.18554 0.21057 0.60633 0.0
C479 C 0.17938 0.2247 0.5477 0.0
N480 N 0.19048 0.23383 0.43599 0.0
N481 N 0.21968 0.18252 0.66787 0.0
C482 C 0.19505 0.2182 0.49072 0.0
C483 C 0.20973 0.19198 0.60969 0.0
N484 N 0.22804 0.18582 0.43631 0.0
N485 N 0.16798 0.21468 0.65845 0.0
H486 H 0.23745 0.16901 0.6725 0.0
H487 H 0.21185 0.18982 0.71199 0.0
H488 H 0.15021 0.22836 0.65745 0.0
H489 H 0.16947 0.2028 0.7007 0.0
H490 H 0.22085 0.19145 0.39058 0.0
H491 H 0.24349 0.16957 0.43561 0.0
H492 H 0.20362 0.23256 0.39541 0.0
H493 H 0.17467 0.24963 0.43248 0.0
C494 C 0.8057 0.21811 0.59309 0.0
C495 C 0.81039 0.23553 0.53796 0.0
C496 C 0.77127 0.21064 0.48115 0.0
C497 C 0.76841 0.19166 0.5341 0.0
N498 N 0.78495 0.17447 0.63691 0.0
N499 N 0.80086 0.24571 0.42607 0.0
C500 C 0.78633 0.19448 0.58895 0.0
C501 C 0.79394 0.23119 0.48109 0.0
N502 N 0.81857 0.22507 0.65037 0.0
N503 N 0.75219 0.20914 0.43103 0.0
H504 H 0.81741 0.26079 0.42394 0.0
H505 H 0.79191 0.24117 0.38118 0.0
H506 H 0.73616 0.19349 0.42759 0.0
H507 H 0.75094 0.22456 0.39495 0.0
H508 H 0.81366 0.21505 0.69377 0.0
H509 H 0.83222 0.24271 0.65604 0.0
H510 H 0.79972 0.17343 0.67455 0.0
H511 H 0.77022 0.15752 0.63663 0.0
C512 C 0.17577 0.32904 0.3479 0.0
C513 C 0.14893 0.33923 0.3713 0.0
C514 C 0.14121 0.36581 0.27086 0.0
C515 C 0.16694 0.35378 0.24589 0.0
N516 N 0.20627 0.32026 0.2552 0.0
N517 N 0.10456 0.36479 0.35452 0.0
C518 C 0.18364 0.33448 0.28306 0.0
C519 C 0.13117 0.35694 0.33259 0.0
N520 N 0.19375 0.314 0.38761 0.0
N521 N 0.12687 0.38618 0.23623 0.0
H522 H 0.09723 0.35976 0.40068 0.0
H523 H 0.0892 0.37496 0.32618 0.0
H524 H 0.13342 0.39259 0.19037 0.0
H525 H 0.10964 0.39802 0.25423 0.0
H526 H 0.21496 0.30902 0.3759 0.0
H527 H 0.18838 0.30823 0.43457 0.0
H528 H 0.21731 0.30352 0.2772 0.0
H529 H 0.21253 0.32331 0.20744 0.0
C530 C 0.66567 0.12532 0.29149 0.0
C531 C 0.65651 0.14131 0.34624 0.0
C532 C 0.62334 0.16678 0.27537 0.0
C533 C 0.63945 0.15786 0.22064 0.0
N534 N 0.67986 0.12938 0.18068 0.0
N535 N 0.62721 0.18109 0.38631 0.0
C536 C 0.66147 0.13695 0.22922 0.0
C537 C 0.63513 0.16286 0.33768 0.0
N538 N 0.67824 0.09904 0.29873 0.0
N539 N 0.59677 0.17882 0.26806 0.0
H540 H 0.63614 0.18114 0.43213 0.0
H541 H 0.61358 0.19852 0.37859 0.0
H542 H 0.58667 0.18012 0.22326 0.0
H543 H 0.58355 0.18387 0.30712 0.0
H544 H 0.68349 0.0859 0.25962 0.0
H545 H 0.6798 0.08902 0.34349 0.0
H546 H 0.69759 0.11611 0.18845 0.0
H547 H 0.67976 0.13831 0.13495 0.0
C548 C 0.82503 0.6771 0.32363 0.0
C549 C 0.8507 0.66586 0.35074 0.0
C550 C 0.85828 0.63591 0.25436 0.0
C551 C 0.83373 0.64863 0.22576 0.0
N552 N 0.79584 0.68398 0.22806 0.0
N553 N 0.89351 0.63704 0.341 0.0
C554 C 0.81764 0.66992 0.2591 0.0
C555 C 0.86786 0.64594 0.31578 0.0
N556 N 0.80767 0.69466 0.35969 0.0
N557 N 0.87195 0.61383 0.22337 0.0
H558 H 0.90041 0.6429 0.38708 0.0
H559 H 0.90862 0.62511 0.31536 0.0
H560 H 0.86591 0.60668 0.17759 0.0
H561 H 0.88809 0.60148 0.24421 0.0
H562 H 0.78705 0.70076 0.3458 0.0
H563 H 0.81291 0.70174 0.40596 0.0
H564 H 0.78532 0.7019 0.24671 0.0
H565 H 0.7896 0.67923 0.1809 0.0
C566 C 0.36263 0.86793 0.32877 0.0
C567 C 0.3365 0.85705 0.35436 0.0
C568 C 0.32962 0.82667 0.2587 0.0
C569 C 0.35464 0.83904 0.23097 0.0
N570 N 0.39409 0.87251 0.23538 0.0
N571 N 0.29351 0.82813 0.34268 0.0
C572 C 0.371 0.85996 0.26493 0.0
C573 C 0.31955 0.83701 0.31897 0.0
N574 N 0.3794 0.88561 0.36584 0.0
N575 N 0.31615 0.80409 0.22858 0.0
H576 H 0.28608 0.83337 0.38866 0.0
H577 H 0.27836 0.81685 0.31558 0.0
H578 H 0.32213 0.79634 0.18328 0.0
H579 H 0.30029 0.79157 0.25013 0.0
H580 H 0.39992 0.89246 0.35284 0.0
H581 H 0.37341 0.89216 0.41209 0.0
H582 H 0.40567 0.88965 0.25468 0.0
H583 H 0.40069 0.86685 0.18895 0.0
C584 C 0.18082 0.67116 0.74006 0.0
C585 C 0.15494 0.6593 0.71478 0.0
C586 C 0.14735 0.63206 0.81477 0.0
C587 C 0.17298 0.6443 0.84014 0.0
N588 N 0.21601 0.67273 0.82627 0.0
N589 N 0.11274 0.62981 0.72656 0.0
C590 C 0.19028 0.66298 0.80241 0.0
C591 C 0.13805 0.63993 0.75167 0.0
N592 N 0.19529 0.69183 0.70611 0.0
N593 N 0.13253 0.61232 0.85052 0.0
H594 H 0.10626 0.63414 0.67945 0.0
H595 H 0.09775 0.61775 0.75203 0.0
H596 H 0.13865 0.6066 0.8971 0.0
H597 H 0.11491 0.60065 0.83393 0.0
H598 H 0.21196 0.70426 0.72481 0.0
H599 H 0.18966 0.698 0.6596 0.0
H600 H 0.23166 0.68291 0.79865 0.0
H601 H 0.22257 0.66951 0.87373 0.0
C602 C 0.36499 0.16323 0.7401 0.0
C603 C 0.34382 0.14126 0.73258 0.0
C604 C 0.34115 0.13651 0.84997 0.0
C605 C 0.36305 0.1578 0.85744 0.0
N606 N 0.40454 0.17945 0.80648 0.0
N607 N 0.32387 0.09838 0.78068 0.0
C608 C 0.37795 0.16711 0.80142 0.0
C609 C 0.33599 0.12497 0.78764 0.0
N610 N 0.37167 0.18182 0.69158 0.0
N611 N 0.32378 0.12836 0.89978 0.0
H612 H 0.32178 0.08836 0.73582 0.0
H613 H 0.31961 0.08504 0.81982 0.0
H614 H 0.32462 0.13691 0.94599 0.0
H615 H 0.30608 0.11485 0.89294 0.0
H616 H 0.38518 0.19947 0.69876 0.0
H617 H 0.36178 0.18194 0.64674 0.0
H618 H 0.41688 0.18483 0.76627 0.0
H619 H 0.4156 0.18064 0.85018 0.0
C620 C 0.86696 0.34654 0.82937 0.0
C621 C 0.84458 0.367 0.83904 0.0
C622 C 0.83987 0.37244 0.72208 0.0
C623 C 0.86221 0.35189 0.71261 0.0
N624 N 0.90548 0.33183 0.75821 0.0
N625 N 0.82099 0.40861 0.79458 0.0
C626 C 0.87871 0.3433 0.76672 0.0
C627 C 0.83483 0.38307 0.78531 0.0
N628 N 0.8758 0.32853 0.87723 0.0
N629 N 0.82212 0.38073 0.67314 0.0
H630 H 0.81867 0.41783 0.84022 0.0
H631 H 0.81533 0.42212 0.75669 0.0
H632 H 0.82397 0.37392 0.62567 0.0
H633 H 0.80375 0.39308 0.68122 0.0
H634 H 0.89009 0.31167 0.86873 0.0
H635 H 0.86713 0.32808 0.92331 0.0
H636 H 0.9191 0.32707 0.79666 0.0
H637 H 0.91521 0.33057 0.7129 0.0
C638 C 0.6448 0.86289 0.82158 0.0
C639 C 0.65571 0.83665 0.84594 0.0
C640 C 0.6842 0.82943 0.74767 0.0
C641 C 0.67172 0.85458 0.72127 0.0
N642 N 0.6388 0.89429 0.729 0.0
N643 N 0.68337 0.79324 0.83117 0.0
C644 C 0.65167 0.87113 0.7572 0.0
C645 C 0.67473 0.81945 0.80864 0.0
N646 N 0.62825 0.87996 0.86046 0.0
N647 N 0.70605 0.81574 0.71563 0.0
H648 H 0.6786 0.7859 0.87737 0.0
H649 H 0.6939 0.77797 0.80297 0.0
H650 H 0.71326 0.82182 0.67007 0.0
H651 H 0.71856 0.7996 0.73585 0.0
H652 H 0.62159 0.90056 0.8483 0.0
H653 H 0.62262 0.87415 0.90732 0.0
H654 H 0.62212 0.90595 0.74988 0.0
H655 H 0.64361 0.9008 0.68215 0.0
C656 C 0.8337 0.64022 0.73699 0.0
C657 C 0.85237 0.66337 0.72158 0.0
C658 C 0.86367 0.66822 0.83677 0.0
C659 C 0.84031 0.64983 0.85254 0.0
N660 N 0.79955 0.62185 0.81407 0.0
N661 N 0.88192 0.70282 0.76075 0.0
C662 C 0.82452 0.63641 0.80181 0.0
C663 C 0.86686 0.67814 0.77237 0.0
N664 N 0.82488 0.62162 0.68984 0.0
N665 N 0.88305 0.67605 0.88312 0.0
H666 H 0.88361 0.71226 0.71556 0.0
H667 H 0.89022 0.71569 0.79758 0.0
H668 H 0.88206 0.66822 0.93011 0.0
H669 H 0.90183 0.68745 0.87288 0.0
H670 H 0.81322 0.60297 0.6996 0.0
H671 H 0.83215 0.62304 0.64237 0.0
H672 H 0.78603 0.61438 0.77755 0.0
H673 H 0.79052 0.61986 0.8597 0.0
C674 C 0.35939 0.86548 0.76189 0.0
C675 C 0.33774 0.85 0.72804 0.0
C676 C 0.32934 0.81998 0.82297 0.0
C677 C 0.34877 0.83721 0.85905 0.0
N678 N 0.38031 0.87823 0.86572 0.0
N679 N 0.29733 0.8172 0.73158 0.0
C680 C 0.36338 0.86048 0.82927 0.0
C681 C 0.3214 0.82854 0.76003 0.0
N682 N 0.37664 0.88426 0.7293 0.0
N683 N 0.31921 0.79473 0.84787 0.0
H684 H 0.28991 0.82354 0.68643 0.0
H685 H 0.28296 0.80379 0.75565 0.0
H686 H 0.32503 0.78713 0.89323 0.0
H687 H 0.30749 0.77984 0.82088 0.0
H688 H 0.39469 0.89407 0.74946 0.0
H689 H 0.37408 0.88846 0.68029 0.0
H690 H 0.38919 0.89729 0.84864 0.0
H691 H 0.38386 0.87488 0.91475 0.0
C692 C 0.16312 0.36522 0.75948 0.0
C693 C 0.14439 0.34233 0.7422 0.0
C694 C 0.13338 0.33611 0.85694 0.0
C695 C 0.15737 0.3535 0.8739 0.0
N696 N 0.19847 0.38131 0.83639 0.0
N697 N 0.11462 0.30256 0.77882 0.0
C698 C 0.17302 0.36758 0.82406 0.0
C699 C 0.1299 0.32701 0.79192 0.0
N700 N 0.17145 0.3848 0.71432 0.0
N701 N 0.11376 0.32838 0.90274 0.0
H702 H 0.11273 0.29348 0.73318 0.0
H703 H 0.10631 0.28946 0.81499 0.0
H704 H 0.11488 0.33586 0.95016 0.0
H705 H 0.09469 0.3176 0.89163 0.0
H706 H 0.1833 0.40317 0.72587 0.0
H707 H 0.16352 0.38446 0.66728 0.0
H708 H 0.21162 0.38929 0.79985 0.0
H709 H 0.20829 0.38202 0.88136 0.0
C710 C 0.62801 0.17134 0.79898 0.0
C711 C 0.64218 0.15604 0.84917 0.0
C712 C 0.67022 0.12995 0.76787 0.0
C713 C 0.65478 0.14396 0.71766 0.0
N714 N 0.61054 0.16811 0.68958 0.0
N715 N 0.66703 0.11222 0.87685 0.0
C716 C 0.6308 0.16131 0.73459 0.0
C717 C 0.65998 0.13243 0.83211 0.0
N718 N 0.6137 0.19647 0.8105 0.0
N719 N 0.69564 0.1161 0.75656 0.0
H720 H 0.65831 0.11228 0.9232 0.0
H721 H 0.67836 0.09359 0.86506 0.0
H722 H 0.70599 0.11542 0.71223 0.0
H723 H 0.70832 0.10803 0.79377 0.0
H724 H 0.60552 0.20907 0.77336 0.0
H725 H 0.61276 0.2067 0.85502 0.0
H726 H 0.59166 0.17908 0.70123 0.0
H727 H 0.61083 0.15952 0.64305 0.0
C728 C 0.84765 0.31528 0.29977 0.0
C729 C 0.85546 0.33862 0.34026 0.0
C730 C 0.85422 0.37091 0.2469 0.0
C731 C 0.84254 0.3483 0.20871 0.0
N732 N 0.82147 0.30068 0.20475 0.0
N733 N 0.86406 0.38931 0.35448 0.0
C734 C 0.83764 0.32086 0.23653 0.0
C735 C 0.85808 0.36669 0.31444 0.0
N736 N 0.84943 0.28769 0.32166 0.0
N737 N 0.86262 0.39597 0.21838 0.0
H738 H 0.8686 0.38669 0.40335 0.0
H739 H 0.86295 0.41068 0.34008 0.0
H740 H 0.86086 0.39949 0.16895 0.0
H741 H 0.87376 0.41219 0.24256 0.0
H742 H 0.84677 0.26981 0.29181 0.0
H743 H 0.85636 0.28251 0.36787 0.0
H744 H 0.81467 0.28159 0.22598 0.0
H745 H 0.81186 0.30426 0.16016 0.0
C746 C 0.63975 0.82602 0.26692 0.0
C747 C 0.65442 0.84087 0.21678 0.0
C748 C 0.68197 0.86773 0.29815 0.0
C749 C 0.66605 0.85416 0.34824 0.0
N750 N 0.62321 0.82791 0.3775 0.0
N751 N 0.68199 0.88266 0.18657 0.0
C752 C 0.64272 0.83583 0.33162 0.0
C753 C 0.67301 0.86401 0.2331 0.0
N754 N 0.62472 0.80136 0.25436 0.0
N755 N 0.70685 0.88234 0.3112 0.0
H756 H 0.67492 0.88125 0.13894 0.0
H757 H 0.69359 0.90131 0.19697 0.0
H758 H 0.71571 0.88432 0.35703 0.0
H759 H 0.72048 0.88992 0.27512 0.0
H760 H 0.6163 0.78843 0.29071 0.0
H761 H 0.62317 0.79199 0.2089 0.0
H762 H 0.60445 0.81655 0.36667 0.0
H763 H 0.62408 0.83565 0.42475 0.0
C764 C 0.16725 0.635 0.32833 0.0
C765 C 0.14752 0.65715 0.3444 0.0
C766 C 0.13701 0.66243 0.22903 0.0
C767 C 0.16149 0.64559 0.21323 0.0
N768 N 0.20308 0.6192 0.25207 0.0
N769 N 0.1162 0.69521 0.30626 0.0
C770 C 0.17731 0.63236 0.26384 0.0
C771 C 0.13269 0.67154 0.29389 0.0
N772 N 0.17637 0.61636 0.37464 0.0
N773 N 0.11769 0.66958 0.18221 0.0
H774 H 0.11332 0.70403 0.35192 0.0
H775 H 0.10765 0.70795 0.2698 0.0
H776 H 0.11957 0.66225 0.13479 0.0
H777 H 0.09822 0.67977 0.19223 0.0
H778 H 0.1889 0.59836 0.36425 0.0
H779 H 0.16852 0.61701 0.42177 0.0
H780 H 0.21646 0.61196 0.28886 0.0
H781 H 0.21279 0.61822 0.20697 0.0
C782 C 0.3579 0.137 0.32942 0.0
C783 C 0.33742 0.15465 0.36146 0.0
C784 C 0.33186 0.18372 0.26392 0.0
C785 C 0.35046 0.16474 0.23024 0.0
N786 N 0.37911 0.12174 0.22756 0.0
N787 N 0.30062 0.19117 0.35575 0.0
C788 C 0.36298 0.14092 0.26208 0.0
C789 C 0.32328 0.17707 0.3278 0.0
N790 N 0.37312 0.1172 0.36382 0.0
N791 N 0.32292 0.20861 0.23537 0.0
H792 H 0.29323 0.18677 0.40211 0.0
H793 H 0.28734 0.20532 0.33092 0.0
H794 H 0.32847 0.21425 0.18838 0.0
H795 H 0.31216 0.22491 0.26003 0.0
H796 H 0.3904 0.10565 0.34513 0.0
H797 H 0.36977 0.11375 0.41289 0.0
H798 H 0.38638 0.10229 0.24592 0.0
H799 H 0.38373 0.1245 0.17876 0.0
loop_
_geom_bond_atom_site_label_1
_geom_bond_atom_site_label_2
_geom_bond_distance
_geom_bond_site_symmetry_2
_ccdc_geom_bond_type
O0 Cd1 2.223 . S
O0 C8 1.315 . S
Cd1 O0 2.223 . S
Cd1 O4 2.297 . S
Cd1 O5 2.439 . S
Cd1 O11 2.240 . S
Cd2 O3 2.240 1_556 S
Cd2 O10 2.223 1_556 S
Cd2 O12 2.297 . S
Cd2 O13 2.439 . S
O3 Cd2 2.240 1_554 S
O3 C8 1.279 . S
O4 Cd1 2.297 . S
O4 C6 1.247 . S
O5 Cd1 2.439 . S
O5 C6 1.208 . S
C6 O4 1.247 . S
C6 O5 1.208 . S
C7 O12 1.247 . S
C7 O13 1.208 . S
C8 O0 1.315 . S
C8 O3 1.279 . S
C9 O10 1.315 . S
C9 O11 1.279 . S
O10 Cd2 2.223 1_554 S
O10 C9 1.315 . S
O11 Cd1 2.240 . S
O11 C9 1.279 . S
O12 Cd2 2.297 . S
O12 C7 1.247 . S
O13 Cd2 2.439 . S
O13 C7 1.208 . S
O14 Cd15 2.223 . S
O14 C22 1.315 . S
Cd15 O14 2.223 . S
Cd15 O18 2.297 . S
Cd15 O19 2.439 . S
Cd15 O25 2.240 . S
Cd16 O17 2.240 1_556 S
Cd16 O24 2.223 1_556 S
Cd16 O26 2.297 . S
Cd16 O27 2.439 . S
O17 Cd16 2.240 1_554 S
O17 C22 1.279 . S
O18 Cd15 2.297 . S
O18 C20 1.247 . S
O19 Cd15 2.439 . S
O19 C20 1.208 . S
C20 O18 1.247 . S
C20 O19 1.208 . S
C21 O26 1.247 . S
C21 O27 1.208 . S
C22 O14 1.315 . S
C22 O17 1.279 . S
C23 O24 1.315 . S
C23 O25 1.279 . S
O24 Cd16 2.223 1_554 S
O24 C23 1.315 . S
O25 Cd15 2.240 . S
O25 C23 1.279 . S
O26 Cd16 2.297 . S
O26 C21 1.247 . S
O27 Cd16 2.439 . S
O27 C21 1.208 . S
O28 Cd29 2.223 . S
O28 C36 1.315 . S
Cd29 O28 2.223 . S
Cd29 O32 2.297 . S
Cd29 O33 2.439 . S
Cd29 O39 2.240 . S
Cd30 O31 2.240 1_556 S
Cd30 O38 2.223 1_556 S
Cd30 O40 2.297 . S
Cd30 O41 2.439 . S
O31 Cd30 2.240 1_554 S
O31 C36 1.279 . S
O32 Cd29 2.297 . S
O32 C34 1.247 . S
O33 Cd29 2.439 . S
O33 C34 1.208 . S
C34 O32 1.247 . S
C34 O33 1.208 . S
C35 O40 1.247 . S
C35 O41 1.208 . S
C36 O28 1.315 . S
C36 O31 1.279 . S
C37 O38 1.315 . S
C37 O39 1.279 . S
O38 Cd30 2.223 1_554 S
O38 C37 1.315 . S
O39 Cd29 2.240 . S
O39 C37 1.279 . S
O40 Cd30 2.297 . S
O40 C35 1.247 . S
O41 Cd30 2.439 . S
O41 C35 1.208 . S
O42 Cd43 2.223 . S
O42 C50 1.315 . S
Cd43 O42 2.223 . S
Cd43 O46 2.297 . S
Cd43 O47 2.439 . S
Cd43 O53 2.240 . S
Cd44 O45 2.240 1_556 S
Cd44 O52 2.223 1_556 S
Cd44 O54 2.297 . S
Cd44 O55 2.439 . S
O45 Cd44 2.240 1_554 S
O45 C50 1.279 . S
O46 Cd43 2.297 . S
O46 C48 1.247 . S
O47 Cd43 2.439 . S
O47 C48 1.208 . S
C48 O46 1.247 . S
C48 O47 1.208 . S
C49 O54 1.247 . S
C49 O55 1.208 . S
C50 O42 1.315 . S
C50 O45 1.279 . S
C51 O52 1.315 . S
C51 O53 1.279 . S
O52 Cd44 2.223 1_554 S
O52 C51 1.315 . S
O53 Cd43 2.240 . S
O53 C51 1.279 . S
O54 Cd44 2.297 . S
O54 C49 1.247 . S
O55 Cd44 2.439 . S
O55 C49 1.208 . S
O56 Cd57 2.223 . S
O56 C64 1.315 . S
Cd57 O56 2.223 . S
Cd57 O60 2.297 . S
Cd57 O61 2.439 1_556 S
Cd57 O67 2.240 1_556 S
Cd58 O59 2.240 1_554 S
Cd58 O66 2.223 1_554 S
Cd58 O68 2.297 . S
Cd58 O69 2.439 . S
O59 Cd58 2.240 1_556 S
O59 C64 1.279 . S
O60 Cd57 2.297 . S
O60 C62 1.247 . S
O61 Cd57 2.439 1_554 S
O61 C62 1.208 1_554 S
C62 O60 1.247 . S
C62 O61 1.208 1_556 S
C63 O68 1.247 . S
C63 O69 1.208 . S
C64 O56 1.315 . S
C64 O59 1.279 . S
C65 O66 1.315 1_554 S
C65 O67 1.279 . S
O66 Cd58 2.223 1_556 S
O66 C65 1.315 1_556 S
O67 Cd57 2.240 1_554 S
O67 C65 1.279 . S
O68 Cd58 2.297 . S
O68 C63 1.247 . S
O69 Cd58 2.439 . S
O69 C63 1.208 . S
O70 Cd71 2.223 . S
O70 C78 1.315 . S
Cd71 O70 2.223 . S
Cd71 O74 2.297 . S
Cd71 O75 2.439 1_556 S
Cd71 O81 2.240 1_556 S
Cd72 O73 2.240 1_554 S
Cd72 O80 2.223 1_554 S
Cd72 O82 2.297 . S
Cd72 O83 2.439 . S
O73 Cd72 2.240 1_556 S
O73 C78 1.279 . S
O74 Cd71 2.297 . S
O74 C76 1.247 . S
O75 Cd71 2.439 1_554 S
O75 C76 1.208 1_554 S
C76 O74 1.247 . S
C76 O75 1.208 1_556 S
C77 O82 1.247 . S
C77 O83 1.208 . S
C78 O70 1.315 . S
C78 O73 1.279 . S
C79 O80 1.315 1_554 S
C79 O81 1.279 . S
O80 Cd72 2.223 1_556 S
O80 C79 1.315 1_556 S
O81 Cd71 2.240 1_554 S
O81 C79 1.279 . S
O82 Cd72 2.297 . S
O82 C77 1.247 . S
O83 Cd72 2.439 . S
O83 C77 1.208 . S
O84 Cd85 2.223 . S
O84 C92 1.315 . S
Cd85 O84 2.223 . S
Cd85 O88 2.297 . S
Cd85 O89 2.439 1_556 S
Cd85 O95 2.240 1_556 S
Cd86 O87 2.240 1_554 S
Cd86 O94 2.223 1_554 S
Cd86 O96 2.297 . S
Cd86 O97 2.439 . S
O87 Cd86 2.240 1_556 S
O87 C92 1.279 . S
O88 Cd85 2.297 . S
O88 C90 1.247 . S
O89 Cd85 2.439 1_554 S
O89 C90 1.208 1_554 S
C90 O88 1.247 . S
C90 O89 1.208 1_556 S
C91 O96 1.247 . S
C91 O97 1.208 . S
C92 O84 1.315 . S
C92 O87 1.279 . S
C93 O94 1.315 1_554 S
C93 O95 1.279 . S
O94 Cd86 2.223 1_556 S
O94 C93 1.315 1_556 S
O95 Cd85 2.240 1_554 S
O95 C93 1.279 . S
O96 Cd86 2.297 . S
O96 C91 1.247 . S
O97 Cd86 2.439 . S
O97 C91 1.208 . S
O98 Cd99 2.223 . S
O98 C106 1.315 . S
Cd99 O98 2.223 . S
Cd99 O102 2.297 . S
Cd99 O103 2.439 1_556 S
Cd99 O109 2.240 1_556 S
Cd100 O101 2.240 1_554 S
Cd100 O108 2.223 1_554 S
Cd100 O110 2.297 . S
Cd100 O111 2.439 . S
O101 Cd100 2.240 1_556 S
O101 C106 1.279 . S
O102 Cd99 2.297 . S
O102 C104 1.247 . S
O103 Cd99 2.439 1_554 S
O103 C104 1.208 1_554 S
C104 O102 1.247 . S
C104 O103 1.208 1_556 S
C105 O110 1.247 . S
C105 O111 1.208 . S
C106 O98 1.315 . S
C106 O101 1.279 . S
C107 O108 1.315 1_554 S
C107 O109 1.279 . S
O108 Cd100 2.223 1_556 S
O108 C107 1.315 1_556 S
O109 Cd99 2.240 1_554 S
O109 C107 1.279 . S
O110 Cd100 2.297 . S
O110 C105 1.247 . S
O111 Cd100 2.439 . S
O111 C105 1.208 . S
O112 Cd113 2.223 . S
O112 C120 1.315 . S
Cd113 O112 2.223 . S
Cd113 O116 2.297 . S
Cd113 O117 2.439 . S
Cd113 O123 2.240 . S
Cd114 O115 2.240 . S
Cd114 O122 2.223 . S
Cd114 O124 2.297 . S
Cd114 O125 2.439 . S
O115 Cd114 2.240 . S
O115 C120 1.279 . S
O116 Cd113 2.297 . S
O116 C118 1.247 . S
O117 Cd113 2.439 . S
O117 C118 1.208 . S
C118 O116 1.247 . S
C118 O117 1.208 . S
C119 O124 1.247 . S
C119 O125 1.208 . S
C120 O112 1.315 . S
C120 O115 1.279 . S
C121 O122 1.315 . S
C121 O123 1.279 . S
O122 Cd114 2.223 . S
O122 C121 1.315 . S
O123 Cd113 2.240 . S
O123 C121 1.279 . S
O124 Cd114 2.297 . S
O124 C119 1.247 . S
O125 Cd114 2.439 . S
O125 C119 1.208 . S
O126 Cd127 2.223 . S
O126 C134 1.315 . S
Cd127 O126 2.223 . S
Cd127 O130 2.297 . S
Cd127 O131 2.439 . S
Cd127 O137 2.240 . S
Cd128 O129 2.240 . S
Cd128 O136 2.223 . S
Cd128 O138 2.297 . S
Cd128 O139 2.439 . S
O129 Cd128 2.240 . S
O129 C134 1.279 . S
O130 Cd127 2.297 . S
O130 C132 1.247 . S
O131 Cd127 2.439 . S
O131 C132 1.208 . S
C132 O130 1.247 . S
C132 O131 1.208 . S
C133 O138 1.247 . S
C133 O139 1.208 . S
C134 O126 1.315 . S
C134 O129 1.279 . S
C135 O136 1.315 . S
C135 O137 1.279 . S
O136 Cd128 2.223 . S
O136 C135 1.315 . S
O137 Cd127 2.240 . S
O137 C135 1.279 . S
O138 Cd128 2.297 . S
O138 C133 1.247 . S
O139 Cd128 2.439 . S
O139 C133 1.208 . S
O140 Cd141 2.223 . S
O140 C148 1.315 . S
Cd141 O140 2.223 . S
Cd141 O144 2.297 . S
Cd141 O145 2.439 . S
Cd141 O151 2.240 . S
Cd142 O143 2.240 . S
Cd142 O150 2.223 . S
Cd142 O152 2.297 . S
Cd142 O153 2.439 . S
O143 Cd142 2.240 . S
O143 C148 1.279 . S
O144 Cd141 2.297 . S
O144 C146 1.247 . S
O145 Cd141 2.439 . S
O145 C146 1.208 . S
C146 O144 1.247 . S
C146 O145 1.208 . S
C147 O152 1.247 . S
C147 O153 1.208 . S
C148 O140 1.315 . S
C148 O143 1.279 . S
C149 O150 1.315 . S
C149 O151 1.279 . S
O150 Cd142 2.223 . S
O150 C149 1.315 . S
O151 Cd141 2.240 . S
O151 C149 1.279 . S
O152 Cd142 2.297 . S
O152 C147 1.247 . S
O153 Cd142 2.439 . S
O153 C147 1.208 . S
O154 Cd155 2.223 . S
O154 C162 1.315 . S
Cd155 O154 2.223 . S
Cd155 O158 2.297 . S
Cd155 O159 2.439 . S
Cd155 O165 2.240 . S
Cd156 O157 2.240 . S
Cd156 O164 2.223 . S
Cd156 O166 2.297 . S
Cd156 O167 2.439 . S
O157 Cd156 2.240 . S
O157 C162 1.279 . S
O158 Cd155 2.297 . S
O158 C160 1.247 . S
O159 Cd155 2.439 . S
O159 C160 1.208 . S
C160 O158 1.247 . S
C160 O159 1.208 . S
C161 O166 1.247 . S
C161 O167 1.208 . S
C162 O154 1.315 . S
C162 O157 1.279 . S
C163 O164 1.315 . S
C163 O165 1.279 . S
O164 Cd156 2.223 . S
O164 C163 1.315 . S
O165 Cd155 2.240 . S
O165 C163 1.279 . S
O166 Cd156 2.297 . S
O166 C161 1.247 . S
O167 Cd156 2.439 . S
O167 C161 1.208 . S
O168 Cd169 2.223 . S
O168 C176 1.315 . S
Cd169 O168 2.223 . S
Cd169 O172 2.297 . S
Cd169 O173 2.439 . S
Cd169 O179 2.240 . S
Cd170 O171 2.240 . S
Cd170 O178 2.223 . S
Cd170 O180 2.297 . S
Cd170 O181 2.439 . S
O171 Cd170 2.240 . S
O171 C176 1.279 . S
O172 Cd169 2.297 . S
O172 C174 1.247 . S
O173 Cd169 2.439 . S
O173 C174 1.208 . S
C174 O172 1.247 . S
C174 O173 1.208 . S
C175 O180 1.247 . S
C175 O181 1.208 . S
C176 O168 1.315 . S
C176 O171 1.279 . S
C177 O178 1.315 . S
C177 O179 1.279 . S
O178 Cd170 2.223 . S
O178 C177 1.315 . S
O179 Cd169 2.240 . S
O179 C177 1.279 . S
O180 Cd170 2.297 . S
O180 C175 1.247 . S
O181 Cd170 2.439 . S
O181 C175 1.208 . S
O182 Cd183 2.223 . S
O182 C190 1.315 . S
Cd183 O182 2.223 . S
Cd183 O186 2.297 . S
Cd183 O187 2.439 . S
Cd183 O193 2.240 . S
Cd184 O185 2.240 . S
Cd184 O192 2.223 . S
Cd184 O194 2.297 . S
Cd184 O195 2.439 . S
O185 Cd184 2.240 . S
O185 C190 1.279 . S
O186 Cd183 2.297 . S
O186 C188 1.247 . S
O187 Cd183 2.439 . S
O187 C188 1.208 . S
C188 O186 1.247 . S
C188 O187 1.208 . S
C189 O194 1.247 . S
C189 O195 1.208 . S
C190 O182 1.315 . S
C190 O185 1.279 . S
C191 O192 1.315 . S
C191 O193 1.279 . S
O192 Cd184 2.223 . S
O192 C191 1.315 . S
O193 Cd183 2.240 . S
O193 C191 1.279 . S
O194 Cd184 2.297 . S
O194 C189 1.247 . S
O195 Cd184 2.439 . S
O195 C189 1.208 . S
O196 Cd197 2.223 . S
O196 C204 1.315 . S
Cd197 O196 2.223 . S
Cd197 O200 2.297 . S
Cd197 O201 2.439 . S
Cd197 O207 2.240 . S
Cd198 O199 2.240 . S
Cd198 O206 2.223 . S
Cd198 O208 2.297 . S
Cd198 O209 2.439 . S
O199 Cd198 2.240 . S
O199 C204 1.279 . S
O200 Cd197 2.297 . S
O200 C202 1.247 . S
O201 Cd197 2.439 . S
O201 C202 1.208 . S
C202 O200 1.247 . S
C202 O201 1.208 . S
C203 O208 1.247 . S
C203 O209 1.208 . S
C204 O196 1.315 . S
C204 O199 1.279 . S
C205 O206 1.315 . S
C205 O207 1.279 . S
O206 Cd198 2.223 . S
O206 C205 1.315 . S
O207 Cd197 2.240 . S
O207 C205 1.279 . S
O208 Cd198 2.297 . S
O208 C203 1.247 . S
O209 Cd198 2.439 . S
O209 C203 1.208 . S
O210 Cd211 2.223 . S
O210 C218 1.315 . S
Cd211 O210 2.223 . S
Cd211 O214 2.297 . S
Cd211 O215 2.439 . S
Cd211 O221 2.240 . S
Cd212 O213 2.240 . S
Cd212 O220 2.223 . S
Cd212 O222 2.297 . S
Cd212 O223 2.439 . S
O213 Cd212 2.240 . S
O213 C218 1.279 . S
O214 Cd211 2.297 . S
O214 C216 1.247 . S
O215 Cd211 2.439 . S
O215 C216 1.208 . S
C216 O214 1.247 . S
C216 O215 1.208 . S
C217 O222 1.247 . S
C217 O223 1.208 . S
C218 O210 1.315 . S
C218 O213 1.279 . S
C219 O220 1.315 . S
C219 O221 1.279 . S
O220 Cd212 2.223 . S
O220 C219 1.315 . S
O221 Cd211 2.240 . S
O221 C219 1.279 . S
O222 Cd212 2.297 . S
O222 C217 1.247 . S
O223 Cd212 2.439 . S
O223 C217 1.208 . S
C224 C225 1.363 . S
C224 C230 1.379 . S
C224 N232 1.356 . S
C225 C224 1.363 . S
C225 C231 1.363 1_556 S
C226 C227 1.363 . S
C226 C231 1.379 . S
C226 N233 1.356 . S
C227 C226 1.363 . S
C227 C230 1.363 1_554 S
N228 C230 1.356 . S
N228 H240 0.984 . S
N228 H241 0.985 . S
N229 C231 1.356 . S
N229 H234 0.984 . S
N229 H235 0.985 . S
C230 C224 1.379 . S
C230 C227 1.363 1_556 S
C230 N228 1.356 . S
C231 C225 1.363 1_554 S
C231 C226 1.379 . S
C231 N229 1.356 . S
N232 C224 1.356 . S
N232 H238 0.984 . S
N232 H239 0.984 . S
N233 C226 1.356 . S
N233 H236 0.984 . S
N233 H237 0.985 . S
H234 N229 0.984 . S
H235 N229 0.985 . S
H236 N233 0.984 . S
H237 N233 0.985 . S
H238 N232 0.984 . S
H239 N232 0.984 . S
H240 N228 0.984 . S
H241 N228 0.985 . S
C242 C243 1.363 . S
C242 C248 1.379 . S
C242 N250 1.356 . S
C243 C242 1.363 . S
C243 C249 1.363 1_556 S
C244 C245 1.363 . S
C244 C249 1.379 . S
C244 N251 1.356 . S
C245 C244 1.363 . S
C245 C248 1.363 1_554 S
N246 C248 1.356 . S
N246 H258 0.984 . S
N246 H259 0.982 1_556 S
N247 C249 1.356 . S
N247 H252 0.984 . S
N247 H253 0.985 . S
C248 C242 1.379 . S
C248 C245 1.363 1_556 S
C248 N246 1.356 . S
C249 C243 1.363 1_554 S
C249 C244 1.379 . S
C249 N247 1.356 . S
N250 C242 1.356 . S
N250 H256 0.984 . S
N250 H257 0.984 . S
N251 C244 1.356 . S
N251 H254 0.984 . S
N251 H255 0.985 . S
H252 N247 0.984 . S
H253 N247 0.985 . S
H254 N251 0.984 . S
H255 N251 0.985 . S
H256 N250 0.984 . S
H257 N250 0.984 . S
H258 N246 0.984 . S
H259 N246 0.982 1_554 S
C260 C261 1.363 . S
C260 C266 1.379 . S
C260 N268 1.356 . S
C261 C260 1.363 . S
C261 C267 1.363 1_556 S
C262 C263 1.363 . S
C262 C267 1.379 . S
C262 N269 1.356 . S
C263 C262 1.363 . S
C263 C266 1.363 1_554 S
N264 C266 1.356 . S
N264 H276 0.984 . S
N264 H277 0.985 . S
N265 C267 1.356 . S
N265 H270 0.984 . S
N265 H271 0.985 . S
C266 C260 1.379 . S
C266 C263 1.363 1_556 S
C266 N264 1.356 . S
C267 C261 1.363 1_554 S
C267 C262 1.379 . S
C267 N265 1.356 . S
N268 C260 1.356 . S
N268 H274 0.984 . S
N268 H275 0.984 . S
N269 C262 1.356 . S
N269 H272 0.984 . S
N269 H273 0.985 . S
H270 N265 0.984 . S
H271 N265 0.985 . S
H272 N269 0.984 . S
H273 N269 0.985 . S
H274 N268 0.984 . S
H275 N268 0.984 . S
H276 N264 0.984 . S
H277 N264 0.985 . S
C278 C279 1.363 1_554 S
C278 C284 1.379 . S
C278 N286 1.356 . S
C279 C278 1.363 1_556 S
C279 C285 1.363 . S
C280 C281 1.363 1_556 S
C280 C285 1.379 . S
C280 N287 1.356 . S
C281 C280 1.363 1_554 S
C281 C284 1.363 . S
N282 C284 1.356 . S
N282 H294 0.984 . S
N282 H295 0.985 . S
N283 C285 1.356 . S
N283 H288 0.984 . S
N283 H289 0.985 . S
C284 C278 1.379 . S
C284 C281 1.363 . S
C284 N282 1.356 . S
C285 C279 1.363 . S
C285 C280 1.379 . S
C285 N283 1.356 . S
N286 C278 1.356 . S
N286 H292 0.984 . S
N286 H293 0.984 . S
N287 C280 1.356 . S
N287 H290 0.982 1_556 S
N287 H291 0.985 . S
H288 N283 0.984 . S
H289 N283 0.985 . S
H290 N287 0.982 1_554 S
H291 N287 0.985 . S
H292 N286 0.984 . S
H293 N286 0.984 . S
H294 N282 0.984 . S
H295 N282 0.985 . S
C296 C297 1.363 . S
C296 C302 1.379 1_545 S
C296 N304 1.356 . S
C297 C296 1.363 . S
C297 C303 1.363 . S
C298 C299 1.363 . S
C298 C303 1.379 1_565 S
C298 N305 1.356 . S
C299 C298 1.363 . S
C299 C302 1.363 . S
N300 C302 1.356 . S
N300 H312 0.984 . S
N300 H313 0.985 . S
N301 C303 1.356 . S
N301 H306 0.984 . S
N301 H307 0.985 . S
C302 C296 1.379 1_565 S
C302 C299 1.363 . S
C302 N300 1.356 . S
C303 C297 1.363 . S
C303 C298 1.379 1_545 S
C303 N301 1.356 . S
N304 C296 1.356 . S
N304 H310 0.984 . S
N304 H311 0.984 . S
N305 C298 1.356 . S
N305 H308 0.984 . S
N305 H309 0.985 . S
H306 N301 0.984 . S
H307 N301 0.985 . S
H308 N305 0.984 . S
H309 N305 0.985 . S
H310 N304 0.984 . S
H311 N304 0.984 . S
H312 N300 0.984 . S
H313 N300 0.985 . S
C314 C315 1.363 . S
C314 C320 1.379 1_655 S
C314 N322 1.356 . S
C315 C314 1.363 . S
C315 C321 1.363 . S
C316 C317 1.363 . S
C316 C321 1.379 1_455 S
C316 N323 1.356 . S
C317 C316 1.363 . S
C317 C320 1.363 . S
N318 C320 1.356 . S
N318 H330 0.984 . S
N318 H331 0.985 . S
N319 C321 1.356 . S
N319 H324 0.984 . S
N319 H325 0.985 . S
C320 C314 1.379 1_455 S
C320 C317 1.363 . S
C320 N318 1.356 . S
C321 C315 1.363 . S
C321 C316 1.379 1_655 S
C321 N319 1.356 . S
N322 C314 1.356 . S
N322 H328 0.984 . S
N322 H329 0.984 . S
N323 C316 1.356 . S
N323 H326 0.984 . S
N323 H327 0.985 . S
H324 N319 0.984 . S
H325 N319 0.985 . S
H326 N323 0.984 . S
H327 N323 0.985 . S
H328 N322 0.984 . S
H329 N322 0.984 . S
H330 N318 0.984 . S
H331 N318 0.985 . S
C332 C333 1.363 . S
C332 C338 1.379 1_545 S
C332 N340 1.356 . S
C333 C332 1.363 . S
C333 C339 1.363 . S
C334 C335 1.363 . S
C334 C339 1.379 1_565 S
C334 N341 1.356 . S
C335 C334 1.363 . S
C335 C338 1.363 . S
N336 C338 1.356 . S
N336 H348 0.984 . S
N336 H349 0.985 . S
N337 C339 1.356 . S
N337 H342 0.984 . S
N337 H343 0.985 . S
C338 C332 1.379 1_565 S
C338 C335 1.363 . S
C338 N336 1.356 . S
C339 C333 1.363 . S
C339 C334 1.379 1_545 S
C339 N337 1.356 . S
N340 C332 1.356 . S
N340 H346 0.984 . S
N340 H347 0.984 . S
N341 C334 1.356 . S
N341 H344 0.984 . S
N341 H345 0.985 . S
H342 N337 0.984 . S
H343 N337 0.985 . S
H344 N341 0.984 . S
H345 N341 0.985 . S
H346 N340 0.984 . S
H347 N340 0.984 . S
H348 N336 0.984 . S
H349 N336 0.985 . S
C350 C351 1.363 . S
C350 C356 1.379 1_455 S
C350 N358 1.356 . S
C351 C350 1.363 . S
C351 C357 1.363 . S
C352 C353 1.363 . S
C352 C357 1.379 1_655 S
C352 N359 1.356 . S
C353 C352 1.363 . S
C353 C356 1.363 . S
N354 C356 1.356 . S
N354 H366 0.984 . S
N354 H367 0.985 . S
N355 C357 1.356 . S
N355 H360 0.984 . S
N355 H361 0.985 . S
C356 C350 1.379 1_655 S
C356 C353 1.363 . S
C356 N354 1.356 . S
C357 C351 1.363 . S
C357 C352 1.379 1_455 S
C357 N355 1.356 . S
N358 C350 1.356 . S
N358 H364 0.984 . S
N358 H365 0.984 . S
N359 C352 1.356 . S
N359 H362 0.984 . S
N359 H363 0.985 . S
H360 N355 0.984 . S
H361 N355 0.985 . S
H362 N359 0.984 . S
H363 N359 0.985 . S
H364 N358 0.984 . S
H365 N358 0.984 . S
H366 N354 0.984 . S
H367 N354 0.985 . S
C368 C369 1.363 . S
C368 C374 1.379 . S
C368 N376 1.356 . S
C369 C368 1.363 . S
C369 C375 1.363 1_554 S
C370 C371 1.363 1_556 S
C370 C375 1.379 . S
C370 N377 1.356 . S
C371 C370 1.363 1_554 S
C371 C374 1.363 . S
N372 C374 1.356 . S
N372 H384 0.984 . S
N372 H385 0.985 . S
N373 C375 1.356 . S
N373 H378 0.984 . S
N373 H379 0.985 . S
C374 C368 1.379 . S
C374 C371 1.363 . S
C374 N372 1.356 . S
C375 C369 1.363 1_556 S
C375 C370 1.379 . S
C375 N373 1.356 . S
N376 C368 1.356 . S
N376 H382 0.984 . S
N376 H383 0.984 . S
N377 C370 1.356 . S
N377 H380 0.984 . S
N377 H381 0.985 . S
H378 N373 0.984 . S
H379 N373 0.985 . S
H380 N377 0.984 . S
H381 N377 0.985 . S
H382 N376 0.984 . S
H383 N376 0.984 . S
H384 N372 0.984 . S
H385 N372 0.985 . S
C386 C387 1.363 . S
C386 C392 1.379 . S
C386 N394 1.356 . S
C387 C386 1.363 . S
C387 C393 1.363 1_554 S
C388 C389 1.363 1_556 S
C388 C393 1.379 . S
C388 N395 1.356 . S
C389 C388 1.363 1_554 S
C389 C392 1.363 . S
N390 C392 1.356 . S
N390 H402 0.984 . S
N390 H403 0.985 . S
N391 C393 1.356 . S
N391 H396 0.984 . S
N391 H397 0.985 . S
C392 C386 1.379 . S
C392 C389 1.363 . S
C392 N390 1.356 . S
C393 C387 1.363 1_556 S
C393 C388 1.379 . S
C393 N391 1.356 . S
N394 C386 1.356 . S
N394 H400 0.984 . S
N394 H401 0.984 . S
N395 C388 1.356 . S
N395 H398 0.984 . S
N395 H399 0.985 . S
H396 N391 0.984 . S
H397 N391 0.985 . S
H398 N395 0.984 . S
H399 N395 0.985 . S
H400 N394 0.984 . S
H401 N394 0.984 . S
H402 N390 0.984 . S
H403 N390 0.985 . S
C404 C405 1.363 . S
C404 C410 1.379 . S
C404 N412 1.356 . S
C405 C404 1.363 . S
C405 C411 1.363 1_554 S
C406 C407 1.363 1_556 S
C406 C411 1.379 . S
C406 N413 1.356 . S
C407 C406 1.363 1_554 S
C407 C410 1.363 . S
N408 C410 1.356 . S
N408 H420 0.984 . S
N408 H421 0.985 . S
N409 C411 1.356 . S
N409 H414 0.984 . S
N409 H415 0.985 . S
C410 C404 1.379 . S
C410 C407 1.363 . S
C410 N408 1.356 . S
C411 C405 1.363 1_556 S
C411 C406 1.379 . S
C411 N409 1.356 . S
N412 C404 1.356 . S
N412 H418 0.984 . S
N412 H419 0.984 . S
N413 C406 1.356 . S
N413 H416 0.984 . S
N413 H417 0.985 . S
H414 N409 0.984 . S
H415 N409 0.985 . S
H416 N413 0.984 . S
H417 N413 0.985 . S
H418 N412 0.984 . S
H419 N412 0.984 . S
H420 N408 0.984 . S
H421 N408 0.985 . S
C422 C423 1.363 1_556 S
C422 C428 1.379 . S
C422 N430 1.356 . S
C423 C422 1.363 1_554 S
C423 C429 1.363 . S
C424 C425 1.363 . S
C424 C429 1.379 . S
C424 N431 1.356 . S
C425 C424 1.363 . S
C425 C428 1.363 1_554 S
N426 C428 1.356 . S
N426 H438 0.984 . S
N426 H439 0.985 . S
N427 C429 1.356 . S
N427 H432 0.984 . S
N427 H433 0.985 . S
C428 C422 1.379 . S
C428 C425 1.363 1_556 S
C428 N426 1.356 . S
C429 C423 1.363 . S
C429 C424 1.379 . S
C429 N427 1.356 . S
N430 C422 1.356 . S
N430 H436 0.984 . S
N430 H437 0.984 . S
N431 C424 1.356 . S
N431 H434 0.984 . S
N431 H435 0.985 . S
H432 N427 0.984 . S
H433 N427 0.985 . S
H434 N431 0.984 . S
H435 N431 0.985 . S
H436 N430 0.984 . S
H437 N430 0.984 . S
H438 N426 0.984 . S
H439 N426 0.985 . S
C440 C441 1.363 . S
C440 C446 1.379 . S
C440 N448 1.356 . S
C441 C440 1.363 . S
C441 C447 1.363 . S
C442 C443 1.363 . S
C442 C447 1.379 . S
C442 N449 1.356 . S
C443 C442 1.363 . S
C443 C446 1.363 . S
N444 C446 1.356 . S
N444 H456 0.984 . S
N444 H457 0.985 . S
N445 C447 1.356 . S
N445 H450 0.984 . S
N445 H451 0.985 . S
C446 C440 1.379 . S
C446 C443 1.363 . S
C446 N444 1.356 . S
C447 C441 1.363 . S
C447 C442 1.379 . S
C447 N445 1.356 . S
N448 C440 1.356 . S
N448 H454 0.984 . S
N448 H455 0.984 . S
N449 C442 1.356 . S
N449 H452 0.984 . S
N449 H453 0.985 . S
H450 N445 0.984 . S
H451 N445 0.985 . S
H452 N449 0.984 . S
H453 N449 0.985 . S
H454 N448 0.984 . S
H455 N448 0.984 . S
H456 N444 0.984 . S
H457 N444 0.985 . S
C458 C459 1.363 . S
C458 C464 1.379 . S
C458 N466 1.356 . S
C459 C458 1.363 . S
C459 C465 1.363 . S
C460 C461 1.363 . S
C460 C465 1.379 . S
C460 N467 1.356 . S
C461 C460 1.363 . S
C461 C464 1.363 . S
N462 C464 1.356 . S
N462 H474 0.984 . S
N462 H475 0.985 . S
N463 C465 1.356 . S
N463 H468 0.984 . S
N463 H469 0.985 . S
C464 C458 1.379 . S
C464 C461 1.363 . S
C464 N462 1.356 . S
C465 C459 1.363 . S
C465 C460 1.379 . S
C465 N463 1.356 . S
N466 C458 1.356 . S
N466 H472 0.984 . S
N466 H473 0.984 . S
N467 C460 1.356 . S
N467 H470 0.984 . S
N467 H471 0.985 . S
H468 N463 0.984 . S
H469 N463 0.985 . S
H470 N467 0.984 . S
H471 N467 0.985 . S
H472 N466 0.984 . S
H473 N466 0.984 . S
H474 N462 0.984 . S
H475 N462 0.985 . S
C476 C477 1.363 . S
C476 C482 1.379 . S
C476 N484 1.356 . S
C477 C476 1.363 . S
C477 C483 1.363 . S
C478 C479 1.363 . S
C478 C483 1.379 . S
C478 N485 1.356 . S
C479 C478 1.363 . S
C479 C482 1.363 . S
N480 C482 1.356 . S
N480 H492 0.984 . S
N480 H493 0.985 . S
N481 C483 1.356 . S
N481 H486 0.984 . S
N481 H487 0.985 . S
C482 C476 1.379 . S
C482 C479 1.363 . S
C482 N480 1.356 . S
C483 C477 1.363 . S
C483 C478 1.379 . S
C483 N481 1.356 . S
N484 C476 1.356 . S
N484 H490 0.984 . S
N484 H491 0.984 . S
N485 C478 1.356 . S
N485 H488 0.984 . S
N485 H489 0.985 . S
H486 N481 0.984 . S
H487 N481 0.985 . S
H488 N485 0.984 . S
H489 N485 0.985 . S
H490 N484 0.984 . S
H491 N484 0.984 . S
H492 N480 0.984 . S
H493 N480 0.985 . S
C494 C495 1.363 . S
C494 C500 1.379 . S
C494 N502 1.356 . S
C495 C494 1.363 . S
C495 C501 1.363 . S
C496 C497 1.363 . S
C496 C501 1.379 . S
C496 N503 1.356 . S
C497 C496 1.363 . S
C497 C500 1.363 . S
N498 C500 1.356 . S
N498 H510 0.984 . S
N498 H511 0.985 . S
N499 C501 1.356 . S
N499 H504 0.984 . S
N499 H505 0.985 . S
C500 C494 1.379 . S
C500 C497 1.363 . S
C500 N498 1.356 . S
C501 C495 1.363 . S
C501 C496 1.379 . S
C501 N499 1.356 . S
N502 C494 1.356 . S
N502 H508 0.984 . S
N502 H509 0.984 . S
N503 C496 1.356 . S
N503 H506 0.984 . S
N503 H507 0.985 . S
H504 N499 0.984 . S
H505 N499 0.985 . S
H506 N503 0.984 . S
H507 N503 0.985 . S
H508 N502 0.984 . S
H509 N502 0.984 . S
H510 N498 0.984 . S
H511 N498 0.985 . S
C512 C513 1.363 . S
C512 C518 1.379 . S
C512 N520 1.356 . S
C513 C512 1.363 . S
C513 C519 1.363 . S
C514 C515 1.363 . S
C514 C519 1.379 . S
C514 N521 1.356 . S
C515 C514 1.363 . S
C515 C518 1.363 . S
N516 C518 1.356 . S
N516 H528 0.984 . S
N516 H529 0.985 . S
N517 C519 1.356 . S
N517 H522 0.984 . S
N517 H523 0.985 . S
C518 C512 1.379 . S
C518 C515 1.363 . S
C518 N516 1.356 . S
C519 C513 1.363 . S
C519 C514 1.379 . S
C519 N517 1.356 . S
N520 C512 1.356 . S
N520 H526 0.984 . S
N520 H527 0.984 . S
N521 C514 1.356 . S
N521 H524 0.984 . S
N521 H525 0.985 . S
H522 N517 0.984 . S
H523 N517 0.985 . S
H524 N521 0.984 . S
H525 N521 0.985 . S
H526 N520 0.984 . S
H527 N520 0.984 . S
H528 N516 0.984 . S
H529 N516 0.985 . S
C530 C531 1.363 . S
C530 C536 1.379 . S
C530 N538 1.356 . S
C531 C530 1.363 . S
C531 C537 1.363 . S
C532 C533 1.363 . S
C532 C537 1.379 . S
C532 N539 1.356 . S
C533 C532 1.363 . S
C533 C536 1.363 . S
N534 C536 1.356 . S
N534 H546 0.984 . S
N534 H547 0.985 . S
N535 C537 1.356 . S
N535 H540 0.984 . S
N535 H541 0.985 . S
C536 C530 1.379 . S
C536 C533 1.363 . S
C536 N534 1.356 . S
C537 C531 1.363 . S
C537 C532 1.379 . S
C537 N535 1.356 . S
N538 C530 1.356 . S
N538 H544 0.984 . S
N538 H545 0.984 . S
N539 C532 1.356 . S
N539 H542 0.984 . S
N539 H543 0.985 . S
H540 N535 0.984 . S
H541 N535 0.985 . S
H542 N539 0.984 . S
H543 N539 0.985 . S
H544 N538 0.984 . S
H545 N538 0.984 . S
H546 N534 0.984 . S
H547 N534 0.985 . S
C548 C549 1.363 . S
C548 C554 1.379 . S
C548 N556 1.356 . S
C549 C548 1.363 . S
C549 C555 1.363 . S
C550 C551 1.363 . S
C550 C555 1.379 . S
C550 N557 1.356 . S
C551 C550 1.363 . S
C551 C554 1.363 . S
N552 C554 1.356 . S
N552 H564 0.984 . S
N552 H565 0.985 . S
N553 C555 1.356 . S
N553 H558 0.984 . S
N553 H559 0.985 . S
C554 C548 1.379 . S
C554 C551 1.363 . S
C554 N552 1.356 . S
C555 C549 1.363 . S
C555 C550 1.379 . S
C555 N553 1.356 . S
N556 C548 1.356 . S
N556 H562 0.984 . S
N556 H563 0.984 . S
N557 C550 1.356 . S
N557 H560 0.984 . S
N557 H561 0.985 . S
H558 N553 0.984 . S
H559 N553 0.985 . S
H560 N557 0.984 . S
H561 N557 0.985 . S
H562 N556 0.984 . S
H563 N556 0.984 . S
H564 N552 0.984 . S
H565 N552 0.985 . S
C566 C567 1.363 . S
C566 C572 1.379 . S
C566 N574 1.356 . S
C567 C566 1.363 . S
C567 C573 1.363 . S
C568 C569 1.363 . S
C568 C573 1.379 . S
C568 N575 1.356 . S
C569 C568 1.363 . S
C569 C572 1.363 . S
N570 C572 1.356 . S
N570 H582 0.984 . S
N570 H583 0.985 . S
N571 C573 1.356 . S
N571 H576 0.984 . S
N571 H577 0.985 . S
C572 C566 1.379 . S
C572 C569 1.363 . S
C572 N570 1.356 . S
C573 C567 1.363 . S
C573 C568 1.379 . S
C573 N571 1.356 . S
N574 C566 1.356 . S
N574 H580 0.984 . S
N574 H581 0.984 . S
N575 C568 1.356 . S
N575 H578 0.984 . S
N575 H579 0.985 . S
H576 N571 0.984 . S
H577 N571 0.985 . S
H578 N575 0.984 . S
H579 N575 0.985 . S
H580 N574 0.984 . S
H581 N574 0.984 . S
H582 N570 0.984 . S
H583 N570 0.985 . S
C584 C585 1.363 . S
C584 C590 1.379 . S
C584 N592 1.356 . S
C585 C584 1.363 . S
C585 C591 1.363 . S
C586 C587 1.363 . S
C586 C591 1.379 . S
C586 N593 1.356 . S
C587 C586 1.363 . S
C587 C590 1.363 . S
N588 C590 1.356 . S
N588 H600 0.984 . S
N588 H601 0.985 . S
N589 C591 1.356 . S
N589 H594 0.984 . S
N589 H595 0.985 . S
C590 C584 1.379 . S
C590 C587 1.363 . S
C590 N588 1.356 . S
C591 C585 1.363 . S
C591 C586 1.379 . S
C591 N589 1.356 . S
N592 C584 1.356 . S
N592 H598 0.984 . S
N592 H599 0.984 . S
N593 C586 1.356 . S
N593 H596 0.984 . S
N593 H597 0.985 . S
H594 N589 0.984 . S
H595 N589 0.985 . S
H596 N593 0.984 . S
H597 N593 0.985 . S
H598 N592 0.984 . S
H599 N592 0.984 . S
H600 N588 0.984 . S
H601 N588 0.985 . S
C602 C603 1.363 . S
C602 C608 1.379 . S
C602 N610 1.356 . S
C603 C602 1.363 . S
C603 C609 1.363 . S
C604 C605 1.363 . S
C604 C609 1.379 . S
C604 N611 1.356 . S
C605 C604 1.363 . S
C605 C608 1.363 . S
N606 C608 1.356 . S
N606 H618 0.984 . S
N606 H619 0.985 . S
N607 C609 1.356 . S
N607 H612 0.984 . S
N607 H613 0.985 . S
C608 C602 1.379 . S
C608 C605 1.363 . S
C608 N606 1.356 . S
C609 C603 1.363 . S
C609 C604 1.379 . S
C609 N607 1.356 . S
N610 C602 1.356 . S
N610 H616 0.984 . S
N610 H617 0.984 . S
N611 C604 1.356 . S
N611 H614 0.984 . S
N611 H615 0.985 . S
H612 N607 0.984 . S
H613 N607 0.985 . S
H614 N611 0.984 . S
H615 N611 0.985 . S
H616 N610 0.984 . S
H617 N610 0.984 . S
H618 N606 0.984 . S
H619 N606 0.985 . S
C620 C621 1.363 . S
C620 C626 1.379 . S
C620 N628 1.356 . S
C621 C620 1.363 . S
C621 C627 1.363 . S
C622 C623 1.363 . S
C622 C627 1.379 . S
C622 N629 1.356 . S
C623 C622 1.363 . S
C623 C626 1.363 . S
N624 C626 1.356 . S
N624 H636 0.984 . S
N624 H637 0.985 . S
N625 C627 1.356 . S
N625 H630 0.984 . S
N625 H631 0.985 . S
C626 C620 1.379 . S
C626 C623 1.363 . S
C626 N624 1.356 . S
C627 C621 1.363 . S
C627 C622 1.379 . S
C627 N625 1.356 . S
N628 C620 1.356 . S
N628 H634 0.984 . S
N628 H635 0.984 . S
N629 C622 1.356 . S
N629 H632 0.984 . S
N629 H633 0.985 . S
H630 N625 0.984 . S
H631 N625 0.985 . S
H632 N629 0.984 . S
H633 N629 0.985 . S
H634 N628 0.984 . S
H635 N628 0.984 . S
H636 N624 0.984 . S
H637 N624 0.985 . S
C638 C639 1.363 . S
C638 C644 1.379 . S
C638 N646 1.356 . S
C639 C638 1.363 . S
C639 C645 1.363 . S
C640 C641 1.363 . S
C640 C645 1.379 . S
C640 N647 1.356 . S
C641 C640 1.363 . S
C641 C644 1.363 . S
N642 C644 1.356 . S
N642 H654 0.984 . S
N642 H655 0.985 . S
N643 C645 1.356 . S
N643 H648 0.984 . S
N643 H649 0.985 . S
C644 C638 1.379 . S
C644 C641 1.363 . S
C644 N642 1.356 . S
C645 C639 1.363 . S
C645 C640 1.379 . S
C645 N643 1.356 . S
N646 C638 1.356 . S
N646 H652 0.984 . S
N646 H653 0.984 . S
N647 C640 1.356 . S
N647 H650 0.984 . S
N647 H651 0.985 . S
H648 N643 0.984 . S
H649 N643 0.985 . S
H650 N647 0.984 . S
H651 N647 0.985 . S
H652 N646 0.984 . S
H653 N646 0.984 . S
H654 N642 0.984 . S
H655 N642 0.985 . S
C656 C657 1.363 . S
C656 C662 1.379 . S
C656 N664 1.356 . S
C657 C656 1.363 . S
C657 C663 1.363 . S
C658 C659 1.363 . S
C658 C663 1.379 . S
C658 N665 1.356 . S
C659 C658 1.363 . S
C659 C662 1.363 . S
N660 C662 1.356 . S
N660 H672 0.984 . S
N660 H673 0.985 . S
N661 C663 1.356 . S
N661 H666 0.984 . S
N661 H667 0.985 . S
C662 C656 1.379 . S
C662 C659 1.363 . S
C662 N660 1.356 . S
C663 C657 1.363 . S
C663 C658 1.379 . S
C663 N661 1.356 . S
N664 C656 1.356 . S
N664 H670 0.984 . S
N664 H671 0.984 . S
N665 C658 1.356 . S
N665 H668 0.984 . S
N665 H669 0.985 . S
H666 N661 0.984 . S
H667 N661 0.985 . S
H668 N665 0.984 . S
H669 N665 0.985 . S
H670 N664 0.984 . S
H671 N664 0.984 . S
H672 N660 0.984 . S
H673 N660 0.985 . S
C674 C675 1.363 . S
C674 C680 1.379 . S
C674 N682 1.356 . S
C675 C674 1.363 . S
C675 C681 1.363 . S
C676 C677 1.363 . S
C676 C681 1.379 . S
C676 N683 1.356 . S
C677 C676 1.363 . S
C677 C680 1.363 . S
N678 C680 1.356 . S
N678 H690 0.984 . S
N678 H691 0.985 . S
N679 C681 1.356 . S
N679 H684 0.984 . S
N679 H685 0.985 . S
C680 C674 1.379 . S
C680 C677 1.363 . S
C680 N678 1.356 . S
C681 C675 1.363 . S
C681 C676 1.379 . S
C681 N679 1.356 . S
N682 C674 1.356 . S
N682 H688 0.984 . S
N682 H689 0.984 . S
N683 C676 1.356 . S
N683 H686 0.984 . S
N683 H687 0.985 . S
H684 N679 0.984 . S
H685 N679 0.985 . S
H686 N683 0.984 . S
H687 N683 0.985 . S
H688 N682 0.984 . S
H689 N682 0.984 . S
H690 N678 0.984 . S
H691 N678 0.985 . S
C692 C693 1.363 . S
C692 C698 1.379 . S
C692 N700 1.356 . S
C693 C692 1.363 . S
C693 C699 1.363 . S
C694 C695 1.363 . S
C694 C699 1.379 . S
C694 N701 1.356 . S
C695 C694 1.363 . S
C695 C698 1.363 . S
N696 C698 1.356 . S
N696 H708 0.984 . S
N696 H709 0.985 . S
N697 C699 1.356 . S
N697 H702 0.984 . S
N697 H703 0.985 . S
C698 C692 1.379 . S
C698 C695 1.363 . S
C698 N696 1.356 . S
C699 C693 1.363 . S
C699 C694 1.379 . S
C699 N697 1.356 . S
N700 C692 1.356 . S
N700 H706 0.984 . S
N700 H707 0.984 . S
N701 C694 1.356 . S
N701 H704 0.984 . S
N701 H705 0.985 . S
H702 N697 0.984 . S
H703 N697 0.985 . S
H704 N701 0.984 . S
H705 N701 0.985 . S
H706 N700 0.984 . S
H707 N700 0.984 . S
H708 N696 0.984 . S
H709 N696 0.985 . S
C710 C711 1.363 . S
C710 C716 1.379 . S
C710 N718 1.356 . S
C711 C710 1.363 . S
C711 C717 1.363 . S
C712 C713 1.363 . S
C712 C717 1.379 . S
C712 N719 1.356 . S
C713 C712 1.363 . S
C713 C716 1.363 . S
N714 C716 1.356 . S
N714 H726 0.984 . S
N714 H727 0.985 . S
N715 C717 1.356 . S
N715 H720 0.984 . S
N715 H721 0.985 . S
C716 C710 1.379 . S
C716 C713 1.363 . S
C716 N714 1.356 . S
C717 C711 1.363 . S
C717 C712 1.379 . S
C717 N715 1.356 . S
N718 C710 1.356 . S
N718 H724 0.984 . S
N718 H725 0.984 . S
N719 C712 1.356 . S
N719 H722 0.984 . S
N719 H723 0.985 . S
H720 N715 0.984 . S
H721 N715 0.985 . S
H722 N719 0.984 . S
H723 N719 0.985 . S
H724 N718 0.984 . S
H725 N718 0.984 . S
H726 N714 0.984 . S
H727 N714 0.985 . S
C728 C729 1.363 . S
C728 C734 1.379 . S
C728 N736 1.356 . S
C729 C728 1.363 . S
C729 C735 1.363 . S
C730 C731 1.363 . S
C730 C735 1.379 . S
C730 N737 1.356 . S
C731 C730 1.363 . S
C731 C734 1.363 . S
N732 C734 1.356 . S
N732 H744 0.984 . S
N732 H745 0.985 . S
N733 C735 1.356 . S
N733 H738 0.984 . S
N733 H739 0.985 . S
C734 C728 1.379 . S
C734 C731 1.363 . S
C734 N732 1.356 . S
C735 C729 1.363 . S
C735 C730 1.379 . S
C735 N733 1.356 . S
N736 C728 1.356 . S
N736 H742 0.984 . S
N736 H743 0.984 . S
N737 C730 1.356 . S
N737 H740 0.984 . S
N737 H741 0.985 . S
H738 N733 0.984 . S
H739 N733 0.985 . S
H740 N737 0.984 . S
H741 N737 0.985 . S
H742 N736 0.984 . S
H743 N736 0.984 . S
H744 N732 0.984 . S
H745 N732 0.985 . S
C746 C747 1.363 . S
C746 C752 1.379 . S
C746 N754 1.356 . S
C747 C746 1.363 . S
C747 C753 1.363 . S
C748 C749 1.363 . S
C748 C753 1.379 . S
C748 N755 1.356 . S
C749 C748 1.363 . S
C749 C752 1.363 . S
N750 C752 1.356 . S
N750 H762 0.984 . S
N750 H763 0.985 . S
N751 C753 1.356 . S
N751 H756 0.984 . S
N751 H757 0.985 . S
C752 C746 1.379 . S
C752 C749 1.363 . S
C752 N750 1.356 . S
C753 C747 1.363 . S
C753 C748 1.379 . S
C753 N751 1.356 . S
N754 C746 1.356 . S
N754 H760 0.984 . S
N754 H761 0.984 . S
N755 C748 1.356 . S
N755 H758 0.984 . S
N755 H759 0.985 . S
H756 N751 0.984 . S
H757 N751 0.985 . S
H758 N755 0.984 . S
H759 N755 0.985 . S
H760 N754 0.984 . S
H761 N754 0.984 . S
H762 N750 0.984 . S
H763 N750 0.985 . S
C764 C765 1.363 . S
C764 C770 1.379 . S
C764 N772 1.356 . S
C765 C764 1.363 . S
C765 C771 1.363 . S
C766 C767 1.363 . S
C766 C771 1.379 . S
C766 N773 1.356 . S
C767 C766 1.363 . S
C767 C770 1.363 . S
N768 C770 1.356 . S
N768 H780 0.984 . S
N768 H781 0.985 . S
N769 C771 1.356 . S
N769 H774 0.984 . S
N769 H775 0.985 . S
C770 C764 1.379 . S
C770 C767 1.363 . S
C770 N768 1.356 . S
C771 C765 1.363 . S
C771 C766 1.379 . S
C771 N769 1.356 . S
N772 C764 1.356 . S
N772 H778 0.984 . S
N772 H779 0.984 . S
N773 C766 1.356 . S
N773 H776 0.984 . S
N773 H777 0.985 . S
H774 N769 0.984 . S
H775 N769 0.985 . S
H776 N773 0.984 . S
H777 N773 0.985 . S
H778 N772 0.984 . S
H779 N772 0.984 . S
H780 N768 0.984 . S
H781 N768 0.985 . S
C782 C783 1.363 . S
C782 C788 1.379 . S
C782 N790 1.356 . S
C783 C782 1.363 . S
C783 C789 1.363 . S
C784 C785 1.363 . S
C784 C789 1.379 . S
C784 N791 1.356 . S
C785 C784 1.363 . S
C785 C788 1.363 . S
N786 C788 1.356 . S
N786 H798 0.984 . S
N786 H799 0.985 . S
N787 C789 1.356 . S
N787 H792 0.984 . S
N787 H793 0.985 . S
C788 C782 1.379 . S
C788 C785 1.363 . S
C788 N786 1.356 . S
C789 C783 1.363 . S
C789 C784 1.379 . S
C789 N787 1.356 . S
N790 C782 1.356 . S
N790 H796 0.984 . S
N790 H797 0.984 . S
N791 C784 1.356 . S
N791 H794 0.984 . S
N791 H795 0.985 . S
H792 N787 0.984 . S
H793 N787 0.985 . S
H794 N791 0.984 . S
H795 N791 0.985 . S
H796 N790 0.984 . S
H797 N790 0.984 . S
H798 N786 0.984 . S
H799 N786 0.985 . S
C225 C62 1.601 . S
C227 C6 1.601 . S
C243 C76 1.601 . S
C245 C20 1.601 . S
C261 C90 1.601 . S
C263 C34 1.601 . S
C279 C104 1.601 . S
C281 C48 1.601 . S
C297 C174 1.601 . S
C299 C118 1.601 . S
C315 C188 1.601 . S
C317 C132 1.601 . S
C333 C146 1.601 . S
C335 C202 1.601 . S
C351 C216 1.601 . S
C353 C160 1.601 . S
C369 C9 1.521 . S
C371 C79 1.521 . S
C387 C93 1.521 . S
C389 C23 1.521 . S
C405 C37 1.521 . S
C407 C107 1.521 . S
C423 C65 1.521 . S
C425 C51 1.521 . S
C441 C191 1.521 . S
C443 C121 1.521 . S
C459 C205 1.521 . S
C461 C135 1.521 . S
C477 C149 1.521 . S
C479 C219 1.521 . S
C495 C163 1.521 . S
C497 C177 1.521 . S
C513 C218 1.900 . S
C515 C8 1.900 . S
C531 C176 1.900 . S
C533 C22 1.900 . S
C549 C190 1.900 . S
C551 C36 1.900 . S
C567 C204 1.900 . S
C569 C50 1.900 . S
C585 C134 1.900 . S
C587 C64 1.900 . S
C603 C148 1.900 . S
C605 C78 1.900 . S
C621 C92 1.900 . S
C623 C162 1.900 . S
C639 C106 1.900 . S
C641 C120 1.900 . S
C657 C189 1.107 . S
C659 C35 1.107 . S
C675 C203 1.107 . S
C677 C49 1.107 . S
C693 C217 1.107 . S
C695 C7 1.107 . S
C711 C21 1.107 . S
C713 C175 1.107 . S
C729 C161 1.107 . S
C731 C91 1.107 . S
C747 C105 1.107 . S
C749 C119 1.107 . S
C765 C133 1.107 . S
C767 C63 1.107 . S
C783 C147 1.107 . S
C785 C77 1.107 . S
