# Generated by pormake.
# Topology whh, (6)-cn, num edge types: 1
# Building blocks:
#     Node 0, Type 0, BuildingBlock: OJICUG_clean_sbu_0, # of connection points: 6
#     Node 1, Type 0, BuildingBlock: OJICUG_clean_sbu_0, # of connection points: 6
#     Node 2, Type 0, BuildingBlock: OJICUG_clean_sbu_0, # of connection points: 6
#     Node 3, Type 0, BuildingBlock: OJICUG_clean_sbu_0, # of connection points: 6
#     Node 4, Type 0, BuildingBlock: OJICUG_clean_sbu_0, # of connection points: 6
#     Node 5, Type 0, BuildingBlock: OJICUG_clean_sbu_0, # of connection points: 6
#     Node 6, Type 0, BuildingBlock: OJICUG_clean_sbu_0, # of connection points: 6
#     Node 7, Type 0, BuildingBlock: OJICUG_clean_sbu_0, # of connection points: 6
#     Node 8, Type 0, BuildingBlock: OJICUG_clean_sbu_0, # of connection points: 6
#     Node 9, Type 0, BuildingBlock: OJICUG_clean_sbu_0, # of connection points: 6
#     Node 10, Type 0, BuildingBlock: OJICUG_clean_sbu_0, # of connection points: 6
#     Node 11, Type 0, BuildingBlock: OJICUG_clean_sbu_0, # of connection points: 6
#     Node 12, Type 0, BuildingBlock: OJICUG_clean_sbu_0, # of connection points: 6
#     Node 13, Type 0, BuildingBlock: OJICUG_clean_sbu_0, # of connection points: 6
#     Node 14, Type 0, BuildingBlock: OJICUG_clean_sbu_0, # of connection points: 6
#     Node 15, Type 0, BuildingBlock: OJICUG_clean_sbu_0, # of connection points: 6
#     Edge 16, Type (0, 0), BuildingBlock: OJICUG_clean_linker_0, # of connection points: 2
#     Edge 17, Type (0, 0), BuildingBlock: OJICUG_clean_linker_0, # of connection points: 2
#     Edge 18, Type (0, 0), BuildingBlock: OJICUG_clean_linker_0, # of connection points: 2
#     Edge 19, Type (0, 0), BuildingBlock: OJICUG_clean_linker_0, # of connection points: 2
#     Edge 20, Type (0, 0), BuildingBlock: OJICUG_clean_linker_0, # of connection points: 2
#     Edge 21, Type (0, 0), BuildingBlock: OJICUG_clean_linker_0, # of connection points: 2
#     Edge 22, Type (0, 0), BuildingBlock: OJICUG_clean_linker_0, # of connection points: 2
#     Edge 23, Type (0, 0), BuildingBlock: OJICUG_clean_linker_0, # of connection points: 2
#     Edge 24, Type (0, 0), BuildingBlock: OJICUG_clean_linker_0, # of connection points: 2
#     Edge 25, Type (0, 0), BuildingBlock: OJICUG_clean_linker_0, # of connection points: 2
#     Edge 26, Type (0, 0), BuildingBlock: OJICUG_clean_linker_0, # of connection points: 2
#     Edge 27, Type (0, 0), BuildingBlock: OJICUG_clean_linker_0, # of connection points: 2
#     Edge 28, Type (0, 0), BuildingBlock: OJICUG_clean_linker_0, # of connection points: 2
#     Edge 29, Type (0, 0), BuildingBlock: OJICUG_clean_linker_0, # of connection points: 2
#     Edge 30, Type (0, 0), BuildingBlock: OJICUG_clean_linker_0, # of connection points: 2
#     Edge 31, Type (0, 0), BuildingBlock: OJICUG_clean_linker_0, # of connection points: 2
#     Edge 32, Type (0, 0), BuildingBlock: OJICUG_clean_linker_0, # of connection points: 2
#     Edge 33, Type (0, 0), BuildingBlock: OJICUG_clean_linker_0, # of connection points: 2
#     Edge 34, Type (0, 0), BuildingBlock: OJICUG_clean_linker_0, # of connection points: 2
#     Edge 35, Type (0, 0), BuildingBlock: OJICUG_clean_linker_0, # of connection points: 2
#     Edge 36, Type (0, 0), BuildingBlock: OJICUG_clean_linker_0, # of connection points: 2
#     Edge 37, Type (0, 0), BuildingBlock: OJICUG_clean_linker_0, # of connection points: 2
#     Edge 38, Type (0, 0), BuildingBlock: OJICUG_clean_linker_0, # of connection points: 2
#     Edge 39, Type (0, 0), BuildingBlock: OJICUG_clean_linker_0, # of connection points: 2
#     Edge 40, Type (0, 0), BuildingBlock: OJICUG_clean_linker_0, # of connection points: 2
#     Edge 41, Type (0, 0), BuildingBlock: OJICUG_clean_linker_0, # of connection points: 2
#     Edge 42, Type (0, 0), BuildingBlock: OJICUG_clean_linker_0, # of connection points: 2
#     Edge 43, Type (0, 0), BuildingBlock: OJICUG_clean_linker_0, # of connection points: 2
#     Edge 44, Type (0, 0), BuildingBlock: OJICUG_clean_linker_0, # of connection points: 2
#     Edge 45, Type (0, 0), BuildingBlock: OJICUG_clean_linker_0, # of connection points: 2
#     Edge 46, Type (0, 0), BuildingBlock: OJICUG_clean_linker_0, # of connection points: 2
#     Edge 47, Type (0, 0), BuildingBlock: OJICUG_clean_linker_0, # of connection points: 2
#     Edge 48, Type (0, 0), BuildingBlock: OJICUG_clean_linker_0, # of connection points: 2
#     Edge 49, Type (0, 0), BuildingBlock: OJICUG_clean_linker_0, # of connection points: 2
#     Edge 50, Type (0, 0), BuildingBlock: OJICUG_clean_linker_0, # of connection points: 2
#     Edge 51, Type (0, 0), BuildingBlock: OJICUG_clean_linker_0, # of connection points: 2
#     Edge 52, Type (0, 0), BuildingBlock: OJICUG_clean_linker_0, # of connection points: 2
#     Edge 53, Type (0, 0), BuildingBlock: OJICUG_clean_linker_0, # of connection points: 2
#     Edge 54, Type (0, 0), BuildingBlock: OJICUG_clean_linker_0, # of connection points: 2
#     Edge 55, Type (0, 0), BuildingBlock: OJICUG_clean_linker_0, # of connection points: 2
#     Edge 56, Type (0, 0), BuildingBlock: OJICUG_clean_linker_0, # of connection points: 2
#     Edge 57, Type (0, 0), BuildingBlock: OJICUG_clean_linker_0, # of connection points: 2
#     Edge 58, Type (0, 0), BuildingBlock: OJICUG_clean_linker_0, # of connection points: 2
#     Edge 59, Type (0, 0), BuildingBlock: OJICUG_clean_linker_0, # of connection points: 2
#     Edge 60, Type (0, 0), BuildingBlock: OJICUG_clean_linker_0, # of connection points: 2
#     Edge 61, Type (0, 0), BuildingBlock: OJICUG_clean_linker_0, # of connection points: 2
#     Edge 62, Type (0, 0), BuildingBlock: OJICUG_clean_linker_0, # of connection points: 2
#     Edge 63, Type (0, 0), BuildingBlock: OJICUG_clean_linker_0, # of connection points: 2
# Relax obj value: 0.385
# Max RMSD: 0.252
# Mean RMSD: 0.252
data_MOF--net-whh--node1-OJICUG_clean_sbu_0--edge1-OJICUG_clean_linker_0
_symmetry_space_group_name_H-M    P1
_symmetry_Int_Tables_number       1
_symmetry_cell_setting            triclinic
loop_
_symmetry_equiv_pos_as_xyz
'x, y, z'
_cell_length_a     26.407214
_cell_length_b     26.421291
_cell_length_c     33.057863
_cell_angle_alpha  90.014961
_cell_angle_beta   89.99073
_cell_angle_gamma 90.012636
loop_
_atom_site_label
_atom_site_type_symbol
_atom_site_fract_x
_atom_site_fract_y
_atom_site_fract_z
_atom_type_partial_charge
Sc0 Sc 0.05556 0.67673 0.05402 0.0
Sc1 Sc 0.13058 0.61295 0.12356 0.0
Sc2 Sc 0.0301 0.68779 0.156 0.0
O3 O 0.07245 0.66007 0.11206 0.0
C4 C 1.00912 0.77454 0.09478 0.0
C5 C 0.1697 0.69814 0.06062 0.0
C6 C 0.1435 0.70145 0.18792 0.0
C7 C 0.08559 0.56855 0.04577 0.0
C8 C 0.95541 0.63435 0.09193 0.0
C9 C 0.05518 0.5794 0.19423 0.0
O10 O 0.01316 0.7456 0.06446 0.0
O11 O 0.17493 0.65437 0.07733 0.0
O12 O 0.09677 0.71383 0.1868 0.0
O13 O 0.09575 0.6119 0.03236 0.0
O14 O 0.96367 0.6591 0.12473 0.0
O15 O 0.09307 0.56961 0.17165 0.0
O16 O 0.98601 0.63406 0.06175 0.0
O17 O 0.0963 0.55866 0.08227 0.0
O18 O 0.02987 0.61988 0.19102 0.0
O19 O 0.12631 0.717 0.05205 0.0
O20 O 0.02446 0.76132 0.12941 0.0
O21 O 0.16265 0.66478 0.16786 0.0
Sc22 Sc 0.84198 0.05404 0.05218 0.0
Sc23 Sc 0.90697 0.12856 0.12153 0.0
Sc24 Sc 0.83404 0.02625 0.15346 0.0
O25 O 0.8601 0.07015 0.1099 0.0
C26 C 0.74422 1.01008 0.09559 0.0
C27 C 0.82158 0.16824 0.05982 0.0
C28 C 0.8229 0.13922 0.18834 0.0
C29 C 0.95088 0.08329 0.04372 0.0
C30 C 0.88185 0.95241 0.08734 0.0
C31 C 0.94483 0.04815 0.18734 0.0
O32 O 0.7728 0.01251 0.06481 0.0
O33 O 0.86605 0.17299 0.07533 0.0
O34 O 0.81366 0.09179 0.18849 0.0
O35 O 0.90744 0.09314 0.03001 0.0
O36 O 0.85498 0.95967 0.11909 0.0
O37 O 0.95009 0.09073 0.16966 0.0
O38 O 0.88445 0.98433 0.05827 0.0
O39 O 0.96087 0.09458 0.08011 0.0
O40 O 0.90625 0.02029 0.18232 0.0
O41 O 0.80219 0.12507 0.05139 0.0
O42 O 0.75851 0.02631 0.12979 0.0
O43 O 0.85525 0.16046 0.16531 0.0
Sc44 Sc 0.46527 0.84181 0.0527 0.0
Sc45 Sc 0.39067 0.90632 0.12221 0.0
Sc46 Sc 0.49018 0.83027 0.15464 0.0
O47 O 0.44832 0.85865 0.1107 0.0
C48 C 0.51033 0.74343 0.09354 0.0
C49 C 0.3509 0.82138 0.05935 0.0
C50 C 0.37663 0.81814 0.18661 0.0
C51 C 0.43616 0.95042 0.04437 0.0
C52 C 0.56564 0.88295 0.09081 0.0
C53 C 0.46656 0.93904 0.19284 0.0
O54 O 0.50706 0.77255 0.06328 0.0
O55 O 0.34598 0.86524 0.07598 0.0
O56 O 0.42319 0.8052 0.18548 0.0
O57 O 0.4261 0.90712 0.03072 0.0
O58 O 0.55714 0.85791 0.12342 0.0
O59 O 0.42875 0.9493 0.17031 0.0
O60 O 0.53507 0.88382 0.06064 0.0
O61 O 0.42538 0.96019 0.08088 0.0
O62 O 0.49137 0.89824 0.18955 0.0
O63 O 0.39414 0.80226 0.05066 0.0
O64 O 0.49447 0.75667 0.12801 0.0
O65 O 0.35795 0.855 0.16655 0.0
Sc66 Sc 0.67823 0.46382 0.05329 0.0
Sc67 Sc 0.61365 0.39003 0.12344 0.0
Sc68 Sc 0.68596 0.49324 0.15429 0.0
O69 O 0.66021 0.44847 0.11118 0.0
C70 C 0.77601 0.50832 0.09638 0.0
C71 C 0.69884 0.34975 0.06144 0.0
C72 C 0.69751 0.38093 0.19041 0.0
C73 C 0.56939 0.43391 0.04534 0.0
C74 C 0.63808 0.56586 0.08744 0.0
C75 C 0.57529 0.47153 0.18836 0.0
O76 O 0.74745 0.50564 0.06557 0.0
O77 O 0.6547 0.34499 0.07757 0.0
O78 O 0.70633 0.42844 0.19018 0.0
O79 O 0.61285 0.42413 0.03163 0.0
O80 O 0.66508 0.55924 0.11919 0.0
O81 O 0.57043 0.42847 0.17131 0.0
O82 O 0.63553 0.53345 0.05872 0.0
O83 O 0.55952 0.42311 0.08184 0.0
O84 O 0.61361 0.49962 0.1829 0.0
O85 O 0.71812 0.3929 0.05282 0.0
O86 O 0.76151 0.49265 0.13069 0.0
O87 O 0.66557 0.35906 0.16741 0.0
Sc88 Sc 0.03028 0.83184 0.34713 0.0
Sc89 Sc 0.13014 0.90791 0.37895 0.0
Sc90 Sc 0.05552 0.84418 0.44891 0.0
O91 O 0.07235 0.86051 0.3908 0.0
C92 C 0.95507 0.88508 0.41088 0.0
C93 C 0.05408 0.94014 0.30829 0.0
C94 C 0.08467 0.95276 0.45648 0.0
C95 C 0.1437 0.81921 0.31493 0.0
C96 C 1.01041 0.74548 0.40867 0.0
C97 C 0.16983 0.82338 0.44215 0.0
O98 O 0.96343 0.85967 0.37842 0.0
O99 O 0.09214 0.95039 0.33057 0.0
O100 O 0.09502 0.90961 0.47026 0.0
O101 O 0.09707 0.80654 0.31615 0.0
O102 O 0.01351 0.77492 0.43876 0.0
O103 O 0.17482 0.86716 0.42538 0.0
O104 O 0.02629 0.75848 0.37414 0.0
O105 O 0.16265 0.85604 0.33491 0.0
O106 O 0.12655 0.80443 0.45097 0.0
O107 O 0.02898 0.89957 0.31197 0.0
O108 O 0.98577 0.88627 0.44095 0.0
O109 O 0.09551 0.96233 0.41995 0.0
Sc110 Sc 0.67836 0.05641 0.44827 0.0
Sc111 Sc 0.61373 0.13007 0.37813 0.0
Sc112 Sc 0.68677 0.02738 0.34723 0.0
O113 O 0.66058 0.07186 0.39036 0.0
C114 C 0.77635 0.01199 0.40546 0.0
C115 C 0.69857 0.17053 0.44035 0.0
C116 C 0.69807 0.13991 0.31149 0.0
C117 C 0.56951 0.08572 0.45605 0.0
C118 C 0.63864 0.95438 0.41375 0.0
C119 C 0.57611 0.04873 0.31289 0.0
O120 O 0.74765 0.01472 0.43617 0.0
O121 O 0.65446 0.17514 0.42414 0.0
O122 O 0.70727 0.09248 0.31172 0.0
O123 O 0.61285 0.09597 0.46975 0.0
O124 O 0.6657 0.9612 0.38205 0.0
O125 O 0.57082 0.09159 0.33016 0.0
O126 O 0.63589 0.98668 0.44255 0.0
O127 O 0.55959 0.09654 0.41957 0.0
O128 O 0.61466 0.02096 0.31826 0.0
O129 O 0.71801 0.12745 0.44894 0.0
O130 O 0.76217 0.02788 0.37114 0.0
O131 O 0.66565 0.16145 0.33428 0.0
Sc132 Sc 0.49006 0.69003 0.34636 0.0
Sc133 Sc 0.39029 0.61444 0.37909 0.0
Sc134 Sc 0.4652 0.67888 0.44837 0.0
O135 O 0.44813 0.66197 0.39041 0.0
C136 C 0.56545 0.6373 0.41022 0.0
C137 C 0.46591 0.58121 0.3084 0.0
C138 C 0.43568 0.57051 0.45699 0.0
C139 C 0.37651 0.70249 0.31452 0.0
C140 C 0.51073 0.77692 0.40734 0.0
C141 C 0.35091 0.69981 0.44184 0.0
O142 O 0.55692 0.6622 0.37755 0.0
O143 O 0.42814 0.57114 0.33105 0.0
O144 O 0.42558 0.61388 0.47044 0.0
O145 O 0.42312 0.71531 0.31559 0.0
O146 O 0.50728 0.7479 0.43765 0.0
O147 O 0.34578 0.65595 0.42523 0.0
O148 O 0.49487 0.76369 0.37286 0.0
O149 O 0.35773 0.66571 0.33465 0.0
O150 O 0.39426 0.71878 0.45043 0.0
O151 O 0.49085 0.62196 0.31153 0.0
O152 O 0.53488 0.63658 0.44042 0.0
O153 O 0.42493 0.56058 0.4205 0.0
Sc154 Sc 0.83531 0.49461 0.34836 0.0
Sc155 Sc 0.90675 0.39145 0.38056 0.0
Sc156 Sc 0.84177 0.46626 0.44971 0.0
O157 O 0.86037 0.45027 0.39204 0.0
C158 C 0.88299 0.56775 0.41508 0.0
C159 C 0.94601 0.47147 0.31492 0.0
C160 C 0.9505 0.436 0.45865 0.0
C161 C 0.82315 0.38181 0.31335 0.0
C162 C 0.74478 0.51113 0.40576 0.0
C163 C 0.82089 0.35221 0.44202 0.0
O164 O 0.85674 0.56083 0.38297 0.0
O165 O 0.95055 0.4288 0.33257 0.0
O166 O 0.90683 0.42677 0.4722 0.0
O167 O 0.81453 0.42935 0.31311 0.0
O168 O 0.77288 0.5081 0.43679 0.0
O169 O 0.86538 0.34728 0.42661 0.0
O170 O 0.75951 0.49545 0.37152 0.0
O171 O 0.85494 0.36015 0.33661 0.0
O172 O 0.80156 0.39545 0.45024 0.0
O173 O 0.90785 0.49989 0.31988 0.0
O174 O 0.88473 0.53577 0.44414 0.0
O175 O 0.96061 0.42479 0.42226 0.0
Sc176 Sc 0.99371 0.33017 0.85611 0.0
Sc177 Sc 0.89216 0.40773 0.88094 0.0
Sc178 Sc 0.96154 0.34647 0.95596 0.0
O179 O 0.9489 0.36093 0.89679 0.0
C180 C 1.00618 0.24558 0.92009 0.0
C181 C 0.8831 0.31762 0.81803 0.0
C182 C 0.84804 0.32523 0.94403 0.0
C183 C 0.97415 0.43694 0.81328 0.0
C184 C 0.06479 0.38441 0.92239 0.0
C185 C 0.93259 0.45515 0.95918 0.0
O186 O 0.99213 0.25789 0.88493 0.0
O187 O 0.86254 0.3545 0.83682 0.0
O188 O 0.89062 0.30686 0.95533 0.0
O189 O 0.99947 0.39704 0.81999 0.0
O190 O 0.0318 0.38801 0.95067 0.0
O191 O 0.9241 0.46359 0.92207 0.0
O192 O 0.05853 0.35711 0.8906 0.0
O193 O 0.93387 0.4477 0.83286 0.0
O194 O 0.92049 0.41269 0.97341 0.0
O195 O 0.92958 0.30523 0.82159 0.0
O196 O 1.00401 0.27667 0.94917 0.0
O197 O 0.84406 0.36854 0.92629 0.0
Sc198 Sc 0.17642 0.96487 0.95243 0.0
Sc199 Sc 0.11382 0.89222 0.88018 0.0
Sc200 Sc 0.17804 1.00168 0.85234 0.0
O201 O 0.15711 0.95264 0.89419 0.0
C202 C 0.13079 0.06771 0.92396 0.0
C203 C 0.06826 0.93166 0.95921 0.0
C204 C 0.06988 0.97374 0.81726 0.0
C205 C 0.20043 0.85203 0.94048 0.0
C206 C 0.27074 0.01588 0.90905 0.0
C207 C 0.19629 0.89233 0.81229 0.0
O208 O 0.13192 0.0337 0.95144 0.0
O209 O 0.05829 0.92105 0.92264 0.0
O210 O 0.10461 1.00539 0.82497 0.0
O211 O 0.21876 0.89531 0.94975 0.0
O212 O 0.25428 1.00466 0.87418 0.0
O213 O 0.16778 0.8667 0.83571 0.0
O214 O 0.24445 1.00867 0.94068 0.0
O215 O 0.15604 0.84685 0.92502 0.0
O216 O 0.20089 0.94042 0.81351 0.0
O217 O 0.11201 0.92234 0.97267 0.0
O218 O 0.1544 0.06397 0.89028 0.0
O219 O 0.0693 0.92933 0.83238 0.0
Sc220 Sc 0.52694 0.19342 0.85222 0.0
Sc221 Sc 0.62769 0.11595 0.88 0.0
Sc222 Sc 0.55468 0.17591 0.95287 0.0
O223 O 0.57006 0.1625 0.89411 0.0
C224 C 0.50795 0.27609 0.91716 0.0
C225 C 0.63886 0.20676 0.8174 0.0
C226 C 0.66815 0.19946 0.94367 0.0
C227 C 0.55021 0.08622 0.81004 0.0
C228 C 0.4536 0.13666 0.91558 0.0
C229 C 0.58582 0.06807 0.95757 0.0
O230 O 0.52337 0.26575 0.88187 0.0
O231 O 0.65805 0.16884 0.83584 0.0
O232 O 0.62493 0.21712 0.95423 0.0
O233 O 0.52538 0.12691 0.81497 0.0
O234 O 0.48532 0.13317 0.94488 0.0
O235 O 0.59512 0.05977 0.9206 0.0
O236 O 0.46119 0.16401 0.88402 0.0
O237 O 0.5884 0.07484 0.83175 0.0
O238 O 0.59647 0.11089 0.97176 0.0
O239 O 0.59264 0.22031 0.8206 0.0
O240 O 0.51081 0.24419 0.94554 0.0
O241 O 0.67337 0.15619 0.9261 0.0
Sc242 Sc 0.33198 0.52117 0.85661 0.0
Sc243 Sc 0.40771 0.62444 0.8807 0.0
Sc244 Sc 0.34338 0.55725 0.95598 0.0
O245 O 0.36052 0.56786 0.897 0.0
C246 C 0.24426 0.51008 0.91737 0.0
C247 C 0.31996 0.63112 0.81667 0.0
C248 C 0.32415 0.6707 0.94197 0.0
C249 C 0.44083 0.53852 0.81714 0.0
C250 C 0.38211 0.45268 0.92638 0.0
C251 C 0.45311 0.58532 0.95991 0.0
O252 O 0.25818 0.52383 0.88254 0.0
O253 O 0.35532 0.65287 0.83625 0.0
O254 O 0.30479 0.62857 0.95322 0.0
O255 O 0.40116 0.51326 0.82448 0.0
O256 O 0.38424 0.48681 0.95372 0.0
O257 O 0.4623 0.59395 0.92294 0.0
O258 O 0.35715 0.45739 0.89327 0.0
O259 O 0.44922 0.58151 0.8336 0.0
O260 O 0.41034 0.59725 0.97402 0.0
O261 O 0.30888 0.58425 0.81985 0.0
O262 O 0.27315 0.51501 0.94776 0.0
O263 O 0.36795 0.67377 0.92486 0.0
Sc264 Sc 0.96584 0.17757 0.55105 0.0
Sc265 Sc 0.89133 0.11418 0.62149 0.0
Sc266 Sc 0.99611 0.18376 0.65285 0.0
O267 O 0.95086 0.15947 0.60932 0.0
C268 C 0.06666 0.1317 0.58508 0.0
C269 C 0.9339 0.06962 0.54283 0.0
C270 C 0.9674 0.07597 0.69038 0.0
C271 C 0.85236 0.20083 0.56012 0.0
C272 C 0.01634 0.27292 0.59271 0.0
C273 C 0.8843 0.20133 0.68737 0.0
O274 O 0.03527 0.13418 0.55557 0.0
O275 O 0.92293 0.05949 0.57927 0.0
O276 O 0.99514 0.11477 0.68678 0.0
O277 O 0.89583 0.21905 0.5512 0.0
O278 O 1.00438 0.2579 0.62776 0.0
O279 O 0.86268 0.16667 0.66663 0.0
O280 O 1.00886 0.24593 0.56166 0.0
O281 O 0.84675 0.15686 0.57628 0.0
O282 O 0.93161 0.21131 0.68584 0.0
O283 O 0.92446 0.11328 0.52959 0.0
O284 O 0.05985 0.15366 0.6193 0.0
O285 O 0.92787 0.06913 0.66899 0.0
Sc286 Sc 0.34612 0.9631 0.54499 0.0
Sc287 Sc 0.40935 0.89545 0.62044 0.0
Sc288 Sc 0.34161 1.00446 0.64376 0.0
O289 O 0.3649 0.95413 0.60381 0.0
C290 C 0.38923 0.06833 0.57035 0.0
C291 C 0.4552 0.9321 0.54072 0.0
C292 C 0.44964 0.98138 0.68136 0.0
C293 C 0.32415 0.85038 0.56045 0.0
C294 C 0.2496 0.01311 0.58542 0.0
C295 C 0.32433 0.89648 0.6865 0.0
O296 O 0.38869 0.03285 0.54411 0.0
O297 O 0.46485 0.92296 0.57758 0.0
O298 O 0.4133 0.01061 0.67267 0.0
O299 O 0.3055 0.89285 0.54946 0.0
O300 O 0.26633 1.00458 0.6206 0.0
O301 O 0.35543 0.87105 0.66519 0.0
O302 O 0.2766 1.00588 0.55419 0.0
O303 O 0.36816 0.84661 0.57696 0.0
O304 O 0.31777 0.94424 0.68347 0.0
O305 O 0.41193 0.92111 0.52704 0.0
O306 O 0.36683 0.06565 0.60467 0.0
O307 O 0.4528 0.93649 0.66725 0.0
Sc308 Sc 0.55905 0.34775 0.54493 0.0
Sc309 Sc 0.62783 0.40668 0.62113 0.0
Sc310 Sc 0.52815 0.32552 0.64407 0.0
O311 O 0.57203 0.35926 0.60429 0.0
C312 C 0.45654 0.38406 0.58083 0.0
C313 C 0.58796 0.45614 0.5436 0.0
C314 C 0.54631 0.43185 0.68937 0.0
C315 C 0.67238 0.32602 0.5567 0.0
C316 C 0.51363 0.24514 0.57708 0.0
C317 C 0.63885 0.31395 0.68181 0.0
O318 O 0.48923 0.38933 0.55244 0.0
O319 O 0.59562 0.4635 0.58094 0.0
O320 O 0.52297 0.39079 0.68221 0.0
O321 O 0.62994 0.30798 0.54456 0.0
O322 O 0.52862 0.25429 0.61266 0.0
O323 O 0.65773 0.35306 0.66482 0.0
O324 O 0.51563 0.2785 0.5497 0.0
O325 O 0.67616 0.3688 0.57533 0.0
O326 O 0.59317 0.29933 0.67701 0.0
O327 O 0.60058 0.41413 0.52889 0.0
O328 O 0.46278 0.35437 0.61122 0.0
O329 O 0.58544 0.44514 0.66939 0.0
Sc330 Sc 0.17932 0.55516 0.55041 0.0
Sc331 Sc 0.1159 0.62634 0.62297 0.0
Sc332 Sc 0.19131 0.52394 0.65051 0.0
O333 O 0.16296 0.56905 0.60882 0.0
C334 C 0.14202 0.45203 0.584 0.0
C335 C 0.07026 0.58438 0.54457 0.0
C336 C 0.08118 0.54219 0.68732 0.0
C337 C 0.20001 0.66908 0.5608 0.0
C338 C 0.27894 0.51136 0.59062 0.0
C339 C 0.20114 0.63515 0.68869 0.0
O340 O 0.13722 0.48508 0.55592 0.0
O341 O 0.06125 0.59397 0.58142 0.0
O342 O 0.12016 0.51539 0.68067 0.0
O343 O 0.21886 0.62628 0.55061 0.0
O344 O 0.26586 0.52724 0.62521 0.0
O345 O 0.16777 0.65688 0.66701 0.0
O346 O 0.24897 0.51345 0.56069 0.0
O347 O 0.15612 0.6733 0.57759 0.0
O348 O 0.21133 0.58801 0.6871 0.0
O349 O 0.11328 0.59495 0.53041 0.0
O350 O 0.171 0.4584 0.61465 0.0
O351 O 0.07451 0.5854 0.6708 0.0
C352 C 0.8459 0.5511 0.05661 0.0
C353 C 0.82449 0.53664 0.09394 0.0
H354 H 0.90464 0.59313 0.02638 0.0
C355 C 0.84754 0.55338 0.1298 0.0
H356 H 0.82914 0.53868 0.02841 0.0
C357 C 0.88945 0.58525 0.12859 0.0
C358 C 0.91028 0.6009 0.0915 0.0
H359 H 0.83235 0.54317 0.15913 0.0
H360 H 0.90566 0.59746 0.15708 0.0
C361 C 0.88887 0.58251 0.05541 0.0
C362 C 0.95918 0.84331 0.12679 0.0
C363 C 0.97979 0.82217 0.09151 0.0
H364 H 0.91185 0.89945 0.15285 0.0
C365 C 0.96857 0.84475 0.05394 0.0
H366 H 0.96671 0.82703 0.15626 0.0
C367 C 0.93688 0.88745 0.05195 0.0
C368 C 0.91491 0.90713 0.0874 0.0
H369 H 0.98404 0.82934 0.02621 0.0
H370 H 0.92903 0.9045 0.02283 0.0
C371 C 0.92696 0.88472 0.12474 0.0
C372 C 0.6328 0.93025 0.12772 0.0
C373 C 0.61096 0.91615 0.09059 0.0
H374 H 0.69042 0.97157 0.15835 0.0
C375 C 0.63124 0.93626 0.05466 0.0
H376 H 0.61756 0.91663 0.15613 0.0
C377 C 0.67391 0.96802 0.05597 0.0
C378 C 0.69613 0.98117 0.09328 0.0
H379 H 0.6147 0.92686 0.02563 0.0
H380 H 0.68972 0.98189 0.02785 0.0
C381 C 0.67441 0.96251 0.12906 0.0
C382 C 0.55947 0.67449 0.12606 0.0
C383 C 0.53958 0.69572 0.09055 0.0
H384 H 0.60644 0.61842 0.15261 0.0
C385 C 0.55158 0.67321 0.05309 0.0
H386 H 0.55132 0.69069 0.15546 0.0
C387 C 0.58339 0.63056 0.05145 0.0
C388 C 0.60473 0.61091 0.08713 0.0
H389 H 0.53668 0.68867 0.02519 0.0
H390 H 0.5919 0.61359 0.0224 0.0
C391 C 0.59184 0.63318 0.12435 0.0
C392 C 0.88795 0.93213 0.37379 0.0
C393 C 0.90975 0.91828 0.41099 0.0
H394 H 0.83034 0.97315 0.34295 0.0
C395 C 0.88937 0.93856 0.44683 0.0
H396 H 0.90326 0.91837 0.34544 0.0
C397 C 0.84663 0.97023 0.44536 0.0
C398 C 0.82446 0.98312 0.40798 0.0
H399 H 0.90587 0.92935 0.4759 0.0
H400 H 0.83074 0.98424 0.47342 0.0
C401 C 0.8463 0.9643 0.3723 0.0
C402 C 0.59332 0.88647 0.37674 0.0
C403 C 0.60545 0.90919 0.41395 0.0
H404 H 0.55329 0.82864 0.34556 0.0
C405 C 0.5834 0.88995 0.44951 0.0
H406 H 0.60852 0.90087 0.34855 0.0
C407 C 0.55152 0.84736 0.44777 0.0
C408 C 0.54019 0.82448 0.41034 0.0
H409 H 0.59133 0.90725 0.47853 0.0
H410 H 0.53599 0.83227 0.47559 0.0
C411 C 0.56089 0.8452 0.37492 0.0
C412 C 0.631 0.584 0.44647 0.0
C413 C 0.61092 0.60429 0.41054 0.0
H414 H 0.68947 0.53846 0.47337 0.0
C415 C 0.63325 0.59069 0.37347 0.0
H416 H 0.61412 0.59302 0.47545 0.0
C417 C 0.67508 0.55874 0.37219 0.0
C418 C 0.69656 0.53987 0.40798 0.0
H419 H 0.61823 0.60449 0.34504 0.0
H420 H 0.69144 0.55007 0.34294 0.0
C421 C 0.67388 0.55252 0.44523 0.0
C422 C 0.96753 0.6766 0.44952 0.0
C423 C 0.98158 0.69751 0.41192 0.0
H424 H 0.92552 0.61828 0.48038 0.0
C425 C 0.96408 0.67439 0.37634 0.0
H426 H 0.98058 0.6935 0.47749 0.0
C427 C 0.93182 0.63299 0.37806 0.0
C428 C 0.91666 0.61253 0.41537 0.0
H429 H 0.97396 0.68918 0.34681 0.0
H430 H 0.91897 0.61681 0.34974 0.0
C431 C 0.93582 0.63387 0.45122 0.0
C432 C 0.13061 0.43729 0.9591 0.0
C433 C 0.11016 0.41739 0.92311 0.0
H434 H 0.18986 0.48226 0.98589 0.0
C435 C 0.13206 0.43127 0.88605 0.0
H436 H 0.11389 0.42799 0.98808 0.0
C437 C 0.1739 0.46298 0.88471 0.0
C438 C 0.19605 0.48139 0.92046 0.0
H439 H 0.1166 0.41792 0.85761 0.0
H440 H 0.18968 0.47183 0.8553 0.0
C441 C 0.17378 0.46855 0.95782 0.0
C442 C 0.05735 0.18255 0.96091 0.0
C443 C 0.03145 0.19587 0.92512 0.0
H444 H 0.10943 0.13043 0.98915 0.0
C445 C 0.03459 0.16343 0.89157 0.0
H446 H 0.05539 0.20658 0.9874 0.0
C447 C 0.06604 0.12146 0.89237 0.0
C448 C 0.09446 0.10981 0.92693 0.0
H449 H 0.01461 0.17165 0.8637 0.0
H450 H 0.06917 0.09862 0.86528 0.0
C451 C 0.08839 0.13928 0.96194 0.0
C452 C 0.34018 0.06483 0.87656 0.0
C453 C 0.31957 0.04347 0.91178 0.0
H454 H 0.39732 0.11097 0.85039 0.0
C455 C 0.34418 0.05204 0.949 0.0
H456 H 0.32245 0.05929 0.84735 0.0
C457 C 0.38814 0.082 0.95076 0.0
C458 C 0.4074 0.10473 0.91547 0.0
H459 H 0.32931 0.03594 0.97669 0.0
H460 H 0.4065 0.08796 0.97968 0.0
C461 C 0.38309 0.09518 0.87841 0.0
C462 C 0.48529 0.36354 0.89531 0.0
C463 C 0.48102 0.32453 0.9239 0.0
H464 H 0.45794 0.43545 0.87535 0.0
C465 C 0.44709 0.33057 0.95655 0.0
H466 H 0.51166 0.3607 0.8703 0.0
C467 C 0.41562 0.3733 0.95882 0.0
C468 C 0.41783 0.41018 0.92844 0.0
H469 H 0.4431 0.30124 0.97921 0.0
H470 H 0.38826 0.37642 0.9831 0.0
C471 C 0.45421 0.40596 0.8978 0.0
C472 C 0.13737 0.08923 0.54607 0.0
C473 C 0.11079 0.09756 0.58231 0.0
H474 H 0.20304 0.05574 0.51834 0.0
C475 C 0.12668 0.07267 0.61758 0.0
H476 H 0.12523 0.10724 0.51829 0.0
C477 C 0.16984 0.04275 0.61751 0.0
C478 C 0.19904 0.03725 0.58225 0.0
H479 H 0.10598 0.07685 0.64571 0.0
H480 H 0.18126 0.02541 0.64577 0.0
C481 C 0.18159 0.05955 0.5461 0.0
C482 C 0.4973 0.15478 0.59433 0.0
C483 C 0.4877 0.19645 0.56917 0.0
H484 H 0.47398 0.08067 0.61263 0.0
C485 C 0.449 0.19278 0.5399 0.0
H486 H 0.52726 0.15605 0.6167 0.0
C487 C 0.41789 0.14971 0.53822 0.0
C488 C 0.42561 0.10994 0.56556 0.0
H489 H 0.44076 0.22435 0.52007 0.0
H490 H 0.38642 0.14865 0.51723 0.0
C491 C 0.46673 0.11189 0.59228 0.0
C492 C 0.34846 0.46164 0.6221 0.0
C493 C 0.32685 0.48253 0.58709 0.0
H494 H 0.40507 0.41381 0.64727 0.0
C495 C 0.34896 0.47165 0.54928 0.0
H496 H 0.33244 0.46894 0.6517 0.0
C497 C 0.39153 0.4399 0.54672 0.0
C498 C 0.41157 0.41747 0.58181 0.0
H499 H 0.33319 0.48733 0.52177 0.0
H500 H 0.4081 0.43222 0.51738 0.0
C501 C 0.38984 0.42929 0.61946 0.0
C502 C 0.08359 0.38894 0.5498 0.0
C503 C 0.10969 0.40617 0.58428 0.0
H504 H 0.03344 0.3326 0.52512 0.0
C505 C 0.10245 0.3807 0.62117 0.0
H506 H 0.08773 0.40827 0.5211 0.0
C507 C 0.07069 0.33898 0.62371 0.0
C508 C 0.04568 0.32054 0.5893 0.0
H509 H 0.12093 0.39328 0.64865 0.0
H510 H 0.06686 0.32041 0.65277 0.0
C511 C 0.05232 0.34593 0.55218 0.0
C512 C 0.17885 0.78167 0.21269 0.0
C513 C 0.17427 0.72907 0.2174 0.0
H514 H 0.17525 0.85352 0.24245 0.0
C515 C 0.17962 0.70783 0.25601 0.0
H516 H 0.17443 0.79871 0.18308 0.0
C517 C 0.17935 0.73922 0.29002 0.0
C518 C 0.17452 0.7918 0.28535 0.0
H519 H 0.17569 0.66734 0.26027 0.0
H520 H 0.1753 0.72214 0.31966 0.0
C521 C 0.1794 0.81306 0.2467 0.0
C522 C 0.70821 0.17426 0.24315 0.0
C523 C 0.72725 0.16968 0.28252 0.0
H524 H 0.72627 0.16984 0.18016 0.0
C525 C 0.77952 0.17429 0.28923 0.0
H526 H 0.668 0.17017 0.23745 0.0
C527 C 0.81287 0.17421 0.25648 0.0
C528 C 0.79382 0.16936 0.21713 0.0
H529 H 0.79479 0.17032 0.3195 0.0
H530 H 0.85307 0.17007 0.26222 0.0
C531 C 0.74157 0.17404 0.2104 0.0
C532 C 0.34045 0.81302 0.25471 0.0
C533 C 0.34561 0.79115 0.21631 0.0
H534 H 0.34511 0.79973 0.31847 0.0
C535 C 0.34079 0.7385 0.21212 0.0
H536 H 0.34453 0.85356 0.25857 0.0
C537 C 0.34034 0.70766 0.24643 0.0
C538 C 0.34554 0.72952 0.28484 0.0
H539 H 0.34503 0.72097 0.18267 0.0
H540 H 0.34434 0.66712 0.24256 0.0
C541 C 0.34083 0.78218 0.28903 0.0
C542 C 0.77903 0.34673 0.21256 0.0
C543 C 0.72681 0.35143 0.21946 0.0
H544 H 0.85273 0.35096 0.23927 0.0
C545 C 0.70798 0.34718 0.25892 0.0
H546 H 0.79413 0.35049 0.18221 0.0
C547 C 0.74151 0.34749 0.29154 0.0
C548 C 0.79374 0.35195 0.28458 0.0
H549 H 0.66781 0.35138 0.26476 0.0
H550 H 0.72641 0.35183 0.32183 0.0
C551 C 0.81256 0.34695 0.24518 0.0
C552 C 0.85046 0.20692 0.75627 0.0
C553 C 0.85562 0.22913 0.718 0.0
H554 H 0.85408 0.21962 0.82016 0.0
C555 C 0.85173 0.28187 0.71411 0.0
H556 H 0.85413 0.16631 0.75985 0.0
C557 C 0.8508 0.31239 0.74862 0.0
C558 C 0.85478 0.29015 0.78698 0.0
H559 H 0.85629 0.29962 0.68478 0.0
H560 H 0.85482 0.35297 0.74509 0.0
C561 C 0.85045 0.23742 0.79077 0.0
C562 C 0.24074 0.86798 0.70936 0.0
C563 C 0.29303 0.8706 0.71632 0.0
H564 H 0.16716 0.87054 0.7364 0.0
C565 C 0.31199 0.86389 0.75551 0.0
H566 H 0.22566 0.87376 0.67921 0.0
C567 C 0.27854 0.86202 0.78816 0.0
C568 C 0.2263 0.86678 0.78151 0.0
H569 H 0.35228 0.86665 0.76132 0.0
H570 H 0.29369 0.86365 0.81861 0.0
C571 C 0.20734 0.86588 0.74196 0.0
C572 C 0.67203 0.28508 0.78689 0.0
C573 C 0.66766 0.23217 0.78549 0.0
H574 H 0.66896 0.35385 0.75279 0.0
C575 C 0.67203 0.20723 0.74821 0.0
H576 H 0.66822 0.30494 0.81542 0.0
C577 C 0.67107 0.23518 0.71236 0.0
C578 C 0.66715 0.28811 0.71381 0.0
H579 H 0.66811 0.16645 0.7465 0.0
H580 H 0.66663 0.21532 0.68389 0.0
C581 C 0.67247 0.31303 0.75103 0.0
C582 C 0.28081 0.66921 0.71477 0.0
C583 C 0.22829 0.66374 0.71947 0.0
H584 H 0.35285 0.66454 0.74423 0.0
C585 C 0.20697 0.66541 0.75822 0.0
H586 H 0.29777 0.66737 0.68494 0.0
C587 C 0.23841 0.66298 0.79202 0.0
C588 C 0.29102 0.65976 0.78694 0.0
H589 H 0.16653 0.66056 0.7623 0.0
H590 H 0.22154 0.65677 0.82151 0.0
C591 C 0.31228 0.66744 0.74863 0.0
C592 C 0.26416 0.70699 0.05263 0.0
C593 C 0.21586 0.72939 0.0537 0.0
H594 H 0.34448 0.71835 0.0524 0.0
C595 C 0.21248 0.78255 0.05225 0.0
H596 H 0.2682 0.66621 0.05343 0.0
C597 C 0.25629 0.81254 0.05228 0.0
C598 C 0.30461 0.79014 0.05296 0.0
H599 H 0.17596 0.80116 0.05307 0.0
H600 H 0.25227 0.85333 0.05287 0.0
C601 C 0.30795 0.73698 0.05185 0.0
C602 C 0.73712 0.21137 0.0535 0.0
C603 C 0.79033 0.21458 0.05416 0.0
H604 H 0.66648 0.25132 0.05526 0.0
C605 C 0.81291 0.26279 0.05344 0.0
H606 H 0.71838 0.1749 0.05415 0.0
C607 C 0.78307 0.30664 0.05349 0.0
C608 C 0.7299 0.30342 0.05505 0.0
H609 H 0.85373 0.2667 0.05374 0.0
H610 H 0.80184 0.34309 0.0541 0.0
C611 C 0.70729 0.25522 0.05431 0.0
C612 C 0.25637 0.70885 0.44943 0.0
C613 C 0.30473 0.73116 0.4485 0.0
H614 H 0.17606 0.72035 0.4493 0.0
C615 C 0.30818 0.78432 0.44977 0.0
H616 H 0.25225 0.66807 0.44874 0.0
C617 C 0.26443 0.81439 0.44944 0.0
C618 C 0.21607 0.79208 0.44866 0.0
H619 H 0.34474 0.80288 0.44905 0.0
H620 H 0.26853 0.85517 0.44874 0.0
C621 C 0.21263 0.73892 0.44992 0.0
C622 C 0.73641 0.30905 0.44799 0.0
C623 C 0.78962 0.30593 0.44781 0.0
H624 H 0.66588 0.26893 0.44578 0.0
C625 C 0.81229 0.2578 0.44904 0.0
H626 H 0.71764 0.34547 0.44695 0.0
C627 C 0.78256 0.21389 0.44892 0.0
C628 C 0.72941 0.21697 0.44684 0.0
H629 H 0.85312 0.25398 0.44915 0.0
H630 H 0.80141 0.17749 0.44869 0.0
C631 C 0.70669 0.26512 0.44713 0.0
C632 C 0.76253 0.20987 0.95009 0.0
C633 C 0.71395 0.23157 0.94937 0.0
H634 H 0.84264 0.22234 0.95008 0.0
C635 C 0.70983 0.28472 0.95011 0.0
H636 H 0.76712 0.16914 0.94967 0.0
C637 C 0.75323 0.31537 0.94955 0.0
C638 C 0.80181 0.2936 0.94922 0.0
H639 H 0.67301 0.30275 0.94933 0.0
H640 H 0.74873 0.3561 0.94873 0.0
C641 C 0.80586 0.24047 0.95047 0.0
C642 C 0.31562 0.76578 0.94587 0.0
C643 C 0.29322 0.71749 0.94667 0.0
H644 H 0.30398 0.84611 0.94442 0.0
C645 C 0.24006 0.71416 0.94877 0.0
H646 H 0.3564 0.76975 0.94444 0.0
C647 C 0.21001 0.75782 0.94808 0.0
C648 C 0.23229 0.80607 0.9461 0.0
H649 H 0.22141 0.67765 0.94936 0.0
H650 H 0.1692 0.75369 0.94842 0.0
C651 C 0.28552 0.80956 0.94604 0.0
C652 C 0.81066 0.28595 0.55318 0.0
C653 C 0.80664 0.2328 0.55372 0.0
H654 H 0.77156 0.35717 0.55382 0.0
C655 C 0.75817 0.21093 0.5517 0.0
H656 H 0.84737 0.30411 0.55485 0.0
C657 C 0.71478 0.24139 0.55035 0.0
C658 C 0.71868 0.29451 0.55188 0.0
H659 H 0.75367 0.17018 0.55187 0.0
H660 H 0.67803 0.22318 0.54987 0.0
C661 C 0.76719 0.31643 0.55274 0.0
C662 C 0.23945 0.80745 0.55455 0.0
C663 C 0.29267 0.80395 0.55563 0.0
H664 H 0.16846 0.76793 0.55547 0.0
C665 C 0.3149 0.75561 0.55506 0.0
H666 H 0.22097 0.84404 0.55503 0.0
C667 C 0.28471 0.71194 0.55452 0.0
C668 C 0.23148 0.71544 0.55547 0.0
H669 H 0.3557 0.75149 0.55562 0.0
H670 H 0.30319 0.67535 0.55506 0.0
C671 C 0.20926 0.76378 0.55493 0.0
C672 C 0.99898 0.52311 0.96193 0.0
C673 C 0.9698 0.48627 0.98179 0.0
H674 H 0.0595 0.57666 0.96621 0.0
C675 C 0.98055 0.47522 0.02258 0.0
H676 H 0.99236 0.53198 0.93038 0.0
C677 C 0.0196 0.50026 0.04297 0.0
C678 C 0.0487 0.53715 0.02312 0.0
H679 H 0.95898 0.44682 0.03875 0.0
H680 H 0.02619 0.49148 0.07454 0.0
C681 C 0.03797 0.5482 0.98234 0.0
C682 C 0.99727 0.99464 0.96163 0.0
C683 C 0.03604 0.96811 0.98156 0.0
H684 H 0.94125 0.05291 0.96517 0.0
C685 C 0.04782 0.98118 0.02175 0.0
H686 H 0.98777 0.98622 0.93047 0.0
C687 C 0.02163 0.01998 0.04149 0.0
C688 C 0.98291 0.04653 0.02153 0.0
H689 H 0.07773 0.96174 0.03791 0.0
H690 H 0.03114 0.02847 0.07263 0.0
C691 C 0.9711 0.03342 0.98136 0.0
C692 C 0.53825 0.04685 0.02088 0.0
C693 C 0.54962 0.03579 0.98019 0.0
H694 H 0.49288 0.02962 0.07277 0.0
C695 C 0.52197 0.99766 0.96049 0.0
H696 H 0.55864 0.07621 0.03694 0.0
C697 C 0.48377 0.97138 0.98096 0.0
C698 C 0.47234 0.98255 0.02161 0.0
H699 H 0.52914 0.9887 0.92903 0.0
H700 H 0.4634 0.94197 0.96495 0.0
C701 C 0.50001 0.02066 0.04131 0.0
C702 C 0.49939 0.49802 0.04299 0.0
C703 C 0.53724 0.47028 0.02296 0.0
H704 H 0.44429 0.55722 0.03919 0.0
C705 C 0.54833 0.48197 0.9824 0.0
H706 H 0.4905 0.49062 0.07442 0.0
C707 C 0.52242 0.52064 0.96239 0.0
C708 C 0.48465 0.54848 0.98241 0.0
H709 H 0.57748 0.46152 0.96614 0.0
H710 H 0.53145 0.52804 0.93098 0.0
C711 C 0.47344 0.53673 0.02296 0.0
C712 C 0.98256 0.04944 0.47974 0.0
C713 C 0.97019 0.03756 0.52008 0.0
H714 H 0.02899 0.03293 0.42825 0.0
C715 C 0.99714 0.99882 0.53962 0.0
H716 H 0.96276 0.07933 0.46385 0.0
C717 C 0.03564 0.97278 0.51937 0.0
C718 C 0.04805 0.98467 0.47903 0.0
H719 H 0.98927 0.98925 0.57085 0.0
H720 H 0.05548 0.94296 0.53531 0.0
C721 C 0.02106 0.02336 0.45947 0.0
C722 C 0.52403 0.99734 0.53846 0.0
C723 C 0.48657 0.96919 0.51833 0.0
H724 H 0.57818 0.05735 0.53503 0.0
C725 C 0.47521 0.98112 0.47785 0.0
H726 H 0.53314 0.98984 0.56984 0.0
C727 C 0.50057 0.02039 0.45802 0.0
C728 C 0.538 0.04854 0.4782 0.0
H729 H 0.4463 0.96039 0.46154 0.0
H730 H 0.49153 0.02797 0.42664 0.0
C731 C 0.54934 0.03659 0.51866 0.0
C732 C 0.54032 0.47681 0.48019 0.0
C733 C 0.55082 0.48747 0.52109 0.0
H734 H 0.49508 0.49357 0.42813 0.0
C735 C 0.5216 0.52422 0.54103 0.0
H736 H 0.56192 0.44851 0.46392 0.0
C737 C 0.48283 0.54961 0.52057 0.0
C738 C 0.47233 0.5389 0.47969 0.0
H739 H 0.52805 0.53282 0.57265 0.0
H740 H 0.46128 0.57802 0.53675 0.0
C741 C 0.50147 0.50209 0.45977 0.0
C742 C 0.99826 0.52258 0.5416 0.0
C743 C 0.03766 0.54853 0.52199 0.0
H744 H 0.94097 0.4656 0.5374 0.0
C745 C 0.04943 0.53566 0.48175 0.0
H746 H 0.98868 0.53093 0.57276 0.0
C747 C 0.02258 0.49765 0.46164 0.0
C748 C 0.98317 0.47172 0.48126 0.0
H749 H 0.07981 0.55467 0.4658 0.0
H750 H 0.03211 0.48932 0.43047 0.0
C751 C 0.97137 0.4846 0.52148 0.0
C752 C 1.00397 0.54082 0.29551 0.0
C753 C 0.98641 0.49154 0.28824 0.0
H754 H 0.04062 0.60641 0.27158 0.0
C755 C 0.99956 0.46768 0.2516 0.0
H756 H 0.99427 0.56014 0.32337 0.0
C757 C 0.02643 0.49448 0.22151 0.0
C758 C 0.04018 0.54534 0.22787 0.0
H759 H 0.98564 0.43001 0.24497 0.0
H760 H 0.03279 0.47691 0.19234 0.0
C761 C 0.03048 0.56731 0.2658 0.0
C762 C 0.027 0.02518 0.27992 0.0
C763 C 0.03862 0.97364 0.27441 0.0
H764 H 0.98798 0.09038 0.25581 0.0
C765 C 0.02685 0.95081 0.23718 0.0
H766 H 0.0351 0.04351 0.3085 0.0
C767 C 1.00037 0.97724 0.20746 0.0
C768 C 0.98491 0.02737 0.21398 0.0
H769 H 0.03546 0.91122 0.23197 0.0
H770 H 0.98912 0.95735 0.18023 0.0
C771 C 1.00016 0.05196 0.24979 0.0
C772 C 0.52063 0.05165 0.25045 0.0
C773 C 0.53608 0.0275 0.28639 0.0
H774 H 0.48544 0.04247 0.1919 0.0
C775 C 0.52074 0.9774 0.29327 0.0
H776 H 0.53267 0.09003 0.24416 0.0
C777 C 0.4942 0.95057 0.2638 0.0
C778 C 0.48221 0.97295 0.22645 0.0
H779 H 0.53209 0.95786 0.32063 0.0
H780 H 0.48567 0.91103 0.26931 0.0
C781 C 0.49371 0.02446 0.22057 0.0
C782 C 0.49344 0.49579 0.28097 0.0
C783 C 0.48134 0.54712 0.27484 0.0
H784 H 0.53287 0.43043 0.25756 0.0
C785 C 0.49266 0.56923 0.23726 0.0
H786 H 0.48571 0.47802 0.30983 0.0
C787 C 0.51915 0.54237 0.20776 0.0
C788 C 0.53511 0.49252 0.21486 0.0
H789 H 0.4837 0.60863 0.23157 0.0
H790 H 0.53003 0.56176 0.18021 0.0
C791 C 0.52031 0.46859 0.25107 0.0
C792 C 0.03412 0.46763 0.71289 0.0
C793 C 0.04312 0.5199 0.71539 0.0
H794 H 1.0047 0.40141 0.74133 0.0
C795 C 0.02243 0.54686 0.74831 0.0
H796 H 0.04913 0.44579 0.68786 0.0
C797 C 0.99654 0.52098 0.77958 0.0
C798 C 0.99131 0.46792 0.77819 0.0
H799 H 0.02922 0.58712 0.75124 0.0
H800 H 0.98366 0.54184 0.80584 0.0
C801 C 1.00872 0.44213 0.7437 0.0
C802 C 1.0017 0.99357 0.71771 0.0
C803 C 0.98013 0.04154 0.72432 0.0
H804 H 0.04672 0.93322 0.74292 0.0
C805 C 0.98076 0.0617 0.76363 0.0
H806 H 1.00272 0.97772 0.6875 0.0
C807 C 1.00564 0.03649 0.79505 0.0
C808 C 0.03066 0.99046 0.788 0.0
H809 H 0.9649 0.09883 0.76947 0.0
H810 H 1.00818 0.05469 0.82431 0.0
C811 C 0.02677 0.9681 0.74943 0.0
C812 C 0.49925 0.05416 0.70709 0.0
C813 C 0.48759 1.00242 0.71014 0.0
H814 H 0.52863 0.12023 0.73578 0.0
C815 C 0.50394 0.97591 0.74478 0.0
H816 H 0.48709 0.07592 0.68117 0.0
C817 C 0.52791 1.00194 0.77692 0.0
C818 C 0.53546 0.05468 0.77468 0.0
H819 H 0.49483 0.93619 0.74832 0.0
H820 H 0.53723 0.98166 0.80439 0.0
C821 C 0.52275 0.07978 0.73871 0.0
C822 C 0.47681 0.46113 0.78601 0.0
C823 C 0.47693 0.51426 0.78817 0.0
H824 H 0.4991 0.39466 0.75471 0.0
C825 C 0.50554 0.54121 0.75925 0.0
H826 H 0.45511 0.43871 0.80715 0.0
C827 C 0.53068 0.51513 0.72755 0.0
C828 C 0.52741 0.4619 0.72457 0.0
H829 H 0.50608 0.58218 0.75974 0.0
H830 H 0.55036 0.53656 0.70448 0.0
C831 C 0.50172 0.43559 0.75521 0.0
loop_
_geom_bond_atom_site_label_1
_geom_bond_atom_site_label_2
_geom_bond_distance
_geom_bond_site_symmetry_2
_ccdc_geom_bond_type
Sc0 O3 2.025 . S
Sc0 O10 2.105 . S
Sc0 O13 2.105 . S
Sc0 O16 2.105 1_455 S
Sc0 O19 2.105 . S
Sc1 O3 2.025 . S
Sc1 O11 2.105 . S
Sc1 O15 2.105 . S
Sc1 O17 2.105 . S
Sc1 O21 2.105 . S
Sc2 O3 2.025 1_655 S
Sc2 O12 2.105 1_655 S
Sc2 O14 2.105 . S
Sc2 O18 2.105 . S
Sc2 O20 2.105 . S
O3 Sc0 2.025 . S
O3 Sc1 2.025 . S
O3 Sc2 2.025 1_455 S
C4 O10 1.268 1_655 S
C4 O20 1.268 . S
C5 O11 1.268 . S
C5 O19 1.268 . S
C6 O12 1.268 . S
C6 O21 1.268 . S
C7 O13 1.268 . S
C7 O17 1.268 . S
C8 O14 1.268 . S
C8 O16 1.268 . S
C9 O15 1.268 . S
C9 O18 1.268 1_455 S
O10 Sc0 2.105 . S
O10 C4 1.268 1_455 S
O11 Sc1 2.105 . S
O11 C5 1.268 . S
O12 Sc2 2.105 1_455 S
O12 C6 1.268 . S
O13 Sc0 2.105 . S
O13 C7 1.268 . S
O14 Sc2 2.105 . S
O14 C8 1.268 . S
O15 Sc1 2.105 . S
O15 C9 1.268 . S
O16 Sc0 2.105 1_655 S
O16 C8 1.268 . S
O17 Sc1 2.105 . S
O17 C7 1.268 . S
O18 Sc2 2.105 . S
O18 C9 1.268 1_655 S
O19 Sc0 2.105 . S
O19 C5 1.268 . S
O20 Sc2 2.105 . S
O20 C4 1.268 . S
O21 Sc1 2.105 . S
O21 C6 1.268 . S
Sc22 O25 2.025 . S
Sc22 O32 2.105 . S
Sc22 O35 2.105 . S
Sc22 O38 2.105 1_545 S
Sc22 O41 2.105 . S
Sc23 O25 2.025 . S
Sc23 O33 2.105 . S
Sc23 O37 2.105 . S
Sc23 O39 2.105 . S
Sc23 O43 2.105 . S
Sc24 O25 2.025 1_565 S
Sc24 O34 2.105 1_565 S
Sc24 O36 2.105 . S
Sc24 O40 2.105 . S
Sc24 O42 2.105 . S
O25 Sc22 2.025 . S
O25 Sc23 2.025 . S
O25 Sc24 2.025 1_545 S
C26 O32 1.268 1_565 S
C26 O42 1.268 . S
C27 O33 1.268 . S
C27 O41 1.268 . S
C28 O34 1.268 . S
C28 O43 1.268 . S
C29 O35 1.268 . S
C29 O39 1.268 . S
C30 O36 1.268 . S
C30 O38 1.268 . S
C31 O37 1.268 . S
C31 O40 1.268 1_545 S
O32 Sc22 2.105 . S
O32 C26 1.268 1_545 S
O33 Sc23 2.105 . S
O33 C27 1.268 . S
O34 Sc24 2.105 1_545 S
O34 C28 1.268 . S
O35 Sc22 2.105 . S
O35 C29 1.268 . S
O36 Sc24 2.105 . S
O36 C30 1.268 . S
O37 Sc23 2.105 . S
O37 C31 1.268 . S
O38 Sc22 2.105 1_565 S
O38 C30 1.268 . S
O39 Sc23 2.105 . S
O39 C29 1.268 . S
O40 Sc24 2.105 . S
O40 C31 1.268 1_565 S
O41 Sc22 2.105 . S
O41 C27 1.268 . S
O42 Sc24 2.105 . S
O42 C26 1.268 . S
O43 Sc23 2.105 . S
O43 C28 1.268 . S
Sc44 O47 2.025 . S
Sc44 O54 2.105 . S
Sc44 O57 2.105 . S
Sc44 O60 2.105 . S
Sc44 O63 2.105 . S
Sc45 O47 2.025 . S
Sc45 O55 2.105 . S
Sc45 O59 2.105 . S
Sc45 O61 2.105 . S
Sc45 O65 2.105 . S
Sc46 O47 2.025 . S
Sc46 O56 2.105 . S
Sc46 O58 2.105 . S
Sc46 O62 2.105 . S
Sc46 O64 2.105 . S
O47 Sc44 2.025 . S
O47 Sc45 2.025 . S
O47 Sc46 2.025 . S
C48 O54 1.268 . S
C48 O64 1.268 . S
C49 O55 1.268 . S
C49 O63 1.268 . S
C50 O56 1.268 . S
C50 O65 1.268 . S
C51 O57 1.268 . S
C51 O61 1.268 . S
C52 O58 1.268 . S
C52 O60 1.268 . S
C53 O59 1.268 . S
C53 O62 1.268 . S
O54 Sc44 2.105 . S
O54 C48 1.268 . S
O55 Sc45 2.105 . S
O55 C49 1.268 . S
O56 Sc46 2.105 . S
O56 C50 1.268 . S
O57 Sc44 2.105 . S
O57 C51 1.268 . S
O58 Sc46 2.105 . S
O58 C52 1.268 . S
O59 Sc45 2.105 . S
O59 C53 1.268 . S
O60 Sc44 2.105 . S
O60 C52 1.268 . S
O61 Sc45 2.105 . S
O61 C51 1.268 . S
O62 Sc46 2.105 . S
O62 C53 1.268 . S
O63 Sc44 2.105 . S
O63 C49 1.268 . S
O64 Sc46 2.105 . S
O64 C48 1.268 . S
O65 Sc45 2.105 . S
O65 C50 1.268 . S
Sc66 O69 2.025 . S
Sc66 O76 2.105 . S
Sc66 O79 2.105 . S
Sc66 O82 2.105 . S
Sc66 O85 2.105 . S
Sc67 O69 2.025 . S
Sc67 O77 2.105 . S
Sc67 O81 2.105 . S
Sc67 O83 2.105 . S
Sc67 O87 2.105 . S
Sc68 O69 2.025 . S
Sc68 O78 2.105 . S
Sc68 O80 2.105 . S
Sc68 O84 2.105 . S
Sc68 O86 2.105 . S
O69 Sc66 2.025 . S
O69 Sc67 2.025 . S
O69 Sc68 2.025 . S
C70 O76 1.268 . S
C70 O86 1.268 . S
C71 O77 1.268 . S
C71 O85 1.268 . S
C72 O78 1.268 . S
C72 O87 1.268 . S
C73 O79 1.268 . S
C73 O83 1.268 . S
C74 O80 1.268 . S
C74 O82 1.268 . S
C75 O81 1.268 . S
C75 O84 1.268 . S
O76 Sc66 2.105 . S
O76 C70 1.268 . S
O77 Sc67 2.105 . S
O77 C71 1.268 . S
O78 Sc68 2.105 . S
O78 C72 1.268 . S
O79 Sc66 2.105 . S
O79 C73 1.268 . S
O80 Sc68 2.105 . S
O80 C74 1.268 . S
O81 Sc67 2.105 . S
O81 C75 1.268 . S
O82 Sc66 2.105 . S
O82 C74 1.268 . S
O83 Sc67 2.105 . S
O83 C73 1.268 . S
O84 Sc68 2.105 . S
O84 C75 1.268 . S
O85 Sc66 2.105 . S
O85 C71 1.268 . S
O86 Sc68 2.105 . S
O86 C70 1.268 . S
O87 Sc67 2.105 . S
O87 C72 1.268 . S
Sc88 O91 2.025 1_655 S
Sc88 O98 2.105 . S
Sc88 O101 2.105 1_655 S
Sc88 O104 2.105 . S
Sc88 O107 2.105 . S
Sc89 O91 2.025 . S
Sc89 O99 2.105 . S
Sc89 O103 2.105 . S
Sc89 O105 2.105 . S
Sc89 O109 2.105 . S
Sc90 O91 2.025 . S
Sc90 O100 2.105 . S
Sc90 O102 2.105 . S
Sc90 O106 2.105 . S
Sc90 O108 2.105 1_455 S
O91 Sc88 2.025 1_455 S
O91 Sc89 2.025 . S
O91 Sc90 2.025 . S
C92 O98 1.268 . S
C92 O108 1.268 . S
C93 O99 1.268 . S
C93 O107 1.268 1_455 S
C94 O100 1.268 . S
C94 O109 1.268 . S
C95 O101 1.268 . S
C95 O105 1.268 . S
C96 O102 1.268 1_655 S
C96 O104 1.268 . S
C97 O103 1.268 . S
C97 O106 1.268 . S
O98 Sc88 2.105 . S
O98 C92 1.268 . S
O99 Sc89 2.105 . S
O99 C93 1.268 . S
O100 Sc90 2.105 . S
O100 C94 1.268 . S
O101 Sc88 2.105 1_455 S
O101 C95 1.268 . S
O102 Sc90 2.105 . S
O102 C96 1.268 1_455 S
O103 Sc89 2.105 . S
O103 C97 1.268 . S
O104 Sc88 2.105 . S
O104 C96 1.268 . S
O105 Sc89 2.105 . S
O105 C95 1.268 . S
O106 Sc90 2.105 . S
O106 C97 1.268 . S
O107 Sc88 2.105 . S
O107 C93 1.268 1_655 S
O108 Sc90 2.105 1_655 S
O108 C92 1.268 . S
O109 Sc89 2.105 . S
O109 C94 1.268 . S
Sc110 O113 2.025 . S
Sc110 O120 2.105 . S
Sc110 O123 2.105 . S
Sc110 O126 2.105 1_545 S
Sc110 O129 2.105 . S
Sc111 O113 2.025 . S
Sc111 O121 2.105 . S
Sc111 O125 2.105 . S
Sc111 O127 2.105 . S
Sc111 O131 2.105 . S
Sc112 O113 2.025 1_565 S
Sc112 O122 2.105 1_565 S
Sc112 O124 2.105 . S
Sc112 O128 2.105 . S
Sc112 O130 2.105 . S
O113 Sc110 2.025 . S
O113 Sc111 2.025 . S
O113 Sc112 2.025 1_545 S
C114 O120 1.268 1_565 S
C114 O130 1.268 . S
C115 O121 1.268 . S
C115 O129 1.268 . S
C116 O122 1.268 . S
C116 O131 1.268 . S
C117 O123 1.268 . S
C117 O127 1.268 . S
C118 O124 1.268 . S
C118 O126 1.268 . S
C119 O125 1.268 . S
C119 O128 1.268 1_545 S
O120 Sc110 2.105 . S
O120 C114 1.268 1_545 S
O121 Sc111 2.105 . S
O121 C115 1.268 . S
O122 Sc112 2.105 1_545 S
O122 C116 1.268 . S
O123 Sc110 2.105 . S
O123 C117 1.268 . S
O124 Sc112 2.105 . S
O124 C118 1.268 . S
O125 Sc111 2.105 . S
O125 C119 1.268 . S
O126 Sc110 2.105 1_565 S
O126 C118 1.268 . S
O127 Sc111 2.105 . S
O127 C117 1.268 . S
O128 Sc112 2.105 . S
O128 C119 1.268 1_565 S
O129 Sc110 2.105 . S
O129 C115 1.268 . S
O130 Sc112 2.105 . S
O130 C114 1.268 . S
O131 Sc111 2.105 . S
O131 C116 1.268 . S
Sc132 O135 2.025 . S
Sc132 O142 2.105 . S
Sc132 O145 2.105 . S
Sc132 O148 2.105 . S
Sc132 O151 2.105 . S
Sc133 O135 2.025 . S
Sc133 O143 2.105 . S
Sc133 O147 2.105 . S
Sc133 O149 2.105 . S
Sc133 O153 2.105 . S
Sc134 O135 2.025 . S
Sc134 O144 2.105 . S
Sc134 O146 2.105 . S
Sc134 O150 2.105 . S
Sc134 O152 2.105 . S
O135 Sc132 2.025 . S
O135 Sc133 2.025 . S
O135 Sc134 2.025 . S
C136 O142 1.268 . S
C136 O152 1.268 . S
C137 O143 1.268 . S
C137 O151 1.268 . S
C138 O144 1.268 . S
C138 O153 1.268 . S
C139 O145 1.268 . S
C139 O149 1.268 . S
C140 O146 1.268 . S
C140 O148 1.268 . S
C141 O147 1.268 . S
C141 O150 1.268 . S
O142 Sc132 2.105 . S
O142 C136 1.268 . S
O143 Sc133 2.105 . S
O143 C137 1.268 . S
O144 Sc134 2.105 . S
O144 C138 1.268 . S
O145 Sc132 2.105 . S
O145 C139 1.268 . S
O146 Sc134 2.105 . S
O146 C140 1.268 . S
O147 Sc133 2.105 . S
O147 C141 1.268 . S
O148 Sc132 2.105 . S
O148 C140 1.268 . S
O149 Sc133 2.105 . S
O149 C139 1.268 . S
O150 Sc134 2.105 . S
O150 C141 1.268 . S
O151 Sc132 2.105 . S
O151 C137 1.268 . S
O152 Sc134 2.105 . S
O152 C136 1.268 . S
O153 Sc133 2.105 . S
O153 C138 1.268 . S
Sc154 O157 2.025 . S
Sc154 O164 2.105 . S
Sc154 O167 2.105 . S
Sc154 O170 2.105 . S
Sc154 O173 2.105 . S
Sc155 O157 2.025 . S
Sc155 O165 2.105 . S
Sc155 O169 2.105 . S
Sc155 O171 2.105 . S
Sc155 O175 2.105 . S
Sc156 O157 2.025 . S
Sc156 O166 2.105 . S
Sc156 O168 2.105 . S
Sc156 O172 2.105 . S
Sc156 O174 2.105 . S
O157 Sc154 2.025 . S
O157 Sc155 2.025 . S
O157 Sc156 2.025 . S
C158 O164 1.268 . S
C158 O174 1.268 . S
C159 O165 1.268 . S
C159 O173 1.268 . S
C160 O166 1.268 . S
C160 O175 1.268 . S
C161 O167 1.268 . S
C161 O171 1.268 . S
C162 O168 1.268 . S
C162 O170 1.268 . S
C163 O169 1.268 . S
C163 O172 1.268 . S
O164 Sc154 2.105 . S
O164 C158 1.268 . S
O165 Sc155 2.105 . S
O165 C159 1.268 . S
O166 Sc156 2.105 . S
O166 C160 1.268 . S
O167 Sc154 2.105 . S
O167 C161 1.268 . S
O168 Sc156 2.105 . S
O168 C162 1.268 . S
O169 Sc155 2.105 . S
O169 C163 1.268 . S
O170 Sc154 2.105 . S
O170 C162 1.268 . S
O171 Sc155 2.105 . S
O171 C161 1.268 . S
O172 Sc156 2.105 . S
O172 C163 1.268 . S
O173 Sc154 2.105 . S
O173 C159 1.268 . S
O174 Sc156 2.105 . S
O174 C158 1.268 . S
O175 Sc155 2.105 . S
O175 C160 1.268 . S
Sc176 O179 2.025 1_455 S
Sc176 O186 2.105 . S
Sc176 O189 2.105 . S
Sc176 O192 2.105 . S
Sc176 O195 2.105 1_455 S
Sc177 O179 2.025 . S
Sc177 O187 2.105 . S
Sc177 O191 2.105 . S
Sc177 O193 2.105 . S
Sc177 O197 2.105 . S
Sc178 O179 2.025 . S
Sc178 O188 2.105 . S
Sc178 O190 2.105 1_655 S
Sc178 O194 2.105 . S
Sc178 O196 2.105 . S
O179 Sc176 2.025 1_655 S
O179 Sc177 2.025 . S
O179 Sc178 2.025 . S
C180 O186 1.268 . S
C180 O196 1.268 1_455 S
C181 O187 1.268 . S
C181 O195 1.268 . S
C182 O188 1.268 . S
C182 O197 1.268 . S
C183 O189 1.268 1_655 S
C183 O193 1.268 . S
C184 O190 1.268 . S
C184 O192 1.268 . S
C185 O191 1.268 . S
C185 O194 1.268 . S
O186 Sc176 2.105 . S
O186 C180 1.268 . S
O187 Sc177 2.105 . S
O187 C181 1.268 . S
O188 Sc178 2.105 . S
O188 C182 1.268 . S
O189 Sc176 2.105 . S
O189 C183 1.268 1_455 S
O190 Sc178 2.105 1_455 S
O190 C184 1.268 . S
O191 Sc177 2.105 . S
O191 C185 1.268 . S
O192 Sc176 2.105 . S
O192 C184 1.268 . S
O193 Sc177 2.105 . S
O193 C183 1.268 . S
O194 Sc178 2.105 . S
O194 C185 1.268 . S
O195 Sc176 2.105 1_655 S
O195 C181 1.268 . S
O196 Sc178 2.105 . S
O196 C180 1.268 1_655 S
O197 Sc177 2.105 . S
O197 C182 1.268 . S
Sc198 O201 2.025 . S
Sc198 O208 2.105 1_565 S
Sc198 O211 2.105 . S
Sc198 O214 2.105 . S
Sc198 O217 2.105 . S
Sc199 O201 2.025 . S
Sc199 O209 2.105 . S
Sc199 O213 2.105 . S
Sc199 O215 2.105 . S
Sc199 O219 2.105 . S
Sc200 O201 2.025 1_545 S
Sc200 O210 2.105 . S
Sc200 O212 2.105 . S
Sc200 O216 2.105 1_545 S
Sc200 O218 2.105 . S
O201 Sc198 2.025 . S
O201 Sc199 2.025 . S
O201 Sc200 2.025 1_565 S
C202 O208 1.268 . S
C202 O218 1.268 . S
C203 O209 1.268 . S
C203 O217 1.268 . S
C204 O210 1.268 1_565 S
C204 O219 1.268 . S
C205 O211 1.268 . S
C205 O215 1.268 . S
C206 O212 1.268 . S
C206 O214 1.268 1_545 S
C207 O213 1.268 . S
C207 O216 1.268 . S
O208 Sc198 2.105 1_545 S
O208 C202 1.268 . S
O209 Sc199 2.105 . S
O209 C203 1.268 . S
O210 Sc200 2.105 . S
O210 C204 1.268 1_545 S
O211 Sc198 2.105 . S
O211 C205 1.268 . S
O212 Sc200 2.105 . S
O212 C206 1.268 . S
O213 Sc199 2.105 . S
O213 C207 1.268 . S
O214 Sc198 2.105 . S
O214 C206 1.268 1_565 S
O215 Sc199 2.105 . S
O215 C205 1.268 . S
O216 Sc200 2.105 1_565 S
O216 C207 1.268 . S
O217 Sc198 2.105 . S
O217 C203 1.268 . S
O218 Sc200 2.105 . S
O218 C202 1.268 . S
O219 Sc199 2.105 . S
O219 C204 1.268 . S
Sc220 O223 2.025 . S
Sc220 O230 2.105 . S
Sc220 O233 2.105 . S
Sc220 O236 2.105 . S
Sc220 O239 2.105 . S
Sc221 O223 2.025 . S
Sc221 O231 2.105 . S
Sc221 O235 2.105 . S
Sc221 O237 2.105 . S
Sc221 O241 2.105 . S
Sc222 O223 2.025 . S
Sc222 O232 2.105 . S
Sc222 O234 2.105 . S
Sc222 O238 2.105 . S
Sc222 O240 2.105 . S
O223 Sc220 2.025 . S
O223 Sc221 2.025 . S
O223 Sc222 2.025 . S
C224 O230 1.268 . S
C224 O240 1.268 . S
C225 O231 1.268 . S
C225 O239 1.268 . S
C226 O232 1.268 . S
C226 O241 1.268 . S
C227 O233 1.268 . S
C227 O237 1.268 . S
C228 O234 1.268 . S
C228 O236 1.268 . S
C229 O235 1.268 . S
C229 O238 1.268 . S
O230 Sc220 2.105 . S
O230 C224 1.268 . S
O231 Sc221 2.105 . S
O231 C225 1.268 . S
O232 Sc222 2.105 . S
O232 C226 1.268 . S
O233 Sc220 2.105 . S
O233 C227 1.268 . S
O234 Sc222 2.105 . S
O234 C228 1.268 . S
O235 Sc221 2.105 . S
O235 C229 1.268 . S
O236 Sc220 2.105 . S
O236 C228 1.268 . S
O237 Sc221 2.105 . S
O237 C227 1.268 . S
O238 Sc222 2.105 . S
O238 C229 1.268 . S
O239 Sc220 2.105 . S
O239 C225 1.268 . S
O240 Sc222 2.105 . S
O240 C224 1.268 . S
O241 Sc221 2.105 . S
O241 C226 1.268 . S
Sc242 O245 2.025 . S
Sc242 O252 2.105 . S
Sc242 O255 2.105 . S
Sc242 O258 2.105 . S
Sc242 O261 2.105 . S
Sc243 O245 2.025 . S
Sc243 O253 2.105 . S
Sc243 O257 2.105 . S
Sc243 O259 2.105 . S
Sc243 O263 2.105 . S
Sc244 O245 2.025 . S
Sc244 O254 2.105 . S
Sc244 O256 2.105 . S
Sc244 O260 2.105 . S
Sc244 O262 2.105 . S
O245 Sc242 2.025 . S
O245 Sc243 2.025 . S
O245 Sc244 2.025 . S
C246 O252 1.268 . S
C246 O262 1.268 . S
C247 O253 1.268 . S
C247 O261 1.268 . S
C248 O254 1.268 . S
C248 O263 1.268 . S
C249 O255 1.268 . S
C249 O259 1.268 . S
C250 O256 1.268 . S
C250 O258 1.268 . S
C251 O257 1.268 . S
C251 O260 1.268 . S
O252 Sc242 2.105 . S
O252 C246 1.268 . S
O253 Sc243 2.105 . S
O253 C247 1.268 . S
O254 Sc244 2.105 . S
O254 C248 1.268 . S
O255 Sc242 2.105 . S
O255 C249 1.268 . S
O256 Sc244 2.105 . S
O256 C250 1.268 . S
O257 Sc243 2.105 . S
O257 C251 1.268 . S
O258 Sc242 2.105 . S
O258 C250 1.268 . S
O259 Sc243 2.105 . S
O259 C249 1.268 . S
O260 Sc244 2.105 . S
O260 C251 1.268 . S
O261 Sc242 2.105 . S
O261 C247 1.268 . S
O262 Sc244 2.105 . S
O262 C246 1.268 . S
O263 Sc243 2.105 . S
O263 C248 1.268 . S
Sc264 O267 2.025 . S
Sc264 O274 2.105 1_655 S
Sc264 O277 2.105 . S
Sc264 O280 2.105 . S
Sc264 O283 2.105 . S
Sc265 O267 2.025 . S
Sc265 O275 2.105 . S
Sc265 O279 2.105 . S
Sc265 O281 2.105 . S
Sc265 O285 2.105 . S
Sc266 O267 2.025 1_455 S
Sc266 O276 2.105 . S
Sc266 O278 2.105 . S
Sc266 O282 2.105 1_455 S
Sc266 O284 2.105 . S
O267 Sc264 2.025 . S
O267 Sc265 2.025 . S
O267 Sc266 2.025 1_655 S
C268 O274 1.268 . S
C268 O284 1.268 . S
C269 O275 1.268 . S
C269 O283 1.268 . S
C270 O276 1.268 1_655 S
C270 O285 1.268 . S
C271 O277 1.268 . S
C271 O281 1.268 . S
C272 O278 1.268 . S
C272 O280 1.268 1_455 S
C273 O279 1.268 . S
C273 O282 1.268 . S
O274 Sc264 2.105 1_455 S
O274 C268 1.268 . S
O275 Sc265 2.105 . S
O275 C269 1.268 . S
O276 Sc266 2.105 . S
O276 C270 1.268 1_455 S
O277 Sc264 2.105 . S
O277 C271 1.268 . S
O278 Sc266 2.105 . S
O278 C272 1.268 . S
O279 Sc265 2.105 . S
O279 C273 1.268 . S
O280 Sc264 2.105 . S
O280 C272 1.268 1_655 S
O281 Sc265 2.105 . S
O281 C271 1.268 . S
O282 Sc266 2.105 1_655 S
O282 C273 1.268 . S
O283 Sc264 2.105 . S
O283 C269 1.268 . S
O284 Sc266 2.105 . S
O284 C268 1.268 . S
O285 Sc265 2.105 . S
O285 C270 1.268 . S
Sc286 O289 2.025 . S
Sc286 O296 2.105 1_565 S
Sc286 O299 2.105 . S
Sc286 O302 2.105 . S
Sc286 O305 2.105 . S
Sc287 O289 2.025 . S
Sc287 O297 2.105 . S
Sc287 O301 2.105 . S
Sc287 O303 2.105 . S
Sc287 O307 2.105 . S
Sc288 O289 2.025 1_545 S
Sc288 O298 2.105 . S
Sc288 O300 2.105 . S
Sc288 O304 2.105 1_545 S
Sc288 O306 2.105 . S
O289 Sc286 2.025 . S
O289 Sc287 2.025 . S
O289 Sc288 2.025 1_565 S
C290 O296 1.268 . S
C290 O306 1.268 . S
C291 O297 1.268 . S
C291 O305 1.268 . S
C292 O298 1.268 1_565 S
C292 O307 1.268 . S
C293 O299 1.268 . S
C293 O303 1.268 . S
C294 O300 1.268 . S
C294 O302 1.268 1_545 S
C295 O301 1.268 . S
C295 O304 1.268 . S
O296 Sc286 2.105 1_545 S
O296 C290 1.268 . S
O297 Sc287 2.105 . S
O297 C291 1.268 . S
O298 Sc288 2.105 . S
O298 C292 1.268 1_545 S
O299 Sc286 2.105 . S
O299 C293 1.268 . S
O300 Sc288 2.105 . S
O300 C294 1.268 . S
O301 Sc287 2.105 . S
O301 C295 1.268 . S
O302 Sc286 2.105 . S
O302 C294 1.268 1_565 S
O303 Sc287 2.105 . S
O303 C293 1.268 . S
O304 Sc288 2.105 1_565 S
O304 C295 1.268 . S
O305 Sc286 2.105 . S
O305 C291 1.268 . S
O306 Sc288 2.105 . S
O306 C290 1.268 . S
O307 Sc287 2.105 . S
O307 C292 1.268 . S
Sc308 O311 2.025 . S
Sc308 O318 2.105 . S
Sc308 O321 2.105 . S
Sc308 O324 2.105 . S
Sc308 O327 2.105 . S
Sc309 O311 2.025 . S
Sc309 O319 2.105 . S
Sc309 O323 2.105 . S
Sc309 O325 2.105 . S
Sc309 O329 2.105 . S
Sc310 O311 2.025 . S
Sc310 O320 2.105 . S
Sc310 O322 2.105 . S
Sc310 O326 2.105 . S
Sc310 O328 2.105 . S
O311 Sc308 2.025 . S
O311 Sc309 2.025 . S
O311 Sc310 2.025 . S
C312 O318 1.268 . S
C312 O328 1.268 . S
C313 O319 1.268 . S
C313 O327 1.268 . S
C314 O320 1.268 . S
C314 O329 1.268 . S
C315 O321 1.268 . S
C315 O325 1.268 . S
C316 O322 1.268 . S
C316 O324 1.268 . S
C317 O323 1.268 . S
C317 O326 1.268 . S
O318 Sc308 2.105 . S
O318 C312 1.268 . S
O319 Sc309 2.105 . S
O319 C313 1.268 . S
O320 Sc310 2.105 . S
O320 C314 1.268 . S
O321 Sc308 2.105 . S
O321 C315 1.268 . S
O322 Sc310 2.105 . S
O322 C316 1.268 . S
O323 Sc309 2.105 . S
O323 C317 1.268 . S
O324 Sc308 2.105 . S
O324 C316 1.268 . S
O325 Sc309 2.105 . S
O325 C315 1.268 . S
O326 Sc310 2.105 . S
O326 C317 1.268 . S
O327 Sc308 2.105 . S
O327 C313 1.268 . S
O328 Sc310 2.105 . S
O328 C312 1.268 . S
O329 Sc309 2.105 . S
O329 C314 1.268 . S
Sc330 O333 2.025 . S
Sc330 O340 2.105 . S
Sc330 O343 2.105 . S
Sc330 O346 2.105 . S
Sc330 O349 2.105 . S
Sc331 O333 2.025 . S
Sc331 O341 2.105 . S
Sc331 O345 2.105 . S
Sc331 O347 2.105 . S
Sc331 O351 2.105 . S
Sc332 O333 2.025 . S
Sc332 O342 2.105 . S
Sc332 O344 2.105 . S
Sc332 O348 2.105 . S
Sc332 O350 2.105 . S
O333 Sc330 2.025 . S
O333 Sc331 2.025 . S
O333 Sc332 2.025 . S
C334 O340 1.268 . S
C334 O350 1.268 . S
C335 O341 1.268 . S
C335 O349 1.268 . S
C336 O342 1.268 . S
C336 O351 1.268 . S
C337 O343 1.268 . S
C337 O347 1.268 . S
C338 O344 1.268 . S
C338 O346 1.268 . S
C339 O345 1.268 . S
C339 O348 1.268 . S
O340 Sc330 2.105 . S
O340 C334 1.268 . S
O341 Sc331 2.105 . S
O341 C335 1.268 . S
O342 Sc332 2.105 . S
O342 C336 1.268 . S
O343 Sc330 2.105 . S
O343 C337 1.268 . S
O344 Sc332 2.105 . S
O344 C338 1.268 . S
O345 Sc331 2.105 . S
O345 C339 1.268 . S
O346 Sc330 2.105 . S
O346 C338 1.268 . S
O347 Sc331 2.105 . S
O347 C337 1.268 . S
O348 Sc332 2.105 . S
O348 C339 1.268 . S
O349 Sc330 2.105 . S
O349 C335 1.268 . S
O350 Sc332 2.105 . S
O350 C334 1.268 . S
O351 Sc331 2.105 . S
O351 C336 1.268 . S
C352 C353 1.387 . S
C352 H356 0.950 . S
C352 C361 1.390 . S
C353 C352 1.387 . S
C353 C355 1.387 . S
H354 C361 0.950 . S
C355 C353 1.387 . S
C355 C357 1.390 . S
C355 H359 0.950 . S
H356 C352 0.950 . S
C357 C355 1.390 . S
C357 C358 1.387 . S
C357 H360 0.950 . S
C358 C357 1.387 . S
C358 C361 1.387 . S
H359 C355 0.950 . S
H360 C357 0.950 . S
C361 C352 1.390 . S
C361 H354 0.950 . S
C361 C358 1.387 . S
C362 C363 1.387 . S
C362 H366 0.950 . S
C362 C371 1.390 . S
C363 C362 1.387 . S
C363 C365 1.387 . S
H364 C371 0.950 . S
C365 C363 1.387 . S
C365 C367 1.390 . S
C365 H369 0.950 . S
H366 C362 0.950 . S
C367 C365 1.390 . S
C367 C368 1.387 . S
C367 H370 0.950 . S
C368 C367 1.387 . S
C368 C371 1.387 . S
H369 C365 0.950 . S
H370 C367 0.950 . S
C371 C362 1.390 . S
C371 H364 0.950 . S
C371 C368 1.387 . S
C372 C373 1.387 . S
C372 H376 0.950 . S
C372 C381 1.390 . S
C373 C372 1.387 . S
C373 C375 1.387 . S
H374 C381 0.950 . S
C375 C373 1.387 . S
C375 C377 1.390 . S
C375 H379 0.950 . S
H376 C372 0.950 . S
C377 C375 1.390 . S
C377 C378 1.387 . S
C377 H380 0.950 . S
C378 C377 1.387 . S
C378 C381 1.387 . S
H379 C375 0.950 . S
H380 C377 0.950 . S
C381 C372 1.390 . S
C381 H374 0.950 . S
C381 C378 1.387 . S
C382 C383 1.387 . S
C382 H386 0.950 . S
C382 C391 1.390 . S
C383 C382 1.387 . S
C383 C385 1.387 . S
H384 C391 0.950 . S
C385 C383 1.387 . S
C385 C387 1.390 . S
C385 H389 0.950 . S
H386 C382 0.950 . S
C387 C385 1.390 . S
C387 C388 1.387 . S
C387 H390 0.950 . S
C388 C387 1.387 . S
C388 C391 1.387 . S
H389 C385 0.950 . S
H390 C387 0.950 . S
C391 C382 1.390 . S
C391 H384 0.950 . S
C391 C388 1.387 . S
C392 C393 1.387 . S
C392 H396 0.950 . S
C392 C401 1.390 . S
C393 C392 1.387 . S
C393 C395 1.387 . S
H394 C401 0.950 . S
C395 C393 1.387 . S
C395 C397 1.390 . S
C395 H399 0.950 . S
H396 C392 0.950 . S
C397 C395 1.390 . S
C397 C398 1.387 . S
C397 H400 0.950 . S
C398 C397 1.387 . S
C398 C401 1.387 . S
H399 C395 0.950 . S
H400 C397 0.950 . S
C401 C392 1.390 . S
C401 H394 0.950 . S
C401 C398 1.387 . S
C402 C403 1.387 . S
C402 H406 0.950 . S
C402 C411 1.390 . S
C403 C402 1.387 . S
C403 C405 1.387 . S
H404 C411 0.950 . S
C405 C403 1.387 . S
C405 C407 1.390 . S
C405 H409 0.950 . S
H406 C402 0.950 . S
C407 C405 1.390 . S
C407 C408 1.387 . S
C407 H410 0.950 . S
C408 C407 1.387 . S
C408 C411 1.387 . S
H409 C405 0.950 . S
H410 C407 0.950 . S
C411 C402 1.390 . S
C411 H404 0.950 . S
C411 C408 1.387 . S
C412 C413 1.387 . S
C412 H416 0.950 . S
C412 C421 1.390 . S
C413 C412 1.387 . S
C413 C415 1.387 . S
H414 C421 0.950 . S
C415 C413 1.387 . S
C415 C417 1.390 . S
C415 H419 0.950 . S
H416 C412 0.950 . S
C417 C415 1.390 . S
C417 C418 1.387 . S
C417 H420 0.950 . S
C418 C417 1.387 . S
C418 C421 1.387 . S
H419 C415 0.950 . S
H420 C417 0.950 . S
C421 C412 1.390 . S
C421 H414 0.950 . S
C421 C418 1.387 . S
C422 C423 1.387 . S
C422 H426 0.950 . S
C422 C431 1.390 . S
C423 C422 1.387 . S
C423 C425 1.387 . S
H424 C431 0.950 . S
C425 C423 1.387 . S
C425 C427 1.390 . S
C425 H429 0.950 . S
H426 C422 0.950 . S
C427 C425 1.390 . S
C427 C428 1.387 . S
C427 H430 0.950 . S
C428 C427 1.387 . S
C428 C431 1.387 . S
H429 C425 0.950 . S
H430 C427 0.950 . S
C431 C422 1.390 . S
C431 H424 0.950 . S
C431 C428 1.387 . S
C432 C433 1.387 . S
C432 H436 0.950 . S
C432 C441 1.390 . S
C433 C432 1.387 . S
C433 C435 1.387 . S
H434 C441 0.950 . S
C435 C433 1.387 . S
C435 C437 1.390 . S
C435 H439 0.950 . S
H436 C432 0.950 . S
C437 C435 1.390 . S
C437 C438 1.387 . S
C437 H440 0.950 . S
C438 C437 1.387 . S
C438 C441 1.387 . S
H439 C435 0.950 . S
H440 C437 0.950 . S
C441 C432 1.390 . S
C441 H434 0.950 . S
C441 C438 1.387 . S
C442 C443 1.387 . S
C442 H446 0.950 . S
C442 C451 1.390 . S
C443 C442 1.387 . S
C443 C445 1.387 . S
H444 C451 0.950 . S
C445 C443 1.387 . S
C445 C447 1.390 . S
C445 H449 0.950 . S
H446 C442 0.950 . S
C447 C445 1.390 . S
C447 C448 1.387 . S
C447 H450 0.950 . S
C448 C447 1.387 . S
C448 C451 1.387 . S
H449 C445 0.950 . S
H450 C447 0.950 . S
C451 C442 1.390 . S
C451 H444 0.950 . S
C451 C448 1.387 . S
C452 C453 1.387 . S
C452 H456 0.950 . S
C452 C461 1.390 . S
C453 C452 1.387 . S
C453 C455 1.387 . S
H454 C461 0.950 . S
C455 C453 1.387 . S
C455 C457 1.390 . S
C455 H459 0.950 . S
H456 C452 0.950 . S
C457 C455 1.390 . S
C457 C458 1.387 . S
C457 H460 0.950 . S
C458 C457 1.387 . S
C458 C461 1.387 . S
H459 C455 0.950 . S
H460 C457 0.950 . S
C461 C452 1.390 . S
C461 H454 0.950 . S
C461 C458 1.387 . S
C462 C463 1.387 . S
C462 H466 0.950 . S
C462 C471 1.390 . S
C463 C462 1.387 . S
C463 C465 1.387 . S
H464 C471 0.950 . S
C465 C463 1.387 . S
C465 C467 1.390 . S
C465 H469 0.950 . S
H466 C462 0.950 . S
C467 C465 1.390 . S
C467 C468 1.387 . S
C467 H470 0.950 . S
C468 C467 1.387 . S
C468 C471 1.387 . S
H469 C465 0.950 . S
H470 C467 0.950 . S
C471 C462 1.390 . S
C471 H464 0.950 . S
C471 C468 1.387 . S
C472 C473 1.387 . S
C472 H476 0.950 . S
C472 C481 1.390 . S
C473 C472 1.387 . S
C473 C475 1.387 . S
H474 C481 0.950 . S
C475 C473 1.387 . S
C475 C477 1.390 . S
C475 H479 0.950 . S
H476 C472 0.950 . S
C477 C475 1.390 . S
C477 C478 1.387 . S
C477 H480 0.950 . S
C478 C477 1.387 . S
C478 C481 1.387 . S
H479 C475 0.950 . S
H480 C477 0.950 . S
C481 C472 1.390 . S
C481 H474 0.950 . S
C481 C478 1.387 . S
C482 C483 1.387 . S
C482 H486 0.950 . S
C482 C491 1.390 . S
C483 C482 1.387 . S
C483 C485 1.387 . S
H484 C491 0.950 . S
C485 C483 1.387 . S
C485 C487 1.390 . S
C485 H489 0.950 . S
H486 C482 0.950 . S
C487 C485 1.390 . S
C487 C488 1.387 . S
C487 H490 0.950 . S
C488 C487 1.387 . S
C488 C491 1.387 . S
H489 C485 0.950 . S
H490 C487 0.950 . S
C491 C482 1.390 . S
C491 H484 0.950 . S
C491 C488 1.387 . S
C492 C493 1.387 . S
C492 H496 0.950 . S
C492 C501 1.390 . S
C493 C492 1.387 . S
C493 C495 1.387 . S
H494 C501 0.950 . S
C495 C493 1.387 . S
C495 C497 1.390 . S
C495 H499 0.950 . S
H496 C492 0.950 . S
C497 C495 1.390 . S
C497 C498 1.387 . S
C497 H500 0.950 . S
C498 C497 1.387 . S
C498 C501 1.387 . S
H499 C495 0.950 . S
H500 C497 0.950 . S
C501 C492 1.390 . S
C501 H494 0.950 . S
C501 C498 1.387 . S
C502 C503 1.387 . S
C502 H506 0.950 . S
C502 C511 1.390 . S
C503 C502 1.387 . S
C503 C505 1.387 . S
H504 C511 0.950 . S
C505 C503 1.387 . S
C505 C507 1.390 . S
C505 H509 0.950 . S
H506 C502 0.950 . S
C507 C505 1.390 . S
C507 C508 1.387 . S
C507 H510 0.950 . S
C508 C507 1.387 . S
C508 C511 1.387 . S
H509 C505 0.950 . S
H510 C507 0.950 . S
C511 C502 1.390 . S
C511 H504 0.950 . S
C511 C508 1.387 . S
C512 C513 1.387 . S
C512 H516 0.950 . S
C512 C521 1.390 . S
C513 C512 1.387 . S
C513 C515 1.387 . S
H514 C521 0.950 . S
C515 C513 1.387 . S
C515 C517 1.390 . S
C515 H519 0.950 . S
H516 C512 0.950 . S
C517 C515 1.390 . S
C517 C518 1.387 . S
C517 H520 0.950 . S
C518 C517 1.387 . S
C518 C521 1.387 . S
H519 C515 0.950 . S
H520 C517 0.950 . S
C521 C512 1.390 . S
C521 H514 0.950 . S
C521 C518 1.387 . S
C522 C523 1.387 . S
C522 H526 0.950 . S
C522 C531 1.390 . S
C523 C522 1.387 . S
C523 C525 1.387 . S
H524 C531 0.950 . S
C525 C523 1.387 . S
C525 C527 1.390 . S
C525 H529 0.950 . S
H526 C522 0.950 . S
C527 C525 1.390 . S
C527 C528 1.387 . S
C527 H530 0.950 . S
C528 C527 1.387 . S
C528 C531 1.387 . S
H529 C525 0.950 . S
H530 C527 0.950 . S
C531 C522 1.390 . S
C531 H524 0.950 . S
C531 C528 1.387 . S
C532 C533 1.387 . S
C532 H536 0.950 . S
C532 C541 1.390 . S
C533 C532 1.387 . S
C533 C535 1.387 . S
H534 C541 0.950 . S
C535 C533 1.387 . S
C535 C537 1.390 . S
C535 H539 0.950 . S
H536 C532 0.950 . S
C537 C535 1.390 . S
C537 C538 1.387 . S
C537 H540 0.950 . S
C538 C537 1.387 . S
C538 C541 1.387 . S
H539 C535 0.950 . S
H540 C537 0.950 . S
C541 C532 1.390 . S
C541 H534 0.950 . S
C541 C538 1.387 . S
C542 C543 1.387 . S
C542 H546 0.950 . S
C542 C551 1.390 . S
C543 C542 1.387 . S
C543 C545 1.387 . S
H544 C551 0.950 . S
C545 C543 1.387 . S
C545 C547 1.390 . S
C545 H549 0.950 . S
H546 C542 0.950 . S
C547 C545 1.390 . S
C547 C548 1.387 . S
C547 H550 0.950 . S
C548 C547 1.387 . S
C548 C551 1.387 . S
H549 C545 0.950 . S
H550 C547 0.950 . S
C551 C542 1.390 . S
C551 H544 0.950 . S
C551 C548 1.387 . S
C552 C553 1.387 . S
C552 H556 0.950 . S
C552 C561 1.390 . S
C553 C552 1.387 . S
C553 C555 1.387 . S
H554 C561 0.950 . S
C555 C553 1.387 . S
C555 C557 1.390 . S
C555 H559 0.950 . S
H556 C552 0.950 . S
C557 C555 1.390 . S
C557 C558 1.387 . S
C557 H560 0.950 . S
C558 C557 1.387 . S
C558 C561 1.387 . S
H559 C555 0.950 . S
H560 C557 0.950 . S
C561 C552 1.390 . S
C561 H554 0.950 . S
C561 C558 1.387 . S
C562 C563 1.387 . S
C562 H566 0.950 . S
C562 C571 1.390 . S
C563 C562 1.387 . S
C563 C565 1.387 . S
H564 C571 0.950 . S
C565 C563 1.387 . S
C565 C567 1.390 . S
C565 H569 0.950 . S
H566 C562 0.950 . S
C567 C565 1.390 . S
C567 C568 1.387 . S
C567 H570 0.950 . S
C568 C567 1.387 . S
C568 C571 1.387 . S
H569 C565 0.950 . S
H570 C567 0.950 . S
C571 C562 1.390 . S
C571 H564 0.950 . S
C571 C568 1.387 . S
C572 C573 1.387 . S
C572 H576 0.950 . S
C572 C581 1.390 . S
C573 C572 1.387 . S
C573 C575 1.387 . S
H574 C581 0.950 . S
C575 C573 1.387 . S
C575 C577 1.390 . S
C575 H579 0.950 . S
H576 C572 0.950 . S
C577 C575 1.390 . S
C577 C578 1.387 . S
C577 H580 0.950 . S
C578 C577 1.387 . S
C578 C581 1.387 . S
H579 C575 0.950 . S
H580 C577 0.950 . S
C581 C572 1.390 . S
C581 H574 0.950 . S
C581 C578 1.387 . S
C582 C583 1.387 . S
C582 H586 0.950 . S
C582 C591 1.390 . S
C583 C582 1.387 . S
C583 C585 1.387 . S
H584 C591 0.950 . S
C585 C583 1.387 . S
C585 C587 1.390 . S
C585 H589 0.950 . S
H586 C582 0.950 . S
C587 C585 1.390 . S
C587 C588 1.387 . S
C587 H590 0.950 . S
C588 C587 1.387 . S
C588 C591 1.387 . S
H589 C585 0.950 . S
H590 C587 0.950 . S
C591 C582 1.390 . S
C591 H584 0.950 . S
C591 C588 1.387 . S
C592 C593 1.387 . S
C592 H596 0.950 . S
C592 C601 1.390 . S
C593 C592 1.387 . S
C593 C595 1.387 . S
H594 C601 0.950 . S
C595 C593 1.387 . S
C595 C597 1.390 . S
C595 H599 0.950 . S
H596 C592 0.950 . S
C597 C595 1.390 . S
C597 C598 1.387 . S
C597 H600 0.950 . S
C598 C597 1.387 . S
C598 C601 1.387 . S
H599 C595 0.950 . S
H600 C597 0.950 . S
C601 C592 1.390 . S
C601 H594 0.950 . S
C601 C598 1.387 . S
C602 C603 1.387 . S
C602 H606 0.950 . S
C602 C611 1.390 . S
C603 C602 1.387 . S
C603 C605 1.387 . S
H604 C611 0.950 . S
C605 C603 1.387 . S
C605 C607 1.390 . S
C605 H609 0.950 . S
H606 C602 0.950 . S
C607 C605 1.390 . S
C607 C608 1.387 . S
C607 H610 0.950 . S
C608 C607 1.387 . S
C608 C611 1.387 . S
H609 C605 0.950 . S
H610 C607 0.950 . S
C611 C602 1.390 . S
C611 H604 0.950 . S
C611 C608 1.387 . S
C612 C613 1.387 . S
C612 H616 0.950 . S
C612 C621 1.390 . S
C613 C612 1.387 . S
C613 C615 1.387 . S
H614 C621 0.950 . S
C615 C613 1.387 . S
C615 C617 1.390 . S
C615 H619 0.950 . S
H616 C612 0.950 . S
C617 C615 1.390 . S
C617 C618 1.387 . S
C617 H620 0.950 . S
C618 C617 1.387 . S
C618 C621 1.387 . S
H619 C615 0.950 . S
H620 C617 0.950 . S
C621 C612 1.390 . S
C621 H614 0.950 . S
C621 C618 1.387 . S
C622 C623 1.387 . S
C622 H626 0.950 . S
C622 C631 1.390 . S
C623 C622 1.387 . S
C623 C625 1.387 . S
H624 C631 0.950 . S
C625 C623 1.387 . S
C625 C627 1.390 . S
C625 H629 0.950 . S
H626 C622 0.950 . S
C627 C625 1.390 . S
C627 C628 1.387 . S
C627 H630 0.950 . S
C628 C627 1.387 . S
C628 C631 1.387 . S
H629 C625 0.950 . S
H630 C627 0.950 . S
C631 C622 1.390 . S
C631 H624 0.950 . S
C631 C628 1.387 . S
C632 C633 1.387 . S
C632 H636 0.950 . S
C632 C641 1.390 . S
C633 C632 1.387 . S
C633 C635 1.387 . S
H634 C641 0.950 . S
C635 C633 1.387 . S
C635 C637 1.390 . S
C635 H639 0.950 . S
H636 C632 0.950 . S
C637 C635 1.390 . S
C637 C638 1.387 . S
C637 H640 0.950 . S
C638 C637 1.387 . S
C638 C641 1.387 . S
H639 C635 0.950 . S
H640 C637 0.950 . S
C641 C632 1.390 . S
C641 H634 0.950 . S
C641 C638 1.387 . S
C642 C643 1.387 . S
C642 H646 0.950 . S
C642 C651 1.390 . S
C643 C642 1.387 . S
C643 C645 1.387 . S
H644 C651 0.950 . S
C645 C643 1.387 . S
C645 C647 1.390 . S
C645 H649 0.950 . S
H646 C642 0.950 . S
C647 C645 1.390 . S
C647 C648 1.387 . S
C647 H650 0.950 . S
C648 C647 1.387 . S
C648 C651 1.387 . S
H649 C645 0.950 . S
H650 C647 0.950 . S
C651 C642 1.390 . S
C651 H644 0.950 . S
C651 C648 1.387 . S
C652 C653 1.387 . S
C652 H656 0.950 . S
C652 C661 1.390 . S
C653 C652 1.387 . S
C653 C655 1.387 . S
H654 C661 0.950 . S
C655 C653 1.387 . S
C655 C657 1.390 . S
C655 H659 0.950 . S
H656 C652 0.950 . S
C657 C655 1.390 . S
C657 C658 1.387 . S
C657 H660 0.950 . S
C658 C657 1.387 . S
C658 C661 1.387 . S
H659 C655 0.950 . S
H660 C657 0.950 . S
C661 C652 1.390 . S
C661 H654 0.950 . S
C661 C658 1.387 . S
C662 C663 1.387 . S
C662 H666 0.950 . S
C662 C671 1.390 . S
C663 C662 1.387 . S
C663 C665 1.387 . S
H664 C671 0.950 . S
C665 C663 1.387 . S
C665 C667 1.390 . S
C665 H669 0.950 . S
H666 C662 0.950 . S
C667 C665 1.390 . S
C667 C668 1.387 . S
C667 H670 0.950 . S
C668 C667 1.387 . S
C668 C671 1.387 . S
H669 C665 0.950 . S
H670 C667 0.950 . S
C671 C662 1.390 . S
C671 H664 0.950 . S
C671 C668 1.387 . S
C672 C673 1.387 . S
C672 H676 0.950 . S
C672 C681 1.390 1_655 S
C673 C672 1.387 . S
C673 C675 1.387 1_556 S
H674 C681 0.950 . S
C675 C673 1.387 1_554 S
C675 C677 1.390 1_655 S
C675 H679 0.950 . S
H676 C672 0.950 . S
C677 C675 1.390 1_455 S
C677 C678 1.387 . S
C677 H680 0.950 . S
C678 C677 1.387 . S
C678 C681 1.387 1_554 S
H679 C675 0.950 . S
H680 C677 0.950 . S
C681 C672 1.390 1_455 S
C681 H674 0.950 . S
C681 C678 1.387 1_556 S
C682 C683 1.387 1_655 S
C682 H686 0.950 . S
C682 C691 1.390 1_565 S
C683 C682 1.387 1_455 S
C683 C685 1.387 1_556 S
H684 C691 0.950 . S
C685 C683 1.387 1_554 S
C685 C687 1.390 1_565 S
C685 H689 0.950 . S
H686 C682 0.950 . S
C687 C685 1.390 1_545 S
C687 C688 1.387 1_455 S
C687 H690 0.950 . S
C688 C687 1.387 1_655 S
C688 C691 1.387 1_554 S
H689 C685 0.950 . S
H690 C687 0.950 . S
C691 C682 1.390 1_545 S
C691 H684 0.950 . S
C691 C688 1.387 1_556 S
C692 C693 1.387 . S
C692 H696 0.950 . S
C692 C701 1.390 1_556 S
C693 C692 1.387 . S
C693 C695 1.387 1_545 S
H694 C701 0.950 . S
C695 C693 1.387 1_565 S
C695 C697 1.390 1_556 S
C695 H699 0.950 . S
H696 C692 0.950 . S
C697 C695 1.390 1_554 S
C697 C698 1.387 . S
C697 H700 0.950 . S
C698 C697 1.387 . S
C698 C701 1.387 1_565 S
H699 C695 0.950 . S
H700 C697 0.950 . S
C701 C692 1.390 1_554 S
C701 H694 0.950 . S
C701 C698 1.387 1_545 S
C702 C703 1.387 . S
C702 H706 0.950 . S
C702 C711 1.390 . S
C703 C702 1.387 . S
C703 C705 1.387 1_554 S
H704 C711 0.950 . S
C705 C703 1.387 1_556 S
C705 C707 1.390 . S
C705 H709 0.950 . S
H706 C702 0.950 . S
C707 C705 1.390 . S
C707 C708 1.387 . S
C707 H710 0.950 . S
C708 C707 1.387 . S
C708 C711 1.387 1_556 S
H709 C705 0.950 . S
H710 C707 0.950 . S
C711 C702 1.390 . S
C711 H704 0.950 . S
C711 C708 1.387 1_554 S
C712 C713 1.387 . S
C712 H716 0.950 . S
C712 C721 1.390 1_655 S
C713 C712 1.387 . S
C713 C715 1.387 1_545 S
H714 C721 0.950 . S
C715 C713 1.387 1_565 S
C715 C717 1.390 1_655 S
C715 H719 0.950 . S
H716 C712 0.950 . S
C717 C715 1.390 1_455 S
C717 C718 1.387 . S
C717 H720 0.950 . S
C718 C717 1.387 . S
C718 C721 1.387 1_565 S
H719 C715 0.950 . S
H720 C717 0.950 . S
C721 C712 1.390 1_455 S
C721 H714 0.950 . S
C721 C718 1.387 1_545 S
C722 C723 1.387 1_545 S
C722 H726 0.950 . S
C722 C731 1.390 . S
C723 C722 1.387 1_565 S
C723 C725 1.387 . S
H724 C731 0.950 . S
C725 C723 1.387 . S
C725 C727 1.390 . S
C725 H729 0.950 . S
H726 C722 0.950 . S
C727 C725 1.390 . S
C727 C728 1.387 1_565 S
C727 H730 0.950 . S
C728 C727 1.387 1_545 S
C728 C731 1.387 . S
H729 C725 0.950 . S
H730 C727 0.950 . S
C731 C722 1.390 . S
C731 H724 0.950 . S
C731 C728 1.387 . S
C732 C733 1.387 . S
C732 H736 0.950 . S
C732 C741 1.390 . S
C733 C732 1.387 . S
C733 C735 1.387 . S
H734 C741 0.950 . S
C735 C733 1.387 . S
C735 C737 1.390 . S
C735 H739 0.950 . S
H736 C732 0.950 . S
C737 C735 1.390 . S
C737 C738 1.387 . S
C737 H740 0.950 . S
C738 C737 1.387 . S
C738 C741 1.387 . S
H739 C735 0.950 . S
H740 C737 0.950 . S
C741 C732 1.390 . S
C741 H734 0.950 . S
C741 C738 1.387 . S
C742 C743 1.387 1_655 S
C742 H746 0.950 . S
C742 C751 1.390 . S
C743 C742 1.387 1_455 S
C743 C745 1.387 . S
H744 C751 0.950 . S
C745 C743 1.387 . S
C745 C747 1.390 . S
C745 H749 0.950 . S
H746 C742 0.950 . S
C747 C745 1.390 . S
C747 C748 1.387 1_455 S
C747 H750 0.950 . S
C748 C747 1.387 1_655 S
C748 C751 1.387 . S
H749 C745 0.950 . S
H750 C747 0.950 . S
C751 C742 1.390 . S
C751 H744 0.950 . S
C751 C748 1.387 . S
C752 C753 1.387 . S
C752 H756 0.950 . S
C752 C761 1.390 . S
C753 C752 1.387 . S
C753 C755 1.387 . S
H754 C761 0.950 . S
C755 C753 1.387 . S
C755 C757 1.390 . S
C755 H759 0.950 . S
H756 C752 0.950 . S
C757 C755 1.390 . S
C757 C758 1.387 . S
C757 H760 0.950 1_655 S
C758 C757 1.387 . S
C758 C761 1.387 . S
H759 C755 0.950 . S
H760 C757 0.950 1_455 S
C761 C752 1.390 . S
C761 H754 0.950 . S
C761 C758 1.387 . S
C762 C763 1.387 1_545 S
C762 H766 0.950 . S
C762 C771 1.390 . S
C763 C762 1.387 1_565 S
C763 C765 1.387 . S
H764 C771 0.950 . S
C765 C763 1.387 . S
C765 C767 1.390 . S
C765 H769 0.953 . S
H766 C762 0.950 . S
C767 C765 1.390 . S
C767 C768 1.387 . S
C767 H770 0.950 . S
C768 C767 1.387 . S
C768 C771 1.387 1_565 S
H769 C765 0.953 . S
H770 C767 0.950 . S
C771 C762 1.390 . S
C771 H764 0.950 . S
C771 C768 1.387 1_545 S
C772 C773 1.387 1_545 S
C772 H776 0.950 . S
C772 C781 1.390 . S
C773 C772 1.387 1_565 S
C773 C775 1.387 . S
H774 C781 0.950 . S
C775 C773 1.387 . S
C775 C777 1.390 . S
C775 H779 0.950 . S
H776 C772 0.950 . S
C777 C775 1.390 . S
C777 C778 1.387 . S
C777 H780 0.950 . S
C778 C777 1.387 . S
C778 C781 1.387 1_565 S
H779 C775 0.950 . S
H780 C777 0.950 . S
C781 C772 1.390 . S
C781 H774 0.950 . S
C781 C778 1.387 1_545 S
C782 C783 1.387 . S
C782 H786 0.950 . S
C782 C791 1.390 . S
C783 C782 1.387 . S
C783 C785 1.387 . S
H784 C791 0.950 . S
C785 C783 1.387 . S
C785 C787 1.390 . S
C785 H789 0.950 . S
H786 C782 0.950 . S
C787 C785 1.390 . S
C787 C788 1.387 . S
C787 H790 0.950 . S
C788 C787 1.387 . S
C788 C791 1.387 . S
H789 C785 0.950 . S
H790 C787 0.950 . S
C791 C782 1.390 . S
C791 H784 0.950 . S
C791 C788 1.387 . S
C792 C793 1.387 . S
C792 H796 0.950 . S
C792 C801 1.390 . S
C793 C792 1.387 . S
C793 C795 1.387 . S
H794 C801 0.950 . S
C795 C793 1.387 . S
C795 C797 1.390 . S
C795 H799 0.950 . S
H796 C792 0.950 . S
C797 C795 1.390 . S
C797 C798 1.387 . S
C797 H800 0.954 . S
C798 C797 1.387 . S
C798 C801 1.387 . S
H799 C795 0.950 . S
H800 C797 0.954 . S
C801 C792 1.390 . S
C801 H794 0.950 . S
C801 C798 1.387 . S
C802 C803 1.387 1_565 S
C802 H806 0.950 1_455 S
C802 C811 1.390 . S
C803 C802 1.387 1_545 S
C803 C805 1.387 . S
H804 C811 0.950 . S
C805 C803 1.387 . S
C805 C807 1.390 . S
C805 H809 0.950 . S
H806 C802 0.950 1_655 S
C807 C805 1.390 . S
C807 C808 1.387 . S
C807 H810 0.950 . S
C808 C807 1.387 . S
C808 C811 1.387 1_545 S
H809 C805 0.950 . S
H810 C807 0.950 . S
C811 C802 1.390 . S
C811 H804 0.950 . S
C811 C808 1.387 1_565 S
C812 C813 1.387 . S
C812 H816 0.950 . S
C812 C821 1.390 . S
C813 C812 1.387 . S
C813 C815 1.387 1_545 S
H814 C821 0.950 . S
C815 C813 1.387 1_565 S
C815 C817 1.390 . S
C815 H819 0.950 . S
H816 C812 0.950 . S
C817 C815 1.390 . S
C817 C818 1.387 1_565 S
C817 H820 0.950 . S
C818 C817 1.387 1_545 S
C818 C821 1.387 . S
H819 C815 0.950 . S
H820 C817 0.950 . S
C821 C812 1.390 . S
C821 H814 0.950 . S
C821 C818 1.387 . S
C822 C823 1.387 . S
C822 H826 0.950 . S
C822 C831 1.390 . S
C823 C822 1.387 . S
C823 C825 1.387 . S
H824 C831 0.950 . S
C825 C823 1.387 . S
C825 C827 1.390 . S
C825 H829 0.950 . S
H826 C822 0.950 . S
C827 C825 1.390 . S
C827 C828 1.387 . S
C827 H830 0.950 . S
C828 C827 1.387 . S
C828 C831 1.387 . S
H829 C825 0.950 . S
H830 C827 0.950 . S
C831 C822 1.390 . S
C831 H824 0.950 . S
C831 C828 1.387 . S
C353 C70 1.357 . S
C358 C8 1.411 . S
C363 C4 1.353 . S
C368 C30 1.410 . S
C373 C52 1.410 . S
C378 C26 1.353 . S
C383 C48 1.353 . S
C388 C74 1.409 . S
C393 C92 1.410 . S
C398 C114 1.353 . S
C403 C118 1.410 . S
C408 C140 1.353 . S
C413 C136 1.411 . S
C418 C162 1.357 . S
C423 C96 1.358 . S
C428 C158 1.410 . S
C433 C184 1.410 . S
C438 C246 1.353 . S
C443 C180 1.353 . S
C448 C202 1.410 . S
C453 C206 1.357 . S
C458 C228 1.410 . S
C463 C224 1.357 . S
C468 C250 1.409 . S
C473 C268 1.410 . S
C478 C294 1.353 . S
C483 C316 1.357 . S
C488 C290 1.410 . S
C493 C338 1.357 . S
C498 C312 1.410 . S
C503 C334 1.409 . S
C508 C272 1.353 . S
C513 C6 0.847 . S
C518 C95 0.847 . S
C523 C116 0.847 . S
C528 C28 0.847 . S
C533 C50 0.847 . S
C538 C139 0.847 . S
C543 C72 0.843 . S
C548 C161 0.843 . S
C553 C273 0.843 . S
C558 C181 0.843 . S
C563 C295 0.847 . S
C568 C207 0.847 . S
C573 C225 0.847 . S
C578 C317 0.847 . S
C583 C339 0.847 . S
C588 C247 0.847 . S
C593 C5 1.950 . S
C598 C49 1.950 . S
C603 C27 1.951 . S
C608 C71 1.951 . S
C613 C141 1.950 . S
C618 C97 1.950 . S
C623 C163 1.951 . S
C628 C115 1.951 . S
C633 C226 1.951 . S
C638 C182 1.951 . S
C643 C248 1.950 . S
C648 C205 1.950 . S
C653 C271 1.951 . S
C658 C315 1.951 . S
C663 C293 1.950 . S
C668 C337 1.950 . S
C673 C185 1.855 . S
C678 C7 1.855 . S
C683 C203 1.855 . S
C688 C29 1.855 . S
C693 C229 1.857 . S
C698 C51 1.857 . S
C703 C73 1.858 . S
C708 C251 1.858 . S
C713 C269 1.858 . S
C718 C94 1.858 . S
C723 C291 1.855 . S
C728 C117 1.855 . S
C733 C313 1.858 . S
C738 C138 1.858 . S
C743 C335 1.855 . S
C748 C160 1.855 . S
C753 C159 1.351 . S
C758 C9 1.352 1_655 S
C763 C93 1.353 1_655 S
C768 C31 1.355 1_565 S
C773 C119 1.355 1_565 S
C778 C53 1.354 . S
C783 C137 1.355 . S
C788 C75 1.355 . S
C793 C336 1.356 . S
C798 C183 1.354 1_455 S
C803 C270 1.352 1_455 S
C808 C204 1.351 1_545 S
C813 C292 1.356 1_545 S
C818 C227 1.355 . S
C823 C249 1.355 . S
C828 C314 1.354 . S
