# Generated by pormake.
# Topology uod, (4)-cn, num edge types: 1
# Building blocks:
#     Node 0, Type 0, BuildingBlock: CEKHIL_clean_sbu_0, # of connection points: 4
#     Node 1, Type 0, BuildingBlock: CEKHIL_clean_sbu_0, # of connection points: 4
#     Node 2, Type 0, BuildingBlock: CEKHIL_clean_sbu_0, # of connection points: 4
#     Node 3, Type 0, BuildingBlock: CEKHIL_clean_sbu_0, # of connection points: 4
#     Node 4, Type 0, BuildingBlock: CEKHIL_clean_sbu_0, # of connection points: 4
#     Node 5, Type 0, BuildingBlock: CEKHIL_clean_sbu_0, # of connection points: 4
#     Node 6, Type 0, BuildingBlock: CEKHIL_clean_sbu_0, # of connection points: 4
#     Node 7, Type 0, BuildingBlock: CEKHIL_clean_sbu_0, # of connection points: 4
#     Node 8, Type 0, BuildingBlock: CEKHIL_clean_sbu_0, # of connection points: 4
#     Node 9, Type 0, BuildingBlock: CEKHIL_clean_sbu_0, # of connection points: 4
#     Node 10, Type 0, BuildingBlock: CEKHIL_clean_sbu_0, # of connection points: 4
#     Node 11, Type 0, BuildingBlock: CEKHIL_clean_sbu_0, # of connection points: 4
#     Node 12, Type 0, BuildingBlock: CEKHIL_clean_sbu_0, # of connection points: 4
#     Node 13, Type 0, BuildingBlock: CEKHIL_clean_sbu_0, # of connection points: 4
#     Node 14, Type 0, BuildingBlock: CEKHIL_clean_sbu_0, # of connection points: 4
#     Node 15, Type 0, BuildingBlock: CEKHIL_clean_sbu_0, # of connection points: 4
#     Node 16, Type 0, BuildingBlock: CEKHIL_clean_sbu_0, # of connection points: 4
#     Node 17, Type 0, BuildingBlock: CEKHIL_clean_sbu_0, # of connection points: 4
#     Node 18, Type 0, BuildingBlock: CEKHIL_clean_sbu_0, # of connection points: 4
#     Node 19, Type 0, BuildingBlock: CEKHIL_clean_sbu_0, # of connection points: 4
#     Node 20, Type 0, BuildingBlock: CEKHIL_clean_sbu_0, # of connection points: 4
#     Node 21, Type 0, BuildingBlock: CEKHIL_clean_sbu_0, # of connection points: 4
#     Node 22, Type 0, BuildingBlock: CEKHIL_clean_sbu_0, # of connection points: 4
#     Node 23, Type 0, BuildingBlock: CEKHIL_clean_sbu_0, # of connection points: 4
#     Node 24, Type 0, BuildingBlock: CEKHIL_clean_sbu_0, # of connection points: 4
#     Node 25, Type 0, BuildingBlock: CEKHIL_clean_sbu_0, # of connection points: 4
#     Node 26, Type 0, BuildingBlock: CEKHIL_clean_sbu_0, # of connection points: 4
#     Node 27, Type 0, BuildingBlock: CEKHIL_clean_sbu_0, # of connection points: 4
#     Node 28, Type 0, BuildingBlock: CEKHIL_clean_sbu_0, # of connection points: 4
#     Node 29, Type 0, BuildingBlock: CEKHIL_clean_sbu_0, # of connection points: 4
#     Node 30, Type 0, BuildingBlock: CEKHIL_clean_sbu_0, # of connection points: 4
#     Node 31, Type 0, BuildingBlock: CEKHIL_clean_sbu_0, # of connection points: 4
#     Edge 32, Type (0, 0), BuildingBlock: XUDNAN_clean_linker_2, # of connection points: 2
#     Edge 33, Type (0, 0), BuildingBlock: XUDNAN_clean_linker_2, # of connection points: 2
#     Edge 34, Type (0, 0), BuildingBlock: XUDNAN_clean_linker_2, # of connection points: 2
#     Edge 35, Type (0, 0), BuildingBlock: XUDNAN_clean_linker_2, # of connection points: 2
#     Edge 36, Type (0, 0), BuildingBlock: XUDNAN_clean_linker_2, # of connection points: 2
#     Edge 37, Type (0, 0), BuildingBlock: XUDNAN_clean_linker_2, # of connection points: 2
#     Edge 38, Type (0, 0), BuildingBlock: XUDNAN_clean_linker_2, # of connection points: 2
#     Edge 39, Type (0, 0), BuildingBlock: XUDNAN_clean_linker_2, # of connection points: 2
#     Edge 40, Type (0, 0), BuildingBlock: XUDNAN_clean_linker_2, # of connection points: 2
#     Edge 41, Type (0, 0), BuildingBlock: XUDNAN_clean_linker_2, # of connection points: 2
#     Edge 42, Type (0, 0), BuildingBlock: XUDNAN_clean_linker_2, # of connection points: 2
#     Edge 43, Type (0, 0), BuildingBlock: XUDNAN_clean_linker_2, # of connection points: 2
#     Edge 44, Type (0, 0), BuildingBlock: XUDNAN_clean_linker_2, # of connection points: 2
#     Edge 45, Type (0, 0), BuildingBlock: XUDNAN_clean_linker_2, # of connection points: 2
#     Edge 46, Type (0, 0), BuildingBlock: XUDNAN_clean_linker_2, # of connection points: 2
#     Edge 47, Type (0, 0), BuildingBlock: XUDNAN_clean_linker_2, # of connection points: 2
#     Edge 48, Type (0, 0), BuildingBlock: XUDNAN_clean_linker_2, # of connection points: 2
#     Edge 49, Type (0, 0), BuildingBlock: XUDNAN_clean_linker_2, # of connection points: 2
#     Edge 50, Type (0, 0), BuildingBlock: XUDNAN_clean_linker_2, # of connection points: 2
#     Edge 51, Type (0, 0), BuildingBlock: XUDNAN_clean_linker_2, # of connection points: 2
#     Edge 52, Type (0, 0), BuildingBlock: XUDNAN_clean_linker_2, # of connection points: 2
#     Edge 53, Type (0, 0), BuildingBlock: XUDNAN_clean_linker_2, # of connection points: 2
#     Edge 54, Type (0, 0), BuildingBlock: XUDNAN_clean_linker_2, # of connection points: 2
#     Edge 55, Type (0, 0), BuildingBlock: XUDNAN_clean_linker_2, # of connection points: 2
#     Edge 56, Type (0, 0), BuildingBlock: XUDNAN_clean_linker_2, # of connection points: 2
#     Edge 57, Type (0, 0), BuildingBlock: XUDNAN_clean_linker_2, # of connection points: 2
#     Edge 58, Type (0, 0), BuildingBlock: XUDNAN_clean_linker_2, # of connection points: 2
#     Edge 59, Type (0, 0), BuildingBlock: XUDNAN_clean_linker_2, # of connection points: 2
#     Edge 60, Type (0, 0), BuildingBlock: XUDNAN_clean_linker_2, # of connection points: 2
#     Edge 61, Type (0, 0), BuildingBlock: XUDNAN_clean_linker_2, # of connection points: 2
#     Edge 62, Type (0, 0), BuildingBlock: XUDNAN_clean_linker_2, # of connection points: 2
#     Edge 63, Type (0, 0), BuildingBlock: XUDNAN_clean_linker_2, # of connection points: 2
#     Edge 64, Type (0, 0), BuildingBlock: XUDNAN_clean_linker_2, # of connection points: 2
#     Edge 65, Type (0, 0), BuildingBlock: XUDNAN_clean_linker_2, # of connection points: 2
#     Edge 66, Type (0, 0), BuildingBlock: XUDNAN_clean_linker_2, # of connection points: 2
#     Edge 67, Type (0, 0), BuildingBlock: XUDNAN_clean_linker_2, # of connection points: 2
#     Edge 68, Type (0, 0), BuildingBlock: XUDNAN_clean_linker_2, # of connection points: 2
#     Edge 69, Type (0, 0), BuildingBlock: XUDNAN_clean_linker_2, # of connection points: 2
#     Edge 70, Type (0, 0), BuildingBlock: XUDNAN_clean_linker_2, # of connection points: 2
#     Edge 71, Type (0, 0), BuildingBlock: XUDNAN_clean_linker_2, # of connection points: 2
#     Edge 72, Type (0, 0), BuildingBlock: XUDNAN_clean_linker_2, # of connection points: 2
#     Edge 73, Type (0, 0), BuildingBlock: XUDNAN_clean_linker_2, # of connection points: 2
#     Edge 74, Type (0, 0), BuildingBlock: XUDNAN_clean_linker_2, # of connection points: 2
#     Edge 75, Type (0, 0), BuildingBlock: XUDNAN_clean_linker_2, # of connection points: 2
#     Edge 76, Type (0, 0), BuildingBlock: XUDNAN_clean_linker_2, # of connection points: 2
#     Edge 77, Type (0, 0), BuildingBlock: XUDNAN_clean_linker_2, # of connection points: 2
#     Edge 78, Type (0, 0), BuildingBlock: XUDNAN_clean_linker_2, # of connection points: 2
#     Edge 79, Type (0, 0), BuildingBlock: XUDNAN_clean_linker_2, # of connection points: 2
#     Edge 80, Type (0, 0), BuildingBlock: XUDNAN_clean_linker_2, # of connection points: 2
#     Edge 81, Type (0, 0), BuildingBlock: XUDNAN_clean_linker_2, # of connection points: 2
#     Edge 82, Type (0, 0), BuildingBlock: XUDNAN_clean_linker_2, # of connection points: 2
#     Edge 83, Type (0, 0), BuildingBlock: XUDNAN_clean_linker_2, # of connection points: 2
#     Edge 84, Type (0, 0), BuildingBlock: XUDNAN_clean_linker_2, # of connection points: 2
#     Edge 85, Type (0, 0), BuildingBlock: XUDNAN_clean_linker_2, # of connection points: 2
#     Edge 86, Type (0, 0), BuildingBlock: XUDNAN_clean_linker_2, # of connection points: 2
#     Edge 87, Type (0, 0), BuildingBlock: XUDNAN_clean_linker_2, # of connection points: 2
#     Edge 88, Type (0, 0), BuildingBlock: XUDNAN_clean_linker_2, # of connection points: 2
#     Edge 89, Type (0, 0), BuildingBlock: XUDNAN_clean_linker_2, # of connection points: 2
#     Edge 90, Type (0, 0), BuildingBlock: XUDNAN_clean_linker_2, # of connection points: 2
#     Edge 91, Type (0, 0), BuildingBlock: XUDNAN_clean_linker_2, # of connection points: 2
#     Edge 92, Type (0, 0), BuildingBlock: XUDNAN_clean_linker_2, # of connection points: 2
#     Edge 93, Type (0, 0), BuildingBlock: XUDNAN_clean_linker_2, # of connection points: 2
#     Edge 94, Type (0, 0), BuildingBlock: XUDNAN_clean_linker_2, # of connection points: 2
#     Edge 95, Type (0, 0), BuildingBlock: XUDNAN_clean_linker_2, # of connection points: 2
# Relax obj value: 0.167
# Max RMSD: 0.163
# Mean RMSD: 0.163
data_MOF--net-uod--node1-CEKHIL_clean_sbu_0--edge1-XUDNAN_clean_linker_2
_symmetry_space_group_name_H-M    P1
_symmetry_Int_Tables_number       1
_symmetry_cell_setting            triclinic
loop_
_symmetry_equiv_pos_as_xyz
'x, y, z'
_cell_length_a     91.891819
_cell_length_b     26.160067
_cell_length_c     60.067346
_cell_angle_alpha  89.99833
_cell_angle_beta   90.042219
_cell_angle_gamma 89.989214
loop_
_atom_site_label
_atom_site_type_symbol
_atom_site_fract_x
_atom_site_fract_y
_atom_site_fract_z
_atom_type_partial_charge
Co0 Co 0.05423 0.36277 0.08589 0.0
O1 O 0.03667 0.36567 0.06756 0.0
O2 O 0.05669 0.40988 0.06134 0.0
C3 C 0.05553 0.27744 0.09048 0.0
O4 O 0.0745 0.37047 0.10033 0.0
Co5 Co 0.05385 0.32298 0.13475 0.0
O6 O 0.0754 0.32406 0.13187 0.0
C7 C 0.04032 0.4213 0.12381 0.0
C8 C 0.04328 0.40032 0.05578 0.0
C9 C 0.08156 0.35074 0.11686 0.0
O10 O 0.04613 0.41938 0.10441 0.0
O11 O 0.04136 0.38564 0.1383 0.0
O12 O 0.06032 0.2982 0.07217 0.0
O13 O 0.04892 0.30786 0.10399 0.0
Co14 Co 0.21169 0.85899 0.08008 0.0
O15 O 0.22997 0.85652 0.06346 0.0
O16 O 0.20982 0.81634 0.0539 0.0
C17 C 0.21091 0.94335 0.08718 0.0
O18 O 0.19075 0.85233 0.0921 0.0
Co19 Co 0.21042 0.89029 0.13 0.0
O20 O 0.18896 0.88684 0.12629 0.0
C21 C 0.22399 0.79359 0.11701 0.0
C22 C 0.22352 0.82493 0.04995 0.0
C23 C 0.18316 0.86619 0.10923 0.0
O24 O 0.21842 0.79847 0.09753 0.0
O25 O 0.22293 0.82746 0.13228 0.0
O26 O 0.20678 0.92608 0.06782 0.0
O27 O 0.21674 0.91019 0.10033 0.0
Co28 Co 0.05174 0.85384 0.16898 0.0
O29 O 0.0345 0.85535 0.18777 0.0
O30 O 0.05554 0.82134 0.19749 0.0
C31 C 0.05116 0.93446 0.15538 0.0
O32 O 0.07185 0.84551 0.15391 0.0
Co33 Co 0.04713 0.86367 0.11774 0.0
O34 O 0.06865 0.85646 0.11693 0.0
C35 C 0.03652 0.77416 0.14113 0.0
C36 C 0.04185 0.82875 0.20218 0.0
C37 C 0.0768 0.84804 0.13374 0.0
O38 O 0.04504 0.78592 0.15728 0.0
O39 O 0.03434 0.80372 0.12452 0.0
O40 O 0.05646 0.92619 0.1752 0.0
O41 O 0.04472 0.89589 0.14647 0.0
Co42 Co 0.21635 0.36033 0.17187 0.0
O43 O 0.23579 0.3538 0.18381 0.0
O44 O 0.21755 0.38962 0.20184 0.0
C45 C 0.21445 0.28112 0.15685 0.0
O46 O 0.19465 0.37242 0.16443 0.0
Co47 Co 0.21237 0.35444 0.12021 0.0
O48 O 0.19137 0.35338 0.12804 0.0
C49 C 0.22719 0.44156 0.14045 0.0
C50 C 0.23138 0.3785 0.20127 0.0
C51 C 0.18642 0.3649 0.14721 0.0
O52 O 0.22184 0.4288 0.15939 0.0
O53 O 0.22604 0.41371 0.12304 0.0
O54 O 0.21207 0.28744 0.17807 0.0
O55 O 0.21939 0.32067 0.14669 0.0
Co56 Co 0.96289 0.62212 0.92651 0.0
O57 O 0.98206 0.62632 0.93936 0.0
O58 O 0.96436 0.57973 0.95347 0.0
C59 C 0.96003 0.70619 0.91936 0.0
O60 O 0.94145 0.61081 0.91732 0.0
Co61 Co 0.9596 0.65181 0.8764 0.0
O62 O 0.93857 0.64183 0.88249 0.0
C63 C 0.97481 0.55803 0.88872 0.0
C64 C 0.97796 0.59388 0.9544 0.0
C65 C 0.93341 0.62203 0.90023 0.0
O66 O 0.96948 0.5623 0.90838 0.0
O67 O 0.97337 0.59253 0.87379 0.0
O68 O 0.95746 0.68855 0.93926 0.0
O69 O 0.96569 0.6739 0.90571 0.0
Co70 Co 0.80155 0.12422 0.9183 0.0
O71 O 0.78251 0.11468 0.93108 0.0
O72 O 0.80071 0.15194 0.94864 0.0
C73 C 0.80385 0.04619 0.90268 0.0
O74 O 0.82294 0.13902 0.90964 0.0
Co75 Co 0.80402 0.1223 0.86645 0.0
O76 O 0.82522 0.12187 0.87295 0.0
C77 C 0.78952 0.20764 0.88862 0.0
C78 C 0.787 0.13909 0.94856 0.0
C79 C 0.83075 0.13301 0.89182 0.0
O80 O 0.79507 0.19243 0.90705 0.0
O81 O 0.79077 0.18276 0.87037 0.0
O82 O 0.80666 0.05215 0.92379 0.0
O83 O 0.79824 0.08533 0.89292 0.0
Co84 Co 0.96374 0.12539 0.83815 0.0
O85 O 0.98192 0.11463 0.82289 0.0
O86 O 0.96345 0.157 0.80848 0.0
C87 C 0.96108 0.04597 0.85241 0.0
O88 O 0.9431 0.14243 0.84992 0.0
Co89 Co 0.96486 0.11743 0.89017 0.0
O90 O 0.94373 0.13154 0.8873 0.0
C91 C 0.97844 0.20391 0.86795 0.0
C92 C 0.97697 0.14231 0.80667 0.0
C93 C 0.93693 0.14215 0.86935 0.0
O94 O 0.9717 0.19121 0.85008 0.0
O95 O 0.9783 0.17684 0.88568 0.0
O96 O 0.95733 0.0547 0.83184 0.0
O97 O 0.96782 0.08289 0.86207 0.0
Co98 Co 0.80405 0.61715 0.83566 0.0
O99 O 0.78779 0.61254 0.81508 0.0
O100 O 0.80793 0.56701 0.81251 0.0
C101 C 0.80532 0.70272 0.83891 0.0
O102 O 0.82314 0.61226 0.8538 0.0
Co103 Co 0.79805 0.66068 0.88311 0.0
O104 O 0.81933 0.65064 0.88694 0.0
C105 C 0.78645 0.56121 0.87086 0.0
C106 C 0.79484 0.57613 0.80512 0.0
C107 C 0.82761 0.62764 0.87313 0.0
O108 O 0.79486 0.56192 0.85382 0.0
O109 O 0.78501 0.5992 0.88406 0.0
O110 O 0.8112 0.6803 0.82175 0.0
O111 O 0.79745 0.67377 0.85137 0.0
Co112 Co 0.05824 0.88087 0.58828 0.0
O113 O 0.03939 0.88562 0.57337 0.0
O114 O 0.06036 0.9088 0.55862 0.0
C115 C 0.05631 0.80249 0.60359 0.0
O116 O 0.07977 0.88107 0.59798 0.0
Co117 Co 0.06028 0.87662 0.63989 0.0
O118 O 0.08169 0.87528 0.63533 0.0
C119 C 0.04765 0.96431 0.6173 0.0
C120 C 0.04625 0.90693 0.55685 0.0
C121 C 0.08742 0.87822 0.61606 0.0
O122 O 0.05499 0.95162 0.60001 0.0
O123 O 0.0469 0.93593 0.63458 0.0
O124 O 0.0597 0.80692 0.5826 0.0
O125 O 0.05244 0.84423 0.61331 0.0
Co126 Co 0.21072 0.37396 0.57335 0.0
O127 O 0.22891 0.3665 0.55692 0.0
O128 O 0.20873 0.32406 0.54965 0.0
C129 C 0.21053 0.45985 0.576 0.0
O130 O 0.18987 0.37113 0.58616 0.0
Co131 Co 0.21009 0.42023 0.62124 0.0
O132 O 0.18864 0.41991 0.61703 0.0
C133 C 0.22293 0.31925 0.61355 0.0
C134 C 0.22244 0.33132 0.54527 0.0
C135 C 0.1826 0.39282 0.60202 0.0
O136 O 0.21726 0.31866 0.594 0.0
O137 O 0.22233 0.35788 0.62658 0.0
O138 O 0.2061 0.43814 0.55767 0.0
O139 O 0.21609 0.42971 0.59062 0.0
Co140 Co 0.05145 0.3738 0.67282 0.0
O141 O 0.0339 0.36847 0.69105 0.0
O142 O 0.05414 0.32515 0.69682 0.0
C143 C 0.05232 0.45948 0.66921 0.0
O144 O 0.07177 0.36873 0.65829 0.0
Co145 Co 0.05071 0.41689 0.62447 0.0
O146 O 0.07224 0.41831 0.62764 0.0
C147 C 0.03856 0.31562 0.6337 0.0
C148 C 0.04067 0.33347 0.70243 0.0
C149 C 0.07865 0.39082 0.64214 0.0
O150 O 0.04377 0.3178 0.6535 0.0
O151 O 0.03949 0.35193 0.61952 0.0
O152 O 0.0572 0.43794 0.68731 0.0
O153 O 0.0458 0.42945 0.65543 0.0
Co154 Co 0.22208 0.87191 0.6613 0.0
O155 O 0.24083 0.86861 0.67539 0.0
O156 O 0.22111 0.89626 0.69235 0.0
C157 C 0.2228 0.79541 0.64393 0.0
O158 O 0.20068 0.87773 0.65038 0.0
Co159 Co 0.22339 0.87577 0.60925 0.0
O160 O 0.20226 0.864 0.61328 0.0
C161 C 0.23265 0.96389 0.63498 0.0
C162 C 0.23516 0.88887 0.693 0.0
C163 C 0.19477 0.869 0.63107 0.0
O164 O 0.22652 0.9439 0.65208 0.0
O165 O 0.23389 0.94067 0.61636 0.0
O166 O 0.21911 0.79771 0.66485 0.0
O167 O 0.22779 0.8374 0.63584 0.0
Co168 Co 0.96584 0.13488 0.42901 0.0
O169 O 0.98505 0.13835 0.44176 0.0
O170 O 0.96767 0.08886 0.4548 0.0
C171 C 0.9626 0.21969 0.42401 0.0
O172 O 0.94448 0.12268 0.41948 0.0
Co173 Co 0.96206 0.1721 0.37981 0.0
O174 O 0.9411 0.16075 0.38613 0.0
C175 C 0.97736 0.0765 0.38906 0.0
C176 C 0.98124 0.10326 0.45582 0.0
C177 C 0.93623 0.13645 0.40298 0.0
O178 O 0.97265 0.07837 0.40917 0.0
O179 O 0.9755 0.11269 0.37501 0.0
O180 O 0.96014 0.19949 0.44348 0.0
O181 O 0.96828 0.18937 0.40959 0.0
Co182 Co 0.79948 0.60859 0.41609 0.0
O183 O 0.78226 0.60051 0.43394 0.0
O184 O 0.79985 0.65411 0.44234 0.0
C185 C 0.80357 0.52467 0.41007 0.0
O186 O 0.81919 0.62425 0.40051 0.0
Co187 Co 0.79658 0.57271 0.36661 0.0
O188 O 0.81785 0.58457 0.36715 0.0
C189 C 0.78295 0.66821 0.38021 0.0
C190 C 0.78697 0.636 0.44707 0.0
C191 C 0.82494 0.60981 0.38176 0.0
O192 O 0.7894 0.66408 0.39907 0.0
O193 O 0.78365 0.63446 0.36485 0.0
O194 O 0.80796 0.54592 0.42851 0.0
O195 O 0.79553 0.55314 0.39763 0.0
Co196 Co 0.96167 0.63478 0.33841 0.0
O197 O 0.98138 0.6294 0.32765 0.0
O198 O 0.96316 0.65818 0.30736 0.0
C199 C 0.96061 0.55886 0.3562 0.0
O200 O 0.93969 0.6439 0.34497 0.0
Co201 Co 0.95759 0.64024 0.38998 0.0
O202 O 0.93661 0.63698 0.38219 0.0
C203 C 0.97155 0.7239 0.3661 0.0
C204 C 0.97712 0.64982 0.30911 0.0
C205 C 0.93146 0.64155 0.36254 0.0
O206 O 0.96602 0.70621 0.34809 0.0
O207 O 0.97067 0.70053 0.38476 0.0
O208 O 0.95851 0.56076 0.33475 0.0
O209 O 0.96493 0.60094 0.36511 0.0
Co210 Co 0.80619 0.09501 0.33897 0.0
O211 O 0.78903 0.09414 0.31992 0.0
O212 O 0.81002 0.05785 0.31164 0.0
C213 C 0.80576 0.17754 0.34993 0.0
O214 O 0.82626 0.0885 0.35439 0.0
Co215 Co 0.80176 0.1127 0.38976 0.0
O216 O 0.82308 0.10056 0.3913 0.0
C217 C 0.79024 0.02156 0.36869 0.0
C218 C 0.79639 0.06506 0.30648 0.0
C219 C 0.8312 0.09137 0.37456 0.0
O220 O 0.79918 0.02952 0.35264 0.0
O221 O 0.78826 0.05381 0.38438 0.0
O222 O 0.8111 0.16583 0.33049 0.0
O223 O 0.79927 0.14078 0.36013 0.0
Co224 Co 0.55592 0.38117 0.58622 0.0
O225 O 0.53766 0.37944 0.56966 0.0
O226 O 0.55849 0.40875 0.5566 0.0
C227 C 0.5553 0.30292 0.60189 0.0
O228 O 0.57691 0.38943 0.59793 0.0
Co229 Co 0.55609 0.37787 0.63798 0.0
O230 O 0.57759 0.37302 0.63474 0.0
C231 C 0.54401 0.4661 0.61458 0.0
C232 C 0.54456 0.40259 0.55368 0.0
C233 C 0.58396 0.38273 0.61638 0.0
O234 O 0.55048 0.4509 0.59687 0.0
O235 O 0.54382 0.44018 0.63263 0.0
O236 O 0.55954 0.30788 0.58129 0.0
O237 O 0.55 0.34356 0.61089 0.0
Co238 Co 0.71496 0.86498 0.58478 0.0
O239 O 0.73162 0.86092 0.56481 0.0
O240 O 0.71141 0.81641 0.56091 0.0
C241 C 0.7138 0.95046 0.58886 0.0
O242 O 0.69542 0.8597 0.6018 0.0
Co243 Co 0.71967 0.90618 0.63298 0.0
O244 O 0.69836 0.89556 0.63571 0.0
C245 C 0.73136 0.80664 0.62072 0.0
C246 C 0.72461 0.82556 0.55408 0.0
C247 C 0.69046 0.87374 0.62105 0.0
O248 O 0.72363 0.80837 0.60291 0.0
O249 O 0.73244 0.84411 0.63428 0.0
O250 O 0.70824 0.9291 0.57119 0.0
O251 O 0.72133 0.92062 0.60144 0.0
Co252 Co 0.5552 0.87902 0.67527 0.0
O253 O 0.53608 0.88249 0.68834 0.0
O254 O 0.55373 0.83436 0.70156 0.0
C255 C 0.55805 0.96353 0.66946 0.0
O256 O 0.57661 0.86795 0.6656 0.0
Co257 Co 0.55833 0.91353 0.62563 0.0
O258 O 0.57938 0.90351 0.63159 0.0
C259 C 0.54304 0.81896 0.63643 0.0
C260 C 0.54016 0.84876 0.70283 0.0
C261 C 0.58461 0.88126 0.64874 0.0
O262 O 0.54843 0.8212 0.65614 0.0
O263 O 0.5445 0.85475 0.6221 0.0
O264 O 0.56072 0.94438 0.68907 0.0
O265 O 0.55238 0.93236 0.65537 0.0
Co266 Co 0.71741 0.36969 0.67036 0.0
O267 O 0.73582 0.35858 0.68501 0.0
O268 O 0.71737 0.39936 0.70034 0.0
C269 C 0.7148 0.29107 0.65531 0.0
O270 O 0.69656 0.38676 0.65947 0.0
Co271 Co 0.7177 0.36468 0.61826 0.0
O272 O 0.69651 0.37614 0.62207 0.0
C273 C 0.73127 0.45085 0.64094 0.0
C274 C 0.73093 0.38494 0.70167 0.0
C275 C 0.69002 0.38625 0.64032 0.0
O276 O 0.72501 0.43659 0.65899 0.0
O277 O 0.73086 0.42487 0.62291 0.0
O278 O 0.71128 0.29852 0.67607 0.0
O279 O 0.72129 0.32876 0.64584 0.0
Co280 Co 0.46408 0.62695 0.42496 0.0
O281 O 0.48338 0.62939 0.43736 0.0
O282 O 0.46577 0.58198 0.45116 0.0
C283 C 0.46136 0.71157 0.41925 0.0
O284 O 0.44258 0.61683 0.41577 0.0
Co285 Co 0.4608 0.66155 0.37533 0.0
O286 O 0.43978 0.65172 0.3816 0.0
C287 C 0.47583 0.56649 0.38595 0.0
C288 C 0.47946 0.59525 0.45177 0.0
C289 C 0.43457 0.63003 0.39889 0.0
O290 O 0.47043 0.56888 0.40564 0.0
O291 O 0.47449 0.6024 0.37165 0.0
O292 O 0.45891 0.69252 0.43894 0.0
O293 O 0.46684 0.68022 0.40506 0.0
Co294 Co 0.30161 0.12577 0.41307 0.0
O295 O 0.28353 0.11429 0.42849 0.0
O296 O 0.3021 0.15612 0.44296 0.0
C297 C 0.30413 0.04694 0.39823 0.0
O298 O 0.32218 0.14309 0.4011 0.0
Co299 Co 0.30002 0.12039 0.36109 0.0
O300 O 0.3213 0.13168 0.36377 0.0
C301 C 0.28665 0.20588 0.38437 0.0
C302 C 0.2886 0.1412 0.44485 0.0
C303 C 0.32825 0.14222 0.38159 0.0
O304 O 0.29359 0.19218 0.40191 0.0
O305 O 0.28666 0.17989 0.36633 0.0
O306 O 0.30803 0.055 0.41879 0.0
O307 O 0.29733 0.08422 0.38889 0.0
Co308 Co 0.46414 0.12774 0.33524 0.0
O309 O 0.48325 0.11951 0.32236 0.0
O310 O 0.46463 0.15426 0.30477 0.0
C311 C 0.46241 0.05045 0.35168 0.0
O312 O 0.44267 0.14105 0.3438 0.0
Co313 Co 0.46155 0.12807 0.38705 0.0
O314 O 0.44034 0.12572 0.38062 0.0
C315 C 0.47562 0.21319 0.36414 0.0
C316 C 0.47846 0.14302 0.30482 0.0
C317 C 0.43482 0.13552 0.3616 0.0
O318 O 0.4701 0.197 0.34586 0.0
O319 O 0.47459 0.18878 0.38254 0.0
O320 O 0.45954 0.05493 0.33051 0.0
O321 O 0.46777 0.09058 0.36096 0.0
Co322 Co 0.30486 0.61546 0.33355 0.0
O323 O 0.28838 0.61023 0.31334 0.0
O324 O 0.30861 0.56536 0.31034 0.0
C325 C 0.30602 0.70116 0.33664 0.0
O326 O 0.32416 0.61104 0.35116 0.0
Co327 Co 0.29948 0.6591 0.38114 0.0
O328 O 0.32073 0.64797 0.38473 0.0
C329 C 0.28759 0.55982 0.36913 0.0
C330 C 0.29544 0.57406 0.30321 0.0
C331 C 0.32883 0.62564 0.37049 0.0
O332 O 0.29593 0.56014 0.352 0.0
O333 O 0.2863 0.59797 0.38229 0.0
O334 O 0.31174 0.67863 0.31938 0.0
O335 O 0.29835 0.67217 0.3494 0.0
Co336 Co 0.55726 0.88796 0.087 0.0
O337 O 0.53847 0.89183 0.07196 0.0
O338 O 0.55952 0.91213 0.05669 0.0
C339 C 0.55488 0.81179 0.10392 0.0
O340 O 0.57877 0.88778 0.09705 0.0
Co341 Co 0.55876 0.89016 0.13873 0.0
O342 O 0.58015 0.88576 0.13458 0.0
C343 C 0.54744 0.97697 0.11393 0.0
C344 C 0.54539 0.91064 0.05496 0.0
C345 C 0.58615 0.88612 0.11545 0.0
O346 O 0.55434 0.96022 0.09689 0.0
O347 O 0.54657 0.95191 0.13216 0.0
O348 O 0.55839 0.81368 0.08291 0.0
O349 O 0.55112 0.85473 0.11275 0.0
Co350 Co 0.70862 0.36661 0.07838 0.0
O351 O 0.72716 0.35743 0.06311 0.0
O352 O 0.70669 0.31901 0.05379 0.0
C353 C 0.70924 0.45199 0.08225 0.0
O354 O 0.68735 0.36703 0.08945 0.0
Co355 Co 0.70726 0.40836 0.12696 0.0
O356 O 0.68585 0.40282 0.12351 0.0
C357 C 0.72025 0.30894 0.11776 0.0
C358 C 0.72059 0.32454 0.05039 0.0
C359 C 0.67992 0.38246 0.1065 0.0
O360 O 0.71391 0.30892 0.09868 0.0
O361 O 0.72016 0.34736 0.1309 0.0
O362 O 0.70522 0.43219 0.0633 0.0
O363 O 0.7141 0.4202 0.09682 0.0
Co364 Co 0.55036 0.38411 0.17216 0.0
O365 O 0.53398 0.37648 0.1923 0.0
O366 O 0.55442 0.33261 0.19471 0.0
C367 C 0.55102 0.47008 0.17025 0.0
O368 O 0.56965 0.38214 0.15439 0.0
Co369 Co 0.54457 0.43188 0.12532 0.0
O370 O 0.56595 0.42428 0.1221 0.0
C371 C 0.5343 0.32899 0.1347 0.0
C372 C 0.54124 0.34022 0.20201 0.0
C373 C 0.57421 0.4 0.13552 0.0
O374 O 0.54178 0.32963 0.15277 0.0
O375 O 0.53287 0.3678 0.12195 0.0
O376 O 0.55694 0.44688 0.18719 0.0
O377 O 0.54349 0.44137 0.15721 0.0
Co378 Co 0.72027 0.86583 0.16675 0.0
O379 O 0.73907 0.8616 0.18067 0.0
O380 O 0.71959 0.8911 0.19768 0.0
C381 C 0.72056 0.78879 0.14989 0.0
O382 O 0.69882 0.87274 0.15607 0.0
Co383 Co 0.7211 0.86752 0.11461 0.0
O384 O 0.69994 0.85737 0.11903 0.0
C385 C 0.73134 0.95547 0.13957 0.0
C386 C 0.73359 0.88249 0.19827 0.0
C387 C 0.69268 0.86363 0.13696 0.0
O388 O 0.72511 0.93706 0.15693 0.0
O389 O 0.73226 0.93128 0.12114 0.0
O390 O 0.71695 0.79194 0.17082 0.0
O391 O 0.72565 0.83024 0.14144 0.0
Co392 Co 0.46411 0.10648 0.91949 0.0
O393 O 0.48378 0.11178 0.93034 0.0
O394 O 0.46601 0.076 0.94931 0.0
C395 C 0.46221 0.1864 0.9054 0.0
O396 O 0.44223 0.09586 0.9127 0.0
Co397 Co 0.45981 0.11419 0.86791 0.0
O398 O 0.43889 0.1106 0.87597 0.0
C399 C 0.47503 0.02726 0.88745 0.0
C400 C 0.47985 0.08665 0.94792 0.0
C401 C 0.4339 0.1007 0.89532 0.0
O402 O 0.4692 0.03845 0.90625 0.0
O403 O 0.47398 0.05609 0.87032 0.0
O404 O 0.46024 0.17903 0.92664 0.0
O405 O 0.46682 0.14725 0.89459 0.0
Co406 Co 0.30634 0.60496 0.92303 0.0
O407 O 0.28693 0.60178 0.93494 0.0
O408 O 0.30419 0.65005 0.94914 0.0
C409 C 0.30918 0.52019 0.91778 0.0
O410 O 0.32795 0.61576 0.91448 0.0
Co411 Co 0.31048 0.56946 0.8737 0.0
O412 O 0.33136 0.58069 0.88049 0.0
C413 C 0.29474 0.66372 0.88353 0.0
C414 C 0.29059 0.63572 0.94958 0.0
C415 C 0.33624 0.60285 0.89789 0.0
O416 O 0.3 0.66242 0.90334 0.0
O417 O 0.29647 0.62755 0.86945 0.0
O418 O 0.31144 0.53985 0.93741 0.0
O419 O 0.30394 0.55115 0.90321 0.0
Co420 Co 0.46649 0.61468 0.83592 0.0
O421 O 0.48295 0.61698 0.81551 0.0
O422 O 0.46285 0.66226 0.81172 0.0
C423 C 0.46493 0.52956 0.84073 0.0
O424 O 0.44716 0.62185 0.85334 0.0
Co425 Co 0.47147 0.57594 0.8844 0.0
O426 O 0.45016 0.58608 0.88723 0.0
C427 C 0.48311 0.67479 0.8712 0.0
C428 C 0.47595 0.65223 0.80466 0.0
C429 C 0.44225 0.6081 0.87265 0.0
O430 O 0.4757 0.67154 0.85315 0.0
O431 O 0.48376 0.63928 0.88577 0.0
O432 O 0.4593 0.55072 0.82307 0.0
O433 O 0.4728 0.55925 0.85295 0.0
Co434 Co 0.30311 0.0993 0.83855 0.0
O435 O 0.28672 0.10118 0.81806 0.0
O436 O 0.3082 0.06784 0.81037 0.0
C437 C 0.30189 0.17914 0.85254 0.0
O438 O 0.32257 0.09089 0.8556 0.0
Co439 Co 0.29646 0.10668 0.88925 0.0
O440 O 0.31798 0.10445 0.89201 0.0
C441 C 0.28753 0.01664 0.86464 0.0
C442 C 0.29471 0.07495 0.80436 0.0
C443 C 0.32681 0.09541 0.8761 0.0
O444 O 0.29601 0.03097 0.84891 0.0
O445 O 0.28502 0.04372 0.88193 0.0
O446 O 0.30801 0.17157 0.83323 0.0
O447 O 0.29506 0.14034 0.86058 0.0
H448 H 0.04206 0.69537 0.16974 0.0
H449 H 0.01673 0.73599 0.11133 0.0
H450 H 0.0094 0.64621 0.10699 0.0
H451 H 0.05769 0.59446 0.14886 0.0
H452 H 0.05764 0.55421 0.17323 0.0
H453 H 0.05706 0.62226 0.17632 0.0
H454 H 0.03337 0.61506 0.19946 0.0
H455 H 0.03393 0.54644 0.19657 0.0
H456 H 0.01792 0.58136 0.18819 0.0
H457 H 0.01051 0.5542 0.1025 0.0
H458 H 0.0198 0.4664 0.09849 0.0
H459 H 0.04386 0.48204 0.16008 0.0
C460 C 0.03452 0.68568 0.15653 0.0
C461 C 0.03005 0.72257 0.14079 0.0
C462 C 0.02035 0.70836 0.12355 0.0
C463 C 0.01601 0.65746 0.12109 0.0
C464 C 0.02127 0.62142 0.13617 0.0
C465 C 0.03017 0.63494 0.15379 0.0
C466 C 0.0364 0.58824 0.16526 0.0
C467 C 0.05318 0.58992 0.16592 0.0
C468 C 0.03002 0.58243 0.18876 0.0
C469 C 0.03084 0.54668 0.14993 0.0
C470 C 0.02169 0.56656 0.13374 0.0
C471 C 0.01716 0.5377 0.11552 0.0
C472 C 0.02254 0.48805 0.1133 0.0
C473 C 0.03226 0.46783 0.12925 0.0
C474 C 0.03599 0.4965 0.14822 0.0
H475 H 0.22235 0.73562 0.15456 0.0
H476 H 0.24206 0.74329 0.08918 0.0
H477 H 0.25107 0.65526 0.09339 0.0
H478 H 0.24976 0.63732 0.18025 0.0
H479 H 0.23504 0.60626 0.19472 0.0
H480 H 0.23466 0.67451 0.19045 0.0
H481 H 0.20941 0.66628 0.17155 0.0
H482 H 0.20976 0.59846 0.17562 0.0
H483 H 0.20733 0.62411 0.148 0.0
H484 H 0.25208 0.56394 0.0995 0.0
H485 H 0.24477 0.47515 0.10688 0.0
H486 H 0.22406 0.52322 0.16832 0.0
C487 C 0.22921 0.71933 0.14173 0.0
C488 C 0.23169 0.7458 0.1217 0.0
C489 C 0.24016 0.72326 0.1047 0.0
C490 C 0.24543 0.67353 0.10705 0.0
C491 C 0.24212 0.64696 0.12649 0.0
C492 C 0.23432 0.66915 0.14371 0.0
C493 C 0.22971 0.6295 0.16068 0.0
C494 C 0.23778 0.63737 0.18284 0.0
C495 C 0.21307 0.6296 0.16412 0.0
C496 C 0.23485 0.58131 0.14916 0.0
C497 C 0.2425 0.59243 0.12994 0.0
C498 C 0.2465 0.55458 0.11483 0.0
C499 C 0.24218 0.50431 0.11904 0.0
C500 C 0.23382 0.49248 0.13813 0.0
C501 C 0.23066 0.53113 0.15379 0.0
H502 H 0.98248 0.26499 0.90407 0.0
H503 H 0.98896 0.25781 0.83266 0.0
H504 H 0.99498 0.34946 0.83214 0.0
H505 H 0.96295 0.36842 0.90399 0.0
H506 H 0.96962 0.39758 0.92922 0.0
H507 H 0.97086 0.32974 0.92572 0.0
H508 H 0.99869 0.33326 0.9324 0.0
H509 H 0.9975 0.40152 0.9362 0.0
H510 H 0.0098 0.37533 0.91581 0.0
H511 H 0.99372 0.44228 0.83734 0.0
H512 H 0.98558 0.52858 0.84801 0.0
H513 H 0.97979 0.47682 0.91612 0.0
C514 C 0.98591 0.28227 0.88856 0.0
C515 C 0.98531 0.25462 0.86846 0.0
C516 C 0.98936 0.27856 0.84827 0.0
C517 C 0.99292 0.3305 0.84784 0.0
C518 C 0.99248 0.35774 0.86775 0.0
C519 C 0.98929 0.33429 0.88786 0.0
C520 C 0.98679 0.37327 0.90607 0.0
C521 C 0.97166 0.36686 0.91684 0.0
C522 C 0.99893 0.37069 0.92365 0.0
C523 C 0.98779 0.422 0.89263 0.0
C524 C 0.99157 0.41242 0.87076 0.0
C525 C 0.99119 0.45058 0.85456 0.0
C526 C 0.98644 0.49945 0.86073 0.0
C527 C 0.98197 0.50937 0.88286 0.0
C528 C 0.98322 0.47056 0.89908 0.0
H529 H 0.78191 0.48226 0.84254 0.0
H530 H 0.77539 0.5295 0.91102 0.0
H531 H 0.76894 0.44094 0.92102 0.0
H532 H 0.75428 0.37033 0.84262 0.0
H533 H 0.76644 0.33338 0.82544 0.0
H534 H 0.76545 0.40183 0.82213 0.0
H535 H 0.79326 0.40784 0.82804 0.0
H536 H 0.7944 0.34006 0.83173 0.0
H537 H 0.80118 0.38209 0.85314 0.0
H538 H 0.77021 0.34789 0.92562 0.0
H539 H 0.77842 0.25849 0.92442 0.0
H540 H 0.7846 0.27027 0.853 0.0
C541 C 0.77857 0.47431 0.85948 0.0
C542 C 0.77925 0.51242 0.87607 0.0
C543 C 0.77487 0.50082 0.89804 0.0
C544 C 0.77113 0.45062 0.90383 0.0
C545 C 0.77159 0.41303 0.88735 0.0
C546 C 0.77494 0.42451 0.86547 0.0
C547 C 0.77733 0.3767 0.85177 0.0
C548 C 0.76514 0.37018 0.83447 0.0
C549 C 0.79244 0.37672 0.84055 0.0
C550 C 0.77626 0.33669 0.86984 0.0
C551 C 0.77241 0.35823 0.89007 0.0
C552 C 0.77278 0.33031 0.90979 0.0
C553 C 0.77762 0.27969 0.90897 0.0
C554 C 0.78218 0.25768 0.88858 0.0
C555 C 0.78093 0.28594 0.86871 0.0
H556 H 0.05201 0.04544 0.58941 0.0
H557 H 0.0264 0.99519 0.64599 0.0
H558 H 0.01557 0.08078 0.64894 0.0
H559 H 0.06271 0.15484 0.61071 0.0
H560 H 0.06196 0.19323 0.5858 0.0
H561 H 0.06426 0.12543 0.58366 0.0
H562 H 0.04146 0.11986 0.55833 0.0
H563 H 0.03907 0.18814 0.5605 0.0
H564 H 0.02439 0.1457 0.56787 0.0
H565 H 0.01242 0.1721 0.65218 0.0
H566 H 0.01821 0.26338 0.65658 0.0
H567 H 0.04523 0.258 0.59766 0.0
C568 C 0.04376 0.0521 0.60193 0.0
C569 C 0.04009 0.01391 0.61753 0.0
C570 C 0.02946 0.02408 0.63396 0.0
C571 C 0.02308 0.0724 0.63555 0.0
C572 C 0.02734 0.10999 0.62049 0.0
C573 C 0.03738 0.10039 0.60386 0.0
C574 C 0.04205 0.14929 0.59243 0.0
C575 C 0.05872 0.15607 0.59324 0.0
C576 C 0.0364 0.15083 0.56835 0.0
C577 C 0.03425 0.1882 0.60679 0.0
C578 C 0.02532 0.1645 0.62225 0.0
C579 C 0.01891 0.19135 0.6397 0.0
C580 C 0.02227 0.24307 0.64213 0.0
C581 C 0.0319 0.26722 0.62715 0.0
C582 C 0.03739 0.24033 0.6087 0.0
H583 H 0.23828 0.02901 0.60067 0.0
H584 H 0.23677 0.0204 0.67278 0.0
H585 H 0.23985 0.11373 0.67504 0.0
H586 H 0.26351 0.14638 0.59693 0.0
H587 H 0.25331 0.16988 0.57341 0.0
H588 H 0.25549 0.10201 0.57751 0.0
H589 H 0.22746 0.09101 0.5763 0.0
H590 H 0.22524 0.15847 0.57244 0.0
H591 H 0.21632 0.12703 0.5954 0.0
H592 H 0.23727 0.20681 0.66955 0.0
H593 H 0.22913 0.2917 0.65663 0.0
H594 H 0.23216 0.23986 0.58815 0.0
C595 C 0.23921 0.04652 0.61694 0.0
C596 C 0.23725 0.01766 0.63651 0.0
C597 C 0.23819 0.04196 0.65753 0.0
C598 C 0.24008 0.0949 0.659 0.0
C599 C 0.24118 0.12276 0.63931 0.0
C600 C 0.24097 0.09931 0.61864 0.0
C601 C 0.23984 0.138 0.60004 0.0
C602 C 0.25388 0.13914 0.58616 0.0
C603 C 0.22642 0.12803 0.58522 0.0
C604 C 0.23819 0.18633 0.61353 0.0
C605 C 0.2395 0.17713 0.63611 0.0
C606 C 0.23663 0.21487 0.6519 0.0
C607 C 0.23194 0.26287 0.64444 0.0
C608 C 0.22993 0.27205 0.62143 0.0
C609 C 0.23361 0.23384 0.60586 0.0
H610 H 0.98454 0.99454 0.4146 0.0
H611 H 0.98402 0.04808 0.34622 0.0
H612 H 0.98891 0.96051 0.33326 0.0
H613 H 0.01118 0.88129 0.40564 0.0
H614 H 1.00075 0.84328 0.42492 0.0
H615 H 1.00251 0.91125 0.42919 0.0
H616 H 0.97446 0.91928 0.43036 0.0
H617 H 0.97254 0.85202 0.42572 0.0
H618 H 0.96386 0.89663 0.40707 0.0
H619 H 0.98686 0.86806 0.32735 0.0
H620 H 0.97868 0.7787 0.3289 0.0
H621 H 0.97975 0.78408 0.40113 0.0
C622 C 0.98604 0.98824 0.39693 0.0
C623 C 0.98377 0.02793 0.38141 0.0
C624 C 0.98573 0.01823 0.35843 0.0
C625 C 0.98859 0.96858 0.35092 0.0
C626 C 0.98968 0.92948 0.36661 0.0
C627 C 0.98873 0.93893 0.38923 0.0
C628 C 0.98751 0.8899 0.40245 0.0
C629 C 1.00131 0.8809 0.41636 0.0
C630 C 0.97378 0.88948 0.41723 0.0
C631 C 0.98642 0.85179 0.38364 0.0
C632 C 0.98827 0.87509 0.36315 0.0
C633 C 0.98581 0.84909 0.34328 0.0
C634 C 0.98099 0.79846 0.34436 0.0
C635 C 0.97847 0.77465 0.3652 0.0
C636 C 0.98174 0.80115 0.385 0.0
H637 H 0.7863 0.72966 0.34431 0.0
H638 H 0.76446 0.71723 0.40786 0.0
H639 H 0.75843 0.80885 0.4066 0.0
H640 H 0.80471 0.8302 0.35622 0.0
H641 H 0.80421 0.86335 0.32991 0.0
H642 H 0.80187 0.79541 0.33065 0.0
H643 H 0.77717 0.80343 0.31019 0.0
H644 H 0.77955 0.87183 0.30896 0.0
H645 H 0.7633 0.84522 0.32111 0.0
H646 H 0.76103 0.90128 0.4044 0.0
H647 H 0.77128 0.98772 0.40071 0.0
H648 H 0.79219 0.94278 0.33893 0.0
C649 C 0.77943 0.74589 0.35714 0.0
C650 C 0.77555 0.71679 0.37592 0.0
C651 C 0.76725 0.73915 0.39315 0.0
C652 C 0.76375 0.79109 0.39253 0.0
C653 C 0.76866 0.82001 0.37456 0.0
C654 C 0.77612 0.79812 0.3569 0.0
C655 C 0.78278 0.83875 0.34208 0.0
C656 C 0.79936 0.83147 0.33961 0.0
C657 C 0.77525 0.83987 0.31923 0.0
C658 C 0.77916 0.88617 0.35538 0.0
C659 C 0.77054 0.87477 0.37356 0.0
C660 C 0.76739 0.91106 0.38985 0.0
C661 C 0.77339 0.95999 0.38773 0.0
C662 C 0.78261 0.97193 0.3696 0.0
C663 C 0.78511 0.93491 0.35292 0.0
H664 H 0.53633 0.73822 0.66302 0.0
H665 H 0.53441 0.79027 0.59447 0.0
H666 H 0.52776 0.7034 0.5825 0.0
H667 H 0.55512 0.63612 0.65392 0.0
H668 H 0.54661 0.59378 0.6737 0.0
H669 H 0.54596 0.66141 0.67809 0.0
H670 H 0.51786 0.65873 0.67989 0.0
H671 H 0.51835 0.59045 0.67579 0.0
H672 H 0.50768 0.63012 0.65745 0.0
H673 H 0.52837 0.61091 0.57685 0.0
H674 H 0.53571 0.52055 0.57798 0.0
H675 H 0.53756 0.52693 0.65011 0.0
C676 C 0.53397 0.73181 0.64557 0.0
C677 C 0.53602 0.77078 0.62964 0.0
C678 C 0.53291 0.76095 0.60697 0.0
C679 C 0.52901 0.71174 0.60005 0.0
C680 C 0.52806 0.67322 0.61603 0.0
C681 C 0.5302 0.68291 0.63843 0.0
C682 C 0.53125 0.63398 0.65176 0.0
C683 C 0.54558 0.6312 0.66511 0.0
C684 C 0.51799 0.62797 0.66712 0.0
C685 C 0.53088 0.59534 0.63308 0.0
C686 C 0.52848 0.6186 0.6127 0.0
C687 C 0.52981 0.592 0.59272 0.0
C688 C 0.53416 0.54084 0.59353 0.0
C689 C 0.53725 0.51705 0.61418 0.0
C690 C 0.53502 0.54406 0.63416 0.0
H691 H 0.73549 0.72538 0.59323 0.0
H692 H 0.74221 0.77627 0.66122 0.0
H693 H 0.74895 0.6885 0.67201 0.0
H694 H 0.71706 0.622 0.60513 0.0
H695 H 0.72422 0.58065 0.58378 0.0
H696 H 0.72441 0.64852 0.5798 0.0
H697 H 0.75223 0.64659 0.57333 0.0
H698 H 0.75218 0.57818 0.57708 0.0
H699 H 0.76398 0.61762 0.59382 0.0
H700 H 0.74855 0.59518 0.67734 0.0
H701 H 0.74168 0.50421 0.67659 0.0
H702 H 0.73543 0.51299 0.6051 0.0
C703 C 0.73888 0.71844 0.61024 0.0
C704 C 0.73824 0.75746 0.62643 0.0
C705 C 0.74268 0.74695 0.64852 0.0
C706 C 0.74659 0.69722 0.65477 0.0
C707 C 0.74628 0.65889 0.63864 0.0
C708 C 0.74278 0.66914 0.61669 0.0
C709 C 0.74094 0.62056 0.60333 0.0
C710 C 0.72576 0.61781 0.59241 0.0
C711 C 0.75306 0.61544 0.58586 0.0
C712 C 0.74268 0.58133 0.62162 0.0
C713 C 0.74619 0.60411 0.64173 0.0
C714 C 0.74627 0.57668 0.66161 0.0
C715 C 0.74223 0.52513 0.66104 0.0
C716 C 0.73809 0.50173 0.64074 0.0
C717 C 0.73889 0.5297 0.62073 0.0
H718 H 0.48223 0.48558 0.41261 0.0
H719 H 0.48467 0.53758 0.3441 0.0
H720 H 0.4916 0.45076 0.33233 0.0
H721 H 0.51111 0.37863 0.40796 0.0
H722 H 0.50036 0.33863 0.42601 0.0
H723 H 0.50056 0.40695 0.43005 0.0
H724 H 0.47246 0.40854 0.42732 0.0
H725 H 0.47212 0.34083 0.42307 0.0
H726 H 0.46371 0.38255 0.40292 0.0
H727 H 0.49161 0.35798 0.32678 0.0
H728 H 0.4846 0.26736 0.32779 0.0
H729 H 0.48164 0.27427 0.39983 0.0
C730 C 0.48473 0.47918 0.39522 0.0
C731 C 0.48279 0.51813 0.37924 0.0
C732 C 0.48609 0.50828 0.35664 0.0
C733 C 0.49015 0.45911 0.34983 0.0
C734 C 0.49105 0.42067 0.36586 0.0
C735 C 0.48865 0.43036 0.38819 0.0
C736 C 0.48761 0.38147 0.40154 0.0
C737 C 0.5007 0.37611 0.41732 0.0
C738 C 0.47312 0.37819 0.41443 0.0
C739 C 0.48834 0.34274 0.38292 0.0
C740 C 0.49091 0.366 0.36259 0.0
C741 C 0.49 0.33914 0.34263 0.0
C742 C 0.48586 0.28776 0.34337 0.0
C743 C 0.48249 0.26403 0.36394 0.0
C744 C 0.48437 0.29131 0.38395 0.0
H745 H 0.28194 0.48226 0.34053 0.0
H746 H 0.27691 0.52794 0.4095 0.0
H747 H 0.2694 0.44013 0.41911 0.0
H748 H 0.25256 0.37622 0.34071 0.0
H749 H 0.26382 0.33755 0.32282 0.0
H750 H 0.26397 0.40622 0.3201 0.0
H751 H 0.29191 0.40621 0.32514 0.0
H752 H 0.29192 0.33813 0.32813 0.0
H753 H 0.29972 0.37747 0.3497 0.0
H754 H 0.26938 0.34676 0.42299 0.0
H755 H 0.27642 0.25616 0.42085 0.0
H756 H 0.28147 0.26958 0.34932 0.0
C757 C 0.27874 0.47418 0.35752 0.0
C758 C 0.2801 0.51155 0.37433 0.0
C759 C 0.27587 0.49982 0.39637 0.0
C760 C 0.27153 0.45008 0.40193 0.0
C761 C 0.2712 0.41312 0.38517 0.0
C762 C 0.27445 0.42486 0.36328 0.0
C763 C 0.2758 0.37727 0.34912 0.0
C764 C 0.26329 0.37414 0.33219 0.0
C765 C 0.29072 0.37465 0.33738 0.0
C766 C 0.2743 0.33671 0.3669 0.0
C767 C 0.27111 0.35812 0.38743 0.0
C768 C 0.2714 0.32935 0.40694 0.0
C769 C 0.27554 0.27802 0.40558 0.0
C770 C 0.27945 0.25611 0.38487 0.0
C771 C 0.27819 0.28522 0.36524 0.0
H772 H 0.52875 0.24658 0.16059 0.0
H773 H 0.5281 0.29875 0.09208 0.0
H774 H 0.52585 0.20959 0.07932 0.0
H775 H 0.55195 0.15575 0.15394 0.0
H776 H 0.54437 0.1086 0.1725 0.0
H777 H 0.54059 0.17498 0.17695 0.0
H778 H 0.51289 0.15799 0.17516 0.0
H779 H 0.51649 0.09081 0.17126 0.0
H780 H 0.50527 0.12479 0.15157 0.0
H781 H 0.53103 0.1181 0.07388 0.0
H782 H 0.54092 0.03072 0.07619 0.0
H783 H 0.53844 0.03733 0.14829 0.0
C784 C 0.52747 0.2393 0.14295 0.0
C785 C 0.52869 0.2792 0.1273 0.0
C786 C 0.52708 0.26861 0.10434 0.0
C787 C 0.52579 0.21805 0.09695 0.0
C788 C 0.52582 0.17903 0.11278 0.0
C789 C 0.52624 0.18917 0.13539 0.0
C790 C 0.52863 0.14106 0.14885 0.0
C791 C 0.54219 0.14541 0.16391 0.0
C792 C 0.51501 0.12788 0.16251 0.0
C793 C 0.53091 0.10311 0.13024 0.0
C794 C 0.52883 0.12536 0.10958 0.0
C795 C 0.53224 0.09977 0.08992 0.0
C796 C 0.53804 0.05044 0.09142 0.0
C797 C 0.54047 0.02748 0.11246 0.0
C798 C 0.53649 0.05373 0.132 0.0
H799 H 0.73593 0.0191 0.1045 0.0
H800 H 0.7372 0.01245 0.17664 0.0
H801 H 0.74045 0.10579 0.17813 0.0
H802 H 0.76072 0.13794 0.09776 0.0
H803 H 0.74944 0.1602 0.07518 0.0
H804 H 0.75218 0.09258 0.07932 0.0
H805 H 0.72423 0.07974 0.08078 0.0
H806 H 0.72144 0.14694 0.07698 0.0
H807 H 0.71368 0.11523 0.10083 0.0
H808 H 0.73738 0.19819 0.17251 0.0
H809 H 0.72823 0.28215 0.16017 0.0
H810 H 0.72841 0.22909 0.09171 0.0
C811 C 0.73757 0.03705 0.12055 0.0
C812 C 0.7363 0.00883 0.14042 0.0
C813 C 0.73809 0.03359 0.16119 0.0
C814 C 0.74009 0.08652 0.16219 0.0
C815 C 0.7404 0.11384 0.14229 0.0
C816 C 0.73939 0.08986 0.12179 0.0
C817 C 0.73727 0.12801 0.10317 0.0
C818 C 0.75071 0.12979 0.08797 0.0
C819 C 0.72333 0.1168 0.08969 0.0
C820 C 0.7359 0.17652 0.1166 0.0
C821 C 0.73829 0.16797 0.13902 0.0
C822 C 0.73589 0.20579 0.15494 0.0
C823 C 0.73059 0.25321 0.14781 0.0
C824 C 0.72751 0.26176 0.12502 0.0
C825 C 0.73066 0.22349 0.10925 0.0
H826 H 0.48065 0.73404 0.90799 0.0
H827 H 0.50024 0.72649 0.8426 0.0
H828 H 0.50597 0.81828 0.8444 0.0
H829 H 0.46153 0.83469 0.89887 0.0
H830 H 0.46289 0.86617 0.92549 0.0
H831 H 0.46539 0.79839 0.92372 0.0
H832 H 0.49078 0.80596 0.94212 0.0
H833 H 0.48827 0.87416 0.94442 0.0
H834 H 0.50411 0.84895 0.93057 0.0
H835 H 0.50296 0.91012 0.84774 0.0
H836 H 0.49258 0.99585 0.85329 0.0
H837 H 0.47436 0.94675 0.91644 0.0
C838 C 0.48698 0.75141 0.8948 0.0
C839 C 0.49031 0.72369 0.87539 0.0
C840 C 0.49788 0.74743 0.85775 0.0
C841 C 0.50121 0.79945 0.85868 0.0
C842 C 0.49685 0.82702 0.87737 0.0
C843 C 0.49012 0.80375 0.89537 0.0
C844 C 0.48391 0.84317 0.91123 0.0
C845 C 0.46746 0.83511 0.91501 0.0
C846 C 0.49227 0.84305 0.93339 0.0
C847 C 0.48691 0.89156 0.89822 0.0
C848 C 0.49483 0.88158 0.87916 0.0
C849 C 0.49717 0.91882 0.86296 0.0
C850 C 0.49108 0.96727 0.86613 0.0
C851 C 0.48264 0.97789 0.88527 0.0
C852 C 0.48094 0.93993 0.90178 0.0
H853 H 0.28574 0.74162 0.91013 0.0
H854 H 0.28715 0.69263 0.84114 0.0
H855 H 0.27862 0.77772 0.82938 0.0
H856 H 0.25432 0.83845 0.90353 0.0
H857 H 0.26313 0.88103 0.9229 0.0
H858 H 0.26474 0.81278 0.92638 0.0
H859 H 0.2928 0.82103 0.92634 0.0
H860 H 0.29134 0.88877 0.92275 0.0
H861 H 0.30169 0.8515 0.90309 0.0
H862 H 0.27669 0.87033 0.82456 0.0
H863 H 0.28144 0.96275 0.82705 0.0
H864 H 0.28102 0.95316 0.8991 0.0
C865 C 0.28378 0.74824 0.89258 0.0
C866 C 0.28721 0.71077 0.87652 0.0
C867 C 0.28457 0.7208 0.85374 0.0
C868 C 0.27962 0.76894 0.84693 0.0
C869 C 0.27712 0.80609 0.86313 0.0
C870 C 0.2789 0.79601 0.88557 0.0
C871 C 0.27798 0.84426 0.89938 0.0
C872 C 0.26422 0.84411 0.9139 0.0
C873 C 0.29178 0.8518 0.91369 0.0
C874 C 0.27687 0.88362 0.88104 0.0
C875 C 0.27585 0.86072 0.8603 0.0
C876 C 0.277 0.8888 0.84068 0.0
C877 C 0.27983 0.94116 0.84225 0.0
C878 C 0.28155 0.9647 0.8633 0.0
C879 C 0.27939 0.93608 0.88286 0.0
H880 H 0.97573 0.5091 0.98287 0.0
H881 H 1.00539 0.62843 0.96127 0.0
H882 H 0.02492 0.5903 0.98365 0.0
H883 H 0.98989 0.49994 0.04 0.0
H884 H 0.9879 0.43148 0.04148 0.0
H885 H 0.97589 0.46845 0.02405 0.0
H886 H 0.98312 0.41286 0.99013 0.0
H887 H 0.99526 0.37606 0.00743 0.0
H888 H 1.00205 0.40693 0.98271 0.0
H889 H 0.04173 0.53868 0.00675 0.0
H890 H 0.05443 0.48012 0.03223 0.0
H891 H 0.01455 0.39334 0.04087 0.0
C892 C 0.98627 0.52754 0.98314 0.0
C893 C 0.98892 0.57207 0.9702 0.0
C894 C 1.00298 0.59448 0.9709 0.0
C895 C 0.01422 0.57298 0.98357 0.0
C896 C 0.01139 0.52881 0.99571 0.0
C897 C 0.99776 0.50646 0.99589 0.0
C898 C 0.99787 0.45893 0.01062 0.0
C899 C 0.98726 0.46508 0.0302 0.0
C900 C 0.99436 0.41085 0.9969 0.0
C901 C 0.01364 0.45844 0.01862 0.0
C902 C 0.0212 0.49901 0.00956 0.0
C903 C 0.03591 0.50689 0.01406 0.0
C904 C 0.04307 0.47314 0.02854 0.0
C905 C 0.03558 0.43186 0.03865 0.0
C906 C 0.02064 0.42431 0.0334 0.0
H907 H 0.29275 0.71572 0.98084 0.0
H908 H 0.2622 0.60848 0.95138 0.0
H909 H 0.24228 0.64746 0.97246 0.0
H910 H 0.27574 0.71695 0.03602 0.0
H911 H 0.27884 0.78414 0.04065 0.0
H912 H 0.29107 0.74823 0.02318 0.0
H913 H 0.28666 0.81241 0.99108 0.0
H914 H 0.27429 0.84824 0.00836 0.0
H915 H 0.26834 0.82445 0.9817 0.0
H916 H 0.22527 0.69797 0.99543 0.0
H917 H 0.21232 0.7534 0.02187 0.0
H918 H 0.25302 0.82847 0.03869 0.0
C919 C 0.28189 0.70023 0.97901 0.0
C920 C 0.27917 0.65873 0.9643 0.0
C921 C 0.26472 0.64001 0.96241 0.0
C922 C 0.25323 0.66206 0.97431 0.0
C923 C 0.25618 0.70301 0.98834 0.0
C924 C 0.27014 0.72178 0.99105 0.0
C925 C 0.27008 0.76589 0.00769 0.0
C926 C 0.27949 0.75302 0.0281 0.0
C927 C 0.27514 0.8157 0.99654 0.0
C928 C 0.25397 0.76854 0.01383 0.0
C929 C 0.24622 0.73206 1.00221 0.0
C930 C 0.23122 0.72661 0.00471 0.0
C931 C 0.22393 0.75854 0.01978 0.0
C932 C 0.23155 0.79558 0.03245 0.0
C933 C 0.24682 0.80081 0.02922 0.0
H934 H 0.0126 0.82976 0.21397 0.0
H935 H 0.05419 0.76303 0.23217 0.0
H936 H 0.04188 0.70852 0.25986 0.0
H937 H 0.99724 0.83045 0.27045 0.0
H938 H 0.97913 0.81488 0.26111 0.0
H939 H 0.99125 0.8499 0.24314 0.0
H940 H 0.98764 0.78148 0.21248 0.0
H941 H 0.9757 0.74584 0.23049 0.0
H942 H 0.9915 0.71541 0.21865 0.0
H943 H 0.02517 0.65854 0.28449 0.0
H944 H 1.00553 0.62183 0.30719 0.0
H945 H 0.97419 0.72047 0.27431 0.0
C946 C 0.01916 0.80428 0.22404 0.0
C947 C 0.03447 0.80113 0.22088 0.0
C948 C 0.04254 0.7667 0.23428 0.0
C949 C 0.0356 0.73524 0.25001 0.0
C950 C 0.02052 0.73851 0.25236 0.0
C951 C 0.01238 0.7726 0.23999 0.0
C952 C 0.99629 0.76831 0.24599 0.0
C953 C 0.99065 0.81889 0.25575 0.0
C954 C 0.98725 0.75178 0.22569 0.0
C955 C 0.99667 0.72639 0.2636 0.0
C956 C 0.0108 0.7097 0.26682 0.0
C957 C 0.01409 0.67149 0.28215 0.0
C958 C 1.00278 0.65067 0.29496 0.0
C959 C 0.98821 0.66783 0.29259 0.0
C960 C 0.98513 0.70587 0.27638 0.0
H961 H 0.22891 0.46038 0.23061 0.0
H962 H 0.25863 0.34171 0.20879 0.0
H963 H 0.27801 0.37871 0.23218 0.0
H964 H 0.25476 0.5613 0.2303 0.0
H965 H 0.24794 0.59295 0.25481 0.0
H966 H 0.23586 0.5553 0.23781 0.0
H967 H 0.22873 0.50052 0.27205 0.0
H968 H 0.24062 0.53855 0.28923 0.0
H969 H 0.2428 0.47011 0.28827 0.0
H970 H 0.2947 0.43066 0.2565 0.0
H971 H 0.30712 0.49165 0.28148 0.0
H972 H 0.26706 0.57833 0.28766 0.0
C973 C 0.23939 0.44152 0.23119 0.0
C974 C 0.24215 0.39762 0.21797 0.0
C975 C 0.25617 0.37504 0.2188 0.0
C976 C 0.2673 0.39591 0.23203 0.0
C977 C 0.26437 0.43978 0.2444 0.0
C978 C 0.25074 0.46222 0.24426 0.0
C979 C 0.25071 0.51024 0.25859 0.0
C980 C 0.2471 0.55775 0.24454 0.0
C981 C 0.24009 0.5045 0.2782 0.0
C982 C 0.26643 0.51135 0.26663 0.0
C983 C 0.27409 0.47024 0.25823 0.0
C984 C 0.28879 0.46295 0.2632 0.0
C985 C 0.2958 0.49804 0.27735 0.0
C986 C 0.28818 0.54021 0.28648 0.0
C987 C 0.27328 0.54687 0.28085 0.0
H988 H 0.78904 0.21929 0.9791 0.0
H989 H 0.76023 0.09899 0.95601 0.0
H990 H 0.74058 0.13293 0.97958 0.0
H991 H 0.77477 0.22402 0.03704 0.0
H992 H 0.77644 0.29254 0.03885 0.0
H993 H 0.78873 0.25665 0.02146 0.0
H994 H 0.78146 0.31286 0.98775 0.0
H995 H 0.76899 0.34841 0.00494 0.0
H996 H 0.76257 0.31769 0.97994 0.0
H997 H 0.72334 0.18283 0.00313 0.0
H998 H 0.71008 0.24201 0.02775 0.0
H999 H 0.74954 0.33076 0.03699 0.0
C1000 C 0.77871 0.19937 0.97948 0.0
C1001 C 0.77627 0.15602 0.96575 0.0
C1002 C 0.76245 0.13197 0.96637 0.0
C1003 C 0.75117 0.15108 0.9797 0.0
C1004 C 0.75375 0.19451 0.99251 0.0
C1005 C 0.7672 0.21814 0.9928 0.0
C1006 C 0.76679 0.26529 0.0077 0.0
C1007 C 0.77731 0.25925 0.02743 0.0
C1008 C 0.77015 0.31394 0.99428 0.0
C1009 C 0.75099 0.2646 0.01546 0.0
C1010 C 0.74371 0.22339 0.00639 0.0
C1011 C 0.72897 0.21502 0.01048 0.0
C1012 C 0.72148 0.24914 0.02443 0.0
C1013 C 0.72868 0.29128 0.03436 0.0
C1014 C 0.74368 0.299 0.0297 0.0
H1015 H 0.97433 0.2265 0.77818 0.0
H1016 H 1.00323 0.1018 0.79609 0.0
H1017 H 0.02226 0.13771 0.77198 0.0
H1018 H 0.98662 0.23708 0.71947 0.0
H1019 H 0.98528 0.30581 0.71916 0.0
H1020 H 0.97343 0.26888 0.73684 0.0
H1021 H 0.98221 0.32091 0.77095 0.0
H1022 H 0.99425 0.35749 0.75345 0.0
H1023 H 1.00137 0.32371 0.77725 0.0
H1024 H 0.03898 0.1894 0.74838 0.0
H1025 H 0.0516 0.24948 0.72346 0.0
H1026 H 0.01236 0.3414 0.71896 0.0
C1027 C 0.98453 0.20612 0.77656 0.0
C1028 C 0.98717 0.16089 0.78903 0.0
C1029 C 1.00084 0.13622 0.78675 0.0
C1030 C 0.01179 0.15647 0.77311 0.0
C1031 C 0.00905 0.20165 0.7616 0.0
C1032 C 0.99571 0.22595 0.76285 0.0
C1033 C 0.99587 0.27464 0.74886 0.0
C1034 C 0.98463 0.2714 0.72996 0.0
C1035 C 0.99327 0.32199 0.7635 0.0
C1036 C 0.01137 0.27386 0.73977 0.0
C1037 C 0.01875 0.23144 0.74753 0.0
C1038 C 0.03327 0.22253 0.74204 0.0
C1039 C 0.04039 0.25718 0.72791 0.0
C1040 C 0.03307 0.30041 0.71914 0.0
C1041 C 0.01833 0.30886 0.72535 0.0
H1042 H 0.72887 0.47015 0.72925 0.0
H1043 H 0.75676 0.34165 0.71305 0.0
H1044 H 0.77593 0.37656 0.73739 0.0
H1045 H 0.75663 0.56388 0.72918 0.0
H1046 H 0.74964 0.60029 0.75231 0.0
H1047 H 0.73741 0.56358 0.73517 0.0
H1048 H 0.72799 0.51516 0.7699 0.0
H1049 H 0.74001 0.55237 0.78721 0.0
H1050 H 0.7408 0.48355 0.78801 0.0
H1051 H 0.79286 0.42777 0.76158 0.0
H1052 H 0.80564 0.48888 0.78607 0.0
H1053 H 0.7672 0.58527 0.78708 0.0
C1054 C 0.73886 0.4487 0.73133 0.0
C1055 C 0.7412 0.40267 0.71936 0.0
C1056 C 0.75462 0.37666 0.7221 0.0
C1057 C 0.76564 0.39632 0.73587 0.0
C1058 C 0.76319 0.44235 0.7469 0.0
C1059 C 0.75008 0.46804 0.74503 0.0
C1060 C 0.75054 0.51773 0.75821 0.0
C1061 C 0.74843 0.56411 0.74279 0.0
C1062 C 0.73916 0.51715 0.77694 0.0
C1063 C 0.76595 0.51603 0.76757 0.0
C1064 C 0.77303 0.47217 0.7608 0.0
C1065 C 0.78739 0.46217 0.76705 0.0
C1066 C 0.79462 0.49736 0.78088 0.0
C1067 C 0.78754 0.54223 0.78846 0.0
C1068 C 0.773 0.5516 0.78151 0.0
H1069 H 0.97803 0.0302 0.48991 0.0
H1070 H 0.01038 0.11809 0.45367 0.0
H1071 H 0.02987 0.07442 0.47404 0.0
H1072 H 0.99762 0.03265 0.54304 0.0
H1073 H 0.99247 0.96861 0.5508 0.0
H1074 H 0.98072 0.00599 0.53312 0.0
H1075 H 0.98127 0.93404 0.50355 0.0
H1076 H 0.99316 0.89667 0.52103 0.0
H1077 H 0.99852 0.91205 0.49296 0.0
H1078 H 0.04617 0.02039 0.4969 0.0
H1079 H 0.05842 0.96536 0.52431 0.0
H1080 H 0.01639 0.91339 0.54838 0.0
C1081 C 0.98921 0.0404 0.48639 0.0
C1082 C 0.99255 0.07787 0.47003 0.0
C1083 C 1.00739 0.08989 0.46605 0.0
C1084 C 0.01863 0.06502 0.47749 0.0
C1085 C 0.01503 0.02814 0.49323 0.0
C1086 C 1.00072 0.01621 0.49803 0.0
C1087 C 1.00011 0.97599 0.51642 0.0
C1088 C 0.99226 -0.00292 0.53707 0.0
C1089 C 0.99283 0.92677 0.50798 0.0
C1090 C 0.01627 0.96746 0.52105 0.0
C1091 C 0.02461 -0.00235 0.50719 0.0
C1092 C 0.03976 -0.0033 0.50793 0.0
C1093 C 0.04664 0.96497 0.52356 0.0
C1094 C 0.03846 0.93468 0.53858 0.0
C1095 C 0.02301 0.93572 0.53709 0.0
H1096 H 0.28999 0.22912 0.4711 0.0
H1097 H 0.26374 0.0946 0.45803 0.0
H1098 H 0.2444 0.12855 0.4822 0.0
H1099 H 0.27845 0.2462 0.53008 0.0
H1100 H 0.27821 0.31494 0.52804 0.0
H1101 H 0.29062 0.27831 0.51115 0.0
H1102 H 0.2802 0.32153 0.47579 0.0
H1103 H 0.2676 0.35769 0.49251 0.0
H1104 H 0.26095 0.31788 0.47022 0.0
H1105 H 0.22692 0.17938 0.50492 0.0
H1106 H 0.21321 0.24067 0.52794 0.0
H1107 H 0.25036 0.34314 0.52794 0.0
C1108 C 0.28036 0.20618 0.4739 0.0
C1109 C 0.27851 0.15871 0.46279 0.0
C1110 C 0.26551 0.13074 0.46641 0.0
C1111 C 0.2544 0.14983 0.48008 0.0
C1112 C 0.25633 0.19724 0.4902 0.0
C1113 C 0.26904 0.22489 0.4876 0.0
C1114 C 0.26795 0.27572 0.49992 0.0
C1115 C 0.27949 0.27897 0.5184 0.0
C1116 C 0.26925 0.32087 0.48364 0.0
C1117 C 0.25266 0.27226 0.50965 0.0
C1118 C 0.24617 0.22667 0.50366 0.0
C1119 C 0.23194 0.21502 0.50989 0.0
C1120 C 0.22418 0.25036 0.52288 0.0
C1121 C 0.23062 0.29695 0.5298 0.0
C1122 C 0.24509 0.30792 0.52297 0.0
H1123 H 0.23044 0.96387 0.72571 0.0
H1124 H 0.26273 0.85738 0.70057 0.0
H1125 H 0.28119 0.89546 0.72502 0.0
H1126 H 0.25389 0.07152 0.73019 0.0
H1127 H 0.24655 0.09543 0.75599 0.0
H1128 H 0.23523 0.05859 0.73748 0.0
H1129 H 0.22958 0.9944 0.76912 0.0
H1130 H 0.24067 0.0316 0.78785 0.0
H1131 H 0.2444 0.96456 0.78393 0.0
H1132 H 0.29687 0.94823 0.7497 0.0
H1133 H 0.30811 0.00549 0.77735 0.0
H1134 H 0.2662 0.07753 0.78872 0.0
C1135 C 0.2413 0.9478 0.7258 0.0
C1136 C 0.24504 0.90731 0.71112 0.0
C1137 C 0.2595 0.88822 0.71154 0.0
C1138 C 0.27014 0.90978 0.72536 0.0
C1139 C 0.26629 0.95055 0.73899 0.0
C1140 C 0.25219 0.9689 0.73975 0.0
C1141 C 0.25118 0.01333 0.75613 0.0
C1142 C 0.24643 0.06264 0.74423 0.0
C1143 C 0.24084 0.00018 0.7754 0.0
C1144 C 0.26691 0.01709 0.76416 0.0
C1145 C 0.27541 0.98065 0.75383 0.0
C1146 C 0.2903 0.9767 0.75805 0.0
C1147 C 0.29663 0.00977 0.77371 0.0
C1148 C 0.28814 0.04638 0.78526 0.0
C1149 C 0.27306 0.05032 0.78012 0.0
H1150 H 0.78897 0.72654 0.47233 0.0
H1151 H 0.76219 0.59185 0.46189 0.0
H1152 H 0.7437 0.62649 0.4871 0.0
H1153 H 0.77951 0.74186 0.53205 0.0
H1154 H 0.7793 0.81069 0.53072 0.0
H1155 H 0.79098 0.77479 0.51239 0.0
H1156 H 0.7793 0.81992 0.47845 0.0
H1157 H 0.76744 0.85543 0.49666 0.0
H1158 H 0.75986 0.81697 0.47462 0.0
H1159 H 0.72711 0.67667 0.51126 0.0
H1160 H 0.71449 0.73637 0.5364 0.0
H1161 H 0.75157 0.839 0.53364 0.0
C1162 C 0.77935 0.704 0.4757 0.0
C1163 C 0.77714 0.65622 0.46494 0.0
C1164 C 0.76425 0.62845 0.46971 0.0
C1165 C 0.75358 0.64787 0.48406 0.0
C1166 C 0.75584 0.69532 0.49388 0.0
C1167 C 0.76847 0.72288 0.49027 0.0
C1168 C 0.76792 0.77311 0.50318 0.0
C1169 C 0.78015 0.77522 0.52062 0.0
C1170 C 0.76868 0.81908 0.48727 0.0
C1171 C 0.75301 0.7694 0.51425 0.0
C1172 C 0.74625 0.7242 0.50846 0.0
C1173 C 0.73233 0.71209 0.51605 0.0
C1174 C 0.72518 0.74653 0.53025 0.0
C1175 C 0.73192 0.79266 0.53703 0.0
C1176 C 0.74605 0.8042 0.52876 0.0
H1177 H 0.73018 0.96127 0.22957 0.0
H1178 H 0.76019 0.84382 0.20731 0.0
H1179 H 0.77916 0.87858 0.23185 0.0
H1180 H 0.75588 0.06189 0.23263 0.0
H1181 H 0.74888 0.09074 0.25769 0.0
H1182 H 0.73692 0.05505 0.2397 0.0
H1183 H 0.72957 -0.00358 0.27254 0.0
H1184 H 0.74132 0.03251 0.29073 0.0
H1185 H 0.74353 0.96427 0.28834 0.0
H1186 H 0.79572 0.92926 0.25598 0.0
H1187 H 0.80811 0.98732 0.28211 0.0
H1188 H 0.76791 0.07217 0.29082 0.0
C1189 C 0.74061 0.9421 0.23037 0.0
C1190 C 0.7436 0.89942 0.21648 0.0
C1191 C 0.75755 0.87634 0.21771 0.0
C1192 C 0.76847 0.89595 0.23159 0.0
C1193 C 0.7654 0.93886 0.24443 0.0
C1194 C 0.75177 0.96129 0.24435 0.0
C1195 C 0.75164 0.00773 0.25971 0.0
C1196 C 0.74812 0.05675 0.24665 0.0
C1197 C 0.74087 -0.00025 0.27898 0.0
C1198 C 0.76733 0.00803 0.26807 0.0
C1199 C 0.77503 0.96798 0.25887 0.0
C1200 C 0.78976 0.96054 0.26346 0.0
C1201 C 0.79676 0.9941 0.27824 0.0
C1202 C 0.7891 0.03467 0.28855 0.0
C1203 C 0.77415 0.04178 0.28318 0.0
H1204 H 0.47624 0.52408 0.48666 0.0
H1205 H 0.50863 0.60727 0.44843 0.0
H1206 H 0.52811 0.56311 0.46853 0.0
H1207 H 0.49655 0.52807 0.53898 0.0
H1208 H 0.49115 0.46492 0.54766 0.0
H1209 H 0.47938 0.50199 0.5299 0.0
H1210 H 0.47915 0.42813 0.50121 0.0
H1211 H 0.49107 0.39108 0.51877 0.0
H1212 H 0.49613 0.4043 0.49036 0.0
H1213 H 0.54441 0.50992 0.49166 0.0
H1214 H 0.55671 0.45686 0.51976 0.0
H1215 H 0.51473 0.40867 0.54541 0.0
C1216 C 0.48743 0.5331 0.48263 0.0
C1217 C 0.49077 0.56945 0.46581 0.0
C1218 C 0.50562 0.57997 0.46117 0.0
C1219 C 0.51686 0.55478 0.47245 0.0
C1220 C 0.51327 0.51907 0.48867 0.0
C1221 C 0.49896 0.50855 0.4941 0.0
C1222 C 0.49838 0.46959 0.51299 0.0
C1223 C 0.49092 0.49252 0.5336 0.0
C1224 C 0.49072 0.42035 0.50537 0.0
C1225 C 0.51455 0.46025 0.51721 0.0
C1226 C 0.52286 0.48888 0.50271 0.0
C1227 C 0.53802 0.48736 0.50316 0.0
C1228 C 0.54493 0.4568 0.51919 0.0
C1229 C 0.53678 0.42819 0.53484 0.0
C1230 C 0.52132 0.42956 0.53358 0.0
H1231 H 0.54242 0.7623 0.73032 0.0
H1232 H 0.51277 0.88323 0.71037 0.0
H1233 H 0.49337 0.84444 0.73279 0.0
H1234 H 0.51587 0.66069 0.72973 0.0
H1235 H 0.52288 0.6285 0.75401 0.0
H1236 H 0.53489 0.66579 0.73674 0.0
H1237 H 0.54263 0.71969 0.77092 0.0
H1238 H 0.53078 0.68219 0.78833 0.0
H1239 H 0.52888 0.75074 0.78751 0.0
H1240 H 0.4767 0.79229 0.7563 0.0
H1241 H 0.46434 0.73309 0.782 0.0
H1242 H 0.50418 0.64502 0.78822 0.0
C1243 C 0.5319 0.78091 0.73093 0.0
C1244 C 0.52923 0.82615 0.71848 0.0
C1245 C 0.51521 0.84875 0.71962 0.0
C1246 C 0.50403 0.82688 0.73232 0.0
C1247 C 0.50689 0.78207 0.74401 0.0
C1248 C 0.52048 0.75943 0.74368 0.0
C1249 C 0.52047 0.71127 0.75799 0.0
C1250 C 0.52372 0.66375 0.74377 0.0
C1251 C 0.53134 0.71629 0.77734 0.0
C1252 C 0.5048 0.7108 0.7664 0.0
C1253 C 0.49718 0.75189 0.75792 0.0
C1254 C 0.48257 0.76 0.7631 0.0
C1255 C 0.4756 0.72592 0.77769 0.0
C1256 C 0.48318 0.68408 0.78717 0.0
C1257 C 0.49799 0.67632 0.78118 0.0
H1258 H 0.47572 0.22562 0.27607 0.0
H1259 H 0.50533 0.10464 0.29574 0.0
H1260 H 0.52443 0.14164 0.27182 0.0
H1261 H 0.48852 0.23766 0.21798 0.0
H1262 H 0.48663 0.30624 0.21783 0.0
H1263 H 0.47491 0.2679 0.23511 0.0
H1264 H 0.48293 0.32031 0.26959 0.0
H1265 H 0.49485 0.35829 0.25248 0.0
H1266 H 0.50199 0.32487 0.27635 0.0
H1267 H 0.54092 0.1942 0.24726 0.0
H1268 H 0.55309 0.25608 0.22238 0.0
H1269 H 0.5132 0.34452 0.2187 0.0
C1270 C 0.48609 0.20619 0.27486 0.0
C1271 C 0.48892 0.16164 0.28761 0.0
C1272 C 0.50282 0.13841 0.28603 0.0
C1273 C 0.51379 0.1593 0.27252 0.0
C1274 C 0.51081 0.20385 0.26063 0.0
C1275 C 0.49727 0.22691 0.26151 0.0
C1276 C 0.49717 0.27569 0.2477 0.0
C1277 C 0.48616 0.27161 0.22851 0.0
C1278 C 0.49405 0.32256 0.26241 0.0
C1279 C 0.51274 0.27645 0.23903 0.0
C1280 C 0.52041 0.23461 0.24671 0.0
C1281 C 0.53499 0.22704 0.2411 0.0
C1282 C 0.54186 0.26263 0.22702 0.0
C1283 C 0.53421 0.30553 0.21862 0.0
C1284 C 0.51944 0.31243 0.22491 0.0
H1285 H 0.4769 0.02057 0.98456 0.0
H1286 H 0.50881 0.10617 0.94645 0.0
H1287 H 0.52848 0.06786 0.96845 0.0
H1288 H 0.49613 0.03164 0.03814 0.0
H1289 H 0.49135 0.96811 0.04716 0.0
H1290 H 0.47947 0.00257 0.02857 0.0
H1291 H 0.48066 0.92742 1.00058 0.0
H1292 H 0.49271 0.89303 0.01894 0.0
H1293 H 0.49811 0.90578 0.99063 0.0
H1294 H 0.54505 0.01798 0.99283 0.0
H1295 H 0.55747 0.9666 0.02145 0.0
H1296 H 0.51561 0.91444 0.04607 0.0
C1297 C 0.48801 0.03175 0.98108 0.0
C1298 C 0.49119 0.06666 0.96362 0.0
C1299 C 0.50595 0.07974 0.95961 0.0
C1300 C 0.51729 0.05795 0.972 0.0
C1301 C 0.51386 0.0231 0.98868 0.0
C1302 C 0.49961 0.01051 0.99357 0.0
C1303 C 0.49915 0.97234 0.01277 0.0
C1304 C 0.49104 0.99503 0.03285 0.0
C1305 C 0.49225 0.92164 0.00528 0.0
C1306 C 0.51533 0.96568 0.01775 0.0
C1307 C 0.52356 0.995 0.00339 0.0
C1308 C 0.53872 0.99507 0.00428 0.0
C1309 C 0.5457 0.96541 0.02058 0.0
C1310 C 0.53761 0.93617 0.03609 0.0
C1311 C 0.52216 0.93609 0.03444 0.0
H1312 H 0.16542 0.29206 0.14294 0.0
H1313 H 0.17174 0.45472 0.15193 0.0
H1314 H 0.14553 0.46946 0.14422 0.0
H1315 H 0.14079 0.29805 0.09885 0.0
H1316 H 0.12942 0.24588 0.10787 0.0
H1317 H 0.14833 0.24751 0.1157 0.0
H1318 H 0.1414 0.24168 0.1574 0.0
H1319 H 0.12247 0.23867 0.14969 0.0
H1320 H 0.12866 0.28696 0.16889 0.0
H1321 H 0.11919 0.46657 0.1305 0.0
H1322 H 0.09388 0.44538 0.1194 0.0
H1323 H 0.10424 0.28402 0.12273 0.0
C1324 C 0.16113 0.33054 0.14408 0.0
C1325 C 0.17048 0.37225 0.14852 0.0
C1326 C 0.16464 0.42225 0.14917 0.0
C1327 C 0.14982 0.43094 0.14453 0.0
C1328 C 0.14094 0.38908 0.13956 0.0
C1329 C 0.14631 0.3397 0.13997 0.0
C1330 C 0.13452 0.30132 0.13406 0.0
C1331 C 0.13851 0.27144 0.11286 0.0
C1332 C 0.13159 0.26502 0.15368 0.0
C1333 C 0.12173 0.33675 0.12996 0.0
C1334 C 0.12571 0.38732 0.13279 0.0
C1335 C 0.11592 0.42706 0.12862 0.0
C1336 C 0.10162 0.41476 0.12209 0.0
C1337 C 0.09715 0.36318 0.12019 0.0
C1338 C 0.10739 0.3238 0.12409 0.0
H1339 H 0.10133 0.87855 0.15786 0.0
H1340 H 0.08783 0.80007 0.09765 0.0
H1341 H 0.11334 0.79406 0.08556 0.0
H1342 H 0.12875 0.95378 0.1323 0.0
H1343 H 0.14151 0.9504 0.15506 0.0
H1344 H 0.12229 0.94488 0.16037 0.0
H1345 H 0.12647 0.85799 0.18002 0.0
H1346 H 0.14574 0.86351 0.17495 0.0
H1347 H 0.13599 0.80775 0.16554 0.0
H1348 H 0.14005 0.80111 0.07838 0.0
H1349 H 0.16646 0.81806 0.0775 0.0
H1350 H 0.16329 0.8927 0.14193 0.0
C1351 C 0.10382 0.85907 0.14242 0.0
C1352 C 0.09252 0.83954 0.12878 0.0
C1353 C 0.09624 0.81537 0.10841 0.0
C1354 C 0.11073 0.81171 0.10136 0.0
C1355 C 0.12156 0.83248 0.11477 0.0
C1356 C 0.11836 0.85542 0.13495 0.0
C1357 C 0.13214 0.87657 0.14555 0.0
C1358 C 0.13111 0.93487 0.14849 0.0
C1359 C 0.13527 0.84985 0.16784 0.0
C1360 C 0.14345 0.86239 0.12808 0.0
C1361 C 0.13709 0.83683 0.11051 0.0
C1362 C 0.14519 0.82079 0.09214 0.0
C1363 C 0.16022 0.83076 0.09175 0.0
C1364 C 0.1671 0.85666 0.10961 0.0
C1365 C 0.15848 0.87265 0.12798 0.0
H1366 H 0.853 0.61922 0.84799 0.0
H1367 H 0.83676 0.61491 0.91578 0.0
H1368 H 0.86176 0.60585 0.9299 0.0
H1369 H 0.88369 0.52866 0.85676 0.0
H1370 H 0.89577 0.56398 0.83883 0.0
H1371 H 0.87644 0.56463 0.83367 0.0
H1372 H 0.8765 0.66359 0.83528 0.0
H1373 H 0.89579 0.6632 0.84045 0.0
H1374 H 0.88372 0.69528 0.85954 0.0
H1375 H 0.88876 0.60217 0.93723 0.0
H1376 H 0.91566 0.60806 0.9368 0.0
H1377 H 0.91464 0.61721 0.86465 0.0
C1378 C 0.8547 0.6153 0.86575 0.0
C1379 C 0.84283 0.61761 0.88071 0.0
C1380 C 0.84561 0.61341 0.90391 0.0
C1381 C 0.85981 0.608 0.91215 0.0
C1382 C 0.87129 0.6069 0.89709 0.0
C1383 C 0.86893 0.61042 0.87436 0.0
C1384 C 0.88333 0.61163 0.86196 0.0
C1385 C 0.8849 0.56441 0.84691 0.0
C1386 C 0.88492 0.66139 0.84852 0.0
C1387 C 0.89404 0.60969 0.88126 0.0
C1388 C 0.88689 0.60604 0.90137 0.0
C1389 C 0.89449 0.60472 0.92154 0.0
C1390 C 0.90979 0.60796 0.92116 0.0
C1391 C 0.91736 0.61321 0.90076 0.0
C1392 C 0.90926 0.61337 0.88059 0.0
H1393 H 0.91274 0.10547 0.8465 0.0
H1394 H 0.92588 0.20594 0.90026 0.0
H1395 H 0.90029 0.21548 0.91178 0.0
H1396 H 0.87762 0.17136 0.83389 0.0
H1397 H 0.8683 0.11205 0.82842 0.0
H1398 H 0.88752 0.11742 0.82297 0.0
H1399 H 0.89221 0.03885 0.8482 0.0
H1400 H 0.87305 0.03385 0.85408 0.0
H1401 H 0.8859 0.03969 0.87661 0.0
H1402 H 0.8735 0.20699 0.9202 0.0
H1403 H 0.84704 0.18882 0.92186 0.0
H1404 H 0.85098 0.09507 0.86255 0.0
C1405 C 0.91014 0.13089 0.86016 0.0
C1406 C 0.92132 0.15556 0.87229 0.0
C1407 C 0.91749 0.18709 0.89059 0.0
C1408 C 0.90297 0.19256 0.89736 0.0
C1409 C 0.89225 0.16627 0.88569 0.0
C1410 C 0.89558 0.13671 0.86724 0.0
C1411 C 0.88196 0.11091 0.8583 0.0
C1412 C 0.87866 0.12903 0.83448 0.0
C1413 C 0.88337 0.05236 0.85937 0.0
C1414 C 0.8706 0.13023 0.87467 0.0
C1415 C 0.87676 0.16188 0.89043 0.0
C1416 C 0.86851 0.18273 0.90776 0.0
C1417 C 0.8535 0.1719 0.9087 0.0
C1418 C 0.84684 0.14083 0.89232 0.0
C1419 C 0.85565 0.11947 0.87525 0.0
H1420 H 0.17111 0.90686 0.65636 0.0
H1421 H 0.18186 0.81457 0.59845 0.0
H1422 H 0.15617 0.80979 0.58837 0.0
H1423 H 0.13694 0.83702 0.66899 0.0
H1424 H 0.12731 0.89362 0.67769 0.0
H1425 H 0.14676 0.88976 0.68115 0.0
H1426 H 0.1497 0.9737 0.65878 0.0
H1427 H 0.13027 0.97742 0.655 0.0
H1428 H 0.14214 0.97804 0.63113 0.0
H1429 H 0.12989 0.82039 0.58181 0.0
H1430 H 0.10334 0.83435 0.58293 0.0
H1431 H 0.10799 0.9133 0.64609 0.0
C1432 C 0.16801 0.88506 0.6418 0.0
C1433 C 0.17872 0.86203 0.62804 0.0
C1434 C 0.17407 0.83372 0.60911 0.0
C1435 C 0.15941 0.83056 0.60314 0.0
C1436 C 0.14923 0.85514 0.61638 0.0
C1437 C 0.15317 0.88088 0.63559 0.0
C1438 C 0.13967 0.90285 0.64681 0.0
C1439 C 0.13754 0.8794 0.67004 0.0
C1440 C 0.1405 0.96149 0.648 0.0
C1441 C 0.12775 0.88558 0.63076 0.0
C1442 C 0.13364 0.85881 0.61317 0.0
C1443 C 0.12508 0.84075 0.59565 0.0
C1444 C 0.11001 0.84921 0.59632 0.0
C1445 C 0.10355 0.87468 0.61457 0.0
C1446 C 0.11261 0.89332 0.63197 0.0
H1447 H 0.10029 0.46065 0.63456 0.0
H1448 H 0.09231 0.29807 0.64066 0.0
H1449 H 0.11768 0.28042 0.62875 0.0
H1450 H 0.12339 0.45791 0.58736 0.0
H1451 H 0.13567 0.50662 0.59724 0.0
H1452 H 0.11697 0.50655 0.60622 0.0
H1453 H 0.12515 0.50445 0.64748 0.0
H1454 H 0.14387 0.5056 0.63864 0.0
H1455 H 0.13752 0.4553 0.65669 0.0
H1456 H 0.14354 0.28118 0.61271 0.0
H1457 H 0.16898 0.29997 0.60152 0.0
H1458 H 0.16079 0.46192 0.60987 0.0
C1459 C 0.10399 0.42137 0.6337 0.0
C1460 C 0.09438 0.38063 0.63857 0.0
C1461 C 0.09956 0.32977 0.63726 0.0
C1462 C 0.1139 0.31945 0.63029 0.0
C1463 C 0.12303 0.36048 0.62514 0.0
C1464 C 0.11839 0.41048 0.62742 0.0
C1465 C 0.13052 0.44776 0.62193 0.0
C1466 C 0.12638 0.4817 0.602 0.0
C1467 C 0.1345 0.48018 0.64241 0.0
C1468 C 0.14269 0.41105 0.6159 0.0
C1469 C 0.13808 0.36086 0.61739 0.0
C1470 C 0.14728 0.32034 0.61176 0.0
C1471 C 0.16167 0.33134 0.60519 0.0
C1472 C 0.16682 0.38232 0.60475 0.0
C1473 C 0.15712 0.42257 0.61001 0.0
H1474 H 0.85504 0.13285 0.3528 0.0
H1475 H 0.8428 0.03688 0.40853 0.0
H1476 H 0.8683 0.03555 0.42146 0.0
H1477 H 0.89165 0.07662 0.34347 0.0
H1478 H 0.89971 0.13774 0.33719 0.0
H1479 H 0.8808 0.1264 0.33098 0.0
H1480 H 0.87378 0.20587 0.35434 0.0
H1481 H 0.89264 0.217 0.36088 0.0
H1482 H 0.87954 0.20988 0.38299 0.0
H1483 H 0.89498 0.04993 0.43012 0.0
H1484 H 0.92085 0.07592 0.43257 0.0
H1485 H 0.91568 0.16424 0.37184 0.0
C1486 C 0.85785 0.11029 0.3673 0.0
C1487 C 0.84695 0.08426 0.37946 0.0
C1488 C 0.85098 0.05667 0.39884 0.0
C1489 C 0.86545 0.05579 0.40636 0.0
C1490 C 0.87587 0.08306 0.39446 0.0
C1491 C 0.8723 0.10954 0.37525 0.0
C1492 C 0.88545 0.13815 0.36637 0.0
C1493 C 0.88965 0.11854 0.34312 0.0
C1494 C 0.88268 0.19616 0.36614 0.0
C1495 C 0.89686 0.12388 0.38363 0.0
C1496 C 0.89116 0.09198 0.39967 0.0
C1497 C 0.89959 0.07466 0.41753 0.0
C1498 C 0.91429 0.08983 0.41887 0.0
C1499 C 0.92046 0.12214 0.40247 0.0
C1500 C 0.91146 0.13938 0.38471 0.0
H1501 H 0.91131 0.65004 0.39636 0.0
H1502 H 0.91462 0.6357 0.32449 0.0
H1503 H 0.88775 0.63271 0.32202 0.0
H1504 H 0.88233 0.56447 0.40429 0.0
H1505 H 0.87349 0.60103 0.42583 0.0
H1506 H 0.89285 0.60629 0.42191 0.0
H1507 H 0.8904 0.70429 0.41726 0.0
H1508 H 0.871 0.69938 0.42122 0.0
H1509 H 0.87814 0.7296 0.39657 0.0
H1510 H 0.86083 0.62658 0.32748 0.0
H1511 H 0.83565 0.61571 0.3398 0.0
H1512 H 0.84918 0.63285 0.40873 0.0
C1513 C 0.90645 0.64677 0.38 0.0
C1514 C 0.91523 0.64316 0.36053 0.0
C1515 C 0.90826 0.63885 0.33959 0.0
C1516 C 0.89297 0.63712 0.33806 0.0
C1517 C 0.88474 0.6402 0.35759 0.0
C1518 C 0.89121 0.64519 0.37817 0.0
C1519 C 0.87985 0.64598 0.39665 0.0
C1520 C 0.88228 0.6018 0.41314 0.0
C1521 C 0.87985 0.6979 0.40864 0.0
C1522 C 0.86593 0.63867 0.38333 0.0
C1523 C 0.86909 0.63627 0.36081 0.0
C1524 C 0.85826 0.62857 0.34504 0.0
C1525 C 0.84392 0.62224 0.35235 0.0
C1526 C 0.84026 0.62304 0.37537 0.0
C1527 C 0.85149 0.63239 0.39106 0.0
H1528 H 0.60371 0.34086 0.64587 0.0
H1529 H 0.60069 0.44088 0.5884 0.0
H1530 H 0.62706 0.45839 0.59114 0.0
H1531 H 0.63063 0.41216 0.67669 0.0
H1532 H 0.64031 0.35649 0.68635 0.0
H1533 H 0.6211 0.35255 0.68052 0.0
H1534 H 0.62565 0.27794 0.65306 0.0
H1535 H 0.64483 0.28109 0.65911 0.0
H1536 H 0.63856 0.28611 0.63075 0.0
H1537 H 0.65349 0.46611 0.6002 0.0
H1538 H 0.67905 0.45454 0.61143 0.0
H1539 H 0.66581 0.34695 0.66244 0.0
C1540 C 0.6086 0.36647 0.63385 0.0
C1541 C 0.60006 0.38978 0.61694 0.0
C1542 C 0.60695 0.42244 0.6014 0.0
C1543 C 0.62192 0.43294 0.60296 0.0
C1544 C 0.62994 0.41005 0.62001 0.0
C1545 C 0.62361 0.37671 0.63494 0.0
C1546 C 0.63494 0.35494 0.65086 0.0
C1547 C 0.63154 0.36994 0.67504 0.0
C1548 C 0.63606 0.29656 0.64828 0.0
C1549 C 0.64866 0.38141 0.6426 0.0
C1550 C 0.6454 0.41349 0.62495 0.0
C1551 C 0.65614 0.44119 0.614 0.0
C1552 C 0.67064 0.43457 0.6206 0.0
C1553 C 0.67443 0.40043 0.638 0.0
C1554 C 0.66322 0.37431 0.6495 0.0
H1555 H 0.60365 0.89347 0.6138 0.0
H1556 H 0.60212 0.84601 0.68304 0.0
H1557 H 0.62883 0.83302 0.6824 0.0
H1558 H 0.63196 0.80448 0.59607 0.0
H1559 H 0.64018 0.84993 0.57735 0.0
H1560 H 0.62094 0.85295 0.58298 0.0
H1561 H 0.62359 0.94731 0.59535 0.0
H1562 H 0.64281 0.94466 0.58972 0.0
H1563 H 0.63646 0.96343 0.6169 0.0
H1564 H 0.65597 0.83139 0.67483 0.0
H1565 H 0.68116 0.83995 0.66118 0.0
H1566 H 0.66508 0.8858 0.59632 0.0
C1567 C 0.60883 0.87997 0.62888 0.0
C1568 C 0.60064 0.87085 0.64857 0.0
C1569 C 0.60803 0.85318 0.66778 0.0
C1570 C 0.62323 0.84568 0.66754 0.0
C1571 C 0.63092 0.8555 0.6479 0.0
C1572 C 0.62393 0.872 0.62888 0.0
C1573 C 0.63471 0.88127 0.61008 0.0
C1574 C 0.63177 0.84499 0.59046 0.0
C1575 C 0.63437 0.9375 0.60258 0.0
C1576 C 0.64896 0.8683 0.62155 0.0
C1577 C 0.64649 0.85342 0.64336 0.0
C1578 C 0.65796 0.84236 0.65773 0.0
C1579 C 0.67226 0.84738 0.6498 0.0
C1580 C 0.67512 0.86294 0.6276 0.0
C1581 C 0.66326 0.8727 0.61319 0.0
H1582 H 0.4157 0.63867 0.36357 0.0
H1583 H 0.41689 0.59976 0.43383 0.0
H1584 H 0.3901 0.58854 0.43332 0.0
H1585 H 0.38337 0.71124 0.36478 0.0
H1586 H 0.37692 0.6896 0.33805 0.0
H1587 H 0.39615 0.69144 0.34372 0.0
H1588 H 0.39823 0.59547 0.33364 0.0
H1589 H 0.37898 0.59327 0.32796 0.0
H1590 H 0.38689 0.54959 0.34778 0.0
H1591 H 0.36297 0.58831 0.42564 0.0
H1592 H 0.33786 0.59694 0.4116 0.0
H1593 H 0.35433 0.63318 0.34585 0.0
C1594 C 0.41042 0.6274 0.37891 0.0
C1595 C 0.41853 0.62022 0.39883 0.0
C1596 C 0.41103 0.60537 0.41838 0.0
C1597 C 0.39579 0.59893 0.41822 0.0
C1598 C 0.38819 0.60692 0.39833 0.0
C1599 C 0.39529 0.62049 0.379 0.0
C1600 C 0.38461 0.62823 0.35993 0.0
C1601 C 0.38531 0.6834 0.35111 0.0
C1602 C 0.38734 0.58931 0.34122 0.0
C1603 C 0.37028 0.61784 0.37161 0.0
C1604 C 0.37262 0.60554 0.39375 0.0
C1605 C 0.36106 0.59726 0.40828 0.0
C1606 C 0.34682 0.60234 0.40013 0.0
C1607 C 0.34409 0.61521 0.37756 0.0
C1608 C 0.35604 0.62222 0.36304 0.0
H1609 H 0.41452 0.10132 0.39177 0.0
H1610 H 0.4185 0.18566 0.32983 0.0
H1611 H 0.39196 0.20203 0.33034 0.0
H1612 H 0.38028 0.04112 0.37852 0.0
H1613 H 0.37358 0.0441 0.40669 0.0
H1614 H 0.39285 0.04019 0.40157 0.0
H1615 H 0.39675 0.12246 0.42479 0.0
H1616 H 0.37745 0.12705 0.4297 0.0
H1617 H 0.38707 0.17996 0.41736 0.0
H1618 H 0.36512 0.20981 0.33774 0.0
H1619 H 0.33947 0.20075 0.34889 0.0
H1620 H 0.35244 0.10992 0.40595 0.0
C1621 C 0.40984 0.12333 0.37827 0.0
C1622 C 0.4187 0.14251 0.36076 0.0
C1623 C 0.41202 0.17046 0.34335 0.0
C1624 C 0.39695 0.18024 0.34361 0.0
C1625 C 0.38864 0.16151 0.36131 0.0
C1626 C 0.39481 0.13301 0.37817 0.0
C1627 C 0.38334 0.11543 0.39477 0.0
C1628 C 0.38246 0.05673 0.39542 0.0
C1629 C 0.38634 0.13756 0.41803 0.0
C1630 C 0.36968 0.13855 0.38465 0.0
C1631 C 0.37308 0.16534 0.36545 0.0
C1632 C 0.36237 0.189 0.35273 0.0
C1633 C 0.34781 0.18376 0.35928 0.0
C1634 C 0.34391 0.15503 0.37841 0.0
C1635 C 0.35507 0.13305 0.39156 0.0
H1636 H 0.66926 0.91389 0.15825 0.0
H1637 H 0.67964 0.79773 0.10907 0.0
H1638 H 0.65407 0.79378 0.09778 0.0
H1639 H 0.63336 0.85695 0.17358 0.0
H1640 H 0.62475 0.91829 0.17726 0.0
H1641 H 0.64397 0.91125 0.18243 0.0
H1642 H 0.64916 0.98438 0.15452 0.0
H1643 H 0.62998 0.99095 0.14895 0.0
H1644 H 0.64247 0.97944 0.12638 0.0
H1645 H 0.62819 0.80828 0.08828 0.0
H1646 H 0.60193 0.8284 0.08648 0.0
H1647 H 0.60666 0.92895 0.14346 0.0
C1648 C 0.66605 0.88685 0.14551 0.0
C1649 C 0.67662 0.85667 0.13437 0.0
C1650 C 0.6719 0.82196 0.11766 0.0
C1651 C 0.65734 0.81937 0.11103 0.0
C1652 C 0.64734 0.85106 0.12145 0.0
C1653 C 0.65131 0.88314 0.13875 0.0
C1654 C 0.63803 0.91228 0.14712 0.0
C1655 C 0.63483 0.89888 0.17155 0.0
C1656 C 0.64004 0.9702 0.14406 0.0
C1657 C 0.6262 0.89173 0.13167 0.0
C1658 C 0.63195 0.85715 0.11675 0.0
C1659 C 0.62348 0.83475 0.10009 0.0
C1660 C 0.6086 0.84677 0.09902 0.0
C1661 C 0.60223 0.88008 0.11478 0.0
C1662 C 0.61123 0.90312 0.13123 0.0
H1663 H 0.66151 0.37747 0.14265 0.0
H1664 H 0.66165 0.37776 0.0704 0.0
H1665 H 0.63473 0.37746 0.07042 0.0
H1666 H 0.62932 0.29265 0.1482 0.0
H1667 H 0.62276 0.3254 0.17261 0.0
H1668 H 0.64201 0.3227 0.16698 0.0
H1669 H 0.64336 0.42146 0.16877 0.0
H1670 H 0.62413 0.42452 0.17429 0.0
H1671 H 0.63168 0.45904 0.15104 0.0
H1672 H 0.6081 0.3848 0.07817 0.0
H1673 H 0.58328 0.39431 0.09266 0.0
H1674 H 0.5997 0.38543 0.16036 0.0
C1675 C 0.65588 0.37696 0.12681 0.0
C1676 C 0.66374 0.3778 0.10646 0.0
C1677 C 0.65593 0.37682 0.08615 0.0
C1678 C 0.64062 0.37677 0.08603 0.0
C1679 C 0.63324 0.37669 0.10635 0.0
C1680 C 0.64058 0.37596 0.12639 0.0
C1681 C 0.62996 0.37629 0.14586 0.0
C1682 C 0.63108 0.32629 0.1592 0.0
C1683 C 0.63243 0.42312 0.16087 0.0
C1684 C 0.6155 0.37962 0.13365 0.0
C1685 C 0.61772 0.37942 0.11086 0.0
C1686 C 0.60623 0.3844 0.09596 0.0
C1687 C 0.59213 0.39005 0.10444 0.0
C1688 C 0.58942 0.39061 0.12772 0.0
C1689 C 0.60133 0.38457 0.14252 0.0
H1690 H 0.41367 0.10736 0.86163 0.0
H1691 H 0.41727 0.08146 0.93287 0.0
H1692 H 0.39043 0.07394 0.9351 0.0
H1693 H 0.3817 0.18409 0.86324 0.0
H1694 H 0.37416 0.1582 0.83792 0.0
H1695 H 0.39359 0.15973 0.84186 0.0
H1696 H 0.39487 0.06214 0.8349 0.0
H1697 H 0.37544 0.06026 0.83097 0.0
H1698 H 0.38388 0.01971 0.85152 0.0
H1699 H 0.36316 0.07179 0.92959 0.0
H1700 H 0.33767 0.07578 0.91746 0.0
H1701 H 0.35163 0.10285 0.8494 0.0
C1702 C 0.40891 0.09985 0.87779 0.0
C1703 C 0.41774 0.09495 0.89715 0.0
C1704 C 0.41087 0.08529 0.91782 0.0
C1705 C 0.3956 0.08093 0.91922 0.0
C1706 C 0.38732 0.08615 0.8998 0.0
C1707 C 0.39375 0.09535 0.87947 0.0
C1708 C 0.3824 0.10042 0.86113 0.0
C1709 C 0.383 0.15378 0.85041 0.0
C1710 C 0.38426 0.05811 0.8436 0.0
C1711 C 0.36848 0.09312 0.87433 0.0
C1712 C 0.37161 0.08479 0.89659 0.0
C1713 C 0.36063 0.07816 0.91222 0.0
C1714 C 0.34612 0.08064 0.90506 0.0
C1715 C 0.3425 0.08972 0.88238 0.0
C1716 C 0.35394 0.09544 0.86678 0.0
H1717 H 0.41704 0.60284 0.84708 0.0
H1718 H 0.43274 0.63551 0.91367 0.0
H1719 H 0.40749 0.64405 0.92697 0.0
H1720 H 0.38457 0.68758 0.84907 0.0
H1721 H 0.3734 0.64288 0.83392 0.0
H1722 H 0.39273 0.64519 0.82897 0.0
H1723 H 0.39462 0.54847 0.83775 0.0
H1724 H 0.37533 0.54595 0.84283 0.0
H1725 H 0.38788 0.5248 0.86399 0.0
H1726 H 0.38027 0.64349 0.9339 0.0
H1727 H 0.3535 0.63185 0.93358 0.0
H1728 H 0.35546 0.59714 0.86295 0.0
C1729 C 0.41513 0.61307 0.8643 0.0
C1730 C 0.42691 0.61895 0.87926 0.0
C1731 C 0.42392 0.63092 0.90185 0.0
C1732 C 0.40958 0.63599 0.9096 0.0
C1733 C 0.3982 0.62874 0.89464 0.0
C1734 C 0.40079 0.61762 0.87244 0.0
C1735 C 0.38656 0.60809 0.86026 0.0
C1736 C 0.38418 0.64834 0.84197 0.0
C1737 C 0.38608 0.55359 0.85065 0.0
C1738 C 0.37569 0.61462 0.87912 0.0
C1739 C 0.38257 0.62719 0.89877 0.0
C1740 C 0.37475 0.63395 0.91853 0.0
C1741 C 0.35952 0.6273 0.91822 0.0
C1742 C 0.35224 0.61342 0.89833 0.0
C1743 C 0.36057 0.6076 0.87855 0.0
H1744 H 0.05393 0.03368 0.17059 0.0
H1745 H 0.05424 0.94186 0.11048 0.0
H1746 H 0.05812 0.01869 0.08792 0.0
H1747 H 0.03293 0.13313 0.14729 0.0
H1748 H 0.04201 0.18425 0.16185 0.0
H1749 H 0.04141 0.12129 0.17388 0.0
H1750 H 0.06956 0.12068 0.17672 0.0
H1751 H 0.07023 0.1837 0.16462 0.0
H1752 H 0.08031 0.13204 0.15212 0.0
H1753 H 0.06109 0.1056 0.07132 0.0
H1754 H 0.06007 0.19769 0.06184 0.0
H1755 H 0.05555 0.23432 0.13193 0.0
C1756 C 0.0551 0.02984 0.15273 0.0
C1757 C 0.05402 0.98151 0.14238 0.0
C1758 C 0.05517 0.97815 0.1189 0.0
C1759 C 0.05745 0.02172 0.10586 0.0
C1760 C 0.05832 0.06882 0.11645 0.0
C1761 C 0.057 0.0734 0.13932 0.0
C1762 C 0.05677 0.12918 0.14616 0.0
C1763 C 0.04243 0.14274 0.15799 0.0
C1764 C 0.07001 0.14215 0.16077 0.0
C1765 C 0.05783 0.15487 0.12357 0.0
C1766 C 0.0591 0.11936 0.1067 0.0
C1767 C 0.06013 0.13387 0.08438 0.0
C1768 C 0.05957 0.18616 0.07914 0.0
C1769 C 0.05767 0.22299 0.0961 0.0
C1770 C 0.05697 0.20701 0.11858 0.0
H1771 H 0.21419 0.98285 0.12912 0.0
H1772 H 0.20255 0.02448 0.06145 0.0
H1773 H 0.20007 0.11466 0.07314 0.0
H1774 H 0.18943 0.07465 0.15683 0.0
H1775 H 0.20218 0.08743 0.17896 0.0
H1776 H 0.20193 0.0256 0.1657 0.0
H1777 H 0.22936 0.03458 0.15652 0.0
H1778 H 0.22968 0.09636 0.16968 0.0
H1779 H 0.23559 0.08966 0.14121 0.0
H1780 H 0.2017 0.19992 0.09083 0.0
H1781 H 0.20606 0.27584 0.11357 0.0
H1782 H 0.21507 0.18045 0.17104 0.0
C1783 C 0.21093 0.01083 0.1168 0.0
C1784 C 0.20858 -0.00323 0.09432 0.0
C1785 C 0.20437 0.03445 0.07873 0.0
C1786 C 0.20291 0.08568 0.08524 0.0
C1787 C 0.20548 0.09832 0.10746 0.0
C1788 C 0.20925 0.062 0.12309 0.0
C1789 C 0.21192 0.08619 0.14572 0.0
C1790 C 0.20069 0.06734 0.16281 0.0
C1791 C 0.22757 0.0761 0.15374 0.0
C1792 C 0.20959 0.14215 0.14018 0.0
C1793 C 0.20583 0.14797 0.11801 0.0
C1794 C 0.20431 0.19583 0.10832 0.0
C1795 C 0.20684 0.23893 0.12148 0.0
C1796 C 0.21064 0.23433 0.14427 0.0
C1797 C 0.2118 0.18517 0.15383 0.0
H1798 H 0.96242 0.74759 0.87768 0.0
H1799 H 0.95086 0.78509 0.9458 0.0
H1800 H 0.9475 0.87546 0.93488 0.0
H1801 H 0.98299 0.85678 0.86683 0.0
H1802 H 0.97714 0.86418 0.83837 0.0
H1803 H 0.97724 0.80183 0.85099 0.0
H1804 H 0.94993 0.79072 0.84144 0.0
H1805 H 0.94974 0.85312 0.82871 0.0
H1806 H 0.93701 0.83815 0.85058 0.0
H1807 H 0.94854 0.96213 0.91784 0.0
H1808 H 0.95258 0.03956 0.8955 0.0
H1809 H 0.96192 0.94654 0.83754 0.0
C1810 C 0.95895 0.77465 0.89024 0.0
C1811 C 0.9569 0.7594 0.91263 0.0
C1812 C 0.95245 0.79596 0.92858 0.0
C1813 C 0.9505 0.8473 0.9225 0.0
C1814 C 0.95284 0.86121 0.90037 0.0
C1815 C 0.95682 0.8259 0.88442 0.0
C1816 C 0.95937 0.8513 0.86204 0.0
C1817 C 0.97512 0.84303 0.8541 0.0
C1818 C 0.94835 0.83218 0.84466 0.0
C1819 C 0.95661 0.90674 0.86804 0.0
C1820 C 0.95285 0.91142 0.89026 0.0
C1821 C 0.95113 0.9589 0.90033 0.0
C1822 C 0.95348 0.00274 0.88748 0.0
C1823 C 0.95726 -0.00098 0.8647 0.0
C1824 C 0.95861 0.95037 0.85476 0.0
H1825 H 0.80318 0.94738 0.91795 0.0
H1826 H 0.81118 0.03853 0.85894 0.0
H1827 H 0.81496 0.9602 0.83697 0.0
H1828 H 0.82811 0.8401 0.90475 0.0
H1829 H 0.81557 0.79269 0.91503 0.0
H1830 H 0.81575 0.85587 0.92701 0.0
H1831 H 0.78821 0.86531 0.9186 0.0
H1832 H 0.78796 0.80234 0.90657 0.0
H1833 H 0.78176 0.85634 0.89051 0.0
H1834 H 0.81666 0.87181 0.8208 0.0
H1835 H 0.81394 0.78015 0.81119 0.0
H1836 H 0.80264 0.74715 0.8798 0.0
C1837 C 0.80609 0.95067 0.90054 0.0
C1838 C 0.80717 -0.00103 0.89023 0.0
C1839 C 0.81048 0.00195 0.86724 0.0
C1840 C 0.81269 0.95762 0.85461 0.0
C1841 C 0.8113 0.91047 0.86511 0.0
C1842 C 0.80795 0.90664 0.88752 0.0
C1843 C 0.80549 0.85146 0.89415 0.0
C1844 C 0.81691 0.83401 0.91125 0.0
C1845 C 0.78993 0.84341 0.90297 0.0
C1846 C 0.8077 0.82519 0.87193 0.0
C1847 C 0.81138 0.8597 0.85549 0.0
C1848 C 0.81381 0.84435 0.83354 0.0
C1849 C 0.81225 0.79234 0.82823 0.0
C1850 C 0.80799 0.75675 0.84469 0.0
C1851 C 0.80583 0.7735 0.86682 0.0
H1852 H 0.05284 0.70334 0.58911 0.0
H1853 H 0.06356 0.79391 0.64732 0.0
H1854 H 0.06546 0.71573 0.66986 0.0
H1855 H 0.02975 0.61766 0.6177 0.0
H1856 H 0.03486 0.56204 0.60181 0.0
H1857 H 0.03606 0.62456 0.58944 0.0
H1858 H 0.0633 0.60909 0.5805 0.0
H1859 H 0.06217 0.54641 0.59283 0.0
H1860 H 0.07559 0.59135 0.60261 0.0
H1861 H 0.06538 0.62771 0.68667 0.0
H1862 H 0.06169 0.53671 0.69668 0.0
H1863 H 0.04929 0.50435 0.6284 0.0
C1864 C 0.05585 0.70646 0.6065 0.0
C1865 C 0.05818 0.75468 0.61641 0.0
C1866 C 0.06174 0.75746 0.63933 0.0
C1867 C 0.06291 0.71316 0.6523 0.0
C1868 C 0.06032 0.66622 0.6422 0.0
C1869 C 0.05676 0.66251 0.61985 0.0
C1870 C 0.05331 0.60774 0.61359 0.0
C1871 C 0.03756 0.60273 0.60514 0.0
C1872 C 0.06425 0.58746 0.59636 0.0
C1873 C 0.05529 0.58164 0.63593 0.0
C1874 C 0.05959 0.61582 0.65214 0.0
C1875 C 0.06203 0.60051 0.6741 0.0
C1876 C 0.0599 0.54885 0.67966 0.0
C1877 C 0.05515 0.51351 0.66339 0.0
C1878 C 0.0529 0.53035 0.64126 0.0
H1879 H 0.20718 0.50376 0.61655 0.0
H1880 H 0.21146 0.54011 0.54647 0.0
H1881 H 0.21348 0.63219 0.55612 0.0
H1882 H 0.186 0.61966 0.63208 0.0
H1883 H 0.19489 0.62351 0.65879 0.0
H1884 H 0.19205 0.56218 0.64582 0.0
H1885 H 0.21966 0.54345 0.64901 0.0
H1886 H 0.22265 0.60493 0.66159 0.0
H1887 H 0.2325 0.58737 0.6368 0.0
H1888 H 0.21875 0.71763 0.57424 0.0
H1889 H 0.22405 0.79116 0.59852 0.0
H1890 H 0.21495 0.6985 0.65678 0.0
C1891 C 0.20822 0.53103 0.60314 0.0
C1892 C 0.2092 0.51496 0.58075 0.0
C1893 C 0.21056 0.55187 0.5637 0.0
C1894 C 0.21177 0.60407 0.56907 0.0
C1895 C 0.21127 0.61837 0.59148 0.0
C1896 C 0.20918 0.58292 0.60819 0.0
C1897 C 0.20961 0.6074 0.63102 0.0
C1898 C 0.19475 0.60293 0.64261 0.0
C1899 C 0.22184 0.58441 0.64544 0.0
C1900 C 0.21289 0.6621 0.6247 0.0
C1901 C 0.21377 0.6677 0.60182 0.0
C1902 C 0.21777 0.71389 0.59212 0.0
C1903 C 0.22083 0.75541 0.60611 0.0
C1904 C 0.21975 0.75073 0.62958 0.0
C1905 C 0.21567 0.70342 0.63891 0.0
H1906 H 0.95999 0.45883 0.34236 0.0
H1907 H 0.95602 0.55465 0.40096 0.0
H1908 H 0.95358 0.47799 0.42451 0.0
H1909 H 0.93523 0.3555 0.36086 0.0
H1910 H 0.94657 0.30612 0.34917 0.0
H1911 H 0.94608 0.36858 0.33652 0.0
H1912 H 0.97411 0.37543 0.34028 0.0
H1913 H 0.97468 0.31312 0.35292 0.0
H1914 H 0.98242 0.36722 0.36726 0.0
H1915 H 0.9532 0.39048 0.44215 0.0
H1916 H 0.95634 0.29927 0.45234 0.0
H1917 H 0.96167 0.26141 0.3825 0.0
C1918 C 0.95829 0.46358 0.36007 0.0
C1919 C 0.95806 0.51265 0.3698 0.0
C1920 C 0.95618 0.51741 0.39312 0.0
C1921 C 0.95472 0.47407 0.40666 0.0
C1922 C 0.95524 0.42612 0.39665 0.0
C1923 C 0.95703 0.42061 0.37389 0.0
C1924 C 0.95855 0.36486 0.36757 0.0
C1925 C 0.94585 0.34777 0.35265 0.0
C1926 C 0.97332 0.35458 0.35635 0.0
C1927 C 0.95769 0.34014 0.39033 0.0
C1928 C 0.95551 0.37592 0.40688 0.0
C1929 C 0.9548 0.36204 0.42931 0.0
C1930 C 0.95658 0.31024 0.43496 0.0
C1931 C 0.95926 0.27335 0.41825 0.0
C1932 C 0.95962 0.28866 0.39568 0.0
H1933 H 0.80314 0.27514 0.33304 0.0
H1934 H 0.81395 0.19059 0.39284 0.0
H1935 H 0.8173 0.27084 0.41333 0.0
H1936 H 0.82675 0.38833 0.34322 0.0
H1937 H 0.81322 0.43276 0.33333 0.0
H1938 H 0.81398 0.36895 0.32204 0.0
H1939 H 0.78692 0.35512 0.33252 0.0
H1940 H 0.78609 0.41873 0.34385 0.0
H1941 H 0.78121 0.36474 0.36093 0.0
H1942 H 0.81821 0.35921 0.42819 0.0
H1943 H 0.81427 0.45022 0.43734 0.0
H1944 H 0.80064 0.47867 0.36926 0.0
C1945 C 0.80658 0.27384 0.35028 0.0
C1946 C 0.80864 0.22662 0.36124 0.0
C1947 C 0.81257 0.22616 0.38402 0.0
C1948 C 0.81453 0.27168 0.39582 0.0
C1949 C 0.81222 0.31763 0.38476 0.0
C1950 C 0.80816 0.31925 0.36257 0.0
C1951 C 0.80468 0.37362 0.35554 0.0
C1952 C 0.81529 0.39199 0.33746 0.0
C1953 C 0.78878 0.3783 0.34776 0.0
C1954 C 0.80717 0.40178 0.37731 0.0
C1955 C 0.81184 0.36884 0.39379 0.0
C1956 C 0.81461 0.38552 0.41542 0.0
C1957 C 0.81235 0.43723 0.42047 0.0
C1958 C 0.8071 0.47135 0.40406 0.0
C1959 C 0.80464 0.45339 0.38216 0.0
H1960 H 0.5592 0.00447 0.62772 0.0
H1961 H 0.56266 0.04411 0.69767 0.0
H1962 H 0.56424 0.13561 0.68746 0.0
H1963 H 0.58426 0.10556 0.6071 0.0
H1964 H 0.57363 0.11562 0.58226 0.0
H1965 H 0.57422 0.05327 0.595 0.0
H1966 H 0.54608 0.05273 0.59737 0.0
H1967 H 0.54538 0.11517 0.58486 0.0
H1968 H 0.53687 0.10426 0.61146 0.0
H1969 H 0.56184 0.22167 0.67015 0.0
H1970 H 0.55812 0.29759 0.64695 0.0
H1971 H 0.55798 0.20314 0.58756 0.0
C1972 C 0.56056 0.03231 0.64089 0.0
C1973 C 0.56077 0.01739 0.66352 0.0
C1974 C 0.56254 0.05484 0.68025 0.0
C1975 C 0.56343 0.1068 0.6746 0.0
C1976 C 0.56281 0.12031 0.65214 0.0
C1977 C 0.56169 0.08413 0.63551 0.0
C1978 C 0.5607 0.1089 0.61271 0.0
C1979 C 0.574 0.09501 0.59842 0.0
C1980 C 0.54641 0.0944 0.60092 0.0
C1981 C 0.56088 0.16486 0.61917 0.0
C1982 C 0.56211 0.17039 0.642 0.0
C1983 C 0.56123 0.21791 0.65223 0.0
C1984 C 0.55906 0.26093 0.63882 0.0
C1985 C 0.558 0.25652 0.61535 0.0
C1986 C 0.55907 0.20778 0.6054 0.0
H1987 H 0.7158 0.19178 0.66997 0.0
H1988 H 0.70655 0.28489 0.61199 0.0
H1989 H 0.70275 0.20733 0.58951 0.0
H1990 H 0.73719 0.1034 0.64121 0.0
H1991 H 0.73151 0.0482 0.65693 0.0
H1992 H 0.73105 0.11054 0.66955 0.0
H1993 H 0.70369 0.09886 0.67861 0.0
H1994 H 0.70408 0.03627 0.66607 0.0
H1995 H 0.69114 0.08324 0.65655 0.0
H1996 H 0.70142 0.11974 0.57258 0.0
H1997 H 0.70457 0.02882 0.56204 0.0
H1998 H 0.71679 0.99328 0.63008 0.0
C1999 C 0.71257 0.1956 0.65271 0.0
C2000 C 0.71118 0.24424 0.6428 0.0
C2001 C 0.70749 0.248 0.61997 0.0
C2002 C 0.70527 0.20411 0.60706 0.0
C2003 C 0.70702 0.15661 0.61712 0.0
C2004 C 0.71069 0.152 0.63939 0.0
C2005 C 0.71355 0.09668 0.64545 0.0
C2006 C 0.72926 0.0893 0.65377 0.0
C2007 C 0.70245 0.07765 0.66269 0.0
C2008 C 0.7112 0.07129 0.62305 0.0
C2009 C 0.70712 0.10631 0.60703 0.0
C2010 C 0.70457 0.09187 0.585 0.0
C2011 C 0.70638 0.04026 0.57915 0.0
C2012 C 0.711 0.00414 0.59518 0.0
C2013 C 0.71331 0.02 0.61741 0.0
H2014 H 0.46117 0.75265 0.37753 0.0
H2015 H 0.45495 0.79153 0.4471 0.0
H2016 H 0.45223 0.88262 0.43667 0.0
H2017 H 0.4825 0.85654 0.36309 0.0
H2018 H 0.47477 0.8655 0.33578 0.0
H2019 H 0.47464 0.80315 0.34839 0.0
H2020 H 0.44666 0.79817 0.34361 0.0
H2021 H 0.44669 0.86052 0.33082 0.0
H2022 H 0.43538 0.84842 0.35474 0.0
H2023 H 0.45348 0.96932 0.41926 0.0
H2024 H 0.45704 0.04578 0.39614 0.0
H2025 H 0.46109 0.95068 0.33731 0.0
C2026 C 0.45899 0.78015 0.39056 0.0
C2027 C 0.45829 0.76516 0.41316 0.0
C2028 C 0.45547 0.80228 0.4297 0.0
C2029 C 0.4539 0.854 0.42392 0.0
C2030 C 0.45496 0.8676 0.4015 0.0
C2031 C 0.45723 0.83166 0.38505 0.0
C2032 C 0.45862 0.85645 0.36232 0.0
C2033 C 0.47352 0.84471 0.35179 0.0
C2034 C 0.44609 0.83991 0.34697 0.0
C2035 C 0.45731 0.91228 0.36864 0.0
C2036 C 0.45514 0.91774 0.39132 0.0
C2037 C 0.45485 0.96551 0.40145 0.0
C2038 C 0.45694 0.00878 0.38813 0.0
C2039 C 0.45914 0.00422 0.36487 0.0
C2040 C 0.4591 0.95531 0.35497 0.0
H2041 H 0.30379 0.74685 0.37738 0.0
H2042 H 0.31382 0.77812 0.30816 0.0
H2043 H 0.31624 0.87024 0.31704 0.0
H2044 H 0.28258 0.85484 0.38799 0.0
H2045 H 0.28935 0.86536 0.41579 0.0
H2046 H 0.28934 0.80192 0.40422 0.0
H2047 H 0.31703 0.79427 0.41169 0.0
H2048 H 0.31712 0.85774 0.42337 0.0
H2049 H 0.3292 0.84209 0.40074 0.0
H2050 H 0.31444 0.95921 0.33266 0.0
H2051 H 0.31077 0.03825 0.35432 0.0
H2052 H 0.30414 0.9487 0.41417 0.0
C2053 C 0.30664 0.77297 0.36411 0.0
C2054 C 0.30853 0.75554 0.34203 0.0
C2055 C 0.31235 0.7908 0.32518 0.0
C2056 C 0.31374 0.84309 0.33008 0.0
C2057 C 0.31159 0.85912 0.352 0.0
C2058 C 0.30837 0.82498 0.36882 0.0
C2059 C 0.30638 0.85206 0.39093 0.0
C2060 C 0.291 0.843 0.40027 0.0
C2061 C 0.31813 0.83555 0.40767 0.0
C2062 C 0.30846 0.9071 0.3838 0.0
C2063 C 0.31143 0.91028 0.36126 0.0
C2064 C 0.31247 0.95715 0.35039 0.0
C2065 C 0.31033 0.00184 0.36283 0.0
C2066 C 0.30745 -0.00051 0.38596 0.0
C2067 C 0.30672 0.95151 0.39662 0.0
H2068 H 0.54915 0.51452 0.12937 0.0
H2069 H 0.55903 0.54786 0.19846 0.0
H2070 H 0.56212 0.63948 0.18875 0.0
H2071 H 0.57551 0.60393 0.1058 0.0
H2072 H 0.56386 0.61957 0.08262 0.0
H2073 H 0.56291 0.55709 0.09517 0.0
H2074 H 0.53525 0.5693 0.10172 0.0
H2075 H 0.53612 0.63186 0.08934 0.0
H2076 H 0.52896 0.62424 0.11707 0.0
H2077 H 0.56169 0.72812 0.17172 0.0
H2078 H 0.56005 0.80573 0.14855 0.0
H2079 H 0.55246 0.71238 0.09003 0.0
C2080 C 0.55207 0.54083 0.14249 0.0
C2081 C 0.55375 0.52423 0.16473 0.0
C2082 C 0.55769 0.55994 0.18134 0.0
C2083 C 0.55945 0.61191 0.17596 0.0
C2084 C 0.55754 0.627 0.15384 0.0
C2085 C 0.55418 0.59227 0.13733 0.0
C2086 C 0.55272 0.61787 0.11483 0.0
C2087 C 0.56445 0.59846 0.09865 0.0
C2088 C 0.53735 0.61037 0.10518 0.0
C2089 C 0.55537 0.67294 0.12128 0.0
C2090 C 0.55807 0.67744 0.14387 0.0
C2091 C 0.55984 0.72491 0.15398 0.0
C2092 C 0.55882 0.76881 0.14067 0.0
C2093 C 0.55626 0.76496 0.11747 0.0
C2094 C 0.55467 0.71633 0.10766 0.0
H2095 H 0.70786 0.49459 0.12343 0.0
H2096 H 0.70862 0.53298 0.0532 0.0
H2097 H 0.71006 0.62496 0.06303 0.0
H2098 H 0.686 0.606 0.14147 0.0
H2099 H 0.69592 0.61155 0.16726 0.0
H2100 H 0.69355 0.5498 0.15445 0.0
H2101 H 0.7215 0.53658 0.15473 0.0
H2102 H 0.72398 0.59843 0.16725 0.0
H2103 H 0.73305 0.58324 0.14148 0.0
H2104 H 0.71488 0.7104 0.08072 0.0
H2105 H 0.72005 0.78463 0.10451 0.0
H2106 H 0.7145 0.69074 0.16346 0.0
C2107 C 0.70808 0.52229 0.11007 0.0
C2108 C 0.7082 0.50686 0.08753 0.0
C2109 C 0.70845 0.54422 0.07055 0.0
C2110 C 0.7093 0.59638 0.076 0.0
C2111 C 0.70958 0.61016 0.09846 0.0
C2112 C 0.70869 0.5742 0.11522 0.0
C2113 C 0.70967 0.59858 0.13804 0.0
C2114 C 0.69544 0.59104 0.15107 0.0
C2115 C 0.72283 0.57798 0.15113 0.0
C2116 C 0.71179 0.65391 0.13157 0.0
C2117 C 0.71171 0.65972 0.10866 0.0
C2118 C 0.71462 0.70651 0.09865 0.0
C2119 C 0.7176 0.74848 0.11237 0.0
C2120 C 0.71746 0.74367 0.13589 0.0
C2121 C 0.71443 0.69574 0.14556 0.0
H2122 H 0.46687 0.28451 0.92032 0.0
H2123 H 0.45122 0.19737 0.86379 0.0
H2124 H 0.44821 0.27665 0.84226 0.0
H2125 H 0.44441 0.40106 0.91112 0.0
H2126 H 0.45905 0.44342 0.91877 0.0
H2127 H 0.45788 0.38071 0.93108 0.0
H2128 H 0.48411 0.36101 0.91779 0.0
H2129 H 0.48532 0.42343 0.90534 0.0
H2130 H 0.48852 0.36725 0.88867 0.0
H2131 H 0.44833 0.3643 0.82584 0.0
H2132 H 0.45277 0.45428 0.81519 0.0
H2133 H 0.47006 0.48437 0.88115 0.0
C2134 C 0.46243 0.28249 0.90363 0.0
C2135 C 0.45902 0.23493 0.89384 0.0
C2136 C 0.45374 0.23341 0.8717 0.0
C2137 C 0.45196 0.27831 0.85932 0.0
C2138 C 0.45573 0.32455 0.86919 0.0
C2139 C 0.46092 0.32709 0.8908 0.0
C2140 C 0.46555 0.38113 0.89656 0.0
C2141 C 0.45616 0.40286 0.91551 0.0
C2142 C 0.48184 0.3833 0.90243 0.0
C2143 C 0.46242 0.40808 0.87472 0.0
C2144 C 0.4565 0.37493 0.85929 0.0
C2145 C 0.4529 0.39075 0.83781 0.0
C2146 C 0.45547 0.44184 0.83189 0.0
C2147 C 0.46181 0.4762 0.84728 0.0
C2148 C 0.46524 0.45897 0.86898 0.0
H2149 H 0.30835 0.27666 0.8381 0.0
H2150 H 0.3006 0.18702 0.89769 0.0
H2151 H 0.30481 0.26273 0.92087 0.0
H2152 H 0.33568 0.36483 0.86152 0.0
H2153 H 0.32838 0.4197 0.8472 0.0
H2154 H 0.32672 0.35699 0.83502 0.0
H2155 H 0.29875 0.36832 0.8324 0.0
H2156 H 0.30035 0.43109 0.8444 0.0
H2157 H 0.2886 0.38429 0.85713 0.0
H2158 H 0.30908 0.34824 0.9379 0.0
H2159 H 0.30967 0.4404 0.94712 0.0
H2160 H 0.31251 0.47673 0.87679 0.0
C2161 C 0.30776 0.27297 0.85603 0.0
C2162 C 0.30441 0.22559 0.86606 0.0
C2163 C 0.30333 0.22254 0.88956 0.0
C2164 C 0.30578 0.26542 0.90295 0.0
C2165 C 0.30904 0.31154 0.89263 0.0
C2166 C 0.3098 0.31594 0.8697 0.0
C2167 C 0.31189 0.37122 0.86286 0.0
C2168 C 0.32654 0.3786 0.85095 0.0
C2169 C 0.29914 0.38981 0.84835 0.0
C2170 C 0.3119 0.397 0.88549 0.0
C2171 C 0.31063 0.3617 0.90245 0.0
C2172 C 0.31012 0.37634 0.92478 0.0
C2173 C 0.31052 0.42866 0.92988 0.0
C2174 C 0.31109 0.46548 0.91269 0.0
C2175 C 0.31206 0.44931 0.89027 0.0
loop_
_geom_bond_atom_site_label_1
_geom_bond_atom_site_label_2
_geom_bond_distance
_geom_bond_site_symmetry_2
_ccdc_geom_bond_type
Co0 O1 2.216 . S
Co0 O2 2.091 . S
Co0 O4 2.004 . S
Co0 O10 2.021 . S
Co0 O12 2.137 . S
Co0 O13 2.244 . S
O1 Co0 2.216 . S
O1 C8 1.247 . S
O2 Co0 2.091 . S
O2 C8 1.261 . S
C3 O12 1.247 . S
C3 O13 1.272 . S
O4 Co0 2.004 . S
O4 C9 1.259 . S
Co5 O6 2.061 . S
Co5 O11 2.052 . S
Co5 O13 2.135 . S
O6 Co5 2.061 . S
O6 C9 1.235 . S
C7 O10 1.238 . S
C7 O11 1.241 . S
C8 O1 1.247 . S
C8 O2 1.261 . S
C9 O4 1.259 . S
C9 O6 1.235 . S
O10 Co0 2.021 . S
O10 C7 1.238 . S
O11 Co5 2.052 . S
O11 C7 1.241 . S
O12 Co0 2.137 . S
O12 C3 1.247 . S
O13 Co0 2.244 . S
O13 C3 1.272 . S
O13 Co5 2.135 . S
Co14 O15 2.216 . S
Co14 O16 2.091 . S
Co14 O18 2.004 . S
Co14 O24 2.021 . S
Co14 O26 2.137 . S
Co14 O27 2.244 . S
O15 Co14 2.216 . S
O15 C22 1.247 . S
O16 Co14 2.091 . S
O16 C22 1.261 . S
C17 O26 1.247 . S
C17 O27 1.272 . S
O18 Co14 2.004 . S
O18 C23 1.259 . S
Co19 O20 2.061 . S
Co19 O25 2.052 . S
Co19 O27 2.135 . S
O20 Co19 2.061 . S
O20 C23 1.235 . S
C21 O24 1.238 . S
C21 O25 1.241 . S
C22 O15 1.247 . S
C22 O16 1.261 . S
C23 O18 1.259 . S
C23 O20 1.235 . S
O24 Co14 2.021 . S
O24 C21 1.238 . S
O25 Co19 2.052 . S
O25 C21 1.241 . S
O26 Co14 2.137 . S
O26 C17 1.247 . S
O27 Co14 2.244 . S
O27 C17 1.272 . S
O27 Co19 2.135 . S
Co28 O29 2.216 . S
Co28 O30 2.091 . S
Co28 O32 2.004 . S
Co28 O38 2.021 . S
Co28 O40 2.137 . S
Co28 O41 2.244 . S
O29 Co28 2.216 . S
O29 C36 1.247 . S
O30 Co28 2.091 . S
O30 C36 1.261 . S
C31 O40 1.247 . S
C31 O41 1.272 . S
O32 Co28 2.004 . S
O32 C37 1.259 . S
Co33 O34 2.061 . S
Co33 O39 2.052 . S
Co33 O41 2.135 . S
O34 Co33 2.061 . S
O34 C37 1.235 . S
C35 O38 1.238 . S
C35 O39 1.241 . S
C36 O29 1.247 . S
C36 O30 1.261 . S
C37 O32 1.259 . S
C37 O34 1.235 . S
O38 Co28 2.021 . S
O38 C35 1.238 . S
O39 Co33 2.052 . S
O39 C35 1.241 . S
O40 Co28 2.137 . S
O40 C31 1.247 . S
O41 Co28 2.244 . S
O41 C31 1.272 . S
O41 Co33 2.135 . S
Co42 O43 2.216 . S
Co42 O44 2.091 . S
Co42 O46 2.004 . S
Co42 O52 2.021 . S
Co42 O54 2.137 . S
Co42 O55 2.244 . S
O43 Co42 2.216 . S
O43 C50 1.247 . S
O44 Co42 2.091 . S
O44 C50 1.261 . S
C45 O54 1.247 . S
C45 O55 1.272 . S
O46 Co42 2.004 . S
O46 C51 1.259 . S
Co47 O48 2.061 . S
Co47 O53 2.052 . S
Co47 O55 2.135 . S
O48 Co47 2.061 . S
O48 C51 1.235 . S
C49 O52 1.238 . S
C49 O53 1.241 . S
C50 O43 1.247 . S
C50 O44 1.261 . S
C51 O46 1.259 . S
C51 O48 1.235 . S
O52 Co42 2.021 . S
O52 C49 1.238 . S
O53 Co47 2.052 . S
O53 C49 1.241 . S
O54 Co42 2.137 . S
O54 C45 1.247 . S
O55 Co42 2.244 . S
O55 C45 1.272 . S
O55 Co47 2.135 . S
Co56 O57 2.216 . S
Co56 O58 2.091 . S
Co56 O60 2.004 . S
Co56 O66 2.021 . S
Co56 O68 2.137 . S
Co56 O69 2.244 . S
O57 Co56 2.216 . S
O57 C64 1.247 . S
O58 Co56 2.091 . S
O58 C64 1.261 . S
C59 O68 1.247 . S
C59 O69 1.272 . S
O60 Co56 2.004 . S
O60 C65 1.259 . S
Co61 O62 2.061 . S
Co61 O67 2.052 . S
Co61 O69 2.135 . S
O62 Co61 2.061 . S
O62 C65 1.235 . S
C63 O66 1.238 . S
C63 O67 1.241 . S
C64 O57 1.247 . S
C64 O58 1.261 . S
C65 O60 1.259 . S
C65 O62 1.235 . S
O66 Co56 2.021 . S
O66 C63 1.238 . S
O67 Co61 2.052 . S
O67 C63 1.241 . S
O68 Co56 2.137 . S
O68 C59 1.247 . S
O69 Co56 2.244 . S
O69 C59 1.272 . S
O69 Co61 2.135 . S
Co70 O71 2.216 . S
Co70 O72 2.091 . S
Co70 O74 2.004 . S
Co70 O80 2.021 . S
Co70 O82 2.137 . S
Co70 O83 2.244 . S
O71 Co70 2.216 . S
O71 C78 1.247 . S
O72 Co70 2.091 . S
O72 C78 1.261 . S
C73 O82 1.247 . S
C73 O83 1.272 . S
O74 Co70 2.004 . S
O74 C79 1.259 . S
Co75 O76 2.061 . S
Co75 O81 2.052 . S
Co75 O83 2.135 . S
O76 Co75 2.061 . S
O76 C79 1.235 . S
C77 O80 1.238 . S
C77 O81 1.241 . S
C78 O71 1.247 . S
C78 O72 1.261 . S
C79 O74 1.259 . S
C79 O76 1.235 . S
O80 Co70 2.021 . S
O80 C77 1.238 . S
O81 Co75 2.052 . S
O81 C77 1.241 . S
O82 Co70 2.137 . S
O82 C73 1.247 . S
O83 Co70 2.244 . S
O83 C73 1.272 . S
O83 Co75 2.135 . S
Co84 O85 2.216 . S
Co84 O86 2.091 . S
Co84 O88 2.004 . S
Co84 O94 2.021 . S
Co84 O96 2.137 . S
Co84 O97 2.244 . S
O85 Co84 2.216 . S
O85 C92 1.247 . S
O86 Co84 2.091 . S
O86 C92 1.261 . S
C87 O96 1.247 . S
C87 O97 1.272 . S
O88 Co84 2.004 . S
O88 C93 1.259 . S
Co89 O90 2.061 . S
Co89 O95 2.052 . S
Co89 O97 2.135 . S
O90 Co89 2.061 . S
O90 C93 1.235 . S
C91 O94 1.238 . S
C91 O95 1.241 . S
C92 O85 1.247 . S
C92 O86 1.261 . S
C93 O88 1.259 . S
C93 O90 1.235 . S
O94 Co84 2.021 . S
O94 C91 1.238 . S
O95 Co89 2.052 . S
O95 C91 1.241 . S
O96 Co84 2.137 . S
O96 C87 1.247 . S
O97 Co84 2.244 . S
O97 C87 1.272 . S
O97 Co89 2.135 . S
Co98 O99 2.216 . S
Co98 O100 2.091 . S
Co98 O102 2.004 . S
Co98 O108 2.021 . S
Co98 O110 2.137 . S
Co98 O111 2.244 . S
O99 Co98 2.216 . S
O99 C106 1.247 . S
O100 Co98 2.091 . S
O100 C106 1.261 . S
C101 O110 1.247 . S
C101 O111 1.272 . S
O102 Co98 2.004 . S
O102 C107 1.259 . S
Co103 O104 2.061 . S
Co103 O109 2.052 . S
Co103 O111 2.135 . S
O104 Co103 2.061 . S
O104 C107 1.235 . S
C105 O108 1.238 . S
C105 O109 1.241 . S
C106 O99 1.247 . S
C106 O100 1.261 . S
C107 O102 1.259 . S
C107 O104 1.235 . S
O108 Co98 2.021 . S
O108 C105 1.238 . S
O109 Co103 2.052 . S
O109 C105 1.241 . S
O110 Co98 2.137 . S
O110 C101 1.247 . S
O111 Co98 2.244 . S
O111 C101 1.272 . S
O111 Co103 2.135 . S
Co112 O113 2.216 . S
Co112 O114 2.091 . S
Co112 O116 2.004 . S
Co112 O122 2.021 . S
Co112 O124 2.137 . S
Co112 O125 2.244 . S
O113 Co112 2.216 . S
O113 C120 1.247 . S
O114 Co112 2.091 . S
O114 C120 1.261 . S
C115 O124 1.247 . S
C115 O125 1.272 . S
O116 Co112 2.004 . S
O116 C121 1.259 . S
Co117 O118 2.061 . S
Co117 O123 2.052 . S
Co117 O125 2.135 . S
O118 Co117 2.061 . S
O118 C121 1.235 . S
C119 O122 1.238 . S
C119 O123 1.241 . S
C120 O113 1.247 . S
C120 O114 1.261 . S
C121 O116 1.259 . S
C121 O118 1.235 . S
O122 Co112 2.021 . S
O122 C119 1.238 . S
O123 Co117 2.052 . S
O123 C119 1.241 . S
O124 Co112 2.137 . S
O124 C115 1.247 . S
O125 Co112 2.244 . S
O125 C115 1.272 . S
O125 Co117 2.135 . S
Co126 O127 2.216 . S
Co126 O128 2.091 . S
Co126 O130 2.004 . S
Co126 O136 2.021 . S
Co126 O138 2.137 . S
Co126 O139 2.244 . S
O127 Co126 2.216 . S
O127 C134 1.247 . S
O128 Co126 2.091 . S
O128 C134 1.261 . S
C129 O138 1.247 . S
C129 O139 1.272 . S
O130 Co126 2.004 . S
O130 C135 1.259 . S
Co131 O132 2.061 . S
Co131 O137 2.052 . S
Co131 O139 2.135 . S
O132 Co131 2.061 . S
O132 C135 1.235 . S
C133 O136 1.238 . S
C133 O137 1.241 . S
C134 O127 1.247 . S
C134 O128 1.261 . S
C135 O130 1.259 . S
C135 O132 1.235 . S
O136 Co126 2.021 . S
O136 C133 1.238 . S
O137 Co131 2.052 . S
O137 C133 1.241 . S
O138 Co126 2.137 . S
O138 C129 1.247 . S
O139 Co126 2.244 . S
O139 C129 1.272 . S
O139 Co131 2.135 . S
Co140 O141 2.216 . S
Co140 O142 2.091 . S
Co140 O144 2.004 . S
Co140 O150 2.021 . S
Co140 O152 2.137 . S
Co140 O153 2.244 . S
O141 Co140 2.216 . S
O141 C148 1.247 . S
O142 Co140 2.091 . S
O142 C148 1.261 . S
C143 O152 1.247 . S
C143 O153 1.272 . S
O144 Co140 2.004 . S
O144 C149 1.259 . S
Co145 O146 2.061 . S
Co145 O151 2.052 . S
Co145 O153 2.135 . S
O146 Co145 2.061 . S
O146 C149 1.235 . S
C147 O150 1.238 . S
C147 O151 1.241 . S
C148 O141 1.247 . S
C148 O142 1.261 . S
C149 O144 1.259 . S
C149 O146 1.235 . S
O150 Co140 2.021 . S
O150 C147 1.238 . S
O151 Co145 2.052 . S
O151 C147 1.241 . S
O152 Co140 2.137 . S
O152 C143 1.247 . S
O153 Co140 2.244 . S
O153 C143 1.272 . S
O153 Co145 2.135 . S
Co154 O155 2.216 . S
Co154 O156 2.091 . S
Co154 O158 2.004 . S
Co154 O164 2.021 . S
Co154 O166 2.137 . S
Co154 O167 2.244 . S
O155 Co154 2.216 . S
O155 C162 1.247 . S
O156 Co154 2.091 . S
O156 C162 1.261 . S
C157 O166 1.247 . S
C157 O167 1.272 . S
O158 Co154 2.004 . S
O158 C163 1.259 . S
Co159 O160 2.061 . S
Co159 O165 2.052 . S
Co159 O167 2.135 . S
O160 Co159 2.061 . S
O160 C163 1.235 . S
C161 O164 1.238 . S
C161 O165 1.241 . S
C162 O155 1.247 . S
C162 O156 1.261 . S
C163 O158 1.259 . S
C163 O160 1.235 . S
O164 Co154 2.021 . S
O164 C161 1.238 . S
O165 Co159 2.052 . S
O165 C161 1.241 . S
O166 Co154 2.137 . S
O166 C157 1.247 . S
O167 Co154 2.244 . S
O167 C157 1.272 . S
O167 Co159 2.135 . S
Co168 O169 2.216 . S
Co168 O170 2.091 . S
Co168 O172 2.004 . S
Co168 O178 2.021 . S
Co168 O180 2.137 . S
Co168 O181 2.244 . S
O169 Co168 2.216 . S
O169 C176 1.247 . S
O170 Co168 2.091 . S
O170 C176 1.261 . S
C171 O180 1.247 . S
C171 O181 1.272 . S
O172 Co168 2.004 . S
O172 C177 1.259 . S
Co173 O174 2.061 . S
Co173 O179 2.052 . S
Co173 O181 2.135 . S
O174 Co173 2.061 . S
O174 C177 1.235 . S
C175 O178 1.238 . S
C175 O179 1.241 . S
C176 O169 1.247 . S
C176 O170 1.261 . S
C177 O172 1.259 . S
C177 O174 1.235 . S
O178 Co168 2.021 . S
O178 C175 1.238 . S
O179 Co173 2.052 . S
O179 C175 1.241 . S
O180 Co168 2.137 . S
O180 C171 1.247 . S
O181 Co168 2.244 . S
O181 C171 1.272 . S
O181 Co173 2.135 . S
Co182 O183 2.216 . S
Co182 O184 2.091 . S
Co182 O186 2.004 . S
Co182 O192 2.021 . S
Co182 O194 2.137 . S
Co182 O195 2.244 . S
O183 Co182 2.216 . S
O183 C190 1.247 . S
O184 Co182 2.091 . S
O184 C190 1.261 . S
C185 O194 1.247 . S
C185 O195 1.272 . S
O186 Co182 2.004 . S
O186 C191 1.259 . S
Co187 O188 2.061 . S
Co187 O193 2.052 . S
Co187 O195 2.135 . S
O188 Co187 2.061 . S
O188 C191 1.235 . S
C189 O192 1.238 . S
C189 O193 1.241 . S
C190 O183 1.247 . S
C190 O184 1.261 . S
C191 O186 1.259 . S
C191 O188 1.235 . S
O192 Co182 2.021 . S
O192 C189 1.238 . S
O193 Co187 2.052 . S
O193 C189 1.241 . S
O194 Co182 2.137 . S
O194 C185 1.247 . S
O195 Co182 2.244 . S
O195 C185 1.272 . S
O195 Co187 2.135 . S
Co196 O197 2.216 . S
Co196 O198 2.091 . S
Co196 O200 2.004 . S
Co196 O206 2.021 . S
Co196 O208 2.137 . S
Co196 O209 2.244 . S
O197 Co196 2.216 . S
O197 C204 1.247 . S
O198 Co196 2.091 . S
O198 C204 1.261 . S
C199 O208 1.247 . S
C199 O209 1.272 . S
O200 Co196 2.004 . S
O200 C205 1.259 . S
Co201 O202 2.061 . S
Co201 O207 2.052 . S
Co201 O209 2.135 . S
O202 Co201 2.061 . S
O202 C205 1.235 . S
C203 O206 1.238 . S
C203 O207 1.241 . S
C204 O197 1.247 . S
C204 O198 1.261 . S
C205 O200 1.259 . S
C205 O202 1.235 . S
O206 Co196 2.021 . S
O206 C203 1.238 . S
O207 Co201 2.052 . S
O207 C203 1.241 . S
O208 Co196 2.137 . S
O208 C199 1.247 . S
O209 Co196 2.244 . S
O209 C199 1.272 . S
O209 Co201 2.135 . S
Co210 O211 2.216 . S
Co210 O212 2.091 . S
Co210 O214 2.004 . S
Co210 O220 2.021 . S
Co210 O222 2.137 . S
Co210 O223 2.244 . S
O211 Co210 2.216 . S
O211 C218 1.247 . S
O212 Co210 2.091 . S
O212 C218 1.261 . S
C213 O222 1.247 . S
C213 O223 1.272 . S
O214 Co210 2.004 . S
O214 C219 1.259 . S
Co215 O216 2.061 . S
Co215 O221 2.052 . S
Co215 O223 2.135 . S
O216 Co215 2.061 . S
O216 C219 1.235 . S
C217 O220 1.238 . S
C217 O221 1.241 . S
C218 O211 1.247 . S
C218 O212 1.261 . S
C219 O214 1.259 . S
C219 O216 1.235 . S
O220 Co210 2.021 . S
O220 C217 1.238 . S
O221 Co215 2.052 . S
O221 C217 1.241 . S
O222 Co210 2.137 . S
O222 C213 1.247 . S
O223 Co210 2.244 . S
O223 C213 1.272 . S
O223 Co215 2.135 . S
Co224 O225 2.216 . S
Co224 O226 2.091 . S
Co224 O228 2.004 . S
Co224 O234 2.021 . S
Co224 O236 2.137 . S
Co224 O237 2.244 . S
O225 Co224 2.216 . S
O225 C232 1.247 . S
O226 Co224 2.091 . S
O226 C232 1.261 . S
C227 O236 1.247 . S
C227 O237 1.272 . S
O228 Co224 2.004 . S
O228 C233 1.259 . S
Co229 O230 2.061 . S
Co229 O235 2.052 . S
Co229 O237 2.135 . S
O230 Co229 2.061 . S
O230 C233 1.235 . S
C231 O234 1.238 . S
C231 O235 1.241 . S
C232 O225 1.247 . S
C232 O226 1.261 . S
C233 O228 1.259 . S
C233 O230 1.235 . S
O234 Co224 2.021 . S
O234 C231 1.238 . S
O235 Co229 2.052 . S
O235 C231 1.241 . S
O236 Co224 2.137 . S
O236 C227 1.247 . S
O237 Co224 2.244 . S
O237 C227 1.272 . S
O237 Co229 2.135 . S
Co238 O239 2.216 . S
Co238 O240 2.091 . S
Co238 O242 2.004 . S
Co238 O248 2.021 . S
Co238 O250 2.137 . S
Co238 O251 2.244 . S
O239 Co238 2.216 . S
O239 C246 1.247 . S
O240 Co238 2.091 . S
O240 C246 1.261 . S
C241 O250 1.247 . S
C241 O251 1.272 . S
O242 Co238 2.004 . S
O242 C247 1.259 . S
Co243 O244 2.061 . S
Co243 O249 2.052 . S
Co243 O251 2.135 . S
O244 Co243 2.061 . S
O244 C247 1.235 . S
C245 O248 1.238 . S
C245 O249 1.241 . S
C246 O239 1.247 . S
C246 O240 1.261 . S
C247 O242 1.259 . S
C247 O244 1.235 . S
O248 Co238 2.021 . S
O248 C245 1.238 . S
O249 Co243 2.052 . S
O249 C245 1.241 . S
O250 Co238 2.137 . S
O250 C241 1.247 . S
O251 Co238 2.244 . S
O251 C241 1.272 . S
O251 Co243 2.135 . S
Co252 O253 2.216 . S
Co252 O254 2.091 . S
Co252 O256 2.004 . S
Co252 O262 2.021 . S
Co252 O264 2.137 . S
Co252 O265 2.244 . S
O253 Co252 2.216 . S
O253 C260 1.247 . S
O254 Co252 2.091 . S
O254 C260 1.261 . S
C255 O264 1.247 . S
C255 O265 1.272 . S
O256 Co252 2.004 . S
O256 C261 1.259 . S
Co257 O258 2.061 . S
Co257 O263 2.052 . S
Co257 O265 2.135 . S
O258 Co257 2.061 . S
O258 C261 1.235 . S
C259 O262 1.238 . S
C259 O263 1.241 . S
C260 O253 1.247 . S
C260 O254 1.261 . S
C261 O256 1.259 . S
C261 O258 1.235 . S
O262 Co252 2.021 . S
O262 C259 1.238 . S
O263 Co257 2.052 . S
O263 C259 1.241 . S
O264 Co252 2.137 . S
O264 C255 1.247 . S
O265 Co252 2.244 . S
O265 C255 1.272 . S
O265 Co257 2.135 . S
Co266 O267 2.216 . S
Co266 O268 2.091 . S
Co266 O270 2.004 . S
Co266 O276 2.021 . S
Co266 O278 2.137 . S
Co266 O279 2.244 . S
O267 Co266 2.216 . S
O267 C274 1.247 . S
O268 Co266 2.091 . S
O268 C274 1.261 . S
C269 O278 1.247 . S
C269 O279 1.272 . S
O270 Co266 2.004 . S
O270 C275 1.259 . S
Co271 O272 2.061 . S
Co271 O277 2.052 . S
Co271 O279 2.135 . S
O272 Co271 2.061 . S
O272 C275 1.235 . S
C273 O276 1.238 . S
C273 O277 1.241 . S
C274 O267 1.247 . S
C274 O268 1.261 . S
C275 O270 1.259 . S
C275 O272 1.235 . S
O276 Co266 2.021 . S
O276 C273 1.238 . S
O277 Co271 2.052 . S
O277 C273 1.241 . S
O278 Co266 2.137 . S
O278 C269 1.247 . S
O279 Co266 2.244 . S
O279 C269 1.272 . S
O279 Co271 2.135 . S
Co280 O281 2.216 . S
Co280 O282 2.091 . S
Co280 O284 2.004 . S
Co280 O290 2.021 . S
Co280 O292 2.137 . S
Co280 O293 2.244 . S
O281 Co280 2.216 . S
O281 C288 1.247 . S
O282 Co280 2.091 . S
O282 C288 1.261 . S
C283 O292 1.247 . S
C283 O293 1.272 . S
O284 Co280 2.004 . S
O284 C289 1.259 . S
Co285 O286 2.061 . S
Co285 O291 2.052 . S
Co285 O293 2.135 . S
O286 Co285 2.061 . S
O286 C289 1.235 . S
C287 O290 1.238 . S
C287 O291 1.241 . S
C288 O281 1.247 . S
C288 O282 1.261 . S
C289 O284 1.259 . S
C289 O286 1.235 . S
O290 Co280 2.021 . S
O290 C287 1.238 . S
O291 Co285 2.052 . S
O291 C287 1.241 . S
O292 Co280 2.137 . S
O292 C283 1.247 . S
O293 Co280 2.244 . S
O293 C283 1.272 . S
O293 Co285 2.135 . S
Co294 O295 2.216 . S
Co294 O296 2.091 . S
Co294 O298 2.004 . S
Co294 O304 2.021 . S
Co294 O306 2.137 . S
Co294 O307 2.244 . S
O295 Co294 2.216 . S
O295 C302 1.247 . S
O296 Co294 2.091 . S
O296 C302 1.261 . S
C297 O306 1.247 . S
C297 O307 1.272 . S
O298 Co294 2.004 . S
O298 C303 1.259 . S
Co299 O300 2.061 . S
Co299 O305 2.052 . S
Co299 O307 2.135 . S
O300 Co299 2.061 . S
O300 C303 1.235 . S
C301 O304 1.238 . S
C301 O305 1.241 . S
C302 O295 1.247 . S
C302 O296 1.261 . S
C303 O298 1.259 . S
C303 O300 1.235 . S
O304 Co294 2.021 . S
O304 C301 1.238 . S
O305 Co299 2.052 . S
O305 C301 1.241 . S
O306 Co294 2.137 . S
O306 C297 1.247 . S
O307 Co294 2.244 . S
O307 C297 1.272 . S
O307 Co299 2.135 . S
Co308 O309 2.216 . S
Co308 O310 2.091 . S
Co308 O312 2.004 . S
Co308 O318 2.021 . S
Co308 O320 2.137 . S
Co308 O321 2.244 . S
O309 Co308 2.216 . S
O309 C316 1.247 . S
O310 Co308 2.091 . S
O310 C316 1.261 . S
C311 O320 1.247 . S
C311 O321 1.272 . S
O312 Co308 2.004 . S
O312 C317 1.259 . S
Co313 O314 2.061 . S
Co313 O319 2.052 . S
Co313 O321 2.135 . S
O314 Co313 2.061 . S
O314 C317 1.235 . S
C315 O318 1.238 . S
C315 O319 1.241 . S
C316 O309 1.247 . S
C316 O310 1.261 . S
C317 O312 1.259 . S
C317 O314 1.235 . S
O318 Co308 2.021 . S
O318 C315 1.238 . S
O319 Co313 2.052 . S
O319 C315 1.241 . S
O320 Co308 2.137 . S
O320 C311 1.247 . S
O321 Co308 2.244 . S
O321 C311 1.272 . S
O321 Co313 2.135 . S
Co322 O323 2.216 . S
Co322 O324 2.091 . S
Co322 O326 2.004 . S
Co322 O332 2.021 . S
Co322 O334 2.137 . S
Co322 O335 2.244 . S
O323 Co322 2.216 . S
O323 C330 1.247 . S
O324 Co322 2.091 . S
O324 C330 1.261 . S
C325 O334 1.247 . S
C325 O335 1.272 . S
O326 Co322 2.004 . S
O326 C331 1.259 . S
Co327 O328 2.061 . S
Co327 O333 2.052 . S
Co327 O335 2.135 . S
O328 Co327 2.061 . S
O328 C331 1.235 . S
C329 O332 1.238 . S
C329 O333 1.241 . S
C330 O323 1.247 . S
C330 O324 1.261 . S
C331 O326 1.259 . S
C331 O328 1.235 . S
O332 Co322 2.021 . S
O332 C329 1.238 . S
O333 Co327 2.052 . S
O333 C329 1.241 . S
O334 Co322 2.137 . S
O334 C325 1.247 . S
O335 Co322 2.244 . S
O335 C325 1.272 . S
O335 Co327 2.135 . S
Co336 O337 2.216 . S
Co336 O338 2.091 . S
Co336 O340 2.004 . S
Co336 O346 2.021 . S
Co336 O348 2.137 . S
Co336 O349 2.244 . S
O337 Co336 2.216 . S
O337 C344 1.247 . S
O338 Co336 2.091 . S
O338 C344 1.261 . S
C339 O348 1.247 . S
C339 O349 1.272 . S
O340 Co336 2.004 . S
O340 C345 1.259 . S
Co341 O342 2.061 . S
Co341 O347 2.052 . S
Co341 O349 2.135 . S
O342 Co341 2.061 . S
O342 C345 1.235 . S
C343 O346 1.238 . S
C343 O347 1.241 . S
C344 O337 1.247 . S
C344 O338 1.261 . S
C345 O340 1.259 . S
C345 O342 1.235 . S
O346 Co336 2.021 . S
O346 C343 1.238 . S
O347 Co341 2.052 . S
O347 C343 1.241 . S
O348 Co336 2.137 . S
O348 C339 1.247 . S
O349 Co336 2.244 . S
O349 C339 1.272 . S
O349 Co341 2.135 . S
Co350 O351 2.216 . S
Co350 O352 2.091 . S
Co350 O354 2.004 . S
Co350 O360 2.021 . S
Co350 O362 2.137 . S
Co350 O363 2.244 . S
O351 Co350 2.216 . S
O351 C358 1.247 . S
O352 Co350 2.091 . S
O352 C358 1.261 . S
C353 O362 1.247 . S
C353 O363 1.272 . S
O354 Co350 2.004 . S
O354 C359 1.259 . S
Co355 O356 2.061 . S
Co355 O361 2.052 . S
Co355 O363 2.135 . S
O356 Co355 2.061 . S
O356 C359 1.235 . S
C357 O360 1.238 . S
C357 O361 1.241 . S
C358 O351 1.247 . S
C358 O352 1.261 . S
C359 O354 1.259 . S
C359 O356 1.235 . S
O360 Co350 2.021 . S
O360 C357 1.238 . S
O361 Co355 2.052 . S
O361 C357 1.241 . S
O362 Co350 2.137 . S
O362 C353 1.247 . S
O363 Co350 2.244 . S
O363 C353 1.272 . S
O363 Co355 2.135 . S
Co364 O365 2.216 . S
Co364 O366 2.091 . S
Co364 O368 2.004 . S
Co364 O374 2.021 . S
Co364 O376 2.137 . S
Co364 O377 2.244 . S
O365 Co364 2.216 . S
O365 C372 1.247 . S
O366 Co364 2.091 . S
O366 C372 1.261 . S
C367 O376 1.247 . S
C367 O377 1.272 . S
O368 Co364 2.004 . S
O368 C373 1.259 . S
Co369 O370 2.061 . S
Co369 O375 2.052 . S
Co369 O377 2.135 . S
O370 Co369 2.061 . S
O370 C373 1.235 . S
C371 O374 1.238 . S
C371 O375 1.241 . S
C372 O365 1.247 . S
C372 O366 1.261 . S
C373 O368 1.259 . S
C373 O370 1.235 . S
O374 Co364 2.021 . S
O374 C371 1.238 . S
O375 Co369 2.052 . S
O375 C371 1.241 . S
O376 Co364 2.137 . S
O376 C367 1.247 . S
O377 Co364 2.244 . S
O377 C367 1.272 . S
O377 Co369 2.135 . S
Co378 O379 2.216 . S
Co378 O380 2.091 . S
Co378 O382 2.004 . S
Co378 O388 2.021 . S
Co378 O390 2.137 . S
Co378 O391 2.244 . S
O379 Co378 2.216 . S
O379 C386 1.247 . S
O380 Co378 2.091 . S
O380 C386 1.261 . S
C381 O390 1.247 . S
C381 O391 1.272 . S
O382 Co378 2.004 . S
O382 C387 1.259 . S
Co383 O384 2.061 . S
Co383 O389 2.052 . S
Co383 O391 2.135 . S
O384 Co383 2.061 . S
O384 C387 1.235 . S
C385 O388 1.238 . S
C385 O389 1.241 . S
C386 O379 1.247 . S
C386 O380 1.261 . S
C387 O382 1.259 . S
C387 O384 1.235 . S
O388 Co378 2.021 . S
O388 C385 1.238 . S
O389 Co383 2.052 . S
O389 C385 1.241 . S
O390 Co378 2.137 . S
O390 C381 1.247 . S
O391 Co378 2.244 . S
O391 C381 1.272 . S
O391 Co383 2.135 . S
Co392 O393 2.216 . S
Co392 O394 2.091 . S
Co392 O396 2.004 . S
Co392 O402 2.021 . S
Co392 O404 2.137 . S
Co392 O405 2.244 . S
O393 Co392 2.216 . S
O393 C400 1.247 . S
O394 Co392 2.091 . S
O394 C400 1.261 . S
C395 O404 1.247 . S
C395 O405 1.272 . S
O396 Co392 2.004 . S
O396 C401 1.259 . S
Co397 O398 2.061 . S
Co397 O403 2.052 . S
Co397 O405 2.135 . S
O398 Co397 2.061 . S
O398 C401 1.235 . S
C399 O402 1.238 . S
C399 O403 1.241 . S
C400 O393 1.247 . S
C400 O394 1.261 . S
C401 O396 1.259 . S
C401 O398 1.235 . S
O402 Co392 2.021 . S
O402 C399 1.238 . S
O403 Co397 2.052 . S
O403 C399 1.241 . S
O404 Co392 2.137 . S
O404 C395 1.247 . S
O405 Co392 2.244 . S
O405 C395 1.272 . S
O405 Co397 2.135 . S
Co406 O407 2.216 . S
Co406 O408 2.091 . S
Co406 O410 2.004 . S
Co406 O416 2.021 . S
Co406 O418 2.137 . S
Co406 O419 2.244 . S
O407 Co406 2.216 . S
O407 C414 1.247 . S
O408 Co406 2.091 . S
O408 C414 1.261 . S
C409 O418 1.247 . S
C409 O419 1.272 . S
O410 Co406 2.004 . S
O410 C415 1.259 . S
Co411 O412 2.061 . S
Co411 O417 2.052 . S
Co411 O419 2.135 . S
O412 Co411 2.061 . S
O412 C415 1.235 . S
C413 O416 1.238 . S
C413 O417 1.241 . S
C414 O407 1.247 . S
C414 O408 1.261 . S
C415 O410 1.259 . S
C415 O412 1.235 . S
O416 Co406 2.021 . S
O416 C413 1.238 . S
O417 Co411 2.052 . S
O417 C413 1.241 . S
O418 Co406 2.137 . S
O418 C409 1.247 . S
O419 Co406 2.244 . S
O419 C409 1.272 . S
O419 Co411 2.135 . S
Co420 O421 2.216 . S
Co420 O422 2.091 . S
Co420 O424 2.004 . S
Co420 O430 2.021 . S
Co420 O432 2.137 . S
Co420 O433 2.244 . S
O421 Co420 2.216 . S
O421 C428 1.247 . S
O422 Co420 2.091 . S
O422 C428 1.261 . S
C423 O432 1.247 . S
C423 O433 1.272 . S
O424 Co420 2.004 . S
O424 C429 1.259 . S
Co425 O426 2.061 . S
Co425 O431 2.052 . S
Co425 O433 2.135 . S
O426 Co425 2.061 . S
O426 C429 1.235 . S
C427 O430 1.238 . S
C427 O431 1.241 . S
C428 O421 1.247 . S
C428 O422 1.261 . S
C429 O424 1.259 . S
C429 O426 1.235 . S
O430 Co420 2.021 . S
O430 C427 1.238 . S
O431 Co425 2.052 . S
O431 C427 1.241 . S
O432 Co420 2.137 . S
O432 C423 1.247 . S
O433 Co420 2.244 . S
O433 C423 1.272 . S
O433 Co425 2.135 . S
Co434 O435 2.216 . S
Co434 O436 2.091 . S
Co434 O438 2.004 . S
Co434 O444 2.021 . S
Co434 O446 2.137 . S
Co434 O447 2.244 . S
O435 Co434 2.216 . S
O435 C442 1.247 . S
O436 Co434 2.091 . S
O436 C442 1.261 . S
C437 O446 1.247 . S
C437 O447 1.272 . S
O438 Co434 2.004 . S
O438 C443 1.259 . S
Co439 O440 2.061 . S
Co439 O445 2.052 . S
Co439 O447 2.135 . S
O440 Co439 2.061 . S
O440 C443 1.235 . S
C441 O444 1.238 . S
C441 O445 1.241 . S
C442 O435 1.247 . S
C442 O436 1.261 . S
C443 O438 1.259 . S
C443 O440 1.235 . S
O444 Co434 2.021 . S
O444 C441 1.238 . S
O445 Co439 2.052 . S
O445 C441 1.241 . S
O446 Co434 2.137 . S
O446 C437 1.247 . S
O447 Co434 2.244 . S
O447 C437 1.272 . S
O447 Co439 2.135 . S
H448 C460 0.930 . S
H449 C462 0.930 . S
H450 C463 0.930 . S
H451 C467 0.959 . S
H452 C467 0.959 . S
H453 C467 0.961 . S
H454 C468 0.960 . S
H455 C468 0.961 . S
H456 C468 0.959 . S
H457 C471 0.929 . S
H458 C472 0.931 . S
H459 C474 0.930 . S
C460 H448 0.930 . S
C460 C461 1.399 . S
C460 C465 1.399 . S
C461 C460 1.399 . S
C461 C462 1.376 . S
C462 H449 0.930 . S
C462 C461 1.376 . S
C462 C463 1.388 . S
C463 H450 0.930 . S
C463 C462 1.388 . S
C463 C464 1.390 . S
C464 C463 1.390 . S
C464 C465 1.394 . S
C464 C470 1.465 . S
C465 C460 1.399 . S
C465 C464 1.394 . S
C465 C466 1.516 . S
C466 C465 1.516 . S
C466 C467 1.502 . S
C466 C468 1.561 . S
C466 C469 1.526 . S
C467 H451 0.959 . S
C467 H452 0.959 . S
C467 H453 0.961 . S
C467 C466 1.502 . S
C468 H454 0.960 . S
C468 H455 0.961 . S
C468 H456 0.959 . S
C468 C466 1.561 . S
C469 C466 1.526 . S
C469 C470 1.396 . S
C469 C474 1.390 . S
C470 C464 1.465 . S
C470 C469 1.396 . S
C470 C471 1.399 . S
C471 H457 0.929 . S
C471 C470 1.399 . S
C471 C472 1.385 . S
C472 H458 0.931 . S
C472 C471 1.385 . S
C472 C473 1.389 . S
C473 C472 1.389 . S
C473 C474 1.387 . S
C474 H459 0.930 . S
C474 C469 1.390 . S
C474 C473 1.387 . S
H475 C487 0.930 . S
H476 C489 0.930 . S
H477 C490 0.930 . S
H478 C494 0.959 . S
H479 C494 0.959 . S
H480 C494 0.961 . S
H481 C495 0.960 . S
H482 C495 0.961 . S
H483 C495 0.959 . S
H484 C498 0.929 . S
H485 C499 0.931 . S
H486 C501 0.930 . S
C487 H475 0.930 . S
C487 C488 1.399 . S
C487 C492 1.399 . S
C488 C487 1.399 . S
C488 C489 1.376 . S
C489 H476 0.930 . S
C489 C488 1.376 . S
C489 C490 1.388 . S
C490 H477 0.930 . S
C490 C489 1.388 . S
C490 C491 1.390 . S
C491 C490 1.390 . S
C491 C492 1.394 . S
C491 C497 1.465 . S
C492 C487 1.399 . S
C492 C491 1.394 . S
C492 C493 1.516 . S
C493 C492 1.516 . S
C493 C494 1.502 . S
C493 C495 1.561 . S
C493 C496 1.526 . S
C494 H478 0.959 . S
C494 H479 0.959 . S
C494 H480 0.961 . S
C494 C493 1.502 . S
C495 H481 0.960 . S
C495 H482 0.961 . S
C495 H483 0.959 . S
C495 C493 1.561 . S
C496 C493 1.526 . S
C496 C497 1.396 . S
C496 C501 1.390 . S
C497 C491 1.465 . S
C497 C496 1.396 . S
C497 C498 1.399 . S
C498 H484 0.929 . S
C498 C497 1.399 . S
C498 C499 1.385 . S
C499 H485 0.931 . S
C499 C498 1.385 . S
C499 C500 1.389 . S
C500 C499 1.389 . S
C500 C501 1.387 . S
C501 H486 0.930 . S
C501 C496 1.390 . S
C501 C500 1.387 . S
H502 C514 0.930 . S
H503 C516 0.930 . S
H504 C517 0.930 . S
H505 C521 0.959 . S
H506 C521 0.959 . S
H507 C521 0.961 . S
H508 C522 0.960 . S
H509 C522 0.961 . S
H510 C522 0.959 . S
H511 C525 0.929 . S
H512 C526 0.931 . S
H513 C528 0.930 . S
C514 H502 0.930 . S
C514 C515 1.399 . S
C514 C519 1.399 . S
C515 C514 1.399 . S
C515 C516 1.376 . S
C516 H503 0.930 . S
C516 C515 1.376 . S
C516 C517 1.388 . S
C517 H504 0.930 . S
C517 C516 1.388 . S
C517 C518 1.390 . S
C518 C517 1.390 . S
C518 C519 1.394 . S
C518 C524 1.465 . S
C519 C514 1.399 . S
C519 C518 1.394 . S
C519 C520 1.516 . S
C520 C519 1.516 . S
C520 C521 1.502 . S
C520 C522 1.561 . S
C520 C523 1.526 . S
C521 H505 0.959 . S
C521 H506 0.959 . S
C521 H507 0.961 . S
C521 C520 1.502 . S
C522 H508 0.960 . S
C522 H509 0.961 . S
C522 H510 0.959 . S
C522 C520 1.561 . S
C523 C520 1.526 . S
C523 C524 1.396 . S
C523 C528 1.390 . S
C524 C518 1.465 . S
C524 C523 1.396 . S
C524 C525 1.399 . S
C525 H511 0.929 . S
C525 C524 1.399 . S
C525 C526 1.385 . S
C526 H512 0.931 . S
C526 C525 1.385 . S
C526 C527 1.389 . S
C527 C526 1.389 . S
C527 C528 1.387 . S
C528 H513 0.930 . S
C528 C523 1.390 . S
C528 C527 1.387 . S
H529 C541 0.930 . S
H530 C543 0.930 . S
H531 C544 0.930 . S
H532 C548 0.959 . S
H533 C548 0.959 . S
H534 C548 0.961 . S
H535 C549 0.960 . S
H536 C549 0.961 . S
H537 C549 0.959 . S
H538 C552 0.929 . S
H539 C553 0.931 . S
H540 C555 0.930 . S
C541 H529 0.930 . S
C541 C542 1.399 . S
C541 C546 1.399 . S
C542 C541 1.399 . S
C542 C543 1.376 . S
C543 H530 0.930 . S
C543 C542 1.376 . S
C543 C544 1.388 . S
C544 H531 0.930 . S
C544 C543 1.388 . S
C544 C545 1.390 . S
C545 C544 1.390 . S
C545 C546 1.394 . S
C545 C551 1.465 . S
C546 C541 1.399 . S
C546 C545 1.394 . S
C546 C547 1.516 . S
C547 C546 1.516 . S
C547 C548 1.502 . S
C547 C549 1.561 . S
C547 C550 1.526 . S
C548 H532 0.959 . S
C548 H533 0.959 . S
C548 H534 0.961 . S
C548 C547 1.502 . S
C549 H535 0.960 . S
C549 H536 0.961 . S
C549 H537 0.959 . S
C549 C547 1.561 . S
C550 C547 1.526 . S
C550 C551 1.396 . S
C550 C555 1.390 . S
C551 C545 1.465 . S
C551 C550 1.396 . S
C551 C552 1.399 . S
C552 H538 0.929 . S
C552 C551 1.399 . S
C552 C553 1.385 . S
C553 H539 0.931 . S
C553 C552 1.385 . S
C553 C554 1.389 . S
C554 C553 1.389 . S
C554 C555 1.387 . S
C555 H540 0.930 . S
C555 C550 1.390 . S
C555 C554 1.387 . S
H556 C568 0.930 . S
H557 C570 0.930 1_565 S
H558 C571 0.930 . S
H559 C575 0.959 . S
H560 C575 0.959 . S
H561 C575 0.961 . S
H562 C576 0.960 . S
H563 C576 0.961 . S
H564 C576 0.959 . S
H565 C579 0.929 . S
H566 C580 0.931 . S
H567 C582 0.930 . S
C568 H556 0.930 . S
C568 C569 1.399 1_545 S
C568 C573 1.399 . S
C569 C568 1.399 1_565 S
C569 C570 1.376 1_565 S
C570 H557 0.930 1_545 S
C570 C569 1.376 1_545 S
C570 C571 1.388 . S
C571 H558 0.930 . S
C571 C570 1.388 . S
C571 C572 1.390 . S
C572 C571 1.390 . S
C572 C573 1.394 . S
C572 C578 1.465 . S
C573 C568 1.399 . S
C573 C572 1.394 . S
C573 C574 1.516 . S
C574 C573 1.516 . S
C574 C575 1.502 . S
C574 C576 1.561 . S
C574 C577 1.526 . S
C575 H559 0.959 . S
C575 H560 0.959 . S
C575 H561 0.961 . S
C575 C574 1.502 . S
C576 H562 0.960 . S
C576 H563 0.961 . S
C576 H564 0.959 . S
C576 C574 1.561 . S
C577 C574 1.526 . S
C577 C578 1.396 . S
C577 C582 1.390 . S
C578 C572 1.465 . S
C578 C577 1.396 . S
C578 C579 1.399 . S
C579 H565 0.929 . S
C579 C578 1.399 . S
C579 C580 1.385 . S
C580 H566 0.931 . S
C580 C579 1.385 . S
C580 C581 1.389 . S
C581 C580 1.389 . S
C581 C582 1.387 . S
C582 H567 0.930 . S
C582 C577 1.390 . S
C582 C581 1.387 . S
H583 C595 0.930 . S
H584 C597 0.930 1_565 S
H585 C598 0.930 . S
H586 C602 0.959 . S
H587 C602 0.959 . S
H588 C602 0.961 . S
H589 C603 0.960 . S
H590 C603 0.961 . S
H591 C603 0.959 . S
H592 C606 0.929 . S
H593 C607 0.931 . S
H594 C609 0.930 . S
C595 H583 0.930 . S
C595 C596 1.399 1_545 S
C595 C600 1.399 . S
C596 C595 1.399 1_565 S
C596 C597 1.376 1_565 S
C597 H584 0.930 1_545 S
C597 C596 1.376 1_545 S
C597 C598 1.388 . S
C598 H585 0.930 . S
C598 C597 1.388 . S
C598 C599 1.390 . S
C599 C598 1.390 . S
C599 C600 1.394 . S
C599 C605 1.465 . S
C600 C595 1.399 . S
C600 C599 1.394 . S
C600 C601 1.516 . S
C601 C600 1.516 . S
C601 C602 1.502 . S
C601 C603 1.561 . S
C601 C604 1.526 . S
C602 H586 0.959 . S
C602 H587 0.959 . S
C602 H588 0.961 . S
C602 C601 1.502 . S
C603 H589 0.960 . S
C603 H590 0.961 . S
C603 H591 0.959 . S
C603 C601 1.561 . S
C604 C601 1.526 . S
C604 C605 1.396 . S
C604 C609 1.390 . S
C605 C599 1.465 . S
C605 C604 1.396 . S
C605 C606 1.399 . S
C606 H592 0.929 . S
C606 C605 1.399 . S
C606 C607 1.385 . S
C607 H593 0.931 . S
C607 C606 1.385 . S
C607 C608 1.389 . S
C608 C607 1.389 . S
C608 C609 1.387 . S
C609 H594 0.930 . S
C609 C604 1.390 . S
C609 C608 1.387 . S
H610 C622 0.930 . S
H611 C624 0.930 1_545 S
H612 C625 0.930 . S
H613 C629 0.959 . S
H614 C629 0.959 . S
H615 C629 0.961 . S
H616 C630 0.960 . S
H617 C630 0.961 . S
H618 C630 0.959 . S
H619 C633 0.929 . S
H620 C634 0.931 . S
H621 C636 0.930 . S
C622 H610 0.930 . S
C622 C623 1.399 1_565 S
C622 C627 1.399 . S
C623 C622 1.399 1_545 S
C623 C624 1.376 1_545 S
C624 H611 0.930 1_565 S
C624 C623 1.376 1_565 S
C624 C625 1.388 . S
C625 H612 0.930 . S
C625 C624 1.388 . S
C625 C626 1.390 . S
C626 C625 1.390 . S
C626 C627 1.394 . S
C626 C632 1.465 . S
C627 C622 1.399 . S
C627 C626 1.394 . S
C627 C628 1.516 . S
C628 C627 1.516 . S
C628 C629 1.502 . S
C628 C630 1.561 . S
C628 C631 1.526 . S
C629 H613 0.959 . S
C629 H614 0.959 . S
C629 H615 0.961 . S
C629 C628 1.502 . S
C630 H616 0.960 . S
C630 H617 0.961 . S
C630 H618 0.959 . S
C630 C628 1.561 . S
C631 C628 1.526 . S
C631 C632 1.396 . S
C631 C636 1.390 . S
C632 C626 1.465 . S
C632 C631 1.396 . S
C632 C633 1.399 . S
C633 H619 0.929 . S
C633 C632 1.399 . S
C633 C634 1.385 . S
C634 H620 0.931 . S
C634 C633 1.385 . S
C634 C635 1.389 . S
C635 C634 1.389 . S
C635 C636 1.387 . S
C636 H621 0.930 . S
C636 C631 1.390 . S
C636 C635 1.387 . S
H637 C649 0.930 . S
H638 C651 0.930 . S
H639 C652 0.930 . S
H640 C656 0.959 . S
H641 C656 0.959 . S
H642 C656 0.961 . S
H643 C657 0.960 . S
H644 C657 0.961 . S
H645 C657 0.959 . S
H646 C660 0.929 . S
H647 C661 0.931 1_545 S
H648 C663 0.930 . S
C649 H637 0.930 . S
C649 C650 1.399 . S
C649 C654 1.399 . S
C650 C649 1.399 . S
C650 C651 1.376 . S
C651 H638 0.930 . S
C651 C650 1.376 . S
C651 C652 1.388 . S
C652 H639 0.930 . S
C652 C651 1.388 . S
C652 C653 1.390 . S
C653 C652 1.390 . S
C653 C654 1.394 . S
C653 C659 1.465 . S
C654 C649 1.399 . S
C654 C653 1.394 . S
C654 C655 1.516 . S
C655 C654 1.516 . S
C655 C656 1.502 . S
C655 C657 1.561 . S
C655 C658 1.526 . S
C656 H640 0.959 . S
C656 H641 0.959 . S
C656 H642 0.961 . S
C656 C655 1.502 . S
C657 H643 0.960 . S
C657 H644 0.961 . S
C657 H645 0.959 . S
C657 C655 1.561 . S
C658 C655 1.526 . S
C658 C659 1.396 . S
C658 C663 1.390 . S
C659 C653 1.465 . S
C659 C658 1.396 . S
C659 C660 1.399 . S
C660 H646 0.929 . S
C660 C659 1.399 . S
C660 C661 1.385 . S
C661 H647 0.931 1_565 S
C661 C660 1.385 . S
C661 C662 1.389 1_565 S
C662 C661 1.389 1_545 S
C662 C663 1.387 1_545 S
C663 H648 0.930 . S
C663 C658 1.390 . S
C663 C662 1.387 1_565 S
H664 C676 0.930 . S
H665 C678 0.930 . S
H666 C679 0.930 . S
H667 C683 0.959 . S
H668 C683 0.959 . S
H669 C683 0.961 . S
H670 C684 0.960 . S
H671 C684 0.961 . S
H672 C684 0.959 . S
H673 C687 0.929 . S
H674 C688 0.931 . S
H675 C690 0.930 . S
C676 H664 0.930 . S
C676 C677 1.399 . S
C676 C681 1.399 . S
C677 C676 1.399 . S
C677 C678 1.376 . S
C678 H665 0.930 . S
C678 C677 1.376 . S
C678 C679 1.388 . S
C679 H666 0.930 . S
C679 C678 1.388 . S
C679 C680 1.390 . S
C680 C679 1.390 . S
C680 C681 1.394 . S
C680 C686 1.465 . S
C681 C676 1.399 . S
C681 C680 1.394 . S
C681 C682 1.516 . S
C682 C681 1.516 . S
C682 C683 1.502 . S
C682 C684 1.561 . S
C682 C685 1.526 . S
C683 H667 0.959 . S
C683 H668 0.959 . S
C683 H669 0.961 . S
C683 C682 1.502 . S
C684 H670 0.960 . S
C684 H671 0.961 . S
C684 H672 0.959 . S
C684 C682 1.561 . S
C685 C682 1.526 . S
C685 C686 1.396 . S
C685 C690 1.390 . S
C686 C680 1.465 . S
C686 C685 1.396 . S
C686 C687 1.399 . S
C687 H673 0.929 . S
C687 C686 1.399 . S
C687 C688 1.385 . S
C688 H674 0.931 . S
C688 C687 1.385 . S
C688 C689 1.389 . S
C689 C688 1.389 . S
C689 C690 1.387 . S
C690 H675 0.930 . S
C690 C685 1.390 . S
C690 C689 1.387 . S
H691 C703 0.930 . S
H692 C705 0.930 . S
H693 C706 0.930 . S
H694 C710 0.959 . S
H695 C710 0.959 . S
H696 C710 0.961 . S
H697 C711 0.960 . S
H698 C711 0.961 . S
H699 C711 0.959 . S
H700 C714 0.929 . S
H701 C715 0.931 . S
H702 C717 0.930 . S
C703 H691 0.930 . S
C703 C704 1.399 . S
C703 C708 1.399 . S
C704 C703 1.399 . S
C704 C705 1.376 . S
C705 H692 0.930 . S
C705 C704 1.376 . S
C705 C706 1.388 . S
C706 H693 0.930 . S
C706 C705 1.388 . S
C706 C707 1.390 . S
C707 C706 1.390 . S
C707 C708 1.394 . S
C707 C713 1.465 . S
C708 C703 1.399 . S
C708 C707 1.394 . S
C708 C709 1.516 . S
C709 C708 1.516 . S
C709 C710 1.502 . S
C709 C711 1.561 . S
C709 C712 1.526 . S
C710 H694 0.959 . S
C710 H695 0.959 . S
C710 H696 0.961 . S
C710 C709 1.502 . S
C711 H697 0.960 . S
C711 H698 0.961 . S
C711 H699 0.959 . S
C711 C709 1.561 . S
C712 C709 1.526 . S
C712 C713 1.396 . S
C712 C717 1.390 . S
C713 C707 1.465 . S
C713 C712 1.396 . S
C713 C714 1.399 . S
C714 H700 0.929 . S
C714 C713 1.399 . S
C714 C715 1.385 . S
C715 H701 0.931 . S
C715 C714 1.385 . S
C715 C716 1.389 . S
C716 C715 1.389 . S
C716 C717 1.387 . S
C717 H702 0.930 . S
C717 C712 1.390 . S
C717 C716 1.387 . S
H718 C730 0.930 . S
H719 C732 0.930 . S
H720 C733 0.930 . S
H721 C737 0.959 . S
H722 C737 0.959 . S
H723 C737 0.961 . S
H724 C738 0.960 . S
H725 C738 0.961 . S
H726 C738 0.959 . S
H727 C741 0.929 . S
H728 C742 0.931 . S
H729 C744 0.930 . S
C730 H718 0.930 . S
C730 C731 1.399 . S
C730 C735 1.399 . S
C731 C730 1.399 . S
C731 C732 1.376 . S
C732 H719 0.930 . S
C732 C731 1.376 . S
C732 C733 1.388 . S
C733 H720 0.930 . S
C733 C732 1.388 . S
C733 C734 1.390 . S
C734 C733 1.390 . S
C734 C735 1.394 . S
C734 C740 1.465 . S
C735 C730 1.399 . S
C735 C734 1.394 . S
C735 C736 1.516 . S
C736 C735 1.516 . S
C736 C737 1.502 . S
C736 C738 1.561 . S
C736 C739 1.526 . S
C737 H721 0.959 . S
C737 H722 0.959 . S
C737 H723 0.961 . S
C737 C736 1.502 . S
C738 H724 0.960 . S
C738 H725 0.961 . S
C738 H726 0.959 . S
C738 C736 1.561 . S
C739 C736 1.526 . S
C739 C740 1.396 . S
C739 C744 1.390 . S
C740 C734 1.465 . S
C740 C739 1.396 . S
C740 C741 1.399 . S
C741 H727 0.929 . S
C741 C740 1.399 . S
C741 C742 1.385 . S
C742 H728 0.931 . S
C742 C741 1.385 . S
C742 C743 1.389 . S
C743 C742 1.389 . S
C743 C744 1.387 . S
C744 H729 0.930 . S
C744 C739 1.390 . S
C744 C743 1.387 . S
H745 C757 0.930 . S
H746 C759 0.930 . S
H747 C760 0.930 . S
H748 C764 0.959 . S
H749 C764 0.959 . S
H750 C764 0.961 . S
H751 C765 0.960 . S
H752 C765 0.961 . S
H753 C765 0.959 . S
H754 C768 0.929 . S
H755 C769 0.931 . S
H756 C771 0.930 . S
C757 H745 0.930 . S
C757 C758 1.399 . S
C757 C762 1.399 . S
C758 C757 1.399 . S
C758 C759 1.376 . S
C759 H746 0.930 . S
C759 C758 1.376 . S
C759 C760 1.388 . S
C760 H747 0.930 . S
C760 C759 1.388 . S
C760 C761 1.390 . S
C761 C760 1.390 . S
C761 C762 1.394 . S
C761 C767 1.465 . S
C762 C757 1.399 . S
C762 C761 1.394 . S
C762 C763 1.516 . S
C763 C762 1.516 . S
C763 C764 1.502 . S
C763 C765 1.561 . S
C763 C766 1.526 . S
C764 H748 0.959 . S
C764 H749 0.959 . S
C764 H750 0.961 . S
C764 C763 1.502 . S
C765 H751 0.960 . S
C765 H752 0.961 . S
C765 H753 0.959 . S
C765 C763 1.561 . S
C766 C763 1.526 . S
C766 C767 1.396 . S
C766 C771 1.390 . S
C767 C761 1.465 . S
C767 C766 1.396 . S
C767 C768 1.399 . S
C768 H754 0.929 . S
C768 C767 1.399 . S
C768 C769 1.385 . S
C769 H755 0.931 . S
C769 C768 1.385 . S
C769 C770 1.389 . S
C770 C769 1.389 . S
C770 C771 1.387 . S
C771 H756 0.930 . S
C771 C766 1.390 . S
C771 C770 1.387 . S
H772 C784 0.930 . S
H773 C786 0.930 . S
H774 C787 0.930 . S
H775 C791 0.959 . S
H776 C791 0.959 . S
H777 C791 0.961 . S
H778 C792 0.960 . S
H779 C792 0.961 . S
H780 C792 0.959 . S
H781 C795 0.929 . S
H782 C796 0.931 1_565 S
H783 C798 0.930 . S
C784 H772 0.930 . S
C784 C785 1.399 . S
C784 C789 1.399 . S
C785 C784 1.399 . S
C785 C786 1.376 . S
C786 H773 0.930 . S
C786 C785 1.376 . S
C786 C787 1.388 . S
C787 H774 0.930 . S
C787 C786 1.388 . S
C787 C788 1.390 . S
C788 C787 1.390 . S
C788 C789 1.394 . S
C788 C794 1.465 . S
C789 C784 1.399 . S
C789 C788 1.394 . S
C789 C790 1.516 . S
C790 C789 1.516 . S
C790 C791 1.502 . S
C790 C792 1.561 . S
C790 C793 1.526 . S
C791 H775 0.959 . S
C791 H776 0.959 . S
C791 H777 0.961 . S
C791 C790 1.502 . S
C792 H778 0.960 . S
C792 H779 0.961 . S
C792 H780 0.959 . S
C792 C790 1.561 . S
C793 C790 1.526 . S
C793 C794 1.396 . S
C793 C798 1.390 . S
C794 C788 1.465 . S
C794 C793 1.396 . S
C794 C795 1.399 . S
C795 H781 0.929 . S
C795 C794 1.399 . S
C795 C796 1.385 . S
C796 H782 0.931 1_545 S
C796 C795 1.385 . S
C796 C797 1.389 1_545 S
C797 C796 1.389 1_565 S
C797 C798 1.387 1_565 S
C798 H783 0.930 . S
C798 C793 1.390 . S
C798 C797 1.387 1_545 S
H799 C811 0.930 . S
H800 C813 0.930 1_565 S
H801 C814 0.930 . S
H802 C818 0.959 . S
H803 C818 0.959 . S
H804 C818 0.961 . S
H805 C819 0.960 . S
H806 C819 0.961 . S
H807 C819 0.959 . S
H808 C822 0.929 . S
H809 C823 0.931 . S
H810 C825 0.930 . S
C811 H799 0.930 . S
C811 C812 1.399 1_545 S
C811 C816 1.399 . S
C812 C811 1.399 1_565 S
C812 C813 1.376 1_565 S
C813 H800 0.930 1_545 S
C813 C812 1.376 1_545 S
C813 C814 1.388 . S
C814 H801 0.930 . S
C814 C813 1.388 . S
C814 C815 1.390 . S
C815 C814 1.390 . S
C815 C816 1.394 . S
C815 C821 1.465 . S
C816 C811 1.399 . S
C816 C815 1.394 . S
C816 C817 1.516 . S
C817 C816 1.516 . S
C817 C818 1.502 . S
C817 C819 1.561 . S
C817 C820 1.526 . S
C818 H802 0.959 . S
C818 H803 0.959 . S
C818 H804 0.961 . S
C818 C817 1.502 . S
C819 H805 0.960 . S
C819 H806 0.961 . S
C819 H807 0.959 . S
C819 C817 1.561 . S
C820 C817 1.526 . S
C820 C821 1.396 . S
C820 C825 1.390 . S
C821 C815 1.465 . S
C821 C820 1.396 . S
C821 C822 1.399 . S
C822 H808 0.929 . S
C822 C821 1.399 . S
C822 C823 1.385 . S
C823 H809 0.931 . S
C823 C822 1.385 . S
C823 C824 1.389 . S
C824 C823 1.389 . S
C824 C825 1.387 . S
C825 H810 0.930 . S
C825 C820 1.390 . S
C825 C824 1.387 . S
H826 C838 0.930 . S
H827 C840 0.930 . S
H828 C841 0.930 . S
H829 C845 0.959 . S
H830 C845 0.959 . S
H831 C845 0.961 . S
H832 C846 0.960 . S
H833 C846 0.961 . S
H834 C846 0.959 . S
H835 C849 0.929 . S
H836 C850 0.931 1_545 S
H837 C852 0.930 . S
C838 H826 0.930 . S
C838 C839 1.399 . S
C838 C843 1.399 . S
C839 C838 1.399 . S
C839 C840 1.376 . S
C840 H827 0.930 . S
C840 C839 1.376 . S
C840 C841 1.388 . S
C841 H828 0.930 . S
C841 C840 1.388 . S
C841 C842 1.390 . S
C842 C841 1.390 . S
C842 C843 1.394 . S
C842 C848 1.465 . S
C843 C838 1.399 . S
C843 C842 1.394 . S
C843 C844 1.516 . S
C844 C843 1.516 . S
C844 C845 1.502 . S
C844 C846 1.561 . S
C844 C847 1.526 . S
C845 H829 0.959 . S
C845 H830 0.959 . S
C845 H831 0.961 . S
C845 C844 1.502 . S
C846 H832 0.960 . S
C846 H833 0.961 . S
C846 H834 0.959 . S
C846 C844 1.561 . S
C847 C844 1.526 . S
C847 C848 1.396 . S
C847 C852 1.390 . S
C848 C842 1.465 . S
C848 C847 1.396 . S
C848 C849 1.399 . S
C849 H835 0.929 . S
C849 C848 1.399 . S
C849 C850 1.385 . S
C850 H836 0.931 1_565 S
C850 C849 1.385 . S
C850 C851 1.389 1_565 S
C851 C850 1.389 1_545 S
C851 C852 1.387 1_545 S
C852 H837 0.930 . S
C852 C847 1.390 . S
C852 C851 1.387 1_565 S
H853 C865 0.930 . S
H854 C867 0.930 . S
H855 C868 0.930 . S
H856 C872 0.959 . S
H857 C872 0.959 . S
H858 C872 0.961 . S
H859 C873 0.960 . S
H860 C873 0.961 . S
H861 C873 0.959 . S
H862 C876 0.929 . S
H863 C877 0.931 1_545 S
H864 C879 0.930 . S
C865 H853 0.930 . S
C865 C866 1.399 . S
C865 C870 1.399 . S
C866 C865 1.399 . S
C866 C867 1.376 . S
C867 H854 0.930 . S
C867 C866 1.376 . S
C867 C868 1.388 . S
C868 H855 0.930 . S
C868 C867 1.388 . S
C868 C869 1.390 . S
C869 C868 1.390 . S
C869 C870 1.394 . S
C869 C875 1.465 . S
C870 C865 1.399 . S
C870 C869 1.394 . S
C870 C871 1.516 . S
C871 C870 1.516 . S
C871 C872 1.502 . S
C871 C873 1.561 . S
C871 C874 1.526 . S
C872 H856 0.959 . S
C872 H857 0.959 . S
C872 H858 0.961 . S
C872 C871 1.502 . S
C873 H859 0.960 . S
C873 H860 0.961 . S
C873 H861 0.959 . S
C873 C871 1.561 . S
C874 C871 1.526 . S
C874 C875 1.396 . S
C874 C879 1.390 . S
C875 C869 1.465 . S
C875 C874 1.396 . S
C875 C876 1.399 . S
C876 H862 0.929 . S
C876 C875 1.399 . S
C876 C877 1.385 . S
C877 H863 0.931 1_565 S
C877 C876 1.385 . S
C877 C878 1.389 1_565 S
C878 C877 1.389 1_545 S
C878 C879 1.387 1_545 S
C879 H864 0.930 . S
C879 C874 1.390 . S
C879 C878 1.387 1_565 S
H880 C892 0.930 . S
H881 C894 0.930 . S
H882 C895 0.930 1_554 S
H883 C899 0.959 . S
H884 C899 0.959 . S
H885 C899 0.961 . S
H886 C900 0.960 . S
H887 C900 0.961 . S
H888 C900 0.959 . S
H889 C903 0.929 . S
H890 C904 0.931 . S
H891 C906 0.930 . S
C892 H880 0.930 . S
C892 C893 1.399 . S
C892 C897 1.399 . S
C893 C892 1.399 . S
C893 C894 1.376 . S
C894 H881 0.930 . S
C894 C893 1.376 . S
C894 C895 1.388 . S
C895 H882 0.930 1_556 S
C895 C894 1.388 . S
C895 C896 1.390 . S
C896 C895 1.390 . S
C896 C897 1.394 . S
C896 C902 1.465 1_656 S
C897 C892 1.399 . S
C897 C896 1.394 . S
C897 C898 1.516 1_655 S
C898 C897 1.516 1_455 S
C898 C899 1.502 1_455 S
C898 C900 1.561 . S
C898 C901 1.526 1_556 S
C899 H883 0.959 . S
C899 H884 0.959 . S
C899 H885 0.961 . S
C899 C898 1.502 1_655 S
C900 H886 0.960 . S
C900 H887 0.961 . S
C900 H888 0.959 . S
C900 C898 1.561 . S
C901 C898 1.526 1_554 S
C901 C902 1.396 . S
C901 C906 1.390 . S
C902 C896 1.465 1_454 S
C902 C901 1.396 . S
C902 C903 1.399 . S
C903 H889 0.929 . S
C903 C902 1.399 . S
C903 C904 1.385 . S
C904 H890 0.931 . S
C904 C903 1.385 . S
C904 C905 1.389 . S
C905 C904 1.389 . S
C905 C906 1.387 . S
C906 H891 0.930 . S
C906 C901 1.390 . S
C906 C905 1.387 . S
H907 C919 0.930 . S
H908 C921 0.930 . S
H909 C922 0.930 . S
H910 C926 0.959 . S
H911 C926 0.959 . S
H912 C926 0.961 1_556 S
H913 C927 0.960 . S
H914 C927 0.961 . S
H915 C927 0.959 . S
H916 C930 0.929 . S
H917 C931 0.931 . S
H918 C933 0.930 . S
C919 H907 0.930 . S
C919 C920 1.399 . S
C919 C924 1.399 . S
C920 C919 1.399 . S
C920 C921 1.376 . S
C921 H908 0.930 . S
C921 C920 1.376 . S
C921 C922 1.388 . S
C922 H909 0.930 . S
C922 C921 1.388 . S
C922 C923 1.390 . S
C923 C922 1.390 . S
C923 C924 1.394 . S
C923 C929 1.465 1_556 S
C924 C919 1.399 . S
C924 C923 1.394 . S
C924 C925 1.516 . S
C925 C924 1.516 . S
C925 C926 1.502 1_556 S
C925 C927 1.561 . S
C925 C928 1.526 1_556 S
C926 H910 0.959 . S
C926 H911 0.959 . S
C926 H912 0.961 1_554 S
C926 C925 1.502 1_554 S
C927 H913 0.960 . S
C927 H914 0.961 . S
C927 H915 0.959 . S
C927 C925 1.561 . S
C928 C925 1.526 1_554 S
C928 C929 1.396 . S
C928 C933 1.390 . S
C929 C923 1.465 1_554 S
C929 C928 1.396 . S
C929 C930 1.399 . S
C930 H916 0.929 . S
C930 C929 1.399 . S
C930 C931 1.385 . S
C931 H917 0.931 . S
C931 C930 1.385 . S
C931 C932 1.389 . S
C932 C931 1.389 . S
C932 C933 1.387 . S
C933 H918 0.930 . S
C933 C928 1.390 . S
C933 C932 1.387 . S
H934 C946 0.930 . S
H935 C948 0.930 . S
H936 C949 0.930 . S
H937 C953 0.959 . S
H938 C953 0.959 . S
H939 C953 0.961 . S
H940 C954 0.960 . S
H941 C954 0.961 . S
H942 C954 0.959 . S
H943 C957 0.929 . S
H944 C958 0.931 . S
H945 C960 0.930 . S
C946 H934 0.930 . S
C946 C947 1.399 . S
C946 C951 1.399 . S
C947 C946 1.399 . S
C947 C948 1.376 . S
C948 H935 0.930 . S
C948 C947 1.376 . S
C948 C949 1.388 . S
C949 H936 0.930 . S
C949 C948 1.388 . S
C949 C950 1.390 . S
C950 C949 1.390 . S
C950 C951 1.394 . S
C950 C956 1.465 1_455 S
C951 C946 1.399 . S
C951 C950 1.394 . S
C951 C952 1.516 1_455 S
C952 C951 1.516 1_655 S
C952 C953 1.502 . S
C952 C954 1.561 1_655 S
C952 C955 1.526 . S
C953 H937 0.959 . S
C953 H938 0.959 . S
C953 H939 0.961 . S
C953 C952 1.502 . S
C954 H940 0.960 . S
C954 H941 0.961 . S
C954 H942 0.959 . S
C954 C952 1.561 1_455 S
C955 C952 1.526 . S
C955 C956 1.396 . S
C955 C960 1.390 . S
C956 C950 1.465 1_655 S
C956 C955 1.396 . S
C956 C957 1.399 . S
C957 H943 0.929 . S
C957 C956 1.399 . S
C957 C958 1.385 . S
C958 H944 0.931 . S
C958 C957 1.385 . S
C958 C959 1.389 . S
C959 C958 1.389 . S
C959 C960 1.387 . S
C960 H945 0.930 . S
C960 C955 1.390 . S
C960 C959 1.387 . S
H961 C973 0.930 . S
H962 C975 0.930 . S
H963 C976 0.930 . S
H964 C980 0.959 . S
H965 C980 0.959 . S
H966 C980 0.961 . S
H967 C981 0.960 . S
H968 C981 0.961 . S
H969 C981 0.959 . S
H970 C984 0.929 . S
H971 C985 0.931 . S
H972 C987 0.930 . S
C973 H961 0.930 . S
C973 C974 1.399 . S
C973 C978 1.399 . S
C974 C973 1.399 . S
C974 C975 1.376 . S
C975 H962 0.930 . S
C975 C974 1.376 . S
C975 C976 1.388 . S
C976 H963 0.930 . S
C976 C975 1.388 . S
C976 C977 1.390 . S
C977 C976 1.390 . S
C977 C978 1.394 . S
C977 C983 1.465 . S
C978 C973 1.399 . S
C978 C977 1.394 . S
C978 C979 1.516 . S
C979 C978 1.516 . S
C979 C980 1.502 . S
C979 C981 1.561 . S
C979 C982 1.526 . S
C980 H964 0.959 . S
C980 H965 0.959 . S
C980 H966 0.961 . S
C980 C979 1.502 . S
C981 H967 0.960 . S
C981 H968 0.961 . S
C981 H969 0.959 . S
C981 C979 1.561 . S
C982 C979 1.526 . S
C982 C983 1.396 . S
C982 C987 1.390 . S
C983 C977 1.465 . S
C983 C982 1.396 . S
C983 C984 1.399 . S
C984 H970 0.929 . S
C984 C983 1.399 . S
C984 C985 1.385 . S
C985 H971 0.931 . S
C985 C984 1.385 . S
C985 C986 1.389 . S
C986 C985 1.389 . S
C986 C987 1.387 . S
C987 H972 0.930 . S
C987 C982 1.390 . S
C987 C986 1.387 . S
H988 C1000 0.930 . S
H989 C1002 0.930 . S
H990 C1003 0.930 1_554 S
H991 C1007 0.959 . S
H992 C1007 0.959 . S
H993 C1007 0.961 . S
H994 C1008 0.960 . S
H995 C1008 0.961 . S
H996 C1008 0.959 . S
H997 C1011 0.929 . S
H998 C1012 0.931 . S
H999 C1014 0.930 . S
C1000 H988 0.930 . S
C1000 C1001 1.399 . S
C1000 C1005 1.399 . S
C1001 C1000 1.399 . S
C1001 C1002 1.376 . S
C1002 H989 0.930 . S
C1002 C1001 1.376 . S
C1002 C1003 1.388 . S
C1003 H990 0.930 1_556 S
C1003 C1002 1.388 . S
C1003 C1004 1.390 . S
C1004 C1003 1.390 . S
C1004 C1005 1.394 . S
C1004 C1010 1.465 1_556 S
C1005 C1000 1.399 . S
C1005 C1004 1.394 . S
C1005 C1006 1.516 . S
C1006 C1005 1.516 . S
C1006 C1007 1.502 . S
C1006 C1008 1.561 . S
C1006 C1009 1.526 1_556 S
C1007 H991 0.959 . S
C1007 H992 0.959 . S
C1007 H993 0.961 . S
C1007 C1006 1.502 . S
C1008 H994 0.960 . S
C1008 H995 0.961 . S
C1008 H996 0.959 . S
C1008 C1006 1.561 . S
C1009 C1006 1.526 1_554 S
C1009 C1010 1.396 . S
C1009 C1014 1.390 . S
C1010 C1004 1.465 1_554 S
C1010 C1009 1.396 . S
C1010 C1011 1.399 . S
C1011 H997 0.929 . S
C1011 C1010 1.399 . S
C1011 C1012 1.385 . S
C1012 H998 0.931 . S
C1012 C1011 1.385 . S
C1012 C1013 1.389 . S
C1013 C1012 1.389 . S
C1013 C1014 1.387 . S
C1014 H999 0.930 . S
C1014 C1009 1.390 . S
C1014 C1013 1.387 . S
H1015 C1027 0.930 . S
H1016 C1029 0.930 . S
H1017 C1030 0.930 . S
H1018 C1034 0.959 . S
H1019 C1034 0.959 . S
H1020 C1034 0.961 . S
H1021 C1035 0.975 . S
H1022 C1035 0.955 1_455 S
H1023 C1035 0.937 1_455 S
H1024 C1038 0.929 . S
H1025 C1039 0.931 . S
H1026 C1041 0.930 . S
C1027 H1015 0.930 . S
C1027 C1028 1.399 . S
C1027 C1032 1.399 . S
C1028 C1027 1.399 . S
C1028 C1029 1.376 . S
C1029 H1016 0.930 . S
C1029 C1028 1.376 . S
C1029 C1030 1.388 1_655 S
C1030 H1017 0.930 . S
C1030 C1029 1.388 1_455 S
C1030 C1031 1.395 . S
C1031 C1030 1.395 . S
C1031 C1032 1.353 1_455 S
C1031 C1037 1.498 . S
C1032 C1027 1.399 . S
C1032 C1031 1.353 1_655 S
C1032 C1033 1.516 . S
C1033 C1032 1.516 . S
C1033 C1034 1.502 . S
C1033 C1035 1.571 . S
C1033 C1036 1.526 1_655 S
C1034 H1018 0.959 . S
C1034 H1019 0.959 . S
C1034 H1020 0.961 . S
C1034 C1033 1.502 . S
C1035 H1021 0.975 . S
C1035 H1022 0.955 1_655 S
C1035 H1023 0.937 1_655 S
C1035 C1033 1.571 . S
C1036 C1033 1.526 1_455 S
C1036 C1037 1.396 . S
C1036 C1041 1.390 . S
C1037 C1031 1.498 . S
C1037 C1036 1.396 . S
C1037 C1038 1.399 . S
C1038 H1024 0.929 . S
C1038 C1037 1.399 . S
C1038 C1039 1.385 . S
C1039 H1025 0.931 . S
C1039 C1038 1.385 . S
C1039 C1040 1.389 . S
C1040 C1039 1.389 . S
C1040 C1041 1.387 . S
C1041 H1026 0.930 . S
C1041 C1036 1.390 . S
C1041 C1040 1.387 . S
H1042 C1054 0.930 . S
H1043 C1056 0.930 . S
H1044 C1057 0.930 . S
H1045 C1061 0.959 . S
H1046 C1061 0.959 . S
H1047 C1061 0.961 . S
H1048 C1062 0.960 . S
H1049 C1062 0.961 . S
H1050 C1062 0.959 . S
H1051 C1065 0.929 . S
H1052 C1066 0.931 . S
H1053 C1068 0.930 . S
C1054 H1042 0.930 . S
C1054 C1055 1.399 . S
C1054 C1059 1.399 . S
C1055 C1054 1.399 . S
C1055 C1056 1.376 . S
C1056 H1043 0.930 . S
C1056 C1055 1.376 . S
C1056 C1057 1.388 . S
C1057 H1044 0.930 . S
C1057 C1056 1.388 . S
C1057 C1058 1.390 . S
C1058 C1057 1.390 . S
C1058 C1059 1.394 . S
C1058 C1064 1.465 . S
C1059 C1054 1.399 . S
C1059 C1058 1.394 . S
C1059 C1060 1.516 . S
C1060 C1059 1.516 . S
C1060 C1061 1.502 . S
C1060 C1062 1.561 . S
C1060 C1063 1.526 . S
C1061 H1045 0.959 . S
C1061 H1046 0.959 . S
C1061 H1047 0.961 . S
C1061 C1060 1.502 . S
C1062 H1048 0.960 . S
C1062 H1049 0.961 . S
C1062 H1050 0.959 . S
C1062 C1060 1.561 . S
C1063 C1060 1.526 . S
C1063 C1064 1.396 . S
C1063 C1068 1.390 . S
C1064 C1058 1.465 . S
C1064 C1063 1.396 . S
C1064 C1065 1.399 . S
C1065 H1051 0.929 . S
C1065 C1064 1.399 . S
C1065 C1066 1.385 . S
C1066 H1052 0.931 . S
C1066 C1065 1.385 . S
C1066 C1067 1.389 . S
C1067 C1066 1.389 . S
C1067 C1068 1.387 . S
C1068 H1053 0.930 . S
C1068 C1063 1.390 . S
C1068 C1067 1.387 . S
H1069 C1081 0.930 1_565 S
H1070 C1083 0.930 . S
H1071 C1084 0.930 . S
H1072 C1088 0.959 . S
H1073 C1088 0.959 . S
H1074 C1088 0.961 . S
H1075 C1089 0.961 . S
H1076 C1089 0.961 1_455 S
H1077 C1089 0.958 1_455 S
H1078 C1092 0.929 . S
H1079 C1093 0.931 1_545 S
H1080 C1095 0.930 . S
C1081 H1069 0.930 1_545 S
C1081 C1082 1.399 . S
C1081 C1086 1.399 1_545 S
C1082 C1081 1.399 . S
C1082 C1083 1.376 . S
C1083 H1070 0.930 . S
C1083 C1082 1.376 . S
C1083 C1084 1.388 1_655 S
C1084 H1071 0.930 . S
C1084 C1083 1.388 1_455 S
C1084 C1085 1.394 . S
C1085 C1084 1.394 . S
C1085 C1086 1.356 1_445 S
C1085 C1091 1.496 . S
C1086 C1081 1.399 1_565 S
C1086 C1085 1.356 1_665 S
C1086 C1087 1.516 . S
C1087 C1086 1.516 . S
C1087 C1088 1.502 . S
C1087 C1089 1.562 . S
C1087 C1090 1.526 1_655 S
C1088 H1072 0.959 . S
C1088 H1073 0.959 . S
C1088 H1074 0.961 . S
C1088 C1087 1.502 . S
C1089 H1075 0.961 . S
C1089 H1076 0.961 1_655 S
C1089 H1077 0.958 1_655 S
C1089 C1087 1.562 . S
C1090 C1087 1.526 1_455 S
C1090 C1091 1.396 1_565 S
C1090 C1095 1.390 . S
C1091 C1085 1.496 . S
C1091 C1090 1.396 1_545 S
C1091 C1092 1.399 . S
C1092 H1078 0.929 . S
C1092 C1091 1.399 . S
C1092 C1093 1.385 1_545 S
C1093 H1079 0.931 1_565 S
C1093 C1092 1.385 1_565 S
C1093 C1094 1.389 . S
C1094 C1093 1.389 . S
C1094 C1095 1.387 . S
C1095 H1080 0.930 . S
C1095 C1090 1.390 . S
C1095 C1094 1.387 . S
H1096 C1108 0.930 . S
H1097 C1110 0.930 . S
H1098 C1111 0.930 . S
H1099 C1115 0.959 . S
H1100 C1115 0.959 . S
H1101 C1115 0.961 . S
H1102 C1116 0.960 . S
H1103 C1116 0.961 . S
H1104 C1116 0.959 . S
H1105 C1119 0.929 . S
H1106 C1120 0.931 . S
H1107 C1122 0.930 . S
C1108 H1096 0.930 . S
C1108 C1109 1.399 . S
C1108 C1113 1.399 . S
C1109 C1108 1.399 . S
C1109 C1110 1.376 . S
C1110 H1097 0.930 . S
C1110 C1109 1.376 . S
C1110 C1111 1.388 . S
C1111 H1098 0.930 . S
C1111 C1110 1.388 . S
C1111 C1112 1.390 . S
C1112 C1111 1.390 . S
C1112 C1113 1.394 . S
C1112 C1118 1.465 . S
C1113 C1108 1.399 . S
C1113 C1112 1.394 . S
C1113 C1114 1.516 . S
C1114 C1113 1.516 . S
C1114 C1115 1.502 . S
C1114 C1116 1.561 . S
C1114 C1117 1.526 . S
C1115 H1099 0.959 . S
C1115 H1100 0.959 . S
C1115 H1101 0.961 . S
C1115 C1114 1.502 . S
C1116 H1102 0.960 . S
C1116 H1103 0.961 . S
C1116 H1104 0.959 . S
C1116 C1114 1.561 . S
C1117 C1114 1.526 . S
C1117 C1118 1.396 . S
C1117 C1122 1.390 . S
C1118 C1112 1.465 . S
C1118 C1117 1.396 . S
C1118 C1119 1.399 . S
C1119 H1105 0.929 . S
C1119 C1118 1.399 . S
C1119 C1120 1.385 . S
C1120 H1106 0.931 . S
C1120 C1119 1.385 . S
C1120 C1121 1.389 . S
C1121 C1120 1.389 . S
C1121 C1122 1.387 . S
C1122 H1107 0.930 . S
C1122 C1117 1.390 . S
C1122 C1121 1.387 . S
H1123 C1135 0.930 . S
H1124 C1137 0.930 . S
H1125 C1138 0.930 . S
H1126 C1142 0.959 1_545 S
H1127 C1142 0.959 . S
H1128 C1142 0.961 . S
H1129 C1143 0.960 . S
H1130 C1143 0.961 . S
H1131 C1143 0.959 . S
H1132 C1146 0.929 . S
H1133 C1147 0.931 . S
H1134 C1149 0.930 . S
C1135 H1123 0.930 . S
C1135 C1136 1.399 . S
C1135 C1140 1.399 . S
C1136 C1135 1.399 . S
C1136 C1137 1.376 . S
C1137 H1124 0.930 . S
C1137 C1136 1.376 . S
C1137 C1138 1.388 1_565 S
C1138 H1125 0.930 . S
C1138 C1137 1.388 1_545 S
C1138 C1139 1.390 1_545 S
C1139 C1138 1.390 1_565 S
C1139 C1140 1.394 . S
C1139 C1145 1.465 1_565 S
C1140 C1135 1.399 . S
C1140 C1139 1.394 . S
C1140 C1141 1.516 . S
C1141 C1140 1.516 . S
C1141 C1142 1.502 . S
C1141 C1143 1.561 . S
C1141 C1144 1.526 1_565 S
C1142 H1126 0.959 1_565 S
C1142 H1127 0.959 . S
C1142 H1128 0.961 . S
C1142 C1141 1.502 . S
C1143 H1129 0.960 . S
C1143 H1130 0.961 . S
C1143 H1131 0.959 . S
C1143 C1141 1.561 . S
C1144 C1141 1.526 1_545 S
C1144 C1145 1.396 . S
C1144 C1149 1.390 . S
C1145 C1139 1.465 1_545 S
C1145 C1144 1.396 . S
C1145 C1146 1.399 . S
C1146 H1132 0.929 . S
C1146 C1145 1.399 . S
C1146 C1147 1.385 . S
C1147 H1133 0.931 . S
C1147 C1146 1.385 . S
C1147 C1148 1.389 . S
C1148 C1147 1.389 . S
C1148 C1149 1.387 . S
C1149 H1134 0.930 . S
C1149 C1144 1.390 . S
C1149 C1148 1.387 . S
H1150 C1162 0.930 . S
H1151 C1164 0.930 . S
H1152 C1165 0.930 . S
H1153 C1169 0.959 . S
H1154 C1169 0.959 . S
H1155 C1169 0.961 . S
H1156 C1170 0.960 . S
H1157 C1170 0.961 . S
H1158 C1170 0.959 . S
H1159 C1173 0.929 . S
H1160 C1174 0.931 . S
H1161 C1176 0.930 . S
C1162 H1150 0.930 . S
C1162 C1163 1.399 . S
C1162 C1167 1.399 . S
C1163 C1162 1.399 . S
C1163 C1164 1.376 . S
C1164 H1151 0.930 . S
C1164 C1163 1.376 . S
C1164 C1165 1.388 . S
C1165 H1152 0.930 . S
C1165 C1164 1.388 . S
C1165 C1166 1.390 . S
C1166 C1165 1.390 . S
C1166 C1167 1.394 . S
C1166 C1172 1.465 . S
C1167 C1162 1.399 . S
C1167 C1166 1.394 . S
C1167 C1168 1.516 . S
C1168 C1167 1.516 . S
C1168 C1169 1.502 . S
C1168 C1170 1.561 . S
C1168 C1171 1.526 . S
C1169 H1153 0.959 . S
C1169 H1154 0.959 . S
C1169 H1155 0.961 . S
C1169 C1168 1.502 . S
C1170 H1156 0.960 . S
C1170 H1157 0.961 . S
C1170 H1158 0.959 . S
C1170 C1168 1.561 . S
C1171 C1168 1.526 . S
C1171 C1172 1.396 . S
C1171 C1176 1.390 . S
C1172 C1166 1.465 . S
C1172 C1171 1.396 . S
C1172 C1173 1.399 . S
C1173 H1159 0.929 . S
C1173 C1172 1.399 . S
C1173 C1174 1.385 . S
C1174 H1160 0.931 . S
C1174 C1173 1.385 . S
C1174 C1175 1.389 . S
C1175 C1174 1.389 . S
C1175 C1176 1.387 . S
C1176 H1161 0.930 . S
C1176 C1171 1.390 . S
C1176 C1175 1.387 . S
H1177 C1189 0.930 1_545 S
H1178 C1191 0.930 . S
H1179 C1192 0.930 . S
H1180 C1196 0.959 . S
H1181 C1196 0.959 . S
H1182 C1196 0.961 . S
H1183 C1197 0.960 . S
H1184 C1197 0.961 . S
H1185 C1197 0.959 . S
H1186 C1200 0.929 . S
H1187 C1201 0.931 1_565 S
H1188 C1203 0.930 . S
C1189 H1177 0.930 1_565 S
C1189 C1190 1.399 . S
C1189 C1194 1.398 1_565 S
C1190 C1189 1.399 . S
C1190 C1191 1.376 . S
C1191 H1178 0.930 . S
C1191 C1190 1.376 . S
C1191 C1192 1.388 . S
C1192 H1179 0.930 . S
C1192 C1191 1.388 . S
C1192 C1193 1.390 . S
C1193 C1192 1.390 . S
C1193 C1194 1.392 1_565 S
C1193 C1199 1.465 . S
C1194 C1189 1.398 1_545 S
C1194 C1193 1.392 1_545 S
C1194 C1195 1.518 . S
C1195 C1194 1.518 . S
C1195 C1196 1.502 . S
C1195 C1197 1.561 . S
C1195 C1198 1.526 . S
C1196 H1180 0.959 . S
C1196 H1181 0.959 . S
C1196 H1182 0.961 . S
C1196 C1195 1.502 . S
C1197 H1183 0.960 . S
C1197 H1184 0.961 . S
C1197 H1185 0.959 . S
C1197 C1195 1.561 . S
C1198 C1195 1.526 . S
C1198 C1199 1.396 1_545 S
C1198 C1203 1.390 . S
C1199 C1193 1.465 . S
C1199 C1198 1.396 1_565 S
C1199 C1200 1.399 . S
C1200 H1186 0.929 . S
C1200 C1199 1.399 . S
C1200 C1201 1.385 1_565 S
C1201 H1187 0.931 1_545 S
C1201 C1200 1.385 1_545 S
C1201 C1202 1.389 . S
C1202 C1201 1.389 . S
C1202 C1203 1.387 . S
C1203 H1188 0.930 . S
C1203 C1198 1.390 . S
C1203 C1202 1.387 . S
H1204 C1216 0.930 . S
H1205 C1218 0.930 . S
H1206 C1219 0.930 . S
H1207 C1223 0.959 . S
H1208 C1223 0.959 . S
H1209 C1223 0.961 . S
H1210 C1224 0.960 . S
H1211 C1224 0.961 . S
H1212 C1224 0.959 . S
H1213 C1227 0.929 . S
H1214 C1228 0.931 . S
H1215 C1230 0.930 . S
C1216 H1204 0.930 . S
C1216 C1217 1.399 . S
C1216 C1221 1.399 . S
C1217 C1216 1.399 . S
C1217 C1218 1.376 . S
C1218 H1205 0.930 . S
C1218 C1217 1.376 . S
C1218 C1219 1.388 . S
C1219 H1206 0.930 . S
C1219 C1218 1.388 . S
C1219 C1220 1.390 . S
C1220 C1219 1.390 . S
C1220 C1221 1.394 . S
C1220 C1226 1.465 . S
C1221 C1216 1.399 . S
C1221 C1220 1.394 . S
C1221 C1222 1.516 . S
C1222 C1221 1.516 . S
C1222 C1223 1.502 . S
C1222 C1224 1.561 . S
C1222 C1225 1.526 . S
C1223 H1207 0.959 . S
C1223 H1208 0.959 . S
C1223 H1209 0.961 . S
C1223 C1222 1.502 . S
C1224 H1210 0.960 . S
C1224 H1211 0.961 . S
C1224 H1212 0.959 . S
C1224 C1222 1.561 . S
C1225 C1222 1.526 . S
C1225 C1226 1.396 . S
C1225 C1230 1.390 . S
C1226 C1220 1.465 . S
C1226 C1225 1.396 . S
C1226 C1227 1.399 . S
C1227 H1213 0.929 . S
C1227 C1226 1.399 . S
C1227 C1228 1.385 . S
C1228 H1214 0.931 . S
C1228 C1227 1.385 . S
C1228 C1229 1.389 . S
C1229 C1228 1.389 . S
C1229 C1230 1.387 . S
C1230 H1215 0.930 . S
C1230 C1225 1.390 . S
C1230 C1229 1.387 . S
H1231 C1243 0.930 . S
H1232 C1245 0.930 . S
H1233 C1246 0.930 . S
H1234 C1250 0.959 . S
H1235 C1250 0.959 . S
H1236 C1250 0.961 . S
H1237 C1251 0.960 . S
H1238 C1251 0.961 . S
H1239 C1251 0.959 . S
H1240 C1254 0.929 . S
H1241 C1255 0.931 . S
H1242 C1257 0.930 . S
C1243 H1231 0.930 . S
C1243 C1244 1.399 . S
C1243 C1248 1.399 . S
C1244 C1243 1.399 . S
C1244 C1245 1.376 . S
C1245 H1232 0.930 . S
C1245 C1244 1.376 . S
C1245 C1246 1.388 . S
C1246 H1233 0.930 . S
C1246 C1245 1.388 . S
C1246 C1247 1.390 . S
C1247 C1246 1.390 . S
C1247 C1248 1.394 . S
C1247 C1253 1.465 . S
C1248 C1243 1.399 . S
C1248 C1247 1.394 . S
C1248 C1249 1.516 . S
C1249 C1248 1.516 . S
C1249 C1250 1.502 . S
C1249 C1251 1.561 . S
C1249 C1252 1.526 . S
C1250 H1234 0.959 . S
C1250 H1235 0.959 . S
C1250 H1236 0.961 . S
C1250 C1249 1.502 . S
C1251 H1237 0.960 . S
C1251 H1238 0.961 . S
C1251 H1239 0.959 . S
C1251 C1249 1.561 . S
C1252 C1249 1.526 . S
C1252 C1253 1.396 . S
C1252 C1257 1.390 . S
C1253 C1247 1.465 . S
C1253 C1252 1.396 . S
C1253 C1254 1.399 . S
C1254 H1240 0.929 . S
C1254 C1253 1.399 . S
C1254 C1255 1.385 . S
C1255 H1241 0.931 . S
C1255 C1254 1.385 . S
C1255 C1256 1.389 . S
C1256 C1255 1.389 . S
C1256 C1257 1.387 . S
C1257 H1242 0.930 . S
C1257 C1252 1.390 . S
C1257 C1256 1.387 . S
H1258 C1270 0.930 . S
H1259 C1272 0.930 . S
H1260 C1273 0.930 . S
H1261 C1277 0.959 . S
H1262 C1277 0.959 . S
H1263 C1277 0.961 . S
H1264 C1278 0.960 . S
H1265 C1278 0.961 . S
H1266 C1278 0.959 . S
H1267 C1281 0.929 . S
H1268 C1282 0.931 . S
H1269 C1284 0.930 . S
C1270 H1258 0.930 . S
C1270 C1271 1.399 . S
C1270 C1275 1.399 . S
C1271 C1270 1.399 . S
C1271 C1272 1.376 . S
C1272 H1259 0.930 . S
C1272 C1271 1.376 . S
C1272 C1273 1.388 . S
C1273 H1260 0.930 . S
C1273 C1272 1.388 . S
C1273 C1274 1.390 . S
C1274 C1273 1.390 . S
C1274 C1275 1.394 . S
C1274 C1280 1.465 . S
C1275 C1270 1.399 . S
C1275 C1274 1.394 . S
C1275 C1276 1.516 . S
C1276 C1275 1.516 . S
C1276 C1277 1.502 . S
C1276 C1278 1.561 . S
C1276 C1279 1.526 . S
C1277 H1261 0.959 . S
C1277 H1262 0.959 . S
C1277 H1263 0.961 . S
C1277 C1276 1.502 . S
C1278 H1264 0.960 . S
C1278 H1265 0.961 . S
C1278 H1266 0.959 . S
C1278 C1276 1.561 . S
C1279 C1276 1.526 . S
C1279 C1280 1.396 . S
C1279 C1284 1.390 . S
C1280 C1274 1.465 . S
C1280 C1279 1.396 . S
C1280 C1281 1.399 . S
C1281 H1267 0.929 . S
C1281 C1280 1.399 . S
C1281 C1282 1.385 . S
C1282 H1268 0.931 . S
C1282 C1281 1.385 . S
C1282 C1283 1.389 . S
C1283 C1282 1.389 . S
C1283 C1284 1.387 . S
C1284 H1269 0.930 . S
C1284 C1279 1.390 . S
C1284 C1283 1.387 . S
H1285 C1297 0.930 . S
H1286 C1299 0.930 . S
H1287 C1300 0.930 . S
H1288 C1304 0.959 1_545 S
H1289 C1304 0.959 . S
H1290 C1304 0.961 1_545 S
H1291 C1305 0.960 1_556 S
H1292 C1305 0.961 . S
H1293 C1305 0.959 1_556 S
H1294 C1308 0.929 1_556 S
H1295 C1309 0.931 . S
H1296 C1311 0.930 . S
C1297 H1285 0.930 . S
C1297 C1298 1.399 . S
C1297 C1302 1.399 . S
C1298 C1297 1.399 . S
C1298 C1299 1.376 . S
C1299 H1286 0.930 . S
C1299 C1298 1.376 . S
C1299 C1300 1.388 . S
C1300 H1287 0.930 . S
C1300 C1299 1.388 . S
C1300 C1301 1.390 . S
C1301 C1300 1.390 . S
C1301 C1302 1.394 . S
C1301 C1307 1.465 1_546 S
C1302 C1297 1.399 . S
C1302 C1301 1.394 . S
C1302 C1303 1.516 1_546 S
C1303 C1302 1.516 1_564 S
C1303 C1304 1.502 . S
C1303 C1305 1.561 . S
C1303 C1306 1.526 . S
C1304 H1288 0.959 1_565 S
C1304 H1289 0.959 . S
C1304 H1290 0.961 1_565 S
C1304 C1303 1.502 . S
C1305 H1291 0.960 1_554 S
C1305 H1292 0.961 . S
C1305 H1293 0.959 1_554 S
C1305 C1303 1.561 . S
C1306 C1303 1.526 . S
C1306 C1307 1.396 . S
C1306 C1311 1.390 . S
C1307 C1301 1.465 1_564 S
C1307 C1306 1.396 . S
C1307 C1308 1.399 . S
C1308 H1294 0.929 1_554 S
C1308 C1307 1.399 . S
C1308 C1309 1.385 . S
C1309 H1295 0.931 . S
C1309 C1308 1.385 . S
C1309 C1310 1.389 . S
C1310 C1309 1.389 . S
C1310 C1311 1.387 . S
C1311 H1296 0.930 . S
C1311 C1306 1.390 . S
C1311 C1310 1.387 . S
H1312 C1324 0.930 . S
H1313 C1326 0.930 . S
H1314 C1327 0.930 . S
H1315 C1331 0.959 . S
H1316 C1331 0.959 . S
H1317 C1331 0.961 . S
H1318 C1332 0.960 . S
H1319 C1332 0.961 . S
H1320 C1332 0.959 . S
H1321 C1335 0.929 . S
H1322 C1336 0.931 . S
H1323 C1338 0.930 . S
C1324 H1312 0.930 . S
C1324 C1325 1.399 . S
C1324 C1329 1.399 . S
C1325 C1324 1.399 . S
C1325 C1326 1.376 . S
C1326 H1313 0.930 . S
C1326 C1325 1.376 . S
C1326 C1327 1.388 . S
C1327 H1314 0.930 . S
C1327 C1326 1.388 . S
C1327 C1328 1.390 . S
C1328 C1327 1.390 . S
C1328 C1329 1.394 . S
C1328 C1334 1.465 . S
C1329 C1324 1.399 . S
C1329 C1328 1.394 . S
C1329 C1330 1.516 . S
C1330 C1329 1.516 . S
C1330 C1331 1.502 . S
C1330 C1332 1.561 . S
C1330 C1333 1.526 . S
C1331 H1315 0.959 . S
C1331 H1316 0.959 . S
C1331 H1317 0.961 . S
C1331 C1330 1.502 . S
C1332 H1318 0.960 . S
C1332 H1319 0.961 . S
C1332 H1320 0.959 . S
C1332 C1330 1.561 . S
C1333 C1330 1.526 . S
C1333 C1334 1.396 . S
C1333 C1338 1.390 . S
C1334 C1328 1.465 . S
C1334 C1333 1.396 . S
C1334 C1335 1.399 . S
C1335 H1321 0.929 . S
C1335 C1334 1.399 . S
C1335 C1336 1.385 . S
C1336 H1322 0.931 . S
C1336 C1335 1.385 . S
C1336 C1337 1.389 . S
C1337 C1336 1.389 . S
C1337 C1338 1.387 . S
C1338 H1323 0.930 . S
C1338 C1333 1.390 . S
C1338 C1337 1.387 . S
H1339 C1351 0.930 . S
H1340 C1353 0.930 . S
H1341 C1354 0.930 . S
H1342 C1358 0.959 . S
H1343 C1358 0.959 . S
H1344 C1358 0.961 . S
H1345 C1359 0.960 . S
H1346 C1359 0.961 . S
H1347 C1359 0.959 . S
H1348 C1362 0.929 . S
H1349 C1363 0.931 . S
H1350 C1365 0.930 . S
C1351 H1339 0.930 . S
C1351 C1352 1.399 . S
C1351 C1356 1.399 . S
C1352 C1351 1.399 . S
C1352 C1353 1.376 . S
C1353 H1340 0.930 . S
C1353 C1352 1.376 . S
C1353 C1354 1.388 . S
C1354 H1341 0.930 . S
C1354 C1353 1.388 . S
C1354 C1355 1.390 . S
C1355 C1354 1.390 . S
C1355 C1356 1.394 . S
C1355 C1361 1.465 . S
C1356 C1351 1.399 . S
C1356 C1355 1.394 . S
C1356 C1357 1.516 . S
C1357 C1356 1.516 . S
C1357 C1358 1.502 . S
C1357 C1359 1.561 . S
C1357 C1360 1.526 . S
C1358 H1342 0.959 . S
C1358 H1343 0.959 . S
C1358 H1344 0.961 . S
C1358 C1357 1.502 . S
C1359 H1345 0.960 . S
C1359 H1346 0.961 . S
C1359 H1347 0.959 . S
C1359 C1357 1.561 . S
C1360 C1357 1.526 . S
C1360 C1361 1.396 . S
C1360 C1365 1.390 . S
C1361 C1355 1.465 . S
C1361 C1360 1.396 . S
C1361 C1362 1.399 . S
C1362 H1348 0.929 . S
C1362 C1361 1.399 . S
C1362 C1363 1.385 . S
C1363 H1349 0.931 . S
C1363 C1362 1.385 . S
C1363 C1364 1.389 . S
C1364 C1363 1.389 . S
C1364 C1365 1.387 . S
C1365 H1350 0.930 . S
C1365 C1360 1.390 . S
C1365 C1364 1.387 . S
H1366 C1378 0.930 . S
H1367 C1380 0.930 . S
H1368 C1381 0.930 . S
H1369 C1385 0.959 . S
H1370 C1385 0.959 . S
H1371 C1385 0.961 . S
H1372 C1386 0.960 . S
H1373 C1386 0.961 . S
H1374 C1386 0.959 . S
H1375 C1389 0.929 . S
H1376 C1390 0.931 . S
H1377 C1392 0.930 . S
C1378 H1366 0.930 . S
C1378 C1379 1.399 . S
C1378 C1383 1.399 . S
C1379 C1378 1.399 . S
C1379 C1380 1.376 . S
C1380 H1367 0.930 . S
C1380 C1379 1.376 . S
C1380 C1381 1.388 . S
C1381 H1368 0.930 . S
C1381 C1380 1.388 . S
C1381 C1382 1.390 . S
C1382 C1381 1.390 . S
C1382 C1383 1.394 . S
C1382 C1388 1.465 . S
C1383 C1378 1.399 . S
C1383 C1382 1.394 . S
C1383 C1384 1.516 . S
C1384 C1383 1.516 . S
C1384 C1385 1.502 . S
C1384 C1386 1.561 . S
C1384 C1387 1.526 . S
C1385 H1369 0.959 . S
C1385 H1370 0.959 . S
C1385 H1371 0.961 . S
C1385 C1384 1.502 . S
C1386 H1372 0.960 . S
C1386 H1373 0.961 . S
C1386 H1374 0.959 . S
C1386 C1384 1.561 . S
C1387 C1384 1.526 . S
C1387 C1388 1.396 . S
C1387 C1392 1.390 . S
C1388 C1382 1.465 . S
C1388 C1387 1.396 . S
C1388 C1389 1.399 . S
C1389 H1375 0.929 . S
C1389 C1388 1.399 . S
C1389 C1390 1.385 . S
C1390 H1376 0.931 . S
C1390 C1389 1.385 . S
C1390 C1391 1.389 . S
C1391 C1390 1.389 . S
C1391 C1392 1.387 . S
C1392 H1377 0.930 . S
C1392 C1387 1.390 . S
C1392 C1391 1.387 . S
H1393 C1405 0.930 . S
H1394 C1407 0.930 . S
H1395 C1408 0.930 . S
H1396 C1412 0.959 . S
H1397 C1412 0.959 . S
H1398 C1412 0.961 . S
H1399 C1413 0.960 . S
H1400 C1413 0.961 . S
H1401 C1413 0.959 . S
H1402 C1416 0.929 . S
H1403 C1417 0.931 . S
H1404 C1419 0.930 . S
C1405 H1393 0.930 . S
C1405 C1406 1.399 . S
C1405 C1410 1.399 . S
C1406 C1405 1.399 . S
C1406 C1407 1.376 . S
C1407 H1394 0.930 . S
C1407 C1406 1.376 . S
C1407 C1408 1.388 . S
C1408 H1395 0.930 . S
C1408 C1407 1.388 . S
C1408 C1409 1.390 . S
C1409 C1408 1.390 . S
C1409 C1410 1.394 . S
C1409 C1415 1.465 . S
C1410 C1405 1.399 . S
C1410 C1409 1.394 . S
C1410 C1411 1.516 . S
C1411 C1410 1.516 . S
C1411 C1412 1.502 . S
C1411 C1413 1.561 . S
C1411 C1414 1.526 . S
C1412 H1396 0.959 . S
C1412 H1397 0.959 . S
C1412 H1398 0.961 . S
C1412 C1411 1.502 . S
C1413 H1399 0.960 . S
C1413 H1400 0.961 . S
C1413 H1401 0.959 . S
C1413 C1411 1.561 . S
C1414 C1411 1.526 . S
C1414 C1415 1.396 . S
C1414 C1419 1.390 . S
C1415 C1409 1.465 . S
C1415 C1414 1.396 . S
C1415 C1416 1.399 . S
C1416 H1402 0.929 . S
C1416 C1415 1.399 . S
C1416 C1417 1.385 . S
C1417 H1403 0.931 . S
C1417 C1416 1.385 . S
C1417 C1418 1.389 . S
C1418 C1417 1.389 . S
C1418 C1419 1.387 . S
C1419 H1404 0.930 . S
C1419 C1414 1.390 . S
C1419 C1418 1.387 . S
H1420 C1432 0.930 . S
H1421 C1434 0.930 . S
H1422 C1435 0.930 . S
H1423 C1439 0.959 . S
H1424 C1439 0.959 1_545 S
H1425 C1439 0.961 1_545 S
H1426 C1440 0.960 1_545 S
H1427 C1440 0.961 1_545 S
H1428 C1440 0.959 . S
H1429 C1443 0.929 . S
H1430 C1444 0.931 . S
H1431 C1446 0.930 . S
C1432 H1420 0.930 . S
C1432 C1433 1.399 . S
C1432 C1437 1.399 . S
C1433 C1432 1.399 . S
C1433 C1434 1.376 . S
C1434 H1421 0.930 . S
C1434 C1433 1.376 . S
C1434 C1435 1.388 . S
C1435 H1422 0.930 . S
C1435 C1434 1.388 . S
C1435 C1436 1.390 . S
C1436 C1435 1.390 . S
C1436 C1437 1.394 . S
C1436 C1442 1.465 . S
C1437 C1432 1.399 . S
C1437 C1436 1.394 . S
C1437 C1438 1.516 . S
C1438 C1437 1.516 . S
C1438 C1439 1.502 . S
C1438 C1440 1.561 . S
C1438 C1441 1.526 . S
C1439 H1423 0.959 . S
C1439 H1424 0.959 1_565 S
C1439 H1425 0.961 1_565 S
C1439 C1438 1.502 . S
C1440 H1426 0.960 1_565 S
C1440 H1427 0.961 1_565 S
C1440 H1428 0.959 . S
C1440 C1438 1.561 . S
C1441 C1438 1.526 . S
C1441 C1442 1.396 . S
C1441 C1446 1.390 . S
C1442 C1436 1.465 . S
C1442 C1441 1.396 . S
C1442 C1443 1.399 . S
C1443 H1429 0.929 . S
C1443 C1442 1.399 . S
C1443 C1444 1.385 . S
C1444 H1430 0.931 . S
C1444 C1443 1.385 . S
C1444 C1445 1.389 . S
C1445 C1444 1.389 . S
C1445 C1446 1.387 . S
C1446 H1431 0.930 . S
C1446 C1441 1.390 . S
C1446 C1445 1.387 . S
H1447 C1459 0.930 . S
H1448 C1461 0.930 . S
H1449 C1462 0.930 . S
H1450 C1466 0.959 . S
H1451 C1466 0.959 . S
H1452 C1466 0.961 . S
H1453 C1467 0.960 . S
H1454 C1467 0.961 . S
H1455 C1467 0.959 . S
H1456 C1470 0.929 . S
H1457 C1471 0.931 . S
H1458 C1473 0.930 . S
C1459 H1447 0.930 . S
C1459 C1460 1.399 . S
C1459 C1464 1.399 . S
C1460 C1459 1.399 . S
C1460 C1461 1.376 . S
C1461 H1448 0.930 . S
C1461 C1460 1.376 . S
C1461 C1462 1.388 . S
C1462 H1449 0.930 . S
C1462 C1461 1.388 . S
C1462 C1463 1.390 . S
C1463 C1462 1.390 . S
C1463 C1464 1.394 . S
C1463 C1469 1.465 . S
C1464 C1459 1.399 . S
C1464 C1463 1.394 . S
C1464 C1465 1.516 . S
C1465 C1464 1.516 . S
C1465 C1466 1.502 . S
C1465 C1467 1.561 . S
C1465 C1468 1.526 . S
C1466 H1450 0.959 . S
C1466 H1451 0.959 . S
C1466 H1452 0.961 . S
C1466 C1465 1.502 . S
C1467 H1453 0.960 . S
C1467 H1454 0.961 . S
C1467 H1455 0.959 . S
C1467 C1465 1.561 . S
C1468 C1465 1.526 . S
C1468 C1469 1.396 . S
C1468 C1473 1.390 . S
C1469 C1463 1.465 . S
C1469 C1468 1.396 . S
C1469 C1470 1.399 . S
C1470 H1456 0.929 . S
C1470 C1469 1.399 . S
C1470 C1471 1.385 . S
C1471 H1457 0.931 . S
C1471 C1470 1.385 . S
C1471 C1472 1.389 . S
C1472 C1471 1.389 . S
C1472 C1473 1.387 . S
C1473 H1458 0.930 . S
C1473 C1468 1.390 . S
C1473 C1472 1.387 . S
H1474 C1486 0.930 . S
H1475 C1488 0.930 . S
H1476 C1489 0.930 . S
H1477 C1493 0.959 . S
H1478 C1493 0.959 . S
H1479 C1493 0.961 . S
H1480 C1494 0.960 . S
H1481 C1494 0.961 . S
H1482 C1494 0.959 . S
H1483 C1497 0.929 . S
H1484 C1498 0.931 . S
H1485 C1500 0.930 . S
C1486 H1474 0.930 . S
C1486 C1487 1.399 . S
C1486 C1491 1.399 . S
C1487 C1486 1.399 . S
C1487 C1488 1.376 . S
C1488 H1475 0.930 . S
C1488 C1487 1.376 . S
C1488 C1489 1.388 . S
C1489 H1476 0.930 . S
C1489 C1488 1.388 . S
C1489 C1490 1.390 . S
C1490 C1489 1.390 . S
C1490 C1491 1.394 . S
C1490 C1496 1.465 . S
C1491 C1486 1.399 . S
C1491 C1490 1.394 . S
C1491 C1492 1.516 . S
C1492 C1491 1.516 . S
C1492 C1493 1.502 . S
C1492 C1494 1.561 . S
C1492 C1495 1.526 . S
C1493 H1477 0.959 . S
C1493 H1478 0.959 . S
C1493 H1479 0.961 . S
C1493 C1492 1.502 . S
C1494 H1480 0.960 . S
C1494 H1481 0.961 . S
C1494 H1482 0.959 . S
C1494 C1492 1.561 . S
C1495 C1492 1.526 . S
C1495 C1496 1.396 . S
C1495 C1500 1.390 . S
C1496 C1490 1.465 . S
C1496 C1495 1.396 . S
C1496 C1497 1.399 . S
C1497 H1483 0.929 . S
C1497 C1496 1.399 . S
C1497 C1498 1.385 . S
C1498 H1484 0.931 . S
C1498 C1497 1.385 . S
C1498 C1499 1.389 . S
C1499 C1498 1.389 . S
C1499 C1500 1.387 . S
C1500 H1485 0.930 . S
C1500 C1495 1.390 . S
C1500 C1499 1.387 . S
H1501 C1513 0.930 . S
H1502 C1515 0.930 . S
H1503 C1516 0.930 . S
H1504 C1520 0.959 . S
H1505 C1520 0.959 . S
H1506 C1520 0.961 . S
H1507 C1521 0.960 . S
H1508 C1521 0.961 . S
H1509 C1521 0.959 . S
H1510 C1524 0.929 . S
H1511 C1525 0.931 . S
H1512 C1527 0.930 . S
C1513 H1501 0.930 . S
C1513 C1514 1.399 . S
C1513 C1518 1.399 . S
C1514 C1513 1.399 . S
C1514 C1515 1.376 . S
C1515 H1502 0.930 . S
C1515 C1514 1.376 . S
C1515 C1516 1.388 . S
C1516 H1503 0.930 . S
C1516 C1515 1.388 . S
C1516 C1517 1.390 . S
C1517 C1516 1.390 . S
C1517 C1518 1.394 . S
C1517 C1523 1.465 . S
C1518 C1513 1.399 . S
C1518 C1517 1.394 . S
C1518 C1519 1.516 . S
C1519 C1518 1.516 . S
C1519 C1520 1.502 . S
C1519 C1521 1.561 . S
C1519 C1522 1.526 . S
C1520 H1504 0.959 . S
C1520 H1505 0.959 . S
C1520 H1506 0.961 . S
C1520 C1519 1.502 . S
C1521 H1507 0.960 . S
C1521 H1508 0.961 . S
C1521 H1509 0.959 . S
C1521 C1519 1.561 . S
C1522 C1519 1.526 . S
C1522 C1523 1.396 . S
C1522 C1527 1.390 . S
C1523 C1517 1.465 . S
C1523 C1522 1.396 . S
C1523 C1524 1.399 . S
C1524 H1510 0.929 . S
C1524 C1523 1.399 . S
C1524 C1525 1.385 . S
C1525 H1511 0.931 . S
C1525 C1524 1.385 . S
C1525 C1526 1.389 . S
C1526 C1525 1.389 . S
C1526 C1527 1.387 . S
C1527 H1512 0.930 . S
C1527 C1522 1.390 . S
C1527 C1526 1.387 . S
H1528 C1540 0.930 . S
H1529 C1542 0.930 . S
H1530 C1543 0.930 . S
H1531 C1547 0.959 . S
H1532 C1547 0.959 . S
H1533 C1547 0.961 . S
H1534 C1548 0.960 . S
H1535 C1548 0.961 . S
H1536 C1548 0.959 . S
H1537 C1551 0.929 . S
H1538 C1552 0.931 . S
H1539 C1554 0.930 . S
C1540 H1528 0.930 . S
C1540 C1541 1.399 . S
C1540 C1545 1.399 . S
C1541 C1540 1.399 . S
C1541 C1542 1.376 . S
C1542 H1529 0.930 . S
C1542 C1541 1.376 . S
C1542 C1543 1.388 . S
C1543 H1530 0.930 . S
C1543 C1542 1.388 . S
C1543 C1544 1.390 . S
C1544 C1543 1.390 . S
C1544 C1545 1.394 . S
C1544 C1550 1.465 . S
C1545 C1540 1.399 . S
C1545 C1544 1.394 . S
C1545 C1546 1.516 . S
C1546 C1545 1.516 . S
C1546 C1547 1.502 . S
C1546 C1548 1.561 . S
C1546 C1549 1.526 . S
C1547 H1531 0.959 . S
C1547 H1532 0.959 . S
C1547 H1533 0.961 . S
C1547 C1546 1.502 . S
C1548 H1534 0.960 . S
C1548 H1535 0.961 . S
C1548 H1536 0.959 . S
C1548 C1546 1.561 . S
C1549 C1546 1.526 . S
C1549 C1550 1.396 . S
C1549 C1554 1.390 . S
C1550 C1544 1.465 . S
C1550 C1549 1.396 . S
C1550 C1551 1.399 . S
C1551 H1537 0.929 . S
C1551 C1550 1.399 . S
C1551 C1552 1.385 . S
C1552 H1538 0.931 . S
C1552 C1551 1.385 . S
C1552 C1553 1.389 . S
C1553 C1552 1.389 . S
C1553 C1554 1.387 . S
C1554 H1539 0.930 . S
C1554 C1549 1.390 . S
C1554 C1553 1.387 . S
H1555 C1567 0.930 . S
H1556 C1569 0.930 . S
H1557 C1570 0.930 . S
H1558 C1574 0.959 . S
H1559 C1574 0.959 . S
H1560 C1574 0.961 . S
H1561 C1575 0.960 . S
H1562 C1575 0.961 . S
H1563 C1575 0.959 . S
H1564 C1578 0.929 . S
H1565 C1579 0.931 . S
H1566 C1581 0.930 . S
C1567 H1555 0.930 . S
C1567 C1568 1.399 . S
C1567 C1572 1.399 . S
C1568 C1567 1.399 . S
C1568 C1569 1.376 . S
C1569 H1556 0.930 . S
C1569 C1568 1.376 . S
C1569 C1570 1.388 . S
C1570 H1557 0.930 . S
C1570 C1569 1.388 . S
C1570 C1571 1.390 . S
C1571 C1570 1.390 . S
C1571 C1572 1.394 . S
C1571 C1577 1.465 . S
C1572 C1567 1.399 . S
C1572 C1571 1.394 . S
C1572 C1573 1.516 . S
C1573 C1572 1.516 . S
C1573 C1574 1.502 . S
C1573 C1575 1.561 . S
C1573 C1576 1.526 . S
C1574 H1558 0.959 . S
C1574 H1559 0.959 . S
C1574 H1560 0.961 . S
C1574 C1573 1.502 . S
C1575 H1561 0.960 . S
C1575 H1562 0.961 . S
C1575 H1563 0.959 . S
C1575 C1573 1.561 . S
C1576 C1573 1.526 . S
C1576 C1577 1.396 . S
C1576 C1581 1.390 . S
C1577 C1571 1.465 . S
C1577 C1576 1.396 . S
C1577 C1578 1.399 . S
C1578 H1564 0.929 . S
C1578 C1577 1.399 . S
C1578 C1579 1.385 . S
C1579 H1565 0.931 . S
C1579 C1578 1.385 . S
C1579 C1580 1.389 . S
C1580 C1579 1.389 . S
C1580 C1581 1.387 . S
C1581 H1566 0.930 . S
C1581 C1576 1.390 . S
C1581 C1580 1.387 . S
H1582 C1594 0.930 . S
H1583 C1596 0.930 . S
H1584 C1597 0.930 . S
H1585 C1601 0.959 . S
H1586 C1601 0.959 . S
H1587 C1601 0.961 . S
H1588 C1602 0.960 . S
H1589 C1602 0.961 . S
H1590 C1602 0.959 . S
H1591 C1605 0.929 . S
H1592 C1606 0.931 . S
H1593 C1608 0.930 . S
C1594 H1582 0.930 . S
C1594 C1595 1.399 . S
C1594 C1599 1.399 . S
C1595 C1594 1.399 . S
C1595 C1596 1.376 . S
C1596 H1583 0.930 . S
C1596 C1595 1.376 . S
C1596 C1597 1.388 . S
C1597 H1584 0.930 . S
C1597 C1596 1.388 . S
C1597 C1598 1.390 . S
C1598 C1597 1.390 . S
C1598 C1599 1.394 . S
C1598 C1604 1.465 . S
C1599 C1594 1.399 . S
C1599 C1598 1.394 . S
C1599 C1600 1.516 . S
C1600 C1599 1.516 . S
C1600 C1601 1.502 . S
C1600 C1602 1.561 . S
C1600 C1603 1.526 . S
C1601 H1585 0.959 . S
C1601 H1586 0.959 . S
C1601 H1587 0.961 . S
C1601 C1600 1.502 . S
C1602 H1588 0.960 . S
C1602 H1589 0.961 . S
C1602 H1590 0.959 . S
C1602 C1600 1.561 . S
C1603 C1600 1.526 . S
C1603 C1604 1.396 . S
C1603 C1608 1.390 . S
C1604 C1598 1.465 . S
C1604 C1603 1.396 . S
C1604 C1605 1.399 . S
C1605 H1591 0.929 . S
C1605 C1604 1.399 . S
C1605 C1606 1.385 . S
C1606 H1592 0.931 . S
C1606 C1605 1.385 . S
C1606 C1607 1.389 . S
C1607 C1606 1.389 . S
C1607 C1608 1.387 . S
C1608 H1593 0.930 . S
C1608 C1603 1.390 . S
C1608 C1607 1.387 . S
H1609 C1621 0.930 . S
H1610 C1623 0.930 . S
H1611 C1624 0.930 . S
H1612 C1628 0.959 . S
H1613 C1628 0.959 . S
H1614 C1628 0.961 . S
H1615 C1629 0.960 . S
H1616 C1629 0.961 . S
H1617 C1629 0.959 . S
H1618 C1632 0.929 . S
H1619 C1633 0.931 . S
H1620 C1635 0.930 . S
C1621 H1609 0.930 . S
C1621 C1622 1.399 . S
C1621 C1626 1.399 . S
C1622 C1621 1.399 . S
C1622 C1623 1.376 . S
C1623 H1610 0.930 . S
C1623 C1622 1.376 . S
C1623 C1624 1.388 . S
C1624 H1611 0.930 . S
C1624 C1623 1.388 . S
C1624 C1625 1.390 . S
C1625 C1624 1.390 . S
C1625 C1626 1.394 . S
C1625 C1631 1.465 . S
C1626 C1621 1.399 . S
C1626 C1625 1.394 . S
C1626 C1627 1.516 . S
C1627 C1626 1.516 . S
C1627 C1628 1.502 . S
C1627 C1629 1.561 . S
C1627 C1630 1.526 . S
C1628 H1612 0.959 . S
C1628 H1613 0.959 . S
C1628 H1614 0.961 . S
C1628 C1627 1.502 . S
C1629 H1615 0.960 . S
C1629 H1616 0.961 . S
C1629 H1617 0.959 . S
C1629 C1627 1.561 . S
C1630 C1627 1.526 . S
C1630 C1631 1.396 . S
C1630 C1635 1.390 . S
C1631 C1625 1.465 . S
C1631 C1630 1.396 . S
C1631 C1632 1.399 . S
C1632 H1618 0.929 . S
C1632 C1631 1.399 . S
C1632 C1633 1.385 . S
C1633 H1619 0.931 . S
C1633 C1632 1.385 . S
C1633 C1634 1.389 . S
C1634 C1633 1.389 . S
C1634 C1635 1.387 . S
C1635 H1620 0.930 . S
C1635 C1630 1.390 . S
C1635 C1634 1.387 . S
H1636 C1648 0.930 . S
H1637 C1650 0.930 . S
H1638 C1651 0.930 . S
H1639 C1655 0.959 . S
H1640 C1655 0.959 1_545 S
H1641 C1655 0.961 1_545 S
H1642 C1656 0.960 1_545 S
H1643 C1656 0.961 1_545 S
H1644 C1656 0.959 . S
H1645 C1659 0.929 . S
H1646 C1660 0.931 . S
H1647 C1662 0.930 . S
C1648 H1636 0.930 . S
C1648 C1649 1.399 . S
C1648 C1653 1.399 . S
C1649 C1648 1.399 . S
C1649 C1650 1.376 . S
C1650 H1637 0.930 . S
C1650 C1649 1.376 . S
C1650 C1651 1.388 . S
C1651 H1638 0.930 . S
C1651 C1650 1.388 . S
C1651 C1652 1.390 . S
C1652 C1651 1.390 . S
C1652 C1653 1.394 . S
C1652 C1658 1.465 . S
C1653 C1648 1.399 . S
C1653 C1652 1.394 . S
C1653 C1654 1.516 . S
C1654 C1653 1.516 . S
C1654 C1655 1.502 . S
C1654 C1656 1.561 . S
C1654 C1657 1.526 . S
C1655 H1639 0.959 . S
C1655 H1640 0.959 1_565 S
C1655 H1641 0.961 1_565 S
C1655 C1654 1.502 . S
C1656 H1642 0.960 1_565 S
C1656 H1643 0.961 1_565 S
C1656 H1644 0.959 . S
C1656 C1654 1.561 . S
C1657 C1654 1.526 . S
C1657 C1658 1.396 . S
C1657 C1662 1.390 . S
C1658 C1652 1.465 . S
C1658 C1657 1.396 . S
C1658 C1659 1.399 . S
C1659 H1645 0.929 . S
C1659 C1658 1.399 . S
C1659 C1660 1.385 . S
C1660 H1646 0.931 . S
C1660 C1659 1.385 . S
C1660 C1661 1.389 . S
C1661 C1660 1.389 . S
C1661 C1662 1.387 . S
C1662 H1647 0.930 . S
C1662 C1657 1.390 . S
C1662 C1661 1.387 . S
H1663 C1675 0.930 . S
H1664 C1677 0.930 . S
H1665 C1678 0.930 . S
H1666 C1682 0.959 . S
H1667 C1682 0.959 . S
H1668 C1682 0.961 . S
H1669 C1683 0.960 . S
H1670 C1683 0.961 . S
H1671 C1683 0.959 . S
H1672 C1686 0.929 . S
H1673 C1687 0.931 . S
H1674 C1689 0.930 . S
C1675 H1663 0.930 . S
C1675 C1676 1.399 . S
C1675 C1680 1.399 . S
C1676 C1675 1.399 . S
C1676 C1677 1.376 . S
C1677 H1664 0.930 . S
C1677 C1676 1.376 . S
C1677 C1678 1.388 . S
C1678 H1665 0.930 . S
C1678 C1677 1.388 . S
C1678 C1679 1.390 . S
C1679 C1678 1.390 . S
C1679 C1680 1.394 . S
C1679 C1685 1.465 . S
C1680 C1675 1.399 . S
C1680 C1679 1.394 . S
C1680 C1681 1.516 . S
C1681 C1680 1.516 . S
C1681 C1682 1.502 . S
C1681 C1683 1.561 . S
C1681 C1684 1.526 . S
C1682 H1666 0.959 . S
C1682 H1667 0.959 . S
C1682 H1668 0.961 . S
C1682 C1681 1.502 . S
C1683 H1669 0.960 . S
C1683 H1670 0.961 . S
C1683 H1671 0.959 . S
C1683 C1681 1.561 . S
C1684 C1681 1.526 . S
C1684 C1685 1.396 . S
C1684 C1689 1.390 . S
C1685 C1679 1.465 . S
C1685 C1684 1.396 . S
C1685 C1686 1.399 . S
C1686 H1672 0.929 . S
C1686 C1685 1.399 . S
C1686 C1687 1.385 . S
C1687 H1673 0.931 . S
C1687 C1686 1.385 . S
C1687 C1688 1.389 . S
C1688 C1687 1.389 . S
C1688 C1689 1.387 . S
C1689 H1674 0.930 . S
C1689 C1684 1.390 . S
C1689 C1688 1.387 . S
H1690 C1702 0.930 . S
H1691 C1704 0.930 . S
H1692 C1705 0.930 . S
H1693 C1709 0.959 . S
H1694 C1709 0.959 1_565 S
H1695 C1709 0.961 1_565 S
H1696 C1710 0.960 1_565 S
H1697 C1710 0.961 1_565 S
H1698 C1710 0.959 . S
H1699 C1713 0.929 . S
H1700 C1714 0.931 . S
H1701 C1716 0.930 . S
C1702 H1690 0.930 . S
C1702 C1703 1.399 . S
C1702 C1707 1.399 . S
C1703 C1702 1.399 . S
C1703 C1704 1.376 . S
C1704 H1691 0.930 . S
C1704 C1703 1.376 . S
C1704 C1705 1.388 . S
C1705 H1692 0.930 . S
C1705 C1704 1.388 . S
C1705 C1706 1.390 . S
C1706 C1705 1.390 . S
C1706 C1707 1.394 . S
C1706 C1712 1.465 . S
C1707 C1702 1.399 . S
C1707 C1706 1.394 . S
C1707 C1708 1.516 . S
C1708 C1707 1.516 . S
C1708 C1709 1.502 . S
C1708 C1710 1.561 . S
C1708 C1711 1.526 . S
C1709 H1693 0.959 . S
C1709 H1694 0.959 1_545 S
C1709 H1695 0.961 1_545 S
C1709 C1708 1.502 . S
C1710 H1696 0.960 1_545 S
C1710 H1697 0.961 1_545 S
C1710 H1698 0.959 . S
C1710 C1708 1.561 . S
C1711 C1708 1.526 . S
C1711 C1712 1.396 . S
C1711 C1716 1.390 . S
C1712 C1706 1.465 . S
C1712 C1711 1.396 . S
C1712 C1713 1.399 . S
C1713 H1699 0.929 . S
C1713 C1712 1.399 . S
C1713 C1714 1.385 . S
C1714 H1700 0.931 . S
C1714 C1713 1.385 . S
C1714 C1715 1.389 . S
C1715 C1714 1.389 . S
C1715 C1716 1.387 . S
C1716 H1701 0.930 . S
C1716 C1711 1.390 . S
C1716 C1715 1.387 . S
H1717 C1729 0.930 . S
H1718 C1731 0.930 . S
H1719 C1732 0.930 . S
H1720 C1736 0.959 . S
H1721 C1736 0.959 . S
H1722 C1736 0.961 . S
H1723 C1737 0.960 . S
H1724 C1737 0.961 . S
H1725 C1737 0.959 . S
H1726 C1740 0.929 . S
H1727 C1741 0.931 . S
H1728 C1743 0.930 . S
C1729 H1717 0.930 . S
C1729 C1730 1.399 . S
C1729 C1734 1.399 . S
C1730 C1729 1.399 . S
C1730 C1731 1.376 . S
C1731 H1718 0.930 . S
C1731 C1730 1.376 . S
C1731 C1732 1.388 . S
C1732 H1719 0.930 . S
C1732 C1731 1.388 . S
C1732 C1733 1.390 . S
C1733 C1732 1.390 . S
C1733 C1734 1.394 . S
C1733 C1739 1.465 . S
C1734 C1729 1.399 . S
C1734 C1733 1.394 . S
C1734 C1735 1.516 . S
C1735 C1734 1.516 . S
C1735 C1736 1.502 . S
C1735 C1737 1.561 . S
C1735 C1738 1.526 . S
C1736 H1720 0.959 . S
C1736 H1721 0.959 . S
C1736 H1722 0.961 . S
C1736 C1735 1.502 . S
C1737 H1723 0.960 . S
C1737 H1724 0.961 . S
C1737 H1725 0.959 . S
C1737 C1735 1.561 . S
C1738 C1735 1.526 . S
C1738 C1739 1.396 . S
C1738 C1743 1.390 . S
C1739 C1733 1.465 . S
C1739 C1738 1.396 . S
C1739 C1740 1.399 . S
C1740 H1726 0.929 . S
C1740 C1739 1.399 . S
C1740 C1741 1.385 . S
C1741 H1727 0.931 . S
C1741 C1740 1.385 . S
C1741 C1742 1.389 . S
C1742 C1741 1.389 . S
C1742 C1743 1.387 . S
C1743 H1728 0.930 . S
C1743 C1738 1.390 . S
C1743 C1742 1.387 . S
H1744 C1756 0.930 . S
H1745 C1758 0.930 1_565 S
H1746 C1759 0.930 . S
H1747 C1763 0.959 . S
H1748 C1763 0.959 . S
H1749 C1763 0.961 . S
H1750 C1764 0.960 . S
H1751 C1764 0.961 . S
H1752 C1764 0.959 . S
H1753 C1767 0.929 . S
H1754 C1768 0.931 . S
H1755 C1770 0.930 . S
C1756 H1744 0.930 . S
C1756 C1757 1.399 1_545 S
C1756 C1761 1.399 . S
C1757 C1756 1.399 1_565 S
C1757 C1758 1.376 1_565 S
C1758 H1745 0.930 1_545 S
C1758 C1757 1.376 1_545 S
C1758 C1759 1.388 . S
C1759 H1746 0.930 . S
C1759 C1758 1.388 . S
C1759 C1760 1.390 . S
C1760 C1759 1.390 . S
C1760 C1761 1.394 . S
C1760 C1766 1.465 . S
C1761 C1756 1.399 . S
C1761 C1760 1.394 . S
C1761 C1762 1.516 . S
C1762 C1761 1.516 . S
C1762 C1763 1.502 . S
C1762 C1764 1.561 . S
C1762 C1765 1.526 . S
C1763 H1747 0.959 . S
C1763 H1748 0.959 . S
C1763 H1749 0.961 . S
C1763 C1762 1.502 . S
C1764 H1750 0.960 . S
C1764 H1751 0.961 . S
C1764 H1752 0.959 . S
C1764 C1762 1.561 . S
C1765 C1762 1.526 . S
C1765 C1766 1.396 . S
C1765 C1770 1.390 . S
C1766 C1760 1.465 . S
C1766 C1765 1.396 . S
C1766 C1767 1.399 . S
C1767 H1753 0.929 . S
C1767 C1766 1.399 . S
C1767 C1768 1.385 . S
C1768 H1754 0.931 . S
C1768 C1767 1.385 . S
C1768 C1769 1.389 . S
C1769 C1768 1.389 . S
C1769 C1770 1.387 . S
C1770 H1755 0.930 . S
C1770 C1765 1.390 . S
C1770 C1769 1.387 . S
H1771 C1783 0.930 . S
H1772 C1785 0.930 1_565 S
H1773 C1786 0.930 . S
H1774 C1790 0.959 . S
H1775 C1790 0.959 . S
H1776 C1790 0.961 . S
H1777 C1791 0.960 . S
H1778 C1791 0.961 . S
H1779 C1791 0.959 . S
H1780 C1794 0.929 . S
H1781 C1795 0.931 . S
H1782 C1797 0.930 . S
C1783 H1771 0.930 . S
C1783 C1784 1.399 1_545 S
C1783 C1788 1.399 . S
C1784 C1783 1.399 1_565 S
C1784 C1785 1.376 1_565 S
C1785 H1772 0.930 1_545 S
C1785 C1784 1.376 1_545 S
C1785 C1786 1.388 . S
C1786 H1773 0.930 . S
C1786 C1785 1.388 . S
C1786 C1787 1.390 . S
C1787 C1786 1.390 . S
C1787 C1788 1.394 . S
C1787 C1793 1.465 . S
C1788 C1783 1.399 . S
C1788 C1787 1.394 . S
C1788 C1789 1.516 . S
C1789 C1788 1.516 . S
C1789 C1790 1.502 . S
C1789 C1791 1.561 . S
C1789 C1792 1.526 . S
C1790 H1774 0.959 . S
C1790 H1775 0.959 . S
C1790 H1776 0.961 . S
C1790 C1789 1.502 . S
C1791 H1777 0.960 . S
C1791 H1778 0.961 . S
C1791 H1779 0.959 . S
C1791 C1789 1.561 . S
C1792 C1789 1.526 . S
C1792 C1793 1.396 . S
C1792 C1797 1.390 . S
C1793 C1787 1.465 . S
C1793 C1792 1.396 . S
C1793 C1794 1.399 . S
C1794 H1780 0.929 . S
C1794 C1793 1.399 . S
C1794 C1795 1.385 . S
C1795 H1781 0.931 . S
C1795 C1794 1.385 . S
C1795 C1796 1.389 . S
C1796 C1795 1.389 . S
C1796 C1797 1.387 . S
C1797 H1782 0.930 . S
C1797 C1792 1.390 . S
C1797 C1796 1.387 . S
H1798 C1810 0.930 . S
H1799 C1812 0.930 . S
H1800 C1813 0.930 . S
H1801 C1817 0.959 . S
H1802 C1817 0.959 . S
H1803 C1817 0.961 . S
H1804 C1818 0.960 . S
H1805 C1818 0.961 . S
H1806 C1818 0.959 . S
H1807 C1821 0.929 . S
H1808 C1822 0.931 1_545 S
H1809 C1824 0.930 . S
C1810 H1798 0.930 . S
C1810 C1811 1.399 . S
C1810 C1815 1.399 . S
C1811 C1810 1.399 . S
C1811 C1812 1.376 . S
C1812 H1799 0.930 . S
C1812 C1811 1.376 . S
C1812 C1813 1.388 . S
C1813 H1800 0.930 . S
C1813 C1812 1.388 . S
C1813 C1814 1.390 . S
C1814 C1813 1.390 . S
C1814 C1815 1.394 . S
C1814 C1820 1.465 . S
C1815 C1810 1.399 . S
C1815 C1814 1.394 . S
C1815 C1816 1.516 . S
C1816 C1815 1.516 . S
C1816 C1817 1.502 . S
C1816 C1818 1.561 . S
C1816 C1819 1.526 . S
C1817 H1801 0.959 . S
C1817 H1802 0.959 . S
C1817 H1803 0.961 . S
C1817 C1816 1.502 . S
C1818 H1804 0.960 . S
C1818 H1805 0.961 . S
C1818 H1806 0.959 . S
C1818 C1816 1.561 . S
C1819 C1816 1.526 . S
C1819 C1820 1.396 . S
C1819 C1824 1.390 . S
C1820 C1814 1.465 . S
C1820 C1819 1.396 . S
C1820 C1821 1.399 . S
C1821 H1807 0.929 . S
C1821 C1820 1.399 . S
C1821 C1822 1.385 . S
C1822 H1808 0.931 1_565 S
C1822 C1821 1.385 . S
C1822 C1823 1.389 1_565 S
C1823 C1822 1.389 1_545 S
C1823 C1824 1.387 1_545 S
C1824 H1809 0.930 . S
C1824 C1819 1.390 . S
C1824 C1823 1.387 1_565 S
H1825 C1837 0.930 . S
H1826 C1839 0.930 1_545 S
H1827 C1840 0.930 . S
H1828 C1844 0.959 . S
H1829 C1844 0.959 . S
H1830 C1844 0.961 . S
H1831 C1845 0.960 . S
H1832 C1845 0.961 . S
H1833 C1845 0.959 . S
H1834 C1848 0.929 . S
H1835 C1849 0.931 . S
H1836 C1851 0.930 . S
C1837 H1825 0.930 . S
C1837 C1838 1.399 1_565 S
C1837 C1842 1.399 . S
C1838 C1837 1.399 1_545 S
C1838 C1839 1.376 1_545 S
C1839 H1826 0.930 1_565 S
C1839 C1838 1.376 1_565 S
C1839 C1840 1.388 . S
C1840 H1827 0.930 . S
C1840 C1839 1.388 . S
C1840 C1841 1.390 . S
C1841 C1840 1.390 . S
C1841 C1842 1.394 . S
C1841 C1847 1.465 . S
C1842 C1837 1.399 . S
C1842 C1841 1.394 . S
C1842 C1843 1.516 . S
C1843 C1842 1.516 . S
C1843 C1844 1.502 . S
C1843 C1845 1.561 . S
C1843 C1846 1.526 . S
C1844 H1828 0.959 . S
C1844 H1829 0.959 . S
C1844 H1830 0.961 . S
C1844 C1843 1.502 . S
C1845 H1831 0.960 . S
C1845 H1832 0.961 . S
C1845 H1833 0.959 . S
C1845 C1843 1.561 . S
C1846 C1843 1.526 . S
C1846 C1847 1.396 . S
C1846 C1851 1.390 . S
C1847 C1841 1.465 . S
C1847 C1846 1.396 . S
C1847 C1848 1.399 . S
C1848 H1834 0.929 . S
C1848 C1847 1.399 . S
C1848 C1849 1.385 . S
C1849 H1835 0.931 . S
C1849 C1848 1.385 . S
C1849 C1850 1.389 . S
C1850 C1849 1.389 . S
C1850 C1851 1.387 . S
C1851 H1836 0.930 . S
C1851 C1846 1.390 . S
C1851 C1850 1.387 . S
H1852 C1864 0.930 . S
H1853 C1866 0.930 . S
H1854 C1867 0.930 . S
H1855 C1871 0.959 . S
H1856 C1871 0.959 . S
H1857 C1871 0.961 . S
H1858 C1872 0.960 . S
H1859 C1872 0.961 . S
H1860 C1872 0.959 . S
H1861 C1875 0.929 . S
H1862 C1876 0.931 . S
H1863 C1878 0.930 . S
C1864 H1852 0.930 . S
C1864 C1865 1.399 . S
C1864 C1869 1.399 . S
C1865 C1864 1.399 . S
C1865 C1866 1.376 . S
C1866 H1853 0.930 . S
C1866 C1865 1.376 . S
C1866 C1867 1.388 . S
C1867 H1854 0.930 . S
C1867 C1866 1.388 . S
C1867 C1868 1.390 . S
C1868 C1867 1.390 . S
C1868 C1869 1.394 . S
C1868 C1874 1.465 . S
C1869 C1864 1.399 . S
C1869 C1868 1.394 . S
C1869 C1870 1.516 . S
C1870 C1869 1.516 . S
C1870 C1871 1.502 . S
C1870 C1872 1.561 . S
C1870 C1873 1.526 . S
C1871 H1855 0.959 . S
C1871 H1856 0.959 . S
C1871 H1857 0.961 . S
C1871 C1870 1.502 . S
C1872 H1858 0.960 . S
C1872 H1859 0.961 . S
C1872 H1860 0.959 . S
C1872 C1870 1.561 . S
C1873 C1870 1.526 . S
C1873 C1874 1.396 . S
C1873 C1878 1.390 . S
C1874 C1868 1.465 . S
C1874 C1873 1.396 . S
C1874 C1875 1.399 . S
C1875 H1861 0.929 . S
C1875 C1874 1.399 . S
C1875 C1876 1.385 . S
C1876 H1862 0.931 . S
C1876 C1875 1.385 . S
C1876 C1877 1.389 . S
C1877 C1876 1.389 . S
C1877 C1878 1.387 . S
C1878 H1863 0.930 . S
C1878 C1873 1.390 . S
C1878 C1877 1.387 . S
H1879 C1891 0.930 . S
H1880 C1893 0.930 . S
H1881 C1894 0.930 . S
H1882 C1898 0.959 . S
H1883 C1898 0.959 . S
H1884 C1898 0.961 . S
H1885 C1899 0.960 . S
H1886 C1899 0.961 . S
H1887 C1899 0.959 . S
H1888 C1902 0.929 . S
H1889 C1903 0.931 . S
H1890 C1905 0.930 . S
C1891 H1879 0.930 . S
C1891 C1892 1.399 . S
C1891 C1896 1.399 . S
C1892 C1891 1.399 . S
C1892 C1893 1.376 . S
C1893 H1880 0.930 . S
C1893 C1892 1.376 . S
C1893 C1894 1.388 . S
C1894 H1881 0.930 . S
C1894 C1893 1.388 . S
C1894 C1895 1.390 . S
C1895 C1894 1.390 . S
C1895 C1896 1.394 . S
C1895 C1901 1.465 . S
C1896 C1891 1.399 . S
C1896 C1895 1.394 . S
C1896 C1897 1.516 . S
C1897 C1896 1.516 . S
C1897 C1898 1.502 . S
C1897 C1899 1.561 . S
C1897 C1900 1.526 . S
C1898 H1882 0.959 . S
C1898 H1883 0.959 . S
C1898 H1884 0.961 . S
C1898 C1897 1.502 . S
C1899 H1885 0.960 . S
C1899 H1886 0.961 . S
C1899 H1887 0.959 . S
C1899 C1897 1.561 . S
C1900 C1897 1.526 . S
C1900 C1901 1.396 . S
C1900 C1905 1.390 . S
C1901 C1895 1.465 . S
C1901 C1900 1.396 . S
C1901 C1902 1.399 . S
C1902 H1888 0.929 . S
C1902 C1901 1.399 . S
C1902 C1903 1.385 . S
C1903 H1889 0.931 . S
C1903 C1902 1.385 . S
C1903 C1904 1.389 . S
C1904 C1903 1.389 . S
C1904 C1905 1.387 . S
C1905 H1890 0.930 . S
C1905 C1900 1.390 . S
C1905 C1904 1.387 . S
H1906 C1918 0.930 . S
H1907 C1920 0.930 . S
H1908 C1921 0.930 . S
H1909 C1925 0.959 . S
H1910 C1925 0.959 . S
H1911 C1925 0.961 . S
H1912 C1926 0.960 . S
H1913 C1926 0.961 . S
H1914 C1926 0.959 . S
H1915 C1929 0.929 . S
H1916 C1930 0.931 . S
H1917 C1932 0.930 . S
C1918 H1906 0.930 . S
C1918 C1919 1.399 . S
C1918 C1923 1.399 . S
C1919 C1918 1.399 . S
C1919 C1920 1.376 . S
C1920 H1907 0.930 . S
C1920 C1919 1.376 . S
C1920 C1921 1.388 . S
C1921 H1908 0.930 . S
C1921 C1920 1.388 . S
C1921 C1922 1.390 . S
C1922 C1921 1.390 . S
C1922 C1923 1.394 . S
C1922 C1928 1.465 . S
C1923 C1918 1.399 . S
C1923 C1922 1.394 . S
C1923 C1924 1.516 . S
C1924 C1923 1.516 . S
C1924 C1925 1.502 . S
C1924 C1926 1.561 . S
C1924 C1927 1.526 . S
C1925 H1909 0.959 . S
C1925 H1910 0.959 . S
C1925 H1911 0.961 . S
C1925 C1924 1.502 . S
C1926 H1912 0.960 . S
C1926 H1913 0.961 . S
C1926 H1914 0.959 . S
C1926 C1924 1.561 . S
C1927 C1924 1.526 . S
C1927 C1928 1.396 . S
C1927 C1932 1.390 . S
C1928 C1922 1.465 . S
C1928 C1927 1.396 . S
C1928 C1929 1.399 . S
C1929 H1915 0.929 . S
C1929 C1928 1.399 . S
C1929 C1930 1.385 . S
C1930 H1916 0.931 . S
C1930 C1929 1.385 . S
C1930 C1931 1.389 . S
C1931 C1930 1.389 . S
C1931 C1932 1.387 . S
C1932 H1917 0.930 . S
C1932 C1927 1.390 . S
C1932 C1931 1.387 . S
H1933 C1945 0.930 . S
H1934 C1947 0.930 . S
H1935 C1948 0.930 . S
H1936 C1952 0.959 . S
H1937 C1952 0.959 . S
H1938 C1952 0.961 . S
H1939 C1953 0.960 . S
H1940 C1953 0.961 . S
H1941 C1953 0.959 . S
H1942 C1956 0.929 . S
H1943 C1957 0.931 . S
H1944 C1959 0.930 . S
C1945 H1933 0.930 . S
C1945 C1946 1.399 . S
C1945 C1950 1.399 . S
C1946 C1945 1.399 . S
C1946 C1947 1.376 . S
C1947 H1934 0.930 . S
C1947 C1946 1.376 . S
C1947 C1948 1.388 . S
C1948 H1935 0.930 . S
C1948 C1947 1.388 . S
C1948 C1949 1.390 . S
C1949 C1948 1.390 . S
C1949 C1950 1.394 . S
C1949 C1955 1.465 . S
C1950 C1945 1.399 . S
C1950 C1949 1.394 . S
C1950 C1951 1.516 . S
C1951 C1950 1.516 . S
C1951 C1952 1.502 . S
C1951 C1953 1.561 . S
C1951 C1954 1.526 . S
C1952 H1936 0.959 . S
C1952 H1937 0.959 . S
C1952 H1938 0.961 . S
C1952 C1951 1.502 . S
C1953 H1939 0.960 . S
C1953 H1940 0.961 . S
C1953 H1941 0.959 . S
C1953 C1951 1.561 . S
C1954 C1951 1.526 . S
C1954 C1955 1.396 . S
C1954 C1959 1.390 . S
C1955 C1949 1.465 . S
C1955 C1954 1.396 . S
C1955 C1956 1.399 . S
C1956 H1942 0.929 . S
C1956 C1955 1.399 . S
C1956 C1957 1.385 . S
C1957 H1943 0.931 . S
C1957 C1956 1.385 . S
C1957 C1958 1.389 . S
C1958 C1957 1.389 . S
C1958 C1959 1.387 . S
C1959 H1944 0.930 . S
C1959 C1954 1.390 . S
C1959 C1958 1.387 . S
H1960 C1972 0.930 . S
H1961 C1974 0.919 1_565 S
H1962 C1975 0.930 . S
H1963 C1979 0.959 . S
H1964 C1979 0.959 . S
H1965 C1979 0.961 . S
H1966 C1980 0.960 . S
H1967 C1980 0.961 . S
H1968 C1980 0.959 . S
H1969 C1983 0.929 . S
H1970 C1984 0.931 . S
H1971 C1986 0.930 . S
C1972 H1960 0.930 . S
C1972 C1973 1.399 1_545 S
C1972 C1977 1.399 . S
C1973 C1972 1.399 1_565 S
C1973 C1974 1.376 1_565 S
C1974 H1961 0.919 1_545 S
C1974 C1973 1.376 1_545 S
C1974 C1975 1.388 . S
C1975 H1962 0.930 . S
C1975 C1974 1.388 . S
C1975 C1976 1.390 . S
C1976 C1975 1.390 . S
C1976 C1977 1.394 . S
C1976 C1982 1.465 . S
C1977 C1972 1.399 . S
C1977 C1976 1.394 . S
C1977 C1978 1.516 . S
C1978 C1977 1.516 . S
C1978 C1979 1.502 . S
C1978 C1980 1.561 . S
C1978 C1981 1.526 . S
C1979 H1963 0.959 . S
C1979 H1964 0.959 . S
C1979 H1965 0.961 . S
C1979 C1978 1.502 . S
C1980 H1966 0.960 . S
C1980 H1967 0.961 . S
C1980 H1968 0.959 . S
C1980 C1978 1.561 . S
C1981 C1978 1.526 . S
C1981 C1982 1.396 . S
C1981 C1986 1.390 . S
C1982 C1976 1.465 . S
C1982 C1981 1.396 . S
C1982 C1983 1.399 . S
C1983 H1969 0.929 . S
C1983 C1982 1.399 . S
C1983 C1984 1.385 . S
C1984 H1970 0.931 . S
C1984 C1983 1.385 . S
C1984 C1985 1.389 . S
C1985 C1984 1.389 . S
C1985 C1986 1.387 . S
C1986 H1971 0.930 . S
C1986 C1981 1.390 . S
C1986 C1985 1.387 . S
H1987 C1999 0.930 . S
H1988 C2001 0.930 . S
H1989 C2002 0.930 . S
H1990 C2006 0.959 . S
H1991 C2006 0.959 . S
H1992 C2006 0.961 . S
H1993 C2007 0.960 . S
H1994 C2007 0.961 . S
H1995 C2007 0.959 . S
H1996 C2010 0.929 . S
H1997 C2011 0.930 . S
H1998 C2013 0.930 . S
C1999 H1987 0.930 . S
C1999 C2000 1.399 . S
C1999 C2004 1.399 . S
C2000 C1999 1.399 . S
C2000 C2001 1.376 . S
C2001 H1988 0.930 . S
C2001 C2000 1.376 . S
C2001 C2002 1.388 . S
C2002 H1989 0.930 . S
C2002 C2001 1.388 . S
C2002 C2003 1.390 . S
C2003 C2002 1.390 . S
C2003 C2004 1.394 . S
C2003 C2009 1.465 . S
C2004 C1999 1.399 . S
C2004 C2003 1.394 . S
C2004 C2005 1.516 . S
C2005 C2004 1.516 . S
C2005 C2006 1.502 . S
C2005 C2007 1.561 . S
C2005 C2008 1.526 . S
C2006 H1990 0.959 . S
C2006 H1991 0.959 . S
C2006 H1992 0.961 . S
C2006 C2005 1.502 . S
C2007 H1993 0.960 . S
C2007 H1994 0.961 . S
C2007 H1995 0.959 . S
C2007 C2005 1.561 . S
C2008 C2005 1.526 . S
C2008 C2009 1.396 . S
C2008 C2013 1.390 . S
C2009 C2003 1.465 . S
C2009 C2008 1.396 . S
C2009 C2010 1.399 . S
C2010 H1996 0.929 . S
C2010 C2009 1.399 . S
C2010 C2011 1.385 . S
C2011 H1997 0.930 . S
C2011 C2010 1.385 . S
C2011 C2012 1.389 1_545 S
C2012 C2011 1.389 1_565 S
C2012 C2013 1.387 1_565 S
C2013 H1998 0.930 . S
C2013 C2008 1.390 . S
C2013 C2012 1.387 1_545 S
H2014 C2026 0.930 . S
H2015 C2028 0.930 . S
H2016 C2029 0.930 . S
H2017 C2033 0.959 . S
H2018 C2033 0.959 . S
H2019 C2033 0.961 . S
H2020 C2034 0.960 . S
H2021 C2034 0.961 . S
H2022 C2034 0.959 . S
H2023 C2037 0.929 . S
H2024 C2038 0.931 1_545 S
H2025 C2040 0.930 . S
C2026 H2014 0.930 . S
C2026 C2027 1.399 . S
C2026 C2031 1.399 . S
C2027 C2026 1.399 . S
C2027 C2028 1.376 . S
C2028 H2015 0.930 . S
C2028 C2027 1.376 . S
C2028 C2029 1.388 . S
C2029 H2016 0.930 . S
C2029 C2028 1.388 . S
C2029 C2030 1.390 . S
C2030 C2029 1.390 . S
C2030 C2031 1.394 . S
C2030 C2036 1.465 . S
C2031 C2026 1.399 . S
C2031 C2030 1.394 . S
C2031 C2032 1.516 . S
C2032 C2031 1.516 . S
C2032 C2033 1.502 . S
C2032 C2034 1.561 . S
C2032 C2035 1.526 . S
C2033 H2017 0.959 . S
C2033 H2018 0.959 . S
C2033 H2019 0.961 . S
C2033 C2032 1.502 . S
C2034 H2020 0.960 . S
C2034 H2021 0.961 . S
C2034 H2022 0.959 . S
C2034 C2032 1.561 . S
C2035 C2032 1.526 . S
C2035 C2036 1.396 . S
C2035 C2040 1.390 . S
C2036 C2030 1.465 . S
C2036 C2035 1.396 . S
C2036 C2037 1.399 . S
C2037 H2023 0.929 . S
C2037 C2036 1.399 . S
C2037 C2038 1.385 . S
C2038 H2024 0.931 1_565 S
C2038 C2037 1.385 . S
C2038 C2039 1.389 1_565 S
C2039 C2038 1.389 1_545 S
C2039 C2040 1.387 1_545 S
C2040 H2025 0.930 . S
C2040 C2035 1.390 . S
C2040 C2039 1.387 1_565 S
H2041 C2053 0.930 . S
H2042 C2055 0.930 . S
H2043 C2056 0.930 . S
H2044 C2060 0.959 . S
H2045 C2060 0.959 . S
H2046 C2060 0.961 . S
H2047 C2061 0.960 . S
H2048 C2061 0.961 . S
H2049 C2061 0.959 . S
H2050 C2064 0.929 . S
H2051 C2065 0.931 1_545 S
H2052 C2067 0.930 . S
C2053 H2041 0.930 . S
C2053 C2054 1.399 . S
C2053 C2058 1.399 . S
C2054 C2053 1.399 . S
C2054 C2055 1.376 . S
C2055 H2042 0.930 . S
C2055 C2054 1.376 . S
C2055 C2056 1.388 . S
C2056 H2043 0.930 . S
C2056 C2055 1.388 . S
C2056 C2057 1.390 . S
C2057 C2056 1.390 . S
C2057 C2058 1.394 . S
C2057 C2063 1.465 . S
C2058 C2053 1.399 . S
C2058 C2057 1.394 . S
C2058 C2059 1.516 . S
C2059 C2058 1.516 . S
C2059 C2060 1.502 . S
C2059 C2061 1.561 . S
C2059 C2062 1.526 . S
C2060 H2044 0.959 . S
C2060 H2045 0.959 . S
C2060 H2046 0.961 . S
C2060 C2059 1.502 . S
C2061 H2047 0.960 . S
C2061 H2048 0.961 . S
C2061 H2049 0.959 . S
C2061 C2059 1.561 . S
C2062 C2059 1.526 . S
C2062 C2063 1.396 . S
C2062 C2067 1.390 . S
C2063 C2057 1.465 . S
C2063 C2062 1.396 . S
C2063 C2064 1.399 . S
C2064 H2050 0.929 . S
C2064 C2063 1.399 . S
C2064 C2065 1.385 . S
C2065 H2051 0.931 1_565 S
C2065 C2064 1.385 . S
C2065 C2066 1.389 1_565 S
C2066 C2065 1.389 1_545 S
C2066 C2067 1.387 1_545 S
C2067 H2052 0.930 . S
C2067 C2062 1.390 . S
C2067 C2066 1.387 1_565 S
H2068 C2080 0.930 . S
H2069 C2082 0.930 . S
H2070 C2083 0.930 . S
H2071 C2087 0.959 . S
H2072 C2087 0.959 . S
H2073 C2087 0.961 . S
H2074 C2088 0.960 . S
H2075 C2088 0.961 . S
H2076 C2088 0.959 . S
H2077 C2091 0.929 . S
H2078 C2092 0.931 . S
H2079 C2094 0.930 . S
C2080 H2068 0.930 . S
C2080 C2081 1.399 . S
C2080 C2085 1.399 . S
C2081 C2080 1.399 . S
C2081 C2082 1.376 . S
C2082 H2069 0.930 . S
C2082 C2081 1.376 . S
C2082 C2083 1.388 . S
C2083 H2070 0.930 . S
C2083 C2082 1.388 . S
C2083 C2084 1.390 . S
C2084 C2083 1.390 . S
C2084 C2085 1.394 . S
C2084 C2090 1.465 . S
C2085 C2080 1.399 . S
C2085 C2084 1.394 . S
C2085 C2086 1.516 . S
C2086 C2085 1.516 . S
C2086 C2087 1.502 . S
C2086 C2088 1.561 . S
C2086 C2089 1.526 . S
C2087 H2071 0.959 . S
C2087 H2072 0.959 . S
C2087 H2073 0.961 . S
C2087 C2086 1.502 . S
C2088 H2074 0.960 . S
C2088 H2075 0.961 . S
C2088 H2076 0.959 . S
C2088 C2086 1.561 . S
C2089 C2086 1.526 . S
C2089 C2090 1.396 . S
C2089 C2094 1.390 . S
C2090 C2084 1.465 . S
C2090 C2089 1.396 . S
C2090 C2091 1.399 . S
C2091 H2077 0.929 . S
C2091 C2090 1.399 . S
C2091 C2092 1.385 . S
C2092 H2078 0.931 . S
C2092 C2091 1.385 . S
C2092 C2093 1.389 . S
C2093 C2092 1.389 . S
C2093 C2094 1.387 . S
C2094 H2079 0.930 . S
C2094 C2089 1.390 . S
C2094 C2093 1.387 . S
H2095 C2107 0.930 . S
H2096 C2109 0.930 . S
H2097 C2110 0.930 . S
H2098 C2114 0.959 . S
H2099 C2114 0.959 . S
H2100 C2114 0.961 . S
H2101 C2115 0.960 . S
H2102 C2115 0.961 . S
H2103 C2115 0.959 . S
H2104 C2118 0.929 . S
H2105 C2119 0.931 . S
H2106 C2121 0.930 . S
C2107 H2095 0.930 . S
C2107 C2108 1.399 . S
C2107 C2112 1.399 . S
C2108 C2107 1.399 . S
C2108 C2109 1.376 . S
C2109 H2096 0.930 . S
C2109 C2108 1.376 . S
C2109 C2110 1.388 . S
C2110 H2097 0.930 . S
C2110 C2109 1.388 . S
C2110 C2111 1.390 . S
C2111 C2110 1.390 . S
C2111 C2112 1.394 . S
C2111 C2117 1.465 . S
C2112 C2107 1.399 . S
C2112 C2111 1.394 . S
C2112 C2113 1.516 . S
C2113 C2112 1.516 . S
C2113 C2114 1.502 . S
C2113 C2115 1.561 . S
C2113 C2116 1.526 . S
C2114 H2098 0.959 . S
C2114 H2099 0.959 . S
C2114 H2100 0.961 . S
C2114 C2113 1.502 . S
C2115 H2101 0.960 . S
C2115 H2102 0.961 . S
C2115 H2103 0.959 . S
C2115 C2113 1.561 . S
C2116 C2113 1.526 . S
C2116 C2117 1.396 . S
C2116 C2121 1.390 . S
C2117 C2111 1.465 . S
C2117 C2116 1.396 . S
C2117 C2118 1.399 . S
C2118 H2104 0.929 . S
C2118 C2117 1.399 . S
C2118 C2119 1.385 . S
C2119 H2105 0.931 . S
C2119 C2118 1.385 . S
C2119 C2120 1.389 . S
C2120 C2119 1.389 . S
C2120 C2121 1.387 . S
C2121 H2106 0.930 . S
C2121 C2116 1.390 . S
C2121 C2120 1.387 . S
H2122 C2134 0.930 . S
H2123 C2136 0.930 . S
H2124 C2137 0.930 . S
H2125 C2141 0.959 . S
H2126 C2141 0.959 . S
H2127 C2141 0.961 . S
H2128 C2142 0.960 . S
H2129 C2142 0.961 . S
H2130 C2142 0.959 . S
H2131 C2145 0.929 . S
H2132 C2146 0.931 . S
H2133 C2148 0.930 . S
C2134 H2122 0.930 . S
C2134 C2135 1.399 . S
C2134 C2139 1.399 . S
C2135 C2134 1.399 . S
C2135 C2136 1.376 . S
C2136 H2123 0.930 . S
C2136 C2135 1.376 . S
C2136 C2137 1.388 . S
C2137 H2124 0.930 . S
C2137 C2136 1.388 . S
C2137 C2138 1.390 . S
C2138 C2137 1.390 . S
C2138 C2139 1.394 . S
C2138 C2144 1.465 . S
C2139 C2134 1.399 . S
C2139 C2138 1.394 . S
C2139 C2140 1.516 . S
C2140 C2139 1.516 . S
C2140 C2141 1.502 . S
C2140 C2142 1.561 . S
C2140 C2143 1.526 . S
C2141 H2125 0.959 . S
C2141 H2126 0.959 . S
C2141 H2127 0.961 . S
C2141 C2140 1.502 . S
C2142 H2128 0.960 . S
C2142 H2129 0.961 . S
C2142 H2130 0.959 . S
C2142 C2140 1.561 . S
C2143 C2140 1.526 . S
C2143 C2144 1.396 . S
C2143 C2148 1.390 . S
C2144 C2138 1.465 . S
C2144 C2143 1.396 . S
C2144 C2145 1.399 . S
C2145 H2131 0.929 . S
C2145 C2144 1.399 . S
C2145 C2146 1.385 . S
C2146 H2132 0.931 . S
C2146 C2145 1.385 . S
C2146 C2147 1.389 . S
C2147 C2146 1.389 . S
C2147 C2148 1.387 . S
C2148 H2133 0.930 . S
C2148 C2143 1.390 . S
C2148 C2147 1.387 . S
H2149 C2161 0.930 . S
H2150 C2163 0.930 . S
H2151 C2164 0.930 . S
H2152 C2168 0.959 . S
H2153 C2168 0.959 . S
H2154 C2168 0.961 . S
H2155 C2169 0.960 . S
H2156 C2169 0.961 . S
H2157 C2169 0.959 . S
H2158 C2172 0.929 . S
H2159 C2173 0.931 . S
H2160 C2175 0.930 . S
C2161 H2149 0.930 . S
C2161 C2162 1.399 . S
C2161 C2166 1.399 . S
C2162 C2161 1.399 . S
C2162 C2163 1.376 . S
C2163 H2150 0.930 . S
C2163 C2162 1.376 . S
C2163 C2164 1.388 . S
C2164 H2151 0.930 . S
C2164 C2163 1.388 . S
C2164 C2165 1.390 . S
C2165 C2164 1.390 . S
C2165 C2166 1.394 . S
C2165 C2171 1.465 . S
C2166 C2161 1.399 . S
C2166 C2165 1.394 . S
C2166 C2167 1.516 . S
C2167 C2166 1.516 . S
C2167 C2168 1.502 . S
C2167 C2169 1.561 . S
C2167 C2170 1.526 . S
C2168 H2152 0.959 . S
C2168 H2153 0.959 . S
C2168 H2154 0.961 . S
C2168 C2167 1.502 . S
C2169 H2155 0.960 . S
C2169 H2156 0.961 . S
C2169 H2157 0.959 . S
C2169 C2167 1.561 . S
C2170 C2167 1.526 . S
C2170 C2171 1.396 . S
C2170 C2175 1.390 . S
C2171 C2165 1.465 . S
C2171 C2170 1.396 . S
C2171 C2172 1.399 . S
C2172 H2158 0.929 . S
C2172 C2171 1.399 . S
C2172 C2173 1.385 . S
C2173 H2159 0.931 . S
C2173 C2172 1.385 . S
C2173 C2174 1.389 . S
C2174 C2173 1.389 . S
C2174 C2175 1.387 . S
C2175 H2160 0.930 . S
C2175 C2170 1.390 . S
C2175 C2174 1.387 . S
C461 C35 0.487 . S
C473 C7 0.428 . S
C488 C21 0.311 . S
C500 C49 0.383 . S
C515 C91 0.454 . S
C527 C63 0.474 . S
C542 C105 0.361 . S
C554 C77 0.333 . S
C569 C119 0.491 . S
C581 C147 0.440 . S
C596 C161 0.323 . S
C608 C133 0.406 . S
C623 C175 0.362 . S
C635 C203 0.334 . S
C650 C189 0.414 . S
C662 C217 0.442 . S
C677 C259 0.487 . S
C689 C231 0.426 . S
C704 C245 0.487 . S
C716 C273 0.427 . S
C731 C287 0.370 . S
C743 C315 0.340 . S
C758 C329 0.367 . S
C770 C301 0.338 . S
C785 C371 0.432 . S
C797 C343 0.345 . S
C812 C385 0.313 . S
C824 C357 0.389 . S
C839 C427 0.459 . S
C851 C399 0.477 . S
C866 C413 0.337 . S
C878 C441 0.316 . S
C893 C64 1.622 . S
C905 C8 1.580 . S
C920 C414 1.618 . S
C932 C22 1.581 . S
C947 C36 1.610 . S
C959 C204 1.587 . S
C974 C50 1.616 . S
C986 C330 1.581 . S
C1001 C78 1.622 . S
C1013 C358 1.580 . S
C1028 C92 1.619 . S
C1040 C148 1.580 . S
C1055 C274 1.610 . S
C1067 C106 1.597 . S
C1082 C176 1.619 . S
C1094 C120 1.580 . S
C1109 C302 1.608 . S
C1121 C134 1.588 . S
C1136 C162 1.599 . S
C1148 C442 1.608 . S
C1163 C190 1.608 . S
C1175 C246 1.588 . S
C1190 C386 1.616 . S
C1202 C218 1.581 . S
C1217 C288 1.621 . S
C1229 C232 1.579 . S
C1244 C260 1.622 . S
C1256 C428 1.582 . S
C1271 C316 1.599 . S
C1283 C372 1.596 . S
C1298 C400 1.602 . S
C1310 C344 1.593 . S
C1325 C51 1.501 . S
C1337 C9 1.470 . S
C1352 C37 1.459 . S
C1364 C23 1.494 . S
C1379 C107 1.497 . S
C1391 C65 1.469 . S
C1406 C93 1.465 . S
C1418 C79 1.492 . S
C1433 C163 1.464 . S
C1445 C121 1.487 . S
C1460 C149 1.500 . S
C1472 C135 1.472 . S
C1487 C219 1.461 . S
C1499 C177 1.495 . S
C1514 C205 1.493 . S
C1526 C191 1.475 . S
C1541 C233 1.501 . S
C1553 C275 1.470 . S
C1568 C261 1.460 . S
C1580 C247 1.492 . S
C1595 C289 1.496 . S
C1607 C331 1.470 . S
C1622 C317 1.503 . S
C1634 C303 1.456 . S
C1649 C387 1.463 . S
C1661 C345 1.487 . S
C1676 C359 1.468 . S
C1688 C373 1.482 . S
C1703 C401 1.492 . S
C1715 C443 1.474 . S
C1730 C429 1.501 . S
C1742 C415 1.465 . S
C1757 C31 1.493 . S
C1769 C3 1.468 . S
C1784 C17 1.497 . S
C1796 C45 1.514 . S
C1811 C59 1.471 . S
C1823 C87 1.476 . S
C1838 C73 1.514 . S
C1850 C101 1.480 . S
C1865 C115 1.471 . S
C1877 C143 1.467 . S
C1892 C129 1.500 . S
C1904 C157 1.514 . S
C1919 C199 1.514 . S
C1931 C171 1.491 . S
C1946 C213 1.514 . S
C1958 C185 1.479 . S
C1973 C255 1.491 . S
C1985 C227 1.513 . S
C2000 C269 1.487 . S
C2012 C241 1.466 . S
C2027 C283 1.464 . S
C2039 C311 1.494 . S
C2054 C325 1.464 . S
C2066 C297 1.496 . S
C2081 C367 1.487 . S
C2093 C339 1.511 . S
C2108 C353 1.487 . S
C2120 C381 1.512 . S
C2135 C395 1.514 . S
C2147 C423 1.482 . S
C2162 C437 1.515 . S
C2174 C409 1.486 . S
