# Generated by pormake.
# Topology noy, (5)-cn, num edge types: 1
# Building blocks:
#     Node 0, Type 0, BuildingBlock: BEQFEK_clean_sbu_0, # of connection points: 5
#     Node 1, Type 0, BuildingBlock: BEQFEK_clean_sbu_0, # of connection points: 5
#     Node 2, Type 0, BuildingBlock: BEQFEK_clean_sbu_0, # of connection points: 5
#     Node 3, Type 0, BuildingBlock: BEQFEK_clean_sbu_0, # of connection points: 5
#     Node 4, Type 0, BuildingBlock: BEQFEK_clean_sbu_0, # of connection points: 5
#     Node 5, Type 0, BuildingBlock: BEQFEK_clean_sbu_0, # of connection points: 5
#     Node 6, Type 0, BuildingBlock: BEQFEK_clean_sbu_0, # of connection points: 5
#     Node 7, Type 0, BuildingBlock: BEQFEK_clean_sbu_0, # of connection points: 5
#     Edge 8, Type (0, 0), BuildingBlock: XUDNAN_clean_linker_2, # of connection points: 2
#     Edge 9, Type (0, 0), BuildingBlock: XUDNAN_clean_linker_2, # of connection points: 2
#     Edge 10, Type (0, 0), BuildingBlock: XUDNAN_clean_linker_2, # of connection points: 2
#     Edge 11, Type (0, 0), BuildingBlock: XUDNAN_clean_linker_2, # of connection points: 2
#     Edge 12, Type (0, 0), BuildingBlock: XUDNAN_clean_linker_2, # of connection points: 2
#     Edge 13, Type (0, 0), BuildingBlock: XUDNAN_clean_linker_2, # of connection points: 2
#     Edge 14, Type (0, 0), BuildingBlock: XUDNAN_clean_linker_2, # of connection points: 2
#     Edge 15, Type (0, 0), BuildingBlock: XUDNAN_clean_linker_2, # of connection points: 2
#     Edge 16, Type (0, 0), BuildingBlock: XUDNAN_clean_linker_2, # of connection points: 2
#     Edge 17, Type (0, 0), BuildingBlock: XUDNAN_clean_linker_2, # of connection points: 2
#     Edge 18, Type (0, 0), BuildingBlock: XUDNAN_clean_linker_2, # of connection points: 2
#     Edge 19, Type (0, 0), BuildingBlock: XUDNAN_clean_linker_2, # of connection points: 2
#     Edge 20, Type (0, 0), BuildingBlock: XUDNAN_clean_linker_2, # of connection points: 2
#     Edge 21, Type (0, 0), BuildingBlock: XUDNAN_clean_linker_2, # of connection points: 2
#     Edge 22, Type (0, 0), BuildingBlock: XUDNAN_clean_linker_2, # of connection points: 2
#     Edge 23, Type (0, 0), BuildingBlock: XUDNAN_clean_linker_2, # of connection points: 2
#     Edge 24, Type (0, 0), BuildingBlock: XUDNAN_clean_linker_2, # of connection points: 2
#     Edge 25, Type (0, 0), BuildingBlock: XUDNAN_clean_linker_2, # of connection points: 2
#     Edge 26, Type (0, 0), BuildingBlock: XUDNAN_clean_linker_2, # of connection points: 2
#     Edge 27, Type (0, 0), BuildingBlock: XUDNAN_clean_linker_2, # of connection points: 2
# Relax obj value: 0.053
# Max RMSD: 0.089
# Mean RMSD: 0.089
data_MOF--net-noy--node1-BEQFEK_clean_sbu_0--edge1-XUDNAN_clean_linker_2
_symmetry_space_group_name_H-M    P1
_symmetry_Int_Tables_number       1
_symmetry_cell_setting            triclinic
loop_
_symmetry_equiv_pos_as_xyz
'x, y, z'
_cell_length_a     45.013091
_cell_length_b     46.733771
_cell_length_c     24.037565
_cell_angle_alpha  89.650679
_cell_angle_beta   89.900007
_cell_angle_gamma 90.115507
loop_
_atom_site_label
_atom_site_type_symbol
_atom_site_fract_x
_atom_site_fract_y
_atom_site_fract_z
_atom_type_partial_charge
Co0 Co 0.33704 0.41675 0.23799 0.0
Co1 Co 0.347 0.36957 0.14658 0.0
C2 C 0.32687 0.42935 0.11734 0.0
O3 O 0.32738 0.43746 0.16784 0.0
O4 O 0.33349 0.40377 0.10404 0.0
C5 C 0.31173 0.45735 0.32384 0.0
O6 O 0.2846 0.45503 0.30434 0.0
C7 C 0.32775 0.32608 0.06388 0.0
C8 C 0.36844 0.3 0.05787 0.0
C9 C 0.3394 0.30163 0.03886 0.0
N10 N 0.34887 0.33773 0.09647 0.0
N11 N 0.37322 0.32222 0.09189 0.0
C12 C 0.29665 0.33717 0.06074 0.0
H13 H 0.29232 0.3524 0.09507 0.0
H14 H 0.28048 0.31922 0.06278 0.0
H15 H 0.29358 0.34863 0.0206 0.0
C16 C 0.30144 0.36988 0.28922 0.0
N17 N 0.3162 0.38147 0.24565 0.0
N18 N 0.32134 0.36136 0.20855 0.0
C19 C 0.31024 0.33635 0.22785 0.0
C20 C 0.29702 0.34099 0.27918 0.0
C21 C 0.29613 0.38497 0.34304 0.0
H22 H 0.31672 0.39607 0.3562 0.0
H23 H 0.27853 0.40123 0.3369 0.0
H24 H 0.28895 0.36996 0.37643 0.0
O25 O 0.37959 0.40761 0.24091 0.0
O26 O 0.38831 0.37568 0.1749 0.0
H27 H 0.3387 0.30575 0.18854 0.0
H28 H 0.30871 0.28988 0.22841 0.0
C29 C 0.31506 0.30796 0.20075 0.0
H30 H 0.30121 0.30669 0.16285 0.0
H31 H 0.39291 0.32635 0.11324 0.0
O32 O 0.33281 0.44326 0.30197 0.0
C33 C 0.39727 0.3915 0.21442 0.0
Co34 Co 0.67238 0.60578 0.77243 0.0
Co35 Co 0.66839 0.64613 0.66608 0.0
C36 C 0.68322 0.58394 0.65617 0.0
O37 O 0.68186 0.58053 0.70871 0.0
O38 O 0.67815 0.60818 0.63374 0.0
C39 C 0.70451 0.57135 0.85088 0.0
O40 O 0.72608 0.57548 0.81479 0.0
C41 C 0.69296 0.67816 0.56967 0.0
C42 C 0.66325 0.71562 0.56554 0.0
C43 C 0.68897 0.70437 0.54274 0.0
N44 N 0.67126 0.67472 0.60788 0.0
N45 N 0.65321 0.69693 0.60418 0.0
C46 C 0.71698 0.65663 0.55973 0.0
H47 H 0.70729 0.63483 0.55899 0.0
H48 H 0.73326 0.65734 0.59427 0.0
H49 H 0.72854 0.66064 0.51964 0.0
C50 C 0.71025 0.65321 0.81163 0.0
N51 N 0.69561 0.63953 0.77072 0.0
N52 N 0.69489 0.65598 0.72597 0.0
C53 C 0.70992 0.68036 0.73681 0.0
C54 C 0.7199 0.67953 0.79149 0.0
C55 C 0.71052 0.64339 0.87107 0.0
H56 H 0.68944 0.63224 0.88133 0.0
H57 H 0.72919 0.62824 0.87724 0.0
H58 H 0.71342 0.66156 0.90005 0.0
O59 O 0.63045 0.61779 0.77134 0.0
O60 O 0.62647 0.64557 0.69587 0.0
H61 H 0.69193 0.71429 0.68713 0.0
H62 H 0.72911 0.72122 0.71224 0.0
C63 C 0.71383 0.70455 0.69633 0.0
H64 H 0.72348 0.69632 0.65734 0.0
H65 H 0.63478 0.69997 0.62985 0.0
O66 O 0.67933 0.58272 0.84167 0.0
C67 C 0.61515 0.6336 0.73894 0.0
Co68 Co 0.34679 0.61467 0.74583 0.0
Co69 Co 0.34037 0.65392 0.85157 0.0
C70 C 0.32764 0.59077 0.85664 0.0
O71 O 0.33373 0.58815 0.80519 0.0
O72 O 0.32917 0.615 0.88062 0.0
C73 C 0.32708 0.57524 0.66052 0.0
O74 O 0.30392 0.5712 0.69299 0.0
C75 C 0.30847 0.68447 0.94087 0.0
C76 C 0.3404 0.71858 0.96213 0.0
C77 C 0.31227 0.70827 0.97532 0.0
N78 N 0.33299 0.68138 0.90928 0.0
N79 N 0.35206 0.7017 0.9226 0.0
C80 C 0.28168 0.66576 0.93462 0.0
H81 H 0.28299 0.65341 0.89539 0.0
H82 H 0.26112 0.67882 0.93455 0.0
H83 H 0.28071 0.65033 0.96985 0.0
C84 C 0.30434 0.65671 0.70006 0.0
N85 N 0.32142 0.6468 0.74178 0.0
N86 N 0.31862 0.66368 0.78523 0.0
C87 C 0.29974 0.68514 0.77182 0.0
C88 C 0.28983 0.6811 0.71774 0.0
C89 C 0.3026 0.6436 0.64349 0.0
H90 H 0.32512 0.63744 0.62928 0.0
H91 H 0.28851 0.62414 0.64563 0.0
H92 H 0.29284 0.65866 0.61272 0.0
O93 O 0.38803 0.62733 0.75974 0.0
O94 O 0.38403 0.65423 0.83533 0.0
H95 H 0.31003 0.71628 0.83413 0.0
H96 H 0.28063 0.72683 0.78744 0.0
C97 C 0.29059 0.70857 0.81032 0.0
H98 H 0.2737 0.70022 0.83979 0.0
H99 H 0.37285 0.70436 0.90397 0.0
O100 O 0.34718 0.59286 0.675 0.0
C101 C 0.39974 0.64289 0.79711 0.0
Co102 Co 0.66784 0.41653 0.26514 0.0
Co103 Co 0.6652 0.37011 0.36131 0.0
C104 C 0.68567 0.42915 0.38473 0.0
O105 O 0.68093 0.43711 0.33461 0.0
O106 O 0.68135 0.40339 0.40018 0.0
C107 C 0.70149 0.4522 0.19083 0.0
O108 O 0.72316 0.44473 0.22443 0.0
C109 C 0.68367 0.328 0.44856 0.0
C110 C 0.64464 0.29938 0.44872 0.0
C111 C 0.67237 0.30295 0.47302 0.0
N112 N 0.66366 0.33796 0.41147 0.0
N113 N 0.6403 0.32089 0.41244 0.0
C114 C 0.71339 0.34168 0.45707 0.0
H115 H 0.71759 0.35828 0.42477 0.0
H116 H 0.73119 0.32532 0.45523 0.0
H117 H 0.71393 0.35201 0.49849 0.0
C118 C 0.69943 0.36835 0.2095 0.0
N119 N 0.68758 0.38066 0.25512 0.0
N120 N 0.68731 0.36179 0.29608 0.0
C121 C 0.69961 0.33723 0.27828 0.0
C122 C 0.70742 0.34039 0.22268 0.0
C123 C 0.6992 0.38167 0.15271 0.0
H124 H 0.67901 0.39494 0.14729 0.0
H125 H 0.71901 0.39564 0.14802 0.0
H126 H 0.69981 0.3652 0.11968 0.0
O127 O 0.62451 0.409 0.26916 0.0
O128 O 0.62334 0.37812 0.33994 0.0
H129 H 0.68131 0.30193 0.32412 0.0
H130 H 0.71723 0.29461 0.29327 0.0
C131 C 0.70342 0.31108 0.31381 0.0
H132 H 0.71462 0.31707 0.35287 0.0
H133 H 0.62155 0.32364 0.38752 0.0
O134 O 0.67549 0.4426 0.20026 0.0
C135 C 0.61014 0.39301 0.3029 0.0
Co136 Co 0.83127 0.91566 0.25163 0.0
Co137 Co 0.84252 0.86948 0.16152 0.0
C138 C 0.82028 0.93019 0.1348 0.0
O139 O 0.81854 0.93773 0.18546 0.0
O140 O 0.82908 0.90518 0.12166 0.0
C141 C 0.8081 0.95537 0.33797 0.0
O142 O 0.78202 0.95682 0.31369 0.0
C143 C 0.81752 0.83377 0.07569 0.0
C144 C 0.85367 0.80362 0.05579 0.0
C145 C 0.82475 0.81087 0.04159 0.0
N146 N 0.84102 0.83975 0.10787 0.0
N147 N 0.86265 0.82176 0.09578 0.0
C148 C 0.78824 0.84862 0.08144 0.0
H149 H 0.78644 0.85894 0.12274 0.0
H150 H 0.76962 0.8333 0.07603 0.0
H151 H 0.78654 0.86564 0.04923 0.0
C152 C 0.79647 0.86783 0.30289 0.0
N153 N 0.81187 0.87972 0.26039 0.0
N154 N 0.81748 0.85991 0.22315 0.0
C155 C 0.80606 0.83477 0.2411 0.0
C156 C 0.79201 0.839 0.29184 0.0
C157 C 0.78933 0.88292 0.35592 0.0
H158 H 0.77444 0.90121 0.34675 0.0
H159 H 0.7783 0.86846 0.38642 0.0
H160 H 0.81007 0.89154 0.3743 0.0
O161 O 0.8745 0.90988 0.24581 0.0
O162 O 0.88436 0.87468 0.1872 0.0
H163 H 0.80535 0.78839 0.2408 0.0
H164 H 0.7971 0.80551 0.17538 0.0
C165 C 0.81114 0.80667 0.21313 0.0
H166 H 0.83472 0.80497 0.20012 0.0
H167 H 0.88341 0.82175 0.11502 0.0
O168 O 0.82831 0.93949 0.31823 0.0
C169 C 0.89297 0.89362 0.22151 0.0
Co170 Co 0.16507 0.10845 0.75988 0.0
Co171 Co 0.17204 0.15165 0.66096 0.0
C172 C 0.18313 0.08833 0.64668 0.0
O173 O 0.17818 0.08426 0.6982 0.0
O174 O 0.1809 0.11327 0.62504 0.0
C175 C 0.18515 0.068 0.84264 0.0
O176 O 0.2105 0.06836 0.81551 0.0
C177 C 0.2007 0.18558 0.57034 0.0
C178 C 0.17534 0.22589 0.57593 0.0
C179 C 0.19895 0.21322 0.54853 0.0
N180 N 0.17958 0.1825 0.60972 0.0
N181 N 0.16431 0.20658 0.61221 0.0
C182 C 0.22143 0.16218 0.55332 0.0
H183 H 0.21011 0.14118 0.55592 0.0
H184 H 0.24071 0.1617 0.58198 0.0
H185 H 0.22946 0.16547 0.51009 0.0
C186 C 0.20668 0.14911 0.81352 0.0
N187 N 0.19082 0.14008 0.7695 0.0
N188 N 0.1951 0.15774 0.72733 0.0
C189 C 0.21431 0.17843 0.74332 0.0
C190 C 0.22234 0.17354 0.79844 0.0
C191 C 0.20515 0.13594 0.87039 0.0
H192 H 0.18243 0.12782 0.87882 0.0
H193 H 0.221 0.11784 0.87283 0.0
H194 H 0.21118 0.1517 0.90285 0.0
O195 O 0.1241 0.12146 0.74762 0.0
O196 O 0.12873 0.15431 0.68094 0.0
H197 H 0.2068 0.21647 0.69572 0.0
H198 H 0.24346 0.21441 0.72598 0.0
C199 C 0.22543 0.20192 0.70616 0.0
H200 H 0.23398 0.19263 0.66703 0.0
H201 H 0.1468 0.2101 0.63984 0.0
O202 O 0.16388 0.08375 0.82633 0.0
C203 C 0.11287 0.14037 0.71583 0.0
Co204 Co 0.84576 0.11158 0.75624 0.0
Co205 Co 0.84162 0.15341 0.8559 0.0
C206 C 0.82824 0.09023 0.86905 0.0
O207 O 0.83277 0.08661 0.81739 0.0
O208 O 0.83128 0.1149 0.89089 0.0
C209 C 0.82425 0.07176 0.67486 0.0
O210 O 0.80006 0.07063 0.70547 0.0
C211 C 0.81099 0.18578 0.94255 0.0
C212 C 0.84278 0.22077 0.95899 0.0
C213 C 0.81493 0.21049 0.97406 0.0
N214 N 0.8352 0.18208 0.91062 0.0
N215 N 0.85424 0.20288 0.92099 0.0
C216 C 0.78418 0.16688 0.93883 0.0
H217 H 0.78485 0.15407 0.90011 0.0
H218 H 0.76353 0.17981 0.9396 0.0
H219 H 0.78397 0.15184 0.97472 0.0
C220 C 0.80411 0.15343 0.70582 0.0
N221 N 0.8207 0.14387 0.74862 0.0
N222 N 0.81833 0.16174 0.79055 0.0
C223 C 0.80012 0.18345 0.77521 0.0
C224 C 0.79026 0.17862 0.72124 0.0
C225 C 0.8029 0.1397 0.64975 0.0
H226 H 0.82524 0.13192 0.63781 0.0
H227 H 0.78738 0.12126 0.65137 0.0
H228 H 0.79499 0.15497 0.6175 0.0
O229 O 0.88734 0.1236 0.76695 0.0
O230 O 0.88476 0.15535 0.83514 0.0
H231 H 0.81206 0.21639 0.83277 0.0
H232 H 0.78157 0.22573 0.7875 0.0
C233 C 0.792 0.20813 0.81152 0.0
H234 H 0.77587 0.20082 0.8434 0.0
H235 H 0.87477 0.20522 0.90125 0.0
O236 O 0.8455 0.08809 0.68886 0.0
C237 C 0.89965 0.14164 0.79891 0.0
Co238 Co 0.16711 0.91287 0.27159 0.0
Co239 Co 0.15772 0.86753 0.36579 0.0
C240 C 0.18241 0.92703 0.38835 0.0
O241 O 0.18191 0.93425 0.33718 0.0
O242 O 0.174 0.90217 0.40421 0.0
C243 C 0.19209 0.95084 0.18275 0.0
O244 O 0.21844 0.95069 0.20613 0.0
C245 C 0.1758 0.82702 0.45439 0.0
C246 C 0.13558 0.80008 0.46088 0.0
C247 C 0.16409 0.80312 0.48203 0.0
N248 N 0.15525 0.83693 0.41852 0.0
N249 N 0.13116 0.82096 0.42323 0.0
C250 C 0.20642 0.83941 0.45824 0.0
H251 H 0.21064 0.85439 0.42308 0.0
H252 H 0.22329 0.82213 0.45778 0.0
H253 H 0.20853 0.85145 0.49768 0.0
C254 C 0.1977 0.86331 0.21843 0.0
N255 N 0.18452 0.87595 0.26239 0.0
N256 N 0.18099 0.8569 0.30245 0.0
C257 C 0.19219 0.83162 0.28548 0.0
C258 C 0.20311 0.83472 0.23148 0.0
C259 C 0.20146 0.87747 0.1628 0.0
H260 H 0.18104 0.8895 0.15204 0.0
H261 H 0.2202 0.89287 0.16487 0.0
H262 H 0.20595 0.86175 0.12947 0.0
O263 O 0.12382 0.90926 0.27916 0.0
O264 O 0.11592 0.87505 0.3418 0.0
H265 H 0.16897 0.79885 0.33068 0.0
H266 H 0.20355 0.7869 0.29982 0.0
C267 C 0.19217 0.80497 0.3204 0.0
H268 H 0.20406 0.8092 0.35965 0.0
H269 H 0.11191 0.82392 0.3998 0.0
O270 O 0.17092 0.9366 0.20424 0.0
C271 C 0.10628 0.89332 0.30684 0.0
H272 H 0.45003 0.39696 0.15662 0.0
H273 H 0.41282 0.38076 0.32034 0.0
H274 H 0.4633 0.378 0.35991 0.0
H275 H 0.51615 0.35221 0.17058 0.0
H276 H 0.54006 0.37721 0.13463 0.0
H277 H 0.50108 0.37565 0.11795 0.0
H278 H 0.49631 0.42985 0.1381 0.0
H279 H 0.53523 0.43153 0.15509 0.0
H280 H 0.5079 0.44342 0.20469 0.0
H281 H 0.51702 0.37677 0.38196 0.0
H282 H 0.57163 0.38033 0.38683 0.0
H283 H 0.57488 0.40137 0.21074 0.0
C284 C 0.45271 0.39245 0.20057 0.0
C285 C 0.42777 0.38875 0.23557 0.0
C286 C 0.43183 0.38355 0.29308 0.0
C287 C 0.46034 0.38189 0.31584 0.0
C288 C 0.48455 0.38598 0.28064 0.0
C289 C 0.48117 0.39142 0.22437 0.0
C290 C 0.51105 0.39679 0.19685 0.0
C291 C 0.51746 0.37411 0.15237 0.0
C292 C 0.51271 0.42721 0.17224 0.0
C293 C 0.5316 0.39348 0.24646 0.0
C294 C 0.51579 0.38686 0.29413 0.0
C295 C 0.52971 0.38209 0.34502 0.0
C296 C 0.5607 0.38414 0.34736 0.0
C297 C 0.57742 0.39136 0.29933 0.0
C298 C 0.56261 0.39619 0.24828 0.0
H299 H 0.56473 0.63092 0.6744 0.0
H300 H 0.59612 0.64933 0.84078 0.0
H301 H 0.54453 0.6577 0.87179 0.0
H302 H 0.50168 0.681 0.67208 0.0
H303 H 0.47767 0.6564 0.63607 0.0
H304 H 0.51726 0.65511 0.62505 0.0
H305 H 0.51749 0.60147 0.65292 0.0
H306 H 0.47796 0.6026 0.66404 0.0
H307 H 0.50214 0.59069 0.71916 0.0
H308 H 0.48973 0.66272 0.88568 0.0
H309 H 0.43494 0.65979 0.88377 0.0
H310 H 0.43852 0.63457 0.71032 0.0
C311 C 0.56063 0.63724 0.717 0.0
C312 C 0.58425 0.63987 0.75517 0.0
C313 C 0.57819 0.64736 0.811 0.0
C314 C 0.54903 0.65227 0.8289 0.0
C315 C 0.5261 0.64917 0.79061 0.0
C316 C 0.53146 0.64154 0.73597 0.0
C317 C 0.50256 0.6371 0.70482 0.0
C318 C 0.49963 0.6587 0.65666 0.0
C319 C 0.49989 0.60612 0.68403 0.0
C320 C 0.48024 0.64316 0.7506 0.0
C321 C 0.4943 0.65059 0.79945 0.0
C322 C 0.47842 0.65695 0.84765 0.0
C323 C 0.44731 0.65529 0.84614 0.0
C324 C 0.43242 0.64685 0.79703 0.0
C325 C 0.44923 0.64098 0.74859 0.0
H326 H 0.0631 0.85297 0.2854 0.0
H327 H 0.07773 0.9438 0.30944 0.0
H328 H 0.02478 0.95318 0.29045 0.0
H329 H 0.01339 0.86177 0.16975 0.0
H330 H 0.98966 0.83207 0.18824 0.0
H331 H 0.02826 0.83173 0.20792 0.0
H332 H 0.01344 0.82432 0.31117 0.0
H333 H 0.9748 0.82437 0.29174 0.0
H334 H 0.9881 0.84905 0.34342 0.0
H335 H 0.97136 0.95314 0.26947 0.0
H336 H 0.91927 0.94411 0.24429 0.0
H337 H 0.93833 0.85362 0.226 0.0
C338 C 0.05486 0.8747 0.28752 0.0
C339 C 0.07417 0.89772 0.2996 0.0
C340 C 0.06308 0.92598 0.30061 0.0
C341 C 0.03312 0.93149 0.28986 0.0
C342 C 0.01467 0.90851 0.27717 0.0
C343 C 0.02498 0.88069 0.27553 0.0
C344 C 1.00047 0.86029 0.25774 0.0
C345 C 0.00843 0.8456 0.20264 0.0
C346 C 0.99381 0.83821 0.30377 0.0
C347 C 0.97483 0.88105 0.2502 0.0
C348 C 0.98367 0.90868 0.2621 0.0
C349 C 0.96414 0.93165 0.25978 0.0
C350 C 0.9346 0.92628 0.24548 0.0
C351 C 0.92484 0.89822 0.23294 0.0
C352 C 0.94533 0.87532 0.23468 0.0
H353 H 0.06749 0.10227 0.72731 0.0
H354 H 0.08685 0.19309 0.72067 0.0
H355 H 0.03436 0.20369 0.74461 0.0
H356 H 0.99391 0.10824 0.66356 0.0
H357 H 0.97874 0.07951 0.7052 0.0
H358 H 0.01762 0.07965 0.68738 0.0
H359 H 0.03095 0.07598 0.79204 0.0
H360 H 0.99214 0.07631 0.81025 0.0
H361 H 0.01698 0.10249 0.83953 0.0
H362 H 0.98052 0.20365 0.77837 0.0
H363 H 0.92785 0.19352 0.80212 0.0
H364 H 0.94328 0.10298 0.77721 0.0
C365 C 0.06052 0.12439 0.73025 0.0
C366 C 0.08103 0.14692 0.72236 0.0
C367 C 0.07127 0.1756 0.72619 0.0
C368 C 0.04163 0.18176 0.7402 0.0
C369 C 0.02203 0.15898 0.74893 0.0
C370 C 0.03094 0.13089 0.74261 0.0
C371 C 0.00541 0.1103 0.75212 0.0
C372 C 0.99851 0.09344 0.69889 0.0
C373 C 0.01176 0.09009 0.80142 0.0
C374 C 0.9808 0.13111 0.76577 0.0
C375 C 0.99086 0.15908 0.76468 0.0
C376 C 0.97232 0.18187 0.77853 0.0
C377 C 0.94257 0.17593 0.7924 0.0
C378 C 0.93162 0.14753 0.79115 0.0
C379 C 0.95109 0.12491 0.77802 0.0
H380 H 0.32927 0.58291 0.97047 0.0
H381 H 0.31021 0.53906 0.81579 0.0
H382 H 0.30321 0.4939 0.86745 0.0
H383 H 0.37199 0.52841 0.02906 0.0
H384 H 0.35908 0.53308 0.09944 0.0
H385 H 0.35889 0.56287 0.0517 0.0
H386 H 0.30265 0.57022 0.0695 0.0
H387 H 0.30269 0.54047 0.11759 0.0
H388 H 0.27733 0.54075 0.05965 0.0
H389 H 0.30358 0.45265 0.93342 0.0
H390 H 0.31052 0.41806 0.01019 0.0
H391 H 0.32891 0.4881 0.12298 0.0
C392 C 0.32291 0.56396 0.94767 0.0
C393 C 0.32019 0.5646 0.88905 0.0
C394 C 0.31244 0.53916 0.86066 0.0
C395 C 0.3083 0.51337 0.88965 0.0
C396 C 0.31188 0.51328 0.94715 0.0
C397 C 0.31882 0.5379 0.97602 0.0
C398 C 0.32354 0.53141 0.0373 0.0
C399 C 0.35526 0.53941 0.05541 0.0
C400 C 0.30015 0.54662 0.07312 0.0
C401 C 0.3189 0.49925 0.03796 0.0
C402 C 0.31196 0.4893 0.98556 0.0
C403 C 0.30856 0.46021 0.97484 0.0
C404 C 0.31266 0.44071 0.01869 0.0
C405 C 0.32006 0.45034 0.0727 0.0
C406 C 0.32276 0.48007 0.08242 0.0
H407 H 0.67711 0.48755 0.38301 0.0
H408 H 0.7119 0.41825 0.48465 0.0
H409 H 0.71925 0.45167 0.56225 0.0
H410 H 0.72548 0.54536 0.44094 0.0
H411 H 0.69592 0.5713 0.4385 0.0
H412 H 0.69725 0.54293 0.38807 0.0
H413 H 0.64382 0.52774 0.41565 0.0
H414 H 0.64241 0.55584 0.46641 0.0
H415 H 0.63563 0.5193 0.48735 0.0
H416 H 0.7172 0.49052 0.6321 0.0
H417 H 0.70765 0.53316 0.68917 0.0
H418 H 0.67445 0.57803 0.54332 0.0
C419 C 0.68711 0.47963 0.42102 0.0
C420 C 0.6941 0.4503 0.42761 0.0
C421 C 0.70643 0.44062 0.47855 0.0
C422 C 0.71075 0.45945 0.5229 0.0
C423 C 0.70275 0.48799 0.51575 0.0
C424 C 0.69144 0.49818 0.46601 0.0
C425 C 0.68248 0.52937 0.47098 0.0
C426 C 0.70142 0.54836 0.43233 0.0
C427 C 0.64911 0.53327 0.45942 0.0
C428 C 0.68974 0.53478 0.53164 0.0
C429 C 0.70163 0.51066 0.55646 0.0
C430 C 0.70835 0.50971 0.61297 0.0
C431 C 0.70269 0.53401 0.64512 0.0
C432 C 0.69042 0.55901 0.62077 0.0
C433 C 0.68422 0.5594 0.56305 0.0
H434 H 0.66303 0.54794 0.92245 0.0
H435 H 0.75803 0.55579 0.89482 0.0
H436 H 0.7674 0.52698 0.97932 0.0
H437 H 0.6647 0.55143 0.07262 0.0
H438 H 0.6358 0.52509 0.08216 0.0
H439 H 0.63645 0.54702 0.02028 0.0
H440 H 0.63648 0.5015 0.9593 0.0
H441 H 0.63584 0.47943 0.02098 0.0
H442 H 0.66478 0.47478 0.96993 0.0
H443 H 0.76662 0.49764 0.06697 0.0
H444 H 0.75579 0.46807 0.14991 0.0
H445 H 0.66124 0.47756 0.11953 0.0
C446 C 0.6858 0.54372 0.93437 0.0
C447 C 0.70982 0.55423 0.90206 0.0
C448 C 0.73927 0.54796 0.91877 0.0
C449 C 0.74483 0.53165 0.96682 0.0
C450 C 0.7207 0.52154 0.99758 0.0
C451 C 0.69176 0.52716 0.98194 0.0
C452 C 0.66987 0.513 0.02159 0.0
C453 C 0.65057 0.53548 0.0509 0.0
C454 C 0.65061 0.49086 0.99112 0.0
C455 C 0.69104 0.49863 0.06203 0.0
C456 C 0.72025 0.50399 0.04752 0.0
C457 C 0.74383 0.49324 0.07869 0.0
C458 C 0.73743 0.47649 0.12584 0.0
C459 C 0.70768 0.47042 0.14132 0.0
C460 C 0.68423 0.48171 0.10877 0.0
H461 H 0.27448 0.4762 0.4074 0.0
H462 H 0.36494 0.48232 0.34544 0.0
H463 H 0.378 0.514 0.42316 0.0
H464 H 0.2684 0.54912 0.45824 0.0
H465 H 0.24773 0.53907 0.51964 0.0
H466 H 0.2448 0.5179 0.45748 0.0
H467 H 0.26034 0.47272 0.51317 0.0
H468 H 0.26336 0.49376 0.57544 0.0
H469 H 0.29462 0.47303 0.55186 0.0
H470 H 0.38164 0.54485 0.50667 0.0
H471 H 0.37626 0.57132 0.59445 0.0
H472 H 0.2842 0.54388 0.60619 0.0
C473 C 0.29692 0.48447 0.41001 0.0
C474 C 0.31865 0.47693 0.37021 0.0
C475 C 0.34793 0.48777 0.37549 0.0
C476 C 0.35557 0.50586 0.41939 0.0
C477 C 0.33378 0.51273 0.45815 0.0
C478 C 0.30511 0.50228 0.45429 0.0
C479 C 0.28643 0.51208 0.5032 0.0
C480 C 0.26029 0.53065 0.48344 0.0
C481 C 0.27555 0.48636 0.53797 0.0
C482 C 0.3091 0.52967 0.53486 0.0
C483 C 0.33618 0.52991 0.50776 0.0
C484 C 0.36057 0.5448 0.52841 0.0
C485 C 0.35727 0.55981 0.57829 0.0
C486 C 0.32986 0.55962 0.60734 0.0
C487 C 0.30548 0.54432 0.58514 0.0
H488 H 0.83068 0.08312 0.98395 0.0
H489 H 0.80823 0.03897 0.83112 0.0
H490 H 0.79949 0.99464 0.88403 0.0
H491 H 0.87055 0.02647 0.0446 0.0
H492 H 0.8579 0.03232 0.11479 0.0
H493 H 0.85945 0.06175 0.06623 0.0
H494 H 0.80374 0.07221 0.08378 0.0
H495 H 0.80204 0.0428 0.13258 0.0
H496 H 0.77676 0.04408 0.07455 0.0
H497 H 0.79833 0.95381 0.95049 0.0
H498 H 0.80341 0.91928 0.02797 0.0
H499 H 0.82503 0.98889 0.13959 0.0
C500 C 0.82331 0.06428 0.96186 0.0
C501 C 0.82017 0.06468 0.90322 0.0
C502 C 0.81093 0.03935 0.87588 0.0
C503 C 0.80578 0.01397 0.90561 0.0
C504 C 0.80973 0.01407 0.96297 0.0
C505 C 0.81806 0.03854 0.99106 0.0
C506 C 0.82236 0.03213 0.05259 0.0
C507 C 0.85447 0.03855 0.07059 0.0
C508 C 0.79988 0.0488 0.08796 0.0
C509 C 0.81587 1.00019 0.05416 0.0
C510 C 0.80849 0.99031 1.00194 0.0
C511 C 0.80358 0.96134 0.99181 0.0
C512 C 0.80657 0.94185 0.03606 0.0
C513 C 0.81422 0.95137 0.08998 0.0
C514 C 0.81848 0.98103 0.09914 0.0
H515 H 0.17701 0.08078 0.53263 0.0
H516 H 0.20572 0.0379 0.68396 0.0
H517 H 0.21331 0.99343 0.6319 0.0
H518 H 0.13572 0.0233 0.48058 0.0
H519 H 0.14535 0.02881 0.40849 0.0
H520 H 0.1455 0.05856 0.45567 0.0
H521 H 0.20019 0.0696 0.42957 0.0
H522 H 0.20017 0.03988 0.3821 0.0
H523 H 0.22778 0.04188 0.43617 0.0
H524 H 0.21235 0.95219 0.56736 0.0
H525 H 0.20414 0.91702 0.49266 0.0
H526 H 0.17731 0.98562 0.38124 0.0
C527 C 0.18559 0.06222 0.55441 0.0
C528 C 0.1908 0.06296 0.61248 0.0
C529 C 0.20146 0.03797 0.63961 0.0
C530 C 0.20597 0.01254 0.61035 0.0
C531 C 0.19989 0.01224 0.55365 0.0
C532 C 0.19014 0.03641 0.52569 0.0
C533 C 0.18337 0.02951 0.46531 0.0
C534 C 0.15053 0.03539 0.45175 0.0
C535 C 0.20412 0.04621 0.42596 0.0
C536 C 0.19012 0.99764 0.46434 0.0
C537 C 0.19979 0.98822 0.51576 0.0
C538 C 0.20531 0.95937 0.52658 0.0
C539 C 0.20053 0.93952 0.48395 0.0
C540 C 0.19049 0.94856 0.43092 0.0
C541 C 0.18569 0.97812 0.42092 0.0
H542 H 0.22809 0.04561 0.91157 0.0
H543 H 0.13271 0.04943 0.88562 0.0
H544 H 0.12479 0.01949 0.96895 0.0
H545 H 0.23117 0.97265 0.96266 0.0
H546 H 0.25906 0.98004 0.01438 0.0
H547 H 0.25763 1.00114 0.95146 0.0
H548 H 0.25372 0.04739 0.00989 0.0
H549 H 0.25509 0.02644 0.07299 0.0
H550 H 0.22455 0.05056 0.06094 0.0
H551 H 0.1267 0.98945 0.05307 0.0
H552 H 0.13803 0.96172 0.13731 0.0
H553 H 0.23229 0.97807 0.11297 0.0
C554 C 0.20559 0.03992 0.92331 0.0
C555 C 0.181 0.04968 0.89212 0.0
C556 C 0.15185 0.04221 0.90906 0.0
C557 C 0.14711 0.02517 0.9562 0.0
C558 C 0.17174 0.01601 0.98622 0.0
C559 C 0.20041 0.02318 0.97089 0.0
C560 C 0.22277 0.01115 0.01196 0.0
C561 C 0.2439 0.98998 0.98339 0.0
C562 C 0.24005 0.03533 0.04064 0.0
C563 C 0.20211 0.99596 0.05241 0.0
C564 C 0.17282 0.99904 0.03635 0.0
C565 C 0.14953 0.98689 0.06626 0.0
C566 C 0.15626 0.97113 0.11407 0.0
C567 C 0.18608 0.96772 0.13186 0.0
C568 C 0.2093 0.98039 0.10056 0.0
H569 H 0.77959 0.04684 0.61372 0.0
H570 H 0.87533 0.05802 0.62119 0.0
H571 H 0.88092 0.02966 0.53594 0.0
H572 H 0.7798 0.97444 0.56243 0.0
H573 H 0.74859 0.97968 0.51664 0.0
H574 H 0.75179 1.00056 0.57911 0.0
H575 H 0.7484 0.04722 0.52071 0.0
H576 H 0.74524 0.02649 0.45804 0.0
H577 H 0.77414 0.05304 0.4642 0.0
H578 H 0.87681 0.99973 0.45279 0.0
H579 H 0.86317 0.97079 0.37184 0.0
H580 H 0.76973 0.98 0.41365 0.0
C581 C 0.8017 0.04316 0.59746 0.0
C582 C 0.82705 0.05451 0.62408 0.0
C583 C 0.85561 0.04958 0.60135 0.0
C584 C 0.85904 0.03346 0.55304 0.0
C585 C 0.83367 0.02267 0.52769 0.0
C586 C 0.80552 0.02737 0.54866 0.0
C587 C 0.78204 0.01371 0.51214 0.0
C588 C 0.76453 0.99073 0.54452 0.0
C589 C 0.76123 0.03648 0.4873 0.0
C590 C 0.80151 1.00047 0.46771 0.0
C591 C 0.8312 1.00586 0.47796 0.0
C592 C 0.85366 0.99543 0.44404 0.0
C593 C 0.84564 0.97894 0.39826 0.0
C594 C 0.81537 0.9732 0.38645 0.0
C595 C 0.793 0.98427 0.42148 0.0
H596 H 0.29205 0.30642 0.96374 0.0
H597 H 0.35419 0.2455 0.03545 0.0
H598 H 0.33212 0.20721 0.97949 0.0
H599 H 0.22894 0.25805 0.9618 0.0
H600 H 0.21475 0.27158 0.8967 0.0
H601 H 0.23574 0.29472 0.9417 0.0
H602 H 0.27221 0.30573 0.86087 0.0
H603 H 0.25149 0.2824 0.81577 0.0
H604 H 0.29067 0.27663 0.82619 0.0
H605 H 0.30366 0.17518 0.91758 0.0
H606 H 0.26911 0.15087 0.85367 0.0
H607 H 0.22397 0.23125 0.8226 0.0
C608 C 0.30071 0.28502 0.9686 0.0
C609 C 0.32476 0.27911 1.00485 0.0
C610 C 0.3359 0.25077 0.00805 0.0
C611 C 0.32347 0.22875 0.97647 0.0
C612 C 0.29984 0.23525 0.94148 0.0
C613 C 0.28844 0.26259 0.9373 0.0
C614 C 0.26265 0.26346 0.89657 0.0
C615 C 0.23381 0.27248 0.92596 0.0
C616 C 0.26969 0.28323 0.84691 0.0
C617 C 0.2614 0.23232 0.87887 0.0
C618 C 0.2832 0.21654 0.90529 0.0
C619 C 0.2865 0.18728 0.89659 0.0
C620 C 0.26678 0.17366 0.86034 0.0
C621 C 0.24403 0.1892 0.83327 0.0
C622 C 0.24145 0.21898 0.84232 0.0
H623 H 0.67505 0.7408 0.45686 0.0
H624 H 0.74986 0.70627 0.54864 0.0
H625 H 0.78416 0.73541 0.49182 0.0
H626 H 0.71214 0.74602 0.32124 0.0
H627 H 0.69435 0.77932 0.30327 0.0
H628 H 0.67576 0.75405 0.34837 0.0
H629 H 0.67005 0.79331 0.42325 0.0
H630 H 0.68877 0.81864 0.37855 0.0
H631 H 0.70258 0.81192 0.44774 0.0
H632 H 0.81042 0.76981 0.42774 0.0
H633 H 0.82653 0.80722 0.36053 0.0
H634 H 0.73505 0.82088 0.31193 0.0
C635 C 0.69871 0.73905 0.4643 0.0
C636 C 0.7098 0.72035 0.50582 0.0
C637 C 0.74084 0.71926 0.51535 0.0
C638 C 0.76053 0.73608 0.48372 0.0
C639 C 0.74889 0.75414 0.44294 0.0
C640 C 0.7187 0.75575 0.43308 0.0
C641 C 0.71192 0.77773 0.38813 0.0
C642 C 0.6977 0.76342 0.33724 0.0
C643 C 0.69216 0.80183 0.4108 0.0
C644 C 0.74296 0.78852 0.37488 0.0
C645 C 0.76398 0.77448 0.40679 0.0
C646 C 0.79418 0.78085 0.40241 0.0
C647 C 0.80314 0.80207 0.36434 0.0
C648 C 0.78198 0.81668 0.33147 0.0
C649 C 0.75155 0.80987 0.33678 0.0
H650 H 0.25304 0.83641 0.16556 0.0
H651 H 0.17853 0.78222 0.21134 0.0
H652 H 0.19863 0.74349 0.15279 0.0
H653 H 0.25487 0.81365 0.02079 0.0
H654 H 0.29478 0.81588 0.01593 0.0
H655 H 0.27495 0.8389 0.06294 0.0
H656 H 0.3072 0.82039 0.14472 0.0
H657 H 0.32698 0.79719 0.09804 0.0
H658 H 0.30893 0.78249 0.15883 0.0
H659 H 0.22884 0.7096 0.09401 0.0
H660 H 0.26335 0.68495 0.03164 0.0
H661 H 0.31498 0.76317 0.01425 0.0
C662 C 0.24092 0.81642 0.16297 0.0
C663 C 0.21464 0.81201 0.19414 0.0
C664 C 0.19922 0.7857 0.18925 0.0
C665 C 0.21035 0.76366 0.15579 0.0
C666 C 0.23659 0.7685 0.12633 0.0
C667 C 0.2514 0.7944 0.12877 0.0
C668 C 0.27855 0.7944 0.09134 0.0
C669 C 0.2756 0.81705 0.045 0.0
C670 C 0.3071 0.79888 0.12528 0.0
C671 C 0.2769 0.76433 0.06813 0.0
C672 C 0.25269 0.74967 0.08919 0.0
C673 C 0.2474 0.72113 0.07595 0.0
C674 C 0.26706 0.70734 0.03946 0.0
C675 C 0.29142 0.72223 0.01532 0.0
C676 C 0.29638 0.75109 0.03082 0.0
H677 H 0.72144 0.30859 0.54564 0.0
H678 H 0.65382 0.24832 0.49108 0.0
H679 H 0.67483 0.21177 0.55272 0.0
H680 H 0.78088 0.25743 0.54786 0.0
H681 H 0.79854 0.27254 0.60821 0.0
H682 H 0.77709 0.29504 0.56242 0.0
H683 H 0.74481 0.31104 0.6459 0.0
H684 H 0.76599 0.28835 0.69188 0.0
H685 H 0.72621 0.2844 0.68799 0.0
H686 H 0.70339 0.18086 0.61709 0.0
H687 H 0.73955 0.15693 0.67881 0.0
H688 H 0.79077 0.2354 0.68833 0.0
C689 C 0.71117 0.28775 0.54539 0.0
C690 C 0.68598 0.28165 0.51205 0.0
C691 C 0.67302 0.25395 0.51581 0.0
C692 C 0.68481 0.23284 0.55081 0.0
C693 C 0.70975 0.23948 0.58216 0.0
C694 C 0.72294 0.26615 0.57975 0.0
C695 C 0.75038 0.26711 0.61645 0.0
C696 C 0.77838 0.27339 0.58165 0.0
C697 C 0.74661 0.28903 0.66333 0.0
C698 C 0.75057 0.23673 0.63927 0.0
C699 C 0.72668 0.22133 0.61923 0.0
C700 C 0.72214 0.1927 0.63325 0.0
C701 C 0.74275 0.17929 0.66822 0.0
C702 C 0.76767 0.19441 0.68858 0.0
C703 C 0.77154 0.22356 0.67419 0.0
H704 H 0.76722 0.67805 0.86296 0.0
H705 H 0.69956 0.73441 0.79597 0.0
H706 H 0.72024 0.77456 0.84987 0.0
H707 H 0.76476 0.70725 1.00149 0.0
H708 H 0.80404 0.70309 0.01342 0.0
H709 H 0.78495 0.67915 0.96709 0.0
H710 H 0.82208 0.69219 0.88834 0.0
H711 H 0.84122 0.71625 0.93437 0.0
H712 H 0.82715 0.72918 0.86873 0.0
H713 H 0.74908 0.80873 0.90833 0.0
H714 H 0.78135 0.83403 0.97414 0.0
H715 H 0.82733 0.75461 0.0112 0.0
C716 C 0.7569 0.6989 0.85964 0.0
C717 C 0.73236 0.70343 0.8242 0.0
C718 C 0.71903 0.7308 0.82146 0.0
C719 C 0.73046 0.75365 0.85219 0.0
C720 C 0.75489 0.7486 0.88627 0.0
C721 C 0.76774 0.72186 0.8908 0.0
C722 C 0.79296 0.72197 0.93246 0.0
C723 C 0.78627 0.70167 0.98152 0.0
C724 C 0.82261 0.71446 0.90428 0.0
C725 C 0.79233 0.75299 0.95037 0.0
C726 C 0.77035 0.76798 0.92284 0.0
C727 C 0.76594 0.79711 0.93113 0.0
C728 C 0.78417 0.81124 0.96935 0.0
C729 C 0.80609 0.79613 0.99979 0.0
C730 C 0.81047 0.7667 0.98925 0.0
H731 H 0.1839 0.25562 0.47531 0.0
H732 H 0.25936 0.20647 0.53433 0.0
H733 H 0.29206 0.23263 0.46938 0.0
H734 H 0.20618 0.26201 0.33115 0.0
H735 H 0.1935 0.29843 0.32443 0.0
H736 H 0.17561 0.27447 0.37304 0.0
H737 H 0.18571 0.31024 0.45282 0.0
H738 H 0.20371 0.33426 0.40451 0.0
H739 H 0.22319 0.3221 0.46566 0.0
H740 H 0.31685 0.26473 0.39912 0.0
H741 H 0.33203 0.30154 0.33001 0.0
H742 H 0.24125 0.33173 0.32043 0.0
C743 C 0.20726 0.25013 0.47412 0.0
C744 C 0.21878 0.22809 0.50831 0.0
C745 C 0.24961 0.2221 0.50655 0.0
C746 C 0.2685 0.23719 0.47031 0.0
C747 C 0.25634 0.25856 0.43679 0.0
C748 C 0.22647 0.26518 0.43862 0.0
C749 C 0.21923 0.28994 0.39997 0.0
C750 C 0.19734 0.28065 0.35445 0.0
C751 C 0.20726 0.31565 0.43271 0.0
C752 C 0.24971 0.29616 0.37601 0.0
C753 C 0.27079 0.27773 0.39767 0.0
C754 C 0.30055 0.27924 0.38181 0.0
C755 C 0.30895 0.30008 0.34264 0.0
C756 C 0.28769 0.31907 0.32003 0.0
C757 C 0.25779 0.31725 0.33717 0.0
H758 H 0.81511 0.26707 1.00181 0.0
H759 H 0.76894 0.18731 0.03752 0.0
H760 H 0.73412 0.21298 0.09782 0.0
H761 H 0.81152 0.29241 0.14145 0.0
H762 H 0.80723 0.32943 0.12156 0.0
H763 H 0.82685 0.30525 0.07659 0.0
H764 H 0.79139 0.31849 0.99564 0.0
H765 H 0.77151 0.34258 0.04051 0.0
H766 H 0.75185 0.31448 1.00498 0.0
H767 H 0.70387 0.24736 0.15386 0.0
H768 H 0.68421 0.28685 0.21085 0.0
H769 H 0.75331 0.34311 0.14761 0.0
C770 C 0.79757 0.25492 0.02193 0.0
C771 C 0.7941 0.22523 0.01245 0.0
C772 C 0.77125 0.2102 0.04094 0.0
C773 C 0.75148 0.2246 0.0761 0.0
C774 C 0.75521 0.25392 0.08343 0.0
C775 C 0.778 0.26884 0.05793 0.0
C776 C 0.77847 0.29986 0.07599 0.0
C777 C 0.80775 0.30715 0.10567 0.0
C778 C 0.77297 0.32004 0.02631 0.0
C779 C 0.75246 0.29998 0.11599 0.0
C780 C 0.73908 0.27336 0.11892 0.0
C781 C 0.71439 0.26819 0.15248 0.0
C782 C 0.70352 0.29067 0.18489 0.0
C783 C 0.71774 0.31772 0.18454 0.0
C784 C 0.74216 0.32256 0.14882 0.0
H785 H 0.21349 0.80988 0.55217 0.0
H786 H 0.14646 0.74831 0.50095 0.0
H787 H 0.16937 0.712 0.56099 0.0
H788 H 0.27396 0.76048 0.5488 0.0
H789 H 0.29259 0.77566 0.60804 0.0
H790 H 0.26949 0.79788 0.56466 0.0
H791 H 0.23871 0.81248 0.65111 0.0
H792 H 0.26158 0.79009 0.69471 0.0
H793 H 0.22187 0.78511 0.69398 0.0
H794 H 0.20034 0.68142 0.62191 0.0
H795 H 0.23889 0.65802 0.67924 0.0
H796 H 0.28776 0.7379 0.68719 0.0
C797 C 0.20377 0.78878 0.5524 0.0
C798 C 0.1783 0.78211 0.52045 0.0
C799 C 0.1659 0.75423 0.52474 0.0
C800 C 0.17877 0.73331 0.55878 0.0
C801 C 0.20413 0.74044 0.58854 0.0
C802 C 0.21662 0.76742 0.5857 0.0
C803 C 0.24482 0.76892 0.62007 0.0
C804 C 0.27181 0.77616 0.58319 0.0
C805 C 0.24153 0.79043 0.6678 0.0
C806 C 0.24632 0.73845 0.64196 0.0
C807 C 0.22239 0.72254 0.62362 0.0
C808 C 0.2191 0.69366 0.63685 0.0
C809 C 0.24105 0.68057 0.66926 0.0
C810 C 0.26596 0.6963 0.68778 0.0
C811 C 0.26855 0.72564 0.67433 0.0
loop_
_geom_bond_atom_site_label_1
_geom_bond_atom_site_label_2
_geom_bond_distance
_geom_bond_site_symmetry_2
_ccdc_geom_bond_type
Co0 O3 1.970 . S
Co0 N17 1.989 . S
Co0 O25 1.967 . S
Co0 O32 1.920 . S
Co1 O4 1.966 . S
Co1 N10 2.022 . S
Co1 N18 1.993 . S
Co1 O26 1.941 . S
C2 O3 1.258 . S
C2 O4 1.263 . S
O3 Co0 1.970 . S
O3 C2 1.258 . S
O4 Co1 1.966 . S
O4 C2 1.263 . S
C5 O6 1.235 . S
C5 O32 1.289 . S
O6 C5 1.235 . S
C7 C9 1.400 . S
C7 N10 1.351 . S
C7 C12 1.501 . S
C8 C9 1.387 . S
C8 N11 1.341 . S
C9 C7 1.400 . S
C9 C8 1.387 . S
N10 Co1 2.022 . S
N10 C7 1.351 . S
N10 N11 1.365 . S
N11 C8 1.341 . S
N11 N10 1.365 . S
N11 H31 0.862 . S
C12 C7 1.501 . S
C12 H13 0.961 . S
C12 H14 0.961 . S
C12 H15 0.960 . S
H13 C12 0.961 . S
H14 C12 0.961 . S
H15 C12 0.960 . S
C16 N17 1.342 . S
C16 C20 1.401 . S
C16 C21 1.499 . S
N17 Co0 1.989 . S
N17 C16 1.342 . S
N17 N18 1.388 . S
N18 Co1 1.993 . S
N18 N17 1.388 . S
N18 C19 1.346 . S
C19 N18 1.346 . S
C19 C20 1.396 . S
C19 C29 1.510 . S
C20 C16 1.401 . S
C20 C19 1.396 . S
C21 C16 1.499 . S
C21 H22 0.959 . S
C21 H23 0.960 . S
C21 H24 0.961 . S
H22 C21 0.959 . S
H23 C21 0.960 . S
H24 C21 0.961 . S
O25 Co0 1.967 . S
O25 C33 1.258 . S
O26 Co1 1.941 . S
O26 C33 1.266 . S
H27 C29 0.959 . S
H28 C29 0.961 . S
C29 C19 1.510 . S
C29 H27 0.959 . S
C29 H28 0.961 . S
C29 H30 0.960 . S
H30 C29 0.960 . S
H31 N11 0.862 . S
O32 Co0 1.920 . S
O32 C5 1.289 . S
C33 O25 1.258 . S
C33 O26 1.266 . S
Co34 O37 1.970 . S
Co34 N51 1.989 . S
Co34 O59 1.967 . S
Co34 O66 1.920 . S
Co35 O38 1.966 . S
Co35 N44 2.022 . S
Co35 N52 1.993 . S
Co35 O60 1.941 . S
C36 O37 1.258 . S
C36 O38 1.263 . S
O37 Co34 1.970 . S
O37 C36 1.258 . S
O38 Co35 1.966 . S
O38 C36 1.263 . S
C39 O40 1.235 . S
C39 O66 1.289 . S
O40 C39 1.235 . S
C41 C43 1.400 . S
C41 N44 1.351 . S
C41 C46 1.501 . S
C42 C43 1.387 . S
C42 N45 1.341 . S
C43 C41 1.400 . S
C43 C42 1.387 . S
N44 Co35 2.022 . S
N44 C41 1.351 . S
N44 N45 1.365 . S
N45 C42 1.341 . S
N45 N44 1.365 . S
N45 H65 0.862 . S
C46 C41 1.501 . S
C46 H47 0.961 . S
C46 H48 0.961 . S
C46 H49 0.960 . S
H47 C46 0.961 . S
H48 C46 0.961 . S
H49 C46 0.960 . S
C50 N51 1.342 . S
C50 C54 1.401 . S
C50 C55 1.499 . S
N51 Co34 1.989 . S
N51 C50 1.342 . S
N51 N52 1.388 . S
N52 Co35 1.993 . S
N52 N51 1.388 . S
N52 C53 1.346 . S
C53 N52 1.346 . S
C53 C54 1.396 . S
C53 C63 1.510 . S
C54 C50 1.401 . S
C54 C53 1.396 . S
C55 C50 1.499 . S
C55 H56 0.959 . S
C55 H57 0.960 . S
C55 H58 0.961 . S
H56 C55 0.959 . S
H57 C55 0.960 . S
H58 C55 0.961 . S
O59 Co34 1.967 . S
O59 C67 1.258 . S
O60 Co35 1.941 . S
O60 C67 1.266 . S
H61 C63 0.959 . S
H62 C63 0.961 . S
C63 C53 1.510 . S
C63 H61 0.959 . S
C63 H62 0.961 . S
C63 H64 0.960 . S
H64 C63 0.960 . S
H65 N45 0.862 . S
O66 Co34 1.920 . S
O66 C39 1.289 . S
C67 O59 1.258 . S
C67 O60 1.266 . S
Co68 O71 1.970 . S
Co68 N85 1.989 . S
Co68 O93 1.967 . S
Co68 O100 1.920 . S
Co69 O72 1.966 . S
Co69 N78 2.022 . S
Co69 N86 1.993 . S
Co69 O94 1.941 . S
C70 O71 1.258 . S
C70 O72 1.263 . S
O71 Co68 1.970 . S
O71 C70 1.258 . S
O72 Co69 1.966 . S
O72 C70 1.263 . S
C73 O74 1.235 . S
C73 O100 1.289 . S
O74 C73 1.235 . S
C75 C77 1.400 . S
C75 N78 1.351 . S
C75 C80 1.501 . S
C76 C77 1.387 . S
C76 N79 1.341 . S
C77 C75 1.400 . S
C77 C76 1.387 . S
N78 Co69 2.022 . S
N78 C75 1.351 . S
N78 N79 1.365 . S
N79 C76 1.341 . S
N79 N78 1.365 . S
N79 H99 0.862 . S
C80 C75 1.501 . S
C80 H81 0.961 . S
C80 H82 0.961 . S
C80 H83 0.960 . S
H81 C80 0.961 . S
H82 C80 0.961 . S
H83 C80 0.960 . S
C84 N85 1.342 . S
C84 C88 1.401 . S
C84 C89 1.499 . S
N85 Co68 1.989 . S
N85 C84 1.342 . S
N85 N86 1.388 . S
N86 Co69 1.993 . S
N86 N85 1.388 . S
N86 C87 1.346 . S
C87 N86 1.346 . S
C87 C88 1.396 . S
C87 C97 1.510 . S
C88 C84 1.401 . S
C88 C87 1.396 . S
C89 C84 1.499 . S
C89 H90 0.959 . S
C89 H91 0.960 . S
C89 H92 0.961 . S
H90 C89 0.959 . S
H91 C89 0.960 . S
H92 C89 0.961 . S
O93 Co68 1.967 . S
O93 C101 1.258 . S
O94 Co69 1.941 . S
O94 C101 1.266 . S
H95 C97 0.959 . S
H96 C97 0.961 . S
C97 C87 1.510 . S
C97 H95 0.959 . S
C97 H96 0.961 . S
C97 H98 0.960 . S
H98 C97 0.960 . S
H99 N79 0.862 . S
O100 Co68 1.920 . S
O100 C73 1.289 . S
C101 O93 1.258 . S
C101 O94 1.266 . S
Co102 O105 1.970 . S
Co102 N119 1.989 . S
Co102 O127 1.967 . S
Co102 O134 1.920 . S
Co103 O106 1.966 . S
Co103 N112 2.022 . S
Co103 N120 1.993 . S
Co103 O128 1.941 . S
C104 O105 1.258 . S
C104 O106 1.263 . S
O105 Co102 1.970 . S
O105 C104 1.258 . S
O106 Co103 1.966 . S
O106 C104 1.263 . S
C107 O108 1.235 . S
C107 O134 1.289 . S
O108 C107 1.235 . S
C109 C111 1.400 . S
C109 N112 1.351 . S
C109 C114 1.501 . S
C110 C111 1.387 . S
C110 N113 1.341 . S
C111 C109 1.400 . S
C111 C110 1.387 . S
N112 Co103 2.022 . S
N112 C109 1.351 . S
N112 N113 1.365 . S
N113 C110 1.341 . S
N113 N112 1.365 . S
N113 H133 0.862 . S
C114 C109 1.501 . S
C114 H115 0.961 . S
C114 H116 0.961 . S
C114 H117 0.960 . S
H115 C114 0.961 . S
H116 C114 0.961 . S
H117 C114 0.960 . S
C118 N119 1.342 . S
C118 C122 1.401 . S
C118 C123 1.499 . S
N119 Co102 1.989 . S
N119 C118 1.342 . S
N119 N120 1.388 . S
N120 Co103 1.993 . S
N120 N119 1.388 . S
N120 C121 1.346 . S
C121 N120 1.346 . S
C121 C122 1.396 . S
C121 C131 1.510 . S
C122 C118 1.401 . S
C122 C121 1.396 . S
C123 C118 1.499 . S
C123 H124 0.959 . S
C123 H125 0.960 . S
C123 H126 0.961 . S
H124 C123 0.959 . S
H125 C123 0.960 . S
H126 C123 0.961 . S
O127 Co102 1.967 . S
O127 C135 1.258 . S
O128 Co103 1.941 . S
O128 C135 1.266 . S
H129 C131 0.959 . S
H130 C131 0.961 . S
C131 C121 1.510 . S
C131 H129 0.959 . S
C131 H130 0.961 . S
C131 H132 0.960 . S
H132 C131 0.960 . S
H133 N113 0.862 . S
O134 Co102 1.920 . S
O134 C107 1.289 . S
C135 O127 1.258 . S
C135 O128 1.266 . S
Co136 O139 1.970 . S
Co136 N153 1.989 . S
Co136 O161 1.967 . S
Co136 O168 1.920 . S
Co137 O140 1.966 . S
Co137 N146 2.022 . S
Co137 N154 1.993 . S
Co137 O162 1.941 . S
C138 O139 1.258 . S
C138 O140 1.263 . S
O139 Co136 1.970 . S
O139 C138 1.258 . S
O140 Co137 1.966 . S
O140 C138 1.263 . S
C141 O142 1.235 . S
C141 O168 1.289 . S
O142 C141 1.235 . S
C143 C145 1.400 . S
C143 N146 1.351 . S
C143 C148 1.501 . S
C144 C145 1.387 . S
C144 N147 1.341 . S
C145 C143 1.400 . S
C145 C144 1.387 . S
N146 Co137 2.022 . S
N146 C143 1.351 . S
N146 N147 1.365 . S
N147 C144 1.341 . S
N147 N146 1.365 . S
N147 H167 0.862 . S
C148 C143 1.501 . S
C148 H149 0.961 . S
C148 H150 0.961 . S
C148 H151 0.960 . S
H149 C148 0.961 . S
H150 C148 0.961 . S
H151 C148 0.960 . S
C152 N153 1.342 . S
C152 C156 1.401 . S
C152 C157 1.499 . S
N153 Co136 1.989 . S
N153 C152 1.342 . S
N153 N154 1.388 . S
N154 Co137 1.993 . S
N154 N153 1.388 . S
N154 C155 1.346 . S
C155 N154 1.346 . S
C155 C156 1.396 . S
C155 C165 1.510 . S
C156 C152 1.401 . S
C156 C155 1.396 . S
C157 C152 1.499 . S
C157 H158 0.959 . S
C157 H159 0.960 . S
C157 H160 0.961 . S
H158 C157 0.959 . S
H159 C157 0.960 . S
H160 C157 0.961 . S
O161 Co136 1.967 . S
O161 C169 1.258 . S
O162 Co137 1.941 . S
O162 C169 1.266 . S
H163 C165 0.959 . S
H164 C165 0.961 . S
C165 C155 1.510 . S
C165 H163 0.959 . S
C165 H164 0.961 . S
C165 H166 0.960 . S
H166 C165 0.960 . S
H167 N147 0.862 . S
O168 Co136 1.920 . S
O168 C141 1.289 . S
C169 O161 1.258 . S
C169 O162 1.266 . S
Co170 O173 1.970 . S
Co170 N187 1.989 . S
Co170 O195 1.967 . S
Co170 O202 1.920 . S
Co171 O174 1.966 . S
Co171 N180 2.022 . S
Co171 N188 1.993 . S
Co171 O196 1.941 . S
C172 O173 1.258 . S
C172 O174 1.263 . S
O173 Co170 1.970 . S
O173 C172 1.258 . S
O174 Co171 1.966 . S
O174 C172 1.263 . S
C175 O176 1.235 . S
C175 O202 1.289 . S
O176 C175 1.235 . S
C177 C179 1.400 . S
C177 N180 1.351 . S
C177 C182 1.501 . S
C178 C179 1.387 . S
C178 N181 1.341 . S
C179 C177 1.400 . S
C179 C178 1.387 . S
N180 Co171 2.022 . S
N180 C177 1.351 . S
N180 N181 1.365 . S
N181 C178 1.341 . S
N181 N180 1.365 . S
N181 H201 0.862 . S
C182 C177 1.501 . S
C182 H183 0.961 . S
C182 H184 0.961 . S
C182 H185 0.960 . S
H183 C182 0.961 . S
H184 C182 0.961 . S
H185 C182 0.960 . S
C186 N187 1.342 . S
C186 C190 1.401 . S
C186 C191 1.499 . S
N187 Co170 1.989 . S
N187 C186 1.342 . S
N187 N188 1.388 . S
N188 Co171 1.993 . S
N188 N187 1.388 . S
N188 C189 1.346 . S
C189 N188 1.346 . S
C189 C190 1.396 . S
C189 C199 1.510 . S
C190 C186 1.401 . S
C190 C189 1.396 . S
C191 C186 1.499 . S
C191 H192 0.959 . S
C191 H193 0.960 . S
C191 H194 0.961 . S
H192 C191 0.959 . S
H193 C191 0.960 . S
H194 C191 0.961 . S
O195 Co170 1.967 . S
O195 C203 1.258 . S
O196 Co171 1.941 . S
O196 C203 1.266 . S
H197 C199 0.959 . S
H198 C199 0.961 . S
C199 C189 1.510 . S
C199 H197 0.959 . S
C199 H198 0.961 . S
C199 H200 0.960 . S
H200 C199 0.960 . S
H201 N181 0.862 . S
O202 Co170 1.920 . S
O202 C175 1.289 . S
C203 O195 1.258 . S
C203 O196 1.266 . S
Co204 O207 1.970 . S
Co204 N221 1.989 . S
Co204 O229 1.967 . S
Co204 O236 1.920 . S
Co205 O208 1.966 . S
Co205 N214 2.022 . S
Co205 N222 1.993 . S
Co205 O230 1.941 . S
C206 O207 1.258 . S
C206 O208 1.263 . S
O207 Co204 1.970 . S
O207 C206 1.258 . S
O208 Co205 1.966 . S
O208 C206 1.263 . S
C209 O210 1.235 . S
C209 O236 1.289 . S
O210 C209 1.235 . S
C211 C213 1.400 . S
C211 N214 1.351 . S
C211 C216 1.501 . S
C212 C213 1.387 . S
C212 N215 1.341 . S
C213 C211 1.400 . S
C213 C212 1.387 . S
N214 Co205 2.022 . S
N214 C211 1.351 . S
N214 N215 1.365 . S
N215 C212 1.341 . S
N215 N214 1.365 . S
N215 H235 0.862 . S
C216 C211 1.501 . S
C216 H217 0.961 . S
C216 H218 0.961 . S
C216 H219 0.960 . S
H217 C216 0.961 . S
H218 C216 0.961 . S
H219 C216 0.960 . S
C220 N221 1.342 . S
C220 C224 1.401 . S
C220 C225 1.499 . S
N221 Co204 1.989 . S
N221 C220 1.342 . S
N221 N222 1.388 . S
N222 Co205 1.993 . S
N222 N221 1.388 . S
N222 C223 1.346 . S
C223 N222 1.346 . S
C223 C224 1.396 . S
C223 C233 1.510 . S
C224 C220 1.401 . S
C224 C223 1.396 . S
C225 C220 1.499 . S
C225 H226 0.959 . S
C225 H227 0.960 . S
C225 H228 0.961 . S
H226 C225 0.959 . S
H227 C225 0.960 . S
H228 C225 0.961 . S
O229 Co204 1.967 . S
O229 C237 1.258 . S
O230 Co205 1.941 . S
O230 C237 1.266 . S
H231 C233 0.959 . S
H232 C233 0.961 . S
C233 C223 1.510 . S
C233 H231 0.959 . S
C233 H232 0.961 . S
C233 H234 0.960 . S
H234 C233 0.960 . S
H235 N215 0.862 . S
O236 Co204 1.920 . S
O236 C209 1.289 . S
C237 O229 1.258 . S
C237 O230 1.266 . S
Co238 O241 1.970 . S
Co238 N255 1.989 . S
Co238 O263 1.967 . S
Co238 O270 1.920 . S
Co239 O242 1.966 . S
Co239 N248 2.022 . S
Co239 N256 1.993 . S
Co239 O264 1.941 . S
C240 O241 1.258 . S
C240 O242 1.263 . S
O241 Co238 1.970 . S
O241 C240 1.258 . S
O242 Co239 1.966 . S
O242 C240 1.263 . S
C243 O244 1.235 . S
C243 O270 1.289 . S
O244 C243 1.235 . S
C245 C247 1.400 . S
C245 N248 1.351 . S
C245 C250 1.501 . S
C246 C247 1.387 . S
C246 N249 1.341 . S
C247 C245 1.400 . S
C247 C246 1.387 . S
N248 Co239 2.022 . S
N248 C245 1.351 . S
N248 N249 1.365 . S
N249 C246 1.341 . S
N249 N248 1.365 . S
N249 H269 0.862 . S
C250 C245 1.501 . S
C250 H251 0.961 . S
C250 H252 0.961 . S
C250 H253 0.960 . S
H251 C250 0.961 . S
H252 C250 0.961 . S
H253 C250 0.960 . S
C254 N255 1.342 . S
C254 C258 1.401 . S
C254 C259 1.499 . S
N255 Co238 1.989 . S
N255 C254 1.342 . S
N255 N256 1.388 . S
N256 Co239 1.993 . S
N256 N255 1.388 . S
N256 C257 1.346 . S
C257 N256 1.346 . S
C257 C258 1.396 . S
C257 C267 1.510 . S
C258 C254 1.401 . S
C258 C257 1.396 . S
C259 C254 1.499 . S
C259 H260 0.959 . S
C259 H261 0.960 . S
C259 H262 0.961 . S
H260 C259 0.959 . S
H261 C259 0.960 . S
H262 C259 0.961 . S
O263 Co238 1.967 . S
O263 C271 1.258 . S
O264 Co239 1.941 . S
O264 C271 1.266 . S
H265 C267 0.959 . S
H266 C267 0.961 . S
C267 C257 1.510 . S
C267 H265 0.959 . S
C267 H266 0.961 . S
C267 H268 0.960 . S
H268 C267 0.960 . S
H269 N249 0.862 . S
O270 Co238 1.920 . S
O270 C243 1.289 . S
C271 O263 1.258 . S
C271 O264 1.266 . S
H272 C284 0.930 . S
H273 C286 0.930 . S
H274 C287 0.930 . S
H275 C291 0.959 . S
H276 C291 0.959 . S
H277 C291 0.961 . S
H278 C292 0.960 . S
H279 C292 0.961 . S
H280 C292 0.959 . S
H281 C295 0.929 . S
H282 C296 0.931 . S
H283 C298 0.930 . S
C284 H272 0.930 . S
C284 C285 1.399 . S
C284 C289 1.399 . S
C285 C284 1.399 . S
C285 C286 1.376 . S
C286 H273 0.930 . S
C286 C285 1.376 . S
C286 C287 1.388 . S
C287 H274 0.930 . S
C287 C286 1.388 . S
C287 C288 1.390 . S
C288 C287 1.390 . S
C288 C289 1.394 . S
C288 C294 1.465 . S
C289 C284 1.399 . S
C289 C288 1.394 . S
C289 C290 1.516 . S
C290 C289 1.516 . S
C290 C291 1.502 . S
C290 C292 1.561 . S
C290 C293 1.526 . S
C291 H275 0.959 . S
C291 H276 0.959 . S
C291 H277 0.961 . S
C291 C290 1.502 . S
C292 H278 0.960 . S
C292 H279 0.961 . S
C292 H280 0.959 . S
C292 C290 1.561 . S
C293 C290 1.526 . S
C293 C294 1.396 . S
C293 C298 1.390 . S
C294 C288 1.465 . S
C294 C293 1.396 . S
C294 C295 1.399 . S
C295 H281 0.929 . S
C295 C294 1.399 . S
C295 C296 1.385 . S
C296 H282 0.931 . S
C296 C295 1.385 . S
C296 C297 1.389 . S
C297 C296 1.389 . S
C297 C298 1.387 . S
C298 H283 0.930 . S
C298 C293 1.390 . S
C298 C297 1.387 . S
H299 C311 0.930 . S
H300 C313 0.930 . S
H301 C314 0.930 . S
H302 C318 0.959 . S
H303 C318 0.959 . S
H304 C318 0.961 . S
H305 C319 0.960 . S
H306 C319 0.961 . S
H307 C319 0.959 . S
H308 C322 0.929 . S
H309 C323 0.931 . S
H310 C325 0.930 . S
C311 H299 0.930 . S
C311 C312 1.399 . S
C311 C316 1.399 . S
C312 C311 1.399 . S
C312 C313 1.376 . S
C313 H300 0.930 . S
C313 C312 1.376 . S
C313 C314 1.388 . S
C314 H301 0.930 . S
C314 C313 1.388 . S
C314 C315 1.390 . S
C315 C314 1.390 . S
C315 C316 1.394 . S
C315 C321 1.465 . S
C316 C311 1.399 . S
C316 C315 1.394 . S
C316 C317 1.516 . S
C317 C316 1.516 . S
C317 C318 1.502 . S
C317 C319 1.561 . S
C317 C320 1.526 . S
C318 H302 0.959 . S
C318 H303 0.959 . S
C318 H304 0.961 . S
C318 C317 1.502 . S
C319 H305 0.960 . S
C319 H306 0.961 . S
C319 H307 0.959 . S
C319 C317 1.561 . S
C320 C317 1.526 . S
C320 C321 1.396 . S
C320 C325 1.390 . S
C321 C315 1.465 . S
C321 C320 1.396 . S
C321 C322 1.399 . S
C322 H308 0.929 . S
C322 C321 1.399 . S
C322 C323 1.385 . S
C323 H309 0.931 . S
C323 C322 1.385 . S
C323 C324 1.389 . S
C324 C323 1.389 . S
C324 C325 1.387 . S
C325 H310 0.930 . S
C325 C320 1.390 . S
C325 C324 1.387 . S
H326 C338 0.930 . S
H327 C340 0.930 . S
H328 C341 0.930 . S
H329 C345 0.959 . S
H330 C345 0.959 1_655 S
H331 C345 0.961 . S
H332 C346 0.960 1_455 S
H333 C346 0.961 . S
H334 C346 0.959 . S
H335 C349 0.929 . S
H336 C350 0.931 . S
H337 C352 0.930 . S
C338 H326 0.930 . S
C338 C339 1.399 . S
C338 C343 1.399 . S
C339 C338 1.399 . S
C339 C340 1.376 . S
C340 H327 0.930 . S
C340 C339 1.376 . S
C340 C341 1.388 . S
C341 H328 0.930 . S
C341 C340 1.388 . S
C341 C342 1.390 . S
C342 C341 1.390 . S
C342 C343 1.394 . S
C342 C348 1.465 1_455 S
C343 C338 1.399 . S
C343 C342 1.394 . S
C343 C344 1.516 . S
C344 C343 1.516 . S
C344 C345 1.502 . S
C344 C346 1.561 1_455 S
C344 C347 1.526 1_455 S
C345 H329 0.959 . S
C345 H330 0.959 1_455 S
C345 H331 0.961 . S
C345 C344 1.502 . S
C346 H332 0.960 1_655 S
C346 H333 0.961 . S
C346 H334 0.959 . S
C346 C344 1.561 1_655 S
C347 C344 1.526 1_655 S
C347 C348 1.396 . S
C347 C352 1.390 . S
C348 C342 1.465 1_655 S
C348 C347 1.396 . S
C348 C349 1.399 . S
C349 H335 0.929 . S
C349 C348 1.399 . S
C349 C350 1.385 . S
C350 H336 0.931 . S
C350 C349 1.385 . S
C350 C351 1.389 . S
C351 C350 1.389 . S
C351 C352 1.387 . S
C352 H337 0.930 . S
C352 C347 1.390 . S
C352 C351 1.387 . S
H353 C365 0.930 . S
H354 C367 0.930 . S
H355 C368 0.930 . S
H356 C372 0.959 . S
H357 C372 0.959 . S
H358 C372 0.961 1_455 S
H359 C373 0.960 1_455 S
H360 C373 0.961 . S
H361 C373 0.959 1_455 S
H362 C376 0.929 . S
H363 C377 0.931 . S
H364 C379 0.930 . S
C365 H353 0.930 . S
C365 C366 1.399 . S
C365 C370 1.399 . S
C366 C365 1.399 . S
C366 C367 1.376 . S
C367 H354 0.930 . S
C367 C366 1.376 . S
C367 C368 1.388 . S
C368 H355 0.930 . S
C368 C367 1.388 . S
C368 C369 1.390 . S
C369 C368 1.390 . S
C369 C370 1.394 . S
C369 C375 1.465 1_455 S
C370 C365 1.399 . S
C370 C369 1.394 . S
C370 C371 1.516 1_455 S
C371 C370 1.516 1_655 S
C371 C372 1.502 . S
C371 C373 1.561 . S
C371 C374 1.526 . S
C372 H356 0.959 . S
C372 H357 0.959 . S
C372 H358 0.961 1_655 S
C372 C371 1.502 . S
C373 H359 0.960 1_655 S
C373 H360 0.961 . S
C373 H361 0.959 1_655 S
C373 C371 1.561 . S
C374 C371 1.526 . S
C374 C375 1.396 . S
C374 C379 1.390 . S
C375 C369 1.465 1_655 S
C375 C374 1.396 . S
C375 C376 1.399 . S
C376 H362 0.929 . S
C376 C375 1.399 . S
C376 C377 1.385 . S
C377 H363 0.931 . S
C377 C376 1.385 . S
C377 C378 1.389 . S
C378 C377 1.389 . S
C378 C379 1.387 . S
C379 H364 0.930 . S
C379 C374 1.390 . S
C379 C378 1.387 . S
H380 C392 0.930 . S
H381 C394 0.930 . S
H382 C395 0.930 . S
H383 C399 0.959 . S
H384 C399 0.959 . S
H385 C399 0.961 . S
H386 C400 0.960 . S
H387 C400 0.961 . S
H388 C400 0.959 . S
H389 C403 0.929 1_556 S
H390 C404 0.931 . S
H391 C406 0.930 . S
C392 H380 0.930 . S
C392 C393 1.399 . S
C392 C397 1.399 . S
C393 C392 1.399 . S
C393 C394 1.376 . S
C394 H381 0.930 . S
C394 C393 1.376 . S
C394 C395 1.388 . S
C395 H382 0.930 . S
C395 C394 1.388 . S
C395 C396 1.390 . S
C396 C395 1.390 . S
C396 C397 1.394 . S
C396 C402 1.465 1_556 S
C397 C392 1.399 . S
C397 C396 1.394 . S
C397 C398 1.516 1_556 S
C398 C397 1.516 1_554 S
C398 C399 1.502 . S
C398 C400 1.561 . S
C398 C401 1.526 . S
C399 H383 0.959 . S
C399 H384 0.959 . S
C399 H385 0.961 . S
C399 C398 1.502 . S
C400 H386 0.960 . S
C400 H387 0.961 . S
C400 H388 0.959 . S
C400 C398 1.561 . S
C401 C398 1.526 . S
C401 C402 1.396 . S
C401 C406 1.390 . S
C402 C396 1.465 1_554 S
C402 C401 1.396 . S
C402 C403 1.399 . S
C403 H389 0.929 1_554 S
C403 C402 1.399 . S
C403 C404 1.385 . S
C404 H390 0.931 . S
C404 C403 1.385 . S
C404 C405 1.389 . S
C405 C404 1.389 . S
C405 C406 1.387 . S
C406 H391 0.930 . S
C406 C401 1.390 . S
C406 C405 1.387 . S
H407 C419 0.930 . S
H408 C421 0.930 . S
H409 C422 0.930 . S
H410 C426 0.959 . S
H411 C426 0.959 . S
H412 C426 0.961 . S
H413 C427 0.960 . S
H414 C427 0.961 . S
H415 C427 0.959 . S
H416 C430 0.929 . S
H417 C431 0.931 . S
H418 C433 0.930 . S
C419 H407 0.930 . S
C419 C420 1.399 . S
C419 C424 1.399 . S
C420 C419 1.399 . S
C420 C421 1.376 . S
C421 H408 0.930 . S
C421 C420 1.376 . S
C421 C422 1.388 . S
C422 H409 0.930 . S
C422 C421 1.388 . S
C422 C423 1.390 . S
C423 C422 1.390 . S
C423 C424 1.394 . S
C423 C429 1.465 . S
C424 C419 1.399 . S
C424 C423 1.394 . S
C424 C425 1.516 . S
C425 C424 1.516 . S
C425 C426 1.502 . S
C425 C427 1.561 . S
C425 C428 1.526 . S
C426 H410 0.959 . S
C426 H411 0.959 . S
C426 H412 0.961 . S
C426 C425 1.502 . S
C427 H413 0.960 . S
C427 H414 0.961 . S
C427 H415 0.959 . S
C427 C425 1.561 . S
C428 C425 1.526 . S
C428 C429 1.396 . S
C428 C433 1.390 . S
C429 C423 1.465 . S
C429 C428 1.396 . S
C429 C430 1.399 . S
C430 H416 0.929 . S
C430 C429 1.399 . S
C430 C431 1.385 . S
C431 H417 0.931 . S
C431 C430 1.385 . S
C431 C432 1.389 . S
C432 C431 1.389 . S
C432 C433 1.387 . S
C433 H418 0.930 . S
C433 C428 1.390 . S
C433 C432 1.387 . S
H434 C446 0.930 . S
H435 C448 0.930 . S
H436 C449 0.930 . S
H437 C453 0.959 1_554 S
H438 C453 0.959 1_554 S
H439 C453 0.961 . S
H440 C454 0.960 . S
H441 C454 0.961 . S
H442 C454 0.959 . S
H443 C457 0.929 . S
H444 C458 0.931 . S
H445 C460 0.930 . S
C446 H434 0.930 . S
C446 C447 1.399 . S
C446 C451 1.399 . S
C447 C446 1.399 . S
C447 C448 1.376 . S
C448 H435 0.930 . S
C448 C447 1.376 . S
C448 C449 1.388 . S
C449 H436 0.930 . S
C449 C448 1.388 . S
C449 C450 1.390 . S
C450 C449 1.390 . S
C450 C451 1.394 . S
C450 C456 1.465 1_556 S
C451 C446 1.399 . S
C451 C450 1.394 . S
C451 C452 1.516 . S
C452 C451 1.516 . S
C452 C453 1.502 . S
C452 C454 1.561 . S
C452 C455 1.526 1_556 S
C453 H437 0.959 1_556 S
C453 H438 0.959 1_556 S
C453 H439 0.961 . S
C453 C452 1.502 . S
C454 H440 0.960 . S
C454 H441 0.961 . S
C454 H442 0.959 . S
C454 C452 1.561 . S
C455 C452 1.526 1_554 S
C455 C456 1.396 . S
C455 C460 1.390 . S
C456 C450 1.465 1_554 S
C456 C455 1.396 . S
C456 C457 1.399 . S
C457 H443 0.929 . S
C457 C456 1.399 . S
C457 C458 1.385 . S
C458 H444 0.931 . S
C458 C457 1.385 . S
C458 C459 1.389 . S
C459 C458 1.389 . S
C459 C460 1.387 . S
C460 H445 0.930 . S
C460 C455 1.390 . S
C460 C459 1.387 . S
H461 C473 0.930 . S
H462 C475 0.930 . S
H463 C476 0.930 . S
H464 C480 0.959 . S
H465 C480 0.959 . S
H466 C480 0.961 . S
H467 C481 0.960 . S
H468 C481 0.961 . S
H469 C481 0.959 . S
H470 C484 0.929 . S
H471 C485 0.931 . S
H472 C487 0.930 . S
C473 H461 0.930 . S
C473 C474 1.399 . S
C473 C478 1.399 . S
C474 C473 1.399 . S
C474 C475 1.376 . S
C475 H462 0.930 . S
C475 C474 1.376 . S
C475 C476 1.388 . S
C476 H463 0.930 . S
C476 C475 1.388 . S
C476 C477 1.390 . S
C477 C476 1.390 . S
C477 C478 1.394 . S
C477 C483 1.465 . S
C478 C473 1.399 . S
C478 C477 1.394 . S
C478 C479 1.516 . S
C479 C478 1.516 . S
C479 C480 1.502 . S
C479 C481 1.561 . S
C479 C482 1.526 . S
C480 H464 0.959 . S
C480 H465 0.959 . S
C480 H466 0.961 . S
C480 C479 1.502 . S
C481 H467 0.960 . S
C481 H468 0.961 . S
C481 H469 0.959 . S
C481 C479 1.561 . S
C482 C479 1.526 . S
C482 C483 1.396 . S
C482 C487 1.390 . S
C483 C477 1.465 . S
C483 C482 1.396 . S
C483 C484 1.399 . S
C484 H470 0.929 . S
C484 C483 1.399 . S
C484 C485 1.385 . S
C485 H471 0.931 . S
C485 C484 1.385 . S
C485 C486 1.389 . S
C486 C485 1.389 . S
C486 C487 1.387 . S
C487 H472 0.930 . S
C487 C482 1.390 . S
C487 C486 1.387 . S
H488 C500 0.930 . S
H489 C502 0.930 . S
H490 C503 0.930 1_565 S
H491 C507 0.959 . S
H492 C507 0.959 . S
H493 C507 0.961 . S
H494 C508 0.960 . S
H495 C508 0.961 . S
H496 C508 0.959 . S
H497 C511 0.929 . S
H498 C512 0.931 . S
H499 C514 0.930 . S
C500 H488 0.930 . S
C500 C501 1.399 . S
C500 C505 1.399 . S
C501 C500 1.399 . S
C501 C502 1.376 . S
C502 H489 0.930 . S
C502 C501 1.376 . S
C502 C503 1.388 . S
C503 H490 0.930 1_545 S
C503 C502 1.388 . S
C503 C504 1.390 . S
C504 C503 1.390 . S
C504 C505 1.394 . S
C504 C510 1.465 1_546 S
C505 C500 1.399 . S
C505 C504 1.394 . S
C505 C506 1.516 1_556 S
C506 C505 1.516 1_554 S
C506 C507 1.502 . S
C506 C508 1.561 . S
C506 C509 1.526 1_545 S
C507 H491 0.959 . S
C507 H492 0.959 . S
C507 H493 0.961 . S
C507 C506 1.502 . S
C508 H494 0.960 . S
C508 H495 0.961 . S
C508 H496 0.959 . S
C508 C506 1.561 . S
C509 C506 1.526 1_565 S
C509 C510 1.396 . S
C509 C514 1.390 . S
C510 C504 1.465 1_564 S
C510 C509 1.396 . S
C510 C511 1.399 1_554 S
C511 H497 0.929 . S
C511 C510 1.399 1_556 S
C511 C512 1.385 1_556 S
C512 H498 0.931 . S
C512 C511 1.385 1_554 S
C512 C513 1.389 . S
C513 C512 1.389 . S
C513 C514 1.387 . S
C514 H499 0.930 . S
C514 C509 1.390 . S
C514 C513 1.387 . S
H515 C527 0.930 . S
H516 C529 0.930 . S
H517 C530 0.930 . S
H518 C534 0.959 1_565 S
H519 C534 0.959 . S
H520 C534 0.961 . S
H521 C535 0.960 . S
H522 C535 0.961 . S
H523 C535 0.959 . S
H524 C538 0.929 . S
H525 C539 0.931 . S
H526 C541 0.930 . S
C527 H515 0.930 . S
C527 C528 1.399 . S
C527 C532 1.399 . S
C528 C527 1.399 . S
C528 C529 1.376 . S
C529 H516 0.930 . S
C529 C528 1.376 . S
C529 C530 1.388 . S
C530 H517 0.930 . S
C530 C529 1.388 . S
C530 C531 1.390 . S
C531 C530 1.390 . S
C531 C532 1.394 . S
C531 C537 1.465 1_545 S
C532 C527 1.399 . S
C532 C531 1.394 . S
C532 C533 1.516 . S
C533 C532 1.516 . S
C533 C534 1.502 . S
C533 C535 1.561 . S
C533 C536 1.526 1_545 S
C534 H518 0.959 1_545 S
C534 H519 0.959 . S
C534 H520 0.961 . S
C534 C533 1.502 . S
C535 H521 0.960 . S
C535 H522 0.961 . S
C535 H523 0.959 . S
C535 C533 1.561 . S
C536 C533 1.526 1_565 S
C536 C537 1.396 . S
C536 C541 1.390 . S
C537 C531 1.465 1_565 S
C537 C536 1.396 . S
C537 C538 1.399 . S
C538 H524 0.929 . S
C538 C537 1.399 . S
C538 C539 1.385 . S
C539 H525 0.931 . S
C539 C538 1.385 . S
C539 C540 1.389 . S
C540 C539 1.389 . S
C540 C541 1.387 . S
C541 H526 0.930 . S
C541 C536 1.390 . S
C541 C540 1.387 . S
H542 C554 0.930 . S
H543 C556 0.930 . S
H544 C557 0.932 . S
H545 C561 0.959 . S
H546 C561 0.959 . S
H547 C561 0.961 . S
H548 C562 0.960 . S
H549 C562 0.961 . S
H550 C562 0.959 . S
H551 C565 0.929 1_556 S
H552 C566 0.931 . S
H553 C568 0.930 . S
C554 H542 0.930 . S
C554 C555 1.399 . S
C554 C559 1.399 . S
C555 C554 1.399 . S
C555 C556 1.376 . S
C556 H543 0.930 . S
C556 C555 1.376 . S
C556 C557 1.386 1_545 S
C557 H544 0.932 . S
C557 C556 1.386 1_565 S
C557 C558 1.390 1_565 S
C558 C557 1.390 1_545 S
C558 C559 1.394 . S
C558 C564 1.465 1_546 S
C559 C554 1.399 . S
C559 C558 1.394 . S
C559 C560 1.516 1_556 S
C560 C559 1.516 1_554 S
C560 C561 1.502 . S
C560 C562 1.561 . S
C560 C563 1.526 1_545 S
C561 H545 0.959 . S
C561 H546 0.959 . S
C561 H547 0.961 . S
C561 C560 1.502 . S
C562 H548 0.960 . S
C562 H549 0.961 . S
C562 H550 0.959 . S
C562 C560 1.561 . S
C563 C560 1.526 1_565 S
C563 C564 1.396 . S
C563 C568 1.390 . S
C564 C558 1.465 1_564 S
C564 C563 1.396 . S
C564 C565 1.399 . S
C565 H551 0.929 1_554 S
C565 C564 1.399 . S
C565 C566 1.385 . S
C566 H552 0.931 . S
C566 C565 1.385 . S
C566 C567 1.389 . S
C567 C566 1.389 . S
C567 C568 1.387 . S
C568 H553 0.930 . S
C568 C563 1.390 . S
C568 C567 1.387 . S
H569 C581 0.930 . S
H570 C583 0.930 . S
H571 C584 0.930 . S
H572 C588 0.959 . S
H573 C588 0.959 . S
H574 C588 0.961 . S
H575 C589 0.960 . S
H576 C589 0.946 1_565 S
H577 C589 0.959 . S
H578 C592 0.927 . S
H579 C593 0.931 . S
H580 C595 0.930 . S
C581 H569 0.930 . S
C581 C582 1.399 . S
C581 C586 1.399 . S
C582 C581 1.399 . S
C582 C583 1.376 . S
C583 H570 0.930 . S
C583 C582 1.376 . S
C583 C584 1.388 . S
C584 H571 0.930 . S
C584 C583 1.388 . S
C584 C585 1.390 . S
C585 C584 1.390 . S
C585 C586 1.394 . S
C585 C591 1.465 1_545 S
C586 C581 1.399 . S
C586 C585 1.394 . S
C586 C587 1.516 1_545 S
C587 C586 1.516 1_565 S
C587 C588 1.502 . S
C587 C589 1.561 1_565 S
C587 C590 1.526 . S
C588 H572 0.959 . S
C588 H573 0.959 . S
C588 H574 0.961 . S
C588 C587 1.502 . S
C589 H575 0.960 . S
C589 H576 0.946 1_545 S
C589 H577 0.959 . S
C589 C587 1.561 1_545 S
C590 C587 1.526 . S
C590 C591 1.396 . S
C590 C595 1.390 . S
C591 C585 1.465 1_565 S
C591 C590 1.396 . S
C591 C592 1.399 . S
C592 H578 0.927 . S
C592 C591 1.399 . S
C592 C593 1.385 . S
C593 H579 0.931 . S
C593 C592 1.385 . S
C593 C594 1.389 . S
C594 C593 1.389 . S
C594 C595 1.387 . S
C595 H580 0.930 . S
C595 C590 1.390 . S
C595 C594 1.387 . S
H596 C608 0.930 . S
H597 C610 0.930 . S
H598 C611 0.930 . S
H599 C615 0.959 . S
H600 C615 0.959 . S
H601 C615 0.961 . S
H602 C616 0.960 . S
H603 C616 0.961 . S
H604 C616 0.959 . S
H605 C619 0.929 . S
H606 C620 0.931 . S
H607 C622 0.930 . S
C608 H596 0.930 . S
C608 C609 1.399 1_556 S
C608 C613 1.399 . S
C609 C608 1.399 1_554 S
C609 C610 1.376 . S
C610 H597 0.930 . S
C610 C609 1.376 . S
C610 C611 1.388 1_554 S
C611 H598 0.930 . S
C611 C610 1.388 1_556 S
C611 C612 1.390 . S
C612 C611 1.390 . S
C612 C613 1.394 . S
C612 C618 1.465 . S
C613 C608 1.399 . S
C613 C612 1.394 . S
C613 C614 1.516 . S
C614 C613 1.516 . S
C614 C615 1.502 . S
C614 C616 1.561 . S
C614 C617 1.526 . S
C615 H599 0.959 . S
C615 H600 0.959 . S
C615 H601 0.961 . S
C615 C614 1.502 . S
C616 H602 0.960 . S
C616 H603 0.961 . S
C616 H604 0.959 . S
C616 C614 1.561 . S
C617 C614 1.526 . S
C617 C618 1.396 . S
C617 C622 1.390 . S
C618 C612 1.465 . S
C618 C617 1.396 . S
C618 C619 1.399 . S
C619 H605 0.929 . S
C619 C618 1.399 . S
C619 C620 1.385 . S
C620 H606 0.931 . S
C620 C619 1.385 . S
C620 C621 1.389 . S
C621 C620 1.389 . S
C621 C622 1.387 . S
C622 H607 0.930 . S
C622 C617 1.390 . S
C622 C621 1.387 . S
H623 C635 0.930 . S
H624 C637 0.930 . S
H625 C638 0.930 . S
H626 C642 0.959 . S
H627 C642 0.959 . S
H628 C642 0.961 . S
H629 C643 0.960 . S
H630 C643 0.961 . S
H631 C643 0.959 . S
H632 C646 0.929 . S
H633 C647 0.931 . S
H634 C649 0.930 . S
C635 H623 0.930 . S
C635 C636 1.399 . S
C635 C640 1.399 . S
C636 C635 1.399 . S
C636 C637 1.376 . S
C637 H624 0.930 . S
C637 C636 1.376 . S
C637 C638 1.388 . S
C638 H625 0.930 . S
C638 C637 1.388 . S
C638 C639 1.390 . S
C639 C638 1.390 . S
C639 C640 1.394 . S
C639 C645 1.465 . S
C640 C635 1.399 . S
C640 C639 1.394 . S
C640 C641 1.516 . S
C641 C640 1.516 . S
C641 C642 1.502 . S
C641 C643 1.561 . S
C641 C644 1.526 . S
C642 H626 0.959 . S
C642 H627 0.959 . S
C642 H628 0.961 . S
C642 C641 1.502 . S
C643 H629 0.960 . S
C643 H630 0.961 . S
C643 H631 0.959 . S
C643 C641 1.561 . S
C644 C641 1.526 . S
C644 C645 1.396 . S
C644 C649 1.390 . S
C645 C639 1.465 . S
C645 C644 1.396 . S
C645 C646 1.399 . S
C646 H632 0.929 . S
C646 C645 1.399 . S
C646 C647 1.385 . S
C647 H633 0.931 . S
C647 C646 1.385 . S
C647 C648 1.389 . S
C648 C647 1.389 . S
C648 C649 1.387 . S
C649 H634 0.930 . S
C649 C644 1.390 . S
C649 C648 1.387 . S
H650 C662 0.930 . S
H651 C664 0.930 . S
H652 C665 0.930 . S
H653 C669 0.959 . S
H654 C669 0.959 . S
H655 C669 0.961 . S
H656 C670 0.960 . S
H657 C670 0.961 . S
H658 C670 0.959 . S
H659 C673 0.929 . S
H660 C674 0.931 . S
H661 C676 0.930 . S
C662 H650 0.930 . S
C662 C663 1.399 . S
C662 C667 1.399 . S
C663 C662 1.399 . S
C663 C664 1.376 . S
C664 H651 0.930 . S
C664 C663 1.376 . S
C664 C665 1.388 . S
C665 H652 0.930 . S
C665 C664 1.388 . S
C665 C666 1.390 . S
C666 C665 1.390 . S
C666 C667 1.394 . S
C666 C672 1.465 . S
C667 C662 1.399 . S
C667 C666 1.394 . S
C667 C668 1.516 . S
C668 C667 1.516 . S
C668 C669 1.502 1_554 S
C668 C670 1.561 . S
C668 C671 1.526 . S
C669 H653 0.959 . S
C669 H654 0.959 . S
C669 H655 0.961 . S
C669 C668 1.502 1_556 S
C670 H656 0.960 . S
C670 H657 0.961 . S
C670 H658 0.959 . S
C670 C668 1.561 . S
C671 C668 1.526 . S
C671 C672 1.396 . S
C671 C676 1.390 1_554 S
C672 C666 1.465 . S
C672 C671 1.396 . S
C672 C673 1.399 . S
C673 H659 0.929 . S
C673 C672 1.399 . S
C673 C674 1.385 . S
C674 H660 0.931 . S
C674 C673 1.385 . S
C674 C675 1.389 1_554 S
C675 C674 1.389 1_556 S
C675 C676 1.387 . S
C676 H661 0.930 . S
C676 C671 1.390 1_556 S
C676 C675 1.387 . S
H677 C689 0.930 . S
H678 C691 0.930 . S
H679 C692 0.930 . S
H680 C696 0.959 . S
H681 C696 0.959 . S
H682 C696 0.961 . S
H683 C697 0.960 . S
H684 C697 0.961 . S
H685 C697 0.959 . S
H686 C700 0.929 . S
H687 C701 0.931 . S
H688 C703 0.930 . S
C689 H677 0.930 . S
C689 C690 1.399 . S
C689 C694 1.399 . S
C690 C689 1.399 . S
C690 C691 1.376 . S
C691 H678 0.930 . S
C691 C690 1.376 . S
C691 C692 1.388 . S
C692 H679 0.930 . S
C692 C691 1.388 . S
C692 C693 1.390 . S
C693 C692 1.390 . S
C693 C694 1.394 . S
C693 C699 1.465 . S
C694 C689 1.399 . S
C694 C693 1.394 . S
C694 C695 1.516 . S
C695 C694 1.516 . S
C695 C696 1.502 . S
C695 C697 1.561 . S
C695 C698 1.526 . S
C696 H680 0.959 . S
C696 H681 0.959 . S
C696 H682 0.961 . S
C696 C695 1.502 . S
C697 H683 0.960 . S
C697 H684 0.961 . S
C697 H685 0.959 . S
C697 C695 1.561 . S
C698 C695 1.526 . S
C698 C699 1.396 . S
C698 C703 1.390 . S
C699 C693 1.465 . S
C699 C698 1.396 . S
C699 C700 1.399 . S
C700 H686 0.929 . S
C700 C699 1.399 . S
C700 C701 1.385 . S
C701 H687 0.931 . S
C701 C700 1.385 . S
C701 C702 1.389 . S
C702 C701 1.389 . S
C702 C703 1.387 . S
C703 H688 0.930 . S
C703 C698 1.390 . S
C703 C702 1.387 . S
H704 C716 0.930 . S
H705 C718 0.930 . S
H706 C719 0.930 . S
H707 C723 0.959 . S
H708 C723 0.959 . S
H709 C723 0.961 . S
H710 C724 0.960 . S
H711 C724 0.961 . S
H712 C724 0.959 . S
H713 C727 0.929 . S
H714 C728 0.931 . S
H715 C730 0.930 . S
C716 H704 0.930 . S
C716 C717 1.399 . S
C716 C721 1.399 . S
C717 C716 1.399 . S
C717 C718 1.376 . S
C718 H705 0.930 . S
C718 C717 1.376 . S
C718 C719 1.388 . S
C719 H706 0.930 . S
C719 C718 1.388 . S
C719 C720 1.390 . S
C720 C719 1.390 . S
C720 C721 1.394 . S
C720 C726 1.465 . S
C721 C716 1.399 . S
C721 C720 1.394 . S
C721 C722 1.516 . S
C722 C721 1.516 . S
C722 C723 1.502 1_556 S
C722 C724 1.561 . S
C722 C725 1.526 . S
C723 H707 0.959 . S
C723 H708 0.959 . S
C723 H709 0.961 . S
C723 C722 1.502 1_554 S
C724 H710 0.960 . S
C724 H711 0.961 . S
C724 H712 0.959 . S
C724 C722 1.561 . S
C725 C722 1.526 . S
C725 C726 1.396 . S
C725 C730 1.390 1_556 S
C726 C720 1.465 . S
C726 C725 1.396 . S
C726 C727 1.399 . S
C727 H713 0.929 . S
C727 C726 1.399 . S
C727 C728 1.385 . S
C728 H714 0.931 . S
C728 C727 1.385 . S
C728 C729 1.389 1_556 S
C729 C728 1.389 1_554 S
C729 C730 1.387 . S
C730 H715 0.930 . S
C730 C725 1.390 1_554 S
C730 C729 1.387 . S
H731 C743 0.930 . S
H732 C745 0.930 . S
H733 C746 0.930 . S
H734 C750 0.959 . S
H735 C750 0.959 . S
H736 C750 0.961 . S
H737 C751 0.960 . S
H738 C751 0.961 . S
H739 C751 0.959 . S
H740 C754 0.929 . S
H741 C755 0.931 . S
H742 C757 0.930 . S
C743 H731 0.930 . S
C743 C744 1.399 . S
C743 C748 1.399 . S
C744 C743 1.399 . S
C744 C745 1.376 . S
C745 H732 0.930 . S
C745 C744 1.376 . S
C745 C746 1.388 . S
C746 H733 0.930 . S
C746 C745 1.388 . S
C746 C747 1.390 . S
C747 C746 1.390 . S
C747 C748 1.394 . S
C747 C753 1.465 . S
C748 C743 1.399 . S
C748 C747 1.394 . S
C748 C749 1.516 . S
C749 C748 1.516 . S
C749 C750 1.502 . S
C749 C751 1.561 . S
C749 C752 1.526 . S
C750 H734 0.959 . S
C750 H735 0.959 . S
C750 H736 0.961 . S
C750 C749 1.502 . S
C751 H737 0.960 . S
C751 H738 0.961 . S
C751 H739 0.959 . S
C751 C749 1.561 . S
C752 C749 1.526 . S
C752 C753 1.396 . S
C752 C757 1.390 . S
C753 C747 1.465 . S
C753 C752 1.396 . S
C753 C754 1.399 . S
C754 H740 0.929 . S
C754 C753 1.399 . S
C754 C755 1.385 . S
C755 H741 0.931 . S
C755 C754 1.385 . S
C755 C756 1.389 . S
C756 C755 1.389 . S
C756 C757 1.387 . S
C757 H742 0.930 . S
C757 C752 1.390 . S
C757 C756 1.387 . S
H758 C770 0.930 . S
H759 C772 0.930 . S
H760 C773 0.930 . S
H761 C777 0.959 . S
H762 C777 0.959 . S
H763 C777 0.961 . S
H764 C778 0.960 . S
H765 C778 0.961 . S
H766 C778 0.959 . S
H767 C781 0.929 . S
H768 C782 0.931 . S
H769 C784 0.930 . S
C770 H758 0.930 . S
C770 C771 1.399 . S
C770 C775 1.399 1_556 S
C771 C770 1.399 . S
C771 C772 1.376 1_556 S
C772 H759 0.930 . S
C772 C771 1.376 1_554 S
C772 C773 1.388 . S
C773 H760 0.930 . S
C773 C772 1.388 . S
C773 C774 1.390 . S
C774 C773 1.390 . S
C774 C775 1.394 . S
C774 C780 1.465 . S
C775 C770 1.399 1_554 S
C775 C774 1.394 . S
C775 C776 1.516 . S
C776 C775 1.516 . S
C776 C777 1.502 . S
C776 C778 1.561 1_554 S
C776 C779 1.526 . S
C777 H761 0.959 . S
C777 H762 0.959 . S
C777 H763 0.961 . S
C777 C776 1.502 . S
C778 H764 0.960 . S
C778 H765 0.961 . S
C778 H766 0.959 . S
C778 C776 1.561 1_556 S
C779 C776 1.526 . S
C779 C780 1.396 . S
C779 C784 1.390 . S
C780 C774 1.465 . S
C780 C779 1.396 . S
C780 C781 1.399 . S
C781 H767 0.929 . S
C781 C780 1.399 . S
C781 C782 1.385 . S
C782 H768 0.931 . S
C782 C781 1.385 . S
C782 C783 1.389 . S
C783 C782 1.389 . S
C783 C784 1.387 . S
C784 H769 0.930 . S
C784 C779 1.390 . S
C784 C783 1.387 . S
H785 C797 0.930 . S
H786 C799 0.930 . S
H787 C800 0.930 . S
H788 C804 0.959 . S
H789 C804 0.959 . S
H790 C804 0.961 . S
H791 C805 0.960 . S
H792 C805 0.961 . S
H793 C805 0.959 . S
H794 C808 0.929 . S
H795 C809 0.931 . S
H796 C811 0.930 . S
C797 H785 0.930 . S
C797 C798 1.399 . S
C797 C802 1.399 . S
C798 C797 1.399 . S
C798 C799 1.376 . S
C799 H786 0.930 . S
C799 C798 1.376 . S
C799 C800 1.388 . S
C800 H787 0.930 . S
C800 C799 1.388 . S
C800 C801 1.390 . S
C801 C800 1.390 . S
C801 C802 1.394 . S
C801 C807 1.465 . S
C802 C797 1.399 . S
C802 C801 1.394 . S
C802 C803 1.516 . S
C803 C802 1.516 . S
C803 C804 1.502 . S
C803 C805 1.561 . S
C803 C806 1.526 . S
C804 H788 0.959 . S
C804 H789 0.959 . S
C804 H790 0.961 . S
C804 C803 1.502 . S
C805 H791 0.960 . S
C805 H792 0.961 . S
C805 H793 0.959 . S
C805 C803 1.561 . S
C806 C803 1.526 . S
C806 C807 1.396 . S
C806 C811 1.390 . S
C807 C801 1.465 . S
C807 C806 1.396 . S
C807 C808 1.399 . S
C808 H794 0.929 . S
C808 C807 1.399 . S
C808 C809 1.385 . S
C809 H795 0.931 . S
C809 C808 1.385 . S
C809 C810 1.389 . S
C810 C809 1.389 . S
C810 C811 1.387 . S
C811 H796 0.930 . S
C811 C806 1.390 . S
C811 C810 1.387 . S
C285 C33 1.528 . S
C297 C135 1.544 . S
C312 C67 1.526 . S
C324 C101 1.546 . S
C339 C271 1.543 . S
C351 C169 1.529 . S
C366 C203 1.527 . S
C378 C237 1.546 . S
C393 C70 2.052 . S
C405 C2 2.054 . S
C420 C104 2.053 . S
C432 C36 2.049 . S
C447 C39 1.316 . S
C459 C107 1.318 . S
C474 C5 1.357 . S
C486 C73 1.351 . S
C501 C206 2.050 . S
C513 C138 2.054 . S
C528 C172 2.053 . S
C540 C240 2.055 . S
C555 C175 1.358 . S
C567 C243 1.353 . S
C582 C209 1.353 . S
C594 C141 1.358 . S
C609 C9 1.270 . S
C621 C190 1.346 . S
C636 C43 1.287 . S
C648 C156 1.343 . S
C663 C258 1.345 . S
C675 C77 1.339 . S
C690 C111 1.267 . S
C702 C224 1.345 . S
C717 C54 1.345 . S
C729 C145 1.339 . S
C744 C179 1.322 . S
C756 C20 1.343 . S
C771 C213 1.345 . S
C783 C122 1.344 . S
C798 C247 1.270 . S
C810 C88 1.346 . S
