# Generated by pormake.
# Topology svf, (7)-cn, num edge types: 1
# Building blocks:
#     Node 0, Type 0, BuildingBlock: HICVOG_clean_sbu_0, # of connection points: 7
#     Node 1, Type 0, BuildingBlock: HICVOG_clean_sbu_0, # of connection points: 7
#     Node 2, Type 0, BuildingBlock: HICVOG_clean_sbu_0, # of connection points: 7
#     Node 3, Type 0, BuildingBlock: HICVOG_clean_sbu_0, # of connection points: 7
#     Node 4, Type 0, BuildingBlock: HICVOG_clean_sbu_0, # of connection points: 7
#     Node 5, Type 0, BuildingBlock: HICVOG_clean_sbu_0, # of connection points: 7
#     Node 6, Type 0, BuildingBlock: HICVOG_clean_sbu_0, # of connection points: 7
#     Node 7, Type 0, BuildingBlock: HICVOG_clean_sbu_0, # of connection points: 7
#     Edge 8, Type (0, 0), BuildingBlock: TEMPAE_clean_linker_10, # of connection points: 2
#     Edge 9, Type (0, 0), BuildingBlock: TEMPAE_clean_linker_10, # of connection points: 2
#     Edge 10, Type (0, 0), BuildingBlock: TEMPAE_clean_linker_10, # of connection points: 2
#     Edge 11, Type (0, 0), BuildingBlock: TEMPAE_clean_linker_10, # of connection points: 2
#     Edge 12, Type (0, 0), BuildingBlock: TEMPAE_clean_linker_10, # of connection points: 2
#     Edge 13, Type (0, 0), BuildingBlock: TEMPAE_clean_linker_10, # of connection points: 2
#     Edge 14, Type (0, 0), BuildingBlock: TEMPAE_clean_linker_10, # of connection points: 2
#     Edge 15, Type (0, 0), BuildingBlock: TEMPAE_clean_linker_10, # of connection points: 2
#     Edge 16, Type (0, 0), BuildingBlock: TEMPAE_clean_linker_10, # of connection points: 2
#     Edge 17, Type (0, 0), BuildingBlock: TEMPAE_clean_linker_10, # of connection points: 2
#     Edge 18, Type (0, 0), BuildingBlock: TEMPAE_clean_linker_10, # of connection points: 2
#     Edge 19, Type (0, 0), BuildingBlock: TEMPAE_clean_linker_10, # of connection points: 2
#     Edge 20, Type (0, 0), BuildingBlock: TEMPAE_clean_linker_10, # of connection points: 2
#     Edge 21, Type (0, 0), BuildingBlock: TEMPAE_clean_linker_10, # of connection points: 2
#     Edge 22, Type (0, 0), BuildingBlock: TEMPAE_clean_linker_10, # of connection points: 2
#     Edge 23, Type (0, 0), BuildingBlock: TEMPAE_clean_linker_10, # of connection points: 2
#     Edge 24, Type (0, 0), BuildingBlock: TEMPAE_clean_linker_10, # of connection points: 2
#     Edge 25, Type (0, 0), BuildingBlock: TEMPAE_clean_linker_10, # of connection points: 2
#     Edge 26, Type (0, 0), BuildingBlock: TEMPAE_clean_linker_10, # of connection points: 2
#     Edge 27, Type (0, 0), BuildingBlock: TEMPAE_clean_linker_10, # of connection points: 2
#     Edge 28, Type (0, 0), BuildingBlock: TEMPAE_clean_linker_10, # of connection points: 2
#     Edge 29, Type (0, 0), BuildingBlock: TEMPAE_clean_linker_10, # of connection points: 2
#     Edge 30, Type (0, 0), BuildingBlock: TEMPAE_clean_linker_10, # of connection points: 2
#     Edge 31, Type (0, 0), BuildingBlock: TEMPAE_clean_linker_10, # of connection points: 2
#     Edge 32, Type (0, 0), BuildingBlock: TEMPAE_clean_linker_10, # of connection points: 2
#     Edge 33, Type (0, 0), BuildingBlock: TEMPAE_clean_linker_10, # of connection points: 2
#     Edge 34, Type (0, 0), BuildingBlock: TEMPAE_clean_linker_10, # of connection points: 2
#     Edge 35, Type (0, 0), BuildingBlock: TEMPAE_clean_linker_10, # of connection points: 2
# Relax obj value: 0.349
# Max RMSD: 0.192
# Mean RMSD: 0.192
data_MOF--net-svf--node1-HICVOG_clean_sbu_0--edge1-TEMPAE_clean_linker_10
_symmetry_space_group_name_H-M    P1
_symmetry_Int_Tables_number       1
_symmetry_cell_setting            triclinic
loop_
_symmetry_equiv_pos_as_xyz
'x, y, z'
_cell_length_a     34.023791
_cell_length_b     34.132515
_cell_length_c     24.432529
_cell_angle_alpha  90.071169
_cell_angle_beta   90.007637
_cell_angle_gamma 89.928864
loop_
_atom_site_label
_atom_site_type_symbol
_atom_site_fract_x
_atom_site_fract_y
_atom_site_fract_z
_atom_type_partial_charge
Zn0 Zn 0.18438 0.3452 0.99148 0.0
C1 C 0.24983 0.29409 0.11534 0.0
N2 N 0.27059 0.2785 0.07261 0.0
C3 C 0.25147 0.29164 1.02691 0.0
N4 N 0.22044 0.31499 1.04141 0.0
N5 N 0.2199 0.31694 0.09585 0.0
C6 C 0.21943 0.3817 0.21338 0.0
O7 O 0.23935 0.38792 0.16814 0.0
O8 O 0.14332 0.3123 0.95224 0.0
Zn9 Zn 0.17595 0.3411 0.13549 0.0
N10 N 0.21801 0.36488 0.93515 0.0
C11 C 0.28257 0.381 0.90603 0.0
C12 C 0.25594 0.37339 0.94787 0.0
C13 C 0.20496 0.36568 0.8826 0.0
N14 N 0.26981 0.38082 0.85345 0.0
C15 C 0.2317 0.37314 0.84049 0.0
O16 O 0.14951 0.39249 0.10867 0.0
C17 C 0.13965 0.40803 1.06335 0.0
O18 O 0.15112 0.39267 1.01854 0.0
H19 H 0.26571 0.37268 0.98997 0.0
H20 H 0.1744 0.3597 0.8737 0.0
C21 C 0.09779 0.31619 0.14057 0.0
C22 C 0.06582 0.29294 0.12521 0.0
C23 C 0.10949 0.2435 0.09478 0.0
C24 C 0.14135 0.26695 0.10951 0.0
N25 N 0.13475 0.303 0.13164 0.0
N26 N 0.07239 0.25707 0.1027 0.0
H27 H 0.09339 0.34532 0.15711 0.0
C28 C 0.10797 0.31024 0.96874 0.0
O29 O 0.09866 0.3254 1.01632 0.0
O30 O 0.19093 0.35764 0.21193 0.0
H31 H 0.17093 0.25706 0.10124 0.0
H32 H 0.31309 0.387 0.91514 0.0
H33 H 0.11419 0.21502 0.07645 0.0
Zn34 Zn 0.68318 0.15105 0.12631 0.0
C35 C 0.71458 0.23249 1.01565 0.0
N36 N 0.73212 0.25053 1.05937 0.0
C37 C 0.71992 0.22947 0.10383 0.0
N38 N 0.69578 0.19971 0.08704 0.0
N39 N 0.69158 0.20219 1.03311 0.0
C40 C 0.67358 0.11245 0.94072 0.0
O41 O 0.68299 0.10714 0.99221 0.0
O42 O 0.6526 0.16323 0.19613 0.0
Zn43 Zn 0.64545 0.17849 0.99517 0.0
N44 N 0.73474 0.12664 0.12798 0.0
C45 C 0.79078 0.11311 0.07218 0.0
C46 C 0.75252 0.12688 0.07801 0.0
C47 C 0.75437 0.11391 0.17291 0.0
N48 N 0.81023 0.09986 0.11679 0.0
C49 C 0.79325 0.10049 0.1671 0.0
O50 O 0.60891 0.13925 1.03493 0.0
C51 C 0.61316 0.11127 0.06878 0.0
O52 O 0.64421 0.10923 0.09775 0.0
H53 H 0.73742 0.13852 1.04288 0.0
H54 H 0.7399 0.114 0.21239 0.0
C55 C 0.61684 0.24957 0.94296 0.0
C56 C 0.59319 0.28352 0.94208 0.0
C57 C 0.56256 0.26297 1.02452 0.0
C58 C 0.58466 0.22876 1.02374 0.0
N59 N 0.61158 0.22284 0.98344 0.0
N60 N 0.56699 0.28921 0.9835 0.0
H61 H 0.63896 0.24422 0.91208 0.0
C62 C 0.62508 0.1875 0.18618 0.0
O63 O 0.62478 0.20516 0.13857 0.0
O64 O 0.65809 0.14511 0.92717 0.0
H65 H 0.58093 0.2074 1.0558 0.0
H66 H 0.80494 0.11301 1.03254 0.0
H67 H 0.54147 0.26831 1.05682 0.0
Zn68 Zn 0.84478 0.64411 1.00861 0.0
C69 C 0.79883 0.72345 0.11396 0.0
N70 N 0.77726 0.73579 0.07009 0.0
C71 C 0.79243 0.71528 1.02685 0.0
N72 N 0.82172 0.6909 1.0442 0.0
N73 N 0.82643 0.69693 0.09754 0.0
C74 C 0.82986 0.65219 0.22347 0.0
O75 O 0.80492 0.6494 0.18276 0.0
O76 O 0.85095 0.65016 0.92662 0.0
Zn77 Zn 0.87533 0.68346 0.1369 0.0
N78 N 0.81065 0.60266 1.03382 0.0
C79 C 0.79135 0.56679 0.11293 0.0
C80 C 0.81635 0.59323 0.08725 0.0
C81 C 0.78125 0.58599 1.00442 0.0
N82 N 0.76195 0.55006 0.08375 0.0
C83 C 0.75592 0.55886 1.03007 0.0
O84 O 0.91155 0.63657 0.11455 0.0
C85 C 0.92075 0.61832 0.07084 0.0
O86 O 0.90035 0.62293 1.02766 0.0
H87 H 0.83988 0.60678 0.10999 0.0
H88 H 0.77854 0.59308 0.96149 0.0
C89 C 0.93022 0.74925 0.1597 0.0
C90 C 0.9514 0.78253 0.14208 0.0
C91 C 0.92448 0.77547 1.05339 0.0
C92 C 0.90444 0.74226 0.07056 0.0
N93 N 0.9071 0.72992 0.12332 0.0
N94 N 0.94781 0.79462 0.08932 0.0
H95 H 0.93301 0.73805 0.20093 0.0
C96 C 0.86627 0.68265 0.91262 0.0
O97 O 0.86667 0.71129 0.94837 0.0
O98 O 0.86241 0.66985 0.21585 0.0
H99 H 0.88714 0.72609 1.04176 0.0
H100 H 0.79545 0.55938 0.15561 0.0
H101 H 0.92222 0.78546 1.01149 0.0
Zn102 Zn 0.36266 0.83236 1.02096 0.0
C103 C 0.29554 0.78131 0.13495 0.0
N104 N 0.27945 0.76188 0.0913 0.0
C105 C 0.29554 0.78008 1.04671 0.0
N106 N 0.32019 0.80918 1.06309 0.0
N107 N 0.32023 0.80994 0.11725 0.0
C108 C 0.39136 0.83148 0.21616 0.0
O109 O 0.39777 0.82235 0.16477 0.0
O110 O 0.34589 0.86592 0.95588 0.0
Zn111 Zn 0.33088 0.85847 0.15628 0.0
N112 N 0.39074 0.7865 1.00074 0.0
C113 C 0.42337 0.72938 1.03281 0.0
C114 C 0.40716 0.76611 1.04265 0.0
C115 C 0.38931 0.77168 0.9494 0.0
N116 N 0.4232 0.71497 0.98113 0.0
C117 C 0.40682 0.73519 0.93883 0.0
O118 O 0.37015 0.89991 0.12374 0.0
C119 C 0.39976 0.89738 0.09159 0.0
O120 O 0.40269 0.86862 1.05848 0.0
H121 H 0.40652 0.7778 0.08363 0.0
H122 H 0.37444 0.7881 0.91769 0.0
C123 C 0.25622 0.8854 0.20426 0.0
C124 C 0.21596 0.89468 0.19911 0.0
C125 C 0.22099 0.88922 0.10288 0.0
C126 C 0.26075 0.88061 0.10802 0.0
N127 N 0.27787 0.87928 0.15836 0.0
N128 N 0.19961 0.89662 0.14841 0.0
H129 H 0.27032 0.88375 0.24392 0.0
C130 C 0.3334 0.89985 0.96917 0.0
O131 O 0.32874 0.90796 1.02121 0.0
O132 O 0.35837 0.84692 0.22858 0.0
H133 H 0.27749 0.87345 0.07203 0.0
H134 H 0.43627 0.71259 1.06578 0.0
H135 H 0.20724 0.8902 1.06298 0.0
Zn136 Zn 0.18128 0.65054 0.66074 0.0
C137 C 0.23692 0.71738 0.54697 0.0
N138 N 0.25405 0.73458 0.59149 0.0
C139 C 0.23584 0.71736 0.63516 0.0
N140 N 0.20875 0.69073 0.61767 0.0
N141 N 0.20944 0.69076 0.5634 0.0
C142 C 0.20059 0.60737 0.4737 0.0
O143 O 0.20773 0.60368 0.52627 0.0
O144 O 0.14297 0.67264 0.71584 0.0
Zn145 Zn 0.16526 0.67295 0.51905 0.0
N146 N 0.22308 0.62146 0.69351 0.0
C147 C 0.27786 0.61246 0.75213 0.0
C148 C 0.24422 0.63329 0.73761 0.0
C149 C 0.23334 0.58931 0.66427 0.0
N150 N 0.2877 0.57979 0.7234 0.0
C151 C 0.26618 0.5671 0.67968 0.0
O152 O 0.11996 0.63807 0.54991 0.0
C153 C 0.11942 0.61027 0.58487 0.0
O154 O 0.14546 0.60888 0.62245 0.0
H155 H 0.23546 0.65877 0.76071 0.0
H156 H 0.215 0.58116 0.63029 0.0
C157 C 0.14081 0.73335 0.44382 0.0
C158 C 0.12895 0.77188 0.4313 0.0
C159 C 0.12856 0.78722 0.52606 0.0
C160 C 0.13906 0.74888 0.53812 0.0
N161 N 0.14439 0.72259 0.49692 0.0
N162 N 0.12334 0.79767 0.47315 0.0
H163 H 0.14784 0.71214 0.41246 0.0
C164 C 0.11262 0.68615 0.69196 0.0
O165 O 0.11359 0.69022 0.63866 0.0
O166 O 0.18354 0.63837 0.45697 0.0
H167 H 0.14452 0.74058 0.57999 0.0
H168 H 0.29556 0.62164 0.7866 0.0
H169 H 0.12448 0.80851 0.5584 0.0
Zn170 Zn 0.34154 0.14689 0.50399 0.0
C171 C 0.31505 0.22984 0.61588 0.0
N172 N 0.29812 0.24918 0.57284 0.0
C173 C 0.30851 0.22728 0.52805 0.0
N174 N 0.3308 0.19596 0.54403 0.0
N175 N 0.33558 0.19833 0.59782 0.0
C176 C 0.34354 0.12647 0.70687 0.0
O177 O 0.33094 0.1177 0.65757 0.0
O178 O 0.36198 0.15954 0.42791 0.0
Zn179 Zn 0.38024 0.17569 0.63706 0.0
N180 N 0.29184 0.11902 0.51046 0.0
C181 C 0.23622 0.10709 0.56734 0.0
C182 C 0.27128 0.12644 0.55718 0.0
C183 C 0.27828 0.09292 0.47303 0.0
N184 N 0.22304 0.08053 0.53064 0.0
C185 C 0.24295 0.07247 0.48365 0.0
O186 O 0.40904 0.12736 0.60794 0.0
C187 C 0.40937 0.10328 0.5683 0.0
O188 O 0.38513 0.10764 0.52897 0.0
H189 H 0.28192 0.14706 0.58695 0.0
H190 H 0.29499 0.08866 0.43594 0.0
C191 C 0.42204 0.24675 0.66809 0.0
C192 C 0.44907 0.27712 0.65702 0.0
C193 C 0.46553 0.24585 0.57301 0.0
C194 C 0.44012 0.21533 0.58537 0.0
N195 N 0.41891 0.21638 0.63243 0.0
N196 N 0.46972 0.2756 0.60925 0.0
H197 H 0.40355 0.24684 0.70399 0.0
C198 C 0.38676 0.18751 0.42841 0.0
O199 O 0.39079 0.20806 0.47345 0.0
O200 O 0.36547 0.15645 0.71264 0.0
H201 H 0.43652 0.1913 0.557 0.0
H202 H 0.21977 0.1128 0.6044 0.0
H203 H 0.48224 0.24568 0.53534 0.0
Zn204 Zn 0.84625 0.3513 0.49223 0.0
C205 C 0.78423 0.29015 0.60587 0.0
N206 N 0.76663 0.27384 0.56095 0.0
C207 C 0.78525 0.29113 0.51767 0.0
N208 N 0.81252 0.31729 0.53601 0.0
N209 N 0.81226 0.31627 0.59028 0.0
C210 C 0.8882 0.31565 0.69895 0.0
O211 O 0.89786 0.30425 0.64935 0.0
O212 O 0.81558 0.39334 0.45341 0.0
Zn213 Zn 0.83228 0.35833 0.63658 0.0
N214 N 0.86743 0.31729 0.43867 0.0
C215 C 0.90368 0.25973 0.41861 0.0
C216 C 0.88957 0.28674 0.45639 0.0
C217 C 0.85848 0.32222 0.385 0.0
N218 N 0.89546 0.26495 0.36482 0.0
C219 C 0.87307 0.29545 0.3466 0.0
O220 O 0.87535 0.39743 0.60976 0.0
C221 C 0.89885 0.40159 0.56942 0.0
O222 O 0.89359 0.38165 0.52579 0.0
H223 H 0.89556 0.28323 0.49959 0.0
H224 H 0.84007 0.34653 0.37288 0.0
C225 C 0.77485 0.39251 0.70642 0.0
C226 C 0.73778 0.40844 0.71862 0.0
C227 C 0.72135 0.40657 0.62435 0.0
C228 C 0.7585 0.39169 0.61242 0.0
N229 N 0.78461 0.38544 0.65366 0.0
N230 N 0.71193 0.41486 0.67705 0.0
H231 H 0.79563 0.38506 0.73825 0.0
C232 C 0.81058 0.42626 0.47684 0.0
O233 O 0.81949 0.42975 0.52887 0.0
O234 O 0.85811 0.33737 0.70522 0.0
H235 H 0.76598 0.38389 0.57084 0.0
H236 H 0.92126 0.23504 0.4317 0.0
H237 H 0.70016 0.41148 0.59206 0.0
Zn238 Zn 0.6948 0.85714 0.51177 0.0
C239 C 0.73265 0.77488 0.61481 0.0
N240 N 0.75383 0.76157 0.57092 0.0
C241 C 0.73937 0.78233 0.52744 0.0
N242 N 0.71118 0.80781 0.54499 0.0
N243 N 0.70582 0.80205 0.59804 0.0
C244 C 0.68215 0.87198 0.69786 0.0
O245 O 0.6987 0.87734 0.64995 0.0
O246 O 0.66589 0.8478 0.43975 0.0
Zn247 Zn 0.65444 0.81383 0.63071 0.0
N248 N 0.74295 0.887 0.5125 0.0
C249 C 0.80167 0.90202 0.56136 0.0
C250 C 0.76686 0.88106 0.55643 0.0
C251 C 0.75247 0.91324 0.47324 0.0
N252 N 0.81108 0.92859 0.52246 0.0
C253 C 0.78735 0.93511 0.47858 0.0
O254 O 0.61575 0.85394 0.5955 0.0
C255 C 0.62142 0.88675 0.57184 0.0
O256 O 0.65419 0.89353 0.54856 0.0
H257 H 0.75906 0.86024 0.58772 0.0
H258 H 0.73313 0.91647 0.43841 0.0
C259 C 0.60097 0.74997 0.66166 0.0
C260 C 0.58276 0.71353 0.65219 0.0
C261 C 0.62061 0.70492 0.57212 0.0
C262 C 0.63852 0.74092 0.58139 0.0
N263 N 0.62835 0.76302 0.62577 0.0
N264 N 0.59286 0.69214 0.60744 0.0
H265 H 0.59276 0.76821 0.6961 0.0
C266 C 0.63609 0.82629 0.44943 0.0
O267 O 0.63325 0.81002 0.49786 0.0
O268 O 0.66158 0.84113 0.70485 0.0
H269 H 0.66005 0.75112 0.55253 0.0
H270 H 0.82093 0.89744 0.596 0.0
H271 H 0.62837 0.68747 0.53673 0.0
C272 C 0.10915 0.46998 0.10443 0.0
C273 C 0.11008 0.4414 1.06283 0.0
C274 C 0.08004 0.49996 0.10567 0.0
C275 C 0.04949 0.5009 1.06579 0.0
C276 C 0.05007 0.47168 1.02417 0.0
C277 C 0.08045 0.44309 1.02262 0.0
C278 C 0.08207 0.53076 0.14989 0.0
C279 C 0.01775 0.46979 0.98195 0.0
C280 C 0.95258 0.55496 0.10282 0.0
C281 C 0.95431 0.58916 0.07084 0.0
C282 C 0.98273 0.52609 0.10103 0.0
C283 C 0.01675 0.53176 0.06804 0.0
C284 C 0.01893 0.56682 1.0366 0.0
C285 C 0.98757 0.59443 1.03749 0.0
C286 C 0.97761 0.48891 0.13362 0.0
C287 C 0.05467 0.57542 1.00215 0.0
H288 H 0.13154 0.46915 0.13597 0.0
H289 H 0.08009 0.42091 0.99082 0.0
H290 H 0.08135 0.56042 0.13131 0.0
H291 H 0.05612 0.52834 0.17711 0.0
H292 H 0.10906 0.52804 0.17522 0.0
H293 H 0.0214 0.44467 0.95342 0.0
H294 H 0.98883 0.46712 1.00263 0.0
H295 H 0.0171 0.49723 0.95772 0.0
H296 H 0.9269 0.5502 0.12821 0.0
H297 H 0.98936 0.62061 1.01253 0.0
H298 H 1.0015 0.48616 0.16423 0.0
H299 H 0.97965 0.46311 0.10606 0.0
H300 H 0.94894 0.48795 0.15536 0.0
H301 H 0.08154 0.57392 1.02783 0.0
H302 H 0.05315 0.60477 0.98263 0.0
H303 H 0.05773 0.55299 0.96955 0.0
C304 C 0.46372 0.92579 1.0554 0.0
C305 C 0.43106 0.92898 0.09065 0.0
C306 C 0.49306 0.95513 1.05271 0.0
C307 C 0.49028 0.98919 0.08592 0.0
C308 C 0.45752 0.99262 0.12179 0.0
C309 C 0.42855 0.9627 0.12377 0.0
C310 C 0.52715 0.94966 1.01387 0.0
C311 C 0.45288 0.02818 0.15798 0.0
C312 C 0.58478 0.0493 0.11166 0.0
C313 C 0.58159 0.08014 0.07363 0.0
C314 C 0.55538 0.02005 0.11649 0.0
C315 C 0.52144 0.02112 0.08257 0.0
C316 C 0.51794 0.05226 1.04433 0.0
C317 C 0.54774 0.08113 1.04038 0.0
C318 C 0.56083 0.98771 0.15786 0.0
C319 C 0.48263 0.05502 1.00709 0.0
H320 H 0.46645 0.90018 1.02943 0.0
H321 H 0.40372 0.96593 0.15118 0.0
H322 H 0.52776 0.97394 0.98374 0.0
H323 H 0.55527 0.95063 1.03682 0.0
H324 H 0.52556 0.92144 0.99127 0.0
H325 H 0.42616 0.02658 0.18399 0.0
H326 H 0.47896 0.03133 0.18489 0.0
H327 H 0.45115 0.05499 0.13245 0.0
H328 H 0.61044 0.0479 0.13786 0.0
H329 H 0.54449 0.10456 1.01083 0.0
H330 H 0.56168 0.95893 0.13671 0.0
H331 H 0.53552 0.9871 0.18649 0.0
H332 H 0.58828 0.99118 0.18198 0.0
H333 H 0.48097 0.02857 0.98075 0.0
H334 H 0.48359 0.08133 0.9804 0.0
H335 H 0.45528 0.05602 1.03178 0.0
C336 C 0.09201 0.54276 0.60869 0.0
C337 C 0.08738 0.5793 0.58262 0.0
C338 C 0.06241 0.51344 0.60668 0.0
C339 C 0.02634 0.5205 0.57886 0.0
C340 C 0.02139 0.55747 0.55289 0.0
C341 C 0.05181 0.58596 0.55458 0.0
C342 C 0.06995 0.4746 0.63417 0.0
C343 C 0.98361 0.56717 0.5235 0.0
C344 C 0.9609 0.43391 0.53118 0.0
C345 C 0.93208 0.4314 0.57251 0.0
C346 C 0.9916 0.4621 0.53304 0.0
C347 C 0.99394 0.48944 0.57693 0.0
C348 C 0.96492 0.48712 0.61872 0.0
C349 C 0.93484 0.4583 0.61622 0.0
C350 C 0.02169 0.46261 0.4877 0.0
C351 C 0.96537 0.51552 0.66611 0.0
H352 H 0.1192 0.53676 0.63024 0.0
H353 H 0.04739 0.6139 0.53446 0.0
H354 H 0.0476 0.46943 0.66639 0.0
H355 H 0.06721 0.4505 0.60388 0.0
H356 H 0.0996 0.47308 0.6531 0.0
H357 H 0.98375 0.59725 0.50619 0.0
H358 H 0.97862 0.54599 0.48975 0.0
H359 H 0.95843 0.56453 0.55213 0.0
H360 H 0.95959 0.41362 0.49708 0.0
H361 H 0.91301 0.45723 0.64847 0.0
H362 H 0.05165 0.45936 0.50508 0.0
H363 H 0.02071 0.49118 0.46616 0.0
H364 H 0.01681 0.43888 0.45729 0.0
H365 H 0.99354 0.51302 0.6887 0.0
H366 H 0.94081 0.51037 0.69517 0.0
H367 H 0.9633 0.54601 0.65063 0.0
C368 C 0.59555 0.95413 0.54522 0.0
C369 C 0.58936 0.91766 0.57076 0.0
C370 C 0.56605 0.98349 0.54378 0.0
C371 C 0.52882 0.9768 0.56835 0.0
C372 C 0.52225 0.93997 0.59391 0.0
C373 C 0.55233 0.91111 0.59485 0.0
C374 C 0.57495 0.02199 0.51616 0.0
C375 C 0.48332 0.93106 0.62066 0.0
C376 C 0.46666 0.06646 0.61116 0.0
C377 C 0.43922 0.07019 0.56821 0.0
C378 C 0.49542 0.0364 0.6118 0.0
C379 C 0.49736 0.00864 0.56854 0.0
C380 C 0.46958 0.01194 0.52523 0.0
C381 C 0.44113 0.04246 0.52551 0.0
C382 C 0.5241 0.03459 0.65891 0.0
C383 C 0.47006 0.98324 0.47821 0.0
H384 H 0.62374 0.95996 0.52628 0.0
H385 H 0.54675 0.88328 0.61466 0.0
H386 H 0.5532 0.02763 0.48325 0.0
H387 H 0.57237 0.04628 0.54617 0.0
H388 H 0.6049 0.02264 0.49809 0.0
H389 H 0.48226 0.90095 0.63779 0.0
H390 H 0.47767 0.95229 0.65418 0.0
H391 H 0.45918 0.93437 0.59046 0.0
H392 H 0.46592 0.08735 0.64457 0.0
H393 H 0.42038 0.04464 0.492 0.0
H394 H 0.55459 0.0377 0.64341 0.0
H395 H 0.52216 1.00567 0.6794 0.0
H396 H 0.51865 0.05787 0.68981 0.0
H397 H 0.49869 0.9848 0.45661 0.0
H398 H 0.44618 0.98897 0.44824 0.0
H399 H 0.4669 0.9529 0.49385 0.0
C400 C 0.1925 0.57265 0.38405 0.0
C401 C 0.2095 0.57444 0.43621 0.0
C402 C 0.19737 0.5394 0.35079 0.0
C403 C 0.22001 0.50735 0.37007 0.0
C404 C 0.23835 0.50958 0.42191 0.0
C405 C 0.23292 0.54313 0.45428 0.0
C406 C 0.17742 0.53815 0.29558 0.0
C407 C 0.26311 0.47628 0.44361 0.0
C408 C 0.19614 0.41011 0.30228 0.0
C409 C 0.22417 0.40891 0.2602 0.0
C410 C 0.1956 0.44109 0.34018 0.0
C411 C 0.22387 0.47138 0.336 0.0
C412 C 0.25403 0.46866 0.29632 0.0
C413 C 0.25382 0.43744 0.25892 0.0
C414 C 0.16329 0.44267 0.38251 0.0
C415 C 0.2851 0.49999 0.2911 0.0
H416 H 0.1744 0.59674 0.36983 0.0
H417 H 0.24673 0.54462 0.49414 0.0
H418 H 0.19943 0.53269 0.26295 0.0
H419 H 0.15608 0.5136 0.2944 0.0
H420 H 0.16157 0.5658 0.28611 0.0
H421 H 0.27604 0.483 0.48431 0.0
H422 H 0.24497 0.44943 0.44727 0.0
H423 H 0.28728 0.46957 0.4146 0.0
H424 H 0.1733 0.38803 0.30386 0.0
H425 H 0.2759 0.43651 0.22696 0.0
H426 H 0.14313 0.46734 0.37306 0.0
H427 H 0.17576 0.44815 0.42377 0.0
H428 H 0.1459 0.41517 0.38374 0.0
H429 H 0.27145 0.52738 0.27567 0.0
H430 H 0.30899 0.49129 0.26256 0.0
H431 H 0.29819 0.50669 0.33162 0.0
C432 C 0.44454 0.22198 0.38933 0.0
C433 C 0.41663 0.19188 0.3849 0.0
C434 C 0.47788 0.22271 0.35583 0.0
C435 C 0.48324 0.19293 0.31628 0.0
C436 C 0.454 0.16382 0.30912 0.0
C437 C 0.42096 0.16358 0.34369 0.0
C438 C 0.50828 0.25435 0.36461 0.0
C439 C 0.45844 0.13202 0.26655 0.0
C440 C 0.55744 0.21235 0.20397 0.0
C441 C 0.59023 0.1909 0.22207 0.0
C442 C 0.52234 0.21288 0.23387 0.0
C443 C 0.52003 0.19187 0.28355 0.0
C444 C 0.55323 0.17084 0.3028 0.0
C445 C 0.58796 0.17046 0.27166 0.0
C446 C 0.48756 0.23553 0.21193 0.0
C447 C 0.55193 0.14853 0.35609 0.0
H448 H 0.44129 0.24418 0.42078 0.0
H449 H 0.39949 0.14029 0.33998 0.0
H450 H 0.53628 0.24093 0.3785 0.0
H451 H 0.51442 0.26977 0.32561 0.0
H452 H 0.49886 0.2763 0.39557 0.0
H453 H 0.43179 0.11338 0.26334 0.0
H454 H 0.46457 0.14507 0.22587 0.0
H455 H 0.48384 0.11307 0.27712 0.0
H456 H 0.55878 0.22813 0.16554 0.0
H457 H 0.6131 0.15376 0.28577 0.0
H458 H 0.47856 0.2584 0.2417 0.0
H459 H 0.46211 0.21562 0.2064 0.0
H460 H 0.49404 0.24986 0.17214 0.0
H461 H 0.54452 0.16873 0.39018 0.0
H462 H 0.58033 0.13392 0.36552 0.0
H463 H 0.52855 0.12594 0.35436 0.0
C464 C 0.80895 0.4605 0.38671 0.0
C465 C 0.80419 0.46192 0.44368 0.0
C466 C 0.81039 0.49497 0.35568 0.0
C467 C 0.80628 0.5317 0.38214 0.0
C468 C 0.79907 0.53325 0.43911 0.0
C469 C 0.79837 0.49829 0.46932 0.0
C470 C 0.81817 0.49209 0.2949 0.0
C471 C 0.79362 0.57185 0.46842 0.0
C472 C 0.85437 0.61481 0.30447 0.0
C473 C 0.82289 0.62807 0.27252 0.0
C474 C 0.84895 0.58477 0.34294 0.0
C475 C 0.81107 0.56828 0.34999 0.0
C476 C 0.77866 0.58406 0.3213 0.0
C477 C 0.78504 0.61347 0.28242 0.0
C478 C 0.88429 0.56866 0.37281 0.0
C479 C 0.73764 0.56813 0.32883 0.0
H480 H 0.81356 0.43254 0.36657 0.0
H481 H 0.79449 0.49958 0.51333 0.0
H482 H 0.79464 0.50732 0.27175 0.0
H483 H 0.84632 0.50685 0.28495 0.0
H484 H 0.81984 0.46125 0.28045 0.0
H485 H 0.78399 0.56784 0.5115 0.0
H486 H 0.82174 0.58827 0.46846 0.0
H487 H 0.77162 0.59022 0.44682 0.0
H488 H 0.88368 0.62595 0.29684 0.0
H489 H 0.76048 0.62406 0.2583 0.0
H490 H 0.89089 0.53875 0.35742 0.0
H491 H 0.87814 0.56619 0.41725 0.0
H492 H 0.91079 0.58719 0.36707 0.0
H493 H 0.73542 0.53904 0.30875 0.0
H494 H 0.71504 0.58773 0.3107 0.0
H495 H 0.73096 0.56403 0.37289 0.0
C496 C 0.597 0.85105 0.369 0.0
C497 C 0.60162 0.82453 0.41231 0.0
C498 C 0.56176 0.85238 0.33874 0.0
C499 C 0.53058 0.82651 0.35206 0.0
C500 C 0.53548 0.79922 0.39501 0.0
C501 C 0.57086 0.79852 0.42442 0.0
C502 C 0.55768 0.88175 0.29294 0.0
C503 C 0.50321 0.77089 0.41026 0.0
C504 C 0.42657 0.85013 0.30305 0.0
C505 C 0.42417 0.82716 0.25558 0.0
C506 C 0.46101 0.85019 0.33518 0.0
C507 C 0.49347 0.82654 0.31951 0.0
C508 C 0.49045 0.80225 0.2728 0.0
C509 C 0.45593 0.80286 0.24156 0.0
C510 C 0.4631 0.87635 0.38497 0.0
C511 C 0.52407 0.77623 0.25495 0.0
H512 H 0.62043 0.87147 0.35973 0.0
H513 H 0.5741 0.77786 0.45779 0.0
H514 H 0.55177 0.86633 0.25379 0.0
H515 H 0.53228 0.90133 0.301 0.0
H516 H 0.58446 0.9 0.28794 0.0
H517 H 0.51151 0.75182 0.44523 0.0
H518 H 0.47614 0.78726 0.42128 0.0
H519 H 0.49592 0.752 0.37471 0.0
H520 H 0.40226 0.86918 0.31383 0.0
H521 H 0.45422 0.78481 0.20509 0.0
H522 H 0.4868 0.89831 0.37956 0.0
H523 H 0.47057 0.8588 0.42173 0.0
H524 H 0.43501 0.89206 0.39262 0.0
H525 H 0.55026 0.79436 0.24564 0.0
H526 H 0.51671 0.75856 0.21813 0.0
H527 H 0.53232 0.75598 0.28854 0.0
C528 C 0.75696 0.43627 0.80866 0.0
C529 C 0.72762 0.42124 0.7745 0.0
C530 C 0.74752 0.45429 0.85808 0.0
C531 C 0.70751 0.45764 0.87377 0.0
C532 C 0.67789 0.43996 0.84157 0.0
C533 C 0.68831 0.42221 0.79179 0.0
C534 C 0.78052 0.47205 0.89148 0.0
C535 C 0.63513 0.44126 0.85762 0.0
C536 C 0.71985 0.49666 1.01253 0.0
C537 C 0.72699 0.53587 0.99826 0.0
C538 C 0.70487 0.47038 0.97373 0.0
C539 C 0.69794 0.48391 0.92003 0.0
C540 C 0.6968 0.52466 0.9096 0.0
C541 C 0.71141 0.55043 0.94923 0.0
C542 C 0.7032 0.42734 0.98737 0.0
C543 C 0.6869 0.54048 0.85365 0.0
H544 H 0.78733 0.43634 0.79541 0.0
H545 H 0.66554 0.41009 0.76575 0.0
H546 H 0.77688 0.50432 0.89382 0.0
H547 H 0.78 0.46038 0.93379 0.0
H548 H 0.80996 0.4658 0.87383 0.0
H549 H 0.61986 0.41431 0.84368 0.0
H550 H 0.6311 0.44441 0.90247 0.0
H551 H 0.62075 0.46648 0.83715 0.0
H552 H 0.73002 0.48538 1.05151 0.0
H553 H 0.71406 0.58129 0.93954 0.0
H554 H 0.73182 0.4135 0.97712 0.0
H555 H 0.67998 0.41231 0.96335 0.0
H556 H 0.69764 0.42279 1.03172 0.0
H557 H 0.71242 0.53607 0.82597 0.0
H558 H 0.68007 0.57231 0.85504 0.0
H559 H 0.66145 0.52467 0.83595 0.0
C560 C 0.5553 0.70243 0.74448 0.0
C561 C 0.55125 0.69955 0.68782 0.0
C562 C 0.52314 0.69602 0.7786 0.0
C563 C 0.4861 0.68716 0.75493 0.0
C564 C 0.48306 0.67971 0.69822 0.0
C565 C 0.516 0.68597 0.66503 0.0
C566 C 0.52804 0.70291 0.83936 0.0
C567 C 0.44454 0.66892 0.67164 0.0
C568 C 0.41853 0.68053 0.87354 0.0
C569 C 0.41292 0.72073 0.88274 0.0
C570 C 0.43735 0.66742 0.82597 0.0
C571 C 0.45073 0.69536 0.78778 0.0
C572 C 0.43893 0.73496 0.79249 0.0
C573 C 0.42083 0.74738 0.84063 0.0
C574 C 0.44754 0.6246 0.82052 0.0
C575 C 0.45073 0.7654 0.75079 0.0
H576 H 0.58316 0.7116 0.76187 0.0
H577 H 0.5133 0.683 0.62099 0.0
H578 H 0.51323 0.73067 0.85109 0.0
H579 H 0.51431 0.67886 0.86303 0.0
H580 H 0.55946 0.70503 0.85143 0.0
H581 H 0.44951 0.64921 0.63608 0.0
H582 H 0.42419 0.65442 0.70071 0.0
H583 H 0.43009 0.69587 0.65612 0.0
H584 H 0.41144 0.65969 0.9055 0.0
H585 H 0.41642 0.77849 0.84684 0.0
H586 H 0.47654 0.61913 0.83987 0.0
H587 H 0.44949 0.61565 0.77693 0.0
H588 H 0.42546 0.606 0.84157 0.0
H589 H 0.48238 0.77242 0.75584 0.0
H590 H 0.43361 0.79293 0.75558 0.0
H591 H 0.44636 0.75419 0.70864 0.0
C592 C 0.23785 0.36034 0.74087 0.0
C593 C 0.21887 0.37969 0.78398 0.0
C594 C 0.24256 0.37903 0.69019 0.0
C595 C 0.23021 0.41836 0.6851 0.0
C596 C 0.20297 0.43364 0.7239 0.0
C597 C 0.19759 0.41376 0.77332 0.0
C598 C 0.26523 0.35878 0.64538 0.0
C599 C 0.18542 0.47416 0.71876 0.0
C600 C 0.29676 0.50139 0.68746 0.0
C601 C 0.27286 0.52692 0.65746 0.0
C602 C 0.28876 0.46126 0.68803 0.0
C603 C 0.25631 0.447 0.65736 0.0
C604 C 0.24093 0.47051 0.61506 0.0
C605 C 0.2491 0.51084 0.61575 0.0
C606 C 0.31039 0.43615 0.72897 0.0
C607 C 0.21199 0.45404 0.57437 0.0
H608 H 0.25215 0.3326 0.74828 0.0
H609 H 0.18173 0.42795 0.80639 0.0
H610 H 0.25528 0.32791 0.64148 0.0
H611 H 0.26153 0.37379 0.60542 0.0
H612 H 0.29691 0.35794 0.65577 0.0
H613 H 0.16061 0.47862 0.7477 0.0
H614 H 0.2082 0.49644 0.72806 0.0
H615 H 0.17436 0.47943 0.6768 0.0
H616 H 0.31798 0.51298 0.71632 0.0
H617 H 0.23372 0.52954 0.5873 0.0
H618 H 0.31938 0.40815 0.70989 0.0
H619 H 0.29095 0.42969 0.76423 0.0
H620 H 0.33721 0.45079 0.74489 0.0
H621 H 0.22495 0.42787 0.55424 0.0
H622 H 0.20383 0.47579 0.54253 0.0
H623 H 0.18485 0.44423 0.59544 0.0
C624 C 0.45484 0.30013 0.75431 0.0
C625 C 0.46059 0.30702 0.69831 0.0
C626 C 0.47946 0.31754 0.79314 0.0
C627 C 0.51036 0.34227 0.77515 0.0
C628 C 0.51025 0.35607 0.72077 0.0
C629 C 0.48536 0.33805 0.68258 0.0
C630 C 0.47637 0.30407 0.85191 0.0
C631 C 0.53973 0.38581 0.70109 0.0
C632 C 0.57244 0.34625 0.89898 0.0
C633 C 0.59012 0.30921 0.89351 0.0
C634 C 0.55134 0.36268 0.85536 0.0
C635 C 0.54766 0.34101 0.80644 0.0
C636 C 0.57276 0.30844 0.7972 0.0
C637 C 0.5939 0.29289 0.84116 0.0
C638 C 0.52891 0.40022 0.86444 0.0
C639 C 0.5721 0.28584 0.74396 0.0
H640 H 0.43468 0.27779 0.76809 0.0
H641 H 0.48842 0.34553 0.63968 0.0
H642 H 0.5012 0.28413 0.86162 0.0
H643 H 0.47791 0.32942 0.88015 0.0
H644 H 0.4485 0.28816 0.85995 0.0
H645 H 0.52523 0.40702 0.67315 0.0
H646 H 0.55353 0.4021 0.73542 0.0
H647 H 0.56312 0.37085 0.67727 0.0
H648 H 0.57119 0.36024 0.93883 0.0
H649 H 0.60849 0.26498 0.83565 0.0
H650 H 0.50187 0.3941 0.88825 0.0
H651 H 0.52046 0.41425 0.8252 0.0
H652 H 0.54685 0.4211 0.88878 0.0
H653 H 0.54305 0.27159 0.73848 0.0
H654 H 0.595 0.26265 0.74249 0.0
H655 H 0.57682 0.30595 0.70902 0.0
C656 C 0.71054 0.93498 0.73087 0.0
C657 C 0.6831 0.90469 0.73805 0.0
C658 C 0.70927 0.96916 0.76279 0.0
C659 C 0.67976 0.97348 0.80313 0.0
C660 C 0.65249 0.94263 0.81165 0.0
C661 C 0.65454 0.90851 0.7791 0.0
C662 C 0.73928 1.00094 0.75273 0.0
C663 C 0.62065 0.94605 0.85441 0.0
C664 C 0.69927 0.04587 0.91841 0.0
C665 C 0.67727 0.07878 0.90234 0.0
C666 C 0.70016 0.01159 0.88668 0.0
C667 C 0.67845 0.00984 0.83737 0.0
C668 C 0.65671 0.04318 0.82019 0.0
C669 C 0.65648 0.07735 0.8528 0.0
C670 C 0.72413 0.97706 0.90629 0.0
C671 C 0.63322 0.0425 0.76779 0.0
H672 H 0.73281 0.93232 0.69934 0.0
H673 H 0.633 0.88547 0.78454 0.0
H674 H 0.72424 0.02851 0.74086 0.0
H675 H 0.75592 0.00702 0.79085 0.0
H676 H 0.7605 0.99295 0.71999 0.0
H677 H 0.60193 0.91945 0.85636 0.0
H678 H 0.63394 0.95106 0.89529 0.0
H679 H 0.6017 0.97171 0.84531 0.0
H680 H 0.71558 0.04664 0.95651 0.0
H681 H 0.63919 0.10247 0.84028 0.0
H682 H 0.74646 0.96909 0.87512 0.0
H683 H 0.70483 0.9512 0.91192 0.0
H684 H 0.73941 0.98314 0.94558 0.0
H685 H 0.65284 0.03614 0.73261 0.0
H686 H 0.61784 0.07069 0.7601 0.0
H687 H 0.61105 0.01871 0.76947 0.0
C688 C 0.07175 0.68362 0.77731 0.0
C689 C 0.07455 0.68984 0.72079 0.0
C690 C 0.03497 0.68301 0.80343 0.0
C691 C 1.00028 0.68851 0.77214 0.0
C692 C 1.00299 0.69537 0.71527 0.0
C693 C 0.04007 0.69619 0.69036 0.0
C694 C 0.03317 0.67598 0.8644 0.0
C695 C 0.96669 0.70102 0.68052 0.0
C696 C 0.90756 0.65077 0.8403 0.0
C697 C 0.8937 0.6849 0.86584 0.0
C698 C 0.94119 0.65179 0.80696 0.0
C699 C 0.96124 0.68774 0.79934 0.0
C700 C 0.94534 0.72271 0.82115 0.0
C701 C 0.91161 0.72089 0.85382 0.0
C702 C 0.95675 0.61401 0.78309 0.0
C703 C 0.96557 0.76169 0.8135 0.0
H704 H 0.09822 0.67861 0.801 0.0
H705 H 0.04186 0.70077 0.64655 0.0
H706 H 0.01763 0.70059 0.8848 0.0
H707 H 0.01621 0.64892 0.87294 0.0
H708 H 0.06283 0.67294 0.88295 0.0
H709 H 0.97392 0.70697 0.63698 0.0
H710 H 0.94809 0.67437 0.68246 0.0
H711 H 0.94883 0.72571 0.69655 0.0
H712 H 0.89378 0.62287 0.84918 0.0
H713 H 0.9007 0.7475 0.8728 0.0
H714 H 0.98401 0.6054 0.80497 0.0
H715 H 0.96445 0.61787 0.73931 0.0
H716 H 0.9352 0.58971 0.78665 0.0
H717 H 0.99378 0.76168 0.83631 0.0
H718 H 0.94738 0.78655 0.82845 0.0
H719 H 0.97256 0.76662 0.76972 0.0
C720 C 0.36426 0.0937 0.79412 0.0
C721 C 0.33708 0.09787 0.75142 0.0
C722 C 0.36204 0.0617 0.83029 0.0
C723 C 0.33162 0.03366 0.8239 0.0
C724 C 0.30293 0.03905 0.78268 0.0
C725 C 0.30613 0.07093 0.74683 0.0
C726 C 0.39319 0.05696 0.8738 0.0
C727 C 0.26958 0.01037 0.77517 0.0
C728 C 0.34838 0.93024 0.87797 0.0
C729 C 0.32933 0.93193 0.92877 0.0
C730 C 0.34925 0.96312 0.84328 0.0
C731 C 0.33016 0.99825 0.85952 0.0
C732 C 0.30958 0.9995 0.90977 0.0
C733 C 0.30957 0.96644 0.94381 0.0
C734 C 0.37156 0.96067 0.78998 0.0
C735 C 0.28825 0.03606 0.92816 0.0
H736 H 0.3884 0.11426 0.79753 0.0
H737 H 0.28489 0.07418 0.71405 0.0
H738 H 0.37936 0.05387 0.91467 0.0
H739 H 0.41027 0.0298 0.86599 0.0
H740 H 0.41386 0.08213 0.87497 0.0
H741 H 0.24831 0.02012 0.74346 0.0
H742 H 0.28147 0.98136 0.76298 0.0
H743 H 0.25359 0.0063 0.81432 0.0
H744 H 0.36392 0.90378 0.86628 0.0
H745 H 0.29459 0.96792 0.98293 0.0
H746 H 0.39569 0.98251 0.78989 0.0
H747 H 0.35183 0.96788 0.75526 0.0
H748 H 0.38436 0.93113 0.78292 0.0
H749 H 0.30956 0.06032 0.93369 0.0
H750 H 0.2722 0.03169 0.96727 0.0
H751 H 0.26694 0.04546 0.89639 0.0
C752 C 0.93985 0.27445 0.74331 0.0
C753 C 0.91478 0.30705 0.74535 0.0
C754 C 0.96936 0.26901 0.78281 0.0
C755 C 0.97468 0.29751 0.8243 0.0
C756 C 0.94817 0.32949 0.82808 0.0
C757 C 0.91816 0.33355 0.78895 0.0
C758 C 0.99605 0.23379 0.77848 0.0
C759 C 0.95315 0.36089 0.87112 0.0
C760 C 0.04205 0.28215 0.94703 0.0
C761 C 0.07632 0.301 0.92954 0.0
C762 C 0.00906 0.27932 0.91257 0.0
C763 C 0.01036 0.29639 0.85975 0.0
C764 C 0.04558 0.31417 0.84129 0.0
C765 C 0.07828 0.31582 0.8762 0.0
C766 C 0.97253 0.25913 0.93323 0.0
C767 C 0.04814 0.33335 0.7857 0.0
H768 H 0.937 0.25364 0.70999 0.0
H769 H 0.8989 0.35886 0.79058 0.0
H770 H 0.02549 0.24317 0.76408 0.0
H771 H 0.99997 0.21991 0.81917 0.0
H772 H 0.98448 0.21156 0.74943 0.0
H773 H 0.9285 0.38227 0.871 0.0
H774 H 0.95526 0.34763 0.91242 0.0
H775 H 0.98096 0.37699 0.86367 0.0
H776 H 0.04103 0.27 0.98792 0.0
H777 H 0.10467 0.33077 0.86281 0.0
H778 H 0.96236 0.23705 0.90302 0.0
H779 H 0.94852 0.28083 0.93829 0.0
H780 H 0.97746 0.2444 0.97319 0.0
H781 H 0.0408 0.31191 0.75314 0.0
H782 H 0.07784 0.34544 0.77729 0.0
H783 H 0.0264 0.35755 0.78306 0.0
C784 C 0.19813 0.8926 0.29803 0.0
C785 C 0.19355 0.90933 0.24616 0.0
C786 C 0.19038 0.91495 0.34487 0.0
C787 C 0.17983 0.95472 0.33847 0.0
C788 C 0.16714 0.96847 0.28692 0.0
C789 C 0.17398 0.94522 0.24082 0.0
C790 C 0.19947 0.8982 0.40042 0.0
C791 C 0.15314 0.01002 0.27912 0.0
C792 C 0.18741 0.03038 0.4515 0.0
C793 C 0.22689 0.04211 0.44641 0.0
C794 C 0.17164 1.00086 0.41825 0.0
C795 C 0.19564 0.98353 0.37782 0.0
C796 C 0.23558 0.99492 0.37269 0.0
C797 C 0.2508 0.02349 0.40764 0.0
C798 C 0.12928 0.98913 0.42643 0.0
C799 C 0.26254 0.97712 0.33004 0.0
H800 H 0.21111 0.86375 0.30187 0.0
H801 H 0.16898 0.95751 0.20049 0.0
H802 H 0.23056 0.9045 0.41088 0.0
H803 H 0.18051 0.91162 0.43233 0.0
H804 H 0.1952 0.86596 0.40081 0.0
H805 H 0.13819 0.01396 0.23906 0.0
H806 H 0.1326 0.01853 0.31228 0.0
H807 H 0.17874 0.03015 0.28073 0.0
H808 H 0.16852 0.04423 0.48158 0.0
H809 H 0.28166 0.03062 0.40453 0.0
H810 H 0.12264 0.95966 0.40962 0.0
H811 H 0.10998 0.01086 0.40594 0.0
H812 H 0.12168 0.98943 0.47065 0.0
H813 H 0.29199 0.99113 0.32947 0.0
H814 H 0.24947 0.98007 0.28865 0.0
H815 H 0.26664 0.94543 0.33834 0.0
C816 C 0.01658 0.31529 0.19133 0.0
C817 C 0.02569 0.30559 0.13751 0.0
C818 C 0.97779 0.32137 0.20728 0.0
C819 C 0.94723 0.31872 0.16747 0.0
C820 C 0.95702 0.31313 0.11166 0.0
C821 C 0.99628 0.30564 0.09748 0.0
C822 C 0.97004 0.32707 0.26777 0.0
C823 C 0.92656 0.3134 0.06681 0.0
C824 C 0.87654 0.26989 0.25212 0.0
C825 C 0.86976 0.30182 0.28695 0.0
C826 C 0.89476 0.27562 0.20155 0.0
C827 C 0.9063 0.31401 0.18708 0.0
C828 C 0.88836 0.3461 0.21359 0.0
C829 C 0.87112 0.33989 0.26499 0.0
C830 C 0.90871 0.24032 0.16984 0.0
C831 C 0.89469 0.38732 0.19357 0.0
H832 H 0.03972 0.31543 0.22189 0.0
H833 H 1.00375 0.29936 1.05537 0.0
H834 H 0.95365 0.35463 0.27504 0.0
H835 H 0.95255 0.30224 0.28372 0.0
H836 H 0.99754 0.32862 0.29222 0.0
H837 H 0.93631 0.33308 1.03328 0.0
H838 H 0.92407 0.2836 1.04891 0.0
H839 H 0.89721 0.32318 0.08117 0.0
H840 H 0.87335 0.24032 0.26752 0.0
H841 H 0.86388 0.36512 0.28993 0.0
H842 H 0.94084 0.23644 0.17576 0.0
H843 H 0.90315 0.24453 0.12555 0.0
H844 H 0.89369 0.21308 0.18321 0.0
H845 H 0.92144 0.39972 0.21293 0.0
H846 H 0.8694 0.40629 0.20489 0.0
H847 H 0.89878 0.38785 0.14846 0.0
C848 C 0.82495 0.04346 0.20926 0.0
C849 C 0.81376 0.08274 0.21323 0.0
C850 C 0.83357 0.02211 0.25644 0.0
C851 C 0.83164 0.04119 0.3078 0.0
C852 C 0.82751 0.08235 0.31048 0.0
C853 C 0.81736 0.10276 0.26293 0.0
C854 C 0.83862 0.97828 0.25187 0.0
C855 C 0.82885 0.10418 0.3641 0.0
C856 C 0.77017 0.98469 0.40777 0.0
C857 C 0.79886 0.96467 0.43781 0.0
C858 C 0.78076 0.01065 0.36641 0.0
C859 C 0.82111 0.01766 0.35604 0.0
C860 C 0.85024 1.0 0.38898 0.0
C861 C 0.83874 0.9732 0.42923 0.0
C862 C 0.74856 0.02971 0.33292 0.0
C863 C 0.89342 0.00832 0.38103 0.0
H864 H 0.82278 0.02845 0.17021 0.0
H865 H 0.80994 0.13364 0.26523 0.0
H866 H 0.86238 0.96793 0.2793 0.0
H867 H 0.81097 0.96365 0.26463 0.0
H868 H 0.84552 0.96904 0.20932 0.0
H869 H 0.84487 0.13223 0.35884 0.0
H870 H 0.79844 0.11118 0.37737 0.0
H871 H 0.84356 0.08707 0.39683 0.0
H872 H 0.73929 0.98 0.41617 0.0
H873 H 0.86108 0.95836 0.45314 0.0
H874 H 0.7527 0.02307 0.28882 0.0
H875 H 0.74978 0.06199 0.33794 0.0
H876 H 0.71877 0.01968 0.34511 0.0
H877 H 0.90561 0.98763 0.35037 0.0
H878 H 0.90999 1.00411 0.41977 0.0
H879 H 0.89847 0.0386 0.36612 0.0
C880 C 0.10632 0.75658 0.33629 0.0
C881 C 0.11836 0.78425 0.37524 0.0
C882 C 0.08688 0.76824 0.28884 0.0
C883 C 0.07807 0.8084 0.28121 0.0
C884 C 0.0945 0.83683 0.31635 0.0
C885 C 0.11466 0.82435 0.36318 0.0
C886 C 0.07143 0.73695 0.25061 0.0
C887 C 0.08764 0.88003 0.3072 0.0
C888 C 0.01718 0.8126 0.15491 0.0
C889 C 0.9809 0.80137 0.17729 0.0
C890 C 0.04912 0.82114 0.18898 0.0
C891 C 0.04419 0.81817 0.24616 0.0
C892 C 1.00609 0.81303 0.2686 0.0
C893 C 0.97479 0.80443 0.23366 0.0
C894 C 0.08886 0.82826 0.16345 0.0
C895 C 0.99927 0.81124 0.32965 0.0
H896 H 0.10899 0.72555 0.34423 0.0
H897 H 0.12492 0.84602 0.39227 0.0
H898 H 0.03919 0.73393 0.25613 0.0
H899 H 0.07695 0.74507 0.20739 0.0
H900 H 0.08524 0.70796 0.25836 0.0
H901 H 0.10355 0.89842 0.33747 0.0
H902 H 0.09738 0.88831 0.26548 0.0
H903 H 0.0558 0.88675 0.31006 0.0
H904 H 0.02171 0.81132 0.11101 0.0
H905 H 0.9462 0.79757 0.25073 0.0
H906 H 0.10275 0.7997 0.15347 0.0
H907 H 0.10881 0.84446 0.19131 0.0
H908 H 0.08579 0.84491 0.12464 0.0
H909 H 0.01082 0.78309 0.34576 0.0
H910 H 0.96755 0.81318 0.3401 0.0
H911 H 0.01503 0.83533 0.35077 0.0
C912 C 0.29506 0.27633 0.44933 0.0
C913 C 0.29729 0.23724 0.46822 0.0
C914 C 0.2871 0.28597 0.39323 0.0
C915 C 0.28076 0.25612 0.35316 0.0
C916 C 0.28198 0.21668 0.37243 0.0
C917 C 0.28972 0.20799 0.42873 0.0
C918 C 0.28593 0.3285 0.37666 0.0
C919 C 0.27537 0.18318 0.33325 0.0
C920 C 0.22702 0.28022 0.21473 0.0
C921 C 0.2577 0.28435 0.17624 0.0
C922 C 0.23394 0.2717 0.27132 0.0
C923 C 0.27281 0.26593 0.29183 0.0
C924 C 0.30393 0.26905 0.25285 0.0
C925 C 0.29611 0.27793 0.19649 0.0
C926 C 0.19922 0.26878 0.30938 0.0
C927 C 0.34592 0.26305 0.27079 0.0
H928 H 0.3004 0.29972 0.4784 0.0
H929 H 0.28967 0.17783 0.44182 0.0
H930 H 0.30907 0.33428 0.34571 0.0
H931 H 0.25725 0.33545 0.35731 0.0
H932 H 0.29042 0.34853 0.41197 0.0
H933 H 0.27624 0.15425 0.35401 0.0
H934 H 0.24648 0.18653 0.31269 0.0
H935 H 0.29824 0.18358 0.30089 0.0
H936 H 0.19709 0.28325 0.20049 0.0
H937 H 0.32047 0.28026 0.16812 0.0
H938 H 0.20218 0.29052 0.34292 0.0
H939 H 0.19844 0.23932 0.3285 0.0
H940 H 0.17087 0.27399 0.28801 0.0
H941 H 0.35352 0.28457 0.30318 0.0
H942 H 0.36705 0.26626 0.23644 0.0
H943 H 0.34947 0.23342 0.28878 0.0
C944 C 0.72626 0.21165 0.20674 0.0
C945 C 0.73151 0.23877 0.16407 0.0
C946 C 0.73242 0.22062 0.26319 0.0
C947 C 0.74863 0.25739 0.27985 0.0
C948 C 0.75611 0.28468 0.23635 0.0
C949 C 0.74696 0.27541 0.18035 0.0
C950 C 0.7199 0.18997 0.3041 0.0
C951 C 0.77324 0.32455 0.24755 0.0
C952 C 0.74729 0.30422 0.4279 0.0
C953 C 0.77594 0.28284 0.45702 0.0
C954 C 0.73767 0.29609 0.37186 0.0
C955 C 0.75816 0.26653 0.34132 0.0
C956 C 0.78724 0.24488 0.37118 0.0
C957 C 0.79507 0.25277 0.42773 0.0
C958 C 0.70454 0.31924 0.34668 0.0
C959 C 0.80998 0.21208 0.34462 0.0
H960 H 0.71748 0.18261 0.1963 0.0
H961 H 0.75196 0.29736 0.14912 0.0
H962 H 0.73961 0.16414 0.30072 0.0
H963 H 0.71966 0.20063 0.34695 0.0
H964 H 0.68985 0.17954 0.29408 0.0
H965 H 0.79502 0.33222 0.21546 0.0
H966 H 0.74944 0.34674 0.24518 0.0
H967 H 0.78747 0.3267 0.28822 0.0
H968 H 0.73158 0.32723 0.44936 0.0
H969 H 0.81677 0.23526 0.4491 0.0
H970 H 0.69153 0.30454 0.31046 0.0
H971 H 0.71572 0.34843 0.33431 0.0
H972 H 0.68085 0.32431 0.37719 0.0
H973 H 0.79496 0.1841 0.35378 0.0
H974 H 0.84001 0.20968 0.36195 0.0
H975 H 0.81211 0.21534 0.29961 0.0
C976 C 0.76412 0.73835 0.44862 0.0
C977 C 0.75092 0.77533 0.46708 0.0
C978 C 0.77228 0.73036 0.3922 0.0
C979 C 0.76804 0.75997 0.35137 0.0
C980 C 0.7557 0.79761 0.37007 0.0
C981 C 0.74725 0.80456 0.42658 0.0
C982 C 0.78448 0.68955 0.37612 0.0
C983 C 0.7512 0.83094 0.3301 0.0
C984 C 0.82099 0.7477 0.20956 0.0
C985 C 0.79085 0.73543 0.1738 0.0
C986 C 0.81415 0.75585 0.26626 0.0
C987 C 0.77596 0.75166 0.28974 0.0
C988 C 0.7453 0.73972 0.25352 0.0
C989 C 0.75293 0.73226 0.19683 0.0
C990 C 0.84822 0.76878 0.3013 0.0
C991 C 0.70418 0.73399 0.275 0.0
H992 H 0.76709 0.71498 0.47832 0.0
H993 H 0.73812 0.8334 0.43894 0.0
H994 H 0.76147 0.67663 0.34952 0.0
H995 H 0.81217 0.69049 0.35226 0.0
H996 H 0.7888 0.67011 0.41207 0.0
H997 H 0.74333 0.85893 0.35067 0.0
H998 H 0.77897 0.83518 0.30706 0.0
H999 H 0.72797 0.82379 0.29984 0.0
H1000 H 0.85029 0.75085 0.19323 0.0
H1001 H 0.72911 0.72264 0.17063 0.0
H1002 H 0.85333 0.74708 0.33433 0.0
H1003 H 0.84127 0.79719 0.32122 0.0
H1004 H 0.87576 0.77203 0.27733 0.0
H1005 H 0.70431 0.71116 0.30729 0.0
H1006 H 0.68329 0.72507 0.24235 0.0
H1007 H 0.69337 0.76148 0.29407 0.0
C1008 C 0.24822 0.77205 0.21663 0.0
C1009 C 0.28676 0.77269 0.19547 0.0
C1010 C 0.24026 0.76449 0.27321 0.0
C1011 C 0.27122 0.75647 0.31109 0.0
C1012 C 0.3102 0.75698 0.2896 0.0
C1013 C 0.31729 0.76481 0.23297 0.0
C1014 C 0.19836 0.7655 0.29272 0.0
C1015 C 0.34482 0.74899 0.32649 0.0
C1016 C 0.25271 0.76675 0.46945 0.0
C1017 C 0.24616 0.72787 0.48692 0.0
C1018 C 0.26114 0.77634 0.41352 0.0
C1019 C 0.26282 0.74674 0.37219 0.0
C1020 C 0.25701 0.70743 0.39007 0.0
C1021 C 0.24987 0.6987 0.44638 0.0
C1022 C 0.2692 0.81841 0.39892 0.0
C1023 C 0.25872 0.67412 0.34954 0.0
H1024 H 0.22408 0.7781 0.18896 0.0
H1025 H 0.34711 0.76389 0.21763 0.0
H1026 H 0.19046 0.73684 0.31106 0.0
H1027 H 0.19526 0.78806 0.32516 0.0
H1028 H 0.17734 0.77226 0.25922 0.0
H1029 H 0.34483 0.7699 0.36126 0.0
H1030 H 0.34242 0.7191 0.34394 0.0
H1031 H 0.37332 0.75148 0.30458 0.0
H1032 H 0.25117 0.78996 0.49968 0.0
H1033 H 0.24871 0.66855 0.45918 0.0
H1034 H 0.25163 0.82712 0.36275 0.0
H1035 H 0.3006 0.82173 0.38768 0.0
H1036 H 0.26271 0.83863 0.43339 0.0
H1037 H 0.23646 0.67873 0.31696 0.0
H1038 H 0.25325 0.64525 0.36906 0.0
H1039 H 0.28796 0.67337 0.32949 0.0
C1040 C 0.70993 0.76287 0.71454 0.0
C1041 C 0.73996 0.76267 0.67473 0.0
C1042 C 0.71693 0.75373 0.77077 0.0
C1043 C 0.75542 0.74438 0.78983 0.0
C1044 C 0.78591 0.74361 0.74971 0.0
C1045 C 0.77785 0.75221 0.69346 0.0
C1046 C 0.68274 0.75426 0.81002 0.0
C1047 C 0.82754 0.73432 0.76642 0.0
C1048 C 0.78033 0.76042 0.9447 0.0
C1049 C 0.78078 0.72227 0.96688 0.0
C1050 C 0.77252 0.7678 0.88816 0.0
C1051 C 0.76383 0.73655 0.8513 0.0
C1052 C 0.76317 0.69799 0.87395 0.0
C1053 C 0.77172 0.69145 0.93057 0.0
C1054 C 0.77431 0.80939 0.86757 0.0
C1055 C 0.75364 0.66327 0.83818 0.0
H1056 H 0.68044 0.76973 0.70181 0.0
H1057 H 0.80176 0.7518 0.66418 0.0
H1058 H 0.6812 0.72609 0.83254 0.0
H1059 H 0.68702 0.77781 0.84077 0.0
H1060 H 0.65424 0.75925 0.78891 0.0
H1061 H 0.84839 0.73591 0.7315 0.0
H1062 H 0.83731 0.7551 0.79863 0.0
H1063 H 0.82893 0.70446 0.78415 0.0
H1064 H 0.7873 0.78476 0.97151 0.0
H1065 H 0.77137 0.66193 0.94652 0.0
H1066 H 0.74566 0.81782 0.84933 0.0
H1067 H 0.79678 0.81171 0.8348 0.0
H1068 H 0.78164 0.83059 0.90054 0.0
H1069 H 0.72572 0.66845 0.81581 0.0
H1070 H 0.75095 0.63573 0.86208 0.0
H1071 H 0.77711 0.65935 0.80714 0.0
C1072 C 0.21426 0.73384 0.73353 0.0
C1073 C 0.24458 0.72711 0.69527 0.0
C1074 C 0.22191 0.74162 0.79007 0.0
C1075 C 0.26117 0.74375 0.81038 0.0
C1076 C 0.29186 0.73796 0.77137 0.0
C1077 C 0.28335 0.72999 0.71514 0.0
C1078 C 0.18762 0.74735 0.82831 0.0
C1079 C 0.33409 0.73965 0.78917 0.0
C1080 C 0.28179 0.79992 0.94724 0.0
C1081 C 0.28652 0.7701 0.98657 0.0
C1082 C 0.27419 0.79193 0.89083 0.0
C1083 C 0.27004 0.75272 0.87151 0.0
C1084 C 0.27412 0.72236 0.91131 0.0
C1085 C 0.28206 0.73128 0.96759 0.0
C1086 C 0.27054 0.82587 0.8517 0.0
C1087 C 0.27042 0.68007 0.8943 0.0
H1088 H 0.18426 0.73354 0.71902 0.0
H1089 H 0.30733 0.72526 0.68669 0.0
H1090 H 0.18876 0.77713 0.8465 0.0
H1091 H 0.1589 0.7436 0.8073 0.0
H1092 H 0.18943 0.72605 0.86249 0.0
H1093 H 0.35473 0.73797 0.75401 0.0
H1094 H 0.33973 0.76714 0.81214 0.0
H1095 H 0.34024 0.7148 0.81711 0.0
H1096 H 0.28291 0.82998 0.96104 0.0
H1097 H 0.2853 0.70761 0.99676 0.0
H1098 H 0.2409 0.8259 0.8328 0.0
H1099 H 0.29226 0.82266 0.81811 0.0
H1100 H 0.27538 0.85456 0.87214 0.0
H1101 H 0.24241 0.67539 0.87195 0.0
H1102 H 0.27152 0.65982 0.92981 0.0
H1103 H 0.29469 0.67246 0.86589 0.0
C1104 C 0.30227 0.27352 0.95177 0.0
C1105 C 0.263 0.2807 0.96767 0.0
C1106 C 0.313 0.26433 0.89645 0.0
C1107 C 0.28415 0.26308 0.85377 0.0
C1108 C 0.24435 0.26947 0.87025 0.0
C1109 C 0.23462 0.27704 0.92608 0.0
C1110 C 0.35568 0.25596 0.88456 0.0
C1111 C 0.21098 0.2679 0.82959 0.0
C1112 C 0.32058 0.27392 0.70156 0.0
C1113 C 0.30819 0.23887 0.6766 0.0
C1114 C 0.31485 0.28149 0.75865 0.0
C1115 C 0.29482 0.25397 0.79308 0.0
C1116 C 0.28376 0.21778 0.76789 0.0
C1117 C 0.29012 0.21109 0.71092 0.0
C1118 C 0.33157 0.31909 0.78105 0.0
C1119 C 0.26559 0.18496 0.80052 0.0
H1120 H 0.32503 0.27527 0.98271 0.0
H1121 H 0.20421 0.27996 0.93724 0.0
H1122 H 0.35957 0.23686 0.84817 0.0
H1123 H 0.37113 0.28405 0.8771 0.0
H1124 H 0.37007 0.24175 0.92021 0.0
H1125 H 0.18708 0.28845 0.84124 0.0
H1126 H 0.2205 0.27481 0.78732 0.0
H1127 H 0.19812 0.23807 0.82992 0.0
H1128 H 0.33574 0.29536 0.67663 0.0
H1129 H 0.28058 0.18363 0.69302 0.0
H1130 H 0.36399 0.31612 0.78399 0.0
H1131 H 0.32002 0.32673 0.82196 0.0
H1132 H 0.32564 0.3437 0.75261 0.0
H1133 H 0.27031 0.18806 0.84523 0.0
H1134 H 0.27789 0.15632 0.78737 0.0
H1135 H 0.23358 0.18397 0.79211 0.0
C1136 C 0.8002 0.26938 0.70431 0.0
C1137 C 0.77242 0.28236 0.66558 0.0
C1138 C 0.79067 0.26334 0.7606 0.0
C1139 C 0.75162 0.26913 0.78023 0.0
C1140 C 0.72316 0.28166 0.74094 0.0
C1141 C 0.73374 0.288 0.68488 0.0
C1142 C 0.82287 0.25101 0.79938 0.0
C1143 C 0.68109 0.28793 0.75801 0.0
C1144 C 0.72234 0.21383 0.91429 0.0
C1145 C 0.72252 0.2429 0.95528 0.0
C1146 C 0.73028 0.22207 0.8581 0.0
C1147 C 0.74055 0.26057 0.84072 0.0
C1148 C 0.74158 0.29016 0.88213 0.0
C1149 C 0.73266 0.2811 0.93808 0.0
C1150 C 0.7281 0.18901 0.81719 0.0
C1151 C 0.75262 0.33161 0.86741 0.0
H1152 H 0.82967 0.26316 0.6902 0.0
H1153 H 0.71161 0.2978 0.65608 0.0
H1154 H 0.81463 0.22352 0.82062 0.0
H1155 H 0.85137 0.24638 0.77816 0.0
H1156 H 0.82687 0.27387 0.83122 0.0
H1157 H 0.66264 0.29921 0.72398 0.0
H1158 H 0.66859 0.2598 0.77254 0.0
H1159 H 0.67955 0.30895 0.7926 0.0
H1160 H 0.71746 0.18393 0.92662 0.0
H1161 H 0.73376 0.30416 0.96856 0.0
H1162 H 0.75764 0.18349 0.79958 0.0
H1163 H 0.70835 0.1972 0.7829 0.0
H1164 H 0.71719 0.16141 0.83581 0.0
H1165 H 0.78233 0.33206 0.84867 0.0
H1166 H 0.75244 0.35145 0.90349 0.0
H1167 H 0.73182 0.34327 0.8365 0.0
loop_
_geom_bond_atom_site_label_1
_geom_bond_atom_site_label_2
_geom_bond_distance
_geom_bond_site_symmetry_2
_ccdc_geom_bond_type
Zn0 N4 2.020 . S
Zn0 O8 2.019 . S
Zn0 N10 2.119 . S
Zn0 O18 1.975 . S
C1 N2 1.334 . S
C1 N5 1.336 . S
N2 C1 1.334 . S
N2 C3 1.334 1_554 S
C3 N2 1.334 1_556 S
C3 N4 1.336 . S
N4 Zn0 2.020 . S
N4 C3 1.336 . S
N4 N5 1.354 1_556 S
N5 C1 1.336 . S
N5 N4 1.354 1_554 S
N5 Zn9 2.020 . S
C6 O7 1.244 . S
C6 O30 1.257 . S
O7 C6 1.244 . S
O8 Zn0 2.019 . S
O8 C28 1.257 . S
Zn9 N5 2.020 . S
Zn9 O16 1.975 . S
Zn9 N25 2.119 . S
Zn9 O30 2.019 . S
N10 Zn0 2.119 . S
N10 C12 1.334 . S
N10 C13 1.328 . S
C11 C12 1.391 . S
C11 N14 1.329 . S
C11 H32 0.930 . S
C12 N10 1.334 . S
C12 C11 1.391 . S
C12 H19 0.930 . S
C13 N10 1.328 . S
C13 C15 1.392 . S
C13 H20 0.930 . S
N14 C11 1.329 . S
N14 C15 1.331 . S
C15 C13 1.392 . S
C15 N14 1.331 . S
O16 Zn9 1.975 . S
O16 C17 1.252 . S
C17 O16 1.252 . S
C17 O18 1.252 1_554 S
O18 Zn0 1.975 . S
O18 C17 1.252 1_556 S
H19 C12 0.930 . S
H20 C13 0.930 . S
C21 C22 1.392 . S
C21 N25 1.328 . S
C21 H27 0.930 . S
C22 C21 1.392 . S
C22 N26 1.331 . S
C23 C24 1.391 . S
C23 N26 1.329 . S
C23 H33 0.930 . S
C24 C23 1.391 . S
C24 N25 1.334 . S
C24 H31 0.930 . S
N25 Zn9 2.119 . S
N25 C21 1.328 . S
N25 C24 1.334 . S
N26 C22 1.331 . S
N26 C23 1.329 . S
H27 C21 0.930 . S
C28 O8 1.257 . S
C28 O29 1.244 . S
O29 C28 1.244 . S
O30 C6 1.257 . S
O30 Zn9 2.019 . S
H31 C24 0.930 . S
H32 C11 0.930 . S
H33 C23 0.930 . S
Zn34 N38 2.020 . S
Zn34 O42 2.019 . S
Zn34 N44 2.119 . S
Zn34 O52 1.975 . S
C35 N36 1.334 1_556 S
C35 N39 1.336 . S
N36 C35 1.334 1_554 S
N36 C37 1.334 . S
C37 N36 1.334 . S
C37 N38 1.336 . S
N38 Zn34 2.020 . S
N38 C37 1.336 . S
N38 N39 1.354 1_554 S
N39 C35 1.336 . S
N39 N38 1.354 1_556 S
N39 Zn43 2.020 . S
C40 O41 1.244 . S
C40 O64 1.257 . S
O41 C40 1.244 . S
O42 Zn34 2.019 . S
O42 C62 1.257 . S
Zn43 N39 2.020 . S
Zn43 O50 1.975 . S
Zn43 N59 2.119 . S
Zn43 O64 2.019 . S
N44 Zn34 2.119 . S
N44 C46 1.334 . S
N44 C47 1.328 . S
C45 C46 1.391 . S
C45 N48 1.329 . S
C45 H66 0.930 . S
C46 N44 1.334 . S
C46 C45 1.391 . S
C46 H53 0.930 . S
C47 N44 1.328 . S
C47 C49 1.392 . S
C47 H54 0.930 . S
N48 C45 1.329 . S
N48 C49 1.331 . S
C49 C47 1.392 . S
C49 N48 1.331 . S
O50 Zn43 1.975 . S
O50 C51 1.252 1_556 S
C51 O50 1.252 1_554 S
C51 O52 1.252 . S
O52 Zn34 1.975 . S
O52 C51 1.252 . S
H53 C46 0.930 . S
H54 C47 0.930 . S
C55 C56 1.392 . S
C55 N59 1.328 . S
C55 H61 0.930 . S
C56 C55 1.392 . S
C56 N60 1.331 . S
C57 C58 1.391 . S
C57 N60 1.329 . S
C57 H67 0.930 . S
C58 C57 1.391 . S
C58 N59 1.334 . S
C58 H65 0.930 . S
N59 Zn43 2.119 . S
N59 C55 1.328 . S
N59 C58 1.334 . S
N60 C56 1.331 . S
N60 C57 1.329 . S
H61 C55 0.930 . S
C62 O42 1.257 . S
C62 O63 1.244 . S
O63 C62 1.244 . S
O64 C40 1.257 . S
O64 Zn43 2.019 . S
H65 C58 0.930 . S
H66 C45 0.930 . S
H67 C57 0.930 . S
Zn68 N72 2.020 . S
Zn68 O76 2.019 . S
Zn68 N78 2.119 . S
Zn68 O86 1.975 . S
C69 N70 1.334 . S
C69 N73 1.336 . S
N70 C69 1.334 . S
N70 C71 1.334 1_554 S
C71 N70 1.334 1_556 S
C71 N72 1.336 . S
N72 Zn68 2.020 . S
N72 C71 1.336 . S
N72 N73 1.354 1_556 S
N73 C69 1.336 . S
N73 N72 1.354 1_554 S
N73 Zn77 2.020 . S
C74 O75 1.244 . S
C74 O98 1.257 . S
O75 C74 1.244 . S
O76 Zn68 2.019 . S
O76 C96 1.257 . S
Zn77 N73 2.020 . S
Zn77 O84 1.975 . S
Zn77 N93 2.119 . S
Zn77 O98 2.019 . S
N78 Zn68 2.119 . S
N78 C80 1.334 . S
N78 C81 1.328 . S
C79 C80 1.391 . S
C79 N82 1.329 . S
C79 H100 0.930 . S
C80 N78 1.334 . S
C80 C79 1.391 . S
C80 H87 0.930 . S
C81 N78 1.328 . S
C81 C83 1.392 . S
C81 H88 0.930 . S
N82 C79 1.329 . S
N82 C83 1.331 . S
C83 C81 1.392 . S
C83 N82 1.331 . S
O84 Zn77 1.975 . S
O84 C85 1.252 . S
C85 O84 1.252 . S
C85 O86 1.252 1_554 S
O86 Zn68 1.975 . S
O86 C85 1.252 1_556 S
H87 C80 0.930 . S
H88 C81 0.930 . S
C89 C90 1.392 . S
C89 N93 1.328 . S
C89 H95 0.930 . S
C90 C89 1.392 . S
C90 N94 1.331 . S
C91 C92 1.391 . S
C91 N94 1.329 . S
C91 H101 0.930 . S
C92 C91 1.391 . S
C92 N93 1.334 . S
C92 H99 0.930 . S
N93 Zn77 2.119 . S
N93 C89 1.328 . S
N93 C92 1.334 . S
N94 C90 1.331 . S
N94 C91 1.329 . S
H95 C89 0.930 . S
C96 O76 1.257 . S
C96 O97 1.244 . S
O97 C96 1.244 . S
O98 C74 1.257 . S
O98 Zn77 2.019 . S
H99 C92 0.930 . S
H100 C79 0.930 . S
H101 C91 0.930 . S
Zn102 N106 2.020 . S
Zn102 O110 2.019 . S
Zn102 N112 2.119 . S
Zn102 O120 1.975 . S
C103 N104 1.334 . S
C103 N107 1.336 . S
N104 C103 1.334 . S
N104 C105 1.334 1_554 S
C105 N104 1.334 1_556 S
C105 N106 1.336 . S
N106 Zn102 2.020 . S
N106 C105 1.336 . S
N106 N107 1.354 1_556 S
N107 C103 1.336 . S
N107 N106 1.354 1_554 S
N107 Zn111 2.020 . S
C108 O109 1.244 . S
C108 O132 1.257 . S
O109 C108 1.244 . S
O110 Zn102 2.019 . S
O110 C130 1.257 . S
Zn111 N107 2.020 . S
Zn111 O118 1.975 . S
Zn111 N127 2.119 . S
Zn111 O132 2.019 . S
N112 Zn102 2.119 . S
N112 C114 1.334 . S
N112 C115 1.328 . S
C113 C114 1.391 . S
C113 N116 1.329 . S
C113 H134 0.930 . S
C114 N112 1.334 . S
C114 C113 1.391 . S
C114 H121 0.930 . S
C115 N112 1.328 . S
C115 C117 1.392 . S
C115 H122 0.930 . S
N116 C113 1.329 . S
N116 C117 1.331 . S
C117 C115 1.392 . S
C117 N116 1.331 . S
O118 Zn111 1.975 . S
O118 C119 1.252 . S
C119 O118 1.252 . S
C119 O120 1.252 1_554 S
O120 Zn102 1.975 . S
O120 C119 1.252 1_556 S
H121 C114 0.930 . S
H122 C115 0.930 . S
C123 C124 1.392 . S
C123 N127 1.328 . S
C123 H129 0.930 . S
C124 C123 1.392 . S
C124 N128 1.331 . S
C125 C126 1.391 . S
C125 N128 1.329 . S
C125 H135 0.930 . S
C126 C125 1.391 . S
C126 N127 1.334 . S
C126 H133 0.930 . S
N127 Zn111 2.119 . S
N127 C123 1.328 . S
N127 C126 1.334 . S
N128 C124 1.331 . S
N128 C125 1.329 . S
H129 C123 0.930 . S
C130 O110 1.257 . S
C130 O131 1.244 . S
O131 C130 1.244 . S
O132 C108 1.257 . S
O132 Zn111 2.019 . S
H133 C126 0.930 . S
H134 C113 0.930 . S
H135 C125 0.930 . S
Zn136 N140 2.020 . S
Zn136 O144 2.019 . S
Zn136 N146 2.119 . S
Zn136 O154 1.975 . S
C137 N138 1.334 . S
C137 N141 1.336 . S
N138 C137 1.334 . S
N138 C139 1.334 . S
C139 N138 1.334 . S
C139 N140 1.336 . S
N140 Zn136 2.020 . S
N140 C139 1.336 . S
N140 N141 1.354 . S
N141 C137 1.336 . S
N141 N140 1.354 . S
N141 Zn145 2.020 . S
C142 O143 1.244 . S
C142 O166 1.257 . S
O143 C142 1.244 . S
O144 Zn136 2.019 . S
O144 C164 1.257 . S
Zn145 N141 2.020 . S
Zn145 O152 1.975 . S
Zn145 N161 2.119 . S
Zn145 O166 2.019 . S
N146 Zn136 2.119 . S
N146 C148 1.334 . S
N146 C149 1.328 . S
C147 C148 1.391 . S
C147 N150 1.329 . S
C147 H168 0.930 . S
C148 N146 1.334 . S
C148 C147 1.391 . S
C148 H155 0.930 . S
C149 N146 1.328 . S
C149 C151 1.392 . S
C149 H156 0.930 . S
N150 C147 1.329 . S
N150 C151 1.331 . S
C151 C149 1.392 . S
C151 N150 1.331 . S
O152 Zn145 1.975 . S
O152 C153 1.252 . S
C153 O152 1.252 . S
C153 O154 1.252 . S
O154 Zn136 1.975 . S
O154 C153 1.252 . S
H155 C148 0.930 . S
H156 C149 0.930 . S
C157 C158 1.392 . S
C157 N161 1.328 . S
C157 H163 0.930 . S
C158 C157 1.392 . S
C158 N162 1.331 . S
C159 C160 1.391 . S
C159 N162 1.329 . S
C159 H169 0.930 . S
C160 C159 1.391 . S
C160 N161 1.334 . S
C160 H167 0.930 . S
N161 Zn145 2.119 . S
N161 C157 1.328 . S
N161 C160 1.334 . S
N162 C158 1.331 . S
N162 C159 1.329 . S
H163 C157 0.930 . S
C164 O144 1.257 . S
C164 O165 1.244 . S
O165 C164 1.244 . S
O166 C142 1.257 . S
O166 Zn145 2.019 . S
H167 C160 0.930 . S
H168 C147 0.930 . S
H169 C159 0.930 . S
Zn170 N174 2.020 . S
Zn170 O178 2.019 . S
Zn170 N180 2.119 . S
Zn170 O188 1.975 . S
C171 N172 1.334 . S
C171 N175 1.336 . S
N172 C171 1.334 . S
N172 C173 1.334 . S
C173 N172 1.334 . S
C173 N174 1.336 . S
N174 Zn170 2.020 . S
N174 C173 1.336 . S
N174 N175 1.354 . S
N175 C171 1.336 . S
N175 N174 1.354 . S
N175 Zn179 2.020 . S
C176 O177 1.244 . S
C176 O200 1.257 . S
O177 C176 1.244 . S
O178 Zn170 2.019 . S
O178 C198 1.257 . S
Zn179 N175 2.020 . S
Zn179 O186 1.975 . S
Zn179 N195 2.119 . S
Zn179 O200 2.019 . S
N180 Zn170 2.119 . S
N180 C182 1.334 . S
N180 C183 1.328 . S
C181 C182 1.391 . S
C181 N184 1.329 . S
C181 H202 0.930 . S
C182 N180 1.334 . S
C182 C181 1.391 . S
C182 H189 0.930 . S
C183 N180 1.328 . S
C183 C185 1.392 . S
C183 H190 0.930 . S
N184 C181 1.329 . S
N184 C185 1.331 . S
C185 C183 1.392 . S
C185 N184 1.331 . S
O186 Zn179 1.975 . S
O186 C187 1.252 . S
C187 O186 1.252 . S
C187 O188 1.252 . S
O188 Zn170 1.975 . S
O188 C187 1.252 . S
H189 C182 0.930 . S
H190 C183 0.930 . S
C191 C192 1.392 . S
C191 N195 1.328 . S
C191 H197 0.930 . S
C192 C191 1.392 . S
C192 N196 1.331 . S
C193 C194 1.391 . S
C193 N196 1.329 . S
C193 H203 0.930 . S
C194 C193 1.391 . S
C194 N195 1.334 . S
C194 H201 0.930 . S
N195 Zn179 2.119 . S
N195 C191 1.328 . S
N195 C194 1.334 . S
N196 C192 1.331 . S
N196 C193 1.329 . S
H197 C191 0.930 . S
C198 O178 1.257 . S
C198 O199 1.244 . S
O199 C198 1.244 . S
O200 C176 1.257 . S
O200 Zn179 2.019 . S
H201 C194 0.930 . S
H202 C181 0.930 . S
H203 C193 0.930 . S
Zn204 N208 2.020 . S
Zn204 O212 2.019 . S
Zn204 N214 2.119 . S
Zn204 O222 1.975 . S
C205 N206 1.334 . S
C205 N209 1.336 . S
N206 C205 1.334 . S
N206 C207 1.334 . S
C207 N206 1.334 . S
C207 N208 1.336 . S
N208 Zn204 2.020 . S
N208 C207 1.336 . S
N208 N209 1.354 . S
N209 C205 1.336 . S
N209 N208 1.354 . S
N209 Zn213 2.020 . S
C210 O211 1.244 . S
C210 O234 1.257 . S
O211 C210 1.244 . S
O212 Zn204 2.019 . S
O212 C232 1.257 . S
Zn213 N209 2.020 . S
Zn213 O220 1.975 . S
Zn213 N229 2.119 . S
Zn213 O234 2.019 . S
N214 Zn204 2.119 . S
N214 C216 1.334 . S
N214 C217 1.328 . S
C215 C216 1.391 . S
C215 N218 1.329 . S
C215 H236 0.930 . S
C216 N214 1.334 . S
C216 C215 1.391 . S
C216 H223 0.930 . S
C217 N214 1.328 . S
C217 C219 1.392 . S
C217 H224 0.930 . S
N218 C215 1.329 . S
N218 C219 1.331 . S
C219 C217 1.392 . S
C219 N218 1.331 . S
O220 Zn213 1.975 . S
O220 C221 1.252 . S
C221 O220 1.252 . S
C221 O222 1.252 . S
O222 Zn204 1.975 . S
O222 C221 1.252 . S
H223 C216 0.930 . S
H224 C217 0.930 . S
C225 C226 1.392 . S
C225 N229 1.328 . S
C225 H231 0.930 . S
C226 C225 1.392 . S
C226 N230 1.331 . S
C227 C228 1.391 . S
C227 N230 1.329 . S
C227 H237 0.930 . S
C228 C227 1.391 . S
C228 N229 1.334 . S
C228 H235 0.930 . S
N229 Zn213 2.119 . S
N229 C225 1.328 . S
N229 C228 1.334 . S
N230 C226 1.331 . S
N230 C227 1.329 . S
H231 C225 0.930 . S
C232 O212 1.257 . S
C232 O233 1.244 . S
O233 C232 1.244 . S
O234 C210 1.257 . S
O234 Zn213 2.019 . S
H235 C228 0.930 . S
H236 C215 0.930 . S
H237 C227 0.930 . S
Zn238 N242 2.020 . S
Zn238 O246 2.019 . S
Zn238 N248 2.119 . S
Zn238 O256 1.975 . S
C239 N240 1.334 . S
C239 N243 1.336 . S
N240 C239 1.334 . S
N240 C241 1.334 . S
C241 N240 1.334 . S
C241 N242 1.336 . S
N242 Zn238 2.020 . S
N242 C241 1.336 . S
N242 N243 1.354 . S
N243 C239 1.336 . S
N243 N242 1.354 . S
N243 Zn247 2.020 . S
C244 O245 1.244 . S
C244 O268 1.257 . S
O245 C244 1.244 . S
O246 Zn238 2.019 . S
O246 C266 1.257 . S
Zn247 N243 2.020 . S
Zn247 O254 1.975 . S
Zn247 N263 2.119 . S
Zn247 O268 2.019 . S
N248 Zn238 2.119 . S
N248 C250 1.334 . S
N248 C251 1.328 . S
C249 C250 1.391 . S
C249 N252 1.329 . S
C249 H270 0.930 . S
C250 N248 1.334 . S
C250 C249 1.391 . S
C250 H257 0.930 . S
C251 N248 1.328 . S
C251 C253 1.392 . S
C251 H258 0.930 . S
N252 C249 1.329 . S
N252 C253 1.331 . S
C253 C251 1.392 . S
C253 N252 1.331 . S
O254 Zn247 1.975 . S
O254 C255 1.252 . S
C255 O254 1.252 . S
C255 O256 1.252 . S
O256 Zn238 1.975 . S
O256 C255 1.252 . S
H257 C250 0.930 . S
H258 C251 0.930 . S
C259 C260 1.392 . S
C259 N263 1.328 . S
C259 H265 0.930 . S
C260 C259 1.392 . S
C260 N264 1.331 . S
C261 C262 1.391 . S
C261 N264 1.329 . S
C261 H271 0.930 . S
C262 C261 1.391 . S
C262 N263 1.334 . S
C262 H269 0.930 . S
N263 Zn247 2.119 . S
N263 C259 1.328 . S
N263 C262 1.334 . S
N264 C260 1.331 . S
N264 C261 1.329 . S
H265 C259 0.930 . S
C266 O246 1.257 . S
C266 O267 1.244 . S
O267 C266 1.244 . S
O268 C244 1.257 . S
O268 Zn247 2.019 . S
H269 C262 0.930 . S
H270 C249 0.930 . S
H271 C261 0.930 . S
C272 C273 1.391 . S
C272 C274 1.394 . S
C272 H288 0.931 . S
C273 C272 1.391 . S
C273 C277 1.376 1_556 S
C274 C272 1.394 . S
C274 C275 1.369 . S
C274 C278 1.531 . S
C275 C274 1.369 . S
C275 C276 1.407 1_556 S
C275 C283 1.503 1_455 S
C276 C275 1.407 1_554 S
C276 C277 1.393 . S
C276 C279 1.513 1_455 S
C277 C273 1.376 1_554 S
C277 C276 1.393 . S
C277 H289 0.929 . S
C278 C274 1.531 . S
C278 H290 0.960 . S
C278 H291 0.962 . S
C278 H292 0.960 . S
C279 C276 1.513 1_655 S
C279 H293 0.961 . S
C279 H294 0.961 . S
C279 H295 0.961 1_554 S
C280 C281 1.370 1_554 S
C280 C282 1.363 . S
C280 H296 0.931 . S
C281 C280 1.370 1_556 S
C281 C285 1.408 . S
C282 C280 1.363 . S
C282 C283 1.370 1_554 S
C282 C286 1.521 1_655 S
C283 C275 1.503 1_655 S
C283 C282 1.370 1_556 S
C283 C284 1.403 . S
C284 C283 1.403 . S
C284 C285 1.404 . S
C284 C287 1.539 . S
C285 C281 1.408 . S
C285 C284 1.404 . S
C285 H297 0.930 . S
C286 C282 1.521 1_455 S
C286 H298 0.962 . S
C286 H299 0.960 1_455 S
C286 H300 0.958 1_455 S
C287 C284 1.539 . S
C287 H301 0.958 . S
C287 H302 0.961 . S
C287 H303 0.960 . S
H288 C272 0.931 . S
H289 C277 0.929 . S
H290 C278 0.960 . S
H291 C278 0.962 . S
H292 C278 0.960 . S
H293 C279 0.961 . S
H294 C279 0.961 . S
H295 C279 0.961 1_556 S
H296 C280 0.931 . S
H297 C285 0.930 . S
H298 C286 0.962 . S
H299 C286 0.960 1_655 S
H300 C286 0.958 1_655 S
H301 C287 0.958 . S
H302 C287 0.961 . S
H303 C287 0.960 . S
C304 C305 1.391 . S
C304 C306 1.394 . S
C304 H320 0.931 . S
C305 C304 1.391 . S
C305 C309 1.376 . S
C306 C304 1.394 . S
C306 C307 1.369 . S
C306 C310 1.531 . S
C307 C306 1.369 . S
C307 C308 1.410 . S
C307 C315 1.503 1_565 S
C308 C307 1.410 . S
C308 C309 1.392 . S
C308 C311 1.511 1_565 S
C309 C305 1.376 . S
C309 C308 1.392 . S
C309 H321 0.929 . S
C310 C306 1.531 . S
C310 H322 0.960 . S
C310 H323 0.962 1_556 S
C310 H324 0.960 . S
C311 C308 1.511 1_545 S
C311 H325 0.961 . S
C311 H326 0.961 . S
C311 H327 0.961 . S
C312 C313 1.370 1_554 S
C312 C314 1.363 . S
C312 H328 0.931 . S
C313 C312 1.370 1_556 S
C313 C317 1.408 . S
C314 C312 1.363 . S
C314 C315 1.370 1_554 S
C314 C318 1.524 . S
C315 C307 1.503 1_545 S
C315 C314 1.370 1_556 S
C315 C316 1.403 . S
C316 C315 1.403 . S
C316 C317 1.404 . S
C316 C319 1.539 . S
C317 C313 1.408 . S
C317 C316 1.404 . S
C317 H329 0.930 . S
C318 C314 1.524 . S
C318 H330 0.956 1_545 S
C318 H331 0.961 . S
C318 H332 0.961 . S
C319 C316 1.539 . S
C319 H333 0.958 1_545 S
C319 H334 0.961 . S
C319 H335 0.960 . S
H320 C304 0.931 . S
H321 C309 0.929 . S
H322 C310 0.960 . S
H323 C310 0.962 1_554 S
H324 C310 0.960 . S
H325 C311 0.961 . S
H326 C311 0.961 . S
H327 C311 0.961 . S
H328 C312 0.931 . S
H329 C317 0.930 . S
H330 C318 0.956 1_565 S
H331 C318 0.961 . S
H332 C318 0.961 . S
H333 C319 0.958 1_565 S
H334 C319 0.961 . S
H335 C319 0.960 . S
C336 C337 1.391 . S
C336 C338 1.394 . S
C336 H352 0.931 . S
C337 C336 1.391 . S
C337 C341 1.376 . S
C338 C336 1.394 . S
C338 C339 1.369 . S
C338 C342 1.531 . S
C339 C338 1.369 . S
C339 C340 1.410 . S
C339 C347 1.503 1_455 S
C340 C339 1.410 . S
C340 C341 1.392 . S
C340 C343 1.511 1_455 S
C341 C337 1.376 . S
C341 C340 1.392 . S
C341 H353 0.929 . S
C342 C338 1.531 . S
C342 H354 0.960 . S
C342 H355 0.962 . S
C342 H356 0.960 . S
C343 C340 1.511 1_655 S
C343 H357 0.961 . S
C343 H358 0.961 . S
C343 H359 0.961 . S
C344 C345 1.370 . S
C344 C346 1.363 . S
C344 H360 0.931 . S
C345 C344 1.370 . S
C345 C349 1.408 . S
C346 C344 1.363 . S
C346 C347 1.370 . S
C346 C350 1.524 . S
C347 C339 1.503 1_655 S
C347 C346 1.370 . S
C347 C348 1.403 . S
C348 C347 1.403 . S
C348 C349 1.404 . S
C348 C351 1.539 . S
C349 C345 1.408 . S
C349 C348 1.404 . S
C349 H361 0.930 . S
C350 C346 1.524 . S
C350 H362 0.956 1_655 S
C350 H363 0.961 . S
C350 H364 0.961 . S
C351 C348 1.539 . S
C351 H365 0.958 1_655 S
C351 H366 0.961 . S
C351 H367 0.960 . S
H352 C336 0.931 . S
H353 C341 0.929 . S
H354 C342 0.960 . S
H355 C342 0.962 . S
H356 C342 0.960 . S
H357 C343 0.961 . S
H358 C343 0.961 . S
H359 C343 0.961 . S
H360 C344 0.931 . S
H361 C349 0.930 . S
H362 C350 0.956 1_455 S
H363 C350 0.961 . S
H364 C350 0.961 . S
H365 C351 0.958 1_455 S
H366 C351 0.961 . S
H367 C351 0.960 . S
C368 C369 1.391 . S
C368 C370 1.394 . S
C368 H384 0.931 . S
C369 C368 1.391 . S
C369 C373 1.376 . S
C370 C368 1.394 . S
C370 C371 1.369 . S
C370 C374 1.531 1_565 S
C371 C370 1.369 . S
C371 C372 1.410 . S
C371 C379 1.503 1_565 S
C372 C371 1.410 . S
C372 C373 1.392 . S
C372 C375 1.511 . S
C373 C369 1.376 . S
C373 C372 1.392 . S
C373 H385 0.929 . S
C374 C370 1.531 1_545 S
C374 H386 0.960 . S
C374 H387 0.962 . S
C374 H388 0.960 . S
C375 C372 1.511 . S
C375 H389 0.961 . S
C375 H390 0.961 . S
C375 H391 0.961 . S
C376 C377 1.370 . S
C376 C378 1.363 . S
C376 H392 0.931 . S
C377 C376 1.370 . S
C377 C381 1.408 . S
C378 C376 1.363 . S
C378 C379 1.370 . S
C378 C382 1.524 . S
C379 C371 1.503 1_545 S
C379 C378 1.370 . S
C379 C380 1.403 . S
C380 C379 1.403 . S
C380 C381 1.404 . S
C380 C383 1.539 1_545 S
C381 C377 1.408 . S
C381 C380 1.404 . S
C381 H393 0.930 . S
C382 C378 1.524 . S
C382 H394 0.956 . S
C382 H395 0.961 . S
C382 H396 0.961 . S
C383 C380 1.539 1_565 S
C383 H397 0.958 . S
C383 H398 0.961 . S
C383 H399 0.960 . S
H384 C368 0.931 . S
H385 C373 0.929 . S
H386 C374 0.960 . S
H387 C374 0.962 . S
H388 C374 0.960 . S
H389 C375 0.961 . S
H390 C375 0.961 . S
H391 C375 0.961 . S
H392 C376 0.931 . S
H393 C381 0.930 . S
H394 C382 0.956 . S
H395 C382 0.961 . S
H396 C382 0.961 . S
H397 C383 0.958 . S
H398 C383 0.961 . S
H399 C383 0.960 . S
C400 C401 1.391 . S
C400 C402 1.394 . S
C400 H416 0.931 . S
C401 C400 1.391 . S
C401 C405 1.376 . S
C402 C400 1.394 . S
C402 C403 1.369 . S
C402 C406 1.531 . S
C403 C402 1.369 . S
C403 C404 1.410 . S
C403 C411 1.503 . S
C404 C403 1.410 . S
C404 C405 1.392 . S
C404 C407 1.511 . S
C405 C401 1.376 . S
C405 C404 1.392 . S
C405 H417 0.929 . S
C406 C402 1.531 . S
C406 H418 0.960 . S
C406 H419 0.962 . S
C406 H420 0.960 . S
C407 C404 1.511 . S
C407 H421 0.961 . S
C407 H422 0.961 . S
C407 H423 0.961 . S
C408 C409 1.370 . S
C408 C410 1.363 . S
C408 H424 0.931 . S
C409 C408 1.370 . S
C409 C413 1.408 . S
C410 C408 1.363 . S
C410 C411 1.370 . S
C410 C414 1.524 . S
C411 C403 1.503 . S
C411 C410 1.370 . S
C411 C412 1.403 . S
C412 C411 1.403 . S
C412 C413 1.404 . S
C412 C415 1.539 . S
C413 C409 1.408 . S
C413 C412 1.404 . S
C413 H425 0.930 . S
C414 C410 1.524 . S
C414 H426 0.956 . S
C414 H427 0.961 . S
C414 H428 0.961 . S
C415 C412 1.539 . S
C415 H429 0.958 . S
C415 H430 0.961 . S
C415 H431 0.960 . S
H416 C400 0.931 . S
H417 C405 0.929 . S
H418 C406 0.960 . S
H419 C406 0.962 . S
H420 C406 0.960 . S
H421 C407 0.961 . S
H422 C407 0.961 . S
H423 C407 0.961 . S
H424 C408 0.931 . S
H425 C413 0.930 . S
H426 C414 0.956 . S
H427 C414 0.961 . S
H428 C414 0.961 . S
H429 C415 0.958 . S
H430 C415 0.961 . S
H431 C415 0.960 . S
C432 C433 1.391 . S
C432 C434 1.394 . S
C432 H448 0.931 . S
C433 C432 1.391 . S
C433 C437 1.376 . S
C434 C432 1.394 . S
C434 C435 1.369 . S
C434 C438 1.531 . S
C435 C434 1.369 . S
C435 C436 1.410 . S
C435 C443 1.503 . S
C436 C435 1.410 . S
C436 C437 1.392 . S
C436 C439 1.511 . S
C437 C433 1.376 . S
C437 C436 1.392 . S
C437 H449 0.929 . S
C438 C434 1.531 . S
C438 H450 0.960 . S
C438 H451 0.962 . S
C438 H452 0.960 . S
C439 C436 1.511 . S
C439 H453 0.961 . S
C439 H454 0.961 . S
C439 H455 0.961 . S
C440 C441 1.370 . S
C440 C442 1.363 . S
C440 H456 0.931 . S
C441 C440 1.370 . S
C441 C445 1.408 . S
C442 C440 1.363 . S
C442 C443 1.370 . S
C442 C446 1.524 . S
C443 C435 1.503 . S
C443 C442 1.370 . S
C443 C444 1.403 . S
C444 C443 1.403 . S
C444 C445 1.404 . S
C444 C447 1.539 . S
C445 C441 1.408 . S
C445 C444 1.404 . S
C445 H457 0.930 . S
C446 C442 1.524 . S
C446 H458 0.956 . S
C446 H459 0.961 . S
C446 H460 0.961 . S
C447 C444 1.539 . S
C447 H461 0.958 . S
C447 H462 0.961 . S
C447 H463 0.960 . S
H448 C432 0.931 . S
H449 C437 0.929 . S
H450 C438 0.960 . S
H451 C438 0.962 . S
H452 C438 0.960 . S
H453 C439 0.961 . S
H454 C439 0.961 . S
H455 C439 0.961 . S
H456 C440 0.931 . S
H457 C445 0.930 . S
H458 C446 0.956 . S
H459 C446 0.961 . S
H460 C446 0.961 . S
H461 C447 0.958 . S
H462 C447 0.961 . S
H463 C447 0.960 . S
C464 C465 1.391 . S
C464 C466 1.394 . S
C464 H480 0.931 . S
C465 C464 1.391 . S
C465 C469 1.376 . S
C466 C464 1.394 . S
C466 C467 1.369 . S
C466 C470 1.531 . S
C467 C466 1.369 . S
C467 C468 1.410 . S
C467 C475 1.503 . S
C468 C467 1.410 . S
C468 C469 1.392 . S
C468 C471 1.511 . S
C469 C465 1.376 . S
C469 C468 1.392 . S
C469 H481 0.929 . S
C470 C466 1.531 . S
C470 H482 0.960 . S
C470 H483 0.962 . S
C470 H484 0.960 . S
C471 C468 1.511 . S
C471 H485 0.961 . S
C471 H486 0.961 . S
C471 H487 0.961 . S
C472 C473 1.370 . S
C472 C474 1.363 . S
C472 H488 0.931 . S
C473 C472 1.370 . S
C473 C477 1.408 . S
C474 C472 1.363 . S
C474 C475 1.370 . S
C474 C478 1.524 . S
C475 C467 1.503 . S
C475 C474 1.370 . S
C475 C476 1.403 . S
C476 C475 1.403 . S
C476 C477 1.404 . S
C476 C479 1.539 . S
C477 C473 1.408 . S
C477 C476 1.404 . S
C477 H489 0.930 . S
C478 C474 1.524 . S
C478 H490 0.956 . S
C478 H491 0.961 . S
C478 H492 0.961 . S
C479 C476 1.539 . S
C479 H493 0.958 . S
C479 H494 0.961 . S
C479 H495 0.960 . S
H480 C464 0.931 . S
H481 C469 0.929 . S
H482 C470 0.960 . S
H483 C470 0.962 . S
H484 C470 0.960 . S
H485 C471 0.961 . S
H486 C471 0.961 . S
H487 C471 0.961 . S
H488 C472 0.931 . S
H489 C477 0.930 . S
H490 C478 0.956 . S
H491 C478 0.961 . S
H492 C478 0.961 . S
H493 C479 0.958 . S
H494 C479 0.961 . S
H495 C479 0.960 . S
C496 C497 1.391 . S
C496 C498 1.394 . S
C496 H512 0.931 . S
C497 C496 1.391 . S
C497 C501 1.376 . S
C498 C496 1.394 . S
C498 C499 1.369 . S
C498 C502 1.531 . S
C499 C498 1.369 . S
C499 C500 1.410 . S
C499 C507 1.503 . S
C500 C499 1.410 . S
C500 C501 1.392 . S
C500 C503 1.511 . S
C501 C497 1.376 . S
C501 C500 1.392 . S
C501 H513 0.929 . S
C502 C498 1.531 . S
C502 H514 0.960 . S
C502 H515 0.962 . S
C502 H516 0.960 . S
C503 C500 1.511 . S
C503 H517 0.961 . S
C503 H518 0.961 . S
C503 H519 0.961 . S
C504 C505 1.370 . S
C504 C506 1.363 . S
C504 H520 0.931 . S
C505 C504 1.370 . S
C505 C509 1.408 . S
C506 C504 1.363 . S
C506 C507 1.370 . S
C506 C510 1.524 . S
C507 C499 1.503 . S
C507 C506 1.370 . S
C507 C508 1.403 . S
C508 C507 1.403 . S
C508 C509 1.404 . S
C508 C511 1.539 . S
C509 C505 1.408 . S
C509 C508 1.404 . S
C509 H521 0.930 . S
C510 C506 1.524 . S
C510 H522 0.956 . S
C510 H523 0.961 . S
C510 H524 0.961 . S
C511 C508 1.539 . S
C511 H525 0.958 . S
C511 H526 0.961 . S
C511 H527 0.960 . S
H512 C496 0.931 . S
H513 C501 0.929 . S
H514 C502 0.960 . S
H515 C502 0.962 . S
H516 C502 0.960 . S
H517 C503 0.961 . S
H518 C503 0.961 . S
H519 C503 0.961 . S
H520 C504 0.931 . S
H521 C509 0.930 . S
H522 C510 0.956 . S
H523 C510 0.961 . S
H524 C510 0.961 . S
H525 C511 0.958 . S
H526 C511 0.961 . S
H527 C511 0.960 . S
C528 C529 1.391 . S
C528 C530 1.394 . S
C528 H544 0.931 . S
C529 C528 1.391 . S
C529 C533 1.376 . S
C530 C528 1.394 . S
C530 C531 1.369 . S
C530 C534 1.531 . S
C531 C530 1.369 . S
C531 C532 1.410 . S
C531 C539 1.503 . S
C532 C531 1.410 . S
C532 C533 1.392 . S
C532 C535 1.511 . S
C533 C529 1.376 . S
C533 C532 1.392 . S
C533 H545 0.929 . S
C534 C530 1.531 . S
C534 H546 0.960 . S
C534 H547 0.962 . S
C534 H548 0.960 . S
C535 C532 1.511 . S
C535 H549 0.961 . S
C535 H550 0.961 . S
C535 H551 0.961 . S
C536 C537 1.370 . S
C536 C538 1.363 . S
C536 H552 0.931 . S
C537 C536 1.370 . S
C537 C541 1.408 . S
C538 C536 1.363 . S
C538 C539 1.370 . S
C538 C542 1.524 . S
C539 C531 1.503 . S
C539 C538 1.370 . S
C539 C540 1.403 . S
C540 C539 1.403 . S
C540 C541 1.404 . S
C540 C543 1.539 . S
C541 C537 1.408 . S
C541 C540 1.404 . S
C541 H553 0.930 . S
C542 C538 1.524 . S
C542 H554 0.956 . S
C542 H555 0.961 . S
C542 H556 0.961 . S
C543 C540 1.539 . S
C543 H557 0.958 . S
C543 H558 0.961 . S
C543 H559 0.960 . S
H544 C528 0.931 . S
H545 C533 0.929 . S
H546 C534 0.960 . S
H547 C534 0.962 . S
H548 C534 0.960 . S
H549 C535 0.961 . S
H550 C535 0.961 . S
H551 C535 0.961 . S
H552 C536 0.931 . S
H553 C541 0.930 . S
H554 C542 0.956 . S
H555 C542 0.961 . S
H556 C542 0.961 . S
H557 C543 0.958 . S
H558 C543 0.961 . S
H559 C543 0.960 . S
C560 C561 1.391 . S
C560 C562 1.394 . S
C560 H576 0.931 . S
C561 C560 1.391 . S
C561 C565 1.376 . S
C562 C560 1.394 . S
C562 C563 1.369 . S
C562 C566 1.531 . S
C563 C562 1.369 . S
C563 C564 1.410 . S
C563 C571 1.503 . S
C564 C563 1.410 . S
C564 C565 1.392 . S
C564 C567 1.511 . S
C565 C561 1.376 . S
C565 C564 1.392 . S
C565 H577 0.929 . S
C566 C562 1.531 . S
C566 H578 0.960 . S
C566 H579 0.962 . S
C566 H580 0.960 . S
C567 C564 1.511 . S
C567 H581 0.961 . S
C567 H582 0.961 . S
C567 H583 0.961 . S
C568 C569 1.370 . S
C568 C570 1.363 . S
C568 H584 0.931 . S
C569 C568 1.370 . S
C569 C573 1.408 . S
C570 C568 1.363 . S
C570 C571 1.370 . S
C570 C574 1.524 . S
C571 C563 1.503 . S
C571 C570 1.370 . S
C571 C572 1.403 . S
C572 C571 1.403 . S
C572 C573 1.404 . S
C572 C575 1.539 . S
C573 C569 1.408 . S
C573 C572 1.404 . S
C573 H585 0.930 . S
C574 C570 1.524 . S
C574 H586 0.956 . S
C574 H587 0.961 . S
C574 H588 0.961 . S
C575 C572 1.539 . S
C575 H589 0.958 . S
C575 H590 0.961 . S
C575 H591 0.960 . S
H576 C560 0.931 . S
H577 C565 0.929 . S
H578 C566 0.960 . S
H579 C566 0.962 . S
H580 C566 0.960 . S
H581 C567 0.961 . S
H582 C567 0.961 . S
H583 C567 0.961 . S
H584 C568 0.931 . S
H585 C573 0.930 . S
H586 C574 0.956 . S
H587 C574 0.961 . S
H588 C574 0.961 . S
H589 C575 0.958 . S
H590 C575 0.961 . S
H591 C575 0.960 . S
C592 C593 1.391 . S
C592 C594 1.394 . S
C592 H608 0.931 . S
C593 C592 1.391 . S
C593 C597 1.376 . S
C594 C592 1.394 . S
C594 C595 1.369 . S
C594 C598 1.531 . S
C595 C594 1.369 . S
C595 C596 1.410 . S
C595 C603 1.503 . S
C596 C595 1.410 . S
C596 C597 1.392 . S
C596 C599 1.511 . S
C597 C593 1.376 . S
C597 C596 1.392 . S
C597 H609 0.929 . S
C598 C594 1.531 . S
C598 H610 0.960 . S
C598 H611 0.962 . S
C598 H612 0.960 . S
C599 C596 1.511 . S
C599 H613 0.961 . S
C599 H614 0.961 . S
C599 H615 0.961 . S
C600 C601 1.370 . S
C600 C602 1.363 . S
C600 H616 0.931 . S
C601 C600 1.370 . S
C601 C605 1.408 . S
C602 C600 1.363 . S
C602 C603 1.370 . S
C602 C606 1.524 . S
C603 C595 1.503 . S
C603 C602 1.370 . S
C603 C604 1.403 . S
C604 C603 1.403 . S
C604 C605 1.404 . S
C604 C607 1.539 . S
C605 C601 1.408 . S
C605 C604 1.404 . S
C605 H617 0.930 . S
C606 C602 1.524 . S
C606 H618 0.956 . S
C606 H619 0.961 . S
C606 H620 0.961 . S
C607 C604 1.539 . S
C607 H621 0.958 . S
C607 H622 0.961 . S
C607 H623 0.960 . S
H608 C592 0.931 . S
H609 C597 0.929 . S
H610 C598 0.960 . S
H611 C598 0.962 . S
H612 C598 0.960 . S
H613 C599 0.961 . S
H614 C599 0.961 . S
H615 C599 0.961 . S
H616 C600 0.931 . S
H617 C605 0.930 . S
H618 C606 0.956 . S
H619 C606 0.961 . S
H620 C606 0.961 . S
H621 C607 0.958 . S
H622 C607 0.961 . S
H623 C607 0.960 . S
C624 C625 1.391 . S
C624 C626 1.394 . S
C624 H640 0.931 . S
C625 C624 1.391 . S
C625 C629 1.376 . S
C626 C624 1.394 . S
C626 C627 1.369 . S
C626 C630 1.531 . S
C627 C626 1.369 . S
C627 C628 1.410 . S
C627 C635 1.503 . S
C628 C627 1.410 . S
C628 C629 1.392 . S
C628 C631 1.511 . S
C629 C625 1.376 . S
C629 C628 1.392 . S
C629 H641 0.929 . S
C630 C626 1.531 . S
C630 H642 0.960 . S
C630 H643 0.962 . S
C630 H644 0.960 . S
C631 C628 1.511 . S
C631 H645 0.961 . S
C631 H646 0.961 . S
C631 H647 0.961 . S
C632 C633 1.370 . S
C632 C634 1.363 . S
C632 H648 0.931 . S
C633 C632 1.370 . S
C633 C637 1.408 . S
C634 C632 1.363 . S
C634 C635 1.370 . S
C634 C638 1.524 . S
C635 C627 1.503 . S
C635 C634 1.370 . S
C635 C636 1.403 . S
C636 C635 1.403 . S
C636 C637 1.404 . S
C636 C639 1.539 . S
C637 C633 1.408 . S
C637 C636 1.404 . S
C637 H649 0.930 . S
C638 C634 1.524 . S
C638 H650 0.956 . S
C638 H651 0.961 . S
C638 H652 0.961 . S
C639 C636 1.539 . S
C639 H653 0.958 . S
C639 H654 0.961 . S
C639 H655 0.960 . S
H640 C624 0.931 . S
H641 C629 0.929 . S
H642 C630 0.960 . S
H643 C630 0.962 . S
H644 C630 0.960 . S
H645 C631 0.961 . S
H646 C631 0.961 . S
H647 C631 0.961 . S
H648 C632 0.931 . S
H649 C637 0.930 . S
H650 C638 0.956 . S
H651 C638 0.961 . S
H652 C638 0.961 . S
H653 C639 0.958 . S
H654 C639 0.961 . S
H655 C639 0.960 . S
C656 C657 1.391 . S
C656 C658 1.394 . S
C656 H672 0.931 . S
C657 C656 1.391 . S
C657 C661 1.376 . S
C658 C656 1.394 . S
C658 C659 1.369 . S
C658 C662 1.531 1_565 S
C659 C658 1.369 . S
C659 C660 1.410 . S
C659 C667 1.503 1_565 S
C660 C659 1.410 . S
C660 C661 1.392 . S
C660 C663 1.511 . S
C661 C657 1.376 . S
C661 C660 1.392 . S
C661 H673 0.929 . S
C662 C658 1.531 1_545 S
C662 H674 0.960 . S
C662 H675 0.962 . S
C662 H676 0.960 . S
C663 C660 1.511 . S
C663 H677 0.961 . S
C663 H678 0.961 . S
C663 H679 0.961 . S
C664 C665 1.370 . S
C664 C666 1.363 . S
C664 H680 0.931 . S
C665 C664 1.370 . S
C665 C669 1.408 . S
C666 C664 1.363 . S
C666 C667 1.370 . S
C666 C670 1.524 1_545 S
C667 C659 1.503 1_545 S
C667 C666 1.370 . S
C667 C668 1.403 . S
C668 C667 1.403 . S
C668 C669 1.404 . S
C668 C671 1.539 . S
C669 C665 1.408 . S
C669 C668 1.404 . S
C669 H681 0.930 . S
C670 C666 1.524 1_565 S
C670 H682 0.956 1_565 S
C670 H683 0.961 . S
C670 H684 0.961 1_565 S
C671 C668 1.539 . S
C671 H685 0.958 . S
C671 H686 0.961 . S
C671 H687 0.960 . S
H672 C656 0.931 . S
H673 C661 0.929 . S
H674 C662 0.960 . S
H675 C662 0.962 . S
H676 C662 0.960 . S
H677 C663 0.961 . S
H678 C663 0.961 . S
H679 C663 0.961 . S
H680 C664 0.931 . S
H681 C669 0.930 . S
H682 C670 0.956 1_545 S
H683 C670 0.961 . S
H684 C670 0.961 1_545 S
H685 C671 0.958 . S
H686 C671 0.961 . S
H687 C671 0.960 . S
C688 C689 1.391 . S
C688 C690 1.394 . S
C688 H704 0.931 . S
C689 C688 1.391 . S
C689 C693 1.376 . S
C690 C688 1.394 . S
C690 C691 1.369 . S
C690 C694 1.531 1_455 S
C691 C690 1.369 . S
C691 C692 1.410 . S
C691 C699 1.503 1_455 S
C692 C691 1.410 . S
C692 C693 1.392 . S
C692 C695 1.511 . S
C693 C689 1.376 . S
C693 C692 1.392 . S
C693 H705 0.929 . S
C694 C690 1.531 1_655 S
C694 H706 0.960 . S
C694 H707 0.962 . S
C694 H708 0.960 . S
C695 C692 1.511 . S
C695 H709 0.961 . S
C695 H710 0.961 . S
C695 H711 0.961 . S
C696 C697 1.370 . S
C696 C698 1.363 . S
C696 H712 0.931 . S
C697 C696 1.370 . S
C697 C701 1.408 . S
C698 C696 1.363 . S
C698 C699 1.370 . S
C698 C702 1.524 . S
C699 C691 1.503 1_655 S
C699 C698 1.370 . S
C699 C700 1.403 . S
C700 C699 1.403 . S
C700 C701 1.404 . S
C700 C703 1.539 1_655 S
C701 C697 1.408 . S
C701 C700 1.404 . S
C701 H713 0.930 . S
C702 C698 1.524 . S
C702 H714 0.956 . S
C702 H715 0.961 . S
C702 H716 0.961 . S
C703 C700 1.539 1_455 S
C703 H717 0.958 . S
C703 H718 0.961 . S
C703 H719 0.960 . S
H704 C688 0.931 . S
H705 C693 0.929 . S
H706 C694 0.960 . S
H707 C694 0.962 . S
H708 C694 0.960 . S
H709 C695 0.961 . S
H710 C695 0.961 . S
H711 C695 0.961 . S
H712 C696 0.931 . S
H713 C701 0.930 . S
H714 C702 0.956 . S
H715 C702 0.961 . S
H716 C702 0.961 . S
H717 C703 0.958 . S
H718 C703 0.961 . S
H719 C703 0.960 . S
C720 C721 1.391 . S
C720 C722 1.394 . S
C720 H736 0.931 . S
C721 C720 1.391 . S
C721 C725 1.376 . S
C722 C720 1.394 . S
C722 C723 1.369 . S
C722 C726 1.531 . S
C723 C722 1.369 . S
C723 C724 1.410 . S
C723 C731 1.503 1_545 S
C724 C723 1.410 . S
C724 C725 1.392 . S
C724 C727 1.511 . S
C725 C721 1.376 . S
C725 C724 1.392 . S
C725 H737 0.929 . S
C726 C722 1.531 . S
C726 H738 0.960 . S
C726 H739 0.962 . S
C726 H740 0.960 . S
C727 C724 1.511 . S
C727 H741 0.961 . S
C727 H742 0.961 1_545 S
C727 H743 0.961 . S
C728 C729 1.370 . S
C728 C730 1.363 . S
C728 H744 0.931 . S
C729 C728 1.370 . S
C729 C733 1.408 . S
C730 C728 1.363 . S
C730 C731 1.370 . S
C730 C734 1.524 . S
C731 C723 1.503 1_565 S
C731 C730 1.370 . S
C731 C732 1.403 . S
C732 C731 1.403 . S
C732 C733 1.404 . S
C732 C735 1.539 1_565 S
C733 C729 1.408 . S
C733 C732 1.404 . S
C733 H745 0.930 . S
C734 C730 1.524 . S
C734 H746 0.956 . S
C734 H747 0.961 . S
C734 H748 0.961 . S
C735 C732 1.539 1_545 S
C735 H749 0.958 . S
C735 H750 0.961 . S
C735 H751 0.960 . S
H736 C720 0.931 . S
H737 C725 0.929 . S
H738 C726 0.960 . S
H739 C726 0.962 . S
H740 C726 0.960 . S
H741 C727 0.961 . S
H742 C727 0.961 1_565 S
H743 C727 0.961 . S
H744 C728 0.931 . S
H745 C733 0.930 . S
H746 C734 0.956 . S
H747 C734 0.961 . S
H748 C734 0.961 . S
H749 C735 0.958 . S
H750 C735 0.961 . S
H751 C735 0.960 . S
C752 C753 1.391 . S
C752 C754 1.394 . S
C752 H768 0.931 . S
C753 C752 1.391 . S
C753 C757 1.376 . S
C754 C752 1.394 . S
C754 C755 1.369 . S
C754 C758 1.531 1_655 S
C755 C754 1.369 . S
C755 C756 1.410 . S
C755 C763 1.503 1_655 S
C756 C755 1.410 . S
C756 C757 1.392 . S
C756 C759 1.511 . S
C757 C753 1.376 . S
C757 C756 1.392 . S
C757 H769 0.929 . S
C758 C754 1.531 1_455 S
C758 H770 0.960 . S
C758 H771 0.962 . S
C758 H772 0.960 . S
C759 C756 1.511 . S
C759 H773 0.961 . S
C759 H774 0.961 . S
C759 H775 0.961 . S
C760 C761 1.370 . S
C760 C762 1.363 . S
C760 H776 0.931 . S
C761 C760 1.370 . S
C761 C765 1.408 . S
C762 C760 1.363 . S
C762 C763 1.370 . S
C762 C766 1.524 . S
C763 C755 1.503 1_455 S
C763 C762 1.370 . S
C763 C764 1.403 . S
C764 C763 1.403 . S
C764 C765 1.404 . S
C764 C767 1.539 . S
C765 C761 1.408 . S
C765 C764 1.404 . S
C765 H777 0.930 . S
C766 C762 1.524 . S
C766 H778 0.956 . S
C766 H779 0.961 1_455 S
C766 H780 0.961 . S
C767 C764 1.539 . S
C767 H781 0.958 . S
C767 H782 0.961 . S
C767 H783 0.960 1_455 S
H768 C752 0.931 . S
H769 C757 0.929 . S
H770 C758 0.960 . S
H771 C758 0.962 . S
H772 C758 0.960 . S
H773 C759 0.961 . S
H774 C759 0.961 . S
H775 C759 0.961 . S
H776 C760 0.931 . S
H777 C765 0.930 . S
H778 C766 0.956 . S
H779 C766 0.961 1_655 S
H780 C766 0.961 . S
H781 C767 0.958 . S
H782 C767 0.961 . S
H783 C767 0.960 1_655 S
C784 C785 1.391 . S
C784 C786 1.394 . S
C784 H800 0.931 . S
C785 C784 1.391 . S
C785 C789 1.376 . S
C786 C784 1.394 . S
C786 C787 1.369 . S
C786 C790 1.531 . S
C787 C786 1.369 . S
C787 C788 1.410 . S
C787 C795 1.503 1_565 S
C788 C787 1.410 . S
C788 C789 1.392 . S
C788 C791 1.511 1_565 S
C789 C785 1.376 . S
C789 C788 1.392 . S
C789 H801 0.929 . S
C790 C786 1.531 . S
C790 H802 0.960 . S
C790 H803 0.962 . S
C790 H804 0.960 . S
C791 C788 1.511 1_545 S
C791 H805 0.961 . S
C791 H806 0.961 . S
C791 H807 0.961 . S
C792 C793 1.370 . S
C792 C794 1.363 . S
C792 H808 0.931 . S
C793 C792 1.370 . S
C793 C797 1.408 . S
C794 C792 1.363 . S
C794 C795 1.370 . S
C794 C798 1.524 . S
C795 C787 1.503 1_545 S
C795 C794 1.370 . S
C795 C796 1.403 . S
C796 C795 1.403 . S
C796 C797 1.404 . S
C796 C799 1.539 1_545 S
C797 C793 1.408 . S
C797 C796 1.404 . S
C797 H809 0.930 . S
C798 C794 1.524 . S
C798 H810 0.956 . S
C798 H811 0.961 . S
C798 H812 0.961 . S
C799 C796 1.539 1_565 S
C799 H813 0.958 . S
C799 H814 0.961 1_565 S
C799 H815 0.960 . S
H800 C784 0.931 . S
H801 C789 0.929 . S
H802 C790 0.960 . S
H803 C790 0.962 . S
H804 C790 0.960 . S
H805 C791 0.961 . S
H806 C791 0.961 . S
H807 C791 0.961 . S
H808 C792 0.931 . S
H809 C797 0.930 . S
H810 C798 0.956 . S
H811 C798 0.961 . S
H812 C798 0.961 . S
H813 C799 0.958 . S
H814 C799 0.961 1_545 S
H815 C799 0.960 . S
C816 C817 1.391 . S
C816 C818 1.394 . S
C816 H832 0.931 . S
C817 C816 1.391 . S
C817 C821 1.376 . S
C818 C816 1.394 . S
C818 C819 1.369 . S
C818 C822 1.531 . S
C819 C818 1.369 . S
C819 C820 1.410 . S
C819 C827 1.503 1_455 S
C820 C819 1.410 . S
C820 C821 1.392 . S
C820 C823 1.511 1_455 S
C821 C817 1.376 . S
C821 C820 1.392 . S
C821 H833 0.929 . S
C822 C818 1.531 . S
C822 H834 0.960 . S
C822 H835 0.962 . S
C822 H836 0.960 . S
C823 C820 1.511 1_655 S
C823 H837 0.961 . S
C823 H838 0.961 . S
C823 H839 0.961 . S
C824 C825 1.370 . S
C824 C826 1.363 . S
C824 H840 0.931 . S
C825 C824 1.370 . S
C825 C829 1.408 . S
C826 C824 1.363 . S
C826 C827 1.370 . S
C826 C830 1.524 . S
C827 C819 1.503 1_655 S
C827 C826 1.370 . S
C827 C828 1.403 . S
C828 C827 1.403 . S
C828 C829 1.404 . S
C828 C831 1.539 . S
C829 C825 1.408 . S
C829 C828 1.404 . S
C829 H841 0.930 . S
C830 C826 1.524 . S
C830 H842 0.956 1_655 S
C830 H843 0.961 . S
C830 H844 0.961 . S
C831 C828 1.539 . S
C831 H845 0.958 1_655 S
C831 H846 0.961 . S
C831 H847 0.960 . S
H832 C816 0.931 . S
H833 C821 0.929 . S
H834 C822 0.960 . S
H835 C822 0.962 . S
H836 C822 0.960 . S
H837 C823 0.961 . S
H838 C823 0.961 . S
H839 C823 0.961 . S
H840 C824 0.931 . S
H841 C829 0.930 . S
H842 C830 0.956 1_455 S
H843 C830 0.961 . S
H844 C830 0.961 . S
H845 C831 0.958 1_455 S
H846 C831 0.961 . S
H847 C831 0.960 . S
C848 C849 1.391 . S
C848 C850 1.394 . S
C848 H864 0.931 . S
C849 C848 1.391 . S
C849 C853 1.376 . S
C850 C848 1.394 . S
C850 C851 1.369 . S
C850 C854 1.531 1_545 S
C851 C850 1.369 . S
C851 C852 1.410 . S
C851 C859 1.503 1_545 S
C852 C851 1.410 . S
C852 C853 1.392 . S
C852 C855 1.511 . S
C853 C849 1.376 . S
C853 C852 1.392 . S
C853 H865 0.929 . S
C854 C850 1.531 1_565 S
C854 H866 0.960 . S
C854 H867 0.962 . S
C854 H868 0.960 . S
C855 C852 1.511 . S
C855 H869 0.961 . S
C855 H870 0.961 . S
C855 H871 0.961 . S
C856 C857 1.370 . S
C856 C858 1.363 . S
C856 H872 0.931 . S
C857 C856 1.370 . S
C857 C861 1.408 . S
C858 C856 1.363 . S
C858 C859 1.370 . S
C858 C862 1.524 . S
C859 C851 1.503 1_565 S
C859 C858 1.370 . S
C859 C860 1.403 . S
C860 C859 1.403 . S
C860 C861 1.404 . S
C860 C863 1.539 . S
C861 C857 1.408 . S
C861 C860 1.404 . S
C861 H873 0.930 . S
C862 C858 1.524 . S
C862 H874 0.956 . S
C862 H875 0.961 1_565 S
C862 H876 0.961 . S
C863 C860 1.539 . S
C863 H877 0.958 . S
C863 H878 0.961 . S
C863 H879 0.960 1_565 S
H864 C848 0.931 . S
H865 C853 0.929 . S
H866 C854 0.960 . S
H867 C854 0.962 . S
H868 C854 0.960 . S
H869 C855 0.961 . S
H870 C855 0.961 . S
H871 C855 0.961 . S
H872 C856 0.931 . S
H873 C861 0.930 . S
H874 C862 0.956 . S
H875 C862 0.961 1_545 S
H876 C862 0.961 . S
H877 C863 0.958 . S
H878 C863 0.961 . S
H879 C863 0.960 1_545 S
C880 C881 1.391 . S
C880 C882 1.394 . S
C880 H896 0.931 . S
C881 C880 1.391 . S
C881 C885 1.376 . S
C882 C880 1.394 . S
C882 C883 1.369 . S
C882 C886 1.531 1_455 S
C883 C882 1.369 . S
C883 C884 1.410 . S
C883 C891 1.503 1_455 S
C884 C883 1.410 . S
C884 C885 1.392 . S
C884 C887 1.511 . S
C885 C881 1.376 . S
C885 C884 1.392 . S
C885 H897 0.929 . S
C886 C882 1.531 1_655 S
C886 H898 0.960 . S
C886 H899 0.962 . S
C886 H900 0.960 . S
C887 C884 1.511 . S
C887 H901 0.961 . S
C887 H902 0.961 . S
C887 H903 0.961 . S
C888 C889 1.370 . S
C888 C890 1.363 . S
C888 H904 0.931 . S
C889 C888 1.370 . S
C889 C893 1.408 . S
C890 C888 1.363 . S
C890 C891 1.370 . S
C890 C894 1.524 1_655 S
C891 C883 1.503 1_655 S
C891 C890 1.370 . S
C891 C892 1.403 . S
C892 C891 1.403 . S
C892 C893 1.404 . S
C892 C895 1.539 . S
C893 C889 1.408 . S
C893 C892 1.404 . S
C893 H905 0.930 . S
C894 C890 1.524 1_455 S
C894 H906 0.956 . S
C894 H907 0.961 . S
C894 H908 0.961 . S
C895 C892 1.539 . S
C895 H909 0.958 . S
C895 H910 0.961 . S
C895 H911 0.960 . S
H896 C880 0.931 . S
H897 C885 0.929 . S
H898 C886 0.960 . S
H899 C886 0.962 . S
H900 C886 0.960 . S
H901 C887 0.961 . S
H902 C887 0.961 . S
H903 C887 0.961 . S
H904 C888 0.931 . S
H905 C893 0.930 . S
H906 C894 0.956 . S
H907 C894 0.961 . S
H908 C894 0.961 . S
H909 C895 0.958 . S
H910 C895 0.961 . S
H911 C895 0.960 . S
C912 C913 1.391 . S
C912 C914 1.394 . S
C912 H928 0.931 . S
C913 C912 1.391 . S
C913 C917 1.376 . S
C914 C912 1.394 . S
C914 C915 1.369 . S
C914 C918 1.531 . S
C915 C914 1.369 . S
C915 C916 1.410 . S
C915 C923 1.503 . S
C916 C915 1.410 . S
C916 C917 1.392 . S
C916 C919 1.511 . S
C917 C913 1.376 . S
C917 C916 1.392 . S
C917 H929 0.929 . S
C918 C914 1.531 . S
C918 H930 0.960 . S
C918 H931 0.962 . S
C918 H932 0.960 . S
C919 C916 1.511 . S
C919 H933 0.961 . S
C919 H934 0.961 . S
C919 H935 0.961 . S
C920 C921 1.370 . S
C920 C922 1.363 . S
C920 H936 0.931 . S
C921 C920 1.370 . S
C921 C925 1.408 . S
C922 C920 1.363 . S
C922 C923 1.370 . S
C922 C926 1.524 . S
C923 C915 1.503 . S
C923 C922 1.370 . S
C923 C924 1.403 . S
C924 C923 1.403 . S
C924 C925 1.404 . S
C924 C927 1.539 . S
C925 C921 1.408 . S
C925 C924 1.404 . S
C925 H937 0.930 . S
C926 C922 1.524 . S
C926 H938 0.956 . S
C926 H939 0.961 . S
C926 H940 0.961 . S
C927 C924 1.539 . S
C927 H941 0.958 . S
C927 H942 0.961 . S
C927 H943 0.960 . S
H928 C912 0.931 . S
H929 C917 0.929 . S
H930 C918 0.960 . S
H931 C918 0.962 . S
H932 C918 0.960 . S
H933 C919 0.961 . S
H934 C919 0.961 . S
H935 C919 0.961 . S
H936 C920 0.931 . S
H937 C925 0.930 . S
H938 C926 0.956 . S
H939 C926 0.961 . S
H940 C926 0.961 . S
H941 C927 0.958 . S
H942 C927 0.961 . S
H943 C927 0.960 . S
C944 C945 1.391 . S
C944 C946 1.394 . S
C944 H960 0.931 . S
C945 C944 1.391 . S
C945 C949 1.376 . S
C946 C944 1.394 . S
C946 C947 1.369 . S
C946 C950 1.531 . S
C947 C946 1.369 . S
C947 C948 1.410 . S
C947 C955 1.503 . S
C948 C947 1.410 . S
C948 C949 1.392 . S
C948 C951 1.511 . S
C949 C945 1.376 . S
C949 C948 1.392 . S
C949 H961 0.929 . S
C950 C946 1.531 . S
C950 H962 0.960 . S
C950 H963 0.962 . S
C950 H964 0.960 . S
C951 C948 1.511 . S
C951 H965 0.961 . S
C951 H966 0.961 . S
C951 H967 0.961 . S
C952 C953 1.370 . S
C952 C954 1.363 . S
C952 H968 0.931 . S
C953 C952 1.370 . S
C953 C957 1.408 . S
C954 C952 1.363 . S
C954 C955 1.370 . S
C954 C958 1.524 . S
C955 C947 1.503 . S
C955 C954 1.370 . S
C955 C956 1.403 . S
C956 C955 1.403 . S
C956 C957 1.404 . S
C956 C959 1.539 . S
C957 C953 1.408 . S
C957 C956 1.404 . S
C957 H969 0.930 . S
C958 C954 1.524 . S
C958 H970 0.956 . S
C958 H971 0.961 . S
C958 H972 0.961 . S
C959 C956 1.539 . S
C959 H973 0.958 . S
C959 H974 0.961 . S
C959 H975 0.960 . S
H960 C944 0.931 . S
H961 C949 0.929 . S
H962 C950 0.960 . S
H963 C950 0.962 . S
H964 C950 0.960 . S
H965 C951 0.961 . S
H966 C951 0.961 . S
H967 C951 0.961 . S
H968 C952 0.931 . S
H969 C957 0.930 . S
H970 C958 0.956 . S
H971 C958 0.961 . S
H972 C958 0.961 . S
H973 C959 0.958 . S
H974 C959 0.961 . S
H975 C959 0.960 . S
C976 C977 1.391 . S
C976 C978 1.394 . S
C976 H992 0.931 . S
C977 C976 1.391 . S
C977 C981 1.376 . S
C978 C976 1.394 . S
C978 C979 1.369 . S
C978 C982 1.531 . S
C979 C978 1.369 . S
C979 C980 1.410 . S
C979 C987 1.503 . S
C980 C979 1.410 . S
C980 C981 1.392 . S
C980 C983 1.511 . S
C981 C977 1.376 . S
C981 C980 1.392 . S
C981 H993 0.929 . S
C982 C978 1.531 . S
C982 H994 0.960 . S
C982 H995 0.962 . S
C982 H996 0.960 . S
C983 C980 1.511 . S
C983 H997 0.961 . S
C983 H998 0.961 . S
C983 H999 0.961 . S
C984 C985 1.370 . S
C984 C986 1.363 . S
C984 H1000 0.931 . S
C985 C984 1.370 . S
C985 C989 1.408 . S
C986 C984 1.363 . S
C986 C987 1.370 . S
C986 C990 1.524 . S
C987 C979 1.503 . S
C987 C986 1.370 . S
C987 C988 1.403 . S
C988 C987 1.403 . S
C988 C989 1.404 . S
C988 C991 1.539 . S
C989 C985 1.408 . S
C989 C988 1.404 . S
C989 H1001 0.930 . S
C990 C986 1.524 . S
C990 H1002 0.956 . S
C990 H1003 0.961 . S
C990 H1004 0.961 . S
C991 C988 1.539 . S
C991 H1005 0.958 . S
C991 H1006 0.961 . S
C991 H1007 0.960 . S
H992 C976 0.931 . S
H993 C981 0.929 . S
H994 C982 0.960 . S
H995 C982 0.962 . S
H996 C982 0.960 . S
H997 C983 0.961 . S
H998 C983 0.961 . S
H999 C983 0.961 . S
H1000 C984 0.931 . S
H1001 C989 0.930 . S
H1002 C990 0.956 . S
H1003 C990 0.961 . S
H1004 C990 0.961 . S
H1005 C991 0.958 . S
H1006 C991 0.961 . S
H1007 C991 0.960 . S
C1008 C1009 1.391 . S
C1008 C1010 1.394 . S
C1008 H1024 0.931 . S
C1009 C1008 1.391 . S
C1009 C1013 1.376 . S
C1010 C1008 1.394 . S
C1010 C1011 1.369 . S
C1010 C1014 1.531 . S
C1011 C1010 1.369 . S
C1011 C1012 1.410 . S
C1011 C1019 1.503 . S
C1012 C1011 1.410 . S
C1012 C1013 1.392 . S
C1012 C1015 1.511 . S
C1013 C1009 1.376 . S
C1013 C1012 1.392 . S
C1013 H1025 0.929 . S
C1014 C1010 1.531 . S
C1014 H1026 0.960 . S
C1014 H1027 0.962 . S
C1014 H1028 0.960 . S
C1015 C1012 1.511 . S
C1015 H1029 0.961 . S
C1015 H1030 0.961 . S
C1015 H1031 0.961 . S
C1016 C1017 1.370 . S
C1016 C1018 1.363 . S
C1016 H1032 0.931 . S
C1017 C1016 1.370 . S
C1017 C1021 1.408 . S
C1018 C1016 1.363 . S
C1018 C1019 1.370 . S
C1018 C1022 1.524 . S
C1019 C1011 1.503 . S
C1019 C1018 1.370 . S
C1019 C1020 1.403 . S
C1020 C1019 1.403 . S
C1020 C1021 1.404 . S
C1020 C1023 1.539 . S
C1021 C1017 1.408 . S
C1021 C1020 1.404 . S
C1021 H1033 0.930 . S
C1022 C1018 1.524 . S
C1022 H1034 0.956 . S
C1022 H1035 0.961 . S
C1022 H1036 0.961 . S
C1023 C1020 1.539 . S
C1023 H1037 0.958 . S
C1023 H1038 0.961 . S
C1023 H1039 0.960 . S
H1024 C1008 0.931 . S
H1025 C1013 0.929 . S
H1026 C1014 0.960 . S
H1027 C1014 0.962 . S
H1028 C1014 0.960 . S
H1029 C1015 0.961 . S
H1030 C1015 0.961 . S
H1031 C1015 0.961 . S
H1032 C1016 0.931 . S
H1033 C1021 0.930 . S
H1034 C1022 0.956 . S
H1035 C1022 0.961 . S
H1036 C1022 0.961 . S
H1037 C1023 0.958 . S
H1038 C1023 0.961 . S
H1039 C1023 0.960 . S
C1040 C1041 1.391 . S
C1040 C1042 1.394 . S
C1040 H1056 0.931 . S
C1041 C1040 1.391 . S
C1041 C1045 1.376 . S
C1042 C1040 1.394 . S
C1042 C1043 1.369 . S
C1042 C1046 1.531 . S
C1043 C1042 1.369 . S
C1043 C1044 1.410 . S
C1043 C1051 1.503 . S
C1044 C1043 1.410 . S
C1044 C1045 1.392 . S
C1044 C1047 1.511 . S
C1045 C1041 1.376 . S
C1045 C1044 1.392 . S
C1045 H1057 0.929 . S
C1046 C1042 1.531 . S
C1046 H1058 0.960 . S
C1046 H1059 0.962 . S
C1046 H1060 0.960 . S
C1047 C1044 1.511 . S
C1047 H1061 0.961 . S
C1047 H1062 0.961 . S
C1047 H1063 0.961 . S
C1048 C1049 1.370 . S
C1048 C1050 1.363 . S
C1048 H1064 0.931 . S
C1049 C1048 1.370 . S
C1049 C1053 1.408 . S
C1050 C1048 1.363 . S
C1050 C1051 1.370 . S
C1050 C1054 1.524 . S
C1051 C1043 1.503 . S
C1051 C1050 1.370 . S
C1051 C1052 1.403 . S
C1052 C1051 1.403 . S
C1052 C1053 1.404 . S
C1052 C1055 1.539 . S
C1053 C1049 1.408 . S
C1053 C1052 1.404 . S
C1053 H1065 0.930 . S
C1054 C1050 1.524 . S
C1054 H1066 0.956 . S
C1054 H1067 0.961 . S
C1054 H1068 0.961 . S
C1055 C1052 1.539 . S
C1055 H1069 0.958 . S
C1055 H1070 0.961 . S
C1055 H1071 0.960 . S
H1056 C1040 0.931 . S
H1057 C1045 0.929 . S
H1058 C1046 0.960 . S
H1059 C1046 0.962 . S
H1060 C1046 0.960 . S
H1061 C1047 0.961 . S
H1062 C1047 0.961 . S
H1063 C1047 0.961 . S
H1064 C1048 0.931 . S
H1065 C1053 0.930 . S
H1066 C1054 0.956 . S
H1067 C1054 0.961 . S
H1068 C1054 0.961 . S
H1069 C1055 0.958 . S
H1070 C1055 0.961 . S
H1071 C1055 0.960 . S
C1072 C1073 1.391 . S
C1072 C1074 1.394 . S
C1072 H1088 0.931 . S
C1073 C1072 1.391 . S
C1073 C1077 1.376 . S
C1074 C1072 1.394 . S
C1074 C1075 1.369 . S
C1074 C1078 1.531 . S
C1075 C1074 1.369 . S
C1075 C1076 1.410 . S
C1075 C1083 1.503 . S
C1076 C1075 1.410 . S
C1076 C1077 1.392 . S
C1076 C1079 1.511 . S
C1077 C1073 1.376 . S
C1077 C1076 1.392 . S
C1077 H1089 0.929 . S
C1078 C1074 1.531 . S
C1078 H1090 0.960 . S
C1078 H1091 0.962 . S
C1078 H1092 0.960 . S
C1079 C1076 1.511 . S
C1079 H1093 0.961 . S
C1079 H1094 0.961 . S
C1079 H1095 0.961 . S
C1080 C1081 1.370 . S
C1080 C1082 1.363 . S
C1080 H1096 0.931 . S
C1081 C1080 1.370 . S
C1081 C1085 1.408 . S
C1082 C1080 1.363 . S
C1082 C1083 1.370 . S
C1082 C1086 1.524 . S
C1083 C1075 1.503 . S
C1083 C1082 1.370 . S
C1083 C1084 1.403 . S
C1084 C1083 1.403 . S
C1084 C1085 1.404 . S
C1084 C1087 1.539 . S
C1085 C1081 1.408 . S
C1085 C1084 1.404 . S
C1085 H1097 0.930 . S
C1086 C1082 1.524 . S
C1086 H1098 0.956 . S
C1086 H1099 0.961 . S
C1086 H1100 0.961 . S
C1087 C1084 1.539 . S
C1087 H1101 0.958 . S
C1087 H1102 0.961 . S
C1087 H1103 0.960 . S
H1088 C1072 0.931 . S
H1089 C1077 0.929 . S
H1090 C1078 0.960 . S
H1091 C1078 0.962 . S
H1092 C1078 0.960 . S
H1093 C1079 0.961 . S
H1094 C1079 0.961 . S
H1095 C1079 0.961 . S
H1096 C1080 0.931 . S
H1097 C1085 0.930 . S
H1098 C1086 0.956 . S
H1099 C1086 0.961 . S
H1100 C1086 0.961 . S
H1101 C1087 0.958 . S
H1102 C1087 0.961 . S
H1103 C1087 0.960 . S
C1104 C1105 1.391 . S
C1104 C1106 1.394 . S
C1104 H1120 0.931 . S
C1105 C1104 1.391 . S
C1105 C1109 1.376 . S
C1106 C1104 1.394 . S
C1106 C1107 1.369 . S
C1106 C1110 1.531 . S
C1107 C1106 1.369 . S
C1107 C1108 1.410 . S
C1107 C1115 1.503 . S
C1108 C1107 1.410 . S
C1108 C1109 1.392 . S
C1108 C1111 1.511 . S
C1109 C1105 1.376 . S
C1109 C1108 1.392 . S
C1109 H1121 0.929 . S
C1110 C1106 1.531 . S
C1110 H1122 0.960 . S
C1110 H1123 0.962 . S
C1110 H1124 0.960 . S
C1111 C1108 1.511 . S
C1111 H1125 0.961 . S
C1111 H1126 0.961 . S
C1111 H1127 0.961 . S
C1112 C1113 1.370 . S
C1112 C1114 1.363 . S
C1112 H1128 0.931 . S
C1113 C1112 1.370 . S
C1113 C1117 1.408 . S
C1114 C1112 1.363 . S
C1114 C1115 1.370 . S
C1114 C1118 1.524 . S
C1115 C1107 1.503 . S
C1115 C1114 1.370 . S
C1115 C1116 1.403 . S
C1116 C1115 1.403 . S
C1116 C1117 1.404 . S
C1116 C1119 1.539 . S
C1117 C1113 1.408 . S
C1117 C1116 1.404 . S
C1117 H1129 0.930 . S
C1118 C1114 1.524 . S
C1118 H1130 0.956 . S
C1118 H1131 0.961 . S
C1118 H1132 0.961 . S
C1119 C1116 1.539 . S
C1119 H1133 0.958 . S
C1119 H1134 0.961 . S
C1119 H1135 0.960 . S
H1120 C1104 0.931 . S
H1121 C1109 0.929 . S
H1122 C1110 0.960 . S
H1123 C1110 0.962 . S
H1124 C1110 0.960 . S
H1125 C1111 0.961 . S
H1126 C1111 0.961 . S
H1127 C1111 0.961 . S
H1128 C1112 0.931 . S
H1129 C1117 0.930 . S
H1130 C1118 0.956 . S
H1131 C1118 0.961 . S
H1132 C1118 0.961 . S
H1133 C1119 0.958 . S
H1134 C1119 0.961 . S
H1135 C1119 0.960 . S
C1136 C1137 1.391 . S
C1136 C1138 1.394 . S
C1136 H1152 0.931 . S
C1137 C1136 1.391 . S
C1137 C1141 1.376 . S
C1138 C1136 1.394 . S
C1138 C1139 1.369 . S
C1138 C1142 1.531 . S
C1139 C1138 1.369 . S
C1139 C1140 1.410 . S
C1139 C1147 1.503 . S
C1140 C1139 1.410 . S
C1140 C1141 1.392 . S
C1140 C1143 1.511 . S
C1141 C1137 1.376 . S
C1141 C1140 1.392 . S
C1141 H1153 0.929 . S
C1142 C1138 1.531 . S
C1142 H1154 0.960 . S
C1142 H1155 0.962 . S
C1142 H1156 0.960 . S
C1143 C1140 1.511 . S
C1143 H1157 0.961 . S
C1143 H1158 0.961 . S
C1143 H1159 0.961 . S
C1144 C1145 1.370 . S
C1144 C1146 1.363 . S
C1144 H1160 0.931 . S
C1145 C1144 1.370 . S
C1145 C1149 1.408 . S
C1146 C1144 1.363 . S
C1146 C1147 1.370 . S
C1146 C1150 1.524 . S
C1147 C1139 1.503 . S
C1147 C1146 1.370 . S
C1147 C1148 1.403 . S
C1148 C1147 1.403 . S
C1148 C1149 1.404 . S
C1148 C1151 1.539 . S
C1149 C1145 1.408 . S
C1149 C1148 1.404 . S
C1149 H1161 0.930 . S
C1150 C1146 1.524 . S
C1150 H1162 0.956 . S
C1150 H1163 0.961 . S
C1150 H1164 0.961 . S
C1151 C1148 1.539 . S
C1151 H1165 0.958 . S
C1151 H1166 0.961 . S
C1151 H1167 0.960 . S
H1152 C1136 0.931 . S
H1153 C1141 0.929 . S
H1154 C1142 0.960 . S
H1155 C1142 0.962 . S
H1156 C1142 0.960 . S
H1157 C1143 0.961 . S
H1158 C1143 0.961 . S
H1159 C1143 0.961 . S
H1160 C1144 0.931 . S
H1161 C1149 0.930 . S
H1162 C1150 0.956 . S
H1163 C1150 0.961 . S
H1164 C1150 0.961 . S
H1165 C1151 0.958 . S
H1166 C1151 0.961 . S
H1167 C1151 0.960 . S
C273 C17 1.133 1_556 S
C281 C85 1.136 1_556 S
C305 C119 1.133 1_556 S
C313 C51 1.136 1_556 S
C337 C153 1.133 . S
C345 C221 1.136 . S
C369 C255 1.133 . S
C377 C187 1.136 . S
C401 C142 1.076 . S
C409 C6 1.046 . S
C433 C198 1.009 . S
C441 C62 1.038 . S
C465 C232 1.078 . S
C473 C74 1.049 . S
C497 C266 1.076 . S
C505 C108 1.057 . S
C529 C226 0.429 . S
C537 C83 0.549 . S
C561 C260 0.419 . S
C569 C117 0.544 . S
C593 C15 0.567 . S
C601 C151 0.482 . S
C625 C192 0.430 . S
C633 C56 0.540 . S
C657 C244 1.010 . S
C665 C40 1.038 . S
C689 C164 1.041 . S
C697 C96 1.035 . S
C721 C176 1.073 . S
C729 C130 1.048 . S
C753 C210 1.021 . S
C761 C28 1.034 . S
C785 C124 0.561 . S
C793 C185 0.483 . S
C817 C22 0.519 . S
C825 C219 0.501 . S
C849 C49 0.536 . S
C857 C253 0.510 . S
C881 C158 0.458 . S
C889 C90 0.539 . S
C913 C173 2.913 . S
C921 C1 2.910 . S
C945 C37 2.903 . S
C953 C207 2.909 . S
C977 C241 2.911 . S
C985 C69 2.912 . S
C1009 C103 2.910 . S
C1017 C137 2.913 . S
C1041 C239 2.903 . S
C1049 C71 2.917 . S
C1073 C139 2.905 . S
C1081 C105 2.913 . S
C1105 C3 2.911 . S
C1113 C171 2.917 . S
C1137 C205 2.906 . S
C1145 C35 2.913 . S
