# Generated by pormake.
# Topology mer, (4)-cn, num edge types: 1
# Building blocks:
#     Node 0, Type 0, BuildingBlock: GALJAG_clean_sbu_0, # of connection points: 4
#     Node 1, Type 0, BuildingBlock: GALJAG_clean_sbu_0, # of connection points: 4
#     Node 2, Type 0, BuildingBlock: GALJAG_clean_sbu_0, # of connection points: 4
#     Node 3, Type 0, BuildingBlock: GALJAG_clean_sbu_0, # of connection points: 4
#     Node 4, Type 0, BuildingBlock: GALJAG_clean_sbu_0, # of connection points: 4
#     Node 5, Type 0, BuildingBlock: GALJAG_clean_sbu_0, # of connection points: 4
#     Node 6, Type 0, BuildingBlock: GALJAG_clean_sbu_0, # of connection points: 4
#     Node 7, Type 0, BuildingBlock: GALJAG_clean_sbu_0, # of connection points: 4
#     Node 8, Type 0, BuildingBlock: GALJAG_clean_sbu_0, # of connection points: 4
#     Node 9, Type 0, BuildingBlock: GALJAG_clean_sbu_0, # of connection points: 4
#     Node 10, Type 0, BuildingBlock: GALJAG_clean_sbu_0, # of connection points: 4
#     Node 11, Type 0, BuildingBlock: GALJAG_clean_sbu_0, # of connection points: 4
#     Node 12, Type 0, BuildingBlock: GALJAG_clean_sbu_0, # of connection points: 4
#     Node 13, Type 0, BuildingBlock: GALJAG_clean_sbu_0, # of connection points: 4
#     Node 14, Type 0, BuildingBlock: GALJAG_clean_sbu_0, # of connection points: 4
#     Node 15, Type 0, BuildingBlock: GALJAG_clean_sbu_0, # of connection points: 4
#     Node 16, Type 0, BuildingBlock: GALJAG_clean_sbu_0, # of connection points: 4
#     Node 17, Type 0, BuildingBlock: GALJAG_clean_sbu_0, # of connection points: 4
#     Node 18, Type 0, BuildingBlock: GALJAG_clean_sbu_0, # of connection points: 4
#     Node 19, Type 0, BuildingBlock: GALJAG_clean_sbu_0, # of connection points: 4
#     Node 20, Type 0, BuildingBlock: GALJAG_clean_sbu_0, # of connection points: 4
#     Node 21, Type 0, BuildingBlock: GALJAG_clean_sbu_0, # of connection points: 4
#     Node 22, Type 0, BuildingBlock: GALJAG_clean_sbu_0, # of connection points: 4
#     Node 23, Type 0, BuildingBlock: GALJAG_clean_sbu_0, # of connection points: 4
#     Node 24, Type 0, BuildingBlock: GALJAG_clean_sbu_0, # of connection points: 4
#     Node 25, Type 0, BuildingBlock: GALJAG_clean_sbu_0, # of connection points: 4
#     Node 26, Type 0, BuildingBlock: GALJAG_clean_sbu_0, # of connection points: 4
#     Node 27, Type 0, BuildingBlock: GALJAG_clean_sbu_0, # of connection points: 4
#     Node 28, Type 0, BuildingBlock: GALJAG_clean_sbu_0, # of connection points: 4
#     Node 29, Type 0, BuildingBlock: GALJAG_clean_sbu_0, # of connection points: 4
#     Node 30, Type 0, BuildingBlock: GALJAG_clean_sbu_0, # of connection points: 4
#     Node 31, Type 0, BuildingBlock: GALJAG_clean_sbu_0, # of connection points: 4
#     Edge 32, Type (0, 0), BuildingBlock: EZIPEK_clean_linker_0, # of connection points: 2
#     Edge 33, Type (0, 0), BuildingBlock: EZIPEK_clean_linker_0, # of connection points: 2
#     Edge 34, Type (0, 0), BuildingBlock: EZIPEK_clean_linker_0, # of connection points: 2
#     Edge 35, Type (0, 0), BuildingBlock: EZIPEK_clean_linker_0, # of connection points: 2
#     Edge 36, Type (0, 0), BuildingBlock: EZIPEK_clean_linker_0, # of connection points: 2
#     Edge 37, Type (0, 0), BuildingBlock: EZIPEK_clean_linker_0, # of connection points: 2
#     Edge 38, Type (0, 0), BuildingBlock: EZIPEK_clean_linker_0, # of connection points: 2
#     Edge 39, Type (0, 0), BuildingBlock: EZIPEK_clean_linker_0, # of connection points: 2
#     Edge 40, Type (0, 0), BuildingBlock: EZIPEK_clean_linker_0, # of connection points: 2
#     Edge 41, Type (0, 0), BuildingBlock: EZIPEK_clean_linker_0, # of connection points: 2
#     Edge 42, Type (0, 0), BuildingBlock: EZIPEK_clean_linker_0, # of connection points: 2
#     Edge 43, Type (0, 0), BuildingBlock: EZIPEK_clean_linker_0, # of connection points: 2
#     Edge 44, Type (0, 0), BuildingBlock: EZIPEK_clean_linker_0, # of connection points: 2
#     Edge 45, Type (0, 0), BuildingBlock: EZIPEK_clean_linker_0, # of connection points: 2
#     Edge 46, Type (0, 0), BuildingBlock: EZIPEK_clean_linker_0, # of connection points: 2
#     Edge 47, Type (0, 0), BuildingBlock: EZIPEK_clean_linker_0, # of connection points: 2
#     Edge 48, Type (0, 0), BuildingBlock: EZIPEK_clean_linker_0, # of connection points: 2
#     Edge 49, Type (0, 0), BuildingBlock: EZIPEK_clean_linker_0, # of connection points: 2
#     Edge 50, Type (0, 0), BuildingBlock: EZIPEK_clean_linker_0, # of connection points: 2
#     Edge 51, Type (0, 0), BuildingBlock: EZIPEK_clean_linker_0, # of connection points: 2
#     Edge 52, Type (0, 0), BuildingBlock: EZIPEK_clean_linker_0, # of connection points: 2
#     Edge 53, Type (0, 0), BuildingBlock: EZIPEK_clean_linker_0, # of connection points: 2
#     Edge 54, Type (0, 0), BuildingBlock: EZIPEK_clean_linker_0, # of connection points: 2
#     Edge 55, Type (0, 0), BuildingBlock: EZIPEK_clean_linker_0, # of connection points: 2
#     Edge 56, Type (0, 0), BuildingBlock: EZIPEK_clean_linker_0, # of connection points: 2
#     Edge 57, Type (0, 0), BuildingBlock: EZIPEK_clean_linker_0, # of connection points: 2
#     Edge 58, Type (0, 0), BuildingBlock: EZIPEK_clean_linker_0, # of connection points: 2
#     Edge 59, Type (0, 0), BuildingBlock: EZIPEK_clean_linker_0, # of connection points: 2
#     Edge 60, Type (0, 0), BuildingBlock: EZIPEK_clean_linker_0, # of connection points: 2
#     Edge 61, Type (0, 0), BuildingBlock: EZIPEK_clean_linker_0, # of connection points: 2
#     Edge 62, Type (0, 0), BuildingBlock: EZIPEK_clean_linker_0, # of connection points: 2
#     Edge 63, Type (0, 0), BuildingBlock: EZIPEK_clean_linker_0, # of connection points: 2
#     Edge 64, Type (0, 0), BuildingBlock: EZIPEK_clean_linker_0, # of connection points: 2
#     Edge 65, Type (0, 0), BuildingBlock: EZIPEK_clean_linker_0, # of connection points: 2
#     Edge 66, Type (0, 0), BuildingBlock: EZIPEK_clean_linker_0, # of connection points: 2
#     Edge 67, Type (0, 0), BuildingBlock: EZIPEK_clean_linker_0, # of connection points: 2
#     Edge 68, Type (0, 0), BuildingBlock: EZIPEK_clean_linker_0, # of connection points: 2
#     Edge 69, Type (0, 0), BuildingBlock: EZIPEK_clean_linker_0, # of connection points: 2
#     Edge 70, Type (0, 0), BuildingBlock: EZIPEK_clean_linker_0, # of connection points: 2
#     Edge 71, Type (0, 0), BuildingBlock: EZIPEK_clean_linker_0, # of connection points: 2
#     Edge 72, Type (0, 0), BuildingBlock: EZIPEK_clean_linker_0, # of connection points: 2
#     Edge 73, Type (0, 0), BuildingBlock: EZIPEK_clean_linker_0, # of connection points: 2
#     Edge 74, Type (0, 0), BuildingBlock: EZIPEK_clean_linker_0, # of connection points: 2
#     Edge 75, Type (0, 0), BuildingBlock: EZIPEK_clean_linker_0, # of connection points: 2
#     Edge 76, Type (0, 0), BuildingBlock: EZIPEK_clean_linker_0, # of connection points: 2
#     Edge 77, Type (0, 0), BuildingBlock: EZIPEK_clean_linker_0, # of connection points: 2
#     Edge 78, Type (0, 0), BuildingBlock: EZIPEK_clean_linker_0, # of connection points: 2
#     Edge 79, Type (0, 0), BuildingBlock: EZIPEK_clean_linker_0, # of connection points: 2
#     Edge 80, Type (0, 0), BuildingBlock: EZIPEK_clean_linker_0, # of connection points: 2
#     Edge 81, Type (0, 0), BuildingBlock: EZIPEK_clean_linker_0, # of connection points: 2
#     Edge 82, Type (0, 0), BuildingBlock: EZIPEK_clean_linker_0, # of connection points: 2
#     Edge 83, Type (0, 0), BuildingBlock: EZIPEK_clean_linker_0, # of connection points: 2
#     Edge 84, Type (0, 0), BuildingBlock: EZIPEK_clean_linker_0, # of connection points: 2
#     Edge 85, Type (0, 0), BuildingBlock: EZIPEK_clean_linker_0, # of connection points: 2
#     Edge 86, Type (0, 0), BuildingBlock: EZIPEK_clean_linker_0, # of connection points: 2
#     Edge 87, Type (0, 0), BuildingBlock: EZIPEK_clean_linker_0, # of connection points: 2
#     Edge 88, Type (0, 0), BuildingBlock: EZIPEK_clean_linker_0, # of connection points: 2
#     Edge 89, Type (0, 0), BuildingBlock: EZIPEK_clean_linker_0, # of connection points: 2
#     Edge 90, Type (0, 0), BuildingBlock: EZIPEK_clean_linker_0, # of connection points: 2
#     Edge 91, Type (0, 0), BuildingBlock: EZIPEK_clean_linker_0, # of connection points: 2
#     Edge 92, Type (0, 0), BuildingBlock: EZIPEK_clean_linker_0, # of connection points: 2
#     Edge 93, Type (0, 0), BuildingBlock: EZIPEK_clean_linker_0, # of connection points: 2
#     Edge 94, Type (0, 0), BuildingBlock: EZIPEK_clean_linker_0, # of connection points: 2
#     Edge 95, Type (0, 0), BuildingBlock: EZIPEK_clean_linker_0, # of connection points: 2
# Relax obj value: 0.054
# Max RMSD: 0.080
# Mean RMSD: 0.080
data_MOF--net-mer--node1-GALJAG_clean_sbu_0--edge1-EZIPEK_clean_linker_0
_symmetry_space_group_name_H-M    P1
_symmetry_Int_Tables_number       1
_symmetry_cell_setting            triclinic
loop_
_symmetry_equiv_pos_as_xyz
'x, y, z'
_cell_length_a     46.783428
_cell_length_b     46.764814
_cell_length_c     39.99516
_cell_angle_alpha  89.987744
_cell_angle_beta   89.972081
_cell_angle_gamma 89.989114
loop_
_atom_site_label
_atom_site_type_symbol
_atom_site_fract_x
_atom_site_fract_y
_atom_site_fract_z
_atom_type_partial_charge
In0 In 0.1137 0.28493 0.36179 0.0
O1 O 0.12389 0.32766 0.33636 0.0
O2 O 0.1266 0.28967 0.30745 0.0
C3 C 0.11841 0.2971 0.42718 0.0
C4 C 0.1517 0.24199 0.36018 0.0
C5 C 0.05677 0.2809 0.35414 0.0
O6 O 0.1295 0.31289 0.40506 0.0
O7 O 0.10489 0.27573 0.41633 0.0
O8 O 0.07319 0.25991 0.34917 0.0
O9 O 0.06901 0.30392 0.36205 0.0
C10 C 0.12955 0.31642 0.30844 0.0
O11 O 0.12563 0.23824 0.35318 0.0
O12 O 0.15858 0.26722 0.3679 0.0
In13 In 0.71375 0.11094 0.3592 0.0
O14 O 0.75985 0.12623 0.35389 0.0
O15 O 0.72727 0.15717 0.36341 0.0
C16 C 0.71843 0.05414 0.35255 0.0
C17 C 0.6855 0.12603 0.30358 0.0
C18 C 0.70122 0.11396 0.42462 0.0
O19 O 0.73959 0.07062 0.34892 0.0
O20 O 0.69493 0.06626 0.35871 0.0
O21 O 0.68293 0.12034 0.40254 0.0
O22 O 0.72512 0.10581 0.41364 0.0
C23 C 0.75345 0.15219 0.35859 0.0
O24 O 0.67387 0.12714 0.33209 0.0
O25 O 0.71078 0.11669 0.30316 0.0
In26 In 0.87988 0.7057 0.36277 0.0
O27 O 0.86398 0.66358 0.34087 0.0
O28 O 0.87084 0.69882 0.30795 0.0
C29 C 0.87818 0.69686 0.42942 0.0
C30 C 0.83889 0.74526 0.35721 0.0
C31 C 0.93664 0.71071 0.35383 0.0
O32 O 0.87796 0.67626 0.40898 0.0
O33 O 0.87877 0.72125 0.41619 0.0
O34 O 0.92058 0.73227 0.35642 0.0
O35 O 0.92405 0.68695 0.35461 0.0
C36 C 0.86298 0.67315 0.31129 0.0
O37 O 0.86489 0.75095 0.35151 0.0
O38 O 0.83365 0.71956 0.36495 0.0
In39 In 0.28618 0.88084 0.36143 0.0
O40 O 0.31854 0.85255 0.33427 0.0
O41 O 0.29649 0.88423 0.30611 0.0
C42 C 0.30397 0.87858 0.4252 0.0
C43 C 0.24159 0.84471 0.3574 0.0
C44 C 0.28264 0.9378 0.3571 0.0
O45 O 0.32074 0.87323 0.40122 0.0
O46 O 0.2788 0.88504 0.41699 0.0
O47 O 0.26069 0.92213 0.35908 0.0
O48 O 0.30631 0.92479 0.35703 0.0
C49 C 0.31404 0.86381 0.30607 0.0
O50 O 0.24006 0.87017 0.34712 0.0
O51 O 0.26528 0.83762 0.36982 0.0
In52 In 0.11913 0.71389 0.63155 0.0
O53 O 0.13314 0.76052 0.63587 0.0
O54 O 0.16534 0.72824 0.63422 0.0
C55 C 0.06243 0.71764 0.63943 0.0
C56 C 0.13022 0.68086 0.68478 0.0
C57 C 0.12402 0.70398 0.5656 0.0
O58 O 0.07847 0.73923 0.64293 0.0
O59 O 0.07509 0.69451 0.63278 0.0
O60 O 0.1374 0.68907 0.58682 0.0
O61 O 0.10812 0.72305 0.57769 0.0
C62 C 0.15951 0.75454 0.63554 0.0
O63 O 0.12651 0.67039 0.65595 0.0
O64 O 0.12807 0.70773 0.68647 0.0
In65 In 0.28672 0.11538 0.63591 0.0
O66 O 0.32432 0.14011 0.65758 0.0
O67 O 0.29334 0.12265 0.69125 0.0
C68 C 0.29816 0.11683 0.57012 0.0
C69 C 0.24213 0.15119 0.63928 0.0
C70 C 0.28906 0.05847 0.64426 0.0
O71 O 0.31725 0.12194 0.59168 0.0
O72 O 0.27387 0.11091 0.5818 0.0
O73 O 0.26571 0.07151 0.63997 0.0
O74 O 0.31089 0.0742 0.64563 0.0
C75 C 0.31611 0.13673 0.68744 0.0
O76 O 0.2405 0.12572 0.64977 0.0
O77 O 0.26607 0.15847 0.62752 0.0
In78 In 0.88049 0.28565 0.63805 0.0
O79 O 0.8715 0.23934 0.6533 0.0
O80 O 0.83736 0.26402 0.63304 0.0
C81 C 0.93753 0.28372 0.6401 0.0
C82 C 0.86384 0.31427 0.69307 0.0
C83 C 0.87548 0.30012 0.57328 0.0
O84 O 0.92242 0.26135 0.64012 0.0
O85 O 0.92397 0.30706 0.63922 0.0
O86 O 0.87246 0.31849 0.59621 0.0
O87 O 0.88072 0.27508 0.58311 0.0
C88 C 0.84558 0.24033 0.64455 0.0
O89 O 0.8524 0.31841 0.66489 0.0
O90 O 0.88427 0.29673 0.69314 0.0
In91 In 0.71185 0.88145 0.64078 0.0
O92 O 0.6685 0.87135 0.66435 0.0
O93 O 0.70539 0.87031 0.69536 0.0
C94 C 0.70189 0.87414 0.57519 0.0
C95 C 0.75687 0.8463 0.64684 0.0
C96 C 0.71224 0.93855 0.64638 0.0
O97 O 0.68693 0.86171 0.59709 0.0
O98 O 0.72155 0.88985 0.58632 0.0
O99 O 0.73465 0.92383 0.64998 0.0
O100 O 0.68978 0.92449 0.64076 0.0
C101 C 0.67871 0.86711 0.69314 0.0
O102 O 0.75896 0.87293 0.65159 0.0
O103 O 0.73216 0.83741 0.63962 0.0
In104 In 0.88173 0.71687 0.63827 0.0
O105 O 0.87169 0.76288 0.65402 0.0
O106 O 0.83803 0.73727 0.63408 0.0
C107 C 0.93893 0.71756 0.64171 0.0
C108 C 0.86521 0.68798 0.69299 0.0
C109 C 0.87876 0.70332 0.57296 0.0
O110 O 0.92445 0.74026 0.63851 0.0
O111 O 0.92453 0.69483 0.64394 0.0
O112 O 0.87639 0.68442 0.59545 0.0
O113 O 0.88206 0.72846 0.58354 0.0
C114 C 0.84566 0.76111 0.64573 0.0
O115 O 0.85364 0.68388 0.66481 0.0
O116 O 0.88555 0.70564 0.69305 0.0
In117 In 0.29147 0.87823 0.63189 0.0
O118 O 0.24488 0.86684 0.64274 0.0
O119 O 0.27269 0.83411 0.62474 0.0
C120 C 0.29099 0.93501 0.64221 0.0
C121 C 0.31955 0.85751 0.68467 0.0
C122 C 0.30654 0.87742 0.56691 0.0
O123 O 0.26922 0.92163 0.63218 0.0
O124 O 0.31251 0.91967 0.64822 0.0
O125 O 0.32438 0.87193 0.58975 0.0
O126 O 0.28171 0.88329 0.57689 0.0
C127 C 0.24793 0.84095 0.63437 0.0
O128 O 0.33002 0.85644 0.65553 0.0
O129 O 0.29521 0.86898 0.68711 0.0
In130 In 0.11765 0.28132 0.63463 0.0
O131 O 0.12766 0.23397 0.64174 0.0
O132 O 0.16225 0.2625 0.63185 0.0
C133 C 0.06062 0.28131 0.63971 0.0
C134 C 0.13379 0.30922 0.69011 0.0
C135 C 0.12153 0.29508 0.56964 0.0
O136 O 0.07519 0.25875 0.64285 0.0
O137 O 0.07474 0.30388 0.63468 0.0
O138 O 0.12827 0.31265 0.59232 0.0
O139 O 0.11308 0.27101 0.57972 0.0
C140 C 0.15422 0.23723 0.63762 0.0
O141 O 0.13932 0.31868 0.66123 0.0
O142 O 0.11977 0.28621 0.6909 0.0
In143 In 0.71409 0.11873 0.63388 0.0
O144 O 0.67783 0.14595 0.65495 0.0
O145 O 0.70452 0.12314 0.68913 0.0
C146 C 0.70276 0.11993 0.56774 0.0
C147 C 0.75946 0.15305 0.64157 0.0
C148 C 0.71253 0.06185 0.6425 0.0
O149 O 0.68325 0.12269 0.58933 0.0
O150 O 0.72758 0.1172 0.57944 0.0
O151 O 0.73566 0.07523 0.63816 0.0
O152 O 0.69038 0.07717 0.64345 0.0
C153 C 0.6838 0.14003 0.68501 0.0
O154 O 0.76075 0.1266 0.64785 0.0
O155 O 0.73551 0.16206 0.63162 0.0
In156 In 0.87691 0.28462 0.3655 0.0
O157 O 0.86262 0.23792 0.36453 0.0
O158 O 0.83055 0.27014 0.36329 0.0
C159 C 0.93362 0.28089 0.35706 0.0
C160 C 0.86206 0.31156 0.30891 0.0
C161 C 0.87399 0.29885 0.43075 0.0
O162 O 0.91757 0.25919 0.35591 0.0
O163 O 0.9211 0.30445 0.36189 0.0
O164 O 0.86595 0.31593 0.40811 0.0
O165 O 0.88331 0.27518 0.42044 0.0
C166 C 0.83627 0.24381 0.36341 0.0
O167 O 0.85909 0.3232 0.33728 0.0
O168 O 0.87341 0.28708 0.30916 0.0
In169 In 0.71248 0.87484 0.36548 0.0
O170 O 0.66975 0.86054 0.3438 0.0
O171 O 0.70407 0.86982 0.31016 0.0
C172 C 0.70336 0.87164 0.4319 0.0
C173 C 0.75128 0.83253 0.35964 0.0
C174 C 0.71796 0.93127 0.35565 0.0
O175 O 0.68468 0.86375 0.41105 0.0
O176 O 0.72611 0.88112 0.41927 0.0
O177 O 0.73857 0.91423 0.35133 0.0
O178 O 0.69469 0.91994 0.36444 0.0
C179 C 0.67862 0.86147 0.31394 0.0
O180 O 0.75844 0.85853 0.36134 0.0
O181 O 0.72475 0.82806 0.36014 0.0
In182 In 0.11688 0.71485 0.35709 0.0
O183 O 0.12744 0.76186 0.3484 0.0
O184 O 0.16163 0.73309 0.35956 0.0
C185 C 0.05979 0.71587 0.35103 0.0
C186 C 0.13251 0.68312 0.30428 0.0
C187 C 0.12339 0.7042 0.42253 0.0
O188 O 0.07479 0.73798 0.34656 0.0
O189 O 0.07356 0.69346 0.35783 0.0
O190 O 0.13334 0.68751 0.4006 0.0
O191 O 0.11042 0.72582 0.41144 0.0
C192 C 0.1539 0.7584 0.35335 0.0
O193 O 0.12903 0.6724 0.33296 0.0
O194 O 0.12753 0.70956 0.30224 0.0
In195 In 0.28289 0.11792 0.36205 0.0
O196 O 0.32233 0.13836 0.33855 0.0
O197 O 0.28974 0.12262 0.30613 0.0
C198 C 0.29583 0.12008 0.42733 0.0
C199 C 0.23933 0.15534 0.3598 0.0
C200 C 0.28118 0.06095 0.35492 0.0
O201 O 0.3135 0.1278 0.40522 0.0
O202 O 0.27203 0.11155 0.41652 0.0
O203 O 0.25937 0.0764 0.3507 0.0
O204 O 0.30393 0.07416 0.36172 0.0
C205 C 0.31363 0.13481 0.30898 0.0
O206 O 0.23566 0.12887 0.35544 0.0
O207 O 0.26477 0.16295 0.36511 0.0
In208 In 0.61501 0.78819 0.86458 0.0
O209 O 0.62158 0.83171 0.83958 0.0
O210 O 0.62537 0.79403 0.80999 0.0
C211 C 0.62104 0.80001 0.93008 0.0
C212 C 0.6557 0.7477 0.86166 0.0
C213 C 0.55872 0.78087 0.85575 0.0
O214 O 0.63299 0.8151 0.90789 0.0
O215 O 0.60599 0.77978 0.91917 0.0
O216 O 0.5765 0.76142 0.8488 0.0
O217 O 0.56932 0.80388 0.86653 0.0
C218 C 0.62705 0.82092 0.8113 0.0
O219 O 0.62948 0.74156 0.86429 0.0
O220 O 0.66119 0.77405 0.85995 0.0
In221 In 0.20312 0.61801 0.86004 0.0
O222 O 0.16058 0.62792 0.83463 0.0
O223 O 0.1985 0.62658 0.80497 0.0
C224 C 0.19263 0.62503 0.92567 0.0
C225 C 0.24526 0.65673 0.85559 0.0
C226 C 0.20524 0.56125 0.85219 0.0
O227 O 0.17728 0.63703 0.90377 0.0
O228 O 0.21246 0.60962 0.91443 0.0
O229 O 0.22695 0.57681 0.84739 0.0
O230 O 0.18268 0.57439 0.86006 0.0
C231 C 0.17186 0.63089 0.80605 0.0
O232 O 0.25023 0.63054 0.86084 0.0
O233 O 0.21928 0.66303 0.85159 0.0
In234 In 0.37947 0.21614 0.86068 0.0
O235 O 0.36239 0.1769 0.83347 0.0
O236 O 0.37673 0.21259 0.80451 0.0
C237 C 0.3763 0.20388 0.92622 0.0
C238 C 0.33848 0.25642 0.85866 0.0
C239 C 0.43613 0.21934 0.85354 0.0
O240 O 0.36703 0.18664 0.90438 0.0
O241 O 0.3871 0.22655 0.91485 0.0
O242 O 0.42008 0.2407 0.84866 0.0
O243 O 0.42359 0.19631 0.8611 0.0
C244 C 0.36549 0.18806 0.80484 0.0
O245 O 0.36473 0.26271 0.85985 0.0
O246 O 0.3331 0.23004 0.85805 0.0
In247 In 0.78256 0.38444 0.86239 0.0
O248 O 0.82111 0.36099 0.84065 0.0
O249 O 0.79161 0.38012 0.80677 0.0
C250 C 0.79393 0.38245 0.92823 0.0
C251 C 0.73861 0.34765 0.85875 0.0
C252 C 0.781 0.44121 0.85357 0.0
O253 O 0.81241 0.37566 0.90661 0.0
O254 O 0.77015 0.39036 0.91672 0.0
O255 O 0.75942 0.42556 0.84883 0.0
O256 O 0.80354 0.42827 0.862 0.0
C257 C 0.81398 0.36548 0.81068 0.0
O258 O 0.7354 0.37411 0.85387 0.0
O259 O 0.76375 0.33981 0.86531 0.0
In260 In 0.61691 0.20449 0.13163 0.0
O261 O 0.63352 0.16365 0.15675 0.0
O262 O 0.62644 0.20056 0.18688 0.0
C263 C 0.61797 0.19233 0.06599 0.0
C264 C 0.65599 0.24644 0.13158 0.0
C265 C 0.56031 0.2084 0.1415 0.0
O266 O 0.62745 0.17495 0.08753 0.0
O267 O 0.60784 0.21526 0.07756 0.0
O268 O 0.57678 0.22958 0.14472 0.0
O269 O 0.57237 0.18511 0.13413 0.0
C270 C 0.63462 0.17495 0.18541 0.0
O271 O 0.63021 0.25085 0.13938 0.0
O272 O 0.66207 0.22103 0.12374 0.0
In273 In 0.78186 0.61158 0.13871 0.0
O274 O 0.73538 0.62668 0.13997 0.0
O275 O 0.76845 0.65802 0.14118 0.0
C276 C 0.77386 0.55552 0.14867 0.0
C277 C 0.81326 0.62374 0.19314 0.0
C278 C 0.79479 0.61674 0.07324 0.0
O279 O 0.75351 0.57322 0.15079 0.0
O280 O 0.79806 0.56611 0.14238 0.0
O281 O 0.80871 0.62992 0.09547 0.0
O282 O 0.77542 0.60058 0.08412 0.0
C283 C 0.74199 0.65291 0.14097 0.0
O284 O 0.82469 0.61624 0.16584 0.0
O285 O 0.78632 0.6243 0.19285 0.0
In286 In 0.38119 0.78367 0.13453 0.0
O287 O 0.35895 0.82231 0.15753 0.0
O288 O 0.37705 0.79121 0.19037 0.0
C289 C 0.37803 0.79451 0.06871 0.0
C290 C 0.34353 0.74054 0.13824 0.0
C291 C 0.43807 0.78197 0.14179 0.0
O292 O 0.37218 0.81351 0.0901 0.0
O293 O 0.38548 0.7707 0.08054 0.0
O294 O 0.42273 0.75987 0.14412 0.0
O295 O 0.4248 0.805 0.13641 0.0
C296 C 0.36322 0.8142 0.18723 0.0
O297 O 0.36983 0.73683 0.14379 0.0
O298 O 0.33624 0.76578 0.13126 0.0
In299 In 0.21259 0.38073 0.13743 0.0
O300 O 0.16968 0.37157 0.16288 0.0
O301 O 0.2076 0.36775 0.19174 0.0
C302 C 0.20026 0.37749 0.07192 0.0
C303 C 0.25431 0.34148 0.13813 0.0
C304 C 0.21824 0.43739 0.14579 0.0
O305 O 0.18364 0.36731 0.09383 0.0
O306 O 0.22259 0.38911 0.08308 0.0
O307 O 0.23853 0.4203 0.15155 0.0
O308 O 0.19509 0.42592 0.13695 0.0
C309 C 0.18077 0.3656 0.19079 0.0
O310 O 0.25914 0.36761 0.14387 0.0
O311 O 0.22857 0.33522 0.13211 0.0
In312 In 0.38057 0.21147 0.13561 0.0
O313 O 0.36324 0.17203 0.16237 0.0
O314 O 0.37562 0.20833 0.19152 0.0
C315 C 0.37778 0.20021 0.06979 0.0
C316 C 0.34102 0.25331 0.13664 0.0
C317 C 0.43717 0.21251 0.14428 0.0
O318 O 0.36454 0.18499 0.09088 0.0
O319 O 0.39279 0.21988 0.0821 0.0
O320 O 0.42205 0.23485 0.14661 0.0
O321 O 0.42371 0.1896 0.13851 0.0
C322 C 0.36497 0.18353 0.19097 0.0
O323 O 0.36751 0.25865 0.13732 0.0
O324 O 0.33471 0.22715 0.13593 0.0
In325 In 0.78101 0.37667 0.13669 0.0
O326 O 0.82204 0.35958 0.16076 0.0
O327 O 0.78636 0.36858 0.19222 0.0
C328 C 0.79353 0.37815 0.07122 0.0
C329 C 0.7416 0.33509 0.13553 0.0
C330 C 0.77387 0.4329 0.14693 0.0
O331 O 0.81231 0.37237 0.09292 0.0
O332 O 0.76891 0.38327 0.08255 0.0
O333 O 0.75361 0.41532 0.15019 0.0
O334 O 0.79774 0.42211 0.1395 0.0
C335 C 0.81173 0.35979 0.18995 0.0
O336 O 0.73562 0.3604 0.14403 0.0
O337 O 0.76733 0.3307 0.1276 0.0
In338 In 0.61801 0.78542 0.13789 0.0
O339 O 0.63794 0.82302 0.16572 0.0
O340 O 0.61517 0.79143 0.19375 0.0
C341 C 0.62427 0.79887 0.07292 0.0
C342 C 0.65741 0.74347 0.14234 0.0
C343 C 0.56114 0.78253 0.14293 0.0
O344 O 0.63057 0.81659 0.09567 0.0
O345 O 0.61521 0.77508 0.08314 0.0
O346 O 0.57702 0.76151 0.14999 0.0
O347 O 0.5739 0.80501 0.13384 0.0
C348 C 0.63006 0.81394 0.19411 0.0
O349 O 0.63163 0.73847 0.13501 0.0
O350 O 0.66295 0.76931 0.14831 0.0
In351 In 0.2123 0.61697 0.13261 0.0
O352 O 0.16993 0.62443 0.15985 0.0
O353 O 0.20862 0.63136 0.18643 0.0
C354 C 0.19779 0.62382 0.06799 0.0
C355 C 0.25536 0.65469 0.13523 0.0
C356 C 0.21797 0.56022 0.14117 0.0
O357 O 0.18242 0.63345 0.09133 0.0
O358 O 0.22002 0.61086 0.07721 0.0
O359 O 0.23906 0.57697 0.14221 0.0
O360 O 0.19413 0.57198 0.13619 0.0
C361 C 0.18171 0.63204 0.1868 0.0
O362 O 0.25926 0.62821 0.13949 0.0
O363 O 0.22985 0.6622 0.12986 0.0
In364 In 0.37929 0.7785 0.85989 0.0
O365 O 0.36267 0.7326 0.85728 0.0
O366 O 0.33249 0.76673 0.85858 0.0
C367 C 0.43595 0.77559 0.85298 0.0
C368 C 0.36618 0.80621 0.8036 0.0
C369 C 0.37649 0.79023 0.92554 0.0
O370 O 0.42031 0.75362 0.85046 0.0
O371 O 0.42299 0.79885 0.85826 0.0
O372 O 0.3671 0.80758 0.90387 0.0
O373 O 0.38735 0.76765 0.914 0.0
C374 C 0.33668 0.74014 0.85756 0.0
O375 O 0.36391 0.81805 0.83196 0.0
O376 O 0.37604 0.78107 0.80374 0.0
In377 In 0.20792 0.38104 0.86238 0.0
O378 O 0.1701 0.35784 0.83893 0.0
O379 O 0.20273 0.37439 0.80675 0.0
C380 C 0.1977 0.37891 0.92858 0.0
C381 C 0.25103 0.34365 0.85848 0.0
C382 C 0.20622 0.43786 0.85341 0.0
O383 O 0.17822 0.37392 0.90746 0.0
O384 O 0.22172 0.38497 0.91633 0.0
O385 O 0.22949 0.42441 0.8564 0.0
O386 O 0.18402 0.42259 0.85378 0.0
C387 C 0.1795 0.36088 0.80946 0.0
O388 O 0.25469 0.36996 0.85241 0.0
O389 O 0.22586 0.33652 0.86617 0.0
In390 In 0.61609 0.21543 0.85997 0.0
O391 O 0.64406 0.1831 0.83215 0.0
O392 O 0.61353 0.20682 0.80415 0.0
C393 C 0.61797 0.19751 0.92381 0.0
C394 C 0.65251 0.25978 0.85773 0.0
C395 C 0.55921 0.21914 0.85515 0.0
O396 O 0.6222 0.18049 0.89975 0.0
O397 O 0.61279 0.22301 0.91564 0.0
O398 O 0.57497 0.24106 0.85637 0.0
O399 O 0.5721 0.19542 0.85602 0.0
C400 C 0.63347 0.18875 0.80387 0.0
O401 O 0.62692 0.26195 0.84805 0.0
O402 O 0.65962 0.23549 0.86853 0.0
In403 In 0.78521 0.62057 0.86383 0.0
O404 O 0.82588 0.63974 0.84192 0.0
O405 O 0.79341 0.62514 0.80832 0.0
C406 C 0.79592 0.62357 0.92997 0.0
C407 C 0.74326 0.66008 0.86038 0.0
C408 C 0.78215 0.56417 0.85305 0.0
O409 O 0.81383 0.63251 0.90871 0.0
O410 O 0.77332 0.61341 0.91779 0.0
O411 O 0.76121 0.58056 0.84767 0.0
O412 O 0.8047 0.57618 0.8631 0.0
C413 C 0.81744 0.63704 0.81201 0.0
O414 O 0.73815 0.63415 0.86677 0.0
O415 O 0.76912 0.66567 0.85492 0.0
C416 C 0.21443 0.19619 0.33215 0.0
C417 C 0.21562 0.17614 0.35869 0.0
C418 C 0.17249 0.19693 0.38369 0.0
C419 C 0.17295 0.21865 0.3589 0.0
N420 N 0.19509 0.24074 0.31088 0.0
N421 N 0.19824 0.15873 0.41167 0.0
C422 C 0.19418 0.21882 0.33353 0.0
C423 C 0.19515 0.17666 0.38486 0.0
N424 N 0.23194 0.19286 0.30502 0.0
N425 N 0.1505 0.19581 0.4062 0.0
H426 H 0.21445 0.14349 0.41333 0.0
H427 H 0.18609 0.16021 0.4334 0.0
H428 H 0.1344 0.21119 0.40739 0.0
H429 H 0.14711 0.17871 0.42239 0.0
H430 H 0.23035 0.205 0.28329 0.0
H431 H 0.24662 0.17615 0.30295 0.0
H432 H 0.21202 0.24406 0.29444 0.0
H433 H 0.17957 0.25672 0.30964 0.0
C434 C 0.79346 0.17986 0.33185 0.0
C435 C 0.77497 0.1753 0.35947 0.0
C436 C 0.79251 0.21907 0.38583 0.0
C437 C 0.8139 0.22145 0.36076 0.0
N438 N 0.83538 0.20378 0.30982 0.0
N439 N 0.76111 0.18712 0.41595 0.0
C440 C 0.81472 0.20157 0.33386 0.0
C441 C 0.77563 0.19397 0.38734 0.0
N442 N 0.78964 0.16465 0.30299 0.0
N443 N 0.78769 0.24088 0.40783 0.0
H444 H 0.7493 0.16835 0.41866 0.0
H445 H 0.76332 0.19848 0.43822 0.0
H446 H 0.79858 0.26022 0.40704 0.0
H447 H 0.77052 0.24112 0.42443 0.0
H448 H 0.80034 0.16914 0.28077 0.0
H449 H 0.77383 0.14912 0.30019 0.0
H450 H 0.83942 0.18784 0.29226 0.0
H451 H 0.84937 0.22108 0.30813 0.0
C452 C 0.79787 0.76986 0.38511 0.0
C453 C 0.81627 0.7674 0.35707 0.0
C454 C 0.7923 0.80821 0.33059 0.0
C455 C 0.77247 0.80903 0.3575 0.0
N456 N 0.7521 0.78541 0.40594 0.0
N457 N 0.82745 0.78031 0.30014 0.0
C458 C 0.77378 0.78815 0.38326 0.0
C459 C 0.81264 0.78558 0.32898 0.0
N460 N 0.80423 0.75607 0.41435 0.0
N461 N 0.79145 0.82872 0.30626 0.0
H462 H 0.84182 0.7634 0.29761 0.0
H463 H 0.82358 0.79095 0.27773 0.0
H464 H 0.77529 0.84403 0.30466 0.0
H465 H 0.80753 0.83141 0.28851 0.0
H466 H 0.7932 0.75967 0.43659 0.0
H467 H 0.82245 0.74354 0.41758 0.0
H468 H 0.75085 0.76849 0.42284 0.0
H469 H 0.73387 0.79812 0.40594 0.0
C470 C 0.1727 0.8048 0.37576 0.0
C471 C 0.17465 0.78216 0.35224 0.0
C472 C 0.22041 0.80074 0.33191 0.0
C473 C 0.21779 0.82416 0.35428 0.0
N474 N 0.18978 0.85127 0.39382 0.0
N475 N 0.19678 0.76155 0.30345 0.0
C476 C 0.19326 0.82719 0.37486 0.0
C477 C 0.19751 0.78097 0.32901 0.0
N478 N 0.15231 0.80401 0.40028 0.0
N479 N 0.24495 0.79714 0.31378 0.0
H480 H 0.18007 0.74703 0.30023 0.0
H481 H 0.21125 0.76148 0.28367 0.0
H482 H 0.26173 0.8118 0.31397 0.0
H483 H 0.24955 0.77874 0.30016 0.0
H484 H 0.1519 0.81799 0.42052 0.0
H485 H 0.13699 0.78789 0.40206 0.0
H486 H 0.17089 0.85621 0.40632 0.0
H487 H 0.20507 0.86744 0.39526 0.0
C488 C 0.20047 0.77958 0.60757 0.0
C489 C 0.18207 0.77675 0.63565 0.0
C490 C 0.20804 0.81526 0.66421 0.0
C491 C 0.22422 0.82001 0.63467 0.0
N492 N 0.23089 0.81126 0.57571 0.0
N493 N 0.16623 0.79365 0.68964 0.0
C494 C 0.21907 0.80344 0.60564 0.0
C495 C 0.18503 0.79534 0.66353 0.0
N496 N 0.20063 0.75941 0.58285 0.0
N497 N 0.21573 0.82834 0.69342 0.0
H498 H 0.15052 0.77792 0.69145 0.0
H499 H 0.16518 0.80888 0.70861 0.0
H500 H 0.23297 0.84236 0.6953 0.0
H501 H 0.20674 0.82333 0.71651 0.0
H502 H 0.21588 0.75896 0.56386 0.0
H503 H 0.18734 0.74158 0.58273 0.0
H504 H 0.22544 0.80171 0.55306 0.0
H505 H 0.24371 0.82935 0.57282 0.0
C506 C 0.20508 0.18019 0.66947 0.0
C507 C 0.21751 0.17094 0.63897 0.0
C508 C 0.1877 0.2046 0.60753 0.0
C509 C 0.17454 0.21312 0.63789 0.0
N510 N 0.16673 0.20608 0.69695 0.0
N511 N 0.21674 0.16947 0.5787 0.0
C512 C 0.18185 0.19981 0.66861 0.0
C513 C 0.20771 0.18179 0.60789 0.0
N514 N 0.21654 0.17152 0.69926 0.0
N515 N 0.18128 0.21853 0.57839 0.0
H516 H 0.23094 0.15229 0.578 0.0
H517 H 0.20824 0.17438 0.55535 0.0
H518 H 0.16532 0.23403 0.57658 0.0
H519 H 0.1928 0.2159 0.55633 0.0
H520 H 0.21065 0.18004 0.72229 0.0
H521 H 0.23364 0.15728 0.70092 0.0
H522 H 0.16898 0.1949 0.7193 0.0
H523 H 0.15031 0.22114 0.69756 0.0
C524 C 0.80768 0.17083 0.62382 0.0
C525 C 0.78398 0.17254 0.64584 0.0
C526 C 0.80199 0.21748 0.66903 0.0
C527 C 0.82593 0.21571 0.64729 0.0
N528 N 0.85446 0.18874 0.60805 0.0
N529 N 0.76181 0.19299 0.6946 0.0
C530 C 0.82984 0.19157 0.62621 0.0
C531 C 0.78213 0.19455 0.67005 0.0
N532 N 0.80813 0.15044 0.59929 0.0
N533 N 0.79796 0.24134 0.68825 0.0
H534 H 0.74742 0.17601 0.69642 0.0
H535 H 0.76085 0.20688 0.71489 0.0
H536 H 0.81275 0.25797 0.68956 0.0
H537 H 0.77925 0.24549 0.70148 0.0
H538 H 0.82292 0.15012 0.57985 0.0
H539 H 0.79247 0.13471 0.59695 0.0
H540 H 0.86001 0.17017 0.59524 0.0
H541 H 0.87044 0.20424 0.60747 0.0
C542 C 0.8016 0.78211 0.6714 0.0
C543 C 0.82514 0.78499 0.64921 0.0
C544 C 0.80457 0.82909 0.62633 0.0
C545 C 0.78154 0.82665 0.64927 0.0
N546 N 0.76102 0.80483 0.69828 0.0
N547 N 0.85178 0.81324 0.60943 0.0
C548 C 0.78091 0.8043 0.67319 0.0
C549 C 0.82763 0.8093 0.62814 0.0
N550 N 0.79874 0.75792 0.69033 0.0
N551 N 0.80352 0.84913 0.60143 0.0
H552 H 0.86845 0.79847 0.60852 0.0
H553 H 0.85628 0.83208 0.5966 0.0
H554 H 0.787 0.86396 0.59909 0.0
H555 H 0.8178 0.84976 0.58148 0.0
H556 H 0.78036 0.75292 0.70379 0.0
H557 H 0.81415 0.74184 0.69113 0.0
H558 H 0.76117 0.79083 0.71851 0.0
H559 H 0.74578 0.821 0.70058 0.0
C560 C 0.67662 0.7028 0.8375 0.0
C561 C 0.67846 0.72566 0.86075 0.0
C562 C 0.72425 0.70701 0.88129 0.0
C563 C 0.72094 0.68259 0.86041 0.0
N564 N 0.69322 0.65609 0.81993 0.0
N565 N 0.70224 0.74794 0.90769 0.0
C566 C 0.69676 0.68003 0.83912 0.0
C567 C 0.7019 0.72748 0.88323 0.0
N568 N 0.65677 0.70382 0.81239 0.0
N569 N 0.7488 0.7109 0.89933 0.0
H570 H 0.68716 0.76419 0.90965 0.0
H571 H 0.71633 0.74768 0.92783 0.0
H572 H 0.76485 0.69564 0.90155 0.0
H573 H 0.7542 0.73019 0.91069 0.0
H574 H 0.65624 0.68949 0.7925 0.0
H575 H 0.64243 0.7207 0.80941 0.0
H576 H 0.67424 0.65118 0.80763 0.0
H577 H 0.70875 0.64026 0.81743 0.0
C578 C 0.29128 0.67609 0.83242 0.0
C579 C 0.26807 0.67869 0.85515 0.0
C580 C 0.29002 0.7214 0.87981 0.0
C581 C 0.31269 0.71946 0.85623 0.0
N582 N 0.33108 0.69953 0.80492 0.0
N583 N 0.24262 0.70678 0.8965 0.0
C584 C 0.3124 0.69795 0.8312 0.0
C585 C 0.26654 0.7023 0.87748 0.0
N586 N 0.29295 0.65302 0.81151 0.0
N587 N 0.29142 0.74057 0.90559 0.0
H588 H 0.22562 0.69254 0.89811 0.0
H589 H 0.23865 0.7258 0.90924 0.0
H590 H 0.30723 0.75604 0.90787 0.0
H591 H 0.27796 0.73991 0.92633 0.0
H592 H 0.31121 0.64791 0.79785 0.0
H593 H 0.27659 0.63807 0.80886 0.0
H594 H 0.33001 0.6863 0.78403 0.0
H595 H 0.34592 0.71599 0.80214 0.0
C596 C 0.3149 0.29859 0.83114 0.0
C597 C 0.31567 0.27835 0.85765 0.0
C598 C 0.27737 0.30404 0.88636 0.0
C599 C 0.27453 0.32252 0.85849 0.0
N600 N 0.28698 0.3342 0.80151 0.0
N601 N 0.29209 0.25764 0.90593 0.0
C602 C 0.29245 0.31914 0.83012 0.0
C603 C 0.29518 0.2797 0.88381 0.0
N604 N 0.33514 0.29779 0.80649 0.0
N605 N 0.26402 0.31036 0.91589 0.0
H606 H 0.30398 0.23889 0.90485 0.0
H607 H 0.27548 0.25664 0.92326 0.0
H608 H 0.25182 0.32879 0.91943 0.0
H609 H 0.26775 0.2991 0.93795 0.0
H610 H 0.33783 0.31408 0.78901 0.0
H611 H 0.35021 0.28146 0.80435 0.0
H612 H 0.29733 0.33037 0.7789 0.0
H613 H 0.27027 0.34882 0.79938 0.0
C614 C 0.66974 0.30751 0.87767 0.0
C615 C 0.67306 0.28367 0.85604 0.0
C616 C 0.71634 0.30495 0.83217 0.0
C617 C 0.71488 0.32698 0.85642 0.0
N618 N 0.69233 0.34804 0.90476 0.0
N619 N 0.70052 0.25801 0.81459 0.0
C620 C 0.69197 0.32819 0.87963 0.0
C621 C 0.69668 0.28189 0.83383 0.0
N622 N 0.64556 0.31019 0.89664 0.0
N623 N 0.73587 0.30671 0.80678 0.0
H624 H 0.68591 0.2412 0.81377 0.0
H625 H 0.71907 0.25394 0.80101 0.0
H626 H 0.75006 0.32379 0.80429 0.0
H627 H 0.73628 0.29285 0.78642 0.0
H628 H 0.64037 0.32864 0.90988 0.0
H629 H 0.62959 0.29467 0.89751 0.0
H630 H 0.6781 0.34794 0.92477 0.0
H631 H 0.70826 0.36349 0.90714 0.0
C632 C 0.68696 0.28001 0.16395 0.0
C633 C 0.67779 0.26922 0.13254 0.0
C634 C 0.71096 0.30119 0.10317 0.0
C635 C 0.71992 0.31218 0.13455 0.0
N636 N 0.71628 0.31398 0.19463 0.0
N637 N 0.6824 0.26653 0.07259 0.0
C638 C 0.70784 0.30213 0.16493 0.0
C639 C 0.69023 0.27893 0.10222 0.0
N640 N 0.6768 0.26789 0.19278 0.0
N641 N 0.72121 0.31317 0.07431 0.0
H642 H 0.66605 0.25146 0.07065 0.0
H643 H 0.6928 0.26998 0.04997 0.0
H644 H 0.73639 0.3295 0.074 0.0
H645 H 0.71362 0.30841 0.05053 0.0
H646 H 0.68443 0.2725 0.21657 0.0
H647 H 0.66158 0.25161 0.19303 0.0
H648 H 0.70634 0.31021 0.21745 0.0
H649 H 0.73291 0.32875 0.19651 0.0
C650 C 0.69798 0.67554 0.16566 0.0
C651 C 0.72046 0.67619 0.14179 0.0
C652 C 0.70415 0.72318 0.12231 0.0
C653 C 0.67963 0.72085 0.14317 0.0
N654 N 0.65221 0.6942 0.18379 0.0
N655 N 0.74233 0.69859 0.09362 0.0
C656 C 0.67613 0.6967 0.16435 0.0
C657 C 0.72294 0.69951 0.11922 0.0
N658 N 0.6985 0.65586 0.19098 0.0
N659 N 0.70989 0.74801 0.10553 0.0
H660 H 0.7569 0.68204 0.09025 0.0
H661 H 0.74233 0.71303 0.07379 0.0
H662 H 0.69649 0.76573 0.10545 0.0
H663 H 0.72933 0.75201 0.09371 0.0
H664 H 0.68445 0.65618 0.21116 0.0
H665 H 0.71477 0.64082 0.19381 0.0
H666 H 0.64658 0.6754 0.19612 0.0
H667 H 0.63715 0.71047 0.18649 0.0
C668 C 0.29923 0.67676 0.11049 0.0
C669 C 0.27892 0.67563 0.13683 0.0
C670 C 0.3027 0.7154 0.16558 0.0
C671 C 0.32259 0.71698 0.13886 0.0
N672 N 0.33915 0.70169 0.08466 0.0
N673 N 0.26283 0.69043 0.1914 0.0
C674 C 0.32092 0.69809 0.11113 0.0
C675 C 0.28097 0.69413 0.16488 0.0
N676 N 0.29776 0.65726 0.08501 0.0
N677 N 0.30439 0.73472 0.19122 0.0
H678 H 0.2467 0.67505 0.19172 0.0
H679 H 0.2645 0.70124 0.21402 0.0
H680 H 0.32115 0.74929 0.19362 0.0
H681 H 0.28888 0.73726 0.20961 0.0
H682 H 0.31338 0.65473 0.06676 0.0
H683 H 0.2813 0.64234 0.08278 0.0
H684 H 0.33734 0.69101 0.06197 0.0
H685 H 0.35563 0.7167 0.08456 0.0
C686 C 0.28054 0.30225 0.10896 0.0
C687 C 0.27718 0.31966 0.13767 0.0
C688 C 0.31718 0.29495 0.16488 0.0
C689 C 0.31883 0.27592 0.13724 0.0
N690 N 0.29781 0.25774 0.0861 0.0
N691 N 0.28865 0.32957 0.19533 0.0
C692 C 0.29917 0.27836 0.11028 0.0
C693 C 0.29466 0.31539 0.16624 0.0
N694 N 0.26693 0.30931 0.07982 0.0
N695 N 0.33672 0.29314 0.19022 0.0
H696 H 0.27193 0.34418 0.19763 0.0
H697 H 0.29851 0.32507 0.21805 0.0
H698 H 0.35178 0.2768 0.19205 0.0
H699 H 0.33893 0.30868 0.20868 0.0
H700 H 0.27102 0.29923 0.05709 0.0
H701 H 0.25376 0.32719 0.07742 0.0
H702 H 0.28168 0.25694 0.06818 0.0
H703 H 0.31109 0.23991 0.08546 0.0
C704 C 0.98052 0.2645 0.38019 0.0
C705 C 0.96505 0.27884 0.35469 0.0
C706 C 0.00983 0.29391 0.32814 0.0
C707 C 0.02529 0.27857 0.35286 0.0
N708 N 0.02593 0.24601 0.39975 0.0
N709 N 0.96408 0.30296 0.30149 0.0
C710 C 0.01078 0.26263 0.37788 0.0
C711 C 0.97946 0.29241 0.32783 0.0
N712 N 0.96644 0.25425 0.40771 0.0
N713 N 0.02422 0.31014 0.30519 0.0
H714 H 0.94181 0.30203 0.30038 0.0
H715 H 0.97326 0.31053 0.2795 0.0
H716 H 0.04645 0.3103 0.30325 0.0
H717 H 0.01431 0.32459 0.28915 0.0
H718 H 0.97672 0.2467 0.42903 0.0
H719 H 0.94432 0.25536 0.41059 0.0
H720 H 0.0165 0.23119 0.41575 0.0
H721 H 0.04819 0.24552 0.40059 0.0
C722 C 0.70793 0.00727 0.32502 0.0
C723 C 0.72103 0.02271 0.35144 0.0
C724 C 0.73369 0.97793 0.37969 0.0
C725 C 0.7211 0.96254 0.35293 0.0
N726 N 0.70076 0.96139 0.29772 0.0
N727 N 0.74961 0.02356 0.4017 0.0
C728 C 0.70952 0.9769 0.32484 0.0
C729 C 0.73512 0.00826 0.37797 0.0
N730 N 0.69367 0.0217 0.30038 0.0
N731 N 0.74291 0.96358 0.40751 0.0
H732 H 0.74966 0.04583 0.40266 0.0
H733 H 0.76307 0.01436 0.41939 0.0
H734 H 0.7428 0.94134 0.4094 0.0
H735 H 0.74903 0.97355 0.42962 0.0
H736 H 0.68079 0.01184 0.2826 0.0
H737 H 0.69355 0.04396 0.29857 0.0
H738 H 0.69452 0.97043 0.2751 0.0
H739 H 0.70186 0.93912 0.29688 0.0
C740 C 0.01415 0.70684 0.38112 0.0
C741 C 0.02826 0.71645 0.35185 0.0
C742 C 0.982 0.72558 0.32509 0.0
C743 C 0.96813 0.71286 0.35296 0.0
N744 N 0.97121 0.68725 0.40549 0.0
N745 N 0.02632 0.73165 0.29428 0.0
C746 C 0.98426 0.70216 0.38032 0.0
C747 C 0.01241 0.72521 0.3234 0.0
N748 N 0.02911 0.7035 0.41027 0.0
N749 N 0.96617 0.73768 0.30009 0.0
H750 H 0.04852 0.73129 0.292 0.0
H751 H 0.01592 0.73513 0.27164 0.0
H752 H 0.94391 0.73671 0.29931 0.0
H753 H 0.97496 0.75016 0.28113 0.0
H754 H 0.01942 0.69957 0.43327 0.0
H755 H 0.05093 0.70768 0.41232 0.0
H756 H 0.98247 0.67606 0.42376 0.0
H757 H 0.94924 0.68402 0.4069 0.0
C758 C 0.26956 0.98451 0.3834 0.0
C759 C 0.28088 0.96928 0.35573 0.0
C760 C 0.29275 0.01429 0.32756 0.0
C761 C 0.27994 0.02946 0.35435 0.0
N762 N 0.25291 0.02972 0.40579 0.0
N763 N 0.29884 0.96883 0.29922 0.0
C764 C 0.26719 0.01476 0.38158 0.0
C765 C 0.29135 0.98393 0.32717 0.0
N766 N 0.26258 0.97022 0.41214 0.0
N767 N 0.30647 0.02894 0.30267 0.0
H768 H 0.29778 0.94658 0.29791 0.0
H769 H 0.30382 0.97829 0.27639 0.0
H770 H 0.30648 0.0512 0.30108 0.0
H771 H 0.31921 0.01918 0.28463 0.0
H772 H 0.25754 0.98036 0.43455 0.0
H773 H 0.26404 0.94807 0.41457 0.0
H774 H 0.24033 0.0201 0.42408 0.0
H775 H 0.252 0.05198 0.40645 0.0
C776 C 0.01543 0.7075 0.61277 0.0
C777 C 0.03087 0.71931 0.63994 0.0
C778 C 0.98577 0.73219 0.66737 0.0
C779 C 0.97056 0.71749 0.64185 0.0
N780 N 0.97165 0.68559 0.5941 0.0
N781 N 0.0311 0.73882 0.69578 0.0
C782 C 0.98559 0.70333 0.61581 0.0
C783 C 0.01618 0.7308 0.66793 0.0
N784 N 0.02902 0.70154 0.58328 0.0
N785 N 0.9712 0.74703 0.69139 0.0
H786 H 0.05331 0.73755 0.69744 0.0
H787 H 0.02142 0.74439 0.7183 0.0
H788 H 0.949 0.74664 0.69359 0.0
H789 H 0.98106 0.76096 0.7081 0.0
H790 H 0.0182 0.69574 0.56155 0.0
H791 H 0.05068 0.70557 0.5793 0.0
H792 H 0.98231 0.67244 0.57715 0.0
H793 H 0.94974 0.68183 0.59481 0.0
C794 C 0.27254 0.98107 0.66612 0.0
C795 C 0.29182 0.96655 0.64457 0.0
C796 C 0.30929 0.01233 0.62281 0.0
C797 C 0.29094 0.0269 0.64544 0.0
N798 N 0.25966 0.02563 0.69332 0.0
N799 N 0.33201 0.96812 0.6064 0.0
C800 C 0.27372 0.01141 0.66834 0.0
C801 C 0.3114 0.9821 0.62438 0.0
N802 N 0.25322 0.96587 0.68463 0.0
N803 N 0.32342 0.02711 0.59831 0.0
H804 H 0.33325 0.94599 0.6042 0.0
H805 H 0.34926 0.97849 0.59525 0.0
H806 H 0.32306 0.04927 0.59606 0.0
H807 H 0.33368 0.01732 0.57824 0.0
H808 H 0.2362 0.97523 0.69735 0.0
H809 H 0.25327 0.9436 0.68605 0.0
H810 H 0.2491 0.01545 0.71289 0.0
H811 H 0.26077 0.04775 0.69638 0.0
C812 C 0.01391 0.26902 0.61317 0.0
C813 C 0.02913 0.28125 0.64033 0.0
C814 C 0.98416 0.29313 0.66849 0.0
C815 C 0.96901 0.28269 0.64032 0.0
N816 N 0.96877 0.26487 0.58375 0.0
N817 N 0.02965 0.30763 0.69215 0.0
C818 C 0.98367 0.27158 0.61213 0.0
C819 C 0.01451 0.2942 0.66747 0.0
N820 N 0.02838 0.25506 0.58831 0.0
N821 N 0.96954 0.30089 0.6967 0.0
H822 H 0.05192 0.30739 0.69336 0.0
H823 H 0.02031 0.32045 0.7104 0.0
H824 H 0.9473 0.30032 0.69838 0.0
H825 H 0.97934 0.30575 0.71935 0.0
H826 H 0.01842 0.24276 0.57002 0.0
H827 H 0.05062 0.25426 0.58693 0.0
H828 H 0.97839 0.25976 0.56106 0.0
H829 H 0.9466 0.26667 0.58193 0.0
C830 C 0.72482 0.016 0.67167 0.0
C831 C 0.71137 0.03036 0.64463 0.0
C832 C 0.7013 0.98457 0.61759 0.0
C833 C 0.71246 0.97011 0.64589 0.0
N834 N 0.73035 0.97161 0.70241 0.0
N835 N 0.68173 0.02828 0.59508 0.0
C836 C 0.72316 0.98567 0.67363 0.0
C837 C 0.69788 0.01465 0.6187 0.0
N838 N 0.73897 0.03134 0.6956 0.0
N839 N 0.69551 0.9698 0.58883 0.0
H840 H 0.67916 0.05037 0.59406 0.0
H841 H 0.66883 0.01746 0.57805 0.0
H842 H 0.69878 0.94785 0.58632 0.0
H843 H 0.69037 0.9797 0.56629 0.0
H844 H 0.75212 0.02201 0.71356 0.0
H845 H 0.73884 0.05363 0.69649 0.0
H846 H 0.7354 0.98196 0.72467 0.0
H847 H 0.72886 0.94947 0.70501 0.0
C848 C 0.51205 0.77764 0.88534 0.0
C849 C 0.52752 0.77629 0.85489 0.0
C850 C 0.48294 0.76903 0.82381 0.0
C851 C 0.46742 0.77398 0.85373 0.0
N852 N 0.46649 0.78458 0.91285 0.0
N853 N 0.52844 0.77259 0.7948 0.0
C854 C 0.48178 0.77873 0.88448 0.0
C855 C 0.51322 0.77212 0.824 0.0
N856 N 0.52633 0.77667 0.91517 0.0
N857 N 0.4687 0.76157 0.79527 0.0
H858 H 0.55064 0.77453 0.79407 0.0
H859 H 0.51909 0.77294 0.77121 0.0
H860 H 0.44647 0.76031 0.79394 0.0
H861 H 0.47885 0.75475 0.77352 0.0
H862 H 0.51626 0.77454 0.93824 0.0
H863 H 0.54852 0.7752 0.91682 0.0
H864 H 0.47571 0.79205 0.93486 0.0
H865 H 0.44426 0.78352 0.91403 0.0
C866 C 0.218 0.48421 0.82479 0.0
C867 C 0.20503 0.46941 0.85186 0.0
C868 C 0.19621 0.51472 0.88048 0.0
C869 C 0.20643 0.5297 0.85208 0.0
N870 N 0.22283 0.52912 0.7949 0.0
N871 N 0.17617 0.47102 0.90216 0.0
C872 C 0.21637 0.5146 0.8236 0.0
C873 C 0.19226 0.48478 0.87858 0.0
N874 N 0.23154 0.46926 0.80005 0.0
N875 N 0.19177 0.52884 0.91 0.0
H876 H 0.17285 0.44903 0.90245 0.0
H877 H 0.16389 0.48181 0.91987 0.0
H878 H 0.19574 0.55061 0.91312 0.0
H879 H 0.1873 0.51841 0.93243 0.0
H880 H 0.24432 0.47887 0.78192 0.0
H881 H 0.23128 0.44699 0.79862 0.0
H882 H 0.22727 0.51912 0.77223 0.0
H883 H 0.2214 0.55131 0.79288 0.0
C884 C 0.48222 0.23593 0.87833 0.0
C885 C 0.46756 0.22131 0.8524 0.0
C886 C 0.51312 0.20887 0.82591 0.0
C887 C 0.52775 0.22099 0.85355 0.0
N888 N 0.5267 0.24259 0.90836 0.0
N889 N 0.46826 0.19187 0.80291 0.0
C890 C 0.51247 0.23388 0.88025 0.0
C891 C 0.48279 0.20715 0.8266 0.0
N892 N 0.46724 0.25159 0.9013 0.0
N893 N 0.5282 0.20009 0.79846 0.0
H894 H 0.446 0.19157 0.80135 0.0
H895 H 0.47813 0.1782 0.78592 0.0
H896 H 0.55041 0.20145 0.79687 0.0
H897 H 0.51871 0.19378 0.77611 0.0
H898 H 0.47682 0.2655 0.91825 0.0
H899 H 0.44498 0.25229 0.90212 0.0
H900 H 0.51652 0.24888 0.9303 0.0
H901 H 0.54884 0.24134 0.91096 0.0
C902 C 0.76461 0.48776 0.87727 0.0
C903 C 0.77953 0.47266 0.85189 0.0
C904 C 0.79252 0.51779 0.82459 0.0
C905 C 0.77969 0.53281 0.85145 0.0
N906 N 0.756 0.53306 0.90502 0.0
N907 N 0.80893 0.47232 0.80238 0.0
C908 C 0.76613 0.51808 0.8781 0.0
C909 C 0.79386 0.48741 0.82578 0.0
N910 N 0.74912 0.47308 0.9007 0.0
N911 N 0.80266 0.53265 0.79762 0.0
H912 H 0.8089 0.45004 0.80133 0.0
H913 H 0.82256 0.48165 0.78495 0.0
H914 H 0.80185 0.55491 0.7961 0.0
H915 H 0.80991 0.5231 0.7757 0.0
H916 H 0.73496 0.48275 0.91728 0.0
H917 H 0.749 0.45084 0.90249 0.0
H918 H 0.7491 0.52359 0.92713 0.0
H919 H 0.75617 0.55533 0.90631 0.0
C920 C 0.48355 0.19924 0.17128 0.0
C921 C 0.46871 0.21332 0.14512 0.0
C922 C 0.51411 0.22707 0.11899 0.0
C923 C 0.5289 0.21102 0.14367 0.0
N924 N 0.52849 0.18031 0.19211 0.0
N925 N 0.46902 0.23757 0.09184 0.0
C926 C 0.51383 0.19662 0.16948 0.0
C927 C 0.48375 0.22671 0.11855 0.0
N928 N 0.46867 0.18928 0.19834 0.0
N929 N 0.52906 0.24241 0.09566 0.0
H930 H 0.44679 0.23799 0.09053 0.0
H931 H 0.47865 0.24429 0.06974 0.0
H932 H 0.5512 0.24139 0.09305 0.0
H933 H 0.51975 0.25751 0.07995 0.0
H934 H 0.47825 0.18132 0.21989 0.0
H935 H 0.4465 0.19097 0.20041 0.0
H936 H 0.51873 0.16654 0.20906 0.0
H937 H 0.55076 0.1794 0.19297 0.0
C938 C 0.75533 0.50956 0.12513 0.0
C939 C 0.76976 0.52429 0.15114 0.0
C940 C 0.78455 0.47884 0.17627 0.0
C941 C 0.77006 0.46409 0.15033 0.0
N942 N 0.73789 0.46451 0.10311 0.0
N943 N 0.79337 0.52394 0.20457 0.0
C944 C 0.754 0.47919 0.12592 0.0
C945 C 0.78297 0.50917 0.17768 0.0
N946 N 0.74457 0.5245 0.09852 0.0
N947 N 0.80015 0.46379 0.19924 0.0
H948 H 0.79236 0.54616 0.20625 0.0
H949 H 0.80087 0.51432 0.22632 0.0
H950 H 0.80009 0.4415 0.20048 0.0
H951 H 0.81412 0.47318 0.21624 0.0
H952 H 0.73708 0.51496 0.07672 0.0
H953 H 0.7448 0.54675 0.09708 0.0
H954 H 0.72307 0.47417 0.08734 0.0
H955 H 0.73784 0.44229 0.10121 0.0
C956 C 0.48415 0.79484 0.16958 0.0
C957 C 0.46954 0.78078 0.14325 0.0
C958 C 0.51504 0.76459 0.11952 0.0
C959 C 0.5297 0.78083 0.14408 0.0
N960 N 0.52905 0.81324 0.19099 0.0
N961 N 0.47044 0.75574 0.09051 0.0
C962 C 0.51448 0.79655 0.16867 0.0
C963 C 0.48478 0.76634 0.11764 0.0
N964 N 0.46903 0.80556 0.19605 0.0
N965 N 0.53005 0.74767 0.09783 0.0
H966 H 0.44828 0.75679 0.08796 0.0
H967 H 0.48052 0.74798 0.06916 0.0
H968 H 0.55231 0.7471 0.09693 0.0
H969 H 0.52051 0.73271 0.08212 0.0
H970 H 0.47845 0.81351 0.2177 0.0
H971 H 0.44681 0.80435 0.19764 0.0
H972 H 0.51922 0.82788 0.20686 0.0
H973 H 0.55131 0.81366 0.19248 0.0
C974 C 0.20571 0.48442 0.17159 0.0
C975 C 0.22139 0.46875 0.14739 0.0
C976 C 0.23595 0.51323 0.11979 0.0
C977 C 0.22087 0.52892 0.14452 0.0
N978 N 0.19612 0.53043 0.19732 0.0
N979 N 0.25506 0.46761 0.10162 0.0
C980 C 0.20709 0.51478 0.17143 0.0
C981 C 0.23789 0.48299 0.12268 0.0
N982 N 0.18917 0.47024 0.19443 0.0
N983 N 0.24678 0.52702 0.09238 0.0
H984 H 0.2558 0.44534 0.1014 0.0
H985 H 0.27014 0.47689 0.08583 0.0
H986 H 0.24567 0.54911 0.08912 0.0
H987 H 0.25493 0.51652 0.07151 0.0
H988 H 0.17446 0.48029 0.21001 0.0
H989 H 0.18909 0.44802 0.19672 0.0
H990 H 0.18836 0.52148 0.21935 0.0
H991 H 0.19695 0.5527 0.19803 0.0
C992 C 0.14694 0.30089 0.4802 0.0
C993 C 0.12029 0.30301 0.4634 0.0
C994 C 0.09494 0.30503 0.51692 0.0
C995 C 0.12149 0.30226 0.53372 0.0
N996 N 0.17292 0.30383 0.5327 0.0
N997 N 0.07007 0.31419 0.46474 0.0
C998 C 0.1476 0.30252 0.51574 0.0
C999 C 0.09462 0.30733 0.48152 0.0
N1000 N 0.1713 0.29541 0.46239 0.0
N1001 N 0.07003 0.30469 0.53484 0.0
H1002 H 0.06933 0.31646 0.43879 0.0
H1003 H 0.05112 0.32013 0.47648 0.0
H1004 H 0.06953 0.30505 0.56092 0.0
H1005 H 0.04988 0.30282 0.52405 0.0
H1006 H 0.1908 0.2902 0.47332 0.0
H1007 H 0.17174 0.29427 0.43637 0.0
H1008 H 0.19263 0.30689 0.52116 0.0
H1009 H 0.17407 0.30415 0.55874 0.0
C1010 C 0.68827 0.14183 0.51291 0.0
C1011 C 0.69723 0.11752 0.5314 0.0
C1012 C 0.69984 0.08949 0.47971 0.0
C1013 C 0.69547 0.1148 0.46097 0.0
N1014 N 0.68746 0.16574 0.45905 0.0
N1015 N 0.71331 0.0684 0.53262 0.0
C1016 C 0.68966 0.14112 0.47732 0.0
C1017 C 0.70336 0.09133 0.51487 0.0
N1018 N 0.67901 0.16574 0.52931 0.0
N1019 N 0.70006 0.06359 0.4638 0.0
H1020 H 0.71523 0.06836 0.55856 0.0
H1021 H 0.72144 0.04998 0.52151 0.0
H1022 H 0.69695 0.06152 0.43807 0.0
H1023 H 0.70041 0.04406 0.47631 0.0
H1024 H 0.66938 0.183 0.51732 0.0
H1025 H 0.67896 0.16751 0.55529 0.0
H1026 H 0.68678 0.18605 0.46967 0.0
H1027 H 0.68832 0.16614 0.43302 0.0
C1028 C 0.9037 0.70655 0.48306 0.0
C1029 C 0.88039 0.69348 0.46619 0.0
C1030 C 0.85697 0.68368 0.52 0.0
C1031 C 0.88026 0.69689 0.53672 0.0
N1032 N 0.92853 0.71504 0.53515 0.0
N1033 N 0.83742 0.66498 0.46816 0.0
C1034 C 0.90446 0.7065 0.51849 0.0
C1035 C 0.85801 0.68024 0.48457 0.0
N1036 N 0.92489 0.71977 0.4652 0.0
N1037 N 0.83304 0.67627 0.53764 0.0
H1038 H 0.83644 0.66338 0.44221 0.0
H1039 H 0.82242 0.65219 0.48024 0.0
H1040 H 0.83138 0.67856 0.56349 0.0
H1041 H 0.814 0.66974 0.5266 0.0
H1042 H 0.94004 0.7333 0.47582 0.0
H1043 H 0.92666 0.71852 0.4393 0.0
H1044 H 0.94812 0.7187 0.52358 0.0
H1045 H 0.92976 0.71625 0.56109 0.0
C1046 C 0.3107 0.90477 0.51354 0.0
C1047 C 0.31379 0.87848 0.53093 0.0
C1048 C 0.3173 0.85255 0.4778 0.0
C1049 C 0.31283 0.87869 0.46062 0.0
N1050 N 0.31333 0.93008 0.46057 0.0
N1051 N 0.32651 0.82851 0.5306 0.0
C1052 C 0.3122 0.90498 0.47809 0.0
C1053 C 0.31957 0.85276 0.51333 0.0
N1054 N 0.30539 0.92938 0.53094 0.0
N1055 N 0.31751 0.82742 0.46032 0.0
H1056 H 0.3273 0.82768 0.55662 0.0
H1057 H 0.33358 0.80977 0.51927 0.0
H1058 H 0.31661 0.82662 0.43429 0.0
H1059 H 0.31715 0.80731 0.47146 0.0
H1060 H 0.29938 0.94857 0.51981 0.0
H1061 H 0.30576 0.93033 0.55698 0.0
H1062 H 0.31531 0.95011 0.47164 0.0
H1063 H 0.31491 0.93067 0.43454 0.0
C1064 C 0.11641 0.67725 0.47639 0.0
C1065 C 0.12841 0.70064 0.4587 0.0
C1066 C 0.13965 0.72492 0.5111 0.0
C1067 C 0.12812 0.70137 0.52909 0.0
N1068 N 0.1103 0.65294 0.52957 0.0
N1069 N 0.15874 0.74223 0.45858 0.0
C1070 C 0.11835 0.67665 0.51194 0.0
C1071 C 0.14237 0.72304 0.47592 0.0
N1072 N 0.1016 0.65664 0.45946 0.0
N1073 N 0.14719 0.74949 0.52739 0.0
H1074 H 0.16169 0.74101 0.43275 0.0
H1075 H 0.17174 0.75742 0.47002 0.0
H1076 H 0.14635 0.75179 0.55326 0.0
H1077 H 0.15236 0.76843 0.51509 0.0
H1078 H 0.08942 0.6409 0.47113 0.0
H1079 H 0.09989 0.6563 0.43347 0.0
H1080 H 0.10586 0.63331 0.51847 0.0
H1081 H 0.10997 0.65223 0.55562 0.0
C1082 C 0.30757 0.14442 0.48162 0.0
C1083 C 0.30265 0.11894 0.4633 0.0
C1084 C 0.29847 0.09151 0.51509 0.0
C1085 C 0.30337 0.11694 0.53366 0.0
N1086 N 0.31798 0.16647 0.53516 0.0
N1087 N 0.30155 0.0675 0.4615 0.0
C1088 C 0.31004 0.14298 0.51707 0.0
C1089 C 0.30069 0.09223 0.47976 0.0
N1090 N 0.30793 0.17017 0.4654 0.0
N1091 N 0.29086 0.06682 0.53111 0.0
H1092 H 0.30378 0.06736 0.43553 0.0
H1093 H 0.30295 0.04722 0.47211 0.0
H1094 H 0.29013 0.06491 0.55703 0.0
H1095 H 0.28349 0.04867 0.51874 0.0
H1096 H 0.30786 0.18982 0.4776 0.0
H1097 H 0.30643 0.17205 0.43949 0.0
H1098 H 0.3261 0.18504 0.5244 0.0
H1099 H 0.31841 0.16686 0.5612 0.0
C1100 C 0.88863 0.32408 0.48356 0.0
C1101 C 0.87041 0.30439 0.46697 0.0
C1102 C 0.8494 0.29046 0.52066 0.0
C1103 C 0.87092 0.30613 0.53739 0.0
N1104 N 0.91165 0.3376 0.53569 0.0
N1105 N 0.83437 0.26751 0.46955 0.0
C1106 C 0.8904 0.3234 0.51917 0.0
C1107 C 0.85084 0.2874 0.48547 0.0
N1108 N 0.90463 0.34289 0.4653 0.0
N1109 N 0.8274 0.27877 0.53856 0.0
H1110 H 0.83426 0.2651 0.4437 0.0
H1111 H 0.82232 0.2521 0.482 0.0
H1112 H 0.82556 0.28118 0.56442 0.0
H1113 H 0.80956 0.26933 0.52759 0.0
H1114 H 0.91628 0.35955 0.47586 0.0
H1115 H 0.90456 0.34319 0.43923 0.0
H1116 H 0.9286 0.34778 0.52374 0.0
H1117 H 0.91328 0.33787 0.56169 0.0
C1118 C 0.67616 0.88184 0.52106 0.0
C1119 C 0.69888 0.86893 0.53899 0.0
C1120 C 0.72057 0.8526 0.48665 0.0
C1121 C 0.69999 0.86871 0.46856 0.0
N1122 N 0.6594 0.90056 0.46798 0.0
N1123 N 0.74275 0.84193 0.54001 0.0
C1124 C 0.67775 0.88345 0.48554 0.0
C1125 C 0.72098 0.85408 0.52208 0.0
N1126 N 0.65333 0.89287 0.53806 0.0
N1127 N 0.7393 0.83531 0.46989 0.0
H1128 H 0.74258 0.84049 0.56604 0.0
H1129 H 0.76156 0.8343 0.52935 0.0
H1130 H 0.74003 0.83408 0.44393 0.0
H1131 H 0.75266 0.82054 0.48148 0.0
H1132 H 0.63471 0.89999 0.52651 0.0
H1133 H 0.65203 0.89286 0.5641 0.0
H1134 H 0.64485 0.91444 0.47912 0.0
H1135 H 0.66002 0.90259 0.44204 0.0
C1136 C 0.61469 0.82638 0.01962 0.0
C1137 C 0.62885 0.80386 0.03674 0.0
C1138 C 0.64047 0.78073 0.98363 0.0
C1139 C 0.62652 0.80324 0.96629 0.0
N1140 N 0.6056 0.85037 0.96677 0.0
N1141 N 0.66253 0.76494 0.03504 0.0
C1142 C 0.61564 0.82722 0.98397 0.0
C1143 C 0.64414 0.7828 0.01864 0.0
N1144 N 0.5987 0.84572 0.03713 0.0
N1145 N 0.64933 0.75679 0.96694 0.0
H1146 H 0.66586 0.76615 0.06074 0.0
H1147 H 0.67657 0.75111 0.0229 0.0
H1148 H 0.64777 0.7544 0.94114 0.0
H1149 H 0.65634 0.73831 0.97895 0.0
H1150 H 0.58511 0.8605 0.0259 0.0
H1151 H 0.59751 0.84588 0.06314 0.0
H1152 H 0.60008 0.86962 0.97816 0.0
H1153 H 0.6048 0.85114 0.94073 0.0
C1154 C 0.16689 0.61838 0.98018 0.0
C1155 C 0.19002 0.63035 0.96197 0.0
C1156 C 0.21259 0.64569 0.01422 0.0
C1157 C 0.19221 0.6295 0.03227 0.0
N1158 N 0.14996 0.6001 0.03353 0.0
N1159 N 0.23547 0.65488 0.96108 0.0
C1160 C 0.16897 0.61621 0.01565 0.0
C1161 C 0.2129 0.64414 0.97884 0.0
N1162 N 0.14336 0.60857 0.96352 0.0
N1163 N 0.23134 0.6629 0.03107 0.0
H1164 H 0.23605 0.65524 0.93505 0.0
H1165 H 0.25439 0.6619 0.97202 0.0
H1166 H 0.23127 0.66481 0.05707 0.0
H1167 H 0.245 0.67735 0.01937 0.0
H1168 H 0.12466 0.60204 0.97538 0.0
H1169 H 0.14167 0.60898 0.93753 0.0
H1170 H 0.1345 0.58709 0.02267 0.0
H1171 H 0.15063 0.59846 0.05952 0.0
C1172 C 0.36194 0.22267 0.01637 0.0
C1173 C 0.3732 0.19843 0.03325 0.0
C1174 C 0.38416 0.17571 0.9794 0.0
C1175 C 0.37252 0.19987 0.9627 0.0
N1176 N 0.34382 0.2427 0.96496 0.0
N1177 N 0.39018 0.14977 0.03159 0.0
C1178 C 0.35939 0.22219 0.98115 0.0
C1179 C 0.38245 0.1741 0.01497 0.0
N1180 N 0.35441 0.24668 0.03386 0.0
N1181 N 0.39856 0.15535 0.96156 0.0
H1182 H 0.39057 0.14832 0.05759 0.0
H1183 H 0.39423 0.13038 0.0197 0.0
H1184 H 0.40049 0.15589 0.93561 0.0
H1185 H 0.41039 0.139 0.97251 0.0
H1186 H 0.35004 0.26628 0.02261 0.0
H1187 H 0.35416 0.24778 0.05984 0.0
H1188 H 0.33069 0.25736 0.97715 0.0
H1189 H 0.34189 0.24353 0.93908 0.0
C1190 C 0.79611 0.40652 0.01841 0.0
C1191 C 0.79954 0.3799 0.03499 0.0
C1192 C 0.80329 0.35513 0.98113 0.0
C1193 C 0.79942 0.38171 0.9646 0.0
N1194 N 0.7987 0.43317 0.96635 0.0
N1195 N 0.812 0.32987 0.03319 0.0
C1196 C 0.79784 0.40759 0.98295 0.0
C1197 C 0.80525 0.35456 0.01665 0.0
N1198 N 0.79067 0.43068 0.03663 0.0
N1199 N 0.80315 0.3303 0.96306 0.0
H1200 H 0.81228 0.32826 0.05918 0.0
H1201 H 0.8194 0.3115 0.02133 0.0
H1202 H 0.80195 0.32981 0.93704 0.0
H1203 H 0.80235 0.31003 0.97376 0.0
H1204 H 0.78422 0.45 0.02615 0.0
H1205 H 0.7915 0.43118 0.0627 0.0
H1206 H 0.80024 0.45292 0.97817 0.0
H1207 H 0.80036 0.4346 0.94038 0.0
C1208 C 0.59172 0.1859 0.01236 0.0
C1209 C 0.61818 0.18669 0.02962 0.0
C1210 C 0.64402 0.18468 0.97629 0.0
C1211 C 0.61776 0.18866 0.95928 0.0
N1212 N 0.56641 0.19215 0.95988 0.0
N1213 N 0.66973 0.18788 0.02884 0.0
C1214 C 0.59149 0.18869 0.97698 0.0
C1215 C 0.64445 0.18574 0.01186 0.0
N1216 N 0.56693 0.18203 0.02994 0.0
N1217 N 0.66854 0.18038 0.95838 0.0
H1218 H 0.67096 0.18852 0.05486 0.0
H1219 H 0.68943 0.19086 0.01727 0.0
H1220 H 0.66895 0.18021 0.93231 0.0
H1221 H 0.68795 0.17462 0.96915 0.0
H1222 H 0.54707 0.17883 0.01887 0.0
H1223 H 0.56656 0.17954 0.05588 0.0
H1224 H 0.54682 0.19611 0.97132 0.0
H1225 H 0.56537 0.19212 0.93382 0.0
C1226 C 0.77457 0.63516 0.01961 0.0
C1227 C 0.79781 0.62249 0.03702 0.0
C1228 C 0.8224 0.61346 0.98381 0.0
C1229 C 0.79929 0.62657 0.96663 0.0
N1230 N 0.75783 0.65713 0.96853 0.0
N1231 N 0.84617 0.60468 0.03686 0.0
C1232 C 0.77679 0.63971 0.98472 0.0
C1233 C 0.82265 0.61358 0.01949 0.0
N1234 N 0.74993 0.64213 0.03615 0.0
N1235 N 0.84303 0.59924 0.96622 0.0
H1236 H 0.84661 0.60326 0.06287 0.0
H1237 H 0.8659 0.60074 0.02571 0.0
H1238 H 0.84358 0.59861 0.94018 0.0
H1239 H 0.85853 0.58641 0.97732 0.0
H1240 H 0.7311 0.64792 0.02402 0.0
H1241 H 0.74746 0.64031 0.06193 0.0
H1242 H 0.74286 0.66983 0.98083 0.0
H1243 H 0.75897 0.66117 0.94295 0.0
C1244 C 0.35725 0.77506 0.98117 0.0
C1245 C 0.37368 0.79471 0.96204 0.0
C1246 C 0.39073 0.81745 0.01366 0.0
C1247 C 0.3737 0.79814 0.0324 0.0
N1248 N 0.33456 0.76479 0.03423 0.0
N1249 N 0.40246 0.83752 0.95934 0.0
C1250 C 0.35496 0.77894 0.01615 0.0
C1251 C 0.38899 0.8171 0.97806 0.0
N1252 N 0.34457 0.75203 0.96624 0.0
N1253 N 0.40983 0.83477 0.02974 0.0
H1254 H 0.40319 0.837 0.9333 0.0
H1255 H 0.41135 0.85599 0.96946 0.0
H1256 H 0.41143 0.83577 0.05571 0.0
H1257 H 0.4253 0.84686 0.01748 0.0
H1258 H 0.33531 0.73528 0.97957 0.0
H1259 H 0.34524 0.74829 0.94063 0.0
H1260 H 0.31842 0.75258 0.02337 0.0
H1261 H 0.33188 0.76773 0.0599 0.0
C1262 C 0.19656 0.4046 0.98343 0.0
C1263 C 0.19312 0.37877 0.9652 0.0
C1264 C 0.19112 0.35162 0.01768 0.0
C1265 C 0.19384 0.37761 0.03572 0.0
N1266 N 0.19107 0.42905 0.03643 0.0
N1267 N 0.18201 0.32839 0.96445 0.0
C1268 C 0.19399 0.40418 0.01874 0.0
C1269 C 0.18839 0.35253 0.9822 0.0
N1270 N 0.20322 0.42944 0.96716 0.0
N1271 N 0.19313 0.32606 0.03412 0.0
H1272 H 0.18131 0.32787 0.93841 0.0
H1273 H 0.17538 0.30936 0.97553 0.0
H1274 H 0.19519 0.32447 0.06 0.0
H1275 H 0.19484 0.30642 0.02203 0.0
H1276 H 0.20938 0.44809 0.97942 0.0
H1277 H 0.2047 0.43094 0.94126 0.0
H1278 H 0.18824 0.44896 0.02526 0.0
H1279 H 0.18848 0.42945 0.06235 0.0
C1280 C 0.17132 0.36752 0.25231 0.0
C1281 C 0.16409 0.35632 0.22044 0.0
C1282 C 0.128 0.326 0.24697 0.0
C1283 C 0.13944 0.33279 0.27884 0.0
N1284 N 0.17574 0.35731 0.3112 0.0
N1285 N 0.1381 0.32102 0.18812 0.0
C1286 C 0.16193 0.35307 0.28151 0.0
C1287 C 0.14288 0.33471 0.21778 0.0
N1288 N 0.18671 0.39226 0.25476 0.0
N1289 N 0.10265 0.31163 0.24452 0.0
H1290 H 0.14937 0.32542 0.16627 0.0
H1291 H 0.12494 0.30313 0.18608 0.0
H1292 H 0.09056 0.30589 0.26539 0.0
H1293 H 0.09215 0.30842 0.22185 0.0
H1294 H 0.19032 0.40264 0.27743 0.0
H1295 H 0.19298 0.4041 0.23391 0.0
H1296 H 0.19419 0.36967 0.31324 0.0
H1297 H 0.17077 0.34633 0.33308 0.0
C1298 C 0.67446 0.17157 0.22632 0.0
C1299 C 0.64801 0.16086 0.21445 0.0
C1300 C 0.64704 0.12549 0.2597 0.0
C1301 C 0.67207 0.13808 0.27327 0.0
N1302 N 0.70681 0.1763 0.27312 0.0
N1303 N 0.60712 0.1301 0.22124 0.0
C1304 C 0.68508 0.16196 0.25753 0.0
C1305 C 0.63373 0.1384 0.23144 0.0
N1306 N 0.68986 0.19036 0.20725 0.0
N1307 N 0.63658 0.10073 0.27313 0.0
H1308 H 0.59703 0.13879 0.2003 0.0
H1309 H 0.59421 0.1161 0.23473 0.0
H1310 H 0.64577 0.09079 0.29387 0.0
H1311 H 0.62021 0.08884 0.2623 0.0
H1312 H 0.71069 0.19656 0.21288 0.0
H1313 H 0.68293 0.19774 0.18401 0.0
H1314 H 0.71497 0.1957 0.26462 0.0
H1315 H 0.71498 0.17036 0.29635 0.0
C1316 C 0.8187 0.62422 0.25533 0.0
C1317 C 0.82958 0.6321 0.22347 0.0
C1318 C 0.86778 0.65865 0.2514 0.0
C1319 C 0.85304 0.65612 0.28226 0.0
N1320 N 0.81102 0.63964 0.31211 0.0
N1321 N 0.86269 0.66133 0.19154 0.0
C1322 C 0.82771 0.63949 0.28405 0.0
C1323 C 0.85389 0.65027 0.22145 0.0
N1324 N 0.80004 0.6019 0.25829 0.0
N1325 N 0.89521 0.66868 0.25066 0.0
H1326 H 0.85244 0.65747 0.16892 0.0
H1327 H 0.87852 0.67695 0.18974 0.0
H1328 H 0.90656 0.6738 0.2723 0.0
H1329 H 0.90766 0.66861 0.22904 0.0
H1330 H 0.79346 0.59384 0.28135 0.0
H1331 H 0.7939 0.58936 0.23799 0.0
H1332 H 0.79091 0.63008 0.31295 0.0
H1333 H 0.81558 0.65171 0.33331 0.0
C1334 C 0.32061 0.82766 0.22132 0.0
C1335 C 0.35059 0.82889 0.21634 0.0
C1336 C 0.35683 0.85269 0.27047 0.0
C1337 C 0.32669 0.85256 0.27483 0.0
N1338 N 0.27936 0.84335 0.25284 0.0
N1339 N 0.39702 0.84596 0.23273 0.0
C1340 C 0.30842 0.84127 0.24966 0.0
C1341 C 0.36869 0.84229 0.24003 0.0
N1342 N 0.30393 0.81203 0.19996 0.0
N1343 N 0.37407 0.8628 0.29543 0.0
H1344 H 0.40621 0.83884 0.21046 0.0
H1345 H 0.41103 0.85795 0.24727 0.0
H1346 H 0.36619 0.87263 0.31694 0.0
H1347 H 0.39617 0.86033 0.29569 0.0
H1348 H 0.28264 0.80696 0.20463 0.0
H1349 H 0.31182 0.8021 0.17853 0.0
H1350 H 0.26517 0.83917 0.23341 0.0
H1351 H 0.26914 0.85081 0.27426 0.0
C1352 C 0.13592 0.66238 0.77612 0.0
C1353 C 0.15588 0.63947 0.77562 0.0
C1354 C 0.15716 0.64128 0.71448 0.0
C1355 C 0.13643 0.66348 0.71495 0.0
N1356 N 0.09861 0.68687 0.74562 0.0
N1357 N 0.17668 0.60066 0.74415 0.0
C1358 C 0.12331 0.67127 0.74561 0.0
C1359 C 0.16354 0.62674 0.74469 0.0
N1360 N 0.13036 0.67717 0.80486 0.0
N1361 N 0.17232 0.63524 0.68614 0.0
H1362 H 0.18049 0.58883 0.76584 0.0
H1363 H 0.1806 0.58943 0.7221 0.0
H1364 H 0.16971 0.64609 0.66364 0.0
H1365 H 0.18965 0.62123 0.68595 0.0
H1366 H 0.11823 0.69587 0.80519 0.0
H1367 H 0.13991 0.67272 0.82774 0.0
H1368 H 0.08698 0.69106 0.76731 0.0
H1369 H 0.08802 0.69258 0.72364 0.0
C1370 C 0.32364 0.17885 0.72426 0.0
C1371 C 0.3306 0.15027 0.71598 0.0
C1372 C 0.363 0.14739 0.76398 0.0
C1373 C 0.35381 0.17496 0.77414 0.0
N1374 N 0.32139 0.21489 0.76749 0.0
N1375 N 0.35425 0.10587 0.72901 0.0
C1376 C 0.3332 0.19028 0.75512 0.0
C1377 C 0.34953 0.13407 0.73616 0.0
N1378 N 0.30784 0.1951 0.70262 0.0
N1379 N 0.38532 0.13447 0.78007 0.0
H1380 H 0.34564 0.09579 0.70803 0.0
H1381 H 0.36518 0.09203 0.74489 0.0
H1382 H 0.39592 0.14381 0.80024 0.0
H1383 H 0.39493 0.11569 0.77176 0.0
H1384 H 0.30488 0.21703 0.70547 0.0
H1385 H 0.29958 0.18718 0.68025 0.0
H1386 H 0.30405 0.22521 0.75652 0.0
H1387 H 0.32694 0.22368 0.79051 0.0
C1388 C 0.85288 0.35763 0.72782 0.0
C1389 C 0.85284 0.32741 0.72419 0.0
C1390 C 0.82793 0.32221 0.77785 0.0
C1391 C 0.82899 0.3523 0.78208 0.0
N1392 N 0.84633 0.39841 0.76472 0.0
N1393 N 0.84419 0.28047 0.74767 0.0
C1394 C 0.84249 0.36998 0.75801 0.0
C1395 C 0.84175 0.30956 0.74991 0.0
N1396 N 0.86289 0.37449 0.70244 0.0
N1397 N 0.81221 0.30582 0.79946 0.0
H1398 H 0.85194 0.26985 0.72667 0.0
H1399 H 0.84013 0.26668 0.76756 0.0
H1400 H 0.80203 0.31402 0.82055 0.0
H1401 H 0.80727 0.28442 0.79522 0.0
H1402 H 0.8603 0.39658 0.70166 0.0
H1403 H 0.87276 0.36628 0.68112 0.0
H1404 H 0.85839 0.41213 0.74987 0.0
H1405 H 0.83938 0.40792 0.78687 0.0
C1406 C 0.66718 0.8722 0.75382 0.0
C1407 C 0.66113 0.85919 0.72257 0.0
C1408 C 0.6249 0.82965 0.74991 0.0
C1409 C 0.63584 0.83773 0.78159 0.0
N1410 N 0.67076 0.86486 0.81331 0.0
N1411 N 0.63609 0.82225 0.6917 0.0
C1412 C 0.65763 0.85883 0.78363 0.0
C1413 C 0.64018 0.83727 0.72061 0.0
N1414 N 0.68168 0.89754 0.75504 0.0
N1415 N 0.59978 0.81485 0.74781 0.0
H1416 H 0.64768 0.82582 0.66988 0.0
H1417 H 0.62311 0.80417 0.69041 0.0
H1418 H 0.58748 0.80997 0.76883 0.0
H1419 H 0.58966 0.8105 0.72517 0.0
H1420 H 0.68447 0.90908 0.77709 0.0
H1421 H 0.68786 0.90863 0.73357 0.0
H1422 H 0.68883 0.87782 0.81495 0.0
H1423 H 0.66562 0.85499 0.83583 0.0
C1424 C 0.84571 0.69262 0.75113 0.0
C1425 C 0.85454 0.67472 0.72426 0.0
C1426 C 0.84366 0.63204 0.75782 0.0
C1427 C 0.83266 0.64994 0.78336 0.0
N1428 N 0.82053 0.69696 0.80377 0.0
N1429 N 0.86168 0.6276 0.70109 0.0
C1430 C 0.83334 0.68015 0.7801 0.0
C1431 C 0.85337 0.64445 0.72731 0.0
N1432 N 0.84885 0.72168 0.74899 0.0
N1433 N 0.84575 0.60325 0.76343 0.0
H1434 H 0.87128 0.63568 0.67955 0.0
H1435 H 0.85815 0.60566 0.69992 0.0
H1436 H 0.83926 0.59373 0.78578 0.0
H1437 H 0.85583 0.58898 0.74735 0.0
H1438 H 0.84712 0.73535 0.76943 0.0
H1439 H 0.8545 0.73242 0.72719 0.0
H1440 H 0.81636 0.71866 0.80061 0.0
H1441 H 0.81229 0.68905 0.8261 0.0
C1442 C 0.33306 0.80517 0.75467 0.0
C1443 C 0.35505 0.81938 0.77267 0.0
C1444 C 0.35377 0.85913 0.73274 0.0
C1445 C 0.3333 0.84389 0.71365 0.0
N1446 N 0.30709 0.80056 0.70259 0.0
N1447 N 0.38967 0.85744 0.77649 0.0
C1448 C 0.32411 0.8163 0.72342 0.0
C1449 C 0.36634 0.84576 0.76111 0.0
N1450 N 0.31957 0.78195 0.76826 0.0
N1451 N 0.36063 0.88659 0.72418 0.0
H1452 H 0.39952 0.84809 0.79718 0.0
H1453 H 0.4007 0.87507 0.76723 0.0
H1454 H 0.35246 0.89666 0.70294 0.0
H1455 H 0.37289 0.90002 0.73918 0.0
H1456 H 0.30133 0.7727 0.75801 0.0
H1457 H 0.32479 0.77344 0.79154 0.0
H1458 H 0.30231 0.77908 0.7066 0.0
H1459 H 0.29973 0.80819 0.67964 0.0
C1460 C 0.16275 0.30646 0.74244 0.0
C1461 C 0.14489 0.32267 0.7209 0.0
C1462 C 0.15 0.36444 0.75742 0.0
C1463 C 0.16586 0.34747 0.7802 0.0
N1464 N 0.18371 0.30137 0.79747 0.0
N1465 N 0.11754 0.36541 0.71013 0.0
C1466 C 0.17095 0.31812 0.77374 0.0
C1467 C 0.13745 0.35128 0.72892 0.0
N1468 N 0.17331 0.28063 0.73214 0.0
N1469 N 0.14723 0.39318 0.76285 0.0
H1470 H 0.10766 0.35631 0.68932 0.0
H1471 H 0.10902 0.3852 0.71669 0.0
H1472 H 0.155 0.40328 0.78426 0.0
H1473 H 0.13883 0.40728 0.74527 0.0
H1474 H 0.1888 0.26921 0.74523 0.0
H1475 H 0.16886 0.27182 0.70877 0.0
H1476 H 0.18504 0.27919 0.79569 0.0
H1477 H 0.19094 0.30929 0.8203 0.0
C1478 C 0.67072 0.18269 0.71957 0.0
C1479 C 0.66863 0.15286 0.71375 0.0
C1480 C 0.64359 0.14639 0.76715 0.0
C1481 C 0.64471 0.17641 0.7724 0.0
N1482 N 0.65559 0.22383 0.75171 0.0
N1483 N 0.64913 0.10686 0.72829 0.0
C1484 C 0.65693 0.19478 0.7479 0.0
C1485 C 0.65401 0.13482 0.73657 0.0
N1486 N 0.68737 0.19927 0.69914 0.0
N1487 N 0.63254 0.12896 0.79139 0.0
H1488 H 0.65613 0.09783 0.70587 0.0
H1489 H 0.63618 0.09315 0.74208 0.0
H1490 H 0.6226 0.1367 0.81291 0.0
H1491 H 0.63437 0.10679 0.79109 0.0
H1492 H 0.693 0.2203 0.70456 0.0
H1493 H 0.69758 0.19147 0.67786 0.0
H1494 H 0.66058 0.23823 0.73274 0.0
H1495 H 0.64786 0.23387 0.77311 0.0
C1496 C 0.81913 0.31899 0.2288 0.0
C1497 C 0.82656 0.34709 0.21888 0.0
C1498 C 0.85968 0.35097 0.26616 0.0
C1499 C 0.85006 0.32399 0.27791 0.0
N1500 N 0.8169 0.28447 0.2737 0.0
N1501 N 0.85136 0.39134 0.22914 0.0
C1502 C 0.82889 0.30847 0.26003 0.0
C1503 C 0.8462 0.36353 0.2378 0.0
N1504 N 0.80303 0.30218 0.20809 0.0
N1505 N 0.88235 0.36406 0.28136 0.0
H1506 H 0.84248 0.40084 0.20794 0.0
H1507 H 0.86289 0.4055 0.244 0.0
H1508 H 0.89283 0.35534 0.30201 0.0
H1509 H 0.89226 0.3823 0.27199 0.0
H1510 H 0.79961 0.28046 0.21218 0.0
H1511 H 0.79515 0.30927 0.18515 0.0
H1512 H 0.79918 0.27415 0.2636 0.0
H1513 H 0.82278 0.27626 0.29691 0.0
C1514 C 0.63691 0.85597 0.2326 0.0
C1515 C 0.64057 0.8264 0.2258 0.0
C1516 C 0.66251 0.81958 0.2808 0.0
C1517 C 0.66231 0.84956 0.28567 0.0
N1518 N 0.65133 0.89693 0.2659 0.0
N1519 N 0.66241 0.78117 0.24056 0.0
C1520 C 0.65006 0.86799 0.26145 0.0
C1521 C 0.65463 0.80839 0.24923 0.0
N1522 N 0.62004 0.87227 0.21222 0.0
N1523 N 0.67047 0.80172 0.30621 0.0
H1524 H 0.65864 0.77232 0.21708 0.0
H1525 H 0.67547 0.76832 0.25537 0.0
H1526 H 0.67692 0.80903 0.32962 0.0
H1527 H 0.66803 0.77959 0.30514 0.0
H1528 H 0.61432 0.89329 0.21761 0.0
H1529 H 0.60963 0.86401 0.19128 0.0
H1530 H 0.64587 0.91164 0.24741 0.0
H1531 H 0.6593 0.90627 0.28768 0.0
C1532 C 0.1663 0.64794 0.27747 0.0
C1533 C 0.14232 0.66643 0.27502 0.0
C1534 C 0.14302 0.66169 0.21411 0.0
C1535 C 0.16573 0.64162 0.21676 0.0
N1536 N 0.19228 0.60903 0.25187 0.0
N1537 N 0.10257 0.68334 0.24199 0.0
C1538 C 0.17519 0.63258 0.24877 0.0
C1539 C 0.12894 0.67084 0.24363 0.0
N1540 N 0.18189 0.64633 0.30631 0.0
N1541 N 0.13602 0.6736 0.18401 0.0
H1542 H 0.09106 0.68927 0.26325 0.0
H1543 H 0.09086 0.68473 0.21989 0.0
H1544 H 0.14659 0.66896 0.16176 0.0
H1545 H 0.12158 0.69047 0.18174 0.0
H1546 H 0.20123 0.63533 0.30785 0.0
H1547 H 0.17739 0.65829 0.32762 0.0
H1548 H 0.19763 0.60015 0.27495 0.0
H1549 H 0.1983 0.5965 0.2315 0.0
C1550 C 0.32201 0.1759 0.27085 0.0
C1551 C 0.32836 0.14735 0.27993 0.0
C1552 C 0.361 0.14308 0.23225 0.0
C1553 C 0.3523 0.17061 0.22129 0.0
N1554 N 0.31976 0.21063 0.22626 0.0
N1555 N 0.35124 0.10232 0.26815 0.0
C1556 C 0.33158 0.18641 0.23959 0.0
C1557 C 0.34707 0.13045 0.26026 0.0
N1558 N 0.30701 0.1931 0.29222 0.0
N1559 N 0.38332 0.12958 0.21683 0.0
H1560 H 0.34228 0.0928 0.2893 0.0
H1561 H 0.36205 0.08802 0.25271 0.0
H1562 H 0.39429 0.1384 0.1966 0.0
H1563 H 0.39255 0.11081 0.22576 0.0
H1564 H 0.30443 0.215 0.28849 0.0
H1565 H 0.29929 0.18609 0.31527 0.0
H1566 H 0.30242 0.22122 0.2369 0.0
H1567 H 0.32512 0.21857 0.20274 0.0
loop_
_geom_bond_atom_site_label_1
_geom_bond_atom_site_label_2
_geom_bond_distance
_geom_bond_site_symmetry_2
_ccdc_geom_bond_type
In0 O1 2.294 . S
In0 O2 2.326 . S
In0 O6 2.266 . S
In0 O7 2.326 . S
In0 O8 2.266 . S
In0 O9 2.326 . S
In0 O11 2.294 . S
In0 O12 2.326 . S
O1 In0 2.294 . S
O1 C10 1.240 . S
O2 In0 2.326 . S
O2 C10 1.252 . S
C3 O6 1.252 . S
C3 O7 1.260 . S
C4 O11 1.240 . S
C4 O12 1.252 . S
C5 O8 1.252 . S
C5 O9 1.260 . S
O6 In0 2.266 . S
O6 C3 1.252 . S
O7 In0 2.326 . S
O7 C3 1.260 . S
O8 In0 2.266 . S
O8 C5 1.252 . S
O9 In0 2.326 . S
O9 C5 1.260 . S
C10 O1 1.240 . S
C10 O2 1.252 . S
O11 In0 2.294 . S
O11 C4 1.240 . S
O12 In0 2.326 . S
O12 C4 1.252 . S
In13 O14 2.294 . S
In13 O15 2.326 . S
In13 O19 2.266 . S
In13 O20 2.326 . S
In13 O21 2.266 . S
In13 O22 2.326 . S
In13 O24 2.294 . S
In13 O25 2.326 . S
O14 In13 2.294 . S
O14 C23 1.240 . S
O15 In13 2.326 . S
O15 C23 1.252 . S
C16 O19 1.252 . S
C16 O20 1.260 . S
C17 O24 1.240 . S
C17 O25 1.252 . S
C18 O21 1.252 . S
C18 O22 1.260 . S
O19 In13 2.266 . S
O19 C16 1.252 . S
O20 In13 2.326 . S
O20 C16 1.260 . S
O21 In13 2.266 . S
O21 C18 1.252 . S
O22 In13 2.326 . S
O22 C18 1.260 . S
C23 O14 1.240 . S
C23 O15 1.252 . S
O24 In13 2.294 . S
O24 C17 1.240 . S
O25 In13 2.326 . S
O25 C17 1.252 . S
In26 O27 2.294 . S
In26 O28 2.326 . S
In26 O32 2.266 . S
In26 O33 2.326 . S
In26 O34 2.266 . S
In26 O35 2.326 . S
In26 O37 2.294 . S
In26 O38 2.326 . S
O27 In26 2.294 . S
O27 C36 1.240 . S
O28 In26 2.326 . S
O28 C36 1.252 . S
C29 O32 1.252 . S
C29 O33 1.260 . S
C30 O37 1.240 . S
C30 O38 1.252 . S
C31 O34 1.252 . S
C31 O35 1.260 . S
O32 In26 2.266 . S
O32 C29 1.252 . S
O33 In26 2.326 . S
O33 C29 1.260 . S
O34 In26 2.266 . S
O34 C31 1.252 . S
O35 In26 2.326 . S
O35 C31 1.260 . S
C36 O27 1.240 . S
C36 O28 1.252 . S
O37 In26 2.294 . S
O37 C30 1.240 . S
O38 In26 2.326 . S
O38 C30 1.252 . S
In39 O40 2.294 . S
In39 O41 2.326 . S
In39 O45 2.266 . S
In39 O46 2.326 . S
In39 O47 2.266 . S
In39 O48 2.326 . S
In39 O50 2.294 . S
In39 O51 2.326 . S
O40 In39 2.294 . S
O40 C49 1.240 . S
O41 In39 2.326 . S
O41 C49 1.252 . S
C42 O45 1.252 . S
C42 O46 1.260 . S
C43 O50 1.240 . S
C43 O51 1.252 . S
C44 O47 1.252 . S
C44 O48 1.260 . S
O45 In39 2.266 . S
O45 C42 1.252 . S
O46 In39 2.326 . S
O46 C42 1.260 . S
O47 In39 2.266 . S
O47 C44 1.252 . S
O48 In39 2.326 . S
O48 C44 1.260 . S
C49 O40 1.240 . S
C49 O41 1.252 . S
O50 In39 2.294 . S
O50 C43 1.240 . S
O51 In39 2.326 . S
O51 C43 1.252 . S
In52 O53 2.294 . S
In52 O54 2.326 . S
In52 O58 2.266 . S
In52 O59 2.326 . S
In52 O60 2.266 . S
In52 O61 2.326 . S
In52 O63 2.294 . S
In52 O64 2.326 . S
O53 In52 2.294 . S
O53 C62 1.240 . S
O54 In52 2.326 . S
O54 C62 1.252 . S
C55 O58 1.252 . S
C55 O59 1.260 . S
C56 O63 1.240 . S
C56 O64 1.252 . S
C57 O60 1.252 . S
C57 O61 1.260 . S
O58 In52 2.266 . S
O58 C55 1.252 . S
O59 In52 2.326 . S
O59 C55 1.260 . S
O60 In52 2.266 . S
O60 C57 1.252 . S
O61 In52 2.326 . S
O61 C57 1.260 . S
C62 O53 1.240 . S
C62 O54 1.252 . S
O63 In52 2.294 . S
O63 C56 1.240 . S
O64 In52 2.326 . S
O64 C56 1.252 . S
In65 O66 2.294 . S
In65 O67 2.326 . S
In65 O71 2.266 . S
In65 O72 2.326 . S
In65 O73 2.266 . S
In65 O74 2.326 . S
In65 O76 2.294 . S
In65 O77 2.326 . S
O66 In65 2.294 . S
O66 C75 1.240 . S
O67 In65 2.326 . S
O67 C75 1.252 . S
C68 O71 1.252 . S
C68 O72 1.260 . S
C69 O76 1.240 . S
C69 O77 1.252 . S
C70 O73 1.252 . S
C70 O74 1.260 . S
O71 In65 2.266 . S
O71 C68 1.252 . S
O72 In65 2.326 . S
O72 C68 1.260 . S
O73 In65 2.266 . S
O73 C70 1.252 . S
O74 In65 2.326 . S
O74 C70 1.260 . S
C75 O66 1.240 . S
C75 O67 1.252 . S
O76 In65 2.294 . S
O76 C69 1.240 . S
O77 In65 2.326 . S
O77 C69 1.252 . S
In78 O79 2.294 . S
In78 O80 2.326 . S
In78 O84 2.266 . S
In78 O85 2.326 . S
In78 O86 2.266 . S
In78 O87 2.326 . S
In78 O89 2.294 . S
In78 O90 2.326 . S
O79 In78 2.294 . S
O79 C88 1.240 . S
O80 In78 2.326 . S
O80 C88 1.252 . S
C81 O84 1.252 . S
C81 O85 1.260 . S
C82 O89 1.240 . S
C82 O90 1.252 . S
C83 O86 1.252 . S
C83 O87 1.260 . S
O84 In78 2.266 . S
O84 C81 1.252 . S
O85 In78 2.326 . S
O85 C81 1.260 . S
O86 In78 2.266 . S
O86 C83 1.252 . S
O87 In78 2.326 . S
O87 C83 1.260 . S
C88 O79 1.240 . S
C88 O80 1.252 . S
O89 In78 2.294 . S
O89 C82 1.240 . S
O90 In78 2.326 . S
O90 C82 1.252 . S
In91 O92 2.294 . S
In91 O93 2.326 . S
In91 O97 2.266 . S
In91 O98 2.326 . S
In91 O99 2.266 . S
In91 O100 2.326 . S
In91 O102 2.294 . S
In91 O103 2.326 . S
O92 In91 2.294 . S
O92 C101 1.240 . S
O93 In91 2.326 . S
O93 C101 1.252 . S
C94 O97 1.252 . S
C94 O98 1.260 . S
C95 O102 1.240 . S
C95 O103 1.252 . S
C96 O99 1.252 . S
C96 O100 1.260 . S
O97 In91 2.266 . S
O97 C94 1.252 . S
O98 In91 2.326 . S
O98 C94 1.260 . S
O99 In91 2.266 . S
O99 C96 1.252 . S
O100 In91 2.326 . S
O100 C96 1.260 . S
C101 O92 1.240 . S
C101 O93 1.252 . S
O102 In91 2.294 . S
O102 C95 1.240 . S
O103 In91 2.326 . S
O103 C95 1.252 . S
In104 O105 2.294 . S
In104 O106 2.326 . S
In104 O110 2.266 . S
In104 O111 2.326 . S
In104 O112 2.266 . S
In104 O113 2.326 . S
In104 O115 2.294 . S
In104 O116 2.326 . S
O105 In104 2.294 . S
O105 C114 1.240 . S
O106 In104 2.326 . S
O106 C114 1.252 . S
C107 O110 1.252 . S
C107 O111 1.260 . S
C108 O115 1.240 . S
C108 O116 1.252 . S
C109 O112 1.252 . S
C109 O113 1.260 . S
O110 In104 2.266 . S
O110 C107 1.252 . S
O111 In104 2.326 . S
O111 C107 1.260 . S
O112 In104 2.266 . S
O112 C109 1.252 . S
O113 In104 2.326 . S
O113 C109 1.260 . S
C114 O105 1.240 . S
C114 O106 1.252 . S
O115 In104 2.294 . S
O115 C108 1.240 . S
O116 In104 2.326 . S
O116 C108 1.252 . S
In117 O118 2.294 . S
In117 O119 2.326 . S
In117 O123 2.266 . S
In117 O124 2.326 . S
In117 O125 2.266 . S
In117 O126 2.326 . S
In117 O128 2.294 . S
In117 O129 2.326 . S
O118 In117 2.294 . S
O118 C127 1.240 . S
O119 In117 2.326 . S
O119 C127 1.252 . S
C120 O123 1.252 . S
C120 O124 1.260 . S
C121 O128 1.240 . S
C121 O129 1.252 . S
C122 O125 1.252 . S
C122 O126 1.260 . S
O123 In117 2.266 . S
O123 C120 1.252 . S
O124 In117 2.326 . S
O124 C120 1.260 . S
O125 In117 2.266 . S
O125 C122 1.252 . S
O126 In117 2.326 . S
O126 C122 1.260 . S
C127 O118 1.240 . S
C127 O119 1.252 . S
O128 In117 2.294 . S
O128 C121 1.240 . S
O129 In117 2.326 . S
O129 C121 1.252 . S
In130 O131 2.294 . S
In130 O132 2.326 . S
In130 O136 2.266 . S
In130 O137 2.326 . S
In130 O138 2.266 . S
In130 O139 2.326 . S
In130 O141 2.294 . S
In130 O142 2.326 . S
O131 In130 2.294 . S
O131 C140 1.240 . S
O132 In130 2.326 . S
O132 C140 1.252 . S
C133 O136 1.252 . S
C133 O137 1.260 . S
C134 O141 1.240 . S
C134 O142 1.252 . S
C135 O138 1.252 . S
C135 O139 1.260 . S
O136 In130 2.266 . S
O136 C133 1.252 . S
O137 In130 2.326 . S
O137 C133 1.260 . S
O138 In130 2.266 . S
O138 C135 1.252 . S
O139 In130 2.326 . S
O139 C135 1.260 . S
C140 O131 1.240 . S
C140 O132 1.252 . S
O141 In130 2.294 . S
O141 C134 1.240 . S
O142 In130 2.326 . S
O142 C134 1.252 . S
In143 O144 2.294 . S
In143 O145 2.326 . S
In143 O149 2.266 . S
In143 O150 2.326 . S
In143 O151 2.266 . S
In143 O152 2.326 . S
In143 O154 2.294 . S
In143 O155 2.326 . S
O144 In143 2.294 . S
O144 C153 1.240 . S
O145 In143 2.326 . S
O145 C153 1.252 . S
C146 O149 1.252 . S
C146 O150 1.260 . S
C147 O154 1.240 . S
C147 O155 1.252 . S
C148 O151 1.252 . S
C148 O152 1.260 . S
O149 In143 2.266 . S
O149 C146 1.252 . S
O150 In143 2.326 . S
O150 C146 1.260 . S
O151 In143 2.266 . S
O151 C148 1.252 . S
O152 In143 2.326 . S
O152 C148 1.260 . S
C153 O144 1.240 . S
C153 O145 1.252 . S
O154 In143 2.294 . S
O154 C147 1.240 . S
O155 In143 2.326 . S
O155 C147 1.252 . S
In156 O157 2.294 . S
In156 O158 2.326 . S
In156 O162 2.266 . S
In156 O163 2.326 . S
In156 O164 2.266 . S
In156 O165 2.326 . S
In156 O167 2.294 . S
In156 O168 2.326 . S
O157 In156 2.294 . S
O157 C166 1.240 . S
O158 In156 2.326 . S
O158 C166 1.252 . S
C159 O162 1.252 . S
C159 O163 1.260 . S
C160 O167 1.240 . S
C160 O168 1.252 . S
C161 O164 1.252 . S
C161 O165 1.260 . S
O162 In156 2.266 . S
O162 C159 1.252 . S
O163 In156 2.326 . S
O163 C159 1.260 . S
O164 In156 2.266 . S
O164 C161 1.252 . S
O165 In156 2.326 . S
O165 C161 1.260 . S
C166 O157 1.240 . S
C166 O158 1.252 . S
O167 In156 2.294 . S
O167 C160 1.240 . S
O168 In156 2.326 . S
O168 C160 1.252 . S
In169 O170 2.294 . S
In169 O171 2.326 . S
In169 O175 2.266 . S
In169 O176 2.326 . S
In169 O177 2.266 . S
In169 O178 2.326 . S
In169 O180 2.294 . S
In169 O181 2.326 . S
O170 In169 2.294 . S
O170 C179 1.240 . S
O171 In169 2.326 . S
O171 C179 1.252 . S
C172 O175 1.252 . S
C172 O176 1.260 . S
C173 O180 1.240 . S
C173 O181 1.252 . S
C174 O177 1.252 . S
C174 O178 1.260 . S
O175 In169 2.266 . S
O175 C172 1.252 . S
O176 In169 2.326 . S
O176 C172 1.260 . S
O177 In169 2.266 . S
O177 C174 1.252 . S
O178 In169 2.326 . S
O178 C174 1.260 . S
C179 O170 1.240 . S
C179 O171 1.252 . S
O180 In169 2.294 . S
O180 C173 1.240 . S
O181 In169 2.326 . S
O181 C173 1.252 . S
In182 O183 2.294 . S
In182 O184 2.326 . S
In182 O188 2.266 . S
In182 O189 2.326 . S
In182 O190 2.266 . S
In182 O191 2.326 . S
In182 O193 2.294 . S
In182 O194 2.326 . S
O183 In182 2.294 . S
O183 C192 1.240 . S
O184 In182 2.326 . S
O184 C192 1.252 . S
C185 O188 1.252 . S
C185 O189 1.260 . S
C186 O193 1.240 . S
C186 O194 1.252 . S
C187 O190 1.252 . S
C187 O191 1.260 . S
O188 In182 2.266 . S
O188 C185 1.252 . S
O189 In182 2.326 . S
O189 C185 1.260 . S
O190 In182 2.266 . S
O190 C187 1.252 . S
O191 In182 2.326 . S
O191 C187 1.260 . S
C192 O183 1.240 . S
C192 O184 1.252 . S
O193 In182 2.294 . S
O193 C186 1.240 . S
O194 In182 2.326 . S
O194 C186 1.252 . S
In195 O196 2.294 . S
In195 O197 2.326 . S
In195 O201 2.266 . S
In195 O202 2.326 . S
In195 O203 2.266 . S
In195 O204 2.326 . S
In195 O206 2.294 . S
In195 O207 2.326 . S
O196 In195 2.294 . S
O196 C205 1.240 . S
O197 In195 2.326 . S
O197 C205 1.252 . S
C198 O201 1.252 . S
C198 O202 1.260 . S
C199 O206 1.240 . S
C199 O207 1.252 . S
C200 O203 1.252 . S
C200 O204 1.260 . S
O201 In195 2.266 . S
O201 C198 1.252 . S
O202 In195 2.326 . S
O202 C198 1.260 . S
O203 In195 2.266 . S
O203 C200 1.252 . S
O204 In195 2.326 . S
O204 C200 1.260 . S
C205 O196 1.240 . S
C205 O197 1.252 . S
O206 In195 2.294 . S
O206 C199 1.240 . S
O207 In195 2.326 . S
O207 C199 1.252 . S
In208 O209 2.294 . S
In208 O210 2.326 . S
In208 O214 2.266 . S
In208 O215 2.326 . S
In208 O216 2.266 . S
In208 O217 2.326 . S
In208 O219 2.294 . S
In208 O220 2.326 . S
O209 In208 2.294 . S
O209 C218 1.240 . S
O210 In208 2.326 . S
O210 C218 1.252 . S
C211 O214 1.252 . S
C211 O215 1.260 . S
C212 O219 1.240 . S
C212 O220 1.252 . S
C213 O216 1.252 . S
C213 O217 1.260 . S
O214 In208 2.266 . S
O214 C211 1.252 . S
O215 In208 2.326 . S
O215 C211 1.260 . S
O216 In208 2.266 . S
O216 C213 1.252 . S
O217 In208 2.326 . S
O217 C213 1.260 . S
C218 O209 1.240 . S
C218 O210 1.252 . S
O219 In208 2.294 . S
O219 C212 1.240 . S
O220 In208 2.326 . S
O220 C212 1.252 . S
In221 O222 2.294 . S
In221 O223 2.326 . S
In221 O227 2.266 . S
In221 O228 2.326 . S
In221 O229 2.266 . S
In221 O230 2.326 . S
In221 O232 2.294 . S
In221 O233 2.326 . S
O222 In221 2.294 . S
O222 C231 1.240 . S
O223 In221 2.326 . S
O223 C231 1.252 . S
C224 O227 1.252 . S
C224 O228 1.260 . S
C225 O232 1.240 . S
C225 O233 1.252 . S
C226 O229 1.252 . S
C226 O230 1.260 . S
O227 In221 2.266 . S
O227 C224 1.252 . S
O228 In221 2.326 . S
O228 C224 1.260 . S
O229 In221 2.266 . S
O229 C226 1.252 . S
O230 In221 2.326 . S
O230 C226 1.260 . S
C231 O222 1.240 . S
C231 O223 1.252 . S
O232 In221 2.294 . S
O232 C225 1.240 . S
O233 In221 2.326 . S
O233 C225 1.252 . S
In234 O235 2.294 . S
In234 O236 2.326 . S
In234 O240 2.266 . S
In234 O241 2.326 . S
In234 O242 2.266 . S
In234 O243 2.326 . S
In234 O245 2.294 . S
In234 O246 2.326 . S
O235 In234 2.294 . S
O235 C244 1.240 . S
O236 In234 2.326 . S
O236 C244 1.252 . S
C237 O240 1.252 . S
C237 O241 1.260 . S
C238 O245 1.240 . S
C238 O246 1.252 . S
C239 O242 1.252 . S
C239 O243 1.260 . S
O240 In234 2.266 . S
O240 C237 1.252 . S
O241 In234 2.326 . S
O241 C237 1.260 . S
O242 In234 2.266 . S
O242 C239 1.252 . S
O243 In234 2.326 . S
O243 C239 1.260 . S
C244 O235 1.240 . S
C244 O236 1.252 . S
O245 In234 2.294 . S
O245 C238 1.240 . S
O246 In234 2.326 . S
O246 C238 1.252 . S
In247 O248 2.294 . S
In247 O249 2.326 . S
In247 O253 2.266 . S
In247 O254 2.326 . S
In247 O255 2.266 . S
In247 O256 2.326 . S
In247 O258 2.294 . S
In247 O259 2.326 . S
O248 In247 2.294 . S
O248 C257 1.240 . S
O249 In247 2.326 . S
O249 C257 1.252 . S
C250 O253 1.252 . S
C250 O254 1.260 . S
C251 O258 1.240 . S
C251 O259 1.252 . S
C252 O255 1.252 . S
C252 O256 1.260 . S
O253 In247 2.266 . S
O253 C250 1.252 . S
O254 In247 2.326 . S
O254 C250 1.260 . S
O255 In247 2.266 . S
O255 C252 1.252 . S
O256 In247 2.326 . S
O256 C252 1.260 . S
C257 O248 1.240 . S
C257 O249 1.252 . S
O258 In247 2.294 . S
O258 C251 1.240 . S
O259 In247 2.326 . S
O259 C251 1.252 . S
In260 O261 2.294 . S
In260 O262 2.326 . S
In260 O266 2.266 . S
In260 O267 2.326 . S
In260 O268 2.266 . S
In260 O269 2.326 . S
In260 O271 2.294 . S
In260 O272 2.326 . S
O261 In260 2.294 . S
O261 C270 1.240 . S
O262 In260 2.326 . S
O262 C270 1.252 . S
C263 O266 1.252 . S
C263 O267 1.260 . S
C264 O271 1.240 . S
C264 O272 1.252 . S
C265 O268 1.252 . S
C265 O269 1.260 . S
O266 In260 2.266 . S
O266 C263 1.252 . S
O267 In260 2.326 . S
O267 C263 1.260 . S
O268 In260 2.266 . S
O268 C265 1.252 . S
O269 In260 2.326 . S
O269 C265 1.260 . S
C270 O261 1.240 . S
C270 O262 1.252 . S
O271 In260 2.294 . S
O271 C264 1.240 . S
O272 In260 2.326 . S
O272 C264 1.252 . S
In273 O274 2.294 . S
In273 O275 2.326 . S
In273 O279 2.266 . S
In273 O280 2.326 . S
In273 O281 2.266 . S
In273 O282 2.326 . S
In273 O284 2.294 . S
In273 O285 2.326 . S
O274 In273 2.294 . S
O274 C283 1.240 . S
O275 In273 2.326 . S
O275 C283 1.252 . S
C276 O279 1.252 . S
C276 O280 1.260 . S
C277 O284 1.240 . S
C277 O285 1.252 . S
C278 O281 1.252 . S
C278 O282 1.260 . S
O279 In273 2.266 . S
O279 C276 1.252 . S
O280 In273 2.326 . S
O280 C276 1.260 . S
O281 In273 2.266 . S
O281 C278 1.252 . S
O282 In273 2.326 . S
O282 C278 1.260 . S
C283 O274 1.240 . S
C283 O275 1.252 . S
O284 In273 2.294 . S
O284 C277 1.240 . S
O285 In273 2.326 . S
O285 C277 1.252 . S
In286 O287 2.294 . S
In286 O288 2.326 . S
In286 O292 2.266 . S
In286 O293 2.326 . S
In286 O294 2.266 . S
In286 O295 2.326 . S
In286 O297 2.294 . S
In286 O298 2.326 . S
O287 In286 2.294 . S
O287 C296 1.240 . S
O288 In286 2.326 . S
O288 C296 1.252 . S
C289 O292 1.252 . S
C289 O293 1.260 . S
C290 O297 1.240 . S
C290 O298 1.252 . S
C291 O294 1.252 . S
C291 O295 1.260 . S
O292 In286 2.266 . S
O292 C289 1.252 . S
O293 In286 2.326 . S
O293 C289 1.260 . S
O294 In286 2.266 . S
O294 C291 1.252 . S
O295 In286 2.326 . S
O295 C291 1.260 . S
C296 O287 1.240 . S
C296 O288 1.252 . S
O297 In286 2.294 . S
O297 C290 1.240 . S
O298 In286 2.326 . S
O298 C290 1.252 . S
In299 O300 2.294 . S
In299 O301 2.326 . S
In299 O305 2.266 . S
In299 O306 2.326 . S
In299 O307 2.266 . S
In299 O308 2.326 . S
In299 O310 2.294 . S
In299 O311 2.326 . S
O300 In299 2.294 . S
O300 C309 1.240 . S
O301 In299 2.326 . S
O301 C309 1.252 . S
C302 O305 1.252 . S
C302 O306 1.260 . S
C303 O310 1.240 . S
C303 O311 1.252 . S
C304 O307 1.252 . S
C304 O308 1.260 . S
O305 In299 2.266 . S
O305 C302 1.252 . S
O306 In299 2.326 . S
O306 C302 1.260 . S
O307 In299 2.266 . S
O307 C304 1.252 . S
O308 In299 2.326 . S
O308 C304 1.260 . S
C309 O300 1.240 . S
C309 O301 1.252 . S
O310 In299 2.294 . S
O310 C303 1.240 . S
O311 In299 2.326 . S
O311 C303 1.252 . S
In312 O313 2.294 . S
In312 O314 2.326 . S
In312 O318 2.266 . S
In312 O319 2.326 . S
In312 O320 2.266 . S
In312 O321 2.326 . S
In312 O323 2.294 . S
In312 O324 2.326 . S
O313 In312 2.294 . S
O313 C322 1.240 . S
O314 In312 2.326 . S
O314 C322 1.252 . S
C315 O318 1.252 . S
C315 O319 1.260 . S
C316 O323 1.240 . S
C316 O324 1.252 . S
C317 O320 1.252 . S
C317 O321 1.260 . S
O318 In312 2.266 . S
O318 C315 1.252 . S
O319 In312 2.326 . S
O319 C315 1.260 . S
O320 In312 2.266 . S
O320 C317 1.252 . S
O321 In312 2.326 . S
O321 C317 1.260 . S
C322 O313 1.240 . S
C322 O314 1.252 . S
O323 In312 2.294 . S
O323 C316 1.240 . S
O324 In312 2.326 . S
O324 C316 1.252 . S
In325 O326 2.294 . S
In325 O327 2.326 . S
In325 O331 2.266 . S
In325 O332 2.326 . S
In325 O333 2.266 . S
In325 O334 2.326 . S
In325 O336 2.294 . S
In325 O337 2.326 . S
O326 In325 2.294 . S
O326 C335 1.240 . S
O327 In325 2.326 . S
O327 C335 1.252 . S
C328 O331 1.252 . S
C328 O332 1.260 . S
C329 O336 1.240 . S
C329 O337 1.252 . S
C330 O333 1.252 . S
C330 O334 1.260 . S
O331 In325 2.266 . S
O331 C328 1.252 . S
O332 In325 2.326 . S
O332 C328 1.260 . S
O333 In325 2.266 . S
O333 C330 1.252 . S
O334 In325 2.326 . S
O334 C330 1.260 . S
C335 O326 1.240 . S
C335 O327 1.252 . S
O336 In325 2.294 . S
O336 C329 1.240 . S
O337 In325 2.326 . S
O337 C329 1.252 . S
In338 O339 2.294 . S
In338 O340 2.326 . S
In338 O344 2.266 . S
In338 O345 2.326 . S
In338 O346 2.266 . S
In338 O347 2.326 . S
In338 O349 2.294 . S
In338 O350 2.326 . S
O339 In338 2.294 . S
O339 C348 1.240 . S
O340 In338 2.326 . S
O340 C348 1.252 . S
C341 O344 1.252 . S
C341 O345 1.260 . S
C342 O349 1.240 . S
C342 O350 1.252 . S
C343 O346 1.252 . S
C343 O347 1.260 . S
O344 In338 2.266 . S
O344 C341 1.252 . S
O345 In338 2.326 . S
O345 C341 1.260 . S
O346 In338 2.266 . S
O346 C343 1.252 . S
O347 In338 2.326 . S
O347 C343 1.260 . S
C348 O339 1.240 . S
C348 O340 1.252 . S
O349 In338 2.294 . S
O349 C342 1.240 . S
O350 In338 2.326 . S
O350 C342 1.252 . S
In351 O352 2.294 . S
In351 O353 2.326 . S
In351 O357 2.266 . S
In351 O358 2.326 . S
In351 O359 2.266 . S
In351 O360 2.326 . S
In351 O362 2.294 . S
In351 O363 2.326 . S
O352 In351 2.294 . S
O352 C361 1.240 . S
O353 In351 2.326 . S
O353 C361 1.252 . S
C354 O357 1.252 . S
C354 O358 1.260 . S
C355 O362 1.240 . S
C355 O363 1.252 . S
C356 O359 1.252 . S
C356 O360 1.260 . S
O357 In351 2.266 . S
O357 C354 1.252 . S
O358 In351 2.326 . S
O358 C354 1.260 . S
O359 In351 2.266 . S
O359 C356 1.252 . S
O360 In351 2.326 . S
O360 C356 1.260 . S
C361 O352 1.240 . S
C361 O353 1.252 . S
O362 In351 2.294 . S
O362 C355 1.240 . S
O363 In351 2.326 . S
O363 C355 1.252 . S
In364 O365 2.294 . S
In364 O366 2.326 . S
In364 O370 2.266 . S
In364 O371 2.326 . S
In364 O372 2.266 . S
In364 O373 2.326 . S
In364 O375 2.294 . S
In364 O376 2.326 . S
O365 In364 2.294 . S
O365 C374 1.240 . S
O366 In364 2.326 . S
O366 C374 1.252 . S
C367 O370 1.252 . S
C367 O371 1.260 . S
C368 O375 1.240 . S
C368 O376 1.252 . S
C369 O372 1.252 . S
C369 O373 1.260 . S
O370 In364 2.266 . S
O370 C367 1.252 . S
O371 In364 2.326 . S
O371 C367 1.260 . S
O372 In364 2.266 . S
O372 C369 1.252 . S
O373 In364 2.326 . S
O373 C369 1.260 . S
C374 O365 1.240 . S
C374 O366 1.252 . S
O375 In364 2.294 . S
O375 C368 1.240 . S
O376 In364 2.326 . S
O376 C368 1.252 . S
In377 O378 2.294 . S
In377 O379 2.326 . S
In377 O383 2.266 . S
In377 O384 2.326 . S
In377 O385 2.266 . S
In377 O386 2.326 . S
In377 O388 2.294 . S
In377 O389 2.326 . S
O378 In377 2.294 . S
O378 C387 1.240 . S
O379 In377 2.326 . S
O379 C387 1.252 . S
C380 O383 1.252 . S
C380 O384 1.260 . S
C381 O388 1.240 . S
C381 O389 1.252 . S
C382 O385 1.252 . S
C382 O386 1.260 . S
O383 In377 2.266 . S
O383 C380 1.252 . S
O384 In377 2.326 . S
O384 C380 1.260 . S
O385 In377 2.266 . S
O385 C382 1.252 . S
O386 In377 2.326 . S
O386 C382 1.260 . S
C387 O378 1.240 . S
C387 O379 1.252 . S
O388 In377 2.294 . S
O388 C381 1.240 . S
O389 In377 2.326 . S
O389 C381 1.252 . S
In390 O391 2.294 . S
In390 O392 2.326 . S
In390 O396 2.266 . S
In390 O397 2.326 . S
In390 O398 2.266 . S
In390 O399 2.326 . S
In390 O401 2.294 . S
In390 O402 2.326 . S
O391 In390 2.294 . S
O391 C400 1.240 . S
O392 In390 2.326 . S
O392 C400 1.252 . S
C393 O396 1.252 . S
C393 O397 1.260 . S
C394 O401 1.240 . S
C394 O402 1.252 . S
C395 O398 1.252 . S
C395 O399 1.260 . S
O396 In390 2.266 . S
O396 C393 1.252 . S
O397 In390 2.326 . S
O397 C393 1.260 . S
O398 In390 2.266 . S
O398 C395 1.252 . S
O399 In390 2.326 . S
O399 C395 1.260 . S
C400 O391 1.240 . S
C400 O392 1.252 . S
O401 In390 2.294 . S
O401 C394 1.240 . S
O402 In390 2.326 . S
O402 C394 1.252 . S
In403 O404 2.294 . S
In403 O405 2.326 . S
In403 O409 2.266 . S
In403 O410 2.326 . S
In403 O411 2.266 . S
In403 O412 2.326 . S
In403 O414 2.294 . S
In403 O415 2.326 . S
O404 In403 2.294 . S
O404 C413 1.240 . S
O405 In403 2.326 . S
O405 C413 1.252 . S
C406 O409 1.252 . S
C406 O410 1.260 . S
C407 O414 1.240 . S
C407 O415 1.252 . S
C408 O411 1.252 . S
C408 O412 1.260 . S
O409 In403 2.266 . S
O409 C406 1.252 . S
O410 In403 2.326 . S
O410 C406 1.260 . S
O411 In403 2.266 . S
O411 C408 1.252 . S
O412 In403 2.326 . S
O412 C408 1.260 . S
C413 O404 1.240 . S
C413 O405 1.252 . S
O414 In403 2.294 . S
O414 C407 1.240 . S
O415 In403 2.326 . S
O415 C407 1.252 . S
C416 C417 1.363 . S
C416 C422 1.379 . S
C416 N424 1.356 . S
C417 C416 1.363 . S
C417 C423 1.363 . S
C418 C419 1.363 . S
C418 C423 1.379 . S
C418 N425 1.356 . S
C419 C418 1.363 . S
C419 C422 1.363 . S
N420 C422 1.356 . S
N420 H432 0.984 . S
N420 H433 0.985 . S
N421 C423 1.356 . S
N421 H426 0.984 . S
N421 H427 0.985 . S
C422 C416 1.379 . S
C422 C419 1.363 . S
C422 N420 1.356 . S
C423 C417 1.363 . S
C423 C418 1.379 . S
C423 N421 1.356 . S
N424 C416 1.356 . S
N424 H430 0.984 . S
N424 H431 0.984 . S
N425 C418 1.356 . S
N425 H428 0.984 . S
N425 H429 0.985 . S
H426 N421 0.984 . S
H427 N421 0.985 . S
H428 N425 0.984 . S
H429 N425 0.985 . S
H430 N424 0.984 . S
H431 N424 0.984 . S
H432 N420 0.984 . S
H433 N420 0.985 . S
C434 C435 1.363 . S
C434 C440 1.379 . S
C434 N442 1.356 . S
C435 C434 1.363 . S
C435 C441 1.363 . S
C436 C437 1.363 . S
C436 C441 1.379 . S
C436 N443 1.356 . S
C437 C436 1.363 . S
C437 C440 1.363 . S
N438 C440 1.356 . S
N438 H450 0.984 . S
N438 H451 0.985 . S
N439 C441 1.356 . S
N439 H444 0.984 . S
N439 H445 0.985 . S
C440 C434 1.379 . S
C440 C437 1.363 . S
C440 N438 1.356 . S
C441 C435 1.363 . S
C441 C436 1.379 . S
C441 N439 1.356 . S
N442 C434 1.356 . S
N442 H448 0.984 . S
N442 H449 0.984 . S
N443 C436 1.356 . S
N443 H446 0.984 . S
N443 H447 0.985 . S
H444 N439 0.984 . S
H445 N439 0.985 . S
H446 N443 0.984 . S
H447 N443 0.985 . S
H448 N442 0.984 . S
H449 N442 0.984 . S
H450 N438 0.984 . S
H451 N438 0.985 . S
C452 C453 1.363 . S
C452 C458 1.379 . S
C452 N460 1.356 . S
C453 C452 1.363 . S
C453 C459 1.363 . S
C454 C455 1.363 . S
C454 C459 1.379 . S
C454 N461 1.356 . S
C455 C454 1.363 . S
C455 C458 1.363 . S
N456 C458 1.356 . S
N456 H468 0.984 . S
N456 H469 0.985 . S
N457 C459 1.356 . S
N457 H462 0.984 . S
N457 H463 0.985 . S
C458 C452 1.379 . S
C458 C455 1.363 . S
C458 N456 1.356 . S
C459 C453 1.363 . S
C459 C454 1.379 . S
C459 N457 1.356 . S
N460 C452 1.356 . S
N460 H466 0.984 . S
N460 H467 0.984 . S
N461 C454 1.356 . S
N461 H464 0.984 . S
N461 H465 0.985 . S
H462 N457 0.984 . S
H463 N457 0.985 . S
H464 N461 0.984 . S
H465 N461 0.985 . S
H466 N460 0.984 . S
H467 N460 0.984 . S
H468 N456 0.984 . S
H469 N456 0.985 . S
C470 C471 1.363 . S
C470 C476 1.379 . S
C470 N478 1.356 . S
C471 C470 1.363 . S
C471 C477 1.363 . S
C472 C473 1.363 . S
C472 C477 1.379 . S
C472 N479 1.356 . S
C473 C472 1.363 . S
C473 C476 1.363 . S
N474 C476 1.356 . S
N474 H486 0.984 . S
N474 H487 0.985 . S
N475 C477 1.356 . S
N475 H480 0.984 . S
N475 H481 0.985 . S
C476 C470 1.379 . S
C476 C473 1.363 . S
C476 N474 1.356 . S
C477 C471 1.363 . S
C477 C472 1.379 . S
C477 N475 1.356 . S
N478 C470 1.356 . S
N478 H484 0.984 . S
N478 H485 0.984 . S
N479 C472 1.356 . S
N479 H482 0.984 . S
N479 H483 0.985 . S
H480 N475 0.984 . S
H481 N475 0.985 . S
H482 N479 0.984 . S
H483 N479 0.985 . S
H484 N478 0.984 . S
H485 N478 0.984 . S
H486 N474 0.984 . S
H487 N474 0.985 . S
C488 C489 1.363 . S
C488 C494 1.379 . S
C488 N496 1.356 . S
C489 C488 1.363 . S
C489 C495 1.363 . S
C490 C491 1.363 . S
C490 C495 1.379 . S
C490 N497 1.356 . S
C491 C490 1.363 . S
C491 C494 1.363 . S
N492 C494 1.356 . S
N492 H504 0.984 . S
N492 H505 0.985 . S
N493 C495 1.356 . S
N493 H498 0.984 . S
N493 H499 0.985 . S
C494 C488 1.379 . S
C494 C491 1.363 . S
C494 N492 1.356 . S
C495 C489 1.363 . S
C495 C490 1.379 . S
C495 N493 1.356 . S
N496 C488 1.356 . S
N496 H502 0.984 . S
N496 H503 0.984 . S
N497 C490 1.356 . S
N497 H500 0.984 . S
N497 H501 0.985 . S
H498 N493 0.984 . S
H499 N493 0.985 . S
H500 N497 0.984 . S
H501 N497 0.985 . S
H502 N496 0.984 . S
H503 N496 0.984 . S
H504 N492 0.984 . S
H505 N492 0.985 . S
C506 C507 1.363 . S
C506 C512 1.379 . S
C506 N514 1.356 . S
C507 C506 1.363 . S
C507 C513 1.363 . S
C508 C509 1.363 . S
C508 C513 1.379 . S
C508 N515 1.356 . S
C509 C508 1.363 . S
C509 C512 1.363 . S
N510 C512 1.356 . S
N510 H522 0.984 . S
N510 H523 0.985 . S
N511 C513 1.356 . S
N511 H516 0.984 . S
N511 H517 0.985 . S
C512 C506 1.379 . S
C512 C509 1.363 . S
C512 N510 1.356 . S
C513 C507 1.363 . S
C513 C508 1.379 . S
C513 N511 1.356 . S
N514 C506 1.356 . S
N514 H520 0.984 . S
N514 H521 0.984 . S
N515 C508 1.356 . S
N515 H518 0.984 . S
N515 H519 0.985 . S
H516 N511 0.984 . S
H517 N511 0.985 . S
H518 N515 0.984 . S
H519 N515 0.985 . S
H520 N514 0.984 . S
H521 N514 0.984 . S
H522 N510 0.984 . S
H523 N510 0.985 . S
C524 C525 1.363 . S
C524 C530 1.379 . S
C524 N532 1.356 . S
C525 C524 1.363 . S
C525 C531 1.363 . S
C526 C527 1.363 . S
C526 C531 1.379 . S
C526 N533 1.356 . S
C527 C526 1.363 . S
C527 C530 1.363 . S
N528 C530 1.356 . S
N528 H540 0.984 . S
N528 H541 0.985 . S
N529 C531 1.356 . S
N529 H534 0.984 . S
N529 H535 0.985 . S
C530 C524 1.379 . S
C530 C527 1.363 . S
C530 N528 1.356 . S
C531 C525 1.363 . S
C531 C526 1.379 . S
C531 N529 1.356 . S
N532 C524 1.356 . S
N532 H538 0.984 . S
N532 H539 0.984 . S
N533 C526 1.356 . S
N533 H536 0.984 . S
N533 H537 0.985 . S
H534 N529 0.984 . S
H535 N529 0.985 . S
H536 N533 0.984 . S
H537 N533 0.985 . S
H538 N532 0.984 . S
H539 N532 0.984 . S
H540 N528 0.984 . S
H541 N528 0.985 . S
C542 C543 1.363 . S
C542 C548 1.379 . S
C542 N550 1.356 . S
C543 C542 1.363 . S
C543 C549 1.363 . S
C544 C545 1.363 . S
C544 C549 1.379 . S
C544 N551 1.356 . S
C545 C544 1.363 . S
C545 C548 1.363 . S
N546 C548 1.356 . S
N546 H558 0.984 . S
N546 H559 0.985 . S
N547 C549 1.356 . S
N547 H552 0.984 . S
N547 H553 0.985 . S
C548 C542 1.379 . S
C548 C545 1.363 . S
C548 N546 1.356 . S
C549 C543 1.363 . S
C549 C544 1.379 . S
C549 N547 1.356 . S
N550 C542 1.356 . S
N550 H556 0.984 . S
N550 H557 0.984 . S
N551 C544 1.356 . S
N551 H554 0.984 . S
N551 H555 0.985 . S
H552 N547 0.984 . S
H553 N547 0.985 . S
H554 N551 0.984 . S
H555 N551 0.985 . S
H556 N550 0.984 . S
H557 N550 0.984 . S
H558 N546 0.984 . S
H559 N546 0.985 . S
C560 C561 1.363 . S
C560 C566 1.379 . S
C560 N568 1.356 . S
C561 C560 1.363 . S
C561 C567 1.363 . S
C562 C563 1.363 . S
C562 C567 1.379 . S
C562 N569 1.356 . S
C563 C562 1.363 . S
C563 C566 1.363 . S
N564 C566 1.356 . S
N564 H576 0.984 . S
N564 H577 0.985 . S
N565 C567 1.356 . S
N565 H570 0.984 . S
N565 H571 0.985 . S
C566 C560 1.379 . S
C566 C563 1.363 . S
C566 N564 1.356 . S
C567 C561 1.363 . S
C567 C562 1.379 . S
C567 N565 1.356 . S
N568 C560 1.356 . S
N568 H574 0.984 . S
N568 H575 0.984 . S
N569 C562 1.356 . S
N569 H572 0.984 . S
N569 H573 0.985 . S
H570 N565 0.984 . S
H571 N565 0.985 . S
H572 N569 0.984 . S
H573 N569 0.985 . S
H574 N568 0.984 . S
H575 N568 0.984 . S
H576 N564 0.984 . S
H577 N564 0.985 . S
C578 C579 1.363 . S
C578 C584 1.379 . S
C578 N586 1.356 . S
C579 C578 1.363 . S
C579 C585 1.363 . S
C580 C581 1.363 . S
C580 C585 1.379 . S
C580 N587 1.356 . S
C581 C580 1.363 . S
C581 C584 1.363 . S
N582 C584 1.356 . S
N582 H594 0.984 . S
N582 H595 0.985 . S
N583 C585 1.356 . S
N583 H588 0.984 . S
N583 H589 0.985 . S
C584 C578 1.379 . S
C584 C581 1.363 . S
C584 N582 1.356 . S
C585 C579 1.363 . S
C585 C580 1.379 . S
C585 N583 1.356 . S
N586 C578 1.356 . S
N586 H592 0.984 . S
N586 H593 0.984 . S
N587 C580 1.356 . S
N587 H590 0.984 . S
N587 H591 0.985 . S
H588 N583 0.984 . S
H589 N583 0.985 . S
H590 N587 0.984 . S
H591 N587 0.985 . S
H592 N586 0.984 . S
H593 N586 0.984 . S
H594 N582 0.984 . S
H595 N582 0.985 . S
C596 C597 1.363 . S
C596 C602 1.379 . S
C596 N604 1.356 . S
C597 C596 1.363 . S
C597 C603 1.363 . S
C598 C599 1.363 . S
C598 C603 1.379 . S
C598 N605 1.356 . S
C599 C598 1.363 . S
C599 C602 1.363 . S
N600 C602 1.356 . S
N600 H612 0.984 . S
N600 H613 0.985 . S
N601 C603 1.356 . S
N601 H606 0.984 . S
N601 H607 0.985 . S
C602 C596 1.379 . S
C602 C599 1.363 . S
C602 N600 1.356 . S
C603 C597 1.363 . S
C603 C598 1.379 . S
C603 N601 1.356 . S
N604 C596 1.356 . S
N604 H610 0.984 . S
N604 H611 0.984 . S
N605 C598 1.356 . S
N605 H608 0.984 . S
N605 H609 0.985 . S
H606 N601 0.984 . S
H607 N601 0.985 . S
H608 N605 0.984 . S
H609 N605 0.985 . S
H610 N604 0.984 . S
H611 N604 0.984 . S
H612 N600 0.984 . S
H613 N600 0.985 . S
C614 C615 1.363 . S
C614 C620 1.379 . S
C614 N622 1.356 . S
C615 C614 1.363 . S
C615 C621 1.363 . S
C616 C617 1.363 . S
C616 C621 1.379 . S
C616 N623 1.356 . S
C617 C616 1.363 . S
C617 C620 1.363 . S
N618 C620 1.356 . S
N618 H630 0.984 . S
N618 H631 0.985 . S
N619 C621 1.356 . S
N619 H624 0.984 . S
N619 H625 0.985 . S
C620 C614 1.379 . S
C620 C617 1.363 . S
C620 N618 1.356 . S
C621 C615 1.363 . S
C621 C616 1.379 . S
C621 N619 1.356 . S
N622 C614 1.356 . S
N622 H628 0.984 . S
N622 H629 0.984 . S
N623 C616 1.356 . S
N623 H626 0.984 . S
N623 H627 0.985 . S
H624 N619 0.984 . S
H625 N619 0.985 . S
H626 N623 0.984 . S
H627 N623 0.985 . S
H628 N622 0.984 . S
H629 N622 0.984 . S
H630 N618 0.984 . S
H631 N618 0.985 . S
C632 C633 1.363 . S
C632 C638 1.379 . S
C632 N640 1.356 . S
C633 C632 1.363 . S
C633 C639 1.363 . S
C634 C635 1.363 . S
C634 C639 1.379 . S
C634 N641 1.356 . S
C635 C634 1.363 . S
C635 C638 1.363 . S
N636 C638 1.356 . S
N636 H648 0.984 . S
N636 H649 0.985 . S
N637 C639 1.356 . S
N637 H642 0.984 . S
N637 H643 0.985 . S
C638 C632 1.379 . S
C638 C635 1.363 . S
C638 N636 1.356 . S
C639 C633 1.363 . S
C639 C634 1.379 . S
C639 N637 1.356 . S
N640 C632 1.356 . S
N640 H646 0.984 . S
N640 H647 0.984 . S
N641 C634 1.356 . S
N641 H644 0.984 . S
N641 H645 0.985 . S
H642 N637 0.984 . S
H643 N637 0.985 . S
H644 N641 0.984 . S
H645 N641 0.985 . S
H646 N640 0.984 . S
H647 N640 0.984 . S
H648 N636 0.984 . S
H649 N636 0.985 . S
C650 C651 1.363 . S
C650 C656 1.379 . S
C650 N658 1.356 . S
C651 C650 1.363 . S
C651 C657 1.363 . S
C652 C653 1.363 . S
C652 C657 1.379 . S
C652 N659 1.356 . S
C653 C652 1.363 . S
C653 C656 1.363 . S
N654 C656 1.356 . S
N654 H666 0.984 . S
N654 H667 0.985 . S
N655 C657 1.356 . S
N655 H660 0.984 . S
N655 H661 0.985 . S
C656 C650 1.379 . S
C656 C653 1.363 . S
C656 N654 1.356 . S
C657 C651 1.363 . S
C657 C652 1.379 . S
C657 N655 1.356 . S
N658 C650 1.356 . S
N658 H664 0.984 . S
N658 H665 0.984 . S
N659 C652 1.356 . S
N659 H662 0.984 . S
N659 H663 0.985 . S
H660 N655 0.984 . S
H661 N655 0.985 . S
H662 N659 0.984 . S
H663 N659 0.985 . S
H664 N658 0.984 . S
H665 N658 0.984 . S
H666 N654 0.984 . S
H667 N654 0.985 . S
C668 C669 1.363 . S
C668 C674 1.379 . S
C668 N676 1.356 . S
C669 C668 1.363 . S
C669 C675 1.363 . S
C670 C671 1.363 . S
C670 C675 1.379 . S
C670 N677 1.356 . S
C671 C670 1.363 . S
C671 C674 1.363 . S
N672 C674 1.356 . S
N672 H684 0.984 . S
N672 H685 0.985 . S
N673 C675 1.356 . S
N673 H678 0.984 . S
N673 H679 0.985 . S
C674 C668 1.379 . S
C674 C671 1.363 . S
C674 N672 1.356 . S
C675 C669 1.363 . S
C675 C670 1.379 . S
C675 N673 1.356 . S
N676 C668 1.356 . S
N676 H682 0.984 . S
N676 H683 0.984 . S
N677 C670 1.356 . S
N677 H680 0.984 . S
N677 H681 0.985 . S
H678 N673 0.984 . S
H679 N673 0.985 . S
H680 N677 0.984 . S
H681 N677 0.985 . S
H682 N676 0.984 . S
H683 N676 0.984 . S
H684 N672 0.984 . S
H685 N672 0.985 . S
C686 C687 1.363 . S
C686 C692 1.379 . S
C686 N694 1.356 . S
C687 C686 1.363 . S
C687 C693 1.363 . S
C688 C689 1.363 . S
C688 C693 1.379 . S
C688 N695 1.356 . S
C689 C688 1.363 . S
C689 C692 1.363 . S
N690 C692 1.356 . S
N690 H702 0.984 . S
N690 H703 0.985 . S
N691 C693 1.356 . S
N691 H696 0.984 . S
N691 H697 0.985 . S
C692 C686 1.379 . S
C692 C689 1.363 . S
C692 N690 1.356 . S
C693 C687 1.363 . S
C693 C688 1.379 . S
C693 N691 1.356 . S
N694 C686 1.356 . S
N694 H700 0.984 . S
N694 H701 0.984 . S
N695 C688 1.356 . S
N695 H698 0.984 . S
N695 H699 0.985 . S
H696 N691 0.984 . S
H697 N691 0.985 . S
H698 N695 0.984 . S
H699 N695 0.985 . S
H700 N694 0.984 . S
H701 N694 0.984 . S
H702 N690 0.984 . S
H703 N690 0.985 . S
C704 C705 1.363 . S
C704 C710 1.379 1_655 S
C704 N712 1.356 . S
C705 C704 1.363 . S
C705 C711 1.363 . S
C706 C707 1.363 . S
C706 C711 1.379 1_455 S
C706 N713 1.356 . S
C707 C706 1.363 . S
C707 C710 1.363 . S
N708 C710 1.356 . S
N708 H720 0.984 . S
N708 H721 0.985 . S
N709 C711 1.356 . S
N709 H714 0.984 . S
N709 H715 0.985 . S
C710 C704 1.379 1_455 S
C710 C707 1.363 . S
C710 N708 1.356 . S
C711 C705 1.363 . S
C711 C706 1.379 1_655 S
C711 N709 1.356 . S
N712 C704 1.356 . S
N712 H718 0.984 . S
N712 H719 0.984 . S
N713 C706 1.356 . S
N713 H716 0.984 . S
N713 H717 0.985 . S
H714 N709 0.984 . S
H715 N709 0.985 . S
H716 N713 0.984 . S
H717 N713 0.985 . S
H718 N712 0.984 . S
H719 N712 0.984 . S
H720 N708 0.984 . S
H721 N708 0.985 . S
C722 C723 1.363 . S
C722 C728 1.379 1_545 S
C722 N730 1.356 . S
C723 C722 1.363 . S
C723 C729 1.363 . S
C724 C725 1.363 . S
C724 C729 1.379 1_565 S
C724 N731 1.356 . S
C725 C724 1.363 . S
C725 C728 1.363 . S
N726 C728 1.356 . S
N726 H738 0.984 . S
N726 H739 0.985 . S
N727 C729 1.356 . S
N727 H732 0.984 . S
N727 H733 0.985 . S
C728 C722 1.379 1_565 S
C728 C725 1.363 . S
C728 N726 1.356 . S
C729 C723 1.363 . S
C729 C724 1.379 1_545 S
C729 N727 1.356 . S
N730 C722 1.356 . S
N730 H736 0.984 . S
N730 H737 0.984 . S
N731 C724 1.356 . S
N731 H734 0.984 . S
N731 H735 0.985 . S
H732 N727 0.984 . S
H733 N727 0.985 . S
H734 N731 0.984 . S
H735 N731 0.985 . S
H736 N730 0.984 . S
H737 N730 0.984 . S
H738 N726 0.984 . S
H739 N726 0.985 . S
C740 C741 1.363 . S
C740 C746 1.379 1_455 S
C740 N748 1.356 . S
C741 C740 1.363 . S
C741 C747 1.363 . S
C742 C743 1.363 . S
C742 C747 1.379 1_655 S
C742 N749 1.356 . S
C743 C742 1.363 . S
C743 C746 1.363 . S
N744 C746 1.356 . S
N744 H756 0.984 . S
N744 H757 0.985 . S
N745 C747 1.356 . S
N745 H750 0.984 . S
N745 H751 0.985 . S
C746 C740 1.379 1_655 S
C746 C743 1.363 . S
C746 N744 1.356 . S
C747 C741 1.363 . S
C747 C742 1.379 1_455 S
C747 N745 1.356 . S
N748 C740 1.356 . S
N748 H754 0.984 . S
N748 H755 0.984 . S
N749 C742 1.356 . S
N749 H752 0.984 . S
N749 H753 0.985 . S
H750 N745 0.984 . S
H751 N745 0.985 . S
H752 N749 0.984 . S
H753 N749 0.985 . S
H754 N748 0.984 . S
H755 N748 0.984 . S
H756 N744 0.984 . S
H757 N744 0.985 . S
C758 C759 1.363 . S
C758 C764 1.379 1_565 S
C758 N766 1.356 . S
C759 C758 1.363 . S
C759 C765 1.363 . S
C760 C761 1.363 . S
C760 C765 1.379 1_545 S
C760 N767 1.356 . S
C761 C760 1.363 . S
C761 C764 1.363 . S
N762 C764 1.356 . S
N762 H774 0.984 . S
N762 H775 0.985 . S
N763 C765 1.356 . S
N763 H768 0.984 . S
N763 H769 0.985 . S
C764 C758 1.379 1_545 S
C764 C761 1.363 . S
C764 N762 1.356 . S
C765 C759 1.363 . S
C765 C760 1.379 1_565 S
C765 N763 1.356 . S
N766 C758 1.356 . S
N766 H772 0.984 . S
N766 H773 0.984 . S
N767 C760 1.356 . S
N767 H770 0.984 . S
N767 H771 0.985 . S
H768 N763 0.984 . S
H769 N763 0.985 . S
H770 N767 0.984 . S
H771 N767 0.985 . S
H772 N766 0.984 . S
H773 N766 0.984 . S
H774 N762 0.984 . S
H775 N762 0.985 . S
C776 C777 1.363 . S
C776 C782 1.379 1_455 S
C776 N784 1.356 . S
C777 C776 1.363 . S
C777 C783 1.363 . S
C778 C779 1.363 . S
C778 C783 1.379 1_655 S
C778 N785 1.356 . S
C779 C778 1.363 . S
C779 C782 1.363 . S
N780 C782 1.356 . S
N780 H792 0.984 . S
N780 H793 0.985 . S
N781 C783 1.356 . S
N781 H786 0.984 . S
N781 H787 0.985 . S
C782 C776 1.379 1_655 S
C782 C779 1.363 . S
C782 N780 1.356 . S
C783 C777 1.363 . S
C783 C778 1.379 1_455 S
C783 N781 1.356 . S
N784 C776 1.356 . S
N784 H790 0.984 . S
N784 H791 0.984 . S
N785 C778 1.356 . S
N785 H788 0.984 . S
N785 H789 0.985 . S
H786 N781 0.984 . S
H787 N781 0.985 . S
H788 N785 0.984 . S
H789 N785 0.985 . S
H790 N784 0.984 . S
H791 N784 0.984 . S
H792 N780 0.984 . S
H793 N780 0.985 . S
C794 C795 1.363 . S
C794 C800 1.379 1_565 S
C794 N802 1.356 . S
C795 C794 1.363 . S
C795 C801 1.363 . S
C796 C797 1.363 . S
C796 C801 1.379 1_545 S
C796 N803 1.356 . S
C797 C796 1.363 . S
C797 C800 1.363 . S
N798 C800 1.356 . S
N798 H810 0.984 . S
N798 H811 0.985 . S
N799 C801 1.356 . S
N799 H804 0.984 . S
N799 H805 0.985 . S
C800 C794 1.379 1_545 S
C800 C797 1.363 . S
C800 N798 1.356 . S
C801 C795 1.363 . S
C801 C796 1.379 1_565 S
C801 N799 1.356 . S
N802 C794 1.356 . S
N802 H808 0.984 . S
N802 H809 0.984 . S
N803 C796 1.356 . S
N803 H806 0.984 . S
N803 H807 0.985 . S
H804 N799 0.984 . S
H805 N799 0.985 . S
H806 N803 0.984 . S
H807 N803 0.985 . S
H808 N802 0.984 . S
H809 N802 0.984 . S
H810 N798 0.984 . S
H811 N798 0.985 . S
C812 C813 1.363 . S
C812 C818 1.379 1_455 S
C812 N820 1.356 . S
C813 C812 1.363 . S
C813 C819 1.363 . S
C814 C815 1.363 . S
C814 C819 1.379 1_655 S
C814 N821 1.356 . S
C815 C814 1.363 . S
C815 C818 1.363 . S
N816 C818 1.356 . S
N816 H828 0.984 . S
N816 H829 0.985 . S
N817 C819 1.356 . S
N817 H822 0.984 . S
N817 H823 0.985 . S
C818 C812 1.379 1_655 S
C818 C815 1.363 . S
C818 N816 1.356 . S
C819 C813 1.363 . S
C819 C814 1.379 1_455 S
C819 N817 1.356 . S
N820 C812 1.356 . S
N820 H826 0.984 . S
N820 H827 0.984 . S
N821 C814 1.356 . S
N821 H824 0.984 . S
N821 H825 0.985 . S
H822 N817 0.984 . S
H823 N817 0.985 . S
H824 N821 0.984 . S
H825 N821 0.985 . S
H826 N820 0.984 . S
H827 N820 0.984 . S
H828 N816 0.984 . S
H829 N816 0.985 . S
C830 C831 1.363 . S
C830 C836 1.379 1_545 S
C830 N838 1.356 . S
C831 C830 1.363 . S
C831 C837 1.363 . S
C832 C833 1.363 . S
C832 C837 1.379 1_565 S
C832 N839 1.356 . S
C833 C832 1.363 . S
C833 C836 1.363 . S
N834 C836 1.356 . S
N834 H846 0.984 . S
N834 H847 0.985 . S
N835 C837 1.356 . S
N835 H840 0.984 . S
N835 H841 0.985 . S
C836 C830 1.379 1_565 S
C836 C833 1.363 . S
C836 N834 1.356 . S
C837 C831 1.363 . S
C837 C832 1.379 1_545 S
C837 N835 1.356 . S
N838 C830 1.356 . S
N838 H844 0.984 . S
N838 H845 0.984 . S
N839 C832 1.356 . S
N839 H842 0.984 . S
N839 H843 0.985 . S
H840 N835 0.984 . S
H841 N835 0.985 . S
H842 N839 0.984 . S
H843 N839 0.985 . S
H844 N838 0.984 . S
H845 N838 0.984 . S
H846 N834 0.984 . S
H847 N834 0.985 . S
C848 C849 1.363 . S
C848 C854 1.379 . S
C848 N856 1.356 . S
C849 C848 1.363 . S
C849 C855 1.363 . S
C850 C851 1.363 . S
C850 C855 1.379 . S
C850 N857 1.356 . S
C851 C850 1.363 . S
C851 C854 1.363 . S
N852 C854 1.356 . S
N852 H864 0.984 . S
N852 H865 0.985 . S
N853 C855 1.356 . S
N853 H858 0.984 . S
N853 H859 0.985 . S
C854 C848 1.379 . S
C854 C851 1.363 . S
C854 N852 1.356 . S
C855 C849 1.363 . S
C855 C850 1.379 . S
C855 N853 1.356 . S
N856 C848 1.356 . S
N856 H862 0.984 . S
N856 H863 0.984 . S
N857 C850 1.356 . S
N857 H860 0.984 . S
N857 H861 0.985 . S
H858 N853 0.984 . S
H859 N853 0.985 . S
H860 N857 0.984 . S
H861 N857 0.985 . S
H862 N856 0.984 . S
H863 N856 0.984 . S
H864 N852 0.984 . S
H865 N852 0.985 . S
C866 C867 1.363 . S
C866 C872 1.379 . S
C866 N874 1.356 . S
C867 C866 1.363 . S
C867 C873 1.363 . S
C868 C869 1.363 . S
C868 C873 1.379 . S
C868 N875 1.356 . S
C869 C868 1.363 . S
C869 C872 1.363 . S
N870 C872 1.356 . S
N870 H882 0.984 . S
N870 H883 0.985 . S
N871 C873 1.356 . S
N871 H876 0.984 . S
N871 H877 0.985 . S
C872 C866 1.379 . S
C872 C869 1.363 . S
C872 N870 1.356 . S
C873 C867 1.363 . S
C873 C868 1.379 . S
C873 N871 1.356 . S
N874 C866 1.356 . S
N874 H880 0.984 . S
N874 H881 0.984 . S
N875 C868 1.356 . S
N875 H878 0.984 . S
N875 H879 0.985 . S
H876 N871 0.984 . S
H877 N871 0.985 . S
H878 N875 0.984 . S
H879 N875 0.985 . S
H880 N874 0.984 . S
H881 N874 0.984 . S
H882 N870 0.984 . S
H883 N870 0.985 . S
C884 C885 1.363 . S
C884 C890 1.379 . S
C884 N892 1.356 . S
C885 C884 1.363 . S
C885 C891 1.363 . S
C886 C887 1.363 . S
C886 C891 1.379 . S
C886 N893 1.356 . S
C887 C886 1.363 . S
C887 C890 1.363 . S
N888 C890 1.356 . S
N888 H900 0.984 . S
N888 H901 0.985 . S
N889 C891 1.356 . S
N889 H894 0.984 . S
N889 H895 0.985 . S
C890 C884 1.379 . S
C890 C887 1.363 . S
C890 N888 1.356 . S
C891 C885 1.363 . S
C891 C886 1.379 . S
C891 N889 1.356 . S
N892 C884 1.356 . S
N892 H898 0.984 . S
N892 H899 0.984 . S
N893 C886 1.356 . S
N893 H896 0.984 . S
N893 H897 0.985 . S
H894 N889 0.984 . S
H895 N889 0.985 . S
H896 N893 0.984 . S
H897 N893 0.985 . S
H898 N892 0.984 . S
H899 N892 0.984 . S
H900 N888 0.984 . S
H901 N888 0.985 . S
C902 C903 1.363 . S
C902 C908 1.379 . S
C902 N910 1.356 . S
C903 C902 1.363 . S
C903 C909 1.363 . S
C904 C905 1.363 . S
C904 C909 1.379 . S
C904 N911 1.356 . S
C905 C904 1.363 . S
C905 C908 1.363 . S
N906 C908 1.356 . S
N906 H918 0.984 . S
N906 H919 0.985 . S
N907 C909 1.356 . S
N907 H912 0.984 . S
N907 H913 0.985 . S
C908 C902 1.379 . S
C908 C905 1.363 . S
C908 N906 1.356 . S
C909 C903 1.363 . S
C909 C904 1.379 . S
C909 N907 1.356 . S
N910 C902 1.356 . S
N910 H916 0.984 . S
N910 H917 0.984 . S
N911 C904 1.356 . S
N911 H914 0.984 . S
N911 H915 0.985 . S
H912 N907 0.984 . S
H913 N907 0.985 . S
H914 N911 0.984 . S
H915 N911 0.985 . S
H916 N910 0.984 . S
H917 N910 0.984 . S
H918 N906 0.984 . S
H919 N906 0.985 . S
C920 C921 1.363 . S
C920 C926 1.379 . S
C920 N928 1.356 . S
C921 C920 1.363 . S
C921 C927 1.363 . S
C922 C923 1.363 . S
C922 C927 1.379 . S
C922 N929 1.356 . S
C923 C922 1.363 . S
C923 C926 1.363 . S
N924 C926 1.356 . S
N924 H936 0.984 . S
N924 H937 0.985 . S
N925 C927 1.356 . S
N925 H930 0.984 . S
N925 H931 0.985 . S
C926 C920 1.379 . S
C926 C923 1.363 . S
C926 N924 1.356 . S
C927 C921 1.363 . S
C927 C922 1.379 . S
C927 N925 1.356 . S
N928 C920 1.356 . S
N928 H934 0.984 . S
N928 H935 0.984 . S
N929 C922 1.356 . S
N929 H932 0.984 . S
N929 H933 0.985 . S
H930 N925 0.984 . S
H931 N925 0.985 . S
H932 N929 0.984 . S
H933 N929 0.985 . S
H934 N928 0.984 . S
H935 N928 0.984 . S
H936 N924 0.984 . S
H937 N924 0.985 . S
C938 C939 1.363 . S
C938 C944 1.379 . S
C938 N946 1.356 . S
C939 C938 1.363 . S
C939 C945 1.363 . S
C940 C941 1.363 . S
C940 C945 1.379 . S
C940 N947 1.356 . S
C941 C940 1.363 . S
C941 C944 1.363 . S
N942 C944 1.356 . S
N942 H954 0.984 . S
N942 H955 0.985 . S
N943 C945 1.356 . S
N943 H948 0.984 . S
N943 H949 0.985 . S
C944 C938 1.379 . S
C944 C941 1.363 . S
C944 N942 1.356 . S
C945 C939 1.363 . S
C945 C940 1.379 . S
C945 N943 1.356 . S
N946 C938 1.356 . S
N946 H952 0.984 . S
N946 H953 0.984 . S
N947 C940 1.356 . S
N947 H950 0.984 . S
N947 H951 0.985 . S
H948 N943 0.984 . S
H949 N943 0.985 . S
H950 N947 0.984 . S
H951 N947 0.985 . S
H952 N946 0.984 . S
H953 N946 0.984 . S
H954 N942 0.984 . S
H955 N942 0.985 . S
C956 C957 1.363 . S
C956 C962 1.379 . S
C956 N964 1.356 . S
C957 C956 1.363 . S
C957 C963 1.363 . S
C958 C959 1.363 . S
C958 C963 1.379 . S
C958 N965 1.356 . S
C959 C958 1.363 . S
C959 C962 1.363 . S
N960 C962 1.356 . S
N960 H972 0.984 . S
N960 H973 0.985 . S
N961 C963 1.356 . S
N961 H966 0.984 . S
N961 H967 0.985 . S
C962 C956 1.379 . S
C962 C959 1.363 . S
C962 N960 1.356 . S
C963 C957 1.363 . S
C963 C958 1.379 . S
C963 N961 1.356 . S
N964 C956 1.356 . S
N964 H970 0.984 . S
N964 H971 0.984 . S
N965 C958 1.356 . S
N965 H968 0.984 . S
N965 H969 0.985 . S
H966 N961 0.984 . S
H967 N961 0.985 . S
H968 N965 0.984 . S
H969 N965 0.985 . S
H970 N964 0.984 . S
H971 N964 0.984 . S
H972 N960 0.984 . S
H973 N960 0.985 . S
C974 C975 1.363 . S
C974 C980 1.379 . S
C974 N982 1.356 . S
C975 C974 1.363 . S
C975 C981 1.363 . S
C976 C977 1.363 . S
C976 C981 1.379 . S
C976 N983 1.356 . S
C977 C976 1.363 . S
C977 C980 1.363 . S
N978 C980 1.356 . S
N978 H990 0.984 . S
N978 H991 0.985 . S
N979 C981 1.356 . S
N979 H984 0.984 . S
N979 H985 0.985 . S
C980 C974 1.379 . S
C980 C977 1.363 . S
C980 N978 1.356 . S
C981 C975 1.363 . S
C981 C976 1.379 . S
C981 N979 1.356 . S
N982 C974 1.356 . S
N982 H988 0.984 . S
N982 H989 0.984 . S
N983 C976 1.356 . S
N983 H986 0.984 . S
N983 H987 0.985 . S
H984 N979 0.984 . S
H985 N979 0.985 . S
H986 N983 0.984 . S
H987 N983 0.985 . S
H988 N982 0.984 . S
H989 N982 0.984 . S
H990 N978 0.984 . S
H991 N978 0.985 . S
C992 C993 1.363 . S
C992 C998 1.379 . S
C992 N1000 1.356 . S
C993 C992 1.363 . S
C993 C999 1.363 . S
C994 C995 1.363 . S
C994 C999 1.379 . S
C994 N1001 1.356 . S
C995 C994 1.363 . S
C995 C998 1.363 . S
N996 C998 1.356 . S
N996 H1008 0.984 . S
N996 H1009 0.985 . S
N997 C999 1.356 . S
N997 H1002 0.984 . S
N997 H1003 0.985 . S
C998 C992 1.379 . S
C998 C995 1.363 . S
C998 N996 1.356 . S
C999 C993 1.363 . S
C999 C994 1.379 . S
C999 N997 1.356 . S
N1000 C992 1.356 . S
N1000 H1006 0.984 . S
N1000 H1007 0.984 . S
N1001 C994 1.356 . S
N1001 H1004 0.984 . S
N1001 H1005 0.985 . S
H1002 N997 0.984 . S
H1003 N997 0.985 . S
H1004 N1001 0.984 . S
H1005 N1001 0.985 . S
H1006 N1000 0.984 . S
H1007 N1000 0.984 . S
H1008 N996 0.984 . S
H1009 N996 0.985 . S
C1010 C1011 1.363 . S
C1010 C1016 1.379 . S
C1010 N1018 1.356 . S
C1011 C1010 1.363 . S
C1011 C1017 1.363 . S
C1012 C1013 1.363 . S
C1012 C1017 1.379 . S
C1012 N1019 1.356 . S
C1013 C1012 1.363 . S
C1013 C1016 1.363 . S
N1014 C1016 1.356 . S
N1014 H1026 0.984 . S
N1014 H1027 0.985 . S
N1015 C1017 1.356 . S
N1015 H1020 0.984 . S
N1015 H1021 0.985 . S
C1016 C1010 1.379 . S
C1016 C1013 1.363 . S
C1016 N1014 1.356 . S
C1017 C1011 1.363 . S
C1017 C1012 1.379 . S
C1017 N1015 1.356 . S
N1018 C1010 1.356 . S
N1018 H1024 0.984 . S
N1018 H1025 0.984 . S
N1019 C1012 1.356 . S
N1019 H1022 0.984 . S
N1019 H1023 0.985 . S
H1020 N1015 0.984 . S
H1021 N1015 0.985 . S
H1022 N1019 0.984 . S
H1023 N1019 0.985 . S
H1024 N1018 0.984 . S
H1025 N1018 0.984 . S
H1026 N1014 0.984 . S
H1027 N1014 0.985 . S
C1028 C1029 1.363 . S
C1028 C1034 1.379 . S
C1028 N1036 1.356 . S
C1029 C1028 1.363 . S
C1029 C1035 1.363 . S
C1030 C1031 1.363 . S
C1030 C1035 1.379 . S
C1030 N1037 1.356 . S
C1031 C1030 1.363 . S
C1031 C1034 1.363 . S
N1032 C1034 1.356 . S
N1032 H1044 0.984 . S
N1032 H1045 0.985 . S
N1033 C1035 1.356 . S
N1033 H1038 0.984 . S
N1033 H1039 0.985 . S
C1034 C1028 1.379 . S
C1034 C1031 1.363 . S
C1034 N1032 1.356 . S
C1035 C1029 1.363 . S
C1035 C1030 1.379 . S
C1035 N1033 1.356 . S
N1036 C1028 1.356 . S
N1036 H1042 0.984 . S
N1036 H1043 0.984 . S
N1037 C1030 1.356 . S
N1037 H1040 0.984 . S
N1037 H1041 0.985 . S
H1038 N1033 0.984 . S
H1039 N1033 0.985 . S
H1040 N1037 0.984 . S
H1041 N1037 0.985 . S
H1042 N1036 0.984 . S
H1043 N1036 0.984 . S
H1044 N1032 0.984 . S
H1045 N1032 0.985 . S
C1046 C1047 1.363 . S
C1046 C1052 1.379 . S
C1046 N1054 1.356 . S
C1047 C1046 1.363 . S
C1047 C1053 1.363 . S
C1048 C1049 1.363 . S
C1048 C1053 1.379 . S
C1048 N1055 1.356 . S
C1049 C1048 1.363 . S
C1049 C1052 1.363 . S
N1050 C1052 1.356 . S
N1050 H1062 0.984 . S
N1050 H1063 0.985 . S
N1051 C1053 1.356 . S
N1051 H1056 0.984 . S
N1051 H1057 0.985 . S
C1052 C1046 1.379 . S
C1052 C1049 1.363 . S
C1052 N1050 1.356 . S
C1053 C1047 1.363 . S
C1053 C1048 1.379 . S
C1053 N1051 1.356 . S
N1054 C1046 1.356 . S
N1054 H1060 0.984 . S
N1054 H1061 0.984 . S
N1055 C1048 1.356 . S
N1055 H1058 0.984 . S
N1055 H1059 0.985 . S
H1056 N1051 0.984 . S
H1057 N1051 0.985 . S
H1058 N1055 0.984 . S
H1059 N1055 0.985 . S
H1060 N1054 0.984 . S
H1061 N1054 0.984 . S
H1062 N1050 0.984 . S
H1063 N1050 0.985 . S
C1064 C1065 1.363 . S
C1064 C1070 1.379 . S
C1064 N1072 1.356 . S
C1065 C1064 1.363 . S
C1065 C1071 1.363 . S
C1066 C1067 1.363 . S
C1066 C1071 1.379 . S
C1066 N1073 1.356 . S
C1067 C1066 1.363 . S
C1067 C1070 1.363 . S
N1068 C1070 1.356 . S
N1068 H1080 0.984 . S
N1068 H1081 0.985 . S
N1069 C1071 1.356 . S
N1069 H1074 0.984 . S
N1069 H1075 0.985 . S
C1070 C1064 1.379 . S
C1070 C1067 1.363 . S
C1070 N1068 1.356 . S
C1071 C1065 1.363 . S
C1071 C1066 1.379 . S
C1071 N1069 1.356 . S
N1072 C1064 1.356 . S
N1072 H1078 0.984 . S
N1072 H1079 0.984 . S
N1073 C1066 1.356 . S
N1073 H1076 0.984 . S
N1073 H1077 0.985 . S
H1074 N1069 0.984 . S
H1075 N1069 0.985 . S
H1076 N1073 0.984 . S
H1077 N1073 0.985 . S
H1078 N1072 0.984 . S
H1079 N1072 0.984 . S
H1080 N1068 0.984 . S
H1081 N1068 0.985 . S
C1082 C1083 1.363 . S
C1082 C1088 1.379 . S
C1082 N1090 1.356 . S
C1083 C1082 1.363 . S
C1083 C1089 1.363 . S
C1084 C1085 1.363 . S
C1084 C1089 1.379 . S
C1084 N1091 1.356 . S
C1085 C1084 1.363 . S
C1085 C1088 1.363 . S
N1086 C1088 1.356 . S
N1086 H1098 0.984 . S
N1086 H1099 0.985 . S
N1087 C1089 1.356 . S
N1087 H1092 0.984 . S
N1087 H1093 0.985 . S
C1088 C1082 1.379 . S
C1088 C1085 1.363 . S
C1088 N1086 1.356 . S
C1089 C1083 1.363 . S
C1089 C1084 1.379 . S
C1089 N1087 1.356 . S
N1090 C1082 1.356 . S
N1090 H1096 0.984 . S
N1090 H1097 0.984 . S
N1091 C1084 1.356 . S
N1091 H1094 0.984 . S
N1091 H1095 0.985 . S
H1092 N1087 0.984 . S
H1093 N1087 0.985 . S
H1094 N1091 0.984 . S
H1095 N1091 0.985 . S
H1096 N1090 0.984 . S
H1097 N1090 0.984 . S
H1098 N1086 0.984 . S
H1099 N1086 0.985 . S
C1100 C1101 1.363 . S
C1100 C1106 1.379 . S
C1100 N1108 1.356 . S
C1101 C1100 1.363 . S
C1101 C1107 1.363 . S
C1102 C1103 1.363 . S
C1102 C1107 1.379 . S
C1102 N1109 1.356 . S
C1103 C1102 1.363 . S
C1103 C1106 1.363 . S
N1104 C1106 1.356 . S
N1104 H1116 0.984 . S
N1104 H1117 0.985 . S
N1105 C1107 1.356 . S
N1105 H1110 0.984 . S
N1105 H1111 0.985 . S
C1106 C1100 1.379 . S
C1106 C1103 1.363 . S
C1106 N1104 1.356 . S
C1107 C1101 1.363 . S
C1107 C1102 1.379 . S
C1107 N1105 1.356 . S
N1108 C1100 1.356 . S
N1108 H1114 0.984 . S
N1108 H1115 0.984 . S
N1109 C1102 1.356 . S
N1109 H1112 0.984 . S
N1109 H1113 0.985 . S
H1110 N1105 0.984 . S
H1111 N1105 0.985 . S
H1112 N1109 0.984 . S
H1113 N1109 0.985 . S
H1114 N1108 0.984 . S
H1115 N1108 0.984 . S
H1116 N1104 0.984 . S
H1117 N1104 0.985 . S
C1118 C1119 1.363 . S
C1118 C1124 1.379 . S
C1118 N1126 1.356 . S
C1119 C1118 1.363 . S
C1119 C1125 1.363 . S
C1120 C1121 1.363 . S
C1120 C1125 1.379 . S
C1120 N1127 1.356 . S
C1121 C1120 1.363 . S
C1121 C1124 1.363 . S
N1122 C1124 1.356 . S
N1122 H1134 0.984 . S
N1122 H1135 0.985 . S
N1123 C1125 1.356 . S
N1123 H1128 0.984 . S
N1123 H1129 0.985 . S
C1124 C1118 1.379 . S
C1124 C1121 1.363 . S
C1124 N1122 1.356 . S
C1125 C1119 1.363 . S
C1125 C1120 1.379 . S
C1125 N1123 1.356 . S
N1126 C1118 1.356 . S
N1126 H1132 0.984 . S
N1126 H1133 0.984 . S
N1127 C1120 1.356 . S
N1127 H1130 0.984 . S
N1127 H1131 0.985 . S
H1128 N1123 0.984 . S
H1129 N1123 0.985 . S
H1130 N1127 0.984 . S
H1131 N1127 0.985 . S
H1132 N1126 0.984 . S
H1133 N1126 0.984 . S
H1134 N1122 0.984 . S
H1135 N1122 0.985 . S
C1136 C1137 1.363 . S
C1136 C1142 1.379 1_554 S
C1136 N1144 1.356 . S
C1137 C1136 1.363 . S
C1137 C1143 1.363 . S
C1138 C1139 1.363 . S
C1138 C1143 1.379 1_556 S
C1138 N1145 1.356 . S
C1139 C1138 1.363 . S
C1139 C1142 1.363 . S
N1140 C1142 1.356 . S
N1140 H1152 0.984 . S
N1140 H1153 0.985 . S
N1141 C1143 1.356 . S
N1141 H1146 0.984 . S
N1141 H1147 0.985 . S
C1142 C1136 1.379 1_556 S
C1142 C1139 1.363 . S
C1142 N1140 1.356 . S
C1143 C1137 1.363 . S
C1143 C1138 1.379 1_554 S
C1143 N1141 1.356 . S
N1144 C1136 1.356 . S
N1144 H1150 0.984 . S
N1144 H1151 0.984 . S
N1145 C1138 1.356 . S
N1145 H1148 0.984 . S
N1145 H1149 0.985 . S
H1146 N1141 0.984 . S
H1147 N1141 0.985 . S
H1148 N1145 0.984 . S
H1149 N1145 0.985 . S
H1150 N1144 0.984 . S
H1151 N1144 0.984 . S
H1152 N1140 0.984 . S
H1153 N1140 0.985 . S
C1154 C1155 1.363 . S
C1154 C1160 1.379 1_556 S
C1154 N1162 1.356 . S
C1155 C1154 1.363 . S
C1155 C1161 1.363 . S
C1156 C1157 1.363 . S
C1156 C1161 1.379 1_554 S
C1156 N1163 1.356 . S
C1157 C1156 1.363 . S
C1157 C1160 1.363 . S
N1158 C1160 1.356 . S
N1158 H1170 0.984 . S
N1158 H1171 0.985 . S
N1159 C1161 1.356 . S
N1159 H1164 0.984 . S
N1159 H1165 0.985 . S
C1160 C1154 1.379 1_554 S
C1160 C1157 1.363 . S
C1160 N1158 1.356 . S
C1161 C1155 1.363 . S
C1161 C1156 1.379 1_556 S
C1161 N1159 1.356 . S
N1162 C1154 1.356 . S
N1162 H1168 0.984 . S
N1162 H1169 0.984 . S
N1163 C1156 1.356 . S
N1163 H1166 0.984 . S
N1163 H1167 0.985 . S
H1164 N1159 0.984 . S
H1165 N1159 0.985 . S
H1166 N1163 0.984 . S
H1167 N1163 0.985 . S
H1168 N1162 0.984 . S
H1169 N1162 0.984 . S
H1170 N1158 0.984 . S
H1171 N1158 0.985 . S
C1172 C1173 1.363 . S
C1172 C1178 1.379 1_554 S
C1172 N1180 1.356 . S
C1173 C1172 1.363 . S
C1173 C1179 1.363 . S
C1174 C1175 1.363 . S
C1174 C1179 1.379 1_556 S
C1174 N1181 1.356 . S
C1175 C1174 1.363 . S
C1175 C1178 1.363 . S
N1176 C1178 1.356 . S
N1176 H1188 0.984 . S
N1176 H1189 0.985 . S
N1177 C1179 1.356 . S
N1177 H1182 0.984 . S
N1177 H1183 0.985 . S
C1178 C1172 1.379 1_556 S
C1178 C1175 1.363 . S
C1178 N1176 1.356 . S
C1179 C1173 1.363 . S
C1179 C1174 1.379 1_554 S
C1179 N1177 1.356 . S
N1180 C1172 1.356 . S
N1180 H1186 0.984 . S
N1180 H1187 0.984 . S
N1181 C1174 1.356 . S
N1181 H1184 0.984 . S
N1181 H1185 0.985 . S
H1182 N1177 0.984 . S
H1183 N1177 0.985 . S
H1184 N1181 0.984 . S
H1185 N1181 0.985 . S
H1186 N1180 0.984 . S
H1187 N1180 0.984 . S
H1188 N1176 0.984 . S
H1189 N1176 0.985 . S
C1190 C1191 1.363 . S
C1190 C1196 1.379 1_554 S
C1190 N1198 1.356 . S
C1191 C1190 1.363 . S
C1191 C1197 1.363 . S
C1192 C1193 1.363 . S
C1192 C1197 1.379 1_556 S
C1192 N1199 1.356 . S
C1193 C1192 1.363 . S
C1193 C1196 1.363 . S
N1194 C1196 1.356 . S
N1194 H1206 0.984 . S
N1194 H1207 0.985 . S
N1195 C1197 1.356 . S
N1195 H1200 0.984 . S
N1195 H1201 0.985 . S
C1196 C1190 1.379 1_556 S
C1196 C1193 1.363 . S
C1196 N1194 1.356 . S
C1197 C1191 1.363 . S
C1197 C1192 1.379 1_554 S
C1197 N1195 1.356 . S
N1198 C1190 1.356 . S
N1198 H1204 0.984 . S
N1198 H1205 0.984 . S
N1199 C1192 1.356 . S
N1199 H1202 0.984 . S
N1199 H1203 0.985 . S
H1200 N1195 0.984 . S
H1201 N1195 0.985 . S
H1202 N1199 0.984 . S
H1203 N1199 0.985 . S
H1204 N1198 0.984 . S
H1205 N1198 0.984 . S
H1206 N1194 0.984 . S
H1207 N1194 0.985 . S
C1208 C1209 1.363 . S
C1208 C1214 1.379 1_554 S
C1208 N1216 1.356 . S
C1209 C1208 1.363 . S
C1209 C1215 1.363 . S
C1210 C1211 1.363 . S
C1210 C1215 1.379 1_556 S
C1210 N1217 1.356 . S
C1211 C1210 1.363 . S
C1211 C1214 1.363 . S
N1212 C1214 1.356 . S
N1212 H1224 0.984 . S
N1212 H1225 0.985 . S
N1213 C1215 1.356 . S
N1213 H1218 0.984 . S
N1213 H1219 0.985 . S
C1214 C1208 1.379 1_556 S
C1214 C1211 1.363 . S
C1214 N1212 1.356 . S
C1215 C1209 1.363 . S
C1215 C1210 1.379 1_554 S
C1215 N1213 1.356 . S
N1216 C1208 1.356 . S
N1216 H1222 0.984 . S
N1216 H1223 0.984 . S
N1217 C1210 1.356 . S
N1217 H1220 0.984 . S
N1217 H1221 0.985 . S
H1218 N1213 0.984 . S
H1219 N1213 0.985 . S
H1220 N1217 0.984 . S
H1221 N1217 0.985 . S
H1222 N1216 0.984 . S
H1223 N1216 0.984 . S
H1224 N1212 0.984 . S
H1225 N1212 0.985 . S
C1226 C1227 1.363 . S
C1226 C1232 1.379 1_554 S
C1226 N1234 1.356 . S
C1227 C1226 1.363 . S
C1227 C1233 1.363 . S
C1228 C1229 1.363 . S
C1228 C1233 1.379 1_556 S
C1228 N1235 1.356 . S
C1229 C1228 1.363 . S
C1229 C1232 1.363 . S
N1230 C1232 1.356 . S
N1230 H1242 0.984 . S
N1230 H1243 0.985 . S
N1231 C1233 1.356 . S
N1231 H1236 0.984 . S
N1231 H1237 0.985 . S
C1232 C1226 1.379 1_556 S
C1232 C1229 1.363 . S
C1232 N1230 1.356 . S
C1233 C1227 1.363 . S
C1233 C1228 1.379 1_554 S
C1233 N1231 1.356 . S
N1234 C1226 1.356 . S
N1234 H1240 0.984 . S
N1234 H1241 0.984 . S
N1235 C1228 1.356 . S
N1235 H1238 0.984 . S
N1235 H1239 0.985 . S
H1236 N1231 0.984 . S
H1237 N1231 0.985 . S
H1238 N1235 0.984 . S
H1239 N1235 0.985 . S
H1240 N1234 0.984 . S
H1241 N1234 0.984 . S
H1242 N1230 0.984 . S
H1243 N1230 0.985 . S
C1244 C1245 1.363 . S
C1244 C1250 1.379 1_556 S
C1244 N1252 1.356 . S
C1245 C1244 1.363 . S
C1245 C1251 1.363 . S
C1246 C1247 1.363 . S
C1246 C1251 1.379 1_554 S
C1246 N1253 1.356 . S
C1247 C1246 1.363 . S
C1247 C1250 1.363 . S
N1248 C1250 1.356 . S
N1248 H1260 0.984 . S
N1248 H1261 0.985 . S
N1249 C1251 1.356 . S
N1249 H1254 0.984 . S
N1249 H1255 0.985 . S
C1250 C1244 1.379 1_554 S
C1250 C1247 1.363 . S
C1250 N1248 1.356 . S
C1251 C1245 1.363 . S
C1251 C1246 1.379 1_556 S
C1251 N1249 1.356 . S
N1252 C1244 1.356 . S
N1252 H1258 0.984 . S
N1252 H1259 0.984 . S
N1253 C1246 1.356 . S
N1253 H1256 0.984 . S
N1253 H1257 0.985 . S
H1254 N1249 0.984 . S
H1255 N1249 0.985 . S
H1256 N1253 0.984 . S
H1257 N1253 0.985 . S
H1258 N1252 0.984 . S
H1259 N1252 0.984 . S
H1260 N1248 0.984 . S
H1261 N1248 0.985 . S
C1262 C1263 1.363 . S
C1262 C1268 1.379 1_556 S
C1262 N1270 1.356 . S
C1263 C1262 1.363 . S
C1263 C1269 1.363 . S
C1264 C1265 1.363 . S
C1264 C1269 1.379 1_554 S
C1264 N1271 1.356 . S
C1265 C1264 1.363 . S
C1265 C1268 1.363 . S
N1266 C1268 1.356 . S
N1266 H1278 0.984 . S
N1266 H1279 0.985 . S
N1267 C1269 1.356 . S
N1267 H1272 0.984 . S
N1267 H1273 0.985 . S
C1268 C1262 1.379 1_554 S
C1268 C1265 1.363 . S
C1268 N1266 1.356 . S
C1269 C1263 1.363 . S
C1269 C1264 1.379 1_556 S
C1269 N1267 1.356 . S
N1270 C1262 1.356 . S
N1270 H1276 0.984 . S
N1270 H1277 0.984 . S
N1271 C1264 1.356 . S
N1271 H1274 0.984 . S
N1271 H1275 0.985 . S
H1272 N1267 0.984 . S
H1273 N1267 0.985 . S
H1274 N1271 0.984 . S
H1275 N1271 0.985 . S
H1276 N1270 0.984 . S
H1277 N1270 0.984 . S
H1278 N1266 0.984 . S
H1279 N1266 0.985 . S
C1280 C1281 1.363 . S
C1280 C1286 1.379 . S
C1280 N1288 1.356 . S
C1281 C1280 1.363 . S
C1281 C1287 1.363 . S
C1282 C1283 1.363 . S
C1282 C1287 1.379 . S
C1282 N1289 1.356 . S
C1283 C1282 1.363 . S
C1283 C1286 1.363 . S
N1284 C1286 1.356 . S
N1284 H1296 0.984 . S
N1284 H1297 0.985 . S
N1285 C1287 1.356 . S
N1285 H1290 0.984 . S
N1285 H1291 0.985 . S
C1286 C1280 1.379 . S
C1286 C1283 1.363 . S
C1286 N1284 1.356 . S
C1287 C1281 1.363 . S
C1287 C1282 1.379 . S
C1287 N1285 1.356 . S
N1288 C1280 1.356 . S
N1288 H1294 0.984 . S
N1288 H1295 0.984 . S
N1289 C1282 1.356 . S
N1289 H1292 0.984 . S
N1289 H1293 0.985 . S
H1290 N1285 0.984 . S
H1291 N1285 0.985 . S
H1292 N1289 0.984 . S
H1293 N1289 0.985 . S
H1294 N1288 0.984 . S
H1295 N1288 0.984 . S
H1296 N1284 0.984 . S
H1297 N1284 0.985 . S
C1298 C1299 1.363 . S
C1298 C1304 1.379 . S
C1298 N1306 1.356 . S
C1299 C1298 1.363 . S
C1299 C1305 1.363 . S
C1300 C1301 1.363 . S
C1300 C1305 1.379 . S
C1300 N1307 1.356 . S
C1301 C1300 1.363 . S
C1301 C1304 1.363 . S
N1302 C1304 1.356 . S
N1302 H1314 0.984 . S
N1302 H1315 0.985 . S
N1303 C1305 1.356 . S
N1303 H1308 0.984 . S
N1303 H1309 0.985 . S
C1304 C1298 1.379 . S
C1304 C1301 1.363 . S
C1304 N1302 1.356 . S
C1305 C1299 1.363 . S
C1305 C1300 1.379 . S
C1305 N1303 1.356 . S
N1306 C1298 1.356 . S
N1306 H1312 0.984 . S
N1306 H1313 0.984 . S
N1307 C1300 1.356 . S
N1307 H1310 0.984 . S
N1307 H1311 0.985 . S
H1308 N1303 0.984 . S
H1309 N1303 0.985 . S
H1310 N1307 0.984 . S
H1311 N1307 0.985 . S
H1312 N1306 0.984 . S
H1313 N1306 0.984 . S
H1314 N1302 0.984 . S
H1315 N1302 0.985 . S
C1316 C1317 1.363 . S
C1316 C1322 1.379 . S
C1316 N1324 1.356 . S
C1317 C1316 1.363 . S
C1317 C1323 1.363 . S
C1318 C1319 1.363 . S
C1318 C1323 1.379 . S
C1318 N1325 1.356 . S
C1319 C1318 1.363 . S
C1319 C1322 1.363 . S
N1320 C1322 1.356 . S
N1320 H1332 0.984 . S
N1320 H1333 0.985 . S
N1321 C1323 1.356 . S
N1321 H1326 0.984 . S
N1321 H1327 0.985 . S
C1322 C1316 1.379 . S
C1322 C1319 1.363 . S
C1322 N1320 1.356 . S
C1323 C1317 1.363 . S
C1323 C1318 1.379 . S
C1323 N1321 1.356 . S
N1324 C1316 1.356 . S
N1324 H1330 0.984 . S
N1324 H1331 0.984 . S
N1325 C1318 1.356 . S
N1325 H1328 0.984 . S
N1325 H1329 0.985 . S
H1326 N1321 0.984 . S
H1327 N1321 0.985 . S
H1328 N1325 0.984 . S
H1329 N1325 0.985 . S
H1330 N1324 0.984 . S
H1331 N1324 0.984 . S
H1332 N1320 0.984 . S
H1333 N1320 0.985 . S
C1334 C1335 1.363 . S
C1334 C1340 1.379 . S
C1334 N1342 1.356 . S
C1335 C1334 1.363 . S
C1335 C1341 1.363 . S
C1336 C1337 1.363 . S
C1336 C1341 1.379 . S
C1336 N1343 1.356 . S
C1337 C1336 1.363 . S
C1337 C1340 1.363 . S
N1338 C1340 1.356 . S
N1338 H1350 0.984 . S
N1338 H1351 0.985 . S
N1339 C1341 1.356 . S
N1339 H1344 0.984 . S
N1339 H1345 0.985 . S
C1340 C1334 1.379 . S
C1340 C1337 1.363 . S
C1340 N1338 1.356 . S
C1341 C1335 1.363 . S
C1341 C1336 1.379 . S
C1341 N1339 1.356 . S
N1342 C1334 1.356 . S
N1342 H1348 0.984 . S
N1342 H1349 0.984 . S
N1343 C1336 1.356 . S
N1343 H1346 0.984 . S
N1343 H1347 0.985 . S
H1344 N1339 0.984 . S
H1345 N1339 0.985 . S
H1346 N1343 0.984 . S
H1347 N1343 0.985 . S
H1348 N1342 0.984 . S
H1349 N1342 0.984 . S
H1350 N1338 0.984 . S
H1351 N1338 0.985 . S
C1352 C1353 1.363 . S
C1352 C1358 1.379 . S
C1352 N1360 1.356 . S
C1353 C1352 1.363 . S
C1353 C1359 1.363 . S
C1354 C1355 1.363 . S
C1354 C1359 1.379 . S
C1354 N1361 1.356 . S
C1355 C1354 1.363 . S
C1355 C1358 1.363 . S
N1356 C1358 1.356 . S
N1356 H1368 0.984 . S
N1356 H1369 0.985 . S
N1357 C1359 1.356 . S
N1357 H1362 0.984 . S
N1357 H1363 0.985 . S
C1358 C1352 1.379 . S
C1358 C1355 1.363 . S
C1358 N1356 1.356 . S
C1359 C1353 1.363 . S
C1359 C1354 1.379 . S
C1359 N1357 1.356 . S
N1360 C1352 1.356 . S
N1360 H1366 0.984 . S
N1360 H1367 0.984 . S
N1361 C1354 1.356 . S
N1361 H1364 0.984 . S
N1361 H1365 0.985 . S
H1362 N1357 0.984 . S
H1363 N1357 0.985 . S
H1364 N1361 0.984 . S
H1365 N1361 0.985 . S
H1366 N1360 0.984 . S
H1367 N1360 0.984 . S
H1368 N1356 0.984 . S
H1369 N1356 0.985 . S
C1370 C1371 1.363 . S
C1370 C1376 1.379 . S
C1370 N1378 1.356 . S
C1371 C1370 1.363 . S
C1371 C1377 1.363 . S
C1372 C1373 1.363 . S
C1372 C1377 1.379 . S
C1372 N1379 1.356 . S
C1373 C1372 1.363 . S
C1373 C1376 1.363 . S
N1374 C1376 1.356 . S
N1374 H1386 0.984 . S
N1374 H1387 0.985 . S
N1375 C1377 1.356 . S
N1375 H1380 0.984 . S
N1375 H1381 0.985 . S
C1376 C1370 1.379 . S
C1376 C1373 1.363 . S
C1376 N1374 1.356 . S
C1377 C1371 1.363 . S
C1377 C1372 1.379 . S
C1377 N1375 1.356 . S
N1378 C1370 1.356 . S
N1378 H1384 0.984 . S
N1378 H1385 0.984 . S
N1379 C1372 1.356 . S
N1379 H1382 0.984 . S
N1379 H1383 0.985 . S
H1380 N1375 0.984 . S
H1381 N1375 0.985 . S
H1382 N1379 0.984 . S
H1383 N1379 0.985 . S
H1384 N1378 0.984 . S
H1385 N1378 0.984 . S
H1386 N1374 0.984 . S
H1387 N1374 0.985 . S
C1388 C1389 1.363 . S
C1388 C1394 1.379 . S
C1388 N1396 1.356 . S
C1389 C1388 1.363 . S
C1389 C1395 1.363 . S
C1390 C1391 1.363 . S
C1390 C1395 1.379 . S
C1390 N1397 1.356 . S
C1391 C1390 1.363 . S
C1391 C1394 1.363 . S
N1392 C1394 1.356 . S
N1392 H1404 0.984 . S
N1392 H1405 0.985 . S
N1393 C1395 1.356 . S
N1393 H1398 0.984 . S
N1393 H1399 0.985 . S
C1394 C1388 1.379 . S
C1394 C1391 1.363 . S
C1394 N1392 1.356 . S
C1395 C1389 1.363 . S
C1395 C1390 1.379 . S
C1395 N1393 1.356 . S
N1396 C1388 1.356 . S
N1396 H1402 0.984 . S
N1396 H1403 0.984 . S
N1397 C1390 1.356 . S
N1397 H1400 0.984 . S
N1397 H1401 0.985 . S
H1398 N1393 0.984 . S
H1399 N1393 0.985 . S
H1400 N1397 0.984 . S
H1401 N1397 0.985 . S
H1402 N1396 0.984 . S
H1403 N1396 0.984 . S
H1404 N1392 0.984 . S
H1405 N1392 0.985 . S
C1406 C1407 1.363 . S
C1406 C1412 1.379 . S
C1406 N1414 1.356 . S
C1407 C1406 1.363 . S
C1407 C1413 1.363 . S
C1408 C1409 1.363 . S
C1408 C1413 1.379 . S
C1408 N1415 1.356 . S
C1409 C1408 1.363 . S
C1409 C1412 1.363 . S
N1410 C1412 1.356 . S
N1410 H1422 0.984 . S
N1410 H1423 0.985 . S
N1411 C1413 1.356 . S
N1411 H1416 0.984 . S
N1411 H1417 0.985 . S
C1412 C1406 1.379 . S
C1412 C1409 1.363 . S
C1412 N1410 1.356 . S
C1413 C1407 1.363 . S
C1413 C1408 1.379 . S
C1413 N1411 1.356 . S
N1414 C1406 1.356 . S
N1414 H1420 0.984 . S
N1414 H1421 0.984 . S
N1415 C1408 1.356 . S
N1415 H1418 0.984 . S
N1415 H1419 0.985 . S
H1416 N1411 0.984 . S
H1417 N1411 0.985 . S
H1418 N1415 0.984 . S
H1419 N1415 0.985 . S
H1420 N1414 0.984 . S
H1421 N1414 0.984 . S
H1422 N1410 0.984 . S
H1423 N1410 0.985 . S
C1424 C1425 1.363 . S
C1424 C1430 1.379 . S
C1424 N1432 1.356 . S
C1425 C1424 1.363 . S
C1425 C1431 1.363 . S
C1426 C1427 1.363 . S
C1426 C1431 1.379 . S
C1426 N1433 1.356 . S
C1427 C1426 1.363 . S
C1427 C1430 1.363 . S
N1428 C1430 1.356 . S
N1428 H1440 0.984 . S
N1428 H1441 0.985 . S
N1429 C1431 1.356 . S
N1429 H1434 0.984 . S
N1429 H1435 0.985 . S
C1430 C1424 1.379 . S
C1430 C1427 1.363 . S
C1430 N1428 1.356 . S
C1431 C1425 1.363 . S
C1431 C1426 1.379 . S
C1431 N1429 1.356 . S
N1432 C1424 1.356 . S
N1432 H1438 0.984 . S
N1432 H1439 0.984 . S
N1433 C1426 1.356 . S
N1433 H1436 0.984 . S
N1433 H1437 0.985 . S
H1434 N1429 0.984 . S
H1435 N1429 0.985 . S
H1436 N1433 0.984 . S
H1437 N1433 0.985 . S
H1438 N1432 0.984 . S
H1439 N1432 0.984 . S
H1440 N1428 0.984 . S
H1441 N1428 0.985 . S
C1442 C1443 1.363 . S
C1442 C1448 1.379 . S
C1442 N1450 1.356 . S
C1443 C1442 1.363 . S
C1443 C1449 1.363 . S
C1444 C1445 1.363 . S
C1444 C1449 1.379 . S
C1444 N1451 1.356 . S
C1445 C1444 1.363 . S
C1445 C1448 1.363 . S
N1446 C1448 1.356 . S
N1446 H1458 0.984 . S
N1446 H1459 0.985 . S
N1447 C1449 1.356 . S
N1447 H1452 0.984 . S
N1447 H1453 0.985 . S
C1448 C1442 1.379 . S
C1448 C1445 1.363 . S
C1448 N1446 1.356 . S
C1449 C1443 1.363 . S
C1449 C1444 1.379 . S
C1449 N1447 1.356 . S
N1450 C1442 1.356 . S
N1450 H1456 0.984 . S
N1450 H1457 0.984 . S
N1451 C1444 1.356 . S
N1451 H1454 0.984 . S
N1451 H1455 0.985 . S
H1452 N1447 0.984 . S
H1453 N1447 0.985 . S
H1454 N1451 0.984 . S
H1455 N1451 0.985 . S
H1456 N1450 0.984 . S
H1457 N1450 0.984 . S
H1458 N1446 0.984 . S
H1459 N1446 0.985 . S
C1460 C1461 1.363 . S
C1460 C1466 1.379 . S
C1460 N1468 1.356 . S
C1461 C1460 1.363 . S
C1461 C1467 1.363 . S
C1462 C1463 1.363 . S
C1462 C1467 1.379 . S
C1462 N1469 1.356 . S
C1463 C1462 1.363 . S
C1463 C1466 1.363 . S
N1464 C1466 1.356 . S
N1464 H1476 0.984 . S
N1464 H1477 0.985 . S
N1465 C1467 1.356 . S
N1465 H1470 0.984 . S
N1465 H1471 0.985 . S
C1466 C1460 1.379 . S
C1466 C1463 1.363 . S
C1466 N1464 1.356 . S
C1467 C1461 1.363 . S
C1467 C1462 1.379 . S
C1467 N1465 1.356 . S
N1468 C1460 1.356 . S
N1468 H1474 0.984 . S
N1468 H1475 0.984 . S
N1469 C1462 1.356 . S
N1469 H1472 0.984 . S
N1469 H1473 0.985 . S
H1470 N1465 0.984 . S
H1471 N1465 0.985 . S
H1472 N1469 0.984 . S
H1473 N1469 0.985 . S
H1474 N1468 0.984 . S
H1475 N1468 0.984 . S
H1476 N1464 0.984 . S
H1477 N1464 0.985 . S
C1478 C1479 1.363 . S
C1478 C1484 1.379 . S
C1478 N1486 1.356 . S
C1479 C1478 1.363 . S
C1479 C1485 1.363 . S
C1480 C1481 1.363 . S
C1480 C1485 1.379 . S
C1480 N1487 1.356 . S
C1481 C1480 1.363 . S
C1481 C1484 1.363 . S
N1482 C1484 1.356 . S
N1482 H1494 0.984 . S
N1482 H1495 0.985 . S
N1483 C1485 1.356 . S
N1483 H1488 0.984 . S
N1483 H1489 0.985 . S
C1484 C1478 1.379 . S
C1484 C1481 1.363 . S
C1484 N1482 1.356 . S
C1485 C1479 1.363 . S
C1485 C1480 1.379 . S
C1485 N1483 1.356 . S
N1486 C1478 1.356 . S
N1486 H1492 0.984 . S
N1486 H1493 0.984 . S
N1487 C1480 1.356 . S
N1487 H1490 0.984 . S
N1487 H1491 0.985 . S
H1488 N1483 0.984 . S
H1489 N1483 0.985 . S
H1490 N1487 0.984 . S
H1491 N1487 0.985 . S
H1492 N1486 0.984 . S
H1493 N1486 0.984 . S
H1494 N1482 0.984 . S
H1495 N1482 0.985 . S
C1496 C1497 1.363 . S
C1496 C1502 1.379 . S
C1496 N1504 1.356 . S
C1497 C1496 1.363 . S
C1497 C1503 1.363 . S
C1498 C1499 1.363 . S
C1498 C1503 1.379 . S
C1498 N1505 1.356 . S
C1499 C1498 1.363 . S
C1499 C1502 1.363 . S
N1500 C1502 1.356 . S
N1500 H1512 0.984 . S
N1500 H1513 0.985 . S
N1501 C1503 1.356 . S
N1501 H1506 0.984 . S
N1501 H1507 0.985 . S
C1502 C1496 1.379 . S
C1502 C1499 1.363 . S
C1502 N1500 1.356 . S
C1503 C1497 1.363 . S
C1503 C1498 1.379 . S
C1503 N1501 1.356 . S
N1504 C1496 1.356 . S
N1504 H1510 0.984 . S
N1504 H1511 0.984 . S
N1505 C1498 1.356 . S
N1505 H1508 0.984 . S
N1505 H1509 0.985 . S
H1506 N1501 0.984 . S
H1507 N1501 0.985 . S
H1508 N1505 0.984 . S
H1509 N1505 0.985 . S
H1510 N1504 0.984 . S
H1511 N1504 0.984 . S
H1512 N1500 0.984 . S
H1513 N1500 0.985 . S
C1514 C1515 1.363 . S
C1514 C1520 1.379 . S
C1514 N1522 1.356 . S
C1515 C1514 1.363 . S
C1515 C1521 1.363 . S
C1516 C1517 1.363 . S
C1516 C1521 1.379 . S
C1516 N1523 1.356 . S
C1517 C1516 1.363 . S
C1517 C1520 1.363 . S
N1518 C1520 1.356 . S
N1518 H1530 0.984 . S
N1518 H1531 0.985 . S
N1519 C1521 1.356 . S
N1519 H1524 0.984 . S
N1519 H1525 0.985 . S
C1520 C1514 1.379 . S
C1520 C1517 1.363 . S
C1520 N1518 1.356 . S
C1521 C1515 1.363 . S
C1521 C1516 1.379 . S
C1521 N1519 1.356 . S
N1522 C1514 1.356 . S
N1522 H1528 0.984 . S
N1522 H1529 0.984 . S
N1523 C1516 1.356 . S
N1523 H1526 0.984 . S
N1523 H1527 0.985 . S
H1524 N1519 0.984 . S
H1525 N1519 0.985 . S
H1526 N1523 0.984 . S
H1527 N1523 0.985 . S
H1528 N1522 0.984 . S
H1529 N1522 0.984 . S
H1530 N1518 0.984 . S
H1531 N1518 0.985 . S
C1532 C1533 1.363 . S
C1532 C1538 1.379 . S
C1532 N1540 1.356 . S
C1533 C1532 1.363 . S
C1533 C1539 1.363 . S
C1534 C1535 1.363 . S
C1534 C1539 1.379 . S
C1534 N1541 1.356 . S
C1535 C1534 1.363 . S
C1535 C1538 1.363 . S
N1536 C1538 1.356 . S
N1536 H1548 0.984 . S
N1536 H1549 0.985 . S
N1537 C1539 1.356 . S
N1537 H1542 0.984 . S
N1537 H1543 0.985 . S
C1538 C1532 1.379 . S
C1538 C1535 1.363 . S
C1538 N1536 1.356 . S
C1539 C1533 1.363 . S
C1539 C1534 1.379 . S
C1539 N1537 1.356 . S
N1540 C1532 1.356 . S
N1540 H1546 0.984 . S
N1540 H1547 0.984 . S
N1541 C1534 1.356 . S
N1541 H1544 0.984 . S
N1541 H1545 0.985 . S
H1542 N1537 0.984 . S
H1543 N1537 0.985 . S
H1544 N1541 0.984 . S
H1545 N1541 0.985 . S
H1546 N1540 0.984 . S
H1547 N1540 0.984 . S
H1548 N1536 0.984 . S
H1549 N1536 0.985 . S
C1550 C1551 1.363 . S
C1550 C1556 1.379 . S
C1550 N1558 1.356 . S
C1551 C1550 1.363 . S
C1551 C1557 1.363 . S
C1552 C1553 1.363 . S
C1552 C1557 1.379 . S
C1552 N1559 1.356 . S
C1553 C1552 1.363 . S
C1553 C1556 1.363 . S
N1554 C1556 1.356 . S
N1554 H1566 0.984 . S
N1554 H1567 0.985 . S
N1555 C1557 1.356 . S
N1555 H1560 0.984 . S
N1555 H1561 0.985 . S
C1556 C1550 1.379 . S
C1556 C1553 1.363 . S
C1556 N1554 1.356 . S
C1557 C1551 1.363 . S
C1557 C1552 1.379 . S
C1557 N1555 1.356 . S
N1558 C1550 1.356 . S
N1558 H1564 0.984 . S
N1558 H1565 0.984 . S
N1559 C1552 1.356 . S
N1559 H1562 0.984 . S
N1559 H1563 0.985 . S
H1560 N1555 0.984 . S
H1561 N1555 0.985 . S
H1562 N1559 0.984 . S
H1563 N1559 0.985 . S
H1564 N1558 0.984 . S
H1565 N1558 0.984 . S
H1566 N1554 0.984 . S
H1567 N1554 0.985 . S
C417 C199 1.546 . S
C419 C4 1.546 . S
C435 C23 1.546 . S
C437 C166 1.546 . S
C453 C30 1.546 . S
C455 C173 1.546 . S
C471 C192 1.546 . S
C473 C43 1.546 . S
C489 C62 1.546 . S
C491 C127 1.546 . S
C507 C69 1.546 . S
C509 C140 1.546 . S
C525 C147 1.546 . S
C527 C88 1.546 . S
C543 C114 1.546 . S
C545 C95 1.546 . S
C561 C212 1.546 . S
C563 C407 1.546 . S
C579 C225 1.546 . S
C581 C374 1.546 . S
C597 C238 1.546 . S
C599 C381 1.546 . S
C615 C394 1.546 . S
C617 C251 1.546 . S
C633 C264 1.546 . S
C635 C329 1.546 . S
C651 C283 1.546 . S
C653 C342 1.546 . S
C669 C355 1.546 . S
C671 C290 1.546 . S
C687 C303 1.546 . S
C689 C316 1.546 . S
C705 C159 1.481 . S
C707 C5 1.481 . S
C723 C16 1.481 . S
C725 C174 1.481 . S
C741 C185 1.481 . S
C743 C31 1.481 . S
C759 C44 1.481 . S
C761 C200 1.481 . S
C777 C55 1.481 . S
C779 C107 1.481 . S
C795 C120 1.481 . S
C797 C70 1.481 . S
C813 C133 1.481 . S
C815 C81 1.481 . S
C831 C148 1.481 . S
C833 C96 1.481 . S
C849 C213 1.481 . S
C851 C367 1.481 . S
C867 C382 1.481 . S
C869 C226 1.481 . S
C885 C239 1.481 . S
C887 C395 1.481 . S
C903 C252 1.481 . S
C905 C408 1.481 . S
C921 C317 1.481 . S
C923 C265 1.481 . S
C939 C276 1.481 . S
C941 C330 1.481 . S
C957 C291 1.481 . S
C959 C343 1.481 . S
C975 C304 1.481 . S
C977 C356 1.481 . S
C993 C3 1.471 . S
C995 C135 1.471 . S
C1011 C146 1.471 . S
C1013 C18 1.471 . S
C1029 C29 1.471 . S
C1031 C109 1.471 . S
C1047 C122 1.471 . S
C1049 C42 1.471 . S
C1065 C187 1.471 . S
C1067 C57 1.471 . S
C1083 C198 1.471 . S
C1085 C68 1.471 . S
C1101 C161 1.471 . S
C1103 C83 1.471 . S
C1119 C94 1.471 . S
C1121 C172 1.471 . S
C1137 C341 1.471 . S
C1139 C211 1.471 . S
C1155 C224 1.471 . S
C1157 C354 1.471 . S
C1173 C315 1.471 . S
C1175 C237 1.471 . S
C1191 C328 1.471 . S
C1193 C250 1.471 . S
C1209 C263 1.471 . S
C1211 C393 1.471 . S
C1227 C278 1.471 . S
C1229 C406 1.471 . S
C1245 C369 1.471 . S
C1247 C289 1.471 . S
C1263 C380 1.471 . S
C1265 C302 1.471 . S
C1281 C309 1.388 . S
C1283 C10 1.388 . S
C1299 C270 1.388 . S
C1301 C17 1.388 . S
C1317 C277 1.388 . S
C1319 C36 1.388 . S
C1335 C296 1.388 . S
C1337 C49 1.388 . S
C1353 C231 1.388 . S
C1355 C56 1.388 . S
C1371 C75 1.388 . S
C1373 C244 1.388 . S
C1389 C82 1.388 . S
C1391 C257 1.388 . S
C1407 C101 1.388 . S
C1409 C218 1.388 . S
C1425 C108 1.388 . S
C1427 C413 1.388 . S
C1443 C368 1.388 . S
C1445 C121 1.388 . S
C1461 C134 1.388 . S
C1463 C387 1.388 . S
C1479 C153 1.388 . S
C1481 C400 1.388 . S
C1497 C335 1.388 . S
C1499 C160 1.388 . S
C1515 C348 1.388 . S
C1517 C179 1.388 . S
C1533 C186 1.388 . S
C1535 C361 1.388 . S
C1551 C205 1.388 . S
C1553 C322 1.388 . S
