# Generated by pormake.
# Topology whd, (6)-cn, num edge types: 1
# Building blocks:
#     Node 0, Type 0, BuildingBlock: OJICUG_clean_sbu_0, # of connection points: 6
#     Node 1, Type 0, BuildingBlock: OJICUG_clean_sbu_0, # of connection points: 6
#     Node 2, Type 0, BuildingBlock: OJICUG_clean_sbu_0, # of connection points: 6
#     Node 3, Type 0, BuildingBlock: OJICUG_clean_sbu_0, # of connection points: 6
#     Node 4, Type 0, BuildingBlock: OJICUG_clean_sbu_0, # of connection points: 6
#     Node 5, Type 0, BuildingBlock: OJICUG_clean_sbu_0, # of connection points: 6
#     Node 6, Type 0, BuildingBlock: OJICUG_clean_sbu_0, # of connection points: 6
#     Node 7, Type 0, BuildingBlock: OJICUG_clean_sbu_0, # of connection points: 6
#     Node 8, Type 0, BuildingBlock: OJICUG_clean_sbu_0, # of connection points: 6
#     Node 9, Type 0, BuildingBlock: OJICUG_clean_sbu_0, # of connection points: 6
#     Node 10, Type 0, BuildingBlock: OJICUG_clean_sbu_0, # of connection points: 6
#     Node 11, Type 0, BuildingBlock: OJICUG_clean_sbu_0, # of connection points: 6
#     Node 12, Type 0, BuildingBlock: OJICUG_clean_sbu_0, # of connection points: 6
#     Node 13, Type 0, BuildingBlock: OJICUG_clean_sbu_0, # of connection points: 6
#     Node 14, Type 0, BuildingBlock: OJICUG_clean_sbu_0, # of connection points: 6
#     Node 15, Type 0, BuildingBlock: OJICUG_clean_sbu_0, # of connection points: 6
#     Edge 16, Type (0, 0), BuildingBlock: ZUJKAS_clean_linker_0, # of connection points: 2
#     Edge 17, Type (0, 0), BuildingBlock: ZUJKAS_clean_linker_0, # of connection points: 2
#     Edge 18, Type (0, 0), BuildingBlock: ZUJKAS_clean_linker_0, # of connection points: 2
#     Edge 19, Type (0, 0), BuildingBlock: ZUJKAS_clean_linker_0, # of connection points: 2
#     Edge 20, Type (0, 0), BuildingBlock: ZUJKAS_clean_linker_0, # of connection points: 2
#     Edge 21, Type (0, 0), BuildingBlock: ZUJKAS_clean_linker_0, # of connection points: 2
#     Edge 22, Type (0, 0), BuildingBlock: ZUJKAS_clean_linker_0, # of connection points: 2
#     Edge 23, Type (0, 0), BuildingBlock: ZUJKAS_clean_linker_0, # of connection points: 2
#     Edge 24, Type (0, 0), BuildingBlock: ZUJKAS_clean_linker_0, # of connection points: 2
#     Edge 25, Type (0, 0), BuildingBlock: ZUJKAS_clean_linker_0, # of connection points: 2
#     Edge 26, Type (0, 0), BuildingBlock: ZUJKAS_clean_linker_0, # of connection points: 2
#     Edge 27, Type (0, 0), BuildingBlock: ZUJKAS_clean_linker_0, # of connection points: 2
#     Edge 28, Type (0, 0), BuildingBlock: ZUJKAS_clean_linker_0, # of connection points: 2
#     Edge 29, Type (0, 0), BuildingBlock: ZUJKAS_clean_linker_0, # of connection points: 2
#     Edge 30, Type (0, 0), BuildingBlock: ZUJKAS_clean_linker_0, # of connection points: 2
#     Edge 31, Type (0, 0), BuildingBlock: ZUJKAS_clean_linker_0, # of connection points: 2
#     Edge 32, Type (0, 0), BuildingBlock: ZUJKAS_clean_linker_0, # of connection points: 2
#     Edge 33, Type (0, 0), BuildingBlock: ZUJKAS_clean_linker_0, # of connection points: 2
#     Edge 34, Type (0, 0), BuildingBlock: ZUJKAS_clean_linker_0, # of connection points: 2
#     Edge 35, Type (0, 0), BuildingBlock: ZUJKAS_clean_linker_0, # of connection points: 2
#     Edge 36, Type (0, 0), BuildingBlock: ZUJKAS_clean_linker_0, # of connection points: 2
#     Edge 37, Type (0, 0), BuildingBlock: ZUJKAS_clean_linker_0, # of connection points: 2
#     Edge 38, Type (0, 0), BuildingBlock: ZUJKAS_clean_linker_0, # of connection points: 2
#     Edge 39, Type (0, 0), BuildingBlock: ZUJKAS_clean_linker_0, # of connection points: 2
#     Edge 40, Type (0, 0), BuildingBlock: ZUJKAS_clean_linker_0, # of connection points: 2
#     Edge 41, Type (0, 0), BuildingBlock: ZUJKAS_clean_linker_0, # of connection points: 2
#     Edge 42, Type (0, 0), BuildingBlock: ZUJKAS_clean_linker_0, # of connection points: 2
#     Edge 43, Type (0, 0), BuildingBlock: ZUJKAS_clean_linker_0, # of connection points: 2
#     Edge 44, Type (0, 0), BuildingBlock: ZUJKAS_clean_linker_0, # of connection points: 2
#     Edge 45, Type (0, 0), BuildingBlock: ZUJKAS_clean_linker_0, # of connection points: 2
#     Edge 46, Type (0, 0), BuildingBlock: ZUJKAS_clean_linker_0, # of connection points: 2
#     Edge 47, Type (0, 0), BuildingBlock: ZUJKAS_clean_linker_0, # of connection points: 2
#     Edge 48, Type (0, 0), BuildingBlock: ZUJKAS_clean_linker_0, # of connection points: 2
#     Edge 49, Type (0, 0), BuildingBlock: ZUJKAS_clean_linker_0, # of connection points: 2
#     Edge 50, Type (0, 0), BuildingBlock: ZUJKAS_clean_linker_0, # of connection points: 2
#     Edge 51, Type (0, 0), BuildingBlock: ZUJKAS_clean_linker_0, # of connection points: 2
#     Edge 52, Type (0, 0), BuildingBlock: ZUJKAS_clean_linker_0, # of connection points: 2
#     Edge 53, Type (0, 0), BuildingBlock: ZUJKAS_clean_linker_0, # of connection points: 2
#     Edge 54, Type (0, 0), BuildingBlock: ZUJKAS_clean_linker_0, # of connection points: 2
#     Edge 55, Type (0, 0), BuildingBlock: ZUJKAS_clean_linker_0, # of connection points: 2
#     Edge 56, Type (0, 0), BuildingBlock: ZUJKAS_clean_linker_0, # of connection points: 2
#     Edge 57, Type (0, 0), BuildingBlock: ZUJKAS_clean_linker_0, # of connection points: 2
#     Edge 58, Type (0, 0), BuildingBlock: ZUJKAS_clean_linker_0, # of connection points: 2
#     Edge 59, Type (0, 0), BuildingBlock: ZUJKAS_clean_linker_0, # of connection points: 2
#     Edge 60, Type (0, 0), BuildingBlock: ZUJKAS_clean_linker_0, # of connection points: 2
#     Edge 61, Type (0, 0), BuildingBlock: ZUJKAS_clean_linker_0, # of connection points: 2
#     Edge 62, Type (0, 0), BuildingBlock: ZUJKAS_clean_linker_0, # of connection points: 2
#     Edge 63, Type (0, 0), BuildingBlock: ZUJKAS_clean_linker_0, # of connection points: 2
# Relax obj value: 0.256
# Max RMSD: 0.229
# Mean RMSD: 0.229
data_MOF--net-whd--node1-OJICUG_clean_sbu_0--edge1-ZUJKAS_clean_linker_0
_symmetry_space_group_name_H-M    P1
_symmetry_Int_Tables_number       1
_symmetry_cell_setting            triclinic
loop_
_symmetry_equiv_pos_as_xyz
'x, y, z'
_cell_length_a     65.854893
_cell_length_b     65.88482
_cell_length_c     38.954413
_cell_angle_alpha  90.000916
_cell_angle_beta   89.985083
_cell_angle_gamma 89.94649
loop_
_atom_site_label
_atom_site_type_symbol
_atom_site_fract_x
_atom_site_fract_y
_atom_site_fract_z
_atom_type_partial_charge
Sc0 Sc 0.17499 0.3596 0.34602 0.0
Sc1 Sc 0.19794 0.40326 0.31105 0.0
Sc2 Sc 0.15801 0.4081 0.37064 0.0
O3 O 0.17693 0.39031 0.34252 0.0
C4 C 0.12835 0.37329 0.34498 0.0
C5 C 0.18282 0.36581 0.26592 0.0
C6 C 0.1603 0.43244 0.29967 0.0
C7 C 0.22284 0.36714 0.34472 0.0
C8 C 0.16712 0.37213 0.42361 0.0
C9 C 0.20022 0.4311 0.3779 0.0
O10 O 0.14238 0.36012 0.34182 0.0
O11 O 0.1914 0.38294 0.26936 0.0
O12 O 0.15262 0.42895 0.32901 0.0
O13 O 0.20735 0.35628 0.35112 0.0
O14 O 0.16064 0.38976 0.41617 0.0
O15 O 0.20712 0.425 0.34924 0.0
O16 O 0.17351 0.35975 0.4011 0.0
O17 O 0.22176 0.3843 0.33006 0.0
O18 O 0.1829 0.42591 0.38939 0.0
O19 O 0.17603 0.35569 0.29119 0.0
O20 O 0.13167 0.3915 0.35428 0.0
O21 O 0.17628 0.42374 0.28894 0.0
Sc22 Sc 0.36269 0.82237 0.6492 0.0
Sc23 Sc 0.40426 0.79298 0.67706 0.0
Sc24 Sc 0.41184 0.83457 0.62121 0.0
O25 O 0.39296 0.81668 0.64923 0.0
C26 C 0.37365 0.83206 0.57127 0.0
C27 C 0.36389 0.77436 0.64518 0.0
C28 C 0.42873 0.78982 0.60687 0.0
C29 C 0.37095 0.81074 0.72779 0.0
C30 C 0.3816 0.8668 0.65436 0.0
C31 C 0.43859 0.82636 0.68811 0.0
O32 O 0.36115 0.82726 0.59469 0.0
O33 O 0.38079 0.7726 0.66052 0.0
O34 O 0.42644 0.80845 0.59906 0.0
O35 O 0.36023 0.8183 0.70387 0.0
O36 O 0.39854 0.86219 0.64069 0.0
O37 O 0.42931 0.81029 0.69686 0.0
O38 O 0.36738 0.85405 0.65906 0.0
O39 O 0.38757 0.80148 0.72225 0.0
O40 O 0.43389 0.83653 0.6616 0.0
O41 O 0.35557 0.79133 0.63884 0.0
O42 O 0.39234 0.83518 0.57707 0.0
O43 O 0.42196 0.78211 0.63449 0.0
Sc44 Sc 0.81752 0.62673 0.34532 0.0
Sc45 Sc 0.791 0.58373 0.31521 0.0
Sc46 Sc 0.83151 0.5782 0.37383 0.0
O47 O 0.81337 0.5962 0.3447 0.0
C48 C 0.86299 0.60996 0.34308 0.0
C49 C 0.80805 0.61831 0.266 0.0
C50 C 0.82644 0.5514 0.30606 0.0
C51 C 0.76943 0.62285 0.34608 0.0
C52 C 0.82577 0.61613 0.42373 0.0
C53 C 0.7876 0.55881 0.38506 0.0
O54 O 0.84978 0.62379 0.33843 0.0
O55 O 0.79917 0.60144 0.2709 0.0
O56 O 0.83535 0.55621 0.33376 0.0
O57 O 0.7858 0.6322 0.35278 0.0
O58 O 0.83036 0.59775 0.41792 0.0
O59 O 0.78037 0.56489 0.3566 0.0
O60 O 0.82055 0.62836 0.40017 0.0
O61 O 0.76889 0.6057 0.33128 0.0
O62 O 0.80572 0.56248 0.39457 0.0
O63 O 0.81501 0.62907 0.29038 0.0
O64 O 0.85871 0.59263 0.35548 0.0
O65 O 0.81034 0.56008 0.29577 0.0
Sc66 Sc 0.62808 0.171 0.65192 0.0
Sc67 Sc 0.58418 0.19686 0.6796 0.0
Sc68 Sc 0.58013 0.15655 0.62042 0.0
O69 O 0.59745 0.17475 0.6507 0.0
C70 C 0.61888 0.16342 0.57266 0.0
C71 C 0.62405 0.21899 0.65242 0.0
C72 C 0.56081 0.20057 0.60849 0.0
C73 C 0.61746 0.1794 0.73078 0.0
C74 C 0.61194 0.1253 0.65194 0.0
C75 C 0.55175 0.16121 0.6863 0.0
O76 O 0.63072 0.16824 0.59704 0.0
O77 O 0.60659 0.21905 0.66618 0.0
O78 O 0.56416 0.18226 0.59969 0.0
O79 O 0.62924 0.17335 0.70702 0.0
O80 O 0.5949 0.12933 0.63814 0.0
O81 O 0.55989 0.17761 0.69636 0.0
O82 O 0.62529 0.13872 0.65835 0.0
O83 O 0.60041 0.18778 0.72496 0.0
O84 O 0.55751 0.15187 0.6595 0.0
O85 O 0.63364 0.20279 0.64537 0.0
O86 O 0.6004 0.15875 0.57738 0.0
O87 O 0.5668 0.20799 0.63685 0.0
Sc88 Sc 0.15735 0.57713 0.62776 0.0
Sc89 Sc 0.19976 0.58476 0.6814 0.0
Sc90 Sc 0.1703 0.6263 0.65385 0.0
O91 O 0.17577 0.59603 0.65443 0.0
C92 C 0.15987 0.61421 0.57634 0.0
C93 C 0.20165 0.55877 0.61322 0.0
C94 C 0.21804 0.62458 0.64678 0.0
C95 C 0.16542 0.55161 0.69547 0.0
C96 C 0.12582 0.60862 0.66047 0.0
C97 C 0.18372 0.61878 0.73182 0.0
O98 O 0.15839 0.59532 0.58212 0.0
O99 O 0.2103 0.56713 0.63866 0.0
O100 O 0.20099 0.63257 0.63982 0.0
O101 O 0.15423 0.55693 0.67051 0.0
O102 O 0.13899 0.62214 0.66723 0.0
O103 O 0.19153 0.60141 0.72668 0.0
O104 O 0.13006 0.59215 0.64497 0.0
O105 O 0.18261 0.55959 0.70155 0.0
O106 O 0.17673 0.62979 0.70777 0.0
O107 O 0.1827 0.56036 0.6074 0.0
O108 O 0.16315 0.62708 0.59996 0.0
O109 O 0.21994 0.60836 0.66414 0.0
Sc110 Sc 0.57924 0.83381 0.37404 0.0
Sc111 Sc 0.58405 0.79508 0.31194 0.0
Sc112 Sc 0.62741 0.82022 0.34338 0.0
O113 O 0.59686 0.81642 0.34303 0.0
C114 C 0.61167 0.86567 0.34536 0.0
C115 C 0.55255 0.83172 0.3059 0.0
C116 C 0.61874 0.81214 0.26367 0.0
C117 C 0.55888 0.7899 0.38087 0.0
C118 C 0.61707 0.82658 0.42283 0.0
C119 C 0.6229 0.77244 0.34198 0.0
O120 O 0.59504 0.8613 0.3603 0.0
O121 O 0.56021 0.81515 0.29531 0.0
O122 O 0.63013 0.8173 0.28849 0.0
O123 O 0.56211 0.80794 0.39112 0.0
O124 O 0.62934 0.82374 0.39816 0.0
O125 O 0.60633 0.77249 0.32527 0.0
O126 O 0.59823 0.82957 0.41824 0.0
O127 O 0.56569 0.78303 0.35268 0.0
O128 O 0.63206 0.78848 0.35122 0.0
O129 O 0.55809 0.84027 0.33356 0.0
O130 O 0.62464 0.85239 0.33629 0.0
O131 O 0.60111 0.80479 0.26796 0.0
Sc132 Sc 0.83321 0.40807 0.62267 0.0
Sc133 Sc 0.7931 0.40334 0.68209 0.0
Sc134 Sc 0.81954 0.35987 0.65395 0.0
O135 O 0.81533 0.39044 0.65296 0.0
C136 C 0.82716 0.36924 0.57473 0.0
C137 C 0.78906 0.42711 0.61135 0.0
C138 C 0.77142 0.36342 0.65427 0.0
C139 C 0.82832 0.43613 0.68903 0.0
C140 C 0.86498 0.3767 0.65412 0.0
C141 C 0.81071 0.36991 0.73292 0.0
O142 O 0.83124 0.38786 0.5795 0.0
O143 O 0.78187 0.4211 0.63985 0.0
O144 O 0.78771 0.35387 0.64739 0.0
O145 O 0.83754 0.43075 0.66185 0.0
O146 O 0.85175 0.36316 0.6605 0.0
O147 O 0.80192 0.38676 0.72728 0.0
O148 O 0.8607 0.39368 0.6403 0.0
O149 O 0.8122 0.42756 0.69941 0.0
O150 O 0.81723 0.35854 0.70898 0.0
O151 O 0.80728 0.42372 0.60208 0.0
O152 O 0.82266 0.35728 0.59912 0.0
O153 O 0.77122 0.3809 0.6679 0.0
Sc154 Sc 0.40811 0.16216 0.37159 0.0
Sc155 Sc 0.40358 0.20205 0.31197 0.0
Sc156 Sc 0.35975 0.17814 0.34466 0.0
O157 O 0.39047 0.18076 0.34268 0.0
C158 C 0.37473 0.13187 0.34312 0.0
C159 C 0.43423 0.16546 0.30261 0.0
C160 C 0.36744 0.18588 0.26483 0.0
C161 C 0.4295 0.20502 0.38102 0.0
C162 C 0.37089 0.17009 0.42265 0.0
C163 C 0.36611 0.22609 0.34336 0.0
O164 O 0.39272 0.13556 0.35326 0.0
O165 O 0.42524 0.18109 0.29119 0.0
O166 O 0.35693 0.17919 0.28972 0.0
O167 O 0.42449 0.18754 0.392 0.0
O168 O 0.35884 0.17661 0.39977 0.0
O169 O 0.38353 0.22537 0.32953 0.0
O170 O 0.38867 0.16381 0.41584 0.0
O171 O 0.42413 0.21178 0.35181 0.0
O172 O 0.35554 0.21037 0.34958 0.0
O173 O 0.43022 0.15768 0.33164 0.0
O174 O 0.36117 0.14556 0.34015 0.0
O175 O 0.3844 0.19474 0.26897 0.0
Sc176 Sc 0.67552 0.86072 0.84287 0.0
Sc177 Sc 0.70079 0.90416 0.81158 0.0
Sc178 Sc 0.65971 0.9093 0.86885 0.0
O179 O 0.67865 0.89139 0.84103 0.0
C180 C 0.62944 0.87612 0.83958 0.0
C181 C 0.68491 0.8683 0.76353 0.0
C182 C 0.6647 0.93531 0.80009 0.0
C183 C 0.72361 0.86617 0.84382 0.0
C184 C 0.66644 0.87215 0.92045 0.0
C185 C 0.70266 0.93032 0.88043 0.0
O186 O 0.64305 0.86248 0.83689 0.0
O187 O 0.69393 0.88513 0.76818 0.0
O188 O 0.65607 0.93119 0.82839 0.0
O189 O 0.70757 0.85596 0.84929 0.0
O190 O 0.66063 0.89003 0.91334 0.0
O191 O 0.71015 0.92446 0.85201 0.0
O192 O 0.67301 0.85991 0.89787 0.0
O193 O 0.72347 0.88363 0.83012 0.0
O194 O 0.6848 0.92573 0.89013 0.0
O195 O 0.67755 0.8579 0.78801 0.0
O196 O 0.63318 0.89406 0.84981 0.0
O197 O 0.68063 0.92631 0.78983 0.0
Sc198 Sc 0.86293 0.31584 0.15396 0.0
Sc199 Sc 0.90473 0.28693 0.18249 0.0
Sc200 Sc 0.91215 0.32919 0.12805 0.0
O201 O 0.8933 0.3107 0.15492 0.0
C202 C 0.87473 0.32609 0.07653 0.0
C203 C 0.86529 0.26789 0.14836 0.0
C204 C 0.93068 0.28505 0.1137 0.0
C205 C 0.87042 0.30357 0.23254 0.0
C206 C 0.88052 0.36065 0.1601 0.0
C207 C 0.938 0.32113 0.1959 0.0
O208 O 0.86202 0.32144 0.09971 0.0
O209 O 0.88193 0.26622 0.16454 0.0
O210 O 0.92816 0.30373 0.10656 0.0
O211 O 0.85984 0.31112 0.20842 0.0
O212 O 0.8977 0.35638 0.14697 0.0
O213 O 0.92914 0.30463 0.20352 0.0
O214 O 0.86663 0.34752 0.16459 0.0
O215 O 0.88729 0.29469 0.22734 0.0
O216 O 0.93333 0.33162 0.16972 0.0
O217 O 0.85674 0.28477 0.14225 0.0
O218 O 0.89341 0.32908 0.08281 0.0
O219 O 0.92326 0.27675 0.14035 0.0
Sc220 Sc 0.31622 0.13088 0.84452 0.0
Sc221 Sc 0.29114 0.08801 0.81095 0.0
Sc222 Sc 0.33014 0.08205 0.87208 0.0
O223 O 0.31254 0.10029 0.84246 0.0
C224 C 0.3617 0.11436 0.84224 0.0
C225 C 0.30788 0.12365 0.76441 0.0
C226 C 0.32692 0.05595 0.80328 0.0
C227 C 0.26846 0.12608 0.84345 0.0
C228 C 0.32408 0.1194 0.92289 0.0
C229 C 0.28616 0.06229 0.87975 0.0
O230 O 0.34845 0.12806 0.83654 0.0
O231 O 0.30052 0.10597 0.76789 0.0
O232 O 0.33513 0.06038 0.83176 0.0
O233 O 0.28435 0.1353 0.85336 0.0
O234 O 0.32771 0.10084 0.91694 0.0
O235 O 0.27952 0.06874 0.8511 0.0
O236 O 0.32003 0.13198 0.89925 0.0
O237 O 0.26864 0.10986 0.82589 0.0
O238 O 0.30406 0.06583 0.89051 0.0
O239 O 0.31307 0.13461 0.78976 0.0
O240 O 0.35742 0.09722 0.85556 0.0
O241 O 0.31109 0.06475 0.79216 0.0
Sc242 Sc 0.12811 0.6649 0.15186 0.0
Sc243 Sc 0.08582 0.69353 0.17912 0.0
Sc244 Sc 0.07958 0.65336 0.12002 0.0
O245 O 0.09782 0.67056 0.1504 0.0
C246 C 0.11856 0.65847 0.07241 0.0
C247 C 0.12676 0.71313 0.15152 0.0
C248 C 0.06175 0.69806 0.10884 0.0
C249 C 0.11832 0.6746 0.23049 0.0
C250 C 0.10969 0.62017 0.15082 0.0
C251 C 0.05216 0.65911 0.1868 0.0
O252 O 0.1306 0.6622 0.09705 0.0
O253 O 0.10917 0.71453 0.16459 0.0
O254 O 0.06445 0.6797 0.09987 0.0
O255 O 0.12928 0.667 0.20691 0.0
O256 O 0.093 0.62526 0.13685 0.0
O257 O 0.06095 0.67521 0.19678 0.0
O258 O 0.12364 0.63282 0.15789 0.0
O259 O 0.10211 0.68444 0.22439 0.0
O260 O 0.05726 0.64965 0.15972 0.0
O261 O 0.13546 0.6963 0.14557 0.0
O262 O 0.09978 0.65495 0.07676 0.0
O263 O 0.06837 0.70525 0.13693 0.0
Sc264 Sc 0.65486 0.07798 0.12801 0.0
Sc265 Sc 0.69647 0.08584 0.1836 0.0
Sc266 Sc 0.66855 0.12751 0.15217 0.0
O267 O 0.67324 0.09709 0.15468 0.0
C268 C 0.65892 0.11444 0.07499 0.0
C269 C 0.69873 0.05837 0.1165 0.0
C270 C 0.71653 0.12407 0.14718 0.0
C271 C 0.66139 0.0538 0.19812 0.0
C272 C 0.62348 0.11044 0.15783 0.0
C273 C 0.68052 0.12167 0.23111 0.0
O274 O 0.6556 0.09592 0.08194 0.0
O275 O 0.70663 0.06593 0.14334 0.0
O276 O 0.69984 0.13297 0.1408 0.0
O277 O 0.65168 0.05756 0.17068 0.0
O278 O 0.63667 0.12425 0.16259 0.0
O279 O 0.68899 0.10452 0.22696 0.0
O280 O 0.62771 0.09315 0.14511 0.0
O281 O 0.67776 0.06276 0.20622 0.0
O282 O 0.67311 0.13187 0.20643 0.0
O283 O 0.68029 0.06129 0.1081 0.0
O284 O 0.66347 0.12745 0.09771 0.0
O285 O 0.71777 0.10762 0.16402 0.0
Sc286 Sc 0.08081 0.33002 0.87215 0.0
Sc287 Sc 0.0877 0.29014 0.81309 0.0
Sc288 Sc 0.13005 0.31709 0.84485 0.0
O289 O 0.09952 0.31246 0.84326 0.0
C290 C 0.11262 0.36236 0.84458 0.0
C291 C 0.05526 0.32523 0.80281 0.0
C292 C 0.12286 0.30812 0.76541 0.0
C293 C 0.06131 0.28616 0.88144 0.0
C294 C 0.11835 0.32389 0.92316 0.0
C295 C 0.12676 0.26887 0.84463 0.0
O296 O 0.09497 0.35759 0.85505 0.0
O297 O 0.06477 0.30971 0.79205 0.0
O298 O 0.13294 0.31575 0.79 0.0
O299 O 0.06518 0.30403 0.89186 0.0
O300 O 0.13089 0.31898 0.89985 0.0
O301 O 0.10916 0.26819 0.83143 0.0
O302 O 0.10002 0.3286 0.91679 0.0
O303 O 0.06764 0.2793 0.85287 0.0
O304 O 0.13633 0.28531 0.84994 0.0
O305 O 0.05902 0.33364 0.83146 0.0
O306 O 0.12679 0.34947 0.84038 0.0
O307 O 0.10643 0.29834 0.76983 0.0
Sc308 Sc 0.3322 0.91534 0.11931 0.0
Sc309 Sc 0.29113 0.90824 0.17623 0.0
Sc310 Sc 0.32059 0.86647 0.14935 0.0
O311 O 0.31467 0.89671 0.14835 0.0
C312 C 0.32941 0.87654 0.07074 0.0
C313 C 0.28717 0.93174 0.10531 0.0
C314 C 0.27256 0.86709 0.14695 0.0
C315 C 0.32441 0.94294 0.18519 0.0
C316 C 0.36494 0.88563 0.15284 0.0
C317 C 0.30949 0.87584 0.2278 0.0
O318 O 0.33204 0.89539 0.07569 0.0
O319 O 0.27955 0.92493 0.13299 0.0
O320 O 0.28954 0.859 0.13983 0.0
O321 O 0.33469 0.93778 0.15903 0.0
O322 O 0.35229 0.87145 0.15855 0.0
O323 O 0.30056 0.89258 0.22195 0.0
O324 O 0.36005 0.90229 0.13848 0.0
O325 O 0.30826 0.93388 0.19412 0.0
O326 O 0.31654 0.86458 0.20412 0.0
O327 O 0.30586 0.92978 0.0976 0.0
O328 O 0.32542 0.86427 0.09492 0.0
O329 O 0.27087 0.88414 0.16187 0.0
Sc330 Sc 0.90906 0.65769 0.87351 0.0
Sc331 Sc 0.90435 0.69762 0.81401 0.0
Sc332 Sc 0.86061 0.67279 0.84506 0.0
O333 O 0.89133 0.676 0.84417 0.0
C334 C 0.87636 0.62694 0.84297 0.0
C335 C 0.93561 0.6613 0.80518 0.0
C336 C 0.86891 0.68169 0.76563 0.0
C337 C 0.92996 0.70092 0.88321 0.0
C338 C 0.87125 0.66435 0.92355 0.0
C339 C 0.86612 0.72073 0.8455 0.0
O340 O 0.89372 0.63086 0.85571 0.0
O341 O 0.92701 0.6773 0.79434 0.0
O342 O 0.85783 0.67554 0.7902 0.0
O343 O 0.92567 0.6831 0.8935 0.0
O344 O 0.85902 0.66941 0.89988 0.0
O345 O 0.88324 0.72034 0.83051 0.0
O346 O 0.88966 0.6598 0.91774 0.0
O347 O 0.92391 0.70799 0.85463 0.0
O348 O 0.85607 0.7048 0.85258 0.0
O349 O 0.93104 0.65295 0.83351 0.0
O350 O 0.86283 0.64045 0.83793 0.0
O351 O 0.88624 0.68965 0.77021 0.0
H352 H 0.13578 0.46364 0.31958 0.0
H353 H 0.12332 0.4915 0.28426 0.0
H354 H 0.15035 0.46407 0.19456 0.0
H355 H 0.16363 0.43652 0.23013 0.0
H356 H 0.16094 0.50157 0.19825 0.0
H357 H 0.07818 0.49924 0.21804 0.0
H358 H 0.09071 0.49986 0.25881 0.0
H359 H 0.0945 0.47849 0.23054 0.0
C360 C 0.13876 0.46334 0.29223 0.0
C361 C 0.15078 0.44797 0.27764 0.0
C362 C 0.13145 0.4792 0.27197 0.0
C363 C 0.13556 0.47971 0.23661 0.0
C364 C 0.1469 0.46394 0.22176 0.0
H365 H 0.08849 0.587 0.12802 0.0
H366 H 0.09445 0.55136 0.14284 0.0
C367 C 0.15452 0.44825 0.24212 0.0
C368 C 0.13017 0.49791 0.21623 0.0
H369 H 0.09228 0.53241 0.2034 0.0
C370 C 0.1458 0.50806 0.19876 0.0
C371 C 0.11035 0.50623 0.21617 0.0
C372 C 0.09247 0.49521 0.23159 0.0
C373 C 0.14248 0.52695 0.18331 0.0
C374 C 0.1232 0.53623 0.18643 0.0
C375 C 0.10719 0.52547 0.20169 0.0
C376 C 0.11983 0.55762 0.17648 0.0
C377 C 0.1598 0.5369 0.16433 0.0
C378 C 0.13191 0.57292 0.19094 0.0
C379 C 0.12869 0.59319 0.18234 0.0
C380 C 0.11305 0.59862 0.15958 0.0
C381 C 0.10069 0.5833 0.1456 0.0
C382 C 0.10407 0.56294 0.15398 0.0
H383 H 0.17037 0.52537 0.1536 0.0
H384 H 0.15424 0.54663 0.14303 0.0
H385 H 0.16858 0.54647 0.18245 0.0
H386 H 0.14372 0.56921 0.20925 0.0
H387 H 0.1383 0.60461 0.19397 0.0
H388 H 0.45606 0.80711 0.74308 0.0
H389 H 0.4868 0.81709 0.77383 0.0
H390 H 0.49147 0.87084 0.71116 0.0
H391 H 0.46095 0.86096 0.67995 0.0
H392 H 0.52654 0.84746 0.71258 0.0
H393 H 0.49783 0.86225 0.84431 0.0
H394 H 0.49041 0.83818 0.82662 0.0
H395 H 0.48134 0.86123 0.80728 0.0
C396 C 0.46346 0.8212 0.7361 0.0
C397 C 0.4561 0.83316 0.70886 0.0
C398 C 0.48094 0.82693 0.75388 0.0
C399 C 0.49124 0.84478 0.74493 0.0
C400 C 0.48365 0.85703 0.71847 0.0
H401 H 0.59592 0.90081 0.84052 0.0
H402 H 0.56194 0.89299 0.81907 0.0
C403 C 0.46622 0.85132 0.70064 0.0
C404 C 0.51089 0.84978 0.76098 0.0
H405 H 0.53376 0.86063 0.83741 0.0
C406 C 0.52812 0.85044 0.73984 0.0
C407 C 0.51279 0.85377 0.79649 0.0
C408 C 0.4946 0.85402 0.82002 0.0
C409 C 0.54732 0.85472 0.75335 0.0
C410 C 0.54934 0.8581 0.78899 0.0
C411 C 0.53209 0.8578 0.81012 0.0
C412 C 0.56931 0.86218 0.80453 0.0
C413 C 0.56529 0.85578 0.72933 0.0
C414 C 0.58446 0.84724 0.80409 0.0
C415 C 0.60388 0.85162 0.81621 0.0
C416 C 0.60847 0.87104 0.82908 0.0
C417 C 0.59297 0.88575 0.83061 0.0
C418 C 0.57353 0.88132 0.81848 0.0
H419 H 0.5605 0.85739 0.70212 0.0
H420 H 0.57532 0.86872 0.73605 0.0
H421 H 0.57431 0.8416 0.73164 0.0
H422 H 0.58133 0.83229 0.79379 0.0
H423 H 0.61538 0.83988 0.81485 0.0
H424 H 0.84511 0.37593 0.18582 0.0
H425 H 0.8385 0.41033 0.20568 0.0
H426 H 0.89973 0.42765 0.1797 0.0
H427 H 0.90657 0.39317 0.15928 0.0
H428 H 0.85999 0.42954 0.25879 0.0
H429 H 0.86395 0.47273 0.1362 0.0
H430 H 0.86061 0.44553 0.13758 0.0
H431 H 0.88516 0.45639 0.14544 0.0
C432 C 0.8572 0.38702 0.18403 0.0
C433 C 0.87641 0.38175 0.17099 0.0
C434 C 0.85335 0.40669 0.19537 0.0
C435 C 0.86857 0.4215 0.19381 0.0
C436 C 0.88771 0.41646 0.18053 0.0
H437 H 0.86258 0.53176 0.31558 0.0
H438 H 0.87468 0.50138 0.2861 0.0
C439 C 0.8916 0.39673 0.16908 0.0
C440 C 0.86457 0.44181 0.20817 0.0
H441 H 0.85918 0.4918 0.18709 0.0
C442 C 0.85989 0.44318 0.24319 0.0
C443 C 0.86433 0.45945 0.18753 0.0
C444 C 0.86862 0.45856 0.14953 0.0
C445 C 0.85476 0.46177 0.25821 0.0
C446 C 0.85469 0.47947 0.2377 0.0
C447 C 0.85946 0.47816 0.20268 0.0
C448 C 0.84878 0.49928 0.25219 0.0
C449 C 0.84888 0.46223 0.29568 0.0
C450 C 0.83063 0.50853 0.24177 0.0
C451 C 0.82366 0.52594 0.25846 0.0
C452 C 0.83476 0.53432 0.28586 0.0
C453 C 0.8535 0.52554 0.29494 0.0
C454 C 0.86046 0.5082 0.27815 0.0
H455 H 0.84549 0.44681 0.30574 0.0
H456 H 0.86161 0.4686 0.31089 0.0
H457 H 0.83536 0.47202 0.29977 0.0
H458 H 0.82147 0.50182 0.22165 0.0
H459 H 0.80924 0.53239 0.25067 0.0
H460 H 0.37734 0.14897 0.8138 0.0
H461 H 0.41133 0.15387 0.7903 0.0
H462 H 0.42784 0.09313 0.82068 0.0
H463 H 0.39394 0.08805 0.8447 0.0
H464 H 0.45799 0.1227 0.83432 0.0
H465 H 0.42972 0.12658 0.70029 0.0
H466 H 0.41745 0.14412 0.72885 0.0
H467 H 0.41439 0.11727 0.73532 0.0
C468 C 0.3882 0.13666 0.81577 0.0
C469 C 0.38282 0.11803 0.83087 0.0
C470 C 0.40758 0.13948 0.80216 0.0
C471 C 0.42187 0.12371 0.8032 0.0
C472 C 0.41691 0.10541 0.81945 0.0
H473 H 0.52965 0.12679 0.6734 0.0
H474 H 0.49943 0.11498 0.70386 0.0
C475 C 0.39752 0.10256 0.83315 0.0
C476 C 0.44185 0.12625 0.78661 0.0
H477 H 0.46405 0.13654 0.70951 0.0
C478 C 0.45939 0.12557 0.80699 0.0
C479 C 0.44357 0.12955 0.75087 0.0
C480 C 0.42531 0.12923 0.72745 0.0
C481 C 0.47864 0.12896 0.7927 0.0
C482 C 0.48023 0.1334 0.75729 0.0
C483 C 0.46275 0.13327 0.73672 0.0
C484 C 0.49965 0.13929 0.7412 0.0
C485 C 0.49707 0.12779 0.81561 0.0
C486 C 0.50978 0.15682 0.75224 0.0
C487 C 0.52702 0.16361 0.73497 0.0
C488 C 0.53436 0.15311 0.70605 0.0
C489 C 0.5244 0.13528 0.6955 0.0
C490 C 0.50715 0.12849 0.71288 0.0
H491 H 0.49411 0.11831 0.83867 0.0
H492 H 0.51033 0.12143 0.80164 0.0
H493 H 0.50104 0.14328 0.8245 0.0
H494 H 0.50396 0.16563 0.77357 0.0
H495 H 0.53427 0.1774 0.74382 0.0
H496 H 0.18833 0.5271 0.73674 0.0
H497 H 0.17698 0.49704 0.76815 0.0
H498 H 0.11529 0.50858 0.73637 0.0
H499 H 0.12657 0.53827 0.70403 0.0
H500 H 0.14954 0.4902 0.81991 0.0
H501 H 0.12527 0.45203 0.69954 0.0
H502 H 0.13999 0.47508 0.69952 0.0
H503 H 0.11303 0.47597 0.70687 0.0
C504 C 0.17233 0.52333 0.73667 0.0
C505 C 0.15839 0.53481 0.71745 0.0
C506 C 0.16587 0.50618 0.75465 0.0
C507 C 0.14539 0.50038 0.75388 0.0
C508 C 0.13126 0.51252 0.73646 0.0
H509 H 0.08505 0.39277 0.83377 0.0
H510 H 0.09208 0.42764 0.81558 0.0
C511 C 0.13772 0.52949 0.7181 0.0
C512 C 0.13903 0.48108 0.76984 0.0
H513 H 0.11832 0.43489 0.75146 0.0
C514 C 0.14266 0.47812 0.80501 0.0
C515 C 0.1302 0.46532 0.75018 0.0
C516 C 0.12706 0.46712 0.71189 0.0
C517 C 0.13767 0.45973 0.82103 0.0
C518 C 0.12885 0.44409 0.80133 0.0
C519 C 0.12493 0.44712 0.76639 0.0
C520 C 0.1247 0.42392 0.81583 0.0
C521 C 0.14192 0.45699 0.85878 0.0
C522 C 0.14079 0.41049 0.82189 0.0
C523 C 0.13687 0.39055 0.83187 0.0
C524 C 0.11677 0.38379 0.83606 0.0
C525 C 0.10069 0.39753 0.83087 0.0
C526 C 0.10465 0.41742 0.82054 0.0
H527 H 0.14574 0.47157 0.87155 0.0
H528 H 0.12857 0.45017 0.87182 0.0
H529 H 0.15491 0.44642 0.86204 0.0
H530 H 0.15635 0.41528 0.81791 0.0
H531 H 0.14959 0.38038 0.83583 0.0
H532 H 0.53288 0.81612 0.24989 0.0
H533 H 0.50384 0.83063 0.21976 0.0
H534 H 0.50594 0.88328 0.28546 0.0
H535 H 0.53479 0.86878 0.31624 0.0
H536 H 0.46871 0.86608 0.28349 0.0
H537 H 0.49733 0.87655 0.15106 0.0
H538 H 0.5018 0.85137 0.1669 0.0
H539 H 0.51403 0.87262 0.18725 0.0
C540 C 0.52738 0.83092 0.25768 0.0
C541 C 0.53608 0.84121 0.28568 0.0
C542 C 0.51088 0.83928 0.24018 0.0
C543 C 0.50295 0.85816 0.25007 0.0
C544 C 0.51195 0.86874 0.27733 0.0
H545 H 0.39687 0.91233 0.14802 0.0
H546 H 0.43122 0.90789 0.17107 0.0
C547 C 0.52838 0.86038 0.29495 0.0
C548 C 0.48395 0.86572 0.23451 0.0
H549 H 0.46091 0.87549 0.15779 0.0
C550 C 0.4671 0.86847 0.25607 0.0
C551 C 0.48194 0.86903 0.19879 0.0
C552 C 0.49981 0.86745 0.17471 0.0
C553 C 0.44803 0.87344 0.24266 0.0
C554 C 0.44574 0.8754 0.20677 0.0
C555 C 0.46275 0.87372 0.18529 0.0
C556 C 0.42551 0.87783 0.19115 0.0
C557 C 0.43037 0.87614 0.26696 0.0
C558 C 0.41126 0.86218 0.19421 0.0
C559 C 0.39173 0.8646 0.18115 0.0
C560 C 0.3861 0.88275 0.16464 0.0
C561 C 0.40067 0.8982 0.1607 0.0
C562 C 0.42028 0.89571 0.17379 0.0
H563 H 0.43558 0.87956 0.29346 0.0
H564 H 0.42019 0.88855 0.2582 0.0
H565 H 0.42141 0.86189 0.26781 0.0
H566 H 0.4152 0.84814 0.20709 0.0
H567 H 0.381 0.85232 0.18448 0.0
H568 H 0.84063 0.61173 0.81802 0.0
H569 H 0.83432 0.57766 0.79599 0.0
H570 H 0.89595 0.56053 0.81981 0.0
H571 H 0.90241 0.59448 0.84242 0.0
H572 H 0.85478 0.56005 0.74148 0.0
H573 H 0.86267 0.51362 0.8598 0.0
H574 H 0.85925 0.54081 0.86086 0.0
H575 H 0.88371 0.53017 0.85107 0.0
C576 C 0.85281 0.60069 0.819 0.0
C577 C 0.87204 0.60588 0.832 0.0
C578 C 0.84916 0.58122 0.80637 0.0
C579 C 0.86462 0.56658 0.80659 0.0
C580 C 0.88372 0.57154 0.82003 0.0
H581 H 0.86199 0.45929 0.67545 0.0
H582 H 0.87268 0.49021 0.70507 0.0
C583 C 0.88739 0.59099 0.83278 0.0
C584 C 0.86104 0.54655 0.7907 0.0
H585 H 0.85951 0.49571 0.80721 0.0
C586 C 0.85582 0.54597 0.75581 0.0
C587 C 0.86233 0.52829 0.80961 0.0
C588 C 0.86712 0.52816 0.84749 0.0
C589 C 0.85173 0.52756 0.73925 0.0
C590 C 0.85332 0.50925 0.758 0.0
C591 C 0.85857 0.50981 0.7929 0.0
C592 C 0.84828 0.48951 0.74224 0.0
C593 C 0.84517 0.52792 0.70212 0.0
C594 C 0.83153 0.47853 0.75429 0.0
C595 C 0.82543 0.46083 0.73762 0.0
C596 C 0.83601 0.45378 0.70856 0.0
C597 C 0.85337 0.46438 0.69751 0.0
C598 C 0.85948 0.48208 0.71431 0.0
H599 H 0.84041 0.54334 0.69381 0.0
H600 H 0.85806 0.52309 0.68568 0.0
H601 H 0.83238 0.51726 0.6977 0.0
H602 H 0.82276 0.48402 0.77594 0.0
H603 H 0.81209 0.453 0.74703 0.0
H604 H 0.58926 0.09072 0.1362 0.0
H605 H 0.55406 0.09829 0.15179 0.0
H606 H 0.57465 0.1467 0.21774 0.0
H607 H 0.60971 0.13971 0.2015 0.0
H608 H 0.53547 0.09679 0.21195 0.0
H609 H 0.53168 0.17543 0.16356 0.0
H610 H 0.5523 0.15852 0.1528 0.0
H611 H 0.55258 0.17251 0.19259 0.0
C612 C 0.58626 0.10306 0.15388 0.0
C613 C 0.60223 0.11473 0.16742 0.0
C614 C 0.56616 0.10737 0.16269 0.0
C615 C 0.56173 0.12335 0.18528 0.0
C616 C 0.57768 0.13474 0.19937 0.0
H617 H 0.46516 0.14131 0.32479 0.0
H618 H 0.49402 0.12904 0.29161 0.0
C619 C 0.59773 0.13062 0.19025 0.0
C620 C 0.54054 0.12763 0.19556 0.0
H621 H 0.50699 0.16644 0.20686 0.0
C622 C 0.52908 0.11194 0.21032 0.0
C623 C 0.53199 0.14724 0.19257 0.0
C624 C 0.54272 0.1643 0.17414 0.0
C625 C 0.50977 0.11566 0.22413 0.0
C626 C 0.50208 0.13571 0.22408 0.0
C627 C 0.51301 0.15111 0.20741 0.0
C628 C 0.48354 0.14147 0.24324 0.0
C629 C 0.49795 0.09807 0.2388 0.0
C630 C 0.46824 0.15292 0.22729 0.0
C631 C 0.45195 0.1604 0.24643 0.0
C632 C 0.45062 0.15642 0.28181 0.0
C633 C 0.46565 0.14446 0.29751 0.0
C634 C 0.48208 0.13727 0.27848 0.0
H635 H 0.50193 0.08367 0.22557 0.0
H636 H 0.50189 0.09624 0.26633 0.0
H637 H 0.48132 0.10053 0.23662 0.0
H638 H 0.46913 0.15643 0.20016 0.0
H639 H 0.44052 0.16948 0.2336 0.0
H640 H 0.67022 0.942 0.73141 0.0
H641 H 0.6587 0.97132 0.69806 0.0
H642 H 0.62991 -0.00399 0.78844 0.0
H643 H 0.6406 0.96645 0.82147 0.0
H644 H 0.60692 0.0019 0.73311 0.0
H645 H 0.68628 0.02539 0.70522 0.0
H646 H 0.67976 0.0007 0.68925 0.0
H647 H 0.68034 0.00522 0.7348 0.0
C648 C 0.6613 0.95362 0.74406 0.0
C649 C 0.6565 0.95206 0.77913 0.0
C650 C 0.65482 0.97039 0.72503 0.0
C651 C 0.64388 0.98606 0.74099 0.0
C652 C 0.6384 0.98411 0.77564 0.0
H653 H 0.6392 0.11225 0.69958 0.0
H654 H 0.64586 0.07746 0.71756 0.0
C655 C 0.64455 0.96722 0.7945 0.0
C656 C 0.63885 0.00499 0.72239 0.0
H657 H 0.66026 0.04589 0.6828 0.0
C658 C 0.61854 0.0115 0.72189 0.0
C659 C 0.65411 0.01753 0.70811 0.0
C660 C 0.67636 0.012 0.70958 0.0
C661 C 0.61314 0.03051 0.70853 0.0
C662 C 0.62841 0.04302 0.69424 0.0
C663 C 0.64859 0.0362 0.69364 0.0
C664 C 0.62419 0.06397 0.68254 0.0
C665 C 0.59133 0.0374 0.71146 0.0
C666 C 0.6099 0.06792 0.65666 0.0
C667 C 0.60582 0.08789 0.64668 0.0
C668 C 0.61631 0.10414 0.66191 0.0
C669 C 0.63094 0.10006 0.68722 0.0
C670 C 0.63476 0.08018 0.69753 0.0
H671 H 0.58272 0.02823 0.73047 0.0
H672 H 0.59044 0.05361 0.71912 0.0
H673 H 0.58376 0.03568 0.68619 0.0
H674 H 0.60195 0.0556 0.64415 0.0
H675 H 0.59461 0.09058 0.62684 0.0
H676 H 0.0943 0.39722 0.3449 0.0
H677 H 0.06022 0.38788 0.32602 0.0
H678 H 0.0806 0.32674 0.30651 0.0
H679 H 0.1148 0.33589 0.3249 0.0
H680 H 0.06112 0.34491 0.25125 0.0
H681 H 0.01579 0.35284 0.37075 0.0
H682 H 0.03124 0.37448 0.36054 0.0
H683 H 0.04315 0.35071 0.37091 0.0
C684 C 0.09152 0.3817 0.33703 0.0
C685 C 0.10734 0.36733 0.33627 0.0
C686 C 0.07198 0.37638 0.32649 0.0
C687 C 0.06791 0.35658 0.31531 0.0
C688 C 0.08349 0.34207 0.31528 0.0
H689 H 0.95425 0.30212 0.25215 0.0
H690 H 0.98512 0.31145 0.2832 0.0
C691 C 0.10302 0.34737 0.32575 0.0
C692 C 0.04792 0.35146 0.30062 0.0
H693 H -0.00275 0.34903 0.31856 0.0
C694 C 0.04716 0.3457 0.266 0.0
C695 C 0.02982 0.35242 0.32008 0.0
C696 C 0.02997 0.35777 0.35772 0.0
C697 C 0.02869 0.34115 0.25006 0.0
C698 C 0.01053 0.34272 0.26919 0.0
C699 C 0.01126 0.3481 0.30399 0.0
C700 C 0.9907 0.3385 0.25324 0.0
C701 C 0.02876 0.33454 0.21295 0.0
C702 C 0.98342 0.35103 0.22692 0.0
C703 C 0.96586 0.34576 0.20905 0.0
C704 C 0.95528 0.32787 0.21729 0.0
C705 C 0.9621 0.31592 0.24494 0.0
C706 C 0.97969 0.32122 0.2628 0.0
H707 H 0.04414 0.32984 0.20429 0.0
H708 H 0.0181 0.32171 0.20886 0.0
H709 H 0.02372 0.34738 0.19659 0.0
H710 H 0.99165 0.36458 0.21958 0.0
H711 H 0.96094 0.35544 0.18816 0.0
H712 H 0.40047 0.90137 0.63179 0.0
H713 H 0.39368 0.9363 0.65018 0.0
H714 H 0.34877 0.9144 0.72187 0.0
H715 H 0.35492 0.87973 0.70287 0.0
H716 H 0.33482 0.94578 0.68585 0.0
H717 H 0.41135 0.9639 0.73756 0.0
H718 H 0.41103 0.95632 0.69329 0.0
H719 H 0.40394 0.93845 0.72603 0.0
C720 C 0.38923 0.90405 0.65158 0.0
C721 C 0.37819 0.88785 0.66585 0.0
C722 C 0.38544 0.92397 0.66217 0.0
C723 C 0.3709 0.9279 0.68768 0.0
C724 C 0.36003 0.9117 0.70208 0.0
H725 H 0.35067 0.02492 0.82616 0.0
H726 H 0.36248 -0.00445 0.79363 0.0
C727 C 0.36356 0.8919 0.69119 0.0
C728 C 0.3664 0.94882 0.69914 0.0
H729 H 0.38682 0.98996 0.73951 0.0
C730 C 0.3462 0.95552 0.69742 0.0
C731 C 0.3813 0.96139 0.71432 0.0
C732 C 0.40309 0.95464 0.71825 0.0
C733 C 0.34027 0.9741 0.71171 0.0
C734 C 0.35515 0.98668 0.72697 0.0
C735 C 0.3755 0.98032 0.72757 0.0
C736 C 0.34957 0.00552 0.74535 0.0
C737 C 0.31796 0.97946 0.71197 0.0
C738 C 0.33887 0.02113 0.72879 0.0
C739 C 0.33173 0.03775 0.74749 0.0
C740 C 0.33565 0.03924 0.78288 0.0
C741 C 0.34738 0.02417 0.79894 0.0
C742 C 0.35418 0.0074 0.78037 0.0
H743 H 0.30823 0.96601 0.70696 0.0
H744 H 0.31342 0.98613 0.73701 0.0
H745 H 0.31487 0.99078 0.69155 0.0
H746 H 0.33566 0.02024 0.70157 0.0
H747 H 0.32302 0.04933 0.73434 0.0
H748 H 0.03431 0.67653 0.24306 0.0
H749 H 0.00427 0.6648 0.27381 0.0
H750 H 0.00089 0.61235 0.2078 0.0
H751 H 0.03076 0.62405 0.17645 0.0
H752 H 0.96516 0.63352 0.21166 0.0
H753 H -0.00463 0.61862 0.34208 0.0
H754 H 0.00172 0.64336 0.32605 0.0
H755 H 0.01157 0.62117 0.3049 0.0
C756 C 0.02736 0.66236 0.23528 0.0
C757 C 0.03489 0.6513 0.20712 0.0
C758 C 0.01028 0.65561 0.25311 0.0
C759 C 0.00057 0.63759 0.24334 0.0
C760 C 0.00829 0.62625 0.21581 0.0
H761 H 0.89551 0.58395 0.34505 0.0
H762 H 0.92952 0.5898 0.32187 0.0
C763 C 0.02532 0.63301 0.19789 0.0
C764 C 0.98127 0.63161 0.25969 0.0
H765 H 0.95917 0.62122 0.33695 0.0
C766 C 0.96388 0.63061 0.23899 0.0
C767 C 0.97974 0.62767 0.29527 0.0
C768 C -0.00187 0.62755 0.31834 0.0
C769 C 0.94482 0.62641 0.25313 0.0
C770 C 0.94313 0.62348 0.28894 0.0
C771 C 0.96058 0.62375 0.30953 0.0
C772 C 0.9232 0.62049 0.30534 0.0
C773 C 0.92662 0.62521 0.22965 0.0
C774 C 0.9087 0.63605 0.30443 0.0
C775 C 0.88929 0.63281 0.31755 0.0
C776 C 0.88408 0.61393 0.33194 0.0
C777 C 0.89897 0.59863 0.33402 0.0
C778 C 0.91841 0.60192 0.32085 0.0
H779 H 0.93116 0.62275 0.2025 0.0
H780 H 0.91629 0.61274 0.23756 0.0
H781 H 0.91804 0.63969 0.23106 0.0
H782 H 0.91231 0.6506 0.29299 0.0
H783 H 0.87828 0.64498 0.31574 0.0
H784 H 0.6353 0.02318 0.18207 0.0
H785 H 0.62463 -0.00479 0.21868 0.0
H786 H 0.65869 0.0205 0.30311 0.0
H787 H 0.67011 0.04822 0.26609 0.0
H788 H 0.66712 0.98231 0.29643 0.0
H789 H 0.58383 0.98947 0.2933 0.0
H790 H 0.59341 0.98887 0.25028 0.0
H791 H 0.60033 0.0095 0.27841 0.0
C792 C 0.64029 0.02297 0.20857 0.0
C793 C 0.6536 0.03785 0.22118 0.0
C794 C 0.634 0.00707 0.2296 0.0
C795 C 0.64049 0.00599 0.26387 0.0
C796 C 0.65338 0.02112 0.2768 0.0
H797 H 0.59414 0.89933 0.37409 0.0
H798 H 0.60164 0.93491 0.36123 0.0
C799 C 0.65994 0.0369 0.25561 0.0
C800 C 0.63558 0.98789 0.28474 0.0
H801 H 0.59697 0.9553 0.30345 0.0
C802 C 0.65171 0.97664 0.29864 0.0
C803 C 0.61547 0.98069 0.28844 0.0
C804 C 0.5973 0.99294 0.27713 0.0
C805 C 0.64842 0.95767 0.31383 0.0
C806 C 0.62858 0.94949 0.31404 0.0
C807 C 0.61226 0.9614 0.30257 0.0
C808 C 0.62469 0.9281 0.32332 0.0
C809 C 0.66633 0.94647 0.32888 0.0
C810 C 0.63497 0.91253 0.30593 0.0
C811 C 0.6309 0.89227 0.31342 0.0
C812 C 0.61612 0.88717 0.33796 0.0
C813 C 0.6056 0.90279 0.35503 0.0
C814 C 0.60989 0.9231 0.34779 0.0
H815 H 0.67804 0.95724 0.33833 0.0
H816 H 0.66168 0.93647 0.35042 0.0
H817 H 0.67347 0.937 0.30864 0.0
H818 H 0.64595 0.91602 0.28608 0.0
H819 H 0.63906 0.88061 0.29947 0.0
H820 H 0.87836 0.34941 0.7014 0.0
H821 H 0.91322 0.34307 0.71932 0.0
H822 H 0.93462 0.38769 0.64674 0.0
H823 H 0.89954 0.39469 0.62946 0.0
H824 H 0.94499 0.32926 0.68415 0.0
H825 H 0.96174 0.4066 0.73357 0.0
H826 H 0.93644 0.39868 0.72205 0.0
H827 H 0.95432 0.40573 0.68926 0.0
C828 C 0.89046 0.3579 0.68921 0.0
C829 C 0.88621 0.37262 0.66412 0.0
C830 C 0.91038 0.35425 0.69948 0.0
C831 C 0.92649 0.3651 0.6847 0.0
C832 C 0.92237 0.37951 0.65908 0.0
H833 H 0.0489 0.32014 0.73394 0.0
H834 H 0.01956 0.33152 0.70049 0.0
C835 C 0.90235 0.3834 0.64912 0.0
C836 C 0.94748 0.36103 0.69636 0.0
H837 H 0.98823 0.38259 0.73625 0.0
C838 C 0.95452 0.34093 0.69537 0.0
C839 C 0.95979 0.3763 0.71112 0.0
C840 C 0.95267 0.398 0.71441 0.0
C841 C 0.97319 0.33548 0.70994 0.0
C842 C 0.9855 0.35074 0.72478 0.0
C843 C 0.9788 0.37097 0.72463 0.0
C844 C 0.00438 0.34574 0.74356 0.0
C845 C 0.97895 0.31329 0.71095 0.0
C846 C 0.00607 0.3509 0.77838 0.0
C847 C 0.02296 0.34482 0.79734 0.0
C848 C 0.0384 0.33326 0.78187 0.0
C849 C 0.03706 0.32875 0.74666 0.0
C850 C 0.02029 0.33516 0.72756 0.0
H851 H 0.96569 0.30328 0.7061 0.0
H852 H 0.99042 0.3102 0.69075 0.0
H853 H 0.98561 0.30916 0.73619 0.0
H854 H 0.99399 0.35911 0.79121 0.0
H855 H 0.02355 0.34855 0.8244 0.0
H856 H 0.39952 0.09843 0.34313 0.0
H857 H 0.39191 0.06478 0.32009 0.0
H858 H 0.331 0.08413 0.29608 0.0
H859 H 0.33838 0.11786 0.31872 0.0
H860 H 0.36011 0.03594 0.33667 0.0
H861 H 0.35596 0.06541 0.20315 0.0
H862 H 0.36718 0.07968 0.23787 0.0
H863 H 0.34005 0.07843 0.23351 0.0
C864 C 0.38444 0.09552 0.33324 0.0
C865 C 0.36963 0.11094 0.33244 0.0
C866 C 0.38013 0.07627 0.32016 0.0
C867 C 0.36102 0.07218 0.306 0.0
C868 C 0.34594 0.08719 0.30648 0.0
H869 H 0.30579 0.96011 0.24099 0.0
H870 H 0.31615 0.99051 0.27218 0.0
C871 C 0.3502 0.10642 0.31953 0.0
C872 C 0.3571 0.0525 0.28929 0.0
H873 H 0.34602 0.03124 0.21178 0.0
C874 C 0.35709 0.03483 0.30936 0.0
C875 C 0.35351 0.0512 0.2536 0.0
C876 C 0.35433 0.06964 0.23063 0.0
C877 C 0.35307 0.01581 0.29467 0.0
C878 C 0.34875 0.01463 0.25918 0.0
C879 C 0.34922 0.03226 0.23904 0.0
C880 C 0.3434 -0.00467 0.24224 0.0
C881 C 0.35364 -0.00284 0.31711 0.0
C882 C 0.35521 0.98813 0.21489 0.0
C883 C 0.34927 0.97086 0.19678 0.0
C884 C 0.33131 0.96056 0.20561 0.0
C885 C 0.31971 0.96764 0.23351 0.0
C886 C 0.32567 0.98493 0.25156 0.0
H887 H 0.36232 -0.00013 0.34113 0.0
H888 H 0.33789 0.99294 0.32432 0.0
H889 H 0.36054 0.98413 0.30328 0.0
H890 H 0.3689 -0.00395 0.20725 0.0
H891 H 0.35861 0.96581 0.17554 0.0
H892 H 0.09159 0.58947 0.63728 0.0
H893 H 0.05639 0.59651 0.65361 0.0
H894 H 0.07699 0.64251 0.72428 0.0
H895 H 0.11205 0.63605 0.70745 0.0
H896 H 0.03741 0.59345 0.71402 0.0
H897 H 0.0348 0.67324 0.67088 0.0
H898 H 0.05519 0.6563 0.65913 0.0
H899 H 0.05552 0.66922 0.69991 0.0
C900 C 0.0886 0.60114 0.65621 0.0
C901 C 0.10458 0.61235 0.67084 0.0
C902 C 0.0685 0.60514 0.66546 0.0
C903 C 0.06408 0.62035 0.68953 0.0
C904 C 0.08003 0.63116 0.70482 0.0
H905 H 0.96598 0.63639 0.8272 0.0
H906 H 0.99515 0.62443 0.79445 0.0
C907 C 0.10008 0.62735 0.69533 0.0
C908 C 0.04287 0.62457 0.69971 0.0
H909 H 0.00955 0.66341 0.71252 0.0
C910 C 0.03115 0.60868 0.7132 0.0
C911 C 0.03453 0.64432 0.69777 0.0
C912 C 0.0456 0.66167 0.68076 0.0
C913 C 0.01175 0.61227 0.72672 0.0
C914 C 0.0042 0.63238 0.72765 0.0
C915 C 0.01544 0.64803 0.71229 0.0
C916 C 0.98545 0.63789 0.74642 0.0
C917 C -0.00035 0.5945 0.74003 0.0
C918 C 0.97047 0.64979 0.73053 0.0
C919 C 0.95401 0.65709 0.74945 0.0
C920 C 0.95218 0.65247 0.78454 0.0
C921 C 0.96687 0.64004 0.80013 0.0
C922 C 0.98347 0.63303 0.78134 0.0
H923 H 0.0037 0.58032 0.72617 0.0
H924 H 0.00323 0.59213 0.76757 0.0
H925 H 0.98306 0.5971 0.7374 0.0
H926 H 0.97176 0.65381 0.70364 0.0
H927 H 0.94285 0.66653 0.73669 0.0
H928 H 0.18865 0.53904 0.55597 0.0
H929 H 0.20884 0.52026 0.51471 0.0
H930 H 0.26329 0.53348 0.57196 0.0
H931 H 0.24303 0.55248 0.61413 0.0
H932 H 0.24537 0.53505 0.47507 0.0
H933 H 0.25937 0.46928 0.56171 0.0
H934 H 0.23902 0.48651 0.57238 0.0
H935 H 0.26486 0.49503 0.57459 0.0
C936 C 0.2049 0.53807 0.56 0.0
C937 C 0.21417 0.5472 0.58852 0.0
C938 C 0.21645 0.52744 0.5362 0.0
C939 C 0.23752 0.52567 0.54025 0.0
C940 C 0.24703 0.53478 0.56846 0.0
H941 H 0.23893 0.44488 0.36465 0.0
H942 H 0.25982 0.46687 0.40126 0.0
C943 C 0.23541 0.54553 0.5925 0.0
C944 C 0.24859 0.51297 0.51537 0.0
H945 H 0.25317 0.46212 0.50302 0.0
C946 C 0.24823 0.51921 0.48094 0.0
C947 C 0.25275 0.49249 0.52332 0.0
C948 C 0.25416 0.4853 0.55999 0.0
C949 C 0.24796 0.50487 0.45438 0.0
C950 C 0.24825 0.48405 0.46293 0.0
C951 C 0.25261 0.47816 0.49675 0.0
C952 C 0.23721 0.46939 0.4413 0.0
C953 C 0.24421 0.51191 0.4181 0.0
C954 C 0.21772 0.46356 0.45189 0.0
C955 C 0.2058 0.45119 0.43126 0.0
C956 C 0.21309 0.44437 0.39942 0.0
C957 C 0.2328 0.45001 0.38895 0.0
C958 C 0.2448 0.46248 0.4098 0.0
H959 H 0.24578 0.52863 0.41546 0.0
H960 H 0.25511 0.50447 0.40038 0.0
H961 H 0.22864 0.50754 0.41005 0.0
H962 H 0.21153 0.46898 0.476 0.0
H963 H 0.19078 0.44714 0.44028 0.0
H964 H 0.44011 0.79902 0.54156 0.0
H965 H 0.45916 0.77815 0.50182 0.0
H966 H 0.46051 0.72929 0.57556 0.0
H967 H 0.44142 0.7504 0.61622 0.0
H968 H 0.4976 0.73775 0.55247 0.0
H969 H 0.4491 0.73083 0.43933 0.0
H970 H 0.44706 0.75657 0.45365 0.0
H971 H 0.43874 0.73622 0.4814 0.0
C972 C 0.44419 0.78377 0.54937 0.0
C973 C 0.4394 0.77648 0.58223 0.0
C974 C 0.4548 0.77166 0.52629 0.0
C975 C 0.46076 0.75191 0.53532 0.0
C976 C 0.45569 0.74434 0.56786 0.0
H977 H 0.54281 0.75246 0.36531 0.0
H978 H 0.52171 0.73104 0.40251 0.0
C979 C 0.44494 0.75649 0.59109 0.0
C980 C 0.47513 0.74113 0.51254 0.0
H981 H 0.48538 0.74183 0.42708 0.0
C982 C 0.4948 0.73762 0.52503 0.0
C983 C 0.47149 0.73987 0.47685 0.0
C984 C 0.45033 0.74083 0.46221 0.0
C985 C 0.51136 0.73711 0.50249 0.0
C986 C 0.50797 0.7407 0.46719 0.0
C987 C 0.48808 0.73991 0.45436 0.0
C988 C 0.52337 0.75125 0.44618 0.0
C989 C 0.53246 0.73512 0.51705 0.0
C990 C 0.53107 0.76978 0.4583 0.0
C991 C 0.5428 0.78208 0.4372 0.0
C992 C 0.54702 0.77624 0.4033 0.0
C993 C 0.53977 0.75741 0.39132 0.0
C994 C 0.52786 0.74508 0.41256 0.0
H995 H 0.53263 0.72385 0.53827 0.0
H996 H 0.54359 0.73042 0.49713 0.0
H997 H 0.53727 0.74992 0.52799 0.0
H998 H 0.52722 0.77525 0.4837 0.0
H999 H 0.54821 0.79639 0.44738 0.0
H1000 H 0.75043 0.4415 0.62317 0.0
H1001 H 0.72931 0.46152 0.58387 0.0
H1002 H 0.7764 0.45796 0.50702 0.0
H1003 H 0.79723 0.43795 0.54539 0.0
H1004 H 0.73869 0.49808 0.56041 0.0
H1005 H 0.72749 0.45026 0.44749 0.0
H1006 H 0.73355 0.43956 0.48903 0.0
H1007 H 0.75348 0.44727 0.45991 0.0
C1008 C 0.75611 0.44472 0.59765 0.0
C1009 C 0.77562 0.43828 0.58752 0.0
C1010 C 0.74395 0.45603 0.5752 0.0
C1011 C 0.75101 0.46077 0.54218 0.0
C1012 C 0.77026 0.45388 0.53188 0.0
H1013 H 0.79555 0.54827 0.4512 0.0
H1014 H 0.77512 0.52755 0.48905 0.0
C1015 C 0.78237 0.44271 0.55417 0.0
C1016 C 0.74041 0.47564 0.52013 0.0
H1017 H 0.73944 0.48614 0.43475 0.0
C1018 C 0.73786 0.49537 0.53298 0.0
C1019 C 0.73823 0.47217 0.48451 0.0
C1020 C 0.73809 0.45105 0.46963 0.0
C1021 C 0.73732 0.512 0.51062 0.0
C1022 C 0.73994 0.50863 0.47506 0.0
C1023 C 0.73828 0.48882 0.46216 0.0
C1024 C 0.75017 0.52388 0.45328 0.0
C1025 C 0.73623 0.5331 0.52549 0.0
C1026 C 0.74322 0.5284 0.4201 0.0
C1027 C 0.75516 0.54013 0.39795 0.0
C1028 C 0.77434 0.54722 0.40855 0.0
C1029 C 0.78094 0.543 0.44206 0.0
C1030 C 0.76905 0.53142 0.46405 0.0
H1031 H 0.72542 0.53349 0.54739 0.0
H1032 H 0.75138 0.53745 0.53556 0.0
H1033 H 0.73141 0.54442 0.50599 0.0
H1034 H 0.72887 0.5224 0.41107 0.0
H1035 H 0.7496 0.54316 0.37229 0.0
H1036 H 0.43901 0.19827 0.44796 0.0
H1037 H 0.46077 0.21829 0.48468 0.0
H1038 H 0.46963 0.26183 0.40329 0.0
H1039 H 0.4478 0.24148 0.36563 0.0
H1040 H 0.50488 0.24958 0.4286 0.0
H1041 H 0.45802 0.26965 0.53915 0.0
H1042 H 0.45227 0.24378 0.52921 0.0
H1043 H 0.44691 0.26337 0.49802 0.0
C1044 C 0.44532 0.21221 0.4378 0.0
C1045 C 0.44182 0.21813 0.40369 0.0
C1046 C 0.4575 0.2239 0.45913 0.0
C1047 C 0.46639 0.24191 0.4471 0.0
C1048 C 0.4626 0.2482 0.41328 0.0
H1049 H 0.54833 0.24008 0.61795 0.0
H1050 H 0.52944 0.26136 0.57732 0.0
C1051 C 0.45026 0.23647 0.39177 0.0
C1052 C 0.48218 0.25163 0.46845 0.0
H1053 H 0.49232 0.25404 0.55387 0.0
C1054 C 0.50214 0.25156 0.45586 0.0
C1055 C 0.4788 0.2553 0.50375 0.0
C1056 C 0.45775 0.25828 0.51809 0.0
C1057 C 0.51863 0.25091 0.47853 0.0
C1058 C 0.5148 0.24977 0.51418 0.0
C1059 C 0.49523 0.25404 0.52647 0.0
C1060 C 0.52879 0.23868 0.53719 0.0
C1061 C 0.53979 0.24918 0.46408 0.0
C1062 C 0.53439 0.2188 0.52828 0.0
C1063 C 0.54491 0.20661 0.55132 0.0
C1064 C 0.54994 0.2139 0.58409 0.0
C1065 C 0.54462 0.23396 0.59292 0.0
C1066 C 0.53399 0.24621 0.5697 0.0
H1067 H 0.54147 0.25914 0.44124 0.0
H1068 H 0.55148 0.25335 0.48337 0.0
H1069 H 0.54252 0.23334 0.45551 0.0
H1070 H 0.52989 0.21234 0.50387 0.0
H1071 H 0.54877 0.1913 0.54353 0.0
H1072 H 0.68697 0.03873 0.05838 0.0
H1073 H 0.70786 0.01912 0.01925 0.0
H1074 H 0.76072 0.03071 0.08154 0.0
H1075 H 0.73974 0.05053 0.12157 0.0
H1076 H 0.74569 0.03271 0.98298 0.0
H1077 H 0.75578 0.96682 0.07096 0.0
H1078 H 0.7356 0.98462 0.07972 0.0
H1079 H 0.76156 0.99243 0.08423 0.0
C1080 C 0.70302 0.03722 0.06397 0.0
C1081 C 0.71163 0.04615 0.09326 0.0
C1082 C 0.71497 0.0261 0.0414 0.0
C1083 C 0.73581 0.02364 0.04745 0.0
C1084 C 0.74465 0.03252 0.07651 0.0
H1085 H 0.74186 0.94389 0.87066 0.0
H1086 H 0.76192 0.96518 0.90977 0.0
C1087 C 0.73261 0.04373 0.09932 0.0
C1088 C 0.74733 0.01065 0.02357 0.0
H1089 H 0.7521 0.95977 0.01176 0.0
C1090 C 0.7482 0.01685 0.98915 0.0
C1091 C 0.75103 0.99015 0.03196 0.0
C1092 C 0.75107 0.98297 0.06871 0.0
C1093 C 0.7488 0.0025 0.96262 0.0
C1094 C 0.74872 0.98167 0.97118 0.0
C1095 C 0.75183 0.9758 0.00543 0.0
C1096 C 0.73843 0.96702 0.94845 0.0
C1097 C 0.74639 0.00958 0.92602 0.0
C1098 C 0.71877 0.96089 0.95754 0.0
C1099 C 0.70734 0.94892 0.93552 0.0
C1100 C 0.71528 0.94277 0.90372 0.0
C1101 C 0.73523 0.94852 0.89487 0.0
C1102 C 0.74675 0.9606 0.91715 0.0
H1103 H 0.74772 0.02633 0.92365 0.0
H1104 H 0.75816 0.00242 0.9096 0.0
H1105 H 0.73129 0.00491 0.91611 0.0
H1106 H 0.71199 0.96589 0.98147 0.0
H1107 H 0.69213 0.94473 0.94338 0.0
H1108 H 0.93977 0.24425 0.11802 0.0
H1109 H 0.95997 0.22409 0.07739 0.0
H1110 H 0.96842 0.27727 0.0144 0.0
H1111 H 0.94832 0.29729 0.05403 0.0
H1112 H 0.95814 0.23998 0.97757 0.0
H1113 H 0.0228 0.23127 0.06875 0.0
H1114 H -0.00252 0.22338 0.08023 0.0
H1115 H 0.00343 0.24991 0.07764 0.0
C1116 C 0.94588 0.2516 0.0954 0.0
C1117 C 0.94255 0.27246 0.08944 0.0
C1118 C 0.95735 0.24004 0.07225 0.0
C1119 C 0.9656 0.24921 0.04294 0.0
C1120 C 0.96198 0.26986 0.03674 0.0
H1121 H 0.04642 0.29534 0.94464 0.0
H1122 H 0.025 0.27472 0.98108 0.0
C1123 C 0.9506 0.28135 0.05964 0.0
C1124 C 0.97943 0.23843 0.01933 0.0
H1125 H 0.03065 0.23474 0.01015 0.0
C1126 C 0.97394 0.23778 0.98455 0.0
C1127 C -0.00013 0.2351 0.02874 0.0
C1128 C 0.0064 0.23485 0.06584 0.0
C1129 C 0.98881 0.23777 0.9588 0.0
C1130 C 0.00948 0.23814 0.9685 0.0
C1131 C 0.01473 0.23481 0.00297 0.0
C1132 C 0.02443 0.24884 0.94682 0.0
C1133 C 0.98237 0.24042 0.92191 0.0
C1134 C 0.03132 0.24108 0.91538 0.0
C1135 C 0.04356 0.25306 0.89401 0.0
C1136 C 0.04899 0.27291 0.90393 0.0
C1137 C 0.04246 0.28024 0.93594 0.0
C1138 C 0.03034 0.26836 0.95704 0.0
H1139 H 0.96567 0.23904 0.91865 0.0
H1140 H 0.98717 0.25559 0.91252 0.0
H1141 H 0.98986 0.22878 0.90565 0.0
H1142 H 0.02697 0.226 0.90714 0.0
H1143 H 0.04849 0.2469 0.86962 0.0
H1144 H 0.24916 0.04538 0.86348 0.0
H1145 H 0.22792 0.02392 0.90039 0.0
H1146 H 0.27122 0.03095 0.98268 0.0
H1147 H 0.29211 0.05233 0.94668 0.0
H1148 H 0.23917 0.98812 0.92517 0.0
H1149 H 0.21953 0.03464 0.03631 0.0
H1150 H 0.22629 0.04588 0.99549 0.0
H1151 H 0.2456 0.03985 0.02686 0.0
C1152 C 0.25392 0.04262 0.88968 0.0
C1153 C 0.27245 0.05039 0.90204 0.0
C1154 C 0.24169 0.03048 0.91075 0.0
C1155 C 0.24768 0.02626 0.94458 0.0
C1156 C 0.26585 0.03455 0.9571 0.0
H1157 H 0.29637 0.94304 0.03999 0.0
H1158 H 0.27547 0.96193 0.00013 0.0
C1159 C 0.27804 0.04651 0.93619 0.0
C1160 C 0.2374 0.01057 0.96542 0.0
H1161 H 0.23426 -9e-05 0.05059 0.0
C1162 C 0.23709 0.99071 0.95244 0.0
C1163 C 0.23359 0.01378 0.00072 0.0
C1164 C 0.23102 0.03479 0.01542 0.0
C1165 C 0.23724 0.97407 0.9748 0.0
C1166 C 0.23828 0.97762 0.01055 0.0
C1167 C 0.23434 -0.00282 0.02313 0.0
C1168 C 0.2491 0.96332 0.0334 0.0
C1169 C 0.23861 0.95298 0.95997 0.0
C1170 C 0.24147 0.95816 0.06588 0.0
C1171 C 0.25365 0.9475 0.08921 0.0
C1172 C 0.27372 0.94215 0.08051 0.0
C1173 C 0.28105 0.94699 0.04768 0.0
C1174 C 0.26893 0.9575 0.02452 0.0
H1175 H 0.22866 0.95165 0.93705 0.0
H1176 H 0.25441 0.95002 0.95141 0.0
H1177 H 0.23418 0.94125 0.97902 0.0
H1178 H 0.22636 0.96285 0.07348 0.0
H1179 H 0.24752 0.94395 0.1143 0.0
H1180 H 0.94196 0.74049 0.87256 0.0
H1181 H 0.96373 0.76118 0.90985 0.0
H1182 H 0.96784 0.71142 0.98151 0.0
H1183 H 0.94612 0.69094 0.94524 0.0
H1184 H 0.96196 0.75088 0.01247 0.0
H1185 H 0.02537 0.74934 0.91762 0.0
H1186 H 0.00077 0.75935 0.90636 0.0
H1187 H 0.00408 0.73249 0.91174 0.0
C1188 C 0.94742 0.73403 0.8964 0.0
C1189 C 0.94248 0.71394 0.90573 0.0
C1190 C 0.95979 0.74591 0.91764 0.0
C1191 C 0.96736 0.73781 0.94835 0.0
C1192 C 0.96197 0.71803 0.95803 0.0
H1193 H 0.04501 0.68809 0.04727 0.0
H1194 H 0.02505 0.70945 0.00953 0.0
C1195 C 0.94966 0.70625 0.93705 0.0
C1196 C 0.98246 0.7485 0.96969 0.0
H1197 H 0.03394 0.7475 0.97605 0.0
C1198 C 0.97774 0.7512 0.00452 0.0
C1199 C 0.00293 0.74947 0.95896 0.0
C1200 C 0.00876 0.74759 0.92164 0.0
C1201 C 0.99304 0.75071 0.02951 0.0
C1202 C 0.01336 0.74781 0.01892 0.0
C1203 C 0.01824 0.7493 0.98394 0.0
C1204 C 0.02758 0.73643 0.04101 0.0
C1205 C 0.98711 0.75019 0.0669 0.0
C1206 C 0.03573 0.74457 0.07125 0.0
C1207 C 0.04708 0.7322 0.09335 0.0
C1208 C 0.05041 0.71158 0.08535 0.0
C1209 C 0.04269 0.70381 0.05445 0.0
C1210 C 0.0314 0.71608 0.03263 0.0
H1211 H 0.97069 0.75336 0.07075 0.0
H1212 H 0.9906 0.73502 0.07786 0.0
H1213 H -0.00401 0.76164 0.0814 0.0
H1214 H 0.03301 0.76027 0.07804 0.0
H1215 H 0.05299 0.73871 0.11683 0.0
H1216 H 0.15918 0.33363 0.24624 0.0
H1217 H 0.15045 0.32352 0.18778 0.0
H1218 H 0.18979 0.3701 0.14755 0.0
H1219 H 0.19838 0.38059 0.20583 0.0
H1220 H 0.15147 0.37186 0.12126 0.0
H1221 H 0.18135 0.29326 0.11286 0.0
H1222 H 0.16525 0.2976 0.14934 0.0
H1223 H 0.18906 0.31078 0.14604 0.0
C1224 C 0.16628 0.34151 0.225 0.0
C1225 C 0.17942 0.358 0.23076 0.0
C1226 C 0.16134 0.33562 0.19158 0.0
C1227 C 0.16963 0.34594 0.16338 0.0
C1228 C 0.18328 0.36192 0.16902 0.0
H1229 H 0.15715 0.31849 0.94686 0.0
H1230 H 0.16942 0.32293 0.00556 0.0
C1231 C 0.18815 0.36789 0.20237 0.0
C1232 C 0.16265 0.3414 0.12814 0.0
H1233 H 0.15894 0.30382 0.06814 0.0
C1234 C 0.1532 0.35702 0.10956 0.0
C1235 C 0.16505 0.32206 0.11294 0.0
C1236 C 0.1759 0.305 0.13116 0.0
C1237 C 0.14586 0.35377 0.07629 0.0
C1238 C 0.14765 0.33426 0.06151 0.0
C1239 C 0.15738 0.31869 0.07981 0.0
C1240 C 0.13987 0.32996 0.02669 0.0
C1241 C 0.13653 0.37136 0.05707 0.0
C1242 C 0.11911 0.33194 0.01944 0.0
C1243 C 0.11203 0.32953 0.98592 0.0
C1244 C 0.12559 0.32494 0.95909 0.0
C1245 C 0.14629 0.32213 0.96682 0.0
C1246 C 0.15335 0.32461 0.00035 0.0
H1247 H 0.14087 0.38619 0.06847 0.0
H1248 H 0.14119 0.37123 0.02967 0.0
H1249 H 0.11974 0.37011 0.05816 0.0
H1250 H 0.10843 0.33568 0.03963 0.0
H1251 H 0.09597 0.33157 0.98101 0.0
H1252 H 0.33521 0.89802 0.01142 0.0
H1253 H 0.34001 0.88461 0.95358 0.0
H1254 H 0.33362 0.82358 0.99207 0.0
H1255 H 0.32849 0.83679 0.05002 0.0
H1256 H 0.37075 0.85892 0.93272 0.0
H1257 H 0.29512 0.82428 0.90959 0.0
H1258 H 0.29971 0.84219 0.94381 0.0
H1259 H 0.30733 0.81613 0.94845 0.0
C1260 C 0.33466 0.88174 0.00764 0.0
C1261 C 0.33149 0.86848 0.03543 0.0
C1262 C 0.3374 0.87412 0.97454 0.0
C1263 C 0.33695 0.85314 0.96855 0.0
C1264 C 0.33362 0.83985 0.99608 0.0
H1265 H 0.38899 0.79665 0.7866 0.0
H1266 H 0.38013 0.80523 0.84578 0.0
C1267 C 0.33082 0.84744 0.02922 0.0
C1268 C 0.34109 0.84522 0.93376 0.0
H1269 H 0.32074 0.81753 0.86819 0.0
C1270 C 0.35983 0.84987 0.91858 0.0
C1271 C 0.32672 0.83356 0.91539 0.0
C1272 C 0.30601 0.82887 0.92994 0.0
C1273 C 0.36464 0.84316 0.88544 0.0
C1274 C 0.35045 0.83114 0.86733 0.0
C1275 C 0.33166 0.82654 0.88241 0.0
C1276 C 0.35453 0.82413 0.83198 0.0
C1277 C 0.38464 0.84945 0.86976 0.0
C1278 C 0.34251 0.83124 0.80483 0.0
C1279 C 0.34742 0.82628 0.77101 0.0
C1280 C 0.36445 0.81409 0.76374 0.0
C1281 C 0.37589 0.80622 0.79121 0.0
C1282 C 0.37092 0.81116 0.82505 0.0
H1283 H 0.39161 0.86238 0.88376 0.0
H1284 H 0.39538 0.83648 0.8708 0.0
H1285 H 0.38266 0.85384 0.84244 0.0
H1286 H 0.32974 0.84121 0.80975 0.0
H1287 H 0.33821 0.83255 0.75056 0.0
H1288 H 0.89297 0.65646 0.98196 0.0
H1289 H 0.87977 0.65073 0.0397 0.0
H1290 H 0.81892 0.66223 0.00373 0.0
H1291 H 0.83194 0.66829 0.94585 0.0
H1292 H 0.82766 0.6803 0.06756 0.0
H1293 H 0.84878 0.59876 0.06494 0.0
H1294 H 0.86958 0.61557 0.05611 0.0
H1295 H 0.8485 0.61435 0.02685 0.0
C1296 C 0.87678 0.6579 0.98626 0.0
C1297 C 0.86349 0.6626 0.95912 0.0
C1298 C 0.86927 0.65454 0.01928 0.0
C1299 C 0.84835 0.65565 0.02572 0.0
C1300 C 0.83512 0.66117 -0.00087 0.0
H1301 H 0.79328 0.60149 0.2067 0.0
H1302 H 0.80073 0.61174 0.14776 0.0
C1303 C 0.84261 0.6646 0.96608 0.0
C1304 C 0.84027 0.65047 0.06002 0.0
H1305 H 0.83818 0.61212 0.1187 0.0
C1306 C 0.82983 0.66538 0.07874 0.0
C1307 C 0.84281 0.63086 0.07416 0.0
C1308 C 0.85285 0.61389 0.05438 0.0
C1309 C 0.82238 0.66135 0.11182 0.0
C1310 C 0.82578 0.64203 0.12657 0.0
C1311 C 0.83572 0.62697 0.10741 0.0
C1312 C 0.81972 0.63713 0.1622 0.0
C1313 C 0.81082 0.67776 0.13051 0.0
C1314 C 0.82786 0.64808 0.18982 0.0
C1315 C 0.82359 0.64232 0.22354 0.0
C1316 C 0.81126 0.62534 0.23029 0.0
C1317 C 0.80285 0.61462 0.20249 0.0
C1318 C 0.80707 0.62045 0.16877 0.0
H1319 H 0.80433 0.68905 0.11239 0.0
H1320 H 0.79832 0.67125 0.14614 0.0
H1321 H 0.82133 0.6859 0.14799 0.0
H1322 H 0.83805 0.6607 0.18532 0.0
H1323 H 0.83044 0.65087 0.24427 0.0
H1324 H 0.67462 0.14875 0.04591 0.0
H1325 H 0.66979 0.16088 0.98718 0.0
H1326 H 0.63313 0.1083 0.96458 0.0
H1327 H 0.63847 0.09572 0.02287 0.0
H1328 H 0.65854 0.11636 0.91323 0.0
H1329 H 0.61894 0.18717 0.95151 0.0
H1330 H 0.64386 0.18491 0.96969 0.0
H1331 H 0.6244 0.16707 0.98156 0.0
C1332 C 0.66554 0.13976 0.02841 0.0
C1333 C 0.65677 0.12136 0.03909 0.0
C1334 C 0.6627 0.14678 0.99493 0.0
C1335 C 0.65069 0.13574 0.97178 0.0
C1336 C 0.64235 0.11712 0.98212 0.0
H1337 H 0.59284 0.17855 0.78719 0.0
H1338 H 0.60197 0.16847 0.84549 0.0
C1339 C 0.64542 0.10995 0.01543 0.0
C1340 C 0.64677 0.14352 0.93673 0.0
H1341 H 0.62716 0.18374 0.89252 0.0
C1342 C 0.65166 0.13109 0.90867 0.0
C1343 C 0.63753 0.16262 0.93091 0.0
C1344 C 0.63068 0.17613 0.96001 0.0
C1345 C 0.64754 0.13719 0.8749 0.0
C1346 C 0.63888 0.15656 0.86903 0.0
C1347 C 0.63402 0.16901 0.89709 0.0
C1348 C 0.63381 0.16378 0.83407 0.0
C1349 C 0.65186 0.12253 0.84602 0.0
C1350 C 0.64879 0.16502 0.80854 0.0
C1351 C 0.64357 0.17053 0.77507 0.0
C1352 C 0.62335 0.17531 0.76673 0.0
C1353 C 0.60857 0.175 0.79277 0.0
C1354 C 0.61375 0.16921 0.8261 0.0
H1355 H 0.65304 0.10665 0.85541 0.0
H1356 H 0.63983 0.1232 0.82608 0.0
H1357 H 0.66656 0.12654 0.83386 0.0
H1358 H 0.66447 0.16147 0.81438 0.0
H1359 H 0.65536 0.17087 0.75567 0.0
H1360 H 0.17754 0.65774 0.75361 0.0
H1361 H 0.17099 0.66924 0.81224 0.0
H1362 H 0.17726 0.60771 0.84874 0.0
H1363 H 0.18454 0.59624 0.79055 0.0
H1364 H 0.14006 0.65958 0.85056 0.0
H1365 H 0.20954 0.63687 0.91978 0.0
H1366 H 0.20819 0.6372 0.87351 0.0
H1367 H 0.19902 0.61561 0.89734 0.0
C1368 C 0.17787 0.64672 0.77424 0.0
C1369 C 0.18158 0.62608 0.76748 0.0
C1370 C 0.17415 0.65332 0.80772 0.0
C1371 C 0.17394 0.6394 0.83498 0.0
C1372 C 0.17796 0.61884 0.82833 0.0
H1373 H 0.10154 0.64106 0.01575 0.0
H1374 H 0.11577 0.63906 0.95807 0.0
C1375 C 0.18197 0.61227 0.79496 0.0
C1376 C 0.16759 0.64593 0.86974 0.0
H1377 H 0.17936 0.64116 0.9546 0.0
C1378 C 0.14884 0.65587 0.87328 0.0
C1379 C 0.17918 0.64146 0.89937 0.0
C1380 C 0.2002 0.63241 0.89726 0.0
C1381 C 0.14088 0.6605 0.9057 0.0
C1382 C 0.15166 0.65442 0.93536 0.0
C1383 C 0.17091 0.64548 0.93184 0.0
C1384 C 0.14285 0.65626 0.97018 0.0
C1385 C 0.12096 0.67179 0.90773 0.0
C1386 C 0.15365 0.66603 0.99645 0.0
C1387 C 0.14573 0.66684 0.02969 0.0
C1388 C 0.12682 0.65795 0.03716 0.0
C1389 C 0.11602 0.64826 0.01074 0.0
C1390 C 0.12407 0.64723 0.97767 0.0
H1391 H 0.11855 0.68139 0.88462 0.0
H1392 H 0.10832 0.66069 0.9089 0.0
H1393 H 0.12023 0.68162 0.93085 0.0
H1394 H 0.16823 0.67298 0.99125 0.0
H1395 H 0.15439 0.67447 0.04947 0.0
H1396 H 0.65777 0.81893 0.24251 0.0
H1397 H 0.66945 0.8266 0.18437 0.0
H1398 H 0.60801 0.8215 0.14698 0.0
H1399 H 0.59628 0.8132 0.20474 0.0
H1400 H 0.6348 0.80378 0.10392 0.0
H1401 H 0.66135 0.88104 0.13899 0.0
H1402 H 0.67318 0.86103 0.16303 0.0
H1403 H 0.64639 0.86563 0.16766 0.0
C1404 C 0.64675 0.81936 0.22188 0.0
C1405 C 0.62607 0.81563 0.22829 0.0
C1406 C 0.65345 0.82384 0.18872 0.0
C1407 C 0.63953 0.82505 0.16154 0.0
C1408 C 0.61899 0.82073 0.16766 0.0
H1409 H 0.64541 0.89007 0.97266 0.0
H1410 H 0.64075 0.87752 0.03095 0.0
C1411 C 0.61231 0.816 0.2007 0.0
C1412 C 0.64615 0.83126 0.12678 0.0
H1413 H 0.66721 0.87046 0.08199 0.0
C1414 C 0.64196 0.81832 0.09907 0.0
C1415 C 0.6553 0.85034 0.1206 0.0
C1416 C 0.65916 0.86541 0.14906 0.0
C1417 C 0.64633 0.82407 0.0652 0.0
C1418 C 0.65566 0.84307 0.05906 0.0
C1419 C 0.66021 0.85583 0.08684 0.0
C1420 C 0.65935 0.85074 0.0239 0.0
C1421 C 0.6401 0.81014 0.0363 0.0
C1422 C 0.67167 0.84001 0.00074 0.0
C1423 C 0.67419 0.84703 0.96714 0.0
C1424 C 0.6647 0.86509 0.95637 0.0
C1425 C 0.65295 0.87612 0.98006 0.0
C1426 C 0.65027 0.86897 0.01343 0.0
H1427 H 0.62879 0.7987 0.04483 0.0
H1428 H 0.63353 0.81888 0.0146 0.0
H1429 H 0.65366 0.80187 0.02676 0.0
H1430 H 0.67924 0.82617 0.00857 0.0
H1431 H 0.68352 0.83831 0.94963 0.0
H1432 H 0.83279 0.33737 0.75561 0.0
H1433 H 0.84125 0.32869 0.81472 0.0
H1434 H 0.8058 0.37942 0.85095 0.0
H1435 H 0.79748 0.38852 0.79178 0.0
H1436 H 0.84384 0.37832 0.87868 0.0
H1437 H 0.80733 0.30286 0.89011 0.0
H1438 H 0.82397 0.30482 0.85377 0.0
H1439 H 0.80149 0.32031 0.85574 0.0
C1440 C 0.82653 0.34656 0.7761 0.0
C1441 C 0.81444 0.36366 0.76888 0.0
C1442 C 0.83131 0.34148 0.80992 0.0
C1443 C 0.82391 0.35324 0.8372 0.0
C1444 C 0.81156 0.3701 0.8302 0.0
H1445 H 0.83546 0.32426 0.0537 0.0
H1446 H 0.823 0.33078 0.99573 0.0
C1447 C 0.80683 0.37526 0.79637 0.0
C1448 C 0.83027 0.34879 0.87282 0.0
H1449 H 0.83121 0.31164 0.93385 0.0
C1450 C 0.84095 0.3638 0.89086 0.0
C1451 C 0.8263 0.3299 0.8887 0.0
C1452 C 0.81397 0.31362 0.87122 0.0
C1453 C 0.84817 0.36029 0.92417 0.0
C1454 C 0.84496 0.3411 0.93949 0.0
C1455 C 0.83387 0.32624 0.92178 0.0
C1456 C 0.85274 0.33631 0.97414 0.0
C1457 C 0.85895 0.37724 0.94279 0.0
C1458 C 0.87365 0.33682 0.98095 0.0
C1459 C 0.88086 0.3332 0.0141 0.0
C1460 C 0.86727 0.32883 0.04097 0.0
C1461 C 0.84636 0.32767 0.0337 0.0
C1462 C 0.83919 0.33137 0.00058 0.0
H1463 H 0.85541 0.39229 0.93139 0.0
H1464 H 0.85472 0.37752 0.97038 0.0
H1465 H 0.87559 0.37485 0.94094 0.0
H1466 H 0.88438 0.34017 0.96066 0.0
H1467 H 0.89706 0.33402 0.01867 0.0
H1468 H 0.32928 0.09694 0.98138 0.0
H1469 H 0.33349 0.10943 0.03995 0.0
H1470 H 0.32661 0.171 0.0042 0.0
H1471 H 0.32201 0.15871 0.9456 0.0
H1472 H 0.36387 0.13442 0.06207 0.0
H1473 H 0.28873 0.16963 0.08685 0.0
H1474 H 0.29315 0.15235 0.05164 0.0
H1475 H 0.30074 0.17848 0.04829 0.0
C1476 C 0.32843 0.11314 0.98595 0.0
C1477 C 0.32534 0.12682 0.95872 0.0
C1478 C 0.33083 0.12023 0.01947 0.0
C1479 C 0.33013 0.14111 0.02644 0.0
C1480 C 0.32676 0.1548 -0.00053 0.0
H1481 H 0.38477 0.1983 0.20438 0.0
H1482 H 0.3749 0.18856 0.14622 0.0
C1483 C 0.32427 0.14773 0.96594 0.0
C1484 C 0.33438 0.14858 0.06151 0.0
H1485 H 0.31494 0.17685 0.12724 0.0
C1486 C 0.35314 0.14363 0.07638 0.0
C1487 C 0.32028 0.16045 0.08017 0.0
C1488 C 0.29951 0.1654 0.0661 0.0
C1489 C 0.3583 0.1504 0.10932 0.0
C1490 C 0.34449 0.16283 0.12754 0.0
C1491 C 0.32559 0.16756 0.11293 0.0
C1492 C 0.34922 0.17044 0.16231 0.0
C1493 C 0.37835 0.14389 0.12458 0.0
C1494 C 0.33749 0.16418 0.1904 0.0
C1495 C 0.34298 0.16983 0.22367 0.0
C1496 C 0.3603 0.18187 0.22941 0.0
C1497 C 0.37145 0.18887 0.20097 0.0
C1498 C 0.3659 0.18326 0.16771 0.0
H1499 H 0.38482 0.13054 0.11099 0.0
H1500 H 0.38938 0.15654 0.12243 0.0
H1501 H 0.37664 0.14004 0.15219 0.0
H1502 H 0.32449 0.15436 0.18667 0.0
H1503 H 0.33398 0.1642 0.24491 0.0
H1504 H 0.59591 0.83168 0.48277 0.0
H1505 H 0.60979 0.83621 0.54039 0.0
H1506 H 0.67045 0.82837 0.50086 0.0
H1507 H 0.65679 0.82357 0.44312 0.0
H1508 H 0.66307 0.80799 0.56394 0.0
H1509 H 0.6395 0.88892 0.5675 0.0
H1510 H 0.61927 0.87151 0.55823 0.0
H1511 H 0.63989 0.87426 0.52836 0.0
C1512 C 0.6122 0.83077 0.48627 0.0
C1513 C 0.62525 0.82751 0.45819 0.0
C1514 C 0.62009 0.83343 0.51921 0.0
C1515 C 0.64113 0.833 0.52463 0.0
C1516 C 0.65416 0.82888 0.49705 0.0
H1517 H 0.69901 0.88534 0.70396 0.0
H1518 H 0.69072 0.87539 0.64523 0.0
C1519 C 0.6463 0.82617 0.46408 0.0
C1520 C 0.64958 0.83762 0.55886 0.0
H1521 H 0.6521 0.87491 0.61937 0.0
C1522 C 0.66077 0.82263 0.57608 0.0
C1523 C 0.64684 0.85687 0.57422 0.0
C1524 C 0.63589 0.87391 0.55605 0.0
C1525 C 0.66887 0.82623 0.60885 0.0
C1526 C 0.66541 0.84521 0.62477 0.0
C1527 C 0.65463 0.86034 0.60714 0.0
C1528 C 0.6723 0.84967 0.66008 0.0
C1529 C 0.68117 0.80978 0.62599 0.0
C1530 C 0.66482 0.83837 0.68782 0.0
C1531 C 0.66956 0.84397 0.72144 0.0
C1532 C 0.68169 0.86112 0.72793 0.0
C1533 C 0.6896 0.87208 0.69996 0.0
C1534 C 0.68489 0.86642 0.66636 0.0
H1535 H 0.68728 0.79877 0.60699 0.0
H1536 H 0.69403 0.8163 0.64075 0.0
H1537 H 0.67131 0.80131 0.64409 0.0
H1538 H 0.65472 0.82566 0.68355 0.0
H1539 H 0.66312 0.83522 0.74231 0.0
H1540 H 0.83252 0.39045 0.51504 0.0
H1541 H 0.83709 0.37681 0.45734 0.0
H1542 H 0.83006 0.31598 0.49641 0.0
H1543 H 0.82512 0.32945 0.55428 0.0
H1544 H 0.86781 0.35122 0.43751 0.0
H1545 H 0.79262 0.31606 0.41275 0.0
H1546 H 0.79681 0.33403 0.44702 0.0
H1547 H 0.80455 0.30803 0.45194 0.0
C1548 C 0.83172 0.37417 0.51141 0.0
C1549 C 0.8285 0.36105 0.53938 0.0
C1550 C 0.83433 0.36641 0.47838 0.0
C1551 C 0.83373 0.34541 0.47258 0.0
C1552 C 0.83018 0.33226 0.50024 0.0
H1553 H 0.88807 0.28948 0.29173 0.0
H1554 H 0.8785 0.29769 0.35076 0.0
C1555 C 0.82747 0.34 0.53334 0.0
C1556 C 0.83822 0.33734 0.43795 0.0
H1557 H 0.81865 0.30936 0.37203 0.0
C1558 C 0.85707 0.34206 0.42318 0.0
C1559 C 0.8241 0.32553 0.41929 0.0
C1560 C 0.8033 0.32073 0.43336 0.0
C1561 C 0.8622 0.33534 0.39018 0.0
C1562 C 0.84826 0.32318 0.37177 0.0
C1563 C 0.82938 0.31847 0.38646 0.0
C1564 C 0.85269 0.31619 0.33647 0.0
C1565 C 0.88227 0.34179 0.37496 0.0
C1566 C 0.84079 0.32314 0.30906 0.0
C1567 C 0.8461 0.31838 0.27531 0.0
C1568 C 0.86344 0.30655 0.26836 0.0
C1569 C 0.87474 0.29878 0.29608 0.0
C1570 C 0.86936 0.30351 0.32984 0.0
H1571 H 0.88899 0.35482 0.38903 0.0
H1572 H 0.89314 0.32893 0.37638 0.0
H1573 H 0.8805 0.34609 0.34756 0.0
H1574 H 0.82781 0.33288 0.31371 0.0
H1575 H 0.83697 0.32456 0.25468 0.0
H1576 H 0.30808 0.10204 0.7046 0.0
H1577 H 0.31702 0.11413 0.64742 0.0
H1578 H 0.3245 0.1748 0.68708 0.0
H1579 H 0.31616 0.16271 0.74474 0.0
H1580 H 0.3005 0.14204 0.60527 0.0
H1581 H 0.37875 0.16503 0.64165 0.0
H1582 H 0.36268 0.15037 0.66972 0.0
H1583 H 0.35909 0.17734 0.66586 0.0
C1584 C 0.31151 0.11799 0.70121 0.0
C1585 C 0.3116 0.13137 0.72932 0.0
C1586 C 0.31662 0.12488 0.66847 0.0
C1587 C 0.32179 0.14528 0.66313 0.0
C1588 C 0.32106 0.15889 0.69082 0.0
H1589 H 0.33777 0.18882 0.45133 0.0
H1590 H 0.32531 0.18541 0.51026 0.0
C1591 C 0.31618 0.15197 0.7237 0.0
C1592 C 0.32838 0.15202 0.62863 0.0
H1593 H 0.36872 0.17145 0.58458 0.0
C1594 C 0.31537 0.14858 0.6007 0.0
C1595 C 0.34789 0.16033 0.6228 0.0
C1596 C 0.36301 0.16333 0.6515 0.0
C1597 C 0.32149 0.15278 0.56696 0.0
C1598 C 0.34094 0.16124 0.56115 0.0
C1599 C 0.35376 0.16512 0.58917 0.0
C1600 C 0.34897 0.16459 0.5261 0.0
C1601 C 0.30743 0.14724 0.53783 0.0
C1602 C 0.36687 0.15471 0.51592 0.0
C1603 C 0.37421 0.1569 0.48256 0.0
C1604 C 0.36372 0.16893 0.45858 0.0
C1605 C 0.34606 0.17924 0.46907 0.0
C1606 C 0.33886 0.17723 0.50266 0.0
H1607 H 0.29546 0.13643 0.54612 0.0
H1608 H 0.2998 0.16116 0.52828 0.0
H1609 H 0.31597 0.14033 0.5162 0.0
H1610 H 0.37495 0.14492 0.53362 0.0
H1611 H 0.38785 0.14874 0.47537 0.0
H1612 H 0.16049 0.65355 0.55356 0.0
H1613 H 0.15434 0.66572 0.49524 0.0
H1614 H 0.14738 0.60405 0.46018 0.0
H1615 H 0.15326 0.59165 0.51839 0.0
H1616 H 0.17505 0.65699 0.43338 0.0
H1617 H 0.09451 0.63223 0.42971 0.0
H1618 H 0.10885 0.6338 0.46911 0.0
H1619 H 0.11212 0.61247 0.44086 0.0
C1620 C 0.15768 0.64253 0.53349 0.0
C1621 C 0.15716 0.62161 0.54077 0.0
C1622 C 0.15421 0.64954 0.50019 0.0
C1623 C 0.1501 0.63578 0.47366 0.0
C1624 C 0.15015 0.6149 0.48054 0.0
H1625 H 0.15029 0.65212 0.25453 0.0
H1626 H 0.15862 0.64455 0.31418 0.0
C1627 C 0.15359 0.60786 0.51381 0.0
C1628 C 0.14555 0.64327 0.43879 0.0
H1629 H 0.10887 0.64339 0.37706 0.0
C1630 C 0.16056 0.65414 0.42105 0.0
C1631 C 0.12651 0.63976 0.42315 0.0
C1632 C 0.10948 0.6291 0.44175 0.0
C1633 C 0.1572 0.66116 0.38754 0.0
C1634 C 0.13845 0.65691 0.37139 0.0
C1635 C 0.12328 0.64649 0.38949 0.0
C1636 C 0.1343 0.66273 0.33546 0.0
C1637 C 0.17364 0.67316 0.36982 0.0
C1638 C 0.11772 0.67527 0.32771 0.0
C1639 C 0.11278 0.67951 0.29362 0.0
C1640 C 0.1243 0.67119 0.26665 0.0
C1641 C 0.14113 0.65888 0.27461 0.0
C1642 C 0.14602 0.65462 0.30871 0.0
H1643 H 0.18444 0.67988 0.38856 0.0
H1644 H 0.18236 0.66293 0.35264 0.0
H1645 H 0.16707 0.68554 0.35397 0.0
H1646 H 0.10843 0.68157 0.34807 0.0
H1647 H 0.09973 0.68906 0.28846 0.0
H1648 H 0.65403 0.18053 0.5485 0.0
H1649 H 0.66727 0.17931 0.4898 0.0
H1650 H 0.61575 0.14334 0.4587 0.0
H1651 H 0.60212 0.14502 0.51673 0.0
H1652 H 0.67915 0.14794 0.45261 0.0
H1653 H 0.61589 0.18548 0.38486 0.0
H1654 H 0.61822 0.18599 0.43101 0.0
H1655 H 0.60665 0.16459 0.4098 0.0
C1656 C 0.64544 0.17249 0.52906 0.0
C1657 C 0.62695 0.16296 0.53724 0.0
C1658 C 0.65302 0.17185 0.49555 0.0
C1659 C 0.64228 0.16162 0.46969 0.0
C1660 C 0.62396 0.15189 0.47793 0.0
H1661 H 0.68283 0.10046 0.29112 0.0
H1662 H 0.6761 0.11289 0.3489 0.0
C1663 C 0.61627 0.15273 0.51124 0.0
C1664 C 0.65066 0.16 0.4345 0.0
H1665 H 0.63727 0.16372 0.35022 0.0
C1666 C 0.67014 0.15172 0.43019 0.0
C1667 C 0.63914 0.1654 0.40523 0.0
C1668 C 0.61892 0.17608 0.40799 0.0
C1669 C 0.6779 0.14755 0.3974 0.0
C1670 C 0.66557 0.15117 0.36828 0.0
C1671 C 0.64661 0.1606 0.37254 0.0
C1672 C 0.67134 0.14412 0.33348 0.0
C1673 C 0.69917 0.1392 0.39444 0.0
C1674 C 0.67044 0.15742 0.30535 0.0
C1675 C 0.67383 0.15024 0.27209 0.0
C1676 C 0.67832 0.12964 0.26638 0.0
C1677 C 0.67967 0.11647 0.29467 0.0
C1678 C 0.67598 0.12359 0.32781 0.0
H1679 H 0.70882 0.14446 0.41607 0.0
H1680 H 0.69861 0.12238 0.3956 0.0
H1681 H 0.70646 0.14376 0.36993 0.0
H1682 H 0.66676 0.1733 0.30909 0.0
H1683 H 0.67273 0.16078 0.25083 0.0
H1684 H 0.10111 0.30577 0.7058 0.0
H1685 H 0.11253 0.31454 0.64806 0.0
H1686 H 0.17258 0.32689 0.68705 0.0
H1687 H 0.16109 0.3188 0.74509 0.0
H1688 H 0.16022 0.35672 0.64752 0.0
H1689 H 0.14629 0.28445 0.5795 0.0
H1690 H 0.12378 0.29333 0.6006 0.0
H1691 H 0.14569 0.28634 0.6257 0.0
C1692 C 0.11683 0.31005 0.70202 0.0
C1693 C 0.1302 0.31158 0.73002 0.0
C1694 C 0.12337 0.31495 0.66893 0.0
C1695 C 0.14351 0.32104 0.66311 0.0
C1696 C 0.157 0.32215 0.69093 0.0
H1697 H 0.18596 0.33925 0.45256 0.0
H1698 H 0.18291 0.32714 0.51168 0.0
C1699 C 0.1504 0.31753 0.72408 0.0
C1700 C 0.15006 0.32772 0.62851 0.0
H1701 H 0.14994 0.31413 0.54402 0.0
C1702 C 0.15822 0.34729 0.62494 0.0
C1703 C 0.14781 0.31532 0.59912 0.0
C1704 C 0.14062 0.29362 0.60145 0.0
C1705 C 0.16345 0.35509 0.59265 0.0
C1706 C 0.15983 0.34321 0.56303 0.0
C1707 C 0.15245 0.32335 0.5667 0.0
C1708 C 0.16283 0.35133 0.52793 0.0
C1709 C 0.17286 0.37594 0.59069 0.0
C1710 C 0.15258 0.36896 0.51745 0.0
C1711 C 0.15447 0.37605 0.48385 0.0
C1712 C 0.16634 0.36541 0.45982 0.0
C1713 C 0.17666 0.34778 0.47041 0.0
C1714 C 0.17494 0.34083 0.50417 0.0
H1715 H 0.18087 0.37984 0.61491 0.0
H1716 H 0.1838 0.37707 0.56909 0.0
H1717 H 0.1607 0.38738 0.58678 0.0
H1718 H 0.14269 0.37699 0.53504 0.0
H1719 H 0.14612 0.38954 0.47648 0.0
H1720 H 0.39145 0.85322 0.51921 0.0
H1721 H 0.37827 0.8589 0.46149 0.0
H1722 H 0.32597 0.822 0.48495 0.0
H1723 H 0.3387 0.81686 0.5433 0.0
H1724 H 0.37048 0.83355 0.41071 0.0
H1725 H 0.29906 0.87225 0.44863 0.0
H1726 H 0.31914 0.86698 0.47881 0.0
H1727 H 0.30162 0.84731 0.46662 0.0
C1728 C 0.37713 0.84632 0.51213 0.0
C1729 C 0.36603 0.83473 0.5359 0.0
C1730 C 0.36961 0.84958 0.47912 0.0
C1731 C 0.35095 0.8412 0.46911 0.0
C1732 C 0.34011 0.82911 0.49244 0.0
H1733 H 0.31763 0.83778 0.25205 0.0
H1734 H 0.32611 0.82812 0.31091 0.0
C1735 C 0.34747 0.82608 0.52569 0.0
C1736 C 0.34312 0.845 0.43405 0.0
H1737 H 0.30297 0.86455 0.38955 0.0
C1738 C 0.35572 0.84033 0.40606 0.0
C1739 C 0.32396 0.85408 0.42811 0.0
C1740 C 0.31024 0.86064 0.45712 0.0
C1741 C 0.34979 0.84466 0.3723 0.0
C1742 C 0.33039 0.85323 0.36629 0.0
C1743 C 0.31773 0.85777 0.39424 0.0
C1744 C 0.32342 0.85857 0.33131 0.0
C1745 C 0.3647 0.84071 0.3436 0.0
C1746 C 0.31802 0.87868 0.32366 0.0
C1747 C 0.31275 0.88417 0.29021 0.0
C1748 C 0.31295 0.86965 0.26377 0.0
C1749 C 0.31762 0.84936 0.27178 0.0
C1750 C 0.32259 0.84384 0.30534 0.0
H1751 H 0.38053 0.83956 0.35329 0.0
H1752 H 0.36089 0.8261 0.33099 0.0
H1753 H 0.36409 0.85292 0.32397 0.0
H1754 H 0.31845 0.89027 0.34338 0.0
H1755 H 0.30924 0.89992 0.28486 0.0
H1756 H 0.8302 0.67386 0.74373 0.0
H1757 H 0.81928 0.66534 0.68548 0.0
H1758 H 0.88082 0.67232 0.64939 0.0
H1759 H 0.89174 0.68152 0.70715 0.0
H1760 H 0.85423 0.68814 0.60483 0.0
H1761 H 0.8296 0.6107 0.64263 0.0
H1762 H 0.81675 0.63065 0.66527 0.0
H1763 H 0.84361 0.62707 0.67114 0.0
C1764 C 0.84138 0.67372 0.72332 0.0
C1765 C 0.86187 0.6782 0.7301 0.0
C1766 C 0.83513 0.66873 0.69011 0.0
C1767 C 0.84933 0.66773 0.6633 0.0
C1768 C 0.86963 0.67291 0.66976 0.0
H1769 H 0.84639 0.59913 0.47721 0.0
H1770 H 0.85047 0.61266 0.53506 0.0
C1771 C 0.87584 0.67818 0.70281 0.0
C1772 C 0.84332 0.66075 0.62864 0.0
H1773 H 0.82397 0.62023 0.58503 0.0
C1774 C 0.84754 0.67332 0.60045 0.0
C1775 C 0.83484 0.64129 0.62305 0.0
C1776 C 0.8311 0.62655 0.65205 0.0
C1777 C 0.84384 0.66686 0.56673 0.0
C1778 C 0.83508 0.64752 0.56117 0.0
C1779 C 0.83052 0.63511 0.58941 0.0
C1780 C 0.83184 0.63926 0.52626 0.0
C1781 C 0.85018 0.68045 0.53742 0.0
C1782 C 0.81972 0.64954 0.50225 0.0
C1783 C 0.8176 0.64198 0.46893 0.0
C1784 C 0.82723 0.62378 0.4593 0.0
C1785 C 0.83876 0.61317 0.4838 0.0
C1786 C 0.8411 0.62088 0.51689 0.0
H1787 H 0.86133 0.69209 0.54577 0.0
H1788 H 0.85701 0.6715 0.5162 0.0
H1789 H 0.83664 0.68849 0.5273 0.0
H1790 H 0.81198 0.66345 0.50922 0.0
H1791 H 0.80839 0.65036 0.45076 0.0
H1792 H 0.32821 0.23475 0.36766 0.0
H1793 H 0.31405 0.26808 0.38024 0.0
H1794 H 0.3712 0.29617 0.3545 0.0
H1795 H 0.38556 0.26282 0.34127 0.0
H1796 H 0.32668 0.30082 0.42552 0.0
H1797 H 0.32989 0.32063 0.28614 0.0
H1798 H 0.33352 0.29486 0.30046 0.0
H1799 H 0.35289 0.31348 0.30792 0.0
C1800 C 0.33786 0.24795 0.36485 0.0
C1801 C 0.35788 0.24615 0.35285 0.0
C1802 C 0.3298 0.26697 0.37233 0.0
C1803 C 0.3416 0.28448 0.36807 0.0
C1804 C 0.36186 0.28277 0.35761 0.0
H1805 H 0.25961 0.38593 0.33625 0.0
H1806 H 0.29313 0.37238 0.35033 0.0
C1807 C 0.36995 0.26372 0.34994 0.0
C1808 C 0.33162 0.30437 0.37116 0.0
H1809 H 0.30731 0.33868 0.32047 0.0
C1810 C 0.3229 0.30958 0.40281 0.0
C1811 C 0.32708 0.31593 0.34157 0.0
C1812 C 0.33623 0.31104 0.307 0.0
C1813 C 0.30802 0.3247 0.40487 0.0
C1814 C 0.3016 0.33442 0.37444 0.0
C1815 C 0.31215 0.33099 0.3437 0.0
C1816 C 0.28165 0.34445 0.37202 0.0
C1817 C 0.29834 0.32915 0.43914 0.0
C1818 C 0.26414 0.33318 0.3796 0.0
C1819 C 0.24501 0.34072 0.37137 0.0
C1820 C 0.24305 0.35963 0.35506 0.0
C1821 C 0.26059 0.37121 0.34854 0.0
C1822 C 0.27976 0.36362 0.35683 0.0
H1823 H 0.30956 0.32742 0.46022 0.0
H1824 H 0.29189 0.34472 0.44001 0.0
H1825 H 0.28594 0.31809 0.44383 0.0
H1826 H 0.26529 0.31805 0.39032 0.0
H1827 H 0.23184 0.33145 0.37691 0.0
H1828 H 0.22094 0.65099 0.59345 0.0
H1829 H 0.2502 0.67168 0.57787 0.0
H1830 H 0.28571 0.64257 0.65688 0.0
H1831 H 0.2566 0.62142 0.67218 0.0
H1832 H 0.2638 0.6973 0.62779 0.0
H1833 H 0.32734 0.6499 0.57962 0.0
H1834 H 0.30126 0.64134 0.57954 0.0
H1835 H 0.31597 0.6405 0.61839 0.0
C1836 C 0.2351 0.6487 0.60707 0.0
C1837 C 0.23642 0.63493 0.63451 0.0
C1838 C 0.25183 0.66036 0.59787 0.0
C1839 C 0.27009 0.65852 0.61607 0.0
C1840 C 0.27187 0.64388 0.64204 0.0
H1841 H 0.36646 0.73659 0.67356 0.0
H1842 H 0.34534 0.70715 0.65971 0.0
C1843 C 0.25516 0.632 0.65102 0.0
C1844 C 0.28553 0.67451 0.6128 0.0
H1845 H 0.33599 0.68329 0.59997 0.0
C1846 C 0.27951 0.69432 0.62104 0.0
C1847 C 0.306 0.6704 0.60454 0.0
C1848 C 0.31303 0.6494 0.59472 0.0
C1849 C 0.29355 0.71012 0.6225 0.0
C1850 C 0.3141 0.70603 0.61462 0.0
C1851 C 0.32015 0.6863 0.6057 0.0
C1852 C 0.32952 0.72202 0.618 0.0
C1853 C 0.28638 0.73082 0.63407 0.0
C1854 C 0.32803 0.73971 0.59821 0.0
C1855 C 0.33965 0.75663 0.60657 0.0
C1856 C 0.35324 0.75588 0.63433 0.0
C1857 C 0.35594 0.73758 0.65225 0.0
C1858 C 0.34403 0.72075 0.64423 0.0
H1859 H 0.27119 0.73018 0.64648 0.0
H1860 H 0.29726 0.73766 0.6525 0.0
H1861 H 0.28521 0.741 0.61147 0.0
H1862 H 0.31711 0.74076 0.5775 0.0
H1863 H 0.33766 0.77044 0.59183 0.0
H1864 H 0.64671 0.76451 0.39708 0.0
H1865 H 0.66594 0.73352 0.40832 0.0
H1866 H 0.6394 0.70546 0.31894 0.0
H1867 H 0.61964 0.73636 0.30788 0.0
H1868 H 0.64798 0.67834 0.38042 0.0
H1869 H 0.71202 0.72634 0.33451 0.0
H1870 H 0.69764 0.73674 0.36954 0.0
H1871 H 0.68579 0.73339 0.32839 0.0
C1872 C 0.64471 0.75161 0.38015 0.0
C1873 C 0.63214 0.75291 0.35111 0.0
C1874 C 0.65551 0.73391 0.38681 0.0
C1875 C 0.65417 0.71746 0.36419 0.0
C1876 C 0.6405 0.71809 0.33666 0.0
H1877 H 0.73215 0.61727 0.3169 0.0
H1878 H 0.70157 0.63746 0.32741 0.0
C1879 C 0.62939 0.73574 0.33024 0.0
C1880 C 0.66953 0.70136 0.36585 0.0
H1881 H 0.72007 0.69357 0.3537 0.0
C1882 C 0.66378 0.68155 0.37472 0.0
C1883 C 0.68999 0.70576 0.35798 0.0
C1884 C 0.69678 0.72665 0.34677 0.0
C1885 C 0.67828 0.66595 0.37657 0.0
C1886 C 0.69876 0.67049 0.36901 0.0
C1887 C 0.70435 0.69028 0.35997 0.0
C1888 C 0.71489 0.65506 0.36857 0.0
C1889 C 0.67171 0.6449 0.38682 0.0
C1890 C 0.7323 0.65815 0.38859 0.0
C1891 C 0.74985 0.64706 0.38207 0.0
C1892 C 0.75019 0.63261 0.35561 0.0
C1893 C 0.73228 0.62841 0.33736 0.0
C1894 C 0.71475 0.63974 0.3436 0.0
H1895 H 0.65679 0.64506 0.40015 0.0
H1896 H 0.67023 0.63539 0.36345 0.0
H1897 H 0.68316 0.63769 0.40385 0.0
H1898 H 0.73265 0.67 0.40787 0.0
H1899 H 0.76336 0.65031 0.39697 0.0
H1900 H 0.73362 0.38051 0.65848 0.0
H1901 H 0.70099 0.36409 0.64765 0.0
H1902 H 0.732 0.30867 0.6206 0.0
H1903 H 0.7647 0.3249 0.63088 0.0
H1904 H 0.69768 0.31975 0.57689 0.0
H1905 H 0.68041 0.32113 0.71726 0.0
H1906 H 0.68616 0.34471 0.69615 0.0
H1907 H 0.70566 0.32591 0.70124 0.0
C1908 C 0.73353 0.36484 0.65006 0.0
C1909 C 0.75176 0.35388 0.64607 0.0
C1910 C 0.71488 0.35556 0.64379 0.0
C1911 C 0.71421 0.3352 0.63366 0.0
C1912 C 0.73233 0.32446 0.62834 0.0
H1913 H 0.66078 0.22538 0.62186 0.0
H1914 H 0.67733 0.2577 0.61106 0.0
C1915 C 0.75097 0.33372 0.63446 0.0
C1916 C 0.69483 0.32424 0.63146 0.0
H1917 H 0.66067 0.3001 0.6827 0.0
C1918 C 0.68921 0.31581 0.59983 0.0
C1919 C 0.68372 0.31945 0.66142 0.0
C1920 C 0.68923 0.32815 0.69604 0.0
C1921 C 0.6737 0.30135 0.59785 0.0
C1922 C 0.664 0.29503 0.62837 0.0
C1923 C 0.66828 0.30494 0.65939 0.0
C1924 C 0.65239 0.27597 0.63012 0.0
C1925 C 0.66854 0.29224 0.56342 0.0
C1926 C 0.63301 0.27555 0.64494 0.0
C1927 C 0.62359 0.25701 0.65168 0.0
C1928 C 0.63353 0.23864 0.64396 0.0
C1929 C 0.65272 0.23921 0.62825 0.0
C1930 C 0.66209 0.2577 0.62156 0.0
H1931 H 0.67095 0.30344 0.54248 0.0
H1932 H 0.67871 0.27913 0.55845 0.0
H1933 H 0.65257 0.28689 0.56257 0.0
H1934 H 0.62545 0.28952 0.65215 0.0
H1935 H 0.60874 0.25711 0.66362 0.0
H1936 H 0.76104 0.88429 0.84192 0.0
H1937 H 0.79387 0.86863 0.85481 0.0
H1938 H 0.76363 0.81264 0.88073 0.0
H1939 H 0.73084 0.82809 0.86852 0.0
H1940 H 0.79699 0.82356 0.92534 0.0
H1941 H 0.81628 0.82666 0.78575 0.0
H1942 H 0.81024 0.84992 0.80768 0.0
H1943 H 0.79078 0.83132 0.8007 0.0
C1944 C 0.76136 0.86868 0.85062 0.0
C1945 C 0.74335 0.8573 0.85362 0.0
C1946 C 0.78011 0.85983 0.85806 0.0
C1947 C 0.78107 0.8395 0.86837 0.0
C1948 C 0.76311 0.82842 0.87289 0.0
H1949 H 0.8297 0.72851 0.87644 0.0
H1950 H 0.81495 0.76151 0.88919 0.0
C1951 C 0.7444 0.83723 0.86563 0.0
C1952 C 0.80058 0.82873 0.87106 0.0
H1953 H 0.83455 0.80418 0.81992 0.0
C1954 C 0.80565 0.81973 0.90253 0.0
C1955 C 0.81196 0.82406 0.84131 0.0
C1956 C 0.80711 0.83338 0.80685 0.0
C1957 C 0.82061 0.80466 0.90437 0.0
C1958 C 0.83034 0.79837 0.87386 0.0
C1959 C 0.82687 0.80897 0.84321 0.0
C1960 C 0.84094 0.77872 0.87147 0.0
C1961 C 0.82501 0.79483 0.93851 0.0
C1962 C 0.86032 0.77748 0.85682 0.0
C1963 C 0.86869 0.75859 0.84894 0.0
C1964 C 0.8577 0.74066 0.85536 0.0
C1965 C 0.83854 0.74199 0.87104 0.0
C1966 C 0.83021 0.76086 0.87885 0.0
H1967 H 0.82296 0.80584 0.95984 0.0
H1968 H 0.81416 0.78219 0.94271 0.0
H1969 H 0.8407 0.78866 0.93951 0.0
H1970 H 0.86868 0.79114 0.85051 0.0
H1971 H 0.88358 0.75811 0.83713 0.0
H1972 H 0.72047 0.14914 0.09228 0.0
H1973 H 0.75066 0.16805 0.07518 0.0
H1974 H 0.78487 0.13932 0.15625 0.0
H1975 H 0.75486 0.11987 0.17288 0.0
H1976 H 0.76494 0.19424 0.12198 0.0
H1977 H 0.8273 0.14338 0.08065 0.0
H1978 H 0.80101 0.13548 0.08118 0.0
H1979 H 0.81571 0.13544 0.12012 0.0
C1980 C 0.73455 0.14656 0.10602 0.0
C1981 C 0.73529 0.13342 0.13437 0.0
C1982 C 0.7518 0.15716 0.09595 0.0
C1983 C 0.76998 0.15494 0.11428 0.0
C1984 C 0.77111 0.14087 0.14125 0.0
H1985 H 0.8661 0.23025 0.1774 0.0
H1986 H 0.84513 0.2011 0.16115 0.0
C1987 C 0.75389 0.13 0.15104 0.0
C1988 C 0.78607 0.17024 0.11021 0.0
H1989 H 0.83715 0.17668 0.10092 0.0
C1990 C 0.78066 0.19047 0.11656 0.0
C1991 C 0.80654 0.16514 0.1037 0.0
C1992 C 0.81297 0.14368 0.09571 0.0
C1993 C 0.7953 0.2057 0.11818 0.0
C1994 C 0.81587 0.20059 0.11241 0.0
C1995 C 0.82131 0.18046 0.10506 0.0
C1996 C 0.83184 0.21592 0.11692 0.0
C1997 C 0.78868 0.22691 0.12796 0.0
C1998 C 0.83182 0.23341 0.09651 0.0
C1999 C 0.84327 0.25019 0.10625 0.0
C2000 C 0.85526 0.24943 0.13603 0.0
C2001 C 0.85678 0.23122 0.15455 0.0
C2002 C 0.84498 0.21455 0.14515 0.0
H2003 H 0.77304 0.22721 0.13862 0.0
H2004 H 0.79914 0.23356 0.14728 0.0
H2005 H 0.78891 0.23674 0.10483 0.0
H2006 H 0.82197 0.23453 0.07432 0.0
H2007 H 0.84228 0.26394 0.09109 0.0
H2008 H 0.10811 0.23343 0.86287 0.0
H2009 H 0.12448 0.20204 0.88237 0.0
H2010 H 0.18324 0.2299 0.86848 0.0
H2011 H 0.16707 0.26131 0.85059 0.0
H2012 H 0.1477 0.17708 0.85075 0.0
H2013 H 0.19212 0.20481 0.95941 0.0
H2014 H 0.17177 0.2197 0.94114 0.0
H2015 H 0.19734 0.22168 0.92456 0.0
C2016 C 0.12453 0.23282 0.86427 0.0
C2017 C 0.13638 0.24977 0.85536 0.0
C2018 C 0.13382 0.21496 0.87562 0.0
C2019 C 0.15504 0.21384 0.87798 0.0
C2020 C 0.16681 0.23068 0.86841 0.0
H2021 H 0.23872 0.13965 0.8018 0.0
H2022 H 0.2067 0.15521 0.81902 0.0
C2023 C 0.15758 0.24856 0.85769 0.0
C2024 C 0.16538 0.19463 0.88676 0.0
H2025 H 0.20997 0.17944 0.92208 0.0
C2026 C 0.16095 0.17728 0.86727 0.0
C2027 C 0.182 0.19428 0.9097 0.0
C2028 C 0.18583 0.21109 0.93516 0.0
C2029 C 0.1745 0.1609 0.86628 0.0
C2030 C 0.19323 0.16251 0.88384 0.0
C2031 C 0.19604 0.17842 0.90737 0.0
C2032 C 0.21124 0.15045 0.87369 0.0
C2033 C 0.16899 0.14257 0.84506 0.0
C2034 C 0.22493 0.14325 0.89856 0.0
C2035 C 0.24371 0.13537 0.88864 0.0
C2036 C 0.24878 0.13415 0.85377 0.0
C2037 C 0.23492 0.14049 0.82884 0.0
C2038 C 0.21646 0.14897 0.83873 0.0
H2039 H 0.15263 0.13892 0.84831 0.0
H2040 H 0.17141 0.146 0.81747 0.0
H2041 H 0.17811 0.12903 0.85224 0.0
H2042 H 0.22137 0.14433 0.92565 0.0
H2043 H 0.25428 0.13026 0.90814 0.0
H2044 H 0.11887 0.75166 0.17421 0.0
H2045 H 0.13955 0.78195 0.16448 0.0
H2046 H 0.17974 0.74735 0.09945 0.0
H2047 H 0.15946 0.71699 0.10934 0.0
H2048 H 0.19787 0.76571 0.15679 0.0
H2049 H 0.15101 0.82066 0.08256 0.0
H2050 H 0.13905 0.80918 0.11925 0.0
H2051 H 0.1458 0.79372 0.08306 0.0
C2052 C 0.13191 0.75059 0.15736 0.0
C2053 C 0.13778 0.73189 0.14302 0.0
C2054 C 0.14356 0.76794 0.15157 0.0
C2055 C 0.16099 0.76681 0.13103 0.0
C2056 C 0.16624 0.74844 0.11525 0.0
H2057 H 0.2686 0.8366 0.10038 0.0
H2058 H 0.23929 0.81446 0.09244 0.0
C2059 C 0.15475 0.7311 0.1212 0.0
C2060 C 0.17552 0.7837 0.13027 0.0
H2061 H 0.18256 0.83266 0.10435 0.0
C2062 C 0.19457 0.78031 0.14516 0.0
C2063 C 0.17091 0.80274 0.1155 0.0
C2064 C 0.15064 0.80686 0.09894 0.0
C2065 C 0.20932 0.79546 0.14559 0.0
C2066 C 0.20494 0.81437 0.1302 0.0
C2067 C 0.18577 0.818 0.1158 0.0
C2068 C 0.22045 0.83032 0.12919 0.0
C2069 C 0.22944 0.79118 0.16277 0.0
C2070 C 0.21901 0.847 0.15131 0.0
C2071 C 0.23571 0.85972 0.15591 0.0
C2072 C 0.25402 0.8557 0.13859 0.0
C2073 C 0.25482 0.8398 0.11459 0.0
C2074 C 0.23809 0.82726 0.1098 0.0
H2075 H 0.22872 0.77762 0.17968 0.0
H2076 H 0.24113 0.78832 0.14281 0.0
H2077 H 0.23444 0.80439 0.17831 0.0
H2078 H 0.20543 0.84946 0.16648 0.0
H2079 H 0.23464 0.87197 0.17437 0.0
loop_
_geom_bond_atom_site_label_1
_geom_bond_atom_site_label_2
_geom_bond_distance
_geom_bond_site_symmetry_2
_ccdc_geom_bond_type
Sc0 O3 2.025 . S
Sc0 O10 2.105 . S
Sc0 O13 2.105 . S
Sc0 O16 2.105 . S
Sc0 O19 2.105 . S
Sc1 O3 2.025 . S
Sc1 O11 2.105 . S
Sc1 O15 2.105 . S
Sc1 O17 2.105 . S
Sc1 O21 2.105 . S
Sc2 O3 2.025 . S
Sc2 O12 2.105 . S
Sc2 O14 2.105 . S
Sc2 O18 2.105 . S
Sc2 O20 2.105 . S
O3 Sc0 2.025 . S
O3 Sc1 2.025 . S
O3 Sc2 2.025 . S
C4 O10 1.268 . S
C4 O20 1.268 . S
C5 O11 1.268 . S
C5 O19 1.268 . S
C6 O12 1.268 . S
C6 O21 1.268 . S
C7 O13 1.268 . S
C7 O17 1.268 . S
C8 O14 1.268 . S
C8 O16 1.268 . S
C9 O15 1.268 . S
C9 O18 1.268 . S
O10 Sc0 2.105 . S
O10 C4 1.268 . S
O11 Sc1 2.105 . S
O11 C5 1.268 . S
O12 Sc2 2.105 . S
O12 C6 1.268 . S
O13 Sc0 2.105 . S
O13 C7 1.268 . S
O14 Sc2 2.105 . S
O14 C8 1.268 . S
O15 Sc1 2.105 . S
O15 C9 1.268 . S
O16 Sc0 2.105 . S
O16 C8 1.268 . S
O17 Sc1 2.105 . S
O17 C7 1.268 . S
O18 Sc2 2.105 . S
O18 C9 1.268 . S
O19 Sc0 2.105 . S
O19 C5 1.268 . S
O20 Sc2 2.105 . S
O20 C4 1.268 . S
O21 Sc1 2.105 . S
O21 C6 1.268 . S
Sc22 O25 2.025 . S
Sc22 O32 2.105 . S
Sc22 O35 2.105 . S
Sc22 O38 2.105 . S
Sc22 O41 2.105 . S
Sc23 O25 2.025 . S
Sc23 O33 2.105 . S
Sc23 O37 2.105 . S
Sc23 O39 2.105 . S
Sc23 O43 2.105 . S
Sc24 O25 2.025 . S
Sc24 O34 2.105 . S
Sc24 O36 2.105 . S
Sc24 O40 2.105 . S
Sc24 O42 2.105 . S
O25 Sc22 2.025 . S
O25 Sc23 2.025 . S
O25 Sc24 2.025 . S
C26 O32 1.268 . S
C26 O42 1.268 . S
C27 O33 1.268 . S
C27 O41 1.268 . S
C28 O34 1.268 . S
C28 O43 1.268 . S
C29 O35 1.268 . S
C29 O39 1.268 . S
C30 O36 1.268 . S
C30 O38 1.268 . S
C31 O37 1.268 . S
C31 O40 1.268 . S
O32 Sc22 2.105 . S
O32 C26 1.268 . S
O33 Sc23 2.105 . S
O33 C27 1.268 . S
O34 Sc24 2.105 . S
O34 C28 1.268 . S
O35 Sc22 2.105 . S
O35 C29 1.268 . S
O36 Sc24 2.105 . S
O36 C30 1.268 . S
O37 Sc23 2.105 . S
O37 C31 1.268 . S
O38 Sc22 2.105 . S
O38 C30 1.268 . S
O39 Sc23 2.105 . S
O39 C29 1.268 . S
O40 Sc24 2.105 . S
O40 C31 1.268 . S
O41 Sc22 2.105 . S
O41 C27 1.268 . S
O42 Sc24 2.105 . S
O42 C26 1.268 . S
O43 Sc23 2.105 . S
O43 C28 1.268 . S
Sc44 O47 2.025 . S
Sc44 O54 2.105 . S
Sc44 O57 2.105 . S
Sc44 O60 2.105 . S
Sc44 O63 2.105 . S
Sc45 O47 2.025 . S
Sc45 O55 2.105 . S
Sc45 O59 2.105 . S
Sc45 O61 2.105 . S
Sc45 O65 2.105 . S
Sc46 O47 2.025 . S
Sc46 O56 2.105 . S
Sc46 O58 2.105 . S
Sc46 O62 2.105 . S
Sc46 O64 2.105 . S
O47 Sc44 2.025 . S
O47 Sc45 2.025 . S
O47 Sc46 2.025 . S
C48 O54 1.268 . S
C48 O64 1.268 . S
C49 O55 1.268 . S
C49 O63 1.268 . S
C50 O56 1.268 . S
C50 O65 1.268 . S
C51 O57 1.268 . S
C51 O61 1.268 . S
C52 O58 1.268 . S
C52 O60 1.268 . S
C53 O59 1.268 . S
C53 O62 1.268 . S
O54 Sc44 2.105 . S
O54 C48 1.268 . S
O55 Sc45 2.105 . S
O55 C49 1.268 . S
O56 Sc46 2.105 . S
O56 C50 1.268 . S
O57 Sc44 2.105 . S
O57 C51 1.268 . S
O58 Sc46 2.105 . S
O58 C52 1.268 . S
O59 Sc45 2.105 . S
O59 C53 1.268 . S
O60 Sc44 2.105 . S
O60 C52 1.268 . S
O61 Sc45 2.105 . S
O61 C51 1.268 . S
O62 Sc46 2.105 . S
O62 C53 1.268 . S
O63 Sc44 2.105 . S
O63 C49 1.268 . S
O64 Sc46 2.105 . S
O64 C48 1.268 . S
O65 Sc45 2.105 . S
O65 C50 1.268 . S
Sc66 O69 2.025 . S
Sc66 O76 2.105 . S
Sc66 O79 2.105 . S
Sc66 O82 2.105 . S
Sc66 O85 2.105 . S
Sc67 O69 2.025 . S
Sc67 O77 2.105 . S
Sc67 O81 2.105 . S
Sc67 O83 2.105 . S
Sc67 O87 2.105 . S
Sc68 O69 2.025 . S
Sc68 O78 2.105 . S
Sc68 O80 2.105 . S
Sc68 O84 2.105 . S
Sc68 O86 2.105 . S
O69 Sc66 2.025 . S
O69 Sc67 2.025 . S
O69 Sc68 2.025 . S
C70 O76 1.268 . S
C70 O86 1.268 . S
C71 O77 1.268 . S
C71 O85 1.268 . S
C72 O78 1.268 . S
C72 O87 1.268 . S
C73 O79 1.268 . S
C73 O83 1.268 . S
C74 O80 1.268 . S
C74 O82 1.268 . S
C75 O81 1.268 . S
C75 O84 1.268 . S
O76 Sc66 2.105 . S
O76 C70 1.268 . S
O77 Sc67 2.105 . S
O77 C71 1.268 . S
O78 Sc68 2.105 . S
O78 C72 1.268 . S
O79 Sc66 2.105 . S
O79 C73 1.268 . S
O80 Sc68 2.105 . S
O80 C74 1.268 . S
O81 Sc67 2.105 . S
O81 C75 1.268 . S
O82 Sc66 2.105 . S
O82 C74 1.268 . S
O83 Sc67 2.105 . S
O83 C73 1.268 . S
O84 Sc68 2.105 . S
O84 C75 1.268 . S
O85 Sc66 2.105 . S
O85 C71 1.268 . S
O86 Sc68 2.105 . S
O86 C70 1.268 . S
O87 Sc67 2.105 . S
O87 C72 1.268 . S
Sc88 O91 2.025 . S
Sc88 O98 2.105 . S
Sc88 O101 2.105 . S
Sc88 O104 2.105 . S
Sc88 O107 2.105 . S
Sc89 O91 2.025 . S
Sc89 O99 2.105 . S
Sc89 O103 2.105 . S
Sc89 O105 2.105 . S
Sc89 O109 2.105 . S
Sc90 O91 2.025 . S
Sc90 O100 2.105 . S
Sc90 O102 2.105 . S
Sc90 O106 2.105 . S
Sc90 O108 2.105 . S
O91 Sc88 2.025 . S
O91 Sc89 2.025 . S
O91 Sc90 2.025 . S
C92 O98 1.268 . S
C92 O108 1.268 . S
C93 O99 1.268 . S
C93 O107 1.268 . S
C94 O100 1.268 . S
C94 O109 1.268 . S
C95 O101 1.268 . S
C95 O105 1.268 . S
C96 O102 1.268 . S
C96 O104 1.268 . S
C97 O103 1.268 . S
C97 O106 1.268 . S
O98 Sc88 2.105 . S
O98 C92 1.268 . S
O99 Sc89 2.105 . S
O99 C93 1.268 . S
O100 Sc90 2.105 . S
O100 C94 1.268 . S
O101 Sc88 2.105 . S
O101 C95 1.268 . S
O102 Sc90 2.105 . S
O102 C96 1.268 . S
O103 Sc89 2.105 . S
O103 C97 1.268 . S
O104 Sc88 2.105 . S
O104 C96 1.268 . S
O105 Sc89 2.105 . S
O105 C95 1.268 . S
O106 Sc90 2.105 . S
O106 C97 1.268 . S
O107 Sc88 2.105 . S
O107 C93 1.268 . S
O108 Sc90 2.105 . S
O108 C92 1.268 . S
O109 Sc89 2.105 . S
O109 C94 1.268 . S
Sc110 O113 2.025 . S
Sc110 O120 2.105 . S
Sc110 O123 2.105 . S
Sc110 O126 2.105 . S
Sc110 O129 2.105 . S
Sc111 O113 2.025 . S
Sc111 O121 2.105 . S
Sc111 O125 2.105 . S
Sc111 O127 2.105 . S
Sc111 O131 2.105 . S
Sc112 O113 2.025 . S
Sc112 O122 2.105 . S
Sc112 O124 2.105 . S
Sc112 O128 2.105 . S
Sc112 O130 2.105 . S
O113 Sc110 2.025 . S
O113 Sc111 2.025 . S
O113 Sc112 2.025 . S
C114 O120 1.268 . S
C114 O130 1.268 . S
C115 O121 1.268 . S
C115 O129 1.268 . S
C116 O122 1.268 . S
C116 O131 1.268 . S
C117 O123 1.268 . S
C117 O127 1.268 . S
C118 O124 1.268 . S
C118 O126 1.268 . S
C119 O125 1.268 . S
C119 O128 1.268 . S
O120 Sc110 2.105 . S
O120 C114 1.268 . S
O121 Sc111 2.105 . S
O121 C115 1.268 . S
O122 Sc112 2.105 . S
O122 C116 1.268 . S
O123 Sc110 2.105 . S
O123 C117 1.268 . S
O124 Sc112 2.105 . S
O124 C118 1.268 . S
O125 Sc111 2.105 . S
O125 C119 1.268 . S
O126 Sc110 2.105 . S
O126 C118 1.268 . S
O127 Sc111 2.105 . S
O127 C117 1.268 . S
O128 Sc112 2.105 . S
O128 C119 1.268 . S
O129 Sc110 2.105 . S
O129 C115 1.268 . S
O130 Sc112 2.105 . S
O130 C114 1.268 . S
O131 Sc111 2.105 . S
O131 C116 1.268 . S
Sc132 O135 2.025 . S
Sc132 O142 2.105 . S
Sc132 O145 2.105 . S
Sc132 O148 2.105 . S
Sc132 O151 2.105 . S
Sc133 O135 2.025 . S
Sc133 O143 2.105 . S
Sc133 O147 2.105 . S
Sc133 O149 2.105 . S
Sc133 O153 2.105 . S
Sc134 O135 2.025 . S
Sc134 O144 2.105 . S
Sc134 O146 2.105 . S
Sc134 O150 2.105 . S
Sc134 O152 2.105 . S
O135 Sc132 2.025 . S
O135 Sc133 2.025 . S
O135 Sc134 2.025 . S
C136 O142 1.268 . S
C136 O152 1.268 . S
C137 O143 1.268 . S
C137 O151 1.268 . S
C138 O144 1.268 . S
C138 O153 1.268 . S
C139 O145 1.268 . S
C139 O149 1.268 . S
C140 O146 1.268 . S
C140 O148 1.268 . S
C141 O147 1.268 . S
C141 O150 1.268 . S
O142 Sc132 2.105 . S
O142 C136 1.268 . S
O143 Sc133 2.105 . S
O143 C137 1.268 . S
O144 Sc134 2.105 . S
O144 C138 1.268 . S
O145 Sc132 2.105 . S
O145 C139 1.268 . S
O146 Sc134 2.105 . S
O146 C140 1.268 . S
O147 Sc133 2.105 . S
O147 C141 1.268 . S
O148 Sc132 2.105 . S
O148 C140 1.268 . S
O149 Sc133 2.105 . S
O149 C139 1.268 . S
O150 Sc134 2.105 . S
O150 C141 1.268 . S
O151 Sc132 2.105 . S
O151 C137 1.268 . S
O152 Sc134 2.105 . S
O152 C136 1.268 . S
O153 Sc133 2.105 . S
O153 C138 1.268 . S
Sc154 O157 2.025 . S
Sc154 O164 2.105 . S
Sc154 O167 2.105 . S
Sc154 O170 2.105 . S
Sc154 O173 2.105 . S
Sc155 O157 2.025 . S
Sc155 O165 2.105 . S
Sc155 O169 2.105 . S
Sc155 O171 2.105 . S
Sc155 O175 2.105 . S
Sc156 O157 2.025 . S
Sc156 O166 2.105 . S
Sc156 O168 2.105 . S
Sc156 O172 2.105 . S
Sc156 O174 2.105 . S
O157 Sc154 2.025 . S
O157 Sc155 2.025 . S
O157 Sc156 2.025 . S
C158 O164 1.268 . S
C158 O174 1.268 . S
C159 O165 1.268 . S
C159 O173 1.268 . S
C160 O166 1.268 . S
C160 O175 1.268 . S
C161 O167 1.268 . S
C161 O171 1.268 . S
C162 O168 1.268 . S
C162 O170 1.268 . S
C163 O169 1.268 . S
C163 O172 1.268 . S
O164 Sc154 2.105 . S
O164 C158 1.268 . S
O165 Sc155 2.105 . S
O165 C159 1.268 . S
O166 Sc156 2.105 . S
O166 C160 1.268 . S
O167 Sc154 2.105 . S
O167 C161 1.268 . S
O168 Sc156 2.105 . S
O168 C162 1.268 . S
O169 Sc155 2.105 . S
O169 C163 1.268 . S
O170 Sc154 2.105 . S
O170 C162 1.268 . S
O171 Sc155 2.105 . S
O171 C161 1.268 . S
O172 Sc156 2.105 . S
O172 C163 1.268 . S
O173 Sc154 2.105 . S
O173 C159 1.268 . S
O174 Sc156 2.105 . S
O174 C158 1.268 . S
O175 Sc155 2.105 . S
O175 C160 1.268 . S
Sc176 O179 2.025 . S
Sc176 O186 2.105 . S
Sc176 O189 2.105 . S
Sc176 O192 2.105 . S
Sc176 O195 2.105 . S
Sc177 O179 2.025 . S
Sc177 O187 2.105 . S
Sc177 O191 2.105 . S
Sc177 O193 2.105 . S
Sc177 O197 2.105 . S
Sc178 O179 2.025 . S
Sc178 O188 2.105 . S
Sc178 O190 2.105 . S
Sc178 O194 2.105 . S
Sc178 O196 2.105 . S
O179 Sc176 2.025 . S
O179 Sc177 2.025 . S
O179 Sc178 2.025 . S
C180 O186 1.268 . S
C180 O196 1.268 . S
C181 O187 1.268 . S
C181 O195 1.268 . S
C182 O188 1.268 . S
C182 O197 1.268 . S
C183 O189 1.268 . S
C183 O193 1.268 . S
C184 O190 1.268 . S
C184 O192 1.268 . S
C185 O191 1.268 . S
C185 O194 1.268 . S
O186 Sc176 2.105 . S
O186 C180 1.268 . S
O187 Sc177 2.105 . S
O187 C181 1.268 . S
O188 Sc178 2.105 . S
O188 C182 1.268 . S
O189 Sc176 2.105 . S
O189 C183 1.268 . S
O190 Sc178 2.105 . S
O190 C184 1.268 . S
O191 Sc177 2.105 . S
O191 C185 1.268 . S
O192 Sc176 2.105 . S
O192 C184 1.268 . S
O193 Sc177 2.105 . S
O193 C183 1.268 . S
O194 Sc178 2.105 . S
O194 C185 1.268 . S
O195 Sc176 2.105 . S
O195 C181 1.268 . S
O196 Sc178 2.105 . S
O196 C180 1.268 . S
O197 Sc177 2.105 . S
O197 C182 1.268 . S
Sc198 O201 2.025 . S
Sc198 O208 2.105 . S
Sc198 O211 2.105 . S
Sc198 O214 2.105 . S
Sc198 O217 2.105 . S
Sc199 O201 2.025 . S
Sc199 O209 2.105 . S
Sc199 O213 2.105 . S
Sc199 O215 2.105 . S
Sc199 O219 2.105 . S
Sc200 O201 2.025 . S
Sc200 O210 2.105 . S
Sc200 O212 2.105 . S
Sc200 O216 2.105 . S
Sc200 O218 2.105 . S
O201 Sc198 2.025 . S
O201 Sc199 2.025 . S
O201 Sc200 2.025 . S
C202 O208 1.268 . S
C202 O218 1.268 . S
C203 O209 1.268 . S
C203 O217 1.268 . S
C204 O210 1.268 . S
C204 O219 1.268 . S
C205 O211 1.268 . S
C205 O215 1.268 . S
C206 O212 1.268 . S
C206 O214 1.268 . S
C207 O213 1.268 . S
C207 O216 1.268 . S
O208 Sc198 2.105 . S
O208 C202 1.268 . S
O209 Sc199 2.105 . S
O209 C203 1.268 . S
O210 Sc200 2.105 . S
O210 C204 1.268 . S
O211 Sc198 2.105 . S
O211 C205 1.268 . S
O212 Sc200 2.105 . S
O212 C206 1.268 . S
O213 Sc199 2.105 . S
O213 C207 1.268 . S
O214 Sc198 2.105 . S
O214 C206 1.268 . S
O215 Sc199 2.105 . S
O215 C205 1.268 . S
O216 Sc200 2.105 . S
O216 C207 1.268 . S
O217 Sc198 2.105 . S
O217 C203 1.268 . S
O218 Sc200 2.105 . S
O218 C202 1.268 . S
O219 Sc199 2.105 . S
O219 C204 1.268 . S
Sc220 O223 2.025 . S
Sc220 O230 2.105 . S
Sc220 O233 2.105 . S
Sc220 O236 2.105 . S
Sc220 O239 2.105 . S
Sc221 O223 2.025 . S
Sc221 O231 2.105 . S
Sc221 O235 2.105 . S
Sc221 O237 2.105 . S
Sc221 O241 2.105 . S
Sc222 O223 2.025 . S
Sc222 O232 2.105 . S
Sc222 O234 2.105 . S
Sc222 O238 2.105 . S
Sc222 O240 2.105 . S
O223 Sc220 2.025 . S
O223 Sc221 2.025 . S
O223 Sc222 2.025 . S
C224 O230 1.268 . S
C224 O240 1.268 . S
C225 O231 1.268 . S
C225 O239 1.268 . S
C226 O232 1.268 . S
C226 O241 1.268 . S
C227 O233 1.268 . S
C227 O237 1.268 . S
C228 O234 1.268 . S
C228 O236 1.268 . S
C229 O235 1.268 . S
C229 O238 1.268 . S
O230 Sc220 2.105 . S
O230 C224 1.268 . S
O231 Sc221 2.105 . S
O231 C225 1.268 . S
O232 Sc222 2.105 . S
O232 C226 1.268 . S
O233 Sc220 2.105 . S
O233 C227 1.268 . S
O234 Sc222 2.105 . S
O234 C228 1.268 . S
O235 Sc221 2.105 . S
O235 C229 1.268 . S
O236 Sc220 2.105 . S
O236 C228 1.268 . S
O237 Sc221 2.105 . S
O237 C227 1.268 . S
O238 Sc222 2.105 . S
O238 C229 1.268 . S
O239 Sc220 2.105 . S
O239 C225 1.268 . S
O240 Sc222 2.105 . S
O240 C224 1.268 . S
O241 Sc221 2.105 . S
O241 C226 1.268 . S
Sc242 O245 2.025 . S
Sc242 O252 2.105 . S
Sc242 O255 2.105 . S
Sc242 O258 2.105 . S
Sc242 O261 2.105 . S
Sc243 O245 2.025 . S
Sc243 O253 2.105 . S
Sc243 O257 2.105 . S
Sc243 O259 2.105 . S
Sc243 O263 2.105 . S
Sc244 O245 2.025 . S
Sc244 O254 2.105 . S
Sc244 O256 2.105 . S
Sc244 O260 2.105 . S
Sc244 O262 2.105 . S
O245 Sc242 2.025 . S
O245 Sc243 2.025 . S
O245 Sc244 2.025 . S
C246 O252 1.268 . S
C246 O262 1.268 . S
C247 O253 1.268 . S
C247 O261 1.268 . S
C248 O254 1.268 . S
C248 O263 1.268 . S
C249 O255 1.268 . S
C249 O259 1.268 . S
C250 O256 1.268 . S
C250 O258 1.268 . S
C251 O257 1.268 . S
C251 O260 1.268 . S
O252 Sc242 2.105 . S
O252 C246 1.268 . S
O253 Sc243 2.105 . S
O253 C247 1.268 . S
O254 Sc244 2.105 . S
O254 C248 1.268 . S
O255 Sc242 2.105 . S
O255 C249 1.268 . S
O256 Sc244 2.105 . S
O256 C250 1.268 . S
O257 Sc243 2.105 . S
O257 C251 1.268 . S
O258 Sc242 2.105 . S
O258 C250 1.268 . S
O259 Sc243 2.105 . S
O259 C249 1.268 . S
O260 Sc244 2.105 . S
O260 C251 1.268 . S
O261 Sc242 2.105 . S
O261 C247 1.268 . S
O262 Sc244 2.105 . S
O262 C246 1.268 . S
O263 Sc243 2.105 . S
O263 C248 1.268 . S
Sc264 O267 2.025 . S
Sc264 O274 2.105 . S
Sc264 O277 2.105 . S
Sc264 O280 2.105 . S
Sc264 O283 2.105 . S
Sc265 O267 2.025 . S
Sc265 O275 2.105 . S
Sc265 O279 2.105 . S
Sc265 O281 2.105 . S
Sc265 O285 2.105 . S
Sc266 O267 2.025 . S
Sc266 O276 2.105 . S
Sc266 O278 2.105 . S
Sc266 O282 2.105 . S
Sc266 O284 2.105 . S
O267 Sc264 2.025 . S
O267 Sc265 2.025 . S
O267 Sc266 2.025 . S
C268 O274 1.268 . S
C268 O284 1.268 . S
C269 O275 1.268 . S
C269 O283 1.268 . S
C270 O276 1.268 . S
C270 O285 1.268 . S
C271 O277 1.268 . S
C271 O281 1.268 . S
C272 O278 1.268 . S
C272 O280 1.268 . S
C273 O279 1.268 . S
C273 O282 1.268 . S
O274 Sc264 2.105 . S
O274 C268 1.268 . S
O275 Sc265 2.105 . S
O275 C269 1.268 . S
O276 Sc266 2.105 . S
O276 C270 1.268 . S
O277 Sc264 2.105 . S
O277 C271 1.268 . S
O278 Sc266 2.105 . S
O278 C272 1.268 . S
O279 Sc265 2.105 . S
O279 C273 1.268 . S
O280 Sc264 2.105 . S
O280 C272 1.268 . S
O281 Sc265 2.105 . S
O281 C271 1.268 . S
O282 Sc266 2.105 . S
O282 C273 1.268 . S
O283 Sc264 2.105 . S
O283 C269 1.268 . S
O284 Sc266 2.105 . S
O284 C268 1.268 . S
O285 Sc265 2.105 . S
O285 C270 1.268 . S
Sc286 O289 2.025 . S
Sc286 O296 2.105 . S
Sc286 O299 2.105 . S
Sc286 O302 2.105 . S
Sc286 O305 2.105 . S
Sc287 O289 2.025 . S
Sc287 O297 2.105 . S
Sc287 O301 2.105 . S
Sc287 O303 2.105 . S
Sc287 O307 2.105 . S
Sc288 O289 2.025 . S
Sc288 O298 2.105 . S
Sc288 O300 2.105 . S
Sc288 O304 2.105 . S
Sc288 O306 2.105 . S
O289 Sc286 2.025 . S
O289 Sc287 2.025 . S
O289 Sc288 2.025 . S
C290 O296 1.268 . S
C290 O306 1.268 . S
C291 O297 1.268 . S
C291 O305 1.268 . S
C292 O298 1.268 . S
C292 O307 1.268 . S
C293 O299 1.268 . S
C293 O303 1.268 . S
C294 O300 1.268 . S
C294 O302 1.268 . S
C295 O301 1.268 . S
C295 O304 1.268 . S
O296 Sc286 2.105 . S
O296 C290 1.268 . S
O297 Sc287 2.105 . S
O297 C291 1.268 . S
O298 Sc288 2.105 . S
O298 C292 1.268 . S
O299 Sc286 2.105 . S
O299 C293 1.268 . S
O300 Sc288 2.105 . S
O300 C294 1.268 . S
O301 Sc287 2.105 . S
O301 C295 1.268 . S
O302 Sc286 2.105 . S
O302 C294 1.268 . S
O303 Sc287 2.105 . S
O303 C293 1.268 . S
O304 Sc288 2.105 . S
O304 C295 1.268 . S
O305 Sc286 2.105 . S
O305 C291 1.268 . S
O306 Sc288 2.105 . S
O306 C290 1.268 . S
O307 Sc287 2.105 . S
O307 C292 1.268 . S
Sc308 O311 2.025 . S
Sc308 O318 2.105 . S
Sc308 O321 2.105 . S
Sc308 O324 2.105 . S
Sc308 O327 2.105 . S
Sc309 O311 2.025 . S
Sc309 O319 2.105 . S
Sc309 O323 2.105 . S
Sc309 O325 2.105 . S
Sc309 O329 2.105 . S
Sc310 O311 2.025 . S
Sc310 O320 2.105 . S
Sc310 O322 2.105 . S
Sc310 O326 2.105 . S
Sc310 O328 2.105 . S
O311 Sc308 2.025 . S
O311 Sc309 2.025 . S
O311 Sc310 2.025 . S
C312 O318 1.268 . S
C312 O328 1.268 . S
C313 O319 1.268 . S
C313 O327 1.268 . S
C314 O320 1.268 . S
C314 O329 1.268 . S
C315 O321 1.268 . S
C315 O325 1.268 . S
C316 O322 1.268 . S
C316 O324 1.268 . S
C317 O323 1.268 . S
C317 O326 1.268 . S
O318 Sc308 2.105 . S
O318 C312 1.268 . S
O319 Sc309 2.105 . S
O319 C313 1.268 . S
O320 Sc310 2.105 . S
O320 C314 1.268 . S
O321 Sc308 2.105 . S
O321 C315 1.268 . S
O322 Sc310 2.105 . S
O322 C316 1.268 . S
O323 Sc309 2.105 . S
O323 C317 1.268 . S
O324 Sc308 2.105 . S
O324 C316 1.268 . S
O325 Sc309 2.105 . S
O325 C315 1.268 . S
O326 Sc310 2.105 . S
O326 C317 1.268 . S
O327 Sc308 2.105 . S
O327 C313 1.268 . S
O328 Sc310 2.105 . S
O328 C312 1.268 . S
O329 Sc309 2.105 . S
O329 C314 1.268 . S
Sc330 O333 2.025 . S
Sc330 O340 2.105 . S
Sc330 O343 2.105 . S
Sc330 O346 2.105 . S
Sc330 O349 2.105 . S
Sc331 O333 2.025 . S
Sc331 O341 2.105 . S
Sc331 O345 2.105 . S
Sc331 O347 2.105 . S
Sc331 O351 2.105 . S
Sc332 O333 2.025 . S
Sc332 O342 2.105 . S
Sc332 O344 2.105 . S
Sc332 O348 2.105 . S
Sc332 O350 2.105 . S
O333 Sc330 2.025 . S
O333 Sc331 2.025 . S
O333 Sc332 2.025 . S
C334 O340 1.268 . S
C334 O350 1.268 . S
C335 O341 1.268 . S
C335 O349 1.268 . S
C336 O342 1.268 . S
C336 O351 1.268 . S
C337 O343 1.268 . S
C337 O347 1.268 . S
C338 O344 1.268 . S
C338 O346 1.268 . S
C339 O345 1.268 . S
C339 O348 1.268 . S
O340 Sc330 2.105 . S
O340 C334 1.268 . S
O341 Sc331 2.105 . S
O341 C335 1.268 . S
O342 Sc332 2.105 . S
O342 C336 1.268 . S
O343 Sc330 2.105 . S
O343 C337 1.268 . S
O344 Sc332 2.105 . S
O344 C338 1.268 . S
O345 Sc331 2.105 . S
O345 C339 1.268 . S
O346 Sc330 2.105 . S
O346 C338 1.268 . S
O347 Sc331 2.105 . S
O347 C337 1.268 . S
O348 Sc332 2.105 . S
O348 C339 1.268 . S
O349 Sc330 2.105 . S
O349 C335 1.268 . S
O350 Sc332 2.105 . S
O350 C334 1.268 . S
O351 Sc331 2.105 . S
O351 C336 1.268 . S
H352 C360 0.929 . S
H353 C362 0.930 . S
H354 C364 0.930 . S
H355 C367 0.929 . S
H356 C370 0.930 . S
H357 C372 0.960 . S
H358 C372 0.960 . S
H359 C372 0.960 . S
C360 H352 0.929 . S
C360 C361 1.377 . S
C360 C362 1.384 . S
C361 C360 1.377 . S
C361 C367 1.390 . S
C362 H353 0.930 . S
C362 C360 1.384 . S
C362 C363 1.372 . S
C363 C362 1.372 . S
C363 C364 1.400 . S
C363 C368 1.490 . S
C364 H354 0.930 . S
C364 C363 1.400 . S
C364 C367 1.386 . S
H365 C381 0.930 . S
H366 C382 0.931 . S
C367 H355 0.929 . S
C367 C361 1.390 . S
C367 C364 1.386 . S
C368 C363 1.490 . S
C368 C370 1.395 . S
C368 C371 1.403 . S
H369 C375 0.930 . S
C370 H356 0.930 . S
C370 C368 1.395 . S
C370 C373 1.403 . S
C371 C368 1.403 . S
C371 C372 1.524 . S
C371 C375 1.400 . S
C372 H357 0.960 . S
C372 H358 0.960 . S
C372 H359 0.960 . S
C372 C371 1.524 . S
C373 C370 1.403 . S
C373 C374 1.392 . S
C373 C377 1.495 . S
C374 C373 1.392 . S
C374 C375 1.385 . S
C374 C376 1.478 . S
C375 H369 0.930 . S
C375 C371 1.400 . S
C375 C374 1.385 . S
C376 C374 1.478 . S
C376 C378 1.381 . S
C376 C382 1.383 . S
C377 C373 1.495 . S
C377 H383 0.959 . S
C377 H384 0.961 . S
C377 H385 0.960 . S
C378 C376 1.381 . S
C378 C379 1.394 . S
C378 H386 0.930 . S
C379 C378 1.394 . S
C379 C380 1.383 . S
C379 H387 0.929 . S
C380 C379 1.383 . S
C380 C381 1.377 . S
C381 H365 0.930 . S
C381 C380 1.377 . S
C381 C382 1.379 . S
C382 H366 0.931 . S
C382 C376 1.383 . S
C382 C381 1.379 . S
H383 C377 0.959 . S
H384 C377 0.961 . S
H385 C377 0.960 . S
H386 C378 0.930 . S
H387 C379 0.929 . S
H388 C396 0.929 . S
H389 C398 0.930 . S
H390 C400 0.930 . S
H391 C403 0.929 . S
H392 C406 0.930 . S
H393 C408 0.960 . S
H394 C408 0.960 . S
H395 C408 0.960 . S
C396 H388 0.929 . S
C396 C397 1.377 . S
C396 C398 1.384 . S
C397 C396 1.377 . S
C397 C403 1.390 . S
C398 H389 0.930 . S
C398 C396 1.384 . S
C398 C399 1.372 . S
C399 C398 1.372 . S
C399 C400 1.400 . S
C399 C404 1.490 . S
C400 H390 0.930 . S
C400 C399 1.400 . S
C400 C403 1.386 . S
H401 C417 0.930 . S
H402 C418 0.931 . S
C403 H391 0.929 . S
C403 C397 1.390 . S
C403 C400 1.386 . S
C404 C399 1.490 . S
C404 C406 1.395 . S
C404 C407 1.403 . S
H405 C411 0.930 . S
C406 H392 0.930 . S
C406 C404 1.395 . S
C406 C409 1.403 . S
C407 C404 1.403 . S
C407 C408 1.524 . S
C407 C411 1.400 . S
C408 H393 0.960 . S
C408 H394 0.960 . S
C408 H395 0.960 . S
C408 C407 1.524 . S
C409 C406 1.403 . S
C409 C410 1.392 . S
C409 C413 1.495 . S
C410 C409 1.392 . S
C410 C411 1.385 . S
C410 C412 1.478 . S
C411 H405 0.930 . S
C411 C407 1.400 . S
C411 C410 1.385 . S
C412 C410 1.478 . S
C412 C414 1.381 . S
C412 C418 1.383 . S
C413 C409 1.495 . S
C413 H419 0.959 . S
C413 H420 0.961 . S
C413 H421 0.960 . S
C414 C412 1.381 . S
C414 C415 1.394 . S
C414 H422 0.930 . S
C415 C414 1.394 . S
C415 C416 1.383 . S
C415 H423 0.929 . S
C416 C415 1.383 . S
C416 C417 1.377 . S
C417 H401 0.930 . S
C417 C416 1.377 . S
C417 C418 1.379 . S
C418 H402 0.931 . S
C418 C412 1.383 . S
C418 C417 1.379 . S
H419 C413 0.959 . S
H420 C413 0.961 . S
H421 C413 0.960 . S
H422 C414 0.930 . S
H423 C415 0.929 . S
H424 C432 0.929 . S
H425 C434 0.930 . S
H426 C436 0.930 . S
H427 C439 0.929 . S
H428 C442 0.930 . S
H429 C444 0.960 . S
H430 C444 0.960 . S
H431 C444 0.960 . S
C432 H424 0.929 . S
C432 C433 1.377 . S
C432 C434 1.384 . S
C433 C432 1.377 . S
C433 C439 1.390 . S
C434 H425 0.930 . S
C434 C432 1.384 . S
C434 C435 1.372 . S
C435 C434 1.372 . S
C435 C436 1.400 . S
C435 C440 1.490 . S
C436 H426 0.930 . S
C436 C435 1.400 . S
C436 C439 1.386 . S
H437 C453 0.930 . S
H438 C454 0.931 . S
C439 H427 0.929 . S
C439 C433 1.390 . S
C439 C436 1.386 . S
C440 C435 1.490 . S
C440 C442 1.395 . S
C440 C443 1.403 . S
H441 C447 0.930 . S
C442 H428 0.930 . S
C442 C440 1.395 . S
C442 C445 1.403 . S
C443 C440 1.403 . S
C443 C444 1.524 . S
C443 C447 1.400 . S
C444 H429 0.960 . S
C444 H430 0.960 . S
C444 H431 0.960 . S
C444 C443 1.524 . S
C445 C442 1.403 . S
C445 C446 1.392 . S
C445 C449 1.495 . S
C446 C445 1.392 . S
C446 C447 1.385 . S
C446 C448 1.478 . S
C447 H441 0.930 . S
C447 C443 1.400 . S
C447 C446 1.385 . S
C448 C446 1.478 . S
C448 C450 1.381 . S
C448 C454 1.383 . S
C449 C445 1.495 . S
C449 H455 0.959 . S
C449 H456 0.961 . S
C449 H457 0.960 . S
C450 C448 1.381 . S
C450 C451 1.394 . S
C450 H458 0.930 . S
C451 C450 1.394 . S
C451 C452 1.383 . S
C451 H459 0.929 . S
C452 C451 1.383 . S
C452 C453 1.377 . S
C453 H437 0.930 . S
C453 C452 1.377 . S
C453 C454 1.379 . S
C454 H438 0.931 . S
C454 C448 1.383 . S
C454 C453 1.379 . S
H455 C449 0.959 . S
H456 C449 0.961 . S
H457 C449 0.960 . S
H458 C450 0.930 . S
H459 C451 0.929 . S
H460 C468 0.929 . S
H461 C470 0.930 . S
H462 C472 0.930 . S
H463 C475 0.929 . S
H464 C478 0.930 . S
H465 C480 0.960 . S
H466 C480 0.960 . S
H467 C480 0.960 . S
C468 H460 0.929 . S
C468 C469 1.377 . S
C468 C470 1.384 . S
C469 C468 1.377 . S
C469 C475 1.390 . S
C470 H461 0.930 . S
C470 C468 1.384 . S
C470 C471 1.372 . S
C471 C470 1.372 . S
C471 C472 1.400 . S
C471 C476 1.490 . S
C472 H462 0.930 . S
C472 C471 1.400 . S
C472 C475 1.386 . S
H473 C489 0.930 . S
H474 C490 0.931 . S
C475 H463 0.929 . S
C475 C469 1.390 . S
C475 C472 1.386 . S
C476 C471 1.490 . S
C476 C478 1.395 . S
C476 C479 1.403 . S
H477 C483 0.930 . S
C478 H464 0.930 . S
C478 C476 1.395 . S
C478 C481 1.403 . S
C479 C476 1.403 . S
C479 C480 1.524 . S
C479 C483 1.400 . S
C480 H465 0.960 . S
C480 H466 0.960 . S
C480 H467 0.960 . S
C480 C479 1.524 . S
C481 C478 1.403 . S
C481 C482 1.392 . S
C481 C485 1.495 . S
C482 C481 1.392 . S
C482 C483 1.385 . S
C482 C484 1.478 . S
C483 H477 0.930 . S
C483 C479 1.400 . S
C483 C482 1.385 . S
C484 C482 1.478 . S
C484 C486 1.381 . S
C484 C490 1.383 . S
C485 C481 1.495 . S
C485 H491 0.959 . S
C485 H492 0.961 . S
C485 H493 0.960 . S
C486 C484 1.381 . S
C486 C487 1.394 . S
C486 H494 0.930 . S
C487 C486 1.394 . S
C487 C488 1.383 . S
C487 H495 0.929 . S
C488 C487 1.383 . S
C488 C489 1.377 . S
C489 H473 0.930 . S
C489 C488 1.377 . S
C489 C490 1.379 . S
C490 H474 0.931 . S
C490 C484 1.383 . S
C490 C489 1.379 . S
H491 C485 0.959 . S
H492 C485 0.961 . S
H493 C485 0.960 . S
H494 C486 0.930 . S
H495 C487 0.929 . S
H496 C504 0.929 . S
H497 C506 0.930 . S
H498 C508 0.930 . S
H499 C511 0.929 . S
H500 C514 0.930 . S
H501 C516 0.960 . S
H502 C516 0.960 . S
H503 C516 0.960 . S
C504 H496 0.929 . S
C504 C505 1.377 . S
C504 C506 1.384 . S
C505 C504 1.377 . S
C505 C511 1.390 . S
C506 H497 0.930 . S
C506 C504 1.384 . S
C506 C507 1.372 . S
C507 C506 1.372 . S
C507 C508 1.400 . S
C507 C512 1.490 . S
C508 H498 0.930 . S
C508 C507 1.400 . S
C508 C511 1.386 . S
H509 C525 0.930 . S
H510 C526 0.931 . S
C511 H499 0.929 . S
C511 C505 1.390 . S
C511 C508 1.386 . S
C512 C507 1.490 . S
C512 C514 1.395 . S
C512 C515 1.403 . S
H513 C519 0.930 . S
C514 H500 0.930 . S
C514 C512 1.395 . S
C514 C517 1.403 . S
C515 C512 1.403 . S
C515 C516 1.524 . S
C515 C519 1.400 . S
C516 H501 0.960 . S
C516 H502 0.960 . S
C516 H503 0.960 . S
C516 C515 1.524 . S
C517 C514 1.403 . S
C517 C518 1.392 . S
C517 C521 1.495 . S
C518 C517 1.392 . S
C518 C519 1.385 . S
C518 C520 1.478 . S
C519 H513 0.930 . S
C519 C515 1.400 . S
C519 C518 1.385 . S
C520 C518 1.478 . S
C520 C522 1.381 . S
C520 C526 1.383 . S
C521 C517 1.495 . S
C521 H527 0.959 . S
C521 H528 0.961 . S
C521 H529 0.960 . S
C522 C520 1.381 . S
C522 C523 1.394 . S
C522 H530 0.930 . S
C523 C522 1.394 . S
C523 C524 1.383 . S
C523 H531 0.929 . S
C524 C523 1.383 . S
C524 C525 1.377 . S
C525 H509 0.930 . S
C525 C524 1.377 . S
C525 C526 1.379 . S
C526 H510 0.931 . S
C526 C520 1.383 . S
C526 C525 1.379 . S
H527 C521 0.959 . S
H528 C521 0.961 . S
H529 C521 0.960 . S
H530 C522 0.930 . S
H531 C523 0.929 . S
H532 C540 0.929 . S
H533 C542 0.930 . S
H534 C544 0.930 . S
H535 C547 0.929 . S
H536 C550 0.930 . S
H537 C552 0.960 . S
H538 C552 0.960 . S
H539 C552 0.960 . S
C540 H532 0.929 . S
C540 C541 1.377 . S
C540 C542 1.384 . S
C541 C540 1.377 . S
C541 C547 1.390 . S
C542 H533 0.930 . S
C542 C540 1.384 . S
C542 C543 1.372 . S
C543 C542 1.372 . S
C543 C544 1.400 . S
C543 C548 1.490 . S
C544 H534 0.930 . S
C544 C543 1.400 . S
C544 C547 1.386 . S
H545 C561 0.930 . S
H546 C562 0.931 . S
C547 H535 0.929 . S
C547 C541 1.390 . S
C547 C544 1.386 . S
C548 C543 1.490 . S
C548 C550 1.395 . S
C548 C551 1.403 . S
H549 C555 0.930 . S
C550 H536 0.930 . S
C550 C548 1.395 . S
C550 C553 1.403 . S
C551 C548 1.403 . S
C551 C552 1.524 . S
C551 C555 1.400 . S
C552 H537 0.960 . S
C552 H538 0.960 . S
C552 H539 0.960 . S
C552 C551 1.524 . S
C553 C550 1.403 . S
C553 C554 1.392 . S
C553 C557 1.495 . S
C554 C553 1.392 . S
C554 C555 1.385 . S
C554 C556 1.478 . S
C555 H549 0.930 . S
C555 C551 1.400 . S
C555 C554 1.385 . S
C556 C554 1.478 . S
C556 C558 1.381 . S
C556 C562 1.383 . S
C557 C553 1.495 . S
C557 H563 0.959 . S
C557 H564 0.961 . S
C557 H565 0.960 . S
C558 C556 1.381 . S
C558 C559 1.394 . S
C558 H566 0.930 . S
C559 C558 1.394 . S
C559 C560 1.383 . S
C559 H567 0.929 . S
C560 C559 1.383 . S
C560 C561 1.377 . S
C561 H545 0.930 . S
C561 C560 1.377 . S
C561 C562 1.379 . S
C562 H546 0.931 . S
C562 C556 1.383 . S
C562 C561 1.379 . S
H563 C557 0.959 . S
H564 C557 0.961 . S
H565 C557 0.960 . S
H566 C558 0.930 . S
H567 C559 0.929 . S
H568 C576 0.929 . S
H569 C578 0.930 . S
H570 C580 0.930 . S
H571 C583 0.929 . S
H572 C586 0.930 . S
H573 C588 0.960 . S
H574 C588 0.960 . S
H575 C588 0.960 . S
C576 H568 0.929 . S
C576 C577 1.377 . S
C576 C578 1.384 . S
C577 C576 1.377 . S
C577 C583 1.390 . S
C578 H569 0.930 . S
C578 C576 1.384 . S
C578 C579 1.372 . S
C579 C578 1.372 . S
C579 C580 1.400 . S
C579 C584 1.490 . S
C580 H570 0.930 . S
C580 C579 1.400 . S
C580 C583 1.386 . S
H581 C597 0.930 . S
H582 C598 0.931 . S
C583 H571 0.929 . S
C583 C577 1.390 . S
C583 C580 1.386 . S
C584 C579 1.490 . S
C584 C586 1.395 . S
C584 C587 1.403 . S
H585 C591 0.930 . S
C586 H572 0.930 . S
C586 C584 1.395 . S
C586 C589 1.403 . S
C587 C584 1.403 . S
C587 C588 1.524 . S
C587 C591 1.400 . S
C588 H573 0.960 . S
C588 H574 0.960 . S
C588 H575 0.960 . S
C588 C587 1.524 . S
C589 C586 1.403 . S
C589 C590 1.392 . S
C589 C593 1.495 . S
C590 C589 1.392 . S
C590 C591 1.385 . S
C590 C592 1.478 . S
C591 H585 0.930 . S
C591 C587 1.400 . S
C591 C590 1.385 . S
C592 C590 1.478 . S
C592 C594 1.381 . S
C592 C598 1.383 . S
C593 C589 1.495 . S
C593 H599 0.959 . S
C593 H600 0.961 . S
C593 H601 0.960 . S
C594 C592 1.381 . S
C594 C595 1.394 . S
C594 H602 0.930 . S
C595 C594 1.394 . S
C595 C596 1.383 . S
C595 H603 0.929 . S
C596 C595 1.383 . S
C596 C597 1.377 . S
C597 H581 0.930 . S
C597 C596 1.377 . S
C597 C598 1.379 . S
C598 H582 0.931 . S
C598 C592 1.383 . S
C598 C597 1.379 . S
H599 C593 0.959 . S
H600 C593 0.961 . S
H601 C593 0.960 . S
H602 C594 0.930 . S
H603 C595 0.929 . S
H604 C612 0.929 . S
H605 C614 0.930 . S
H606 C616 0.930 . S
H607 C619 0.929 . S
H608 C622 0.930 . S
H609 C624 0.960 . S
H610 C624 0.960 . S
H611 C624 0.960 . S
C612 H604 0.929 . S
C612 C613 1.377 . S
C612 C614 1.384 . S
C613 C612 1.377 . S
C613 C619 1.390 . S
C614 H605 0.930 . S
C614 C612 1.384 . S
C614 C615 1.372 . S
C615 C614 1.372 . S
C615 C616 1.400 . S
C615 C620 1.490 . S
C616 H606 0.930 . S
C616 C615 1.400 . S
C616 C619 1.386 . S
H617 C633 0.930 . S
H618 C634 0.931 . S
C619 H607 0.929 . S
C619 C613 1.390 . S
C619 C616 1.386 . S
C620 C615 1.490 . S
C620 C622 1.395 . S
C620 C623 1.403 . S
H621 C627 0.930 . S
C622 H608 0.930 . S
C622 C620 1.395 . S
C622 C625 1.403 . S
C623 C620 1.403 . S
C623 C624 1.524 . S
C623 C627 1.400 . S
C624 H609 0.960 . S
C624 H610 0.960 . S
C624 H611 0.960 . S
C624 C623 1.524 . S
C625 C622 1.403 . S
C625 C626 1.392 . S
C625 C629 1.495 . S
C626 C625 1.392 . S
C626 C627 1.385 . S
C626 C628 1.478 . S
C627 H621 0.930 . S
C627 C623 1.400 . S
C627 C626 1.385 . S
C628 C626 1.478 . S
C628 C630 1.381 . S
C628 C634 1.383 . S
C629 C625 1.495 . S
C629 H635 0.959 . S
C629 H636 0.961 . S
C629 H637 0.960 . S
C630 C628 1.381 . S
C630 C631 1.394 . S
C630 H638 0.930 . S
C631 C630 1.394 . S
C631 C632 1.383 . S
C631 H639 0.929 . S
C632 C631 1.383 . S
C632 C633 1.377 . S
C633 H617 0.930 . S
C633 C632 1.377 . S
C633 C634 1.379 . S
C634 H618 0.931 . S
C634 C628 1.383 . S
C634 C633 1.379 . S
H635 C629 0.959 . S
H636 C629 0.961 . S
H637 C629 0.960 . S
H638 C630 0.930 . S
H639 C631 0.929 . S
H640 C648 0.929 . S
H641 C650 0.930 . S
H642 C652 0.930 1_545 S
H643 C655 0.929 . S
H644 C658 0.930 . S
H645 C660 0.960 . S
H646 C660 0.960 . S
H647 C660 0.960 . S
C648 H640 0.929 . S
C648 C649 1.377 . S
C648 C650 1.384 . S
C649 C648 1.377 . S
C649 C655 1.390 . S
C650 H641 0.930 . S
C650 C648 1.384 . S
C650 C651 1.372 . S
C651 C650 1.372 . S
C651 C652 1.400 . S
C651 C656 1.490 1_565 S
C652 H642 0.930 1_565 S
C652 C651 1.400 . S
C652 C655 1.386 . S
H653 C669 0.930 . S
H654 C670 0.931 . S
C655 H643 0.929 . S
C655 C649 1.390 . S
C655 C652 1.386 . S
C656 C651 1.490 1_545 S
C656 C658 1.395 . S
C656 C659 1.403 . S
H657 C663 0.930 . S
C658 H644 0.930 . S
C658 C656 1.395 . S
C658 C661 1.403 . S
C659 C656 1.403 . S
C659 C660 1.524 . S
C659 C663 1.400 . S
C660 H645 0.960 . S
C660 H646 0.960 . S
C660 H647 0.960 . S
C660 C659 1.524 . S
C661 C658 1.403 . S
C661 C662 1.392 . S
C661 C665 1.495 . S
C662 C661 1.392 . S
C662 C663 1.385 . S
C662 C664 1.478 . S
C663 H657 0.930 . S
C663 C659 1.400 . S
C663 C662 1.385 . S
C664 C662 1.478 . S
C664 C666 1.381 . S
C664 C670 1.383 . S
C665 C661 1.495 . S
C665 H671 0.959 . S
C665 H672 0.961 . S
C665 H673 0.960 . S
C666 C664 1.381 . S
C666 C667 1.394 . S
C666 H674 0.930 . S
C667 C666 1.394 . S
C667 C668 1.383 . S
C667 H675 0.929 . S
C668 C667 1.383 . S
C668 C669 1.377 . S
C669 H653 0.930 . S
C669 C668 1.377 . S
C669 C670 1.379 . S
C670 H654 0.931 . S
C670 C664 1.383 . S
C670 C669 1.379 . S
H671 C665 0.959 . S
H672 C665 0.961 . S
H673 C665 0.960 . S
H674 C666 0.930 . S
H675 C667 0.929 . S
H676 C684 0.929 . S
H677 C686 0.930 . S
H678 C688 0.930 . S
H679 C691 0.929 . S
H680 C694 0.930 . S
H681 C696 0.960 . S
H682 C696 0.960 . S
H683 C696 0.960 . S
C684 H676 0.929 . S
C684 C685 1.377 . S
C684 C686 1.384 . S
C685 C684 1.377 . S
C685 C691 1.390 . S
C686 H677 0.930 . S
C686 C684 1.384 . S
C686 C687 1.372 . S
C687 C686 1.372 . S
C687 C688 1.400 . S
C687 C692 1.490 . S
C688 H678 0.930 . S
C688 C687 1.400 . S
C688 C691 1.386 . S
H689 C705 0.930 . S
H690 C706 0.931 1_455 S
C691 H679 0.929 . S
C691 C685 1.390 . S
C691 C688 1.386 . S
C692 C687 1.490 . S
C692 C694 1.395 . S
C692 C695 1.403 . S
H693 C699 0.930 . S
C694 H680 0.930 . S
C694 C692 1.395 . S
C694 C697 1.403 . S
C695 C692 1.403 . S
C695 C696 1.524 . S
C695 C699 1.400 . S
C696 H681 0.960 . S
C696 H682 0.960 . S
C696 H683 0.960 . S
C696 C695 1.524 . S
C697 C694 1.403 . S
C697 C698 1.392 . S
C697 C701 1.495 . S
C698 C697 1.392 . S
C698 C699 1.385 . S
C698 C700 1.442 1_455 S
C699 H693 0.930 . S
C699 C695 1.400 . S
C699 C698 1.385 . S
C700 C698 1.442 1_655 S
C700 C702 1.411 . S
C700 C706 1.391 . S
C701 C697 1.495 . S
C701 H707 0.959 . S
C701 H708 0.961 . S
C701 H709 0.960 . S
C702 C700 1.411 . S
C702 C703 1.394 . S
C702 H710 0.930 . S
C703 C702 1.394 . S
C703 C704 1.383 . S
C703 H711 0.929 . S
C704 C703 1.383 . S
C704 C705 1.377 . S
C705 H689 0.930 . S
C705 C704 1.377 . S
C705 C706 1.379 . S
C706 H690 0.931 1_655 S
C706 C700 1.391 . S
C706 C705 1.379 . S
H707 C701 0.959 . S
H708 C701 0.961 . S
H709 C701 0.960 . S
H710 C702 0.930 . S
H711 C703 0.929 . S
H712 C720 0.929 . S
H713 C722 0.930 . S
H714 C724 0.930 . S
H715 C727 0.929 . S
H716 C730 0.930 . S
H717 C732 0.960 . S
H718 C732 0.960 . S
H719 C732 0.960 . S
C720 H712 0.929 . S
C720 C721 1.377 . S
C720 C722 1.384 . S
C721 C720 1.377 . S
C721 C727 1.390 . S
C722 H713 0.930 . S
C722 C720 1.384 . S
C722 C723 1.372 . S
C723 C722 1.372 . S
C723 C724 1.400 . S
C723 C728 1.490 . S
C724 H714 0.930 . S
C724 C723 1.400 . S
C724 C727 1.386 . S
H725 C741 0.930 . S
H726 C742 0.931 1_565 S
C727 H715 0.929 . S
C727 C721 1.390 . S
C727 C724 1.386 . S
C728 C723 1.490 . S
C728 C730 1.395 . S
C728 C731 1.403 . S
H729 C735 0.930 . S
C730 H716 0.930 . S
C730 C728 1.395 . S
C730 C733 1.403 . S
C731 C728 1.403 . S
C731 C732 1.524 . S
C731 C735 1.400 . S
C732 H717 0.960 . S
C732 H718 0.960 . S
C732 H719 0.960 . S
C732 C731 1.524 . S
C733 C730 1.403 . S
C733 C734 1.392 . S
C733 C737 1.495 . S
C734 C733 1.392 . S
C734 C735 1.385 . S
C734 C736 1.444 1_565 S
C735 H729 0.930 . S
C735 C731 1.400 . S
C735 C734 1.385 . S
C736 C734 1.444 1_545 S
C736 C738 1.409 . S
C736 C742 1.391 . S
C737 C733 1.495 . S
C737 H743 0.959 . S
C737 H744 0.961 . S
C737 H745 0.960 . S
C738 C736 1.409 . S
C738 C739 1.394 . S
C738 H746 0.930 . S
C739 C738 1.394 . S
C739 C740 1.383 . S
C739 H747 0.929 . S
C740 C739 1.383 . S
C740 C741 1.377 . S
C741 H725 0.930 . S
C741 C740 1.377 . S
C741 C742 1.379 . S
C742 H726 0.931 1_545 S
C742 C736 1.391 . S
C742 C741 1.379 . S
H743 C737 0.959 . S
H744 C737 0.961 . S
H745 C737 0.960 . S
H746 C738 0.930 . S
H747 C739 0.929 . S
H748 C756 0.929 . S
H749 C758 0.930 . S
H750 C760 0.930 . S
H751 C763 0.929 . S
H752 C766 0.930 . S
H753 C768 0.960 . S
H754 C768 0.960 1_455 S
H755 C768 0.945 1_455 S
C756 H748 0.929 . S
C756 C757 1.377 . S
C756 C758 1.384 . S
C757 C756 1.377 . S
C757 C763 1.390 . S
C758 H749 0.930 . S
C758 C756 1.384 . S
C758 C759 1.372 . S
C759 C758 1.372 . S
C759 C760 1.400 . S
C759 C764 1.490 1_455 S
C760 H750 0.930 . S
C760 C759 1.400 . S
C760 C763 1.386 . S
H761 C777 0.930 . S
H762 C778 0.931 . S
C763 H751 0.929 . S
C763 C757 1.390 . S
C763 C760 1.386 . S
C764 C759 1.490 1_655 S
C764 C766 1.395 . S
C764 C767 1.403 . S
H765 C771 0.930 . S
C766 H752 0.930 . S
C766 C764 1.395 . S
C766 C769 1.403 . S
C767 C764 1.403 . S
C767 C768 1.524 . S
C767 C771 1.400 . S
C768 H753 0.960 . S
C768 H754 0.960 1_655 S
C768 H755 0.945 1_655 S
C768 C767 1.524 . S
C769 C766 1.403 . S
C769 C770 1.392 . S
C769 C773 1.495 . S
C770 C769 1.392 . S
C770 C771 1.385 . S
C770 C772 1.478 . S
C771 H765 0.930 . S
C771 C767 1.400 . S
C771 C770 1.385 . S
C772 C770 1.478 . S
C772 C774 1.381 . S
C772 C778 1.383 . S
C773 C769 1.495 . S
C773 H779 0.959 . S
C773 H780 0.961 . S
C773 H781 0.960 . S
C774 C772 1.381 . S
C774 C775 1.394 . S
C774 H782 0.930 . S
C775 C774 1.394 . S
C775 C776 1.383 . S
C775 H783 0.929 . S
C776 C775 1.383 . S
C776 C777 1.377 . S
C777 H761 0.930 . S
C777 C776 1.377 . S
C777 C778 1.379 . S
C778 H762 0.931 . S
C778 C772 1.383 . S
C778 C777 1.379 . S
H779 C773 0.959 . S
H780 C773 0.961 . S
H781 C773 0.960 . S
H782 C774 0.930 . S
H783 C775 0.929 . S
H784 C792 0.929 . S
H785 C794 0.930 1_565 S
H786 C796 0.930 . S
H787 C799 0.929 . S
H788 C802 0.930 . S
H789 C804 0.960 . S
H790 C804 0.960 . S
H791 C804 0.960 1_545 S
C792 H784 0.929 . S
C792 C793 1.377 . S
C792 C794 1.384 . S
C793 C792 1.377 . S
C793 C799 1.390 . S
C794 H785 0.930 1_545 S
C794 C792 1.384 . S
C794 C795 1.378 . S
C795 C794 1.378 . S
C795 C796 1.429 . S
C795 C800 1.457 1_545 S
C796 H786 0.930 . S
C796 C795 1.429 . S
C796 C799 1.386 . S
H797 C813 0.930 . S
H798 C814 0.931 . S
C799 H787 0.929 . S
C799 C793 1.390 . S
C799 C796 1.386 . S
C800 C795 1.457 1_565 S
C800 C802 1.395 . S
C800 C803 1.403 . S
H801 C807 0.930 . S
C802 H788 0.930 . S
C802 C800 1.395 . S
C802 C805 1.403 . S
C803 C800 1.403 . S
C803 C804 1.524 . S
C803 C807 1.400 . S
C804 H789 0.960 . S
C804 H790 0.960 . S
C804 H791 0.960 1_565 S
C804 C803 1.524 . S
C805 C802 1.403 . S
C805 C806 1.392 . S
C805 C809 1.495 . S
C806 C805 1.392 . S
C806 C807 1.385 . S
C806 C808 1.478 . S
C807 H801 0.930 . S
C807 C803 1.400 . S
C807 C806 1.385 . S
C808 C806 1.478 . S
C808 C810 1.381 . S
C808 C814 1.383 . S
C809 C805 1.495 . S
C809 H815 0.959 . S
C809 H816 0.961 . S
C809 H817 0.960 . S
C810 C808 1.381 . S
C810 C811 1.394 . S
C810 H818 0.930 . S
C811 C810 1.394 . S
C811 C812 1.383 . S
C811 H819 0.929 . S
C812 C811 1.383 . S
C812 C813 1.377 . S
C813 H797 0.930 . S
C813 C812 1.377 . S
C813 C814 1.379 . S
C814 H798 0.931 . S
C814 C808 1.383 . S
C814 C813 1.379 . S
H815 C809 0.959 . S
H816 C809 0.961 . S
H817 C809 0.960 . S
H818 C810 0.930 . S
H819 C811 0.929 . S
H820 C828 0.929 . S
H821 C830 0.930 . S
H822 C832 0.930 . S
H823 C835 0.929 . S
H824 C838 0.930 . S
H825 C840 0.960 . S
H826 C840 0.960 . S
H827 C840 0.960 . S
C828 H820 0.929 . S
C828 C829 1.377 . S
C828 C830 1.384 . S
C829 C828 1.377 . S
C829 C835 1.390 . S
C830 H821 0.930 . S
C830 C828 1.384 . S
C830 C831 1.372 . S
C831 C830 1.372 . S
C831 C832 1.400 . S
C831 C836 1.490 . S
C832 H822 0.930 . S
C832 C831 1.400 . S
C832 C835 1.386 . S
H833 C849 0.930 . S
H834 C850 0.931 . S
C835 H823 0.929 . S
C835 C829 1.390 . S
C835 C832 1.386 . S
C836 C831 1.490 . S
C836 C838 1.395 . S
C836 C839 1.403 . S
H837 C843 0.930 . S
C838 H824 0.930 . S
C838 C836 1.395 . S
C838 C841 1.403 . S
C839 C836 1.403 . S
C839 C840 1.524 . S
C839 C843 1.400 . S
C840 H825 0.960 . S
C840 H826 0.960 . S
C840 H827 0.960 . S
C840 C839 1.524 . S
C841 C838 1.403 . S
C841 C842 1.392 . S
C841 C845 1.495 . S
C842 C841 1.392 . S
C842 C843 1.385 . S
C842 C844 1.488 . S
C843 H837 0.930 . S
C843 C839 1.400 . S
C843 C842 1.385 . S
C844 C842 1.488 . S
C844 C846 1.379 1_655 S
C844 C850 1.374 1_655 S
C845 C841 1.495 . S
C845 H851 0.959 . S
C845 H852 0.961 . S
C845 H853 0.960 . S
C846 C844 1.379 1_455 S
C846 C847 1.394 . S
C846 H854 0.930 1_455 S
C847 C846 1.394 . S
C847 C848 1.383 . S
C847 H855 0.929 . S
C848 C847 1.383 . S
C848 C849 1.377 . S
C849 H833 0.930 . S
C849 C848 1.377 . S
C849 C850 1.379 . S
C850 H834 0.931 . S
C850 C844 1.374 1_455 S
C850 C849 1.379 . S
H851 C845 0.959 . S
H852 C845 0.961 . S
H853 C845 0.960 . S
H854 C846 0.930 1_655 S
H855 C847 0.929 . S
H856 C864 0.929 . S
H857 C866 0.930 . S
H858 C868 0.930 . S
H859 C871 0.929 . S
H860 C874 0.930 . S
H861 C876 0.960 . S
H862 C876 0.960 . S
H863 C876 0.960 . S
C864 H856 0.929 . S
C864 C865 1.377 . S
C864 C866 1.384 . S
C865 C864 1.377 . S
C865 C871 1.390 . S
C866 H857 0.930 . S
C866 C864 1.384 . S
C866 C867 1.372 . S
C867 C866 1.372 . S
C867 C868 1.400 . S
C867 C872 1.490 . S
C868 H858 0.930 . S
C868 C867 1.400 . S
C868 C871 1.386 . S
H869 C885 0.930 . S
H870 C886 0.931 . S
C871 H859 0.929 . S
C871 C865 1.390 . S
C871 C868 1.386 . S
C872 C867 1.490 . S
C872 C874 1.395 . S
C872 C875 1.403 . S
H873 C879 0.930 . S
C874 H860 0.930 . S
C874 C872 1.395 . S
C874 C877 1.403 . S
C875 C872 1.403 . S
C875 C876 1.524 . S
C875 C879 1.400 . S
C876 H861 0.960 . S
C876 H862 0.960 . S
C876 H863 0.960 . S
C876 C875 1.524 . S
C877 C874 1.403 . S
C877 C878 1.392 . S
C877 C881 1.495 . S
C878 C877 1.392 . S
C878 C879 1.385 . S
C878 C880 1.478 1_545 S
C879 H873 0.930 . S
C879 C875 1.400 . S
C879 C878 1.385 . S
C880 C878 1.478 1_565 S
C880 C882 1.381 . S
C880 C886 1.383 . S
C881 C877 1.495 . S
C881 H887 0.959 . S
C881 H888 0.961 1_545 S
C881 H889 0.960 . S
C882 C880 1.381 . S
C882 C883 1.394 . S
C882 H890 0.930 . S
C883 C882 1.394 . S
C883 C884 1.383 . S
C883 H891 0.929 . S
C884 C883 1.383 . S
C884 C885 1.377 . S
C885 H869 0.930 . S
C885 C884 1.377 . S
C885 C886 1.379 . S
C886 H870 0.931 . S
C886 C880 1.383 . S
C886 C885 1.379 . S
H887 C881 0.959 . S
H888 C881 0.961 1_565 S
H889 C881 0.960 . S
H890 C882 0.930 . S
H891 C883 0.929 . S
H892 C900 0.929 . S
H893 C902 0.930 . S
H894 C904 0.930 . S
H895 C907 0.929 . S
H896 C910 0.930 . S
H897 C912 0.960 . S
H898 C912 0.960 . S
H899 C912 0.960 . S
C900 H892 0.929 . S
C900 C901 1.377 . S
C900 C902 1.384 . S
C901 C900 1.377 . S
C901 C907 1.390 . S
C902 H893 0.930 . S
C902 C900 1.384 . S
C902 C903 1.372 . S
C903 C902 1.372 . S
C903 C904 1.400 . S
C903 C908 1.490 . S
C904 H894 0.930 . S
C904 C903 1.400 . S
C904 C907 1.386 . S
H905 C921 0.930 . S
H906 C922 0.931 1_455 S
C907 H895 0.929 . S
C907 C901 1.390 . S
C907 C904 1.386 . S
C908 C903 1.490 . S
C908 C910 1.395 . S
C908 C911 1.403 . S
H909 C915 0.930 . S
C910 H896 0.930 . S
C910 C908 1.395 . S
C910 C913 1.403 . S
C911 C908 1.403 . S
C911 C912 1.524 . S
C911 C915 1.400 . S
C912 H897 0.960 . S
C912 H898 0.960 . S
C912 H899 0.960 . S
C912 C911 1.524 . S
C913 C910 1.403 . S
C913 C914 1.392 . S
C913 C917 1.495 . S
C914 C913 1.392 . S
C914 C915 1.385 . S
C914 C916 1.478 1_455 S
C915 H909 0.930 . S
C915 C911 1.400 . S
C915 C914 1.385 . S
C916 C914 1.478 1_655 S
C916 C918 1.381 . S
C916 C922 1.383 . S
C917 C913 1.495 . S
C917 H923 0.959 . S
C917 H924 0.961 1_455 S
C917 H925 0.960 1_455 S
C918 C916 1.381 . S
C918 C919 1.394 . S
C918 H926 0.930 . S
C919 C918 1.394 . S
C919 C920 1.383 . S
C919 H927 0.929 . S
C920 C919 1.383 . S
C920 C921 1.377 . S
C921 H905 0.930 . S
C921 C920 1.377 . S
C921 C922 1.379 . S
C922 H906 0.931 1_655 S
C922 C916 1.383 . S
C922 C921 1.379 . S
H923 C917 0.959 . S
H924 C917 0.961 1_655 S
H925 C917 0.960 1_655 S
H926 C918 0.930 . S
H927 C919 0.929 . S
H928 C936 0.929 . S
H929 C938 0.930 . S
H930 C940 0.930 . S
H931 C943 0.929 . S
H932 C946 0.930 . S
H933 C948 0.960 . S
H934 C948 0.960 . S
H935 C948 0.960 . S
C936 H928 0.929 . S
C936 C937 1.377 . S
C936 C938 1.384 . S
C937 C936 1.377 . S
C937 C943 1.390 . S
C938 H929 0.930 . S
C938 C936 1.384 . S
C938 C939 1.372 . S
C939 C938 1.372 . S
C939 C940 1.400 . S
C939 C944 1.490 . S
C940 H930 0.930 . S
C940 C939 1.400 . S
C940 C943 1.386 . S
H941 C957 0.930 . S
H942 C958 0.931 . S
C943 H931 0.929 . S
C943 C937 1.390 . S
C943 C940 1.386 . S
C944 C939 1.490 . S
C944 C946 1.395 . S
C944 C947 1.403 . S
H945 C951 0.930 . S
C946 H932 0.930 . S
C946 C944 1.395 . S
C946 C949 1.403 . S
C947 C944 1.403 . S
C947 C948 1.524 . S
C947 C951 1.400 . S
C948 H933 0.960 . S
C948 H934 0.960 . S
C948 H935 0.960 . S
C948 C947 1.524 . S
C949 C946 1.403 . S
C949 C950 1.392 . S
C949 C953 1.495 . S
C950 C949 1.392 . S
C950 C951 1.385 . S
C950 C952 1.478 . S
C951 H945 0.930 . S
C951 C947 1.400 . S
C951 C950 1.385 . S
C952 C950 1.478 . S
C952 C954 1.381 . S
C952 C958 1.383 . S
C953 C949 1.495 . S
C953 H959 0.959 . S
C953 H960 0.961 . S
C953 H961 0.960 . S
C954 C952 1.381 . S
C954 C955 1.394 . S
C954 H962 0.930 . S
C955 C954 1.394 . S
C955 C956 1.383 . S
C955 H963 0.929 . S
C956 C955 1.383 . S
C956 C957 1.377 . S
C957 H941 0.930 . S
C957 C956 1.377 . S
C957 C958 1.379 . S
C958 H942 0.931 . S
C958 C952 1.383 . S
C958 C957 1.379 . S
H959 C953 0.959 . S
H960 C953 0.961 . S
H961 C953 0.960 . S
H962 C954 0.930 . S
H963 C955 0.929 . S
H964 C972 0.929 . S
H965 C974 0.930 . S
H966 C976 0.930 . S
H967 C979 0.929 . S
H968 C982 0.930 . S
H969 C984 0.960 . S
H970 C984 0.960 . S
H971 C984 0.960 . S
C972 H964 0.929 . S
C972 C973 1.377 . S
C972 C974 1.384 . S
C973 C972 1.377 . S
C973 C979 1.390 . S
C974 H965 0.930 . S
C974 C972 1.384 . S
C974 C975 1.372 . S
C975 C974 1.372 . S
C975 C976 1.400 . S
C975 C980 1.490 . S
C976 H966 0.930 . S
C976 C975 1.400 . S
C976 C979 1.386 . S
H977 C993 0.930 . S
H978 C994 0.931 . S
C979 H967 0.929 . S
C979 C973 1.390 . S
C979 C976 1.386 . S
C980 C975 1.490 . S
C980 C982 1.395 . S
C980 C983 1.403 . S
H981 C987 0.930 . S
C982 H968 0.930 . S
C982 C980 1.395 . S
C982 C985 1.403 . S
C983 C980 1.403 . S
C983 C984 1.524 . S
C983 C987 1.400 . S
C984 H969 0.960 . S
C984 H970 0.960 . S
C984 H971 0.960 . S
C984 C983 1.524 . S
C985 C982 1.403 . S
C985 C986 1.392 . S
C985 C989 1.495 . S
C986 C985 1.392 . S
C986 C987 1.385 . S
C986 C988 1.478 . S
C987 H981 0.930 . S
C987 C983 1.400 . S
C987 C986 1.385 . S
C988 C986 1.478 . S
C988 C990 1.381 . S
C988 C994 1.383 . S
C989 C985 1.495 . S
C989 H995 0.959 . S
C989 H996 0.961 . S
C989 H997 0.960 . S
C990 C988 1.381 . S
C990 C991 1.394 . S
C990 H998 0.930 . S
C991 C990 1.394 . S
C991 C992 1.383 . S
C991 H999 0.929 . S
C992 C991 1.383 . S
C992 C993 1.377 . S
C993 H977 0.930 . S
C993 C992 1.377 . S
C993 C994 1.379 . S
C994 H978 0.931 . S
C994 C988 1.383 . S
C994 C993 1.379 . S
H995 C989 0.959 . S
H996 C989 0.961 . S
H997 C989 0.960 . S
H998 C990 0.930 . S
H999 C991 0.929 . S
H1000 C1008 0.929 . S
H1001 C1010 0.930 . S
H1002 C1012 0.930 . S
H1003 C1015 0.929 . S
H1004 C1018 0.930 . S
H1005 C1020 0.960 . S
H1006 C1020 0.960 . S
H1007 C1020 0.960 . S
C1008 H1000 0.929 . S
C1008 C1009 1.377 . S
C1008 C1010 1.384 . S
C1009 C1008 1.377 . S
C1009 C1015 1.390 . S
C1010 H1001 0.930 . S
C1010 C1008 1.384 . S
C1010 C1011 1.372 . S
C1011 C1010 1.372 . S
C1011 C1012 1.400 . S
C1011 C1016 1.490 . S
C1012 H1002 0.930 . S
C1012 C1011 1.400 . S
C1012 C1015 1.386 . S
H1013 C1029 0.930 . S
H1014 C1030 0.931 . S
C1015 H1003 0.929 . S
C1015 C1009 1.390 . S
C1015 C1012 1.386 . S
C1016 C1011 1.490 . S
C1016 C1018 1.395 . S
C1016 C1019 1.403 . S
H1017 C1023 0.930 . S
C1018 H1004 0.930 . S
C1018 C1016 1.395 . S
C1018 C1021 1.403 . S
C1019 C1016 1.403 . S
C1019 C1020 1.524 . S
C1019 C1023 1.400 . S
C1020 H1005 0.960 . S
C1020 H1006 0.960 . S
C1020 H1007 0.960 . S
C1020 C1019 1.524 . S
C1021 C1018 1.403 . S
C1021 C1022 1.392 . S
C1021 C1025 1.495 . S
C1022 C1021 1.392 . S
C1022 C1023 1.385 . S
C1022 C1024 1.478 . S
C1023 H1017 0.930 . S
C1023 C1019 1.400 . S
C1023 C1022 1.385 . S
C1024 C1022 1.478 . S
C1024 C1026 1.381 . S
C1024 C1030 1.383 . S
C1025 C1021 1.495 . S
C1025 H1031 0.959 . S
C1025 H1032 0.961 . S
C1025 H1033 0.960 . S
C1026 C1024 1.381 . S
C1026 C1027 1.394 . S
C1026 H1034 0.930 . S
C1027 C1026 1.394 . S
C1027 C1028 1.383 . S
C1027 H1035 0.929 . S
C1028 C1027 1.383 . S
C1028 C1029 1.377 . S
C1029 H1013 0.930 . S
C1029 C1028 1.377 . S
C1029 C1030 1.379 . S
C1030 H1014 0.931 . S
C1030 C1024 1.383 . S
C1030 C1029 1.379 . S
H1031 C1025 0.959 . S
H1032 C1025 0.961 . S
H1033 C1025 0.960 . S
H1034 C1026 0.930 . S
H1035 C1027 0.929 . S
H1036 C1044 0.929 . S
H1037 C1046 0.930 . S
H1038 C1048 0.930 . S
H1039 C1051 0.929 . S
H1040 C1054 0.930 . S
H1041 C1056 0.960 . S
H1042 C1056 0.960 . S
H1043 C1056 0.960 . S
C1044 H1036 0.929 . S
C1044 C1045 1.377 . S
C1044 C1046 1.384 . S
C1045 C1044 1.377 . S
C1045 C1051 1.390 . S
C1046 H1037 0.930 . S
C1046 C1044 1.384 . S
C1046 C1047 1.372 . S
C1047 C1046 1.372 . S
C1047 C1048 1.400 . S
C1047 C1052 1.490 . S
C1048 H1038 0.930 . S
C1048 C1047 1.400 . S
C1048 C1051 1.386 . S
H1049 C1065 0.930 . S
H1050 C1066 0.931 . S
C1051 H1039 0.929 . S
C1051 C1045 1.390 . S
C1051 C1048 1.386 . S
C1052 C1047 1.490 . S
C1052 C1054 1.395 . S
C1052 C1055 1.403 . S
H1053 C1059 0.930 . S
C1054 H1040 0.930 . S
C1054 C1052 1.395 . S
C1054 C1057 1.403 . S
C1055 C1052 1.403 . S
C1055 C1056 1.524 . S
C1055 C1059 1.400 . S
C1056 H1041 0.960 . S
C1056 H1042 0.960 . S
C1056 H1043 0.960 . S
C1056 C1055 1.524 . S
C1057 C1054 1.403 . S
C1057 C1058 1.392 . S
C1057 C1061 1.495 . S
C1058 C1057 1.392 . S
C1058 C1059 1.385 . S
C1058 C1060 1.478 . S
C1059 H1053 0.930 . S
C1059 C1055 1.400 . S
C1059 C1058 1.385 . S
C1060 C1058 1.478 . S
C1060 C1062 1.381 . S
C1060 C1066 1.383 . S
C1061 C1057 1.495 . S
C1061 H1067 0.959 . S
C1061 H1068 0.961 . S
C1061 H1069 0.960 . S
C1062 C1060 1.381 . S
C1062 C1063 1.394 . S
C1062 H1070 0.930 . S
C1063 C1062 1.394 . S
C1063 C1064 1.383 . S
C1063 H1071 0.929 . S
C1064 C1063 1.383 . S
C1064 C1065 1.377 . S
C1065 H1049 0.930 . S
C1065 C1064 1.377 . S
C1065 C1066 1.379 . S
C1066 H1050 0.931 . S
C1066 C1060 1.383 . S
C1066 C1065 1.379 . S
H1067 C1061 0.959 . S
H1068 C1061 0.961 . S
H1069 C1061 0.960 . S
H1070 C1062 0.930 . S
H1071 C1063 0.929 . S
H1072 C1080 0.929 . S
H1073 C1082 0.930 . S
H1074 C1084 0.930 . S
H1075 C1087 0.929 . S
H1076 C1090 0.930 . S
H1077 C1092 0.960 . S
H1078 C1092 0.960 . S
H1079 C1092 0.960 1_545 S
C1080 H1072 0.929 . S
C1080 C1081 1.377 . S
C1080 C1082 1.384 . S
C1081 C1080 1.377 . S
C1081 C1087 1.390 . S
C1082 H1073 0.930 . S
C1082 C1080 1.384 . S
C1082 C1083 1.372 . S
C1083 C1082 1.372 . S
C1083 C1084 1.400 . S
C1083 C1088 1.490 . S
C1084 H1074 0.930 . S
C1084 C1083 1.400 . S
C1084 C1087 1.386 . S
H1085 C1101 0.930 . S
H1086 C1102 0.931 . S
C1087 H1075 0.929 . S
C1087 C1081 1.390 . S
C1087 C1084 1.386 . S
C1088 C1083 1.490 . S
C1088 C1090 1.397 . S
C1088 C1091 1.383 1_545 S
H1089 C1095 0.930 . S
C1090 H1076 0.930 . S
C1090 C1088 1.397 . S
C1090 C1093 1.440 1_554 S
C1091 C1088 1.383 1_565 S
C1091 C1092 1.527 . S
C1091 C1095 1.418 1_554 S
C1092 H1077 0.960 . S
C1092 H1078 0.960 . S
C1092 H1079 0.960 1_565 S
C1092 C1091 1.527 . S
C1093 C1090 1.440 1_556 S
C1093 C1094 1.351 1_545 S
C1093 C1097 1.500 . S
C1094 C1093 1.351 1_565 S
C1094 C1095 1.385 . S
C1094 C1096 1.478 . S
C1095 H1089 0.930 . S
C1095 C1091 1.418 1_556 S
C1095 C1094 1.385 . S
C1096 C1094 1.478 . S
C1096 C1098 1.381 . S
C1096 C1102 1.383 . S
C1097 C1093 1.500 . S
C1097 H1103 0.959 . S
C1097 H1104 0.961 . S
C1097 H1105 0.960 1_545 S
C1098 C1096 1.381 . S
C1098 C1099 1.394 . S
C1098 H1106 0.930 . S
C1099 C1098 1.394 . S
C1099 C1100 1.383 . S
C1099 H1107 0.929 . S
C1100 C1099 1.383 . S
C1100 C1101 1.377 . S
C1101 H1085 0.930 . S
C1101 C1100 1.377 . S
C1101 C1102 1.379 . S
C1102 H1086 0.931 . S
C1102 C1096 1.383 . S
C1102 C1101 1.379 . S
H1103 C1097 0.959 . S
H1104 C1097 0.961 . S
H1105 C1097 0.960 1_565 S
H1106 C1098 0.930 . S
H1107 C1099 0.929 . S
H1108 C1116 0.929 . S
H1109 C1118 0.930 . S
H1110 C1120 0.930 . S
H1111 C1123 0.929 . S
H1112 C1126 0.930 . S
H1113 C1128 1.001 . S
H1114 C1128 0.969 . S
H1115 C1128 0.915 1_655 S
C1116 H1108 0.929 . S
C1116 C1117 1.377 . S
C1116 C1118 1.384 . S
C1117 C1116 1.377 . S
C1117 C1123 1.390 . S
C1118 H1109 0.930 . S
C1118 C1116 1.384 . S
C1118 C1119 1.372 . S
C1119 C1118 1.372 . S
C1119 C1120 1.400 . S
C1119 C1124 1.490 . S
C1120 H1110 0.930 . S
C1120 C1119 1.400 . S
C1120 C1123 1.386 . S
H1121 C1137 0.930 . S
H1122 C1138 0.931 . S
C1123 H1111 0.929 . S
C1123 C1117 1.390 . S
C1123 C1120 1.386 . S
C1124 C1119 1.490 . S
C1124 C1126 1.395 . S
C1124 C1127 1.413 . S
H1125 C1131 0.930 . S
C1126 H1112 0.930 . S
C1126 C1124 1.395 . S
C1126 C1129 1.399 1_654 S
C1127 C1124 1.413 . S
C1127 C1128 1.522 1_655 S
C1127 C1131 1.390 1_654 S
C1128 H1113 1.001 . S
C1128 H1114 0.969 . S
C1128 H1115 0.915 1_455 S
C1128 C1127 1.522 1_455 S
C1129 C1126 1.399 1_456 S
C1129 C1130 1.397 . S
C1129 C1133 1.495 1_455 S
C1130 C1129 1.397 . S
C1130 C1131 1.385 . S
C1130 C1132 1.478 . S
C1131 H1125 0.930 . S
C1131 C1127 1.390 1_456 S
C1131 C1130 1.385 . S
C1132 C1130 1.478 . S
C1132 C1134 1.381 . S
C1132 C1138 1.383 . S
C1133 C1129 1.495 1_655 S
C1133 H1139 0.967 . S
C1133 H1140 0.963 . S
C1133 H1141 0.950 1_655 S
C1134 C1132 1.381 . S
C1134 C1135 1.394 . S
C1134 H1142 0.930 . S
C1135 C1134 1.394 . S
C1135 C1136 1.383 . S
C1135 H1143 0.929 . S
C1136 C1135 1.383 . S
C1136 C1137 1.377 . S
C1137 H1121 0.930 . S
C1137 C1136 1.377 . S
C1137 C1138 1.379 . S
C1138 H1122 0.931 . S
C1138 C1132 1.383 . S
C1138 C1137 1.379 . S
H1139 C1133 0.967 . S
H1140 C1133 0.963 . S
H1141 C1133 0.950 1_455 S
H1142 C1134 0.930 . S
H1143 C1135 0.929 . S
H1144 C1152 0.929 . S
H1145 C1154 0.930 . S
H1146 C1156 0.930 . S
H1147 C1159 0.929 . S
H1148 C1162 0.930 . S
H1149 C1164 0.960 . S
H1150 C1164 0.960 . S
H1151 C1164 0.960 . S
C1152 H1144 0.929 . S
C1152 C1153 1.377 . S
C1152 C1154 1.384 . S
C1153 C1152 1.377 . S
C1153 C1159 1.390 . S
C1154 H1145 0.930 . S
C1154 C1152 1.384 . S
C1154 C1155 1.372 . S
C1155 C1154 1.372 . S
C1155 C1156 1.400 . S
C1155 C1160 1.490 . S
C1156 H1146 0.930 . S
C1156 C1155 1.400 . S
C1156 C1159 1.386 . S
H1157 C1173 0.930 . S
H1158 C1174 0.931 . S
C1159 H1147 0.929 . S
C1159 C1153 1.390 . S
C1159 C1156 1.386 . S
C1160 C1155 1.490 . S
C1160 C1162 1.395 1_545 S
C1160 C1163 1.403 1_556 S
H1161 C1167 0.930 . S
C1162 H1148 0.930 . S
C1162 C1160 1.395 1_565 S
C1162 C1165 1.403 . S
C1163 C1160 1.403 1_554 S
C1163 C1164 1.524 . S
C1163 C1167 1.400 . S
C1164 H1149 0.960 . S
C1164 H1150 0.960 . S
C1164 H1151 0.960 . S
C1164 C1163 1.524 . S
C1165 C1162 1.403 . S
C1165 C1166 1.392 1_556 S
C1165 C1169 1.495 . S
C1166 C1165 1.392 1_554 S
C1166 C1167 1.385 1_565 S
C1166 C1168 1.478 . S
C1167 H1161 0.930 . S
C1167 C1163 1.400 . S
C1167 C1166 1.385 1_545 S
C1168 C1166 1.478 . S
C1168 C1170 1.381 . S
C1168 C1174 1.383 . S
C1169 C1165 1.495 . S
C1169 H1175 0.959 . S
C1169 H1176 0.961 . S
C1169 H1177 0.960 . S
C1170 C1168 1.381 . S
C1170 C1171 1.394 . S
C1170 H1178 0.930 . S
C1171 C1170 1.394 . S
C1171 C1172 1.383 . S
C1171 H1179 0.929 . S
C1172 C1171 1.383 . S
C1172 C1173 1.377 . S
C1173 H1157 0.930 . S
C1173 C1172 1.377 . S
C1173 C1174 1.379 . S
C1174 H1158 0.931 . S
C1174 C1168 1.383 . S
C1174 C1173 1.379 . S
H1175 C1169 0.959 . S
H1176 C1169 0.961 . S
H1177 C1169 0.960 . S
H1178 C1170 0.930 . S
H1179 C1171 0.929 . S
H1180 C1188 0.929 . S
H1181 C1190 0.930 . S
H1182 C1192 0.930 . S
H1183 C1195 0.929 . S
H1184 C1198 0.930 . S
H1185 C1200 0.960 . S
H1186 C1200 0.960 . S
H1187 C1200 0.960 . S
C1188 H1180 0.929 . S
C1188 C1189 1.377 . S
C1188 C1190 1.384 . S
C1189 C1188 1.377 . S
C1189 C1195 1.390 . S
C1190 H1181 0.930 . S
C1190 C1188 1.384 . S
C1190 C1191 1.372 . S
C1191 C1190 1.372 . S
C1191 C1192 1.400 . S
C1191 C1196 1.490 . S
C1192 H1182 0.930 . S
C1192 C1191 1.400 . S
C1192 C1195 1.386 . S
H1193 C1209 0.930 . S
H1194 C1210 0.931 . S
C1195 H1183 0.929 . S
C1195 C1189 1.390 . S
C1195 C1192 1.386 . S
C1196 C1191 1.490 . S
C1196 C1198 1.395 1_556 S
C1196 C1199 1.403 1_655 S
H1197 C1203 0.930 . S
C1198 H1184 0.930 . S
C1198 C1196 1.395 1_554 S
C1198 C1201 1.403 . S
C1199 C1196 1.403 1_455 S
C1199 C1200 1.524 . S
C1199 C1203 1.400 . S
C1200 H1185 0.960 . S
C1200 H1186 0.960 . S
C1200 H1187 0.960 . S
C1200 C1199 1.524 . S
C1201 C1198 1.403 . S
C1201 C1202 1.392 1_655 S
C1201 C1205 1.495 . S
C1202 C1201 1.392 1_455 S
C1202 C1203 1.385 1_554 S
C1202 C1204 1.478 . S
C1203 H1197 0.930 . S
C1203 C1199 1.400 . S
C1203 C1202 1.385 1_556 S
C1204 C1202 1.478 . S
C1204 C1206 1.381 . S
C1204 C1210 1.383 . S
C1205 C1201 1.495 . S
C1205 H1211 0.959 . S
C1205 H1212 0.961 . S
C1205 H1213 0.960 . S
C1206 C1204 1.381 . S
C1206 C1207 1.394 . S
C1206 H1214 0.930 . S
C1207 C1206 1.394 . S
C1207 C1208 1.383 . S
C1207 H1215 0.929 . S
C1208 C1207 1.383 . S
C1208 C1209 1.377 . S
C1209 H1193 0.930 . S
C1209 C1208 1.377 . S
C1209 C1210 1.379 . S
C1210 H1194 0.931 . S
C1210 C1204 1.383 . S
C1210 C1209 1.379 . S
H1211 C1205 0.959 . S
H1212 C1205 0.961 . S
H1213 C1205 0.960 . S
H1214 C1206 0.930 . S
H1215 C1207 0.929 . S
H1216 C1224 0.929 . S
H1217 C1226 0.930 . S
H1218 C1228 0.930 . S
H1219 C1231 0.929 . S
H1220 C1234 0.930 . S
H1221 C1236 0.960 . S
H1222 C1236 0.960 . S
H1223 C1236 0.960 . S
C1224 H1216 0.929 . S
C1224 C1225 1.377 . S
C1224 C1226 1.384 . S
C1225 C1224 1.377 . S
C1225 C1231 1.390 . S
C1226 H1217 0.930 . S
C1226 C1224 1.384 . S
C1226 C1227 1.372 . S
C1227 C1226 1.372 . S
C1227 C1228 1.400 . S
C1227 C1232 1.490 . S
C1228 H1218 0.930 . S
C1228 C1227 1.400 . S
C1228 C1231 1.386 . S
H1229 C1245 0.930 . S
H1230 C1246 0.931 . S
C1231 H1219 0.929 . S
C1231 C1225 1.390 . S
C1231 C1228 1.386 . S
C1232 C1227 1.490 . S
C1232 C1234 1.395 . S
C1232 C1235 1.403 . S
H1233 C1239 0.930 . S
C1234 H1220 0.930 . S
C1234 C1232 1.395 . S
C1234 C1237 1.403 . S
C1235 C1232 1.403 . S
C1235 C1236 1.524 . S
C1235 C1239 1.400 . S
C1236 H1221 0.960 . S
C1236 H1222 0.960 . S
C1236 H1223 0.960 . S
C1236 C1235 1.524 . S
C1237 C1234 1.403 . S
C1237 C1238 1.392 . S
C1237 C1241 1.495 . S
C1238 C1237 1.392 . S
C1238 C1239 1.385 . S
C1238 C1240 1.478 . S
C1239 H1233 0.930 . S
C1239 C1235 1.400 . S
C1239 C1238 1.385 . S
C1240 C1238 1.478 . S
C1240 C1242 1.381 . S
C1240 C1246 1.383 1_554 S
C1241 C1237 1.495 . S
C1241 H1247 0.959 . S
C1241 H1248 0.961 . S
C1241 H1249 0.960 . S
C1242 C1240 1.381 . S
C1242 C1243 1.394 1_554 S
C1242 H1250 0.930 . S
C1243 C1242 1.394 1_556 S
C1243 C1244 1.383 . S
C1243 H1251 0.929 . S
C1244 C1243 1.383 . S
C1244 C1245 1.377 . S
C1245 H1229 0.930 . S
C1245 C1244 1.377 . S
C1245 C1246 1.379 . S
C1246 H1230 0.931 . S
C1246 C1240 1.383 1_556 S
C1246 C1245 1.379 . S
H1247 C1241 0.959 . S
H1248 C1241 0.961 . S
H1249 C1241 0.960 . S
H1250 C1242 0.930 . S
H1251 C1243 0.929 . S
H1252 C1260 0.929 . S
H1253 C1262 0.930 . S
H1254 C1264 0.930 . S
H1255 C1267 0.929 . S
H1256 C1270 0.930 . S
H1257 C1272 0.960 . S
H1258 C1272 0.960 . S
H1259 C1272 0.960 . S
C1260 H1252 0.929 . S
C1260 C1261 1.377 . S
C1260 C1262 1.384 1_554 S
C1261 C1260 1.377 . S
C1261 C1267 1.390 . S
C1262 H1253 0.930 . S
C1262 C1260 1.384 1_556 S
C1262 C1263 1.372 . S
C1263 C1262 1.372 . S
C1263 C1264 1.400 1_556 S
C1263 C1268 1.490 . S
C1264 H1254 0.930 . S
C1264 C1263 1.400 1_554 S
C1264 C1267 1.386 . S
H1265 C1281 0.930 . S
H1266 C1282 0.931 . S
C1267 H1255 0.929 . S
C1267 C1261 1.390 . S
C1267 C1264 1.386 . S
C1268 C1263 1.490 . S
C1268 C1270 1.395 . S
C1268 C1271 1.403 . S
H1269 C1275 0.930 . S
C1270 H1256 0.930 . S
C1270 C1268 1.395 . S
C1270 C1273 1.403 . S
C1271 C1268 1.403 . S
C1271 C1272 1.524 . S
C1271 C1275 1.400 . S
C1272 H1257 0.960 . S
C1272 H1258 0.960 . S
C1272 H1259 0.960 . S
C1272 C1271 1.524 . S
C1273 C1270 1.403 . S
C1273 C1274 1.392 . S
C1273 C1277 1.495 . S
C1274 C1273 1.392 . S
C1274 C1275 1.385 . S
C1274 C1276 1.478 . S
C1275 H1269 0.930 . S
C1275 C1271 1.400 . S
C1275 C1274 1.385 . S
C1276 C1274 1.478 . S
C1276 C1278 1.381 . S
C1276 C1282 1.383 . S
C1277 C1273 1.495 . S
C1277 H1283 0.959 . S
C1277 H1284 0.961 . S
C1277 H1285 0.960 . S
C1278 C1276 1.381 . S
C1278 C1279 1.394 . S
C1278 H1286 0.930 . S
C1279 C1278 1.394 . S
C1279 C1280 1.383 . S
C1279 H1287 0.929 . S
C1280 C1279 1.383 . S
C1280 C1281 1.377 . S
C1281 H1265 0.930 . S
C1281 C1280 1.377 . S
C1281 C1282 1.379 . S
C1282 H1266 0.931 . S
C1282 C1276 1.383 . S
C1282 C1281 1.379 . S
H1283 C1277 0.959 . S
H1284 C1277 0.961 . S
H1285 C1277 0.960 . S
H1286 C1278 0.930 . S
H1287 C1279 0.929 . S
H1288 C1296 0.929 . S
H1289 C1298 0.930 . S
H1290 C1300 0.930 . S
H1291 C1303 0.929 . S
H1292 C1306 0.930 . S
H1293 C1308 0.960 . S
H1294 C1308 0.960 . S
H1295 C1308 0.960 . S
C1296 H1288 0.929 . S
C1296 C1297 1.377 . S
C1296 C1298 1.384 1_556 S
C1297 C1296 1.377 . S
C1297 C1303 1.390 . S
C1298 H1289 0.930 . S
C1298 C1296 1.384 1_554 S
C1298 C1299 1.372 . S
C1299 C1298 1.372 . S
C1299 C1300 1.400 1_554 S
C1299 C1304 1.490 . S
C1300 H1290 0.930 . S
C1300 C1299 1.400 1_556 S
C1300 C1303 1.386 . S
H1301 C1317 0.930 . S
H1302 C1318 0.931 . S
C1303 H1291 0.929 . S
C1303 C1297 1.390 . S
C1303 C1300 1.386 . S
C1304 C1299 1.490 . S
C1304 C1306 1.395 . S
C1304 C1307 1.403 . S
H1305 C1311 0.930 . S
C1306 H1292 0.930 . S
C1306 C1304 1.395 . S
C1306 C1309 1.403 . S
C1307 C1304 1.403 . S
C1307 C1308 1.524 . S
C1307 C1311 1.400 . S
C1308 H1293 0.960 . S
C1308 H1294 0.960 . S
C1308 H1295 0.960 . S
C1308 C1307 1.524 . S
C1309 C1306 1.403 . S
C1309 C1310 1.392 . S
C1309 C1313 1.495 . S
C1310 C1309 1.392 . S
C1310 C1311 1.385 . S
C1310 C1312 1.478 . S
C1311 H1305 0.930 . S
C1311 C1307 1.400 . S
C1311 C1310 1.385 . S
C1312 C1310 1.478 . S
C1312 C1314 1.381 . S
C1312 C1318 1.383 . S
C1313 C1309 1.495 . S
C1313 H1319 0.959 . S
C1313 H1320 0.961 . S
C1313 H1321 0.960 . S
C1314 C1312 1.381 . S
C1314 C1315 1.394 . S
C1314 H1322 0.930 . S
C1315 C1314 1.394 . S
C1315 C1316 1.383 . S
C1315 H1323 0.929 . S
C1316 C1315 1.383 . S
C1316 C1317 1.377 . S
C1317 H1301 0.930 . S
C1317 C1316 1.377 . S
C1317 C1318 1.379 . S
C1318 H1302 0.931 . S
C1318 C1312 1.383 . S
C1318 C1317 1.379 . S
H1319 C1313 0.959 . S
H1320 C1313 0.961 . S
H1321 C1313 0.960 . S
H1322 C1314 0.930 . S
H1323 C1315 0.929 . S
H1324 C1332 0.929 . S
H1325 C1334 0.930 1_556 S
H1326 C1336 0.933 . S
H1327 C1339 0.929 . S
H1328 C1342 0.930 . S
H1329 C1344 0.960 . S
H1330 C1344 0.960 . S
H1331 C1344 0.960 . S
C1332 H1324 0.929 . S
C1332 C1333 1.377 . S
C1332 C1334 1.384 . S
C1333 C1332 1.377 . S
C1333 C1339 1.390 . S
C1334 H1325 0.930 1_554 S
C1334 C1332 1.384 . S
C1334 C1335 1.372 1_554 S
C1335 C1334 1.372 1_556 S
C1335 C1336 1.400 1_556 S
C1335 C1340 1.490 . S
C1336 H1326 0.933 . S
C1336 C1335 1.400 1_554 S
C1336 C1339 1.386 . S
H1337 C1353 0.930 . S
H1338 C1354 0.931 . S
C1339 H1327 0.929 . S
C1339 C1333 1.390 . S
C1339 C1336 1.386 . S
C1340 C1335 1.490 . S
C1340 C1342 1.395 . S
C1340 C1343 1.403 . S
H1341 C1347 0.930 . S
C1342 H1328 0.930 . S
C1342 C1340 1.395 . S
C1342 C1345 1.403 . S
C1343 C1340 1.403 . S
C1343 C1344 1.524 . S
C1343 C1347 1.400 . S
C1344 H1329 0.960 . S
C1344 H1330 0.960 . S
C1344 H1331 0.960 . S
C1344 C1343 1.524 . S
C1345 C1342 1.403 . S
C1345 C1346 1.392 . S
C1345 C1349 1.495 . S
C1346 C1345 1.392 . S
C1346 C1347 1.385 . S
C1346 C1348 1.478 . S
C1347 H1341 0.930 . S
C1347 C1343 1.400 . S
C1347 C1346 1.385 . S
C1348 C1346 1.478 . S
C1348 C1350 1.381 . S
C1348 C1354 1.383 . S
C1349 C1345 1.495 . S
C1349 H1355 0.959 . S
C1349 H1356 0.961 . S
C1349 H1357 0.960 . S
C1350 C1348 1.381 . S
C1350 C1351 1.394 . S
C1350 H1358 0.930 . S
C1351 C1350 1.394 . S
C1351 C1352 1.383 . S
C1351 H1359 0.929 . S
C1352 C1351 1.383 . S
C1352 C1353 1.377 . S
C1353 H1337 0.930 . S
C1353 C1352 1.377 . S
C1353 C1354 1.379 . S
C1354 H1338 0.931 . S
C1354 C1348 1.383 . S
C1354 C1353 1.379 . S
H1355 C1349 0.959 . S
H1356 C1349 0.961 . S
H1357 C1349 0.960 . S
H1358 C1350 0.930 . S
H1359 C1351 0.929 . S
H1360 C1368 0.929 . S
H1361 C1370 0.930 . S
H1362 C1372 0.930 . S
H1363 C1375 0.929 . S
H1364 C1378 0.930 . S
H1365 C1380 0.960 . S
H1366 C1380 0.960 . S
H1367 C1380 0.960 . S
C1368 H1360 0.929 . S
C1368 C1369 1.377 . S
C1368 C1370 1.384 . S
C1369 C1368 1.377 . S
C1369 C1375 1.390 . S
C1370 H1361 0.930 . S
C1370 C1368 1.384 . S
C1370 C1371 1.372 . S
C1371 C1370 1.372 . S
C1371 C1372 1.400 . S
C1371 C1376 1.490 . S
C1372 H1362 0.930 . S
C1372 C1371 1.400 . S
C1372 C1375 1.386 . S
H1373 C1389 0.930 . S
H1374 C1390 0.931 . S
C1375 H1363 0.929 . S
C1375 C1369 1.390 . S
C1375 C1372 1.386 . S
C1376 C1371 1.490 . S
C1376 C1378 1.395 . S
C1376 C1379 1.403 . S
H1377 C1383 0.930 . S
C1378 H1364 0.930 . S
C1378 C1376 1.395 . S
C1378 C1381 1.403 . S
C1379 C1376 1.403 . S
C1379 C1380 1.524 . S
C1379 C1383 1.400 . S
C1380 H1365 0.960 . S
C1380 H1366 0.960 . S
C1380 H1367 0.960 . S
C1380 C1379 1.524 . S
C1381 C1378 1.403 . S
C1381 C1382 1.392 . S
C1381 C1385 1.495 . S
C1382 C1381 1.392 . S
C1382 C1383 1.385 . S
C1382 C1384 1.478 . S
C1383 H1377 0.930 . S
C1383 C1379 1.400 . S
C1383 C1382 1.385 . S
C1384 C1382 1.478 . S
C1384 C1386 1.381 . S
C1384 C1390 1.383 1_556 S
C1385 C1381 1.495 . S
C1385 H1391 0.959 . S
C1385 H1392 0.961 . S
C1385 H1393 0.960 . S
C1386 C1384 1.381 . S
C1386 C1387 1.394 1_556 S
C1386 H1394 0.930 . S
C1387 C1386 1.394 1_554 S
C1387 C1388 1.383 . S
C1387 H1395 0.929 . S
C1388 C1387 1.383 . S
C1388 C1389 1.377 . S
C1389 H1373 0.930 . S
C1389 C1388 1.377 . S
C1389 C1390 1.379 . S
C1390 H1374 0.931 . S
C1390 C1384 1.383 1_554 S
C1390 C1389 1.379 . S
H1391 C1385 0.959 . S
H1392 C1385 0.961 . S
H1393 C1385 0.960 . S
H1394 C1386 0.930 . S
H1395 C1387 0.929 . S
H1396 C1404 0.929 . S
H1397 C1406 0.930 . S
H1398 C1408 0.930 . S
H1399 C1411 0.929 . S
H1400 C1414 0.930 . S
H1401 C1416 0.960 . S
H1402 C1416 0.960 . S
H1403 C1416 0.960 . S
C1404 H1396 0.929 . S
C1404 C1405 1.377 . S
C1404 C1406 1.384 . S
C1405 C1404 1.377 . S
C1405 C1411 1.390 . S
C1406 H1397 0.930 . S
C1406 C1404 1.384 . S
C1406 C1407 1.372 . S
C1407 C1406 1.372 . S
C1407 C1408 1.400 . S
C1407 C1412 1.490 . S
C1408 H1398 0.930 . S
C1408 C1407 1.400 . S
C1408 C1411 1.386 . S
H1409 C1425 0.930 . S
H1410 C1426 0.931 1_554 S
C1411 H1399 0.929 . S
C1411 C1405 1.390 . S
C1411 C1408 1.386 . S
C1412 C1407 1.490 . S
C1412 C1414 1.395 . S
C1412 C1415 1.403 . S
H1413 C1419 0.930 . S
C1414 H1400 0.930 . S
C1414 C1412 1.395 . S
C1414 C1417 1.403 . S
C1415 C1412 1.403 . S
C1415 C1416 1.524 . S
C1415 C1419 1.400 . S
C1416 H1401 0.960 . S
C1416 H1402 0.960 . S
C1416 H1403 0.960 . S
C1416 C1415 1.524 . S
C1417 C1414 1.403 . S
C1417 C1418 1.392 . S
C1417 C1421 1.495 . S
C1418 C1417 1.392 . S
C1418 C1419 1.385 . S
C1418 C1420 1.478 . S
C1419 H1413 0.930 . S
C1419 C1415 1.400 . S
C1419 C1418 1.385 . S
C1420 C1418 1.478 . S
C1420 C1422 1.381 1_554 S
C1420 C1426 1.383 1_554 S
C1421 C1417 1.495 . S
C1421 H1427 0.959 . S
C1421 H1428 0.961 . S
C1421 H1429 0.960 . S
C1422 C1420 1.381 1_556 S
C1422 C1423 1.394 . S
C1422 H1430 0.930 1_556 S
C1423 C1422 1.394 . S
C1423 C1424 1.383 . S
C1423 H1431 0.929 . S
C1424 C1423 1.383 . S
C1424 C1425 1.377 . S
C1425 H1409 0.930 . S
C1425 C1424 1.377 . S
C1425 C1426 1.379 . S
C1426 H1410 0.931 1_556 S
C1426 C1420 1.383 1_556 S
C1426 C1425 1.379 . S
H1427 C1421 0.959 . S
H1428 C1421 0.961 . S
H1429 C1421 0.960 . S
H1430 C1422 0.930 1_554 S
H1431 C1423 0.929 . S
H1432 C1440 0.929 . S
H1433 C1442 0.930 . S
H1434 C1444 0.930 . S
H1435 C1447 0.929 . S
H1436 C1450 0.930 . S
H1437 C1452 0.960 . S
H1438 C1452 0.960 . S
H1439 C1452 0.960 . S
C1440 H1432 0.929 . S
C1440 C1441 1.377 . S
C1440 C1442 1.384 . S
C1441 C1440 1.377 . S
C1441 C1447 1.390 . S
C1442 H1433 0.930 . S
C1442 C1440 1.384 . S
C1442 C1443 1.372 . S
C1443 C1442 1.372 . S
C1443 C1444 1.400 . S
C1443 C1448 1.490 . S
C1444 H1434 0.930 . S
C1444 C1443 1.400 . S
C1444 C1447 1.386 . S
H1445 C1461 0.930 . S
H1446 C1462 0.931 . S
C1447 H1435 0.929 . S
C1447 C1441 1.390 . S
C1447 C1444 1.386 . S
C1448 C1443 1.490 . S
C1448 C1450 1.395 . S
C1448 C1451 1.403 . S
H1449 C1455 0.930 . S
C1450 H1436 0.930 . S
C1450 C1448 1.395 . S
C1450 C1453 1.403 . S
C1451 C1448 1.403 . S
C1451 C1452 1.524 . S
C1451 C1455 1.400 . S
C1452 H1437 0.960 . S
C1452 H1438 0.960 . S
C1452 H1439 0.960 . S
C1452 C1451 1.524 . S
C1453 C1450 1.403 . S
C1453 C1454 1.392 . S
C1453 C1457 1.495 . S
C1454 C1453 1.392 . S
C1454 C1455 1.385 . S
C1454 C1456 1.478 . S
C1455 H1449 0.930 . S
C1455 C1451 1.400 . S
C1455 C1454 1.385 . S
C1456 C1454 1.478 . S
C1456 C1458 1.388 . S
C1456 C1462 1.383 1_556 S
C1457 C1453 1.495 . S
C1457 H1463 0.959 . S
C1457 H1464 0.961 . S
C1457 H1465 0.960 . S
C1458 C1456 1.388 . S
C1458 C1459 1.371 1_556 S
C1458 H1466 0.947 . S
C1459 C1458 1.371 1_554 S
C1459 C1460 1.383 . S
C1459 H1467 0.929 . S
C1460 C1459 1.383 . S
C1460 C1461 1.377 . S
C1461 H1445 0.930 . S
C1461 C1460 1.377 . S
C1461 C1462 1.379 . S
C1462 H1446 0.931 . S
C1462 C1456 1.383 1_554 S
C1462 C1461 1.379 . S
H1463 C1457 0.959 . S
H1464 C1457 0.961 . S
H1465 C1457 0.960 . S
H1466 C1458 0.947 . S
H1467 C1459 0.929 . S
H1468 C1476 0.929 . S
H1469 C1478 0.930 . S
H1470 C1480 0.930 . S
H1471 C1483 0.929 . S
H1472 C1486 0.930 . S
H1473 C1488 0.960 . S
H1474 C1488 0.960 . S
H1475 C1488 0.960 . S
C1476 H1468 0.929 . S
C1476 C1477 1.377 . S
C1476 C1478 1.384 1_556 S
C1477 C1476 1.377 . S
C1477 C1483 1.390 . S
C1478 H1469 0.930 . S
C1478 C1476 1.384 1_554 S
C1478 C1479 1.372 . S
C1479 C1478 1.372 . S
C1479 C1480 1.400 1_554 S
C1479 C1484 1.490 . S
C1480 H1470 0.930 . S
C1480 C1479 1.400 1_556 S
C1480 C1483 1.386 . S
H1481 C1497 0.930 . S
H1482 C1498 0.931 . S
C1483 H1471 0.929 . S
C1483 C1477 1.390 . S
C1483 C1480 1.386 . S
C1484 C1479 1.490 . S
C1484 C1486 1.395 . S
C1484 C1487 1.403 . S
H1485 C1491 0.930 . S
C1486 H1472 0.930 . S
C1486 C1484 1.395 . S
C1486 C1489 1.403 . S
C1487 C1484 1.403 . S
C1487 C1488 1.524 . S
C1487 C1491 1.400 . S
C1488 H1473 0.960 . S
C1488 H1474 0.960 . S
C1488 H1475 0.960 . S
C1488 C1487 1.524 . S
C1489 C1486 1.403 . S
C1489 C1490 1.392 . S
C1489 C1493 1.495 . S
C1490 C1489 1.392 . S
C1490 C1491 1.385 . S
C1490 C1492 1.478 . S
C1491 H1485 0.930 . S
C1491 C1487 1.400 . S
C1491 C1490 1.385 . S
C1492 C1490 1.478 . S
C1492 C1494 1.381 . S
C1492 C1498 1.383 . S
C1493 C1489 1.495 . S
C1493 H1499 0.959 . S
C1493 H1500 0.961 . S
C1493 H1501 0.960 . S
C1494 C1492 1.381 . S
C1494 C1495 1.394 . S
C1494 H1502 0.930 . S
C1495 C1494 1.394 . S
C1495 C1496 1.383 . S
C1495 H1503 0.929 . S
C1496 C1495 1.383 . S
C1496 C1497 1.377 . S
C1497 H1481 0.930 . S
C1497 C1496 1.377 . S
C1497 C1498 1.379 . S
C1498 H1482 0.931 . S
C1498 C1492 1.383 . S
C1498 C1497 1.379 . S
H1499 C1493 0.959 . S
H1500 C1493 0.961 . S
H1501 C1493 0.960 . S
H1502 C1494 0.930 . S
H1503 C1495 0.929 . S
H1504 C1512 0.929 . S
H1505 C1514 0.930 . S
H1506 C1516 0.930 . S
H1507 C1519 0.929 . S
H1508 C1522 0.930 . S
H1509 C1524 0.960 . S
H1510 C1524 0.960 . S
H1511 C1524 0.960 . S
C1512 H1504 0.929 . S
C1512 C1513 1.377 . S
C1512 C1514 1.384 . S
C1513 C1512 1.377 . S
C1513 C1519 1.390 . S
C1514 H1505 0.930 . S
C1514 C1512 1.384 . S
C1514 C1515 1.372 . S
C1515 C1514 1.372 . S
C1515 C1516 1.400 . S
C1515 C1520 1.490 . S
C1516 H1506 0.930 . S
C1516 C1515 1.400 . S
C1516 C1519 1.386 . S
H1517 C1533 0.930 . S
H1518 C1534 0.931 . S
C1519 H1507 0.929 . S
C1519 C1513 1.390 . S
C1519 C1516 1.386 . S
C1520 C1515 1.490 . S
C1520 C1522 1.395 . S
C1520 C1523 1.403 . S
H1521 C1527 0.930 . S
C1522 H1508 0.930 . S
C1522 C1520 1.395 . S
C1522 C1525 1.403 . S
C1523 C1520 1.403 . S
C1523 C1524 1.524 . S
C1523 C1527 1.400 . S
C1524 H1509 0.960 . S
C1524 H1510 0.960 . S
C1524 H1511 0.960 . S
C1524 C1523 1.524 . S
C1525 C1522 1.403 . S
C1525 C1526 1.392 . S
C1525 C1529 1.495 . S
C1526 C1525 1.392 . S
C1526 C1527 1.385 . S
C1526 C1528 1.478 . S
C1527 H1521 0.930 . S
C1527 C1523 1.400 . S
C1527 C1526 1.385 . S
C1528 C1526 1.478 . S
C1528 C1530 1.381 . S
C1528 C1534 1.383 . S
C1529 C1525 1.495 . S
C1529 H1535 0.959 . S
C1529 H1536 0.961 . S
C1529 H1537 0.960 . S
C1530 C1528 1.381 . S
C1530 C1531 1.394 . S
C1530 H1538 0.930 . S
C1531 C1530 1.394 . S
C1531 C1532 1.383 . S
C1531 H1539 0.929 . S
C1532 C1531 1.383 . S
C1532 C1533 1.377 . S
C1533 H1517 0.930 . S
C1533 C1532 1.377 . S
C1533 C1534 1.379 . S
C1534 H1518 0.931 . S
C1534 C1528 1.383 . S
C1534 C1533 1.379 . S
H1535 C1529 0.959 . S
H1536 C1529 0.961 . S
H1537 C1529 0.960 . S
H1538 C1530 0.930 . S
H1539 C1531 0.929 . S
H1540 C1548 0.929 . S
H1541 C1550 0.930 . S
H1542 C1552 0.930 . S
H1543 C1555 0.929 . S
H1544 C1558 0.930 . S
H1545 C1560 0.960 . S
H1546 C1560 0.960 . S
H1547 C1560 0.960 . S
C1548 H1540 0.929 . S
C1548 C1549 1.377 . S
C1548 C1550 1.384 . S
C1549 C1548 1.377 . S
C1549 C1555 1.390 . S
C1550 H1541 0.930 . S
C1550 C1548 1.384 . S
C1550 C1551 1.372 . S
C1551 C1550 1.372 . S
C1551 C1552 1.400 . S
C1551 C1556 1.490 . S
C1552 H1542 0.930 . S
C1552 C1551 1.400 . S
C1552 C1555 1.386 . S
H1553 C1569 0.930 . S
H1554 C1570 0.931 . S
C1555 H1543 0.929 . S
C1555 C1549 1.390 . S
C1555 C1552 1.386 . S
C1556 C1551 1.490 . S
C1556 C1558 1.395 . S
C1556 C1559 1.403 . S
H1557 C1563 0.930 . S
C1558 H1544 0.930 . S
C1558 C1556 1.395 . S
C1558 C1561 1.403 . S
C1559 C1556 1.403 . S
C1559 C1560 1.524 . S
C1559 C1563 1.400 . S
C1560 H1545 0.960 . S
C1560 H1546 0.960 . S
C1560 H1547 0.960 . S
C1560 C1559 1.524 . S
C1561 C1558 1.403 . S
C1561 C1562 1.392 . S
C1561 C1565 1.495 . S
C1562 C1561 1.392 . S
C1562 C1563 1.385 . S
C1562 C1564 1.478 . S
C1563 H1557 0.930 . S
C1563 C1559 1.400 . S
C1563 C1562 1.385 . S
C1564 C1562 1.478 . S
C1564 C1566 1.381 . S
C1564 C1570 1.383 . S
C1565 C1561 1.495 . S
C1565 H1571 0.959 . S
C1565 H1572 0.961 . S
C1565 H1573 0.960 . S
C1566 C1564 1.381 . S
C1566 C1567 1.394 . S
C1566 H1574 0.930 . S
C1567 C1566 1.394 . S
C1567 C1568 1.383 . S
C1567 H1575 0.929 . S
C1568 C1567 1.383 . S
C1568 C1569 1.377 . S
C1569 H1553 0.930 . S
C1569 C1568 1.377 . S
C1569 C1570 1.379 . S
C1570 H1554 0.931 . S
C1570 C1564 1.383 . S
C1570 C1569 1.379 . S
H1571 C1565 0.959 . S
H1572 C1565 0.961 . S
H1573 C1565 0.960 . S
H1574 C1566 0.930 . S
H1575 C1567 0.929 . S
H1576 C1584 0.929 . S
H1577 C1586 0.930 . S
H1578 C1588 0.930 . S
H1579 C1591 0.929 . S
H1580 C1594 0.930 . S
H1581 C1596 0.960 . S
H1582 C1596 0.960 . S
H1583 C1596 0.960 . S
C1584 H1576 0.929 . S
C1584 C1585 1.377 . S
C1584 C1586 1.384 . S
C1585 C1584 1.377 . S
C1585 C1591 1.390 . S
C1586 H1577 0.930 . S
C1586 C1584 1.384 . S
C1586 C1587 1.372 . S
C1587 C1586 1.372 . S
C1587 C1588 1.400 . S
C1587 C1592 1.490 . S
C1588 H1578 0.930 . S
C1588 C1587 1.400 . S
C1588 C1591 1.386 . S
H1589 C1605 0.930 . S
H1590 C1606 0.931 . S
C1591 H1579 0.929 . S
C1591 C1585 1.390 . S
C1591 C1588 1.386 . S
C1592 C1587 1.490 . S
C1592 C1594 1.395 . S
C1592 C1595 1.403 . S
H1593 C1599 0.930 . S
C1594 H1580 0.930 . S
C1594 C1592 1.395 . S
C1594 C1597 1.403 . S
C1595 C1592 1.403 . S
C1595 C1596 1.524 . S
C1595 C1599 1.400 . S
C1596 H1581 0.960 . S
C1596 H1582 0.960 . S
C1596 H1583 0.960 . S
C1596 C1595 1.524 . S
C1597 C1594 1.403 . S
C1597 C1598 1.392 . S
C1597 C1601 1.495 . S
C1598 C1597 1.392 . S
C1598 C1599 1.385 . S
C1598 C1600 1.478 . S
C1599 H1593 0.930 . S
C1599 C1595 1.400 . S
C1599 C1598 1.385 . S
C1600 C1598 1.478 . S
C1600 C1602 1.381 . S
C1600 C1606 1.383 . S
C1601 C1597 1.495 . S
C1601 H1607 0.959 . S
C1601 H1608 0.961 . S
C1601 H1609 0.960 . S
C1602 C1600 1.381 . S
C1602 C1603 1.394 . S
C1602 H1610 0.930 . S
C1603 C1602 1.394 . S
C1603 C1604 1.383 . S
C1603 H1611 0.929 . S
C1604 C1603 1.383 . S
C1604 C1605 1.377 . S
C1605 H1589 0.930 . S
C1605 C1604 1.377 . S
C1605 C1606 1.379 . S
C1606 H1590 0.931 . S
C1606 C1600 1.383 . S
C1606 C1605 1.379 . S
H1607 C1601 0.959 . S
H1608 C1601 0.961 . S
H1609 C1601 0.960 . S
H1610 C1602 0.930 . S
H1611 C1603 0.929 . S
H1612 C1620 0.929 . S
H1613 C1622 0.930 . S
H1614 C1624 0.930 . S
H1615 C1627 0.929 . S
H1616 C1630 0.930 . S
H1617 C1632 0.960 . S
H1618 C1632 0.960 . S
H1619 C1632 0.960 . S
C1620 H1612 0.929 . S
C1620 C1621 1.377 . S
C1620 C1622 1.384 . S
C1621 C1620 1.377 . S
C1621 C1627 1.390 . S
C1622 H1613 0.930 . S
C1622 C1620 1.384 . S
C1622 C1623 1.372 . S
C1623 C1622 1.372 . S
C1623 C1624 1.400 . S
C1623 C1628 1.490 . S
C1624 H1614 0.930 . S
C1624 C1623 1.400 . S
C1624 C1627 1.386 . S
H1625 C1641 0.930 . S
H1626 C1642 0.931 . S
C1627 H1615 0.929 . S
C1627 C1621 1.390 . S
C1627 C1624 1.386 . S
C1628 C1623 1.490 . S
C1628 C1630 1.395 . S
C1628 C1631 1.403 . S
H1629 C1635 0.930 . S
C1630 H1616 0.930 . S
C1630 C1628 1.395 . S
C1630 C1633 1.403 . S
C1631 C1628 1.403 . S
C1631 C1632 1.524 . S
C1631 C1635 1.400 . S
C1632 H1617 0.960 . S
C1632 H1618 0.960 . S
C1632 H1619 0.960 . S
C1632 C1631 1.524 . S
C1633 C1630 1.403 . S
C1633 C1634 1.392 . S
C1633 C1637 1.495 . S
C1634 C1633 1.392 . S
C1634 C1635 1.385 . S
C1634 C1636 1.478 . S
C1635 H1629 0.930 . S
C1635 C1631 1.400 . S
C1635 C1634 1.385 . S
C1636 C1634 1.478 . S
C1636 C1638 1.381 . S
C1636 C1642 1.383 . S
C1637 C1633 1.495 . S
C1637 H1643 0.959 . S
C1637 H1644 0.961 . S
C1637 H1645 0.960 . S
C1638 C1636 1.381 . S
C1638 C1639 1.394 . S
C1638 H1646 0.930 . S
C1639 C1638 1.394 . S
C1639 C1640 1.383 . S
C1639 H1647 0.929 . S
C1640 C1639 1.383 . S
C1640 C1641 1.377 . S
C1641 H1625 0.930 . S
C1641 C1640 1.377 . S
C1641 C1642 1.379 . S
C1642 H1626 0.931 . S
C1642 C1636 1.383 . S
C1642 C1641 1.379 . S
H1643 C1637 0.959 . S
H1644 C1637 0.961 . S
H1645 C1637 0.960 . S
H1646 C1638 0.930 . S
H1647 C1639 0.929 . S
H1648 C1656 0.929 . S
H1649 C1658 0.930 . S
H1650 C1660 0.930 . S
H1651 C1663 0.929 . S
H1652 C1666 0.930 . S
H1653 C1668 0.960 . S
H1654 C1668 0.960 . S
H1655 C1668 0.960 . S
C1656 H1648 0.929 . S
C1656 C1657 1.377 . S
C1656 C1658 1.384 . S
C1657 C1656 1.377 . S
C1657 C1663 1.390 . S
C1658 H1649 0.930 . S
C1658 C1656 1.384 . S
C1658 C1659 1.372 . S
C1659 C1658 1.372 . S
C1659 C1660 1.400 . S
C1659 C1664 1.490 . S
C1660 H1650 0.930 . S
C1660 C1659 1.400 . S
C1660 C1663 1.386 . S
H1661 C1677 0.930 . S
H1662 C1678 0.931 . S
C1663 H1651 0.929 . S
C1663 C1657 1.390 . S
C1663 C1660 1.386 . S
C1664 C1659 1.490 . S
C1664 C1666 1.395 . S
C1664 C1667 1.403 . S
H1665 C1671 0.930 . S
C1666 H1652 0.930 . S
C1666 C1664 1.395 . S
C1666 C1669 1.403 . S
C1667 C1664 1.403 . S
C1667 C1668 1.524 . S
C1667 C1671 1.400 . S
C1668 H1653 0.960 . S
C1668 H1654 0.960 . S
C1668 H1655 0.960 . S
C1668 C1667 1.524 . S
C1669 C1666 1.403 . S
C1669 C1670 1.392 . S
C1669 C1673 1.495 . S
C1670 C1669 1.392 . S
C1670 C1671 1.385 . S
C1670 C1672 1.478 . S
C1671 H1665 0.930 . S
C1671 C1667 1.400 . S
C1671 C1670 1.385 . S
C1672 C1670 1.478 . S
C1672 C1674 1.381 . S
C1672 C1678 1.383 . S
C1673 C1669 1.495 . S
C1673 H1679 0.959 . S
C1673 H1680 0.961 . S
C1673 H1681 0.960 . S
C1674 C1672 1.381 . S
C1674 C1675 1.394 . S
C1674 H1682 0.930 . S
C1675 C1674 1.394 . S
C1675 C1676 1.383 . S
C1675 H1683 0.929 . S
C1676 C1675 1.383 . S
C1676 C1677 1.377 . S
C1677 H1661 0.930 . S
C1677 C1676 1.377 . S
C1677 C1678 1.379 . S
C1678 H1662 0.931 . S
C1678 C1672 1.383 . S
C1678 C1677 1.379 . S
H1679 C1673 0.959 . S
H1680 C1673 0.961 . S
H1681 C1673 0.960 . S
H1682 C1674 0.930 . S
H1683 C1675 0.929 . S
H1684 C1692 0.929 . S
H1685 C1694 0.930 . S
H1686 C1696 0.930 . S
H1687 C1699 0.929 . S
H1688 C1702 0.930 . S
H1689 C1704 0.960 . S
H1690 C1704 0.960 . S
H1691 C1704 0.960 . S
C1692 H1684 0.929 . S
C1692 C1693 1.377 . S
C1692 C1694 1.384 . S
C1693 C1692 1.377 . S
C1693 C1699 1.390 . S
C1694 H1685 0.930 . S
C1694 C1692 1.384 . S
C1694 C1695 1.372 . S
C1695 C1694 1.372 . S
C1695 C1696 1.400 . S
C1695 C1700 1.490 . S
C1696 H1686 0.930 . S
C1696 C1695 1.400 . S
C1696 C1699 1.386 . S
H1697 C1713 0.930 . S
H1698 C1714 0.931 . S
C1699 H1687 0.929 . S
C1699 C1693 1.390 . S
C1699 C1696 1.386 . S
C1700 C1695 1.490 . S
C1700 C1702 1.395 . S
C1700 C1703 1.403 . S
H1701 C1707 0.930 . S
C1702 H1688 0.930 . S
C1702 C1700 1.395 . S
C1702 C1705 1.403 . S
C1703 C1700 1.403 . S
C1703 C1704 1.524 . S
C1703 C1707 1.400 . S
C1704 H1689 0.960 . S
C1704 H1690 0.960 . S
C1704 H1691 0.960 . S
C1704 C1703 1.524 . S
C1705 C1702 1.403 . S
C1705 C1706 1.392 . S
C1705 C1709 1.495 . S
C1706 C1705 1.392 . S
C1706 C1707 1.385 . S
C1706 C1708 1.478 . S
C1707 H1701 0.930 . S
C1707 C1703 1.400 . S
C1707 C1706 1.385 . S
C1708 C1706 1.478 . S
C1708 C1710 1.381 . S
C1708 C1714 1.383 . S
C1709 C1705 1.495 . S
C1709 H1715 0.959 . S
C1709 H1716 0.961 . S
C1709 H1717 0.960 . S
C1710 C1708 1.381 . S
C1710 C1711 1.394 . S
C1710 H1718 0.930 . S
C1711 C1710 1.394 . S
C1711 C1712 1.383 . S
C1711 H1719 0.929 . S
C1712 C1711 1.383 . S
C1712 C1713 1.377 . S
C1713 H1697 0.930 . S
C1713 C1712 1.377 . S
C1713 C1714 1.379 . S
C1714 H1698 0.931 . S
C1714 C1708 1.383 . S
C1714 C1713 1.379 . S
H1715 C1709 0.959 . S
H1716 C1709 0.961 . S
H1717 C1709 0.960 . S
H1718 C1710 0.930 . S
H1719 C1711 0.929 . S
H1720 C1728 0.929 . S
H1721 C1730 0.930 . S
H1722 C1732 0.930 . S
H1723 C1735 0.929 . S
H1724 C1738 0.930 . S
H1725 C1740 0.960 . S
H1726 C1740 0.960 . S
H1727 C1740 0.960 . S
C1728 H1720 0.929 . S
C1728 C1729 1.377 . S
C1728 C1730 1.384 . S
C1729 C1728 1.377 . S
C1729 C1735 1.390 . S
C1730 H1721 0.930 . S
C1730 C1728 1.384 . S
C1730 C1731 1.372 . S
C1731 C1730 1.372 . S
C1731 C1732 1.400 . S
C1731 C1736 1.490 . S
C1732 H1722 0.930 . S
C1732 C1731 1.400 . S
C1732 C1735 1.386 . S
H1733 C1749 0.930 . S
H1734 C1750 0.931 . S
C1735 H1723 0.929 . S
C1735 C1729 1.390 . S
C1735 C1732 1.386 . S
C1736 C1731 1.490 . S
C1736 C1738 1.395 . S
C1736 C1739 1.403 . S
H1737 C1743 0.930 . S
C1738 H1724 0.930 . S
C1738 C1736 1.395 . S
C1738 C1741 1.403 . S
C1739 C1736 1.403 . S
C1739 C1740 1.524 . S
C1739 C1743 1.400 . S
C1740 H1725 0.960 . S
C1740 H1726 0.960 . S
C1740 H1727 0.960 . S
C1740 C1739 1.524 . S
C1741 C1738 1.403 . S
C1741 C1742 1.392 . S
C1741 C1745 1.495 . S
C1742 C1741 1.392 . S
C1742 C1743 1.385 . S
C1742 C1744 1.478 . S
C1743 H1737 0.930 . S
C1743 C1739 1.400 . S
C1743 C1742 1.385 . S
C1744 C1742 1.478 . S
C1744 C1746 1.381 . S
C1744 C1750 1.383 . S
C1745 C1741 1.495 . S
C1745 H1751 0.959 . S
C1745 H1752 0.961 . S
C1745 H1753 0.960 . S
C1746 C1744 1.381 . S
C1746 C1747 1.394 . S
C1746 H1754 0.930 . S
C1747 C1746 1.394 . S
C1747 C1748 1.383 . S
C1747 H1755 0.929 . S
C1748 C1747 1.383 . S
C1748 C1749 1.377 . S
C1749 H1733 0.930 . S
C1749 C1748 1.377 . S
C1749 C1750 1.379 . S
C1750 H1734 0.931 . S
C1750 C1744 1.383 . S
C1750 C1749 1.379 . S
H1751 C1745 0.959 . S
H1752 C1745 0.961 . S
H1753 C1745 0.960 . S
H1754 C1746 0.930 . S
H1755 C1747 0.929 . S
H1756 C1764 0.929 . S
H1757 C1766 0.930 . S
H1758 C1768 0.930 . S
H1759 C1771 0.929 . S
H1760 C1774 0.930 . S
H1761 C1776 0.960 . S
H1762 C1776 0.960 . S
H1763 C1776 0.960 . S
C1764 H1756 0.929 . S
C1764 C1765 1.377 . S
C1764 C1766 1.384 . S
C1765 C1764 1.377 . S
C1765 C1771 1.390 . S
C1766 H1757 0.930 . S
C1766 C1764 1.384 . S
C1766 C1767 1.372 . S
C1767 C1766 1.372 . S
C1767 C1768 1.400 . S
C1767 C1772 1.490 . S
C1768 H1758 0.930 . S
C1768 C1767 1.400 . S
C1768 C1771 1.386 . S
H1769 C1785 0.930 . S
H1770 C1786 0.931 . S
C1771 H1759 0.929 . S
C1771 C1765 1.390 . S
C1771 C1768 1.386 . S
C1772 C1767 1.490 . S
C1772 C1774 1.395 . S
C1772 C1775 1.403 . S
H1773 C1779 0.930 . S
C1774 H1760 0.930 . S
C1774 C1772 1.395 . S
C1774 C1777 1.403 . S
C1775 C1772 1.403 . S
C1775 C1776 1.524 . S
C1775 C1779 1.400 . S
C1776 H1761 0.960 . S
C1776 H1762 0.960 . S
C1776 H1763 0.960 . S
C1776 C1775 1.524 . S
C1777 C1774 1.403 . S
C1777 C1778 1.392 . S
C1777 C1781 1.495 . S
C1778 C1777 1.392 . S
C1778 C1779 1.385 . S
C1778 C1780 1.478 . S
C1779 H1773 0.930 . S
C1779 C1775 1.400 . S
C1779 C1778 1.385 . S
C1780 C1778 1.478 . S
C1780 C1782 1.381 . S
C1780 C1786 1.383 . S
C1781 C1777 1.495 . S
C1781 H1787 0.959 . S
C1781 H1788 0.961 . S
C1781 H1789 0.960 . S
C1782 C1780 1.381 . S
C1782 C1783 1.394 . S
C1782 H1790 0.930 . S
C1783 C1782 1.394 . S
C1783 C1784 1.383 . S
C1783 H1791 0.929 . S
C1784 C1783 1.383 . S
C1784 C1785 1.377 . S
C1785 H1769 0.930 . S
C1785 C1784 1.377 . S
C1785 C1786 1.379 . S
C1786 H1770 0.931 . S
C1786 C1780 1.383 . S
C1786 C1785 1.379 . S
H1787 C1781 0.959 . S
H1788 C1781 0.961 . S
H1789 C1781 0.960 . S
H1790 C1782 0.930 . S
H1791 C1783 0.929 . S
H1792 C1800 0.929 . S
H1793 C1802 0.930 . S
H1794 C1804 0.930 . S
H1795 C1807 0.929 . S
H1796 C1810 0.930 . S
H1797 C1812 0.960 . S
H1798 C1812 0.960 . S
H1799 C1812 0.960 . S
C1800 H1792 0.929 . S
C1800 C1801 1.377 . S
C1800 C1802 1.384 . S
C1801 C1800 1.377 . S
C1801 C1807 1.390 . S
C1802 H1793 0.930 . S
C1802 C1800 1.384 . S
C1802 C1803 1.372 . S
C1803 C1802 1.372 . S
C1803 C1804 1.400 . S
C1803 C1808 1.490 . S
C1804 H1794 0.930 . S
C1804 C1803 1.400 . S
C1804 C1807 1.386 . S
H1805 C1821 0.930 . S
H1806 C1822 0.931 . S
C1807 H1795 0.929 . S
C1807 C1801 1.390 . S
C1807 C1804 1.386 . S
C1808 C1803 1.490 . S
C1808 C1810 1.395 . S
C1808 C1811 1.403 . S
H1809 C1815 0.930 . S
C1810 H1796 0.930 . S
C1810 C1808 1.395 . S
C1810 C1813 1.403 . S
C1811 C1808 1.403 . S
C1811 C1812 1.524 . S
C1811 C1815 1.400 . S
C1812 H1797 0.960 . S
C1812 H1798 0.960 . S
C1812 H1799 0.960 . S
C1812 C1811 1.524 . S
C1813 C1810 1.403 . S
C1813 C1814 1.392 . S
C1813 C1817 1.495 . S
C1814 C1813 1.392 . S
C1814 C1815 1.385 . S
C1814 C1816 1.478 . S
C1815 H1809 0.930 . S
C1815 C1811 1.400 . S
C1815 C1814 1.385 . S
C1816 C1814 1.478 . S
C1816 C1818 1.381 . S
C1816 C1822 1.383 . S
C1817 C1813 1.495 . S
C1817 H1823 0.959 . S
C1817 H1824 0.961 . S
C1817 H1825 0.960 . S
C1818 C1816 1.381 . S
C1818 C1819 1.394 . S
C1818 H1826 0.930 . S
C1819 C1818 1.394 . S
C1819 C1820 1.383 . S
C1819 H1827 0.929 . S
C1820 C1819 1.383 . S
C1820 C1821 1.377 . S
C1821 H1805 0.930 . S
C1821 C1820 1.377 . S
C1821 C1822 1.379 . S
C1822 H1806 0.931 . S
C1822 C1816 1.383 . S
C1822 C1821 1.379 . S
H1823 C1817 0.959 . S
H1824 C1817 0.961 . S
H1825 C1817 0.960 . S
H1826 C1818 0.930 . S
H1827 C1819 0.929 . S
H1828 C1836 0.929 . S
H1829 C1838 0.930 . S
H1830 C1840 0.930 . S
H1831 C1843 0.929 . S
H1832 C1846 0.930 . S
H1833 C1848 0.960 . S
H1834 C1848 0.960 . S
H1835 C1848 0.960 . S
C1836 H1828 0.929 . S
C1836 C1837 1.377 . S
C1836 C1838 1.384 . S
C1837 C1836 1.377 . S
C1837 C1843 1.390 . S
C1838 H1829 0.930 . S
C1838 C1836 1.384 . S
C1838 C1839 1.372 . S
C1839 C1838 1.372 . S
C1839 C1840 1.400 . S
C1839 C1844 1.490 . S
C1840 H1830 0.930 . S
C1840 C1839 1.400 . S
C1840 C1843 1.386 . S
H1841 C1857 0.930 . S
H1842 C1858 0.931 . S
C1843 H1831 0.929 . S
C1843 C1837 1.390 . S
C1843 C1840 1.386 . S
C1844 C1839 1.490 . S
C1844 C1846 1.395 . S
C1844 C1847 1.403 . S
H1845 C1851 0.930 . S
C1846 H1832 0.930 . S
C1846 C1844 1.395 . S
C1846 C1849 1.403 . S
C1847 C1844 1.403 . S
C1847 C1848 1.524 . S
C1847 C1851 1.400 . S
C1848 H1833 0.960 . S
C1848 H1834 0.960 . S
C1848 H1835 0.960 . S
C1848 C1847 1.524 . S
C1849 C1846 1.403 . S
C1849 C1850 1.392 . S
C1849 C1853 1.495 . S
C1850 C1849 1.392 . S
C1850 C1851 1.385 . S
C1850 C1852 1.478 . S
C1851 H1845 0.930 . S
C1851 C1847 1.400 . S
C1851 C1850 1.385 . S
C1852 C1850 1.478 . S
C1852 C1854 1.381 . S
C1852 C1858 1.383 . S
C1853 C1849 1.495 . S
C1853 H1859 0.959 . S
C1853 H1860 0.961 . S
C1853 H1861 0.960 . S
C1854 C1852 1.381 . S
C1854 C1855 1.394 . S
C1854 H1862 0.930 . S
C1855 C1854 1.394 . S
C1855 C1856 1.383 . S
C1855 H1863 0.929 . S
C1856 C1855 1.383 . S
C1856 C1857 1.377 . S
C1857 H1841 0.930 . S
C1857 C1856 1.377 . S
C1857 C1858 1.379 . S
C1858 H1842 0.931 . S
C1858 C1852 1.383 . S
C1858 C1857 1.379 . S
H1859 C1853 0.959 . S
H1860 C1853 0.961 . S
H1861 C1853 0.960 . S
H1862 C1854 0.930 . S
H1863 C1855 0.929 . S
H1864 C1872 0.929 . S
H1865 C1874 0.930 . S
H1866 C1876 0.930 . S
H1867 C1879 0.929 . S
H1868 C1882 0.930 . S
H1869 C1884 0.960 . S
H1870 C1884 0.960 . S
H1871 C1884 0.960 . S
C1872 H1864 0.929 . S
C1872 C1873 1.377 . S
C1872 C1874 1.384 . S
C1873 C1872 1.377 . S
C1873 C1879 1.390 . S
C1874 H1865 0.930 . S
C1874 C1872 1.384 . S
C1874 C1875 1.372 . S
C1875 C1874 1.372 . S
C1875 C1876 1.400 . S
C1875 C1880 1.490 . S
C1876 H1866 0.930 . S
C1876 C1875 1.400 . S
C1876 C1879 1.386 . S
H1877 C1893 0.930 . S
H1878 C1894 0.931 . S
C1879 H1867 0.929 . S
C1879 C1873 1.390 . S
C1879 C1876 1.386 . S
C1880 C1875 1.490 . S
C1880 C1882 1.395 . S
C1880 C1883 1.403 . S
H1881 C1887 0.930 . S
C1882 H1868 0.930 . S
C1882 C1880 1.395 . S
C1882 C1885 1.403 . S
C1883 C1880 1.403 . S
C1883 C1884 1.524 . S
C1883 C1887 1.400 . S
C1884 H1869 0.960 . S
C1884 H1870 0.960 . S
C1884 H1871 0.960 . S
C1884 C1883 1.524 . S
C1885 C1882 1.403 . S
C1885 C1886 1.392 . S
C1885 C1889 1.495 . S
C1886 C1885 1.392 . S
C1886 C1887 1.385 . S
C1886 C1888 1.478 . S
C1887 H1881 0.930 . S
C1887 C1883 1.400 . S
C1887 C1886 1.385 . S
C1888 C1886 1.478 . S
C1888 C1890 1.381 . S
C1888 C1894 1.383 . S
C1889 C1885 1.495 . S
C1889 H1895 0.959 . S
C1889 H1896 0.961 . S
C1889 H1897 0.960 . S
C1890 C1888 1.381 . S
C1890 C1891 1.394 . S
C1890 H1898 0.930 . S
C1891 C1890 1.394 . S
C1891 C1892 1.383 . S
C1891 H1899 0.929 . S
C1892 C1891 1.383 . S
C1892 C1893 1.377 . S
C1893 H1877 0.930 . S
C1893 C1892 1.377 . S
C1893 C1894 1.379 . S
C1894 H1878 0.931 . S
C1894 C1888 1.383 . S
C1894 C1893 1.379 . S
H1895 C1889 0.959 . S
H1896 C1889 0.961 . S
H1897 C1889 0.960 . S
H1898 C1890 0.930 . S
H1899 C1891 0.929 . S
H1900 C1908 0.929 . S
H1901 C1910 0.930 . S
H1902 C1912 0.930 . S
H1903 C1915 0.929 . S
H1904 C1918 0.930 . S
H1905 C1920 0.960 . S
H1906 C1920 0.960 . S
H1907 C1920 0.960 . S
C1908 H1900 0.929 . S
C1908 C1909 1.377 . S
C1908 C1910 1.384 . S
C1909 C1908 1.377 . S
C1909 C1915 1.390 . S
C1910 H1901 0.930 . S
C1910 C1908 1.384 . S
C1910 C1911 1.372 . S
C1911 C1910 1.372 . S
C1911 C1912 1.400 . S
C1911 C1916 1.490 . S
C1912 H1902 0.930 . S
C1912 C1911 1.400 . S
C1912 C1915 1.386 . S
H1913 C1929 0.930 . S
H1914 C1930 0.931 . S
C1915 H1903 0.929 . S
C1915 C1909 1.390 . S
C1915 C1912 1.386 . S
C1916 C1911 1.490 . S
C1916 C1918 1.395 . S
C1916 C1919 1.403 . S
H1917 C1923 0.930 . S
C1918 H1904 0.930 . S
C1918 C1916 1.395 . S
C1918 C1921 1.403 . S
C1919 C1916 1.403 . S
C1919 C1920 1.524 . S
C1919 C1923 1.400 . S
C1920 H1905 0.960 . S
C1920 H1906 0.960 . S
C1920 H1907 0.960 . S
C1920 C1919 1.524 . S
C1921 C1918 1.403 . S
C1921 C1922 1.392 . S
C1921 C1925 1.495 . S
C1922 C1921 1.392 . S
C1922 C1923 1.385 . S
C1922 C1924 1.478 . S
C1923 H1917 0.930 . S
C1923 C1919 1.400 . S
C1923 C1922 1.385 . S
C1924 C1922 1.478 . S
C1924 C1926 1.381 . S
C1924 C1930 1.383 . S
C1925 C1921 1.495 . S
C1925 H1931 0.959 . S
C1925 H1932 0.961 . S
C1925 H1933 0.960 . S
C1926 C1924 1.381 . S
C1926 C1927 1.394 . S
C1926 H1934 0.930 . S
C1927 C1926 1.394 . S
C1927 C1928 1.383 . S
C1927 H1935 0.929 . S
C1928 C1927 1.383 . S
C1928 C1929 1.377 . S
C1929 H1913 0.930 . S
C1929 C1928 1.377 . S
C1929 C1930 1.379 . S
C1930 H1914 0.931 . S
C1930 C1924 1.383 . S
C1930 C1929 1.379 . S
H1931 C1925 0.959 . S
H1932 C1925 0.961 . S
H1933 C1925 0.960 . S
H1934 C1926 0.930 . S
H1935 C1927 0.929 . S
H1936 C1944 0.929 . S
H1937 C1946 0.930 . S
H1938 C1948 0.930 . S
H1939 C1951 0.929 . S
H1940 C1954 0.930 . S
H1941 C1956 0.960 . S
H1942 C1956 0.960 . S
H1943 C1956 0.960 . S
C1944 H1936 0.929 . S
C1944 C1945 1.377 . S
C1944 C1946 1.384 . S
C1945 C1944 1.377 . S
C1945 C1951 1.390 . S
C1946 H1937 0.930 . S
C1946 C1944 1.384 . S
C1946 C1947 1.372 . S
C1947 C1946 1.372 . S
C1947 C1948 1.400 . S
C1947 C1952 1.490 . S
C1948 H1938 0.930 . S
C1948 C1947 1.400 . S
C1948 C1951 1.386 . S
H1949 C1965 0.930 . S
H1950 C1966 0.931 . S
C1951 H1939 0.929 . S
C1951 C1945 1.390 . S
C1951 C1948 1.386 . S
C1952 C1947 1.490 . S
C1952 C1954 1.395 . S
C1952 C1955 1.403 . S
H1953 C1959 0.930 . S
C1954 H1940 0.930 . S
C1954 C1952 1.395 . S
C1954 C1957 1.403 . S
C1955 C1952 1.403 . S
C1955 C1956 1.524 . S
C1955 C1959 1.400 . S
C1956 H1941 0.960 . S
C1956 H1942 0.960 . S
C1956 H1943 0.960 . S
C1956 C1955 1.524 . S
C1957 C1954 1.403 . S
C1957 C1958 1.392 . S
C1957 C1961 1.495 . S
C1958 C1957 1.392 . S
C1958 C1959 1.385 . S
C1958 C1960 1.478 . S
C1959 H1953 0.930 . S
C1959 C1955 1.400 . S
C1959 C1958 1.385 . S
C1960 C1958 1.478 . S
C1960 C1962 1.381 . S
C1960 C1966 1.383 . S
C1961 C1957 1.495 . S
C1961 H1967 0.959 . S
C1961 H1968 0.961 . S
C1961 H1969 0.960 . S
C1962 C1960 1.381 . S
C1962 C1963 1.394 . S
C1962 H1970 0.930 . S
C1963 C1962 1.394 . S
C1963 C1964 1.383 . S
C1963 H1971 0.929 . S
C1964 C1963 1.383 . S
C1964 C1965 1.377 . S
C1965 H1949 0.930 . S
C1965 C1964 1.377 . S
C1965 C1966 1.379 . S
C1966 H1950 0.931 . S
C1966 C1960 1.383 . S
C1966 C1965 1.379 . S
H1967 C1961 0.959 . S
H1968 C1961 0.961 . S
H1969 C1961 0.960 . S
H1970 C1962 0.930 . S
H1971 C1963 0.929 . S
H1972 C1980 0.929 . S
H1973 C1982 0.930 . S
H1974 C1984 0.930 . S
H1975 C1987 0.929 . S
H1976 C1990 0.930 . S
H1977 C1992 0.960 . S
H1978 C1992 0.960 . S
H1979 C1992 0.960 . S
C1980 H1972 0.929 . S
C1980 C1981 1.377 . S
C1980 C1982 1.384 . S
C1981 C1980 1.377 . S
C1981 C1987 1.390 . S
C1982 H1973 0.930 . S
C1982 C1980 1.384 . S
C1982 C1983 1.372 . S
C1983 C1982 1.372 . S
C1983 C1984 1.400 . S
C1983 C1988 1.490 . S
C1984 H1974 0.930 . S
C1984 C1983 1.400 . S
C1984 C1987 1.386 . S
H1985 C2001 0.930 . S
H1986 C2002 0.931 . S
C1987 H1975 0.929 . S
C1987 C1981 1.390 . S
C1987 C1984 1.386 . S
C1988 C1983 1.490 . S
C1988 C1990 1.395 . S
C1988 C1991 1.403 . S
H1989 C1995 0.930 . S
C1990 H1976 0.930 . S
C1990 C1988 1.395 . S
C1990 C1993 1.403 . S
C1991 C1988 1.403 . S
C1991 C1992 1.524 . S
C1991 C1995 1.400 . S
C1992 H1977 0.960 . S
C1992 H1978 0.960 . S
C1992 H1979 0.960 . S
C1992 C1991 1.524 . S
C1993 C1990 1.403 . S
C1993 C1994 1.392 . S
C1993 C1997 1.495 . S
C1994 C1993 1.392 . S
C1994 C1995 1.385 . S
C1994 C1996 1.478 . S
C1995 H1989 0.930 . S
C1995 C1991 1.400 . S
C1995 C1994 1.385 . S
C1996 C1994 1.478 . S
C1996 C1998 1.381 . S
C1996 C2002 1.383 . S
C1997 C1993 1.495 . S
C1997 H2003 0.959 . S
C1997 H2004 0.961 . S
C1997 H2005 0.960 . S
C1998 C1996 1.381 . S
C1998 C1999 1.394 . S
C1998 H2006 0.930 . S
C1999 C1998 1.394 . S
C1999 C2000 1.383 . S
C1999 H2007 0.929 . S
C2000 C1999 1.383 . S
C2000 C2001 1.377 . S
C2001 H1985 0.930 . S
C2001 C2000 1.377 . S
C2001 C2002 1.379 . S
C2002 H1986 0.931 . S
C2002 C1996 1.383 . S
C2002 C2001 1.379 . S
H2003 C1997 0.959 . S
H2004 C1997 0.961 . S
H2005 C1997 0.960 . S
H2006 C1998 0.930 . S
H2007 C1999 0.929 . S
H2008 C2016 0.929 . S
H2009 C2018 0.930 . S
H2010 C2020 0.930 . S
H2011 C2023 0.929 . S
H2012 C2026 0.930 . S
H2013 C2028 0.960 . S
H2014 C2028 0.960 . S
H2015 C2028 0.960 . S
C2016 H2008 0.929 . S
C2016 C2017 1.377 . S
C2016 C2018 1.384 . S
C2017 C2016 1.377 . S
C2017 C2023 1.390 . S
C2018 H2009 0.930 . S
C2018 C2016 1.384 . S
C2018 C2019 1.372 . S
C2019 C2018 1.372 . S
C2019 C2020 1.400 . S
C2019 C2024 1.490 . S
C2020 H2010 0.930 . S
C2020 C2019 1.400 . S
C2020 C2023 1.386 . S
H2021 C2037 0.930 . S
H2022 C2038 0.931 . S
C2023 H2011 0.929 . S
C2023 C2017 1.390 . S
C2023 C2020 1.386 . S
C2024 C2019 1.490 . S
C2024 C2026 1.395 . S
C2024 C2027 1.403 . S
H2025 C2031 0.930 . S
C2026 H2012 0.930 . S
C2026 C2024 1.395 . S
C2026 C2029 1.403 . S
C2027 C2024 1.403 . S
C2027 C2028 1.524 . S
C2027 C2031 1.400 . S
C2028 H2013 0.960 . S
C2028 H2014 0.960 . S
C2028 H2015 0.960 . S
C2028 C2027 1.524 . S
C2029 C2026 1.403 . S
C2029 C2030 1.392 . S
C2029 C2033 1.495 . S
C2030 C2029 1.392 . S
C2030 C2031 1.385 . S
C2030 C2032 1.478 . S
C2031 H2025 0.930 . S
C2031 C2027 1.400 . S
C2031 C2030 1.385 . S
C2032 C2030 1.478 . S
C2032 C2034 1.381 . S
C2032 C2038 1.383 . S
C2033 C2029 1.495 . S
C2033 H2039 0.959 . S
C2033 H2040 0.961 . S
C2033 H2041 0.960 . S
C2034 C2032 1.381 . S
C2034 C2035 1.394 . S
C2034 H2042 0.930 . S
C2035 C2034 1.394 . S
C2035 C2036 1.383 . S
C2035 H2043 0.929 . S
C2036 C2035 1.383 . S
C2036 C2037 1.377 . S
C2037 H2021 0.930 . S
C2037 C2036 1.377 . S
C2037 C2038 1.379 . S
C2038 H2022 0.931 . S
C2038 C2032 1.383 . S
C2038 C2037 1.379 . S
H2039 C2033 0.959 . S
H2040 C2033 0.961 . S
H2041 C2033 0.960 . S
H2042 C2034 0.930 . S
H2043 C2035 0.929 . S
H2044 C2052 0.929 . S
H2045 C2054 0.930 . S
H2046 C2056 0.930 . S
H2047 C2059 0.929 . S
H2048 C2062 0.930 . S
H2049 C2064 0.960 . S
H2050 C2064 0.960 . S
H2051 C2064 0.960 . S
C2052 H2044 0.929 . S
C2052 C2053 1.377 . S
C2052 C2054 1.384 . S
C2053 C2052 1.377 . S
C2053 C2059 1.390 . S
C2054 H2045 0.930 . S
C2054 C2052 1.384 . S
C2054 C2055 1.372 . S
C2055 C2054 1.372 . S
C2055 C2056 1.400 . S
C2055 C2060 1.490 . S
C2056 H2046 0.930 . S
C2056 C2055 1.400 . S
C2056 C2059 1.386 . S
H2057 C2073 0.930 . S
H2058 C2074 0.931 . S
C2059 H2047 0.929 . S
C2059 C2053 1.390 . S
C2059 C2056 1.386 . S
C2060 C2055 1.490 . S
C2060 C2062 1.395 . S
C2060 C2063 1.403 . S
H2061 C2067 0.930 . S
C2062 H2048 0.930 . S
C2062 C2060 1.395 . S
C2062 C2065 1.403 . S
C2063 C2060 1.403 . S
C2063 C2064 1.524 . S
C2063 C2067 1.400 . S
C2064 H2049 0.960 . S
C2064 H2050 0.960 . S
C2064 H2051 0.960 . S
C2064 C2063 1.524 . S
C2065 C2062 1.403 . S
C2065 C2066 1.392 . S
C2065 C2069 1.495 . S
C2066 C2065 1.392 . S
C2066 C2067 1.385 . S
C2066 C2068 1.478 . S
C2067 H2061 0.930 . S
C2067 C2063 1.400 . S
C2067 C2066 1.385 . S
C2068 C2066 1.478 . S
C2068 C2070 1.381 . S
C2068 C2074 1.383 . S
C2069 C2065 1.495 . S
C2069 H2075 0.959 . S
C2069 H2076 0.961 . S
C2069 H2077 0.960 . S
C2070 C2068 1.381 . S
C2070 C2071 1.394 . S
C2070 H2078 0.930 . S
C2071 C2070 1.394 . S
C2071 C2072 1.383 . S
C2071 H2079 0.929 . S
C2072 C2071 1.383 . S
C2072 C2073 1.377 . S
C2073 H2057 0.930 . S
C2073 C2072 1.377 . S
C2073 C2074 1.379 . S
C2074 H2058 0.931 . S
C2074 C2068 1.383 . S
C2074 C2073 1.379 . S
H2075 C2069 0.959 . S
H2076 C2069 0.961 . S
H2077 C2069 0.960 . S
H2078 C2070 0.930 . S
H2079 C2071 0.929 . S
C361 C6 1.251 . S
C380 C250 1.257 . S
C397 C31 1.256 . S
C416 C180 1.279 . S
C433 C206 1.270 . S
C452 C50 1.232 . S
C469 C224 1.270 . S
C488 C75 1.278 . S
C505 C95 1.251 . S
C524 C290 1.256 . S
C541 C115 1.253 . S
C560 C316 1.284 . S
C577 C334 1.269 . S
C596 C139 1.227 . S
C613 C272 1.269 . S
C632 C159 1.268 . S
C649 C182 1.258 . S
C668 C74 1.283 . S
C685 C4 1.272 . S
C704 C207 1.234 . S
C721 C30 1.272 . S
C740 C226 1.247 . S
C757 C251 1.259 . S
C776 C48 1.265 . S
C793 C271 1.252 . S
C812 C114 1.258 . S
C829 C140 1.276 . S
C848 C291 1.235 . S
C865 C158 1.274 . S
C884 C315 1.266 . S
C901 C96 1.269 . S
C920 C335 1.270 . S
C937 C93 0.689 . S
C956 C9 0.670 . S
C973 C28 0.696 . S
C992 C117 0.745 . S
C1009 C137 0.718 . S
C1028 C53 0.752 . S
C1045 C161 0.696 . S
C1064 C72 0.745 . S
C1081 C269 0.694 . S
C1100 C185 0.635 . S
C1117 C204 0.698 . S
C1136 C293 0.733 . S
C1153 C229 0.718 . S
C1172 C313 0.748 . S
C1189 C337 0.709 . S
C1208 C248 0.683 . S
C1225 C5 1.661 . S
C1244 C294 1.626 . S
C1261 C312 1.648 . S
C1280 C29 1.665 . S
C1297 C338 1.646 . S
C1316 C49 1.659 . S
C1333 C268 1.648 . S
C1352 C73 1.649 . S
C1369 C97 1.663 . S
C1388 C246 1.645 . S
C1405 C116 1.661 . S
C1424 C184 1.640 . S
C1441 C141 1.661 . S
C1460 C202 1.626 . S
C1477 C228 1.649 . S
C1496 C160 1.652 . S
C1513 C118 1.643 . S
C1532 C181 1.651 . S
C1549 C136 1.649 . S
C1568 C205 1.659 . S
C1585 C225 1.662 . S
C1604 C162 1.636 . S
C1621 C92 1.643 . S
C1640 C249 1.669 . S
C1657 C70 1.649 . S
C1676 C273 1.667 . S
C1693 C292 1.665 . S
C1712 C8 1.640 . S
C1729 C26 1.644 . S
C1748 C317 1.654 . S
C1765 C336 1.661 . S
C1784 C52 1.648 . S
C1801 C163 1.120 . S
C1820 C7 1.132 . S
C1837 C94 1.133 . S
C1856 C27 1.098 . S
C1873 C119 1.127 . S
C1892 C51 1.153 . S
C1909 C138 1.127 . S
C1928 C71 1.153 . S
C1945 C183 1.122 . S
C1964 C339 1.157 . S
C1981 C270 1.134 . S
C2000 C203 1.112 . S
C2017 C295 1.132 . S
C2036 C227 1.135 . S
C2053 C247 1.126 . S
C2072 C314 1.096 . S
