# Generated by pormake.
# Topology uof, (4)-cn, num edge types: 1
# Building blocks:
#     Node 0, Type 0, BuildingBlock: TATPOV_clean_sbu_0, # of connection points: 4
#     Node 1, Type 0, BuildingBlock: TATPOV_clean_sbu_0, # of connection points: 4
#     Node 2, Type 0, BuildingBlock: TATPOV_clean_sbu_0, # of connection points: 4
#     Node 3, Type 0, BuildingBlock: TATPOV_clean_sbu_0, # of connection points: 4
#     Node 4, Type 0, BuildingBlock: TATPOV_clean_sbu_0, # of connection points: 4
#     Node 5, Type 0, BuildingBlock: TATPOV_clean_sbu_0, # of connection points: 4
#     Node 6, Type 0, BuildingBlock: TATPOV_clean_sbu_0, # of connection points: 4
#     Node 7, Type 0, BuildingBlock: TATPOV_clean_sbu_0, # of connection points: 4
#     Node 8, Type 0, BuildingBlock: TATPOV_clean_sbu_0, # of connection points: 4
#     Node 9, Type 0, BuildingBlock: TATPOV_clean_sbu_0, # of connection points: 4
#     Node 10, Type 0, BuildingBlock: TATPOV_clean_sbu_0, # of connection points: 4
#     Node 11, Type 0, BuildingBlock: TATPOV_clean_sbu_0, # of connection points: 4
#     Edge 12, Type (0, 0), BuildingBlock: XUDNAN_clean_linker_2, # of connection points: 2
#     Edge 13, Type (0, 0), BuildingBlock: XUDNAN_clean_linker_2, # of connection points: 2
#     Edge 14, Type (0, 0), BuildingBlock: XUDNAN_clean_linker_2, # of connection points: 2
#     Edge 15, Type (0, 0), BuildingBlock: XUDNAN_clean_linker_2, # of connection points: 2
#     Edge 16, Type (0, 0), BuildingBlock: XUDNAN_clean_linker_2, # of connection points: 2
#     Edge 17, Type (0, 0), BuildingBlock: XUDNAN_clean_linker_2, # of connection points: 2
#     Edge 18, Type (0, 0), BuildingBlock: XUDNAN_clean_linker_2, # of connection points: 2
#     Edge 19, Type (0, 0), BuildingBlock: XUDNAN_clean_linker_2, # of connection points: 2
#     Edge 20, Type (0, 0), BuildingBlock: XUDNAN_clean_linker_2, # of connection points: 2
#     Edge 21, Type (0, 0), BuildingBlock: XUDNAN_clean_linker_2, # of connection points: 2
#     Edge 22, Type (0, 0), BuildingBlock: XUDNAN_clean_linker_2, # of connection points: 2
#     Edge 23, Type (0, 0), BuildingBlock: XUDNAN_clean_linker_2, # of connection points: 2
#     Edge 24, Type (0, 0), BuildingBlock: XUDNAN_clean_linker_2, # of connection points: 2
#     Edge 25, Type (0, 0), BuildingBlock: XUDNAN_clean_linker_2, # of connection points: 2
#     Edge 26, Type (0, 0), BuildingBlock: XUDNAN_clean_linker_2, # of connection points: 2
#     Edge 27, Type (0, 0), BuildingBlock: XUDNAN_clean_linker_2, # of connection points: 2
#     Edge 28, Type (0, 0), BuildingBlock: XUDNAN_clean_linker_2, # of connection points: 2
#     Edge 29, Type (0, 0), BuildingBlock: XUDNAN_clean_linker_2, # of connection points: 2
#     Edge 30, Type (0, 0), BuildingBlock: XUDNAN_clean_linker_2, # of connection points: 2
#     Edge 31, Type (0, 0), BuildingBlock: XUDNAN_clean_linker_2, # of connection points: 2
#     Edge 32, Type (0, 0), BuildingBlock: XUDNAN_clean_linker_2, # of connection points: 2
#     Edge 33, Type (0, 0), BuildingBlock: XUDNAN_clean_linker_2, # of connection points: 2
#     Edge 34, Type (0, 0), BuildingBlock: XUDNAN_clean_linker_2, # of connection points: 2
#     Edge 35, Type (0, 0), BuildingBlock: XUDNAN_clean_linker_2, # of connection points: 2
# Relax obj value: 0.218
# Max RMSD: 0.181
# Mean RMSD: 0.181
data_MOF--net-uof--node1-TATPOV_clean_sbu_0--edge1-XUDNAN_clean_linker_2
_symmetry_space_group_name_H-M    P1
_symmetry_Int_Tables_number       1
_symmetry_cell_setting            triclinic
loop_
_symmetry_equiv_pos_as_xyz
'x, y, z'
_cell_length_a     31.160919
_cell_length_b     31.160504
_cell_length_c     64.582931
_cell_angle_alpha  90.02606
_cell_angle_beta   90.005994
_cell_angle_gamma 119.83224
loop_
_atom_site_label
_atom_site_type_symbol
_atom_site_fract_x
_atom_site_fract_y
_atom_site_fract_z
_atom_type_partial_charge
Zn0 Zn 0.2379 0.34433 0.19679 0.0
Zn1 Zn 0.20834 0.32215 0.23603 0.0
O2 O 0.15349 0.33475 0.22303 0.0
O3 O 0.18342 0.35811 0.19152 0.0
O4 O 0.19328 0.30338 0.26658 0.0
O5 O 0.30334 0.39881 0.20574 0.0
O6 O 0.27933 0.3821 0.2382 0.0
C7 C 0.15066 0.34999 0.20492 0.0
C8 C 0.2163 0.24775 0.20654 0.0
O9 O 0.20831 0.26102 0.22411 0.0
O10 O 0.22868 0.27687 0.19126 0.0
C11 C 0.16949 0.25842 0.27246 0.0
O12 O 0.14735 0.22356 0.25847 0.0
C13 C 0.3123 0.40777 0.22483 0.0
Zn14 Zn 0.90217 0.24445 0.5244 0.0
Zn15 Zn 0.89736 0.21214 0.56342 0.0
O16 O 0.83276 0.15552 0.54978 0.0
O17 O 0.83959 0.18291 0.51774 0.0
O18 O 0.90141 0.19227 0.59307 0.0
O19 O 0.90269 0.30486 0.53523 0.0
O20 O 0.9025 0.28029 0.56718 0.0
C21 C 0.81652 0.14981 0.53119 0.0
C22 C 0.98378 0.23201 0.53419 0.0
O23 O 0.961 0.21824 0.55139 0.0
O24 O 0.96634 0.24566 0.51955 0.0
C25 C 0.93854 0.22443 0.60332 0.0
O26 O 0.96907 0.26663 0.59433 0.0
C27 C 0.90438 0.31254 0.55454 0.0
Zn28 Zn 0.61163 0.85992 0.87526 0.0
Zn29 Zn 0.67293 0.90079 0.90625 0.0
O30 O 0.68494 0.84756 0.89216 0.0
O31 O 0.62123 0.80105 0.87227 0.0
O32 O 0.71446 0.92371 0.93249 0.0
O33 O 0.55417 0.85773 0.89002 0.0
O34 O 0.60598 0.89255 0.91579 0.0
C35 C 0.66282 0.81123 0.87964 0.0
C36 C 0.69553 0.95999 0.86787 0.0
O37 O 0.70484 0.9589 0.88699 0.0
O38 O 0.6595 0.92277 0.85935 0.0
C39 C 0.71512 0.95958 0.94226 0.0
O40 O 0.69039 0.97995 0.93463 0.0
C41 C 0.56331 0.87695 0.90788 0.0
Zn42 Zn 0.74812 0.65155 0.19044 0.0
Zn43 Zn 0.77847 0.67533 0.22961 0.0
O44 O 0.82683 0.65281 0.21838 0.0
O45 O 0.79458 0.6252 0.1875 0.0
O46 O 0.79316 0.69636 0.25988 0.0
O47 O 0.67815 0.60927 0.19926 0.0
O48 O 0.70397 0.62349 0.23153 0.0
C49 C 0.82714 0.63312 0.20102 0.0
C50 C 0.78968 0.75406 0.19779 0.0
O51 O 0.79303 0.74044 0.21601 0.0
O52 O 0.77207 0.72267 0.18328 0.0
C53 C 0.76442 0.71148 0.26653 0.0
O54 O 0.73228 0.71233 0.2536 0.0
C55 C 0.66899 0.6028 0.21842 0.0
Zn56 Zn 0.08508 0.74867 0.52612 0.0
Zn57 Zn 0.0983 0.77836 0.56401 0.0
O58 O 0.16522 0.82748 0.54917 0.0
O59 O 0.15571 0.79143 0.51887 0.0
O60 O 0.10295 0.79587 0.5945 0.0
O61 O 0.05756 0.67826 0.53373 0.0
O62 O 0.07558 0.70343 0.56598 0.0
C63 C 0.18208 0.82617 0.53122 0.0
C64 C 0.02329 0.78756 0.53677 0.0
O65 O 0.04176 0.78944 0.55455 0.0
O66 O 0.03787 0.77362 0.52122 0.0
C67 C 0.09959 0.83237 0.60137 0.0
O68 O 0.09959 0.8645 0.5882 0.0
C69 C 0.05817 0.66854 0.55268 0.0
Zn70 Zn 0.33879 0.07963 0.87258 0.0
Zn71 Zn 0.30546 0.08122 0.90937 0.0
O72 O 0.31616 0.14643 0.89484 0.0
O73 O 0.3563 0.14899 0.8664 0.0
O74 O 0.28364 0.07991 0.93926 0.0
O75 O 0.38679 0.06031 0.88292 0.0
O76 O 0.36284 0.0665 0.91427 0.0
C77 C 0.33742 0.16804 0.87792 0.0
C78 C 0.23864 0.00392 0.87793 0.0
O79 O 0.24663 0.02066 0.89635 0.0
O80 O 0.27176 0.02451 0.86422 0.0
C81 C 0.23859 0.05585 0.94498 0.0
O82 O 0.20375 0.03703 0.93081 0.0
C83 C 0.38932 0.05664 0.90231 0.0
Zn84 Zn 0.6182 0.74098 0.48356 0.0
Zn85 Zn 0.67104 0.77509 0.44913 0.0
O86 O 0.6526 0.82849 0.45716 0.0
O87 O 0.59831 0.79294 0.48223 0.0
O88 O 0.70953 0.79446 0.42213 0.0
O89 O 0.57852 0.67294 0.47171 0.0
O90 O 0.61796 0.70315 0.44237 0.0
C91 C 0.62343 0.83002 0.47071 0.0
C92 C 0.72078 0.77259 0.48936 0.0
O93 O 0.7221 0.77869 0.46982 0.0
O94 O 0.68075 0.75797 0.49921 0.0
C95 C 0.68667 0.78402 0.40491 0.0
O96 O 0.6387 0.76698 0.40493 0.0
C97 C 0.58582 0.66699 0.45294 0.0
Zn98 Zn 0.86511 0.62652 0.80454 0.0
Zn99 Zn 0.91055 0.68186 0.77254 0.0
O100 O 0.84922 0.68929 0.77913 0.0
O101 O 0.80389 0.63176 0.80178 0.0
O102 O 0.9393 0.71635 0.74519 0.0
O103 O 0.87048 0.5686 0.7948 0.0
O104 O 0.91018 0.61594 0.76833 0.0
C105 C 0.81099 0.66825 0.79076 0.0
C106 C 0.95861 0.71649 0.81375 0.0
O107 O 0.96161 0.72255 0.79419 0.0
O108 O 0.92144 0.67947 0.82172 0.0
C109 C 0.96072 0.76278 0.7421 0.0
O110 O 0.9629 0.79204 0.75721 0.0
C111 C 0.8948 0.57561 0.77826 0.0
Zn112 Zn 0.24745 0.87168 0.16066 0.0
Zn113 Zn 0.21608 0.88994 0.12506 0.0
O114 O 0.15893 0.82004 0.13381 0.0
O115 O 0.18667 0.80611 0.16303 0.0
O116 O 0.19647 0.90634 0.09734 0.0
O117 O 0.30916 0.88044 0.14747 0.0
O118 O 0.28508 0.89897 0.11851 0.0
C119 C 0.15294 0.79276 0.14957 0.0
C120 C 0.23172 0.95442 0.16333 0.0
O121 O 0.21942 0.94392 0.14439 0.0
O122 O 0.24599 0.92942 0.17374 0.0
C123 C 0.22881 0.94504 0.08799 0.0
O124 O 0.27218 0.97228 0.09677 0.0
C125 C 0.31734 0.89413 0.12876 0.0
Zn126 Zn 0.38111 0.24829 0.48199 0.0
Zn127 Zn 0.32666 0.21782 0.44754 0.0
O128 O 0.33349 0.15679 0.45643 0.0
O129 O 0.37877 0.18374 0.48481 0.0
O130 O 0.28782 0.20038 0.42042 0.0
O131 O 0.43604 0.30658 0.46773 0.0
O132 O 0.38885 0.28414 0.44006 0.0
C133 C 0.35434 0.14936 0.47201 0.0
C134 C 0.28706 0.24246 0.48647 0.0
O135 O 0.28161 0.22764 0.46775 0.0
O136 O 0.32698 0.25467 0.49603 0.0
C137 C 0.28384 0.23495 0.41169 0.0
O138 O 0.30384 0.27849 0.42071 0.0
C139 C 0.42845 0.31494 0.44932 0.0
Zn140 Zn 0.08005 0.33156 0.82134 0.0
Zn141 Zn 0.07979 0.3011 0.78268 0.0
O142 O 0.14294 0.30415 0.796 0.0
O143 O 0.14177 0.33009 0.8277 0.0
O144 O 0.07421 0.27952 0.75251 0.0
O145 O 0.07817 0.39115 0.81125 0.0
O146 O 0.07518 0.36463 0.77942 0.0
C147 C 0.16123 0.31551 0.81428 0.0
C148 C -0.00589 0.23966 0.81263 0.0
O149 O 0.01492 0.24634 0.79504 0.0
O150 O 0.01498 0.27088 0.827 0.0
C151 C 0.04786 0.23447 0.74701 0.0
O152 O 0.02963 0.20002 0.76134 0.0
C153 C 0.07351 0.39525 0.79201 0.0
Zn154 Zn 0.75174 0.11616 0.1562 0.0
Zn155 Zn 0.78205 0.11111 0.11928 0.0
O156 O 0.83198 0.18198 0.13027 0.0
O157 O 0.79597 0.18871 0.15849 0.0
O158 O 0.79926 0.1055 0.08929 0.0
O159 O 0.68113 0.0843 0.1477 0.0
O160 O 0.70762 0.08827 0.11581 0.0
C161 C 0.83191 0.20702 0.14597 0.0
C162 C 0.79252 0.05242 0.15455 0.0
O163 O 0.79303 0.06012 0.13515 0.0
O164 O 0.77834 0.07395 0.16712 0.0
C165 C 0.82095 0.08197 0.08359 0.0
O166 O 0.83912 0.06514 0.09773 0.0
C167 C 0.67235 0.07685 0.12854 0.0
H168 H 0.86626 0.22094 0.18492 0.0
H169 H 0.90499 0.2837 0.12334 0.0
H170 H 0.98932 0.34354 0.13585 0.0
H171 H 0.95137 0.3345 0.21651 0.0
H172 H 0.9658 0.29781 0.23366 0.0
H173 H 0.90544 0.27121 0.22187 0.0
H174 H 0.91628 0.19996 0.20695 0.0
H175 H 0.97639 0.22624 0.2186 0.0
H176 H 0.96948 0.21464 0.19111 0.0
H177 H 0.0711 0.38708 0.15346 0.0
H178 H 0.14602 0.40127 0.17183 0.0
H179 H 0.05604 0.30255 0.22095 0.0
C180 C 0.89174 0.249 0.17431 0.0
C181 C 0.87877 0.24914 0.15334 0.0
C182 C 0.91394 0.28409 0.13957 0.0
C183 C 0.96173 0.31821 0.14661 0.0
C184 C 0.9738 0.31601 0.16731 0.0
C185 C 0.93982 0.28178 0.1809 0.0
C186 C 0.96418 0.27938 0.20088 0.0
C187 C 0.94559 0.29678 0.21932 0.0
C188 C 0.95612 0.22698 0.20457 0.0
C189 C 0.01775 0.31603 0.19611 0.0
C190 C 0.02212 0.33818 0.17703 0.0
C191 C 0.06802 0.37036 0.16847 0.0
C192 C 0.11043 0.37808 0.17907 0.0
C193 C 0.10686 0.35272 0.19781 0.0
C194 C 0.05995 0.32308 0.20689 0.0
H195 H 0.80486 0.10874 0.49332 0.0
H196 H 0.73338 0.084 0.55316 0.0
H197 H 0.6641 0.00438 0.54027 0.0
H198 H 0.69276 0.04735 0.46024 0.0
H199 H 0.72028 0.02116 0.44362 0.0
H200 H 0.75874 0.07978 0.45618 0.0
H201 H 0.81193 0.04579 0.47252 0.0
H202 H 0.77426 0.98767 0.45975 0.0
H203 H 0.78197 0.9895 0.48746 0.0
H204 H 0.60644 0.92515 0.52148 0.0
H205 H 0.57493 0.84718 0.50219 0.0
H206 H 0.68839 0.92236 0.45553 0.0
C207 C 0.77396 0.08723 0.50358 0.0
C208 C 0.77381 0.10284 0.52411 0.0
C209 C 0.73383 0.0728 0.53733 0.0
C210 C 0.69421 0.0279 0.53004 0.0
C211 C 0.69562 0.01362 0.50962 0.0
C212 C 0.73502 0.04217 0.49673 0.0
C213 C 0.73205 0.0156 0.47668 0.0
C214 C 0.72556 0.04259 0.45808 0.0
C215 C 0.77772 0.00924 0.47397 0.0
C216 C 0.68562 0.96664 0.48051 0.0
C217 C 0.66416 0.96687 0.49926 0.0
C218 C 0.62281 0.92473 0.50676 0.0
C219 C 0.60502 0.88052 0.49556 0.0
C220 C 0.62949 0.87836 0.47737 0.0
C221 C 0.66851 0.92272 0.46921 0.0
H222 H 0.63875 0.7167 0.8671 0.0
H223 H 0.75255 0.87122 0.86349 0.0
H224 H 0.79478 0.85127 0.83611 0.0
H225 H 0.72682 0.6711 0.86098 0.0
H226 H 0.68344 0.61703 0.84669 0.0
H227 H 0.66133 0.64411 0.8655 0.0
H228 H 0.60621 0.65111 0.83717 0.0
H229 H 0.6296 0.62565 0.81812 0.0
H230 H 0.63437 0.68501 0.81376 0.0
H231 H 0.8205 0.81674 0.8071 0.0
H232 H 0.84509 0.76681 0.78608 0.0
H233 H 0.7216 0.63263 0.81095 0.0
C234 C 0.67318 0.74596 0.86085 0.0
C235 C 0.69266 0.79543 0.86752 0.0
C236 C 0.73754 0.83293 0.8589 0.0
C237 C 0.76132 0.82214 0.84305 0.0
C238 C 0.74041 0.77343 0.8363 0.0
C239 C 0.69865 0.73554 0.84548 0.0
C240 C 0.68699 0.68582 0.83652 0.0
C241 C 0.68985 0.65256 0.85342 0.0
C242 C 0.63627 0.66041 0.82575 0.0
C243 C 0.72867 0.70194 0.82088 0.0
C244 C 0.75786 0.75281 0.82056 0.0
C245 C 0.79834 0.7768 0.80737 0.0
C246 C 0.81162 0.74798 0.79524 0.0
C247 C 0.78548 0.69569 0.79689 0.0
C248 C 0.74215 0.67247 0.80923 0.0
H249 H 0.91835 0.67331 0.21962 0.0
H250 H 0.83544 0.58845 0.16608 0.0
H251 H 0.91303 0.60926 0.14829 0.0
H252 H 0.00401 0.76901 0.19514 0.0
H253 H 0.05689 0.78141 0.21077 0.0
H254 H -0.00393 0.7492 0.22179 0.0
H255 H 0.00834 0.67565 0.23195 0.0
H256 H 0.07005 0.70819 0.22138 0.0
H257 H 0.02698 0.64656 0.21255 0.0
H258 H -0.00322 0.66034 0.13261 0.0
H259 H 0.08223 0.72454 0.12314 0.0
H260 H 0.11193 0.76916 0.18748 0.0
C261 C 0.91642 0.65678 0.20465 0.0
C262 C 0.87082 0.62975 0.19422 0.0
C263 C 0.86994 0.60955 0.17441 0.0
C264 C 0.91393 0.62117 0.16411 0.0
C265 C 0.95856 0.65163 0.17406 0.0
C266 C 0.96017 0.66752 0.19424 0.0
C267 C 0.01269 0.70416 0.2006 0.0
C268 C 0.01765 0.75384 0.20745 0.0
C269 C 0.03057 0.68232 0.21763 0.0
C270 C 0.0395 0.70924 0.1804 0.0
C271 C 0.00783 0.67851 0.16525 0.0
C272 C 0.02257 0.68296 0.14453 0.0
C273 C 0.0709 0.71965 0.13922 0.0
C274 C 0.10386 0.75064 0.15467 0.0
C275 C 0.08804 0.74453 0.17549 0.0
H276 H 0.33429 0.11111 0.51046 0.0
H277 H 0.34424 0.07327 0.44676 0.0
H278 H 0.31773 0.98714 0.45766 0.0
H279 H 0.36717 0.02493 0.53703 0.0
H280 H 0.32112 0.0106 0.55678 0.0
H281 H 0.35142 0.07092 0.54487 0.0
H282 H 0.2662 0.06033 0.53463 0.0
H283 H 0.23586 0.00048 0.54666 0.0
H284 H 0.22356 0.00676 0.51988 0.0
H285 H 0.28336 0.9045 0.4751 0.0
H286 H 0.22913 0.82978 0.49511 0.0
H287 H 0.23391 0.92079 0.54692 0.0
C288 C 0.33256 0.08509 0.4989 0.0
C289 C 0.34261 0.09891 0.47785 0.0
C290 C 0.33752 0.06342 0.46299 0.0
C291 C 0.32289 0.01469 0.46911 0.0
C292 C 0.31282 0.00217 0.49005 0.0
C293 C 0.3167 0.03631 0.50465 0.0
C294 C 0.29563 0.01213 0.52537 0.0
C295 C 0.33627 0.03076 0.54199 0.0
C296 C 0.25277 0.0204 0.532 0.0
C297 C 0.27752 0.95853 0.52004 0.0
C298 C 0.2895 0.95387 0.49983 0.0
C299 C 0.27407 0.90781 0.49094 0.0
C300 C 0.24325 0.86549 0.50252 0.0
C301 C 0.22687 0.86935 0.5226 0.0
C302 C 0.24628 0.91652 0.53178 0.0
H303 H 0.2763 0.20274 0.89145 0.0
H304 H 0.38199 0.22277 0.84337 0.0
H305 H 0.35402 0.2706 0.82277 0.0
H306 H 0.18104 0.18105 0.86025 0.0
H307 H 0.1578 0.21457 0.87479 0.0
H308 H 0.19204 0.19013 0.88774 0.0
H309 H 0.25461 0.27727 0.90163 0.0
H310 H 0.21992 0.30199 0.88906 0.0
H311 H 0.28501 0.32821 0.88379 0.0
H312 H 0.30172 0.29938 0.80402 0.0
H313 H 0.2384 0.31961 0.79156 0.0
H314 H 0.17179 0.28692 0.85262 0.0
C315 C 0.29514 0.21908 0.87705 0.0
C316 C 0.33123 0.20869 0.86908 0.0
C317 C 0.35419 0.23003 0.84989 0.0
C318 C 0.33848 0.25726 0.83798 0.0
C319 C 0.30056 0.26406 0.84563 0.0
C320 C 0.28028 0.24697 0.86503 0.0
C321 C 0.23773 0.25631 0.86903 0.0
C322 C 0.18932 0.20762 0.87319 0.0
C323 C 0.25007 0.29315 0.88694 0.0
C324 C 0.23581 0.27897 0.84854 0.0
C325 C 0.27227 0.28319 0.83518 0.0
C326 C 0.274 0.29782 0.81457 0.0
C327 C 0.2378 0.30891 0.80755 0.0
C328 C 0.20096 0.30589 0.82121 0.0
C329 C 0.20047 0.29108 0.84196 0.0
H330 H 0.58889 0.58509 0.19578 0.0
H331 H 0.63177 0.56042 0.25658 0.0
H332 H 0.54336 0.51553 0.26711 0.0
H333 H 0.4882 0.60419 0.21344 0.0
H334 H 0.45111 0.57396 0.19094 0.0
H335 H 0.51763 0.6066 0.18909 0.0
H336 H 0.51527 0.52743 0.17497 0.0
H337 H 0.44894 0.49493 0.1765 0.0
H338 H 0.48352 0.47077 0.18959 0.0
H339 H 0.4483 0.46636 0.26926 0.0
H340 H 0.35817 0.41661 0.26241 0.0
H341 H 0.38181 0.4798 0.20082 0.0
C342 C 0.57991 0.57034 0.21135 0.0
C343 C 0.61699 0.57558 0.22529 0.0
C344 C 0.6037 0.55645 0.24562 0.0
C345 C 0.55372 0.53124 0.25175 0.0
C346 C 0.51799 0.52668 0.23748 0.0
C347 C 0.53083 0.54614 0.21775 0.0
C348 C 0.48615 0.53503 0.20487 0.0
C349 C 0.48577 0.5828 0.19926 0.0
C350 C 0.48331 0.50525 0.18535 0.0
C351 C 0.4457 0.50429 0.22007 0.0
C352 C 0.46438 0.5002 0.23893 0.0
C353 C 0.43333 0.47004 0.25468 0.0
C354 C 0.38221 0.44211 0.2507 0.0
C355 C 0.36312 0.44445 0.23109 0.0
C356 C 0.39525 0.47739 0.216 0.0
H357 H -0.0065 0.58951 0.53011 0.0
H358 H 0.06722 0.62924 0.58978 0.0
H359 H 0.02534 0.54025 0.59936 0.0
H360 H 0.87614 0.48642 0.54856 0.0
H361 H 0.86801 0.45107 0.52533 0.0
H362 H 0.90051 0.51769 0.52428 0.0
H363 H 0.97665 0.51774 0.50794 0.0
H364 H 0.94417 0.45135 0.50868 0.0
H365 H 0.00378 0.48582 0.52098 0.0
H366 H 0.98089 0.44531 0.60042 0.0
H367 H 0.94247 0.35601 0.59231 0.0
H368 H 0.8962 0.38217 0.53255 0.0
C369 C 0.00088 0.57977 0.54527 0.0
C370 C 0.03402 0.61618 0.55913 0.0
C371 C 0.04206 0.60178 0.57889 0.0
C372 C 0.01822 0.55144 0.58449 0.0
C373 C 0.98581 0.51643 0.57029 0.0
C374 C 0.97706 0.5303 0.55114 0.0
C375 C 0.94303 0.48624 0.53806 0.0
C376 C 0.89402 0.48532 0.53382 0.0
C377 C 0.96844 0.48524 0.51774 0.0
C378 C 0.93548 0.44495 0.55242 0.0
C379 C 0.95968 0.46273 0.5711 0.0
C380 C 0.96113 0.43104 0.58601 0.0
C381 C 0.93898 0.38033 0.58131 0.0
C382 C 0.91626 0.3622 0.5618 0.0
C383 C 0.91292 0.39482 0.54765 0.0
H384 H 0.38418 0.97572 0.8855 0.0
H385 H 0.44814 0.0767 0.93717 0.0
H386 H 0.49006 0.03047 0.94872 0.0
H387 H 0.36439 0.86346 0.91373 0.0
H388 H 0.37803 0.83909 0.89091 0.0
H389 H 0.3498 0.87721 0.88845 0.0
H390 H 0.42077 0.93707 0.86412 0.0
H391 H 0.44853 0.89877 0.86624 0.0
H392 H 0.48397 0.96354 0.87273 0.0
H393 H 0.53429 0.97974 0.95081 0.0
H394 H 0.57658 0.93232 0.94309 0.0
H395 H 0.47574 0.86052 0.89188 0.0
C396 C 0.40681 0.98796 0.89935 0.0
C397 C 0.41395 0.03015 0.91027 0.0
C398 C 0.44279 0.04459 0.92854 0.0
C399 C 0.4663 0.01835 0.93523 0.0
C400 C 0.45887 0.97697 0.92385 0.0
C401 C 0.42911 0.96161 0.90645 0.0
C402 C 0.42871 0.91801 0.8961 0.0
C403 C 0.37716 0.8717 0.89738 0.0
C404 C 0.4466 0.93011 0.87348 0.0
C405 C 0.46538 0.91277 0.90959 0.0
C406 C 0.48199 0.94649 0.92573 0.0
C407 C 0.52062 0.95242 0.93856 0.0
C408 C 0.54432 0.92509 0.9341 0.0
C409 C 0.52942 0.89251 0.91688 0.0
C410 C 0.48764 0.88446 0.90532 0.0
H411 H 0.59515 0.59508 0.47105 0.0
H412 H 0.53207 0.6259 0.41726 0.0
H413 H 0.49504 0.53787 0.40626 0.0
H414 H 0.62243 0.50418 0.4449 0.0
H415 H 0.60839 0.46761 0.46815 0.0
H416 H 0.63419 0.53368 0.46991 0.0
H417 H 0.56041 0.52106 0.49285 0.0
H418 H 0.53493 0.45533 0.49135 0.0
H419 H 0.49815 0.48247 0.48351 0.0
H420 H 0.45442 0.44355 0.40498 0.0
H421 H 0.41473 0.3545 0.4134 0.0
H422 H 0.51219 0.38924 0.46637 0.0
C423 C 0.57401 0.5833 0.4568 0.0
C424 C 0.56554 0.6164 0.44509 0.0
C425 C 0.53845 0.6005 0.42641 0.0
C426 C 0.51771 0.55085 0.42005 0.0
C427 C 0.52615 0.51864 0.43222 0.0
C428 C 0.55447 0.53472 0.45003 0.0
C429 C 0.55589 0.49299 0.46124 0.0
C430 C 0.60835 0.50005 0.46102 0.0
C431 C 0.53613 0.48765 0.48353 0.0
C432 C 0.5213 0.45003 0.44775 0.0
C433 C 0.50497 0.46532 0.43088 0.0
C434 C 0.46796 0.4313 0.41782 0.0
C435 C 0.4457 0.3807 0.42269 0.0
C436 C 0.46044 0.36484 0.44054 0.0
C437 C 0.50045 0.39998 0.45247 0.0
H438 H 0.89913 0.50943 0.8041 0.0
H439 H 0.94019 0.57092 0.74228 0.0
H440 H 0.99001 0.52944 0.73801 0.0
H441 H 0.01531 0.53381 0.81789 0.0
H442 H -0.0048 0.47926 0.83357 0.0
H443 H 0.95555 0.50535 0.83027 0.0
H444 H 0.8851 0.42174 0.81629 0.0
H445 H 0.924 0.39485 0.82015 0.0
H446 H 0.89738 0.39187 0.79504 0.0
H447 H 0.03956 0.48336 0.74189 0.0
H448 H 0.08313 0.43906 0.75371 0.0
H449 H 0.01575 0.41966 0.81425 0.0
C450 C 0.91704 0.51288 0.78933 0.0
C451 C 0.91507 0.54276 0.77339 0.0
C452 C 0.94059 0.54754 0.75459 0.0
C453 C 0.96916 0.52433 0.75208 0.0
C454 C 0.97222 0.49712 0.76861 0.0
C455 C 0.94659 0.49136 0.78684 0.0
C456 C 0.95946 0.46497 0.80314 0.0
C457 C 0.98277 0.49783 0.82233 0.0
C458 C 0.91378 0.41542 0.80899 0.0
C459 C -0.00311 0.45722 0.79143 0.0
C460 C 0.00332 0.47495 0.7714 0.0
C461 C 0.03501 0.46974 0.75761 0.0
C462 C 0.05986 0.44495 0.76446 0.0
C463 C 0.05384 0.4272 0.78504 0.0
C464 C 0.02241 0.43416 0.79862 0.0
H465 H 0.39169 0.88607 0.14669 0.0
H466 H 0.35709 0.94507 0.0924 0.0
H467 H 0.44601 0.99126 0.08331 0.0
H468 H 0.4883 0.99283 0.16186 0.0
H469 H 0.52557 0.96788 0.1716 0.0
H470 H 0.45949 0.92976 0.17086 0.0
H471 H 0.46686 0.86424 0.14877 0.0
H472 H 0.53331 0.9017 0.1498 0.0
H473 H 0.50232 0.88274 0.12514 0.0
H474 H 0.54086 0.04101 0.08339 0.0
H475 H 0.63001 0.08849 0.09297 0.0
H476 H 0.59863 0.00028 0.14863 0.0
C477 C 0.40242 0.90723 0.13246 0.0
C478 C 0.36744 0.91185 0.12025 0.0
C479 C 0.38322 0.94056 0.1019 0.0
C480 C 0.4337 0.967 0.09663 0.0
C481 C 0.46761 0.96393 0.10979 0.0
C482 C 0.45231 0.93418 0.12722 0.0
C483 C 0.49547 0.94191 0.14047 0.0
C484 C 0.49197 0.95914 0.16248 0.0
C485 C 0.49974 0.89485 0.14107 0.0
C486 C 0.53741 0.98246 0.12841 0.0
C487 C 0.5212 0.99394 0.11043 0.0
C488 C 0.5539 0.03189 0.09733 0.0
C489 C 0.60425 0.05877 0.10289 0.0
C490 C 0.6206 0.04834 0.12166 0.0
C491 C 0.58681 0.00939 0.13432 0.0
H492 H 0.22569 0.03079 0.14508 0.0
H493 H 0.2287 0.96854 0.20485 0.0
H494 H 0.22069 0.03452 0.22234 0.0
H495 H 0.2991 0.15722 0.16046 0.0
H496 H 0.26537 0.17849 0.14489 0.0
H497 H 0.26882 0.12486 0.13701 0.0
H498 H 0.17306 0.07336 0.13587 0.0
H499 H 0.16931 0.12682 0.14383 0.0
H500 H 0.13791 0.0703 0.15855 0.0
H501 H 0.21235 0.10686 0.23339 0.0
H502 H 0.21073 0.18484 0.23733 0.0
H503 H 0.21624 0.20162 0.17044 0.0
C504 C 0.22437 0.03092 0.16183 0.0
C505 C 0.22763 0.99449 0.17361 0.0
C506 C 0.2264 -0.0038 0.19552 0.0
C507 C 0.22159 0.03334 0.20561 0.0
C508 C 0.21842 0.06866 0.19356 0.0
C509 C 0.22019 0.06809 0.17218 0.0
C510 C 0.21837 0.11176 0.16295 0.0
C511 C 0.26574 0.14505 0.1506 0.0
C512 C 0.17189 0.09451 0.14951 0.0
C513 C 0.21555 0.13703 0.1825 0.0
C514 C 0.21503 0.11125 0.19997 0.0
C515 C 0.21275 0.12745 0.21984 0.0
C516 C 0.21171 0.17168 0.2219 0.0
C517 C 0.2135 0.19934 0.2042 0.0
C518 C 0.21496 0.18138 0.18427 0.0
H519 H 0.0283 0.23347 0.49759 0.0
H520 H 0.04591 0.23261 0.56426 0.0
H521 H 0.1267 0.23708 0.55925 0.0
H522 H 0.08071 0.15633 0.48574 0.0
H523 H 0.10998 0.18909 0.46226 0.0
H524 H 0.0541 0.18674 0.47119 0.0
H525 H 0.09833 0.28257 0.47077 0.0
H526 H 0.15441 0.28522 0.46193 0.0
H527 H 0.15496 0.31763 0.48515 0.0
H528 H 0.20628 0.24428 0.54693 0.0
H529 H 0.27658 0.24692 0.52825 0.0
H530 H 0.20489 0.23944 0.46962 0.0
C531 C 0.04918 0.23431 0.51115 0.0
C532 C 0.03112 0.23296 0.53132 0.0
C533 C 0.05915 0.23351 0.54867 0.0
C534 C 0.10508 0.23625 0.54598 0.0
C535 C 0.12196 0.23787 0.52586 0.0
C536 C 0.09465 0.23638 0.50875 0.0
C537 C 0.12047 0.23718 0.4888 0.0
C538 C 0.08947 0.18949 0.47627 0.0
C539 C 0.13277 0.28341 0.47591 0.0
C540 C 0.16674 0.23959 0.49736 0.0
C541 C 0.16708 0.2404 0.51877 0.0
C542 C 0.20636 0.24342 0.53018 0.0
C543 C 0.24616 0.24509 0.51942 0.0
C544 C 0.24605 0.24323 0.49749 0.0
C545 C 0.20584 0.24062 0.48638 0.0
H546 H 0.94611 0.20878 0.84954 0.0
H547 H 0.93089 0.17277 0.78401 0.0
H548 H 0.8476 0.10136 0.79055 0.0
H549 H 0.89076 0.08645 0.86759 0.0
H550 H 0.86124 0.09703 0.88944 0.0
H551 H 0.91751 0.14709 0.87912 0.0
H552 H 0.87393 0.1989 0.87425 0.0
H553 H 0.81727 0.14866 0.88439 0.0
H554 H 0.81782 0.17394 0.85923 0.0
H555 H 0.76747 0.03206 0.80467 0.0
H556 H 0.7006 0.96641 0.8255 0.0
H557 H 0.77013 0.0487 0.8816 0.0
C558 C 0.92519 0.18621 0.83649 0.0
C559 C 0.94483 0.19639 0.81626 0.0
C560 C 0.9165 0.16556 0.79966 0.0
C561 C 0.86907 0.1252 0.80319 0.0
C562 C 0.85077 0.1164 0.82337 0.0
C563 C 0.87816 0.14589 0.83974 0.0
C564 C 0.85175 0.12688 0.86014 0.0
C565 C 0.88212 0.11356 0.87493 0.0
C566 C 0.83946 0.16433 0.87008 0.0
C567 C 0.80555 0.08137 0.85278 0.0
C568 C 0.80519 0.07631 0.8315 0.0
C569 C 0.76715 0.03583 0.82132 0.0
C570 C 0.72927 -0.00116 0.83328 0.0
C571 C 0.73022 0.00249 0.85517 0.0
C572 C 0.76825 0.04494 0.8649 0.0
H573 H 0.78507 0.97059 0.13545 0.0
H574 H 0.8315 0.05543 0.19245 0.0
H575 H 0.84713 0.99244 0.20817 0.0
H576 H 0.71707 0.85765 0.15877 0.0
H577 H 0.73201 0.82282 0.14075 0.0
H578 H 0.7337 0.87868 0.13245 0.0
H579 H 0.82471 0.91472 0.12064 0.0
H580 H 0.8232 0.85865 0.12881 0.0
H581 H 0.87013 0.91758 0.13874 0.0
H582 H 0.8469 0.91644 0.21926 0.0
H583 H 0.82972 0.83122 0.22523 0.0
H584 H 0.78163 0.79433 0.16133 0.0
C585 C 0.80002 0.97651 0.15099 0.0
C586 C 0.80741 0.01778 0.16274 0.0
C587 C 0.82563 0.02389 0.18324 0.0
C588 C 0.83493 0.98854 0.19224 0.0
C589 C 0.82577 0.94736 0.18053 0.0
C590 C 0.80886 0.94116 0.16032 0.0
C591 C 0.79634 0.89082 0.15204 0.0
C592 C 0.74154 0.86074 0.14564 0.0
C593 C 0.83066 0.89576 0.13399 0.0
C594 C 0.80696 0.86911 0.171 0.0
C595 C 0.8248 0.90268 0.18712 0.0
C596 C 0.8338 0.89002 0.20667 0.0
C597 C 0.82372 0.84147 0.20993 0.0
C598 C 0.80443 0.80617 0.19374 0.0
C599 C 0.79684 0.82059 0.17396 0.0
H600 H 0.8081 0.78838 0.47282 0.0
H601 H 0.73524 0.77864 0.53135 0.0
H602 H 0.81006 0.79234 0.55011 0.0
H603 H 0.86363 0.72095 0.48827 0.0
H604 H 0.91983 0.75689 0.47376 0.0
H605 H 0.86315 0.75288 0.46507 0.0
H606 H 0.90513 0.84861 0.46544 0.0
H607 H 0.96204 0.85291 0.47424 0.0
H608 H 0.93422 0.88206 0.48884 0.0
H609 H 0.89021 0.8004 0.56245 0.0
H610 H 0.96687 0.79641 0.56728 0.0
H611 H 0.98569 0.79955 0.50059 0.0
C612 C 0.80813 0.78999 0.48957 0.0
C613 C 0.76599 0.78265 0.50062 0.0
C614 C 0.7672 0.78418 0.52256 0.0
C615 C 0.80961 0.79229 0.53335 0.0
C616 C 0.8504 0.7989 0.52196 0.0
C617 C 0.84991 0.79771 0.50056 0.0
C618 C 0.89667 0.8013 0.49198 0.0
C619 C 0.8851 0.75526 0.47902 0.0
C620 C 0.92626 0.84907 0.47939 0.0
C621 C 0.92286 0.80309 0.51192 0.0
C622 C 0.89613 0.80265 0.52906 0.0
C623 C 0.91179 0.80133 0.54915 0.0
C624 C 0.95535 0.79913 0.55174 0.0
C625 C 0.98208 0.79756 0.5343 0.0
C626 C 0.96612 0.80083 0.51422 0.0
H627 H 0.20604 0.96638 0.83931 0.0
H628 H 0.16561 0.94024 0.90433 0.0
H629 H 0.08972 0.86254 0.89505 0.0
H630 H 0.08248 0.92016 0.81958 0.0
H631 H 0.09341 0.89337 0.79685 0.0
H632 H 0.14382 0.94704 0.80877 0.0
H633 H 0.19282 0.9002 0.81211 0.0
H634 H 0.14238 0.84623 0.80037 0.0
H635 H 0.16522 0.84165 0.82544 0.0
H636 H 0.01992 0.78648 0.87861 0.0
H637 H 0.95839 0.72044 0.85613 0.0
H638 H 0.04515 0.79801 0.80201 0.0
C639 C 0.1812 0.9445 0.85163 0.0
C640 C 0.19174 0.95922 0.87255 0.0
C641 C 0.15814 0.92966 0.88819 0.0
C642 C 0.1151 0.88544 0.88308 0.0
C643 C 0.10629 0.8717 0.8623 0.0
C644 C 0.13817 0.90061 0.84683 0.0
C645 C 0.12023 0.87788 0.82569 0.0
C646 C 0.10933 0.91162 0.81192 0.0
C647 C 0.15738 0.86577 0.8153 0.0
C648 C 0.07329 0.83141 0.83167 0.0
C649 C 0.06596 0.82837 0.85285 0.0
C650 C 0.02516 0.78853 0.862 0.0
C651 C 0.99055 0.75115 0.8491 0.0
C652 C -0.00303 0.7541 0.82731 0.0
C653 C 0.03916 0.79465 0.81859 0.0
H654 H 0.28739 0.30606 0.38571 0.0
H655 H 0.22303 0.14708 0.39176 0.0
H656 H 0.1812 0.13561 0.35794 0.0
H657 H 0.18293 0.30549 0.36028 0.0
H658 H 0.22158 0.35646 0.34348 0.0
H659 H 0.24377 0.35188 0.36869 0.0
H660 H 0.321 0.35538 0.35193 0.0
H661 H 0.29923 0.36026 0.32671 0.0
H662 H 0.31295 0.31153 0.33196 0.0
H663 H 0.14807 0.14197 0.32295 0.0
H664 H 0.13139 0.16528 0.28866 0.0
H665 H 0.2195 0.32053 0.30513 0.0
C666 C 0.2641 0.26873 0.38006 0.0
C667 C 0.25821 0.22738 0.39149 0.0
C668 C 0.22804 0.17928 0.38332 0.0
C669 C 0.20397 0.17243 0.36417 0.0
C670 C 0.21063 0.21405 0.35331 0.0
C671 C 0.24026 0.26129 0.36092 0.0
C672 C 0.24364 0.3 0.34575 0.0
C673 C 0.22166 0.33023 0.35511 0.0
C674 C 0.29739 0.33377 0.33867 0.0
C675 C 0.2117 0.26724 0.32826 0.0
C676 C 0.1925 0.21778 0.33304 0.0
C677 C 0.16281 0.18059 0.3191 0.0
C678 C 0.15343 0.19427 0.29964 0.0
C679 C 0.174 0.2448 0.29411 0.0
C680 C 0.20285 0.2816 0.30886 0.0
H681 H 0.00571 0.29127 0.6306 0.0
H682 H 0.89483 0.13614 0.62456 0.0
H683 H 0.91465 0.12079 0.65997 0.0
H684 H 0.09495 0.27451 0.65984 0.0
H685 H 0.11267 0.32807 0.67592 0.0
H686 H 0.09081 0.32643 0.64994 0.0
H687 H 0.02287 0.34363 0.66395 0.0
H688 H 0.04477 0.34575 0.68993 0.0
H689 H 0.98089 0.30376 0.6836 0.0
H690 H 0.94683 0.12287 0.69623 0.0
H691 H 0.98351 0.14291 0.73121 0.0
H692 H 0.07222 0.29728 0.71356 0.0
C693 C 0.98562 0.25396 0.63665 0.0
C694 C 0.9488 0.21481 0.62474 0.0
C695 C 0.92312 0.1667 0.63338 0.0
C696 C 0.93432 0.15761 0.65344 0.0
C697 C 0.97112 0.19706 0.66468 0.0
C698 C -0.00394 0.24435 0.65664 0.0
C699 C 0.03264 0.28074 0.67213 0.0
C700 C 0.08592 0.30378 0.66396 0.0
C701 C 0.01948 0.32082 0.67773 0.0
C702 C 0.02425 0.24663 0.69026 0.0
C703 C 0.98899 0.19842 0.68559 0.0
C704 C 0.9745 0.16048 0.70002 0.0
C705 C -0.00426 0.17227 0.71986 0.0
C706 C 0.03089 0.2217 0.72521 0.0
C707 C 0.04575 0.25909 0.71 0.0
H708 H 0.77418 0.09869 0.05102 0.0
H709 H 0.86081 0.02899 0.06656 0.0
H710 H 0.84772 0.99416 0.03128 0.0
H711 H 0.68368 0.00056 0.02238 0.0
H712 H 0.67628 0.03829 1.00315 0.0
H713 H 0.69691 0.06227 0.0288 0.0
H714 H 0.77507 0.13747 0.01356 0.0
H715 H 0.75445 0.11391 0.9878 0.0
H716 H 0.81484 0.12721 0.99646 0.0
H717 H 0.81811 0.96001 0.99528 0.0
H718 H 0.77745 0.9327 0.9611 0.0
H719 H 0.71115 0.02549 0.96915 0.0
C720 C 0.79137 0.07705 0.0469 0.0
C721 C 0.81871 0.06679 0.06161 0.0
C722 C 0.8399 0.03762 0.05559 0.0
C723 C 0.83264 0.01759 0.03556 0.0
C724 C 0.80436 0.0273 0.02163 0.0
C725 C 0.7845 0.05679 0.02698 0.0
C726 C 0.75343 0.05948 0.00952 0.0
C727 C 0.69938 0.03891 0.01638 0.0
C728 C 0.7758 0.11268 1.00135 0.0
C729 C 0.75797 0.02602 0.99371 0.0
C730 C 0.78767 0.00797 1.00091 0.0
C731 C 0.7953 0.97445 0.98938 0.0
C732 C 0.77193 0.95901 0.97001 0.0
C733 C 0.7413 0.97708 0.96236 0.0
C734 C 0.73472 0.01131 0.97441 0.0
H735 H 0.6951 0.7264 0.28563 0.0
H736 H 0.83424 0.73026 0.2969 0.0
H737 H 0.83309 0.75575 0.33324 0.0
H738 H 0.71778 0.83093 0.31758 0.0
H739 H 0.65464 0.80238 0.32644 0.0
H740 H 0.6683 0.78731 0.30125 0.0
H741 H 0.62239 0.6942 0.31087 0.0
H742 H 0.60832 0.70893 0.336 0.0
H743 H 0.64029 0.67426 0.33387 0.0
H744 H 0.81488 0.77975 0.36882 0.0
H745 H 0.77866 0.79302 0.4006 0.0
H746 H 0.65057 0.77072 0.36537 0.0
C747 C 0.7257 0.73299 0.29562 0.0
C748 C 0.76501 0.72667 0.28836 0.0
C749 C 0.80381 0.73497 0.30211 0.0
C750 C 0.80352 0.74965 0.32273 0.0
C751 C 0.76409 0.75563 0.32933 0.0
C752 C 0.72575 0.74715 0.31614 0.0
C753 C 0.68629 0.75345 0.32709 0.0
C754 C 0.6815 0.79606 0.31752 0.0
C755 C 0.63639 0.70482 0.32695 0.0
C756 C 0.70799 0.76639 0.34864 0.0
C757 C 0.75317 0.76813 0.34964 0.0
C758 C 0.77961 0.77857 0.36814 0.0
C759 C 0.75881 0.78629 0.38612 0.0
C760 C 0.71174 0.78297 0.38551 0.0
C761 C 0.68664 0.77368 0.36639 0.0
H762 H 0.06505 0.75695 0.62974 0.0
H763 H 0.10475 0.91084 0.62274 0.0
H764 H 0.07618 0.91087 0.65847 0.0
H765 H 0.95407 0.72013 0.6568 0.0
H766 H 0.95986 0.67698 0.67352 0.0
H767 H 0.98789 0.69034 0.64825 0.0
H768 H 0.07318 0.71575 0.66463 0.0
H769 H 0.0453 0.70199 0.68996 0.0
H770 H 0.09732 0.76231 0.68462 0.0
H771 H 0.03976 0.89275 0.69465 0.0
H772 H -0.00187 0.85793 0.72806 0.0
H773 H 0.97915 0.71497 0.71056 0.0
C774 C 0.06876 0.79101 0.63585 0.0
C775 C 0.08768 0.83411 0.62349 0.0
C776 C 0.09071 0.8775 0.63195 0.0
C777 C 0.07454 0.87785 0.65223 0.0
C778 C 0.0551 0.83441 0.66383 0.0
C779 C 0.05221 0.79181 0.65594 0.0
C780 C 0.02724 0.74925 0.6711 0.0
C781 C 0.97943 0.70668 0.66186 0.0
C782 C 0.0629 0.73129 0.67799 0.0
C783 C 0.01613 0.7744 0.68869 0.0
C784 C 0.03286 0.82362 0.6843 0.0
C785 C 0.02662 0.85427 0.69825 0.0
C786 C 0.00285 0.83413 0.71718 0.0
C787 C 0.98513 0.78367 0.72194 0.0
C788 C 0.99194 0.75361 0.70739 0.0
H789 H 0.29608 0.01287 0.061 0.0
H790 H 0.13938 0.90838 0.06801 0.0
H791 H 0.12391 0.93125 0.03323 0.0
H792 H 0.28417 0.10718 0.03219 0.0
H793 H 0.3363 0.12149 0.01572 0.0
H794 H 0.33442 0.09967 0.04173 0.0
H795 H 0.346 0.02823 0.02759 0.0
H796 H 0.34819 0.04998 1.00159 0.0
H797 H 0.30376 0.98704 1.00829 0.0
H798 H 0.12626 0.96353 0.99707 0.0
H799 H 0.14653 -0.00239 0.96168 0.0
H800 H 0.3022 0.07961 0.97812 0.0
C801 C 0.25837 -0.00484 0.05536 0.0
C802 C 0.21884 0.95902 0.06732 0.0
C803 C 0.17021 0.9362 0.05917 0.0
C804 C 0.16107 0.94914 0.03947 0.0
C805 C 0.20095 0.98484 0.02808 0.0
C806 C 0.24868 0.0073 0.0357 0.0
C807 C 0.28548 0.04221 0.0199 0.0
C808 C 0.31162 0.09582 0.02787 0.0
C809 C 0.32305 0.02587 0.014 0.0
C810 C 0.25112 0.0354 1.00205 0.0
C811 C 0.20244 0.00267 1.00716 0.0
C812 C 0.16422 0.98938 0.99295 0.0
C813 C 0.17615 0.00907 0.97286 0.0
C814 C 0.22598 0.04144 0.96704 0.0
C815 C 0.26371 0.05536 0.98205 0.0
loop_
_geom_bond_atom_site_label_1
_geom_bond_atom_site_label_2
_geom_bond_distance
_geom_bond_site_symmetry_2
_ccdc_geom_bond_type
Zn0 O3 2.031 . S
Zn0 O5 2.049 . S
Zn0 O10 2.067 . S
Zn1 O2 1.962 . S
Zn1 O4 1.986 . S
Zn1 O6 1.996 . S
Zn1 O9 1.943 . S
O2 Zn1 1.962 . S
O2 C7 1.254 . S
O3 Zn0 2.031 . S
O3 C7 1.269 . S
O4 Zn1 1.986 . S
O4 C11 1.262 . S
O5 Zn0 2.049 . S
O5 C13 1.260 . S
O6 Zn1 1.996 . S
O6 C13 1.257 . S
C7 O2 1.254 . S
C7 O3 1.269 . S
C8 O9 1.249 . S
C8 O10 1.270 . S
O9 Zn1 1.943 . S
O9 C8 1.249 . S
O10 Zn0 2.067 . S
O10 C8 1.270 . S
C11 O4 1.262 . S
C11 O12 1.232 . S
O12 C11 1.232 . S
C13 O5 1.260 . S
C13 O6 1.257 . S
Zn14 O17 2.031 . S
Zn14 O19 2.049 . S
Zn14 O24 2.067 1_655 S
Zn15 O16 1.962 . S
Zn15 O18 1.986 . S
Zn15 O20 1.996 . S
Zn15 O23 1.935 1_655 S
O16 Zn15 1.962 . S
O16 C21 1.254 . S
O17 Zn14 2.031 . S
O17 C21 1.269 . S
O18 Zn15 1.986 . S
O18 C25 1.262 . S
O19 Zn14 2.049 . S
O19 C27 1.260 . S
O20 Zn15 1.996 . S
O20 C27 1.257 . S
C21 O16 1.254 . S
C21 O17 1.269 . S
C22 O23 1.251 . S
C22 O24 1.270 . S
O23 Zn15 1.935 1_455 S
O23 C22 1.251 . S
O24 Zn14 2.067 1_455 S
O24 C22 1.270 . S
C25 O18 1.262 . S
C25 O26 1.232 . S
O26 C25 1.232 . S
C27 O19 1.260 . S
C27 O20 1.257 . S
Zn28 O31 2.031 . S
Zn28 O33 2.049 . S
Zn28 O38 2.067 1_565 S
Zn29 O30 1.962 . S
Zn29 O32 1.986 . S
Zn29 O34 1.996 . S
Zn29 O37 1.938 1_565 S
O30 Zn29 1.962 . S
O30 C35 1.254 . S
O31 Zn28 2.031 . S
O31 C35 1.269 . S
O32 Zn29 1.986 . S
O32 C39 1.262 . S
O33 Zn28 2.049 . S
O33 C41 1.260 . S
O34 Zn29 1.996 . S
O34 C41 1.257 . S
C35 O30 1.254 . S
C35 O31 1.269 . S
C36 O37 1.251 . S
C36 O38 1.270 . S
O37 Zn29 1.938 1_545 S
O37 C36 1.251 . S
O38 Zn28 2.067 1_545 S
O38 C36 1.270 . S
C39 O32 1.262 . S
C39 O40 1.232 . S
O40 C39 1.232 . S
C41 O33 1.260 . S
C41 O34 1.257 . S
Zn42 O45 2.031 . S
Zn42 O47 2.049 . S
Zn42 O52 2.067 . S
Zn43 O44 1.962 . S
Zn43 O46 1.986 . S
Zn43 O48 1.996 . S
Zn43 O51 1.943 . S
O44 Zn43 1.962 . S
O44 C49 1.254 . S
O45 Zn42 2.031 . S
O45 C49 1.269 . S
O46 Zn43 1.986 . S
O46 C53 1.262 . S
O47 Zn42 2.049 . S
O47 C55 1.260 . S
O48 Zn43 1.996 . S
O48 C55 1.257 . S
C49 O44 1.254 . S
C49 O45 1.269 . S
C50 O51 1.249 . S
C50 O52 1.270 . S
O51 Zn43 1.943 . S
O51 C50 1.249 . S
O52 Zn42 2.067 . S
O52 C50 1.270 . S
C53 O46 1.262 . S
C53 O54 1.232 . S
O54 C53 1.232 . S
C55 O47 1.260 . S
C55 O48 1.257 . S
Zn56 O59 2.031 . S
Zn56 O61 2.049 . S
Zn56 O66 2.067 1_455 S
Zn57 O58 1.962 . S
Zn57 O60 1.986 . S
Zn57 O62 1.996 . S
Zn57 O65 1.935 1_455 S
O58 Zn57 1.962 . S
O58 C63 1.254 . S
O59 Zn56 2.031 . S
O59 C63 1.269 . S
O60 Zn57 1.986 . S
O60 C67 1.262 . S
O61 Zn56 2.049 . S
O61 C69 1.260 . S
O62 Zn57 1.996 . S
O62 C69 1.257 . S
C63 O58 1.254 . S
C63 O59 1.269 . S
C64 O65 1.251 . S
C64 O66 1.270 . S
O65 Zn57 1.935 1_655 S
O65 C64 1.251 . S
O66 Zn56 2.067 1_655 S
O66 C64 1.270 . S
C67 O60 1.262 . S
C67 O68 1.232 . S
O68 C67 1.232 . S
C69 O61 1.260 . S
C69 O62 1.257 . S
Zn70 O73 2.031 . S
Zn70 O75 2.049 . S
Zn70 O80 2.067 1_545 S
Zn71 O72 1.962 . S
Zn71 O74 1.986 . S
Zn71 O76 1.996 . S
Zn71 O79 1.938 1_545 S
O72 Zn71 1.962 . S
O72 C77 1.254 . S
O73 Zn70 2.031 . S
O73 C77 1.269 . S
O74 Zn71 1.986 . S
O74 C81 1.262 . S
O75 Zn70 2.049 . S
O75 C83 1.260 . S
O76 Zn71 1.996 . S
O76 C83 1.257 . S
C77 O72 1.254 . S
C77 O73 1.269 . S
C78 O79 1.251 . S
C78 O80 1.270 . S
O79 Zn71 1.938 1_565 S
O79 C78 1.251 . S
O80 Zn70 2.067 1_565 S
O80 C78 1.270 . S
C81 O74 1.262 . S
C81 O82 1.232 . S
O82 C81 1.232 . S
C83 O75 1.260 . S
C83 O76 1.257 . S
Zn84 O87 2.031 . S
Zn84 O89 2.049 . S
Zn84 O94 2.067 . S
Zn85 O86 1.962 . S
Zn85 O88 1.986 . S
Zn85 O90 1.996 . S
Zn85 O93 1.943 . S
O86 Zn85 1.962 . S
O86 C91 1.254 . S
O87 Zn84 2.031 . S
O87 C91 1.269 . S
O88 Zn85 1.986 . S
O88 C95 1.262 . S
O89 Zn84 2.049 . S
O89 C97 1.260 . S
O90 Zn85 1.996 . S
O90 C97 1.257 . S
C91 O86 1.254 . S
C91 O87 1.269 . S
C92 O93 1.249 . S
C92 O94 1.270 . S
O93 Zn85 1.943 . S
O93 C92 1.249 . S
O94 Zn84 2.067 . S
O94 C92 1.270 . S
C95 O88 1.262 . S
C95 O96 1.232 . S
O96 C95 1.232 . S
C97 O89 1.260 . S
C97 O90 1.257 . S
Zn98 O101 2.031 . S
Zn98 O103 2.049 . S
Zn98 O108 2.067 1_655 S
Zn99 O100 1.962 . S
Zn99 O102 1.986 . S
Zn99 O104 1.996 . S
Zn99 O107 1.938 1_655 S
O100 Zn99 1.962 . S
O100 C105 1.254 . S
O101 Zn98 2.031 . S
O101 C105 1.269 . S
O102 Zn99 1.986 . S
O102 C109 1.262 . S
O103 Zn98 2.049 . S
O103 C111 1.260 . S
O104 Zn99 1.996 . S
O104 C111 1.257 . S
C105 O100 1.254 . S
C105 O101 1.269 . S
C106 O107 1.251 . S
C106 O108 1.270 . S
O107 Zn99 1.938 1_455 S
O107 C106 1.251 . S
O108 Zn98 2.067 1_455 S
O108 C106 1.270 . S
C109 O102 1.262 . S
C109 O110 1.232 . S
O110 C109 1.232 . S
C111 O103 1.260 . S
C111 O104 1.257 . S
Zn112 O115 2.031 . S
Zn112 O117 2.049 . S
Zn112 O122 2.067 1_565 S
Zn113 O114 1.962 . S
Zn113 O116 1.986 . S
Zn113 O118 1.996 . S
Zn113 O121 1.935 1_565 S
O114 Zn113 1.962 . S
O114 C119 1.254 . S
O115 Zn112 2.031 . S
O115 C119 1.269 . S
O116 Zn113 1.986 . S
O116 C123 1.262 . S
O117 Zn112 2.049 . S
O117 C125 1.260 . S
O118 Zn113 1.996 . S
O118 C125 1.257 . S
C119 O114 1.254 . S
C119 O115 1.269 . S
C120 O121 1.251 . S
C120 O122 1.270 . S
O121 Zn113 1.935 1_545 S
O121 C120 1.251 . S
O122 Zn112 2.067 1_545 S
O122 C120 1.270 . S
C123 O116 1.262 . S
C123 O124 1.232 . S
O124 C123 1.232 . S
C125 O117 1.260 . S
C125 O118 1.257 . S
Zn126 O129 2.031 . S
Zn126 O131 2.049 . S
Zn126 O136 2.067 . S
Zn127 O128 1.962 . S
Zn127 O130 1.986 . S
Zn127 O132 1.996 . S
Zn127 O135 1.943 . S
O128 Zn127 1.962 . S
O128 C133 1.254 . S
O129 Zn126 2.031 . S
O129 C133 1.269 . S
O130 Zn127 1.986 . S
O130 C137 1.262 . S
O131 Zn126 2.049 . S
O131 C139 1.260 . S
O132 Zn127 1.996 . S
O132 C139 1.257 . S
C133 O128 1.254 . S
C133 O129 1.269 . S
C134 O135 1.249 . S
C134 O136 1.270 . S
O135 Zn127 1.943 . S
O135 C134 1.249 . S
O136 Zn126 2.067 . S
O136 C134 1.270 . S
C137 O130 1.262 . S
C137 O138 1.232 . S
O138 C137 1.232 . S
C139 O131 1.260 . S
C139 O132 1.257 . S
Zn140 O143 2.031 . S
Zn140 O145 2.049 . S
Zn140 O150 2.067 1_455 S
Zn141 O142 1.962 . S
Zn141 O144 1.986 . S
Zn141 O146 1.996 . S
Zn141 O149 1.938 1_455 S
O142 Zn141 1.962 . S
O142 C147 1.254 . S
O143 Zn140 2.031 . S
O143 C147 1.269 . S
O144 Zn141 1.986 . S
O144 C151 1.262 . S
O145 Zn140 2.049 . S
O145 C153 1.260 . S
O146 Zn141 1.996 . S
O146 C153 1.257 . S
C147 O142 1.254 . S
C147 O143 1.269 . S
C148 O149 1.251 . S
C148 O150 1.270 . S
O149 Zn141 1.938 1_655 S
O149 C148 1.251 . S
O150 Zn140 2.067 1_655 S
O150 C148 1.270 . S
C151 O144 1.262 . S
C151 O152 1.232 . S
O152 C151 1.232 . S
C153 O145 1.260 . S
C153 O146 1.257 . S
Zn154 O157 2.031 . S
Zn154 O159 2.049 . S
Zn154 O164 2.067 1_545 S
Zn155 O156 1.962 . S
Zn155 O158 1.986 . S
Zn155 O160 1.996 . S
Zn155 O163 1.935 1_545 S
O156 Zn155 1.962 . S
O156 C161 1.254 . S
O157 Zn154 2.031 . S
O157 C161 1.269 . S
O158 Zn155 1.986 . S
O158 C165 1.262 . S
O159 Zn154 2.049 . S
O159 C167 1.260 . S
O160 Zn155 1.996 . S
O160 C167 1.257 . S
C161 O156 1.254 . S
C161 O157 1.269 . S
C162 O163 1.251 . S
C162 O164 1.270 . S
O163 Zn155 1.935 1_565 S
O163 C162 1.251 . S
O164 Zn154 2.067 1_565 S
O164 C162 1.270 . S
C165 O158 1.262 . S
C165 O166 1.232 . S
O166 C165 1.232 . S
C167 O159 1.260 . S
C167 O160 1.257 . S
H168 C180 0.930 . S
H169 C182 0.930 . S
H170 C183 0.930 . S
H171 C187 0.959 . S
H172 C187 0.959 . S
H173 C187 0.961 . S
H174 C188 0.960 . S
H175 C188 0.961 . S
H176 C188 0.959 . S
H177 C191 0.929 . S
H178 C192 0.931 . S
H179 C194 0.930 . S
C180 H168 0.930 . S
C180 C181 1.399 . S
C180 C185 1.399 . S
C181 C180 1.399 . S
C181 C182 1.376 . S
C182 H169 0.930 . S
C182 C181 1.376 . S
C182 C183 1.388 . S
C183 H170 0.930 . S
C183 C182 1.388 . S
C183 C184 1.390 . S
C184 C183 1.390 . S
C184 C185 1.394 . S
C184 C190 1.465 1_655 S
C185 C180 1.399 . S
C185 C184 1.394 . S
C185 C186 1.516 . S
C186 C185 1.516 . S
C186 C187 1.502 . S
C186 C188 1.561 . S
C186 C189 1.526 1_655 S
C187 H171 0.959 . S
C187 H172 0.959 . S
C187 H173 0.961 . S
C187 C186 1.502 . S
C188 H174 0.960 . S
C188 H175 0.961 . S
C188 H176 0.959 . S
C188 C186 1.561 . S
C189 C186 1.526 1_455 S
C189 C190 1.396 . S
C189 C194 1.390 . S
C190 C184 1.465 1_455 S
C190 C189 1.396 . S
C190 C191 1.399 . S
C191 H177 0.929 . S
C191 C190 1.399 . S
C191 C192 1.385 . S
C192 H178 0.931 . S
C192 C191 1.385 . S
C192 C193 1.389 . S
C193 C192 1.389 . S
C193 C194 1.387 . S
C194 H179 0.930 . S
C194 C189 1.390 . S
C194 C193 1.387 . S
H195 C207 0.930 . S
H196 C209 0.930 . S
H197 C210 0.930 . S
H198 C214 0.959 . S
H199 C214 0.959 . S
H200 C214 0.961 . S
H201 C215 0.960 . S
H202 C215 0.961 . S
H203 C215 0.959 . S
H204 C218 0.929 . S
H205 C219 0.931 . S
H206 C221 0.930 . S
C207 H195 0.930 . S
C207 C208 1.399 . S
C207 C212 1.399 . S
C208 C207 1.399 . S
C208 C209 1.376 . S
C209 H196 0.930 . S
C209 C208 1.376 . S
C209 C210 1.388 . S
C210 H197 0.930 . S
C210 C209 1.388 . S
C210 C211 1.390 . S
C211 C210 1.390 . S
C211 C212 1.394 . S
C211 C217 1.465 1_545 S
C212 C207 1.399 . S
C212 C211 1.394 . S
C212 C213 1.516 . S
C213 C212 1.516 . S
C213 C214 1.502 . S
C213 C215 1.561 . S
C213 C216 1.526 1_545 S
C214 H198 0.959 . S
C214 H199 0.959 . S
C214 H200 0.961 . S
C214 C213 1.502 . S
C215 H201 0.960 . S
C215 H202 0.961 . S
C215 H203 0.959 . S
C215 C213 1.561 . S
C216 C213 1.526 1_565 S
C216 C217 1.396 . S
C216 C221 1.390 . S
C217 C211 1.465 1_565 S
C217 C216 1.396 . S
C217 C218 1.399 . S
C218 H204 0.929 . S
C218 C217 1.399 . S
C218 C219 1.385 . S
C219 H205 0.931 . S
C219 C218 1.385 . S
C219 C220 1.389 . S
C220 C219 1.389 . S
C220 C221 1.387 . S
C221 H206 0.930 . S
C221 C216 1.390 . S
C221 C220 1.387 . S
H222 C234 0.930 . S
H223 C236 0.930 . S
H224 C237 0.930 . S
H225 C241 0.959 . S
H226 C241 0.959 . S
H227 C241 0.961 . S
H228 C242 0.960 . S
H229 C242 0.961 . S
H230 C242 0.959 . S
H231 C245 0.929 . S
H232 C246 0.931 . S
H233 C248 0.930 . S
C234 H222 0.930 . S
C234 C235 1.399 . S
C234 C239 1.399 . S
C235 C234 1.399 . S
C235 C236 1.376 . S
C236 H223 0.930 . S
C236 C235 1.376 . S
C236 C237 1.388 . S
C237 H224 0.930 . S
C237 C236 1.388 . S
C237 C238 1.390 . S
C238 C237 1.390 . S
C238 C239 1.394 . S
C238 C244 1.465 . S
C239 C234 1.399 . S
C239 C238 1.394 . S
C239 C240 1.516 . S
C240 C239 1.516 . S
C240 C241 1.502 . S
C240 C242 1.561 . S
C240 C243 1.526 . S
C241 H225 0.959 . S
C241 H226 0.959 . S
C241 H227 0.961 . S
C241 C240 1.502 . S
C242 H228 0.960 . S
C242 H229 0.961 . S
C242 H230 0.959 . S
C242 C240 1.561 . S
C243 C240 1.526 . S
C243 C244 1.396 . S
C243 C248 1.390 . S
C244 C238 1.465 . S
C244 C243 1.396 . S
C244 C245 1.399 . S
C245 H231 0.929 . S
C245 C244 1.399 . S
C245 C246 1.385 . S
C246 H232 0.931 . S
C246 C245 1.385 . S
C246 C247 1.389 . S
C247 C246 1.389 . S
C247 C248 1.387 . S
C248 H233 0.930 . S
C248 C243 1.390 . S
C248 C247 1.387 . S
H249 C261 0.930 . S
H250 C263 0.930 . S
H251 C264 0.930 . S
H252 C268 0.959 . S
H253 C268 0.959 . S
H254 C268 0.961 1_655 S
H255 C269 0.960 . S
H256 C269 0.961 . S
H257 C269 0.959 . S
H258 C272 0.929 . S
H259 C273 0.931 . S
H260 C275 0.930 . S
C261 H249 0.930 . S
C261 C262 1.399 . S
C261 C266 1.399 . S
C262 C261 1.399 . S
C262 C263 1.376 . S
C263 H250 0.930 . S
C263 C262 1.376 . S
C263 C264 1.388 . S
C264 H251 0.930 . S
C264 C263 1.388 . S
C264 C265 1.390 . S
C265 C264 1.390 . S
C265 C266 1.394 . S
C265 C271 1.465 1_655 S
C266 C261 1.399 . S
C266 C265 1.394 . S
C266 C267 1.516 1_655 S
C267 C266 1.516 1_455 S
C267 C268 1.502 . S
C267 C269 1.561 . S
C267 C270 1.526 . S
C268 H252 0.959 . S
C268 H253 0.959 . S
C268 H254 0.961 1_455 S
C268 C267 1.502 . S
C269 H255 0.960 . S
C269 H256 0.961 . S
C269 H257 0.959 . S
C269 C267 1.561 . S
C270 C267 1.526 . S
C270 C271 1.396 . S
C270 C275 1.390 . S
C271 C265 1.465 1_455 S
C271 C270 1.396 . S
C271 C272 1.399 . S
C272 H258 0.929 . S
C272 C271 1.399 . S
C272 C273 1.385 . S
C273 H259 0.931 . S
C273 C272 1.385 . S
C273 C274 1.389 . S
C274 C273 1.389 . S
C274 C275 1.387 . S
C275 H260 0.930 . S
C275 C270 1.390 . S
C275 C274 1.387 . S
H276 C288 0.930 . S
H277 C290 0.930 . S
H278 C291 0.930 . S
H279 C295 0.959 . S
H280 C295 0.959 . S
H281 C295 0.961 . S
H282 C296 0.960 . S
H283 C296 0.961 . S
H284 C296 0.959 . S
H285 C299 0.929 . S
H286 C300 0.931 . S
H287 C302 0.930 . S
C288 H276 0.930 . S
C288 C289 1.399 . S
C288 C293 1.399 . S
C289 C288 1.399 . S
C289 C290 1.376 . S
C290 H277 0.930 . S
C290 C289 1.376 . S
C290 C291 1.388 . S
C291 H278 0.930 . S
C291 C290 1.388 . S
C291 C292 1.390 . S
C292 C291 1.390 . S
C292 C293 1.394 . S
C292 C298 1.465 1_545 S
C293 C288 1.399 . S
C293 C292 1.394 . S
C293 C294 1.516 . S
C294 C293 1.516 . S
C294 C295 1.502 . S
C294 C296 1.561 . S
C294 C297 1.526 1_545 S
C295 H279 0.959 . S
C295 H280 0.959 . S
C295 H281 0.961 . S
C295 C294 1.502 . S
C296 H282 0.960 . S
C296 H283 0.961 . S
C296 H284 0.959 . S
C296 C294 1.561 . S
C297 C294 1.526 1_565 S
C297 C298 1.396 . S
C297 C302 1.390 . S
C298 C292 1.465 1_565 S
C298 C297 1.396 . S
C298 C299 1.399 . S
C299 H285 0.929 . S
C299 C298 1.399 . S
C299 C300 1.385 . S
C300 H286 0.931 . S
C300 C299 1.385 . S
C300 C301 1.389 . S
C301 C300 1.389 . S
C301 C302 1.387 . S
C302 H287 0.930 . S
C302 C297 1.390 . S
C302 C301 1.387 . S
H303 C315 0.930 . S
H304 C317 0.930 . S
H305 C318 0.930 . S
H306 C322 0.959 . S
H307 C322 0.959 . S
H308 C322 0.961 . S
H309 C323 0.960 . S
H310 C323 0.961 . S
H311 C323 0.959 . S
H312 C326 0.929 . S
H313 C327 0.931 . S
H314 C329 0.930 . S
C315 H303 0.930 . S
C315 C316 1.399 . S
C315 C320 1.399 . S
C316 C315 1.399 . S
C316 C317 1.376 . S
C317 H304 0.930 . S
C317 C316 1.376 . S
C317 C318 1.388 . S
C318 H305 0.930 . S
C318 C317 1.388 . S
C318 C319 1.390 . S
C319 C318 1.390 . S
C319 C320 1.394 . S
C319 C325 1.465 . S
C320 C315 1.399 . S
C320 C319 1.394 . S
C320 C321 1.516 . S
C321 C320 1.516 . S
C321 C322 1.502 . S
C321 C323 1.561 . S
C321 C324 1.526 . S
C322 H306 0.959 . S
C322 H307 0.959 . S
C322 H308 0.961 . S
C322 C321 1.502 . S
C323 H309 0.960 . S
C323 H310 0.961 . S
C323 H311 0.959 . S
C323 C321 1.561 . S
C324 C321 1.526 . S
C324 C325 1.396 . S
C324 C329 1.390 . S
C325 C319 1.465 . S
C325 C324 1.396 . S
C325 C326 1.399 . S
C326 H312 0.929 . S
C326 C325 1.399 . S
C326 C327 1.385 . S
C327 H313 0.931 . S
C327 C326 1.385 . S
C327 C328 1.389 . S
C328 C327 1.389 . S
C328 C329 1.387 . S
C329 H314 0.930 . S
C329 C324 1.390 . S
C329 C328 1.387 . S
H330 C342 0.930 . S
H331 C344 0.930 . S
H332 C345 0.930 . S
H333 C349 0.959 . S
H334 C349 0.959 . S
H335 C349 0.961 . S
H336 C350 0.960 . S
H337 C350 0.961 . S
H338 C350 0.959 . S
H339 C353 0.929 . S
H340 C354 0.931 . S
H341 C356 0.930 . S
C342 H330 0.930 . S
C342 C343 1.399 . S
C342 C347 1.399 . S
C343 C342 1.399 . S
C343 C344 1.376 . S
C344 H331 0.930 . S
C344 C343 1.376 . S
C344 C345 1.388 . S
C345 H332 0.930 . S
C345 C344 1.388 . S
C345 C346 1.390 . S
C346 C345 1.390 . S
C346 C347 1.394 . S
C346 C352 1.465 . S
C347 C342 1.399 . S
C347 C346 1.394 . S
C347 C348 1.516 . S
C348 C347 1.516 . S
C348 C349 1.502 . S
C348 C350 1.561 . S
C348 C351 1.526 . S
C349 H333 0.959 . S
C349 H334 0.959 . S
C349 H335 0.961 . S
C349 C348 1.502 . S
C350 H336 0.960 . S
C350 H337 0.961 . S
C350 H338 0.959 . S
C350 C348 1.561 . S
C351 C348 1.526 . S
C351 C352 1.396 . S
C351 C356 1.390 . S
C352 C346 1.465 . S
C352 C351 1.396 . S
C352 C353 1.399 . S
C353 H339 0.929 . S
C353 C352 1.399 . S
C353 C354 1.385 . S
C354 H340 0.931 . S
C354 C353 1.385 . S
C354 C355 1.389 . S
C355 C354 1.389 . S
C355 C356 1.387 . S
C356 H341 0.930 . S
C356 C351 1.390 . S
C356 C355 1.387 . S
H357 C369 0.930 . S
H358 C371 0.930 . S
H359 C372 0.930 . S
H360 C376 0.959 . S
H361 C376 0.959 . S
H362 C376 0.961 . S
H363 C377 0.960 . S
H364 C377 0.964 . S
H365 C377 0.959 . S
H366 C380 0.929 . S
H367 C381 0.931 . S
H368 C383 0.930 . S
C369 H357 0.930 . S
C369 C370 1.399 . S
C369 C374 1.399 . S
C370 C369 1.399 . S
C370 C371 1.376 . S
C371 H358 0.930 . S
C371 C370 1.376 . S
C371 C372 1.388 . S
C372 H359 0.930 . S
C372 C371 1.388 . S
C372 C373 1.390 . S
C373 C372 1.390 . S
C373 C374 1.394 . S
C373 C379 1.465 . S
C374 C369 1.399 . S
C374 C373 1.394 . S
C374 C375 1.516 1_455 S
C375 C374 1.516 1_655 S
C375 C376 1.502 . S
C375 C377 1.561 1_655 S
C375 C378 1.526 . S
C376 H360 0.959 . S
C376 H361 0.959 . S
C376 H362 0.961 . S
C376 C375 1.502 . S
C377 H363 0.960 . S
C377 H364 0.964 . S
C377 H365 0.959 . S
C377 C375 1.561 1_455 S
C378 C375 1.526 . S
C378 C379 1.396 1_655 S
C378 C383 1.390 . S
C379 C373 1.465 . S
C379 C378 1.396 1_455 S
C379 C380 1.399 . S
C380 H366 0.929 . S
C380 C379 1.399 . S
C380 C381 1.385 1_455 S
C381 H367 0.931 . S
C381 C380 1.385 1_655 S
C381 C382 1.389 . S
C382 C381 1.389 . S
C382 C383 1.387 . S
C383 H368 0.930 . S
C383 C378 1.390 . S
C383 C382 1.387 . S
H384 C396 0.930 1_565 S
H385 C398 0.930 . S
H386 C399 0.930 . S
H387 C403 0.959 . S
H388 C403 0.959 . S
H389 C403 0.961 . S
H390 C404 0.960 . S
H391 C404 0.961 . S
H392 C404 0.959 . S
H393 C407 0.929 . S
H394 C408 0.931 . S
H395 C410 0.930 . S
C396 H384 0.930 1_545 S
C396 C397 1.399 . S
C396 C401 1.399 1_545 S
C397 C396 1.399 . S
C397 C398 1.376 . S
C398 H385 0.930 . S
C398 C397 1.376 . S
C398 C399 1.388 . S
C399 H386 0.930 . S
C399 C398 1.388 . S
C399 C400 1.390 . S
C400 C399 1.390 . S
C400 C401 1.394 1_545 S
C400 C406 1.465 . S
C401 C396 1.399 1_565 S
C401 C400 1.394 1_565 S
C401 C402 1.516 . S
C402 C401 1.516 . S
C402 C403 1.502 . S
C402 C404 1.561 . S
C402 C405 1.526 . S
C403 H387 0.959 . S
C403 H388 0.959 . S
C403 H389 0.961 . S
C403 C402 1.502 . S
C404 H390 0.960 . S
C404 H391 0.961 . S
C404 H392 0.959 . S
C404 C402 1.561 . S
C405 C402 1.526 . S
C405 C406 1.396 1_565 S
C405 C410 1.390 . S
C406 C400 1.465 . S
C406 C405 1.396 1_545 S
C406 C407 1.399 . S
C407 H393 0.929 . S
C407 C406 1.399 . S
C407 C408 1.385 . S
C408 H394 0.931 . S
C408 C407 1.385 . S
C408 C409 1.389 1_545 S
C409 C408 1.389 1_565 S
C409 C410 1.387 . S
C410 H395 0.930 . S
C410 C405 1.390 . S
C410 C409 1.387 . S
H411 C423 0.930 . S
H412 C425 0.930 . S
H413 C426 0.930 . S
H414 C430 0.959 . S
H415 C430 0.959 . S
H416 C430 0.961 . S
H417 C431 0.960 . S
H418 C431 0.961 . S
H419 C431 0.959 . S
H420 C434 0.929 . S
H421 C435 0.931 . S
H422 C437 0.930 . S
C423 H411 0.930 . S
C423 C424 1.399 . S
C423 C428 1.399 . S
C424 C423 1.399 . S
C424 C425 1.376 . S
C425 H412 0.930 . S
C425 C424 1.376 . S
C425 C426 1.388 . S
C426 H413 0.930 . S
C426 C425 1.388 . S
C426 C427 1.390 . S
C427 C426 1.390 . S
C427 C428 1.394 . S
C427 C433 1.465 . S
C428 C423 1.399 . S
C428 C427 1.394 . S
C428 C429 1.516 . S
C429 C428 1.516 . S
C429 C430 1.502 . S
C429 C431 1.561 . S
C429 C432 1.526 . S
C430 H414 0.959 . S
C430 H415 0.959 . S
C430 H416 0.961 . S
C430 C429 1.502 . S
C431 H417 0.960 . S
C431 H418 0.961 . S
C431 H419 0.959 . S
C431 C429 1.561 . S
C432 C429 1.526 . S
C432 C433 1.396 . S
C432 C437 1.390 . S
C433 C427 1.465 . S
C433 C432 1.396 . S
C433 C434 1.399 . S
C434 H420 0.929 . S
C434 C433 1.399 . S
C434 C435 1.385 . S
C435 H421 0.931 . S
C435 C434 1.385 . S
C435 C436 1.389 . S
C436 C435 1.389 . S
C436 C437 1.387 . S
C437 H422 0.930 . S
C437 C432 1.390 . S
C437 C436 1.387 . S
H438 C450 0.930 . S
H439 C452 0.930 . S
H440 C453 0.930 . S
H441 C457 0.959 . S
H442 C457 0.959 . S
H443 C457 0.961 . S
H444 C458 0.960 . S
H445 C458 0.961 . S
H446 C458 0.959 . S
H447 C461 0.929 . S
H448 C462 0.931 . S
H449 C464 0.930 . S
C450 H438 0.930 . S
C450 C451 1.399 . S
C450 C455 1.399 . S
C451 C450 1.399 . S
C451 C452 1.376 . S
C452 H439 0.930 . S
C452 C451 1.376 . S
C452 C453 1.388 1_655 S
C453 H440 0.930 . S
C453 C452 1.388 1_455 S
C453 C454 1.390 . S
C454 C453 1.390 . S
C454 C455 1.394 1_455 S
C454 C460 1.465 . S
C455 C450 1.399 . S
C455 C454 1.394 1_655 S
C455 C456 1.516 . S
C456 C455 1.516 . S
C456 C457 1.502 . S
C456 C458 1.561 1_655 S
C456 C459 1.526 1_655 S
C457 H441 0.959 . S
C457 H442 0.959 . S
C457 H443 0.961 . S
C457 C456 1.502 . S
C458 H444 0.960 . S
C458 H445 0.961 . S
C458 H446 0.959 . S
C458 C456 1.561 1_455 S
C459 C456 1.526 1_455 S
C459 C460 1.396 . S
C459 C464 1.390 . S
C460 C454 1.465 . S
C460 C459 1.396 . S
C460 C461 1.399 . S
C461 H447 0.929 . S
C461 C460 1.399 . S
C461 C462 1.385 . S
C462 H448 0.931 . S
C462 C461 1.385 . S
C462 C463 1.389 . S
C463 C462 1.389 . S
C463 C464 1.387 . S
C464 H449 0.930 . S
C464 C459 1.390 . S
C464 C463 1.387 . S
H465 C477 0.930 . S
H466 C479 0.930 . S
H467 C480 0.930 1_545 S
H468 C484 0.959 . S
H469 C484 0.959 . S
H470 C484 0.961 . S
H471 C485 0.960 . S
H472 C485 0.961 . S
H473 C485 0.959 . S
H474 C488 0.929 . S
H475 C489 0.931 . S
H476 C491 0.930 . S
C477 H465 0.930 . S
C477 C478 1.399 . S
C477 C482 1.399 . S
C478 C477 1.399 . S
C478 C479 1.376 . S
C479 H466 0.930 . S
C479 C478 1.376 . S
C479 C480 1.388 . S
C480 H467 0.930 1_565 S
C480 C479 1.388 . S
C480 C481 1.390 1_565 S
C481 C480 1.390 1_545 S
C481 C482 1.394 1_545 S
C481 C487 1.465 . S
C482 C477 1.399 . S
C482 C481 1.394 1_565 S
C482 C483 1.516 . S
C483 C482 1.516 . S
C483 C484 1.502 . S
C483 C485 1.561 1_565 S
C483 C486 1.526 1_565 S
C484 H468 0.959 . S
C484 H469 0.959 . S
C484 H470 0.961 . S
C484 C483 1.502 . S
C485 H471 0.960 . S
C485 H472 0.961 . S
C485 H473 0.959 . S
C485 C483 1.561 1_545 S
C486 C483 1.526 1_545 S
C486 C487 1.396 . S
C486 C491 1.390 . S
C487 C481 1.465 . S
C487 C486 1.396 . S
C487 C488 1.399 . S
C488 H474 0.929 . S
C488 C487 1.399 . S
C488 C489 1.385 . S
C489 H475 0.931 . S
C489 C488 1.385 . S
C489 C490 1.389 . S
C490 C489 1.389 . S
C490 C491 1.387 . S
C491 H476 0.930 . S
C491 C486 1.390 . S
C491 C490 1.387 . S
H492 C504 0.930 . S
H493 C506 0.930 1_565 S
H494 C507 0.930 . S
H495 C511 0.959 . S
H496 C511 0.959 . S
H497 C511 0.961 . S
H498 C512 0.960 . S
H499 C512 0.961 . S
H500 C512 0.959 . S
H501 C515 0.929 . S
H502 C516 0.931 . S
H503 C518 0.930 . S
C504 H492 0.930 . S
C504 C505 1.399 . S
C504 C509 1.399 . S
C505 C504 1.399 . S
C505 C506 1.376 . S
C506 H493 0.930 1_545 S
C506 C505 1.376 . S
C506 C507 1.388 . S
C507 H494 0.930 . S
C507 C506 1.388 . S
C507 C508 1.390 . S
C508 C507 1.390 . S
C508 C509 1.394 . S
C508 C514 1.465 . S
C509 C504 1.399 . S
C509 C508 1.394 . S
C509 C510 1.516 . S
C510 C509 1.516 . S
C510 C511 1.502 . S
C510 C512 1.561 . S
C510 C513 1.526 . S
C511 H495 0.959 . S
C511 H496 0.959 . S
C511 H497 0.961 . S
C511 C510 1.502 . S
C512 H498 0.960 . S
C512 H499 0.961 . S
C512 H500 0.959 . S
C512 C510 1.561 . S
C513 C510 1.526 . S
C513 C514 1.396 . S
C513 C518 1.390 . S
C514 C508 1.465 . S
C514 C513 1.396 . S
C514 C515 1.399 . S
C515 H501 0.929 . S
C515 C514 1.399 . S
C515 C516 1.385 . S
C516 H502 0.931 . S
C516 C515 1.385 . S
C516 C517 1.389 . S
C517 C516 1.389 . S
C517 C518 1.387 . S
C518 H503 0.930 . S
C518 C513 1.390 . S
C518 C517 1.387 . S
H519 C531 0.930 . S
H520 C533 0.930 . S
H521 C534 0.930 . S
H522 C538 0.959 . S
H523 C538 0.959 . S
H524 C538 0.961 . S
H525 C539 0.960 . S
H526 C539 0.961 . S
H527 C539 0.959 . S
H528 C542 0.929 . S
H529 C543 0.931 . S
H530 C545 0.930 . S
C531 H519 0.930 . S
C531 C532 1.399 . S
C531 C536 1.399 . S
C532 C531 1.399 . S
C532 C533 1.376 . S
C533 H520 0.930 . S
C533 C532 1.376 . S
C533 C534 1.388 . S
C534 H521 0.930 . S
C534 C533 1.388 . S
C534 C535 1.390 . S
C535 C534 1.390 . S
C535 C536 1.394 . S
C535 C541 1.465 . S
C536 C531 1.399 . S
C536 C535 1.394 . S
C536 C537 1.516 . S
C537 C536 1.516 . S
C537 C538 1.502 . S
C537 C539 1.561 . S
C537 C540 1.526 . S
C538 H522 0.959 . S
C538 H523 0.959 . S
C538 H524 0.961 . S
C538 C537 1.502 . S
C539 H525 0.960 . S
C539 H526 0.961 . S
C539 H527 0.959 . S
C539 C537 1.561 . S
C540 C537 1.526 . S
C540 C541 1.396 . S
C540 C545 1.390 . S
C541 C535 1.465 . S
C541 C540 1.396 . S
C541 C542 1.399 . S
C542 H528 0.929 . S
C542 C541 1.399 . S
C542 C543 1.385 . S
C543 H529 0.931 . S
C543 C542 1.385 . S
C543 C544 1.389 . S
C544 C543 1.389 . S
C544 C545 1.387 . S
C545 H530 0.930 . S
C545 C540 1.390 . S
C545 C544 1.387 . S
H546 C558 0.930 . S
H547 C560 0.930 . S
H548 C561 0.930 . S
H549 C565 0.959 . S
H550 C565 0.959 . S
H551 C565 0.961 . S
H552 C566 0.960 . S
H553 C566 0.961 . S
H554 C566 0.959 . S
H555 C569 0.929 . S
H556 C570 0.928 1_565 S
H557 C572 0.930 . S
C558 H546 0.930 . S
C558 C559 1.399 . S
C558 C563 1.399 . S
C559 C558 1.399 . S
C559 C560 1.376 . S
C560 H547 0.930 . S
C560 C559 1.376 . S
C560 C561 1.388 . S
C561 H548 0.930 . S
C561 C560 1.388 . S
C561 C562 1.390 . S
C562 C561 1.390 . S
C562 C563 1.394 . S
C562 C568 1.465 . S
C563 C558 1.399 . S
C563 C562 1.394 . S
C563 C564 1.516 . S
C564 C563 1.516 . S
C564 C565 1.502 . S
C564 C566 1.561 . S
C564 C567 1.526 . S
C565 H549 0.959 . S
C565 H550 0.959 . S
C565 H551 0.961 . S
C565 C564 1.502 . S
C566 H552 0.960 . S
C566 H553 0.961 . S
C566 H554 0.959 . S
C566 C564 1.561 . S
C567 C564 1.526 . S
C567 C568 1.396 . S
C567 C572 1.390 . S
C568 C562 1.465 . S
C568 C567 1.396 . S
C568 C569 1.399 . S
C569 H555 0.929 . S
C569 C568 1.399 . S
C569 C570 1.385 . S
C570 H556 0.928 1_545 S
C570 C569 1.385 . S
C570 C571 1.389 . S
C571 C570 1.389 . S
C571 C572 1.387 . S
C572 H557 0.930 . S
C572 C567 1.390 . S
C572 C571 1.387 . S
H573 C585 0.930 . S
H574 C587 0.930 1_545 S
H575 C588 0.930 . S
H576 C592 0.959 . S
H577 C592 0.959 . S
H578 C592 0.961 . S
H579 C593 0.960 . S
H580 C593 0.961 . S
H581 C593 0.959 . S
H582 C596 0.929 . S
H583 C597 0.931 . S
H584 C599 0.930 . S
C585 H573 0.930 . S
C585 C586 1.399 . S
C585 C590 1.399 . S
C586 C585 1.399 . S
C586 C587 1.376 . S
C587 H574 0.930 1_565 S
C587 C586 1.376 . S
C587 C588 1.388 . S
C588 H575 0.930 . S
C588 C587 1.388 . S
C588 C589 1.390 . S
C589 C588 1.390 . S
C589 C590 1.394 . S
C589 C595 1.465 . S
C590 C585 1.399 . S
C590 C589 1.394 . S
C590 C591 1.516 . S
C591 C590 1.516 . S
C591 C592 1.502 . S
C591 C593 1.561 . S
C591 C594 1.526 . S
C592 H576 0.959 . S
C592 H577 0.959 . S
C592 H578 0.961 . S
C592 C591 1.502 . S
C593 H579 0.960 . S
C593 H580 0.961 . S
C593 H581 0.959 . S
C593 C591 1.561 . S
C594 C591 1.526 . S
C594 C595 1.396 . S
C594 C599 1.390 . S
C595 C589 1.465 . S
C595 C594 1.396 . S
C595 C596 1.399 . S
C596 H582 0.929 . S
C596 C595 1.399 . S
C596 C597 1.385 . S
C597 H583 0.931 . S
C597 C596 1.385 . S
C597 C598 1.389 . S
C598 C597 1.389 . S
C598 C599 1.387 . S
C599 H584 0.930 . S
C599 C594 1.390 . S
C599 C598 1.387 . S
H600 C612 0.930 . S
H601 C614 0.930 . S
H602 C615 0.930 . S
H603 C619 0.959 . S
H604 C619 0.959 . S
H605 C619 0.961 . S
H606 C620 0.960 . S
H607 C620 0.961 . S
H608 C620 0.959 . S
H609 C623 0.929 . S
H610 C624 0.931 . S
H611 C626 0.930 . S
C612 H600 0.930 . S
C612 C613 1.399 . S
C612 C617 1.399 . S
C613 C612 1.399 . S
C613 C614 1.376 . S
C614 H601 0.930 . S
C614 C613 1.376 . S
C614 C615 1.388 . S
C615 H602 0.930 . S
C615 C614 1.388 . S
C615 C616 1.390 . S
C616 C615 1.390 . S
C616 C617 1.394 . S
C616 C622 1.465 . S
C617 C612 1.399 . S
C617 C616 1.394 . S
C617 C618 1.516 . S
C618 C617 1.516 . S
C618 C619 1.502 . S
C618 C620 1.561 . S
C618 C621 1.526 . S
C619 H603 0.959 . S
C619 H604 0.959 . S
C619 H605 0.961 . S
C619 C618 1.502 . S
C620 H606 0.960 . S
C620 H607 0.961 . S
C620 H608 0.959 . S
C620 C618 1.561 . S
C621 C618 1.526 . S
C621 C622 1.396 . S
C621 C626 1.390 . S
C622 C616 1.465 . S
C622 C621 1.396 . S
C622 C623 1.399 . S
C623 H609 0.929 . S
C623 C622 1.399 . S
C623 C624 1.385 . S
C624 H610 0.931 . S
C624 C623 1.385 . S
C624 C625 1.389 . S
C625 C624 1.389 . S
C625 C626 1.387 . S
C626 H611 0.930 . S
C626 C621 1.390 . S
C626 C625 1.387 . S
H627 C639 0.930 . S
H628 C641 0.930 . S
H629 C642 0.930 . S
H630 C646 0.959 . S
H631 C646 0.959 . S
H632 C646 0.961 . S
H633 C647 0.960 . S
H634 C647 0.961 . S
H635 C647 0.959 . S
H636 C650 0.929 . S
H637 C651 0.933 . S
H638 C653 0.930 . S
C639 H627 0.930 . S
C639 C640 1.399 . S
C639 C644 1.399 . S
C640 C639 1.399 . S
C640 C641 1.376 . S
C641 H628 0.930 . S
C641 C640 1.376 . S
C641 C642 1.388 . S
C642 H629 0.930 . S
C642 C641 1.388 . S
C642 C643 1.390 . S
C643 C642 1.390 . S
C643 C644 1.394 . S
C643 C649 1.465 . S
C644 C639 1.399 . S
C644 C643 1.394 . S
C644 C645 1.516 . S
C645 C644 1.516 . S
C645 C646 1.502 . S
C645 C647 1.561 . S
C645 C648 1.526 . S
C646 H630 0.959 . S
C646 H631 0.959 . S
C646 H632 0.961 . S
C646 C645 1.502 . S
C647 H633 0.960 . S
C647 H634 0.961 . S
C647 H635 0.959 . S
C647 C645 1.561 . S
C648 C645 1.526 . S
C648 C649 1.396 . S
C648 C653 1.390 . S
C649 C643 1.465 . S
C649 C648 1.396 . S
C649 C650 1.399 . S
C650 H636 0.929 . S
C650 C649 1.399 . S
C650 C651 1.385 . S
C651 H637 0.933 . S
C651 C650 1.385 . S
C651 C652 1.389 . S
C652 C651 1.389 . S
C652 C653 1.387 . S
C653 H638 0.930 . S
C653 C648 1.390 . S
C653 C652 1.387 . S
H654 C666 0.930 . S
H655 C668 0.930 . S
H656 C669 0.930 . S
H657 C673 0.959 . S
H658 C673 0.959 . S
H659 C673 0.961 . S
H660 C674 0.960 . S
H661 C674 0.961 . S
H662 C674 0.959 . S
H663 C677 0.929 . S
H664 C678 0.931 . S
H665 C680 0.930 . S
C666 H654 0.930 . S
C666 C667 1.399 . S
C666 C671 1.399 . S
C667 C666 1.399 . S
C667 C668 1.376 . S
C668 H655 0.930 . S
C668 C667 1.376 . S
C668 C669 1.388 . S
C669 H656 0.930 . S
C669 C668 1.388 . S
C669 C670 1.390 . S
C670 C669 1.390 . S
C670 C671 1.394 . S
C670 C676 1.465 . S
C671 C666 1.399 . S
C671 C670 1.394 . S
C671 C672 1.516 . S
C672 C671 1.516 . S
C672 C673 1.502 . S
C672 C674 1.561 . S
C672 C675 1.526 . S
C673 H657 0.959 . S
C673 H658 0.959 . S
C673 H659 0.961 . S
C673 C672 1.502 . S
C674 H660 0.960 . S
C674 H661 0.961 . S
C674 H662 0.959 . S
C674 C672 1.561 . S
C675 C672 1.526 . S
C675 C676 1.396 . S
C675 C680 1.390 . S
C676 C670 1.465 . S
C676 C675 1.396 . S
C676 C677 1.399 . S
C677 H663 0.929 . S
C677 C676 1.399 . S
C677 C678 1.385 . S
C678 H664 0.931 . S
C678 C677 1.385 . S
C678 C679 1.389 . S
C679 C678 1.389 . S
C679 C680 1.387 . S
C680 H665 0.930 . S
C680 C675 1.390 . S
C680 C679 1.387 . S
H681 C693 0.930 . S
H682 C695 0.930 . S
H683 C696 0.930 . S
H684 C700 0.959 . S
H685 C700 0.959 . S
H686 C700 0.961 . S
H687 C701 0.960 . S
H688 C701 0.961 . S
H689 C701 0.959 . S
H690 C704 0.929 . S
H691 C705 0.931 . S
H692 C707 0.930 . S
C693 H681 0.930 . S
C693 C694 1.399 1_455 S
C693 C698 1.399 . S
C694 C693 1.399 1_655 S
C694 C695 1.376 . S
C695 H682 0.930 . S
C695 C694 1.376 . S
C695 C696 1.388 . S
C696 H683 0.930 . S
C696 C695 1.388 . S
C696 C697 1.390 . S
C697 C696 1.390 . S
C697 C698 1.394 1_655 S
C697 C703 1.465 . S
C698 C693 1.399 . S
C698 C697 1.394 1_455 S
C698 C699 1.516 . S
C699 C698 1.516 . S
C699 C700 1.502 . S
C699 C701 1.561 . S
C699 C702 1.526 . S
C700 H684 0.959 . S
C700 H685 0.959 . S
C700 H686 0.961 . S
C700 C699 1.502 . S
C701 H687 0.960 . S
C701 H688 0.961 . S
C701 H689 0.959 . S
C701 C699 1.561 . S
C702 C699 1.526 . S
C702 C703 1.396 1_455 S
C702 C707 1.390 . S
C703 C697 1.465 . S
C703 C702 1.396 1_655 S
C703 C704 1.399 . S
C704 H690 0.929 . S
C704 C703 1.399 . S
C704 C705 1.385 . S
C705 H691 0.931 . S
C705 C704 1.385 . S
C705 C706 1.389 1_655 S
C706 C705 1.389 1_455 S
C706 C707 1.387 . S
C707 H692 0.930 . S
C707 C702 1.390 . S
C707 C706 1.387 . S
H708 C720 0.930 . S
H709 C722 0.930 . S
H710 C723 0.930 . S
H711 C727 0.959 . S
H712 C727 0.959 . S
H713 C727 0.928 1_554 S
H714 C728 0.960 . S
H715 C728 0.961 . S
H716 C728 0.959 . S
H717 C731 0.929 . S
H718 C732 0.931 . S
H719 C734 0.930 . S
C720 H708 0.930 . S
C720 C721 1.399 . S
C720 C725 1.399 . S
C721 C720 1.399 . S
C721 C722 1.376 1_545 S
C722 H709 0.930 . S
C722 C721 1.376 1_565 S
C722 C723 1.388 . S
C723 H710 0.930 . S
C723 C722 1.388 . S
C723 C724 1.390 . S
C724 C723 1.390 . S
C724 C725 1.394 1_565 S
C724 C730 1.465 1_554 S
C725 C720 1.399 . S
C725 C724 1.394 1_545 S
C725 C726 1.516 1_554 S
C726 C725 1.516 1_556 S
C726 C727 1.502 . S
C726 C728 1.561 . S
C726 C729 1.526 . S
C727 H711 0.959 . S
C727 H712 0.959 . S
C727 H713 0.928 1_556 S
C727 C726 1.502 . S
C728 H714 0.960 . S
C728 H715 0.961 . S
C728 H716 0.959 . S
C728 C726 1.561 . S
C729 C726 1.526 . S
C729 C730 1.396 1_545 S
C729 C734 1.390 . S
C730 C724 1.465 1_556 S
C730 C729 1.396 1_565 S
C730 C731 1.399 . S
C731 H717 0.929 . S
C731 C730 1.399 . S
C731 C732 1.385 . S
C732 H718 0.931 . S
C732 C731 1.385 . S
C732 C733 1.389 . S
C733 C732 1.389 . S
C733 C734 1.387 1_565 S
C734 H719 0.930 . S
C734 C729 1.390 . S
C734 C733 1.387 1_545 S
H735 C747 0.930 . S
H736 C749 0.930 . S
H737 C750 0.930 . S
H738 C754 0.959 . S
H739 C754 0.959 . S
H740 C754 0.961 . S
H741 C755 0.960 . S
H742 C755 0.961 . S
H743 C755 0.959 . S
H744 C758 0.929 . S
H745 C759 0.931 . S
H746 C761 0.930 . S
C747 H735 0.930 . S
C747 C748 1.399 . S
C747 C752 1.399 . S
C748 C747 1.399 . S
C748 C749 1.376 . S
C749 H736 0.930 . S
C749 C748 1.376 . S
C749 C750 1.388 . S
C750 H737 0.930 . S
C750 C749 1.388 . S
C750 C751 1.390 . S
C751 C750 1.390 . S
C751 C752 1.394 . S
C751 C757 1.465 . S
C752 C747 1.399 . S
C752 C751 1.394 . S
C752 C753 1.516 . S
C753 C752 1.516 . S
C753 C754 1.502 . S
C753 C755 1.561 . S
C753 C756 1.526 . S
C754 H738 0.959 . S
C754 H739 0.959 . S
C754 H740 0.961 . S
C754 C753 1.502 . S
C755 H741 0.960 . S
C755 H742 0.961 . S
C755 H743 0.959 . S
C755 C753 1.561 . S
C756 C753 1.526 . S
C756 C757 1.396 . S
C756 C761 1.390 . S
C757 C751 1.465 . S
C757 C756 1.396 . S
C757 C758 1.399 . S
C758 H744 0.929 . S
C758 C757 1.399 . S
C758 C759 1.385 . S
C759 H745 0.931 . S
C759 C758 1.385 . S
C759 C760 1.389 . S
C760 C759 1.389 . S
C760 C761 1.387 . S
C761 H746 0.930 . S
C761 C756 1.390 . S
C761 C760 1.387 . S
H762 C774 0.930 1_655 S
H763 C776 0.930 . S
H764 C777 0.930 . S
H765 C781 0.959 . S
H766 C781 0.959 . S
H767 C781 0.961 . S
H768 C782 0.960 . S
H769 C782 0.961 . S
H770 C782 0.959 1_455 S
H771 C785 0.929 . S
H772 C786 0.931 . S
H773 C788 0.930 . S
C774 H762 0.930 1_455 S
C774 C775 1.399 . S
C774 C779 1.399 1_455 S
C775 C774 1.399 . S
C775 C776 1.376 . S
C776 H763 0.930 . S
C776 C775 1.376 . S
C776 C777 1.388 . S
C777 H764 0.930 . S
C777 C776 1.388 . S
C777 C778 1.390 . S
C778 C777 1.390 . S
C778 C779 1.394 1_455 S
C778 C784 1.465 . S
C779 C774 1.399 1_655 S
C779 C778 1.394 1_655 S
C779 C780 1.516 . S
C780 C779 1.516 . S
C780 C781 1.502 . S
C780 C782 1.561 . S
C780 C783 1.526 . S
C781 H765 0.959 . S
C781 H766 0.959 . S
C781 H767 0.961 . S
C781 C780 1.502 . S
C782 H768 0.960 . S
C782 H769 0.961 . S
C782 H770 0.959 1_655 S
C782 C780 1.561 . S
C783 C780 1.526 . S
C783 C784 1.396 1_655 S
C783 C788 1.390 . S
C784 C778 1.465 . S
C784 C783 1.396 1_455 S
C784 C785 1.399 . S
C785 H771 0.929 . S
C785 C784 1.399 . S
C785 C786 1.385 . S
C786 H772 0.931 . S
C786 C785 1.385 . S
C786 C787 1.389 1_455 S
C787 C786 1.389 1_655 S
C787 C788 1.387 . S
C788 H773 0.930 . S
C788 C783 1.390 . S
C788 C787 1.387 . S
H789 C801 0.930 . S
H790 C803 0.930 . S
H791 C804 0.930 . S
H792 C808 0.959 . S
H793 C808 0.972 . S
H794 C808 0.961 . S
H795 C809 0.960 . S
H796 C809 0.961 . S
H797 C809 0.959 . S
H798 C812 0.929 . S
H799 C813 0.931 . S
H800 C815 0.930 . S
C801 H789 0.930 . S
C801 C802 1.399 1_545 S
C801 C806 1.399 . S
C802 C801 1.399 1_565 S
C802 C803 1.376 . S
C803 H790 0.930 . S
C803 C802 1.376 . S
C803 C804 1.388 . S
C804 H791 0.930 . S
C804 C803 1.388 . S
C804 C805 1.390 . S
C805 C804 1.390 . S
C805 C806 1.394 1_565 S
C805 C811 1.465 1_554 S
C806 C801 1.399 . S
C806 C805 1.394 1_545 S
C806 C807 1.516 . S
C807 C806 1.516 . S
C807 C808 1.502 . S
C807 C809 1.561 . S
C807 C810 1.526 1_554 S
C808 H792 0.959 . S
C808 H793 0.972 . S
C808 H794 0.961 . S
C808 C807 1.502 . S
C809 H795 0.960 . S
C809 H796 0.961 . S
C809 H797 0.959 . S
C809 C807 1.561 . S
C810 C807 1.526 1_556 S
C810 C811 1.396 1_545 S
C810 C815 1.390 . S
C811 C805 1.465 1_556 S
C811 C810 1.396 1_565 S
C811 C812 1.399 . S
C812 H798 0.929 . S
C812 C811 1.399 . S
C812 C813 1.385 . S
C813 H799 0.931 . S
C813 C812 1.385 . S
C813 C814 1.389 1_565 S
C814 C813 1.389 1_545 S
C814 C815 1.387 . S
C815 H800 0.930 . S
C815 C810 1.390 . S
C815 C814 1.387 . S
C181 C161 1.412 . S
C193 C7 1.384 . S
C208 C21 1.403 . S
C220 C91 1.380 . S
C235 C35 1.377 . S
C247 C105 1.391 . S
C262 C49 1.418 . S
C274 C119 1.431 . S
C289 C133 1.408 . S
C301 C63 1.382 . S
C316 C77 1.414 . S
C328 C147 1.431 . S
C343 C55 1.273 . S
C355 C13 1.263 . S
C370 C69 1.270 . S
C382 C27 1.254 . S
C397 C83 1.214 . S
C409 C41 1.193 . S
C424 C97 1.272 . S
C436 C139 1.259 . S
C451 C111 1.184 . S
C463 C153 1.201 . S
C478 C125 1.183 . S
C490 C167 1.198 . S
C505 C120 0.531 . S
C517 C8 0.606 . S
C532 C22 0.582 . S
C544 C134 0.485 . S
C559 C148 0.564 . S
C571 C36 0.474 . S
C586 C162 0.593 . S
C598 C50 0.587 . S
C613 C92 0.470 . S
C625 C64 0.527 . S
C640 C78 0.563 . S
C652 C106 0.474 . S
C667 C137 1.560 . S
C679 C11 1.549 . S
C694 C25 1.559 . S
C706 C151 1.549 . S
C721 C165 1.549 . S
C733 C39 1.558 . S
C748 C53 1.553 . S
C760 C95 1.556 . S
C775 C67 1.559 . S
C787 C109 1.549 . S
C802 C123 1.559 . S
C814 C81 1.550 . S
