# Generated by pormake.
# Topology wiu, (6)-cn, num edge types: 1
# Building blocks:
#     Node 0, Type 0, BuildingBlock: HISSIN_clean_sbu_0, # of connection points: 6
#     Node 1, Type 0, BuildingBlock: HISSIN_clean_sbu_0, # of connection points: 6
#     Node 2, Type 0, BuildingBlock: HISSIN_clean_sbu_0, # of connection points: 6
#     Node 3, Type 0, BuildingBlock: HISSIN_clean_sbu_0, # of connection points: 6
#     Node 4, Type 0, BuildingBlock: HISSIN_clean_sbu_0, # of connection points: 6
#     Node 5, Type 0, BuildingBlock: HISSIN_clean_sbu_0, # of connection points: 6
#     Node 6, Type 0, BuildingBlock: HISSIN_clean_sbu_0, # of connection points: 6
#     Node 7, Type 0, BuildingBlock: HISSIN_clean_sbu_0, # of connection points: 6
#     Node 8, Type 0, BuildingBlock: HISSIN_clean_sbu_0, # of connection points: 6
#     Node 9, Type 0, BuildingBlock: HISSIN_clean_sbu_0, # of connection points: 6
#     Node 10, Type 0, BuildingBlock: HISSIN_clean_sbu_0, # of connection points: 6
#     Node 11, Type 0, BuildingBlock: HISSIN_clean_sbu_0, # of connection points: 6
#     Node 12, Type 0, BuildingBlock: HISSIN_clean_sbu_0, # of connection points: 6
#     Node 13, Type 0, BuildingBlock: HISSIN_clean_sbu_0, # of connection points: 6
#     Node 14, Type 0, BuildingBlock: HISSIN_clean_sbu_0, # of connection points: 6
#     Node 15, Type 0, BuildingBlock: HISSIN_clean_sbu_0, # of connection points: 6
#     Edge 16, Type (0, 0), BuildingBlock: ZUJKAS_clean_linker_0, # of connection points: 2
#     Edge 17, Type (0, 0), BuildingBlock: ZUJKAS_clean_linker_0, # of connection points: 2
#     Edge 18, Type (0, 0), BuildingBlock: ZUJKAS_clean_linker_0, # of connection points: 2
#     Edge 19, Type (0, 0), BuildingBlock: ZUJKAS_clean_linker_0, # of connection points: 2
#     Edge 20, Type (0, 0), BuildingBlock: ZUJKAS_clean_linker_0, # of connection points: 2
#     Edge 21, Type (0, 0), BuildingBlock: ZUJKAS_clean_linker_0, # of connection points: 2
#     Edge 22, Type (0, 0), BuildingBlock: ZUJKAS_clean_linker_0, # of connection points: 2
#     Edge 23, Type (0, 0), BuildingBlock: ZUJKAS_clean_linker_0, # of connection points: 2
#     Edge 24, Type (0, 0), BuildingBlock: ZUJKAS_clean_linker_0, # of connection points: 2
#     Edge 25, Type (0, 0), BuildingBlock: ZUJKAS_clean_linker_0, # of connection points: 2
#     Edge 26, Type (0, 0), BuildingBlock: ZUJKAS_clean_linker_0, # of connection points: 2
#     Edge 27, Type (0, 0), BuildingBlock: ZUJKAS_clean_linker_0, # of connection points: 2
#     Edge 28, Type (0, 0), BuildingBlock: ZUJKAS_clean_linker_0, # of connection points: 2
#     Edge 29, Type (0, 0), BuildingBlock: ZUJKAS_clean_linker_0, # of connection points: 2
#     Edge 30, Type (0, 0), BuildingBlock: ZUJKAS_clean_linker_0, # of connection points: 2
#     Edge 31, Type (0, 0), BuildingBlock: ZUJKAS_clean_linker_0, # of connection points: 2
#     Edge 32, Type (0, 0), BuildingBlock: ZUJKAS_clean_linker_0, # of connection points: 2
#     Edge 33, Type (0, 0), BuildingBlock: ZUJKAS_clean_linker_0, # of connection points: 2
#     Edge 34, Type (0, 0), BuildingBlock: ZUJKAS_clean_linker_0, # of connection points: 2
#     Edge 35, Type (0, 0), BuildingBlock: ZUJKAS_clean_linker_0, # of connection points: 2
#     Edge 36, Type (0, 0), BuildingBlock: ZUJKAS_clean_linker_0, # of connection points: 2
#     Edge 37, Type (0, 0), BuildingBlock: ZUJKAS_clean_linker_0, # of connection points: 2
#     Edge 38, Type (0, 0), BuildingBlock: ZUJKAS_clean_linker_0, # of connection points: 2
#     Edge 39, Type (0, 0), BuildingBlock: ZUJKAS_clean_linker_0, # of connection points: 2
#     Edge 40, Type (0, 0), BuildingBlock: ZUJKAS_clean_linker_0, # of connection points: 2
#     Edge 41, Type (0, 0), BuildingBlock: ZUJKAS_clean_linker_0, # of connection points: 2
#     Edge 42, Type (0, 0), BuildingBlock: ZUJKAS_clean_linker_0, # of connection points: 2
#     Edge 43, Type (0, 0), BuildingBlock: ZUJKAS_clean_linker_0, # of connection points: 2
#     Edge 44, Type (0, 0), BuildingBlock: ZUJKAS_clean_linker_0, # of connection points: 2
#     Edge 45, Type (0, 0), BuildingBlock: ZUJKAS_clean_linker_0, # of connection points: 2
#     Edge 46, Type (0, 0), BuildingBlock: ZUJKAS_clean_linker_0, # of connection points: 2
#     Edge 47, Type (0, 0), BuildingBlock: ZUJKAS_clean_linker_0, # of connection points: 2
#     Edge 48, Type (0, 0), BuildingBlock: ZUJKAS_clean_linker_0, # of connection points: 2
#     Edge 49, Type (0, 0), BuildingBlock: ZUJKAS_clean_linker_0, # of connection points: 2
#     Edge 50, Type (0, 0), BuildingBlock: ZUJKAS_clean_linker_0, # of connection points: 2
#     Edge 51, Type (0, 0), BuildingBlock: ZUJKAS_clean_linker_0, # of connection points: 2
#     Edge 52, Type (0, 0), BuildingBlock: ZUJKAS_clean_linker_0, # of connection points: 2
#     Edge 53, Type (0, 0), BuildingBlock: ZUJKAS_clean_linker_0, # of connection points: 2
#     Edge 54, Type (0, 0), BuildingBlock: ZUJKAS_clean_linker_0, # of connection points: 2
#     Edge 55, Type (0, 0), BuildingBlock: ZUJKAS_clean_linker_0, # of connection points: 2
#     Edge 56, Type (0, 0), BuildingBlock: ZUJKAS_clean_linker_0, # of connection points: 2
#     Edge 57, Type (0, 0), BuildingBlock: ZUJKAS_clean_linker_0, # of connection points: 2
#     Edge 58, Type (0, 0), BuildingBlock: ZUJKAS_clean_linker_0, # of connection points: 2
#     Edge 59, Type (0, 0), BuildingBlock: ZUJKAS_clean_linker_0, # of connection points: 2
#     Edge 60, Type (0, 0), BuildingBlock: ZUJKAS_clean_linker_0, # of connection points: 2
#     Edge 61, Type (0, 0), BuildingBlock: ZUJKAS_clean_linker_0, # of connection points: 2
#     Edge 62, Type (0, 0), BuildingBlock: ZUJKAS_clean_linker_0, # of connection points: 2
#     Edge 63, Type (0, 0), BuildingBlock: ZUJKAS_clean_linker_0, # of connection points: 2
# Relax obj value: 0.433
# Max RMSD: 0.304
# Mean RMSD: 0.304
data_MOF--net-wiu--node1-HISSIN_clean_sbu_0--edge1-ZUJKAS_clean_linker_0
_symmetry_space_group_name_H-M    P1
_symmetry_Int_Tables_number       1
_symmetry_cell_setting            triclinic
loop_
_symmetry_equiv_pos_as_xyz
'x, y, z'
_cell_length_a     46.483865
_cell_length_b     46.473297
_cell_length_c     73.746721
_cell_angle_alpha  89.990394
_cell_angle_beta   90.448467
_cell_angle_gamma 89.987029
loop_
_atom_site_label
_atom_site_type_symbol
_atom_site_fract_x
_atom_site_fract_y
_atom_site_fract_z
_atom_type_partial_charge
Eu0 Eu 0.33346 0.1433 0.26434 0.0
Eu1 Eu 0.37423 0.09219 0.24846 0.0
C2 C 0.30648 0.08071 0.25763 0.0
C3 C 0.29896 0.21717 0.27019 0.0
C4 C 0.2744 0.23202 0.27585 0.0
C5 C 0.31335 0.25905 0.25267 0.0
C6 C 0.26924 0.26017 0.26993 0.0
C7 C 0.31843 0.23085 0.25856 0.0
C8 C 0.28861 0.27406 0.25822 0.0
C9 C 0.30351 0.1872 0.27602 0.0
O10 O 0.35687 0.11381 0.2228 0.0
O11 O 0.31824 0.13761 0.23481 0.0
C12 C 0.33167 0.12657 0.22069 0.0
O13 O 0.37251 0.16682 0.25345 0.0
O14 O 0.38276 0.05715 0.22961 0.0
O15 O 0.41517 0.06905 0.24933 0.0
O16 O 0.4047 0.12991 0.25356 0.0
C17 C 0.39918 0.15763 0.25302 0.0
O18 O 0.34991 0.1198 0.29007 0.0
O19 O 0.36766 0.07805 0.27776 0.0
O20 O 0.32931 0.07341 0.24824 0.0
O21 O 0.29319 0.16748 0.26524 0.0
O22 O 0.32917 0.18068 0.28204 0.0
O23 O 0.30583 0.10411 0.26759 0.0
C24 C 0.43079 0.05538 0.22039 0.0
C25 C 0.43295 0.08016 0.20962 0.0
C26 C 0.46826 0.03276 0.20265 0.0
C27 C 0.45236 0.08108 0.19527 0.0
C28 C 0.4487 0.03181 0.21697 0.0
C29 C 0.47002 0.05729 0.19152 0.0
C30 C 0.40937 0.054 0.23486 0.0
C31 C 0.35995 0.09324 0.29203 0.0
H32 H 0.25901 0.22172 0.2847 0.0
H33 H 0.3289 0.26913 0.24385 0.0
H34 H 0.24973 0.27082 0.27424 0.0
H35 H 0.33748 0.21967 0.25397 0.0
H36 H 0.41935 0.09864 0.21217 0.0
H37 H 0.48139 1.014 0.19998 0.0
H38 H 0.45347 0.10038 0.18707 0.0
H39 H 0.44726 1.01254 0.22518 0.0
Eu40 Eu 0.63382 0.57915 0.51469 0.0
Eu41 Eu 0.68358 0.62216 0.50015 0.0
C42 C 0.69603 0.5541 0.50607 0.0
C43 C 0.56009 0.54385 0.51943 0.0
C44 C 0.54977 0.51577 0.51689 0.0
C45 C 0.51351 0.56248 0.50964 0.0
C46 C 0.52167 0.51104 0.51065 0.0
C47 C 0.54171 0.56722 0.51574 0.0
C48 C 0.50322 0.53434 0.50694 0.0
C49 C 0.59017 0.54826 0.52549 0.0
O50 O 0.66616 0.60246 0.47374 0.0
O51 O 0.63911 0.5652 0.48501 0.0
C52 C 0.65193 0.57809 0.47127 0.0
O53 O 0.6106 0.61868 0.50385 0.0
O54 O 0.72823 0.6358 0.49635 0.0
O55 O 0.693 0.66304 0.48735 0.0
O56 O 0.64641 0.65035 0.50959 0.0
C57 C 0.61903 0.64524 0.50656 0.0
O58 O 0.65719 0.59326 0.54105 0.0
O59 O 0.6959 0.61831 0.5299 0.0
O60 O 0.70141 0.57725 0.4964 0.0
O61 O 0.59674 0.5734 0.53227 0.0
O62 O 0.61005 0.53856 0.51471 0.0
O63 O 0.67431 0.5531 0.51732 0.0
C64 C 0.73548 0.66551 0.47074 0.0
C65 C 0.72602 0.65308 0.45444 0.0
C66 C 0.76708 0.69704 0.45397 0.0
C67 C 0.73631 0.6633 0.43791 0.0
C68 C 0.75669 0.68686 0.47047 0.0
C69 C 0.75621 0.6861 0.4375 0.0
C70 C 0.7208 0.65922 0.48776 0.0
C71 C 0.68192 0.60699 0.54362 0.0
H72 H 0.56354 0.49744 0.51964 0.0
H73 H 0.49992 0.58087 0.50673 0.0
H74 H 0.51429 0.4891 0.5089 0.0
H75 H 0.54915 0.58915 0.51741 0.0
H76 H 0.70955 0.6366 0.45446 0.0
H77 H 0.78278 0.71426 0.45408 0.0
H78 H 0.72733 0.65457 0.42549 0.0
H79 H 0.76421 0.69663 0.48298 0.0
Eu80 Eu 0.20035 0.88292 0.76454 0.0
Eu81 Eu 0.15805 0.9333 0.74985 0.0
C82 C 0.22621 0.94475 0.75579 0.0
C83 C 0.23499 0.80914 0.76949 0.0
C84 C 0.25621 0.79189 0.77758 0.0
C85 C 0.22258 0.76969 0.74923 0.0
C86 C 0.26068 0.76372 0.77152 0.0
C87 C 0.21817 0.79788 0.75529 0.0
C88 C 0.24398 0.75226 0.75722 0.0
C89 C 0.23075 0.83888 0.77579 0.0
O90 O 0.17686 0.91567 0.72348 0.0
O91 O 0.2138 0.88777 0.73472 0.0
C92 C 0.20086 0.90092 0.72097 0.0
O93 O 0.16075 0.86036 0.7533 0.0
O94 O 0.14533 0.97813 0.74526 0.0
O95 O 0.11653 0.9433 0.73786 0.0
O96 O 0.12965 0.89629 0.75946 0.0
C97 C 0.13436 0.86893 0.7562 0.0
O98 O 0.18546 0.90568 0.79085 0.0
O99 O 0.16326 0.94602 0.77937 0.0
O100 O 0.20323 0.95025 0.74586 0.0
O101 O 0.20517 0.84507 0.78182 0.0
O102 O 0.2408 0.85902 0.76529 0.0
O103 O 0.2268 0.92315 0.76726 0.0
C104 C 0.11401 0.98485 0.72017 0.0
C105 C 0.12505 0.9741 0.70389 0.0
C106 C 0.08191 0.01605 0.70321 0.0
C107 C 0.11381 0.98355 0.68732 0.0
C108 C 0.09308 1.00649 0.71976 0.0
C109 C 0.09139 1.00389 0.68684 0.0
C110 C 0.12112 0.97096 0.73743 0.0
C111 C 0.17322 0.93121 0.79327 0.0
H112 H 0.26936 0.80023 0.78858 0.0
H113 H 0.20958 0.76172 0.73806 0.0
H114 H 0.27707 0.75082 0.77814 0.0
H115 H 0.20174 0.81096 0.74882 0.0
H116 H 0.14115 0.95725 0.70402 0.0
H117 H 0.06501 0.03211 0.70325 0.0
H118 H 0.12143 0.97357 0.67499 0.0
H119 H 0.08438 0.01498 0.73226 0.0
Eu120 Eu 0.89397 0.44753 1.01548 0.0
Eu121 Eu 0.8435 0.40562 0.99982 0.0
C122 C 0.83254 0.47372 1.00579 0.0
C123 C 0.96725 0.4833 1.02116 0.0
C124 C 0.98345 0.50547 1.02905 0.0
C125 C 1.00715 0.47266 1.00109 0.0
C126 C 1.0113 0.51132 1.02298 0.0
C127 C 0.97926 0.46688 1.00715 0.0
C128 C 0.02348 0.49506 1.00887 0.0
C129 C 0.93768 0.4779 1.02734 0.0
O130 O 0.86151 0.4258 0.97394 0.0
O131 O 0.89003 0.46179 0.98571 0.0
C132 C 0.87679 0.44954 0.97176 0.0
O133 O 0.91654 0.40803 1.00436 0.0
O134 O 0.79868 0.39248 0.99606 0.0
O135 O 0.8331 0.36635 0.98518 0.0
O136 O 0.88032 0.37647 1.00913 0.0
C137 C 0.90779 0.38147 1.00656 0.0
O138 O 0.87068 0.43222 1.04141 0.0
O139 O 0.83081 0.40962 1.02944 0.0
O140 O 0.82734 0.45108 0.99559 0.0
O141 O 0.93206 0.45179 1.03278 0.0
O142 O 0.91721 0.4883 1.01709 0.0
O143 O 0.85353 0.47376 1.0178 0.0
C144 C 0.7901 0.36772 0.96859 0.0
C145 C 0.7961 0.38659 0.95427 0.0
C146 C 0.75993 0.33936 0.94846 0.0
C147 C 0.78472 0.38141 0.93698 0.0
C148 C 0.77149 0.34447 0.96571 0.0
C149 C 0.76703 0.35736 0.93382 0.0
C150 C 0.80538 0.37046 0.98595 0.0
C151 C 0.84526 0.41967 1.04353 0.0
H152 H 0.97452 0.51836 1.03988 0.0
H153 H 0.01569 0.45994 0.99007 0.0
H154 H 0.02337 0.52847 1.02944 0.0
H155 H 0.96698 0.44975 1.00081 0.0
H156 H 0.81039 0.4047 0.95635 0.0
H157 H 0.74662 0.3205 0.9464 0.0
H158 H 0.79033 0.39579 0.926 0.0
H159 H 0.76679 0.32963 0.97663 0.0
Eu160 Eu 0.65402 0.93496 0.95667 0.0
Eu161 Eu 0.69601 0.88484 0.94107 0.0
C162 C 0.63 0.87081 0.94986 0.0
C163 C 0.61669 0.98747 0.98842 0.0
C164 C 0.62856 0.97527 1.00419 0.0
C165 C 0.5957 0.02548 1.00659 0.0
C166 C 0.62341 0.98765 1.02111 0.0
C167 C 0.60075 1.01294 0.98967 0.0
C168 C 0.60639 1.01258 1.02256 0.0
C169 C 0.61921 0.97273 0.97089 0.0
O170 O 0.68089 0.90855 0.91515 0.0
O171 O 0.65668 0.94749 0.92688 0.0
C172 C 0.6674 0.93348 0.91291 0.0
O173 O 0.69939 0.95179 0.96031 0.0
O174 O 0.73656 0.86145 0.93934 0.0
O175 O 0.69966 0.84671 0.92387 0.0
O176 O 0.72241 0.92513 0.93866 0.0
C177 C 0.72209 0.94652 0.95028 0.0
O178 O 0.6745 0.91633 0.9825 0.0
O179 O 0.71109 0.88907 0.97064 0.0
O180 O 0.65662 0.86221 0.95226 0.0
O181 O 0.64105 0.97978 0.96081 0.0
O182 O 0.61486 0.945 0.97124 0.0
O183 O 0.62486 0.89829 0.94726 0.0
C184 C 0.7309 0.8114 0.9358 0.0
C185 C 0.74298 0.7909 0.92419 0.0
C186 C 0.72905 0.77547 0.95973 0.0
C187 C 0.74815 0.76284 0.93031 0.0
C188 C 0.72377 0.80347 0.95357 0.0
C189 C 0.7414 0.75483 0.94819 0.0
C190 C 0.7258 0.84093 0.92931 0.0
C191 C 0.69872 0.90171 0.98462 0.0
H192 H 0.64094 0.95557 1.00348 0.0
H193 H 0.58294 0.04495 1.00718 0.0
H194 H 0.63171 0.9769 1.03308 0.0
H195 H 0.59156 0.02273 0.97761 0.0
H196 H 0.74859 0.79665 0.91043 0.0
H197 H 0.72326 0.76992 0.97349 0.0
H198 H 0.75796 0.74757 0.92114 0.0
H199 H 0.7142 0.81898 0.96269 0.0
Eu200 Eu 0.34538 0.40584 0.70506 0.0
Eu201 Eu 0.39477 0.44922 0.68958 0.0
C202 C 0.41113 0.38373 0.70144 0.0
C203 C 0.30785 0.34924 0.73282 0.0
C204 C 0.32764 0.3538 0.74698 0.0
C205 C 0.28661 0.31005 0.74981 0.0
C206 C 0.32679 0.33673 0.76254 0.0
C207 C 0.28742 0.32724 0.73425 0.0
C208 C 0.3062 0.31472 0.76416 0.0
C209 C 0.3088 0.36729 0.71653 0.0
O210 O 0.36662 0.44235 0.6642 0.0
O211 O 0.33805 0.40538 0.67429 0.0
C212 C 0.34653 0.42272 0.66118 0.0
O213 O 0.32308 0.44916 0.70419 0.0
O214 O 0.41995 0.48875 0.69163 0.0
O215 O 0.4308 0.45716 0.67136 0.0
O216 O 0.35549 0.47707 0.68847 0.0
C217 C 0.33082 0.47372 0.69676 0.0
O218 O 0.35736 0.42951 0.73087 0.0
O219 O 0.39414 0.45813 0.72046 0.0
O220 O 0.41526 0.40482 0.68995 0.0
O221 O 0.30589 0.39482 0.71924 0.0
O222 O 0.3296 0.3616 0.70534 0.0
O223 O 0.38787 0.38333 0.71144 0.0
C224 C 0.4689 0.48391 0.68445 0.0
C225 C 0.48497 0.50694 0.67765 0.0
C226 C 0.51066 0.46827 0.70193 0.0
C227 C 0.51366 0.51074 0.68299 0.0
C228 C 0.48192 0.4645 0.69657 0.0
C229 C 0.52688 0.49154 0.69527 0.0
C230 C 0.43835 0.48103 0.67934 0.0
C231 C 0.37669 0.4498 0.73361 0.0
H232 H 0.34373 0.37059 0.74599 0.0
H233 H 0.27035 0.29344 0.75075 0.0
H234 H 0.3424 0.3406 0.77324 0.0
H235 H 0.27206 0.32345 0.72339 0.0
H236 H 0.47519 0.52224 0.66838 0.0
H237 H 0.5202 0.4529 0.71124 0.0
H238 H 0.52528 0.52914 0.6778 0.0
H239 H 0.46979 0.44659 0.70199 0.0
Eu240 Eu 0.87244 0.09423 0.4553 0.0
Eu241 Eu 0.82928 0.14385 0.44045 0.0
C242 C 0.89546 0.1588 0.44852 0.0
C243 C 0.91601 0.04248 0.4851 0.0
C244 C 0.90463 0.05295 0.50137 0.0
C245 C 0.94741 1.01063 0.50211 0.0
C246 C 0.91538 0.04306 0.51796 0.0
C247 C 0.93674 0.02065 0.48553 0.0
C248 C 0.93762 0.02253 0.51848 0.0
C249 C 0.90934 0.0567 0.46788 0.0
O250 O 0.84338 0.12071 0.41417 0.0
O251 O 0.86844 0.08196 0.42557 0.0
C252 C 0.85713 0.09599 0.41173 0.0
O253 O 0.82745 0.07674 0.45928 0.0
O254 O 0.82306 0.18089 0.42268 0.0
O255 O 0.78859 0.16747 0.44037 0.0
O256 O 0.80357 0.10319 0.43771 0.0
C257 C 0.8044 0.08179 0.44931 0.0
O258 O 0.85374 0.11235 0.48165 0.0
O259 O 0.81573 0.13843 0.47019 0.0
O260 O 0.8689 0.16724 0.45107 0.0
O261 O 0.88545 0.04945 0.45969 0.0
O262 O 0.91369 0.08441 0.46773 0.0
O263 O 0.90063 0.13139 0.44578 0.0
C264 C 0.79362 0.21743 0.43536 0.0
C265 C 0.76554 0.22797 0.43734 0.0
C266 C 0.81228 0.26375 0.44546 0.0
C267 C 0.76082 0.25605 0.44345 0.0
C268 C 0.81699 0.23556 0.43949 0.0
C269 C 0.78413 0.27426 0.44761 0.0
C270 C 0.79801 0.18736 0.42946 0.0
C271 C 0.82919 0.1262 0.48407 0.0
H272 H 0.88863 0.0699 0.50122 0.0
H273 H 0.96416 0.99443 0.5021 0.0
H274 H 0.90752 0.05284 0.5303 0.0
H275 H 0.94567 1.01234 0.47305 0.0
H276 H 0.74721 0.21437 0.43426 0.0
H277 H 0.83067 0.27714 0.44873 0.0
H278 H 0.7389 0.26362 0.44479 0.0
H279 H 0.8389 0.22792 0.43826 0.0
Eu280 Eu 0.18501 0.62096 0.20369 0.0
Eu281 Eu 0.13476 0.57884 0.18858 0.0
C282 C 0.12063 0.64478 0.19706 0.0
C283 C 0.23658 0.66423 0.23383 0.0
C284 C 0.22573 0.65285 0.25 0.0
C285 C 0.26791 0.69572 0.25114 0.0
C286 C 0.23523 0.66358 0.26669 0.0
C287 C 0.2583 0.68504 0.23448 0.0
C288 C 0.25573 0.68584 0.2674 0.0
C289 C 0.22282 0.65746 0.21644 0.0
O290 O 0.15731 0.59422 0.16242 0.0
O291 O 0.1976 0.61631 0.17413 0.0
C292 C 0.18279 0.60653 0.16013 0.0
O293 O 0.20176 0.57569 0.20788 0.0
O294 O 0.09698 0.57372 0.17114 0.0
O295 O 0.11146 0.538 0.18774 0.0
O296 O 0.17521 0.55275 0.18596 0.0
C297 C 0.19651 0.55296 0.19775 0.0
O298 O 0.16674 0.60214 0.22994 0.0
O299 O 0.13976 0.5649 0.21835 0.0
O300 O 0.11194 0.61829 0.19959 0.0
O301 O 0.22987 0.63328 0.20868 0.0
O302 O 0.19522 0.6623 0.21574 0.0
O303 O 0.14801 0.64961 0.19411 0.0
C304 C 0.06128 0.54289 0.18346 0.0
C305 C 0.05117 0.51455 0.18481 0.0
C306 C 1.0152 0.56015 0.1946 0.0
C307 C 0.02343 0.50899 0.19112 0.0
C308 C 0.04306 0.56569 0.18843 0.0
C309 C 1.00513 0.53172 0.19611 0.0
C310 C 0.09102 0.54809 0.17733 0.0
C311 C 0.15233 0.57789 0.23228 0.0
H312 H 0.20883 0.63681 0.24969 0.0
H313 H 0.28409 0.71249 0.25128 0.0
H314 H 0.22523 0.65566 0.27893 0.0
H315 H 0.26687 0.69401 0.22207 0.0
H316 H 0.06484 0.49665 0.18107 0.0
H317 H 1.00172 0.57808 0.19851 0.0
H318 H 0.0162 0.48688 0.19194 0.0
H319 H 0.05038 0.58778 0.18769 0.0
Eu320 Eu 0.83165 0.6451 0.76494 0.0
Eu321 Eu 0.87459 0.59502 0.75051 0.0
C322 C 0.80632 0.58303 0.75572 0.0
C323 C 0.79626 0.71882 0.7694 0.0
C324 C 0.76811 0.72932 0.76752 0.0
C325 C 0.81447 0.76473 0.75842 0.0
C326 C 0.76312 0.75717 0.76102 0.0
C327 C 0.81944 0.73677 0.76478 0.0
C328 C 0.78623 0.77519 0.75636 0.0
C329 C 0.80089 0.68894 0.77566 0.0
O330 O 0.85515 0.61254 0.72408 0.0
O331 O 0.81807 0.6401 0.7351 0.0
C332 C 0.83098 0.62705 0.72145 0.0
O333 O 0.8711 0.66816 0.7542 0.0
O334 O 0.8878 0.55037 0.74588 0.0
O335 O 0.91597 0.58558 0.73854 0.0
O336 O 0.90283 0.63239 0.75993 0.0
C337 C 0.89768 0.65973 0.75689 0.0
O338 O 0.84579 0.62185 0.79131 0.0
O339 O 0.87055 0.58284 0.78018 0.0
O340 O 0.82956 0.57748 0.74626 0.0
O341 O 0.82622 0.68263 0.78235 0.0
O342 O 0.79097 0.66873 0.76507 0.0
O343 O 0.80535 0.60473 0.7671 0.0
C344 C 0.9186 0.54418 0.72075 0.0
C345 C 0.90624 0.55425 0.70455 0.0
C346 C 0.95117 0.51428 0.70352 0.0
C347 C 0.91694 0.54507 0.68788 0.0
C348 C 0.9405 0.52354 0.72017 0.0
C349 C 0.94018 0.5257 0.68721 0.0
C350 C 0.91173 0.55786 0.73806 0.0
C351 C 0.85935 0.59703 0.79389 0.0
H352 H 0.74992 0.71587 0.77098 0.0
H353 H 0.8327 0.77798 0.75477 0.0
H354 H 0.74114 0.76469 0.75979 0.0
H355 H 0.8414 0.72915 0.76593 0.0
H356 H 0.8894 0.57036 0.70481 0.0
H357 H 0.96874 0.49896 0.70342 0.0
H358 H 0.90814 0.55447 0.67559 0.0
H359 H 0.95027 0.5156 0.73259 0.0
Eu360 Eu 0.13421 0.08093 1.01395 0.0
Eu361 Eu 0.18399 0.12363 0.99869 0.0
C362 C 0.19627 0.05571 1.00536 0.0
C363 C 0.06096 0.0453 1.01949 0.0
C364 C 0.04418 0.02453 1.0282 0.0
C365 C 0.02089 0.05566 0.99911 0.0
C366 C 0.01594 0.01924 1.02239 0.0
C367 C 0.04916 0.06089 1.00493 0.0
C368 C 1.00395 0.03467 1.00773 0.0
C369 C 0.09083 0.05023 1.0255 0.0
O370 O 0.16595 0.10318 0.97269 0.0
O371 O 0.13906 0.06615 0.98441 0.0
C372 C 0.15169 0.07877 0.9705 0.0
O373 O 0.11109 0.1204 1.00295 0.0
O374 O 0.22862 0.13739 0.99505 0.0
O375 O 0.19354 0.16313 0.98423 0.0
O376 O 0.14705 0.15227 1.00799 0.0
C377 C 0.11959 0.14702 1.00535 0.0
O378 O 0.15816 0.09529 1.04003 0.0
O379 O 0.19638 0.12082 1.02855 0.0
O380 O 0.20143 0.07847 0.99528 0.0
O381 O 0.11076 0.04027 1.01486 0.0
O382 O 0.09681 0.07604 1.0314 0.0
O383 O 0.17486 0.05525 1.01686 0.0
C384 C 0.2366 0.16326 0.96793 0.0
C385 C 0.22679 0.14964 0.95208 0.0
C386 C 0.27195 0.18923 0.95032 0.0
C387 C 0.23896 0.15638 0.93535 0.0
C388 C 0.25965 0.18256 0.96703 0.0
C389 C 0.26121 0.17682 0.93422 0.0
C390 C 0.22135 0.15948 0.9851 0.0
C391 C 0.18276 0.10935 1.0424 0.0
H392 H 0.05294 1.01233 1.03948 0.0
H393 H 1.0125 0.06769 0.98766 0.0
H394 H 1.00342 1.00323 1.0295 0.0
H395 H 0.06189 0.07696 0.99799 0.0
H396 H 0.20896 0.13468 0.95257 0.0
H397 H 0.2894 0.20465 0.94996 0.0
H398 H 0.22997 0.14662 0.92324 0.0
H399 H 0.26753 0.19317 0.97917 0.0
Eu400 Eu 0.70009 0.38325 0.26498 0.0
Eu401 Eu 0.65771 0.43329 0.2501 0.0
C402 C 0.72573 0.44509 0.25631 0.0
C403 C 0.73641 0.3101 0.27016 0.0
C404 C 0.76163 0.29585 0.27553 0.0
C405 C 0.7222 0.26797 0.2527 0.0
C406 C 0.76718 0.26787 0.26951 0.0
C407 C 0.71672 0.29601 0.25868 0.0
C408 C 0.74757 0.25359 0.25798 0.0
C409 C 0.73122 0.33978 0.27629 0.0
O410 O 0.6753 0.41436 0.2237 0.0
O411 O 0.71363 0.38881 0.23524 0.0
C412 C 0.7 0.40074 0.22131 0.0
O413 O 0.66113 0.36005 0.25335 0.0
O414 O 0.64643 0.47741 0.24239 0.0
O415 O 0.61412 0.44395 0.24174 0.0
O416 O 0.62957 0.39571 0.25917 0.0
C417 C 0.63457 0.36843 0.25585 0.0
O418 O 0.68437 0.40566 0.29119 0.0
O419 O 0.66376 0.44663 0.2795 0.0
O420 O 0.70283 0.45047 0.24628 0.0
O421 O 0.70544 0.34545 0.28222 0.0
O422 O 0.741 0.3601 0.26583 0.0
O423 O 0.72617 0.42365 0.26789 0.0
C424 C 0.60846 0.48108 0.22087 0.0
C425 C 0.62255 0.47534 0.2045 0.0
C426 C 0.56701 0.49863 0.20414 0.0
C427 C 0.60864 0.48084 0.18797 0.0
C428 C 0.58099 0.4934 0.2206 0.0
C429 C 0.58041 0.4917 0.18771 0.0
C430 C 0.62 0.47071 0.23817 0.0
C431 C 0.67294 0.43157 0.29352 0.0
H432 H 0.77708 0.30641 0.28437 0.0
H433 H 0.70682 0.25775 0.24367 0.0
H434 H 0.78675 0.25732 0.27402 0.0
H435 H 0.69721 0.30676 0.25425 0.0
H436 H 0.64366 0.46546 0.20452 0.0
H437 H 0.54535 0.50725 0.20425 0.0
H438 H 0.6193 0.47518 0.17546 0.0
H439 H 0.56979 0.49773 0.23314 0.0
Eu440 Eu 0.39467 0.94788 0.51449 0.0
Eu441 Eu 0.34492 0.90476 0.49959 0.0
C442 C 0.33263 0.97291 0.50479 0.0
C443 C 0.46786 0.98421 0.51993 0.0
C444 C 0.47938 1.01203 0.52094 0.0
C445 C 0.51281 0.96727 0.50698 0.0
C446 C 0.50731 0.01753 0.51493 0.0
C447 C 0.48477 0.96184 0.51286 0.0
C448 C 0.52435 0.99522 0.50786 0.0
C449 C 0.43802 0.97914 0.52581 0.0
O450 O 0.36261 0.924 0.47326 0.0
O451 O 0.38997 0.96121 0.4846 0.0
C452 C 0.37713 0.94818 0.47078 0.0
O453 O 0.41803 0.90844 0.50388 0.0
O454 O 0.30032 0.89148 0.49459 0.0
O455 O 0.33563 0.86319 0.4876 0.0
O456 O 0.38228 0.87669 0.50926 0.0
C457 C 0.40963 0.88185 0.50643 0.0
O458 O 0.3715 0.93354 0.54068 0.0
O459 O 0.33239 0.90909 0.52919 0.0
O460 O 0.32731 0.94964 0.49518 0.0
O461 O 0.41786 0.98879 0.51503 0.0
O462 O 0.43207 0.95362 0.53218 0.0
O463 O 0.35413 0.97394 0.51642 0.0
C464 C 0.29437 0.8602 0.46949 0.0
C465 C 0.30518 0.87148 0.45328 0.0
C466 C 0.26391 0.82772 0.45229 0.0
C467 C 0.29612 0.86021 0.43665 0.0
C468 C 0.27308 0.83894 0.46892 0.0
C469 C 0.27611 0.83751 0.43602 0.0
C470 C 0.30792 0.86741 0.48688 0.0
C471 C 0.34659 0.92015 0.54307 0.0
H472 H 0.46668 0.02959 0.5263 0.0
H473 H 0.52526 0.9497 0.50141 0.0
H474 H 0.51567 0.03922 0.51598 0.0
H475 H 0.47625 0.94021 0.51176 0.0
H476 H 0.32177 0.88784 0.45354 0.0
H477 H 0.24809 0.81062 0.45222 0.0
H478 H 0.30612 0.86808 0.42439 0.0
H479 H 0.26455 0.83003 0.48135 0.0
Eu480 Eu 0.15439 0.43356 0.45398 0.0
Eu481 Eu 0.19712 0.38369 0.4394 0.0
C482 C 0.13133 0.36894 0.44747 0.0
C483 C 0.10963 0.48337 0.48394 0.0
C484 C 0.12183 0.47281 0.50007 0.0
C485 C 0.07634 0.51212 0.5014 0.0
C486 C 0.11072 0.48119 0.5168 0.0
C487 C 0.08742 0.50365 0.48469 0.0
C488 C 0.08723 0.50023 0.51761 0.0
C489 C 0.11707 0.47053 0.46648 0.0
O490 O 0.18216 0.40672 0.41309 0.0
O491 O 0.15933 0.44662 0.42449 0.0
C492 C 0.16964 0.43213 0.41063 0.0
O493 O 0.19941 0.451 0.45826 0.0
O494 O 0.23777 0.35998 0.43919 0.0
O495 O 0.20259 0.34648 0.42173 0.0
O496 O 0.22322 0.42414 0.43706 0.0
C497 C 0.22245 0.44568 0.44856 0.0
O498 O 0.17345 0.41556 0.48041 0.0
O499 O 0.21099 0.38886 0.46923 0.0
O500 O 0.15788 0.36057 0.45033 0.0
O501 O 0.14143 0.47811 0.45925 0.0
O502 O 0.11255 0.44292 0.46536 0.0
O503 O 0.12628 0.39626 0.44423 0.0
C504 C 0.23269 0.30997 0.43419 0.0
C505 C 0.26089 0.29959 0.43605 0.0
C506 C 0.21466 0.26332 0.44398 0.0
C507 C 0.26599 0.27143 0.44195 0.0
C508 C 0.20957 0.29159 0.43823 0.0
C509 C 0.24294 0.25296 0.446 0.0
C510 C 0.22793 0.34005 0.42835 0.0
C511 C 0.19787 0.40143 0.48298 0.0
H512 H 0.1389 0.45696 0.49967 0.0
H513 H 0.05858 0.5272 0.50161 0.0
H514 H 0.11945 0.47145 0.529 0.0
H515 H 0.07777 0.51195 0.47233 0.0
H516 H 0.27904 0.31336 0.43301 0.0
H517 H 0.19646 0.24974 0.44719 0.0
H518 H 0.28801 0.264 0.44318 0.0
H519 H 0.18757 0.29908 0.43707 0.0
Eu520 Eu 0.84672 0.90425 0.20533 0.0
Eu521 Eu 0.89641 0.94724 0.19093 0.0
C522 C 0.91116 0.88127 0.19867 0.0
C523 C 0.79697 0.85901 0.23496 0.0
C524 C 0.80764 0.87081 0.25116 0.0
C525 C 0.76817 0.82544 0.25217 0.0
C526 C 0.79933 0.85931 0.26781 0.0
C527 C 0.77657 0.83691 0.23554 0.0
C528 C 0.78026 0.83583 0.26844 0.0
C529 C 0.80995 0.86662 0.2176 0.0
O530 O 0.8734 0.93241 0.16456 0.0
O531 O 0.83335 0.9099 0.17591 0.0
C532 C 0.84789 0.92011 0.16208 0.0
O533 O 0.82946 0.94917 0.20981 0.0
O534 O 0.9199 0.988 0.19083 0.0
O535 O 0.93362 0.95309 0.17347 0.0
O536 O 0.85574 0.97318 0.18844 0.0
C537 C 0.83449 0.9723 0.20005 0.0
O538 O 0.86453 0.92319 0.23182 0.0
O539 O 0.89148 0.96068 0.22074 0.0
O540 O 0.91961 0.90771 0.20176 0.0
O541 O 0.80223 0.89094 0.2102 0.0
O542 O 0.83762 0.86232 0.21679 0.0
O543 O 0.88383 0.87642 0.19535 0.0
C544 C 0.96986 0.98279 0.18643 0.0
C545 C 0.98155 1.0106 0.18645 0.0
C546 C 1.01474 0.9645 0.19918 0.0
C547 C 1.00954 0.0154 0.19288 0.0
C548 C 0.98666 0.95976 0.19289 0.0
C549 C 0.02647 0.99241 0.19933 0.0
C550 C 0.93994 0.97835 0.18016 0.0
C551 C 0.87875 0.94754 0.23442 0.0
H552 H 0.82358 0.8878 0.2509 0.0
H553 H 0.75305 0.80771 0.25225 0.0
H554 H 0.80922 0.86765 0.28007 0.0
H555 H 0.76819 0.82758 0.22311 0.0
H556 H 0.96894 0.02866 0.18158 0.0
H557 H 0.02709 0.94641 0.20426 0.0
H558 H 0.01804 0.03709 0.19265 0.0
H559 H 0.97803 0.93812 0.19321 0.0
Eu560 Eu 0.37119 0.59575 0.95431 0.0
Eu561 Eu 0.32872 0.64543 0.93897 0.0
C562 C 0.39448 0.66021 0.94789 0.0
C563 C 0.41203 0.54426 0.98518 0.0
C564 C 0.39605 0.55288 1.00028 0.0
C565 C 0.44225 0.51487 1.00466 0.0
C566 C 0.40376 0.54332 1.01759 0.0
C567 C 0.43465 0.52465 0.98736 0.0
C568 C 0.42744 0.52486 1.01997 0.0
C569 C 0.40745 0.55821 0.96762 0.0
O570 O 0.34457 0.62282 0.91293 0.0
O571 O 0.36649 0.58261 0.92478 0.0
C572 C 0.35684 0.5973 0.91072 0.0
O573 O 0.32607 0.57893 0.95857 0.0
O574 O 0.32354 0.6828 0.92135 0.0
O575 O 0.28787 0.66872 0.93786 0.0
O576 O 0.30261 0.60487 0.93658 0.0
C577 C 0.30309 0.58391 0.94853 0.0
O578 O 0.35187 0.61399 0.98041 0.0
O579 O 0.31463 0.64085 0.96865 0.0
O580 O 0.36789 0.66857 0.95041 0.0
O581 O 0.3843 0.55103 0.9586 0.0
O582 O 0.41185 0.58592 0.96759 0.0
O583 O 0.3996 0.63285 0.94487 0.0
C584 C 0.29288 0.71881 0.93348 0.0
C585 C 0.26457 0.72891 0.935 0.0
C586 C 0.3104 0.76517 0.9443 0.0
C587 C 0.25916 0.75679 0.94125 0.0
C588 C 0.31579 0.73718 0.93819 0.0
C589 C 0.28201 0.77522 0.946 0.0
C590 C 0.29796 0.68894 0.92743 0.0
C591 C 0.32756 0.62833 0.98262 0.0
H592 H 0.37848 0.568 0.99876 0.0
H593 H 0.46073 0.50084 1.00614 0.0
H594 H 0.39184 0.55111 1.02916 0.0
H595 H 0.44725 0.51793 0.97581 0.0
H596 H 0.24658 0.71514 0.93146 0.0
H597 H 0.32843 0.77876 0.94802 0.0
H598 H 0.23707 0.76401 0.94223 0.0
H599 H 0.33787 0.72989 0.93731 0.0
Eu600 Eu 0.68654 0.12326 0.70634 0.0
Eu601 Eu 0.63579 0.08093 0.69039 0.0
C602 C 0.62051 0.14714 0.70206 0.0
C603 C 0.72556 0.17955 0.734 0.0
C604 C 0.70931 0.17326 0.74945 0.0
C605 C 0.7424 0.22346 0.74837 0.0
C606 C 0.70978 0.19181 0.76433 0.0
C607 C 0.74203 0.20476 0.73351 0.0
C608 C 0.72628 0.21719 0.76397 0.0
C609 C 0.72451 0.16041 0.71817 0.0
O610 O 0.66179 0.09015 0.66461 0.0
O611 O 0.69558 0.1218 0.67585 0.0
C612 C 0.68431 0.10713 0.66219 0.0
O613 O 0.70672 0.07889 0.70637 0.0
O614 O 0.61161 0.04072 0.69186 0.0
O615 O 0.5989 0.0733 0.6725 0.0
O616 O 0.67538 0.05379 0.68795 0.0
C617 C 0.69925 0.05543 0.69751 0.0
O618 O 0.67242 0.10159 0.73231 0.0
O619 O 0.63724 0.07132 0.72122 0.0
O620 O 0.61434 0.12468 0.69199 0.0
O621 O 0.72572 0.13293 0.72159 0.0
O622 O 0.7049 0.16654 0.70606 0.0
O623 O 0.64521 0.14878 0.71081 0.0
C624 C 0.56214 0.04506 0.68549 0.0
C625 C 0.54719 0.02027 0.68017 0.0
C626 C 0.52002 0.06105 0.70206 0.0
C627 C 0.51888 0.01578 0.68579 0.0
C628 C 0.5484 0.06547 0.69645 0.0
C629 C 0.50491 0.03607 0.69685 0.0
C630 C 0.5923 0.04882 0.68004 0.0
C631 C 0.65367 0.08073 0.73477 0.0
H632 H 0.69625 0.15397 0.75002 0.0
H633 H 0.75503 0.24298 0.74755 0.0
H634 H 0.69748 0.18605 0.7762 0.0
H635 H 0.75445 0.21007 0.7216 0.0
H636 H 0.55755 1.00417 0.67184 0.0
H637 H 0.50989 0.07726 0.7104 0.0
H638 H 0.50815 0.99608 0.68177 0.0
H639 H 0.55967 0.08474 0.70075 0.0
H640 H 0.39641 0.21697 0.25446 0.0
H641 H 0.43593 0.25184 0.25439 0.0
H642 H 0.49715 0.18253 0.25067 0.0
H643 H 0.45771 0.14753 0.25056 0.0
H644 H 0.48099 0.25989 0.27806 0.0
H645 H 0.5252 0.2344 0.21042 0.0
H646 H 0.49051 0.22155 0.21767 0.0
H647 H 0.52286 0.20378 0.22516 0.0
C648 C 0.41824 0.20902 0.25347 0.0
C649 C 0.42356 0.17915 0.2524 0.0
C650 C 0.44098 0.22913 0.25348 0.0
C651 C 0.46986 0.22019 0.25225 0.0
C652 C 0.47524 0.19036 0.25122 0.0
H653 H 0.63741 0.30944 0.25151 0.0
H654 H 0.59799 0.27442 0.25101 0.0
C655 C 0.45251 0.17021 0.25127 0.0
C656 C 0.49417 0.24194 0.25256 0.0
H657 H 0.55293 0.26583 0.22893 0.0
C658 C 0.49659 0.26122 0.26723 0.0
C659 C 0.5149 0.24394 0.23856 0.0
C660 C 0.51319 0.22503 0.22197 0.0
C661 C 0.51911 0.2817 0.26849 0.0
C662 C 0.53978 0.28383 0.25444 0.0
C663 C 0.53736 0.26452 0.23977 0.0
C664 C 0.56404 0.30569 0.25473 0.0
C665 C 0.52095 0.30026 0.28524 0.0
C666 C 0.55865 0.33539 0.25672 0.0
C667 C 0.58133 0.35559 0.2571 0.0
C668 C 0.61024 0.34687 0.25531 0.0
C669 C 0.61558 0.31719 0.253 0.0
C670 C 0.5929 0.297 0.25268 0.0
H671 H 0.50959 0.29026 0.29684 0.0
H672 H 0.54366 0.30421 0.2893 0.0
H673 H 0.51055 0.32129 0.28241 0.0
H674 H 0.53677 0.34312 0.25782 0.0
H675 H 0.57611 0.37815 0.25873 0.0
H676 H 0.62889 0.70382 0.50861 0.0
H677 H 0.59364 0.74315 0.50858 0.0
H678 H 0.52473 0.68157 0.50402 0.0
H679 H 0.55979 0.64218 0.50407 0.0
H680 H 0.55208 0.75944 0.48267 0.0
H681 H 0.49838 0.73025 0.54694 0.0
H682 H 0.53261 0.71524 0.54046 0.0
H683 H 0.49983 0.70164 0.5306 0.0
C684 C 0.60624 0.69854 0.50766 0.0
C685 C 0.59742 0.66953 0.50644 0.0
C686 C 0.58599 0.72119 0.50761 0.0
C687 C 0.55622 0.71564 0.50658 0.0
C688 C 0.54738 0.68671 0.5052 0.0
H689 H 0.39979 0.82324 0.50802 0.0
H690 H 0.43494 0.78391 0.50755 0.0
C691 C 0.56761 0.66406 0.50512 0.0
C692 C 0.53459 0.74002 0.50664 0.0
H693 H 0.47668 0.76737 0.52959 0.0
C694 C 0.53569 0.76119 0.493 0.0
C695 C 0.51289 0.74256 0.51999 0.0
C696 C 0.51088 0.7214 0.53543 0.0
C697 C 0.51565 0.78414 0.49211 0.0
C698 C 0.49405 0.78688 0.50557 0.0
C699 C 0.49299 0.76565 0.51921 0.0
C700 C 0.47242 0.81136 0.50575 0.0
C701 C 0.51734 0.80467 0.47631 0.0
C702 C 0.48124 0.84038 0.50516 0.0
C703 C 0.46103 0.86304 0.50527 0.0
C704 C 0.43123 0.85755 0.50627 0.0
C705 C 0.42243 0.82853 0.5072 0.0
C706 C 0.44266 0.80587 0.50696 0.0
H707 H 0.52826 0.79468 0.46453 0.0
H708 H 0.49562 0.8119 0.4719 0.0
H709 H 0.53005 0.82384 0.4804 0.0
H710 H 0.5039 0.84567 0.50481 0.0
H711 H 0.46887 0.88495 0.50472 0.0
H712 H 0.07585 0.87906 0.75851 0.0
H713 H 0.03639 0.84394 0.75861 0.0
H714 H 0.09762 0.77485 0.75372 0.0
H715 H 0.13711 0.80975 0.75364 0.0
H716 H 0.01952 0.8025 0.73264 0.0
H717 H 0.0498 0.74833 0.79698 0.0
H718 H 0.06463 0.78264 0.79041 0.0
H719 H 0.07812 0.74997 0.78059 0.0
C720 C 0.08102 0.8564 0.75751 0.0
C721 C 0.10995 0.84748 0.75615 0.0
C722 C 0.0583 0.83623 0.75753 0.0
C723 C 0.06372 0.80644 0.75646 0.0
C724 C 0.09258 0.79751 0.75494 0.0
H725 H 0.95633 0.64992 0.75854 0.0
H726 H 0.9956 0.68512 0.75792 0.0
C727 C 0.11528 0.81765 0.75478 0.0
C728 C 0.03932 0.78486 0.75663 0.0
H729 H 1.01241 0.72676 0.77974 0.0
C730 C 0.01795 0.78604 0.74301 0.0
C731 C 0.03701 0.76305 0.77002 0.0
C732 C 0.05843 0.76095 0.78544 0.0
C733 C 0.99502 0.76596 0.74219 0.0
C734 C 0.99252 0.74426 0.7557 0.0
C735 C 1.01394 0.74314 0.76933 0.0
C736 C 0.96808 0.72259 0.75596 0.0
C737 C 0.97426 0.76774 0.7264 0.0
C738 C 0.93904 0.73138 0.75533 0.0
C739 C 0.91643 0.71115 0.75552 0.0
C740 C 0.92197 0.68134 0.75664 0.0
C741 C 0.951 0.67256 0.75762 0.0
C742 C 0.97362 0.69282 0.75729 0.0
H743 H 0.98408 0.77873 0.71459 0.0
H744 H 0.96699 0.74604 0.72206 0.0
H745 H 0.95516 0.78044 0.73047 0.0
H746 H 0.93372 0.75404 0.7549 0.0
H747 H 0.8945 0.71897 0.75494 0.0
H748 H 0.06033 0.14368 1.00341 0.0
H749 H 0.02509 0.18295 1.0034 0.0
H750 H 0.09384 0.24482 1.00729 0.0
H751 H 0.12923 0.20568 1.00723 0.0
H752 H 1.01375 0.22547 1.02905 0.0
H753 H 0.04726 0.2769 0.9648 0.0
H754 H 0.05891 0.24126 0.97126 0.0
H755 H 0.07589 0.27242 0.98105 0.0
C756 C 0.06808 0.16563 1.00418 0.0
C757 C 0.0979 0.17125 1.00522 0.0
C758 C 0.04776 0.18819 1.00421 0.0
C759 C 0.0565 0.21719 1.00506 0.0
C760 C 0.08626 0.22285 1.00623 0.0
H761 H 0.96701 0.38436 1.00481 0.0
H762 H 1.00196 0.34492 1.00486 0.0
C763 C 0.1066 0.20029 1.00631 0.0
C764 C 0.03456 0.24129 1.0051 0.0
H765 H 1.01314 0.30224 0.98237 0.0
C766 C 1.01359 0.24215 1.01876 0.0
C767 C 0.03409 0.26339 0.9918 0.0
C768 C 0.05505 0.26344 0.97629 0.0
C769 C 0.99288 0.26449 1.01975 0.0
C770 C 0.99227 0.28654 1.00637 0.0
C771 C 1.01326 0.28561 0.99268 0.0
C772 C 0.97039 0.3108 1.00639 0.0
C773 C 0.97249 0.26464 1.03556 0.0
C774 C 0.94054 0.30536 1.00697 0.0
C775 C 0.92036 0.32806 1.00708 0.0
C776 C 0.92927 0.35706 1.00635 0.0
C777 C 0.9591 0.36246 1.00542 0.0
C778 C 0.97926 0.33976 1.00542 0.0
H779 H 0.98129 0.25227 1.04724 0.0
H780 H 0.96785 0.28691 1.04013 0.0
H781 H 0.95194 0.25436 1.03138 0.0
H782 H 0.9327 0.28344 1.00715 0.0
H783 H 0.89769 0.32283 1.00761 0.0
H784 H 0.57128 0.88059 0.94837 0.0
H785 H 0.53207 0.84527 0.94857 0.0
H786 H 0.5941 0.77643 0.95092 0.0
H787 H 0.63324 0.81157 0.95124 0.0
H788 H 0.5156 0.80398 0.92615 0.0
H789 H 0.54352 0.75072 0.99096 0.0
H790 H 0.56049 0.78368 0.98386 0.0
H791 H 0.57262 0.74955 0.97519 0.0
C792 C 0.57666 0.85794 0.94906 0.0
C793 C 0.60571 0.8492 0.94995 0.0
C794 C 0.55407 0.83762 0.94914 0.0
C795 C 0.55968 0.80782 0.95015 0.0
C796 C 0.58873 0.79908 0.95072 0.0
H797 H 0.45314 0.65065 0.94609 0.0
H798 H 0.49228 0.68612 0.94646 0.0
C799 C 0.6113 0.81937 0.95076 0.0
C800 C 0.53531 0.78606 0.95013 0.0
H801 H 0.50842 0.72714 0.97254 0.0
C802 C 0.51405 0.78735 0.93642 0.0
C803 C 0.53279 0.76404 0.96343 0.0
C804 C 0.55339 0.76203 0.97929 0.0
C805 C 0.49113 0.76729 0.93542 0.0
C806 C 0.4888 0.74516 0.94861 0.0
C807 C 0.51001 0.74383 0.96232 0.0
C808 C 0.46457 0.72336 0.94846 0.0
C809 C 0.46993 0.76957 0.91989 0.0
C810 C 0.43559 0.73201 0.94972 0.0
C811 C 0.41307 0.71167 0.94961 0.0
C812 C 0.41869 0.6819 0.94821 0.0
C813 C 0.44774 0.67326 0.9471 0.0
C814 C 0.47027 0.69363 0.94734 0.0
H815 H 0.47872 0.78239 0.90848 0.0
H816 H 0.46386 0.74794 0.91474 0.0
H817 H 0.45015 0.78044 0.92468 0.0
H818 H 0.43031 0.75461 0.95098 0.0
H819 H 0.39114 0.71937 0.95058 0.0
H820 H 0.6209 0.19497 0.72457 0.0
H821 H 0.58555 0.23413 0.7261 0.0
H822 H 0.53655 0.19455 0.68299 0.0
H823 H 0.57101 0.15499 0.68191 0.0
H824 H 0.56873 0.27451 0.70431 0.0
H825 H 0.47225 0.20842 0.71645 0.0
H826 H 0.50799 0.19344 0.71734 0.0
H827 H 0.48957 0.1978 0.6959 0.0
C828 C 0.60245 0.19441 0.71552 0.0
C829 C 0.59892 0.17138 0.70324 0.0
C830 C 0.58214 0.21699 0.71637 0.0
C831 C 0.55761 0.2174 0.70496 0.0
C832 C 0.55444 0.19466 0.69245 0.0
H833 H 0.45766 0.37358 0.67947 0.0
H834 H 0.4924 0.33424 0.68077 0.0
C835 C 0.57451 0.17197 0.69174 0.0
C836 C 0.53598 0.24186 0.70571 0.0
H837 H 0.46368 0.25703 0.70717 0.0
C838 C 0.54578 0.27053 0.70505 0.0
C839 C 0.5058 0.2373 0.70706 0.0
C840 C 0.4933 0.20759 0.70943 0.0
C841 C 0.52665 0.29428 0.70524 0.0
C842 C 0.49641 0.28966 0.70551 0.0
C843 C 0.48664 0.26102 0.70666 0.0
C844 C 0.47464 0.31402 0.70465 0.0
C845 C 0.53935 0.32416 0.70563 0.0
C846 C 0.45183 0.31578 0.71713 0.0
C847 C 0.43135 0.33821 0.71618 0.0
C848 C 0.43298 0.35973 0.70273 0.0
C849 C 0.45567 0.3578 0.69019 0.0
C850 C 0.47591 0.33524 0.69102 0.0
H851 H 0.56134 0.32409 0.71165 0.0
H852 H 0.54109 0.33234 0.69155 0.0
H853 H 0.52579 0.33923 0.71352 0.0
H854 H 0.44991 0.29983 0.72776 0.0
H855 H 0.41425 0.33872 0.72607 0.0
H856 H 0.07268 0.37868 0.44545 0.0
H857 H 0.03343 0.34344 0.44612 0.0
H858 H 0.09536 0.27464 0.44987 0.0
H859 H 0.13454 0.30975 0.44977 0.0
H860 H 0.01692 0.30131 0.4245 0.0
H861 H 0.0446 0.25073 0.4902 0.0
H862 H 0.0617 0.2833 0.48255 0.0
H863 H 0.07372 0.24877 0.47447 0.0
C864 C 0.07802 0.35606 0.44654 0.0
C865 C 0.10705 0.34733 0.44771 0.0
C866 C 0.05542 0.33578 0.44689 0.0
C867 C 0.06098 0.30604 0.44845 0.0
C868 C 0.09002 0.29729 0.44926 0.0
H869 H 0.95407 0.1491 0.44674 0.0
H870 H 0.99327 0.18449 0.44655 0.0
C871 C 0.11261 0.31755 0.44904 0.0
C872 C 0.03657 0.28433 0.44877 0.0
H873 H 1.00947 0.22647 0.47215 0.0
C874 C 0.01531 0.28513 0.43504 0.0
C875 C 0.03397 0.2629 0.46244 0.0
C876 C 0.05453 0.2615 0.47834 0.0
C877 C 0.99232 0.26512 0.43438 0.0
C878 C 0.98992 0.24357 0.44793 0.0
C879 C 1.01111 0.24273 0.46166 0.0
C880 C 0.96563 0.22184 0.44812 0.0
C881 C 0.97111 0.26683 0.41883 0.0
C882 C 0.93668 0.2306 0.44933 0.0
C883 C 0.91412 0.2103 0.44954 0.0
C884 C 0.91969 0.18048 0.44852 0.0
C885 C 0.94871 0.17175 0.44746 0.0
C886 C 0.97128 0.19207 0.44739 0.0
H887 H 0.97986 0.27925 0.40724 0.0
H888 H 0.96505 0.24502 0.414 0.0
H889 H 0.95131 0.27784 0.42348 0.0
H890 H 0.93146 0.25325 0.45029 0.0
H891 H 0.89222 0.21807 0.45046 0.0
H892 H 0.06134 0.6423 0.1988 0.0
H893 H 0.0267 0.68204 0.19874 0.0
H894 H 0.09648 0.74294 0.19653 0.0
H895 H 0.13114 0.70328 0.19603 0.0
H896 H 0.01557 0.72459 0.22109 0.0
H897 H 0.04853 0.77492 0.15657 0.0
H898 H 0.06171 0.74015 0.16362 0.0
H899 H 0.07776 0.77257 0.17249 0.0
C900 C 0.06941 0.66414 0.19819 0.0
C901 C 0.09928 0.66931 0.19726 0.0
C902 C 0.04944 0.68701 0.19818 0.0
C903 C 0.05855 0.71591 0.19723 0.0
C904 C 0.08844 0.72109 0.19668 0.0
H905 H 0.97042 0.88394 0.20143 0.0
H906 H 1.00526 0.84429 0.2013 0.0
C907 C 0.10842 0.69822 0.19654 0.0
C908 C 0.0369 0.74037 0.19726 0.0
H909 H 0.01643 0.80206 0.17487 0.0
C910 C 0.01576 0.74136 0.21086 0.0
C911 C 0.03668 0.76262 0.18401 0.0
C912 C 0.05718 0.76242 0.16825 0.0
C913 C 0.99519 0.76381 0.21178 0.0
C914 C 0.99518 0.78613 0.19863 0.0
C915 C 0.01627 0.78521 0.18504 0.0
C916 C 0.97353 0.81048 0.19871 0.0
C917 C 0.97398 0.76378 0.22715 0.0
C918 C 0.94376 0.80519 0.19708 0.0
C919 C 0.92368 0.82796 0.19705 0.0
C920 C 0.93265 0.85686 0.19868 0.0
C921 C 0.96248 0.86212 0.20022 0.0
C922 C 0.98256 0.83934 0.20011 0.0
H923 H 0.98128 0.74984 0.23854 0.0
H924 H 0.97051 0.7859 0.23239 0.0
H925 H 0.95302 0.7554 0.22216 0.0
H926 H 0.93599 0.78334 0.19563 0.0
H927 H 0.90103 0.82286 0.19576 0.0
H928 H 0.52588 0.03872 0.18949 0.0
H929 H 0.55642 0.03711 0.16255 0.0
H930 H 0.4876 0.07398 0.13056 0.0
H931 H 0.45724 0.07593 0.15735 0.0
H932 H 0.54692 1.00718 0.13209 0.0
H933 H 0.55429 0.12246 0.11441 0.0
H934 H 0.54148 0.11029 0.13615 0.0
H935 H 0.5176 0.11133 0.1168 0.0
C936 C 0.5174 0.04668 0.17672 0.0
C937 C 0.48923 0.05759 0.17554 0.0
C938 C 0.53489 0.04588 0.16138 0.0
C939 C 0.52451 0.05598 0.14461 0.0
C940 C 0.49642 0.06694 0.14345 0.0
H941 H 0.55399 0.03361 1.03276 0.0
H942 H 0.53851 0.04688 1.06316 0.0
C943 C 0.47903 0.06793 0.15877 0.0
C944 C 0.54195 0.0528 0.12797 0.0
H945 H 0.56423 0.08884 1.09022 0.0
C946 C 0.55123 0.02513 0.12311 0.0
C947 C 0.54764 0.07627 0.11629 0.0
C948 C 0.53999 0.10679 0.12128 0.0
C949 C 0.56461 0.02003 0.10643 0.0
C950 C 0.56894 0.04325 1.09439 0.0
C951 C 0.56072 0.0711 1.0995 0.0
C952 C 0.57974 0.03846 1.07585 0.0
C953 C 0.57279 0.98965 1.10139 0.0
C954 C 0.6083 0.0301 1.0729 0.0
C955 C 0.61738 0.02277 1.05546 0.0
C956 C 0.59798 0.0236 1.0407 0.0
C957 C 0.56966 0.0331 1.0437 0.0
C958 C 0.56069 0.04055 1.06109 0.0
H959 H 0.5648 0.97361 0.11133 0.0
H960 H 0.56407 0.98417 1.08776 0.0
H961 H 0.59657 0.98788 1.1008 0.0
H962 H 0.62337 0.02865 1.08415 0.0
H963 H 0.63946 0.01602 1.05359 0.0
H964 H 0.75973 0.74373 0.4311 0.0
H965 H 0.76545 0.76789 0.402 0.0
H966 H 0.77271 0.68568 0.37532 0.0
H967 H 0.76723 0.66116 0.40453 0.0
H968 H 0.8095 0.76512 0.37574 0.0
H969 H 0.70432 0.72538 0.34939 0.0
H970 H 0.71427 0.72327 0.37307 0.0
H971 H 0.72885 0.69803 0.35714 0.0
C972 C 0.76317 0.73073 0.41913 0.0
C973 C 0.76299 0.7005 0.42011 0.0
C974 C 0.76623 0.7446 0.4025 0.0
C975 C 0.769 0.72853 0.38654 0.0
C976 C 0.77001 0.6984 0.38749 0.0
H977 H 0.77894 0.77781 0.27382 0.0
H978 H 0.77561 0.75209 0.30257 0.0
C979 C 0.76693 0.68446 0.40416 0.0
C980 C 0.76992 0.74351 0.3689 0.0
H981 H 0.73245 0.75314 0.32939 0.0
C982 C 0.79269 0.76253 0.36558 0.0
C983 C 0.74783 0.7401 0.35578 0.0
C984 C 0.72227 0.72079 0.359 0.0
C985 C 0.79417 0.77806 0.34931 0.0
C986 C 0.77199 0.77477 0.33624 0.0
C987 C 0.74932 0.75562 0.33952 0.0
C988 C 0.77228 0.79059 0.31889 0.0
C989 C 0.81966 0.79746 0.34611 0.0
C990 C 0.77069 0.82073 0.31856 0.0
C991 C 0.77236 0.83555 0.30212 0.0
C992 C 0.77547 0.82039 0.28575 0.0
C993 C 0.7761 0.79013 0.28614 0.0
C994 C 0.77443 0.77538 0.30256 0.0
H995 H 0.83784 0.79245 0.35546 0.0
H996 H 0.82728 0.79555 0.33192 0.0
H997 H 0.81318 0.82014 0.34842 0.0
H998 H 0.76843 0.83279 0.33104 0.0
H999 H 0.77147 0.85883 0.30222 0.0
H1000 H 0.11402 1.01177 0.65293 0.0
H1001 H 0.08745 0.01557 0.62419 0.0
H1002 H 1.00725 1.01229 0.6531 0.0
H1003 H 0.03343 1.00818 0.68174 0.0
H1004 H 0.04801 0.97375 0.61136 0.0
H1005 H 0.99618 0.08077 0.61856 0.0
H1006 H 0.0266 0.06974 0.63228 0.0
H1007 H 0.99108 0.05714 0.63754 0.0
C1008 C 0.09073 1.01216 0.65316 0.0
C1009 C 0.07584 1.00982 0.66962 0.0
C1010 C 0.07562 0.01439 0.63677 0.0
C1011 C 0.04544 0.01452 0.6366 0.0
C1012 C 0.03054 1.01286 0.653 0.0
H1013 H 0.91417 0.01428 0.55215 0.0
H1014 H 0.94009 1.00986 0.58109 0.0
C1015 C 0.04558 1.01061 0.66937 0.0
C1016 C 0.02943 0.01428 0.61924 0.0
H1017 H 0.97944 0.05122 0.59441 0.0
C1018 C 0.03315 0.99076 0.60757 0.0
C1019 C 1.0099 0.03639 0.61449 0.0
C1020 C 1.00581 0.06258 0.62628 0.0
C1021 C 0.01752 0.98856 0.5913 0.0
C1022 C 0.99805 1.0107 0.58652 0.0
C1023 C 0.99427 0.03419 0.59822 0.0
C1024 C 0.98237 1.01069 0.56904 0.0
C1025 C 0.02161 0.96237 0.5795 0.0
C1026 C 0.99763 1.01242 0.55278 0.0
C1027 C 0.98297 0.01504 0.5363 0.0
C1028 C 0.95272 0.01613 0.5358 0.0
C1029 C 0.93746 1.01368 0.55212 0.0
C1030 C 0.95219 1.01108 0.56862 0.0
H1031 H 0.03096 0.94409 0.58728 0.0
H1032 H 1.00089 0.95538 0.57334 0.0
H1033 H 0.03662 0.96772 0.56837 0.0
H1034 H 0.02093 1.0128 0.55287 0.0
H1035 H 0.99541 0.01755 0.52405 0.0
H1036 H 0.71407 0.33923 0.92189 0.0
H1037 H 0.70158 0.32076 0.89171 0.0
H1038 H 0.78785 0.33824 0.87362 0.0
H1039 H 0.80032 0.35706 0.90358 0.0
H1040 H 0.74714 0.35168 0.84771 0.0
H1041 H 0.72887 0.242 0.87546 0.0
H1042 H 0.70674 0.26951 0.88522 0.0
H1043 H 0.74506 0.27039 0.88871 0.0
C1044 C 0.73026 0.33933 0.91141 0.0
C1045 C 0.75821 0.3494 0.91512 0.0
C1046 C 0.72314 0.32871 0.89422 0.0
C1047 C 0.74398 0.32758 0.88056 0.0
C1048 C 0.77148 0.33886 0.88399 0.0
H1049 H 0.77264 0.24605 0.77821 0.0
H1050 H 0.77426 0.27577 0.80553 0.0
C1051 C 0.77853 0.34969 0.9011 0.0
C1052 C 0.73783 0.31332 0.86298 0.0
H1053 H 0.72128 0.24826 0.8441 0.0
C1054 C 0.74134 0.32911 0.84691 0.0
C1055 C 0.7304 0.28381 0.86199 0.0
C1056 C 0.72778 0.26531 0.87873 0.0
C1057 C 0.73778 0.31611 0.82986 0.0
C1058 C 0.73073 0.28658 0.82892 0.0
C1059 C 0.72656 0.27096 0.84494 0.0
C1060 C 0.72903 0.27096 0.81148 0.0
C1061 C 0.74164 0.33396 0.81297 0.0
C1062 C 0.70305 0.2584 0.80585 0.0
C1063 C 0.70198 0.24157 0.79016 0.0
C1064 C 0.72699 0.23667 0.77996 0.0
C1065 C 0.7529 0.24972 0.78555 0.0
C1066 C 0.75389 0.26669 0.80118 0.0
H1067 H 0.74025 0.35737 0.81589 0.0
H1068 H 0.76315 0.3295 0.80718 0.0
H1069 H 0.72518 0.32833 0.80257 0.0
H1070 H 0.68367 0.2614 0.81369 0.0
H1071 H 0.68158 0.23224 0.7861 0.0
H1072 H 0.31029 0.33331 0.79917 0.0
H1073 H 0.30776 0.30455 0.82681 0.0
H1074 H 0.29642 0.22764 0.79481 0.0
H1075 H 0.29888 0.25639 0.76699 0.0
H1076 H 0.25759 0.23192 0.82249 0.0
H1077 H 0.36772 0.25119 0.84883 0.0
H1078 H 0.34903 0.28402 0.84375 0.0
H1079 H 0.35732 0.25929 0.82574 0.0
C1080 C 0.30768 0.31022 0.798 0.0
C1081 C 0.30496 0.29708 0.7809 0.0
C1082 C 0.30633 0.2938 0.81381 0.0
C1083 C 0.30253 0.26389 0.81285 0.0
C1084 C 0.2996 0.25068 0.79583 0.0
H1085 H 0.27128 0.1448 0.90356 0.0
H1086 H 0.28355 0.16272 0.87332 0.0
C1087 C 0.30085 0.26713 0.77997 0.0
C1088 C 0.30002 0.24679 0.82971 0.0
H1089 H 0.3333 0.23347 0.87029 0.0
C1090 C 0.27432 0.23181 0.83283 0.0
C1091 C 0.32195 0.24663 0.84313 0.0
C1092 C 0.35067 0.26091 0.84014 0.0
C1093 C 0.26933 0.21794 0.84941 0.0
C1094 C 0.29078 0.21885 0.8631 0.0
C1095 C 0.31689 0.23291 0.85975 0.0
C1096 C 0.28553 0.20739 0.88148 0.0
C1097 C 0.24065 0.2036 0.8525 0.0
C1098 C 0.28341 0.22651 0.89609 0.0
C1099 C 0.27633 0.21642 0.9133 0.0
C1100 C 0.2714 0.18693 0.91626 0.0
C1101 C 0.27453 0.16767 0.90167 0.0
C1102 C 0.28157 0.17784 0.88441 0.0
H1103 H 0.22477 0.20885 0.84167 0.0
H1104 H 0.24363 0.17991 0.85277 0.0
H1105 H 0.23166 0.2102 0.86578 0.0
H1106 H 0.28635 0.24941 0.89405 0.0
H1107 H 0.27366 0.23192 0.92412 0.0
H1108 H 0.26824 0.8605 0.40204 0.0
H1109 H 0.26431 0.83428 0.37329 0.0
H1110 H 0.26806 0.7537 0.40221 0.0
H1111 H 0.27232 0.77955 0.43086 0.0
H1112 H 0.30584 0.7948 0.36032 0.0
H1113 H 0.19879 0.74332 0.36788 0.0
H1114 H 0.21018 0.77357 0.38153 0.0
H1115 H 0.22281 0.73795 0.38677 0.0
C1116 C 0.26798 0.8372 0.40227 0.0
C1117 C 0.27043 0.82212 0.41874 0.0
C1118 C 0.26566 0.82229 0.38587 0.0
C1119 C 0.26557 0.79211 0.3857 0.0
C1120 C 0.26746 0.777 0.40211 0.0
H1121 H 0.26363 0.66197 0.30114 0.0
H1122 H 0.26833 0.6875 0.33009 0.0
C1123 C 0.2698 0.79185 0.41848 0.0
C1124 C 0.26541 0.7763 0.36833 0.0
H1125 H 0.22768 0.72691 0.34356 0.0
C1126 C 0.28869 0.78008 0.35657 0.0
C1127 C 0.24311 0.75696 0.36363 0.0
C1128 C 0.21716 0.75282 0.37552 0.0
C1129 C 0.29045 0.76469 0.34027 0.0
C1130 C 0.26811 0.74542 0.33554 0.0
C1131 C 0.24486 0.74159 0.34732 0.0
C1132 C 0.2677 0.72996 0.31805 0.0
C1133 C 0.31643 0.76882 0.3284 0.0
C1134 C 0.26593 0.74543 0.30177 0.0
C1135 C 0.26316 0.73098 0.28528 0.0
C1136 C 0.26196 0.70074 0.28477 0.0
C1137 C 0.26433 0.68526 0.30111 0.0
C1138 C 0.26709 0.69978 0.31762 0.0
H1139 H 0.33492 0.77788 0.33614 0.0
H1140 H 0.32315 0.74816 0.32216 0.0
H1141 H 0.31095 0.78408 0.31732 0.0
H1142 H 0.2657 0.76874 0.30186 0.0
H1143 H 0.26071 0.74358 0.27302 0.0
H1144 H 0.11143 0.50966 0.55115 0.0
H1145 H 0.08642 0.5137 0.58018 0.0
H1146 H 1.00473 0.50609 0.55248 0.0
H1147 H 0.02941 0.5018 0.52353 0.0
H1148 H 1.00668 0.54995 0.57894 0.0
H1149 H 0.04689 0.4454 0.60558 0.0
H1150 H 0.07431 0.46989 0.59818 0.0
H1151 H 0.04931 0.45519 0.58195 0.0
C1152 C 0.08814 0.50886 0.55126 0.0
C1153 C 0.07241 0.50538 0.53505 0.0
C1154 C 0.07392 0.51111 0.56783 0.0
C1155 C 0.04379 0.50971 0.56844 0.0
C1156 C 0.02801 0.50714 0.55226 0.0
H1157 H 0.9155 0.5155 0.65388 0.0
H1158 H 0.94013 0.51069 0.62477 0.0
C1159 C 0.04217 0.50491 0.53572 0.0
C1160 C 0.02856 0.51062 0.58594 0.0
H1161 H 0.01982 0.4742 0.62571 0.0
C1162 C 1.00945 0.53338 0.58916 0.0
C1163 C 0.03222 0.48886 0.59917 0.0
C1164 C 0.05159 0.46329 0.59606 0.0
C1165 C 0.99426 0.53528 0.60547 0.0
C1166 C 0.99795 0.51354 0.61871 0.0
C1167 C 0.01703 0.49075 0.61547 0.0
C1168 C 0.98293 0.51461 0.63628 0.0
C1169 C 0.97493 0.56088 0.60859 0.0
C1170 C 0.99891 0.51736 0.65236 0.0
C1171 C 0.98496 0.52003 0.66895 0.0
C1172 C 0.95473 0.51984 0.66977 0.0
C1173 C 0.93879 0.51609 0.65365 0.0
C1174 C 0.9528 0.5134 0.63704 0.0
H1175 H 0.97953 0.57871 0.599 0.0
H1176 H 0.95219 0.55427 0.60657 0.0
H1177 H 0.97735 0.56906 0.62266 0.0
H1178 H 0.02219 0.51829 0.65202 0.0
H1179 H 0.99789 0.52334 0.68105 0.0
H1180 H 0.52735 0.4699 0.1809 0.0
H1181 H 0.49983 0.47199 0.15257 0.0
H1182 H 0.56837 0.52028 0.12773 0.0
H1183 H 0.59644 0.51733 0.15598 0.0
H1184 H 0.47885 0.51639 0.13488 0.0
H1185 H 0.55515 0.459 1.09035 0.0
H1186 H 0.55931 0.45976 0.11469 0.0
H1187 H 0.57131 0.48962 1.10115 0.0
C1188 C 0.53652 0.48094 0.16936 0.0
C1189 C 0.56395 0.49351 0.17055 0.0
C1190 C 0.52084 0.48206 0.1532 0.0
C1191 C 0.53221 0.49589 0.13795 0.0
C1192 C 0.5595 0.5088 0.13917 0.0
H1193 H 0.43689 0.563 1.04722 0.0
H1194 H 0.4602 0.55407 1.07641 0.0
C1195 C 0.57543 0.50731 0.15531 0.0
C1196 C 0.51495 0.49761 0.12103 0.0
H1197 H 0.51688 0.48438 1.07556 0.0
C1198 C 0.48708 0.50915 0.12193 0.0
C1199 C 0.52545 0.48763 0.10421 0.0
C1200 C 0.55432 0.47302 0.10254 0.0
C1201 C 0.4697 0.5117 0.1064 0.0
C1202 C 0.48088 0.50332 1.08942 0.0
C1203 C 0.50843 0.49104 1.08858 0.0
C1204 C 0.46491 0.50819 1.07224 0.0
C1205 C 0.43947 0.52306 0.10842 0.0
C1206 C 0.46027 0.48545 1.06003 0.0
C1207 C 0.44728 0.49059 1.04318 0.0
C1208 C 0.43861 0.51854 1.03837 0.0
C1209 C 0.44278 0.54114 1.05076 0.0
C1210 C 0.45605 0.53605 1.06746 0.0
H1211 H 0.43112 0.51897 0.12226 0.0
H1212 H 0.43952 0.54669 0.10627 0.0
H1213 H 0.42454 0.51313 1.0984 0.0
H1214 H 0.4671 0.4638 1.06342 0.0
H1215 H 0.44431 0.47283 1.03385 0.0
H1216 H 0.26608 0.3195 0.27721 0.0
H1217 H 0.25392 0.36746 0.26584 0.0
H1218 H 0.28592 0.3445 0.21309 0.0
H1219 H 0.29764 0.29623 0.2242 0.0
H1220 H 0.30372 0.40097 0.22661 0.0
H1221 H 0.1857 0.3827 0.22999 0.0
H1222 H 0.20542 0.37498 0.25048 0.0
H1223 H 0.21143 0.35359 0.23059 0.0
C1224 C 0.27036 0.32451 0.26314 0.0
C1225 C 0.28264 0.30383 0.25159 0.0
C1226 C 0.2635 0.352 0.2567 0.0
C1227 C 0.26875 0.3594 0.23858 0.0
C1228 C 0.28171 0.33919 0.22713 0.0
H1229 H 0.19085 0.50152 0.18 0.0
H1230 H 0.211 0.45505 0.1889 0.0
C1231 C 0.2885 0.31164 0.23354 0.0
C1232 C 0.26 0.388 0.23147 0.0
H1233 H 0.20108 0.42984 0.22286 0.0
C1234 C 0.2813 0.40732 0.22574 0.0
C1235 C 0.23072 0.39605 0.23018 0.0
C1236 C 0.20691 0.37572 0.23548 0.0
C1237 C 0.27405 0.43475 0.21903 0.0
C1238 C 0.24479 0.44303 0.21814 0.0
C1239 C 0.22352 0.4235 0.22362 0.0
C1240 C 0.23551 0.47182 0.21159 0.0
C1241 C 0.29768 0.45452 0.21274 0.0
C1242 C 0.24298 0.49682 0.22122 0.0
C1243 C 0.2315 0.52352 0.21615 0.0
C1244 C 0.21219 0.5257 0.20141 0.0
C1245 C 0.20564 0.50073 0.1914 0.0
C1246 C 0.2171 0.47408 0.19649 0.0
H1247 H 0.31803 0.44265 0.21026 0.0
H1248 H 0.29123 0.46592 0.20012 0.0
H1249 H 0.30194 0.47094 0.22335 0.0
H1250 H 0.25677 0.49552 0.2331 0.0
H1251 H 0.23685 0.54223 0.22426 0.0
H1252 H 0.48563 0.49659 0.48066 0.0
H1253 H 0.43649 0.48734 0.46999 0.0
H1254 H 0.4043 0.55117 0.50707 0.0
H1255 H 0.45345 0.56042 0.51795 0.0
H1256 H 0.37555 0.49512 0.5075 0.0
H1257 H 0.38433 0.54123 0.43828 0.0
H1258 H 0.41267 0.51689 0.44478 0.0
H1259 H 0.40886 0.55055 0.45648 0.0
C1260 C 0.4681 0.50865 0.48656 0.0
C1261 C 0.47343 0.52923 0.50016 0.0
C1262 C 0.44008 0.50353 0.48033 0.0
C1263 C 0.41683 0.51883 0.48759 0.0
C1264 C 0.422 0.53932 0.5012 0.0
H1265 H 0.23131 0.48917 0.47319 0.0
H1266 H 0.27736 0.51031 0.48242 0.0
C1267 C 0.45008 0.54465 0.50734 0.0
C1268 C 0.38703 0.5124 0.4815 0.0
H1269 H 0.34271 0.51323 0.44435 0.0
C1270 C 0.36818 0.49936 0.49377 0.0
C1271 C 0.37763 0.51787 0.46355 0.0
C1272 C 0.39679 0.53262 0.45 0.0
C1273 C 0.34048 0.49058 0.48837 0.0
C1274 C 0.33113 0.49573 0.47033 0.0
C1275 C 0.34984 0.50937 0.45818 0.0
C1276 C 0.30273 0.4855 0.46353 0.0
C1277 C 0.32204 0.47469 0.50183 0.0
C1278 C 0.30146 0.46571 0.44918 0.0
C1279 C 0.27515 0.4539 0.44369 0.0
C1280 C 0.24949 0.46162 0.45244 0.0
C1281 C 0.25063 0.4826 0.4662 0.0
C1282 C 0.277 0.49452 0.47162 0.0
H1283 H 0.33493 0.46644 0.51347 0.0
H1284 H 0.30551 0.48953 0.50725 0.0
H1285 H 0.31083 0.45627 0.4953 0.0
H1286 H 0.321 0.45858 0.44264 0.0
H1287 H 0.27516 0.43788 0.43302 0.0
H1288 H 0.29568 0.72521 0.75218 0.0
H1289 H 0.30419 0.6763 0.74128 0.0
H1290 H 0.21273 0.66272 0.7362 0.0
H1291 H 0.20398 0.71163 0.74722 0.0
H1292 H 0.28581 0.62402 0.75591 0.0
H1293 H 0.2429 0.63974 0.68604 0.0
H1294 H 0.25127 0.66946 0.70093 0.0
H1295 H 0.21874 0.64924 0.70398 0.0
C1296 C 0.27733 0.71179 0.74888 0.0
C1297 C 0.24913 0.72242 0.75056 0.0
C1298 C 0.28224 0.68386 0.74257 0.0
C1299 C 0.25912 0.66596 0.73771 0.0
C1300 C 0.23093 0.67634 0.73951 0.0
H1301 H 0.2864 0.4807 0.72069 0.0
H1302 H 0.26478 0.52623 0.73026 0.0
C1303 C 0.22597 0.70433 0.74581 0.0
C1304 C 0.26474 0.63634 0.73102 0.0
H1305 H 0.25822 0.59285 0.69383 0.0
C1306 C 0.27962 0.61711 0.74239 0.0
C1307 C 0.25682 0.62748 0.7133 0.0
C1308 C 0.24176 0.64757 0.70026 0.0
C1309 C 0.28713 0.58939 0.73648 0.0
C1310 C 0.27914 0.58048 0.71877 0.0
C1311 C 0.264 0.5996 0.70746 0.0
C1312 C 0.28857 0.55237 0.71129 0.0
C1313 C 0.3045 0.57027 0.74899 0.0
C1314 C 0.30785 0.55178 0.69676 0.0
C1315 C 0.32007 0.52581 0.69115 0.0
C1316 C 0.31316 0.49984 0.69992 0.0
C1317 C 0.29223 0.50025 0.71362 0.0
C1318 C 0.28005 0.52631 0.71924 0.0
H1319 H 0.31382 0.58242 0.76061 0.0
H1320 H 0.29039 0.55318 0.75452 0.0
H1321 H 0.32229 0.55968 0.74155 0.0
H1322 H 0.31457 0.57161 0.69033 0.0
H1323 H 0.33596 0.52634 0.68049 0.0
H1324 H 0.04756 0.54808 1.00317 0.0
H1325 H 0.09586 0.55909 0.99227 0.0
H1326 H 0.11452 0.46842 0.98847 0.0
H1327 H 0.06621 0.45719 0.99943 0.0
H1328 H 0.14866 0.54485 1.00716 0.0
H1329 H 0.13663 0.4979 0.93828 0.0
H1330 H 0.1063 0.50462 0.95281 0.0
H1331 H 0.12866 0.47357 0.95648 0.0
C1332 C 0.06196 0.53044 1.00012 0.0
C1333 C 0.05293 0.50173 1.00216 0.0
C1334 C 0.08954 0.53679 0.99381 0.0
C1335 C 0.10871 0.5146 0.98931 0.0
C1336 C 0.0999 0.48591 0.99146 0.0
H1337 H 0.29335 0.54418 0.97529 0.0
H1338 H 0.24698 0.5248 0.98489 0.0
C1339 C 0.07227 0.47952 0.99775 0.0
C1340 C 0.13804 0.52168 0.98274 0.0
H1341 H 0.18303 0.51467 0.94655 0.0
C1342 C 0.15621 0.53818 0.99393 0.0
C1343 C 0.14776 0.51322 0.96539 0.0
C1344 C 0.12878 0.49657 0.95244 0.0
C1345 C 0.18379 0.54648 0.98826 0.0
C1346 C 0.19369 0.53762 0.97103 0.0
C1347 C 0.17553 0.52115 0.95983 0.0
C1348 C 0.22224 0.54662 0.96407 0.0
C1349 C 0.20174 0.56539 1.00057 0.0
C1350 C 0.22392 0.56418 0.94863 0.0
C1351 C 0.25043 0.57512 0.94299 0.0
C1352 C 0.27585 0.56861 0.95265 0.0
C1353 C 0.27425 0.54972 0.96754 0.0
C1354 C 0.24771 0.5388 0.97316 0.0
H1355 H 0.18858 0.57569 1.01128 0.0
H1356 H 0.21851 0.55212 1.00734 0.0
H1357 H 0.21268 0.58253 0.99271 0.0
H1358 H 0.20456 0.57035 0.94134 0.0
H1359 H 0.2508 0.58952 0.93145 0.0
H1360 H 0.7973 0.48636 0.9769 0.0
H1361 H 0.77869 0.53365 0.96812 0.0
H1362 H 0.81486 0.57055 1.01684 0.0
H1363 H 0.83394 0.52351 1.02562 0.0
H1364 H 0.74224 0.57389 0.98471 0.0
H1365 H 0.85253 0.61748 0.97653 0.0
H1366 H 0.84542 0.57951 0.97893 0.0
H1367 H 0.84587 0.60251 0.99854 0.0
C1368 C 0.80093 0.50442 0.98592 0.0
C1369 C 0.81734 0.50115 1.00191 0.0
C1370 C 0.79033 0.53147 0.98083 0.0
C1371 C 0.79594 0.55573 0.99162 0.0
C1372 C 0.81087 0.55224 1.0081 0.0
H1373 H 0.76476 0.73904 0.9809 0.0
H1374 H 0.77616 0.69046 0.9916 0.0
C1375 C 0.82159 0.52526 1.01315 0.0
C1376 C 0.78723 0.58485 0.98532 0.0
H1377 H 0.81414 0.65083 0.97403 0.0
C1378 C 0.75794 0.5907 0.98232 0.0
C1379 C 0.80779 0.6067 0.98207 0.0
C1380 C 0.83968 0.60125 0.984 0.0
C1381 C 0.74861 0.61804 0.97656 0.0
C1382 C 0.76916 0.63994 0.97356 0.0
C1383 C 0.79843 0.63404 0.97647 0.0
C1384 C 0.76086 0.66917 0.9673 0.0
C1385 C 0.71684 0.62347 0.97406 0.0
C1386 C 0.74861 0.67331 0.95004 0.0
C1387 C 0.74207 0.70107 0.94388 0.0
C1388 C 0.74767 0.72522 0.95487 0.0
C1389 C 0.75982 0.72091 0.9722 0.0
C1390 C 0.76648 0.69318 0.9783 0.0
H1391 H 0.70361 0.60666 0.98072 0.0
H1392 H 0.7108 0.64483 0.97962 0.0
H1393 H 0.71154 0.62343 0.95936 0.0
H1394 H 0.7445 0.65511 0.94122 0.0
H1395 H 0.73255 0.70361 0.93052 0.0
H1396 H 0.57286 0.50921 0.67496 0.0
H1397 H 0.62177 0.51983 0.68543 0.0
H1398 H 0.59863 0.49544 0.7398 0.0
H1399 H 0.54957 0.48505 0.72951 0.0
H1400 H 0.63748 0.56027 0.7112 0.0
H1401 H 0.67401 0.45145 0.73208 0.0
H1402 H 0.64279 0.45719 0.7178 0.0
H1403 H 0.64048 0.4623 0.7419 0.0
C1404 C 0.57813 0.50608 0.68916 0.0
C1405 C 0.55718 0.4963 0.70139 0.0
C1406 C 0.60617 0.512 0.69509 0.0
C1407 C 0.614 0.50809 0.71335 0.0
C1408 C 0.59329 0.498 0.72556 0.0
H1409 H 0.75366 0.59006 0.77151 0.0
H1410 H 0.7077 0.56992 0.76147 0.0
C1411 C 0.56522 0.49208 0.71965 0.0
C1412 C 0.64324 0.51635 0.71979 0.0
H1413 H 0.7038 0.49086 0.74102 0.0
C1414 C 0.65201 0.54504 0.71763 0.0
C1415 C 0.66232 0.49641 0.72804 0.0
C1416 C 0.65461 0.46504 0.72997 0.0
C1417 C 0.67902 0.55449 0.72386 0.0
C1418 C 0.69767 0.53481 0.73266 0.0
C1419 C 0.68928 0.50595 0.73445 0.0
C1420 C 0.72594 0.54414 0.74005 0.0
C1421 C 0.68753 0.58546 0.72089 0.0
C1422 C 0.75157 0.53543 0.73175 0.0
C1423 C 0.77801 0.54691 0.73745 0.0
C1424 C 0.77925 0.56721 0.75162 0.0
C1425 C 0.7536 0.5746 0.76052 0.0
C1426 C 0.72724 0.56319 0.75477 0.0
H1427 H 0.67341 0.59626 0.71074 0.0
H1428 H 0.68586 0.59735 0.73389 0.0
H1429 H 0.71016 0.58693 0.71627 0.0
H1430 H 0.751 0.52067 0.72039 0.0
H1431 H 0.79728 0.54074 0.73027 0.0
H1432 H 0.81106 0.32397 0.43717 0.0
H1433 H 0.80199 0.37303 0.44803 0.0
H1434 H 0.73655 0.34083 0.48381 0.0
H1435 H 0.7456 0.29179 0.47316 0.0
H1436 H 0.74624 0.40269 0.44684 0.0
H1437 H 0.79043 0.39126 0.51666 0.0
H1438 H 0.7999 0.36713 0.49844 0.0
H1439 H 0.76592 0.36341 0.50963 0.0
C1440 C 0.79495 0.32733 0.44749 0.0
C1441 C 0.77905 0.304 0.45431 0.0
C1442 C 0.78973 0.35535 0.45361 0.0
C1443 C 0.76884 0.36048 0.46686 0.0
C1444 C 0.75302 0.33727 0.47375 0.0
H1445 H 0.68771 0.50098 0.52116 0.0
H1446 H 0.7085 0.45535 0.51153 0.0
C1447 C 0.75804 0.30931 0.46753 0.0
C1448 C 0.76267 0.3902 0.47303 0.0
H1449 H 0.763 0.43336 0.5105 0.0
C1450 C 0.75019 0.40959 0.46069 0.0
C1451 C 0.76779 0.39899 0.49111 0.0
C1452 C 0.78196 0.37924 0.50474 0.0
C1453 C 0.74158 0.43724 0.46615 0.0
C1454 C 0.74632 0.44595 0.48435 0.0
C1455 C 0.75945 0.42671 0.49656 0.0
C1456 C 0.7361 0.47418 0.49124 0.0
C1457 C 0.72631 0.45633 0.45258 0.0
C1458 C 0.74549 0.50013 0.48352 0.0
C1459 C 0.73351 0.52637 0.48894 0.0
C1460 C 0.71211 0.52716 0.50234 0.0
C1461 C 0.70405 0.50126 0.51077 0.0
C1462 C 0.71592 0.47507 0.50527 0.0
H1463 H 0.71824 0.44396 0.44069 0.0
H1464 H 0.70785 0.46756 0.45891 0.0
H1465 H 0.74152 0.47284 0.44756 0.0
H1466 H 0.76159 0.50004 0.47299 0.0
H1467 H 0.74035 0.54589 0.48221 0.0
H1468 H 0.77823 0.43678 0.2725 0.0
H1469 H 0.82451 0.45618 0.26297 0.0
H1470 H 0.78197 0.50712 0.22195 0.0
H1471 H 0.73537 0.48772 0.23129 0.0
H1472 H 0.84295 0.44913 0.22429 0.0
H1473 H 0.842 0.56261 0.24856 0.0
H1474 H 0.82073 0.53481 0.25914 0.0
H1475 H 0.81013 0.54892 0.23748 0.0
C1476 C 0.77852 0.45255 0.26169 0.0
C1477 C 0.75299 0.46059 0.25263 0.0
C1478 C 0.80506 0.46357 0.25625 0.0
C1479 C 0.80662 0.48311 0.24181 0.0
C1480 C 0.78115 0.49227 0.23326 0.0
H1481 H 0.95461 0.55883 0.18709 0.0
H1482 H 0.9061 0.54754 0.19782 0.0
C1483 C 0.75454 0.48113 0.23862 0.0
C1484 C 0.83507 0.49164 0.23467 0.0
H1485 H 0.8822 0.54775 0.23159 0.0
C1486 C 0.85159 0.47068 0.22589 0.0
C1487 C 0.84599 0.51984 0.23657 0.0
C1488 C 0.82898 0.54295 0.24602 0.0
C1489 C 0.87886 0.47712 0.21895 0.0
C1490 C 0.89031 0.50512 0.22134 0.0
C1491 C 0.87351 0.52626 0.22986 0.0
C1492 C 0.9198 0.51265 0.2153 0.0
C1493 C 0.89488 0.45396 0.20882 0.0
C1494 C 0.9437 0.49722 0.22185 0.0
C1495 C 0.97134 0.50349 0.21567 0.0
C1496 C 0.97576 0.52565 0.203 0.0
C1497 C 0.95192 0.5417 0.19689 0.0
C1498 C 0.9242 0.53524 0.20298 0.0
H1499 H 0.88 0.43729 0.2034 0.0
H1500 H 0.90726 0.46313 0.19737 0.0
H1501 H 0.91018 0.44316 0.21823 0.0
H1502 H 0.94097 0.48025 0.23175 0.0
H1503 H 0.98933 0.49113 0.22092 0.0
H1504 H 0.81384 0.82533 0.76558 0.0
H1505 H 0.80334 0.87407 0.75463 0.0
H1506 H 0.73639 0.84028 0.71987 0.0
H1507 H 0.74651 0.79169 0.7309 0.0
H1508 H 0.80409 0.89862 0.72068 0.0
H1509 H 0.69355 0.90099 0.7482 0.0
H1510 H 0.71926 0.87355 0.75439 0.0
H1511 H 0.69941 0.87098 0.73339 0.0
C1512 C 0.79698 0.8283 0.75554 0.0
C1513 C 0.78076 0.80469 0.74927 0.0
C1514 C 0.79097 0.85616 0.74932 0.0
C1515 C 0.76868 0.86093 0.73671 0.0
C1516 C 0.75315 0.83726 0.72998 0.0
H1517 H 0.69145 1.00362 0.6806 0.0
H1518 H 0.71186 0.9573 0.68944 0.0
C1519 C 0.75897 0.80948 0.73629 0.0
C1520 C 0.7614 0.8906 0.73067 0.0
H1521 H 0.70572 0.93836 0.72753 0.0
C1522 C 0.78265 0.90742 0.7223 0.0
C1523 C 0.73348 0.90218 0.73293 0.0
C1524 C 0.7102 0.88612 0.74289 0.0
C1525 C 0.7764 0.93511 0.7156 0.0
C1526 C 0.74827 0.9462 0.71738 0.0
C1527 C 0.72721 0.92963 0.72603 0.0
C1528 C 0.73979 0.97482 0.71024 0.0
C1529 C 0.79961 0.95212 0.70628 0.0
C1530 C 0.74934 1.00017 0.7187 0.0
C1531 C 0.73763 0.02685 0.71371 0.0
C1532 C 0.71608 0.02856 0.70022 0.0
C1533 C 0.7079 1.00321 0.69108 0.0
C1534 C 0.71952 0.97664 0.69611 0.0
H1535 H 0.81906 0.93891 0.70365 0.0
H1536 H 0.79143 0.9609 0.69322 0.0
H1537 H 0.80593 0.9706 0.71497 0.0
H1538 H 0.76475 0.99917 0.72977 0.0
H1539 H 0.74434 0.04585 0.72111 0.0
H1540 H 0.73227 0.98773 0.97616 0.0
H1541 H 0.77862 1.00862 0.98489 0.0
H1542 H 0.82003 0.9612 0.94215 0.0
H1543 H 0.77383 0.94058 0.93313 0.0
H1544 H 0.82484 0.97808 0.99715 0.0
H1545 H 0.85561 0.04037 0.93631 0.0
H1546 H 0.81935 0.02781 0.93997 0.0
H1547 H 0.84621 1.00382 0.93114 0.0
C1548 C 0.7511 0.98223 0.96833 0.0
C1549 C 0.74923 0.96246 0.9539 0.0
C1550 C 0.77763 0.99413 0.9734 0.0
C1551 C 0.8028 0.98672 0.96408 0.0
C1552 C 0.80086 0.96774 0.94932 0.0
H1553 H 0.97749 0.98228 1.00412 0.0
H1554 H 0.92827 0.97236 0.99408 0.0
C1555 C 0.77436 0.95583 0.94423 0.0
C1556 C 0.83137 0.99674 0.97076 0.0
H1557 H 0.8934 0.02997 0.95764 0.0
C1558 C 0.8397 0.98969 0.98856 0.0
C1559 C 0.85069 1.01215 0.95964 0.0
C1560 C 0.84244 0.02175 0.94076 0.0
C1561 C 0.86712 0.99678 0.99534 0.0
C1562 C 0.88697 1.01088 0.98391 0.0
C1563 C 0.87831 0.01884 0.96632 0.0
C1564 C 0.91696 0.01705 0.98988 0.0
C1565 C 0.87453 0.98918 1.01471 0.0
C1566 C 0.92727 0.04543 0.9904 0.0
C1567 C 0.95548 0.05119 0.99614 0.0
C1568 C 0.974 0.02865 1.0014 0.0
C1569 C 0.96367 1.00021 1.00056 0.0
C1570 C 0.93551 0.99448 0.99481 0.0
H1571 H 0.85489 0.98616 1.023 0.0
H1572 H 0.88677 0.96868 1.01494 0.0
H1573 H 0.88806 1.00611 1.02111 0.0
H1574 H 0.91336 0.06316 0.98659 0.0
H1575 H 0.96262 0.07335 0.99675 0.0
H1576 H 0.83529 0.02293 0.18105 0.0
H1577 H 0.8159 0.06943 0.19058 0.0
H1578 H 0.77958 0.02978 0.23802 0.0
H1579 H 0.79893 0.98316 0.22868 0.0
H1580 H 0.75784 0.08828 0.19996 0.0
H1581 H 0.83583 0.09308 0.25752 0.0
H1582 H 0.8399 0.06841 0.23881 0.0
H1583 H 0.81401 0.0612 0.25615 0.0
C1584 C 0.8228 0.02396 0.19337 0.0
C1585 C 0.81883 0.99931 0.20415 0.0
C1586 C 0.81173 0.05057 0.19878 0.0
C1587 C 0.7967 0.05308 0.21513 0.0
C1588 C 0.79143 0.02832 0.22546 0.0
H1589 H 0.71023 0.20808 0.25487 0.0
H1590 H 0.72077 0.15924 0.24434 0.0
C1591 C 0.80235 1.00165 0.22002 0.0
C1592 C 0.78808 0.08188 0.22182 0.0
H1593 H 0.80297 0.13152 0.25473 0.0
C1594 C 0.76755 0.09774 0.21198 0.0
C1595 C 0.80112 0.09423 0.23737 0.0
C1596 C 0.82411 0.07854 0.24806 0.0
C1597 C 0.75964 0.12568 0.21731 0.0
C1598 C 0.77249 0.13792 0.23298 0.0
C1599 C 0.79303 0.12202 0.24279 0.0
C1600 C 0.76573 0.1676 0.23909 0.0
C1601 C 0.7382 0.14213 0.20588 0.0
C1602 C 0.78759 0.18839 0.23995 0.0
C1603 C 0.78167 0.21626 0.246 0.0
C1604 C 0.75373 0.22393 0.2514 0.0
C1605 C 0.73186 0.20302 0.25055 0.0
C1606 C 0.73784 0.17509 0.24453 0.0
H1607 H 0.73545 0.13245 0.1922 0.0
H1608 H 0.71698 0.14189 0.21267 0.0
H1609 H 0.74493 0.16491 0.20429 0.0
H1610 H 0.80928 0.18307 0.23583 0.0
H1611 H 0.79893 0.2319 0.24625 0.0
H1612 H 0.79502 0.04057 0.47528 0.0
H1613 H 0.74858 0.02075 0.48464 0.0
H1614 H 0.706 0.06814 0.442 0.0
H1615 H 0.75213 0.08796 0.43241 0.0
H1616 H 0.69094 0.0741 0.48572 0.0
H1617 H 0.68523 0.96666 0.45228 0.0
H1618 H 0.71891 0.98001 0.46132 0.0
H1619 H 0.70343 0.99647 0.44158 0.0
C1620 C 0.7759 0.0463 0.46761 0.0
C1621 C 0.77736 0.06597 0.45311 0.0
C1622 C 0.74939 0.03497 0.47301 0.0
C1623 C 0.72399 0.04304 0.46399 0.0
C1624 C 0.72545 0.06163 0.44907 0.0
H1625 H 0.5422 0.04035 0.487 0.0
H1626 H 0.59094 0.05097 0.47678 0.0
C1627 C 0.75189 0.0729 0.44362 0.0
C1628 C 0.69562 0.03436 0.4711 0.0
H1629 H 0.64513 0.98108 0.46947 0.0
C1630 C 0.68089 0.05374 0.48224 0.0
C1631 C 0.68289 1.0077 0.46666 0.0
C1632 C 0.69825 0.98633 0.45479 0.0
C1633 C 0.65348 0.04727 0.48896 0.0
C1634 C 0.64015 0.02098 0.484 0.0
C1635 C 0.65524 1.0013 0.47316 0.0
C1636 C 0.61038 1.01385 0.4897 0.0
C1637 C 0.63925 0.06852 0.50151 0.0
C1638 C 0.60486 0.98888 0.49982 0.0
C1639 C 0.5769 0.98263 0.50557 0.0
C1640 C 0.55395 1.00125 0.50131 0.0
C1641 C 0.55949 0.0259 0.49083 0.0
C1642 C 0.58736 0.03201 0.485 0.0
H1643 H 0.6553 0.08278 0.50821 0.0
H1644 H 0.62434 0.08233 0.49354 0.0
H1645 H 0.6267 0.05735 0.51215 0.0
H1646 H 0.62226 0.97448 0.50353 0.0
H1647 H 0.57337 0.96355 0.51368 0.0
H1648 H 0.21601 0.20325 0.43527 0.0
H1649 H 0.22564 0.15405 0.44582 0.0
H1650 H 0.29204 0.18601 0.48162 0.0
H1651 H 0.28243 0.23517 0.47129 0.0
H1652 H 0.28154 0.12427 0.44459 0.0
H1653 H 0.23871 0.13549 0.51433 0.0
H1654 H 0.22885 0.15964 0.4961 0.0
H1655 H 0.26304 0.16339 0.50737 0.0
C1656 C 0.23247 0.1998 0.44552 0.0
C1657 C 0.24845 0.22311 0.45246 0.0
C1658 C 0.23802 0.17171 0.45146 0.0
C1659 C 0.25933 0.16647 0.46463 0.0
C1660 C 0.27526 0.18965 0.4716 0.0
H1661 H 0.34107 0.02624 0.51962 0.0
H1662 H 0.32033 0.07176 0.50957 0.0
C1663 C 0.26991 0.21768 0.46557 0.0
C1664 C 0.26564 0.13671 0.47075 0.0
H1665 H 0.2661 0.09348 0.5082 0.0
C1666 C 0.27789 0.11734 0.45843 0.0
C1667 C 0.26088 0.12786 0.48882 0.0
C1668 C 0.24693 0.14754 0.50243 0.0
C1669 C 0.28665 0.08968 0.46389 0.0
C1670 C 0.28232 0.08095 0.48209 0.0
C1671 C 0.26937 0.10014 0.49427 0.0
C1672 C 0.29278 0.05276 0.48904 0.0
C1673 C 0.30164 0.07062 0.45033 0.0
C1674 C 0.28346 0.02673 0.4813 0.0
C1675 C 0.29541 1.00054 0.48698 0.0
C1676 C 0.31671 0.99986 0.50065 0.0
C1677 C 0.32479 0.02586 0.50904 0.0
C1678 C 0.31296 0.05199 0.50329 0.0
H1679 H 0.30949 0.08301 0.43847 0.0
H1680 H 0.3202 0.05932 0.45668 0.0
H1681 H 0.2863 0.05415 0.44524 0.0
H1682 H 0.26735 0.02671 0.47061 0.0
H1683 H 0.28857 0.98095 0.48026 0.0
H1684 H 0.04485 0.03549 0.22188 0.0
H1685 H 0.09386 0.04454 0.23295 0.0
H1686 H 0.1241 0.97008 0.20393 0.0
H1687 H 0.07515 0.96098 0.19266 0.0
H1688 H 0.13219 1.00326 0.25318 0.0
H1689 H 0.17512 0.04044 0.18687 0.0
H1690 H 0.13709 0.04029 0.19175 0.0
H1691 H 0.15533 1.00714 0.18706 0.0
C1692 C 0.06196 0.02113 0.21776 0.0
C1693 C 0.05614 0.9976 0.20631 0.0
C1694 C 0.08988 0.02623 0.22419 0.0
C1695 C 0.11257 1.00809 0.21915 0.0
C1696 C 0.10688 0.98443 0.20787 0.0
H1697 H 0.29717 0.03325 0.2362 0.0
H1698 H 0.25087 1.01145 0.22827 0.0
C1699 C 0.07889 0.97918 0.20154 0.0
C1700 C 0.14223 0.01422 0.22559 0.0
H1701 H 0.20736 0.03933 0.21155 0.0
C1702 C 0.14872 1.01101 0.24409 0.0
C1703 C 0.16373 0.02412 0.21367 0.0
C1704 C 0.15762 0.02843 0.19373 0.0
C1705 C 0.17619 0.01762 0.25103 0.0
C1706 C 0.19748 0.02841 0.23921 0.0
C1707 C 0.1911 0.03099 0.22062 0.0
C1708 C 0.22589 0.03888 0.24587 0.0
C1709 C 0.18215 1.01276 0.27094 0.0
C1710 C 0.22737 0.06121 0.25866 0.0
C1711 C 0.25382 0.07358 0.26333 0.0
C1712 C 0.27939 0.06416 0.25514 0.0
C1713 C 0.27798 0.04102 0.24284 0.0
C1714 C 0.25149 0.02858 0.23823 0.0
H1715 H 0.16784 0.99589 0.27658 0.0
H1716 H 0.20486 1.00633 0.27338 0.0
H1717 H 0.17798 0.03299 0.27846 0.0
H1718 H 0.20793 0.07002 0.26445 0.0
H1719 H 0.25396 0.09145 0.27276 0.0
H1720 H 0.18898 1.00367 1.02204 0.0
H1721 H 0.20841 0.95725 1.01269 0.0
H1722 H 0.25776 0.99893 0.97102 0.0
H1723 H 0.23831 0.04568 0.98017 0.0
H1724 H 0.20009 0.9379 0.97414 0.0
H1725 H 0.31433 0.93966 0.99748 0.0
H1726 H 0.28682 0.96107 1.00822 0.0
H1727 H 0.30015 0.97125 0.9864 0.0
C1728 C 0.20441 1.00318 1.01112 0.0
C1729 C 0.21197 0.02849 1.00182 0.0
C1730 C 0.21546 0.97656 1.00579 0.0
C1731 C 0.23453 0.97471 0.99121 0.0
C1732 C 0.24327 0.99999 0.98243 0.0
H1733 H 0.30867 0.82558 0.93652 0.0
H1734 H 0.29767 0.87432 0.94715 0.0
C1735 C 0.2321 0.02668 0.98769 0.0
C1736 C 0.24291 0.9461 0.98414 0.0
H1737 H 0.299 0.89899 0.98085 0.0
C1738 C 0.2217 0.92933 0.97561 0.0
C1739 C 0.27118 0.93527 0.98588 0.0
C1740 C 0.29455 0.95256 0.99506 0.0
C1741 C 0.22798 0.9019 0.96876 0.0
C1742 C 0.25607 0.89056 0.97098 0.0
C1743 C 0.27744 0.9076 0.97926 0.0
C1744 C 0.26346 0.86094 0.96501 0.0
C1745 C 0.20453 0.88559 0.9589 0.0
C1746 C 0.24832 0.83717 0.9718 0.0
C1747 C 0.25442 0.80939 0.96567 0.0
C1748 C 0.27612 0.80474 0.95282 0.0
C1749 C 0.2919 0.82847 0.94647 0.0
C1750 C 0.2856 0.85632 0.9525 0.0
H1751 H 0.18764 0.90031 0.95355 0.0
H1752 H 0.21334 0.87296 0.94743 0.0
H1753 H 0.1941 0.87048 0.96846 0.0
H1754 H 0.2317 0.84009 0.98185 0.0
H1755 H 0.2423 0.7915 0.97111 0.0
H1756 H 0.48225 0.0472 0.73043 0.0
H1757 H 0.43388 0.03597 0.74126 0.0
H1758 H 0.41158 1.00126 0.68881 0.0
H1759 H 0.45966 1.01285 0.67774 0.0
H1760 H 0.37741 0.05255 0.72731 0.0
H1761 H 0.39668 0.93457 0.72525 0.0
H1762 H 0.42555 0.9605 0.72441 0.0
H1763 H 0.40413 0.95342 0.70453 0.0
C1764 C 0.46696 0.03758 0.72109 0.0
C1765 C 0.475 0.03073 0.70323 0.0
C1766 C 0.43935 0.03107 0.72734 0.0
C1767 C 0.4193 0.01744 0.71591 0.0
C1768 C 0.42691 1.01134 0.69795 0.0
H1769 H 0.23663 0.9849 0.72936 0.0
H1770 H 0.28319 1.00507 0.72078 0.0
C1771 C 0.45446 0.01789 0.69167 0.0
C1772 C 0.39075 1.00876 0.72292 0.0
H1773 H 0.34933 0.94982 0.73176 0.0
C1774 C 0.37123 0.03011 0.72833 0.0
C1775 C 0.38292 0.97945 0.72443 0.0
C1776 C 0.40345 0.95558 0.71951 0.0
C1777 C 0.34383 0.02289 0.73492 0.0
C1778 C 0.33577 0.99359 0.73601 0.0
C1779 C 0.3555 0.97228 0.73085 0.0
C1780 C 0.30702 0.98429 0.74243 0.0
C1781 C 0.32388 0.0466 0.74089 0.0
C1782 C 0.30488 0.96605 0.75753 0.0
C1783 C 0.27833 0.95443 0.76246 0.0
C1784 C 0.25333 0.96064 0.7523 0.0
C1785 C 0.25536 0.97981 0.73758 0.0
C1786 C 0.28198 0.99145 0.73267 0.0
H1787 H 0.33564 0.06705 0.7434 0.0
H1788 H 0.30761 0.05055 0.73008 0.0
H1789 H 0.31233 0.04043 0.75342 0.0
H1790 H 0.32394 0.9602 0.76524 0.0
H1791 H 0.27763 0.93977 0.77386 0.0
H1792 H 0.3457 0.09552 0.18991 0.0
H1793 H 0.31989 0.09236 0.16091 0.0
H1794 H 0.2587 0.15514 0.17962 0.0
H1795 H 0.28369 0.15726 0.20895 0.0
H1796 H 0.30904 0.12339 0.13385 0.0
H1797 H 0.20149 0.10063 0.16128 0.0
H1798 H 0.21475 0.13434 0.16962 0.0
H1799 H 0.23309 0.10139 0.17555 0.0
C1800 C 0.32675 0.10875 0.18793 0.0
C1801 C 0.31702 0.12663 0.20211 0.0
C1802 C 0.31179 0.10688 0.17115 0.0
C1803 C 0.28645 0.12289 0.16772 0.0
C1804 C 0.2773 0.14152 0.1817 0.0
H1805 H 0.17305 0.07693 1.07361 0.0
H1806 H 0.19799 0.0796 0.10309 0.0
C1807 C 0.29202 0.14307 0.19859 0.0
C1808 C 0.2703 0.12045 0.14953 0.0
H1809 H 0.20309 0.11332 0.12996 0.0
C1810 C 0.28586 0.12107 0.13316 0.0
C1811 C 0.23992 0.11668 0.14802 0.0
C1812 C 0.22139 0.11288 0.16455 0.0
C1813 C 0.27236 0.11859 0.11585 0.0
C1814 C 0.24182 0.11656 0.1143 0.0
C1815 C 0.2263 0.11538 0.13067 0.0
C1816 C 0.22579 0.11525 1.09602 0.0
C1817 C 0.29148 0.11708 1.09944 0.0
C1818 C 0.23195 0.13462 1.08181 0.0
C1819 C 0.21795 0.13275 1.06474 0.0
C1820 C 0.19645 0.11196 1.06119 0.0
C1821 C 0.18935 0.09329 1.0756 0.0
C1822 C 0.20377 0.09485 1.09263 0.0
H1823 H 0.31313 0.10857 0.10302 0.0
H1824 H 0.28207 0.10315 1.0887 0.0
H1825 H 0.29448 0.13906 1.09389 0.0
H1826 H 0.24766 0.1515 1.08385 0.0
H1827 H 0.224 0.14788 1.05427 0.0
H1828 H 0.6464 0.48239 0.30322 0.0
H1829 H 0.64314 0.50538 0.33292 0.0
H1830 H 0.69012 0.43501 0.35694 0.0
H1831 H 0.69369 0.41185 0.32704 0.0
H1832 H 0.61845 0.49092 0.36447 0.0
H1833 H 0.73539 0.50171 0.37757 0.0
H1834 H 0.72111 0.49167 0.35565 0.0
H1835 H 0.72399 0.46537 0.37346 0.0
C1836 C 0.65617 0.4716 0.31473 0.0
C1837 C 0.67047 0.44499 0.31235 0.0
C1838 C 0.65421 0.48494 0.33191 0.0
C1839 C 0.66671 0.47255 0.34755 0.0
C1840 C 0.68073 0.44575 0.3453 0.0
H1841 H 0.68135 0.59381 0.44012 0.0
H1842 H 0.68444 0.56844 0.41102 0.0
C1843 C 0.68258 0.43225 0.32805 0.0
C1844 C 0.66457 0.4876 0.36596 0.0
H1845 H 0.70448 0.51478 0.40162 0.0
C1846 C 0.63738 0.49599 0.37254 0.0
C1847 C 0.68901 0.49496 0.37675 0.0
C1848 C 0.71906 0.48825 0.37048 0.0
C1849 C 0.63396 0.51084 0.38926 0.0
C1850 C 0.65834 0.51767 0.40023 0.0
C1851 C 0.68557 0.5096 0.39357 0.0
C1852 C 0.65607 0.53351 0.41835 0.0
C1853 C 0.6041 0.51978 0.39476 0.0
C1854 C 0.63923 0.52278 0.43271 0.0
C1855 C 0.63741 0.53739 0.44953 0.0
C1856 C 0.65232 0.56344 0.45275 0.0
C1857 C 0.66919 0.57414 0.43837 0.0
C1858 C 0.67113 0.55941 0.42159 0.0
H1859 H 0.58905 0.52025 0.38298 0.0
H1860 H 0.59565 0.50407 0.40472 0.0
H1861 H 0.60428 0.54138 0.4012 0.0
H1862 H 0.62777 0.50266 0.43107 0.0
H1863 H 0.62448 0.52797 0.46014 0.0
H1864 H 0.24634 0.86791 0.70811 0.0
H1865 H 0.27041 0.87045 0.67865 0.0
H1866 H 0.21359 0.9392 0.66244 0.0
H1867 H 0.18877 0.93579 0.69142 0.0
H1868 H 0.30152 0.9064 0.66163 0.0
H1869 H 0.20582 0.89501 0.61763 0.0
H1870 H 0.20228 0.92554 0.63224 0.0
H1871 H 0.20404 0.88982 0.64179 0.0
C1872 C 0.23857 0.88328 0.69819 0.0
C1873 C 0.21498 0.90123 0.70236 0.0
C1874 C 0.2526 0.88488 0.68119 0.0
C1875 C 0.24382 0.90461 0.66763 0.0
C1876 C 0.22056 0.9229 0.67197 0.0
H1877 H 0.30281 0.88433 0.55428 0.0
H1878 H 0.28011 0.8805 0.58393 0.0
C1879 C 0.20629 0.92104 0.68883 0.0
C1880 C 0.25936 0.90654 0.64936 0.0
H1881 H 0.24851 0.91117 0.60319 0.0
C1882 C 0.28974 0.90727 0.64889 0.0
C1883 C 0.2447 0.90725 0.63231 0.0
C1884 C 0.21246 0.90404 0.63097 0.0
C1885 C 0.30543 0.909 0.63241 0.0
C1886 C 0.29071 0.91108 0.61542 0.0
C1887 C 0.26035 0.91001 0.61589 0.0
C1888 C 0.306 0.91326 0.59706 0.0
C1889 C 0.3378 0.90749 0.63351 0.0
C1890 C 0.32861 0.93299 0.59379 0.0
C1891 C 0.34222 0.93484 0.57664 0.0
C1892 C 0.33337 0.91753 0.56187 0.0
C1893 C 0.31055 0.89812 0.5651 0.0
C1894 C 0.2973 0.89597 0.58225 0.0
H1895 H 0.34513 0.89651 0.64611 0.0
H1896 H 0.34689 0.89586 0.62173 0.0
H1897 H 0.34667 0.92965 0.63376 0.0
H1898 H 0.33554 0.94753 0.6044 0.0
H1899 H 0.3593 0.9504 0.57486 0.0
H1900 H 0.82802 0.60857 0.82524 0.0
H1901 H 0.83077 0.58418 0.85482 0.0
H1902 H 0.90041 0.53172 0.83532 0.0
H1903 H 0.89679 0.55492 0.80572 0.0
H1904 H 0.86605 0.57835 0.88151 0.0
H1905 H 0.85471 0.46832 0.85466 0.0
H1906 H 0.88556 0.48547 0.84511 0.0
H1907 H 0.85005 0.49948 0.84043 0.0
C1908 C 0.8439 0.59179 0.82721 0.0
C1909 C 0.86193 0.58375 0.81273 0.0
C1910 C 0.8455 0.57769 0.84428 0.0
C1911 C 0.86527 0.55509 0.84761 0.0
C1912 C 0.88403 0.54798 0.83332 0.0
H1913 H 0.84354 0.43749 0.94138 0.0
H1914 H 0.84043 0.46341 0.91261 0.0
C1915 C 0.88214 0.56168 0.81624 0.0
C1916 C 0.86659 0.53928 0.86586 0.0
H1917 H 0.87105 0.47203 0.88529 0.0
C1918 C 0.86699 0.55507 0.88222 0.0
C1919 C 0.86721 0.50871 0.86737 0.0
C1920 C 0.86403 0.48953 0.85097 0.0
C1921 C 0.86854 0.54158 0.89955 0.0
C1922 C 0.87082 0.51106 0.90099 0.0
C1923 C 0.86985 0.4953 0.88463 0.0
C1924 C 0.87319 0.49497 0.9191 0.0
C1925 C 0.86665 0.56045 0.91614 0.0
C1926 C 0.893 0.50306 0.93285 0.0
C1927 C 0.89453 0.48828 0.94965 0.0
C1928 C 0.87682 0.46429 0.9533 0.0
C1929 C 0.8577 0.45565 0.93934 0.0
C1930 C 0.85589 0.47066 0.92267 0.0
H1931 H 0.85546 0.58103 0.91306 0.0
H1932 H 0.85503 0.54952 0.92728 0.0
H1933 H 0.88869 0.56582 0.92091 0.0
H1934 H 0.90756 0.52084 0.93063 0.0
H1935 H 0.90969 0.49575 0.95983 0.0
H1936 H 0.79761 0.89265 0.15204 0.0
H1937 H 0.77427 0.88968 0.12233 0.0
H1938 H 0.8432 0.93885 1.09898 0.0
H1939 H 0.86669 0.94219 0.12892 0.0
H1940 H 0.78881 0.86621 1.09045 0.0
H1941 H 0.7752 0.98326 1.07928 0.0
H1942 H 0.81185 0.97257 1.08312 0.0
H1943 H 0.78596 0.96856 1.10094 0.0
C1944 C 0.80801 0.90297 0.14068 0.0
C1945 C 0.83429 0.91781 0.14325 0.0
C1946 C 0.79447 0.90118 0.12349 0.0
C1947 C 0.80636 0.91437 0.10807 0.0
C1948 C 0.83285 0.92892 0.11049 0.0
H1949 H 0.68343 0.92997 1.01628 0.0
H1950 H 0.70935 0.93239 1.0453 0.0
C1951 C 0.84654 0.93063 0.12774 0.0
C1952 C 0.79108 0.91243 1.08967 0.0
H1953 H 0.76241 0.95277 1.05476 0.0
C1954 C 0.78318 0.88525 1.08269 0.0
C1955 C 0.783 0.93702 1.07931 0.0
C1956 C 0.78915 0.96703 1.08607 0.0
C1957 C 0.76807 0.88199 1.06598 0.0
C1958 C 0.76054 0.90654 1.05543 0.0
C1959 C 0.76815 0.93375 1.06249 0.0
C1960 C 0.74433 0.9045 1.03737 0.0
C1961 C 0.75959 0.8521 1.06004 0.0
C1962 C 0.75488 0.88813 1.02272 0.0
C1963 C 0.73992 0.88667 1.00593 0.0
C1964 C 0.71374 0.90153 1.00306 0.0
C1965 C 0.70321 0.91789 1.01775 0.0
C1966 C 0.71826 0.91945 1.0345 0.0
H1967 H 0.75956 0.83677 1.07161 0.0
H1968 H 0.7379 0.85205 1.05362 0.0
H1969 H 0.7753 0.84418 1.04996 0.0
H1970 H 0.77513 0.8768 1.0241 0.0
H1971 H 0.74919 0.87412 0.99508 0.0
H1972 H 0.33956 0.6186 0.87685 0.0
H1973 H 0.34433 0.59585 0.84688 0.0
H1974 H 0.38458 0.52219 0.8718 0.0
H1975 H 0.38042 0.54483 0.9015 0.0
H1976 H 0.32351 0.54808 0.83136 0.0
H1977 H 0.44157 0.53569 0.83262 0.0
H1978 H 0.42529 0.51859 0.85176 0.0
H1979 H 0.42284 0.55707 0.84917 0.0
C1980 C 0.34967 0.59766 0.87599 0.0
C1981 C 0.3598 0.58395 0.89192 0.0
C1982 C 0.35234 0.5845 0.8587 0.0
C1983 C 0.36545 0.55723 0.85661 0.0
C1984 C 0.37517 0.54346 0.87256 0.0
H1985 H 0.41055 0.49579 0.74551 0.0
H1986 H 0.40787 0.52224 0.77434 0.0
C1987 C 0.37254 0.55653 0.88977 0.0
C1988 C 0.36835 0.54288 0.83804 0.0
H1989 H 0.41637 0.50874 0.80991 0.0
C1990 C 0.34393 0.53965 0.82674 0.0
C1991 C 0.39494 0.53204 0.83139 0.0
C1992 C 0.42269 0.53627 0.84177 0.0
C1993 C 0.34513 0.52545 0.80966 0.0
C1994 C 0.37141 0.51332 0.80346 0.0
C1995 C 0.39601 0.51737 0.81448 0.0
C1996 C 0.37373 0.49644 0.78574 0.0
C1997 C 0.31811 0.52416 0.79823 0.0
C1998 C 0.35612 0.47233 0.78225 0.0
C1999 C 0.35775 0.45699 0.76573 0.0
C2000 C 0.37719 0.46494 0.75195 0.0
C2001 C 0.39534 0.48867 0.75561 0.0
C2002 C 0.39375 0.50399 0.77222 0.0
H2003 H 0.30278 0.54151 0.80191 0.0
H2004 H 0.32306 0.52606 0.78357 0.0
H2005 H 0.30724 0.50323 0.80051 0.0
H2006 H 0.34096 0.4652 0.79236 0.0
H2007 H 0.34332 0.43896 0.76371 0.0
H2008 H 0.67025 0.07934 0.62971 0.0
H2009 H 0.69374 0.08319 0.60004 0.0
H2010 H 0.75456 0.14355 0.62249 0.0
H2011 H 0.73104 0.14016 0.65193 0.0
H2012 H 0.74634 0.07077 0.5874 0.0
H2013 H 0.73177 0.18781 0.57823 0.0
H2014 H 0.75062 0.17944 0.59887 0.0
H2015 H 0.71382 0.16811 0.59591 0.0
C2016 C 0.68847 0.09366 0.62837 0.0
C2017 C 0.69827 0.1096 0.64355 0.0
C2018 C 0.7021 0.09581 0.61125 0.0
C2019 C 0.72594 0.11416 0.60849 0.0
C2020 C 0.73589 0.1298 0.6237 0.0
H2021 H 0.77741 0.15061 0.49471 0.0
H2022 H 0.75303 0.14725 0.52402 0.0
C2023 C 0.72235 0.12765 0.64078 0.0
C2024 C 0.74066 0.11652 0.59001 0.0
H2025 H 0.76398 0.16486 0.55785 0.0
C2026 C 0.75007 0.09144 0.58101 0.0
C2027 C 0.74551 0.14325 0.58107 0.0
C2028 C 0.73465 0.17116 0.5889 0.0
C2029 C 0.76436 0.09234 0.564 0.0
C2030 C 0.77019 0.11916 0.55542 0.0
C2031 C 0.7602 0.14418 0.56421 0.0
C2032 C 0.78593 0.1217 0.53729 0.0
C2033 C 0.7724 0.06423 0.55517 0.0
C2034 C 0.81324 0.10914 0.53449 0.0
C2035 C 0.82742 0.11113 0.51758 0.0
C2036 C 0.81503 0.12596 0.5027 0.0
C2037 C 0.78799 0.13906 0.50563 0.0
C2038 C 0.77385 0.13709 0.52256 0.0
H2039 H 0.7592 0.04613 0.56036 0.0
H2040 H 0.76968 0.06534 0.54021 0.0
H2041 H 0.79527 0.05935 0.55827 0.0
H2042 H 0.82383 0.09775 0.54547 0.0
H2043 H 0.8481 0.1007 0.51615 0.0
H2044 H 0.19216 0.41348 0.37756 0.0
H2045 H 0.18867 0.43676 0.34761 0.0
H2046 H 0.13889 0.50541 0.37085 0.0
H2047 H 0.14206 0.48235 0.40054 0.0
H2048 H 0.20665 0.48894 0.3343 0.0
H2049 H 0.08816 0.48585 0.32809 0.0
H2050 H 0.1001 0.50341 0.34846 0.0
H2051 H 0.10741 0.46572 0.34523 0.0
C2052 C 0.18024 0.43342 0.37633 0.0
C2053 C 0.16724 0.44562 0.3918 0.0
C2054 C 0.17832 0.44689 0.35906 0.0
C2055 C 0.16303 0.47292 0.3565 0.0
C2056 C 0.15025 0.48515 0.37197 0.0
H2057 H 0.12501 0.52764 0.24312 0.0
H2058 H 0.12797 0.50262 0.27238 0.0
C2059 C 0.15227 0.47183 0.38918 0.0
C2060 C 0.16082 0.48756 0.33795 0.0
H2061 H 0.11264 0.51547 0.30684 0.0
C2062 C 0.18601 0.4946 0.32836 0.0
C2063 C 0.13405 0.49495 0.32965 0.0
C2064 C 0.10588 0.48686 0.33827 0.0
C2065 C 0.18524 0.50909 0.31134 0.0
C2066 C 0.1585 0.51742 0.30337 0.0
C2067 C 0.13329 0.50972 0.31274 0.0
C2068 C 0.1562 0.53355 0.28532 0.0
C2069 C 0.21329 0.51476 0.30186 0.0
C2070 C 0.17041 0.56001 0.28241 0.0
C2071 C 0.16858 0.5746 0.26556 0.0
C2072 C 0.15236 0.56345 0.25086 0.0
C2073 C 0.13768 0.53726 0.25391 0.0
C2074 C 0.13941 0.52275 0.2708 0.0
H2075 H 0.2306 0.50017 0.30678 0.0
H2076 H 0.21097 0.51208 0.28696 0.0
H2077 H 0.22018 0.5372 0.30464 0.0
H2078 H 0.18298 0.56958 0.29325 0.0
H2079 H 0.18029 0.59457 0.26402 0.0
H2080 H 0.72479 0.64382 0.55519 0.0
H2081 H 0.748 0.64762 0.58489 0.0
H2082 H 0.69477 0.57875 0.60474 0.0
H2083 H 0.67046 0.57585 0.57513 0.0
H2084 H 0.7808 0.61697 0.60375 0.0
H2085 H 0.68498 0.62891 0.64681 0.0
H2086 H 0.68385 0.596 0.6342 0.0
H2087 H 0.6826 0.63002 0.62243 0.0
C2088 C 0.71763 0.62961 0.56588 0.0
C2089 C 0.69528 0.60966 0.56248 0.0
C2090 C 0.73118 0.63175 0.58306 0.0
C2091 C 0.72325 0.6139 0.59769 0.0
C2092 C 0.70108 0.59367 0.59425 0.0
H2093 H 0.78486 0.65945 0.70861 0.0
H2094 H 0.76013 0.6566 0.67916 0.0
C2095 C 0.68716 0.59183 0.57708 0.0
C2096 C 0.73893 0.61605 0.61602 0.0
H2097 H 0.72922 0.61985 0.66223 0.0
C2098 C 0.76928 0.61771 0.61647 0.0
C2099 C 0.7246 0.61757 0.63301 0.0
C2100 C 0.69223 0.61835 0.63413 0.0
C2101 C 0.78529 0.62056 0.63288 0.0
C2102 C 0.77104 0.62075 0.64992 0.0
C2103 C 0.74068 0.61939 0.64949 0.0
C2104 C 0.78698 0.62286 0.66815 0.0
C2105 C 0.81743 0.6244 0.63156 0.0
C2106 C 0.81061 0.6049 0.67246 0.0
C2107 C 0.82525 0.60694 0.68932 0.0
C2108 C 0.81658 0.6266 0.70283 0.0
C2109 C 0.79264 0.64422 0.69868 0.0
C2110 C 0.77822 0.64244 0.6817 0.0
H2111 H 0.82358 0.63364 0.61824 0.0
H2112 H 0.82582 0.63873 0.64241 0.0
H2113 H 0.82805 0.60311 0.6328 0.0
H2114 H 0.81758 0.58874 0.66291 0.0
H2115 H 0.84304 0.59244 0.69191 0.0
H2116 H 0.14498 0.98097 0.80312 0.0
H2117 H 0.14153 1.00396 0.83279 0.0
H2118 H 0.19166 0.93554 0.85653 0.0
H2119 H 0.19544 0.91236 0.82663 0.0
H2120 H 0.11816 0.98868 0.86462 0.0
H2121 H 0.23491 1.00422 0.8764 0.0
H2122 H 0.22043 0.99353 0.85465 0.0
H2123 H 0.22482 0.96745 0.87248 0.0
C2124 C 0.15541 0.9706 0.81456 0.0
C2125 C 0.17065 0.94454 0.8121 0.0
C2126 C 0.15334 0.98395 0.83172 0.0
C2127 C 0.16665 0.97211 0.84726 0.0
C2128 C 0.18161 0.94585 0.84495 0.0
H2129 H 0.17972 0.09479 0.93894 0.0
H2130 H 0.18275 0.0691 0.90999 0.0
C2131 C 0.18358 0.93233 0.82771 0.0
C2132 C 0.1644 0.98722 0.86563 0.0
H2133 H 0.20417 0.01643 0.90069 0.0
C2134 C 0.13708 0.9946 0.87246 0.0
C2135 C 0.18881 0.99568 0.8761 0.0
C2136 C 0.21893 0.99011 0.86952 0.0
C2137 C 0.13353 1.00954 0.88913 0.0
C2138 C 0.15792 0.01746 0.89979 0.0
C2139 C 0.18526 1.01039 0.89288 0.0
C2140 C 0.15555 0.03351 0.91783 0.0
C2141 C 0.10349 0.01742 0.89489 0.0
C2142 C 0.13937 0.02255 0.93242 0.0
C2143 C 0.13758 0.03738 0.94917 0.0
C2144 C 0.15189 0.06384 0.95208 0.0
C2145 C 0.16807 0.07477 0.93745 0.0
C2146 C 0.16997 0.05986 0.92074 0.0
H2147 H 0.08817 0.01723 0.88326 0.0
H2148 H 0.09587 1.00149 0.90498 0.0
H2149 H 0.10302 0.03907 0.90126 0.0
H2150 H 0.12844 1.0021 0.93103 0.0
H2151 H 0.12519 0.02778 0.95998 0.0
H2152 H 0.86362 0.44198 1.07691 0.0
H2153 H 0.84022 0.43822 0.10667 0.0
H2154 H 0.77193 0.38828 1.08261 0.0
H2155 H 0.79512 0.39173 1.05309 0.0
H2156 H 0.78785 0.45595 0.11975 0.0
H2157 H 0.79152 0.33741 0.12521 0.0
H2158 H 0.81164 0.35684 0.10834 0.0
H2159 H 0.77401 0.34944 0.10481 0.0
C2160 C 0.84374 0.42996 1.07792 0.0
C2161 C 0.83168 0.417 1.06226 0.0
C2162 C 0.83019 0.42789 1.09508 0.0
C2163 C 0.80422 0.41248 1.09736 0.0
C2164 C 0.79214 0.39973 1.08171 0.0
H2165 H 0.7504 0.37398 0.21036 0.0
H2166 H 0.77509 0.3772 0.18115 0.0
C2167 C 0.80553 0.4019 1.0646 0.0
C2168 C 0.78951 0.41013 0.11582 0.0
H2169 H 0.76194 0.3617 0.14652 0.0
C2170 C 0.78231 0.43526 0.12554 0.0
C2171 C 0.78227 0.3833 0.12392 0.0
C2172 C 0.79049 0.35519 0.11515 0.0
C2173 C 0.76784 0.43434 0.14249 0.0
C2174 C 0.7597 0.40753 0.15027 0.0
C2175 C 0.76753 0.3824 0.14076 0.0
C2176 C 0.74373 0.40507 0.16829 0.0
C2177 C 0.76198 0.46234 0.15211 0.0
C2178 C 0.71714 0.41901 0.17124 0.0
C2179 C 0.70271 0.41701 0.18807 0.0
C2180 C 0.7142 0.40092 0.20271 0.0
C2181 C 0.74053 0.38654 0.19962 0.0
C2182 C 0.75485 0.38842 0.18276 0.0
H2183 H 0.77633 0.47981 0.14729 0.0
H2184 H 0.73944 0.46899 0.14937 0.0
H2185 H 0.76487 0.46001 0.167 0.0
H2186 H 0.70734 0.4315 0.16045 0.0
H2187 H 0.68264 0.42852 0.18966 0.0
H2188 H 0.40761 0.99604 0.45899 0.0
H2189 H 0.40486 0.02087 0.42963 0.0
H2190 H 0.34312 0.95857 0.41061 0.0
H2191 H 0.3458 0.93363 0.43988 0.0
H2192 H 0.41652 1.00436 0.39417 0.0
H2193 H 0.30143 0.03372 0.39866 0.0
H2194 H 0.32187 0.02101 0.41798 0.0
H2195 H 0.30816 0.99591 0.40149 0.0
C2196 C 0.39352 0.98738 0.44858 0.0
C2197 C 0.37703 0.96246 0.45214 0.0
C2198 C 0.39192 1.00178 0.43164 0.0
C2199 C 0.3734 0.99221 0.41761 0.0
C2200 C 0.35722 0.9671 0.42105 0.0
H2201 H 0.34275 0.11429 0.32577 0.0
H2202 H 0.34633 0.09096 0.35567 0.0
C2203 C 0.35902 0.95253 0.43792 0.0
C2204 C 0.37128 1.00821 0.3995 0.0
H2205 H 0.32386 0.04187 0.37026 0.0
C2206 C 0.39618 1.01251 0.38903 0.0
C2207 C 0.34501 0.01965 0.39255 0.0
C2208 C 0.31761 0.01766 0.40329 0.0
C2209 C 0.39546 0.02691 0.37199 0.0
C2210 C 0.369 0.0374 0.36468 0.0
C2211 C 0.34422 0.03377 0.3754 0.0
C2212 C 0.36668 0.05199 0.34609 0.0
C2213 C 0.42344 0.03127 0.36215 0.0
C2214 C 0.37643 0.03825 0.33021 0.0
C2215 C 0.37436 0.05163 0.313 0.0
C2216 C 0.36236 0.07941 0.31079 0.0
C2217 C 0.35233 0.09309 0.32666 0.0
C2218 C 0.35429 0.07959 0.34392 0.0
H2219 H 0.44216 0.03026 0.37158 0.0
H2220 H 0.42605 1.01394 0.35195 0.0
H2221 H 0.4238 0.0523 0.35501 0.0
H2222 H 0.38543 0.01681 0.33103 0.0
H2223 H 0.38219 0.03996 0.30133 0.0
H2224 H 0.35051 0.45892 0.63111 0.0
H2225 H 0.32544 0.45536 0.60174 0.0
H2226 H 0.28552 0.37645 0.61899 0.0
H2227 H 0.30962 0.38044 0.64844 0.0
H2228 H 0.32484 0.4211 0.57396 0.0
H2229 H 0.21498 0.41442 0.6013 0.0
H2230 H 0.24559 0.42258 0.61551 0.0
H2231 H 0.23705 0.3858 0.60984 0.0
C2232 C 0.33634 0.4408 0.62874 0.0
C2233 C 0.33221 0.42014 0.64255 0.0
C2234 C 0.32186 0.43874 0.61176 0.0
C2235 C 0.30259 0.41597 0.60784 0.0
C2236 C 0.29917 0.39491 0.62147 0.0
H2237 H 0.18237 0.43171 0.51387 0.0
H2238 H 0.20768 0.43543 0.54302 0.0
C2239 C 0.3134 0.39708 0.63846 0.0
C2240 C 0.28661 0.41399 0.5896 0.0
H2241 H 0.22 0.40262 0.57003 0.0
C2242 C 0.30188 0.41714 0.57324 0.0
C2243 C 0.25636 0.4094 0.58808 0.0
C2244 C 0.23749 0.40817 0.60461 0.0
C2245 C 0.28829 0.4153 0.5559 0.0
C2246 C 0.25829 0.40928 0.55439 0.0
C2247 C 0.24294 0.40673 0.57075 0.0
C2248 C 0.24235 0.40636 0.53618 0.0
C2249 C 0.30634 0.42087 0.53936 0.0
C2250 C 0.2524 0.38831 0.52215 0.0
C2251 C 0.23787 0.38628 0.50522 0.0
C2252 C 0.2123 0.40181 0.50164 0.0
C2253 C 0.20178 0.41921 0.51586 0.0
C2254 C 0.21644 0.4214 0.53272 0.0
H2255 H 0.32549 0.43421 0.54272 0.0
H2256 H 0.31419 0.40007 0.53393 0.0
H2257 H 0.29375 0.43198 0.5286 0.0
H2258 H 0.2716 0.37553 0.52425 0.0
H2259 H 0.24688 0.37254 0.49486 0.0
H2260 H 0.8943 0.05347 0.40043 0.0
H2261 H 0.8983 0.03045 0.37081 0.0
H2262 H 0.82888 0.08315 0.35051 0.0
H2263 H 0.82583 0.1073 0.38004 0.0
H2264 H 0.86831 0.99744 0.3519 0.0
H2265 H 0.87834 0.09356 0.30848 0.0
H2266 H 0.87953 0.09593 0.33285 0.0
H2267 H 0.84548 0.09414 0.32099 0.0
C2268 C 0.88002 0.06056 0.38965 0.0
C2269 C 0.85988 0.08272 0.39291 0.0
C2270 C 0.88227 0.04712 0.37252 0.0
C2271 C 0.86433 0.05495 0.35778 0.0
C2272 C 0.84389 0.07693 0.36108 0.0
H2273 H 0.91025 0.99433 0.24714 0.0
H2274 H 0.90703 0.01902 0.27646 0.0
C2275 C 0.84195 0.09076 0.37821 0.0
C2276 C 0.8666 0.03935 0.33948 0.0
H2277 H 0.86988 0.04922 0.29322 0.0
C2278 C 0.86877 1.00902 0.33915 0.0
C2279 C 0.86774 0.05374 0.32243 0.0
C2280 C 0.86797 0.08612 0.32117 0.0
C2281 C 0.87179 0.9931 0.3228 0.0
C2282 C 0.87162 1.00738 0.3057 0.0
C2283 C 0.86971 0.03772 0.30601 0.0
C2284 C 0.87392 0.9915 0.28752 0.0
C2285 C 0.87622 0.96102 0.32427 0.0
C2286 C 0.85644 0.96751 0.28327 0.0
C2287 C 0.8587 0.95289 0.26649 0.0
C2288 C 0.87811 0.96193 0.25299 0.0
C2289 C 0.89524 0.98624 0.25707 0.0
C2290 C 0.89324 1.00064 0.27397 0.0
H2291 H 0.88563 0.955 0.33764 0.0
H2292 H 0.85511 0.95003 0.32302 0.0
H2293 H 0.89063 0.9529 0.31349 0.0
H2294 H 0.84046 0.96021 0.29281 0.0
H2295 H 0.84454 0.93481 0.26395 0.0
H2296 H 0.23249 0.63487 0.15026 0.0
H2297 H 0.25518 0.63843 0.12056 0.0
H2298 H 0.18656 0.58833 1.09698 0.0
H2299 H 0.16371 0.58449 0.12687 0.0
H2300 H 0.23928 0.66184 1.08847 0.0
H2301 H 0.25516 0.54508 1.07745 0.0
H2302 H 0.21841 0.55503 1.08135 0.0
H2303 H 0.24474 0.55961 1.09912 0.0
C2304 C 0.22203 0.62449 0.13884 0.0
C2305 C 0.19601 0.60924 0.14133 0.0
C2306 C 0.23519 0.62662 0.12167 0.0
C2307 C 0.22319 0.61333 0.10618 0.0
C2308 C 0.19698 0.59837 0.10853 0.0
H2309 H 0.34466 0.60108 1.01446 0.0
H2310 H 0.31946 0.59795 1.04348 0.0
C2311 C 0.18365 0.59636 0.12576 0.0
C2312 C 0.23805 0.61558 1.08779 0.0
H2313 H 0.26676 0.57577 1.05291 0.0
C2314 C 0.24515 0.64291 1.08075 0.0
C2315 C 0.24642 0.59115 1.07745 0.0
C2316 C 0.24108 0.56104 1.08425 0.0
C2317 C 0.25972 0.64644 1.064 0.0
C2318 C 0.26757 0.62203 1.05349 0.0
C2319 C 0.26078 0.59469 1.06061 0.0
C2320 C 0.28327 0.6244 1.0354 0.0
C2321 C 0.26727 0.67648 1.05796 0.0
C2322 C 0.27177 0.64018 1.02066 0.0
C2323 C 0.28629 0.64201 1.00387 0.0
C2324 C 0.31297 0.62815 1.00108 0.0
C2325 C 0.32443 0.61236 1.01586 0.0
C2326 C 0.30983 0.61041 1.0326 0.0
H2327 H 0.26702 0.69195 1.06945 0.0
H2328 H 0.28886 0.67706 1.05163 0.0
H2329 H 0.25121 0.68383 1.04776 0.0
H2330 H 0.25116 0.65077 1.02199 0.0
H2331 H 0.27628 0.65406 0.99295 0.0
H2332 H 0.63285 0.97877 0.90188 0.0
H2333 H 0.62896 1.00171 0.87213 0.0
H2334 H 0.69293 0.94357 0.85133 0.0
H2335 H 0.69592 0.91972 0.88095 0.0
H2336 H 0.66092 0.03197 0.85247 0.0
H2337 H 0.63954 0.93628 0.81023 0.0
H2338 H 0.63963 0.93459 0.83464 0.0
H2339 H 0.67295 0.93287 0.82231 0.0
C2340 C 0.64593 0.9705 0.89097 0.0
C2341 C 0.66453 0.94693 0.89411 0.0
C2342 C 0.64374 0.98387 0.87377 0.0
C2343 C 0.66017 0.97446 0.85886 0.0
C2344 C 0.67907 0.95107 0.86205 0.0
H2345 H 0.61639 0.03831 0.74763 0.0
H2346 H 0.61712 1.01375 0.77717 0.0
C2347 C 0.68098 0.93741 0.87924 0.0
C2348 C 0.65811 0.98984 0.84046 0.0
H2349 H 0.65159 0.97926 0.79434 0.0
C2350 C 0.65875 0.02021 0.83984 0.0
C2351 C 0.65469 0.97523 0.82358 0.0
C2352 C 0.65134 0.94298 0.82269 0.0
C2353 C 0.65657 0.03595 0.82335 0.0
C2354 C 0.65463 0.02132 0.8064 0.0
C2355 C 0.65346 0.99097 0.80701 0.0
C2356 C 0.65376 0.03696 0.78809 0.0
C2357 C 0.65543 0.06834 0.82448 0.0
C2358 C 0.67408 0.05839 0.7837 0.0
C2359 C 0.67337 0.07286 0.76683 0.0
C2360 C 0.65264 0.06625 0.75333 0.0
C2361 C 0.63254 0.04448 0.75754 0.0
C2362 C 0.63308 0.03017 0.77456 0.0
H2363 H 0.64698 0.07558 0.83778 0.0
H2364 H 0.67751 0.07712 0.82316 0.0
H2365 H 0.64167 0.07763 0.81359 0.0
H2366 H 0.69104 0.06374 0.79324 0.0
H2367 H 0.68968 0.08895 0.76427 0.0
loop_
_geom_bond_atom_site_label_1
_geom_bond_atom_site_label_2
_geom_bond_distance
_geom_bond_site_symmetry_2
_ccdc_geom_bond_type
Eu0 C9 2.828 . S
Eu0 O11 2.392 . S
Eu0 O13 2.418 . S
Eu0 O18 2.373 . S
Eu0 O21 2.488 . S
Eu0 O22 2.471 . S
Eu0 O23 2.349 . S
Eu1 O10 2.373 . S
Eu1 O14 2.488 . S
Eu1 O15 2.471 . S
Eu1 O16 2.349 . S
Eu1 O19 2.392 . S
Eu1 O20 2.418 . S
Eu1 C30 2.828 . S
C2 O20 1.244 . S
C2 O23 1.265 . S
C3 C4 1.379 . S
C3 C7 1.373 . S
C3 C9 1.505 . S
C4 C3 1.379 . S
C4 C6 1.369 . S
C4 H32 0.930 . S
C5 C7 1.383 . S
C5 C8 1.382 . S
C5 H33 0.930 . S
C6 C4 1.369 . S
C6 C8 1.392 . S
C6 H34 0.930 . S
C7 C3 1.373 . S
C7 C5 1.383 . S
C7 H35 0.931 . S
C8 C5 1.382 . S
C8 C6 1.392 . S
C9 Eu0 2.828 . S
C9 C3 1.505 . S
C9 O21 1.249 . S
C9 O22 1.244 . S
O10 Eu1 2.373 . S
O10 C12 1.258 . S
O11 Eu0 2.392 . S
O11 C12 1.242 . S
C12 O10 1.258 . S
C12 O11 1.242 . S
O13 Eu0 2.418 . S
O13 C17 1.244 . S
O14 Eu1 2.488 . S
O14 C30 1.249 . S
O15 Eu1 2.471 . S
O15 C30 1.244 . S
O16 Eu1 2.349 . S
O16 C17 1.265 . S
C17 O13 1.244 . S
C17 O16 1.265 . S
O18 Eu0 2.373 . S
O18 C31 1.258 . S
O19 Eu1 2.392 . S
O19 C31 1.242 . S
O20 Eu1 2.418 . S
O20 C2 1.244 . S
O21 Eu0 2.488 . S
O21 C9 1.249 . S
O22 Eu0 2.471 . S
O22 C9 1.244 . S
O23 Eu0 2.349 . S
O23 C2 1.265 . S
C24 C25 1.379 . S
C24 C28 1.373 . S
C24 C30 1.505 . S
C25 C24 1.379 . S
C25 C27 1.369 . S
C25 H36 0.930 . S
C26 C28 1.383 . S
C26 C29 1.382 . S
C26 H37 0.930 1_545 S
C27 C25 1.369 . S
C27 C29 1.392 . S
C27 H38 0.930 . S
C28 C24 1.373 . S
C28 C26 1.383 . S
C28 H39 0.931 . S
C29 C26 1.382 . S
C29 C27 1.392 . S
C30 Eu1 2.828 . S
C30 O14 1.249 . S
C30 O15 1.244 . S
C30 C24 1.505 . S
C31 O18 1.258 . S
C31 O19 1.242 . S
H32 C4 0.930 . S
H33 C5 0.930 . S
H34 C6 0.930 . S
H35 C7 0.931 . S
H36 C25 0.930 . S
H37 C26 0.930 1_565 S
H38 C27 0.930 . S
H39 C28 0.931 . S
Eu40 C49 2.828 . S
Eu40 O51 2.392 . S
Eu40 O53 2.418 . S
Eu40 O58 2.373 . S
Eu40 O61 2.488 . S
Eu40 O62 2.471 . S
Eu40 O63 2.349 . S
Eu41 O50 2.373 . S
Eu41 O54 2.488 . S
Eu41 O55 2.471 . S
Eu41 O56 2.349 . S
Eu41 O59 2.392 . S
Eu41 O60 2.418 . S
Eu41 C70 2.828 . S
C42 O60 1.244 . S
C42 O63 1.265 . S
C43 C44 1.379 . S
C43 C47 1.373 . S
C43 C49 1.505 . S
C44 C43 1.379 . S
C44 C46 1.369 . S
C44 H72 0.930 . S
C45 C47 1.383 . S
C45 C48 1.382 . S
C45 H73 0.930 . S
C46 C44 1.369 . S
C46 C48 1.392 . S
C46 H74 0.930 . S
C47 C43 1.373 . S
C47 C45 1.383 . S
C47 H75 0.931 . S
C48 C45 1.382 . S
C48 C46 1.392 . S
C49 Eu40 2.828 . S
C49 C43 1.505 . S
C49 O61 1.249 . S
C49 O62 1.244 . S
O50 Eu41 2.373 . S
O50 C52 1.258 . S
O51 Eu40 2.392 . S
O51 C52 1.242 . S
C52 O50 1.258 . S
C52 O51 1.242 . S
O53 Eu40 2.418 . S
O53 C57 1.244 . S
O54 Eu41 2.488 . S
O54 C70 1.249 . S
O55 Eu41 2.471 . S
O55 C70 1.244 . S
O56 Eu41 2.349 . S
O56 C57 1.265 . S
C57 O53 1.244 . S
C57 O56 1.265 . S
O58 Eu40 2.373 . S
O58 C71 1.258 . S
O59 Eu41 2.392 . S
O59 C71 1.242 . S
O60 Eu41 2.418 . S
O60 C42 1.244 . S
O61 Eu40 2.488 . S
O61 C49 1.249 . S
O62 Eu40 2.471 . S
O62 C49 1.244 . S
O63 Eu40 2.349 . S
O63 C42 1.265 . S
C64 C65 1.379 . S
C64 C68 1.373 . S
C64 C70 1.505 . S
C65 C64 1.379 . S
C65 C67 1.369 . S
C65 H76 0.930 . S
C66 C68 1.383 . S
C66 C69 1.382 . S
C66 H77 0.930 . S
C67 C65 1.369 . S
C67 C69 1.392 . S
C67 H78 0.930 . S
C68 C64 1.373 . S
C68 C66 1.383 . S
C68 H79 0.931 . S
C69 C66 1.382 . S
C69 C67 1.392 . S
C70 Eu41 2.828 . S
C70 O54 1.249 . S
C70 O55 1.244 . S
C70 C64 1.505 . S
C71 O58 1.258 . S
C71 O59 1.242 . S
H72 C44 0.930 . S
H73 C45 0.930 . S
H74 C46 0.930 . S
H75 C47 0.931 . S
H76 C65 0.930 . S
H77 C66 0.930 . S
H78 C67 0.930 . S
H79 C68 0.931 . S
Eu80 C89 2.828 . S
Eu80 O91 2.392 . S
Eu80 O93 2.418 . S
Eu80 O98 2.373 . S
Eu80 O101 2.488 . S
Eu80 O102 2.471 . S
Eu80 O103 2.349 . S
Eu81 O90 2.373 . S
Eu81 O94 2.488 . S
Eu81 O95 2.471 . S
Eu81 O96 2.349 . S
Eu81 O99 2.392 . S
Eu81 O100 2.418 . S
Eu81 C110 2.828 . S
C82 O100 1.244 . S
C82 O103 1.265 . S
C83 C84 1.379 . S
C83 C87 1.373 . S
C83 C89 1.505 . S
C84 C83 1.379 . S
C84 C86 1.369 . S
C84 H112 0.930 . S
C85 C87 1.383 . S
C85 C88 1.382 . S
C85 H113 0.930 . S
C86 C84 1.369 . S
C86 C88 1.392 . S
C86 H114 0.930 . S
C87 C83 1.373 . S
C87 C85 1.383 . S
C87 H115 0.931 . S
C88 C85 1.382 . S
C88 C86 1.392 . S
C89 Eu80 2.828 . S
C89 C83 1.505 . S
C89 O101 1.249 . S
C89 O102 1.244 . S
O90 Eu81 2.373 . S
O90 C92 1.258 . S
O91 Eu80 2.392 . S
O91 C92 1.242 . S
C92 O90 1.258 . S
C92 O91 1.242 . S
O93 Eu80 2.418 . S
O93 C97 1.244 . S
O94 Eu81 2.488 . S
O94 C110 1.249 . S
O95 Eu81 2.471 . S
O95 C110 1.244 . S
O96 Eu81 2.349 . S
O96 C97 1.265 . S
C97 O93 1.244 . S
C97 O96 1.265 . S
O98 Eu80 2.373 . S
O98 C111 1.258 . S
O99 Eu81 2.392 . S
O99 C111 1.242 . S
O100 Eu81 2.418 . S
O100 C82 1.244 . S
O101 Eu80 2.488 . S
O101 C89 1.249 . S
O102 Eu80 2.471 . S
O102 C89 1.244 . S
O103 Eu80 2.349 . S
O103 C82 1.265 . S
C104 C105 1.379 . S
C104 C108 1.373 . S
C104 C110 1.505 . S
C105 C104 1.379 . S
C105 C107 1.369 . S
C105 H116 0.930 . S
C106 C108 1.383 . S
C106 C109 1.382 . S
C106 H117 0.930 1_565 S
C107 C105 1.369 . S
C107 C109 1.392 . S
C107 H118 0.930 . S
C108 C104 1.373 . S
C108 C106 1.383 . S
C108 H119 0.931 . S
C109 C106 1.382 . S
C109 C107 1.392 . S
C110 Eu81 2.828 . S
C110 O94 1.249 . S
C110 O95 1.244 . S
C110 C104 1.505 . S
C111 O98 1.258 . S
C111 O99 1.242 . S
H112 C84 0.930 . S
H113 C85 0.930 . S
H114 C86 0.930 . S
H115 C87 0.931 . S
H116 C105 0.930 . S
H117 C106 0.930 1_545 S
H118 C107 0.930 . S
H119 C108 0.931 . S
Eu120 C129 2.828 . S
Eu120 O131 2.392 . S
Eu120 O133 2.418 . S
Eu120 O138 2.373 . S
Eu120 O141 2.488 . S
Eu120 O142 2.471 . S
Eu120 O143 2.349 . S
Eu121 O130 2.373 . S
Eu121 O134 2.488 . S
Eu121 O135 2.471 . S
Eu121 O136 2.349 . S
Eu121 O139 2.392 . S
Eu121 O140 2.418 . S
Eu121 C150 2.828 . S
C122 O140 1.244 . S
C122 O143 1.265 . S
C123 C124 1.379 . S
C123 C127 1.373 1_655 S
C123 C129 1.505 . S
C124 C123 1.379 . S
C124 C126 1.369 . S
C124 H152 0.930 . S
C125 C127 1.383 . S
C125 C128 1.382 . S
C125 H153 0.930 . S
C126 C124 1.369 . S
C126 C128 1.392 1_655 S
C126 H154 0.930 . S
C127 C123 1.373 1_455 S
C127 C125 1.383 . S
C127 H155 0.931 . S
C128 C125 1.382 . S
C128 C126 1.392 1_455 S
C129 Eu120 2.828 . S
C129 C123 1.505 . S
C129 O141 1.249 . S
C129 O142 1.244 . S
O130 Eu121 2.373 . S
O130 C132 1.258 . S
O131 Eu120 2.392 . S
O131 C132 1.242 . S
C132 O130 1.258 . S
C132 O131 1.242 . S
O133 Eu120 2.418 . S
O133 C137 1.244 . S
O134 Eu121 2.488 . S
O134 C150 1.249 . S
O135 Eu121 2.471 . S
O135 C150 1.244 . S
O136 Eu121 2.349 . S
O136 C137 1.265 . S
C137 O133 1.244 . S
C137 O136 1.265 . S
O138 Eu120 2.373 . S
O138 C151 1.258 . S
O139 Eu121 2.392 . S
O139 C151 1.242 . S
O140 Eu121 2.418 . S
O140 C122 1.244 . S
O141 Eu120 2.488 . S
O141 C129 1.249 . S
O142 Eu120 2.471 . S
O142 C129 1.244 . S
O143 Eu120 2.349 . S
O143 C122 1.265 . S
C144 C145 1.379 . S
C144 C148 1.373 . S
C144 C150 1.505 . S
C145 C144 1.379 . S
C145 C147 1.369 . S
C145 H156 0.930 . S
C146 C148 1.383 . S
C146 C149 1.382 . S
C146 H157 0.930 . S
C147 C145 1.369 . S
C147 C149 1.392 . S
C147 H158 0.930 . S
C148 C144 1.373 . S
C148 C146 1.383 . S
C148 H159 0.931 . S
C149 C146 1.382 . S
C149 C147 1.392 . S
C150 Eu121 2.828 . S
C150 O134 1.249 . S
C150 O135 1.244 . S
C150 C144 1.505 . S
C151 O138 1.258 . S
C151 O139 1.242 . S
H152 C124 0.930 . S
H153 C125 0.930 . S
H154 C126 0.930 . S
H155 C127 0.931 . S
H156 C145 0.930 . S
H157 C146 0.930 . S
H158 C147 0.930 . S
H159 C148 0.931 . S
Eu160 C169 2.828 . S
Eu160 O171 2.392 . S
Eu160 O173 2.418 . S
Eu160 O178 2.373 . S
Eu160 O181 2.488 . S
Eu160 O182 2.471 . S
Eu160 O183 2.349 . S
Eu161 O170 2.373 . S
Eu161 O174 2.488 . S
Eu161 O175 2.471 . S
Eu161 O176 2.349 . S
Eu161 O179 2.392 . S
Eu161 O180 2.418 . S
Eu161 C190 2.828 . S
C162 O180 1.244 . S
C162 O183 1.265 . S
C163 C164 1.379 . S
C163 C167 1.373 . S
C163 C169 1.505 . S
C164 C163 1.379 . S
C164 C166 1.369 . S
C164 H192 0.930 . S
C165 C167 1.383 . S
C165 C168 1.382 . S
C165 H193 0.930 1_565 S
C166 C164 1.369 . S
C166 C168 1.392 . S
C166 H194 0.930 . S
C167 C163 1.373 . S
C167 C165 1.383 . S
C167 H195 0.931 . S
C168 C165 1.382 . S
C168 C166 1.392 . S
C169 Eu160 2.828 . S
C169 C163 1.505 . S
C169 O181 1.249 . S
C169 O182 1.244 . S
O170 Eu161 2.373 . S
O170 C172 1.258 . S
O171 Eu160 2.392 . S
O171 C172 1.242 . S
C172 O170 1.258 . S
C172 O171 1.242 . S
O173 Eu160 2.418 . S
O173 C177 1.244 . S
O174 Eu161 2.488 . S
O174 C190 1.249 . S
O175 Eu161 2.471 . S
O175 C190 1.244 . S
O176 Eu161 2.349 . S
O176 C177 1.265 . S
C177 O173 1.244 . S
C177 O176 1.265 . S
O178 Eu160 2.373 . S
O178 C191 1.258 . S
O179 Eu161 2.392 . S
O179 C191 1.242 . S
O180 Eu161 2.418 . S
O180 C162 1.244 . S
O181 Eu160 2.488 . S
O181 C169 1.249 . S
O182 Eu160 2.471 . S
O182 C169 1.244 . S
O183 Eu160 2.349 . S
O183 C162 1.265 . S
C184 C185 1.379 . S
C184 C188 1.373 . S
C184 C190 1.505 . S
C185 C184 1.379 . S
C185 C187 1.369 . S
C185 H196 0.930 . S
C186 C188 1.383 . S
C186 C189 1.382 . S
C186 H197 0.930 . S
C187 C185 1.369 . S
C187 C189 1.392 . S
C187 H198 0.930 . S
C188 C184 1.373 . S
C188 C186 1.383 . S
C188 H199 0.931 . S
C189 C186 1.382 . S
C189 C187 1.392 . S
C190 Eu161 2.828 . S
C190 O174 1.249 . S
C190 O175 1.244 . S
C190 C184 1.505 . S
C191 O178 1.258 . S
C191 O179 1.242 . S
H192 C164 0.930 . S
H193 C165 0.930 1_545 S
H194 C166 0.930 . S
H195 C167 0.931 . S
H196 C185 0.930 . S
H197 C186 0.930 . S
H198 C187 0.930 . S
H199 C188 0.931 . S
Eu200 C209 2.828 . S
Eu200 O211 2.392 . S
Eu200 O213 2.418 . S
Eu200 O218 2.373 . S
Eu200 O221 2.488 . S
Eu200 O222 2.471 . S
Eu200 O223 2.349 . S
Eu201 O210 2.373 . S
Eu201 O214 2.488 . S
Eu201 O215 2.471 . S
Eu201 O216 2.349 . S
Eu201 O219 2.392 . S
Eu201 O220 2.418 . S
Eu201 C230 2.828 . S
C202 O220 1.244 . S
C202 O223 1.265 . S
C203 C204 1.379 . S
C203 C207 1.373 . S
C203 C209 1.505 . S
C204 C203 1.379 . S
C204 C206 1.369 . S
C204 H232 0.930 . S
C205 C207 1.383 . S
C205 C208 1.382 . S
C205 H233 0.930 . S
C206 C204 1.369 . S
C206 C208 1.392 . S
C206 H234 0.930 . S
C207 C203 1.373 . S
C207 C205 1.383 . S
C207 H235 0.931 . S
C208 C205 1.382 . S
C208 C206 1.392 . S
C209 Eu200 2.828 . S
C209 C203 1.505 . S
C209 O221 1.249 . S
C209 O222 1.244 . S
O210 Eu201 2.373 . S
O210 C212 1.258 . S
O211 Eu200 2.392 . S
O211 C212 1.242 . S
C212 O210 1.258 . S
C212 O211 1.242 . S
O213 Eu200 2.418 . S
O213 C217 1.244 . S
O214 Eu201 2.488 . S
O214 C230 1.249 . S
O215 Eu201 2.471 . S
O215 C230 1.244 . S
O216 Eu201 2.349 . S
O216 C217 1.265 . S
C217 O213 1.244 . S
C217 O216 1.265 . S
O218 Eu200 2.373 . S
O218 C231 1.258 . S
O219 Eu201 2.392 . S
O219 C231 1.242 . S
O220 Eu201 2.418 . S
O220 C202 1.244 . S
O221 Eu200 2.488 . S
O221 C209 1.249 . S
O222 Eu200 2.471 . S
O222 C209 1.244 . S
O223 Eu200 2.349 . S
O223 C202 1.265 . S
C224 C225 1.379 . S
C224 C228 1.373 . S
C224 C230 1.505 . S
C225 C224 1.379 . S
C225 C227 1.369 . S
C225 H236 0.930 . S
C226 C228 1.383 . S
C226 C229 1.382 . S
C226 H237 0.930 . S
C227 C225 1.369 . S
C227 C229 1.392 . S
C227 H238 0.930 . S
C228 C224 1.373 . S
C228 C226 1.383 . S
C228 H239 0.931 . S
C229 C226 1.382 . S
C229 C227 1.392 . S
C230 Eu201 2.828 . S
C230 O214 1.249 . S
C230 O215 1.244 . S
C230 C224 1.505 . S
C231 O218 1.258 . S
C231 O219 1.242 . S
H232 C204 0.930 . S
H233 C205 0.930 . S
H234 C206 0.930 . S
H235 C207 0.931 . S
H236 C225 0.930 . S
H237 C226 0.930 . S
H238 C227 0.930 . S
H239 C228 0.931 . S
Eu240 C249 2.828 . S
Eu240 O251 2.392 . S
Eu240 O253 2.418 . S
Eu240 O258 2.373 . S
Eu240 O261 2.488 . S
Eu240 O262 2.471 . S
Eu240 O263 2.349 . S
Eu241 O250 2.373 . S
Eu241 O254 2.488 . S
Eu241 O255 2.471 . S
Eu241 O256 2.349 . S
Eu241 O259 2.392 . S
Eu241 O260 2.418 . S
Eu241 C270 2.828 . S
C242 O260 1.244 . S
C242 O263 1.265 . S
C243 C244 1.379 . S
C243 C247 1.373 . S
C243 C249 1.505 . S
C244 C243 1.379 . S
C244 C246 1.369 . S
C244 H272 0.930 . S
C245 C247 1.383 . S
C245 C248 1.382 . S
C245 H273 0.930 1_545 S
C246 C244 1.369 . S
C246 C248 1.392 . S
C246 H274 0.930 . S
C247 C243 1.373 . S
C247 C245 1.383 . S
C247 H275 0.931 . S
C248 C245 1.382 . S
C248 C246 1.392 . S
C249 Eu240 2.828 . S
C249 C243 1.505 . S
C249 O261 1.249 . S
C249 O262 1.244 . S
O250 Eu241 2.373 . S
O250 C252 1.258 . S
O251 Eu240 2.392 . S
O251 C252 1.242 . S
C252 O250 1.258 . S
C252 O251 1.242 . S
O253 Eu240 2.418 . S
O253 C257 1.244 . S
O254 Eu241 2.488 . S
O254 C270 1.249 . S
O255 Eu241 2.471 . S
O255 C270 1.244 . S
O256 Eu241 2.349 . S
O256 C257 1.265 . S
C257 O253 1.244 . S
C257 O256 1.265 . S
O258 Eu240 2.373 . S
O258 C271 1.258 . S
O259 Eu241 2.392 . S
O259 C271 1.242 . S
O260 Eu241 2.418 . S
O260 C242 1.244 . S
O261 Eu240 2.488 . S
O261 C249 1.249 . S
O262 Eu240 2.471 . S
O262 C249 1.244 . S
O263 Eu240 2.349 . S
O263 C242 1.265 . S
C264 C265 1.379 . S
C264 C268 1.373 . S
C264 C270 1.505 . S
C265 C264 1.379 . S
C265 C267 1.369 . S
C265 H276 0.930 . S
C266 C268 1.383 . S
C266 C269 1.382 . S
C266 H277 0.930 . S
C267 C265 1.369 . S
C267 C269 1.392 . S
C267 H278 0.930 . S
C268 C264 1.373 . S
C268 C266 1.383 . S
C268 H279 0.931 . S
C269 C266 1.382 . S
C269 C267 1.392 . S
C270 Eu241 2.828 . S
C270 O254 1.249 . S
C270 O255 1.244 . S
C270 C264 1.505 . S
C271 O258 1.258 . S
C271 O259 1.242 . S
H272 C244 0.930 . S
H273 C245 0.930 1_565 S
H274 C246 0.930 . S
H275 C247 0.931 . S
H276 C265 0.930 . S
H277 C266 0.930 . S
H278 C267 0.930 . S
H279 C268 0.931 . S
Eu280 C289 2.828 . S
Eu280 O291 2.392 . S
Eu280 O293 2.418 . S
Eu280 O298 2.373 . S
Eu280 O301 2.488 . S
Eu280 O302 2.471 . S
Eu280 O303 2.349 . S
Eu281 O290 2.373 . S
Eu281 O294 2.488 . S
Eu281 O295 2.471 . S
Eu281 O296 2.349 . S
Eu281 O299 2.392 . S
Eu281 O300 2.418 . S
Eu281 C310 2.828 . S
C282 O300 1.244 . S
C282 O303 1.265 . S
C283 C284 1.379 . S
C283 C287 1.373 . S
C283 C289 1.505 . S
C284 C283 1.379 . S
C284 C286 1.369 . S
C284 H312 0.930 . S
C285 C287 1.383 . S
C285 C288 1.382 . S
C285 H313 0.930 . S
C286 C284 1.369 . S
C286 C288 1.392 . S
C286 H314 0.930 . S
C287 C283 1.373 . S
C287 C285 1.383 . S
C287 H315 0.931 . S
C288 C285 1.382 . S
C288 C286 1.392 . S
C289 Eu280 2.828 . S
C289 C283 1.505 . S
C289 O301 1.249 . S
C289 O302 1.244 . S
O290 Eu281 2.373 . S
O290 C292 1.258 . S
O291 Eu280 2.392 . S
O291 C292 1.242 . S
C292 O290 1.258 . S
C292 O291 1.242 . S
O293 Eu280 2.418 . S
O293 C297 1.244 . S
O294 Eu281 2.488 . S
O294 C310 1.249 . S
O295 Eu281 2.471 . S
O295 C310 1.244 . S
O296 Eu281 2.349 . S
O296 C297 1.265 . S
C297 O293 1.244 . S
C297 O296 1.265 . S
O298 Eu280 2.373 . S
O298 C311 1.258 . S
O299 Eu281 2.392 . S
O299 C311 1.242 . S
O300 Eu281 2.418 . S
O300 C282 1.244 . S
O301 Eu280 2.488 . S
O301 C289 1.249 . S
O302 Eu280 2.471 . S
O302 C289 1.244 . S
O303 Eu280 2.349 . S
O303 C282 1.265 . S
C304 C305 1.379 . S
C304 C308 1.373 1_455 S
C304 C310 1.505 . S
C305 C304 1.379 . S
C305 C307 1.369 . S
C305 H316 0.930 . S
C306 C308 1.383 . S
C306 C309 1.382 . S
C306 H317 0.930 . S
C307 C305 1.369 . S
C307 C309 1.392 1_455 S
C307 H318 0.930 . S
C308 C304 1.373 1_655 S
C308 C306 1.383 . S
C308 H319 0.931 . S
C309 C306 1.382 . S
C309 C307 1.392 1_655 S
C310 Eu281 2.828 . S
C310 O294 1.249 . S
C310 O295 1.244 . S
C310 C304 1.505 . S
C311 O298 1.258 . S
C311 O299 1.242 . S
H312 C284 0.930 . S
H313 C285 0.930 . S
H314 C286 0.930 . S
H315 C287 0.931 . S
H316 C305 0.930 . S
H317 C306 0.930 . S
H318 C307 0.930 . S
H319 C308 0.931 . S
Eu320 C329 2.828 . S
Eu320 O331 2.392 . S
Eu320 O333 2.418 . S
Eu320 O338 2.373 . S
Eu320 O341 2.488 . S
Eu320 O342 2.471 . S
Eu320 O343 2.349 . S
Eu321 O330 2.373 . S
Eu321 O334 2.488 . S
Eu321 O335 2.471 . S
Eu321 O336 2.349 . S
Eu321 O339 2.392 . S
Eu321 O340 2.418 . S
Eu321 C350 2.828 . S
C322 O340 1.244 . S
C322 O343 1.265 . S
C323 C324 1.379 . S
C323 C327 1.373 . S
C323 C329 1.505 . S
C324 C323 1.379 . S
C324 C326 1.369 . S
C324 H352 0.930 . S
C325 C327 1.383 . S
C325 C328 1.382 . S
C325 H353 0.930 . S
C326 C324 1.369 . S
C326 C328 1.392 . S
C326 H354 0.930 . S
C327 C323 1.373 . S
C327 C325 1.383 . S
C327 H355 0.931 . S
C328 C325 1.382 . S
C328 C326 1.392 . S
C329 Eu320 2.828 . S
C329 C323 1.505 . S
C329 O341 1.249 . S
C329 O342 1.244 . S
O330 Eu321 2.373 . S
O330 C332 1.258 . S
O331 Eu320 2.392 . S
O331 C332 1.242 . S
C332 O330 1.258 . S
C332 O331 1.242 . S
O333 Eu320 2.418 . S
O333 C337 1.244 . S
O334 Eu321 2.488 . S
O334 C350 1.249 . S
O335 Eu321 2.471 . S
O335 C350 1.244 . S
O336 Eu321 2.349 . S
O336 C337 1.265 . S
C337 O333 1.244 . S
C337 O336 1.265 . S
O338 Eu320 2.373 . S
O338 C351 1.258 . S
O339 Eu321 2.392 . S
O339 C351 1.242 . S
O340 Eu321 2.418 . S
O340 C322 1.244 . S
O341 Eu320 2.488 . S
O341 C329 1.249 . S
O342 Eu320 2.471 . S
O342 C329 1.244 . S
O343 Eu320 2.349 . S
O343 C322 1.265 . S
C344 C345 1.379 . S
C344 C348 1.373 . S
C344 C350 1.505 . S
C345 C344 1.379 . S
C345 C347 1.369 . S
C345 H356 0.930 . S
C346 C348 1.383 . S
C346 C349 1.382 . S
C346 H357 0.930 . S
C347 C345 1.369 . S
C347 C349 1.392 . S
C347 H358 0.930 . S
C348 C344 1.373 . S
C348 C346 1.383 . S
C348 H359 0.931 . S
C349 C346 1.382 . S
C349 C347 1.392 . S
C350 Eu321 2.828 . S
C350 O334 1.249 . S
C350 O335 1.244 . S
C350 C344 1.505 . S
C351 O338 1.258 . S
C351 O339 1.242 . S
H352 C324 0.930 . S
H353 C325 0.930 . S
H354 C326 0.930 . S
H355 C327 0.931 . S
H356 C345 0.930 . S
H357 C346 0.930 . S
H358 C347 0.930 . S
H359 C348 0.931 . S
Eu360 C369 2.828 . S
Eu360 O371 2.392 . S
Eu360 O373 2.418 . S
Eu360 O378 2.373 . S
Eu360 O381 2.488 . S
Eu360 O382 2.471 . S
Eu360 O383 2.349 . S
Eu361 O370 2.373 . S
Eu361 O374 2.488 . S
Eu361 O375 2.471 . S
Eu361 O376 2.349 . S
Eu361 O379 2.392 . S
Eu361 O380 2.418 . S
Eu361 C390 2.828 . S
C362 O380 1.244 . S
C362 O383 1.265 . S
C363 C364 1.370 1_545 S
C363 C367 1.376 1_455 S
C363 C369 1.511 . S
C364 C363 1.370 1_565 S
C364 C366 1.369 . S
C364 H392 0.930 . S
C365 C367 1.383 1_565 S
C365 C368 1.382 . S
C365 H393 0.931 . S
C366 C364 1.369 . S
C366 C368 1.392 1_455 S
C366 H394 0.930 . S
C367 C363 1.376 1_655 S
C367 C365 1.383 1_545 S
C367 H395 0.931 . S
C368 C365 1.382 . S
C368 C366 1.392 1_655 S
C369 Eu360 2.828 . S
C369 C363 1.511 . S
C369 O381 1.249 . S
C369 O382 1.244 . S
O370 Eu361 2.373 . S
O370 C372 1.258 . S
O371 Eu360 2.392 . S
O371 C372 1.242 . S
C372 O370 1.258 . S
C372 O371 1.242 . S
O373 Eu360 2.418 . S
O373 C377 1.244 . S
O374 Eu361 2.488 . S
O374 C390 1.249 . S
O375 Eu361 2.471 . S
O375 C390 1.244 . S
O376 Eu361 2.349 . S
O376 C377 1.265 . S
C377 O373 1.244 . S
C377 O376 1.265 . S
O378 Eu360 2.373 . S
O378 C391 1.258 . S
O379 Eu361 2.392 . S
O379 C391 1.242 . S
O380 Eu361 2.418 . S
O380 C362 1.244 . S
O381 Eu360 2.488 . S
O381 C369 1.249 . S
O382 Eu360 2.471 . S
O382 C369 1.244 . S
O383 Eu360 2.349 . S
O383 C362 1.265 . S
C384 C385 1.379 . S
C384 C388 1.373 . S
C384 C390 1.505 . S
C385 C384 1.379 . S
C385 C387 1.369 . S
C385 H396 0.930 . S
C386 C388 1.383 . S
C386 C389 1.382 . S
C386 H397 0.930 . S
C387 C385 1.369 . S
C387 C389 1.392 . S
C387 H398 0.930 . S
C388 C384 1.373 . S
C388 C386 1.383 . S
C388 H399 0.931 . S
C389 C386 1.382 . S
C389 C387 1.392 . S
C390 Eu361 2.828 . S
C390 O374 1.249 . S
C390 O375 1.244 . S
C390 C384 1.505 . S
C391 O378 1.258 . S
C391 O379 1.242 . S
H392 C364 0.930 . S
H393 C365 0.931 . S
H394 C366 0.930 . S
H395 C367 0.931 . S
H396 C385 0.930 . S
H397 C386 0.930 . S
H398 C387 0.930 . S
H399 C388 0.931 . S
Eu400 C409 2.828 . S
Eu400 O411 2.392 . S
Eu400 O413 2.418 . S
Eu400 O418 2.373 . S
Eu400 O421 2.488 . S
Eu400 O422 2.471 . S
Eu400 O423 2.349 . S
Eu401 O410 2.373 . S
Eu401 O414 2.488 . S
Eu401 O415 2.471 . S
Eu401 O416 2.349 . S
Eu401 O419 2.392 . S
Eu401 O420 2.418 . S
Eu401 C430 2.828 . S
C402 O420 1.244 . S
C402 O423 1.265 . S
C403 C404 1.379 . S
C403 C407 1.373 . S
C403 C409 1.505 . S
C404 C403 1.379 . S
C404 C406 1.369 . S
C404 H432 0.930 . S
C405 C407 1.383 . S
C405 C408 1.382 . S
C405 H433 0.930 . S
C406 C404 1.369 . S
C406 C408 1.392 . S
C406 H434 0.930 . S
C407 C403 1.373 . S
C407 C405 1.383 . S
C407 H435 0.931 . S
C408 C405 1.382 . S
C408 C406 1.392 . S
C409 Eu400 2.828 . S
C409 C403 1.505 . S
C409 O421 1.249 . S
C409 O422 1.244 . S
O410 Eu401 2.373 . S
O410 C412 1.258 . S
O411 Eu400 2.392 . S
O411 C412 1.242 . S
C412 O410 1.258 . S
C412 O411 1.242 . S
O413 Eu400 2.418 . S
O413 C417 1.244 . S
O414 Eu401 2.488 . S
O414 C430 1.249 . S
O415 Eu401 2.471 . S
O415 C430 1.244 . S
O416 Eu401 2.349 . S
O416 C417 1.265 . S
C417 O413 1.244 . S
C417 O416 1.265 . S
O418 Eu400 2.373 . S
O418 C431 1.258 . S
O419 Eu401 2.392 . S
O419 C431 1.242 . S
O420 Eu401 2.418 . S
O420 C402 1.244 . S
O421 Eu400 2.488 . S
O421 C409 1.249 . S
O422 Eu400 2.471 . S
O422 C409 1.244 . S
O423 Eu400 2.349 . S
O423 C402 1.265 . S
C424 C425 1.379 . S
C424 C428 1.373 . S
C424 C430 1.505 . S
C425 C424 1.379 . S
C425 C427 1.369 . S
C425 H436 0.930 . S
C426 C428 1.383 . S
C426 C429 1.382 . S
C426 H437 0.930 . S
C427 C425 1.369 . S
C427 C429 1.392 . S
C427 H438 0.930 . S
C428 C424 1.373 . S
C428 C426 1.383 . S
C428 H439 0.931 . S
C429 C426 1.382 . S
C429 C427 1.392 . S
C430 Eu401 2.828 . S
C430 O414 1.249 . S
C430 O415 1.244 . S
C430 C424 1.505 . S
C431 O418 1.258 . S
C431 O419 1.242 . S
H432 C404 0.930 . S
H433 C405 0.930 . S
H434 C406 0.930 . S
H435 C407 0.931 . S
H436 C425 0.930 . S
H437 C426 0.930 . S
H438 C427 0.930 . S
H439 C428 0.931 . S
Eu440 C449 2.828 . S
Eu440 O451 2.392 . S
Eu440 O453 2.418 . S
Eu440 O458 2.373 . S
Eu440 O461 2.488 . S
Eu440 O462 2.471 . S
Eu440 O463 2.349 . S
Eu441 O450 2.373 . S
Eu441 O454 2.488 . S
Eu441 O455 2.471 . S
Eu441 O456 2.349 . S
Eu441 O459 2.392 . S
Eu441 O460 2.418 . S
Eu441 C470 2.828 . S
C442 O460 1.244 . S
C442 O463 1.265 . S
C443 C444 1.370 1_565 S
C443 C447 1.376 . S
C443 C449 1.511 . S
C444 C443 1.370 1_545 S
C444 C446 1.369 . S
C444 H472 0.930 . S
C445 C447 1.383 1_545 S
C445 C448 1.382 . S
C445 H473 0.931 . S
C446 C444 1.369 . S
C446 C448 1.392 . S
C446 H474 0.930 . S
C447 C443 1.376 . S
C447 C445 1.383 1_565 S
C447 H475 0.931 . S
C448 C445 1.382 . S
C448 C446 1.392 . S
C449 Eu440 2.828 . S
C449 C443 1.511 . S
C449 O461 1.249 . S
C449 O462 1.244 . S
O450 Eu441 2.373 . S
O450 C452 1.258 . S
O451 Eu440 2.392 . S
O451 C452 1.242 . S
C452 O450 1.258 . S
C452 O451 1.242 . S
O453 Eu440 2.418 . S
O453 C457 1.244 . S
O454 Eu441 2.488 . S
O454 C470 1.249 . S
O455 Eu441 2.471 . S
O455 C470 1.244 . S
O456 Eu441 2.349 . S
O456 C457 1.265 . S
C457 O453 1.244 . S
C457 O456 1.265 . S
O458 Eu440 2.373 . S
O458 C471 1.258 . S
O459 Eu441 2.392 . S
O459 C471 1.242 . S
O460 Eu441 2.418 . S
O460 C442 1.244 . S
O461 Eu440 2.488 . S
O461 C449 1.249 . S
O462 Eu440 2.471 . S
O462 C449 1.244 . S
O463 Eu440 2.349 . S
O463 C442 1.265 . S
C464 C465 1.379 . S
C464 C468 1.373 . S
C464 C470 1.505 . S
C465 C464 1.379 . S
C465 C467 1.369 . S
C465 H476 0.930 . S
C466 C468 1.383 . S
C466 C469 1.382 . S
C466 H477 0.930 . S
C467 C465 1.369 . S
C467 C469 1.392 . S
C467 H478 0.930 . S
C468 C464 1.373 . S
C468 C466 1.383 . S
C468 H479 0.931 . S
C469 C466 1.382 . S
C469 C467 1.392 . S
C470 Eu441 2.828 . S
C470 O454 1.249 . S
C470 O455 1.244 . S
C470 C464 1.505 . S
C471 O458 1.258 . S
C471 O459 1.242 . S
H472 C444 0.930 . S
H473 C445 0.931 . S
H474 C446 0.930 . S
H475 C447 0.931 . S
H476 C465 0.930 . S
H477 C466 0.930 . S
H478 C467 0.930 . S
H479 C468 0.931 . S
Eu480 C489 2.828 . S
Eu480 O491 2.392 . S
Eu480 O493 2.418 . S
Eu480 O498 2.373 . S
Eu480 O501 2.488 . S
Eu480 O502 2.471 . S
Eu480 O503 2.349 . S
Eu481 O490 2.373 . S
Eu481 O494 2.488 . S
Eu481 O495 2.471 . S
Eu481 O496 2.349 . S
Eu481 O499 2.392 . S
Eu481 O500 2.418 . S
Eu481 C510 2.828 . S
C482 O500 1.244 . S
C482 O503 1.265 . S
C483 C484 1.379 . S
C483 C487 1.373 . S
C483 C489 1.505 . S
C484 C483 1.379 . S
C484 C486 1.369 . S
C484 H512 0.930 . S
C485 C487 1.383 . S
C485 C488 1.382 . S
C485 H513 0.930 . S
C486 C484 1.369 . S
C486 C488 1.392 . S
C486 H514 0.930 . S
C487 C483 1.373 . S
C487 C485 1.383 . S
C487 H515 0.931 . S
C488 C485 1.382 . S
C488 C486 1.392 . S
C489 Eu480 2.828 . S
C489 C483 1.505 . S
C489 O501 1.249 . S
C489 O502 1.244 . S
O490 Eu481 2.373 . S
O490 C492 1.258 . S
O491 Eu480 2.392 . S
O491 C492 1.242 . S
C492 O490 1.258 . S
C492 O491 1.242 . S
O493 Eu480 2.418 . S
O493 C497 1.244 . S
O494 Eu481 2.488 . S
O494 C510 1.249 . S
O495 Eu481 2.471 . S
O495 C510 1.244 . S
O496 Eu481 2.349 . S
O496 C497 1.265 . S
C497 O493 1.244 . S
C497 O496 1.265 . S
O498 Eu480 2.373 . S
O498 C511 1.258 . S
O499 Eu481 2.392 . S
O499 C511 1.242 . S
O500 Eu481 2.418 . S
O500 C482 1.244 . S
O501 Eu480 2.488 . S
O501 C489 1.249 . S
O502 Eu480 2.471 . S
O502 C489 1.244 . S
O503 Eu480 2.349 . S
O503 C482 1.265 . S
C504 C505 1.379 . S
C504 C508 1.373 . S
C504 C510 1.505 . S
C505 C504 1.379 . S
C505 C507 1.369 . S
C505 H516 0.930 . S
C506 C508 1.383 . S
C506 C509 1.382 . S
C506 H517 0.930 . S
C507 C505 1.369 . S
C507 C509 1.392 . S
C507 H518 0.930 . S
C508 C504 1.373 . S
C508 C506 1.383 . S
C508 H519 0.931 . S
C509 C506 1.382 . S
C509 C507 1.392 . S
C510 Eu481 2.828 . S
C510 O494 1.249 . S
C510 O495 1.244 . S
C510 C504 1.505 . S
C511 O498 1.258 . S
C511 O499 1.242 . S
H512 C484 0.930 . S
H513 C485 0.930 . S
H514 C486 0.930 . S
H515 C487 0.931 . S
H516 C505 0.930 . S
H517 C506 0.930 . S
H518 C507 0.930 . S
H519 C508 0.931 . S
Eu520 C529 2.828 . S
Eu520 O531 2.392 . S
Eu520 O533 2.418 . S
Eu520 O538 2.373 . S
Eu520 O541 2.488 . S
Eu520 O542 2.471 . S
Eu520 O543 2.349 . S
Eu521 O530 2.373 . S
Eu521 O534 2.488 . S
Eu521 O535 2.471 . S
Eu521 O536 2.349 . S
Eu521 O539 2.392 . S
Eu521 O540 2.418 . S
Eu521 C550 2.828 . S
C522 O540 1.244 . S
C522 O543 1.265 . S
C523 C524 1.379 . S
C523 C527 1.373 . S
C523 C529 1.505 . S
C524 C523 1.379 . S
C524 C526 1.369 . S
C524 H552 0.930 . S
C525 C527 1.383 . S
C525 C528 1.382 . S
C525 H553 0.930 . S
C526 C524 1.369 . S
C526 C528 1.392 . S
C526 H554 0.930 . S
C527 C523 1.373 . S
C527 C525 1.383 . S
C527 H555 0.931 . S
C528 C525 1.382 . S
C528 C526 1.392 . S
C529 Eu520 2.828 . S
C529 C523 1.505 . S
C529 O541 1.249 . S
C529 O542 1.244 . S
O530 Eu521 2.373 . S
O530 C532 1.258 . S
O531 Eu520 2.392 . S
O531 C532 1.242 . S
C532 O530 1.258 . S
C532 O531 1.242 . S
O533 Eu520 2.418 . S
O533 C537 1.244 . S
O534 Eu521 2.488 . S
O534 C550 1.249 . S
O535 Eu521 2.471 . S
O535 C550 1.244 . S
O536 Eu521 2.349 . S
O536 C537 1.265 . S
C537 O533 1.244 . S
C537 O536 1.265 . S
O538 Eu520 2.373 . S
O538 C551 1.258 . S
O539 Eu521 2.392 . S
O539 C551 1.242 . S
O540 Eu521 2.418 . S
O540 C522 1.244 . S
O541 Eu520 2.488 . S
O541 C529 1.249 . S
O542 Eu520 2.471 . S
O542 C529 1.244 . S
O543 Eu520 2.349 . S
O543 C522 1.265 . S
C544 C545 1.370 1_565 S
C544 C548 1.376 1_655 S
C544 C550 1.511 . S
C545 C544 1.370 1_545 S
C545 C547 1.369 . S
C545 H556 0.930 . S
C546 C548 1.383 1_545 S
C546 C549 1.382 . S
C546 H557 0.931 . S
C547 C545 1.369 . S
C547 C549 1.392 1_655 S
C547 H558 0.930 . S
C548 C544 1.376 1_455 S
C548 C546 1.383 1_565 S
C548 H559 0.931 . S
C549 C546 1.382 . S
C549 C547 1.392 1_455 S
C550 Eu521 2.828 . S
C550 O534 1.249 . S
C550 O535 1.244 . S
C550 C544 1.511 . S
C551 O538 1.258 . S
C551 O539 1.242 . S
H552 C524 0.930 . S
H553 C525 0.930 . S
H554 C526 0.930 . S
H555 C527 0.931 . S
H556 C545 0.930 . S
H557 C546 0.931 . S
H558 C547 0.930 . S
H559 C548 0.931 . S
Eu560 C569 2.828 . S
Eu560 O571 2.392 . S
Eu560 O573 2.418 . S
Eu560 O578 2.373 . S
Eu560 O581 2.488 . S
Eu560 O582 2.471 . S
Eu560 O583 2.349 . S
Eu561 O570 2.373 . S
Eu561 O574 2.488 . S
Eu561 O575 2.471 . S
Eu561 O576 2.349 . S
Eu561 O579 2.392 . S
Eu561 O580 2.418 . S
Eu561 C590 2.828 . S
C562 O580 1.244 . S
C562 O583 1.265 . S
C563 C564 1.379 . S
C563 C567 1.373 . S
C563 C569 1.505 . S
C564 C563 1.379 . S
C564 C566 1.369 . S
C564 H592 0.930 . S
C565 C567 1.383 . S
C565 C568 1.382 . S
C565 H593 0.930 . S
C566 C564 1.369 . S
C566 C568 1.392 . S
C566 H594 0.930 . S
C567 C563 1.373 . S
C567 C565 1.383 . S
C567 H595 0.931 . S
C568 C565 1.382 . S
C568 C566 1.392 . S
C569 Eu560 2.828 . S
C569 C563 1.505 . S
C569 O581 1.249 . S
C569 O582 1.244 . S
O570 Eu561 2.373 . S
O570 C572 1.258 . S
O571 Eu560 2.392 . S
O571 C572 1.242 . S
C572 O570 1.258 . S
C572 O571 1.242 . S
O573 Eu560 2.418 . S
O573 C577 1.244 . S
O574 Eu561 2.488 . S
O574 C590 1.249 . S
O575 Eu561 2.471 . S
O575 C590 1.244 . S
O576 Eu561 2.349 . S
O576 C577 1.265 . S
C577 O573 1.244 . S
C577 O576 1.265 . S
O578 Eu560 2.373 . S
O578 C591 1.258 . S
O579 Eu561 2.392 . S
O579 C591 1.242 . S
O580 Eu561 2.418 . S
O580 C562 1.244 . S
O581 Eu560 2.488 . S
O581 C569 1.249 . S
O582 Eu560 2.471 . S
O582 C569 1.244 . S
O583 Eu560 2.349 . S
O583 C562 1.265 . S
C584 C585 1.379 . S
C584 C588 1.373 . S
C584 C590 1.505 . S
C585 C584 1.379 . S
C585 C587 1.369 . S
C585 H596 0.930 . S
C586 C588 1.383 . S
C586 C589 1.382 . S
C586 H597 0.930 . S
C587 C585 1.369 . S
C587 C589 1.392 . S
C587 H598 0.930 . S
C588 C584 1.373 . S
C588 C586 1.383 . S
C588 H599 0.931 . S
C589 C586 1.382 . S
C589 C587 1.392 . S
C590 Eu561 2.828 . S
C590 O574 1.249 . S
C590 O575 1.244 . S
C590 C584 1.505 . S
C591 O578 1.258 . S
C591 O579 1.242 . S
H592 C564 0.930 . S
H593 C565 0.930 . S
H594 C566 0.930 . S
H595 C567 0.931 . S
H596 C585 0.930 . S
H597 C586 0.930 . S
H598 C587 0.930 . S
H599 C588 0.931 . S
Eu600 C609 2.828 . S
Eu600 O611 2.392 . S
Eu600 O613 2.418 . S
Eu600 O618 2.373 . S
Eu600 O621 2.488 . S
Eu600 O622 2.471 . S
Eu600 O623 2.349 . S
Eu601 O610 2.373 . S
Eu601 O614 2.488 . S
Eu601 O615 2.471 . S
Eu601 O616 2.349 . S
Eu601 O619 2.392 . S
Eu601 O620 2.418 . S
Eu601 C630 2.828 . S
C602 O620 1.244 . S
C602 O623 1.265 . S
C603 C604 1.379 . S
C603 C607 1.373 . S
C603 C609 1.505 . S
C604 C603 1.379 . S
C604 C606 1.369 . S
C604 H632 0.930 . S
C605 C607 1.383 . S
C605 C608 1.382 . S
C605 H633 0.930 . S
C606 C604 1.369 . S
C606 C608 1.392 . S
C606 H634 0.930 . S
C607 C603 1.373 . S
C607 C605 1.383 . S
C607 H635 0.931 . S
C608 C605 1.382 . S
C608 C606 1.392 . S
C609 Eu600 2.828 . S
C609 C603 1.505 . S
C609 O621 1.249 . S
C609 O622 1.244 . S
O610 Eu601 2.373 . S
O610 C612 1.258 . S
O611 Eu600 2.392 . S
O611 C612 1.242 . S
C612 O610 1.258 . S
C612 O611 1.242 . S
O613 Eu600 2.418 . S
O613 C617 1.244 . S
O614 Eu601 2.488 . S
O614 C630 1.249 . S
O615 Eu601 2.471 . S
O615 C630 1.244 . S
O616 Eu601 2.349 . S
O616 C617 1.265 . S
C617 O613 1.244 . S
C617 O616 1.265 . S
O618 Eu600 2.373 . S
O618 C631 1.258 . S
O619 Eu601 2.392 . S
O619 C631 1.242 . S
O620 Eu601 2.418 . S
O620 C602 1.244 . S
O621 Eu600 2.488 . S
O621 C609 1.249 . S
O622 Eu600 2.471 . S
O622 C609 1.244 . S
O623 Eu600 2.349 . S
O623 C602 1.265 . S
C624 C625 1.370 1_545 S
C624 C628 1.376 . S
C624 C630 1.511 . S
C625 C624 1.370 1_565 S
C625 C627 1.369 . S
C625 H636 0.930 . S
C626 C628 1.383 1_565 S
C626 C629 1.382 . S
C626 H637 0.931 . S
C627 C625 1.369 . S
C627 C629 1.392 . S
C627 H638 0.930 . S
C628 C624 1.376 . S
C628 C626 1.383 1_545 S
C628 H639 0.931 . S
C629 C626 1.382 . S
C629 C627 1.392 . S
C630 Eu601 2.828 . S
C630 O614 1.249 . S
C630 O615 1.244 . S
C630 C624 1.511 . S
C631 O618 1.258 . S
C631 O619 1.242 . S
H632 C604 0.930 . S
H633 C605 0.930 . S
H634 C606 0.930 . S
H635 C607 0.931 . S
H636 C625 0.930 . S
H637 C626 0.931 . S
H638 C627 0.930 . S
H639 C628 0.931 . S
H640 C648 0.929 . S
H641 C650 0.930 . S
H642 C652 0.930 . S
H643 C655 0.929 . S
H644 C658 0.930 . S
H645 C660 0.960 . S
H646 C660 0.960 . S
H647 C660 0.960 . S
C648 H640 0.929 . S
C648 C649 1.377 . S
C648 C650 1.384 . S
C649 C648 1.377 . S
C649 C655 1.390 . S
C650 H641 0.930 . S
C650 C648 1.384 . S
C650 C651 1.372 . S
C651 C650 1.372 . S
C651 C652 1.400 . S
C651 C656 1.490 . S
C652 H642 0.930 . S
C652 C651 1.400 . S
C652 C655 1.386 . S
H653 C669 0.930 . S
H654 C670 0.931 . S
C655 H643 0.929 . S
C655 C649 1.390 . S
C655 C652 1.386 . S
C656 C651 1.490 . S
C656 C658 1.395 . S
C656 C659 1.403 . S
H657 C663 0.930 . S
C658 H644 0.930 . S
C658 C656 1.395 . S
C658 C661 1.403 . S
C659 C656 1.403 . S
C659 C660 1.524 . S
C659 C663 1.400 . S
C660 H645 0.960 . S
C660 H646 0.960 . S
C660 H647 0.960 . S
C660 C659 1.524 . S
C661 C658 1.403 . S
C661 C662 1.392 . S
C661 C665 1.495 . S
C662 C661 1.392 . S
C662 C663 1.385 . S
C662 C664 1.478 . S
C663 H657 0.930 . S
C663 C659 1.400 . S
C663 C662 1.385 . S
C664 C662 1.478 . S
C664 C666 1.381 . S
C664 C670 1.383 . S
C665 C661 1.495 . S
C665 H671 0.959 . S
C665 H672 0.961 . S
C665 H673 0.960 . S
C666 C664 1.381 . S
C666 C667 1.394 . S
C666 H674 0.930 . S
C667 C666 1.394 . S
C667 C668 1.383 . S
C667 H675 0.929 . S
C668 C667 1.383 . S
C668 C669 1.377 . S
C669 H653 0.930 . S
C669 C668 1.377 . S
C669 C670 1.379 . S
C670 H654 0.931 . S
C670 C664 1.383 . S
C670 C669 1.379 . S
H671 C665 0.959 . S
H672 C665 0.961 . S
H673 C665 0.960 . S
H674 C666 0.930 . S
H675 C667 0.929 . S
H676 C684 0.929 . S
H677 C686 0.930 . S
H678 C688 0.930 . S
H679 C691 0.929 . S
H680 C694 0.930 . S
H681 C696 0.960 . S
H682 C696 0.960 . S
H683 C696 0.960 . S
C684 H676 0.929 . S
C684 C685 1.377 . S
C684 C686 1.384 . S
C685 C684 1.377 . S
C685 C691 1.390 . S
C686 H677 0.930 . S
C686 C684 1.384 . S
C686 C687 1.372 . S
C687 C686 1.372 . S
C687 C688 1.400 . S
C687 C692 1.490 . S
C688 H678 0.930 . S
C688 C687 1.400 . S
C688 C691 1.386 . S
H689 C705 0.930 . S
H690 C706 0.931 . S
C691 H679 0.929 . S
C691 C685 1.390 . S
C691 C688 1.386 . S
C692 C687 1.490 . S
C692 C694 1.395 . S
C692 C695 1.403 . S
H693 C699 0.930 . S
C694 H680 0.930 . S
C694 C692 1.395 . S
C694 C697 1.403 . S
C695 C692 1.403 . S
C695 C696 1.524 . S
C695 C699 1.400 . S
C696 H681 0.960 . S
C696 H682 0.960 . S
C696 H683 0.960 . S
C696 C695 1.524 . S
C697 C694 1.403 . S
C697 C698 1.392 . S
C697 C701 1.495 . S
C698 C697 1.392 . S
C698 C699 1.385 . S
C698 C700 1.478 . S
C699 H693 0.930 . S
C699 C695 1.400 . S
C699 C698 1.385 . S
C700 C698 1.478 . S
C700 C702 1.381 . S
C700 C706 1.383 . S
C701 C697 1.495 . S
C701 H707 0.959 . S
C701 H708 0.961 . S
C701 H709 0.960 . S
C702 C700 1.381 . S
C702 C703 1.394 . S
C702 H710 0.930 . S
C703 C702 1.394 . S
C703 C704 1.383 . S
C703 H711 0.929 . S
C704 C703 1.383 . S
C704 C705 1.377 . S
C705 H689 0.930 . S
C705 C704 1.377 . S
C705 C706 1.379 . S
C706 H690 0.931 . S
C706 C700 1.383 . S
C706 C705 1.379 . S
H707 C701 0.959 . S
H708 C701 0.961 . S
H709 C701 0.960 . S
H710 C702 0.930 . S
H711 C703 0.929 . S
H712 C720 0.929 . S
H713 C722 0.930 . S
H714 C724 0.930 . S
H715 C727 0.929 . S
H716 C730 0.930 . S
H717 C732 0.960 . S
H718 C732 0.960 . S
H719 C732 0.960 . S
C720 H712 0.929 . S
C720 C721 1.377 . S
C720 C722 1.384 . S
C721 C720 1.377 . S
C721 C727 1.390 . S
C722 H713 0.930 . S
C722 C720 1.384 . S
C722 C723 1.372 . S
C723 C722 1.372 . S
C723 C724 1.400 . S
C723 C728 1.490 . S
C724 H714 0.930 . S
C724 C723 1.400 . S
C724 C727 1.386 . S
H725 C741 0.930 . S
H726 C742 0.931 . S
C727 H715 0.929 . S
C727 C721 1.390 . S
C727 C724 1.386 . S
C728 C723 1.490 . S
C728 C730 1.395 . S
C728 C731 1.403 . S
H729 C735 0.930 . S
C730 H716 0.930 . S
C730 C728 1.395 . S
C730 C733 1.403 1_455 S
C731 C728 1.403 . S
C731 C732 1.524 . S
C731 C735 1.400 1_455 S
C732 H717 0.960 . S
C732 H718 0.960 . S
C732 H719 0.960 . S
C732 C731 1.524 . S
C733 C730 1.403 1_655 S
C733 C734 1.392 . S
C733 C737 1.495 . S
C734 C733 1.392 . S
C734 C735 1.385 . S
C734 C736 1.478 . S
C735 H729 0.930 . S
C735 C731 1.400 1_655 S
C735 C734 1.385 . S
C736 C734 1.478 . S
C736 C738 1.381 . S
C736 C742 1.383 . S
C737 C733 1.495 . S
C737 H743 0.959 . S
C737 H744 0.961 . S
C737 H745 0.960 . S
C738 C736 1.381 . S
C738 C739 1.394 . S
C738 H746 0.930 . S
C739 C738 1.394 . S
C739 C740 1.383 . S
C739 H747 0.929 . S
C740 C739 1.383 . S
C740 C741 1.377 . S
C741 H725 0.930 . S
C741 C740 1.377 . S
C741 C742 1.379 . S
C742 H726 0.931 . S
C742 C736 1.383 . S
C742 C741 1.379 . S
H743 C737 0.959 . S
H744 C737 0.961 . S
H745 C737 0.960 . S
H746 C738 0.930 . S
H747 C739 0.929 . S
H748 C756 0.929 . S
H749 C758 0.930 1_655 S
H750 C760 0.930 . S
H751 C763 0.929 . S
H752 C766 0.930 . S
H753 C768 0.960 . S
H754 C768 0.960 . S
H755 C768 0.960 . S
C756 H748 0.929 . S
C756 C757 1.377 . S
C756 C758 1.384 . S
C757 C756 1.377 . S
C757 C763 1.390 . S
C758 H749 0.930 1_455 S
C758 C756 1.384 . S
C758 C759 1.372 . S
C759 C758 1.372 . S
C759 C760 1.400 . S
C759 C764 1.490 . S
C760 H750 0.930 . S
C760 C759 1.400 . S
C760 C763 1.386 . S
H761 C777 0.930 . S
H762 C778 0.931 1_455 S
C763 H751 0.929 . S
C763 C757 1.390 . S
C763 C760 1.386 . S
C764 C759 1.490 . S
C764 C766 1.395 . S
C764 C767 1.403 . S
H765 C771 0.930 . S
C766 H752 0.930 . S
C766 C764 1.395 . S
C766 C769 1.403 1_455 S
C767 C764 1.403 . S
C767 C768 1.524 . S
C767 C771 1.400 1_455 S
C768 H753 0.960 . S
C768 H754 0.960 . S
C768 H755 0.960 . S
C768 C767 1.524 . S
C769 C766 1.403 1_655 S
C769 C770 1.392 . S
C769 C773 1.495 . S
C770 C769 1.392 . S
C770 C771 1.385 . S
C770 C772 1.478 . S
C771 H765 0.930 . S
C771 C767 1.400 1_655 S
C771 C770 1.385 . S
C772 C770 1.478 . S
C772 C774 1.381 . S
C772 C778 1.383 . S
C773 C769 1.495 . S
C773 H779 0.959 . S
C773 H780 0.961 . S
C773 H781 0.960 . S
C774 C772 1.381 . S
C774 C775 1.394 . S
C774 H782 0.930 . S
C775 C774 1.394 . S
C775 C776 1.383 . S
C775 H783 0.929 . S
C776 C775 1.383 . S
C776 C777 1.377 . S
C777 H761 0.930 . S
C777 C776 1.377 . S
C777 C778 1.379 . S
C778 H762 0.931 1_655 S
C778 C772 1.383 . S
C778 C777 1.379 . S
H779 C773 0.959 . S
H780 C773 0.961 . S
H781 C773 0.960 . S
H782 C774 0.930 . S
H783 C775 0.929 . S
H784 C792 0.929 . S
H785 C794 0.930 . S
H786 C796 0.930 . S
H787 C799 0.929 . S
H788 C802 0.930 . S
H789 C804 0.960 . S
H790 C804 0.960 . S
H791 C804 0.960 . S
C792 H784 0.929 . S
C792 C793 1.377 . S
C792 C794 1.384 . S
C793 C792 1.377 . S
C793 C799 1.390 . S
C794 H785 0.930 . S
C794 C792 1.384 . S
C794 C795 1.372 . S
C795 C794 1.372 . S
C795 C796 1.400 . S
C795 C800 1.490 . S
C796 H786 0.930 . S
C796 C795 1.400 . S
C796 C799 1.386 . S
H797 C813 0.930 . S
H798 C814 0.931 . S
C799 H787 0.929 . S
C799 C793 1.390 . S
C799 C796 1.386 . S
C800 C795 1.490 . S
C800 C802 1.395 . S
C800 C803 1.403 . S
H801 C807 0.930 . S
C802 H788 0.930 . S
C802 C800 1.395 . S
C802 C805 1.403 . S
C803 C800 1.403 . S
C803 C804 1.524 . S
C803 C807 1.400 . S
C804 H789 0.960 . S
C804 H790 0.960 . S
C804 H791 0.960 . S
C804 C803 1.524 . S
C805 C802 1.403 . S
C805 C806 1.392 . S
C805 C809 1.495 . S
C806 C805 1.392 . S
C806 C807 1.385 . S
C806 C808 1.478 . S
C807 H801 0.930 . S
C807 C803 1.400 . S
C807 C806 1.385 . S
C808 C806 1.478 . S
C808 C810 1.381 . S
C808 C814 1.383 . S
C809 C805 1.495 . S
C809 H815 0.959 . S
C809 H816 0.961 . S
C809 H817 0.960 . S
C810 C808 1.381 . S
C810 C811 1.394 . S
C810 H818 0.930 . S
C811 C810 1.394 . S
C811 C812 1.383 . S
C811 H819 0.929 . S
C812 C811 1.383 . S
C812 C813 1.377 . S
C813 H797 0.930 . S
C813 C812 1.377 . S
C813 C814 1.379 . S
C814 H798 0.931 . S
C814 C808 1.383 . S
C814 C813 1.379 . S
H815 C809 0.959 . S
H816 C809 0.961 . S
H817 C809 0.960 . S
H818 C810 0.930 . S
H819 C811 0.929 . S
H820 C828 0.929 . S
H821 C830 0.930 . S
H822 C832 0.930 . S
H823 C835 0.929 . S
H824 C838 0.930 . S
H825 C840 0.960 . S
H826 C840 0.960 . S
H827 C840 0.960 . S
C828 H820 0.929 . S
C828 C829 1.377 . S
C828 C830 1.384 . S
C829 C828 1.377 . S
C829 C835 1.390 . S
C830 H821 0.930 . S
C830 C828 1.384 . S
C830 C831 1.372 . S
C831 C830 1.372 . S
C831 C832 1.400 . S
C831 C836 1.490 . S
C832 H822 0.930 . S
C832 C831 1.400 . S
C832 C835 1.386 . S
H833 C849 0.930 . S
H834 C850 0.931 . S
C835 H823 0.929 . S
C835 C829 1.390 . S
C835 C832 1.386 . S
C836 C831 1.490 . S
C836 C838 1.395 . S
C836 C839 1.403 . S
H837 C843 0.930 . S
C838 H824 0.930 . S
C838 C836 1.395 . S
C838 C841 1.403 . S
C839 C836 1.403 . S
C839 C840 1.524 . S
C839 C843 1.400 . S
C840 H825 0.960 . S
C840 H826 0.960 . S
C840 H827 0.960 . S
C840 C839 1.524 . S
C841 C838 1.403 . S
C841 C842 1.392 . S
C841 C845 1.495 . S
C842 C841 1.392 . S
C842 C843 1.385 . S
C842 C844 1.478 . S
C843 H837 0.930 . S
C843 C839 1.400 . S
C843 C842 1.385 . S
C844 C842 1.478 . S
C844 C846 1.381 . S
C844 C850 1.383 . S
C845 C841 1.495 . S
C845 H851 0.959 . S
C845 H852 0.961 . S
C845 H853 0.960 . S
C846 C844 1.381 . S
C846 C847 1.394 . S
C846 H854 0.930 . S
C847 C846 1.394 . S
C847 C848 1.383 . S
C847 H855 0.929 . S
C848 C847 1.383 . S
C848 C849 1.377 . S
C849 H833 0.930 . S
C849 C848 1.377 . S
C849 C850 1.379 . S
C850 H834 0.931 . S
C850 C844 1.383 . S
C850 C849 1.379 . S
H851 C845 0.959 . S
H852 C845 0.961 . S
H853 C845 0.960 . S
H854 C846 0.930 . S
H855 C847 0.929 . S
H856 C864 0.929 . S
H857 C866 0.930 . S
H858 C868 0.930 . S
H859 C871 0.929 . S
H860 C874 0.933 . S
H861 C876 0.960 . S
H862 C876 0.960 . S
H863 C876 0.960 . S
C864 H856 0.929 . S
C864 C865 1.377 . S
C864 C866 1.384 . S
C865 C864 1.377 . S
C865 C871 1.390 . S
C866 H857 0.930 . S
C866 C864 1.384 . S
C866 C867 1.372 . S
C867 C866 1.372 . S
C867 C868 1.400 . S
C867 C872 1.490 . S
C868 H858 0.930 . S
C868 C867 1.400 . S
C868 C871 1.386 . S
H869 C885 0.930 . S
H870 C886 0.931 . S
C871 H859 0.929 . S
C871 C865 1.390 . S
C871 C868 1.386 . S
C872 C867 1.490 . S
C872 C874 1.414 . S
C872 C875 1.403 . S
H873 C879 0.930 . S
C874 H860 0.933 . S
C874 C872 1.414 . S
C874 C877 1.381 1_455 S
C875 C872 1.403 . S
C875 C876 1.524 . S
C875 C879 1.400 1_455 S
C876 H861 0.960 . S
C876 H862 0.960 . S
C876 H863 0.960 . S
C876 C875 1.524 . S
C877 C874 1.381 1_655 S
C877 C878 1.392 . S
C877 C881 1.495 . S
C878 C877 1.392 . S
C878 C879 1.385 . S
C878 C880 1.478 . S
C879 H873 0.930 . S
C879 C875 1.400 1_655 S
C879 C878 1.385 . S
C880 C878 1.478 . S
C880 C882 1.381 . S
C880 C886 1.383 . S
C881 C877 1.495 . S
C881 H887 0.959 . S
C881 H888 0.961 . S
C881 H889 0.960 . S
C882 C880 1.381 . S
C882 C883 1.394 . S
C882 H890 0.930 . S
C883 C882 1.394 . S
C883 C884 1.383 . S
C883 H891 0.929 . S
C884 C883 1.383 . S
C884 C885 1.377 . S
C885 H869 0.930 . S
C885 C884 1.377 . S
C885 C886 1.379 . S
C886 H870 0.931 . S
C886 C880 1.383 . S
C886 C885 1.379 . S
H887 C881 0.959 . S
H888 C881 0.961 . S
H889 C881 0.960 . S
H890 C882 0.930 . S
H891 C883 0.929 . S
H892 C900 0.929 . S
H893 C902 0.930 1_655 S
H894 C904 0.930 . S
H895 C907 0.929 . S
H896 C910 0.930 . S
H897 C912 0.960 . S
H898 C912 0.960 . S
H899 C912 0.960 . S
C900 H892 0.929 . S
C900 C901 1.377 . S
C900 C902 1.384 . S
C901 C900 1.377 . S
C901 C907 1.390 . S
C902 H893 0.930 1_455 S
C902 C900 1.384 . S
C902 C903 1.372 . S
C903 C902 1.372 . S
C903 C904 1.400 . S
C903 C908 1.490 . S
C904 H894 0.930 . S
C904 C903 1.400 . S
C904 C907 1.386 . S
H905 C921 0.930 . S
H906 C922 0.931 1_455 S
C907 H895 0.929 . S
C907 C901 1.390 . S
C907 C904 1.386 . S
C908 C903 1.490 . S
C908 C910 1.395 1_455 S
C908 C911 1.403 . S
H909 C915 0.928 1_455 S
C910 H896 0.930 . S
C910 C908 1.395 1_655 S
C910 C913 1.403 . S
C911 C908 1.403 . S
C911 C912 1.524 . S
C911 C915 1.389 1_455 S
C912 H897 0.960 . S
C912 H898 0.960 . S
C912 H899 0.960 . S
C912 C911 1.524 . S
C913 C910 1.403 . S
C913 C914 1.392 . S
C913 C917 1.495 . S
C914 C913 1.392 . S
C914 C915 1.398 . S
C914 C916 1.478 . S
C915 H909 0.928 1_655 S
C915 C911 1.389 1_655 S
C915 C914 1.398 . S
C916 C914 1.478 . S
C916 C918 1.381 . S
C916 C922 1.383 . S
C917 C913 1.495 . S
C917 H923 0.959 . S
C917 H924 0.961 . S
C917 H925 0.960 . S
C918 C916 1.381 . S
C918 C919 1.394 . S
C918 H926 0.930 . S
C919 C918 1.394 . S
C919 C920 1.383 . S
C919 H927 0.929 . S
C920 C919 1.383 . S
C920 C921 1.377 . S
C921 H905 0.930 . S
C921 C920 1.377 . S
C921 C922 1.379 . S
C922 H906 0.931 1_655 S
C922 C916 1.383 . S
C922 C921 1.379 . S
H923 C917 0.959 . S
H924 C917 0.961 . S
H925 C917 0.960 . S
H926 C918 0.930 . S
H927 C919 0.929 . S
H928 C936 0.929 . S
H929 C938 0.930 . S
H930 C940 0.930 . S
H931 C943 0.929 . S
H932 C946 0.930 . S
H933 C948 0.960 . S
H934 C948 0.960 . S
H935 C948 0.960 . S
C936 H928 0.929 . S
C936 C937 1.377 1_565 S
C936 C938 1.384 . S
C937 C936 1.377 1_545 S
C937 C943 1.390 . S
C938 H929 0.930 . S
C938 C936 1.384 . S
C938 C939 1.372 1_565 S
C939 C938 1.372 1_545 S
C939 C940 1.400 . S
C939 C944 1.490 . S
C940 H930 0.930 . S
C940 C939 1.400 . S
C940 C943 1.386 . S
H941 C957 0.930 . S
H942 C958 0.931 . S
C943 H931 0.929 . S
C943 C937 1.390 . S
C943 C940 1.386 . S
C944 C939 1.490 . S
C944 C946 1.395 1_544 S
C944 C947 1.403 . S
H945 C951 0.930 . S
C946 H932 0.930 . S
C946 C944 1.395 1_566 S
C946 C949 1.403 . S
C947 C944 1.403 . S
C947 C948 1.524 . S
C947 C951 1.400 . S
C948 H933 0.960 . S
C948 H934 0.960 . S
C948 H935 0.960 . S
C948 C947 1.524 . S
C949 C946 1.403 . S
C949 C950 1.392 . S
C949 C953 1.495 . S
C950 C949 1.392 . S
C950 C951 1.385 1_566 S
C950 C952 1.478 . S
C951 H945 0.930 . S
C951 C947 1.400 . S
C951 C950 1.385 1_544 S
C952 C950 1.478 . S
C952 C954 1.381 . S
C952 C958 1.383 1_565 S
C953 C949 1.495 . S
C953 H959 0.959 . S
C953 H960 0.961 . S
C953 H961 0.960 . S
C954 C952 1.381 . S
C954 C955 1.394 . S
C954 H962 0.930 . S
C955 C954 1.394 . S
C955 C956 1.383 . S
C955 H963 0.929 . S
C956 C955 1.383 . S
C956 C957 1.377 1_565 S
C957 H941 0.930 . S
C957 C956 1.377 1_545 S
C957 C958 1.379 . S
C958 H942 0.931 . S
C958 C952 1.383 1_545 S
C958 C957 1.379 . S
H959 C953 0.959 . S
H960 C953 0.961 . S
H961 C953 0.960 . S
H962 C954 0.930 . S
H963 C955 0.929 . S
H964 C972 0.929 . S
H965 C974 0.930 . S
H966 C976 0.930 . S
H967 C979 0.929 . S
H968 C982 0.930 . S
H969 C984 0.960 . S
H970 C984 0.960 . S
H971 C984 0.960 . S
C972 H964 0.929 . S
C972 C973 1.377 . S
C972 C974 1.384 . S
C973 C972 1.377 . S
C973 C979 1.390 . S
C974 H965 0.930 . S
C974 C972 1.384 . S
C974 C975 1.372 . S
C975 C974 1.372 . S
C975 C976 1.400 . S
C975 C980 1.490 . S
C976 H966 0.930 . S
C976 C975 1.400 . S
C976 C979 1.386 . S
H977 C993 0.930 . S
H978 C994 0.931 . S
C979 H967 0.929 . S
C979 C973 1.390 . S
C979 C976 1.386 . S
C980 C975 1.490 . S
C980 C982 1.395 . S
C980 C983 1.403 . S
H981 C987 0.930 . S
C982 H968 0.930 . S
C982 C980 1.395 . S
C982 C985 1.403 . S
C983 C980 1.403 . S
C983 C984 1.524 . S
C983 C987 1.400 . S
C984 H969 0.960 . S
C984 H970 0.960 . S
C984 H971 0.960 . S
C984 C983 1.524 . S
C985 C982 1.403 . S
C985 C986 1.392 . S
C985 C989 1.495 . S
C986 C985 1.392 . S
C986 C987 1.385 . S
C986 C988 1.478 . S
C987 H981 0.930 . S
C987 C983 1.400 . S
C987 C986 1.385 . S
C988 C986 1.478 . S
C988 C990 1.381 . S
C988 C994 1.383 . S
C989 C985 1.495 . S
C989 H995 0.959 . S
C989 H996 0.961 . S
C989 H997 0.960 . S
C990 C988 1.381 . S
C990 C991 1.394 . S
C990 H998 0.930 . S
C991 C990 1.394 . S
C991 C992 1.383 . S
C991 H999 0.929 . S
C992 C991 1.383 . S
C992 C993 1.377 . S
C993 H977 0.930 . S
C993 C992 1.377 . S
C993 C994 1.379 . S
C994 H978 0.931 . S
C994 C988 1.383 . S
C994 C993 1.379 . S
H995 C989 0.959 . S
H996 C989 0.961 . S
H997 C989 0.960 . S
H998 C990 0.930 . S
H999 C991 0.929 . S
H1000 C1008 0.929 . S
H1001 C1010 0.930 1_545 S
H1002 C1012 0.930 . S
H1003 C1015 0.929 . S
H1004 C1018 0.930 . S
H1005 C1020 0.958 1_655 S
H1006 C1020 0.960 . S
H1007 C1020 0.960 . S
C1008 H1000 0.929 . S
C1008 C1009 1.377 . S
C1008 C1010 1.384 . S
C1009 C1008 1.377 . S
C1009 C1015 1.390 . S
C1010 H1001 0.930 1_565 S
C1010 C1008 1.384 . S
C1010 C1011 1.372 . S
C1011 C1010 1.372 . S
C1011 C1012 1.400 . S
C1011 C1016 1.490 . S
C1012 H1002 0.930 . S
C1012 C1011 1.400 . S
C1012 C1015 1.386 . S
H1013 C1029 0.930 1_565 S
H1014 C1030 0.931 . S
C1015 H1003 0.929 . S
C1015 C1009 1.390 . S
C1015 C1012 1.386 . S
C1016 C1011 1.490 . S
C1016 C1018 1.395 . S
C1016 C1019 1.403 1_565 S
H1017 C1023 0.930 . S
C1018 H1004 0.930 . S
C1018 C1016 1.395 . S
C1018 C1021 1.403 1_455 S
C1019 C1016 1.403 1_545 S
C1019 C1020 1.524 . S
C1019 C1023 1.400 1_455 S
C1020 H1005 0.958 1_455 S
C1020 H1006 0.960 . S
C1020 H1007 0.960 . S
C1020 C1019 1.524 . S
C1021 C1018 1.403 1_655 S
C1021 C1022 1.392 1_565 S
C1021 C1025 1.495 . S
C1022 C1021 1.392 1_545 S
C1022 C1023 1.385 . S
C1022 C1024 1.478 . S
C1023 H1017 0.930 . S
C1023 C1019 1.400 1_655 S
C1023 C1022 1.385 . S
C1024 C1022 1.478 . S
C1024 C1026 1.381 . S
C1024 C1030 1.383 1_545 S
C1025 C1021 1.495 . S
C1025 H1031 0.959 1_655 S
C1025 H1032 0.961 . S
C1025 H1033 0.960 . S
C1026 C1024 1.381 . S
C1026 C1027 1.394 . S
C1026 H1034 0.930 . S
C1027 C1026 1.394 . S
C1027 C1028 1.383 . S
C1027 H1035 0.929 . S
C1028 C1027 1.383 . S
C1028 C1029 1.377 . S
C1029 H1013 0.930 1_545 S
C1029 C1028 1.377 . S
C1029 C1030 1.379 1_545 S
C1030 H1014 0.931 . S
C1030 C1024 1.383 1_565 S
C1030 C1029 1.379 1_565 S
H1031 C1025 0.959 1_455 S
H1032 C1025 0.961 . S
H1033 C1025 0.960 . S
H1034 C1026 0.930 . S
H1035 C1027 0.929 . S
H1036 C1044 0.929 . S
H1037 C1046 0.930 . S
H1038 C1048 0.930 . S
H1039 C1051 0.929 . S
H1040 C1054 0.930 . S
H1041 C1056 0.960 . S
H1042 C1056 0.960 . S
H1043 C1056 0.960 . S
C1044 H1036 0.929 . S
C1044 C1045 1.377 . S
C1044 C1046 1.384 . S
C1045 C1044 1.377 . S
C1045 C1051 1.390 . S
C1046 H1037 0.930 . S
C1046 C1044 1.384 . S
C1046 C1047 1.372 . S
C1047 C1046 1.372 . S
C1047 C1048 1.400 . S
C1047 C1052 1.490 . S
C1048 H1038 0.930 . S
C1048 C1047 1.400 . S
C1048 C1051 1.386 . S
H1049 C1065 0.930 . S
H1050 C1066 0.931 . S
C1051 H1039 0.929 . S
C1051 C1045 1.390 . S
C1051 C1048 1.386 . S
C1052 C1047 1.490 . S
C1052 C1054 1.395 . S
C1052 C1055 1.403 . S
H1053 C1059 0.930 . S
C1054 H1040 0.930 . S
C1054 C1052 1.395 . S
C1054 C1057 1.403 . S
C1055 C1052 1.403 . S
C1055 C1056 1.524 . S
C1055 C1059 1.400 . S
C1056 H1041 0.960 . S
C1056 H1042 0.960 . S
C1056 H1043 0.960 . S
C1056 C1055 1.524 . S
C1057 C1054 1.403 . S
C1057 C1058 1.392 . S
C1057 C1061 1.495 . S
C1058 C1057 1.392 . S
C1058 C1059 1.385 . S
C1058 C1060 1.478 . S
C1059 H1053 0.930 . S
C1059 C1055 1.400 . S
C1059 C1058 1.385 . S
C1060 C1058 1.478 . S
C1060 C1062 1.381 . S
C1060 C1066 1.383 . S
C1061 C1057 1.495 . S
C1061 H1067 0.959 . S
C1061 H1068 0.961 . S
C1061 H1069 0.960 . S
C1062 C1060 1.381 . S
C1062 C1063 1.394 . S
C1062 H1070 0.930 . S
C1063 C1062 1.394 . S
C1063 C1064 1.383 . S
C1063 H1071 0.929 . S
C1064 C1063 1.383 . S
C1064 C1065 1.377 . S
C1065 H1049 0.930 . S
C1065 C1064 1.377 . S
C1065 C1066 1.379 . S
C1066 H1050 0.931 . S
C1066 C1060 1.383 . S
C1066 C1065 1.379 . S
H1067 C1061 0.959 . S
H1068 C1061 0.961 . S
H1069 C1061 0.960 . S
H1070 C1062 0.930 . S
H1071 C1063 0.929 . S
H1072 C1080 0.929 . S
H1073 C1082 0.930 . S
H1074 C1084 0.930 . S
H1075 C1087 0.929 . S
H1076 C1090 0.930 . S
H1077 C1092 0.960 . S
H1078 C1092 0.960 . S
H1079 C1092 0.960 . S
C1080 H1072 0.929 . S
C1080 C1081 1.377 . S
C1080 C1082 1.384 . S
C1081 C1080 1.377 . S
C1081 C1087 1.390 . S
C1082 H1073 0.930 . S
C1082 C1080 1.384 . S
C1082 C1083 1.372 . S
C1083 C1082 1.372 . S
C1083 C1084 1.400 . S
C1083 C1088 1.490 . S
C1084 H1074 0.930 . S
C1084 C1083 1.400 . S
C1084 C1087 1.386 . S
H1085 C1101 0.930 . S
H1086 C1102 0.931 . S
C1087 H1075 0.929 . S
C1087 C1081 1.390 . S
C1087 C1084 1.386 . S
C1088 C1083 1.490 . S
C1088 C1090 1.395 . S
C1088 C1091 1.403 . S
H1089 C1095 0.930 . S
C1090 H1076 0.930 . S
C1090 C1088 1.395 . S
C1090 C1093 1.403 . S
C1091 C1088 1.403 . S
C1091 C1092 1.524 . S
C1091 C1095 1.400 . S
C1092 H1077 0.960 . S
C1092 H1078 0.960 . S
C1092 H1079 0.960 . S
C1092 C1091 1.524 . S
C1093 C1090 1.403 . S
C1093 C1094 1.392 . S
C1093 C1097 1.495 . S
C1094 C1093 1.392 . S
C1094 C1095 1.385 . S
C1094 C1096 1.478 . S
C1095 H1089 0.930 . S
C1095 C1091 1.400 . S
C1095 C1094 1.385 . S
C1096 C1094 1.478 . S
C1096 C1098 1.381 . S
C1096 C1102 1.383 . S
C1097 C1093 1.495 . S
C1097 H1103 0.959 . S
C1097 H1104 0.961 . S
C1097 H1105 0.960 . S
C1098 C1096 1.381 . S
C1098 C1099 1.394 . S
C1098 H1106 0.930 . S
C1099 C1098 1.394 . S
C1099 C1100 1.383 . S
C1099 H1107 0.929 . S
C1100 C1099 1.383 . S
C1100 C1101 1.377 . S
C1101 H1085 0.930 . S
C1101 C1100 1.377 . S
C1101 C1102 1.379 . S
C1102 H1086 0.931 . S
C1102 C1096 1.383 . S
C1102 C1101 1.379 . S
H1103 C1097 0.959 . S
H1104 C1097 0.961 . S
H1105 C1097 0.960 . S
H1106 C1098 0.930 . S
H1107 C1099 0.929 . S
H1108 C1116 0.929 . S
H1109 C1118 0.930 . S
H1110 C1120 0.930 . S
H1111 C1123 0.929 . S
H1112 C1126 0.930 . S
H1113 C1128 0.960 . S
H1114 C1128 0.960 . S
H1115 C1128 0.960 . S
C1116 H1108 0.929 . S
C1116 C1117 1.377 . S
C1116 C1118 1.384 . S
C1117 C1116 1.377 . S
C1117 C1123 1.390 . S
C1118 H1109 0.930 . S
C1118 C1116 1.384 . S
C1118 C1119 1.372 . S
C1119 C1118 1.372 . S
C1119 C1120 1.400 . S
C1119 C1124 1.490 . S
C1120 H1110 0.930 . S
C1120 C1119 1.400 . S
C1120 C1123 1.386 . S
H1121 C1137 0.930 . S
H1122 C1138 0.931 . S
C1123 H1111 0.929 . S
C1123 C1117 1.390 . S
C1123 C1120 1.386 . S
C1124 C1119 1.490 . S
C1124 C1126 1.395 . S
C1124 C1127 1.403 . S
H1125 C1131 0.930 . S
C1126 H1112 0.930 . S
C1126 C1124 1.395 . S
C1126 C1129 1.403 . S
C1127 C1124 1.403 . S
C1127 C1128 1.524 . S
C1127 C1131 1.400 . S
C1128 H1113 0.960 . S
C1128 H1114 0.960 . S
C1128 H1115 0.960 . S
C1128 C1127 1.524 . S
C1129 C1126 1.403 . S
C1129 C1130 1.392 . S
C1129 C1133 1.495 . S
C1130 C1129 1.392 . S
C1130 C1131 1.385 . S
C1130 C1132 1.478 . S
C1131 H1125 0.930 . S
C1131 C1127 1.400 . S
C1131 C1130 1.385 . S
C1132 C1130 1.478 . S
C1132 C1134 1.381 . S
C1132 C1138 1.383 . S
C1133 C1129 1.495 . S
C1133 H1139 0.959 . S
C1133 H1140 0.961 . S
C1133 H1141 0.960 . S
C1134 C1132 1.381 . S
C1134 C1135 1.394 . S
C1134 H1142 0.930 . S
C1135 C1134 1.394 . S
C1135 C1136 1.383 . S
C1135 H1143 0.929 . S
C1136 C1135 1.383 . S
C1136 C1137 1.377 . S
C1137 H1121 0.930 . S
C1137 C1136 1.377 . S
C1137 C1138 1.379 . S
C1138 H1122 0.931 . S
C1138 C1132 1.383 . S
C1138 C1137 1.379 . S
H1139 C1133 0.959 . S
H1140 C1133 0.961 . S
H1141 C1133 0.960 . S
H1142 C1134 0.930 . S
H1143 C1135 0.929 . S
H1144 C1152 0.929 . S
H1145 C1154 0.930 . S
H1146 C1156 0.930 . S
H1147 C1159 0.929 . S
H1148 C1162 0.930 . S
H1149 C1164 0.960 1_655 S
H1150 C1164 0.960 . S
H1151 C1164 0.960 . S
C1152 H1144 0.929 . S
C1152 C1153 1.377 . S
C1152 C1154 1.384 . S
C1153 C1152 1.377 . S
C1153 C1159 1.390 . S
C1154 H1145 0.930 . S
C1154 C1152 1.384 . S
C1154 C1155 1.372 . S
C1155 C1154 1.372 . S
C1155 C1156 1.400 . S
C1155 C1160 1.490 . S
C1156 H1146 0.930 . S
C1156 C1155 1.400 . S
C1156 C1159 1.386 . S
H1157 C1173 0.930 . S
H1158 C1174 0.931 . S
C1159 H1147 0.929 . S
C1159 C1153 1.390 . S
C1159 C1156 1.386 . S
C1160 C1155 1.490 . S
C1160 C1162 1.395 . S
C1160 C1163 1.403 . S
H1161 C1167 0.930 . S
C1162 H1148 0.930 . S
C1162 C1160 1.395 . S
C1162 C1165 1.403 1_455 S
C1163 C1160 1.403 . S
C1163 C1164 1.524 . S
C1163 C1167 1.400 1_455 S
C1164 H1149 0.960 1_455 S
C1164 H1150 0.960 . S
C1164 H1151 0.960 . S
C1164 C1163 1.524 . S
C1165 C1162 1.403 1_655 S
C1165 C1166 1.392 . S
C1165 C1169 1.495 . S
C1166 C1165 1.392 . S
C1166 C1167 1.385 . S
C1166 C1168 1.478 . S
C1167 H1161 0.930 . S
C1167 C1163 1.400 1_655 S
C1167 C1166 1.385 . S
C1168 C1166 1.478 . S
C1168 C1170 1.381 . S
C1168 C1174 1.383 . S
C1169 C1165 1.495 . S
C1169 H1175 0.959 1_655 S
C1169 H1176 0.961 . S
C1169 H1177 0.960 . S
C1170 C1168 1.381 . S
C1170 C1171 1.394 . S
C1170 H1178 0.930 . S
C1171 C1170 1.394 . S
C1171 C1172 1.383 . S
C1171 H1179 0.929 . S
C1172 C1171 1.383 . S
C1172 C1173 1.377 . S
C1173 H1157 0.930 . S
C1173 C1172 1.377 . S
C1173 C1174 1.379 . S
C1174 H1158 0.931 . S
C1174 C1168 1.383 . S
C1174 C1173 1.379 . S
H1175 C1169 0.959 1_455 S
H1176 C1169 0.961 . S
H1177 C1169 0.960 . S
H1178 C1170 0.930 . S
H1179 C1171 0.929 . S
H1180 C1188 0.929 . S
H1181 C1190 0.930 . S
H1182 C1192 0.930 1_556 S
H1183 C1195 0.929 . S
H1184 C1198 0.930 . S
H1185 C1200 0.960 . S
H1186 C1200 0.960 . S
H1187 C1200 0.960 . S
C1188 H1180 0.929 . S
C1188 C1189 1.377 . S
C1188 C1190 1.384 . S
C1189 C1188 1.377 . S
C1189 C1195 1.390 . S
C1190 H1181 0.930 . S
C1190 C1188 1.384 . S
C1190 C1191 1.372 . S
C1191 C1190 1.372 . S
C1191 C1192 1.400 . S
C1191 C1196 1.490 . S
C1192 H1182 0.930 1_554 S
C1192 C1191 1.400 . S
C1192 C1195 1.386 . S
H1193 C1209 0.930 . S
H1194 C1210 0.931 . S
C1195 H1183 0.929 . S
C1195 C1189 1.390 . S
C1195 C1192 1.386 . S
C1196 C1191 1.490 . S
C1196 C1198 1.395 . S
C1196 C1199 1.403 1_554 S
H1197 C1203 0.930 . S
C1198 H1184 0.930 . S
C1198 C1196 1.395 . S
C1198 C1201 1.403 . S
C1199 C1196 1.403 1_556 S
C1199 C1200 1.524 . S
C1199 C1203 1.400 . S
C1200 H1185 0.960 . S
C1200 H1186 0.960 . S
C1200 H1187 0.960 . S
C1200 C1199 1.524 . S
C1201 C1198 1.403 . S
C1201 C1202 1.392 1_554 S
C1201 C1205 1.495 . S
C1202 C1201 1.392 1_556 S
C1202 C1203 1.385 . S
C1202 C1204 1.478 . S
C1203 H1197 0.930 . S
C1203 C1199 1.400 . S
C1203 C1202 1.385 . S
C1204 C1202 1.478 . S
C1204 C1206 1.381 . S
C1204 C1210 1.383 . S
C1205 C1201 1.495 . S
C1205 H1211 0.959 . S
C1205 H1212 0.961 . S
C1205 H1213 0.960 . S
C1206 C1204 1.381 . S
C1206 C1207 1.394 . S
C1206 H1214 0.930 1_556 S
C1207 C1206 1.394 . S
C1207 C1208 1.383 . S
C1207 H1215 0.929 . S
C1208 C1207 1.383 . S
C1208 C1209 1.377 . S
C1209 H1193 0.930 . S
C1209 C1208 1.377 . S
C1209 C1210 1.379 . S
C1210 H1194 0.931 . S
C1210 C1204 1.383 . S
C1210 C1209 1.379 . S
H1211 C1205 0.959 . S
H1212 C1205 0.961 . S
H1213 C1205 0.960 . S
H1214 C1206 0.930 1_554 S
H1215 C1207 0.929 . S
H1216 C1224 0.929 . S
H1217 C1226 0.930 . S
H1218 C1228 0.930 . S
H1219 C1231 0.929 . S
H1220 C1234 0.930 . S
H1221 C1236 0.960 . S
H1222 C1236 0.960 . S
H1223 C1236 0.960 . S
C1224 H1216 0.929 . S
C1224 C1225 1.377 . S
C1224 C1226 1.384 . S
C1225 C1224 1.377 . S
C1225 C1231 1.390 . S
C1226 H1217 0.930 . S
C1226 C1224 1.384 . S
C1226 C1227 1.372 . S
C1227 C1226 1.372 . S
C1227 C1228 1.400 . S
C1227 C1232 1.490 . S
C1228 H1218 0.930 . S
C1228 C1227 1.400 . S
C1228 C1231 1.386 . S
H1229 C1245 0.930 . S
H1230 C1246 0.931 . S
C1231 H1219 0.929 . S
C1231 C1225 1.390 . S
C1231 C1228 1.386 . S
C1232 C1227 1.490 . S
C1232 C1234 1.395 . S
C1232 C1235 1.403 . S
H1233 C1239 0.930 . S
C1234 H1220 0.930 . S
C1234 C1232 1.395 . S
C1234 C1237 1.403 . S
C1235 C1232 1.403 . S
C1235 C1236 1.524 . S
C1235 C1239 1.400 . S
C1236 H1221 0.960 . S
C1236 H1222 0.960 . S
C1236 H1223 0.960 . S
C1236 C1235 1.524 . S
C1237 C1234 1.403 . S
C1237 C1238 1.392 . S
C1237 C1241 1.495 . S
C1238 C1237 1.392 . S
C1238 C1239 1.385 . S
C1238 C1240 1.478 . S
C1239 H1233 0.930 . S
C1239 C1235 1.400 . S
C1239 C1238 1.385 . S
C1240 C1238 1.478 . S
C1240 C1242 1.381 . S
C1240 C1246 1.383 . S
C1241 C1237 1.495 . S
C1241 H1247 0.959 . S
C1241 H1248 0.961 . S
C1241 H1249 0.960 . S
C1242 C1240 1.381 . S
C1242 C1243 1.394 . S
C1242 H1250 0.930 . S
C1243 C1242 1.394 . S
C1243 C1244 1.383 . S
C1243 H1251 0.929 . S
C1244 C1243 1.383 . S
C1244 C1245 1.377 . S
C1245 H1229 0.930 . S
C1245 C1244 1.377 . S
C1245 C1246 1.379 . S
C1246 H1230 0.931 . S
C1246 C1240 1.383 . S
C1246 C1245 1.379 . S
H1247 C1241 0.959 . S
H1248 C1241 0.961 . S
H1249 C1241 0.960 . S
H1250 C1242 0.930 . S
H1251 C1243 0.929 . S
H1252 C1260 0.929 . S
H1253 C1262 0.930 . S
H1254 C1264 0.930 . S
H1255 C1267 0.929 . S
H1256 C1270 0.930 . S
H1257 C1272 0.960 . S
H1258 C1272 0.960 . S
H1259 C1272 0.960 . S
C1260 H1252 0.929 . S
C1260 C1261 1.377 . S
C1260 C1262 1.384 . S
C1261 C1260 1.377 . S
C1261 C1267 1.390 . S
C1262 H1253 0.930 . S
C1262 C1260 1.384 . S
C1262 C1263 1.372 . S
C1263 C1262 1.372 . S
C1263 C1264 1.400 . S
C1263 C1268 1.490 . S
C1264 H1254 0.930 . S
C1264 C1263 1.400 . S
C1264 C1267 1.386 . S
H1265 C1281 0.930 . S
H1266 C1282 0.931 . S
C1267 H1255 0.929 . S
C1267 C1261 1.390 . S
C1267 C1264 1.386 . S
C1268 C1263 1.490 . S
C1268 C1270 1.395 . S
C1268 C1271 1.403 . S
H1269 C1275 0.930 . S
C1270 H1256 0.930 . S
C1270 C1268 1.395 . S
C1270 C1273 1.403 . S
C1271 C1268 1.403 . S
C1271 C1272 1.524 . S
C1271 C1275 1.400 . S
C1272 H1257 0.960 . S
C1272 H1258 0.960 . S
C1272 H1259 0.960 . S
C1272 C1271 1.524 . S
C1273 C1270 1.403 . S
C1273 C1274 1.392 . S
C1273 C1277 1.495 . S
C1274 C1273 1.392 . S
C1274 C1275 1.385 . S
C1274 C1276 1.478 . S
C1275 H1269 0.930 . S
C1275 C1271 1.400 . S
C1275 C1274 1.385 . S
C1276 C1274 1.478 . S
C1276 C1278 1.381 . S
C1276 C1282 1.383 . S
C1277 C1273 1.495 . S
C1277 H1283 0.959 . S
C1277 H1284 0.961 . S
C1277 H1285 0.960 . S
C1278 C1276 1.381 . S
C1278 C1279 1.394 . S
C1278 H1286 0.930 . S
C1279 C1278 1.394 . S
C1279 C1280 1.383 . S
C1279 H1287 0.929 . S
C1280 C1279 1.383 . S
C1280 C1281 1.377 . S
C1281 H1265 0.930 . S
C1281 C1280 1.377 . S
C1281 C1282 1.379 . S
C1282 H1266 0.931 . S
C1282 C1276 1.383 . S
C1282 C1281 1.379 . S
H1283 C1277 0.959 . S
H1284 C1277 0.961 . S
H1285 C1277 0.960 . S
H1286 C1278 0.930 . S
H1287 C1279 0.929 . S
H1288 C1296 0.929 . S
H1289 C1298 0.930 . S
H1290 C1300 0.930 . S
H1291 C1303 0.929 . S
H1292 C1306 0.930 . S
H1293 C1308 0.960 . S
H1294 C1308 0.960 . S
H1295 C1308 0.960 . S
C1296 H1288 0.929 . S
C1296 C1297 1.377 . S
C1296 C1298 1.384 . S
C1297 C1296 1.377 . S
C1297 C1303 1.390 . S
C1298 H1289 0.930 . S
C1298 C1296 1.384 . S
C1298 C1299 1.372 . S
C1299 C1298 1.372 . S
C1299 C1300 1.400 . S
C1299 C1304 1.490 . S
C1300 H1290 0.930 . S
C1300 C1299 1.400 . S
C1300 C1303 1.386 . S
H1301 C1317 0.930 . S
H1302 C1318 0.931 . S
C1303 H1291 0.929 . S
C1303 C1297 1.390 . S
C1303 C1300 1.386 . S
C1304 C1299 1.490 . S
C1304 C1306 1.395 . S
C1304 C1307 1.403 . S
H1305 C1311 0.930 . S
C1306 H1292 0.930 . S
C1306 C1304 1.395 . S
C1306 C1309 1.403 . S
C1307 C1304 1.403 . S
C1307 C1308 1.524 . S
C1307 C1311 1.400 . S
C1308 H1293 0.960 . S
C1308 H1294 0.960 . S
C1308 H1295 0.960 . S
C1308 C1307 1.524 . S
C1309 C1306 1.403 . S
C1309 C1310 1.392 . S
C1309 C1313 1.495 . S
C1310 C1309 1.392 . S
C1310 C1311 1.385 . S
C1310 C1312 1.478 . S
C1311 H1305 0.930 . S
C1311 C1307 1.400 . S
C1311 C1310 1.385 . S
C1312 C1310 1.478 . S
C1312 C1314 1.381 . S
C1312 C1318 1.383 . S
C1313 C1309 1.495 . S
C1313 H1319 0.959 . S
C1313 H1320 0.961 . S
C1313 H1321 0.960 . S
C1314 C1312 1.381 . S
C1314 C1315 1.394 . S
C1314 H1322 0.930 . S
C1315 C1314 1.394 . S
C1315 C1316 1.383 . S
C1315 H1323 0.929 . S
C1316 C1315 1.383 . S
C1316 C1317 1.377 . S
C1317 H1301 0.930 . S
C1317 C1316 1.377 . S
C1317 C1318 1.379 . S
C1318 H1302 0.931 . S
C1318 C1312 1.383 . S
C1318 C1317 1.379 . S
H1319 C1313 0.959 . S
H1320 C1313 0.961 . S
H1321 C1313 0.960 . S
H1322 C1314 0.930 . S
H1323 C1315 0.929 . S
H1324 C1332 0.929 . S
H1325 C1334 0.930 . S
H1326 C1336 0.930 . S
H1327 C1339 0.929 . S
H1328 C1342 0.930 . S
H1329 C1344 0.960 . S
H1330 C1344 0.960 . S
H1331 C1344 0.960 . S
C1332 H1324 0.929 . S
C1332 C1333 1.377 . S
C1332 C1334 1.384 . S
C1333 C1332 1.377 . S
C1333 C1339 1.390 . S
C1334 H1325 0.930 . S
C1334 C1332 1.384 . S
C1334 C1335 1.372 . S
C1335 C1334 1.372 . S
C1335 C1336 1.400 . S
C1335 C1340 1.490 . S
C1336 H1326 0.930 . S
C1336 C1335 1.400 . S
C1336 C1339 1.386 . S
H1337 C1353 0.930 . S
H1338 C1354 0.931 . S
C1339 H1327 0.929 . S
C1339 C1333 1.390 . S
C1339 C1336 1.386 . S
C1340 C1335 1.490 . S
C1340 C1342 1.395 . S
C1340 C1343 1.403 . S
H1341 C1347 0.930 . S
C1342 H1328 0.930 . S
C1342 C1340 1.395 . S
C1342 C1345 1.403 . S
C1343 C1340 1.403 . S
C1343 C1344 1.524 . S
C1343 C1347 1.400 . S
C1344 H1329 0.960 . S
C1344 H1330 0.960 . S
C1344 H1331 0.960 . S
C1344 C1343 1.524 . S
C1345 C1342 1.403 . S
C1345 C1346 1.392 . S
C1345 C1349 1.495 . S
C1346 C1345 1.392 . S
C1346 C1347 1.385 . S
C1346 C1348 1.478 . S
C1347 H1341 0.930 . S
C1347 C1343 1.400 . S
C1347 C1346 1.385 . S
C1348 C1346 1.478 . S
C1348 C1350 1.381 . S
C1348 C1354 1.383 . S
C1349 C1345 1.495 . S
C1349 H1355 0.959 . S
C1349 H1356 0.961 . S
C1349 H1357 0.960 . S
C1350 C1348 1.381 . S
C1350 C1351 1.394 . S
C1350 H1358 0.930 . S
C1351 C1350 1.394 . S
C1351 C1352 1.383 . S
C1351 H1359 0.929 . S
C1352 C1351 1.383 . S
C1352 C1353 1.377 . S
C1353 H1337 0.930 . S
C1353 C1352 1.377 . S
C1353 C1354 1.379 . S
C1354 H1338 0.931 . S
C1354 C1348 1.383 . S
C1354 C1353 1.379 . S
H1355 C1349 0.959 . S
H1356 C1349 0.961 . S
H1357 C1349 0.960 . S
H1358 C1350 0.930 . S
H1359 C1351 0.929 . S
H1360 C1368 0.929 . S
H1361 C1370 0.930 . S
H1362 C1372 0.930 . S
H1363 C1375 0.929 . S
H1364 C1378 0.930 . S
H1365 C1380 0.960 . S
H1366 C1380 0.960 . S
H1367 C1380 0.960 . S
C1368 H1360 0.929 . S
C1368 C1369 1.377 . S
C1368 C1370 1.384 . S
C1369 C1368 1.377 . S
C1369 C1375 1.390 . S
C1370 H1361 0.930 . S
C1370 C1368 1.384 . S
C1370 C1371 1.372 . S
C1371 C1370 1.372 . S
C1371 C1372 1.400 . S
C1371 C1376 1.490 . S
C1372 H1362 0.930 . S
C1372 C1371 1.400 . S
C1372 C1375 1.386 . S
H1373 C1389 0.930 . S
H1374 C1390 0.931 . S
C1375 H1363 0.929 . S
C1375 C1369 1.390 . S
C1375 C1372 1.386 . S
C1376 C1371 1.490 . S
C1376 C1378 1.395 . S
C1376 C1379 1.403 . S
H1377 C1383 0.930 . S
C1378 H1364 0.930 . S
C1378 C1376 1.395 . S
C1378 C1381 1.403 . S
C1379 C1376 1.403 . S
C1379 C1380 1.524 . S
C1379 C1383 1.400 . S
C1380 H1365 0.960 . S
C1380 H1366 0.960 . S
C1380 H1367 0.960 . S
C1380 C1379 1.524 . S
C1381 C1378 1.403 . S
C1381 C1382 1.392 . S
C1381 C1385 1.495 . S
C1382 C1381 1.392 . S
C1382 C1383 1.385 . S
C1382 C1384 1.478 . S
C1383 H1377 0.930 . S
C1383 C1379 1.400 . S
C1383 C1382 1.385 . S
C1384 C1382 1.478 . S
C1384 C1386 1.381 . S
C1384 C1390 1.383 . S
C1385 C1381 1.495 . S
C1385 H1391 0.959 . S
C1385 H1392 0.961 . S
C1385 H1393 0.960 . S
C1386 C1384 1.381 . S
C1386 C1387 1.394 . S
C1386 H1394 0.930 . S
C1387 C1386 1.394 . S
C1387 C1388 1.383 . S
C1387 H1395 0.929 . S
C1388 C1387 1.383 . S
C1388 C1389 1.377 . S
C1389 H1373 0.930 . S
C1389 C1388 1.377 . S
C1389 C1390 1.379 . S
C1390 H1374 0.931 . S
C1390 C1384 1.383 . S
C1390 C1389 1.379 . S
H1391 C1385 0.959 . S
H1392 C1385 0.961 . S
H1393 C1385 0.960 . S
H1394 C1386 0.930 . S
H1395 C1387 0.929 . S
H1396 C1404 0.929 . S
H1397 C1406 0.930 . S
H1398 C1408 0.930 . S
H1399 C1411 0.929 . S
H1400 C1414 0.930 . S
H1401 C1416 0.960 . S
H1402 C1416 0.960 . S
H1403 C1416 0.960 . S
C1404 H1396 0.929 . S
C1404 C1405 1.377 . S
C1404 C1406 1.384 . S
C1405 C1404 1.377 . S
C1405 C1411 1.390 . S
C1406 H1397 0.930 . S
C1406 C1404 1.384 . S
C1406 C1407 1.372 . S
C1407 C1406 1.372 . S
C1407 C1408 1.400 . S
C1407 C1412 1.490 . S
C1408 H1398 0.930 . S
C1408 C1407 1.400 . S
C1408 C1411 1.386 . S
H1409 C1425 0.930 . S
H1410 C1426 0.931 . S
C1411 H1399 0.929 . S
C1411 C1405 1.390 . S
C1411 C1408 1.386 . S
C1412 C1407 1.490 . S
C1412 C1414 1.395 . S
C1412 C1415 1.403 . S
H1413 C1419 0.930 . S
C1414 H1400 0.930 . S
C1414 C1412 1.395 . S
C1414 C1417 1.403 . S
C1415 C1412 1.403 . S
C1415 C1416 1.524 . S
C1415 C1419 1.400 . S
C1416 H1401 0.960 . S
C1416 H1402 0.960 . S
C1416 H1403 0.960 . S
C1416 C1415 1.524 . S
C1417 C1414 1.403 . S
C1417 C1418 1.392 . S
C1417 C1421 1.495 . S
C1418 C1417 1.392 . S
C1418 C1419 1.385 . S
C1418 C1420 1.478 . S
C1419 H1413 0.930 . S
C1419 C1415 1.400 . S
C1419 C1418 1.385 . S
C1420 C1418 1.478 . S
C1420 C1422 1.381 . S
C1420 C1426 1.383 . S
C1421 C1417 1.495 . S
C1421 H1427 0.959 . S
C1421 H1428 0.961 . S
C1421 H1429 0.960 . S
C1422 C1420 1.381 . S
C1422 C1423 1.394 . S
C1422 H1430 0.930 . S
C1423 C1422 1.394 . S
C1423 C1424 1.383 . S
C1423 H1431 0.929 . S
C1424 C1423 1.383 . S
C1424 C1425 1.377 . S
C1425 H1409 0.930 . S
C1425 C1424 1.377 . S
C1425 C1426 1.379 . S
C1426 H1410 0.931 . S
C1426 C1420 1.383 . S
C1426 C1425 1.379 . S
H1427 C1421 0.959 . S
H1428 C1421 0.961 . S
H1429 C1421 0.960 . S
H1430 C1422 0.930 . S
H1431 C1423 0.929 . S
H1432 C1440 0.929 . S
H1433 C1442 0.930 . S
H1434 C1444 0.930 . S
H1435 C1447 0.929 . S
H1436 C1450 0.930 . S
H1437 C1452 0.960 . S
H1438 C1452 0.960 . S
H1439 C1452 0.960 . S
C1440 H1432 0.929 . S
C1440 C1441 1.377 . S
C1440 C1442 1.384 . S
C1441 C1440 1.377 . S
C1441 C1447 1.390 . S
C1442 H1433 0.930 . S
C1442 C1440 1.384 . S
C1442 C1443 1.372 . S
C1443 C1442 1.372 . S
C1443 C1444 1.400 . S
C1443 C1448 1.490 . S
C1444 H1434 0.930 . S
C1444 C1443 1.400 . S
C1444 C1447 1.386 . S
H1445 C1461 0.930 . S
H1446 C1462 0.931 . S
C1447 H1435 0.929 . S
C1447 C1441 1.390 . S
C1447 C1444 1.386 . S
C1448 C1443 1.490 . S
C1448 C1450 1.395 . S
C1448 C1451 1.403 . S
H1449 C1455 0.930 . S
C1450 H1436 0.930 . S
C1450 C1448 1.395 . S
C1450 C1453 1.403 . S
C1451 C1448 1.403 . S
C1451 C1452 1.524 . S
C1451 C1455 1.400 . S
C1452 H1437 0.960 . S
C1452 H1438 0.960 . S
C1452 H1439 0.960 . S
C1452 C1451 1.524 . S
C1453 C1450 1.403 . S
C1453 C1454 1.392 . S
C1453 C1457 1.495 . S
C1454 C1453 1.392 . S
C1454 C1455 1.385 . S
C1454 C1456 1.478 . S
C1455 H1449 0.930 . S
C1455 C1451 1.400 . S
C1455 C1454 1.385 . S
C1456 C1454 1.478 . S
C1456 C1458 1.381 . S
C1456 C1462 1.383 . S
C1457 C1453 1.495 . S
C1457 H1463 0.959 . S
C1457 H1464 0.961 . S
C1457 H1465 0.960 . S
C1458 C1456 1.381 . S
C1458 C1459 1.394 . S
C1458 H1466 0.930 . S
C1459 C1458 1.394 . S
C1459 C1460 1.383 . S
C1459 H1467 0.929 . S
C1460 C1459 1.383 . S
C1460 C1461 1.377 . S
C1461 H1445 0.930 . S
C1461 C1460 1.377 . S
C1461 C1462 1.379 . S
C1462 H1446 0.931 . S
C1462 C1456 1.383 . S
C1462 C1461 1.379 . S
H1463 C1457 0.959 . S
H1464 C1457 0.961 . S
H1465 C1457 0.960 . S
H1466 C1458 0.930 . S
H1467 C1459 0.929 . S
H1468 C1476 0.929 . S
H1469 C1478 0.930 . S
H1470 C1480 0.930 . S
H1471 C1483 0.929 . S
H1472 C1486 0.930 . S
H1473 C1488 0.960 . S
H1474 C1488 0.960 . S
H1475 C1488 0.960 . S
C1476 H1468 0.929 . S
C1476 C1477 1.377 . S
C1476 C1478 1.384 . S
C1477 C1476 1.377 . S
C1477 C1483 1.390 . S
C1478 H1469 0.930 . S
C1478 C1476 1.384 . S
C1478 C1479 1.372 . S
C1479 C1478 1.372 . S
C1479 C1480 1.400 . S
C1479 C1484 1.490 . S
C1480 H1470 0.930 . S
C1480 C1479 1.400 . S
C1480 C1483 1.386 . S
H1481 C1497 0.930 . S
H1482 C1498 0.931 . S
C1483 H1471 0.929 . S
C1483 C1477 1.390 . S
C1483 C1480 1.386 . S
C1484 C1479 1.490 . S
C1484 C1486 1.395 . S
C1484 C1487 1.403 . S
H1485 C1491 0.930 . S
C1486 H1472 0.930 . S
C1486 C1484 1.395 . S
C1486 C1489 1.403 . S
C1487 C1484 1.403 . S
C1487 C1488 1.524 . S
C1487 C1491 1.400 . S
C1488 H1473 0.960 . S
C1488 H1474 0.960 . S
C1488 H1475 0.960 . S
C1488 C1487 1.524 . S
C1489 C1486 1.403 . S
C1489 C1490 1.392 . S
C1489 C1493 1.495 . S
C1490 C1489 1.392 . S
C1490 C1491 1.385 . S
C1490 C1492 1.478 . S
C1491 H1485 0.930 . S
C1491 C1487 1.400 . S
C1491 C1490 1.385 . S
C1492 C1490 1.478 . S
C1492 C1494 1.381 . S
C1492 C1498 1.383 . S
C1493 C1489 1.495 . S
C1493 H1499 0.959 . S
C1493 H1500 0.961 . S
C1493 H1501 0.960 . S
C1494 C1492 1.381 . S
C1494 C1495 1.394 . S
C1494 H1502 0.930 . S
C1495 C1494 1.394 . S
C1495 C1496 1.383 . S
C1495 H1503 0.929 . S
C1496 C1495 1.383 . S
C1496 C1497 1.377 . S
C1497 H1481 0.930 . S
C1497 C1496 1.377 . S
C1497 C1498 1.379 . S
C1498 H1482 0.931 . S
C1498 C1492 1.383 . S
C1498 C1497 1.379 . S
H1499 C1493 0.959 . S
H1500 C1493 0.961 . S
H1501 C1493 0.960 . S
H1502 C1494 0.930 . S
H1503 C1495 0.929 . S
H1504 C1512 0.929 . S
H1505 C1514 0.930 . S
H1506 C1516 0.930 . S
H1507 C1519 0.929 . S
H1508 C1522 0.930 . S
H1509 C1524 0.960 . S
H1510 C1524 0.960 . S
H1511 C1524 0.960 . S
C1512 H1504 0.929 . S
C1512 C1513 1.377 . S
C1512 C1514 1.384 . S
C1513 C1512 1.377 . S
C1513 C1519 1.390 . S
C1514 H1505 0.930 . S
C1514 C1512 1.384 . S
C1514 C1515 1.372 . S
C1515 C1514 1.372 . S
C1515 C1516 1.400 . S
C1515 C1520 1.490 . S
C1516 H1506 0.930 . S
C1516 C1515 1.400 . S
C1516 C1519 1.386 . S
H1517 C1533 0.930 . S
H1518 C1534 0.931 . S
C1519 H1507 0.929 . S
C1519 C1513 1.390 . S
C1519 C1516 1.386 . S
C1520 C1515 1.490 . S
C1520 C1522 1.395 . S
C1520 C1523 1.403 . S
H1521 C1527 0.930 . S
C1522 H1508 0.930 . S
C1522 C1520 1.395 . S
C1522 C1525 1.403 . S
C1523 C1520 1.403 . S
C1523 C1524 1.524 . S
C1523 C1527 1.400 . S
C1524 H1509 0.960 . S
C1524 H1510 0.960 . S
C1524 H1511 0.960 . S
C1524 C1523 1.524 . S
C1525 C1522 1.403 . S
C1525 C1526 1.392 . S
C1525 C1529 1.495 . S
C1526 C1525 1.392 . S
C1526 C1527 1.385 . S
C1526 C1528 1.478 . S
C1527 H1521 0.930 . S
C1527 C1523 1.400 . S
C1527 C1526 1.385 . S
C1528 C1526 1.478 . S
C1528 C1530 1.381 . S
C1528 C1534 1.383 . S
C1529 C1525 1.495 . S
C1529 H1535 0.959 . S
C1529 H1536 0.961 . S
C1529 H1537 0.960 . S
C1530 C1528 1.381 . S
C1530 C1531 1.394 . S
C1530 H1538 0.930 . S
C1531 C1530 1.394 . S
C1531 C1532 1.383 . S
C1531 H1539 0.929 . S
C1532 C1531 1.383 . S
C1532 C1533 1.377 . S
C1533 H1517 0.930 . S
C1533 C1532 1.377 . S
C1533 C1534 1.379 . S
C1534 H1518 0.931 . S
C1534 C1528 1.383 . S
C1534 C1533 1.379 . S
H1535 C1529 0.959 . S
H1536 C1529 0.961 . S
H1537 C1529 0.960 . S
H1538 C1530 0.930 . S
H1539 C1531 0.929 . S
H1540 C1548 0.929 . S
H1541 C1550 0.930 . S
H1542 C1552 0.930 . S
H1543 C1555 0.929 . S
H1544 C1558 0.930 . S
H1545 C1560 0.960 . S
H1546 C1560 0.960 . S
H1547 C1560 0.960 . S
C1548 H1540 0.929 . S
C1548 C1549 1.377 . S
C1548 C1550 1.384 . S
C1549 C1548 1.377 . S
C1549 C1555 1.390 . S
C1550 H1541 0.930 . S
C1550 C1548 1.384 . S
C1550 C1551 1.372 . S
C1551 C1550 1.372 . S
C1551 C1552 1.400 . S
C1551 C1556 1.490 . S
C1552 H1542 0.930 . S
C1552 C1551 1.400 . S
C1552 C1555 1.386 . S
H1553 C1569 0.930 . S
H1554 C1570 0.931 . S
C1555 H1543 0.929 . S
C1555 C1549 1.390 . S
C1555 C1552 1.386 . S
C1556 C1551 1.490 . S
C1556 C1558 1.395 . S
C1556 C1559 1.403 . S
H1557 C1563 0.930 . S
C1558 H1544 0.930 . S
C1558 C1556 1.395 . S
C1558 C1561 1.403 . S
C1559 C1556 1.403 . S
C1559 C1560 1.524 . S
C1559 C1563 1.400 . S
C1560 H1545 0.960 . S
C1560 H1546 0.960 . S
C1560 H1547 0.960 . S
C1560 C1559 1.524 . S
C1561 C1558 1.403 . S
C1561 C1562 1.392 . S
C1561 C1565 1.495 . S
C1562 C1561 1.392 . S
C1562 C1563 1.385 . S
C1562 C1564 1.478 . S
C1563 H1557 0.930 . S
C1563 C1559 1.400 . S
C1563 C1562 1.385 . S
C1564 C1562 1.478 . S
C1564 C1566 1.381 . S
C1564 C1570 1.383 . S
C1565 C1561 1.495 . S
C1565 H1571 0.959 . S
C1565 H1572 0.961 . S
C1565 H1573 0.960 . S
C1566 C1564 1.381 . S
C1566 C1567 1.394 . S
C1566 H1574 0.930 . S
C1567 C1566 1.394 . S
C1567 C1568 1.383 . S
C1567 H1575 0.929 . S
C1568 C1567 1.383 . S
C1568 C1569 1.377 . S
C1569 H1553 0.930 . S
C1569 C1568 1.377 . S
C1569 C1570 1.379 . S
C1570 H1554 0.931 . S
C1570 C1564 1.383 . S
C1570 C1569 1.379 . S
H1571 C1565 0.959 . S
H1572 C1565 0.961 . S
H1573 C1565 0.960 . S
H1574 C1566 0.930 . S
H1575 C1567 0.929 . S
H1576 C1584 0.929 . S
H1577 C1586 0.930 . S
H1578 C1588 0.930 . S
H1579 C1591 0.929 . S
H1580 C1594 0.930 . S
H1581 C1596 0.960 . S
H1582 C1596 0.960 . S
H1583 C1596 0.960 . S
C1584 H1576 0.929 . S
C1584 C1585 1.377 . S
C1584 C1586 1.384 . S
C1585 C1584 1.377 . S
C1585 C1591 1.390 . S
C1586 H1577 0.930 . S
C1586 C1584 1.384 . S
C1586 C1587 1.372 . S
C1587 C1586 1.372 . S
C1587 C1588 1.400 . S
C1587 C1592 1.490 . S
C1588 H1578 0.930 . S
C1588 C1587 1.400 . S
C1588 C1591 1.386 . S
H1589 C1605 0.930 . S
H1590 C1606 0.931 . S
C1591 H1579 0.929 . S
C1591 C1585 1.390 . S
C1591 C1588 1.386 . S
C1592 C1587 1.490 . S
C1592 C1594 1.395 . S
C1592 C1595 1.403 . S
H1593 C1599 0.930 . S
C1594 H1580 0.930 . S
C1594 C1592 1.395 . S
C1594 C1597 1.403 . S
C1595 C1592 1.403 . S
C1595 C1596 1.524 . S
C1595 C1599 1.400 . S
C1596 H1581 0.960 . S
C1596 H1582 0.960 . S
C1596 H1583 0.960 . S
C1596 C1595 1.524 . S
C1597 C1594 1.403 . S
C1597 C1598 1.392 . S
C1597 C1601 1.495 . S
C1598 C1597 1.392 . S
C1598 C1599 1.385 . S
C1598 C1600 1.478 . S
C1599 H1593 0.930 . S
C1599 C1595 1.400 . S
C1599 C1598 1.385 . S
C1600 C1598 1.478 . S
C1600 C1602 1.381 . S
C1600 C1606 1.383 . S
C1601 C1597 1.495 . S
C1601 H1607 0.959 . S
C1601 H1608 0.961 . S
C1601 H1609 0.960 . S
C1602 C1600 1.381 . S
C1602 C1603 1.394 . S
C1602 H1610 0.930 . S
C1603 C1602 1.394 . S
C1603 C1604 1.383 . S
C1603 H1611 0.929 . S
C1604 C1603 1.383 . S
C1604 C1605 1.377 . S
C1605 H1589 0.930 . S
C1605 C1604 1.377 . S
C1605 C1606 1.379 . S
C1606 H1590 0.931 . S
C1606 C1600 1.383 . S
C1606 C1605 1.379 . S
H1607 C1601 0.959 . S
H1608 C1601 0.961 . S
H1609 C1601 0.960 . S
H1610 C1602 0.930 . S
H1611 C1603 0.929 . S
H1612 C1620 0.929 . S
H1613 C1622 0.930 . S
H1614 C1624 0.930 . S
H1615 C1627 0.929 . S
H1616 C1630 0.930 . S
H1617 C1632 0.960 . S
H1618 C1632 0.960 . S
H1619 C1632 0.960 . S
C1620 H1612 0.929 . S
C1620 C1621 1.377 . S
C1620 C1622 1.384 . S
C1621 C1620 1.377 . S
C1621 C1627 1.390 . S
C1622 H1613 0.930 . S
C1622 C1620 1.384 . S
C1622 C1623 1.372 . S
C1623 C1622 1.372 . S
C1623 C1624 1.400 . S
C1623 C1628 1.490 . S
C1624 H1614 0.930 . S
C1624 C1623 1.400 . S
C1624 C1627 1.386 . S
H1625 C1641 0.930 . S
H1626 C1642 0.931 . S
C1627 H1615 0.929 . S
C1627 C1621 1.390 . S
C1627 C1624 1.386 . S
C1628 C1623 1.490 . S
C1628 C1630 1.395 . S
C1628 C1631 1.403 . S
H1629 C1635 0.930 . S
C1630 H1616 0.930 . S
C1630 C1628 1.395 . S
C1630 C1633 1.403 . S
C1631 C1628 1.403 . S
C1631 C1632 1.524 . S
C1631 C1635 1.400 . S
C1632 H1617 0.960 . S
C1632 H1618 0.960 . S
C1632 H1619 0.960 . S
C1632 C1631 1.524 . S
C1633 C1630 1.403 . S
C1633 C1634 1.392 . S
C1633 C1637 1.495 . S
C1634 C1633 1.392 . S
C1634 C1635 1.385 . S
C1634 C1636 1.478 . S
C1635 H1629 0.930 . S
C1635 C1631 1.400 . S
C1635 C1634 1.385 . S
C1636 C1634 1.478 . S
C1636 C1638 1.381 . S
C1636 C1642 1.383 . S
C1637 C1633 1.495 . S
C1637 H1643 0.959 . S
C1637 H1644 0.961 . S
C1637 H1645 0.960 . S
C1638 C1636 1.381 . S
C1638 C1639 1.394 . S
C1638 H1646 0.930 . S
C1639 C1638 1.394 . S
C1639 C1640 1.383 . S
C1639 H1647 0.929 . S
C1640 C1639 1.383 . S
C1640 C1641 1.377 . S
C1641 H1625 0.930 . S
C1641 C1640 1.377 . S
C1641 C1642 1.379 . S
C1642 H1626 0.931 . S
C1642 C1636 1.383 . S
C1642 C1641 1.379 . S
H1643 C1637 0.959 . S
H1644 C1637 0.961 . S
H1645 C1637 0.960 . S
H1646 C1638 0.930 . S
H1647 C1639 0.929 . S
H1648 C1656 0.929 . S
H1649 C1658 0.930 . S
H1650 C1660 0.930 . S
H1651 C1663 0.929 . S
H1652 C1666 0.930 . S
H1653 C1668 0.960 . S
H1654 C1668 0.960 . S
H1655 C1668 0.960 . S
C1656 H1648 0.929 . S
C1656 C1657 1.377 . S
C1656 C1658 1.384 . S
C1657 C1656 1.377 . S
C1657 C1663 1.390 . S
C1658 H1649 0.930 . S
C1658 C1656 1.384 . S
C1658 C1659 1.372 . S
C1659 C1658 1.372 . S
C1659 C1660 1.400 . S
C1659 C1664 1.490 . S
C1660 H1650 0.930 . S
C1660 C1659 1.400 . S
C1660 C1663 1.386 . S
H1661 C1677 0.930 . S
H1662 C1678 0.931 . S
C1663 H1651 0.929 . S
C1663 C1657 1.390 . S
C1663 C1660 1.386 . S
C1664 C1659 1.490 . S
C1664 C1666 1.395 . S
C1664 C1667 1.403 . S
H1665 C1671 0.930 . S
C1666 H1652 0.930 . S
C1666 C1664 1.395 . S
C1666 C1669 1.403 . S
C1667 C1664 1.403 . S
C1667 C1668 1.524 . S
C1667 C1671 1.400 . S
C1668 H1653 0.960 . S
C1668 H1654 0.960 . S
C1668 H1655 0.960 . S
C1668 C1667 1.524 . S
C1669 C1666 1.403 . S
C1669 C1670 1.392 . S
C1669 C1673 1.495 . S
C1670 C1669 1.392 . S
C1670 C1671 1.385 . S
C1670 C1672 1.478 . S
C1671 H1665 0.930 . S
C1671 C1667 1.400 . S
C1671 C1670 1.385 . S
C1672 C1670 1.478 . S
C1672 C1674 1.381 . S
C1672 C1678 1.383 . S
C1673 C1669 1.495 . S
C1673 H1679 0.959 . S
C1673 H1680 0.961 . S
C1673 H1681 0.960 . S
C1674 C1672 1.381 . S
C1674 C1675 1.394 . S
C1674 H1682 0.930 . S
C1675 C1674 1.394 . S
C1675 C1676 1.383 . S
C1675 H1683 0.929 1_545 S
C1676 C1675 1.383 . S
C1676 C1677 1.377 . S
C1677 H1661 0.930 . S
C1677 C1676 1.377 . S
C1677 C1678 1.379 . S
C1678 H1662 0.931 . S
C1678 C1672 1.383 . S
C1678 C1677 1.379 . S
H1679 C1673 0.959 . S
H1680 C1673 0.961 . S
H1681 C1673 0.960 . S
H1682 C1674 0.930 . S
H1683 C1675 0.929 1_565 S
H1684 C1692 0.929 . S
H1685 C1694 0.930 . S
H1686 C1696 0.930 . S
H1687 C1699 0.929 1_565 S
H1688 C1702 0.930 . S
H1689 C1704 0.960 . S
H1690 C1704 0.960 . S
H1691 C1704 0.960 . S
C1692 H1684 0.929 . S
C1692 C1693 1.377 . S
C1692 C1694 1.384 . S
C1693 C1692 1.377 . S
C1693 C1699 1.390 . S
C1694 H1685 0.930 . S
C1694 C1692 1.384 . S
C1694 C1695 1.372 . S
C1695 C1694 1.372 . S
C1695 C1696 1.400 . S
C1695 C1700 1.490 . S
C1696 H1686 0.930 . S
C1696 C1695 1.400 . S
C1696 C1699 1.386 . S
H1697 C1713 0.930 . S
H1698 C1714 0.931 . S
C1699 H1687 0.929 1_545 S
C1699 C1693 1.390 . S
C1699 C1696 1.386 . S
C1700 C1695 1.490 . S
C1700 C1702 1.395 . S
C1700 C1703 1.403 . S
H1701 C1707 0.930 . S
C1702 H1688 0.930 . S
C1702 C1700 1.395 . S
C1702 C1705 1.403 . S
C1703 C1700 1.403 . S
C1703 C1704 1.524 . S
C1703 C1707 1.400 . S
C1704 H1689 0.960 . S
C1704 H1690 0.960 . S
C1704 H1691 0.960 . S
C1704 C1703 1.524 . S
C1705 C1702 1.403 . S
C1705 C1706 1.392 . S
C1705 C1709 1.495 . S
C1706 C1705 1.392 . S
C1706 C1707 1.385 . S
C1706 C1708 1.478 . S
C1707 H1701 0.930 . S
C1707 C1703 1.400 . S
C1707 C1706 1.385 . S
C1708 C1706 1.478 . S
C1708 C1710 1.381 . S
C1708 C1714 1.383 . S
C1709 C1705 1.495 . S
C1709 H1715 0.959 . S
C1709 H1716 0.961 . S
C1709 H1717 0.960 . S
C1710 C1708 1.381 . S
C1710 C1711 1.394 . S
C1710 H1718 0.930 . S
C1711 C1710 1.394 . S
C1711 C1712 1.383 . S
C1711 H1719 0.929 . S
C1712 C1711 1.383 . S
C1712 C1713 1.377 . S
C1713 H1697 0.930 . S
C1713 C1712 1.377 . S
C1713 C1714 1.379 . S
C1714 H1698 0.931 . S
C1714 C1708 1.383 . S
C1714 C1713 1.379 . S
H1715 C1709 0.959 . S
H1716 C1709 0.961 . S
H1717 C1709 0.960 . S
H1718 C1710 0.930 . S
H1719 C1711 0.929 . S
H1720 C1728 0.929 . S
H1721 C1730 0.930 . S
H1722 C1732 0.930 . S
H1723 C1735 0.929 . S
H1724 C1738 0.930 . S
H1725 C1740 0.960 . S
H1726 C1740 0.960 . S
H1727 C1740 0.960 . S
C1728 H1720 0.929 . S
C1728 C1729 1.377 . S
C1728 C1730 1.384 . S
C1729 C1728 1.377 . S
C1729 C1735 1.390 . S
C1730 H1721 0.930 . S
C1730 C1728 1.384 . S
C1730 C1731 1.372 . S
C1731 C1730 1.372 . S
C1731 C1732 1.400 . S
C1731 C1736 1.490 . S
C1732 H1722 0.930 . S
C1732 C1731 1.400 . S
C1732 C1735 1.386 . S
H1733 C1749 0.930 . S
H1734 C1750 0.931 . S
C1735 H1723 0.929 . S
C1735 C1729 1.390 . S
C1735 C1732 1.386 . S
C1736 C1731 1.490 . S
C1736 C1738 1.395 . S
C1736 C1739 1.403 . S
H1737 C1743 0.930 . S
C1738 H1724 0.930 . S
C1738 C1736 1.395 . S
C1738 C1741 1.403 . S
C1739 C1736 1.403 . S
C1739 C1740 1.524 . S
C1739 C1743 1.400 . S
C1740 H1725 0.960 . S
C1740 H1726 0.960 . S
C1740 H1727 0.960 . S
C1740 C1739 1.524 . S
C1741 C1738 1.403 . S
C1741 C1742 1.392 . S
C1741 C1745 1.495 . S
C1742 C1741 1.392 . S
C1742 C1743 1.385 . S
C1742 C1744 1.478 . S
C1743 H1737 0.930 . S
C1743 C1739 1.400 . S
C1743 C1742 1.385 . S
C1744 C1742 1.478 . S
C1744 C1746 1.381 . S
C1744 C1750 1.383 . S
C1745 C1741 1.495 . S
C1745 H1751 0.959 . S
C1745 H1752 0.961 . S
C1745 H1753 0.960 . S
C1746 C1744 1.381 . S
C1746 C1747 1.394 . S
C1746 H1754 0.930 . S
C1747 C1746 1.394 . S
C1747 C1748 1.383 . S
C1747 H1755 0.929 . S
C1748 C1747 1.383 . S
C1748 C1749 1.377 . S
C1749 H1733 0.930 . S
C1749 C1748 1.377 . S
C1749 C1750 1.379 . S
C1750 H1734 0.931 . S
C1750 C1744 1.383 . S
C1750 C1749 1.379 . S
H1751 C1745 0.959 . S
H1752 C1745 0.961 . S
H1753 C1745 0.960 . S
H1754 C1746 0.930 . S
H1755 C1747 0.929 . S
H1756 C1764 0.929 . S
H1757 C1766 0.930 . S
H1758 C1768 0.930 . S
H1759 C1771 0.929 . S
H1760 C1774 0.930 . S
H1761 C1776 0.960 . S
H1762 C1776 0.960 . S
H1763 C1776 0.960 . S
C1764 H1756 0.929 . S
C1764 C1765 1.377 . S
C1764 C1766 1.384 . S
C1765 C1764 1.377 . S
C1765 C1771 1.390 . S
C1766 H1757 0.930 . S
C1766 C1764 1.384 . S
C1766 C1767 1.372 . S
C1767 C1766 1.372 . S
C1767 C1768 1.400 . S
C1767 C1772 1.490 . S
C1768 H1758 0.930 . S
C1768 C1767 1.400 . S
C1768 C1771 1.386 . S
H1769 C1785 0.930 . S
H1770 C1786 0.931 . S
C1771 H1759 0.929 . S
C1771 C1765 1.390 . S
C1771 C1768 1.386 . S
C1772 C1767 1.490 . S
C1772 C1774 1.395 . S
C1772 C1775 1.403 . S
H1773 C1779 0.930 . S
C1774 H1760 0.930 . S
C1774 C1772 1.395 . S
C1774 C1777 1.403 . S
C1775 C1772 1.403 . S
C1775 C1776 1.524 . S
C1775 C1779 1.400 . S
C1776 H1761 0.960 . S
C1776 H1762 0.960 . S
C1776 H1763 0.960 . S
C1776 C1775 1.524 . S
C1777 C1774 1.403 . S
C1777 C1778 1.392 . S
C1777 C1781 1.495 . S
C1778 C1777 1.392 . S
C1778 C1779 1.385 . S
C1778 C1780 1.478 . S
C1779 H1773 0.930 . S
C1779 C1775 1.400 . S
C1779 C1778 1.385 . S
C1780 C1778 1.478 . S
C1780 C1782 1.381 . S
C1780 C1786 1.383 . S
C1781 C1777 1.495 . S
C1781 H1787 0.959 . S
C1781 H1788 0.961 . S
C1781 H1789 0.960 . S
C1782 C1780 1.381 . S
C1782 C1783 1.394 . S
C1782 H1790 0.930 . S
C1783 C1782 1.394 . S
C1783 C1784 1.383 . S
C1783 H1791 0.929 . S
C1784 C1783 1.383 . S
C1784 C1785 1.377 . S
C1785 H1769 0.930 . S
C1785 C1784 1.377 . S
C1785 C1786 1.379 . S
C1786 H1770 0.931 . S
C1786 C1780 1.383 . S
C1786 C1785 1.379 . S
H1787 C1781 0.959 . S
H1788 C1781 0.961 . S
H1789 C1781 0.960 . S
H1790 C1782 0.930 . S
H1791 C1783 0.929 . S
H1792 C1800 0.929 . S
H1793 C1802 0.930 . S
H1794 C1804 0.930 . S
H1795 C1807 0.929 . S
H1796 C1810 0.930 . S
H1797 C1812 0.960 . S
H1798 C1812 0.960 . S
H1799 C1812 0.960 . S
C1800 H1792 0.929 . S
C1800 C1801 1.377 . S
C1800 C1802 1.384 1_554 S
C1801 C1800 1.377 . S
C1801 C1807 1.390 . S
C1802 H1793 0.930 . S
C1802 C1800 1.384 1_556 S
C1802 C1803 1.372 . S
C1803 C1802 1.372 . S
C1803 C1804 1.400 1_556 S
C1803 C1808 1.490 . S
C1804 H1794 0.930 . S
C1804 C1803 1.400 1_554 S
C1804 C1807 1.386 . S
H1805 C1821 0.930 . S
H1806 C1822 0.931 . S
C1807 H1795 0.929 . S
C1807 C1801 1.390 . S
C1807 C1804 1.386 . S
C1808 C1803 1.490 . S
C1808 C1810 1.395 . S
C1808 C1811 1.403 . S
H1809 C1815 0.930 . S
C1810 H1796 0.930 . S
C1810 C1808 1.395 . S
C1810 C1813 1.403 . S
C1811 C1808 1.403 . S
C1811 C1812 1.524 . S
C1811 C1815 1.400 . S
C1812 H1797 0.960 . S
C1812 H1798 0.960 . S
C1812 H1799 0.960 . S
C1812 C1811 1.524 . S
C1813 C1810 1.403 . S
C1813 C1814 1.392 . S
C1813 C1817 1.495 . S
C1814 C1813 1.392 . S
C1814 C1815 1.385 . S
C1814 C1816 1.478 . S
C1815 H1809 0.930 . S
C1815 C1811 1.400 . S
C1815 C1814 1.385 . S
C1816 C1814 1.478 . S
C1816 C1818 1.381 . S
C1816 C1822 1.383 . S
C1817 C1813 1.495 . S
C1817 H1823 0.959 . S
C1817 H1824 0.961 . S
C1817 H1825 0.960 . S
C1818 C1816 1.381 . S
C1818 C1819 1.394 . S
C1818 H1826 0.930 . S
C1819 C1818 1.394 . S
C1819 C1820 1.383 . S
C1819 H1827 0.929 . S
C1820 C1819 1.383 . S
C1820 C1821 1.377 . S
C1821 H1805 0.930 . S
C1821 C1820 1.377 . S
C1821 C1822 1.379 . S
C1822 H1806 0.931 . S
C1822 C1816 1.383 . S
C1822 C1821 1.379 . S
H1823 C1817 0.959 . S
H1824 C1817 0.961 . S
H1825 C1817 0.960 . S
H1826 C1818 0.930 . S
H1827 C1819 0.929 . S
H1828 C1836 0.929 . S
H1829 C1838 0.930 . S
H1830 C1840 0.930 . S
H1831 C1843 0.929 . S
H1832 C1846 0.930 . S
H1833 C1848 0.960 . S
H1834 C1848 0.960 . S
H1835 C1848 0.960 . S
C1836 H1828 0.929 . S
C1836 C1837 1.377 . S
C1836 C1838 1.384 . S
C1837 C1836 1.377 . S
C1837 C1843 1.390 . S
C1838 H1829 0.930 . S
C1838 C1836 1.384 . S
C1838 C1839 1.372 . S
C1839 C1838 1.372 . S
C1839 C1840 1.400 . S
C1839 C1844 1.490 . S
C1840 H1830 0.930 . S
C1840 C1839 1.400 . S
C1840 C1843 1.386 . S
H1841 C1857 0.930 . S
H1842 C1858 0.931 . S
C1843 H1831 0.929 . S
C1843 C1837 1.390 . S
C1843 C1840 1.386 . S
C1844 C1839 1.490 . S
C1844 C1846 1.395 . S
C1844 C1847 1.403 . S
H1845 C1851 0.930 . S
C1846 H1832 0.930 . S
C1846 C1844 1.395 . S
C1846 C1849 1.403 . S
C1847 C1844 1.403 . S
C1847 C1848 1.524 . S
C1847 C1851 1.400 . S
C1848 H1833 0.960 . S
C1848 H1834 0.960 . S
C1848 H1835 0.960 . S
C1848 C1847 1.524 . S
C1849 C1846 1.403 . S
C1849 C1850 1.392 . S
C1849 C1853 1.495 . S
C1850 C1849 1.392 . S
C1850 C1851 1.385 . S
C1850 C1852 1.478 . S
C1851 H1845 0.930 . S
C1851 C1847 1.400 . S
C1851 C1850 1.385 . S
C1852 C1850 1.478 . S
C1852 C1854 1.381 . S
C1852 C1858 1.383 . S
C1853 C1849 1.495 . S
C1853 H1859 0.959 . S
C1853 H1860 0.961 . S
C1853 H1861 0.960 . S
C1854 C1852 1.381 . S
C1854 C1855 1.394 . S
C1854 H1862 0.930 . S
C1855 C1854 1.394 . S
C1855 C1856 1.383 . S
C1855 H1863 0.929 . S
C1856 C1855 1.383 . S
C1856 C1857 1.377 . S
C1857 H1841 0.930 . S
C1857 C1856 1.377 . S
C1857 C1858 1.379 . S
C1858 H1842 0.931 . S
C1858 C1852 1.383 . S
C1858 C1857 1.379 . S
H1859 C1853 0.959 . S
H1860 C1853 0.961 . S
H1861 C1853 0.960 . S
H1862 C1854 0.930 . S
H1863 C1855 0.929 . S
H1864 C1872 0.929 . S
H1865 C1874 0.930 . S
H1866 C1876 0.930 . S
H1867 C1879 0.929 . S
H1868 C1882 0.930 . S
H1869 C1884 0.960 . S
H1870 C1884 0.960 . S
H1871 C1884 0.960 . S
C1872 H1864 0.929 . S
C1872 C1873 1.377 . S
C1872 C1874 1.384 . S
C1873 C1872 1.377 . S
C1873 C1879 1.390 . S
C1874 H1865 0.930 . S
C1874 C1872 1.384 . S
C1874 C1875 1.372 . S
C1875 C1874 1.372 . S
C1875 C1876 1.400 . S
C1875 C1880 1.490 . S
C1876 H1866 0.930 . S
C1876 C1875 1.400 . S
C1876 C1879 1.386 . S
H1877 C1893 0.930 . S
H1878 C1894 0.931 . S
C1879 H1867 0.929 . S
C1879 C1873 1.390 . S
C1879 C1876 1.386 . S
C1880 C1875 1.490 . S
C1880 C1882 1.395 . S
C1880 C1883 1.403 . S
H1881 C1887 0.930 . S
C1882 H1868 0.930 . S
C1882 C1880 1.395 . S
C1882 C1885 1.403 . S
C1883 C1880 1.403 . S
C1883 C1884 1.524 . S
C1883 C1887 1.400 . S
C1884 H1869 0.960 . S
C1884 H1870 0.960 . S
C1884 H1871 0.960 . S
C1884 C1883 1.524 . S
C1885 C1882 1.403 . S
C1885 C1886 1.392 . S
C1885 C1889 1.495 . S
C1886 C1885 1.392 . S
C1886 C1887 1.385 . S
C1886 C1888 1.478 . S
C1887 H1881 0.930 . S
C1887 C1883 1.400 . S
C1887 C1886 1.385 . S
C1888 C1886 1.478 . S
C1888 C1890 1.381 . S
C1888 C1894 1.383 . S
C1889 C1885 1.495 . S
C1889 H1895 0.959 . S
C1889 H1896 0.961 . S
C1889 H1897 0.960 . S
C1890 C1888 1.381 . S
C1890 C1891 1.394 . S
C1890 H1898 0.930 . S
C1891 C1890 1.394 . S
C1891 C1892 1.383 . S
C1891 H1899 0.929 . S
C1892 C1891 1.383 . S
C1892 C1893 1.377 . S
C1893 H1877 0.930 . S
C1893 C1892 1.377 . S
C1893 C1894 1.379 . S
C1894 H1878 0.931 . S
C1894 C1888 1.383 . S
C1894 C1893 1.379 . S
H1895 C1889 0.959 . S
H1896 C1889 0.961 . S
H1897 C1889 0.960 . S
H1898 C1890 0.930 . S
H1899 C1891 0.929 . S
H1900 C1908 0.929 . S
H1901 C1910 0.930 . S
H1902 C1912 0.930 . S
H1903 C1915 0.929 . S
H1904 C1918 0.930 . S
H1905 C1920 0.960 . S
H1906 C1920 0.960 . S
H1907 C1920 0.960 . S
C1908 H1900 0.929 . S
C1908 C1909 1.377 . S
C1908 C1910 1.384 . S
C1909 C1908 1.377 . S
C1909 C1915 1.390 . S
C1910 H1901 0.930 . S
C1910 C1908 1.384 . S
C1910 C1911 1.372 . S
C1911 C1910 1.372 . S
C1911 C1912 1.400 . S
C1911 C1916 1.490 . S
C1912 H1902 0.930 . S
C1912 C1911 1.400 . S
C1912 C1915 1.386 . S
H1913 C1929 0.930 . S
H1914 C1930 0.931 . S
C1915 H1903 0.929 . S
C1915 C1909 1.390 . S
C1915 C1912 1.386 . S
C1916 C1911 1.490 . S
C1916 C1918 1.395 . S
C1916 C1919 1.403 . S
H1917 C1923 0.930 . S
C1918 H1904 0.930 . S
C1918 C1916 1.395 . S
C1918 C1921 1.403 . S
C1919 C1916 1.403 . S
C1919 C1920 1.524 . S
C1919 C1923 1.400 . S
C1920 H1905 0.960 . S
C1920 H1906 0.960 . S
C1920 H1907 0.960 . S
C1920 C1919 1.524 . S
C1921 C1918 1.403 . S
C1921 C1922 1.392 . S
C1921 C1925 1.495 . S
C1922 C1921 1.392 . S
C1922 C1923 1.385 . S
C1922 C1924 1.478 . S
C1923 H1917 0.930 . S
C1923 C1919 1.400 . S
C1923 C1922 1.385 . S
C1924 C1922 1.478 . S
C1924 C1926 1.381 . S
C1924 C1930 1.383 . S
C1925 C1921 1.495 . S
C1925 H1931 0.959 . S
C1925 H1932 0.961 . S
C1925 H1933 0.960 . S
C1926 C1924 1.381 . S
C1926 C1927 1.394 . S
C1926 H1934 0.930 . S
C1927 C1926 1.394 . S
C1927 C1928 1.383 . S
C1927 H1935 0.929 . S
C1928 C1927 1.383 . S
C1928 C1929 1.377 . S
C1929 H1913 0.930 . S
C1929 C1928 1.377 . S
C1929 C1930 1.379 . S
C1930 H1914 0.931 . S
C1930 C1924 1.383 . S
C1930 C1929 1.379 . S
H1931 C1925 0.959 . S
H1932 C1925 0.961 . S
H1933 C1925 0.960 . S
H1934 C1926 0.930 . S
H1935 C1927 0.929 . S
H1936 C1944 0.929 . S
H1937 C1946 0.930 . S
H1938 C1948 0.930 . S
H1939 C1951 0.929 . S
H1940 C1954 0.930 . S
H1941 C1956 0.960 . S
H1942 C1956 0.960 . S
H1943 C1956 0.960 . S
C1944 H1936 0.929 . S
C1944 C1945 1.377 . S
C1944 C1946 1.384 . S
C1945 C1944 1.377 . S
C1945 C1951 1.390 . S
C1946 H1937 0.930 . S
C1946 C1944 1.384 . S
C1946 C1947 1.372 . S
C1947 C1946 1.372 . S
C1947 C1948 1.400 . S
C1947 C1952 1.490 . S
C1948 H1938 0.930 . S
C1948 C1947 1.400 . S
C1948 C1951 1.386 . S
H1949 C1965 0.930 . S
H1950 C1966 0.923 1_554 S
C1951 H1939 0.929 . S
C1951 C1945 1.390 . S
C1951 C1948 1.386 . S
C1952 C1947 1.490 . S
C1952 C1954 1.395 . S
C1952 C1955 1.403 . S
H1953 C1959 0.930 . S
C1954 H1940 0.930 . S
C1954 C1952 1.395 . S
C1954 C1957 1.403 . S
C1955 C1952 1.403 . S
C1955 C1956 1.524 . S
C1955 C1959 1.400 . S
C1956 H1941 0.960 . S
C1956 H1942 0.960 . S
C1956 H1943 0.960 . S
C1956 C1955 1.524 . S
C1957 C1954 1.403 . S
C1957 C1958 1.392 . S
C1957 C1961 1.495 . S
C1958 C1957 1.392 . S
C1958 C1959 1.385 . S
C1958 C1960 1.478 . S
C1959 H1953 0.930 . S
C1959 C1955 1.400 . S
C1959 C1958 1.385 . S
C1960 C1958 1.478 . S
C1960 C1962 1.381 . S
C1960 C1966 1.383 1_554 S
C1961 C1957 1.495 . S
C1961 H1967 0.959 . S
C1961 H1968 0.961 . S
C1961 H1969 0.960 . S
C1962 C1960 1.381 . S
C1962 C1963 1.394 1_554 S
C1962 H1970 0.930 . S
C1963 C1962 1.394 1_556 S
C1963 C1964 1.383 . S
C1963 H1971 0.929 . S
C1964 C1963 1.383 . S
C1964 C1965 1.377 . S
C1965 H1949 0.930 . S
C1965 C1964 1.377 . S
C1965 C1966 1.379 . S
C1966 H1950 0.923 1_556 S
C1966 C1960 1.383 1_556 S
C1966 C1965 1.379 . S
H1967 C1961 0.959 . S
H1968 C1961 0.961 . S
H1969 C1961 0.960 . S
H1970 C1962 0.930 . S
H1971 C1963 0.929 . S
H1972 C1980 0.929 . S
H1973 C1982 0.930 . S
H1974 C1984 0.930 . S
H1975 C1987 0.929 . S
H1976 C1990 0.930 . S
H1977 C1992 0.960 . S
H1978 C1992 0.960 . S
H1979 C1992 0.960 . S
C1980 H1972 0.929 . S
C1980 C1981 1.377 . S
C1980 C1982 1.384 . S
C1981 C1980 1.377 . S
C1981 C1987 1.390 . S
C1982 H1973 0.930 . S
C1982 C1980 1.384 . S
C1982 C1983 1.372 . S
C1983 C1982 1.372 . S
C1983 C1984 1.400 . S
C1983 C1988 1.490 . S
C1984 H1974 0.930 . S
C1984 C1983 1.400 . S
C1984 C1987 1.386 . S
H1985 C2001 0.930 . S
H1986 C2002 0.931 . S
C1987 H1975 0.929 . S
C1987 C1981 1.390 . S
C1987 C1984 1.386 . S
C1988 C1983 1.490 . S
C1988 C1990 1.395 . S
C1988 C1991 1.403 . S
H1989 C1995 0.930 . S
C1990 H1976 0.930 . S
C1990 C1988 1.395 . S
C1990 C1993 1.403 . S
C1991 C1988 1.403 . S
C1991 C1992 1.524 . S
C1991 C1995 1.400 . S
C1992 H1977 0.960 . S
C1992 H1978 0.960 . S
C1992 H1979 0.960 . S
C1992 C1991 1.524 . S
C1993 C1990 1.403 . S
C1993 C1994 1.392 . S
C1993 C1997 1.495 . S
C1994 C1993 1.392 . S
C1994 C1995 1.385 . S
C1994 C1996 1.478 . S
C1995 H1989 0.930 . S
C1995 C1991 1.400 . S
C1995 C1994 1.385 . S
C1996 C1994 1.478 . S
C1996 C1998 1.381 . S
C1996 C2002 1.383 . S
C1997 C1993 1.495 . S
C1997 H2003 0.959 . S
C1997 H2004 0.961 . S
C1997 H2005 0.960 . S
C1998 C1996 1.381 . S
C1998 C1999 1.394 . S
C1998 H2006 0.930 . S
C1999 C1998 1.394 . S
C1999 C2000 1.383 . S
C1999 H2007 0.929 . S
C2000 C1999 1.383 . S
C2000 C2001 1.377 . S
C2001 H1985 0.930 . S
C2001 C2000 1.377 . S
C2001 C2002 1.379 . S
C2002 H1986 0.931 . S
C2002 C1996 1.383 . S
C2002 C2001 1.379 . S
H2003 C1997 0.959 . S
H2004 C1997 0.961 . S
H2005 C1997 0.960 . S
H2006 C1998 0.930 . S
H2007 C1999 0.929 . S
H2008 C2016 0.929 . S
H2009 C2018 0.930 . S
H2010 C2020 0.930 . S
H2011 C2023 0.929 . S
H2012 C2026 0.930 . S
H2013 C2028 0.960 . S
H2014 C2028 0.960 . S
H2015 C2028 0.960 . S
C2016 H2008 0.929 . S
C2016 C2017 1.377 . S
C2016 C2018 1.384 . S
C2017 C2016 1.377 . S
C2017 C2023 1.390 . S
C2018 H2009 0.930 . S
C2018 C2016 1.384 . S
C2018 C2019 1.372 . S
C2019 C2018 1.372 . S
C2019 C2020 1.400 . S
C2019 C2024 1.490 . S
C2020 H2010 0.930 . S
C2020 C2019 1.400 . S
C2020 C2023 1.386 . S
H2021 C2037 0.930 . S
H2022 C2038 0.931 . S
C2023 H2011 0.929 . S
C2023 C2017 1.390 . S
C2023 C2020 1.386 . S
C2024 C2019 1.490 . S
C2024 C2026 1.395 . S
C2024 C2027 1.403 . S
H2025 C2031 0.930 . S
C2026 H2012 0.930 . S
C2026 C2024 1.395 . S
C2026 C2029 1.403 . S
C2027 C2024 1.403 . S
C2027 C2028 1.524 . S
C2027 C2031 1.400 . S
C2028 H2013 0.960 . S
C2028 H2014 0.960 . S
C2028 H2015 0.960 . S
C2028 C2027 1.524 . S
C2029 C2026 1.403 . S
C2029 C2030 1.392 . S
C2029 C2033 1.495 . S
C2030 C2029 1.392 . S
C2030 C2031 1.385 . S
C2030 C2032 1.478 . S
C2031 H2025 0.930 . S
C2031 C2027 1.400 . S
C2031 C2030 1.385 . S
C2032 C2030 1.478 . S
C2032 C2034 1.381 . S
C2032 C2038 1.383 . S
C2033 C2029 1.495 . S
C2033 H2039 0.959 . S
C2033 H2040 0.961 . S
C2033 H2041 0.960 . S
C2034 C2032 1.381 . S
C2034 C2035 1.394 . S
C2034 H2042 0.930 . S
C2035 C2034 1.394 . S
C2035 C2036 1.383 . S
C2035 H2043 0.929 . S
C2036 C2035 1.383 . S
C2036 C2037 1.377 . S
C2037 H2021 0.930 . S
C2037 C2036 1.377 . S
C2037 C2038 1.379 . S
C2038 H2022 0.931 . S
C2038 C2032 1.383 . S
C2038 C2037 1.379 . S
H2039 C2033 0.959 . S
H2040 C2033 0.961 . S
H2041 C2033 0.960 . S
H2042 C2034 0.930 . S
H2043 C2035 0.929 . S
H2044 C2052 0.929 . S
H2045 C2054 0.930 . S
H2046 C2056 0.930 . S
H2047 C2059 0.929 . S
H2048 C2062 0.930 . S
H2049 C2064 0.960 . S
H2050 C2064 0.960 . S
H2051 C2064 0.960 . S
C2052 H2044 0.929 . S
C2052 C2053 1.377 . S
C2052 C2054 1.384 . S
C2053 C2052 1.377 . S
C2053 C2059 1.390 . S
C2054 H2045 0.930 . S
C2054 C2052 1.384 . S
C2054 C2055 1.372 . S
C2055 C2054 1.372 . S
C2055 C2056 1.400 . S
C2055 C2060 1.490 . S
C2056 H2046 0.930 . S
C2056 C2055 1.400 . S
C2056 C2059 1.386 . S
H2057 C2073 0.930 . S
H2058 C2074 0.931 . S
C2059 H2047 0.929 . S
C2059 C2053 1.390 . S
C2059 C2056 1.386 . S
C2060 C2055 1.490 . S
C2060 C2062 1.395 . S
C2060 C2063 1.403 . S
H2061 C2067 0.930 . S
C2062 H2048 0.930 . S
C2062 C2060 1.395 . S
C2062 C2065 1.403 . S
C2063 C2060 1.403 . S
C2063 C2064 1.524 . S
C2063 C2067 1.400 . S
C2064 H2049 0.960 . S
C2064 H2050 0.960 . S
C2064 H2051 0.960 . S
C2064 C2063 1.524 . S
C2065 C2062 1.403 . S
C2065 C2066 1.392 . S
C2065 C2069 1.495 . S
C2066 C2065 1.392 . S
C2066 C2067 1.385 . S
C2066 C2068 1.478 . S
C2067 H2061 0.930 . S
C2067 C2063 1.400 . S
C2067 C2066 1.385 . S
C2068 C2066 1.478 . S
C2068 C2070 1.381 . S
C2068 C2074 1.383 . S
C2069 C2065 1.495 . S
C2069 H2075 0.959 . S
C2069 H2076 0.961 . S
C2069 H2077 0.960 . S
C2070 C2068 1.381 . S
C2070 C2071 1.394 . S
C2070 H2078 0.930 . S
C2071 C2070 1.394 . S
C2071 C2072 1.383 . S
C2071 H2079 0.929 . S
C2072 C2071 1.383 . S
C2072 C2073 1.377 . S
C2073 H2057 0.930 . S
C2073 C2072 1.377 . S
C2073 C2074 1.379 . S
C2074 H2058 0.931 . S
C2074 C2068 1.383 . S
C2074 C2073 1.379 . S
H2075 C2069 0.959 . S
H2076 C2069 0.961 . S
H2077 C2069 0.960 . S
H2078 C2070 0.930 . S
H2079 C2071 0.929 . S
H2080 C2088 0.929 . S
H2081 C2090 0.930 . S
H2082 C2092 0.930 . S
H2083 C2095 0.929 . S
H2084 C2098 0.930 . S
H2085 C2100 0.960 . S
H2086 C2100 0.960 . S
H2087 C2100 0.960 . S
C2088 H2080 0.929 . S
C2088 C2089 1.377 . S
C2088 C2090 1.384 . S
C2089 C2088 1.377 . S
C2089 C2095 1.390 . S
C2090 H2081 0.930 . S
C2090 C2088 1.384 . S
C2090 C2091 1.372 . S
C2091 C2090 1.372 . S
C2091 C2092 1.400 . S
C2091 C2096 1.490 . S
C2092 H2082 0.930 . S
C2092 C2091 1.400 . S
C2092 C2095 1.386 . S
H2093 C2109 0.930 . S
H2094 C2110 0.931 . S
C2095 H2083 0.929 . S
C2095 C2089 1.390 . S
C2095 C2092 1.386 . S
C2096 C2091 1.490 . S
C2096 C2098 1.395 . S
C2096 C2099 1.403 . S
H2097 C2103 0.930 . S
C2098 H2084 0.930 . S
C2098 C2096 1.395 . S
C2098 C2101 1.403 . S
C2099 C2096 1.403 . S
C2099 C2100 1.524 . S
C2099 C2103 1.400 . S
C2100 H2085 0.960 . S
C2100 H2086 0.960 . S
C2100 H2087 0.960 . S
C2100 C2099 1.524 . S
C2101 C2098 1.403 . S
C2101 C2102 1.392 . S
C2101 C2105 1.495 . S
C2102 C2101 1.392 . S
C2102 C2103 1.385 . S
C2102 C2104 1.478 . S
C2103 H2097 0.930 . S
C2103 C2099 1.400 . S
C2103 C2102 1.385 . S
C2104 C2102 1.478 . S
C2104 C2106 1.381 . S
C2104 C2110 1.383 . S
C2105 C2101 1.495 . S
C2105 H2111 0.959 . S
C2105 H2112 0.961 . S
C2105 H2113 0.960 . S
C2106 C2104 1.381 . S
C2106 C2107 1.394 . S
C2106 H2114 0.930 . S
C2107 C2106 1.394 . S
C2107 C2108 1.383 . S
C2107 H2115 0.929 . S
C2108 C2107 1.383 . S
C2108 C2109 1.377 . S
C2109 H2093 0.930 . S
C2109 C2108 1.377 . S
C2109 C2110 1.379 . S
C2110 H2094 0.931 . S
C2110 C2104 1.383 . S
C2110 C2109 1.379 . S
H2111 C2105 0.959 . S
H2112 C2105 0.961 . S
H2113 C2105 0.960 . S
H2114 C2106 0.930 . S
H2115 C2107 0.929 . S
H2116 C2124 0.929 . S
H2117 C2126 0.930 . S
H2118 C2128 0.930 . S
H2119 C2131 0.929 . S
H2120 C2134 0.930 . S
H2121 C2136 0.960 . S
H2122 C2136 0.960 . S
H2123 C2136 0.960 . S
C2124 H2116 0.929 . S
C2124 C2125 1.377 . S
C2124 C2126 1.384 . S
C2125 C2124 1.377 . S
C2125 C2131 1.390 . S
C2126 H2117 0.930 . S
C2126 C2124 1.384 . S
C2126 C2127 1.372 . S
C2127 C2126 1.372 . S
C2127 C2128 1.400 . S
C2127 C2132 1.490 . S
C2128 H2118 0.930 . S
C2128 C2127 1.400 . S
C2128 C2131 1.386 . S
H2129 C2145 0.930 . S
H2130 C2146 0.931 . S
C2131 H2119 0.929 . S
C2131 C2125 1.390 . S
C2131 C2128 1.386 . S
C2132 C2127 1.490 . S
C2132 C2134 1.395 . S
C2132 C2135 1.403 . S
H2133 C2139 0.930 . S
C2134 H2120 0.930 . S
C2134 C2132 1.395 . S
C2134 C2137 1.403 . S
C2135 C2132 1.403 . S
C2135 C2136 1.524 . S
C2135 C2139 1.400 . S
C2136 H2121 0.960 . S
C2136 H2122 0.960 . S
C2136 H2123 0.960 . S
C2136 C2135 1.524 . S
C2137 C2134 1.403 . S
C2137 C2138 1.392 . S
C2137 C2141 1.495 . S
C2138 C2137 1.392 . S
C2138 C2139 1.385 . S
C2138 C2140 1.478 . S
C2139 H2133 0.930 . S
C2139 C2135 1.400 . S
C2139 C2138 1.385 . S
C2140 C2138 1.478 . S
C2140 C2142 1.381 . S
C2140 C2146 1.383 . S
C2141 C2137 1.495 . S
C2141 H2147 0.959 . S
C2141 H2148 0.961 . S
C2141 H2149 0.960 . S
C2142 C2140 1.381 . S
C2142 C2143 1.394 1_565 S
C2142 H2150 0.930 . S
C2143 C2142 1.394 1_545 S
C2143 C2144 1.383 . S
C2143 H2151 0.929 . S
C2144 C2143 1.383 . S
C2144 C2145 1.377 1_545 S
C2145 H2129 0.930 . S
C2145 C2144 1.377 1_565 S
C2145 C2146 1.379 . S
C2146 H2130 0.931 . S
C2146 C2140 1.383 . S
C2146 C2145 1.379 . S
H2147 C2141 0.959 . S
H2148 C2141 0.961 . S
H2149 C2141 0.960 . S
H2150 C2142 0.930 . S
H2151 C2143 0.929 . S
H2152 C2160 0.929 . S
H2153 C2162 0.930 . S
H2154 C2164 0.930 . S
H2155 C2167 0.929 . S
H2156 C2170 0.930 . S
H2157 C2172 0.960 . S
H2158 C2172 0.960 . S
H2159 C2172 0.960 . S
C2160 H2152 0.929 . S
C2160 C2161 1.377 . S
C2160 C2162 1.384 . S
C2161 C2160 1.377 . S
C2161 C2167 1.390 . S
C2162 H2153 0.930 . S
C2162 C2160 1.384 . S
C2162 C2163 1.372 . S
C2163 C2162 1.372 . S
C2163 C2164 1.400 . S
C2163 C2168 1.490 . S
C2164 H2154 0.930 . S
C2164 C2163 1.400 . S
C2164 C2167 1.386 . S
H2165 C2181 0.930 . S
H2166 C2182 0.931 . S
C2167 H2155 0.929 . S
C2167 C2161 1.390 . S
C2167 C2164 1.386 . S
C2168 C2163 1.490 . S
C2168 C2170 1.395 . S
C2168 C2171 1.403 . S
H2169 C2175 0.930 . S
C2170 H2156 0.930 . S
C2170 C2168 1.395 . S
C2170 C2173 1.403 . S
C2171 C2168 1.403 . S
C2171 C2172 1.524 . S
C2171 C2175 1.400 . S
C2172 H2157 0.960 . S
C2172 H2158 0.960 . S
C2172 H2159 0.960 . S
C2172 C2171 1.524 . S
C2173 C2170 1.403 . S
C2173 C2174 1.392 . S
C2173 C2177 1.495 . S
C2174 C2173 1.392 . S
C2174 C2175 1.385 . S
C2174 C2176 1.478 . S
C2175 H2169 0.930 . S
C2175 C2171 1.400 . S
C2175 C2174 1.385 . S
C2176 C2174 1.478 . S
C2176 C2178 1.381 1_556 S
C2176 C2182 1.383 . S
C2177 C2173 1.495 . S
C2177 H2183 0.959 . S
C2177 H2184 0.961 . S
C2177 H2185 0.960 . S
C2178 C2176 1.381 1_554 S
C2178 C2179 1.394 . S
C2178 H2186 0.930 . S
C2179 C2178 1.394 . S
C2179 C2180 1.383 . S
C2179 H2187 0.929 . S
C2180 C2179 1.383 . S
C2180 C2181 1.377 . S
C2181 H2165 0.930 . S
C2181 C2180 1.377 . S
C2181 C2182 1.379 1_554 S
C2182 H2166 0.931 . S
C2182 C2176 1.383 . S
C2182 C2181 1.379 1_556 S
H2183 C2177 0.959 . S
H2184 C2177 0.961 . S
H2185 C2177 0.960 . S
H2186 C2178 0.930 . S
H2187 C2179 0.929 . S
H2188 C2196 0.929 . S
H2189 C2198 0.930 . S
H2190 C2200 0.930 . S
H2191 C2203 0.929 . S
H2192 C2206 0.930 . S
H2193 C2208 0.960 . S
H2194 C2208 0.960 . S
H2195 C2208 0.960 . S
C2196 H2188 0.929 . S
C2196 C2197 1.377 1_545 S
C2196 C2198 1.384 . S
C2197 C2196 1.377 1_565 S
C2197 C2203 1.390 . S
C2198 H2189 0.930 . S
C2198 C2196 1.384 . S
C2198 C2199 1.372 . S
C2199 C2198 1.372 . S
C2199 C2200 1.400 . S
C2199 C2204 1.490 . S
C2200 H2190 0.930 . S
C2200 C2199 1.400 . S
C2200 C2203 1.386 1_545 S
H2201 C2217 0.930 . S
H2202 C2218 0.931 . S
C2203 H2191 0.929 . S
C2203 C2197 1.390 . S
C2203 C2200 1.386 1_565 S
C2204 C2199 1.490 . S
C2204 C2206 1.395 . S
C2204 C2207 1.403 . S
H2205 C2211 0.930 . S
C2206 H2192 0.930 . S
C2206 C2204 1.395 . S
C2206 C2209 1.403 . S
C2207 C2204 1.403 . S
C2207 C2208 1.524 . S
C2207 C2211 1.400 . S
C2208 H2193 0.960 . S
C2208 H2194 0.960 . S
C2208 H2195 0.960 . S
C2208 C2207 1.524 . S
C2209 C2206 1.403 . S
C2209 C2210 1.392 . S
C2209 C2213 1.495 . S
C2210 C2209 1.392 . S
C2210 C2211 1.385 . S
C2210 C2212 1.478 . S
C2211 H2205 0.930 . S
C2211 C2207 1.400 . S
C2211 C2210 1.385 . S
C2212 C2210 1.478 . S
C2212 C2214 1.381 . S
C2212 C2218 1.383 . S
C2213 C2209 1.495 . S
C2213 H2219 0.959 . S
C2213 H2220 0.961 . S
C2213 H2221 0.960 . S
C2214 C2212 1.381 . S
C2214 C2215 1.394 . S
C2214 H2222 0.930 . S
C2215 C2214 1.394 . S
C2215 C2216 1.383 . S
C2215 H2223 0.929 . S
C2216 C2215 1.383 . S
C2216 C2217 1.377 . S
C2217 H2201 0.930 . S
C2217 C2216 1.377 . S
C2217 C2218 1.379 . S
C2218 H2202 0.931 . S
C2218 C2212 1.383 . S
C2218 C2217 1.379 . S
H2219 C2213 0.959 . S
H2220 C2213 0.961 . S
H2221 C2213 0.960 . S
H2222 C2214 0.930 . S
H2223 C2215 0.929 . S
H2224 C2232 0.929 . S
H2225 C2234 0.930 . S
H2226 C2236 0.930 . S
H2227 C2239 0.929 . S
H2228 C2242 0.930 . S
H2229 C2244 0.960 . S
H2230 C2244 0.960 . S
H2231 C2244 0.960 . S
C2232 H2224 0.929 . S
C2232 C2233 1.377 . S
C2232 C2234 1.384 . S
C2233 C2232 1.377 . S
C2233 C2239 1.390 . S
C2234 H2225 0.930 . S
C2234 C2232 1.384 . S
C2234 C2235 1.372 . S
C2235 C2234 1.372 . S
C2235 C2236 1.400 . S
C2235 C2240 1.490 . S
C2236 H2226 0.930 . S
C2236 C2235 1.400 . S
C2236 C2239 1.386 . S
H2237 C2253 0.930 . S
H2238 C2254 0.931 . S
C2239 H2227 0.929 . S
C2239 C2233 1.390 . S
C2239 C2236 1.386 . S
C2240 C2235 1.490 . S
C2240 C2242 1.395 . S
C2240 C2243 1.403 . S
H2241 C2247 0.930 . S
C2242 H2228 0.930 . S
C2242 C2240 1.395 . S
C2242 C2245 1.403 . S
C2243 C2240 1.403 . S
C2243 C2244 1.524 . S
C2243 C2247 1.400 . S
C2244 H2229 0.960 . S
C2244 H2230 0.960 . S
C2244 H2231 0.960 . S
C2244 C2243 1.524 . S
C2245 C2242 1.403 . S
C2245 C2246 1.392 . S
C2245 C2249 1.495 . S
C2246 C2245 1.392 . S
C2246 C2247 1.385 . S
C2246 C2248 1.478 . S
C2247 H2241 0.930 . S
C2247 C2243 1.400 . S
C2247 C2246 1.385 . S
C2248 C2246 1.478 . S
C2248 C2250 1.381 . S
C2248 C2254 1.383 . S
C2249 C2245 1.495 . S
C2249 H2255 0.959 . S
C2249 H2256 0.961 . S
C2249 H2257 0.960 . S
C2250 C2248 1.381 . S
C2250 C2251 1.394 . S
C2250 H2258 0.930 . S
C2251 C2250 1.394 . S
C2251 C2252 1.383 . S
C2251 H2259 0.929 . S
C2252 C2251 1.383 . S
C2252 C2253 1.377 . S
C2253 H2237 0.930 . S
C2253 C2252 1.377 . S
C2253 C2254 1.379 . S
C2254 H2238 0.931 . S
C2254 C2248 1.383 . S
C2254 C2253 1.379 . S
H2255 C2249 0.959 . S
H2256 C2249 0.961 . S
H2257 C2249 0.960 . S
H2258 C2250 0.930 . S
H2259 C2251 0.929 . S
H2260 C2268 0.929 . S
H2261 C2270 0.930 . S
H2262 C2272 0.930 . S
H2263 C2275 0.929 . S
H2264 C2278 0.930 . S
H2265 C2280 0.960 . S
H2266 C2280 0.960 . S
H2267 C2280 0.960 . S
C2268 H2260 0.929 . S
C2268 C2269 1.377 . S
C2268 C2270 1.384 . S
C2269 C2268 1.377 . S
C2269 C2275 1.390 . S
C2270 H2261 0.930 . S
C2270 C2268 1.384 . S
C2270 C2271 1.372 . S
C2271 C2270 1.372 . S
C2271 C2272 1.400 . S
C2271 C2276 1.490 . S
C2272 H2262 0.930 . S
C2272 C2271 1.400 . S
C2272 C2275 1.386 . S
H2273 C2289 0.930 . S
H2274 C2290 0.931 . S
C2275 H2263 0.929 . S
C2275 C2269 1.390 . S
C2275 C2272 1.386 . S
C2276 C2271 1.490 . S
C2276 C2278 1.395 . S
C2276 C2279 1.403 . S
H2277 C2283 0.930 . S
C2278 H2264 0.930 . S
C2278 C2276 1.395 . S
C2278 C2281 1.403 . S
C2279 C2276 1.403 . S
C2279 C2280 1.524 . S
C2279 C2283 1.400 . S
C2280 H2265 0.960 . S
C2280 H2266 0.960 . S
C2280 H2267 0.960 . S
C2280 C2279 1.524 . S
C2281 C2278 1.403 . S
C2281 C2282 1.392 . S
C2281 C2285 1.495 . S
C2282 C2281 1.392 . S
C2282 C2283 1.385 . S
C2282 C2284 1.478 . S
C2283 H2277 0.930 . S
C2283 C2279 1.400 . S
C2283 C2282 1.385 . S
C2284 C2282 1.478 . S
C2284 C2286 1.381 1_545 S
C2284 C2290 1.383 . S
C2285 C2281 1.495 . S
C2285 H2291 0.959 . S
C2285 H2292 0.961 . S
C2285 H2293 0.960 . S
C2286 C2284 1.381 1_565 S
C2286 C2287 1.394 . S
C2286 H2294 0.930 . S
C2287 C2286 1.394 . S
C2287 C2288 1.383 . S
C2287 H2295 0.929 . S
C2288 C2287 1.383 . S
C2288 C2289 1.377 1_565 S
C2289 H2273 0.930 . S
C2289 C2288 1.377 1_545 S
C2289 C2290 1.379 . S
C2290 H2274 0.931 . S
C2290 C2284 1.383 . S
C2290 C2289 1.379 . S
H2291 C2285 0.959 . S
H2292 C2285 0.961 . S
H2293 C2285 0.960 . S
H2294 C2286 0.930 . S
H2295 C2287 0.929 . S
H2296 C2304 0.929 . S
H2297 C2306 0.930 . S
H2298 C2308 0.930 . S
H2299 C2311 0.929 . S
H2300 C2314 0.930 . S
H2301 C2316 0.960 . S
H2302 C2316 0.960 . S
H2303 C2316 0.960 . S
C2304 H2296 0.929 . S
C2304 C2305 1.377 . S
C2304 C2306 1.384 . S
C2305 C2304 1.377 . S
C2305 C2311 1.390 . S
C2306 H2297 0.930 . S
C2306 C2304 1.384 . S
C2306 C2307 1.372 . S
C2307 C2306 1.372 . S
C2307 C2308 1.400 . S
C2307 C2312 1.490 . S
C2308 H2298 0.930 . S
C2308 C2307 1.400 . S
C2308 C2311 1.386 . S
H2309 C2325 0.930 . S
H2310 C2326 0.926 1_554 S
C2311 H2299 0.929 . S
C2311 C2305 1.390 . S
C2311 C2308 1.386 . S
C2312 C2307 1.490 . S
C2312 C2314 1.395 . S
C2312 C2315 1.403 . S
H2313 C2319 0.930 . S
C2314 H2300 0.930 . S
C2314 C2312 1.395 . S
C2314 C2317 1.403 . S
C2315 C2312 1.403 . S
C2315 C2316 1.524 . S
C2315 C2319 1.400 . S
C2316 H2301 0.960 . S
C2316 H2302 0.960 . S
C2316 H2303 0.960 . S
C2316 C2315 1.524 . S
C2317 C2314 1.403 . S
C2317 C2318 1.392 . S
C2317 C2321 1.495 . S
C2318 C2317 1.392 . S
C2318 C2319 1.385 . S
C2318 C2320 1.478 . S
C2319 H2313 0.930 . S
C2319 C2315 1.400 . S
C2319 C2318 1.385 . S
C2320 C2318 1.478 . S
C2320 C2322 1.381 . S
C2320 C2326 1.383 1_554 S
C2321 C2317 1.495 . S
C2321 H2327 0.959 . S
C2321 H2328 0.961 . S
C2321 H2329 0.960 . S
C2322 C2320 1.381 . S
C2322 C2323 1.394 1_554 S
C2322 H2330 0.930 . S
C2323 C2322 1.394 1_556 S
C2323 C2324 1.383 . S
C2323 H2331 0.929 . S
C2324 C2323 1.383 . S
C2324 C2325 1.377 . S
C2325 H2309 0.930 . S
C2325 C2324 1.377 . S
C2325 C2326 1.379 . S
C2326 H2310 0.926 1_556 S
C2326 C2320 1.383 1_556 S
C2326 C2325 1.379 . S
H2327 C2321 0.959 . S
H2328 C2321 0.961 . S
H2329 C2321 0.960 . S
H2330 C2322 0.930 . S
H2331 C2323 0.929 . S
H2332 C2340 0.929 . S
H2333 C2342 0.930 . S
H2334 C2344 0.930 . S
H2335 C2347 0.929 . S
H2336 C2350 0.930 . S
H2337 C2352 0.960 . S
H2338 C2352 0.960 . S
H2339 C2352 0.960 . S
C2340 H2332 0.929 . S
C2340 C2341 1.377 . S
C2340 C2342 1.384 . S
C2341 C2340 1.377 . S
C2341 C2347 1.390 . S
C2342 H2333 0.930 . S
C2342 C2340 1.384 . S
C2342 C2343 1.372 . S
C2343 C2342 1.372 . S
C2343 C2344 1.400 . S
C2343 C2348 1.490 . S
C2344 H2334 0.930 . S
C2344 C2343 1.400 . S
C2344 C2347 1.386 . S
H2345 C2361 0.930 . S
H2346 C2362 0.931 . S
C2347 H2335 0.929 . S
C2347 C2341 1.390 . S
C2347 C2344 1.386 . S
C2348 C2343 1.490 . S
C2348 C2350 1.395 . S
C2348 C2351 1.403 . S
H2349 C2355 0.930 . S
C2350 H2336 0.930 . S
C2350 C2348 1.395 . S
C2350 C2353 1.403 . S
C2351 C2348 1.403 . S
C2351 C2352 1.524 . S
C2351 C2355 1.400 . S
C2352 H2337 0.960 . S
C2352 H2338 0.960 . S
C2352 H2339 0.960 . S
C2352 C2351 1.524 . S
C2353 C2350 1.403 . S
C2353 C2354 1.392 . S
C2353 C2357 1.495 . S
C2354 C2353 1.392 . S
C2354 C2355 1.385 . S
C2354 C2356 1.478 . S
C2355 H2349 0.930 . S
C2355 C2351 1.400 . S
C2355 C2354 1.385 . S
C2356 C2354 1.478 . S
C2356 C2358 1.381 1_565 S
C2356 C2362 1.383 . S
C2357 C2353 1.495 . S
C2357 H2363 0.959 . S
C2357 H2364 0.961 . S
C2357 H2365 0.960 . S
C2358 C2356 1.381 1_545 S
C2358 C2359 1.394 . S
C2358 H2366 0.930 . S
C2359 C2358 1.394 . S
C2359 C2360 1.383 . S
C2359 H2367 0.929 . S
C2360 C2359 1.383 . S
C2360 C2361 1.377 1_545 S
C2361 H2345 0.930 . S
C2361 C2360 1.377 1_565 S
C2361 C2362 1.379 . S
C2362 H2346 0.931 . S
C2362 C2356 1.383 . S
C2362 C2361 1.379 . S
H2363 C2357 0.959 . S
H2364 C2357 0.961 . S
H2365 C2357 0.960 . S
H2366 C2358 0.930 . S
H2367 C2359 0.929 . S
C649 C17 2.380 . S
C668 C417 2.385 . S
C685 C57 2.376 . S
C704 C457 2.363 . S
C721 C97 2.376 . S
C740 C337 2.364 . S
C757 C377 2.376 . S
C776 C137 2.369 . S
C793 C162 2.378 . S
C812 C562 2.360 . S
C829 C602 2.376 . S
C848 C202 2.365 . S
C865 C482 2.377 . S
C884 C242 2.360 . S
C901 C282 2.375 . S
C920 C522 2.383 . S
C937 C29 0.734 . S
C956 C168 0.672 . S
C973 C69 0.733 . S
C992 C528 0.674 . S
C1009 C109 0.757 . S
C1028 C248 0.748 . S
C1045 C149 0.747 . S
C1064 C608 0.693 . S
C1081 C208 0.741 . S
C1100 C389 0.676 . S
C1117 C469 0.756 . S
C1136 C288 0.746 . S
C1153 C488 0.741 . S
C1172 C349 0.675 . S
C1189 C429 0.733 . S
C1208 C568 0.764 . S
C1225 C8 0.782 . S
C1244 C297 0.772 . S
C1261 C48 0.768 . S
C1280 C497 0.795 . S
C1297 C88 0.764 . S
C1316 C217 0.811 . S
C1333 C128 0.765 . S
C1352 C577 0.818 . S
C1369 C122 0.796 . S
C1388 C189 0.794 . S
C1405 C229 0.794 . S
C1424 C322 0.821 . S
C1441 C269 0.764 . S
C1460 C42 0.767 . S
C1477 C402 0.795 . S
C1496 C309 0.798 . S
C1513 C328 0.792 . S
C1532 C617 0.766 1_565 S
C1549 C177 0.789 . S
C1568 C368 0.809 . S
C1585 C537 0.799 1_545 S
C1604 C408 0.770 . S
C1621 C257 0.789 . S
C1640 C448 0.802 . S
C1657 C509 0.764 . S
C1676 C442 0.766 1_545 S
C1693 C549 0.796 . S
C1712 C2 0.821 . S
C1729 C362 0.795 1_565 S
C1748 C589 0.808 . S
C1765 C629 0.767 . S
C1784 C82 0.768 . S
C1801 C12 4.086 . S
C1820 C391 4.020 . S
C1837 C431 4.029 . S
C1856 C52 4.074 . S
C1873 C92 4.084 . S
C1892 C471 4.033 . S
C1909 C351 4.033 . S
C1928 C132 4.076 . S
C1945 C532 4.032 . S
C1964 C191 4.087 . S
C1981 C572 4.030 . S
C2000 C231 4.072 . S
C2017 C612 4.030 . S
C2036 C271 4.072 . S
C2053 C492 4.029 . S
C2072 C311 4.072 . S
C2089 C71 4.030 . S
C2108 C332 4.084 . S
C2125 C111 4.029 . S
C2144 C372 4.076 . S
C2161 C151 4.033 . S
C2180 C412 4.078 . S
C2197 C452 4.083 . S
C2216 C31 4.018 . S
C2233 C212 4.031 . S
C2252 C511 4.074 . S
C2269 C252 4.029 . S
C2288 C551 4.078 . S
C2305 C292 4.032 . S
C2324 C591 4.087 . S
C2341 C172 4.029 . S
C2360 C631 4.075 . S
