# Generated by pormake.
# Topology wgi, (5)-cn, num edge types: 1
# Building blocks:
#     Node 0, Type 0, BuildingBlock: XOMCOT_clean_sbu_0, # of connection points: 5
#     Node 1, Type 0, BuildingBlock: XOMCOT_clean_sbu_0, # of connection points: 5
#     Node 2, Type 0, BuildingBlock: XOMCOT_clean_sbu_0, # of connection points: 5
#     Node 3, Type 0, BuildingBlock: XOMCOT_clean_sbu_0, # of connection points: 5
#     Node 4, Type 0, BuildingBlock: XOMCOT_clean_sbu_0, # of connection points: 5
#     Node 5, Type 0, BuildingBlock: XOMCOT_clean_sbu_0, # of connection points: 5
#     Node 6, Type 0, BuildingBlock: XOMCOT_clean_sbu_0, # of connection points: 5
#     Node 7, Type 0, BuildingBlock: XOMCOT_clean_sbu_0, # of connection points: 5
#     Node 8, Type 0, BuildingBlock: XOMCOT_clean_sbu_0, # of connection points: 5
#     Node 9, Type 0, BuildingBlock: XOMCOT_clean_sbu_0, # of connection points: 5
#     Node 10, Type 0, BuildingBlock: XOMCOT_clean_sbu_0, # of connection points: 5
#     Node 11, Type 0, BuildingBlock: XOMCOT_clean_sbu_0, # of connection points: 5
#     Node 12, Type 0, BuildingBlock: XOMCOT_clean_sbu_0, # of connection points: 5
#     Node 13, Type 0, BuildingBlock: XOMCOT_clean_sbu_0, # of connection points: 5
#     Node 14, Type 0, BuildingBlock: XOMCOT_clean_sbu_0, # of connection points: 5
#     Node 15, Type 0, BuildingBlock: XOMCOT_clean_sbu_0, # of connection points: 5
#     Node 16, Type 0, BuildingBlock: XOMCOT_clean_sbu_0, # of connection points: 5
#     Node 17, Type 0, BuildingBlock: XOMCOT_clean_sbu_0, # of connection points: 5
#     Node 18, Type 0, BuildingBlock: XOMCOT_clean_sbu_0, # of connection points: 5
#     Node 19, Type 0, BuildingBlock: XOMCOT_clean_sbu_0, # of connection points: 5
#     Node 20, Type 0, BuildingBlock: XOMCOT_clean_sbu_0, # of connection points: 5
#     Node 21, Type 0, BuildingBlock: XOMCOT_clean_sbu_0, # of connection points: 5
#     Node 22, Type 0, BuildingBlock: XOMCOT_clean_sbu_0, # of connection points: 5
#     Node 23, Type 0, BuildingBlock: XOMCOT_clean_sbu_0, # of connection points: 5
#     Node 24, Type 0, BuildingBlock: XOMCOT_clean_sbu_0, # of connection points: 5
#     Node 25, Type 0, BuildingBlock: XOMCOT_clean_sbu_0, # of connection points: 5
#     Node 26, Type 0, BuildingBlock: XOMCOT_clean_sbu_0, # of connection points: 5
#     Node 27, Type 0, BuildingBlock: XOMCOT_clean_sbu_0, # of connection points: 5
#     Node 28, Type 0, BuildingBlock: XOMCOT_clean_sbu_0, # of connection points: 5
#     Node 29, Type 0, BuildingBlock: XOMCOT_clean_sbu_0, # of connection points: 5
#     Node 30, Type 0, BuildingBlock: XOMCOT_clean_sbu_0, # of connection points: 5
#     Node 31, Type 0, BuildingBlock: XOMCOT_clean_sbu_0, # of connection points: 5
#     Edge 32, Type (0, 0), BuildingBlock: OJICUG_clean_linker_0, # of connection points: 2
#     Edge 33, Type (0, 0), BuildingBlock: OJICUG_clean_linker_0, # of connection points: 2
#     Edge 34, Type (0, 0), BuildingBlock: OJICUG_clean_linker_0, # of connection points: 2
#     Edge 35, Type (0, 0), BuildingBlock: OJICUG_clean_linker_0, # of connection points: 2
#     Edge 36, Type (0, 0), BuildingBlock: OJICUG_clean_linker_0, # of connection points: 2
#     Edge 37, Type (0, 0), BuildingBlock: OJICUG_clean_linker_0, # of connection points: 2
#     Edge 38, Type (0, 0), BuildingBlock: OJICUG_clean_linker_0, # of connection points: 2
#     Edge 39, Type (0, 0), BuildingBlock: OJICUG_clean_linker_0, # of connection points: 2
#     Edge 40, Type (0, 0), BuildingBlock: OJICUG_clean_linker_0, # of connection points: 2
#     Edge 41, Type (0, 0), BuildingBlock: OJICUG_clean_linker_0, # of connection points: 2
#     Edge 42, Type (0, 0), BuildingBlock: OJICUG_clean_linker_0, # of connection points: 2
#     Edge 43, Type (0, 0), BuildingBlock: OJICUG_clean_linker_0, # of connection points: 2
#     Edge 44, Type (0, 0), BuildingBlock: OJICUG_clean_linker_0, # of connection points: 2
#     Edge 45, Type (0, 0), BuildingBlock: OJICUG_clean_linker_0, # of connection points: 2
#     Edge 46, Type (0, 0), BuildingBlock: OJICUG_clean_linker_0, # of connection points: 2
#     Edge 47, Type (0, 0), BuildingBlock: OJICUG_clean_linker_0, # of connection points: 2
#     Edge 48, Type (0, 0), BuildingBlock: OJICUG_clean_linker_0, # of connection points: 2
#     Edge 49, Type (0, 0), BuildingBlock: OJICUG_clean_linker_0, # of connection points: 2
#     Edge 50, Type (0, 0), BuildingBlock: OJICUG_clean_linker_0, # of connection points: 2
#     Edge 51, Type (0, 0), BuildingBlock: OJICUG_clean_linker_0, # of connection points: 2
#     Edge 52, Type (0, 0), BuildingBlock: OJICUG_clean_linker_0, # of connection points: 2
#     Edge 53, Type (0, 0), BuildingBlock: OJICUG_clean_linker_0, # of connection points: 2
#     Edge 54, Type (0, 0), BuildingBlock: OJICUG_clean_linker_0, # of connection points: 2
#     Edge 55, Type (0, 0), BuildingBlock: OJICUG_clean_linker_0, # of connection points: 2
#     Edge 56, Type (0, 0), BuildingBlock: OJICUG_clean_linker_0, # of connection points: 2
#     Edge 57, Type (0, 0), BuildingBlock: OJICUG_clean_linker_0, # of connection points: 2
#     Edge 58, Type (0, 0), BuildingBlock: OJICUG_clean_linker_0, # of connection points: 2
#     Edge 59, Type (0, 0), BuildingBlock: OJICUG_clean_linker_0, # of connection points: 2
#     Edge 60, Type (0, 0), BuildingBlock: OJICUG_clean_linker_0, # of connection points: 2
#     Edge 61, Type (0, 0), BuildingBlock: OJICUG_clean_linker_0, # of connection points: 2
#     Edge 62, Type (0, 0), BuildingBlock: OJICUG_clean_linker_0, # of connection points: 2
#     Edge 63, Type (0, 0), BuildingBlock: OJICUG_clean_linker_0, # of connection points: 2
#     Edge 64, Type (0, 0), BuildingBlock: OJICUG_clean_linker_0, # of connection points: 2
#     Edge 65, Type (0, 0), BuildingBlock: OJICUG_clean_linker_0, # of connection points: 2
#     Edge 66, Type (0, 0), BuildingBlock: OJICUG_clean_linker_0, # of connection points: 2
#     Edge 67, Type (0, 0), BuildingBlock: OJICUG_clean_linker_0, # of connection points: 2
#     Edge 68, Type (0, 0), BuildingBlock: OJICUG_clean_linker_0, # of connection points: 2
#     Edge 69, Type (0, 0), BuildingBlock: OJICUG_clean_linker_0, # of connection points: 2
#     Edge 70, Type (0, 0), BuildingBlock: OJICUG_clean_linker_0, # of connection points: 2
#     Edge 71, Type (0, 0), BuildingBlock: OJICUG_clean_linker_0, # of connection points: 2
#     Edge 72, Type (0, 0), BuildingBlock: OJICUG_clean_linker_0, # of connection points: 2
#     Edge 73, Type (0, 0), BuildingBlock: OJICUG_clean_linker_0, # of connection points: 2
#     Edge 74, Type (0, 0), BuildingBlock: OJICUG_clean_linker_0, # of connection points: 2
#     Edge 75, Type (0, 0), BuildingBlock: OJICUG_clean_linker_0, # of connection points: 2
#     Edge 76, Type (0, 0), BuildingBlock: OJICUG_clean_linker_0, # of connection points: 2
#     Edge 77, Type (0, 0), BuildingBlock: OJICUG_clean_linker_0, # of connection points: 2
#     Edge 78, Type (0, 0), BuildingBlock: OJICUG_clean_linker_0, # of connection points: 2
#     Edge 79, Type (0, 0), BuildingBlock: OJICUG_clean_linker_0, # of connection points: 2
#     Edge 80, Type (0, 0), BuildingBlock: OJICUG_clean_linker_0, # of connection points: 2
#     Edge 81, Type (0, 0), BuildingBlock: OJICUG_clean_linker_0, # of connection points: 2
#     Edge 82, Type (0, 0), BuildingBlock: OJICUG_clean_linker_0, # of connection points: 2
#     Edge 83, Type (0, 0), BuildingBlock: OJICUG_clean_linker_0, # of connection points: 2
#     Edge 84, Type (0, 0), BuildingBlock: OJICUG_clean_linker_0, # of connection points: 2
#     Edge 85, Type (0, 0), BuildingBlock: OJICUG_clean_linker_0, # of connection points: 2
#     Edge 86, Type (0, 0), BuildingBlock: OJICUG_clean_linker_0, # of connection points: 2
#     Edge 87, Type (0, 0), BuildingBlock: OJICUG_clean_linker_0, # of connection points: 2
#     Edge 88, Type (0, 0), BuildingBlock: OJICUG_clean_linker_0, # of connection points: 2
#     Edge 89, Type (0, 0), BuildingBlock: OJICUG_clean_linker_0, # of connection points: 2
#     Edge 90, Type (0, 0), BuildingBlock: OJICUG_clean_linker_0, # of connection points: 2
#     Edge 91, Type (0, 0), BuildingBlock: OJICUG_clean_linker_0, # of connection points: 2
#     Edge 92, Type (0, 0), BuildingBlock: OJICUG_clean_linker_0, # of connection points: 2
#     Edge 93, Type (0, 0), BuildingBlock: OJICUG_clean_linker_0, # of connection points: 2
#     Edge 94, Type (0, 0), BuildingBlock: OJICUG_clean_linker_0, # of connection points: 2
#     Edge 95, Type (0, 0), BuildingBlock: OJICUG_clean_linker_0, # of connection points: 2
#     Edge 96, Type (0, 0), BuildingBlock: OJICUG_clean_linker_0, # of connection points: 2
#     Edge 97, Type (0, 0), BuildingBlock: OJICUG_clean_linker_0, # of connection points: 2
#     Edge 98, Type (0, 0), BuildingBlock: OJICUG_clean_linker_0, # of connection points: 2
#     Edge 99, Type (0, 0), BuildingBlock: OJICUG_clean_linker_0, # of connection points: 2
#     Edge 100, Type (0, 0), BuildingBlock: OJICUG_clean_linker_0, # of connection points: 2
#     Edge 101, Type (0, 0), BuildingBlock: OJICUG_clean_linker_0, # of connection points: 2
#     Edge 102, Type (0, 0), BuildingBlock: OJICUG_clean_linker_0, # of connection points: 2
#     Edge 103, Type (0, 0), BuildingBlock: OJICUG_clean_linker_0, # of connection points: 2
#     Edge 104, Type (0, 0), BuildingBlock: OJICUG_clean_linker_0, # of connection points: 2
#     Edge 105, Type (0, 0), BuildingBlock: OJICUG_clean_linker_0, # of connection points: 2
#     Edge 106, Type (0, 0), BuildingBlock: OJICUG_clean_linker_0, # of connection points: 2
#     Edge 107, Type (0, 0), BuildingBlock: OJICUG_clean_linker_0, # of connection points: 2
#     Edge 108, Type (0, 0), BuildingBlock: OJICUG_clean_linker_0, # of connection points: 2
#     Edge 109, Type (0, 0), BuildingBlock: OJICUG_clean_linker_0, # of connection points: 2
#     Edge 110, Type (0, 0), BuildingBlock: OJICUG_clean_linker_0, # of connection points: 2
#     Edge 111, Type (0, 0), BuildingBlock: OJICUG_clean_linker_0, # of connection points: 2
# Relax obj value: 0.191
# Max RMSD: 0.163
# Mean RMSD: 0.163
data_MOF--net-wgi--node1-XOMCOT_clean_sbu_0--edge1-OJICUG_clean_linker_0
_symmetry_space_group_name_H-M    P1
_symmetry_Int_Tables_number       1
_symmetry_cell_setting            triclinic
loop_
_symmetry_equiv_pos_as_xyz
'x, y, z'
_cell_length_a     58.685324
_cell_length_b     58.77357
_cell_length_c     19.873056
_cell_angle_alpha  90.044113
_cell_angle_beta   89.933061
_cell_angle_gamma 90.064075
loop_
_atom_site_label
_atom_site_type_symbol
_atom_site_fract_x
_atom_site_fract_y
_atom_site_fract_z
_atom_type_partial_charge
Co0 Co 0.14734 0.16025 0.4213 0.0
C1 C 0.19721 0.16414 0.44513 0.0
C2 C 0.18938 0.13943 0.36948 0.0
C3 C 0.21205 0.13733 0.38638 0.0
N4 N 0.17998 0.15649 0.40562 0.0
N5 N 0.2169 0.15293 0.43382 0.0
H6 H 0.19498 0.17554 0.48722 0.0
H7 H 0.18 0.12773 0.33797 0.0
C8 C 0.14854 0.15446 0.27126 0.0
O9 O 0.16501 0.1696 0.2679 0.0
N10 N 0.1151 0.16321 0.43925 0.0
C11 C 0.10555 0.17839 0.48151 0.0
C12 C 0.08273 0.17346 0.48754 0.0
C13 C 0.09803 0.14925 0.41993 0.0
N14 N 0.07805 0.15516 0.44894 0.0
C15 C 0.15998 0.20787 0.42777 0.0
C16 C 0.12835 0.22227 0.33426 0.0
C17 C 0.14075 0.23879 0.36987 0.0
C18 C 0.15708 0.23121 0.41634 0.0
C19 C 0.13195 0.19919 0.34665 0.0
N20 N 0.14767 0.19208 0.39278 0.0
H21 H 0.1711 0.20273 0.46783 0.0
H22 H 0.12085 0.18709 0.32224 0.0
H23 H 0.1147 0.19176 0.50741 0.0
H24 H 0.10033 0.13461 0.38755 0.0
O25 O 0.15313 0.16413 0.51619 0.0
O26 O 0.1468 0.13109 0.46485 0.0
O27 O 0.13992 0.14912 0.32803 0.0
C28 C 0.15045 0.14216 0.52048 0.0
H29 H 0.22363 0.12428 0.3688 0.0
H30 H 0.07051 0.18259 0.51816 0.0
H31 H 0.11492 0.22702 0.29975 0.0
H32 H 0.16705 0.24318 0.44548 0.0
Co33 Co 0.10505 0.90196 0.66006 0.0
C34 C 0.10178 0.95058 0.6928 0.0
C35 C 0.12595 0.94433 0.61374 0.0
C36 C 0.12833 0.96652 0.63503 0.0
N37 N 0.10941 0.93432 0.65032 0.0
N38 N 0.11321 0.97034 0.68491 0.0
H39 H 0.08981 0.94738 0.73321 0.0
H40 H 0.13693 0.93559 0.57847 0.0
C41 C 0.10762 0.882 0.51986 0.0
O42 O 0.09205 0.86711 0.53781 0.0
N43 N 0.10144 0.86939 0.6723 0.0
C44 C 0.08664 0.85867 0.71369 0.0
C45 C 0.09303 0.8363 0.72001 0.0
C46 C 0.11692 0.85334 0.65528 0.0
N47 N 0.112 0.83304 0.68325 0.0
C48 C 0.05741 0.90439 0.69081 0.0
C49 C 0.04128 0.90615 0.56074 0.0
C50 C 0.02584 0.90148 0.61313 0.0
C51 C 0.03414 0.90186 0.67918 0.0
C52 C 0.06457 0.90868 0.57491 0.0
N53 N 0.0726 0.90554 0.63878 0.0
H54 H 0.0632 0.90397 0.74221 0.0
H55 H 0.07598 0.91259 0.53401 0.0
H56 H 0.07303 0.86654 0.74154 0.0
H57 H 0.13208 0.85673 0.62583 0.0
O58 O 0.10324 0.90569 0.75648 0.0
O59 O 0.13518 0.89924 0.70058 0.0
O60 O 0.11403 0.89744 0.56147 0.0
C61 C 0.12503 0.90222 0.75828 0.0
H62 H 0.14121 0.97846 0.61832 0.0
H63 H 0.08472 0.82352 0.75068 0.0
H64 H 0.03552 0.9073 0.50911 0.0
H65 H 0.02303 0.89882 0.72177 0.0
Co66 Co 0.36759 0.85257 0.92199 0.0
C67 C 0.31841 0.85094 0.95171 0.0
C68 C 0.32674 0.87778 0.88259 0.0
C69 C 0.30437 0.88032 0.90254 0.0
N70 N 0.33554 0.85943 0.91369 0.0
N71 N 0.29921 0.86343 0.94583 0.0
H72 H 0.32051 0.83724 0.9875 0.0
H73 H 0.3364 0.88952 0.85186 0.0
C74 C 0.3874 0.85502 0.78158 0.0
O75 O 0.40063 0.83759 0.79499 0.0
N76 N 0.3999 0.84617 0.9325 0.0
C77 C 0.40945 0.82838 0.96464 0.0
C78 C 0.43261 0.83144 0.9668 0.0
C79 C 0.41751 0.86019 0.91745 0.0
N80 N 0.43776 0.85139 0.93695 0.0
C81 C 0.35926 0.80593 0.95499 0.0
C82 C 0.36331 0.78806 0.82718 0.0
C83 C 0.36572 0.77358 0.88278 0.0
C84 C 0.36196 0.78255 0.94692 0.0
C85 C 0.36046 0.81155 0.83777 0.0
N86 N 0.36123 0.82041 0.90146 0.0
H87 H 0.35798 0.81232 1.00563 0.0
H88 H 0.35872 0.82242 0.79455 0.0
H89 H 0.40045 0.81451 0.98802 0.0
H90 H 0.41547 0.87648 0.89283 0.0
O91 O 0.36414 0.85136 0.01845 0.0
O92 O 0.3729 0.88243 0.96116 0.0
O93 O 0.37256 0.86176 0.82447 0.0
C94 C 0.36912 0.87285 0.01909 0.0
H95 H 0.29313 0.8942 0.88924 0.0
H96 H 0.44464 0.82016 0.99099 0.0
H97 H 0.36517 0.78159 0.77643 0.0
H98 H 0.36286 0.77179 0.99109 0.0
Co99 Co 0.41063 0.11369 0.16058 0.0
C100 C 0.41324 0.06508 0.19423 0.0
C101 C 0.3895 0.07134 0.11423 0.0
C102 C 0.38697 0.04916 0.13542 0.0
N103 N 0.40587 0.08133 0.15142 0.0
N104 N 0.40179 0.04533 0.18597 0.0
H105 H 0.42508 0.06825 0.23489 0.0
H106 H 0.37879 0.08004 0.07829 0.0
C107 C 0.40712 0.13375 0.02061 0.0
O108 O 0.42256 0.14888 0.03766 0.0
N109 N 0.41475 0.14622 0.1725 0.0
C110 C 0.43035 0.15672 0.21166 0.0
C111 C 0.42468 0.17929 0.2177 0.0
C112 C 0.39947 0.16259 0.15672 0.0
N113 N 0.40534 0.18291 0.18306 0.0
C114 C 0.45825 0.10997 0.18997 0.0
C115 C 0.47414 0.11072 0.0594 0.0
C116 C 0.48961 0.11453 0.11213 0.0
C117 C 0.4815 0.11278 0.1782 0.0
C118 C 0.45091 0.10771 0.07369 0.0
N119 N 0.44297 0.10972 0.13814 0.0
H120 H 0.45256 0.10971 0.24151 0.0
H121 H 0.4395 0.10442 0.03244 0.0
H122 H 0.44418 0.1486 0.2378 0.0
H123 H 0.38396 0.1595 0.12873 0.0
O124 O 0.41269 0.11016 0.257 0.0
O125 O 0.38066 0.11684 0.20205 0.0
O126 O 0.40128 0.11813 0.06229 0.0
C127 C 0.39095 0.11389 0.25945 0.0
H128 H 0.37424 0.03721 0.1179 0.0
H129 H 0.43384 0.19202 0.24635 0.0
H130 H 0.47982 0.11068 1.00753 0.0
H131 H 0.49272 0.11513 0.22088 0.0
Co132 Co 0.14877 0.85179 0.11623 0.0
C133 C 0.19823 0.85049 0.08547 0.0
C134 C 0.1922 0.86514 0.18263 0.0
C135 C 0.21504 0.86734 0.16742 0.0
N136 N 0.18152 0.85468 0.13098 0.0
N137 N 0.21874 0.85806 0.10643 0.0
H138 H 0.19537 0.84344 0.03592 0.0
H139 H 0.18405 0.87176 0.22716 0.0
C140 C 0.13914 0.87869 0.24199 0.0
O141 O 0.14182 0.89748 0.20715 0.0
N142 N 0.11645 0.84904 0.09952 0.0
C143 C 0.10682 0.8336 0.05823 0.0
C144 C 0.08421 0.83899 0.05007 0.0
C145 C 0.09961 0.86367 0.11602 0.0
N146 N 0.07974 0.85788 0.08625 0.0
C147 C 0.16223 0.80479 0.10211 0.0
C148 C 0.13214 0.78836 0.19763 0.0
C149 C 0.14454 0.7727 0.15891 0.0
C150 C 0.16006 0.78123 0.11126 0.0
C151 C 0.13487 0.81162 0.1871 0.0
N152 N 0.14962 0.81966 0.13953 0.0
H153 H 0.17329 0.81099 0.0628 0.0
H154 H 0.12382 0.82307 0.21419 0.0
H155 H 0.11585 0.81985 0.03379 0.0
H156 H 0.10204 0.8788 0.14621 0.0
O157 O 0.15385 0.84943 0.02048 0.0
O158 O 0.14813 0.88178 0.07512 0.0
O159 O 0.14223 0.85939 0.21377 0.0
C160 C 0.15143 0.87137 0.01798 0.0
H161 H 0.22781 0.87578 0.19779 0.0
H162 H 0.07203 0.82989 0.01923 0.0
H163 H 0.11937 0.78279 0.23338 0.0
H164 H 0.17001 0.76984 0.0801 0.0
Co165 Co 0.41246 0.90087 0.3814 0.0
C166 C 0.41422 0.95051 0.35707 0.0
C167 C 0.3888 0.94167 0.42971 0.0
C168 C 0.38558 0.96399 0.41102 0.0
N169 N 0.407 0.93315 0.39662 0.0
N170 N 0.40156 0.96946 0.36513 0.0
H171 H 0.42631 0.94865 0.31652 0.0
H172 H 0.37712 0.93174 0.45991 0.0
C173 C 0.40512 0.90205 0.53146 0.0
O174 O 0.41728 0.92079 0.53473 0.0
N175 N 0.41704 0.869 0.36378 0.0
C176 C 0.43283 0.85995 0.32245 0.0
C177 C 0.42825 0.83714 0.31485 0.0
C178 C 0.40312 0.85172 0.38103 0.0
N179 N 0.4096 0.83208 0.35164 0.0
C180 C 0.45961 0.91502 0.3774 0.0
C181 C 0.47431 0.88388 0.47188 0.0
C182 C 0.49068 0.89603 0.43502 0.0
C183 C 0.483 0.91224 0.38847 0.0
C184 C 0.45119 0.88729 0.45966 0.0
N185 N 0.44394 0.90261 0.41259 0.0
H186 H 0.45437 0.9259 0.3369 0.0
H187 H 0.43928 0.87601 0.48412 0.0
H188 H 0.44622 0.86947 0.29773 0.0
H189 H 0.38797 0.85368 0.41159 0.0
O190 O 0.41722 0.90687 0.28685 0.0
O191 O 0.38383 0.89904 0.334 0.0
O192 O 0.40118 0.89263 0.47464 0.0
C193 C 0.3955 0.90316 0.27955 0.0
H194 H 0.37149 0.97476 0.4259 0.0
H195 H 0.43769 0.82522 0.28401 0.0
H196 H 0.47919 0.87057 0.5066 0.0
H197 H 0.49492 0.92202 0.35856 0.0
Co198 Co 0.36574 0.16453 0.61855 0.0
C199 C 0.31661 0.16607 0.58371 0.0
C200 C 0.32222 0.14776 0.67543 0.0
C201 C 0.29973 0.14514 0.65693 0.0
N202 N 0.33293 0.16082 0.62936 0.0
N203 N 0.29628 0.15668 0.59935 0.0
H204 H 0.31982 0.17494 0.537 0.0
H205 H 0.33029 0.13939 0.71738 0.0
C206 C 0.37563 0.13724 0.74322 0.0
O207 O 0.37536 0.11869 0.70637 0.0
N208 N 0.39829 0.168 0.60598 0.0
C209 C 0.40869 0.18603 0.57772 0.0
C210 C 0.43144 0.1813 0.5708 0.0
C211 C 0.41484 0.15229 0.61456 0.0
N212 N 0.43544 0.15997 0.59335 0.0
C213 C 0.35375 0.21169 0.5994 0.0
C214 C 0.38098 0.22786 0.70228 0.0
C215 C 0.37255 0.24328 0.65489 0.0
C216 C 0.35787 0.23517 0.60471 0.0
C217 C 0.37656 0.20471 0.69511 0.0
N218 N 0.36379 0.19668 0.64273 0.0
H219 H 0.34411 0.20554 0.55695 0.0
H220 H 0.3856 0.19329 0.72774 0.0
H221 H 0.40026 0.2014 0.56139 0.0
H222 H 0.41161 0.13534 0.63333 0.0
O223 O 0.36195 0.16715 0.52237 0.0
O224 O 0.36746 0.1347 0.57646 0.0
O225 O 0.37103 0.15646 0.71641 0.0
C226 C 0.36463 0.14526 0.51943 0.0
H227 H 0.28713 0.13472 0.68217 0.0
H228 H 0.44388 0.19284 0.54969 0.0
H229 H 0.39236 0.23346 0.74189 0.0
H230 H 0.35115 0.24655 0.5668 0.0
Co231 Co 0.10567 0.11515 0.87878 0.0
C232 C 0.10201 0.06568 0.85327 0.0
C233 C 0.12551 0.07302 0.93261 0.0
C234 C 0.12787 0.05049 0.91473 0.0
N235 N 0.10906 0.08262 0.89464 0.0
N236 N 0.11307 0.04598 0.86477 0.0
H237 H 0.09134 0.06822 0.80971 0.0
H238 H 0.1368 0.08219 0.96595 0.0
C239 C 0.11066 0.11454 0.02913 0.0
O240 O 0.09515 0.09844 0.03254 0.0
N241 N 0.10313 0.14724 0.86074 0.0
C242 C 0.08845 0.15697 0.81738 0.0
C243 C 0.09448 0.17941 0.80932 0.0
C244 C 0.11783 0.16378 0.87877 0.0
N245 N 0.11292 0.18357 0.84785 0.0
C246 C 0.05807 0.10265 0.87175 0.0
C247 C 0.04334 0.1352 0.96222 0.0
C248 C 0.02697 0.12276 0.92617 0.0
C249 C 0.03467 0.10595 0.88144 0.0
C250 C 0.06649 0.13124 0.95146 0.0
N251 N 0.07375 0.11514 0.90662 0.0
H252 H 0.06337 0.09108 0.83297 0.0
H253 H 0.07858 0.14237 0.9759 0.0
H254 H 0.07487 0.1481 0.79149 0.0
H255 H 0.13246 0.16111 0.91095 0.0
O256 O 0.10184 0.10943 0.78396 0.0
O257 O 0.13496 0.11542 0.83525 0.0
O258 O 0.11661 0.12261 0.9722 0.0
C259 C 0.12383 0.11205 0.77956 0.0
H260 H 0.14069 0.03885 0.93324 0.0
H261 H 0.08618 0.19168 0.777 0.0
H262 H 0.03845 0.14891 0.99562 0.0
H263 H 0.02277 0.09591 0.85225 0.0
Co264 Co 0.86751 0.85556 0.61338 0.0
C265 C 0.81771 0.85198 0.58761 0.0
C266 C 0.82514 0.87542 0.66703 0.0
C267 C 0.80249 0.87756 0.65011 0.0
N268 N 0.83479 0.85909 0.62861 0.0
N269 N 0.79787 0.86282 0.60007 0.0
H270 H 0.82016 0.84125 0.54409 0.0
H271 H 0.8343 0.88668 0.70044 0.0
C272 C 0.86642 0.86083 0.76356 0.0
O273 O 0.85021 0.84541 0.76668 0.0
N274 N 0.89983 0.85289 0.59571 0.0
C275 C 0.90997 0.83651 0.55905 0.0
C276 C 0.93261 0.84202 0.55118 0.0
C277 C 0.9163 0.8683 0.60903 0.0
N278 N 0.93661 0.86209 0.58227 0.0
C279 C 0.85454 0.80812 0.607 0.0
C280 C 0.88613 0.79333 0.70015 0.0
C281 C 0.87339 0.77702 0.66482 0.0
C282 C 0.85714 0.78476 0.61844 0.0
C283 C 0.88289 0.81644 0.68755 0.0
N284 N 0.86718 0.82373 0.64163 0.0
H285 H 0.84332 0.81341 0.56737 0.0
H286 H 0.89418 0.82843 0.71177 0.0
H287 H 0.90138 0.8218 0.53832 0.0
H288 H 0.91322 0.88407 0.63559 0.0
O289 O 0.86197 0.85159 0.51867 0.0
O290 O 0.8679 0.88473 0.57008 0.0
O291 O 0.87479 0.86659 0.70681 0.0
C292 C 0.86447 0.87358 0.51447 0.0
H293 H 0.79075 0.89011 0.66976 0.0
H294 H 0.94511 0.83192 0.52454 0.0
H295 H 0.89948 0.78835 0.73468 0.0
H296 H 0.84695 0.77289 0.5896 0.0
Co297 Co 0.9084 0.11482 0.36105 0.0
C298 C 0.91189 0.06529 0.3344 0.0
C299 C 0.88809 0.07258 0.41311 0.0
C300 C 0.88554 0.05015 0.39441 0.0
N301 N 0.90484 0.08219 0.37607 0.0
N302 N 0.90049 0.04564 0.34475 0.0
H303 H 0.92296 0.06786 0.29161 0.0
H304 H 0.87676 0.08173 0.44637 0.0
C305 C 0.90282 0.11384 0.51121 0.0
O306 O 0.91821 0.09764 0.51442 0.0
N307 N 0.91116 0.14701 0.34339 0.0
C308 C 0.92567 0.15661 0.2991 0.0
C309 C 0.92017 0.17923 0.29234 0.0
C310 C 0.8971 0.16386 0.36343 0.0
N311 N 0.90228 0.18368 0.33278 0.0
C312 C 0.95617 0.10224 0.35725 0.0
C313 C 0.9699 0.13457 0.44985 0.0
C314 C 0.98666 0.1219 0.41625 0.0
C315 C 0.97948 0.10532 0.36993 0.0
C316 C 0.94693 0.13092 0.4359 0.0
N317 N 0.94015 0.11483 0.39042 0.0
H318 H 0.95124 0.09064 0.31805 0.0
H319 H 0.93464 0.14216 0.45893 0.0
H320 H 0.93883 0.14757 0.2719 0.0
H321 H 0.8828 0.16147 0.39717 0.0
O322 O 0.91264 0.10922 0.26624 0.0
O323 O 0.87932 0.11514 0.31673 0.0
O324 O 0.89704 0.12206 0.45435 0.0
C325 C 0.89065 0.1118 0.26133 0.0
H326 H 0.87254 0.03856 0.41237 0.0
H327 H 0.9285 0.19146 0.25982 0.0
H328 H 0.97444 0.14816 0.48412 0.0
H329 H 0.99173 0.09522 0.34226 0.0
Co330 Co 0.64799 0.16027 0.10515 0.0
C331 C 0.69664 0.16118 0.06266 0.0
C332 C 0.69227 0.14354 0.1562 0.0
C333 C 0.71455 0.14104 0.13555 0.0
N334 N 0.68091 0.15615 0.11045 0.0
N335 N 0.71722 0.15216 0.0769 0.0
H336 H 0.69288 0.16986 0.01602 0.0
H337 H 0.68483 0.13557 0.19991 0.0
C338 C 0.63884 0.13159 0.22705 0.0
O339 O 0.63458 0.11445 0.18657 0.0
N340 N 0.61523 0.16407 0.09806 0.0
C341 C 0.60447 0.18215 0.07119 0.0
C342 C 0.58164 0.1772 0.06534 0.0
C343 C 0.59882 0.1482 0.10698 0.0
N344 N 0.5781 0.1558 0.08758 0.0
C345 C 0.66182 0.20709 0.09271 0.0
C346 C 0.6361 0.22284 0.1996 0.0
C347 C 0.64653 0.23883 0.15692 0.0
C348 C 0.66009 0.23057 0.10395 0.0
C349 C 0.63846 0.19959 0.18707 0.0
N350 N 0.65074 0.19193 0.13322 0.0
H351 H 0.67106 0.20122 0.04912 0.0
H352 H 0.6288 0.18791 0.21781 0.0
H353 H 0.61275 0.19763 0.05476 0.0
H354 H 0.60208 0.13106 0.12369 0.0
O355 O 0.6501 0.16438 1.00896 0.0
O356 O 0.64527 0.13113 0.0594 0.0
O357 O 0.64486 0.15082 0.20285 0.0
C358 C 0.64719 0.14256 1.00349 0.0
H359 H 0.72759 0.13114 0.16048 0.0
H360 H 0.56871 0.18847 0.04558 0.0
H361 H 0.62497 0.22813 0.24014 0.0
H362 H 0.66873 0.24211 0.06998 0.0
Co363 Co 0.60679 0.8986 0.87489 0.0
C364 C 0.60233 0.94799 0.84825 0.0
C365 C 0.62726 0.94106 0.924 0.0
C366 C 0.62926 0.9635 0.90504 0.0
N367 N 0.61018 0.93124 0.88895 0.0
N368 N 0.6136 0.96779 0.85728 0.0
H369 H 0.59079 0.94522 0.80678 0.0
H370 H 0.63913 0.93205 0.95583 0.0
C371 C 0.61327 0.90048 0.02501 0.0
O372 O 0.59813 0.9169 0.02878 0.0
N373 N 0.60405 0.86639 0.85849 0.0
C374 C 0.58897 0.85654 0.81649 0.0
C375 C 0.59451 0.83394 0.80974 0.0
C376 C 0.61852 0.84975 0.87708 0.0
N377 N 0.61305 0.82978 0.84774 0.0
C378 C 0.55881 0.90935 0.86633 0.0
C379 C 0.54547 0.87808 0.96239 0.0
C380 C 0.52876 0.88806 0.9218 0.0
C381 C 0.53557 0.90452 0.87485 0.0
C382 C 0.56837 0.88327 0.9521 0.0
N383 N 0.57499 0.89859 0.90411 0.0
H384 H 0.56373 0.92025 0.82536 0.0
H385 H 0.5808 0.87329 0.97893 0.0
H386 H 0.57537 0.86538 0.79077 0.0
H387 H 0.6333 0.8524 0.90868 0.0
O388 O 0.60261 0.90373 0.77976 0.0
O389 O 0.63589 0.8981 0.83032 0.0
O390 O 0.61835 0.89177 0.96813 0.0
C391 C 0.62459 0.90106 0.7748 0.0
H392 H 0.64241 0.97524 0.9211 0.0
H393 H 0.58577 0.82154 0.77878 0.0
H394 H 0.54101 0.86526 0.99929 0.0
H395 H 0.52326 0.91232 0.84152 0.0
Co396 Co 0.86631 0.15972 0.90406 0.0
C397 C 0.81618 0.1622 0.92434 0.0
C398 C 0.82539 0.13729 0.85064 0.0
C399 C 0.80266 0.13457 0.86605 0.0
N400 N 0.83396 0.15485 0.88649 0.0
N401 N 0.79693 0.1503 0.91227 0.0
H402 H 0.8177 0.17389 0.96595 0.0
H403 H 0.83541 0.12571 0.82043 0.0
C404 C 0.86577 0.15415 0.75409 0.0
O405 O 0.84878 0.16868 0.75103 0.0
N406 N 0.89827 0.16384 0.92404 0.0
C407 C 0.90688 0.17958 0.96628 0.0
C408 C 0.92962 0.17512 0.97601 0.0
C409 C 0.91583 0.14998 0.90846 0.0
N410 N 0.9352 0.15651 0.93982 0.0
C411 C 0.85269 0.20693 0.91321 0.0
C412 C 0.88387 0.2226 0.81988 0.0
C413 C 0.87141 0.2386 0.85725 0.0
C414 C 0.8553 0.2304 0.90358 0.0
C415 C 0.88061 0.19937 0.83065 0.0
N416 N 0.86511 0.19163 0.87669 0.0
H417 H 0.84183 0.20129 0.95341 0.0
H418 H 0.89192 0.18769 0.80535 0.0
H419 H 0.89708 0.19292 0.99014 0.0
H420 H 0.91424 0.1349 0.87752 0.0
O421 O 0.85976 0.16301 0.99872 0.0
O422 O 0.86756 0.13043 0.94666 0.0
O423 O 0.87465 0.14916 0.81075 0.0
C424 C 0.86322 0.14115 1.00245 0.0
H425 H 0.79164 0.12104 0.84848 0.0
H426 H 0.94115 0.18467 1.0078 0.0
H427 H 0.89717 0.22785 0.78542 0.0
H428 H 0.84534 0.24198 0.93408 0.0
Co429 Co 0.60176 0.11109 0.63968 0.0
C430 C 0.60066 0.06297 0.68351 0.0
C431 C 0.62274 0.06776 0.59858 0.0
C432 C 0.62559 0.04595 0.62242 0.0
N433 N 0.60716 0.07852 0.637 0.0
N434 N 0.61175 0.04302 0.67586 0.0
H435 H 0.58961 0.0667 0.72567 0.0
H436 H 0.63266 0.07555 0.55903 0.0
C437 C 0.63009 0.12043 0.51687 0.0
O438 O 0.64718 0.12551 0.5567 0.0
N439 N 0.59639 0.14356 0.64432 0.0
C440 C 0.57878 0.15344 0.67681 0.0
C441 C 0.583 0.17634 0.68293 0.0
C442 C 0.61114 0.16067 0.63122 0.0
N443 N 0.6033 0.18079 0.65428 0.0
C444 C 0.55461 0.10055 0.66186 0.0
C445 C 0.53905 0.11869 0.54244 0.0
C446 C 0.52341 0.11546 0.59508 0.0
C447 C 0.53131 0.10502 0.65413 0.0
C448 C 0.56219 0.11469 0.55291 0.0
N449 N 0.56994 0.1068 0.61343 0.0
H450 H 0.56043 0.09421 0.70974 0.0
H451 H 0.57369 0.11982 0.51353 0.0
H452 H 0.56451 0.14447 0.69869 0.0
H453 H 0.62793 0.15839 0.61015 0.0
O454 O 0.59819 0.10966 0.73627 0.0
O455 O 0.63101 0.11555 0.68427 0.0
O456 O 0.61117 0.1137 0.5418 0.0
C457 C 0.61988 0.11353 0.74073 0.0
H458 H 0.63777 0.03357 0.60409 0.0
H459 H 0.5724 0.18867 0.70861 0.0
H460 H 0.53374 0.12578 0.4947 0.0
H461 H 0.52004 0.102 0.69634 0.0
Co462 Co 0.64974 0.8532 0.41577 0.0
C463 C 0.69947 0.84974 0.44135 0.0
C464 C 0.69172 0.87419 0.36498 0.0
C465 C 0.71415 0.87686 0.38339 0.0
N466 N 0.68238 0.85698 0.40065 0.0
N467 N 0.71897 0.86155 0.43164 0.0
H468 H 0.69709 0.8382 0.48304 0.0
H469 H 0.68234 0.88577 0.3332 0.0
C470 C 0.65116 0.85988 0.26591 0.0
O471 O 0.66755 0.84471 0.26194 0.0
N472 N 0.61752 0.85021 0.43345 0.0
C473 C 0.60794 0.83463 0.47436 0.0
C474 C 0.58541 0.84018 0.48371 0.0
C475 C 0.60077 0.86503 0.41823 0.0
N476 N 0.58098 0.85928 0.44857 0.0
C477 C 0.66133 0.80526 0.42142 0.0
C478 C 0.62921 0.79203 0.32753 0.0
C479 C 0.63991 0.77522 0.36604 0.0
C480 C 0.65678 0.782 0.41187 0.0
C481 C 0.63415 0.81492 0.33869 0.0
N482 N 0.64985 0.82148 0.38571 0.0
H483 H 0.67271 0.81014 0.46133 0.0
H484 H 0.62376 0.82736 0.3133 0.0
H485 H 0.61696 0.8207 0.49781 0.0
H486 H 0.60326 0.88027 0.38853 0.0
O487 O 0.65529 0.84896 0.51079 0.0
O488 O 0.64925 0.88217 0.46053 0.0
O489 O 0.64246 0.86487 0.32289 0.0
C490 C 0.65256 0.87091 0.51588 0.0
H491 H 0.72551 0.89023 0.36656 0.0
H492 H 0.57326 0.83107 0.51467 0.0
H493 H 0.61603 0.78762 0.29167 0.0
H494 H 0.66516 0.76959 0.44359 0.0
Co495 Co 0.91036 0.89899 0.15611 0.0
C496 C 0.91276 0.94866 0.18138 0.0
C497 C 0.88855 0.94049 0.10467 0.0
C498 C 0.88557 0.9629 0.12306 0.0
N499 N 0.90584 0.93146 0.14062 0.0
N500 N 0.90079 0.96796 0.17145 0.0
H501 H 0.92415 0.94652 0.2235 0.0
H502 H 0.87721 0.93093 0.07247 0.0
C503 C 0.9045 0.9 1.00633 0.0
O504 O 0.91927 0.91679 1.00318 0.0
N505 N 0.91419 0.86692 0.17441 0.0
C506 C 0.92989 0.85802 0.21617 0.0
C507 C 0.92544 0.83523 0.2242 0.0
C508 C 0.90037 0.84947 0.15737 0.0
N509 N 0.90689 0.8299 0.18739 0.0
C510 C 0.95777 0.9125 0.16204 0.0
C511 C 0.97257 0.88085 0.06891 0.0
C512 C 0.98892 0.89325 0.10502 0.0
C513 C 0.9812 0.90961 0.15124 0.0
C514 C 0.94944 0.88433 0.08096 0.0
N515 N 0.94214 0.89999 0.12704 0.0
H516 H 0.95244 0.9237 0.20178 0.0
H517 H 0.93747 0.87306 0.05663 0.0
H518 H 0.94325 0.86763 0.24065 0.0
H519 H 0.88537 0.85124 0.12617 0.0
O520 O 0.91427 0.90491 0.25077 0.0
O521 O 0.88124 0.89782 0.19998 0.0
O522 O 0.89929 0.89125 0.06303 0.0
C523 C 0.89234 0.90175 0.25536 0.0
H524 H 0.87213 0.97407 0.10587 0.0
H525 H 0.935 0.82347 0.25511 0.0
H526 H 0.97749 0.86742 0.03454 0.0
H527 H 0.99311 0.91954 0.1807 0.0
Co528 Co 0.65002 0.66063 0.92338 0.0
C529 C 0.69907 0.66237 0.9579 0.0
C530 C 0.69372 0.64514 0.86416 0.0
C531 C 0.71632 0.64292 0.88188 0.0
N532 N 0.6828 0.65729 0.91201 0.0
N533 N 0.71956 0.65382 0.94068 0.0
H534 H 0.6958 0.67061 1.00561 0.0
H535 H 0.68581 0.63722 0.82114 0.0
C536 C 0.64041 0.63326 0.79889 0.0
O537 O 0.63957 0.6146 0.8351 0.0
N538 N 0.61745 0.66367 0.93644 0.0
C539 C 0.60703 0.681 0.96837 0.0
C540 C 0.58431 0.67586 0.97544 0.0
C541 C 0.60099 0.64802 0.92545 0.0
N542 N 0.58048 0.65505 0.94885 0.0
C543 C 0.66361 0.70762 0.93532 0.0
C544 C 0.63532 0.72321 0.83424 0.0
C545 C 0.64705 0.73916 0.87372 0.0
C546 C 0.66175 0.73105 0.924 0.0
C547 C 0.63776 0.70007 0.84686 0.0
N548 N 0.65154 0.69246 0.89736 0.0
H549 H 0.67385 0.70179 0.97682 0.0
H550 H 0.62708 0.68844 0.81915 0.0
H551 H 0.61549 0.69612 0.98684 0.0
H552 H 0.60415 0.6315 0.90352 0.0
O553 O 0.65391 0.66393 0.01885 0.0
O554 O 0.6487 0.63104 0.96598 0.0
O555 O 0.64502 0.65229 0.82654 0.0
C556 C 0.65148 0.642 0.02242 0.0
H557 H 0.72917 0.6333 0.85507 0.0
H558 H 0.57164 0.68667 0.99869 0.0
H559 H 0.62317 0.72848 0.79639 0.0
H560 H 0.6712 0.74268 0.95574 0.0
Co561 Co 0.60774 0.3996 0.16007 0.0
C562 C 0.60457 0.44851 0.19038 0.0
C563 C 0.62906 0.44168 0.11259 0.0
C564 C 0.63138 0.46402 0.13261 0.0
N565 N 0.61236 0.43193 0.14915 0.0
N566 N 0.61605 0.46822 0.18167 0.0
H567 H 0.5924 0.44561 0.23046 0.0
H568 H 0.64014 0.4327 0.07814 0.0
C569 C 0.60958 0.37943 0.0205 0.0
O570 O 0.59371 0.36491 0.03894 0.0
N571 N 0.60384 0.36695 0.17372 0.0
C572 C 0.58929 0.3567 0.2169 0.0
C573 C 0.59509 0.33417 0.2231 0.0
C574 C 0.61868 0.35036 0.15559 0.0
N575 N 0.6135 0.33021 0.18453 0.0
C576 C 0.56004 0.40207 0.18989 0.0
C577 C 0.54447 0.40542 0.05949 0.0
C578 C 0.5288 0.40036 0.1109 0.0
C579 C 0.53679 0.39997 0.17727 0.0
C580 C 0.56771 0.40746 0.07467 0.0
N581 N 0.57542 0.40346 0.13844 0.0
H582 H 0.56563 0.40135 0.24144 0.0
H583 H 0.57936 0.41167 0.03459 0.0
H584 H 0.57625 0.36498 0.24599 0.0
H585 H 0.63355 0.35322 0.12442 0.0
O586 O 0.60587 0.40388 0.25599 0.0
O587 O 0.63781 0.39684 0.20035 0.0
O588 O 0.61659 0.39463 0.06189 0.0
C589 C 0.62765 0.40035 0.25778 0.0
H590 H 0.64432 0.47583 0.11558 0.0
H591 H 0.58674 0.32172 0.25485 0.0
H592 H 0.53894 0.40719 1.0078 0.0
H593 H 0.52547 0.39668 0.21919 0.0
Co594 Co 0.86471 0.35335 0.40895 0.0
C595 C 0.81565 0.3492 0.44118 0.0
C596 C 0.82158 0.3728 0.36082 0.0
C597 C 0.79912 0.37455 0.38072 0.0
N598 N 0.832 0.35689 0.3988 0.0
N599 N 0.7955 0.35963 0.43099 0.0
H600 H 0.81879 0.33801 0.48323 0.0
H601 H 0.83007 0.38379 0.3251 0.0
C602 C 0.88623 0.36741 0.27496 0.0
O603 O 0.90649 0.36194 0.29712 0.0
N604 N 0.89742 0.35013 0.42332 0.0
C605 C 0.90877 0.33095 0.43961 0.0
C606 C 0.9311 0.33635 0.45349 0.0
C607 C 0.91292 0.36706 0.43061 0.0
N608 N 0.93373 0.35905 0.44736 0.0
C609 C 0.85377 0.3061 0.42684 0.0
C610 C 0.87548 0.29034 0.31276 0.0
C611 C 0.86758 0.27442 0.35995 0.0
C612 C 0.85581 0.28266 0.41645 0.0
C613 C 0.87268 0.31359 0.32439 0.0
N614 N 0.86262 0.32137 0.38201 0.0
H615 H 0.84622 0.31183 0.47324 0.0
H616 H 0.88017 0.32497 0.28865 0.0
H617 H 0.90143 0.31412 0.44255 0.0
H618 H 0.90911 0.38486 0.4226 0.0
O619 O 0.86096 0.34979 0.50472 0.0
O620 O 0.8659 0.38279 0.45249 0.0
O621 O 0.86849 0.36392 0.31135 0.0
C622 C 0.86316 0.37175 0.50872 0.0
H623 H 0.78677 0.38674 0.3625 0.0
H624 H 0.94447 0.3244 0.46581 0.0
H625 H 0.88506 0.28514 0.26882 0.0
H626 H 0.84894 0.27118 0.4539 0.0
Co627 Co 0.90779 0.61551 0.65909 0.0
C628 C 0.91182 0.56577 0.68058 0.0
C629 C 0.88585 0.574 0.60916 0.0
C630 C 0.88361 0.55143 0.62654 0.0
N631 N 0.90371 0.58309 0.64252 0.0
N632 N 0.89996 0.54634 0.67147 0.0
H633 H 0.92402 0.56785 0.72068 0.0
H634 H 0.87372 0.58361 0.57979 0.0
C635 C 0.90185 0.61397 0.5098 0.0
O636 O 0.91638 0.59699 0.50746 0.0
N637 N 0.91126 0.64759 0.67822 0.0
C638 C 0.92677 0.65652 0.72066 0.0
C639 C 0.92238 0.67933 0.72826 0.0
C640 C 0.89763 0.66505 0.66031 0.0
N641 N 0.90408 0.68466 0.6905 0.0
C642 C 0.95557 0.60428 0.66948 0.0
C643 C 0.96955 0.63531 0.57359 0.0
C644 C 0.98596 0.6253 0.61511 0.0
C645 C 0.97886 0.60895 0.66192 0.0
C646 C 0.9466 0.63035 0.58307 0.0
N647 N 0.93965 0.6151 0.63086 0.0
H648 H 0.95041 0.59359 0.71064 0.0
H649 H 0.93442 0.64053 0.55596 0.0
H650 H 0.94 0.64695 0.7457 0.0
H651 H 0.88287 0.6633 0.62811 0.0
O652 O 0.9116 0.60934 0.75352 0.0
O653 O 0.87857 0.61617 0.70262 0.0
O654 O 0.89681 0.62317 0.56604 0.0
C655 C 0.88964 0.6122 0.75799 0.0
H656 H 0.86992 0.54015 0.6116 0.0
H657 H 0.93188 0.69112 0.75937 0.0
H658 H 0.97427 0.64809 0.53683 0.0
H659 H 0.99096 0.60118 0.69597 0.0
Co660 Co 0.64804 0.35019 0.61479 0.0
C661 C 0.69729 0.34692 0.58422 0.0
C662 C 0.69176 0.36338 0.67902 0.0
C663 C 0.7145 0.36542 0.66219 0.0
N664 N 0.68084 0.35186 0.62985 0.0
N665 N 0.71784 0.35498 0.60273 0.0
H666 H 0.69412 0.33938 0.53547 0.0
H667 H 0.68377 0.3712 0.72208 0.0
C668 C 0.63878 0.37686 0.74086 0.0
O669 O 0.6413 0.39573 0.70627 0.0
N670 N 0.61561 0.3489 0.59758 0.0
C671 C 0.60479 0.33253 0.56256 0.0
C672 C 0.58263 0.33913 0.55215 0.0
C673 C 0.59998 0.36546 0.60704 0.0
N674 N 0.57958 0.35994 0.57963 0.0
C675 C 0.65974 0.30285 0.59922 0.0
C676 C 0.62845 0.28704 0.6922 0.0
C677 C 0.64013 0.27116 0.65223 0.0
C678 C 0.65644 0.27939 0.60646 0.0
C679 C 0.6325 0.31024 0.68409 0.0
N680 N 0.64766 0.31798 0.63721 0.0
H681 H 0.67115 0.3088 0.56053 0.0
H682 H 0.62193 0.32197 0.71183 0.0
H683 H 0.61267 0.31712 0.54401 0.0
H684 H 0.6038 0.38159 0.63066 0.0
O685 O 0.65312 0.34785 0.51936 0.0
O686 O 0.64879 0.38032 0.5748 0.0
O687 O 0.64179 0.35763 0.71234 0.0
C688 C 0.65186 0.36989 0.51758 0.0
H689 H 0.72734 0.3748 0.68978 0.0
H690 H 0.56983 0.32931 0.52584 0.0
H691 H 0.61518 0.28184 0.72677 0.0
H692 H 0.66608 0.26789 0.57481 0.0
Co693 Co 0.91016 0.39961 0.86601 0.0
C694 C 0.91246 0.44839 0.82925 0.0
C695 C 0.89386 0.44346 0.92099 0.0
C696 C 0.89157 0.46584 0.90145 0.0
N697 N 0.9069 0.43241 0.87556 0.0
N698 N 0.90327 0.46885 0.84381 0.0
H699 H 0.92134 0.44484 0.78273 0.0
H700 H 0.88523 0.43569 0.96307 0.0
C701 C 0.88322 0.39038 0.99165 0.0
O702 O 0.86462 0.38834 0.95547 0.0
N703 N 0.9134 0.36704 0.85429 0.0
C704 C 0.9297 0.3572 0.8163 0.0
C705 C 0.92475 0.3345 0.80913 0.0
C706 C 0.89865 0.35013 0.86974 0.0
N707 N 0.90526 0.33009 0.84254 0.0
C708 C 0.95756 0.41081 0.84644 0.0
C709 C 0.97303 0.38383 0.95067 0.0
C710 C 0.98874 0.39204 0.90359 0.0
C711 C 0.98098 0.40654 0.85257 0.0
C712 C 0.94995 0.38836 0.94267 0.0
N713 N 0.94229 0.40113 0.88989 0.0
H714 H 0.95163 0.42035 0.80359 0.0
H715 H 0.93829 0.37964 0.97566 0.0
H716 H 0.94371 0.36615 0.79284 0.0
H717 H 0.88287 0.35255 0.89685 0.0
O718 O 0.91274 0.40298 0.77005 0.0
O719 O 0.88023 0.39795 0.8253 0.0
O720 O 0.90212 0.39535 0.96352 0.0
C721 C 0.89077 0.40044 0.76806 0.0
H722 H 0.88121 0.47864 0.9259 0.0
H723 H 0.93449 0.32221 0.78048 0.0
H724 H 0.97838 0.37267 0.99103 0.0
H725 H 0.99262 0.41308 0.81492 0.0
Co726 Co 0.8678 0.65927 0.11589 0.0
C727 C 0.81789 0.66314 0.09548 0.0
C728 C 0.82633 0.63821 0.16974 0.0
C729 C 0.80363 0.63585 0.15369 0.0
N730 N 0.83536 0.65555 0.1339 0.0
N731 N 0.79842 0.65159 0.10715 0.0
H732 H 0.81982 0.67459 0.05345 0.0
H733 H 0.83602 0.62641 0.19999 0.0
C734 C 0.86687 0.65417 0.2653 0.0
O735 O 0.85048 0.66938 0.26756 0.0
N736 N 0.89989 0.66201 0.09567 0.0
C737 C 0.90981 0.67847 0.05882 0.0
C738 C 0.93228 0.67278 0.04856 0.0
C739 C 0.91627 0.64637 0.10661 0.0
N740 N 0.93635 0.65251 0.07824 0.0
C741 C 0.85538 0.70682 0.10841 0.0
C742 C 0.88711 0.72156 0.20133 0.0
C743 C 0.87463 0.73789 0.16553 0.0
C744 C 0.85829 0.73018 0.1193 0.0
C745 C 0.88355 0.69844 0.18934 0.0
N746 N 0.86774 0.69118 0.14361 0.0
H747 H 0.84424 0.70155 0.06852 0.0
H748 H 0.89474 0.68644 0.2137 0.0
H749 H 0.90117 0.69333 0.03948 0.0
H750 H 0.91323 0.63049 0.13257 0.0
O751 O 0.86136 0.66294 0.02156 0.0
O752 O 0.8678 0.62997 0.07316 0.0
O753 O 0.87568 0.64853 0.20901 0.0
C754 C 0.86376 0.64094 0.01765 0.0
H755 H 0.79233 0.62247 0.17071 0.0
H756 H 0.94459 0.6829 0.02121 0.0
H757 H 0.90056 0.72648 0.23567 0.0
H758 H 0.8483 0.74206 0.09001 0.0
Co759 Co 0.60426 0.61375 0.38153 0.0
C760 C 0.60385 0.56484 0.34645 0.0
C761 C 0.62659 0.57183 0.42835 0.0
C762 C 0.62961 0.54957 0.4083 0.0
N763 N 0.61045 0.58145 0.38946 0.0
N764 N 0.61531 0.54526 0.35681 0.0
H765 H 0.5925 0.56748 0.30442 0.0
H766 H 0.6367 0.58076 0.4654 0.0
C767 C 0.61351 0.63506 0.51883 0.0
O768 O 0.60269 0.65361 0.50104 0.0
N769 N 0.59829 0.64614 0.3699 0.0
C770 C 0.57842 0.65552 0.35056 0.0
C771 C 0.58138 0.67854 0.34301 0.0
C772 C 0.61336 0.66367 0.37099 0.0
N773 N 0.60329 0.68385 0.35677 0.0
C774 C 0.55798 0.6006 0.35663 0.0
C775 C 0.53981 0.61729 0.47473 0.0
C776 C 0.5249 0.61163 0.42209 0.0
C777 C 0.53433 0.60193 0.36388 0.0
C778 C 0.5633 0.61519 0.46599 0.0
N779 N 0.57229 0.60843 0.40576 0.0
H780 H 0.5646 0.59474 0.30914 0.0
H781 H 0.57384 0.62026 0.50716 0.0
H782 H 0.56279 0.64638 0.34112 0.0
H783 H 0.63111 0.66169 0.38439 0.0
O784 O 0.60163 0.61051 0.28546 0.0
O785 O 0.6338 0.61799 0.33959 0.0
O786 O 0.61416 0.61778 0.47945 0.0
C787 C 0.62335 0.61455 0.2827 0.0
H788 H 0.64217 0.53781 0.42774 0.0
H789 H 0.56827 0.69033 0.32752 0.0
H790 H 0.53367 0.62471 0.52116 0.0
H791 H 0.52364 0.59641 0.3226 0.0
Co792 Co 0.37118 0.35254 0.10041 0.0
C793 C 0.32221 0.35734 0.06628 0.0
C794 C 0.32668 0.35089 0.17152 0.0
C795 C 0.30361 0.35179 0.15769 0.0
N796 N 0.33836 0.35445 0.11405 0.0
N797 N 0.30089 0.35588 0.09133 0.0
H798 H 0.3258 0.35943 1.01338 0.0
H799 H 0.33432 0.34722 0.2198 0.0
C800 C 0.37573 0.37941 0.22862 0.0
O801 O 0.36842 0.39765 0.19725 0.0
N802 N 0.40364 0.35063 0.08541 0.0
C803 C 0.41435 0.33447 0.0493 0.0
C804 C 0.4369 0.34039 0.04289 0.0
C805 C 0.4197 0.36633 0.0999 0.0
N806 N 0.44028 0.3605 0.07432 0.0
C807 C 0.35697 0.30578 0.09102 0.0
C808 C 0.38752 0.28977 0.18571 0.0
C809 C 0.374 0.27404 0.15072 0.0
C810 C 0.35834 0.28233 0.10326 0.0
C811 C 0.3856 0.31289 0.17213 0.0
N812 N 0.37065 0.32064 0.12495 0.0
H813 H 0.34537 0.312 0.05302 0.0
H814 H 0.39714 0.32444 0.19701 0.0
H815 H 0.40618 0.31964 0.02787 0.0
H816 H 0.41615 0.38204 0.12632 0.0
O817 O 0.36682 0.3496 1.00485 0.0
O818 O 0.3715 0.38238 0.05879 0.0
O819 O 0.377 0.3605 0.19742 0.0
C820 C 0.36897 0.37159 1.00188 0.0
H821 H 0.28997 0.34937 0.19365 0.0
H822 H 0.44979 0.33057 0.01697 0.0
H823 H 0.40038 0.28428 0.22118 0.0
H824 H 0.34751 0.27083 0.07511 0.0
Co825 Co 0.41224 0.61586 0.87384 0.0
C826 C 0.41521 0.56723 0.83846 0.0
C827 C 0.39147 0.57314 0.9189 0.0
C828 C 0.38927 0.55093 0.89777 0.0
N829 N 0.40764 0.58339 0.88144 0.0
N830 N 0.40412 0.5473 0.84704 0.0
H831 H 0.42697 0.57055 0.79761 0.0
H832 H 0.38068 0.58165 0.95514 0.0
C833 C 0.40657 0.63574 1.01333 0.0
O834 O 0.42079 0.65208 0.99688 0.0
N835 N 0.4163 0.64869 0.86397 0.0
C836 C 0.4357 0.66045 0.85217 0.0
C837 C 0.43077 0.68327 0.84967 0.0
C838 C 0.39972 0.66473 0.86678 0.0
N839 N 0.4082 0.68594 0.8587 0.0
C840 C 0.45984 0.61085 0.84507 0.0
C841 C 0.47554 0.61262 0.97568 0.0
C842 C 0.49124 0.6153 0.92282 0.0
C843 C 0.48317 0.61305 0.85683 0.0
C844 C 0.45225 0.6104 0.96155 0.0
N845 N 0.44448 0.6117 0.89684 0.0
H846 H 0.45422 0.61061 0.79352 0.0
H847 H 0.44071 0.6082 1.00312 0.0
H848 H 0.45252 0.65345 0.847 0.0
H849 H 0.382 0.66106 0.8773 0.0
O850 O 0.41468 0.61281 0.77758 0.0
O851 O 0.38238 0.61873 0.83237 0.0
O852 O 0.40234 0.61963 0.97167 0.0
C853 C 0.39284 0.61585 0.77519 0.0
H854 H 0.37673 0.53879 0.91542 0.0
H855 H 0.4429 0.69696 0.84266 0.0
H856 H 0.48108 0.61292 0.02763 0.0
H857 H 0.49447 0.61468 0.81401 0.0
Co858 Co 0.14648 0.66411 0.61004 0.0
C859 C 0.19483 0.66046 0.5694 0.0
C860 C 0.19174 0.66048 0.67683 0.0
C861 C 0.2146 0.65971 0.65996 0.0
N862 N 0.17932 0.6608 0.6198 0.0
N863 N 0.21643 0.65985 0.59226 0.0
H864 H 0.19059 0.66092 0.5166 0.0
H865 H 0.18484 0.66141 0.7272 0.0
C866 C 0.14105 0.63695 0.73723 0.0
O867 O 0.14615 0.61838 0.70368 0.0
N868 N 0.11407 0.66775 0.59843 0.0
C869 C 0.10427 0.68455 0.56273 0.0
C870 C 0.08116 0.68118 0.56237 0.0
C871 C 0.09685 0.6541 0.61855 0.0
N872 N 0.07646 0.66208 0.59745 0.0
C873 C 0.16176 0.71045 0.59737 0.0
C874 C 0.13334 0.72741 0.69657 0.0
C875 C 0.14599 0.74278 0.65757 0.0
C876 C 0.16068 0.73401 0.60806 0.0
C877 C 0.1349 0.70419 0.68431 0.0
N878 N 0.1487 0.69595 0.6347 0.0
H879 H 0.17236 0.7039 0.55733 0.0
H880 H 0.12368 0.693 0.71175 0.0
H881 H 0.11341 0.69815 0.53783 0.0
H882 H 0.0992 0.63872 0.64763 0.0
O883 O 0.14983 0.66684 0.51393 0.0
O884 O 0.14443 0.63432 0.56829 0.0
O885 O 0.14137 0.6562 0.70763 0.0
C886 C 0.14706 0.64492 0.51119 0.0
H887 H 0.22875 0.65984 0.69485 0.0
H888 H 0.06879 0.69168 0.53665 0.0
H889 H 0.1212 0.73326 0.73383 0.0
H890 H 0.17079 0.74523 0.57678 0.0
Co891 Co 0.10133 0.39928 0.37521 0.0
C892 C 0.09848 0.44808 0.3424 0.0
C893 C 0.12212 0.4417 0.42258 0.0
C894 C 0.12448 0.46398 0.40231 0.0
N895 N 0.10592 0.43169 0.38474 0.0
N896 N 0.1097 0.4679 0.35172 0.0
H897 H 0.08677 0.44499 0.30133 0.0
H898 H 0.13288 0.43298 0.45832 0.0
C899 C 0.10722 0.37904 0.51437 0.0
O900 O 0.09246 0.36304 0.49901 0.0
N901 N 0.09728 0.36666 0.36289 0.0
C902 C 0.08082 0.3563 0.32662 0.0
C903 C 0.0863 0.33374 0.31861 0.0
C904 C 0.11286 0.35017 0.37505 0.0
N905 N 0.10637 0.32991 0.34917 0.0
C906 C 0.05348 0.40377 0.34956 0.0
C907 C 0.03858 0.40137 0.48103 0.0
C908 C 0.02262 0.39892 0.429 0.0
C909 C 0.03024 0.40142 0.36265 0.0
C910 C 0.06175 0.40404 0.46553 0.0
N911 N 0.06917 0.403 0.40031 0.0
H912 H 0.0588 0.40457 0.29771 0.0
H913 H 0.07346 0.40647 0.50646 0.0
H914 H 0.06638 0.36453 0.30385 0.0
H915 H 0.12895 0.35312 0.40021 0.0
O916 O 0.09853 0.40298 0.27901 0.0
O917 O 0.13098 0.39657 0.33219 0.0
O918 O 0.11166 0.39493 0.47226 0.0
C919 C 0.12033 0.39966 0.27549 0.0
H920 H 0.13714 0.47594 0.42024 0.0
H921 H 0.07645 0.32115 0.29146 0.0
H922 H 0.03329 0.40068 0.53322 0.0
H923 H 0.01859 0.40005 0.32062 0.0
Co924 Co 0.36791 0.66281 0.41721 0.0
C925 C 0.3192 0.66053 0.45567 0.0
C926 C 0.32283 0.66454 0.34906 0.0
C927 C 0.29988 0.66404 0.36488 0.0
N928 N 0.33496 0.66223 0.40619 0.0
N929 N 0.29769 0.66145 0.43211 0.0
H930 H 0.32322 0.65943 0.50852 0.0
H931 H 0.33006 0.66679 0.29944 0.0
C932 C 0.37294 0.6362 0.28863 0.0
O933 O 0.36866 0.61727 0.32138 0.0
N934 N 0.4005 0.66337 0.43007 0.0
C935 C 0.41159 0.67737 0.47269 0.0
C936 C 0.43373 0.67005 0.47882 0.0
C937 C 0.41599 0.64776 0.41044 0.0
N938 N 0.43636 0.65153 0.43973 0.0
C939 C 0.35589 0.71004 0.42911 0.0
C940 C 0.38764 0.72513 0.33617 0.0
C941 C 0.37513 0.74127 0.37274 0.0
C942 C 0.35876 0.73346 0.41902 0.0
C943 C 0.38417 0.70206 0.34748 0.0
N944 N 0.36871 0.69476 0.39401 0.0
H945 H 0.34393 0.70416 0.4667 0.0
H946 H 0.39502 0.69008 0.3216 0.0
H947 H 0.4038 0.69131 0.49981 0.0
H948 H 0.41217 0.63329 0.37869 0.0
O949 O 0.3644 0.6656 0.51295 0.0
O950 O 0.36729 0.6328 0.45792 0.0
O951 O 0.37247 0.65522 0.31941 0.0
C952 C 0.36562 0.64354 0.5152 0.0
H953 H 0.28595 0.66548 0.32953 0.0
H954 H 0.44679 0.67744 0.51049 0.0
H955 H 0.40094 0.73018 0.30144 0.0
H956 H 0.34861 0.74528 0.44816 0.0
Co957 Co 0.10416 0.6127 0.15217 0.0
C958 C 0.10051 0.56389 0.18288 0.0
C959 C 0.12506 0.57036 0.10495 0.0
C960 C 0.12686 0.54794 0.12443 0.0
N961 N 0.10864 0.58036 0.14192 0.0
N962 N 0.1115 0.54396 0.17359 0.0
H963 H 0.08841 0.56696 0.22303 0.0
H964 H 0.13624 0.57914 0.07034 0.0
C965 C 0.10763 0.63298 1.0129 0.0
O966 O 0.09192 0.64777 0.03032 0.0
N967 N 0.10028 0.6453 0.16504 0.0
C968 C 0.08482 0.65571 0.20493 0.0
C969 C 0.09077 0.67817 0.21234 0.0
C970 C 0.11572 0.66167 0.14997 0.0
N971 N 0.11014 0.68187 0.17777 0.0
C972 C 0.05654 0.6093 0.18117 0.0
C973 C 0.04079 0.60855 0.0506 0.0
C974 C 0.02519 0.61246 0.10305 0.0
C975 C 0.03329 0.61156 0.16921 0.0
C976 C 0.06407 0.60622 0.06511 0.0
N977 N 0.07188 0.60889 0.12943 0.0
H978 H 0.06214 0.60942 0.23275 0.0
H979 H 0.07562 0.60284 0.02417 0.0
H980 H 0.07095 0.64757 0.23098 0.0
H981 H 0.13125 0.6586 0.12197 0.0
O982 O 0.10183 0.60876 0.24821 0.0
O983 O 0.13404 0.61557 0.19393 0.0
O984 O 0.11372 0.61744 0.05437 0.0
C985 C 0.12357 0.61243 0.25104 0.0
H986 H 0.13948 0.53588 0.1069 0.0
H987 H 0.08186 0.69074 0.24228 0.0
H988 H 0.03517 0.60786 0.99875 0.0
H989 H 0.02205 0.61407 0.21181 0.0
Co990 Co 0.14882 0.35246 0.91569 0.0
C991 C 0.1972 0.35541 0.95773 0.0
C992 C 0.19415 0.35873 0.85074 0.0
C993 C 0.21693 0.35995 0.86789 0.0
N994 N 0.18172 0.356 0.90728 0.0
N995 N 0.21878 0.35778 0.93528 0.0
H996 H 0.19288 0.35329 1.01018 0.0
H997 H 0.18734 0.35945 0.8003 0.0
C998 C 0.14142 0.37929 0.78867 0.0
O999 O 0.14291 0.39828 0.82328 0.0
N1000 N 0.11631 0.34876 0.9258 0.0
C1001 C 0.10623 0.33208 0.96143 0.0
C1002 C 0.08312 0.3355 0.96064 0.0
C1003 C 0.09926 0.36238 0.90457 0.0
N1004 N 0.0787 0.3545 0.92483 0.0
C1005 C 0.16403 0.30612 0.92859 0.0
C1006 C 0.13549 0.2892 0.82971 0.0
C1007 C 0.14787 0.27381 0.86917 0.0
C1008 C 0.16267 0.28255 0.91838 0.0
C1009 C 0.13733 0.31242 0.84149 0.0
N1010 N 0.15116 0.32065 0.891 0.0
H1011 H 0.17461 0.31264 0.9687 0.0
H1012 H 0.12616 0.32363 0.81412 0.0
H1013 H 0.11516 0.31855 0.98712 0.0
H1014 H 0.10184 0.3777 0.87544 0.0
O1015 O 0.15165 0.34959 1.01173 0.0
O1016 O 0.14642 0.38221 0.95772 0.0
O1017 O 0.14437 0.36021 0.81782 0.0
C1018 C 0.14866 0.37146 0.01473 0.0
H1019 H 0.23103 0.36177 0.83318 0.0
H1020 H 0.07059 0.3251 0.98619 0.0
H1021 H 0.12326 0.2834 0.7927 0.0
H1022 H 0.17259 0.27131 0.95 0.0
Co1023 Co 0.41349 0.40306 0.64301 0.0
C1024 C 0.41548 0.45183 0.67591 0.0
C1025 C 0.39097 0.44487 0.59839 0.0
C1026 C 0.38847 0.46714 0.61884 0.0
N1027 N 0.40781 0.43527 0.63446 0.0
N1028 N 0.40382 0.47142 0.66773 0.0
H1029 H 0.42779 0.44901 0.71556 0.0
H1030 H 0.38002 0.43586 0.56366 0.0
C1031 C 0.41013 0.38307 0.50309 0.0
O1032 O 0.42594 0.36831 0.51974 0.0
N1033 N 0.41868 0.37056 0.65418 0.0
C1034 C 0.43621 0.36052 0.68632 0.0
C1035 C 0.43223 0.33757 0.68998 0.0
C1036 C 0.40384 0.35345 0.64088 0.0
N1037 N 0.41196 0.33301 0.66107 0.0
C1038 C 0.46081 0.40932 0.67299 0.0
C1039 C 0.47715 0.40733 0.54313 0.0
C1040 C 0.49252 0.40433 0.59662 0.0
C1041 C 0.48415 0.40686 0.66222 0.0
C1042 C 0.4538 0.4098 0.55644 0.0
N1043 N 0.4457 0.40824 0.62079 0.0
H1044 H 0.45497 0.40989 0.72435 0.0
H1045 H 0.44246 0.41226 0.51458 0.0
H1046 H 0.45051 0.36904 0.70892 0.0
H1047 H 0.38751 0.35598 0.61684 0.0
O1048 O 0.41549 0.40653 0.73924 0.0
O1049 O 0.38363 0.39895 0.68418 0.0
O1050 O 0.40413 0.39855 0.54499 0.0
C1051 C 0.39384 0.40232 0.74151 0.0
H1052 H 0.37544 0.47886 0.60205 0.0
H1053 H 0.44314 0.32532 0.71461 0.0
H1054 H 0.48296 0.40696 0.49141 0.0
H1055 H 0.49516 0.40517 0.70558 0.0
C1056 C 0.13792 0.14095 0.08717 0.0
C1057 C 0.12077 0.12423 0.09123 0.0
H1058 H 0.16018 0.16354 0.14047 0.0
C1059 C 0.11313 0.11731 0.15501 0.0
H1060 H 0.14423 0.14671 0.03884 0.0
C1061 C 0.12226 0.12705 0.21331 0.0
C1062 C 0.13931 0.14388 0.20924 0.0
H1063 H 0.09994 0.10452 0.16 0.0
H1064 H 0.11584 0.12141 0.26163 0.0
C1065 C 0.14711 0.15063 0.14548 0.0
C1066 C 0.12609 0.90073 0.41894 0.0
C1067 C 0.11669 0.88133 0.44983 0.0
H1068 H 0.14027 0.91527 0.32888 0.0
C1069 C 0.11536 0.86106 0.41236 0.0
H1070 H 0.1273 0.91662 0.44632 0.0
C1071 C 0.12308 0.86019 0.34573 0.0
C1072 C 0.13199 0.87966 0.31404 0.0
H1073 H 0.10835 0.84575 0.43461 0.0
H1074 H 0.12163 0.84426 0.31872 0.0
C1075 C 0.13345 0.89996 0.35155 0.0
C1076 C 0.39518 0.85475 0.65769 0.0
C1077 C 0.38992 0.86696 0.71645 0.0
H1078 H 0.40338 0.85629 0.5526 0.0
C1079 C 0.3885 0.89081 0.71321 0.0
H1080 H 0.39637 0.83636 0.65882 0.0
C1081 C 0.39321 0.90229 0.6529 0.0
C1082 C 0.39863 0.89007 0.59422 0.0
H1083 H 0.38464 0.90063 0.75794 0.0
H1084 H 0.39274 0.92071 0.65219 0.0
C1085 C 0.3991 0.86616 0.59692 0.0
C1086 C 0.38284 0.11538 0.85091 0.0
C1087 C 0.3823 0.13617 0.81566 0.0
H1088 H 0.39066 0.09826 0.94384 0.0
C1089 C 0.38906 0.15604 0.84978 0.0
H1090 H 0.3777 0.09973 0.82638 0.0
C1091 C 0.39684 0.15511 0.91623 0.0
C1092 C 0.39765 0.13437 0.95123 0.0
H1093 H 0.3889 0.17235 0.82482 0.0
H1094 H 0.40229 0.17074 0.94028 0.0
C1095 C 0.39019 0.11452 0.91826 0.0
C1096 C 0.86844 0.86375 0.88944 0.0
C1097 C 0.87567 0.87123 0.8258 0.0
H1098 H 0.87187 0.8669 0.99618 0.0
C1099 C 0.89221 0.88855 0.82202 0.0
H1100 H 0.85578 0.85043 0.8942 0.0
C1101 C 0.9014 0.89809 0.88051 0.0
C1102 C 0.89435 0.89044 0.94415 0.0
H1103 H 0.89818 0.89474 0.77378 0.0
H1104 H 0.91419 0.91129 0.87574 0.0
C1105 C 0.87771 0.87321 0.94794 0.0
C1106 C 0.86679 0.15006 0.62835 0.0
C1107 C 0.87495 0.14359 0.69192 0.0
H1108 H 0.86914 0.14579 0.52167 0.0
C1109 C 0.89209 0.1269 0.69563 0.0
H1110 H 0.85362 0.16285 0.62362 0.0
C1111 C 0.90094 0.117 0.63713 0.0
C1112 C 0.89293 0.12363 0.57353 0.0
H1113 H 0.89877 0.12147 0.7438 0.0
H1114 H 0.91421 0.10432 0.64183 0.0
C1115 C 0.87571 0.14025 0.56985 0.0
C1116 C 0.64982 0.14189 0.34568 0.0
C1117 C 0.63679 0.12857 0.30119 0.0
H1118 H 0.65829 0.14941 0.4484 0.0
C1119 C 0.62166 0.1124 0.32829 0.0
H1120 H 0.66165 0.15447 0.32643 0.0
C1121 C 0.61934 0.10986 0.39821 0.0
C1122 C 0.63258 0.12298 0.44268 0.0
H1123 H 0.61128 0.10196 0.29542 0.0
H1124 H 0.60733 0.09745 0.41748 0.0
C1125 C 0.64796 0.13891 0.41555 0.0
C1126 C 0.64963 0.86405 0.14026 0.0
C1127 C 0.64204 0.87078 0.20428 0.0
H1128 H 0.64657 0.8681 0.03374 0.0
C1129 C 0.62529 0.88786 0.20892 0.0
H1130 H 0.66249 0.85096 0.1348 0.0
C1131 C 0.6162 0.89779 0.15089 0.0
C1132 C 0.62355 0.89081 0.08686 0.0
H1133 H 0.61905 0.8935 0.25745 0.0
H1134 H 0.60319 0.91072 0.1563 0.0
C1135 C 0.64047 0.8739 0.08226 0.0
C1136 C 0.62798 0.65386 0.62235 0.0
C1137 C 0.62233 0.63368 0.58848 0.0
H1138 H 0.63851 0.66949 0.71383 0.0
C1139 C 0.62396 0.61289 0.62313 0.0
H1140 H 0.62715 0.67013 0.59686 0.0
C1141 C 0.6302 0.6125 0.6914 0.0
C1142 C 0.63523 0.63288 0.72569 0.0
H1143 H 0.61966 0.59706 0.59823 0.0
H1144 H 0.63071 0.59634 0.71748 0.0
C1145 C 0.6345 0.65346 0.68972 0.0
C1146 C 0.62344 0.35809 0.84496 0.0
C1147 C 0.63216 0.37764 0.81325 0.0
H1148 H 0.6094 0.34341 0.93447 0.0
C1149 C 0.63405 0.39781 0.85117 0.0
H1150 H 0.6217 0.34226 0.81759 0.0
C1151 C 0.62729 0.39835 0.91906 0.0
C1152 C 0.61807 0.37888 0.95 0.0
H1153 H 0.64075 0.41316 0.82846 0.0
H1154 H 0.6288 0.41415 0.94682 0.0
C1155 C 0.6163 0.35876 0.91212 0.0
C1156 C 0.90304 0.38884 0.10276 0.0
C1157 C 0.88289 0.38618 0.06541 0.0
H1158 H 0.91973 0.38521 0.19742 0.0
C1159 C 0.86309 0.37868 0.09895 0.0
H1160 H 0.91856 0.39485 0.0792 0.0
C1161 C 0.86374 0.37328 0.16784 0.0
C1162 C 0.88423 0.3751 0.20412 0.0
H1163 H 0.84726 0.37652 0.07176 0.0
H1164 H 0.84843 0.367 0.19206 0.0
C1165 C 0.90372 0.38331 0.1709 0.0
C1166 C 0.8917 0.62603 0.32497 0.0
C1167 C 0.87545 0.6436 0.32787 0.0
H1168 H 0.91265 0.60277 0.37995 0.0
C1169 C 0.86765 0.65099 0.39101 0.0
H1170 H 0.89806 0.6199 0.27709 0.0
C1171 C 0.87609 0.6412 0.44998 0.0
C1172 C 0.89243 0.62372 0.4471 0.0
H1173 H 0.85516 0.66448 0.39503 0.0
H1174 H 0.86984 0.64745 0.49786 0.0
C1175 C 0.90005 0.61616 0.38394 0.0
C1176 C 0.4034 0.36281 0.39417 0.0
C1177 C 0.4005 0.38239 0.43384 0.0
H1178 H 0.39778 0.34645 0.29983 0.0
C1179 C 0.38877 0.40104 0.40605 0.0
H1180 H 0.41219 0.34805 0.41391 0.0
C1181 C 0.38057 0.4002 0.33956 0.0
C1182 C 0.38367 0.38058 0.29984 0.0
H1183 H 0.38625 0.4164 0.43523 0.0
H1184 H 0.37189 0.41492 0.31929 0.0
C1185 C 0.39503 0.36187 0.32845 0.0
C1186 C 0.39633 0.65573 0.12009 0.0
C1187 C 0.39675 0.63553 0.08233 0.0
H1188 H 0.38817 0.67186 0.21311 0.0
C1189 C 0.3883 0.61546 0.11193 0.0
H1190 H 0.40247 0.67154 0.09875 0.0
C1191 C 0.38026 0.61555 0.17867 0.0
C1192 C 0.38019 0.63578 0.2167 0.0
H1193 H 0.38841 0.5996 0.08415 0.0
H1194 H 0.37431 0.59976 0.2006 0.0
C1195 C 0.38803 0.65589 0.18597 0.0
C1196 C 0.11509 0.65381 0.90533 0.0
C1197 C 0.11717 0.63381 0.9435 0.0
H1198 H 0.12115 0.67055 0.81179 0.0
C1199 C 0.12789 0.61483 0.91399 0.0
H1200 H 0.1071 0.6688 0.92648 0.0
C1201 C 0.13582 0.61575 0.84719 0.0
C1202 C 0.13354 0.63578 0.80891 0.0
H1203 H 0.12973 0.59914 0.94199 0.0
H1204 H 0.14365 0.60076 0.82551 0.0
C1205 C 0.12328 0.65483 0.83931 0.0
C1206 C 0.12776 0.35907 0.68496 0.0
C1207 C 0.13418 0.37951 0.71675 0.0
H1208 H 0.1141 0.34301 0.59711 0.0
C1209 C 0.13259 0.3999 0.67991 0.0
H1210 H 0.12884 0.34299 0.7111 0.0
C1211 C 0.12444 0.39981 0.61337 0.0
C1212 C 0.1173 0.37939 0.58288 0.0
H1213 H 0.13742 0.41595 0.70263 0.0
H1214 H 0.12313 0.41579 0.58653 0.0
C1215 C 0.11922 0.35905 0.61934 0.0
C1216 C 0.13252 0.1127 0.59254 0.0
C1217 C 0.14781 0.13097 0.58601 0.0
H1218 H 0.11265 0.09237 0.66031 0.0
C1219 C 0.15781 0.14037 0.64372 0.0
H1220 H 0.12445 0.10529 0.54867 0.0
C1221 C 0.15154 0.13252 0.70738 0.0
C1222 C 0.1347 0.11566 0.71397 0.0
H1223 H 0.16963 0.15449 0.63972 0.0
H1224 H 0.15849 0.14093 0.75136 0.0
C1225 C 0.12573 0.10533 0.65621 0.0
C1226 C 0.1526 0.88102 0.8302 0.0
C1227 C 0.13638 0.89839 0.82351 0.0
H1228 H 0.17007 0.85868 0.89803 0.0
C1229 C 0.12802 0.90916 0.88169 0.0
H1230 H 0.15908 0.87225 0.78619 0.0
C1231 C 0.13462 0.90171 0.94563 0.0
C1232 C 0.14923 0.88296 0.95236 0.0
H1233 H 0.11541 0.92255 0.87777 0.0
H1234 H 0.12687 0.90944 0.98954 0.0
C1235 C 0.15876 0.87318 0.89417 0.0
C1236 C 0.39028 0.90064 0.09047 0.0
C1237 C 0.37259 0.88474 0.08338 0.0
H1238 H 0.41161 0.919 0.15933 0.0
C1239 C 0.36037 0.87778 0.14051 0.0
H1240 H 0.40005 0.9061 0.04708 0.0
C1241 C 0.36662 0.88548 0.20432 0.0
C1242 C 0.38559 0.89981 0.21214 0.0
H1243 H 0.34662 0.86554 0.13611 0.0
H1244 H 0.35765 0.87885 0.24777 0.0
C1245 C 0.39692 0.90793 0.15459 0.0
C1246 C 0.38829 0.10741 0.38314 0.0
C1247 C 0.37983 0.11802 0.32493 0.0
H1248 H 0.38951 0.10735 0.49099 0.0
C1249 C 0.36367 0.13545 0.33161 0.0
H1250 H 0.40087 0.09398 0.37921 0.0
C1251 C 0.35759 0.14345 0.39554 0.0
C1252 C 0.36716 0.13377 0.45371 0.0
H1253 H 0.35712 0.1441 0.28757 0.0
H1254 H 0.34626 0.15793 0.39937 0.0
C1255 C 0.38177 0.11502 0.44705 0.0
C1256 C 0.8906 0.90904 0.37842 0.0
C1257 C 0.88138 0.89872 0.32097 0.0
H1258 H 0.89166 0.90951 0.48597 0.0
C1259 C 0.86383 0.88262 0.32784 0.0
H1260 H 0.90416 0.92148 0.37406 0.0
C1261 C 0.8571 0.87536 0.39161 0.0
C1262 C 0.86737 0.88462 0.44904 0.0
H1263 H 0.8566 0.87431 0.28409 0.0
H1264 H 0.84474 0.86172 0.39596 0.0
C1265 C 0.88337 0.90226 0.44221 0.0
C1266 C 0.8894 0.10533 0.13775 0.0
C1267 C 0.87988 0.11514 0.19556 0.0
H1268 H 0.89082 0.1055 0.03022 0.0
C1269 C 0.86225 0.13114 0.18905 0.0
H1270 H 0.90305 0.093 0.14176 0.0
C1271 C 0.85568 0.13874 0.12547 0.0
C1272 C 0.86619 0.12992 0.06773 0.0
H1273 H 0.85481 0.13911 0.23307 0.0
H1274 H 0.8432 0.15225 0.12157 0.0
C1275 C 0.88234 0.11243 0.07413 0.0
C1276 C 0.647 0.13474 0.81465 0.0
C1277 C 0.63039 0.11775 0.80704 0.0
H1278 H 0.66523 0.15613 0.8837 0.0
C1279 C 0.62154 0.10704 0.86468 0.0
H1280 H 0.65388 0.14342 0.77105 0.0
C1281 C 0.6284 0.11392 0.929 0.0
C1282 C 0.64372 0.13207 0.93671 0.0
H1283 H 0.60865 0.09391 0.86003 0.0
H1284 H 0.62055 0.10607 0.97258 0.0
C1285 C 0.65338 0.14206 0.87903 0.0
C1286 C 0.65235 0.88038 0.70316 0.0
C1287 C 0.63533 0.89707 0.70914 0.0
H1288 H 0.67105 0.85865 0.6362 0.0
C1289 C 0.62638 0.90712 0.65102 0.0
H1290 H 0.65929 0.87218 0.74743 0.0
C1291 C 0.63355 0.8998 0.58762 0.0
C1292 C 0.64922 0.88183 0.58163 0.0
H1293 H 0.61316 0.91992 0.65461 0.0
H1294 H 0.62559 0.90707 0.54344 0.0
C1295 C 0.659 0.87256 0.63974 0.0
C1296 C 0.63316 0.61309 0.09586 0.0
C1297 C 0.64874 0.63101 0.08827 0.0
H1298 H 0.6127 0.59386 0.16475 0.0
C1299 C 0.65862 0.64088 0.14567 0.0
H1300 H 0.62518 0.60536 0.05232 0.0
C1301 C 0.65181 0.63402 0.2099 0.0
C1302 C 0.63463 0.61762 0.21733 0.0
H1303 H 0.67069 0.65476 0.14085 0.0
H1304 H 0.65866 0.64281 0.25337 0.0
C1305 C 0.62594 0.60662 0.16004 0.0
C1306 C 0.66064 0.37175 0.39505 0.0
C1307 C 0.65076 0.38172 0.4524 0.0
H1308 H 0.66154 0.37051 0.28723 0.0
C1309 C 0.6366 0.40075 0.44476 0.0
H1310 H 0.67165 0.35705 0.3998 0.0
C1311 C 0.63052 0.40816 0.38043 0.0
C1312 C 0.63898 0.39701 0.32302 0.0
H1313 H 0.62865 0.40862 0.48814 0.0
H1314 H 0.61809 0.42167 0.37558 0.0
C1315 C 0.65499 0.37952 0.33072 0.0
C1316 C 0.86255 0.38039 0.69623 0.0
C1317 C 0.87931 0.39726 0.70314 0.0
H1318 H 0.84433 0.35882 0.62782 0.0
C1319 C 0.88787 0.40814 0.64554 0.0
H1320 H 0.85591 0.37161 0.74 0.0
C1321 C 0.8809 0.4012 0.58159 0.0
C1322 C 0.86578 0.38285 0.57453 0.0
H1323 H 0.90086 0.42117 0.64989 0.0
H1324 H 0.88875 0.40893 0.53784 0.0
C1325 C 0.85605 0.37301 0.63221 0.0
C1326 C 0.88799 0.6046 0.88069 0.0
C1327 C 0.87874 0.61511 0.82367 0.0
H1328 H 0.8897 0.60424 0.98811 0.0
C1329 C 0.86156 0.63152 0.83127 0.0
H1330 H 0.90127 0.59192 0.87573 0.0
C1331 C 0.85538 0.639 0.89533 0.0
C1332 C 0.86584 0.62964 0.95228 0.0
H1333 H 0.85433 0.63997 0.78783 0.0
H1334 H 0.84338 0.65291 0.90021 0.0
C1335 C 0.88131 0.61161 0.94477 0.0
C1336 C 0.38479 0.40217 0.92872 0.0
C1337 C 0.37069 0.38306 0.93618 0.0
H1338 H 0.40327 0.42333 0.85983 0.0
C1339 C 0.36112 0.37292 0.87865 0.0
H1340 H 0.39248 0.4102 0.97224 0.0
C1341 C 0.36689 0.38074 0.81438 0.0
C1342 C 0.38272 0.39845 0.80692 0.0
H1343 H 0.35014 0.35817 0.88324 0.0
H1344 H 0.36047 0.37172 0.77078 0.0
C1345 C 0.39099 0.40963 0.86448 0.0
C1346 C 0.36414 0.63478 0.70223 0.0
C1347 C 0.38143 0.61855 0.70986 0.0
H1348 H 0.3455 0.65555 0.63297 0.0
C1349 C 0.39038 0.60771 0.65258 0.0
H1350 H 0.35714 0.64348 0.74564 0.0
C1351 C 0.38336 0.61423 0.58825 0.0
C1352 C 0.36775 0.63207 0.58055 0.0
H1353 H 0.40374 0.59511 0.65743 0.0
H1354 H 0.39162 0.60673 0.54478 0.0
C1355 C 0.35756 0.64171 0.63788 0.0
C1356 C 0.13142 0.61396 0.43863 0.0
C1357 C 0.14529 0.63327 0.44566 0.0
H1358 H 0.11363 0.59209 0.37009 0.0
C1359 C 0.1551 0.64309 0.38797 0.0
H1360 H 0.12359 0.60614 0.48226 0.0
C1361 C 0.14987 0.63469 0.32392 0.0
C1362 C 0.13435 0.61671 0.31669 0.0
H1363 H 0.16594 0.65795 0.39216 0.0
H1364 H 0.15647 0.64348 0.28011 0.0
C1365 C 0.12575 0.60593 0.37454 0.0
C1366 C 0.14901 0.38054 0.20228 0.0
C1367 C 0.13143 0.3965 0.20959 0.0
H1368 H 0.16823 0.35994 0.13367 0.0
C1369 C 0.12215 0.40674 0.15189 0.0
H1370 H 0.15629 0.37227 0.24594 0.0
C1371 C 0.12933 0.40006 0.0877 0.0
C1372 C 0.14544 0.38263 0.08043 0.0
H1373 H 0.10855 0.4191 0.15636 0.0
H1374 H 0.12099 0.40725 0.044 0.0
C1375 C 0.15575 0.37344 0.13812 0.0
C1376 C 0.26544 0.13499 0.54437 0.0
C1377 C 0.27627 0.15586 0.55744 0.0
H1378 H 0.23823 0.11771 0.49333 0.0
C1379 C 0.26741 0.17578 0.52852 0.0
H1380 H 0.27207 0.1194 0.56568 0.0
C1381 C 0.24776 0.17488 0.48839 0.0
C1382 C 0.23714 0.15395 0.47469 0.0
H1383 H 0.2755 0.19204 0.53801 0.0
H1384 H 0.24097 0.19044 0.46732 0.0
C1385 C 0.24626 0.13401 0.50271 0.0
C1386 C 0.09238 0.99871 0.75311 0.0
C1387 C 0.11303 0.98941 0.73038 0.0
H1388 H 0.07628 0.02451 0.81349 0.0
C1389 C 0.13363 0.99861 0.754 0.0
H1390 H 0.07632 0.99183 0.73563 0.0
C1391 C 0.13361 0.01675 0.79952 0.0
C1392 C 0.11299 0.02636 0.82132 0.0
H1393 H 0.14977 0.99154 0.73788 0.0
H1394 H 0.14973 0.02362 0.8165 0.0
C1395 C 0.09236 0.01728 0.79744 0.0
C1396 C 0.24708 0.84002 0.03117 0.0
C1397 C 0.23939 0.85911 0.06728 0.0
H1398 H 0.27278 0.82636 0.9651 0.0
C1399 C 0.2518 0.87951 0.06315 0.0
H1400 H 0.23775 0.82414 0.03371 0.0
C1401 C 0.27128 0.88093 0.0227 0.0
C1402 C 0.27909 0.86183 0.98703 0.0
H1403 H 0.2461 0.89449 0.09006 0.0
H1404 H 0.28045 0.8969 0.01973 0.0
C1405 C 0.26701 0.84127 0.99224 0.0
C1406 C 0.42235 0.99902 0.30115 0.0
C1407 C 0.40169 0.98905 0.32156 0.0
H1408 H 0.43852 0.02517 0.24228 0.0
C1409 C 0.38115 0.99783 0.29637 0.0
H1410 H 0.43838 0.99248 0.31982 0.0
C1411 C 0.38126 0.01603 0.25115 0.0
C1412 C 0.40188 0.02614 0.23104 0.0
H1413 H 0.36501 0.99028 0.31052 0.0
H1414 H 0.36517 0.02245 0.23262 0.0
C1415 C 0.42243 0.01762 0.257 0.0
C1416 C 0.74775 0.88235 0.4982 0.0
C1417 C 0.73876 0.86166 0.47466 0.0
H1418 H 0.77342 0.89888 0.55733 0.0
C1419 C 0.74928 0.84123 0.49408 0.0
H1420 H 0.73983 0.89833 0.4846 0.0
C1421 C 0.76878 0.84157 0.53499 0.0
C1422 C 0.77766 0.8623 0.55881 0.0
H1423 H 0.74262 0.82509 0.47657 0.0
H1424 H 0.77684 0.82566 0.54862 0.0
C1425 C 0.76683 0.88266 0.54032 0.0
C1426 C 0.88016 0.99723 0.23683 0.0
C1427 C 0.9008 0.98779 0.21431 0.0
H1428 H 0.86394 0.02284 0.29695 0.0
C1429 C 0.9214 0.99758 0.23594 0.0
H1430 H 0.86405 0.98987 0.22161 0.0
C1431 C 0.92133 0.01668 0.27837 0.0
C1432 C 0.90067 0.0259 0.30155 0.0
H1433 H 0.93751 0.99057 0.21931 0.0
H1434 H 0.93738 0.02411 0.29387 0.0
C1435 C 0.8801 0.01592 0.2805 0.0
C1436 C 0.76511 0.17142 0.96477 0.0
C1437 C 0.77641 0.15079 0.95208 0.0
H1438 H 0.7368 0.18788 1.0136 0.0
C1439 C 0.76781 0.13067 0.98053 0.0
H1440 H 0.77152 0.18711 0.94339 0.0
C1441 C 0.7485 0.1312 0.02185 0.0
C1442 C 0.73705 0.15176 0.03413 0.0
H1443 H 0.77637 0.11461 0.97198 0.0
H1444 H 0.74233 0.1155 0.04379 0.0
C1445 C 0.74534 0.17184 1.00458 0.0
C1446 C 0.63285 0.01449 0.74195 0.0
C1447 C 0.61204 0.0242 0.72227 0.0
H1448 H 0.64962 0.98913 0.80138 0.0
C1449 C 0.59167 0.01537 0.74891 0.0
H1450 H 0.64878 0.02112 0.72266 0.0
C1451 C 0.59213 0.99678 0.79319 0.0
C1452 C 0.61299 0.98722 0.81315 0.0
H1453 H 0.57544 0.02261 0.73438 0.0
H1454 H 0.57626 0.98995 0.81232 0.0
C1455 C 0.63334 0.99636 0.78743 0.0
C1456 C 0.74738 0.67327 1.01395 0.0
C1457 C 0.73965 0.65339 0.98202 0.0
H1458 H 0.77279 0.68827 0.07825 0.0
C1459 C 0.7514 0.6329 0.99244 0.0
H1460 H 0.73853 0.68922 1.00649 0.0
C1461 C 0.77041 0.63224 0.03474 0.0
C1462 C 0.77832 0.65216 0.06598 0.0
H1463 H 0.74559 0.61734 0.9688 0.0
H1464 H 0.77921 0.61626 0.04222 0.0
C1465 C 0.76683 0.67274 0.05474 0.0
C1466 C 0.63598 0.51547 0.29411 0.0
C1467 C 0.61532 0.52553 0.31368 0.0
H1468 H 0.65235 0.48953 0.23568 0.0
C1469 C 0.59478 0.51647 0.28892 0.0
H1470 H 0.65204 0.52227 0.31189 0.0
C1471 C 0.59495 0.49747 0.2461 0.0
C1472 C 0.61567 0.4877 0.2257 0.0
H1473 H 0.57866 0.52397 0.30336 0.0
H1474 H 0.57896 0.49059 0.22803 0.0
C1475 C 0.63617 0.49692 0.25003 0.0
C1476 C 0.74637 0.33625 0.53015 0.0
C1477 C 0.73786 0.356 0.56101 0.0
H1478 H 0.77202 0.32196 0.46521 0.0
C1479 C 0.74854 0.37695 0.54822 0.0
H1480 H 0.73829 0.31996 0.53927 0.0
C1481 C 0.7672 0.37818 0.50444 0.0
C1482 C 0.77587 0.3584 0.47418 0.0
H1483 H 0.74209 0.3924 0.57096 0.0
H1484 H 0.77511 0.39452 0.49488 0.0
C1485 C 0.7655 0.33738 0.48799 0.0
C1486 C 0.92247 0.49643 0.76875 0.0
C1487 C 0.90259 0.48846 0.80046 0.0
H1488 H 0.93719 0.52169 0.7034 0.0
C1489 C 0.88186 0.49962 0.78824 0.0
H1490 H 0.93862 0.48805 0.77751 0.0
C1491 C 0.88095 0.51828 0.74474 0.0
C1492 C 0.90085 0.5265 0.71381 0.0
H1493 H 0.86629 0.49365 0.81159 0.0
H1494 H 0.86477 0.52662 0.73621 0.0
C1495 C 0.92166 0.51555 0.72662 0.0
C1496 C 0.2591 0.36888 0.95285 0.0
C1497 C 0.23937 0.35761 0.97524 0.0
H1498 H 0.29379 0.37772 0.9727 0.0
C1499 C 0.2401 0.34622 0.03753 0.0
H1500 H 0.25908 0.37815 0.90582 0.0
C1501 C 0.26008 0.34593 0.07605 0.0
C1502 C 0.27989 0.357 0.0533 0.0
H1503 H 0.22538 0.33707 0.05606 0.0
H1504 H 0.26012 0.33655 0.12287 0.0
C1505 C 0.27905 0.36863 0.99139 0.0
C1506 C 0.38365 0.51848 0.78021 0.0
C1507 C 0.40429 0.5281 0.80196 0.0
H1508 H 0.3674 0.4931 0.71956 0.0
C1509 C 0.4249 0.519 0.77805 0.0
H1510 H 0.36754 0.52536 0.79727 0.0
C1511 C 0.42482 0.50026 0.7342 0.0
C1512 C 0.40412 0.49083 0.71201 0.0
H1513 H 0.44099 0.52619 0.79414 0.0
H1514 H 0.44086 0.49326 0.71696 0.0
C1515 C 0.38357 0.50021 0.73524 0.0
C1516 C 0.2769 0.65043 0.536 0.0
C1517 C 0.27702 0.66065 0.47183 0.0
H1518 H 0.25761 0.64211 0.62432 0.0
C1519 C 0.25676 0.67051 0.44814 0.0
H1520 H 0.292 0.64227 0.55563 0.0
C1521 C 0.237 0.67031 0.48764 0.0
C1522 C 0.23694 0.66022 0.55192 0.0
H1523 H 0.25625 0.67882 0.3996 0.0
H1524 H 0.22187 0.67847 0.46814 0.0
C1525 C 0.25715 0.6503 0.57559 0.0
C1526 C 0.13116 0.5146 0.24014 0.0
C1527 C 0.11079 0.52448 0.21746 0.0
H1528 H 0.14669 0.48903 0.30152 0.0
C1529 C 0.08991 0.51551 0.23992 0.0
H1530 H 0.14746 0.52136 0.22425 0.0
C1531 C 0.08947 0.49673 0.28351 0.0
C1532 C 0.10989 0.48714 0.30691 0.0
H1533 H 0.07402 0.5229 0.22311 0.0
H1534 H 0.07324 0.48989 0.29983 0.0
C1535 C 0.13071 0.49629 0.28486 0.0
C1536 C 0.12723 0.27205 0.30054 0.0
C1537 C 0.13504 0.26348 0.36251 0.0
H1538 H 0.11193 0.29998 0.24804 0.0
C1539 C 0.13548 0.27828 0.41843 0.0
H1540 H 0.1272 0.26151 0.25584 0.0
C1541 C 0.12725 0.3006 0.41317 0.0
C1542 C 0.11807 0.30844 0.35233 0.0
H1543 H 0.14108 0.27237 0.46724 0.0
H1544 H 0.12685 0.31131 0.45752 0.0
C1545 C 0.11861 0.29414 0.29577 0.0
C1546 C 0.96254 0.88974 0.63773 0.0
C1547 C 0.95813 0.87408 0.58579 0.0
H1548 H 0.98702 0.91126 0.68602 0.0
C1549 C 0.97552 0.86962 0.53874 0.0
H1550 H 0.94963 0.89368 0.67483 0.0
C1551 C 0.99709 0.87949 0.54562 0.0
C1552 C 1.00189 0.8942 0.5996 0.0
H1553 H 0.97268 0.85811 0.49708 0.0
H1554 H 0.0103 0.87468 0.51029 0.0
C1555 C 0.98412 0.8997 0.64447 0.0
C1556 C 0.37606 0.71181 0.83191 0.0
C1557 C 0.39657 0.70734 0.86598 0.0
H1558 H 0.35024 0.73673 0.80895 0.0
C1559 C 0.40637 0.72452 0.90549 0.0
H1560 H 0.36833 0.6988 0.80075 0.0
C1561 C 0.39601 0.74575 0.91101 0.0
C1562 C 0.37575 0.75052 0.87625 0.0
H1563 H 0.42212 0.72144 0.93234 0.0
H1564 H 0.4041 0.75868 0.94177 0.0
C1565 C 0.36585 0.73342 0.83624 0.0
C1566 C 0.51754 0.13915 0.04998 0.0
C1567 C 0.51335 0.12252 0.09931 0.0
H1568 H 0.54136 0.16257 1.00713 0.0
C1569 C 0.53145 0.11575 0.14116 0.0
H1570 H 0.504 0.14495 0.01727 0.0
C1571 C 0.55287 0.12614 0.13598 0.0
C1572 C 0.5567 0.1436 0.08895 0.0
H1573 H 0.52891 0.10282 0.17923 0.0
H1574 H 0.56613 0.12111 0.17067 0.0
C1575 C 0.53892 0.14955 0.04491 0.0
C1576 C 0.13842 0.73383 0.1075 0.0
C1577 C 0.13956 0.74787 0.16497 0.0
H1578 H 0.12822 0.70142 0.06698 0.0
C1579 C 0.1335 0.73853 0.2277 0.0
H1580 H 0.14275 0.74041 0.05827 0.0
C1581 C 0.12475 0.71649 0.23209 0.0
C1582 C 0.12234 0.70305 0.17421 0.0
H1583 H 0.13474 0.74854 0.27333 0.0
H1584 H 0.11929 0.7101 0.2806 0.0
C1585 C 0.13003 0.71153 0.11225 0.0
C1586 C 0.52927 0.88915 0.38263 0.0
C1587 C 0.51527 0.88981 0.4403 0.0
H1588 H 0.56141 0.87895 0.34044 0.0
C1589 C 0.52435 0.88226 0.50187 0.0
H1590 H 0.52288 0.89451 0.33411 0.0
C1591 C 0.54616 0.87286 0.50479 0.0
C1592 C 0.55963 0.87122 0.4466 0.0
H1593 H 0.51437 0.88302 0.54768 0.0
H1594 H 0.55243 0.86653 0.55245 0.0
C1595 C 0.55132 0.88011 0.38595 0.0
C1596 C 0.36808 0.28609 0.64863 0.0
C1597 C 0.38203 0.26671 0.65272 0.0
H1598 H 0.36665 0.32264 0.64922 0.0
C1599 C 0.40576 0.26959 0.65521 0.0
H1600 H 0.34973 0.28431 0.64621 0.0
C1601 C 0.41538 0.29123 0.65606 0.0
C1602 C 0.40159 0.31077 0.65503 0.0
H1603 H 0.41698 0.25496 0.65646 0.0
H1604 H 0.43375 0.2926 0.65764 0.0
C1605 C 0.37778 0.30799 0.6501 0.0
C1606 C 0.96579 0.13677 0.87731 0.0
C1607 C 0.95721 0.14574 0.93768 0.0
H1608 H 0.99463 0.12296 0.82567 0.0
C1609 C 0.97095 0.14519 0.99546 0.0
H1610 H 0.95555 0.13711 0.83204 0.0
C1611 C 0.99314 0.13668 0.99246 0.0
C1612 C 1.00232 0.12884 0.93125 0.0
H1613 H 0.96456 0.15158 0.04297 0.0
H1614 H 1.00323 0.13665 0.03803 0.0
C1615 C 0.98817 0.12856 0.87395 0.0
C1616 C 0.89303 0.72123 0.74158 0.0
C1617 C 0.89376 0.7068 0.68528 0.0
H1618 H 0.88519 0.75425 0.78008 0.0
C1619 C 0.88571 0.71489 0.62331 0.0
H1620 H 0.89873 0.71525 0.79025 0.0
C1621 C 0.8783 0.73745 0.61697 0.0
C1622 C 0.8785 0.75228 0.67281 0.0
H1623 H 0.88621 0.70411 0.57912 0.0
H1624 H 0.87342 0.7435 0.56762 0.0
C1625 C 0.88534 0.74361 0.73559 0.0
C1626 C 0.02659 0.12767 0.37146 0.0
C1627 C 0.01126 0.1275 0.42612 0.0
H1628 H 0.06005 0.13661 0.33612 0.0
C1629 C 0.01919 0.13465 0.48952 0.0
H1630 H 0.0211 0.12253 0.32173 0.0
C1631 C 0.04128 0.14309 0.49718 0.0
C1632 C 0.05618 0.14425 0.44199 0.0
H1633 H 0.00814 0.13422 0.53318 0.0
H1634 H 0.04666 0.149 0.54627 0.0
C1635 C 0.04888 0.13583 0.37947 0.0
C1636 C 0.63704 0.27301 0.22853 0.0
C1637 C 0.64147 0.26366 0.16456 0.0
H1638 H 0.6246 0.30157 0.28472 0.0
C1639 C 0.63895 0.27782 0.10771 0.0
H1640 H 0.63938 0.263 0.2737 0.0
C1641 C 0.63105 0.30022 0.11454 0.0
C1642 C 0.62514 0.30878 0.17809 0.0
H1643 H 0.6419 0.27131 0.0575 0.0
H1644 H 0.62827 0.3104 0.06991 0.0
C1645 C 0.62873 0.29517 0.23507 0.0
C1646 C 0.47941 0.8466 0.92871 0.0
C1647 C 0.46031 0.86099 0.92962 0.0
H1648 H 0.51563 0.84381 0.92478 0.0
C1649 C 0.4638 0.88466 0.92519 0.0
H1650 H 0.47743 0.82831 0.93007 0.0
C1651 C 0.48597 0.89366 0.92188 0.0
C1652 C 0.50501 0.87914 0.92336 0.0
H1653 H 0.44948 0.89624 0.92597 0.0
H1654 H 0.48824 0.91193 0.91977 0.0
C1655 C 0.50139 0.85552 0.92572 0.0
C1656 C 0.89272 0.29482 0.78693 0.0
C1657 C 0.89375 0.30848 0.84481 0.0
H1658 H 0.88388 0.2626 0.74456 0.0
C1659 C 0.88508 0.29994 0.90557 0.0
H1660 H 0.89894 0.30121 0.73922 0.0
C1661 C 0.87692 0.27754 0.90927 0.0
C1662 C 0.87692 0.26338 0.8519 0.0
H1663 H 0.88581 0.31017 0.95086 0.0
H1664 H 0.87171 0.27104 0.95787 0.0
C1665 C 0.88419 0.27266 0.79022 0.0
C1666 C 0.48129 0.11605 0.6252 0.0
C1667 C 0.50008 0.12565 0.59136 0.0
H1668 H 0.44623 0.11934 0.65328 0.0
C1669 C 0.49688 0.14634 0.55715 0.0
H1670 H 0.48297 0.10008 0.65182 0.0
C1671 C 0.47577 0.15714 0.55682 0.0
C1672 C 0.45704 0.14796 0.5918 0.0
H1673 H 0.5109 0.15477 0.53191 0.0
H1674 H 0.47447 0.1729 0.52923 0.0
C1675 C 0.46007 0.12708 0.62558 0.0
C1676 C 0.64573 0.73246 0.36125 0.0
C1677 C 0.63114 0.7514 0.36414 0.0
H1678 H 0.64843 0.69608 0.355 0.0
C1679 C 0.60752 0.74764 0.36604 0.0
H1680 H 0.66403 0.73483 0.35991 0.0
C1681 C 0.59861 0.72566 0.364 0.0
C1682 C 0.61299 0.70656 0.35946 0.0
H1683 H 0.59578 0.7618 0.37014 0.0
H1684 H 0.58032 0.72381 0.367 0.0
C1685 C 0.63675 0.71025 0.35854 0.0
C1686 C 0.04443 0.87107 0.03219 0.0
C1687 C 0.05823 0.86955 0.08962 0.0
H1688 H 0.01224 0.88072 0.99118 0.0
C1689 C 0.05008 0.87821 0.15088 0.0
H1690 H 0.05054 0.86493 0.98407 0.0
C1691 C 0.02789 0.88689 0.15551 0.0
C1692 C 0.01357 0.88737 0.0986 0.0
H1693 H 0.06042 0.87715 0.19585 0.0
H1694 H 0.02164 0.89212 0.2044 0.0
C1695 C 0.02247 0.88007 0.03644 0.0
C1696 C 0.62789 0.79479 0.7963 0.0
C1697 C 0.62471 0.80843 0.85344 0.0
H1698 H 0.63862 0.76269 0.75729 0.0
C1699 C 0.63159 0.80025 0.91649 0.0
H1700 H 0.62311 0.80099 0.74701 0.0
C1701 C 0.63999 0.77807 0.92292 0.0
C1702 C 0.642 0.76386 0.86608 0.0
H1703 H 0.62922 0.81055 0.96117 0.0
H1704 H 0.64367 0.77173 0.97285 0.0
C1705 C 0.6367 0.77286 0.8024 0.0
C1706 C 0.47908 0.36901 0.03215 0.0
C1707 C 0.46152 0.37287 0.07905 0.0
H1708 H 0.51388 0.37458 1.00526 0.0
C1709 C 0.46552 0.38816 0.13219 0.0
H1710 H 0.4765 0.35781 0.98961 0.0
C1711 C 0.48696 0.39826 0.14037 0.0
C1712 C 0.50494 0.39325 0.09575 0.0
H1713 H 0.45242 0.39162 0.16913 0.0
H1714 H 0.48962 0.40947 0.1829 0.0
C1715 C 0.5005 0.379 0.04045 0.0
C1716 C 0.87811 0.23639 0.41033 0.0
C1717 C 0.87352 0.24979 0.35303 0.0
H1718 H 0.89062 0.20454 0.44834 0.0
C1719 C 0.87664 0.23993 0.28902 0.0
H1720 H 0.87633 0.24329 0.46055 0.0
C1721 C 0.88557 0.21802 0.28253 0.0
C1722 C 0.89093 0.20517 0.33974 0.0
H1723 H 0.8727 0.2493 0.24363 0.0
H1724 H 0.88858 0.21114 0.23274 0.0
C1725 C 0.88647 0.21421 0.40364 0.0
C1726 C 0.02867 0.61976 0.61619 0.0
C1727 C 0.00962 0.63425 0.61481 0.0
H1728 H 0.06519 0.61733 0.61117 0.0
C1729 C 0.01314 0.65789 0.61295 0.0
H1730 H 0.02644 0.60148 0.61806 0.0
C1731 C 0.03505 0.66685 0.6094 0.0
C1732 C 0.05412 0.65248 0.60766 0.0
H1733 H 0.99886 0.66955 0.61409 0.0
H1734 H 0.03705 0.68515 0.60763 0.0
C1735 C 0.05079 0.62882 0.61252 0.0
C1736 C 0.62446 0.21117 0.59599 0.0
C1737 C 0.61504 0.20221 0.65514 0.0
H1738 H 0.63922 0.24016 0.54787 0.0
C1739 C 0.61606 0.21499 0.71464 0.0
H1740 H 0.62377 0.20151 0.54961 0.0
C1741 C 0.62554 0.23678 0.71457 0.0
C1742 C 0.63363 0.24659 0.65445 0.0
H1743 H 0.60925 0.20814 0.76108 0.0
H1744 H 0.62599 0.24612 0.76152 0.0
C1745 C 0.63345 0.23325 0.59539 0.0
C1746 C 0.0154 0.35926 0.90911 0.0
C1747 C 0.01226 0.38286 0.90359 0.0
H1748 H 0.03885 0.33181 0.91829 0.0
C1749 C 0.03149 0.39707 0.89966 0.0
H1750 H 1.0009 0.34783 0.91032 0.0
C1751 C 0.05348 0.3878 0.90473 0.0
C1752 C 0.05648 0.3642 0.91335 0.0
H1753 H 0.0295 0.41532 0.89498 0.0
H1754 H 0.06802 0.39914 0.90424 0.0
C1755 C 0.03717 0.35007 0.91378 0.0
C1756 C 0.88792 0.79963 0.12168 0.0
C1757 C 0.89629 0.80785 0.18317 0.0
H1758 H 0.87499 0.77099 0.06723 0.0
C1759 C 0.8955 0.79369 0.23997 0.0
H1760 H 0.88846 0.81022 0.07715 0.0
C1761 C 0.88737 0.77142 0.23493 0.0
C1762 C 0.88019 0.76258 0.17261 0.0
H1763 H 0.90144 0.7998 0.28827 0.0
H1764 H 0.88714 0.76098 0.2798 0.0
C1765 C 0.8801 0.77716 0.11628 0.0
C1766 C 0.4675 0.63004 0.49189 0.0
C1767 C 0.45667 0.63818 0.43393 0.0
H1768 H 0.49679 0.61386 0.53352 0.0
C1769 C 0.46702 0.63506 0.37115 0.0
H1770 H 0.45954 0.63213 0.54071 0.0
C1771 C 0.48875 0.6254 0.36684 0.0
C1772 C 0.50031 0.61819 0.42531 0.0
H1773 H 0.45888 0.64141 0.32604 0.0
H1774 H 0.49688 0.62486 0.31798 0.0
C1775 C 0.48891 0.6198 0.48758 0.0
C1776 C 0.38604 0.21179 0.1136 0.0
C1777 C 0.39368 0.20425 0.17663 0.0
H1778 H 0.37407 0.24002 0.05546 0.0
C1779 C 0.39181 0.21874 0.23241 0.0
H1780 H 0.38743 0.20084 0.06993 0.0
C1781 C 0.38375 0.24089 0.22472 0.0
C1782 C 0.37787 0.24923 0.1607 0.0
H1783 H 0.39723 0.21308 0.28169 0.0
H1784 H 0.38299 0.25178 0.26865 0.0
C1785 C 0.37833 0.23417 0.10554 0.0
C1786 C 0.53315 0.61614 0.89274 0.0
C1787 C 0.51518 0.62283 0.93547 0.0
H1788 H 0.56785 0.62124 0.86284 0.0
C1789 C 0.51978 0.63888 0.98619 0.0
H1790 H 0.53039 0.60356 0.85374 0.0
C1791 C 0.54135 0.64877 0.99193 0.0
C1792 C 0.55895 0.64306 0.94687 0.0
H1793 H 0.50644 0.64468 0.01971 0.0
H1794 H 0.54402 0.66128 0.03107 0.0
C1795 C 0.55475 0.62615 0.8983 0.0
C1796 C 0.13125 0.8039 0.61449 0.0
C1797 C 0.1245 0.81216 0.67768 0.0
H1798 H 0.14315 0.7752 0.55814 0.0
C1799 C 0.12811 0.79875 0.73495 0.0
H1800 H 0.12854 0.81405 0.56974 0.0
C1801 C 0.13693 0.77683 0.72884 0.0
C1802 C 0.14182 0.76763 0.66504 0.0
H1803 H 0.12339 0.80502 0.78429 0.0
H1804 H 0.13894 0.76671 0.77396 0.0
C1805 C 0.1397 0.78173 0.60808 0.0
C1806 C 0.97286 0.36365 0.49148 0.0
C1807 C 0.95495 0.37145 0.45064 0.0
H1808 H 0.00816 0.36641 0.5173 0.0
C1809 C 0.95882 0.39032 0.40872 0.0
H1810 H 0.97033 0.34935 0.52497 0.0
C1811 C 0.9805 0.4002 0.40448 0.0
C1812 C 0.99875 0.39153 0.44249 0.0
H1813 H 0.94543 0.39669 0.37643 0.0
H1814 H 0.98317 0.41411 0.36965 0.0
C1815 C 0.99448 0.37363 0.48766 0.0
C1816 C 0.39669 0.79658 0.29847 0.0
C1817 C 0.39846 0.81037 0.35579 0.0
H1818 H 0.38679 0.7644 0.25806 0.0
C1819 C 0.39013 0.8023 0.41754 0.0
H1820 H 0.40255 0.80269 0.25005 0.0
C1821 C 0.38151 0.78016 0.4227 0.0
C1822 C 0.38076 0.76586 0.36585 0.0
H1823 H 0.39136 0.81272 0.46236 0.0
H1824 H 0.37653 0.77394 0.47183 0.0
C1825 C 0.3877 0.77467 0.30325 0.0
C1826 C 0.98351 0.61357 0.13401 0.0
C1827 C 1.00126 0.61969 0.08985 0.0
H1828 H 0.94922 0.61936 0.16589 0.0
C1829 C 0.99652 0.63516 0.03784 0.0
H1830 H 0.98639 0.60139 0.17397 0.0
C1831 C 0.97503 0.64524 0.03257 0.0
C1832 C 0.95771 0.64026 0.07942 0.0
H1833 H 0.00973 0.64043 1.00309 0.0
H1834 H 0.97224 0.65737 0.99253 0.0
C1835 C 0.96205 0.62377 0.12903 0.0
C1836 C 0.13796 0.2396 0.79952 0.0
C1837 C 0.14316 0.24902 0.86281 0.0
H1838 H 0.12399 0.2113 0.74552 0.0
C1839 C 0.14084 0.23528 0.92043 0.0
H1840 H 0.14011 0.24946 0.75391 0.0
C1841 C 0.13203 0.2132 0.91515 0.0
C1842 C 0.12509 0.2047 0.85246 0.0
H1843 H 0.14449 0.24199 0.97001 0.0
H1844 H 0.12934 0.2033 0.9604 0.0
C1845 C 0.12877 0.21779 0.79454 0.0
C1846 C 0.52057 0.37967 0.53505 0.0
C1847 C 0.51624 0.39596 0.58532 0.0
H1848 H 0.544 0.3559 0.49285 0.0
C1849 C 0.53405 0.40177 0.62963 0.0
H1850 H 0.50734 0.37454 0.50026 0.0
C1851 C 0.55506 0.39052 0.62655 0.0
C1852 C 0.55887 0.37328 0.57875 0.0
H1853 H 0.53156 0.41454 0.66824 0.0
H1854 H 0.56794 0.39474 0.66343 0.0
C1855 C 0.54159 0.36858 0.53165 0.0
loop_
_geom_bond_atom_site_label_1
_geom_bond_atom_site_label_2
_geom_bond_distance
_geom_bond_site_symmetry_2
_ccdc_geom_bond_type
Co0 N4 2.148 . S
Co0 N10 2.128 . S
Co0 N20 2.194 . S
Co0 O25 2.351 . S
Co0 O26 2.155 . S
Co0 O27 2.096 . S
C1 N4 1.301 . S
C1 N5 1.328 . S
C1 H6 0.930 . S
C2 C3 1.333 . S
C2 N4 1.317 . S
C2 H7 0.930 . S
C3 C2 1.333 . S
C3 N5 1.350 . S
C3 H29 0.931 . S
N4 Co0 2.148 . S
N4 C1 1.301 . S
N4 C2 1.317 . S
N5 C1 1.328 . S
N5 C3 1.350 . S
H6 C1 0.930 . S
H7 C2 0.930 . S
C8 O9 1.224 . S
C8 O27 1.247 . S
O9 C8 1.224 . S
N10 Co0 2.128 . S
N10 C11 1.355 . S
N10 C13 1.311 . S
C11 N10 1.355 . S
C11 C12 1.363 . S
C11 H23 0.929 . S
C12 C11 1.363 . S
C12 N14 1.375 . S
C12 H30 0.931 . S
C13 N10 1.311 . S
C13 N14 1.347 . S
C13 H24 0.929 . S
N14 C12 1.375 . S
N14 C13 1.347 . S
C15 C18 1.365 . S
C15 N20 1.328 . S
C15 H21 0.929 . S
C16 C17 1.362 . S
C16 C19 1.378 . S
C16 H31 0.929 . S
C17 C16 1.362 . S
C17 C18 1.366 . S
C18 C15 1.365 . S
C18 C17 1.366 . S
C18 H32 0.930 . S
C19 C16 1.378 . S
C19 N20 1.315 . S
C19 H22 0.930 . S
N20 Co0 2.194 . S
N20 C15 1.328 . S
N20 C19 1.315 . S
H21 C15 0.929 . S
H22 C19 0.930 . S
H23 C11 0.929 . S
H24 C13 0.929 . S
O25 Co0 2.351 . S
O25 C28 1.244 . S
O26 Co0 2.155 . S
O26 C28 1.240 . S
O27 Co0 2.096 . S
O27 C8 1.247 . S
C28 O25 1.244 . S
C28 O26 1.240 . S
H29 C3 0.931 . S
H30 C12 0.931 . S
H31 C16 0.929 . S
H32 C18 0.930 . S
Co33 N37 2.148 . S
Co33 N43 2.128 . S
Co33 N53 2.194 . S
Co33 O58 2.351 . S
Co33 O59 2.155 . S
Co33 O60 2.096 . S
C34 N37 1.301 . S
C34 N38 1.328 . S
C34 H39 0.930 . S
C35 C36 1.333 . S
C35 N37 1.317 . S
C35 H40 0.930 . S
C36 C35 1.333 . S
C36 N38 1.350 . S
C36 H62 0.931 . S
N37 Co33 2.148 . S
N37 C34 1.301 . S
N37 C35 1.317 . S
N38 C34 1.328 . S
N38 C36 1.350 . S
H39 C34 0.930 . S
H40 C35 0.930 . S
C41 O42 1.224 . S
C41 O60 1.247 . S
O42 C41 1.224 . S
N43 Co33 2.128 . S
N43 C44 1.355 . S
N43 C46 1.311 . S
C44 N43 1.355 . S
C44 C45 1.363 . S
C44 H56 0.929 . S
C45 C44 1.363 . S
C45 N47 1.375 . S
C45 H63 0.931 . S
C46 N43 1.311 . S
C46 N47 1.347 . S
C46 H57 0.929 . S
N47 C45 1.375 . S
N47 C46 1.347 . S
C48 C51 1.365 . S
C48 N53 1.328 . S
C48 H54 0.929 . S
C49 C50 1.362 . S
C49 C52 1.378 . S
C49 H64 0.929 . S
C50 C49 1.362 . S
C50 C51 1.366 . S
C51 C48 1.365 . S
C51 C50 1.366 . S
C51 H65 0.930 . S
C52 C49 1.378 . S
C52 N53 1.315 . S
C52 H55 0.930 . S
N53 Co33 2.194 . S
N53 C48 1.328 . S
N53 C52 1.315 . S
H54 C48 0.929 . S
H55 C52 0.930 . S
H56 C44 0.929 . S
H57 C46 0.929 . S
O58 Co33 2.351 . S
O58 C61 1.244 . S
O59 Co33 2.155 . S
O59 C61 1.240 . S
O60 Co33 2.096 . S
O60 C41 1.247 . S
C61 O58 1.244 . S
C61 O59 1.240 . S
H62 C36 0.931 . S
H63 C45 0.931 . S
H64 C49 0.929 . S
H65 C51 0.930 . S
Co66 N70 2.148 . S
Co66 N76 2.128 . S
Co66 N86 2.194 . S
Co66 O91 2.351 1_556 S
Co66 O92 2.155 . S
Co66 O93 2.096 . S
C67 N70 1.301 . S
C67 N71 1.328 . S
C67 H72 0.930 . S
C68 C69 1.333 . S
C68 N70 1.317 . S
C68 H73 0.930 . S
C69 C68 1.333 . S
C69 N71 1.350 . S
C69 H95 0.931 . S
N70 Co66 2.148 . S
N70 C67 1.301 . S
N70 C68 1.317 . S
N71 C67 1.328 . S
N71 C69 1.350 . S
H72 C67 0.930 . S
H73 C68 0.930 . S
C74 O75 1.224 . S
C74 O93 1.247 . S
O75 C74 1.224 . S
N76 Co66 2.128 . S
N76 C77 1.355 . S
N76 C79 1.311 . S
C77 N76 1.355 . S
C77 C78 1.363 . S
C77 H89 0.929 . S
C78 C77 1.363 . S
C78 N80 1.375 . S
C78 H96 0.931 . S
C79 N76 1.311 . S
C79 N80 1.347 . S
C79 H90 0.929 . S
N80 C78 1.375 . S
N80 C79 1.347 . S
C81 C84 1.365 . S
C81 N86 1.328 . S
C81 H87 0.929 . S
C82 C83 1.362 . S
C82 C85 1.378 . S
C82 H97 0.929 . S
C83 C82 1.362 . S
C83 C84 1.366 . S
C84 C81 1.365 . S
C84 C83 1.366 . S
C84 H98 0.930 . S
C85 C82 1.378 . S
C85 N86 1.315 . S
C85 H88 0.930 . S
N86 Co66 2.194 . S
N86 C81 1.328 . S
N86 C85 1.315 . S
H87 C81 0.929 . S
H88 C85 0.930 . S
H89 C77 0.929 . S
H90 C79 0.929 . S
O91 Co66 2.351 1_554 S
O91 C94 1.244 . S
O92 Co66 2.155 . S
O92 C94 1.240 1_556 S
O93 Co66 2.096 . S
O93 C74 1.247 . S
C94 O91 1.244 . S
C94 O92 1.240 1_554 S
H95 C69 0.931 . S
H96 C78 0.931 . S
H97 C82 0.929 . S
H98 C84 0.930 . S
Co99 N103 2.148 . S
Co99 N109 2.128 . S
Co99 N119 2.194 . S
Co99 O124 2.351 . S
Co99 O125 2.155 . S
Co99 O126 2.096 . S
C100 N103 1.301 . S
C100 N104 1.328 . S
C100 H105 0.930 . S
C101 C102 1.333 . S
C101 N103 1.317 . S
C101 H106 0.930 . S
C102 C101 1.333 . S
C102 N104 1.350 . S
C102 H128 0.931 . S
N103 Co99 2.148 . S
N103 C100 1.301 . S
N103 C101 1.317 . S
N104 C100 1.328 . S
N104 C102 1.350 . S
H105 C100 0.930 . S
H106 C101 0.930 . S
C107 O108 1.224 . S
C107 O126 1.247 . S
O108 C107 1.224 . S
N109 Co99 2.128 . S
N109 C110 1.355 . S
N109 C112 1.311 . S
C110 N109 1.355 . S
C110 C111 1.363 . S
C110 H122 0.929 . S
C111 C110 1.363 . S
C111 N113 1.375 . S
C111 H129 0.931 . S
C112 N109 1.311 . S
C112 N113 1.347 . S
C112 H123 0.929 . S
N113 C111 1.375 . S
N113 C112 1.347 . S
C114 C117 1.365 . S
C114 N119 1.328 . S
C114 H120 0.929 . S
C115 C116 1.362 . S
C115 C118 1.378 . S
C115 H130 0.929 . S
C116 C115 1.362 . S
C116 C117 1.366 . S
C117 C114 1.365 . S
C117 C116 1.366 . S
C117 H131 0.930 . S
C118 C115 1.378 . S
C118 N119 1.315 . S
C118 H121 0.930 . S
N119 Co99 2.194 . S
N119 C114 1.328 . S
N119 C118 1.315 . S
H120 C114 0.929 . S
H121 C118 0.930 . S
H122 C110 0.929 . S
H123 C112 0.929 . S
O124 Co99 2.351 . S
O124 C127 1.244 . S
O125 Co99 2.155 . S
O125 C127 1.240 . S
O126 Co99 2.096 . S
O126 C107 1.247 . S
C127 O124 1.244 . S
C127 O125 1.240 . S
H128 C102 0.931 . S
H129 C111 0.931 . S
H130 C115 0.929 . S
H131 C117 0.930 . S
Co132 N136 2.148 . S
Co132 N142 2.128 . S
Co132 N152 2.194 . S
Co132 O157 2.351 1_554 S
Co132 O158 2.155 . S
Co132 O159 2.096 . S
C133 N136 1.301 . S
C133 N137 1.328 . S
C133 H138 0.930 . S
C134 C135 1.333 . S
C134 N136 1.317 . S
C134 H139 0.930 . S
C135 C134 1.333 . S
C135 N137 1.350 . S
C135 H161 0.931 . S
N136 Co132 2.148 . S
N136 C133 1.301 . S
N136 C134 1.317 . S
N137 C133 1.328 . S
N137 C135 1.350 . S
H138 C133 0.930 . S
H139 C134 0.930 . S
C140 O141 1.224 . S
C140 O159 1.247 . S
O141 C140 1.224 . S
N142 Co132 2.128 . S
N142 C143 1.355 . S
N142 C145 1.311 . S
C143 N142 1.355 . S
C143 C144 1.363 . S
C143 H155 0.929 . S
C144 C143 1.363 . S
C144 N146 1.375 . S
C144 H162 0.931 . S
C145 N142 1.311 . S
C145 N146 1.347 . S
C145 H156 0.929 . S
N146 C144 1.375 . S
N146 C145 1.347 . S
C147 C150 1.365 . S
C147 N152 1.328 . S
C147 H153 0.929 . S
C148 C149 1.362 . S
C148 C151 1.378 . S
C148 H163 0.929 . S
C149 C148 1.362 . S
C149 C150 1.366 . S
C150 C147 1.365 . S
C150 C149 1.366 . S
C150 H164 0.930 . S
C151 C148 1.378 . S
C151 N152 1.315 . S
C151 H154 0.930 . S
N152 Co132 2.194 . S
N152 C147 1.328 . S
N152 C151 1.315 . S
H153 C147 0.929 . S
H154 C151 0.930 . S
H155 C143 0.929 . S
H156 C145 0.929 . S
O157 Co132 2.351 1_556 S
O157 C160 1.244 . S
O158 Co132 2.155 . S
O158 C160 1.240 1_554 S
O159 Co132 2.096 . S
O159 C140 1.247 . S
C160 O157 1.244 . S
C160 O158 1.240 1_556 S
H161 C135 0.931 . S
H162 C144 0.931 . S
H163 C148 0.929 . S
H164 C150 0.930 . S
Co165 N169 2.148 . S
Co165 N175 2.128 . S
Co165 N185 2.194 . S
Co165 O190 2.351 . S
Co165 O191 2.155 . S
Co165 O192 2.096 . S
C166 N169 1.301 . S
C166 N170 1.328 . S
C166 H171 0.930 . S
C167 C168 1.333 . S
C167 N169 1.317 . S
C167 H172 0.930 . S
C168 C167 1.333 . S
C168 N170 1.350 . S
C168 H194 0.931 . S
N169 Co165 2.148 . S
N169 C166 1.301 . S
N169 C167 1.317 . S
N170 C166 1.328 . S
N170 C168 1.350 . S
H171 C166 0.930 . S
H172 C167 0.930 . S
C173 O174 1.224 . S
C173 O192 1.247 . S
O174 C173 1.224 . S
N175 Co165 2.128 . S
N175 C176 1.355 . S
N175 C178 1.311 . S
C176 N175 1.355 . S
C176 C177 1.363 . S
C176 H188 0.929 . S
C177 C176 1.363 . S
C177 N179 1.375 . S
C177 H195 0.931 . S
C178 N175 1.311 . S
C178 N179 1.347 . S
C178 H189 0.929 . S
N179 C177 1.375 . S
N179 C178 1.347 . S
C180 C183 1.365 . S
C180 N185 1.328 . S
C180 H186 0.929 . S
C181 C182 1.362 . S
C181 C184 1.378 . S
C181 H196 0.929 . S
C182 C181 1.362 . S
C182 C183 1.366 . S
C183 C180 1.365 . S
C183 C182 1.366 . S
C183 H197 0.930 . S
C184 C181 1.378 . S
C184 N185 1.315 . S
C184 H187 0.930 . S
N185 Co165 2.194 . S
N185 C180 1.328 . S
N185 C184 1.315 . S
H186 C180 0.929 . S
H187 C184 0.930 . S
H188 C176 0.929 . S
H189 C178 0.929 . S
O190 Co165 2.351 . S
O190 C193 1.244 . S
O191 Co165 2.155 . S
O191 C193 1.240 . S
O192 Co165 2.096 . S
O192 C173 1.247 . S
C193 O190 1.244 . S
C193 O191 1.240 . S
H194 C168 0.931 . S
H195 C177 0.931 . S
H196 C181 0.929 . S
H197 C183 0.930 . S
Co198 N202 2.148 . S
Co198 N208 2.128 . S
Co198 N218 2.194 . S
Co198 O223 2.351 . S
Co198 O224 2.155 . S
Co198 O225 2.096 . S
C199 N202 1.301 . S
C199 N203 1.328 . S
C199 H204 0.930 . S
C200 C201 1.333 . S
C200 N202 1.317 . S
C200 H205 0.930 . S
C201 C200 1.333 . S
C201 N203 1.350 . S
C201 H227 0.931 . S
N202 Co198 2.148 . S
N202 C199 1.301 . S
N202 C200 1.317 . S
N203 C199 1.328 . S
N203 C201 1.350 . S
H204 C199 0.930 . S
H205 C200 0.930 . S
C206 O207 1.224 . S
C206 O225 1.247 . S
O207 C206 1.224 . S
N208 Co198 2.128 . S
N208 C209 1.355 . S
N208 C211 1.311 . S
C209 N208 1.355 . S
C209 C210 1.363 . S
C209 H221 0.929 . S
C210 C209 1.363 . S
C210 N212 1.375 . S
C210 H228 0.931 . S
C211 N208 1.311 . S
C211 N212 1.347 . S
C211 H222 0.929 . S
N212 C210 1.375 . S
N212 C211 1.347 . S
C213 C216 1.365 . S
C213 N218 1.328 . S
C213 H219 0.929 . S
C214 C215 1.362 . S
C214 C217 1.378 . S
C214 H229 0.929 . S
C215 C214 1.362 . S
C215 C216 1.366 . S
C216 C213 1.365 . S
C216 C215 1.366 . S
C216 H230 0.930 . S
C217 C214 1.378 . S
C217 N218 1.315 . S
C217 H220 0.930 . S
N218 Co198 2.194 . S
N218 C213 1.328 . S
N218 C217 1.315 . S
H219 C213 0.929 . S
H220 C217 0.930 . S
H221 C209 0.929 . S
H222 C211 0.929 . S
O223 Co198 2.351 . S
O223 C226 1.244 . S
O224 Co198 2.155 . S
O224 C226 1.240 . S
O225 Co198 2.096 . S
O225 C206 1.247 . S
C226 O223 1.244 . S
C226 O224 1.240 . S
H227 C201 0.931 . S
H228 C210 0.931 . S
H229 C214 0.929 . S
H230 C216 0.930 . S
Co231 N235 2.148 . S
Co231 N241 2.128 . S
Co231 N251 2.194 . S
Co231 O256 2.351 . S
Co231 O257 2.155 . S
Co231 O258 2.096 . S
C232 N235 1.301 . S
C232 N236 1.328 . S
C232 H237 0.930 . S
C233 C234 1.333 . S
C233 N235 1.317 . S
C233 H238 0.930 . S
C234 C233 1.333 . S
C234 N236 1.350 . S
C234 H260 0.931 . S
N235 Co231 2.148 . S
N235 C232 1.301 . S
N235 C233 1.317 . S
N236 C232 1.328 . S
N236 C234 1.350 . S
H237 C232 0.930 . S
H238 C233 0.930 . S
C239 O240 1.224 . S
C239 O258 1.247 . S
O240 C239 1.224 . S
N241 Co231 2.128 . S
N241 C242 1.355 . S
N241 C244 1.311 . S
C242 N241 1.355 . S
C242 C243 1.363 . S
C242 H254 0.929 . S
C243 C242 1.363 . S
C243 N245 1.375 . S
C243 H261 0.931 . S
C244 N241 1.311 . S
C244 N245 1.347 . S
C244 H255 0.929 . S
N245 C243 1.375 . S
N245 C244 1.347 . S
C246 C249 1.365 . S
C246 N251 1.328 . S
C246 H252 0.929 . S
C247 C248 1.362 . S
C247 C250 1.378 . S
C247 H262 0.929 . S
C248 C247 1.362 . S
C248 C249 1.366 . S
C249 C246 1.365 . S
C249 C248 1.366 . S
C249 H263 0.930 . S
C250 C247 1.378 . S
C250 N251 1.315 . S
C250 H253 0.930 . S
N251 Co231 2.194 . S
N251 C246 1.328 . S
N251 C250 1.315 . S
H252 C246 0.929 . S
H253 C250 0.930 . S
H254 C242 0.929 . S
H255 C244 0.929 . S
O256 Co231 2.351 . S
O256 C259 1.244 . S
O257 Co231 2.155 . S
O257 C259 1.240 . S
O258 Co231 2.096 . S
O258 C239 1.247 . S
C259 O256 1.244 . S
C259 O257 1.240 . S
H260 C234 0.931 . S
H261 C243 0.931 . S
H262 C247 0.929 . S
H263 C249 0.930 . S
Co264 N268 2.148 . S
Co264 N274 2.128 . S
Co264 N284 2.194 . S
Co264 O289 2.351 . S
Co264 O290 2.155 . S
Co264 O291 2.096 . S
C265 N268 1.301 . S
C265 N269 1.328 . S
C265 H270 0.930 . S
C266 C267 1.333 . S
C266 N268 1.317 . S
C266 H271 0.930 . S
C267 C266 1.333 . S
C267 N269 1.350 . S
C267 H293 0.931 . S
N268 Co264 2.148 . S
N268 C265 1.301 . S
N268 C266 1.317 . S
N269 C265 1.328 . S
N269 C267 1.350 . S
H270 C265 0.930 . S
H271 C266 0.930 . S
C272 O273 1.224 . S
C272 O291 1.247 . S
O273 C272 1.224 . S
N274 Co264 2.128 . S
N274 C275 1.355 . S
N274 C277 1.311 . S
C275 N274 1.355 . S
C275 C276 1.363 . S
C275 H287 0.929 . S
C276 C275 1.363 . S
C276 N278 1.375 . S
C276 H294 0.931 . S
C277 N274 1.311 . S
C277 N278 1.347 . S
C277 H288 0.929 . S
N278 C276 1.375 . S
N278 C277 1.347 . S
C279 C282 1.365 . S
C279 N284 1.328 . S
C279 H285 0.929 . S
C280 C281 1.362 . S
C280 C283 1.378 . S
C280 H295 0.929 . S
C281 C280 1.362 . S
C281 C282 1.366 . S
C282 C279 1.365 . S
C282 C281 1.366 . S
C282 H296 0.930 . S
C283 C280 1.378 . S
C283 N284 1.315 . S
C283 H286 0.930 . S
N284 Co264 2.194 . S
N284 C279 1.328 . S
N284 C283 1.315 . S
H285 C279 0.929 . S
H286 C283 0.930 . S
H287 C275 0.929 . S
H288 C277 0.929 . S
O289 Co264 2.351 . S
O289 C292 1.244 . S
O290 Co264 2.155 . S
O290 C292 1.240 . S
O291 Co264 2.096 . S
O291 C272 1.247 . S
C292 O289 1.244 . S
C292 O290 1.240 . S
H293 C267 0.931 . S
H294 C276 0.931 . S
H295 C280 0.929 . S
H296 C282 0.930 . S
Co297 N301 2.148 . S
Co297 N307 2.128 . S
Co297 N317 2.194 . S
Co297 O322 2.351 . S
Co297 O323 2.155 . S
Co297 O324 2.096 . S
C298 N301 1.301 . S
C298 N302 1.328 . S
C298 H303 0.930 . S
C299 C300 1.333 . S
C299 N301 1.317 . S
C299 H304 0.930 . S
C300 C299 1.333 . S
C300 N302 1.350 . S
C300 H326 0.931 . S
N301 Co297 2.148 . S
N301 C298 1.301 . S
N301 C299 1.317 . S
N302 C298 1.328 . S
N302 C300 1.350 . S
H303 C298 0.930 . S
H304 C299 0.930 . S
C305 O306 1.224 . S
C305 O324 1.247 . S
O306 C305 1.224 . S
N307 Co297 2.128 . S
N307 C308 1.355 . S
N307 C310 1.311 . S
C308 N307 1.355 . S
C308 C309 1.363 . S
C308 H320 0.929 . S
C309 C308 1.363 . S
C309 N311 1.375 . S
C309 H327 0.931 . S
C310 N307 1.311 . S
C310 N311 1.347 . S
C310 H321 0.929 . S
N311 C309 1.375 . S
N311 C310 1.347 . S
C312 C315 1.365 . S
C312 N317 1.328 . S
C312 H318 0.929 . S
C313 C314 1.362 . S
C313 C316 1.378 . S
C313 H328 0.929 . S
C314 C313 1.362 . S
C314 C315 1.366 . S
C315 C312 1.365 . S
C315 C314 1.366 . S
C315 H329 0.930 . S
C316 C313 1.378 . S
C316 N317 1.315 . S
C316 H319 0.930 . S
N317 Co297 2.194 . S
N317 C312 1.328 . S
N317 C316 1.315 . S
H318 C312 0.929 . S
H319 C316 0.930 . S
H320 C308 0.929 . S
H321 C310 0.929 . S
O322 Co297 2.351 . S
O322 C325 1.244 . S
O323 Co297 2.155 . S
O323 C325 1.240 . S
O324 Co297 2.096 . S
O324 C305 1.247 . S
C325 O322 1.244 . S
C325 O323 1.240 . S
H326 C300 0.931 . S
H327 C309 0.931 . S
H328 C313 0.929 . S
H329 C315 0.930 . S
Co330 N334 2.148 . S
Co330 N340 2.128 . S
Co330 N350 2.194 . S
Co330 O355 2.351 1_554 S
Co330 O356 2.155 . S
Co330 O357 2.096 . S
C331 N334 1.301 . S
C331 N335 1.328 . S
C331 H336 0.930 . S
C332 C333 1.333 . S
C332 N334 1.317 . S
C332 H337 0.930 . S
C333 C332 1.333 . S
C333 N335 1.350 . S
C333 H359 0.931 . S
N334 Co330 2.148 . S
N334 C331 1.301 . S
N334 C332 1.317 . S
N335 C331 1.328 . S
N335 C333 1.350 . S
H336 C331 0.930 . S
H337 C332 0.930 . S
C338 O339 1.224 . S
C338 O357 1.247 . S
O339 C338 1.224 . S
N340 Co330 2.128 . S
N340 C341 1.355 . S
N340 C343 1.311 . S
C341 N340 1.355 . S
C341 C342 1.363 . S
C341 H353 0.929 . S
C342 C341 1.363 . S
C342 N344 1.375 . S
C342 H360 0.931 . S
C343 N340 1.311 . S
C343 N344 1.347 . S
C343 H354 0.929 . S
N344 C342 1.375 . S
N344 C343 1.347 . S
C345 C348 1.365 . S
C345 N350 1.328 . S
C345 H351 0.929 . S
C346 C347 1.362 . S
C346 C349 1.378 . S
C346 H361 0.929 . S
C347 C346 1.362 . S
C347 C348 1.366 . S
C348 C345 1.365 . S
C348 C347 1.366 . S
C348 H362 0.930 . S
C349 C346 1.378 . S
C349 N350 1.315 . S
C349 H352 0.930 . S
N350 Co330 2.194 . S
N350 C345 1.328 . S
N350 C349 1.315 . S
H351 C345 0.929 . S
H352 C349 0.930 . S
H353 C341 0.929 . S
H354 C343 0.929 . S
O355 Co330 2.351 1_556 S
O355 C358 1.244 . S
O356 Co330 2.155 . S
O356 C358 1.240 1_554 S
O357 Co330 2.096 . S
O357 C338 1.247 . S
C358 O355 1.244 . S
C358 O356 1.240 1_556 S
H359 C333 0.931 . S
H360 C342 0.931 . S
H361 C346 0.929 . S
H362 C348 0.930 . S
Co363 N367 2.148 . S
Co363 N373 2.128 . S
Co363 N383 2.194 . S
Co363 O388 2.351 . S
Co363 O389 2.155 . S
Co363 O390 2.096 . S
C364 N367 1.301 . S
C364 N368 1.328 . S
C364 H369 0.930 . S
C365 C366 1.333 . S
C365 N367 1.317 . S
C365 H370 0.930 . S
C366 C365 1.333 . S
C366 N368 1.350 . S
C366 H392 0.931 . S
N367 Co363 2.148 . S
N367 C364 1.301 . S
N367 C365 1.317 . S
N368 C364 1.328 . S
N368 C366 1.350 . S
H369 C364 0.930 . S
H370 C365 0.930 . S
C371 O372 1.224 . S
C371 O390 1.247 . S
O372 C371 1.224 . S
N373 Co363 2.128 . S
N373 C374 1.355 . S
N373 C376 1.311 . S
C374 N373 1.355 . S
C374 C375 1.363 . S
C374 H386 0.929 . S
C375 C374 1.363 . S
C375 N377 1.375 . S
C375 H393 0.931 . S
C376 N373 1.311 . S
C376 N377 1.347 . S
C376 H387 0.929 . S
N377 C375 1.375 . S
N377 C376 1.347 . S
C378 C381 1.365 . S
C378 N383 1.328 . S
C378 H384 0.929 . S
C379 C380 1.362 . S
C379 C382 1.378 . S
C379 H394 0.929 . S
C380 C379 1.362 . S
C380 C381 1.366 . S
C381 C378 1.365 . S
C381 C380 1.366 . S
C381 H395 0.930 . S
C382 C379 1.378 . S
C382 N383 1.315 . S
C382 H385 0.930 . S
N383 Co363 2.194 . S
N383 C378 1.328 . S
N383 C382 1.315 . S
H384 C378 0.929 . S
H385 C382 0.930 . S
H386 C374 0.929 . S
H387 C376 0.929 . S
O388 Co363 2.351 . S
O388 C391 1.244 . S
O389 Co363 2.155 . S
O389 C391 1.240 . S
O390 Co363 2.096 . S
O390 C371 1.247 . S
C391 O388 1.244 . S
C391 O389 1.240 . S
H392 C366 0.931 . S
H393 C375 0.931 . S
H394 C379 0.929 . S
H395 C381 0.930 . S
Co396 N400 2.148 . S
Co396 N406 2.128 . S
Co396 N416 2.194 . S
Co396 O421 2.351 1_556 S
Co396 O422 2.155 . S
Co396 O423 2.096 . S
C397 N400 1.301 . S
C397 N401 1.328 . S
C397 H402 0.930 . S
C398 C399 1.333 . S
C398 N400 1.317 . S
C398 H403 0.930 . S
C399 C398 1.333 . S
C399 N401 1.350 . S
C399 H425 0.931 . S
N400 Co396 2.148 . S
N400 C397 1.301 . S
N400 C398 1.317 . S
N401 C397 1.328 . S
N401 C399 1.350 . S
H402 C397 0.930 . S
H403 C398 0.930 . S
C404 O405 1.224 . S
C404 O423 1.247 . S
O405 C404 1.224 . S
N406 Co396 2.128 . S
N406 C407 1.355 . S
N406 C409 1.311 . S
C407 N406 1.355 . S
C407 C408 1.363 . S
C407 H419 0.929 . S
C408 C407 1.363 . S
C408 N410 1.375 . S
C408 H426 0.931 . S
C409 N406 1.311 . S
C409 N410 1.347 . S
C409 H420 0.929 . S
N410 C408 1.375 . S
N410 C409 1.347 . S
C411 C414 1.365 . S
C411 N416 1.328 . S
C411 H417 0.929 . S
C412 C413 1.362 . S
C412 C415 1.378 . S
C412 H427 0.929 . S
C413 C412 1.362 . S
C413 C414 1.366 . S
C414 C411 1.365 . S
C414 C413 1.366 . S
C414 H428 0.930 . S
C415 C412 1.378 . S
C415 N416 1.315 . S
C415 H418 0.930 . S
N416 Co396 2.194 . S
N416 C411 1.328 . S
N416 C415 1.315 . S
H417 C411 0.929 . S
H418 C415 0.930 . S
H419 C407 0.929 . S
H420 C409 0.929 . S
O421 Co396 2.351 1_554 S
O421 C424 1.244 . S
O422 Co396 2.155 . S
O422 C424 1.240 1_556 S
O423 Co396 2.096 . S
O423 C404 1.247 . S
C424 O421 1.244 . S
C424 O422 1.240 1_554 S
H425 C399 0.931 . S
H426 C408 0.931 . S
H427 C412 0.929 . S
H428 C414 0.930 . S
Co429 N433 2.148 . S
Co429 N439 2.128 . S
Co429 N449 2.194 . S
Co429 O454 2.351 . S
Co429 O455 2.155 . S
Co429 O456 2.096 . S
C430 N433 1.301 . S
C430 N434 1.328 . S
C430 H435 0.930 . S
C431 C432 1.333 . S
C431 N433 1.317 . S
C431 H436 0.930 . S
C432 C431 1.333 . S
C432 N434 1.350 . S
C432 H458 0.931 . S
N433 Co429 2.148 . S
N433 C430 1.301 . S
N433 C431 1.317 . S
N434 C430 1.328 . S
N434 C432 1.350 . S
H435 C430 0.930 . S
H436 C431 0.930 . S
C437 O438 1.224 . S
C437 O456 1.247 . S
O438 C437 1.224 . S
N439 Co429 2.128 . S
N439 C440 1.355 . S
N439 C442 1.311 . S
C440 N439 1.355 . S
C440 C441 1.363 . S
C440 H452 0.929 . S
C441 C440 1.363 . S
C441 N443 1.375 . S
C441 H459 0.931 . S
C442 N439 1.311 . S
C442 N443 1.347 . S
C442 H453 0.929 . S
N443 C441 1.375 . S
N443 C442 1.347 . S
C444 C447 1.365 . S
C444 N449 1.328 . S
C444 H450 0.929 . S
C445 C446 1.362 . S
C445 C448 1.378 . S
C445 H460 0.929 . S
C446 C445 1.362 . S
C446 C447 1.366 . S
C447 C444 1.365 . S
C447 C446 1.366 . S
C447 H461 0.930 . S
C448 C445 1.378 . S
C448 N449 1.315 . S
C448 H451 0.930 . S
N449 Co429 2.194 . S
N449 C444 1.328 . S
N449 C448 1.315 . S
H450 C444 0.929 . S
H451 C448 0.930 . S
H452 C440 0.929 . S
H453 C442 0.929 . S
O454 Co429 2.351 . S
O454 C457 1.244 . S
O455 Co429 2.155 . S
O455 C457 1.240 . S
O456 Co429 2.096 . S
O456 C437 1.247 . S
C457 O454 1.244 . S
C457 O455 1.240 . S
H458 C432 0.931 . S
H459 C441 0.931 . S
H460 C445 0.929 . S
H461 C447 0.930 . S
Co462 N466 2.148 . S
Co462 N472 2.128 . S
Co462 N482 2.194 . S
Co462 O487 2.351 . S
Co462 O488 2.155 . S
Co462 O489 2.096 . S
C463 N466 1.301 . S
C463 N467 1.328 . S
C463 H468 0.930 . S
C464 C465 1.333 . S
C464 N466 1.317 . S
C464 H469 0.930 . S
C465 C464 1.333 . S
C465 N467 1.350 . S
C465 H491 0.931 . S
N466 Co462 2.148 . S
N466 C463 1.301 . S
N466 C464 1.317 . S
N467 C463 1.328 . S
N467 C465 1.350 . S
H468 C463 0.930 . S
H469 C464 0.930 . S
C470 O471 1.224 . S
C470 O489 1.247 . S
O471 C470 1.224 . S
N472 Co462 2.128 . S
N472 C473 1.355 . S
N472 C475 1.311 . S
C473 N472 1.355 . S
C473 C474 1.363 . S
C473 H485 0.929 . S
C474 C473 1.363 . S
C474 N476 1.375 . S
C474 H492 0.931 . S
C475 N472 1.311 . S
C475 N476 1.347 . S
C475 H486 0.929 . S
N476 C474 1.375 . S
N476 C475 1.347 . S
C477 C480 1.365 . S
C477 N482 1.328 . S
C477 H483 0.929 . S
C478 C479 1.362 . S
C478 C481 1.378 . S
C478 H493 0.929 . S
C479 C478 1.362 . S
C479 C480 1.366 . S
C480 C477 1.365 . S
C480 C479 1.366 . S
C480 H494 0.930 . S
C481 C478 1.378 . S
C481 N482 1.315 . S
C481 H484 0.930 . S
N482 Co462 2.194 . S
N482 C477 1.328 . S
N482 C481 1.315 . S
H483 C477 0.929 . S
H484 C481 0.930 . S
H485 C473 0.929 . S
H486 C475 0.929 . S
O487 Co462 2.351 . S
O487 C490 1.244 . S
O488 Co462 2.155 . S
O488 C490 1.240 . S
O489 Co462 2.096 . S
O489 C470 1.247 . S
C490 O487 1.244 . S
C490 O488 1.240 . S
H491 C465 0.931 . S
H492 C474 0.931 . S
H493 C478 0.929 . S
H494 C480 0.930 . S
Co495 N499 2.148 . S
Co495 N505 2.128 . S
Co495 N515 2.194 . S
Co495 O520 2.351 . S
Co495 O521 2.155 . S
Co495 O522 2.096 . S
C496 N499 1.301 . S
C496 N500 1.328 . S
C496 H501 0.930 . S
C497 C498 1.333 . S
C497 N499 1.317 . S
C497 H502 0.930 . S
C498 C497 1.333 . S
C498 N500 1.350 . S
C498 H524 0.931 . S
N499 Co495 2.148 . S
N499 C496 1.301 . S
N499 C497 1.317 . S
N500 C496 1.328 . S
N500 C498 1.350 . S
H501 C496 0.930 . S
H502 C497 0.930 . S
C503 O504 1.224 . S
C503 O522 1.247 . S
O504 C503 1.224 . S
N505 Co495 2.128 . S
N505 C506 1.355 . S
N505 C508 1.311 . S
C506 N505 1.355 . S
C506 C507 1.363 . S
C506 H518 0.929 . S
C507 C506 1.363 . S
C507 N509 1.375 . S
C507 H525 0.931 . S
C508 N505 1.311 . S
C508 N509 1.347 . S
C508 H519 0.929 . S
N509 C507 1.375 . S
N509 C508 1.347 . S
C510 C513 1.365 . S
C510 N515 1.328 . S
C510 H516 0.929 . S
C511 C512 1.362 . S
C511 C514 1.378 . S
C511 H526 0.929 . S
C512 C511 1.362 . S
C512 C513 1.366 . S
C513 C510 1.365 . S
C513 C512 1.366 . S
C513 H527 0.930 . S
C514 C511 1.378 . S
C514 N515 1.315 . S
C514 H517 0.930 . S
N515 Co495 2.194 . S
N515 C510 1.328 . S
N515 C514 1.315 . S
H516 C510 0.929 . S
H517 C514 0.930 . S
H518 C506 0.929 . S
H519 C508 0.929 . S
O520 Co495 2.351 . S
O520 C523 1.244 . S
O521 Co495 2.155 . S
O521 C523 1.240 . S
O522 Co495 2.096 . S
O522 C503 1.247 . S
C523 O520 1.244 . S
C523 O521 1.240 . S
H524 C498 0.931 . S
H525 C507 0.931 . S
H526 C511 0.929 . S
H527 C513 0.930 . S
Co528 N532 2.148 . S
Co528 N538 2.128 . S
Co528 N548 2.194 . S
Co528 O553 2.351 1_556 S
Co528 O554 2.155 . S
Co528 O555 2.096 . S
C529 N532 1.301 . S
C529 N533 1.328 . S
C529 H534 0.930 . S
C530 C531 1.333 . S
C530 N532 1.317 . S
C530 H535 0.930 . S
C531 C530 1.333 . S
C531 N533 1.350 . S
C531 H557 0.931 . S
N532 Co528 2.148 . S
N532 C529 1.301 . S
N532 C530 1.317 . S
N533 C529 1.328 . S
N533 C531 1.350 . S
H534 C529 0.930 . S
H535 C530 0.930 . S
C536 O537 1.224 . S
C536 O555 1.247 . S
O537 C536 1.224 . S
N538 Co528 2.128 . S
N538 C539 1.355 . S
N538 C541 1.311 . S
C539 N538 1.355 . S
C539 C540 1.363 . S
C539 H551 0.929 . S
C540 C539 1.363 . S
C540 N542 1.375 . S
C540 H558 0.931 . S
C541 N538 1.311 . S
C541 N542 1.347 . S
C541 H552 0.929 . S
N542 C540 1.375 . S
N542 C541 1.347 . S
C543 C546 1.365 . S
C543 N548 1.328 . S
C543 H549 0.929 . S
C544 C545 1.362 . S
C544 C547 1.378 . S
C544 H559 0.929 . S
C545 C544 1.362 . S
C545 C546 1.366 . S
C546 C543 1.365 . S
C546 C545 1.366 . S
C546 H560 0.930 . S
C547 C544 1.378 . S
C547 N548 1.315 . S
C547 H550 0.930 . S
N548 Co528 2.194 . S
N548 C543 1.328 . S
N548 C547 1.315 . S
H549 C543 0.929 . S
H550 C547 0.930 . S
H551 C539 0.929 . S
H552 C541 0.929 . S
O553 Co528 2.351 1_554 S
O553 C556 1.244 . S
O554 Co528 2.155 . S
O554 C556 1.240 1_556 S
O555 Co528 2.096 . S
O555 C536 1.247 . S
C556 O553 1.244 . S
C556 O554 1.240 1_554 S
H557 C531 0.931 . S
H558 C540 0.931 . S
H559 C544 0.929 . S
H560 C546 0.930 . S
Co561 N565 2.148 . S
Co561 N571 2.128 . S
Co561 N581 2.194 . S
Co561 O586 2.351 . S
Co561 O587 2.155 . S
Co561 O588 2.096 . S
C562 N565 1.301 . S
C562 N566 1.328 . S
C562 H567 0.930 . S
C563 C564 1.333 . S
C563 N565 1.317 . S
C563 H568 0.930 . S
C564 C563 1.333 . S
C564 N566 1.350 . S
C564 H590 0.931 . S
N565 Co561 2.148 . S
N565 C562 1.301 . S
N565 C563 1.317 . S
N566 C562 1.328 . S
N566 C564 1.350 . S
H567 C562 0.930 . S
H568 C563 0.930 . S
C569 O570 1.224 . S
C569 O588 1.247 . S
O570 C569 1.224 . S
N571 Co561 2.128 . S
N571 C572 1.355 . S
N571 C574 1.311 . S
C572 N571 1.355 . S
C572 C573 1.363 . S
C572 H584 0.929 . S
C573 C572 1.363 . S
C573 N575 1.375 . S
C573 H591 0.931 . S
C574 N571 1.311 . S
C574 N575 1.347 . S
C574 H585 0.929 . S
N575 C573 1.375 . S
N575 C574 1.347 . S
C576 C579 1.365 . S
C576 N581 1.328 . S
C576 H582 0.929 . S
C577 C578 1.362 . S
C577 C580 1.378 . S
C577 H592 0.929 . S
C578 C577 1.362 . S
C578 C579 1.366 . S
C579 C576 1.365 . S
C579 C578 1.366 . S
C579 H593 0.930 . S
C580 C577 1.378 . S
C580 N581 1.315 . S
C580 H583 0.930 . S
N581 Co561 2.194 . S
N581 C576 1.328 . S
N581 C580 1.315 . S
H582 C576 0.929 . S
H583 C580 0.930 . S
H584 C572 0.929 . S
H585 C574 0.929 . S
O586 Co561 2.351 . S
O586 C589 1.244 . S
O587 Co561 2.155 . S
O587 C589 1.240 . S
O588 Co561 2.096 . S
O588 C569 1.247 . S
C589 O586 1.244 . S
C589 O587 1.240 . S
H590 C564 0.931 . S
H591 C573 0.931 . S
H592 C577 0.929 . S
H593 C579 0.930 . S
Co594 N598 2.148 . S
Co594 N604 2.128 . S
Co594 N614 2.194 . S
Co594 O619 2.351 . S
Co594 O620 2.155 . S
Co594 O621 2.096 . S
C595 N598 1.301 . S
C595 N599 1.328 . S
C595 H600 0.930 . S
C596 C597 1.333 . S
C596 N598 1.317 . S
C596 H601 0.930 . S
C597 C596 1.333 . S
C597 N599 1.350 . S
C597 H623 0.931 . S
N598 Co594 2.148 . S
N598 C595 1.301 . S
N598 C596 1.317 . S
N599 C595 1.328 . S
N599 C597 1.350 . S
H600 C595 0.930 . S
H601 C596 0.930 . S
C602 O603 1.224 . S
C602 O621 1.247 . S
O603 C602 1.224 . S
N604 Co594 2.128 . S
N604 C605 1.355 . S
N604 C607 1.311 . S
C605 N604 1.355 . S
C605 C606 1.363 . S
C605 H617 0.929 . S
C606 C605 1.363 . S
C606 N608 1.375 . S
C606 H624 0.931 . S
C607 N604 1.311 . S
C607 N608 1.347 . S
C607 H618 0.929 . S
N608 C606 1.375 . S
N608 C607 1.347 . S
C609 C612 1.365 . S
C609 N614 1.328 . S
C609 H615 0.929 . S
C610 C611 1.362 . S
C610 C613 1.378 . S
C610 H625 0.929 . S
C611 C610 1.362 . S
C611 C612 1.366 . S
C612 C609 1.365 . S
C612 C611 1.366 . S
C612 H626 0.930 . S
C613 C610 1.378 . S
C613 N614 1.315 . S
C613 H616 0.930 . S
N614 Co594 2.194 . S
N614 C609 1.328 . S
N614 C613 1.315 . S
H615 C609 0.929 . S
H616 C613 0.930 . S
H617 C605 0.929 . S
H618 C607 0.929 . S
O619 Co594 2.351 . S
O619 C622 1.244 . S
O620 Co594 2.155 . S
O620 C622 1.240 . S
O621 Co594 2.096 . S
O621 C602 1.247 . S
C622 O619 1.244 . S
C622 O620 1.240 . S
H623 C597 0.931 . S
H624 C606 0.931 . S
H625 C610 0.929 . S
H626 C612 0.930 . S
Co627 N631 2.148 . S
Co627 N637 2.128 . S
Co627 N647 2.194 . S
Co627 O652 2.351 . S
Co627 O653 2.155 . S
Co627 O654 2.096 . S
C628 N631 1.301 . S
C628 N632 1.328 . S
C628 H633 0.930 . S
C629 C630 1.333 . S
C629 N631 1.317 . S
C629 H634 0.930 . S
C630 C629 1.333 . S
C630 N632 1.350 . S
C630 H656 0.931 . S
N631 Co627 2.148 . S
N631 C628 1.301 . S
N631 C629 1.317 . S
N632 C628 1.328 . S
N632 C630 1.350 . S
H633 C628 0.930 . S
H634 C629 0.930 . S
C635 O636 1.224 . S
C635 O654 1.247 . S
O636 C635 1.224 . S
N637 Co627 2.128 . S
N637 C638 1.355 . S
N637 C640 1.311 . S
C638 N637 1.355 . S
C638 C639 1.363 . S
C638 H650 0.929 . S
C639 C638 1.363 . S
C639 N641 1.375 . S
C639 H657 0.931 . S
C640 N637 1.311 . S
C640 N641 1.347 . S
C640 H651 0.929 . S
N641 C639 1.375 . S
N641 C640 1.347 . S
C642 C645 1.365 . S
C642 N647 1.328 . S
C642 H648 0.929 . S
C643 C644 1.362 . S
C643 C646 1.378 . S
C643 H658 0.929 . S
C644 C643 1.362 . S
C644 C645 1.366 . S
C645 C642 1.365 . S
C645 C644 1.366 . S
C645 H659 0.930 . S
C646 C643 1.378 . S
C646 N647 1.315 . S
C646 H649 0.930 . S
N647 Co627 2.194 . S
N647 C642 1.328 . S
N647 C646 1.315 . S
H648 C642 0.929 . S
H649 C646 0.930 . S
H650 C638 0.929 . S
H651 C640 0.929 . S
O652 Co627 2.351 . S
O652 C655 1.244 . S
O653 Co627 2.155 . S
O653 C655 1.240 . S
O654 Co627 2.096 . S
O654 C635 1.247 . S
C655 O652 1.244 . S
C655 O653 1.240 . S
H656 C630 0.931 . S
H657 C639 0.931 . S
H658 C643 0.929 . S
H659 C645 0.930 . S
Co660 N664 2.148 . S
Co660 N670 2.128 . S
Co660 N680 2.194 . S
Co660 O685 2.351 . S
Co660 O686 2.155 . S
Co660 O687 2.096 . S
C661 N664 1.301 . S
C661 N665 1.328 . S
C661 H666 0.930 . S
C662 C663 1.333 . S
C662 N664 1.317 . S
C662 H667 0.930 . S
C663 C662 1.333 . S
C663 N665 1.350 . S
C663 H689 0.931 . S
N664 Co660 2.148 . S
N664 C661 1.301 . S
N664 C662 1.317 . S
N665 C661 1.328 . S
N665 C663 1.350 . S
H666 C661 0.930 . S
H667 C662 0.930 . S
C668 O669 1.224 . S
C668 O687 1.247 . S
O669 C668 1.224 . S
N670 Co660 2.128 . S
N670 C671 1.355 . S
N670 C673 1.311 . S
C671 N670 1.355 . S
C671 C672 1.363 . S
C671 H683 0.929 . S
C672 C671 1.363 . S
C672 N674 1.375 . S
C672 H690 0.931 . S
C673 N670 1.311 . S
C673 N674 1.347 . S
C673 H684 0.929 . S
N674 C672 1.375 . S
N674 C673 1.347 . S
C675 C678 1.365 . S
C675 N680 1.328 . S
C675 H681 0.929 . S
C676 C677 1.362 . S
C676 C679 1.378 . S
C676 H691 0.929 . S
C677 C676 1.362 . S
C677 C678 1.366 . S
C678 C675 1.365 . S
C678 C677 1.366 . S
C678 H692 0.930 . S
C679 C676 1.378 . S
C679 N680 1.315 . S
C679 H682 0.930 . S
N680 Co660 2.194 . S
N680 C675 1.328 . S
N680 C679 1.315 . S
H681 C675 0.929 . S
H682 C679 0.930 . S
H683 C671 0.929 . S
H684 C673 0.929 . S
O685 Co660 2.351 . S
O685 C688 1.244 . S
O686 Co660 2.155 . S
O686 C688 1.240 . S
O687 Co660 2.096 . S
O687 C668 1.247 . S
C688 O685 1.244 . S
C688 O686 1.240 . S
H689 C663 0.931 . S
H690 C672 0.931 . S
H691 C676 0.929 . S
H692 C678 0.930 . S
Co693 N697 2.148 . S
Co693 N703 2.128 . S
Co693 N713 2.194 . S
Co693 O718 2.351 . S
Co693 O719 2.155 . S
Co693 O720 2.096 . S
C694 N697 1.301 . S
C694 N698 1.328 . S
C694 H699 0.930 . S
C695 C696 1.333 . S
C695 N697 1.317 . S
C695 H700 0.930 . S
C696 C695 1.333 . S
C696 N698 1.350 . S
C696 H722 0.931 . S
N697 Co693 2.148 . S
N697 C694 1.301 . S
N697 C695 1.317 . S
N698 C694 1.328 . S
N698 C696 1.350 . S
H699 C694 0.930 . S
H700 C695 0.930 . S
C701 O702 1.224 . S
C701 O720 1.247 . S
O702 C701 1.224 . S
N703 Co693 2.128 . S
N703 C704 1.355 . S
N703 C706 1.311 . S
C704 N703 1.355 . S
C704 C705 1.363 . S
C704 H716 0.929 . S
C705 C704 1.363 . S
C705 N707 1.375 . S
C705 H723 0.931 . S
C706 N703 1.311 . S
C706 N707 1.347 . S
C706 H717 0.929 . S
N707 C705 1.375 . S
N707 C706 1.347 . S
C708 C711 1.365 . S
C708 N713 1.328 . S
C708 H714 0.929 . S
C709 C710 1.362 . S
C709 C712 1.378 . S
C709 H724 0.929 . S
C710 C709 1.362 . S
C710 C711 1.366 . S
C711 C708 1.365 . S
C711 C710 1.366 . S
C711 H725 0.930 . S
C712 C709 1.378 . S
C712 N713 1.315 . S
C712 H715 0.930 . S
N713 Co693 2.194 . S
N713 C708 1.328 . S
N713 C712 1.315 . S
H714 C708 0.929 . S
H715 C712 0.930 . S
H716 C704 0.929 . S
H717 C706 0.929 . S
O718 Co693 2.351 . S
O718 C721 1.244 . S
O719 Co693 2.155 . S
O719 C721 1.240 . S
O720 Co693 2.096 . S
O720 C701 1.247 . S
C721 O718 1.244 . S
C721 O719 1.240 . S
H722 C696 0.931 . S
H723 C705 0.931 . S
H724 C709 0.929 . S
H725 C711 0.930 . S
Co726 N730 2.148 . S
Co726 N736 2.128 . S
Co726 N746 2.194 . S
Co726 O751 2.351 1_554 S
Co726 O752 2.155 . S
Co726 O753 2.096 . S
C727 N730 1.301 . S
C727 N731 1.328 . S
C727 H732 0.930 . S
C728 C729 1.333 . S
C728 N730 1.317 . S
C728 H733 0.930 . S
C729 C728 1.333 . S
C729 N731 1.350 . S
C729 H755 0.931 . S
N730 Co726 2.148 . S
N730 C727 1.301 . S
N730 C728 1.317 . S
N731 C727 1.328 . S
N731 C729 1.350 . S
H732 C727 0.930 . S
H733 C728 0.930 . S
C734 O735 1.224 . S
C734 O753 1.247 . S
O735 C734 1.224 . S
N736 Co726 2.128 . S
N736 C737 1.355 . S
N736 C739 1.311 . S
C737 N736 1.355 . S
C737 C738 1.363 . S
C737 H749 0.929 . S
C738 C737 1.363 . S
C738 N740 1.375 . S
C738 H756 0.931 . S
C739 N736 1.311 . S
C739 N740 1.347 . S
C739 H750 0.929 . S
N740 C738 1.375 . S
N740 C739 1.347 . S
C741 C744 1.365 . S
C741 N746 1.328 . S
C741 H747 0.929 . S
C742 C743 1.362 . S
C742 C745 1.378 . S
C742 H757 0.929 . S
C743 C742 1.362 . S
C743 C744 1.366 . S
C744 C741 1.365 . S
C744 C743 1.366 . S
C744 H758 0.930 . S
C745 C742 1.378 . S
C745 N746 1.315 . S
C745 H748 0.930 . S
N746 Co726 2.194 . S
N746 C741 1.328 . S
N746 C745 1.315 . S
H747 C741 0.929 . S
H748 C745 0.930 . S
H749 C737 0.929 . S
H750 C739 0.929 . S
O751 Co726 2.351 1_556 S
O751 C754 1.244 . S
O752 Co726 2.155 . S
O752 C754 1.240 1_554 S
O753 Co726 2.096 . S
O753 C734 1.247 . S
C754 O751 1.244 . S
C754 O752 1.240 1_556 S
H755 C729 0.931 . S
H756 C738 0.931 . S
H757 C742 0.929 . S
H758 C744 0.930 . S
Co759 N763 2.148 . S
Co759 N769 2.128 . S
Co759 N779 2.194 . S
Co759 O784 2.351 . S
Co759 O785 2.155 . S
Co759 O786 2.096 . S
C760 N763 1.301 . S
C760 N764 1.328 . S
C760 H765 0.930 . S
C761 C762 1.333 . S
C761 N763 1.317 . S
C761 H766 0.930 . S
C762 C761 1.333 . S
C762 N764 1.350 . S
C762 H788 0.931 . S
N763 Co759 2.148 . S
N763 C760 1.301 . S
N763 C761 1.317 . S
N764 C760 1.328 . S
N764 C762 1.350 . S
H765 C760 0.930 . S
H766 C761 0.930 . S
C767 O768 1.224 . S
C767 O786 1.247 . S
O768 C767 1.224 . S
N769 Co759 2.128 . S
N769 C770 1.355 . S
N769 C772 1.311 . S
C770 N769 1.355 . S
C770 C771 1.363 . S
C770 H782 0.929 . S
C771 C770 1.363 . S
C771 N773 1.375 . S
C771 H789 0.931 . S
C772 N769 1.311 . S
C772 N773 1.347 . S
C772 H783 0.929 . S
N773 C771 1.375 . S
N773 C772 1.347 . S
C774 C777 1.365 . S
C774 N779 1.328 . S
C774 H780 0.929 . S
C775 C776 1.362 . S
C775 C778 1.378 . S
C775 H790 0.929 . S
C776 C775 1.362 . S
C776 C777 1.366 . S
C777 C774 1.365 . S
C777 C776 1.366 . S
C777 H791 0.930 . S
C778 C775 1.378 . S
C778 N779 1.315 . S
C778 H781 0.930 . S
N779 Co759 2.194 . S
N779 C774 1.328 . S
N779 C778 1.315 . S
H780 C774 0.929 . S
H781 C778 0.930 . S
H782 C770 0.929 . S
H783 C772 0.929 . S
O784 Co759 2.351 . S
O784 C787 1.244 . S
O785 Co759 2.155 . S
O785 C787 1.240 . S
O786 Co759 2.096 . S
O786 C767 1.247 . S
C787 O784 1.244 . S
C787 O785 1.240 . S
H788 C762 0.931 . S
H789 C771 0.931 . S
H790 C775 0.929 . S
H791 C777 0.930 . S
Co792 N796 2.148 . S
Co792 N802 2.128 . S
Co792 N812 2.194 . S
Co792 O817 2.351 1_554 S
Co792 O818 2.155 . S
Co792 O819 2.096 . S
C793 N796 1.301 . S
C793 N797 1.328 . S
C793 H798 0.930 . S
C794 C795 1.333 . S
C794 N796 1.317 . S
C794 H799 0.930 . S
C795 C794 1.333 . S
C795 N797 1.350 . S
C795 H821 0.931 . S
N796 Co792 2.148 . S
N796 C793 1.301 . S
N796 C794 1.317 . S
N797 C793 1.328 . S
N797 C795 1.350 . S
H798 C793 0.930 . S
H799 C794 0.930 . S
C800 O801 1.224 . S
C800 O819 1.247 . S
O801 C800 1.224 . S
N802 Co792 2.128 . S
N802 C803 1.355 . S
N802 C805 1.311 . S
C803 N802 1.355 . S
C803 C804 1.363 . S
C803 H815 0.929 . S
C804 C803 1.363 . S
C804 N806 1.375 . S
C804 H822 0.931 . S
C805 N802 1.311 . S
C805 N806 1.347 . S
C805 H816 0.929 . S
N806 C804 1.375 . S
N806 C805 1.347 . S
C807 C810 1.365 . S
C807 N812 1.328 . S
C807 H813 0.929 . S
C808 C809 1.362 . S
C808 C811 1.378 . S
C808 H823 0.929 . S
C809 C808 1.362 . S
C809 C810 1.366 . S
C810 C807 1.365 . S
C810 C809 1.366 . S
C810 H824 0.930 . S
C811 C808 1.378 . S
C811 N812 1.315 . S
C811 H814 0.930 . S
N812 Co792 2.194 . S
N812 C807 1.328 . S
N812 C811 1.315 . S
H813 C807 0.929 . S
H814 C811 0.930 . S
H815 C803 0.929 . S
H816 C805 0.929 . S
O817 Co792 2.351 1_556 S
O817 C820 1.244 . S
O818 Co792 2.155 . S
O818 C820 1.240 1_554 S
O819 Co792 2.096 . S
O819 C800 1.247 . S
C820 O817 1.244 . S
C820 O818 1.240 1_556 S
H821 C795 0.931 . S
H822 C804 0.931 . S
H823 C808 0.929 . S
H824 C810 0.930 . S
Co825 N829 2.148 . S
Co825 N835 2.128 . S
Co825 N845 2.194 . S
Co825 O850 2.351 . S
Co825 O851 2.155 . S
Co825 O852 2.096 . S
C826 N829 1.301 . S
C826 N830 1.328 . S
C826 H831 0.930 . S
C827 C828 1.333 . S
C827 N829 1.317 . S
C827 H832 0.930 . S
C828 C827 1.333 . S
C828 N830 1.350 . S
C828 H854 0.931 . S
N829 Co825 2.148 . S
N829 C826 1.301 . S
N829 C827 1.317 . S
N830 C826 1.328 . S
N830 C828 1.350 . S
H831 C826 0.930 . S
H832 C827 0.930 . S
C833 O834 1.224 . S
C833 O852 1.247 . S
O834 C833 1.224 . S
N835 Co825 2.128 . S
N835 C836 1.355 . S
N835 C838 1.311 . S
C836 N835 1.355 . S
C836 C837 1.363 . S
C836 H848 0.929 . S
C837 C836 1.363 . S
C837 N839 1.375 . S
C837 H855 0.931 . S
C838 N835 1.311 . S
C838 N839 1.347 . S
C838 H849 0.929 . S
N839 C837 1.375 . S
N839 C838 1.347 . S
C840 C843 1.365 . S
C840 N845 1.328 . S
C840 H846 0.929 . S
C841 C842 1.362 . S
C841 C844 1.378 . S
C841 H856 0.929 . S
C842 C841 1.362 . S
C842 C843 1.366 . S
C843 C840 1.365 . S
C843 C842 1.366 . S
C843 H857 0.930 . S
C844 C841 1.378 . S
C844 N845 1.315 . S
C844 H847 0.930 . S
N845 Co825 2.194 . S
N845 C840 1.328 . S
N845 C844 1.315 . S
H846 C840 0.929 . S
H847 C844 0.930 . S
H848 C836 0.929 . S
H849 C838 0.929 . S
O850 Co825 2.351 . S
O850 C853 1.244 . S
O851 Co825 2.155 . S
O851 C853 1.240 . S
O852 Co825 2.096 . S
O852 C833 1.247 . S
C853 O850 1.244 . S
C853 O851 1.240 . S
H854 C828 0.931 . S
H855 C837 0.931 . S
H856 C841 0.929 . S
H857 C843 0.930 . S
Co858 N862 2.148 . S
Co858 N868 2.128 . S
Co858 N878 2.194 . S
Co858 O883 2.351 . S
Co858 O884 2.155 . S
Co858 O885 2.096 . S
C859 N862 1.301 . S
C859 N863 1.328 . S
C859 H864 0.930 . S
C860 C861 1.333 . S
C860 N862 1.317 . S
C860 H865 0.930 . S
C861 C860 1.333 . S
C861 N863 1.350 . S
C861 H887 0.931 . S
N862 Co858 2.148 . S
N862 C859 1.301 . S
N862 C860 1.317 . S
N863 C859 1.328 . S
N863 C861 1.350 . S
H864 C859 0.930 . S
H865 C860 0.930 . S
C866 O867 1.224 . S
C866 O885 1.247 . S
O867 C866 1.224 . S
N868 Co858 2.128 . S
N868 C869 1.355 . S
N868 C871 1.311 . S
C869 N868 1.355 . S
C869 C870 1.363 . S
C869 H881 0.929 . S
C870 C869 1.363 . S
C870 N872 1.375 . S
C870 H888 0.931 . S
C871 N868 1.311 . S
C871 N872 1.347 . S
C871 H882 0.929 . S
N872 C870 1.375 . S
N872 C871 1.347 . S
C873 C876 1.365 . S
C873 N878 1.328 . S
C873 H879 0.929 . S
C874 C875 1.362 . S
C874 C877 1.378 . S
C874 H889 0.929 . S
C875 C874 1.362 . S
C875 C876 1.366 . S
C876 C873 1.365 . S
C876 C875 1.366 . S
C876 H890 0.930 . S
C877 C874 1.378 . S
C877 N878 1.315 . S
C877 H880 0.930 . S
N878 Co858 2.194 . S
N878 C873 1.328 . S
N878 C877 1.315 . S
H879 C873 0.929 . S
H880 C877 0.930 . S
H881 C869 0.929 . S
H882 C871 0.929 . S
O883 Co858 2.351 . S
O883 C886 1.244 . S
O884 Co858 2.155 . S
O884 C886 1.240 . S
O885 Co858 2.096 . S
O885 C866 1.247 . S
C886 O883 1.244 . S
C886 O884 1.240 . S
H887 C861 0.931 . S
H888 C870 0.931 . S
H889 C874 0.929 . S
H890 C876 0.930 . S
Co891 N895 2.148 . S
Co891 N901 2.128 . S
Co891 N911 2.194 . S
Co891 O916 2.351 . S
Co891 O917 2.155 . S
Co891 O918 2.096 . S
C892 N895 1.301 . S
C892 N896 1.328 . S
C892 H897 0.930 . S
C893 C894 1.333 . S
C893 N895 1.317 . S
C893 H898 0.930 . S
C894 C893 1.333 . S
C894 N896 1.350 . S
C894 H920 0.931 . S
N895 Co891 2.148 . S
N895 C892 1.301 . S
N895 C893 1.317 . S
N896 C892 1.328 . S
N896 C894 1.350 . S
H897 C892 0.930 . S
H898 C893 0.930 . S
C899 O900 1.224 . S
C899 O918 1.247 . S
O900 C899 1.224 . S
N901 Co891 2.128 . S
N901 C902 1.355 . S
N901 C904 1.311 . S
C902 N901 1.355 . S
C902 C903 1.363 . S
C902 H914 0.929 . S
C903 C902 1.363 . S
C903 N905 1.375 . S
C903 H921 0.931 . S
C904 N901 1.311 . S
C904 N905 1.347 . S
C904 H915 0.929 . S
N905 C903 1.375 . S
N905 C904 1.347 . S
C906 C909 1.365 . S
C906 N911 1.328 . S
C906 H912 0.929 . S
C907 C908 1.362 . S
C907 C910 1.378 . S
C907 H922 0.929 . S
C908 C907 1.362 . S
C908 C909 1.366 . S
C909 C906 1.365 . S
C909 C908 1.366 . S
C909 H923 0.930 . S
C910 C907 1.378 . S
C910 N911 1.315 . S
C910 H913 0.930 . S
N911 Co891 2.194 . S
N911 C906 1.328 . S
N911 C910 1.315 . S
H912 C906 0.929 . S
H913 C910 0.930 . S
H914 C902 0.929 . S
H915 C904 0.929 . S
O916 Co891 2.351 . S
O916 C919 1.244 . S
O917 Co891 2.155 . S
O917 C919 1.240 . S
O918 Co891 2.096 . S
O918 C899 1.247 . S
C919 O916 1.244 . S
C919 O917 1.240 . S
H920 C894 0.931 . S
H921 C903 0.931 . S
H922 C907 0.929 . S
H923 C909 0.930 . S
Co924 N928 2.148 . S
Co924 N934 2.128 . S
Co924 N944 2.194 . S
Co924 O949 2.351 . S
Co924 O950 2.155 . S
Co924 O951 2.096 . S
C925 N928 1.301 . S
C925 N929 1.328 . S
C925 H930 0.930 . S
C926 C927 1.333 . S
C926 N928 1.317 . S
C926 H931 0.930 . S
C927 C926 1.333 . S
C927 N929 1.350 . S
C927 H953 0.931 . S
N928 Co924 2.148 . S
N928 C925 1.301 . S
N928 C926 1.317 . S
N929 C925 1.328 . S
N929 C927 1.350 . S
H930 C925 0.930 . S
H931 C926 0.930 . S
C932 O933 1.224 . S
C932 O951 1.247 . S
O933 C932 1.224 . S
N934 Co924 2.128 . S
N934 C935 1.355 . S
N934 C937 1.311 . S
C935 N934 1.355 . S
C935 C936 1.363 . S
C935 H947 0.929 . S
C936 C935 1.363 . S
C936 N938 1.375 . S
C936 H954 0.931 . S
C937 N934 1.311 . S
C937 N938 1.347 . S
C937 H948 0.929 . S
N938 C936 1.375 . S
N938 C937 1.347 . S
C939 C942 1.365 . S
C939 N944 1.328 . S
C939 H945 0.929 . S
C940 C941 1.362 . S
C940 C943 1.378 . S
C940 H955 0.929 . S
C941 C940 1.362 . S
C941 C942 1.366 . S
C942 C939 1.365 . S
C942 C941 1.366 . S
C942 H956 0.930 . S
C943 C940 1.378 . S
C943 N944 1.315 . S
C943 H946 0.930 . S
N944 Co924 2.194 . S
N944 C939 1.328 . S
N944 C943 1.315 . S
H945 C939 0.929 . S
H946 C943 0.930 . S
H947 C935 0.929 . S
H948 C937 0.929 . S
O949 Co924 2.351 . S
O949 C952 1.244 . S
O950 Co924 2.155 . S
O950 C952 1.240 . S
O951 Co924 2.096 . S
O951 C932 1.247 . S
C952 O949 1.244 . S
C952 O950 1.240 . S
H953 C927 0.931 . S
H954 C936 0.931 . S
H955 C940 0.929 . S
H956 C942 0.930 . S
Co957 N961 2.148 . S
Co957 N967 2.128 . S
Co957 N977 2.194 . S
Co957 O982 2.351 . S
Co957 O983 2.155 . S
Co957 O984 2.096 . S
C958 N961 1.301 . S
C958 N962 1.328 . S
C958 H963 0.930 . S
C959 C960 1.333 . S
C959 N961 1.317 . S
C959 H964 0.930 . S
C960 C959 1.333 . S
C960 N962 1.350 . S
C960 H986 0.931 . S
N961 Co957 2.148 . S
N961 C958 1.301 . S
N961 C959 1.317 . S
N962 C958 1.328 . S
N962 C960 1.350 . S
H963 C958 0.930 . S
H964 C959 0.930 . S
C965 O966 1.224 . S
C965 O984 1.247 . S
O966 C965 1.224 . S
N967 Co957 2.128 . S
N967 C968 1.355 . S
N967 C970 1.311 . S
C968 N967 1.355 . S
C968 C969 1.363 . S
C968 H980 0.929 . S
C969 C968 1.363 . S
C969 N971 1.375 . S
C969 H987 0.931 . S
C970 N967 1.311 . S
C970 N971 1.347 . S
C970 H981 0.929 . S
N971 C969 1.375 . S
N971 C970 1.347 . S
C972 C975 1.365 . S
C972 N977 1.328 . S
C972 H978 0.929 . S
C973 C974 1.362 . S
C973 C976 1.378 . S
C973 H988 0.929 . S
C974 C973 1.362 . S
C974 C975 1.366 . S
C975 C972 1.365 . S
C975 C974 1.366 . S
C975 H989 0.930 . S
C976 C973 1.378 . S
C976 N977 1.315 . S
C976 H979 0.930 . S
N977 Co957 2.194 . S
N977 C972 1.328 . S
N977 C976 1.315 . S
H978 C972 0.929 . S
H979 C976 0.930 . S
H980 C968 0.929 . S
H981 C970 0.929 . S
O982 Co957 2.351 . S
O982 C985 1.244 . S
O983 Co957 2.155 . S
O983 C985 1.240 . S
O984 Co957 2.096 . S
O984 C965 1.247 . S
C985 O982 1.244 . S
C985 O983 1.240 . S
H986 C960 0.931 . S
H987 C969 0.931 . S
H988 C973 0.929 . S
H989 C975 0.930 . S
Co990 N994 2.148 . S
Co990 N1000 2.128 . S
Co990 N1010 2.194 . S
Co990 O1015 2.351 1_556 S
Co990 O1016 2.155 . S
Co990 O1017 2.096 . S
C991 N994 1.301 . S
C991 N995 1.328 . S
C991 H996 0.930 . S
C992 C993 1.333 . S
C992 N994 1.317 . S
C992 H997 0.930 . S
C993 C992 1.333 . S
C993 N995 1.350 . S
C993 H1019 0.931 . S
N994 Co990 2.148 . S
N994 C991 1.301 . S
N994 C992 1.317 . S
N995 C991 1.328 . S
N995 C993 1.350 . S
H996 C991 0.930 . S
H997 C992 0.930 . S
C998 O999 1.224 . S
C998 O1017 1.247 . S
O999 C998 1.224 . S
N1000 Co990 2.128 . S
N1000 C1001 1.355 . S
N1000 C1003 1.311 . S
C1001 N1000 1.355 . S
C1001 C1002 1.363 . S
C1001 H1013 0.929 . S
C1002 C1001 1.363 . S
C1002 N1004 1.375 . S
C1002 H1020 0.931 . S
C1003 N1000 1.311 . S
C1003 N1004 1.347 . S
C1003 H1014 0.929 . S
N1004 C1002 1.375 . S
N1004 C1003 1.347 . S
C1005 C1008 1.365 . S
C1005 N1010 1.328 . S
C1005 H1011 0.929 . S
C1006 C1007 1.362 . S
C1006 C1009 1.378 . S
C1006 H1021 0.929 . S
C1007 C1006 1.362 . S
C1007 C1008 1.366 . S
C1008 C1005 1.365 . S
C1008 C1007 1.366 . S
C1008 H1022 0.930 . S
C1009 C1006 1.378 . S
C1009 N1010 1.315 . S
C1009 H1012 0.930 . S
N1010 Co990 2.194 . S
N1010 C1005 1.328 . S
N1010 C1009 1.315 . S
H1011 C1005 0.929 . S
H1012 C1009 0.930 . S
H1013 C1001 0.929 . S
H1014 C1003 0.929 . S
O1015 Co990 2.351 1_554 S
O1015 C1018 1.244 . S
O1016 Co990 2.155 . S
O1016 C1018 1.240 1_556 S
O1017 Co990 2.096 . S
O1017 C998 1.247 . S
C1018 O1015 1.244 . S
C1018 O1016 1.240 1_554 S
H1019 C993 0.931 . S
H1020 C1002 0.931 . S
H1021 C1006 0.929 . S
H1022 C1008 0.930 . S
Co1023 N1027 2.148 . S
Co1023 N1033 2.128 . S
Co1023 N1043 2.194 . S
Co1023 O1048 2.351 . S
Co1023 O1049 2.155 . S
Co1023 O1050 2.096 . S
C1024 N1027 1.301 . S
C1024 N1028 1.328 . S
C1024 H1029 0.930 . S
C1025 C1026 1.333 . S
C1025 N1027 1.317 . S
C1025 H1030 0.930 . S
C1026 C1025 1.333 . S
C1026 N1028 1.350 . S
C1026 H1052 0.931 . S
N1027 Co1023 2.148 . S
N1027 C1024 1.301 . S
N1027 C1025 1.317 . S
N1028 C1024 1.328 . S
N1028 C1026 1.350 . S
H1029 C1024 0.930 . S
H1030 C1025 0.930 . S
C1031 O1032 1.224 . S
C1031 O1050 1.247 . S
O1032 C1031 1.224 . S
N1033 Co1023 2.128 . S
N1033 C1034 1.355 . S
N1033 C1036 1.311 . S
C1034 N1033 1.355 . S
C1034 C1035 1.363 . S
C1034 H1046 0.929 . S
C1035 C1034 1.363 . S
C1035 N1037 1.375 . S
C1035 H1053 0.931 . S
C1036 N1033 1.311 . S
C1036 N1037 1.347 . S
C1036 H1047 0.929 . S
N1037 C1035 1.375 . S
N1037 C1036 1.347 . S
C1038 C1041 1.365 . S
C1038 N1043 1.328 . S
C1038 H1044 0.929 . S
C1039 C1040 1.362 . S
C1039 C1042 1.378 . S
C1039 H1054 0.929 . S
C1040 C1039 1.362 . S
C1040 C1041 1.366 . S
C1041 C1038 1.365 . S
C1041 C1040 1.366 . S
C1041 H1055 0.930 . S
C1042 C1039 1.378 . S
C1042 N1043 1.315 . S
C1042 H1045 0.930 . S
N1043 Co1023 2.194 . S
N1043 C1038 1.328 . S
N1043 C1042 1.315 . S
H1044 C1038 0.929 . S
H1045 C1042 0.930 . S
H1046 C1034 0.929 . S
H1047 C1036 0.929 . S
O1048 Co1023 2.351 . S
O1048 C1051 1.244 . S
O1049 Co1023 2.155 . S
O1049 C1051 1.240 . S
O1050 Co1023 2.096 . S
O1050 C1031 1.247 . S
C1051 O1048 1.244 . S
C1051 O1049 1.240 . S
H1052 C1026 0.931 . S
H1053 C1035 0.931 . S
H1054 C1039 0.929 . S
H1055 C1041 0.930 . S
C1056 C1057 1.387 . S
C1056 H1060 0.950 . S
C1056 C1065 1.390 . S
C1057 C1056 1.387 . S
C1057 C1059 1.387 . S
H1058 C1065 0.950 . S
C1059 C1057 1.387 . S
C1059 C1061 1.390 . S
C1059 H1063 0.950 . S
H1060 C1056 0.950 . S
C1061 C1059 1.390 . S
C1061 C1062 1.387 . S
C1061 H1064 0.950 . S
C1062 C1061 1.387 . S
C1062 C1065 1.387 . S
H1063 C1059 0.950 . S
H1064 C1061 0.950 . S
C1065 C1056 1.390 . S
C1065 H1058 0.950 . S
C1065 C1062 1.387 . S
C1066 C1067 1.387 . S
C1066 H1070 0.950 . S
C1066 C1075 1.390 . S
C1067 C1066 1.387 . S
C1067 C1069 1.387 . S
H1068 C1075 0.950 . S
C1069 C1067 1.387 . S
C1069 C1071 1.390 . S
C1069 H1073 0.950 . S
H1070 C1066 0.950 . S
C1071 C1069 1.390 . S
C1071 C1072 1.387 . S
C1071 H1074 0.950 . S
C1072 C1071 1.387 . S
C1072 C1075 1.387 . S
H1073 C1069 0.950 . S
H1074 C1071 0.950 . S
C1075 C1066 1.390 . S
C1075 H1068 0.950 . S
C1075 C1072 1.387 . S
C1076 C1077 1.387 . S
C1076 H1080 0.950 . S
C1076 C1085 1.390 . S
C1077 C1076 1.387 . S
C1077 C1079 1.387 . S
H1078 C1085 0.950 . S
C1079 C1077 1.387 . S
C1079 C1081 1.390 . S
C1079 H1083 0.950 . S
H1080 C1076 0.950 . S
C1081 C1079 1.390 . S
C1081 C1082 1.387 . S
C1081 H1084 0.950 . S
C1082 C1081 1.387 . S
C1082 C1085 1.387 . S
H1083 C1079 0.950 . S
H1084 C1081 0.950 . S
C1085 C1076 1.390 . S
C1085 H1078 0.950 . S
C1085 C1082 1.387 . S
C1086 C1087 1.387 . S
C1086 H1090 0.950 . S
C1086 C1095 1.390 . S
C1087 C1086 1.387 . S
C1087 C1089 1.387 . S
H1088 C1095 0.950 . S
C1089 C1087 1.387 . S
C1089 C1091 1.390 . S
C1089 H1093 0.950 . S
H1090 C1086 0.950 . S
C1091 C1089 1.390 . S
C1091 C1092 1.387 . S
C1091 H1094 0.950 . S
C1092 C1091 1.387 . S
C1092 C1095 1.387 . S
H1093 C1089 0.950 . S
H1094 C1091 0.950 . S
C1095 C1086 1.390 . S
C1095 H1088 0.950 . S
C1095 C1092 1.387 . S
C1096 C1097 1.387 . S
C1096 H1100 0.950 . S
C1096 C1105 1.390 . S
C1097 C1096 1.387 . S
C1097 C1099 1.387 . S
H1098 C1105 0.950 . S
C1099 C1097 1.387 . S
C1099 C1101 1.390 . S
C1099 H1103 0.950 . S
H1100 C1096 0.950 . S
C1101 C1099 1.390 . S
C1101 C1102 1.387 . S
C1101 H1104 0.950 . S
C1102 C1101 1.387 . S
C1102 C1105 1.387 . S
H1103 C1099 0.950 . S
H1104 C1101 0.950 . S
C1105 C1096 1.390 . S
C1105 H1098 0.950 . S
C1105 C1102 1.387 . S
C1106 C1107 1.387 . S
C1106 H1110 0.950 . S
C1106 C1115 1.390 . S
C1107 C1106 1.387 . S
C1107 C1109 1.387 . S
H1108 C1115 0.950 . S
C1109 C1107 1.387 . S
C1109 C1111 1.390 . S
C1109 H1113 0.950 . S
H1110 C1106 0.950 . S
C1111 C1109 1.390 . S
C1111 C1112 1.387 . S
C1111 H1114 0.950 . S
C1112 C1111 1.387 . S
C1112 C1115 1.387 . S
H1113 C1109 0.950 . S
H1114 C1111 0.950 . S
C1115 C1106 1.390 . S
C1115 H1108 0.950 . S
C1115 C1112 1.387 . S
C1116 C1117 1.387 . S
C1116 H1120 0.950 . S
C1116 C1125 1.390 . S
C1117 C1116 1.387 . S
C1117 C1119 1.387 . S
H1118 C1125 0.950 . S
C1119 C1117 1.387 . S
C1119 C1121 1.390 . S
C1119 H1123 0.950 . S
H1120 C1116 0.950 . S
C1121 C1119 1.390 . S
C1121 C1122 1.387 . S
C1121 H1124 0.950 . S
C1122 C1121 1.387 . S
C1122 C1125 1.387 . S
H1123 C1119 0.950 . S
H1124 C1121 0.950 . S
C1125 C1116 1.390 . S
C1125 H1118 0.950 . S
C1125 C1122 1.387 . S
C1126 C1127 1.387 . S
C1126 H1130 0.950 . S
C1126 C1135 1.390 . S
C1127 C1126 1.387 . S
C1127 C1129 1.387 . S
H1128 C1135 0.950 . S
C1129 C1127 1.387 . S
C1129 C1131 1.390 . S
C1129 H1133 0.950 . S
H1130 C1126 0.950 . S
C1131 C1129 1.390 . S
C1131 C1132 1.387 . S
C1131 H1134 0.950 . S
C1132 C1131 1.387 . S
C1132 C1135 1.387 . S
H1133 C1129 0.950 . S
H1134 C1131 0.950 . S
C1135 C1126 1.390 . S
C1135 H1128 0.950 . S
C1135 C1132 1.387 . S
C1136 C1137 1.387 . S
C1136 H1140 0.950 . S
C1136 C1145 1.390 . S
C1137 C1136 1.387 . S
C1137 C1139 1.387 . S
H1138 C1145 0.950 . S
C1139 C1137 1.387 . S
C1139 C1141 1.390 . S
C1139 H1143 0.950 . S
H1140 C1136 0.950 . S
C1141 C1139 1.390 . S
C1141 C1142 1.387 . S
C1141 H1144 0.950 . S
C1142 C1141 1.387 . S
C1142 C1145 1.387 . S
H1143 C1139 0.950 . S
H1144 C1141 0.950 . S
C1145 C1136 1.390 . S
C1145 H1138 0.950 . S
C1145 C1142 1.387 . S
C1146 C1147 1.387 . S
C1146 H1150 0.950 . S
C1146 C1155 1.390 . S
C1147 C1146 1.387 . S
C1147 C1149 1.387 . S
H1148 C1155 0.950 . S
C1149 C1147 1.387 . S
C1149 C1151 1.390 . S
C1149 H1153 0.950 . S
H1150 C1146 0.950 . S
C1151 C1149 1.390 . S
C1151 C1152 1.387 . S
C1151 H1154 0.950 . S
C1152 C1151 1.387 . S
C1152 C1155 1.387 . S
H1153 C1149 0.950 . S
H1154 C1151 0.950 . S
C1155 C1146 1.390 . S
C1155 H1148 0.950 . S
C1155 C1152 1.387 . S
C1156 C1157 1.387 . S
C1156 H1160 0.950 . S
C1156 C1165 1.390 . S
C1157 C1156 1.387 . S
C1157 C1159 1.387 . S
H1158 C1165 0.950 . S
C1159 C1157 1.387 . S
C1159 C1161 1.390 . S
C1159 H1163 0.950 . S
H1160 C1156 0.950 . S
C1161 C1159 1.390 . S
C1161 C1162 1.387 . S
C1161 H1164 0.950 . S
C1162 C1161 1.387 . S
C1162 C1165 1.387 . S
H1163 C1159 0.950 . S
H1164 C1161 0.950 . S
C1165 C1156 1.390 . S
C1165 H1158 0.950 . S
C1165 C1162 1.387 . S
C1166 C1167 1.387 . S
C1166 H1170 0.950 . S
C1166 C1175 1.390 . S
C1167 C1166 1.387 . S
C1167 C1169 1.387 . S
H1168 C1175 0.950 . S
C1169 C1167 1.387 . S
C1169 C1171 1.390 . S
C1169 H1173 0.950 . S
H1170 C1166 0.950 . S
C1171 C1169 1.390 . S
C1171 C1172 1.387 . S
C1171 H1174 0.950 . S
C1172 C1171 1.387 . S
C1172 C1175 1.387 . S
H1173 C1169 0.950 . S
H1174 C1171 0.950 . S
C1175 C1166 1.390 . S
C1175 H1168 0.950 . S
C1175 C1172 1.387 . S
C1176 C1177 1.387 . S
C1176 H1180 0.950 . S
C1176 C1185 1.390 . S
C1177 C1176 1.387 . S
C1177 C1179 1.387 . S
H1178 C1185 0.950 . S
C1179 C1177 1.387 . S
C1179 C1181 1.390 . S
C1179 H1183 0.950 . S
H1180 C1176 0.950 . S
C1181 C1179 1.390 . S
C1181 C1182 1.387 . S
C1181 H1184 0.950 . S
C1182 C1181 1.387 . S
C1182 C1185 1.387 . S
H1183 C1179 0.950 . S
H1184 C1181 0.950 . S
C1185 C1176 1.390 . S
C1185 H1178 0.950 . S
C1185 C1182 1.387 . S
C1186 C1187 1.387 . S
C1186 H1190 0.950 . S
C1186 C1195 1.390 . S
C1187 C1186 1.387 . S
C1187 C1189 1.387 . S
H1188 C1195 0.950 . S
C1189 C1187 1.387 . S
C1189 C1191 1.390 . S
C1189 H1193 0.950 . S
H1190 C1186 0.950 . S
C1191 C1189 1.390 . S
C1191 C1192 1.387 . S
C1191 H1194 0.950 . S
C1192 C1191 1.387 . S
C1192 C1195 1.387 . S
H1193 C1189 0.950 . S
H1194 C1191 0.950 . S
C1195 C1186 1.390 . S
C1195 H1188 0.950 . S
C1195 C1192 1.387 . S
C1196 C1197 1.387 . S
C1196 H1200 0.950 . S
C1196 C1205 1.390 . S
C1197 C1196 1.387 . S
C1197 C1199 1.387 . S
H1198 C1205 0.950 . S
C1199 C1197 1.387 . S
C1199 C1201 1.390 . S
C1199 H1203 0.950 . S
H1200 C1196 0.950 . S
C1201 C1199 1.390 . S
C1201 C1202 1.387 . S
C1201 H1204 0.950 . S
C1202 C1201 1.387 . S
C1202 C1205 1.387 . S
H1203 C1199 0.950 . S
H1204 C1201 0.950 . S
C1205 C1196 1.390 . S
C1205 H1198 0.950 . S
C1205 C1202 1.387 . S
C1206 C1207 1.387 . S
C1206 H1210 0.950 . S
C1206 C1215 1.390 . S
C1207 C1206 1.387 . S
C1207 C1209 1.387 . S
H1208 C1215 0.950 . S
C1209 C1207 1.387 . S
C1209 C1211 1.390 . S
C1209 H1213 0.950 . S
H1210 C1206 0.950 . S
C1211 C1209 1.390 . S
C1211 C1212 1.387 . S
C1211 H1214 0.950 . S
C1212 C1211 1.387 . S
C1212 C1215 1.387 . S
H1213 C1209 0.950 . S
H1214 C1211 0.950 . S
C1215 C1206 1.390 . S
C1215 H1208 0.950 . S
C1215 C1212 1.387 . S
C1216 C1217 1.387 . S
C1216 H1220 0.950 . S
C1216 C1225 1.390 . S
C1217 C1216 1.387 . S
C1217 C1219 1.387 . S
H1218 C1225 0.950 . S
C1219 C1217 1.387 . S
C1219 C1221 1.390 . S
C1219 H1223 0.950 . S
H1220 C1216 0.950 . S
C1221 C1219 1.390 . S
C1221 C1222 1.387 . S
C1221 H1224 0.950 . S
C1222 C1221 1.387 . S
C1222 C1225 1.387 . S
H1223 C1219 0.950 . S
H1224 C1221 0.950 . S
C1225 C1216 1.390 . S
C1225 H1218 0.950 . S
C1225 C1222 1.387 . S
C1226 C1227 1.387 . S
C1226 H1230 0.950 . S
C1226 C1235 1.390 . S
C1227 C1226 1.387 . S
C1227 C1229 1.387 . S
H1228 C1235 0.950 . S
C1229 C1227 1.387 . S
C1229 C1231 1.390 . S
C1229 H1233 0.950 . S
H1230 C1226 0.950 . S
C1231 C1229 1.390 . S
C1231 C1232 1.387 . S
C1231 H1234 0.950 . S
C1232 C1231 1.387 . S
C1232 C1235 1.387 . S
H1233 C1229 0.950 . S
H1234 C1231 0.950 . S
C1235 C1226 1.390 . S
C1235 H1228 0.950 . S
C1235 C1232 1.387 . S
C1236 C1237 1.387 . S
C1236 H1240 0.950 . S
C1236 C1245 1.390 . S
C1237 C1236 1.387 . S
C1237 C1239 1.387 . S
H1238 C1245 0.950 . S
C1239 C1237 1.387 . S
C1239 C1241 1.390 . S
C1239 H1243 0.950 . S
H1240 C1236 0.950 . S
C1241 C1239 1.390 . S
C1241 C1242 1.387 . S
C1241 H1244 0.950 . S
C1242 C1241 1.387 . S
C1242 C1245 1.387 . S
H1243 C1239 0.950 . S
H1244 C1241 0.950 . S
C1245 C1236 1.390 . S
C1245 H1238 0.950 . S
C1245 C1242 1.387 . S
C1246 C1247 1.387 . S
C1246 H1250 0.950 . S
C1246 C1255 1.390 . S
C1247 C1246 1.387 . S
C1247 C1249 1.387 . S
H1248 C1255 0.950 . S
C1249 C1247 1.387 . S
C1249 C1251 1.390 . S
C1249 H1253 0.950 . S
H1250 C1246 0.950 . S
C1251 C1249 1.390 . S
C1251 C1252 1.387 . S
C1251 H1254 0.950 . S
C1252 C1251 1.387 . S
C1252 C1255 1.387 . S
H1253 C1249 0.950 . S
H1254 C1251 0.950 . S
C1255 C1246 1.390 . S
C1255 H1248 0.950 . S
C1255 C1252 1.387 . S
C1256 C1257 1.387 . S
C1256 H1260 0.950 . S
C1256 C1265 1.390 . S
C1257 C1256 1.387 . S
C1257 C1259 1.387 . S
H1258 C1265 0.950 . S
C1259 C1257 1.387 . S
C1259 C1261 1.390 . S
C1259 H1263 0.950 . S
H1260 C1256 0.950 . S
C1261 C1259 1.390 . S
C1261 C1262 1.387 . S
C1261 H1264 0.950 . S
C1262 C1261 1.387 . S
C1262 C1265 1.387 . S
H1263 C1259 0.950 . S
H1264 C1261 0.950 . S
C1265 C1256 1.390 . S
C1265 H1258 0.950 . S
C1265 C1262 1.387 . S
C1266 C1267 1.387 . S
C1266 H1270 0.950 . S
C1266 C1275 1.390 . S
C1267 C1266 1.387 . S
C1267 C1269 1.387 . S
H1268 C1275 0.950 . S
C1269 C1267 1.387 . S
C1269 C1271 1.390 . S
C1269 H1273 0.950 . S
H1270 C1266 0.950 . S
C1271 C1269 1.390 . S
C1271 C1272 1.387 . S
C1271 H1274 0.950 . S
C1272 C1271 1.387 . S
C1272 C1275 1.387 . S
H1273 C1269 0.950 . S
H1274 C1271 0.950 . S
C1275 C1266 1.390 . S
C1275 H1268 0.950 . S
C1275 C1272 1.387 . S
C1276 C1277 1.387 . S
C1276 H1280 0.950 . S
C1276 C1285 1.390 . S
C1277 C1276 1.387 . S
C1277 C1279 1.387 . S
H1278 C1285 0.950 . S
C1279 C1277 1.387 . S
C1279 C1281 1.390 . S
C1279 H1283 0.950 . S
H1280 C1276 0.950 . S
C1281 C1279 1.390 . S
C1281 C1282 1.387 . S
C1281 H1284 0.950 . S
C1282 C1281 1.387 . S
C1282 C1285 1.387 . S
H1283 C1279 0.950 . S
H1284 C1281 0.950 . S
C1285 C1276 1.390 . S
C1285 H1278 0.950 . S
C1285 C1282 1.387 . S
C1286 C1287 1.387 . S
C1286 H1290 0.950 . S
C1286 C1295 1.390 . S
C1287 C1286 1.387 . S
C1287 C1289 1.387 . S
H1288 C1295 0.950 . S
C1289 C1287 1.387 . S
C1289 C1291 1.390 . S
C1289 H1293 0.950 . S
H1290 C1286 0.950 . S
C1291 C1289 1.390 . S
C1291 C1292 1.387 . S
C1291 H1294 0.950 . S
C1292 C1291 1.387 . S
C1292 C1295 1.387 . S
H1293 C1289 0.950 . S
H1294 C1291 0.950 . S
C1295 C1286 1.390 . S
C1295 H1288 0.950 . S
C1295 C1292 1.387 . S
C1296 C1297 1.387 . S
C1296 H1300 0.950 . S
C1296 C1305 1.390 . S
C1297 C1296 1.387 . S
C1297 C1299 1.387 . S
H1298 C1305 0.950 . S
C1299 C1297 1.387 . S
C1299 C1301 1.390 . S
C1299 H1303 0.950 . S
H1300 C1296 0.950 . S
C1301 C1299 1.390 . S
C1301 C1302 1.387 . S
C1301 H1304 0.950 . S
C1302 C1301 1.387 . S
C1302 C1305 1.387 . S
H1303 C1299 0.950 . S
H1304 C1301 0.950 . S
C1305 C1296 1.390 . S
C1305 H1298 0.950 . S
C1305 C1302 1.387 . S
C1306 C1307 1.387 . S
C1306 H1310 0.950 . S
C1306 C1315 1.390 . S
C1307 C1306 1.387 . S
C1307 C1309 1.387 . S
H1308 C1315 0.950 . S
C1309 C1307 1.387 . S
C1309 C1311 1.390 . S
C1309 H1313 0.950 . S
H1310 C1306 0.950 . S
C1311 C1309 1.390 . S
C1311 C1312 1.387 . S
C1311 H1314 0.950 . S
C1312 C1311 1.387 . S
C1312 C1315 1.387 . S
H1313 C1309 0.950 . S
H1314 C1311 0.950 . S
C1315 C1306 1.390 . S
C1315 H1308 0.950 . S
C1315 C1312 1.387 . S
C1316 C1317 1.387 . S
C1316 H1320 0.950 . S
C1316 C1325 1.390 . S
C1317 C1316 1.387 . S
C1317 C1319 1.387 . S
H1318 C1325 0.950 . S
C1319 C1317 1.387 . S
C1319 C1321 1.390 . S
C1319 H1323 0.950 . S
H1320 C1316 0.950 . S
C1321 C1319 1.390 . S
C1321 C1322 1.387 . S
C1321 H1324 0.950 . S
C1322 C1321 1.387 . S
C1322 C1325 1.387 . S
H1323 C1319 0.950 . S
H1324 C1321 0.950 . S
C1325 C1316 1.390 . S
C1325 H1318 0.950 . S
C1325 C1322 1.387 . S
C1326 C1327 1.387 . S
C1326 H1330 0.950 . S
C1326 C1335 1.390 . S
C1327 C1326 1.387 . S
C1327 C1329 1.387 . S
H1328 C1335 0.950 . S
C1329 C1327 1.387 . S
C1329 C1331 1.390 . S
C1329 H1333 0.950 . S
H1330 C1326 0.950 . S
C1331 C1329 1.390 . S
C1331 C1332 1.387 . S
C1331 H1334 0.950 . S
C1332 C1331 1.387 . S
C1332 C1335 1.387 . S
H1333 C1329 0.950 . S
H1334 C1331 0.950 . S
C1335 C1326 1.390 . S
C1335 H1328 0.950 . S
C1335 C1332 1.387 . S
C1336 C1337 1.387 . S
C1336 H1340 0.950 . S
C1336 C1345 1.390 . S
C1337 C1336 1.387 . S
C1337 C1339 1.387 . S
H1338 C1345 0.950 . S
C1339 C1337 1.387 . S
C1339 C1341 1.390 . S
C1339 H1343 0.950 . S
H1340 C1336 0.950 . S
C1341 C1339 1.390 . S
C1341 C1342 1.387 . S
C1341 H1344 0.950 . S
C1342 C1341 1.387 . S
C1342 C1345 1.387 . S
H1343 C1339 0.950 . S
H1344 C1341 0.950 . S
C1345 C1336 1.390 . S
C1345 H1338 0.950 . S
C1345 C1342 1.387 . S
C1346 C1347 1.387 . S
C1346 H1350 0.950 . S
C1346 C1355 1.390 . S
C1347 C1346 1.387 . S
C1347 C1349 1.387 . S
H1348 C1355 0.950 . S
C1349 C1347 1.387 . S
C1349 C1351 1.390 . S
C1349 H1353 0.950 . S
H1350 C1346 0.950 . S
C1351 C1349 1.390 . S
C1351 C1352 1.387 . S
C1351 H1354 0.950 . S
C1352 C1351 1.387 . S
C1352 C1355 1.387 . S
H1353 C1349 0.950 . S
H1354 C1351 0.950 . S
C1355 C1346 1.390 . S
C1355 H1348 0.950 . S
C1355 C1352 1.387 . S
C1356 C1357 1.387 . S
C1356 H1360 0.950 . S
C1356 C1365 1.390 . S
C1357 C1356 1.387 . S
C1357 C1359 1.387 . S
H1358 C1365 0.950 . S
C1359 C1357 1.387 . S
C1359 C1361 1.390 . S
C1359 H1363 0.950 . S
H1360 C1356 0.950 . S
C1361 C1359 1.390 . S
C1361 C1362 1.387 . S
C1361 H1364 0.950 . S
C1362 C1361 1.387 . S
C1362 C1365 1.387 . S
H1363 C1359 0.950 . S
H1364 C1361 0.950 . S
C1365 C1356 1.390 . S
C1365 H1358 0.950 . S
C1365 C1362 1.387 . S
C1366 C1367 1.387 . S
C1366 H1370 0.950 . S
C1366 C1375 1.390 . S
C1367 C1366 1.387 . S
C1367 C1369 1.387 . S
H1368 C1375 0.950 . S
C1369 C1367 1.387 . S
C1369 C1371 1.390 . S
C1369 H1373 0.950 . S
H1370 C1366 0.950 . S
C1371 C1369 1.390 . S
C1371 C1372 1.387 . S
C1371 H1374 0.950 . S
C1372 C1371 1.387 . S
C1372 C1375 1.387 . S
H1373 C1369 0.950 . S
H1374 C1371 0.950 . S
C1375 C1366 1.390 . S
C1375 H1368 0.950 . S
C1375 C1372 1.387 . S
C1376 C1377 1.387 . S
C1376 H1380 0.950 . S
C1376 C1385 1.390 . S
C1377 C1376 1.387 . S
C1377 C1379 1.387 . S
H1378 C1385 0.950 . S
C1379 C1377 1.387 . S
C1379 C1381 1.390 . S
C1379 H1383 0.950 . S
H1380 C1376 0.950 . S
C1381 C1379 1.390 . S
C1381 C1382 1.387 . S
C1381 H1384 0.950 . S
C1382 C1381 1.387 . S
C1382 C1385 1.387 . S
H1383 C1379 0.950 . S
H1384 C1381 0.950 . S
C1385 C1376 1.390 . S
C1385 H1378 0.950 . S
C1385 C1382 1.387 . S
C1386 C1387 1.387 . S
C1386 H1390 0.950 . S
C1386 C1395 1.390 1_565 S
C1387 C1386 1.387 . S
C1387 C1389 1.387 . S
H1388 C1395 0.950 . S
C1389 C1387 1.387 . S
C1389 C1391 1.390 1_565 S
C1389 H1393 0.950 . S
H1390 C1386 0.950 . S
C1391 C1389 1.390 1_545 S
C1391 C1392 1.387 . S
C1391 H1394 0.950 . S
C1392 C1391 1.387 . S
C1392 C1395 1.387 . S
H1393 C1389 0.950 . S
H1394 C1391 0.950 . S
C1395 C1386 1.390 1_545 S
C1395 H1388 0.950 . S
C1395 C1392 1.387 . S
C1396 C1397 1.387 . S
C1396 H1400 0.950 . S
C1396 C1405 1.390 1_554 S
C1397 C1396 1.387 . S
C1397 C1399 1.387 . S
H1398 C1405 0.950 . S
C1399 C1397 1.387 . S
C1399 C1401 1.390 1_554 S
C1399 H1403 0.950 . S
H1400 C1396 0.950 . S
C1401 C1399 1.390 1_556 S
C1401 C1402 1.387 . S
C1401 H1404 0.950 . S
C1402 C1401 1.387 . S
C1402 C1405 1.387 . S
H1403 C1399 0.950 . S
H1404 C1401 0.950 . S
C1405 C1396 1.390 1_556 S
C1405 H1398 0.950 . S
C1405 C1402 1.387 . S
C1406 C1407 1.387 . S
C1406 H1410 0.950 . S
C1406 C1415 1.390 1_565 S
C1407 C1406 1.387 . S
C1407 C1409 1.387 . S
H1408 C1415 0.950 . S
C1409 C1407 1.387 . S
C1409 C1411 1.390 1_565 S
C1409 H1413 0.950 . S
H1410 C1406 0.950 . S
C1411 C1409 1.390 1_545 S
C1411 C1412 1.387 . S
C1411 H1414 0.950 . S
C1412 C1411 1.387 . S
C1412 C1415 1.387 . S
H1413 C1409 0.950 . S
H1414 C1411 0.950 . S
C1415 C1406 1.390 1_545 S
C1415 H1408 0.950 . S
C1415 C1412 1.387 . S
C1416 C1417 1.387 . S
C1416 H1420 0.950 . S
C1416 C1425 1.390 . S
C1417 C1416 1.387 . S
C1417 C1419 1.387 . S
H1418 C1425 0.950 . S
C1419 C1417 1.387 . S
C1419 C1421 1.390 . S
C1419 H1423 0.950 . S
H1420 C1416 0.950 . S
C1421 C1419 1.390 . S
C1421 C1422 1.387 . S
C1421 H1424 0.950 . S
C1422 C1421 1.387 . S
C1422 C1425 1.387 . S
H1423 C1419 0.950 . S
H1424 C1421 0.950 . S
C1425 C1416 1.390 . S
C1425 H1418 0.950 . S
C1425 C1422 1.387 . S
C1426 C1427 1.387 . S
C1426 H1430 0.950 . S
C1426 C1435 1.390 1_565 S
C1427 C1426 1.387 . S
C1427 C1429 1.387 . S
H1428 C1435 0.950 . S
C1429 C1427 1.387 . S
C1429 C1431 1.390 1_565 S
C1429 H1433 0.950 . S
H1430 C1426 0.950 . S
C1431 C1429 1.390 1_545 S
C1431 C1432 1.387 . S
C1431 H1434 0.950 . S
C1432 C1431 1.387 . S
C1432 C1435 1.387 . S
H1433 C1429 0.950 . S
H1434 C1431 0.950 . S
C1435 C1426 1.390 1_545 S
C1435 H1428 0.950 . S
C1435 C1432 1.387 . S
C1436 C1437 1.387 . S
C1436 H1440 0.950 . S
C1436 C1445 1.390 1_556 S
C1437 C1436 1.387 . S
C1437 C1439 1.387 . S
H1438 C1445 0.950 . S
C1439 C1437 1.387 . S
C1439 C1441 1.390 1_556 S
C1439 H1443 0.950 . S
H1440 C1436 0.950 . S
C1441 C1439 1.390 1_554 S
C1441 C1442 1.387 . S
C1441 H1444 0.950 . S
C1442 C1441 1.387 . S
C1442 C1445 1.387 . S
H1443 C1439 0.950 . S
H1444 C1441 0.950 . S
C1445 C1436 1.390 1_554 S
C1445 H1438 0.950 . S
C1445 C1442 1.387 . S
C1446 C1447 1.387 . S
C1446 H1450 0.950 . S
C1446 C1455 1.390 1_545 S
C1447 C1446 1.387 . S
C1447 C1449 1.387 . S
H1448 C1455 0.950 . S
C1449 C1447 1.387 . S
C1449 C1451 1.390 1_545 S
C1449 H1453 0.950 . S
H1450 C1446 0.950 . S
C1451 C1449 1.390 1_565 S
C1451 C1452 1.387 . S
C1451 H1454 0.950 . S
C1452 C1451 1.387 . S
C1452 C1455 1.387 . S
H1453 C1449 0.950 . S
H1454 C1451 0.950 . S
C1455 C1446 1.390 1_565 S
C1455 H1448 0.950 . S
C1455 C1452 1.387 . S
C1456 C1457 1.387 . S
C1456 H1460 0.950 . S
C1456 C1465 1.390 1_556 S
C1457 C1456 1.387 . S
C1457 C1459 1.387 . S
H1458 C1465 0.950 . S
C1459 C1457 1.387 . S
C1459 C1461 1.390 1_556 S
C1459 H1463 0.950 . S
H1460 C1456 0.950 . S
C1461 C1459 1.390 1_554 S
C1461 C1462 1.387 . S
C1461 H1464 0.950 . S
C1462 C1461 1.387 . S
C1462 C1465 1.387 . S
H1463 C1459 0.950 . S
H1464 C1461 0.950 . S
C1465 C1456 1.390 1_554 S
C1465 H1458 0.950 . S
C1465 C1462 1.387 . S
C1466 C1467 1.387 . S
C1466 H1470 0.950 . S
C1466 C1475 1.390 . S
C1467 C1466 1.387 . S
C1467 C1469 1.387 . S
H1468 C1475 0.950 . S
C1469 C1467 1.387 . S
C1469 C1471 1.390 . S
C1469 H1473 0.950 . S
H1470 C1466 0.950 . S
C1471 C1469 1.390 . S
C1471 C1472 1.387 . S
C1471 H1474 0.950 . S
C1472 C1471 1.387 . S
C1472 C1475 1.387 . S
H1473 C1469 0.950 . S
H1474 C1471 0.950 . S
C1475 C1466 1.390 . S
C1475 H1468 0.950 . S
C1475 C1472 1.387 . S
C1476 C1477 1.387 . S
C1476 H1480 0.950 . S
C1476 C1485 1.390 . S
C1477 C1476 1.387 . S
C1477 C1479 1.387 . S
H1478 C1485 0.950 . S
C1479 C1477 1.387 . S
C1479 C1481 1.390 . S
C1479 H1483 0.950 . S
H1480 C1476 0.950 . S
C1481 C1479 1.390 . S
C1481 C1482 1.387 . S
C1481 H1484 0.950 . S
C1482 C1481 1.387 . S
C1482 C1485 1.387 . S
H1483 C1479 0.950 . S
H1484 C1481 0.950 . S
C1485 C1476 1.390 . S
C1485 H1478 0.950 . S
C1485 C1482 1.387 . S
C1486 C1487 1.387 . S
C1486 H1490 0.950 . S
C1486 C1495 1.390 . S
C1487 C1486 1.387 . S
C1487 C1489 1.387 . S
H1488 C1495 0.950 . S
C1489 C1487 1.387 . S
C1489 C1491 1.390 . S
C1489 H1493 0.950 . S
H1490 C1486 0.950 . S
C1491 C1489 1.390 . S
C1491 C1492 1.387 . S
C1491 H1494 0.950 . S
C1492 C1491 1.387 . S
C1492 C1495 1.387 . S
H1493 C1489 0.950 . S
H1494 C1491 0.950 . S
C1495 C1486 1.390 . S
C1495 H1488 0.950 . S
C1495 C1492 1.387 . S
C1496 C1497 1.387 . S
C1496 H1500 0.950 . S
C1496 C1505 1.390 1_556 S
C1497 C1496 1.387 . S
C1497 C1499 1.387 . S
H1498 C1505 0.950 . S
C1499 C1497 1.387 . S
C1499 C1501 1.390 1_556 S
C1499 H1503 0.950 . S
H1500 C1496 0.950 . S
C1501 C1499 1.390 1_554 S
C1501 C1502 1.387 . S
C1501 H1504 0.950 . S
C1502 C1501 1.387 . S
C1502 C1505 1.387 . S
H1503 C1499 0.950 . S
H1504 C1501 0.950 . S
C1505 C1496 1.390 1_554 S
C1505 H1498 0.950 . S
C1505 C1502 1.387 . S
C1506 C1507 1.387 . S
C1506 H1510 0.950 . S
C1506 C1515 1.390 . S
C1507 C1506 1.387 . S
C1507 C1509 1.387 . S
H1508 C1515 0.950 . S
C1509 C1507 1.387 . S
C1509 C1511 1.390 . S
C1509 H1513 0.950 . S
H1510 C1506 0.950 . S
C1511 C1509 1.390 . S
C1511 C1512 1.387 . S
C1511 H1514 0.950 . S
C1512 C1511 1.387 . S
C1512 C1515 1.387 . S
H1513 C1509 0.950 . S
H1514 C1511 0.950 . S
C1515 C1506 1.390 . S
C1515 H1508 0.950 . S
C1515 C1512 1.387 . S
C1516 C1517 1.387 . S
C1516 H1520 0.950 . S
C1516 C1525 1.390 . S
C1517 C1516 1.387 . S
C1517 C1519 1.387 . S
H1518 C1525 0.950 . S
C1519 C1517 1.387 . S
C1519 C1521 1.390 . S
C1519 H1523 0.950 . S
H1520 C1516 0.950 . S
C1521 C1519 1.390 . S
C1521 C1522 1.387 . S
C1521 H1524 0.950 . S
C1522 C1521 1.387 . S
C1522 C1525 1.387 . S
H1523 C1519 0.950 . S
H1524 C1521 0.950 . S
C1525 C1516 1.390 . S
C1525 H1518 0.950 . S
C1525 C1522 1.387 . S
C1526 C1527 1.387 . S
C1526 H1530 0.950 . S
C1526 C1535 1.390 . S
C1527 C1526 1.387 . S
C1527 C1529 1.387 . S
H1528 C1535 0.950 . S
C1529 C1527 1.387 . S
C1529 C1531 1.390 . S
C1529 H1533 0.950 . S
H1530 C1526 0.950 . S
C1531 C1529 1.390 . S
C1531 C1532 1.387 . S
C1531 H1534 0.950 . S
C1532 C1531 1.387 . S
C1532 C1535 1.387 . S
H1533 C1529 0.950 . S
H1534 C1531 0.950 . S
C1535 C1526 1.390 . S
C1535 H1528 0.950 . S
C1535 C1532 1.387 . S
C1536 C1537 1.387 . S
C1536 H1540 0.950 . S
C1536 C1545 1.390 . S
C1537 C1536 1.387 . S
C1537 C1539 1.387 . S
H1538 C1545 0.950 . S
C1539 C1537 1.387 . S
C1539 C1541 1.390 . S
C1539 H1543 0.950 . S
H1540 C1536 0.950 . S
C1541 C1539 1.390 . S
C1541 C1542 1.387 . S
C1541 H1544 0.950 . S
C1542 C1541 1.387 . S
C1542 C1545 1.387 . S
H1543 C1539 0.950 . S
H1544 C1541 0.950 . S
C1545 C1536 1.390 . S
C1545 H1538 0.950 . S
C1545 C1542 1.387 . S
C1546 C1547 1.387 . S
C1546 H1550 0.950 . S
C1546 C1555 1.390 . S
C1547 C1546 1.387 . S
C1547 C1549 1.387 . S
H1548 C1555 0.936 1_455 S
C1549 C1547 1.387 . S
C1549 C1551 1.390 . S
C1549 H1553 0.950 . S
H1550 C1546 0.950 . S
C1551 C1549 1.390 . S
C1551 C1552 1.387 1_655 S
C1551 H1554 0.950 . S
C1552 C1551 1.387 1_455 S
C1552 C1555 1.387 1_455 S
H1553 C1549 0.950 . S
H1554 C1551 0.950 . S
C1555 C1546 1.390 . S
C1555 H1548 0.936 1_655 S
C1555 C1552 1.387 1_655 S
C1556 C1557 1.387 . S
C1556 H1560 0.950 . S
C1556 C1565 1.390 . S
C1557 C1556 1.387 . S
C1557 C1559 1.387 . S
H1558 C1565 0.950 . S
C1559 C1557 1.387 . S
C1559 C1561 1.390 . S
C1559 H1563 0.950 . S
H1560 C1556 0.950 . S
C1561 C1559 1.390 . S
C1561 C1562 1.387 . S
C1561 H1564 0.950 . S
C1562 C1561 1.387 . S
C1562 C1565 1.387 . S
H1563 C1559 0.950 . S
H1564 C1561 0.950 . S
C1565 C1556 1.390 . S
C1565 H1558 0.950 . S
C1565 C1562 1.387 . S
C1566 C1567 1.387 . S
C1566 H1570 0.950 . S
C1566 C1575 1.390 . S
C1567 C1566 1.387 . S
C1567 C1569 1.387 . S
H1568 C1575 0.950 . S
C1569 C1567 1.387 . S
C1569 C1571 1.390 . S
C1569 H1573 0.950 . S
H1570 C1566 0.950 . S
C1571 C1569 1.390 . S
C1571 C1572 1.387 . S
C1571 H1574 0.950 . S
C1572 C1571 1.387 . S
C1572 C1575 1.387 . S
H1573 C1569 0.950 . S
H1574 C1571 0.950 . S
C1575 C1566 1.390 . S
C1575 H1568 0.950 . S
C1575 C1572 1.387 . S
C1576 C1577 1.387 . S
C1576 H1580 0.950 . S
C1576 C1585 1.390 . S
C1577 C1576 1.387 . S
C1577 C1579 1.387 . S
H1578 C1585 0.952 . S
C1579 C1577 1.387 . S
C1579 C1581 1.390 . S
C1579 H1583 0.950 . S
H1580 C1576 0.950 . S
C1581 C1579 1.390 . S
C1581 C1582 1.387 . S
C1581 H1584 0.950 . S
C1582 C1581 1.387 . S
C1582 C1585 1.387 . S
H1583 C1579 0.950 . S
H1584 C1581 0.950 . S
C1585 C1576 1.390 . S
C1585 H1578 0.952 . S
C1585 C1582 1.387 . S
C1586 C1587 1.387 . S
C1586 H1590 0.950 . S
C1586 C1595 1.390 . S
C1587 C1586 1.387 . S
C1587 C1589 1.387 . S
H1588 C1595 0.950 . S
C1589 C1587 1.387 . S
C1589 C1591 1.390 . S
C1589 H1593 0.950 . S
H1590 C1586 0.950 . S
C1591 C1589 1.390 . S
C1591 C1592 1.387 . S
C1591 H1594 0.950 . S
C1592 C1591 1.387 . S
C1592 C1595 1.387 . S
H1593 C1589 0.950 . S
H1594 C1591 0.950 . S
C1595 C1586 1.390 . S
C1595 H1588 0.950 . S
C1595 C1592 1.387 . S
C1596 C1597 1.387 . S
C1596 H1600 0.950 . S
C1596 C1605 1.390 . S
C1597 C1596 1.387 . S
C1597 C1599 1.387 . S
H1598 C1605 0.950 . S
C1599 C1597 1.387 . S
C1599 C1601 1.390 . S
C1599 H1603 0.950 . S
H1600 C1596 0.950 . S
C1601 C1599 1.390 . S
C1601 C1602 1.387 . S
C1601 H1604 0.950 . S
C1602 C1601 1.387 . S
C1602 C1605 1.387 . S
H1603 C1599 0.950 . S
H1604 C1601 0.950 . S
C1605 C1596 1.390 . S
C1605 H1598 0.950 . S
C1605 C1602 1.387 . S
C1606 C1607 1.387 . S
C1606 H1610 0.950 . S
C1606 C1615 1.390 . S
C1607 C1606 1.387 . S
C1607 C1609 1.387 . S
H1608 C1615 0.950 1_455 S
C1609 C1607 1.387 . S
C1609 C1611 1.390 . S
C1609 H1613 0.950 . S
H1610 C1606 0.950 . S
C1611 C1609 1.390 . S
C1611 C1612 1.387 1_655 S
C1611 H1614 0.950 . S
C1612 C1611 1.387 1_455 S
C1612 C1615 1.387 1_455 S
H1613 C1609 0.950 . S
H1614 C1611 0.950 . S
C1615 C1606 1.390 . S
C1615 H1608 0.950 1_655 S
C1615 C1612 1.387 1_655 S
C1616 C1617 1.387 . S
C1616 H1620 0.950 . S
C1616 C1625 1.390 . S
C1617 C1616 1.387 . S
C1617 C1619 1.387 . S
H1618 C1625 0.950 . S
C1619 C1617 1.387 . S
C1619 C1621 1.390 . S
C1619 H1623 0.950 . S
H1620 C1616 0.950 . S
C1621 C1619 1.390 . S
C1621 C1622 1.387 . S
C1621 H1624 0.950 . S
C1622 C1621 1.387 . S
C1622 C1625 1.387 . S
H1623 C1619 0.950 . S
H1624 C1621 0.950 . S
C1625 C1616 1.390 . S
C1625 H1618 0.950 . S
C1625 C1622 1.387 . S
C1626 C1627 1.387 1_455 S
C1626 H1630 0.949 1_455 S
C1626 C1635 1.390 . S
C1627 C1626 1.387 1_655 S
C1627 C1629 1.387 1_655 S
H1628 C1635 0.950 . S
C1629 C1627 1.387 1_455 S
C1629 C1631 1.390 . S
C1629 H1633 0.950 . S
H1630 C1626 0.949 1_655 S
C1631 C1629 1.390 . S
C1631 C1632 1.387 . S
C1631 H1634 0.950 . S
C1632 C1631 1.387 . S
C1632 C1635 1.387 . S
H1633 C1629 0.950 . S
H1634 C1631 0.950 . S
C1635 C1626 1.390 . S
C1635 H1628 0.950 . S
C1635 C1632 1.387 . S
C1636 C1637 1.387 . S
C1636 H1640 0.950 . S
C1636 C1645 1.390 . S
C1637 C1636 1.387 . S
C1637 C1639 1.387 . S
H1638 C1645 0.950 . S
C1639 C1637 1.387 . S
C1639 C1641 1.390 . S
C1639 H1643 0.950 . S
H1640 C1636 0.950 . S
C1641 C1639 1.390 . S
C1641 C1642 1.387 . S
C1641 H1644 0.950 . S
C1642 C1641 1.387 . S
C1642 C1645 1.387 . S
H1643 C1639 0.950 . S
H1644 C1641 0.950 . S
C1645 C1636 1.390 . S
C1645 H1638 0.950 . S
C1645 C1642 1.387 . S
C1646 C1647 1.387 . S
C1646 H1650 0.950 . S
C1646 C1655 1.390 . S
C1647 C1646 1.387 . S
C1647 C1649 1.387 . S
H1648 C1655 0.950 . S
C1649 C1647 1.387 . S
C1649 C1651 1.390 . S
C1649 H1653 0.950 . S
H1650 C1646 0.950 . S
C1651 C1649 1.390 . S
C1651 C1652 1.387 . S
C1651 H1654 0.950 . S
C1652 C1651 1.387 . S
C1652 C1655 1.387 . S
H1653 C1649 0.950 . S
H1654 C1651 0.950 . S
C1655 C1646 1.390 . S
C1655 H1648 0.950 . S
C1655 C1652 1.387 . S
C1656 C1657 1.387 . S
C1656 H1660 0.950 . S
C1656 C1665 1.390 . S
C1657 C1656 1.387 . S
C1657 C1659 1.387 . S
H1658 C1665 0.950 . S
C1659 C1657 1.387 . S
C1659 C1661 1.390 . S
C1659 H1663 0.955 . S
H1660 C1656 0.950 . S
C1661 C1659 1.390 . S
C1661 C1662 1.387 . S
C1661 H1664 0.950 . S
C1662 C1661 1.387 . S
C1662 C1665 1.387 . S
H1663 C1659 0.955 . S
H1664 C1661 0.950 . S
C1665 C1656 1.390 . S
C1665 H1658 0.950 . S
C1665 C1662 1.387 . S
C1666 C1667 1.387 . S
C1666 H1670 0.950 . S
C1666 C1675 1.390 . S
C1667 C1666 1.387 . S
C1667 C1669 1.387 . S
H1668 C1675 0.950 . S
C1669 C1667 1.387 . S
C1669 C1671 1.390 . S
C1669 H1673 0.950 . S
H1670 C1666 0.950 . S
C1671 C1669 1.390 . S
C1671 C1672 1.387 . S
C1671 H1674 0.950 . S
C1672 C1671 1.387 . S
C1672 C1675 1.387 . S
H1673 C1669 0.950 . S
H1674 C1671 0.950 . S
C1675 C1666 1.390 . S
C1675 H1668 0.950 . S
C1675 C1672 1.387 . S
C1676 C1677 1.387 . S
C1676 H1680 0.950 . S
C1676 C1685 1.390 . S
C1677 C1676 1.387 . S
C1677 C1679 1.387 . S
H1678 C1685 0.950 . S
C1679 C1677 1.387 . S
C1679 C1681 1.390 . S
C1679 H1683 0.950 . S
H1680 C1676 0.950 . S
C1681 C1679 1.390 . S
C1681 C1682 1.387 . S
C1681 H1684 0.950 . S
C1682 C1681 1.387 . S
C1682 C1685 1.387 . S
H1683 C1679 0.950 . S
H1684 C1681 0.950 . S
C1685 C1676 1.390 . S
C1685 H1678 0.950 . S
C1685 C1682 1.387 . S
C1686 C1687 1.387 . S
C1686 H1690 0.950 . S
C1686 C1695 1.390 . S
C1687 C1686 1.387 . S
C1687 C1689 1.387 . S
H1688 C1695 0.950 . S
C1689 C1687 1.387 . S
C1689 C1691 1.390 . S
C1689 H1693 0.950 . S
H1690 C1686 0.950 . S
C1691 C1689 1.390 . S
C1691 C1692 1.387 1_455 S
C1691 H1694 0.950 1_455 S
C1692 C1691 1.387 1_655 S
C1692 C1695 1.387 1_655 S
H1693 C1689 0.950 . S
H1694 C1691 0.950 1_655 S
C1695 C1686 1.390 . S
C1695 H1688 0.950 . S
C1695 C1692 1.387 1_455 S
C1696 C1697 1.387 . S
C1696 H1700 0.950 . S
C1696 C1705 1.390 . S
C1697 C1696 1.387 . S
C1697 C1699 1.387 . S
H1698 C1705 0.950 . S
C1699 C1697 1.387 . S
C1699 C1701 1.390 . S
C1699 H1703 0.950 1_556 S
H1700 C1696 0.950 . S
C1701 C1699 1.390 . S
C1701 C1702 1.387 . S
C1701 H1704 0.950 . S
C1702 C1701 1.387 . S
C1702 C1705 1.387 . S
H1703 C1699 0.950 1_554 S
H1704 C1701 0.950 . S
C1705 C1696 1.390 . S
C1705 H1698 0.950 . S
C1705 C1702 1.387 . S
C1706 C1707 1.387 . S
C1706 H1710 0.950 . S
C1706 C1715 1.390 . S
C1707 C1706 1.387 . S
C1707 C1709 1.387 . S
H1708 C1715 0.950 . S
C1709 C1707 1.387 . S
C1709 C1711 1.390 . S
C1709 H1713 0.950 . S
H1710 C1706 0.950 . S
C1711 C1709 1.390 . S
C1711 C1712 1.387 . S
C1711 H1714 0.950 . S
C1712 C1711 1.387 . S
C1712 C1715 1.387 . S
H1713 C1709 0.950 . S
H1714 C1711 0.950 . S
C1715 C1706 1.390 . S
C1715 H1708 0.950 . S
C1715 C1712 1.387 . S
C1716 C1717 1.387 . S
C1716 H1720 0.950 . S
C1716 C1725 1.390 . S
C1717 C1716 1.387 . S
C1717 C1719 1.387 . S
H1718 C1725 0.950 . S
C1719 C1717 1.387 . S
C1719 C1721 1.390 . S
C1719 H1723 0.950 . S
H1720 C1716 0.950 . S
C1721 C1719 1.390 . S
C1721 C1722 1.387 . S
C1721 H1724 0.950 . S
C1722 C1721 1.387 . S
C1722 C1725 1.387 . S
H1723 C1719 0.950 . S
H1724 C1721 0.950 . S
C1725 C1716 1.390 . S
C1725 H1718 0.950 . S
C1725 C1722 1.387 . S
C1726 C1727 1.387 1_455 S
C1726 H1730 0.950 . S
C1726 C1735 1.390 . S
C1727 C1726 1.387 1_655 S
C1727 C1729 1.387 1_655 S
H1728 C1735 0.950 . S
C1729 C1727 1.387 1_455 S
C1729 C1731 1.390 . S
C1729 H1733 0.950 1_455 S
H1730 C1726 0.950 . S
C1731 C1729 1.390 . S
C1731 C1732 1.387 . S
C1731 H1734 0.950 . S
C1732 C1731 1.387 . S
C1732 C1735 1.387 . S
H1733 C1729 0.950 1_655 S
H1734 C1731 0.950 . S
C1735 C1726 1.390 . S
C1735 H1728 0.950 . S
C1735 C1732 1.387 . S
C1736 C1737 1.387 . S
C1736 H1740 0.950 . S
C1736 C1745 1.390 . S
C1737 C1736 1.387 . S
C1737 C1739 1.387 . S
H1738 C1745 0.950 . S
C1739 C1737 1.387 . S
C1739 C1741 1.390 . S
C1739 H1743 0.950 . S
H1740 C1736 0.950 . S
C1741 C1739 1.390 . S
C1741 C1742 1.387 . S
C1741 H1744 0.950 . S
C1742 C1741 1.387 . S
C1742 C1745 1.387 . S
H1743 C1739 0.950 . S
H1744 C1741 0.950 . S
C1745 C1736 1.390 . S
C1745 H1738 0.950 . S
C1745 C1742 1.387 . S
C1746 C1747 1.387 1_455 S
C1746 H1750 0.950 1_455 S
C1746 C1755 1.390 . S
C1747 C1746 1.387 1_655 S
C1747 C1749 1.387 1_655 S
H1748 C1755 0.950 . S
C1749 C1747 1.387 1_455 S
C1749 C1751 1.390 . S
C1749 H1753 0.950 . S
H1750 C1746 0.950 1_655 S
C1751 C1749 1.390 . S
C1751 C1752 1.387 . S
C1751 H1754 0.950 . S
C1752 C1751 1.387 . S
C1752 C1755 1.387 . S
H1753 C1749 0.950 . S
H1754 C1751 0.950 . S
C1755 C1746 1.390 . S
C1755 H1748 0.950 . S
C1755 C1752 1.387 . S
C1756 C1757 1.387 . S
C1756 H1760 0.950 1_554 S
C1756 C1765 1.390 . S
C1757 C1756 1.387 . S
C1757 C1759 1.387 . S
H1758 C1765 0.950 . S
C1759 C1757 1.387 . S
C1759 C1761 1.390 . S
C1759 H1763 0.950 . S
H1760 C1756 0.950 1_556 S
C1761 C1759 1.390 . S
C1761 C1762 1.387 . S
C1761 H1764 0.950 . S
C1762 C1761 1.387 . S
C1762 C1765 1.387 . S
H1763 C1759 0.950 . S
H1764 C1761 0.950 . S
C1765 C1756 1.390 . S
C1765 H1758 0.950 . S
C1765 C1762 1.387 . S
C1766 C1767 1.387 . S
C1766 H1770 0.950 . S
C1766 C1775 1.390 . S
C1767 C1766 1.387 . S
C1767 C1769 1.387 . S
H1768 C1775 0.950 . S
C1769 C1767 1.387 . S
C1769 C1771 1.390 . S
C1769 H1773 0.950 . S
H1770 C1766 0.950 . S
C1771 C1769 1.390 . S
C1771 C1772 1.387 . S
C1771 H1774 0.950 . S
C1772 C1771 1.387 . S
C1772 C1775 1.387 . S
H1773 C1769 0.950 . S
H1774 C1771 0.950 . S
C1775 C1766 1.390 . S
C1775 H1768 0.950 . S
C1775 C1772 1.387 . S
C1776 C1777 1.387 . S
C1776 H1780 0.950 1_554 S
C1776 C1785 1.390 . S
C1777 C1776 1.387 . S
C1777 C1779 1.387 . S
H1778 C1785 0.950 . S
C1779 C1777 1.387 . S
C1779 C1781 1.390 . S
C1779 H1783 0.950 . S
H1780 C1776 0.950 1_556 S
C1781 C1779 1.390 . S
C1781 C1782 1.387 . S
C1781 H1784 0.950 . S
C1782 C1781 1.387 . S
C1782 C1785 1.387 . S
H1783 C1779 0.950 . S
H1784 C1781 0.950 . S
C1785 C1776 1.390 . S
C1785 H1778 0.950 . S
C1785 C1782 1.387 . S
C1786 C1787 1.387 . S
C1786 H1790 0.950 . S
C1786 C1795 1.390 . S
C1787 C1786 1.387 . S
C1787 C1789 1.387 . S
H1788 C1795 0.950 . S
C1789 C1787 1.387 . S
C1789 C1791 1.390 . S
C1789 H1793 0.950 . S
H1790 C1786 0.950 . S
C1791 C1789 1.390 . S
C1791 C1792 1.387 . S
C1791 H1794 0.950 . S
C1792 C1791 1.387 . S
C1792 C1795 1.387 . S
H1793 C1789 0.950 . S
H1794 C1791 0.950 . S
C1795 C1786 1.390 . S
C1795 H1788 0.950 . S
C1795 C1792 1.387 . S
C1796 C1797 1.387 . S
C1796 H1800 0.950 . S
C1796 C1805 1.390 . S
C1797 C1796 1.387 . S
C1797 C1799 1.387 . S
H1798 C1805 0.950 . S
C1799 C1797 1.387 . S
C1799 C1801 1.390 . S
C1799 H1803 0.950 . S
H1800 C1796 0.950 . S
C1801 C1799 1.390 . S
C1801 C1802 1.387 . S
C1801 H1804 0.950 . S
C1802 C1801 1.387 . S
C1802 C1805 1.387 . S
H1803 C1799 0.950 . S
H1804 C1801 0.950 . S
C1805 C1796 1.390 . S
C1805 H1798 0.950 . S
C1805 C1802 1.387 . S
C1806 C1807 1.387 . S
C1806 H1810 0.950 . S
C1806 C1815 1.390 . S
C1807 C1806 1.387 . S
C1807 C1809 1.387 . S
H1808 C1815 0.950 1_455 S
C1809 C1807 1.387 . S
C1809 C1811 1.390 . S
C1809 H1813 0.950 . S
H1810 C1806 0.950 . S
C1811 C1809 1.390 . S
C1811 C1812 1.387 1_655 S
C1811 H1814 0.950 . S
C1812 C1811 1.387 1_455 S
C1812 C1815 1.387 1_455 S
H1813 C1809 0.950 . S
H1814 C1811 0.950 . S
C1815 C1806 1.390 . S
C1815 H1808 0.950 1_655 S
C1815 C1812 1.387 1_655 S
C1816 C1817 1.387 . S
C1816 H1820 0.950 . S
C1816 C1825 1.390 . S
C1817 C1816 1.387 . S
C1817 C1819 1.387 . S
H1818 C1825 0.950 . S
C1819 C1817 1.387 . S
C1819 C1821 1.390 . S
C1819 H1823 0.950 . S
H1820 C1816 0.950 . S
C1821 C1819 1.390 . S
C1821 C1822 1.387 . S
C1821 H1824 0.950 . S
C1822 C1821 1.387 . S
C1822 C1825 1.387 . S
H1823 C1819 0.950 . S
H1824 C1821 0.950 . S
C1825 C1816 1.390 . S
C1825 H1818 0.950 . S
C1825 C1822 1.387 . S
C1826 C1827 1.387 1_655 S
C1826 H1830 0.957 . S
C1826 C1835 1.390 . S
C1827 C1826 1.387 1_455 S
C1827 C1829 1.387 1_455 S
H1828 C1835 0.950 . S
C1829 C1827 1.387 1_655 S
C1829 C1831 1.390 . S
C1829 H1833 0.950 . S
H1830 C1826 0.957 . S
C1831 C1829 1.390 . S
C1831 C1832 1.387 . S
C1831 H1834 0.950 . S
C1832 C1831 1.387 . S
C1832 C1835 1.387 . S
H1833 C1829 0.950 . S
H1834 C1831 0.950 . S
C1835 C1826 1.390 . S
C1835 H1828 0.950 . S
C1835 C1832 1.387 . S
C1836 C1837 1.387 . S
C1836 H1840 0.950 . S
C1836 C1845 1.390 . S
C1837 C1836 1.387 . S
C1837 C1839 1.387 . S
H1838 C1845 0.950 . S
C1839 C1837 1.387 . S
C1839 C1841 1.390 . S
C1839 H1843 0.950 . S
H1840 C1836 0.950 . S
C1841 C1839 1.390 . S
C1841 C1842 1.387 . S
C1841 H1844 0.941 1_556 S
C1842 C1841 1.387 . S
C1842 C1845 1.387 . S
H1843 C1839 0.950 . S
H1844 C1841 0.941 1_554 S
C1845 C1836 1.390 . S
C1845 H1838 0.950 . S
C1845 C1842 1.387 . S
C1846 C1847 1.387 . S
C1846 H1850 0.950 . S
C1846 C1855 1.390 . S
C1847 C1846 1.387 . S
C1847 C1849 1.387 . S
H1848 C1855 0.950 . S
C1849 C1847 1.387 . S
C1849 C1851 1.390 . S
C1849 H1853 0.950 . S
H1850 C1846 0.950 . S
C1851 C1849 1.390 . S
C1851 C1852 1.387 . S
C1851 H1854 0.950 . S
C1852 C1851 1.387 . S
C1852 C1855 1.387 . S
H1853 C1849 0.950 . S
H1854 C1851 0.950 . S
C1855 C1846 1.390 . S
C1855 H1848 0.950 . S
C1855 C1852 1.387 . S
C1057 C239 1.489 1_554 S
C1062 C8 1.488 . S
C1067 C41 1.486 . S
C1072 C140 1.489 . S
C1077 C74 1.488 . S
C1082 C173 1.489 . S
C1087 C206 1.488 . S
C1092 C107 1.486 1_556 S
C1097 C272 1.487 . S
C1102 C503 1.486 1_556 S
C1107 C404 1.487 . S
C1112 C305 1.486 . S
C1117 C338 1.489 . S
C1122 C437 1.487 . S
C1127 C470 1.489 . S
C1132 C371 1.488 1_554 S
C1137 C767 1.489 . S
C1142 C536 1.488 . S
C1147 C668 1.487 . S
C1152 C569 1.489 1_556 S
C1157 C701 1.487 1_554 S
C1162 C602 1.489 . S
C1167 C734 1.489 . S
C1172 C635 1.488 . S
C1177 C1031 1.487 . S
C1182 C800 1.489 . S
C1187 C833 1.486 1_554 S
C1192 C932 1.489 . S
C1197 C965 1.486 1_556 S
C1202 C866 1.489 . S
C1207 C998 1.488 . S
C1212 C899 1.486 . S
C1217 C28 1.039 . S
C1222 C259 1.042 . S
C1227 C61 1.039 . S
C1232 C160 1.040 . S
C1237 C94 1.039 . S
C1242 C193 1.042 . S
C1247 C127 1.041 . S
C1252 C226 1.039 . S
C1257 C523 1.040 . S
C1262 C292 1.041 . S
C1267 C325 1.039 . S
C1272 C424 1.040 . S
C1277 C457 1.041 . S
C1282 C358 1.039 . S
C1287 C391 1.042 . S
C1292 C490 1.039 . S
C1297 C556 1.039 . S
C1302 C787 1.041 . S
C1307 C688 1.041 . S
C1312 C589 1.038 . S
C1317 C721 1.039 . S
C1322 C622 1.042 . S
C1327 C655 1.041 . S
C1332 C754 1.040 . S
C1337 C820 1.041 . S
C1342 C1051 1.038 . S
C1347 C853 1.041 . S
C1352 C952 1.040 . S
C1357 C886 1.040 . S
C1362 C985 1.039 . S
C1367 C919 1.040 . S
C1372 C1018 1.039 . S
C1377 N203 1.586 . S
C1382 N5 1.586 . S
C1387 N38 1.586 . S
C1392 N236 1.586 . S
C1397 N137 1.586 . S
C1402 N71 1.586 . S
C1407 N170 1.586 . S
C1412 N104 1.586 . S
C1417 N467 1.586 . S
C1422 N269 1.586 . S
C1427 N500 1.586 . S
C1432 N302 1.586 . S
C1437 N401 1.586 . S
C1442 N335 1.586 . S
C1447 N434 1.586 . S
C1452 N368 1.586 . S
C1457 N533 1.586 . S
C1462 N731 1.586 . S
C1467 N764 1.586 . S
C1472 N566 1.586 . S
C1477 N665 1.586 . S
C1482 N599 1.586 . S
C1487 N698 1.586 . S
C1492 N632 1.586 . S
C1497 N995 1.586 . S
C1502 N797 1.586 . S
C1507 N830 1.586 . S
C1512 N1028 1.586 . S
C1517 N929 1.586 . S
C1522 N863 1.586 . S
C1527 N962 1.586 . S
C1532 N896 1.586 . S
C1537 C17 1.673 . S
C1542 N905 1.581 . S
C1547 N278 1.581 . S
C1552 C50 1.672 . S
C1557 N839 1.580 . S
C1562 C83 1.672 . S
C1567 C116 1.673 . S
C1572 N344 1.582 . S
C1577 C149 1.672 . S
C1582 N971 1.582 . S
C1587 C182 1.672 . S
C1592 N476 1.581 . S
C1597 C215 1.672 . S
C1602 N1037 1.580 . S
C1607 N410 1.582 . S
C1612 C248 1.672 . S
C1617 N641 1.581 . S
C1622 C281 1.672 . S
C1627 C314 1.673 . S
C1632 N14 1.582 . S
C1637 C347 1.672 . S
C1642 N575 1.582 . S
C1647 N80 1.580 . S
C1652 C380 1.672 . S
C1657 N707 1.581 . S
C1662 C413 1.672 . S
C1667 C446 1.673 . S
C1672 N212 1.583 . S
C1677 C479 1.673 . S
C1682 N773 1.583 . S
C1687 N146 1.582 . S
C1692 C512 1.672 . S
C1697 N377 1.581 . S
C1702 C545 1.673 . S
C1707 N806 1.582 . S
C1712 C578 1.673 . S
C1717 C611 1.672 . S
C1722 N311 1.582 . S
C1727 C644 1.672 . S
C1732 N872 1.580 . S
C1737 N443 1.582 . S
C1742 C677 1.673 . S
C1747 C710 1.673 . S
C1752 N1004 1.583 . S
C1757 N509 1.582 . S
C1762 C743 1.672 . S
C1767 N938 1.581 . S
C1772 C776 1.673 . S
C1777 N113 1.582 . S
C1782 C809 1.673 . S
C1787 C842 1.673 . S
C1792 N542 1.582 . S
C1797 N47 1.581 . S
C1802 C875 1.673 . S
C1807 N608 1.580 . S
C1812 C908 1.672 . S
C1817 N179 1.582 . S
C1822 C941 1.672 . S
C1827 C974 1.673 . S
C1832 N740 1.582 . S
C1837 C1007 1.672 . S
C1842 N245 1.581 . S
C1847 C1040 1.672 . S
C1852 N674 1.581 . S
