# Generated by pormake.
# Topology deh, (3)-cn, num edge types: 1
# Building blocks:
#     Node 0, Type 0, BuildingBlock: WUSLED_clean_sbu_0, # of connection points: 3
#     Node 1, Type 0, BuildingBlock: WUSLED_clean_sbu_0, # of connection points: 3
#     Node 2, Type 0, BuildingBlock: WUSLED_clean_sbu_0, # of connection points: 3
#     Node 3, Type 0, BuildingBlock: WUSLED_clean_sbu_0, # of connection points: 3
#     Node 4, Type 0, BuildingBlock: WUSLED_clean_sbu_0, # of connection points: 3
#     Node 5, Type 0, BuildingBlock: WUSLED_clean_sbu_0, # of connection points: 3
#     Node 6, Type 0, BuildingBlock: WUSLED_clean_sbu_0, # of connection points: 3
#     Node 7, Type 0, BuildingBlock: WUSLED_clean_sbu_0, # of connection points: 3
#     Node 8, Type 0, BuildingBlock: WUSLED_clean_sbu_0, # of connection points: 3
#     Node 9, Type 0, BuildingBlock: WUSLED_clean_sbu_0, # of connection points: 3
#     Node 10, Type 0, BuildingBlock: WUSLED_clean_sbu_0, # of connection points: 3
#     Node 11, Type 0, BuildingBlock: WUSLED_clean_sbu_0, # of connection points: 3
#     Node 12, Type 0, BuildingBlock: WUSLED_clean_sbu_0, # of connection points: 3
#     Node 13, Type 0, BuildingBlock: WUSLED_clean_sbu_0, # of connection points: 3
#     Node 14, Type 0, BuildingBlock: WUSLED_clean_sbu_0, # of connection points: 3
#     Node 15, Type 0, BuildingBlock: WUSLED_clean_sbu_0, # of connection points: 3
#     Node 16, Type 0, BuildingBlock: WUSLED_clean_sbu_0, # of connection points: 3
#     Node 17, Type 0, BuildingBlock: WUSLED_clean_sbu_0, # of connection points: 3
#     Node 18, Type 0, BuildingBlock: WUSLED_clean_sbu_0, # of connection points: 3
#     Node 19, Type 0, BuildingBlock: WUSLED_clean_sbu_0, # of connection points: 3
#     Node 20, Type 0, BuildingBlock: WUSLED_clean_sbu_0, # of connection points: 3
#     Node 21, Type 0, BuildingBlock: WUSLED_clean_sbu_0, # of connection points: 3
#     Node 22, Type 0, BuildingBlock: WUSLED_clean_sbu_0, # of connection points: 3
#     Node 23, Type 0, BuildingBlock: WUSLED_clean_sbu_0, # of connection points: 3
#     Node 24, Type 0, BuildingBlock: WUSLED_clean_sbu_0, # of connection points: 3
#     Node 25, Type 0, BuildingBlock: WUSLED_clean_sbu_0, # of connection points: 3
#     Node 26, Type 0, BuildingBlock: WUSLED_clean_sbu_0, # of connection points: 3
#     Node 27, Type 0, BuildingBlock: WUSLED_clean_sbu_0, # of connection points: 3
#     Node 28, Type 0, BuildingBlock: WUSLED_clean_sbu_0, # of connection points: 3
#     Node 29, Type 0, BuildingBlock: WUSLED_clean_sbu_0, # of connection points: 3
#     Node 30, Type 0, BuildingBlock: WUSLED_clean_sbu_0, # of connection points: 3
#     Node 31, Type 0, BuildingBlock: WUSLED_clean_sbu_0, # of connection points: 3
#     Edge 32, Type (0, 0), BuildingBlock: CIFDUS_clean_linker_0, # of connection points: 2
#     Edge 33, Type (0, 0), BuildingBlock: CIFDUS_clean_linker_0, # of connection points: 2
#     Edge 34, Type (0, 0), BuildingBlock: CIFDUS_clean_linker_0, # of connection points: 2
#     Edge 35, Type (0, 0), BuildingBlock: CIFDUS_clean_linker_0, # of connection points: 2
#     Edge 36, Type (0, 0), BuildingBlock: CIFDUS_clean_linker_0, # of connection points: 2
#     Edge 37, Type (0, 0), BuildingBlock: CIFDUS_clean_linker_0, # of connection points: 2
#     Edge 38, Type (0, 0), BuildingBlock: CIFDUS_clean_linker_0, # of connection points: 2
#     Edge 39, Type (0, 0), BuildingBlock: CIFDUS_clean_linker_0, # of connection points: 2
#     Edge 40, Type (0, 0), BuildingBlock: CIFDUS_clean_linker_0, # of connection points: 2
#     Edge 41, Type (0, 0), BuildingBlock: CIFDUS_clean_linker_0, # of connection points: 2
#     Edge 42, Type (0, 0), BuildingBlock: CIFDUS_clean_linker_0, # of connection points: 2
#     Edge 43, Type (0, 0), BuildingBlock: CIFDUS_clean_linker_0, # of connection points: 2
#     Edge 44, Type (0, 0), BuildingBlock: CIFDUS_clean_linker_0, # of connection points: 2
#     Edge 45, Type (0, 0), BuildingBlock: CIFDUS_clean_linker_0, # of connection points: 2
#     Edge 46, Type (0, 0), BuildingBlock: CIFDUS_clean_linker_0, # of connection points: 2
#     Edge 47, Type (0, 0), BuildingBlock: CIFDUS_clean_linker_0, # of connection points: 2
#     Edge 48, Type (0, 0), BuildingBlock: CIFDUS_clean_linker_0, # of connection points: 2
#     Edge 49, Type (0, 0), BuildingBlock: CIFDUS_clean_linker_0, # of connection points: 2
#     Edge 50, Type (0, 0), BuildingBlock: CIFDUS_clean_linker_0, # of connection points: 2
#     Edge 51, Type (0, 0), BuildingBlock: CIFDUS_clean_linker_0, # of connection points: 2
#     Edge 52, Type (0, 0), BuildingBlock: CIFDUS_clean_linker_0, # of connection points: 2
#     Edge 53, Type (0, 0), BuildingBlock: CIFDUS_clean_linker_0, # of connection points: 2
#     Edge 54, Type (0, 0), BuildingBlock: CIFDUS_clean_linker_0, # of connection points: 2
#     Edge 55, Type (0, 0), BuildingBlock: CIFDUS_clean_linker_0, # of connection points: 2
#     Edge 56, Type (0, 0), BuildingBlock: CIFDUS_clean_linker_0, # of connection points: 2
#     Edge 57, Type (0, 0), BuildingBlock: CIFDUS_clean_linker_0, # of connection points: 2
#     Edge 58, Type (0, 0), BuildingBlock: CIFDUS_clean_linker_0, # of connection points: 2
#     Edge 59, Type (0, 0), BuildingBlock: CIFDUS_clean_linker_0, # of connection points: 2
#     Edge 60, Type (0, 0), BuildingBlock: CIFDUS_clean_linker_0, # of connection points: 2
#     Edge 61, Type (0, 0), BuildingBlock: CIFDUS_clean_linker_0, # of connection points: 2
#     Edge 62, Type (0, 0), BuildingBlock: CIFDUS_clean_linker_0, # of connection points: 2
#     Edge 63, Type (0, 0), BuildingBlock: CIFDUS_clean_linker_0, # of connection points: 2
#     Edge 64, Type (0, 0), BuildingBlock: CIFDUS_clean_linker_0, # of connection points: 2
#     Edge 65, Type (0, 0), BuildingBlock: CIFDUS_clean_linker_0, # of connection points: 2
#     Edge 66, Type (0, 0), BuildingBlock: CIFDUS_clean_linker_0, # of connection points: 2
#     Edge 67, Type (0, 0), BuildingBlock: CIFDUS_clean_linker_0, # of connection points: 2
#     Edge 68, Type (0, 0), BuildingBlock: CIFDUS_clean_linker_0, # of connection points: 2
#     Edge 69, Type (0, 0), BuildingBlock: CIFDUS_clean_linker_0, # of connection points: 2
#     Edge 70, Type (0, 0), BuildingBlock: CIFDUS_clean_linker_0, # of connection points: 2
#     Edge 71, Type (0, 0), BuildingBlock: CIFDUS_clean_linker_0, # of connection points: 2
#     Edge 72, Type (0, 0), BuildingBlock: CIFDUS_clean_linker_0, # of connection points: 2
#     Edge 73, Type (0, 0), BuildingBlock: CIFDUS_clean_linker_0, # of connection points: 2
#     Edge 74, Type (0, 0), BuildingBlock: CIFDUS_clean_linker_0, # of connection points: 2
#     Edge 75, Type (0, 0), BuildingBlock: CIFDUS_clean_linker_0, # of connection points: 2
#     Edge 76, Type (0, 0), BuildingBlock: CIFDUS_clean_linker_0, # of connection points: 2
#     Edge 77, Type (0, 0), BuildingBlock: CIFDUS_clean_linker_0, # of connection points: 2
#     Edge 78, Type (0, 0), BuildingBlock: CIFDUS_clean_linker_0, # of connection points: 2
#     Edge 79, Type (0, 0), BuildingBlock: CIFDUS_clean_linker_0, # of connection points: 2
# Relax obj value: 0.005
# Max RMSD: 0.036
# Mean RMSD: 0.011
data_MOF--net-deh--node1-WUSLED_clean_sbu_0--edge1-CIFDUS_clean_linker_0
_symmetry_space_group_name_H-M    P1
_symmetry_Int_Tables_number       1
_symmetry_cell_setting            triclinic
loop_
_symmetry_equiv_pos_as_xyz
'x, y, z'
_cell_length_a     64.928813
_cell_length_b     67.180723
_cell_length_c     142.21202
_cell_angle_alpha  90.020879
_cell_angle_beta   90.048824
_cell_angle_gamma 89.947571
loop_
_atom_site_label
_atom_site_type_symbol
_atom_site_fract_x
_atom_site_fract_y
_atom_site_fract_z
_atom_type_partial_charge
C0 C 0.12288 1.0078 0.32634 0.0
C1 C 0.11465 1.00627 0.33548 0.0
C2 C 0.07969 1.00522 0.329 0.0
C3 C 0.09312 1.00508 0.3368 0.0
C4 C 0.0882 1.00741 0.31997 0.0
C5 C 0.10942 1.00862 0.31867 0.0
U6 U 0.18213 1.01319 0.33151 0.0
O7 O 0.20737 0.99618 0.32489 0.0
O8 O 0.20497 0.02841 0.32265 0.0
C9 C 0.21488 1.01191 0.32061 0.0
C10 C 0.1452 1.00812 0.32427 0.0
C11 C 0.22153 1.00949 0.31073 0.0
C12 C 0.21495 1.0074 0.29387 0.0
C13 C 0.20761 1.00828 0.30318 0.0
C14 C 0.25001 1.0086 0.29964 0.0
C15 C 0.23632 1.00771 0.29199 0.0
C16 C 0.2427 1.00945 0.30887 0.0
C17 C 0.20093 0.02429 0.35725 0.0
C18 C 0.2352 0.03174 0.36337 0.0
C19 C 0.20626 0.02895 0.37401 0.0
C20 C 0.19327 0.02498 0.36643 0.0
C21 C 0.22743 0.03224 0.37264 0.0
C22 C 0.22203 0.02774 0.35571 0.0
C23 C 0.18607 0.02028 0.34962 0.0
O24 O 0.15447 0.02547 0.32464 0.0
O25 O 0.15651 0.9934 0.32751 0.0
O26 O 0.18599 1.00225 0.34602 0.0
O27 O 0.18331 0.03435 0.34333 0.0
H28 H 0.12479 1.0057 0.34153 0.0
H29 H 0.08705 1.00344 0.34385 0.0
H30 H 0.07836 1.00798 0.31381 0.0
H31 H 0.11539 1.00992 0.31158 0.0
H32 H 0.20394 1.00658 0.28816 0.0
H33 H 0.19117 1.0083 0.30446 0.0
H34 H 0.26648 1.0093 0.29851 0.0
H35 H 0.2537 1.01054 0.31458 0.0
H36 H 0.25142 0.03421 0.36205 0.0
H37 H 0.19955 0.02974 0.38096 0.0
H38 H 0.17703 0.02256 0.36776 0.0
H39 H 0.22825 0.02735 0.34865 0.0
C40 C 0.33995 0.86208 0.57678 0.0
C41 C 0.33234 0.85531 0.58545 0.0
C42 C 0.3383 0.82083 0.58056 0.0
C43 C 0.33156 0.83476 0.58733 0.0
C44 C 0.34619 0.82796 0.572 0.0
C45 C 0.34706 0.84829 0.57017 0.0
U46 U 0.33072 0.92037 0.5776 0.0
O47 O 0.34934 0.94214 0.56967 0.0
O48 O 0.31667 0.93635 0.56564 0.0
C49 C 0.33394 0.94582 0.56392 0.0
C50 C 0.33924 0.88302 0.57382 0.0
C51 C 0.33575 0.96014 0.55622 0.0
C52 C 0.34235 0.96729 0.53978 0.0
C53 C 0.34263 0.95401 0.54735 0.0
C54 C 0.32897 0.99308 0.55002 0.0
C55 C 0.33528 0.98697 0.54099 0.0
C56 C 0.32907 0.97973 0.55754 0.0
C57 C 0.30947 0.93989 0.60283 0.0
C58 C 0.29605 0.96782 0.61187 0.0
C59 C 0.29489 0.93441 0.61827 0.0
C60 C 0.30442 0.92711 0.61022 0.0
C61 C 0.29008 0.95473 0.61911 0.0
C62 C 0.30563 0.9604 0.60372 0.0
C63 C 0.31736 0.93078 0.59417 0.0
O64 O 0.32094 0.89094 0.57261 0.0
O65 O 0.35292 0.89544 0.5773 0.0
O66 O 0.33701 0.93143 0.59196 0.0
O67 O 0.30484 0.9252 0.5874 0.0
H68 H 0.3267 0.86579 0.59063 0.0
H69 H 0.32557 0.82978 0.59403 0.0
H70 H 0.3511 0.8178 0.56653 0.0
H71 H 0.35275 0.85326 0.5634 0.0
H72 H 0.34707 0.96191 0.53293 0.0
H73 H 0.34768 0.93881 0.54622 0.0
H74 H 0.32382 1.00817 0.55129 0.0
H75 H 0.32363 0.9846 0.56437 0.0
H76 H 0.29248 0.98355 0.61234 0.0
H77 H 0.29076 0.92401 0.62378 0.0
H78 H 0.30731 0.91126 0.60965 0.0
H79 H 0.30946 0.9705 0.59805 0.0
C80 C 0.4116 0.0258 0.82656 0.0
C81 C 0.41995 0.02757 0.83567 0.0
C82 C 0.45478 0.0282 0.8291 0.0
C83 C 0.44148 0.02868 0.83693 0.0
C84 C 0.44617 0.02575 0.8201 0.0
C85 C 0.42492 0.02462 0.81886 0.0
U86 U 0.35246 0.01998 0.83177 0.0
O87 O 0.32698 0.03671 0.8252 0.0
O88 O 0.32999 1.00458 0.82274 0.0
C89 C 0.31982 0.02097 0.82079 0.0
C90 C 0.38928 0.02549 0.82455 0.0
C91 C 0.31321 0.02369 0.81093 0.0
C92 C 0.3197 0.02706 0.79412 0.0
C93 C 0.3271 0.02533 0.8034 0.0
C94 C 0.28469 0.02601 0.79992 0.0
C95 C 0.29831 0.02719 0.79225 0.0
C96 C 0.29205 0.02415 0.8091 0.0
C97 C 0.3322 1.00753 0.85687 0.0
C98 C 0.29668 1.00206 0.86177 0.0
C99 C 0.32457 0.99682 0.8728 0.0
C100 C 0.33877 1.00225 0.8659 0.0
C101 C 0.3033 0.99667 0.87089 0.0
C102 C 0.31103 1.00744 0.85481 0.0
C103 C 0.34808 1.01238 0.84981 0.0
O104 O 0.38014 1.00807 0.82483 0.0
O105 O 0.37794 0.04006 0.82792 0.0
O106 O 0.34789 0.03049 0.84631 0.0
O107 O 0.35186 0.9986 0.84348 0.0
H108 H 0.40989 0.02839 0.84173 0.0
H109 H 0.44766 0.03052 0.84395 0.0
H110 H 0.45592 0.0249 0.81394 0.0
H111 H 0.41884 0.0231 0.8118 0.0
H112 H 0.33073 0.02789 0.78842 0.0
H113 H 0.34355 0.02504 0.80467 0.0
H114 H 0.26819 0.02666 0.79889 0.0
H115 H 0.28108 0.02299 0.81481 0.0
H116 H 0.28044 1.00223 0.86003 0.0
H117 H 0.33042 0.99229 0.87961 0.0
H118 H 0.35503 1.00208 0.86761 0.0
H119 H 0.30564 1.01142 0.84785 0.0
C120 C 0.19585 0.16923 0.07433 0.0
C121 C 0.19898 0.17542 0.08368 0.0
C122 C 0.19616 0.21047 0.07896 0.0
C123 C 0.19913 0.19586 0.08597 0.0
C124 C 0.193 0.20397 0.06964 0.0
C125 C 0.19278 0.18371 0.06739 0.0
U126 U 0.20631 0.11272 0.07812 0.0
O127 O 0.18966 0.08657 0.07256 0.0
O128 O 0.22198 0.09168 0.06859 0.0
C129 C 0.20575 0.0801 0.06785 0.0
C130 C 0.1965 0.14804 0.07138 0.0
C131 C 0.20235 0.06943 0.05887 0.0
C132 C 0.19313 0.06724 0.04224 0.0
C133 C 0.1959 0.07865 0.05049 0.0
C134 C 0.20343 0.03761 0.0507 0.0
C135 C 0.19673 0.04646 0.04227 0.0
C136 C 0.2061 0.0489 0.05884 0.0
C137 C 0.22561 0.09736 0.10341 0.0
C138 C 0.23567 0.06536 0.11016 0.0
C139 C 0.23892 0.09556 0.11932 0.0
C140 C 0.23113 0.1066 0.11184 0.0
C141 C 0.24174 0.07487 0.11857 0.0
C142 C 0.22768 0.07657 0.10259 0.0
C143 C 0.21807 0.11039 0.09579 0.0
O144 O 0.21491 0.1401 0.07058 0.0
O145 O 0.18301 0.13589 0.07519 0.0
O146 O 0.19882 0.10837 0.0931 0.0
O147 O 0.23079 0.11408 0.08883 0.0
H148 H 0.20145 0.1645 0.08917 0.0
H149 H 0.20149 0.2002 0.09323 0.0
H150 H 0.19115 0.21457 0.06397 0.0
H151 H 0.1905 0.17933 0.06013 0.0
H152 H 0.18794 0.07463 0.0359 0.0
H153 H 0.193 0.09453 0.05033 0.0
H154 H 0.20696 0.02188 0.05101 0.0
H155 H 0.21128 0.0415 0.06519 0.0
H156 H 0.23761 0.04944 0.10934 0.0
H157 H 0.24286 0.10339 0.12574 0.0
H158 H 0.22953 0.12258 0.11265 0.0
H159 H 0.2234 0.06912 0.09612 0.0
C160 C 0.12497 0.02859 0.70761 0.0
C161 C 0.11861 0.02747 0.69816 0.0
C162 C 0.08252 0.02888 0.70306 0.0
C163 C 0.09749 0.02769 0.6959 0.0
C164 C 0.0892 0.03054 0.71244 0.0
C165 C 0.11011 0.0303 0.71467 0.0
U166 U 0.18359 0.02113 0.70346 0.0
O167 O 0.20954 0.03699 0.71009 0.0
O168 O 0.2057 1.00486 0.71232 0.0
C169 C 0.2163 0.02093 0.71439 0.0
C170 C 0.14678 0.02766 0.71049 0.0
C171 C 0.22276 0.02317 0.72428 0.0
C172 C 0.21579 0.02596 0.74106 0.0
C173 C 0.20867 0.02499 0.73172 0.0
C174 C 0.25096 0.02355 0.73552 0.0
C175 C 0.23709 0.02514 0.74307 0.0
C176 C 0.24387 0.02262 0.72626 0.0
C177 C 0.20311 1.0094 0.67819 0.0
C178 C 0.23847 1.00639 0.67262 0.0
C179 C 0.21 0.99845 0.66226 0.0
C180 C 0.1961 1.0031 0.66939 0.0
C181 C 0.23135 0.99982 0.66378 0.0
C182 C 0.22441 1.01111 0.67981 0.0
C183 C 0.18755 1.01414 0.68538 0.0
O184 O 0.15543 1.00998 0.71024 0.0
O185 O 0.15889 0.04196 0.70748 0.0
O186 O 0.18814 0.0321 0.68903 0.0
O187 O 0.18365 1.00014 0.69157 0.0
H188 H 0.1299 0.02618 0.69259 0.0
H189 H 0.09287 0.02638 0.6886 0.0
H190 H 0.07821 0.03196 0.71813 0.0
H191 H 0.1147 0.03128 0.72199 0.0
H192 H 0.20466 0.0273 0.74669 0.0
H193 H 0.19227 0.02543 0.73033 0.0
H194 H 0.26737 0.02242 0.73675 0.0
H195 H 0.25496 0.02107 0.72062 0.0
H196 H 0.25483 1.0075 0.67402 0.0
H197 H 0.20394 0.99384 0.65551 0.0
H198 H 0.17974 1.00179 0.668 0.0
H199 H 0.23011 1.01597 0.68659 0.0
C200 C 0.19281 0.86324 0.96102 0.0
C201 C 0.19966 0.85478 0.9525 0.0
C202 C 0.19337 0.8213 0.9587 0.0
C203 C 0.19983 0.83389 0.95133 0.0
C204 C 0.18545 0.83008 0.96692 0.0
C205 C 0.18524 0.8507 0.96806 0.0
U206 U 0.20566 0.91962 0.95656 0.0
O207 O 0.18945 0.9459 0.96232 0.0
O208 O 0.22169 0.93993 0.96632 0.0
C209 C 0.2057 0.95181 0.96709 0.0
C210 C 0.19468 0.88469 0.9633 0.0
C211 C 0.20293 0.96332 0.97589 0.0
C212 C 0.19447 0.96768 0.99252 0.0
C213 C 0.19597 0.9554 0.98446 0.0
C214 C 0.20672 0.99555 0.98342 0.0
C215 C 0.19996 0.98821 0.99222 0.0
C216 C 0.20814 0.9834 0.97551 0.0
C217 C 0.22611 0.93563 0.9316 0.0
C218 C 0.24109 0.96683 0.92612 0.0
C219 C 0.23838 0.93876 0.91552 0.0
C220 C 0.2292 0.92757 0.92264 0.0
C221 C 0.24462 0.95852 0.91713 0.0
C222 C 0.23193 0.95546 0.93331 0.0
C223 C 0.21795 0.92224 0.93896 0.0
O224 O 0.21345 0.89185 0.96396 0.0
O225 O 0.18163 0.89708 0.95933 0.0
O226 O 0.19867 0.92461 0.94154 0.0
O227 O 0.23032 0.91792 0.94598 0.0
H228 H 0.2055 0.86421 0.94694 0.0
H229 H 0.20598 0.8276 0.94491 0.0
H230 H 0.18007 0.82089 0.97267 0.0
H231 H 0.17982 0.85686 0.97465 0.0
H232 H 0.1891 0.96075 0.9989 0.0
H233 H 0.19182 0.93982 0.98494 0.0
H234 H 0.21124 1.01073 0.98228 0.0
H235 H 0.21358 0.98986 0.96898 0.0
H236 H 0.24549 0.98205 0.92762 0.0
H237 H 0.2412 0.93157 0.90883 0.0
H238 H 0.22496 0.91227 0.92119 0.0
H239 H 0.22969 0.962 0.9402 0.0
C240 C 0.41166 1.00492 0.20707 0.0
C241 C 0.41873 1.01164 0.19827 0.0
C242 C 0.45452 1.00538 0.20301 0.0
C243 C 0.44 1.01188 0.19626 0.0
C244 C 0.44698 0.99774 0.21157 0.0
C245 C 0.42595 0.99773 0.21359 0.0
U246 U 0.35252 1.01215 0.20329 0.0
O247 O 0.32694 0.99617 0.21012 0.0
O248 O 0.33081 0.02826 0.21246 0.0
C249 C 0.32025 1.01215 0.21449 0.0
C250 C 0.3898 1.00596 0.20998 0.0
C251 C 0.31348 1.00969 0.22435 0.0
C252 C 0.31966 1.00546 0.24115 0.0
C253 C 0.32722 1.00726 0.23191 0.0
C254 C 0.28478 1.00804 0.23527 0.0
C255 C 0.29826 1.00603 0.24297 0.0
C256 C 0.2923 1.00997 0.22613 0.0
C257 C 0.33327 0.02386 0.17762 0.0
C258 C 0.29891 0.03081 0.17142 0.0
C259 C 0.32898 0.03552 0.1616 0.0
C260 C 0.34162 0.02911 0.16891 0.0
C261 C 0.30756 0.03687 0.16279 0.0
C262 C 0.31175 0.0244 0.17884 0.0
C263 C 0.34796 0.01888 0.18519 0.0
O264 O 0.38102 0.02358 0.20969 0.0
O265 O 0.37762 0.99152 0.20716 0.0
O266 O 0.34702 1.001 0.18891 0.0
O267 O 0.3519 0.03295 0.19135 0.0
H268 H 0.40791 0.01712 0.19308 0.0
H269 H 0.44503 0.01776 0.18956 0.0
H270 H 0.45734 0.99183 0.21685 0.0
H271 H 0.42085 0.99234 0.22038 0.0
H272 H 0.33059 1.00398 0.24686 0.0
H273 H 0.34367 1.00692 0.23067 0.0
H274 H 0.26825 1.00794 0.23625 0.0
H275 H 0.28143 1.01169 0.2204 0.0
H276 H 0.28244 0.03183 0.17253 0.0
H277 H 0.33605 0.03999 0.15503 0.0
H278 H 0.35814 0.02875 0.16781 0.0
H279 H 0.305 0.02037 0.18553 0.0
C280 C 0.33931 0.16908 0.46163 0.0
C281 C 0.33777 0.17707 0.45249 0.0
C282 C 0.34249 0.21087 0.45872 0.0
C283 C 0.3393 0.19786 0.45105 0.0
C284 C 0.34346 0.20258 0.46781 0.0
C285 C 0.342 0.18208 0.46921 0.0
U286 U 0.32794 0.11253 0.45679 0.0
O287 O 0.34481 0.08621 0.46204 0.0
O288 O 0.31277 0.0914 0.46638 0.0
C289 C 0.32908 0.07989 0.46703 0.0
C290 C 0.33814 0.14749 0.46379 0.0
C291 C 0.33337 0.07045 0.47621 0.0
C292 C 0.3401 0.07102 0.49309 0.0
C293 C 0.33694 0.08121 0.48455 0.0
C294 C 0.33645 0.03952 0.48497 0.0
C295 C 0.33995 0.05005 0.49332 0.0
C296 C 0.33313 0.0496 0.47654 0.0
C297 C 0.30756 0.09935 0.43115 0.0
C298 C 0.29832 0.06888 0.42279 0.0
C299 C 0.29423 0.10091 0.41522 0.0
C300 C 0.30163 0.11033 0.42325 0.0
C301 C 0.2927 0.08006 0.41476 0.0
C302 C 0.30578 0.07848 0.43095 0.0
C303 C 0.31546 0.11087 0.43922 0.0
O304 O 0.31963 0.13977 0.46454 0.0
O305 O 0.3514 0.13554 0.45966 0.0
O306 O 0.3348 0.10844 0.44172 0.0
O307 O 0.30296 0.11409 0.44632 0.0
H308 H 0.33554 0.16732 0.44651 0.0
H309 H 0.33844 0.20367 0.44396 0.0
H310 H 0.34536 0.212 0.47393 0.0
H311 H 0.34303 0.17633 0.47632 0.0
H312 H 0.34283 0.07942 0.49948 0.0
H313 H 0.33715 0.09733 0.48446 0.0
H314 H 0.33602 0.02339 0.48499 0.0
H315 H 0.3302 0.04103 0.47022 0.0
H316 H 0.29729 0.05279 0.42271 0.0
H317 H 0.2895 0.11014 0.40937 0.0
H318 H 0.30272 0.12643 0.42329 0.0
H319 H 0.3102 0.06969 0.43701 0.0
C320 C 0.91657 0.02134 0.70763 0.0
C321 C 0.92496 1.01575 0.69888 0.0
C322 C 0.95973 0.02133 0.70497 0.0
C323 C 0.94651 1.01586 0.69754 0.0
C324 C 0.95105 0.02768 0.71349 0.0
C325 C 0.92981 0.02769 0.71479 0.0
U326 U 0.85663 1.01338 0.70421 0.0
O327 O 0.83597 0.99873 0.7144 0.0
O328 O 0.83207 0.0306 0.71119 0.0
C329 C 0.82536 1.0151 0.71591 0.0
C330 C 0.89448 0.01991 0.71004 0.0
C331 C 0.81602 0.0184 0.72526 0.0
C332 C 0.81655 0.0215 0.74236 0.0
C333 C 0.8271 0.01898 0.73376 0.0
C334 C 0.78415 0.0228 0.73395 0.0
C335 C 0.79485 0.02344 0.74253 0.0
C336 C 0.79459 0.02042 0.72548 0.0
C337 C 0.83327 1.00149 0.67931 0.0
C338 C 0.79975 0.9887 0.67448 0.0
C339 C 0.82502 0.99782 0.66273 0.0
C340 C 0.8387 1.00337 0.66982 0.0
C341 C 0.80561 0.9901 0.66496 0.0
C342 C 0.81348 0.99452 0.68164 0.0
C343 C 0.84941 1.00568 0.68637 0.0
O344 O 0.88216 0.03415 0.70712 0.0
O345 O 0.88596 1.00216 0.70994 0.0
O346 O 0.85331 0.99181 0.69264 0.0
O347 O 0.8502 0.02382 0.6898 0.0
H348 H 0.91498 1.01086 0.69322 0.0
H349 H 0.95285 1.01087 0.6909 0.0
H350 H 0.96082 0.03211 0.71931 0.0
H351 H 0.92369 0.03211 0.72156 0.0
H352 H 0.82533 0.02204 0.74884 0.0
H353 H 0.84371 0.01743 0.73377 0.0
H354 H 0.76751 0.0237 0.73375 0.0
H355 H 0.78575 0.01985 0.71902 0.0
H356 H 0.78482 0.98271 0.67635 0.0
H357 H 0.83001 0.99868 0.65547 0.0
H358 H 0.8539 1.00857 0.66788 0.0
H359 H 0.80892 0.99304 0.68893 0.0
C360 C 0.70089 0.17357 0.45975 0.0
C361 C 0.70652 0.18228 0.45114 0.0
C362 C 0.69965 0.21525 0.4577 0.0
C363 C 0.70575 0.20313 0.4501 0.0
C364 C 0.69342 0.20624 0.46612 0.0
C365 C 0.694 0.18567 0.46711 0.0
U366 U 0.71233 0.1151 0.4583 0.0
O367 O 0.72548 0.09959 0.47062 0.0
O368 O 0.69346 0.09301 0.46586 0.0
C369 C 0.70829 0.08968 0.47195 0.0
C370 C 0.70302 0.15227 0.46187 0.0
C371 C 0.70599 0.07523 0.47959 0.0
C372 C 0.70594 0.06734 0.49623 0.0
C373 C 0.70741 0.08133 0.48898 0.0
C374 C 0.70136 0.04112 0.48471 0.0
C375 C 0.70314 0.04698 0.49418 0.0
C376 C 0.70272 0.05515 0.47748 0.0
C377 C 0.73344 0.09484 0.43322 0.0
C378 C 0.7487 0.06718 0.42464 0.0
C379 C 0.74536 0.09956 0.41726 0.0
C380 C 0.73604 0.10698 0.42533 0.0
C381 C 0.75207 0.07975 0.41689 0.0
C382 C 0.73947 0.07475 0.43284 0.0
C383 C 0.7256 0.10428 0.44179 0.0
O384 O 0.68963 0.1396 0.45839 0.0
O385 O 0.72163 0.14496 0.46298 0.0
O386 O 0.73817 0.10972 0.44857 0.0
O387 O 0.70592 0.10399 0.44395 0.0
H388 H 0.71195 0.17312 0.44539 0.0
H389 H 0.71074 0.20981 0.44356 0.0
H390 H 0.68859 0.2152 0.47206 0.0
H391 H 0.68964 0.17919 0.4738 0.0
H392 H 0.70758 0.07244 0.50342 0.0
H393 H 0.70979 0.09687 0.49071 0.0
H394 H 0.69889 0.02568 0.48285 0.0
H395 H 0.70157 0.05026 0.47024 0.0
H396 H 0.754 0.05189 0.42449 0.0
H397 H 0.74794 0.1095 0.41138 0.0
H398 H 0.73149 0.1225 0.42554 0.0
H399 H 0.73759 0.06517 0.4389 0.0
C400 C 0.62166 1.01131 0.20848 0.0
C401 C 0.61187 0.02247 0.20136 0.0
C402 C 0.57831 1.00939 0.20618 0.0
C403 C 0.5903 0.02143 0.2002 0.0
C404 C 0.58846 0.99743 0.21284 0.0
C405 C 0.60978 0.99842 0.21398 0.0
U406 U 0.68074 0.02031 0.20421 0.0
O407 O 0.70285 0.03554 0.21351 0.0
O408 O 0.70647 1.00363 0.2106 0.0
C409 C 0.71339 0.0192 0.2152 0.0
C410 C 0.64371 1.01351 0.21101 0.0
C411 C 0.72041 1.01592 0.22497 0.0
C412 C 0.71515 1.01601 0.24194 0.0
C413 C 0.70713 0.01712 0.23276 0.0
C414 C 0.74942 1.01135 0.2356 0.0
C415 C 0.73643 1.01339 0.2434 0.0
C416 C 0.74149 1.01269 0.22648 0.0
C417 C 0.69946 0.03137 0.17837 0.0
C418 C 0.73174 0.04398 0.17189 0.0
C419 C 0.70363 0.03505 0.16152 0.0
C420 C 0.69183 0.02936 0.16923 0.0
C421 C 0.72348 0.04294 0.16274 0.0
C422 C 0.71971 0.03832 0.17971 0.0
C423 C 0.68497 0.02727 0.18613 0.0
O424 O 0.65624 0.9993 0.20826 0.0
O425 O 0.65192 0.03138 0.21055 0.0
O426 O 0.68201 0.04141 0.19238 0.0
O427 O 0.68508 1.00928 0.18975 0.0
H428 H 0.62074 0.03243 0.19696 0.0
H429 H 0.58293 0.03079 0.19498 0.0
H430 H 0.57976 0.98779 0.21747 0.0
H431 H 0.61694 0.98959 0.21946 0.0
H432 H 0.70486 0.01764 0.24788 0.0
H433 H 0.69077 0.0195 0.23175 0.0
H434 H 0.76589 1.00963 0.23655 0.0
H435 H 0.752 1.01183 0.22058 0.0
H436 H 0.74701 0.05002 0.17303 0.0
H437 H 0.69694 0.03387 0.15456 0.0
H438 H 0.67631 0.02398 0.16804 0.0
H439 H 0.72594 0.0399 0.18674 0.0
C440 C 0.8334 0.85975 0.96037 0.0
C441 C 0.82494 0.85268 0.95189 0.0
C442 C 0.83653 0.81884 0.9556 0.0
C443 C 0.82654 0.83234 0.94951 0.0
C444 C 0.84554 0.82637 0.96388 0.0
C445 C 0.84387 0.84645 0.96624 0.0
U446 U 0.82112 0.91648 0.9578 0.0
O447 O 0.80636 0.93642 0.96814 0.0
O448 O 0.83857 0.94166 0.96381 0.0
C449 C 0.82278 0.94776 0.96882 0.0
C450 C 0.83147 0.88063 0.96359 0.0
C451 C 0.82632 0.95933 0.9775 0.0
C452 C 0.83832 0.96423 0.99361 0.0
C453 C 0.83535 0.9517 0.98574 0.0
C454 C 0.82288 0.99155 0.98504 0.0
C455 C 0.83225 0.98447 0.99331 0.0
C456 C 0.82019 0.97925 0.97727 0.0
C457 C 0.80115 0.93442 0.93289 0.0
C458 C 0.78482 0.9648 0.92715 0.0
C459 C 0.79158 0.93756 0.91644 0.0
C460 C 0.80034 0.92669 0.92376 0.0
C461 C 0.78352 0.95671 0.91799 0.0
C462 C 0.79355 0.95371 0.93457 0.0
C463 C 0.80868 0.92094 0.94033 0.0
O464 O 0.84476 0.89344 0.96016 0.0
O465 O 0.81276 0.88793 0.9644 0.0
O466 O 0.79615 0.91696 0.94733 0.0
O467 O 0.82809 0.9223 0.94287 0.0
H468 H 0.81688 0.86274 0.94721 0.0
H469 H 0.81946 0.82711 0.94307 0.0
H470 H 0.85385 0.81666 0.96863 0.0
H471 H 0.85065 0.85159 0.97276 0.0
H472 H 0.8456 0.95813 0.99982 0.0
H473 H 0.84015 0.93627 0.98608 0.0
H474 H 0.81725 1.00667 0.98452 0.0
H475 H 0.8131 0.98539 0.971 0.0
H476 H 0.77893 0.97957 0.9286 0.0
H477 H 0.79045 0.9305 0.90962 0.0
H478 H 0.80594 0.91179 0.92234 0.0
H479 H 0.79401 0.95999 0.94158 0.0
C480 C 0.91455 1.01518 0.32652 0.0
C481 C 0.92073 1.01638 0.33599 0.0
C482 C 0.95694 1.01353 0.33132 0.0
C483 C 0.9418 1.01559 0.33837 0.0
C484 C 0.95044 1.01283 0.32187 0.0
C485 C 0.92958 1.01353 0.31953 0.0
U486 U 0.85563 0.02096 0.33049 0.0
O487 O 0.83268 0.0358 0.32146 0.0
O488 O 0.83026 1.00371 0.32421 0.0
C489 C 0.82258 0.01923 0.3198 0.0
C490 C 0.89273 1.01546 0.32354 0.0
C491 C 0.81508 1.01609 0.31012 0.0
C492 C 0.81942 1.00621 0.29374 0.0
C493 C 0.82774 1.00924 0.30277 0.0
C494 C 0.78604 0.01709 0.29935 0.0
C495 C 0.79847 1.01024 0.29196 0.0
C496 C 0.79424 0.01991 0.30832 0.0
C497 C 0.83599 0.03247 0.35577 0.0
C498 C 0.8008 0.03816 0.36109 0.0
C499 C 0.82907 0.03898 0.37222 0.0
C500 C 0.8429 0.03489 0.365 0.0
C501 C 0.80789 0.04098 0.37037 0.0
C502 C 0.81481 0.03397 0.35381 0.0
C503 C 0.85158 0.02845 0.34851 0.0
O504 O 0.88104 1.00086 0.32658 0.0
O505 O 0.88345 0.03285 0.32365 0.0
O506 O 0.85446 0.0424 0.34218 0.0
O507 O 0.85196 1.01035 0.34502 0.0
H508 H 0.90932 0.01775 0.34151 0.0
H509 H 0.94618 1.01621 0.34572 0.0
H510 H 0.96152 1.01185 0.31621 0.0
H511 H 0.92518 1.01275 0.31219 0.0
H512 H 0.82934 1.001 0.28813 0.0
H513 H 0.8439 1.00625 0.30403 0.0
H514 H 0.76983 0.02009 0.2982 0.0
H515 H 0.7842 0.02507 0.31389 0.0
H516 H 0.78458 0.03964 0.35944 0.0
H517 H 0.83504 0.04057 0.37929 0.0
H518 H 0.85916 0.03367 0.36666 0.0
H519 H 0.8092 0.03207 0.34669 0.0
C520 C 0.83383 0.1742 0.07454 0.0
C521 C 0.82169 0.18161 0.08194 0.0
C522 C 0.83358 0.21547 0.07867 0.0
C523 C 0.82151 0.20212 0.08397 0.0
C524 C 0.84631 0.20778 0.07156 0.0
C525 C 0.84637 0.18742 0.06951 0.0
U526 U 0.82271 0.11714 0.07679 0.0
O527 O 0.80763 0.09772 0.06631 0.0
O528 O 0.84011 0.09238 0.07036 0.0
C529 C 0.8241 0.0865 0.06542 0.0
C530 C 0.83262 0.1533 0.07125 0.0
C531 C 0.827 0.07435 0.05688 0.0
C532 C 0.83991 0.06766 0.04108 0.0
C533 C 0.8375 0.08073 0.04878 0.0
C534 C 0.82087 0.04236 0.04949 0.0
C535 C 0.83171 0.04811 0.04136 0.0
C536 C 0.8188 0.05516 0.05711 0.0
C537 C 0.80262 0.09938 0.10195 0.0
C538 C 0.79446 0.06774 0.10956 0.0
C539 C 0.78855 0.09882 0.11776 0.0
C540 C 0.79596 0.10932 0.11004 0.0
C541 C 0.7876 0.07798 0.11764 0.0
C542 C 0.80188 0.07842 0.1017 0.0
C543 C 0.81035 0.11205 0.09423 0.0
O544 O 0.84606 0.14065 0.07472 0.0
O545 O 0.8141 0.14568 0.0703 0.0
O546 O 0.79774 0.1164 0.08729 0.0
O547 O 0.82968 0.11028 0.09163 0.0
H548 H 0.81196 0.17168 0.08597 0.0
H549 H 0.81171 0.2076 0.08956 0.0
H550 H 0.85561 0.21765 0.06729 0.0
H551 H 0.85576 0.18206 0.06374 0.0
H552 H 0.84843 0.07281 0.03502 0.0
H553 H 0.84391 0.09559 0.04843 0.0
H554 H 0.81357 0.02795 0.05001 0.0
H555 H 0.81059 0.04999 0.06328 0.0
H556 H 0.79369 0.05164 0.10928 0.0
H557 H 0.78349 0.10707 0.12389 0.0
H558 H 0.79647 0.12543 0.11041 0.0
H559 H 0.80691 0.07041 0.0955 0.0
C560 C 0.61981 0.0183 0.82693 0.0
C561 C 0.61357 0.01732 0.83639 0.0
C562 C 0.57741 0.01975 0.8316 0.0
C563 C 0.59248 0.01801 0.83871 0.0
C564 C 0.58396 0.02015 0.82217 0.0
C565 C 0.60484 0.01955 0.81988 0.0
U566 U 0.6787 1.01201 0.83091 0.0
O567 O 0.70134 0.9978 0.82157 0.0
O568 O 0.70421 0.02964 0.82495 0.0
C569 C 0.7117 1.01438 0.82029 0.0
C570 C 0.64165 0.01822 0.82402 0.0
C571 C 0.72012 0.01808 0.81082 0.0
C572 C 0.71832 0.01723 0.79368 0.0
C573 C 0.7085 1.01623 0.8025 0.0
C574 C 0.75099 0.02278 0.80148 0.0
C575 C 0.73985 0.01979 0.79313 0.0
C576 C 0.74124 0.02192 0.81019 0.0
C577 C 0.69888 0.99801 0.85584 0.0
C578 C 0.73441 0.99548 0.86129 0.0
C579 C 0.70634 0.98673 0.87169 0.0
C580 C 0.69221 0.99126 0.86462 0.0
C581 C 0.72763 0.98904 0.87021 0.0
C582 C 0.72011 0.99996 0.85414 0.0
C583 C 0.68303 1.00294 0.84878 0.0
O584 O 0.65335 0.03251 0.82739 0.0
O585 O 0.65085 1.0008 0.82383 0.0
O586 O 0.6797 0.9896 0.8422 0.0
O587 O 0.68277 0.02133 0.84564 0.0
H588 H 0.62494 1.01622 0.84194 0.0
H589 H 0.58804 0.01762 0.84604 0.0
H590 H 0.57291 0.02086 0.81647 0.0
H591 H 0.6093 0.02014 0.81255 0.0
H592 H 0.70932 1.01503 0.78735 0.0
H593 H 0.6921 1.01336 0.80284 0.0
H594 H 0.76748 0.02519 0.80129 0.0
H595 H 0.75046 0.02349 0.81651 0.0
H596 H 0.75068 0.9974 0.85987 0.0
H597 H 0.70048 0.98123 0.87832 0.0
H598 H 0.67592 0.9895 0.86604 0.0
H599 H 0.72558 1.00507 0.84736 0.0
C600 C 0.70247 0.86102 0.57187 0.0
C601 C 0.70688 0.85205 0.58059 0.0
C602 C 0.69668 0.81918 0.57441 0.0
C603 C 0.70389 0.83136 0.58186 0.0
C604 C 0.69311 0.82859 0.56566 0.0
C605 C 0.69556 0.84905 0.5645 0.0
U606 U 0.71549 0.9172 0.57708 0.0
O607 O 0.73046 0.93861 0.56752 0.0
O608 O 0.69854 0.94367 0.57213 0.0
C609 C 0.71418 0.95023 0.56716 0.0
C610 C 0.70489 0.88257 0.56989 0.0
C611 C 0.70972 0.96073 0.55826 0.0
C612 C 0.70113 0.96238 0.54157 0.0
C613 C 0.70491 0.9511 0.54975 0.0
C614 C 0.70712 0.99268 0.55037 0.0
C615 C 0.70207 0.98338 0.54182 0.0
C616 C 0.71078 0.98152 0.55845 0.0
C617 C 0.7339 0.93302 0.60226 0.0
C618 C 0.75239 0.96209 0.60814 0.0
C619 C 0.73799 0.93818 0.61903 0.0
C620 C 0.73038 0.92708 0.61153 0.0
C621 C 0.74974 0.95547 0.61749 0.0
C622 C 0.74451 0.95092 0.60056 0.0
C623 C 0.72726 0.91928 0.59474 0.0
O624 O 0.69169 0.89484 0.57383 0.0
O625 O 0.72372 0.88968 0.5695 0.0
O626 O 0.74008 0.91612 0.58774 0.0
O627 O 0.7079 0.92034 0.59211 0.0
H628 H 0.71245 0.861 0.58639 0.0
H629 H 0.70699 0.8251 0.58873 0.0
H630 H 0.68867 0.8203 0.55948 0.0
H631 H 0.69223 0.85557 0.55769 0.0
H632 H 0.69726 0.95473 0.5351 0.0
H633 H 0.70407 0.93501 0.54945 0.0
H634 H 0.70856 1.00871 0.55082 0.0
H635 H 0.71463 0.98924 0.56491 0.0
H636 H 0.76117 0.97541 0.60666 0.0
H637 H 0.73487 0.93294 0.62609 0.0
H638 H 0.72208 0.91344 0.613 0.0
H639 H 0.74719 0.95593 0.59343 0.0
C640 C 0.62413 0.46713 0.82958 0.0
C641 C 0.61501 0.46404 0.83847 0.0
C642 C 0.58047 0.46461 0.83132 0.0
C643 C 0.59328 0.46284 0.83933 0.0
C644 C 0.59 0.46855 0.82262 0.0
C645 C 0.61132 0.46956 0.82177 0.0
U646 U 0.68501 0.47361 0.83296 0.0
O647 O 0.70858 0.45616 0.82534 0.0
O648 O 0.70525 0.48817 0.82259 0.0
C649 C 0.71507 0.47163 0.82052 0.0
C650 C 0.64664 0.46741 0.82769 0.0
C651 C 0.72163 0.4687 0.81061 0.0
C652 C 0.71762 0.45622 0.79455 0.0
C653 C 0.70978 0.45888 0.80374 0.0
C654 C 0.749 0.47303 0.7991 0.0
C655 C 0.73742 0.46333 0.7921 0.0
C656 C 0.74118 0.47576 0.80815 0.0
C657 C 0.70746 0.48974 0.85799 0.0
C658 C 0.7405 0.50206 0.8639 0.0
C659 C 0.71085 0.50085 0.87417 0.0
C660 C 0.69904 0.49284 0.86692 0.0
C661 C 0.73153 0.50613 0.87273 0.0
C662 C 0.72847 0.494 0.85652 0.0
C663 C 0.69293 0.48351 0.85051 0.0
O664 O 0.65578 0.48479 0.82708 0.0
O665 O 0.65847 0.4533 0.83116 0.0
O666 O 0.69335 0.46501 0.8475 0.0
O667 O 0.68834 0.49651 0.84394 0.0
H668 H 0.62457 0.46229 0.84465 0.0
H669 H 0.5866 0.45999 0.84617 0.0
H670 H 0.58095 0.47078 0.81631 0.0
H671 H 0.61789 0.47207 0.81487 0.0
H672 H 0.70813 0.44877 0.78937 0.0
H673 H 0.69461 0.45327 0.80546 0.0
H674 H 0.76445 0.47826 0.79768 0.0
H675 H 0.75067 0.48325 0.81332 0.0
H676 H 0.75642 0.50596 0.86258 0.0
H677 H 0.70351 0.50353 0.8809 0.0
H678 H 0.68293 0.48966 0.86824 0.0
H679 H 0.73534 0.49167 0.84967 0.0
C680 C 0.84182 0.37567 0.07658 0.0
C681 C 0.83731 0.36772 0.0855 0.0
C682 C 0.84401 0.33411 0.07964 0.0
C683 C 0.83833 0.347 0.08701 0.0
C684 C 0.84861 0.34218 0.07081 0.0
C685 C 0.84744 0.3627 0.06929 0.0
U686 U 0.83109 0.4326 0.08114 0.0
O687 O 0.84846 0.45799 0.07527 0.0
O688 O 0.81616 0.45339 0.0713 0.0
C689 C 0.8329 0.46408 0.0701 0.0
C690 C 0.84055 0.39719 0.07438 0.0
C691 C 0.83743 0.47072 0.06039 0.0
C692 C 0.84075 0.46492 0.04352 0.0
C693 C 0.83871 0.45752 0.05273 0.0
C694 C 0.84114 0.49859 0.04956 0.0
C695 C 0.84163 0.48562 0.04182 0.0
C696 C 0.83903 0.49122 0.05871 0.0
C697 C 0.81108 0.45001 0.10605 0.0
C698 C 0.80019 0.48265 0.11184 0.0
C699 C 0.79492 0.4533 0.1214 0.0
C700 C 0.80409 0.44156 0.11447 0.0
C701 C 0.79259 0.47388 0.12014 0.0
C702 C 0.80938 0.47075 0.1048 0.0
C703 C 0.81891 0.43623 0.09874 0.0
O704 O 0.82204 0.40501 0.07384 0.0
O705 O 0.85407 0.40906 0.07837 0.0
O706 O 0.83826 0.43788 0.09613 0.0
O707 O 0.8064 0.43208 0.09175 0.0
H708 H 0.83295 0.37746 0.09123 0.0
H709 H 0.83483 0.34106 0.0939 0.0
H710 H 0.85296 0.33254 0.06503 0.0
H711 H 0.85089 0.36847 0.06235 0.0
H712 H 0.84127 0.4545 0.03771 0.0
H713 H 0.83758 0.44161 0.05385 0.0
H714 H 0.84143 0.51456 0.04854 0.0
H715 H 0.83795 0.50168 0.06449 0.0
H716 H 0.79829 0.49847 0.11065 0.0
H717 H 0.789 0.44616 0.12767 0.0
H718 H 0.80518 0.42564 0.11559 0.0
H719 H 0.81462 0.4776 0.09834 0.0
C720 C 0.91103 0.56601 0.33042 0.0
C721 C 0.92049 0.56872 0.33927 0.0
C722 C 0.9547 0.56883 0.33183 0.0
C723 C 0.94224 0.57004 0.33997 0.0
C724 C 0.94489 0.56547 0.32315 0.0
C725 C 0.92354 0.56422 0.32247 0.0
U726 U 0.84953 0.55943 0.33299 0.0
O727 O 0.82677 0.57753 0.32512 0.0
O728 O 0.83064 0.54577 0.32185 0.0
C729 C 0.82077 0.56237 0.31995 0.0
C730 C 0.88846 0.56551 0.32869 0.0
C731 C 0.81432 0.56593 0.31008 0.0
C732 C 0.82033 0.56751 0.29315 0.0
C733 C 0.82802 0.56644 0.30242 0.0
C734 C 0.78549 0.56829 0.29915 0.0
C735 C 0.7989 0.56816 0.29142 0.0
C736 C 0.79311 0.56716 0.30833 0.0
C737 C 0.82562 0.54239 0.35781 0.0
C738 C 0.79266 0.53144 0.36433 0.0
C739 C 0.8236 0.53001 0.37381 0.0
C740 C 0.83494 0.53796 0.36641 0.0
C741 C 0.80247 0.52608 0.37283 0.0
C742 C 0.80422 0.53949 0.35681 0.0
C743 C 0.83963 0.5488 0.35018 0.0
O744 O 0.87935 0.54816 0.32778 0.0
O745 O 0.87646 0.57957 0.33208 0.0
O746 O 0.83962 0.56745 0.34739 0.0
O747 O 0.84448 0.53598 0.34357 0.0
H748 H 0.91118 0.57005 0.34555 0.0
H749 H 0.94921 0.57254 0.34679 0.0
H750 H 0.95375 0.56386 0.31675 0.0
H751 H 0.9167 0.56206 0.31559 0.0
H752 H 0.83109 0.5675 0.28733 0.0
H753 H 0.84448 0.56551 0.30358 0.0
H754 H 0.76897 0.56839 0.2981 0.0
H755 H 0.78226 0.56657 0.3141 0.0
H756 H 0.77637 0.52863 0.36338 0.0
H757 H 0.83161 0.52639 0.38027 0.0
H758 H 0.85136 0.54013 0.36736 0.0
H759 H 0.79664 0.5429 0.35021 0.0
C760 C 0.69533 0.6578 0.5774 0.0
C761 C 0.69527 0.66527 0.58666 0.0
C762 C 0.69547 0.69962 0.5807 0.0
C763 C 0.69536 0.68603 0.58829 0.0
C764 C 0.6958 0.69178 0.57151 0.0
C765 C 0.6956 0.67129 0.56991 0.0
U766 U 0.7041 0.6004 0.58143 0.0
O767 O 0.68627 0.57541 0.57539 0.0
O768 O 0.71867 0.57955 0.57151 0.0
C769 C 0.7018 0.56908 0.57027 0.0
C770 C 0.69539 0.63627 0.57503 0.0
C771 C 0.69739 0.56227 0.56056 0.0
C772 C 0.69436 0.56781 0.54366 0.0
C773 C 0.69611 0.57536 0.55287 0.0
C774 C 0.69417 0.53421 0.54978 0.0
C775 C 0.69367 0.54711 0.54203 0.0
C776 C 0.6961 0.54171 0.55892 0.0
C777 C 0.72429 0.58193 0.60609 0.0
C778 C 0.7289 0.54867 0.61273 0.0
C779 C 0.74198 0.5775 0.62101 0.0
C780 C 0.73453 0.58986 0.6139 0.0
C781 C 0.73937 0.55677 0.62054 0.0
C782 C 0.72148 0.56118 0.60551 0.0
C783 C 0.71667 0.59614 0.59893 0.0
O784 O 0.71351 0.6278 0.5741 0.0
O785 O 0.68169 0.6247 0.57909 0.0
O786 O 0.69723 0.59492 0.59639 0.0
O787 O 0.7291 0.6003 0.59192 0.0
H788 H 0.69516 0.65514 0.59258 0.0
H789 H 0.69508 0.6914 0.59547 0.0
H790 H 0.69653 0.7015 0.56545 0.0
H791 H 0.69579 0.66593 0.56272 0.0
H792 H 0.69396 0.57811 0.5378 0.0
H793 H 0.69706 0.59129 0.55395 0.0
H794 H 0.69405 0.51823 0.54875 0.0
H795 H 0.69729 0.53133 0.56473 0.0
H796 H 0.7268 0.53272 0.61215 0.0
H797 H 0.74977 0.58421 0.62696 0.0
H798 H 0.73677 0.60579 0.61453 0.0
H799 H 0.71365 0.55471 0.59952 0.0
C800 C 0.62372 0.56565 0.20544 0.0
C801 C 0.61478 0.56713 0.19642 0.0
C802 C 0.5802 0.56883 0.20341 0.0
C803 C 0.59312 0.56862 0.19542 0.0
C804 C 0.58945 0.56676 0.21232 0.0
C805 C 0.61076 0.56529 0.21329 0.0
U806 U 0.68427 0.55818 0.20167 0.0
O807 O 0.70838 0.57571 0.20887 0.0
O808 O 0.70484 0.54391 0.21201 0.0
C809 C 0.71492 0.56042 0.21381 0.0
C810 C 0.64622 0.56493 0.20731 0.0
C811 C 0.72155 0.5639 0.22365 0.0
C812 C 0.71592 0.573 0.2401 0.0
C813 C 0.70834 0.57044 0.23086 0.0
C814 C 0.74981 0.56296 0.23489 0.0
C815 C 0.73682 0.56907 0.24227 0.0
C816 C 0.74225 0.56027 0.22579 0.0
C817 C 0.70807 0.54227 0.17722 0.0
C818 C 0.74284 0.53193 0.17272 0.0
C819 C 0.71582 0.53335 0.16102 0.0
C820 C 0.70192 0.53979 0.16786 0.0
C821 C 0.73641 0.52888 0.16332 0.0
C822 C 0.72876 0.53854 0.17962 0.0
C823 C 0.69199 0.54807 0.18411 0.0
O824 O 0.65512 0.54739 0.20779 0.0
O825 O 0.65814 0.57885 0.20376 0.0
O826 O 0.69175 0.56661 0.18705 0.0
O827 O 0.68738 0.53516 0.19071 0.0
H828 H 0.62446 0.56738 0.19023 0.0
H829 H 0.58657 0.57015 0.18845 0.0
H830 H 0.58015 0.56636 0.21863 0.0
H831 H 0.61722 0.56407 0.2203 0.0
H832 H 0.70533 0.57771 0.24554 0.0
H833 H 0.69226 0.5734 0.22938 0.0
H834 H 0.76606 0.5604 0.23606 0.0
H835 H 0.75276 0.55533 0.22035 0.0
H836 H 0.75854 0.5287 0.17479 0.0
H837 H 0.71028 0.53186 0.15388 0.0
H838 H 0.68611 0.54266 0.16582 0.0
H839 H 0.73392 0.54042 0.18681 0.0
C840 C 0.69309 0.37548 0.45815 0.0
C841 C 0.69332 0.36829 0.44886 0.0
C842 C 0.69186 0.33397 0.45464 0.0
C843 C 0.69266 0.34764 0.44712 0.0
C844 C 0.6912 0.34149 0.46387 0.0
C845 C 0.69192 0.3619 0.46559 0.0
U846 U 0.70368 0.43231 0.45405 0.0
O847 O 0.68655 0.45764 0.4601 0.0
O848 O 0.71895 0.45284 0.46392 0.0
C849 C 0.70231 0.46365 0.46517 0.0
C850 C 0.69407 0.39686 0.46058 0.0
C851 C 0.69818 0.4708 0.47483 0.0
C852 C 0.68692 0.46664 0.4911 0.0
C853 C 0.69004 0.45875 0.48201 0.0
C854 C 0.69961 0.49855 0.48578 0.0
C855 C 0.69188 0.48669 0.49313 0.0
C856 C 0.70283 0.49068 0.47682 0.0
C857 C 0.72361 0.45054 0.42943 0.0
C858 C 0.72931 0.48399 0.42322 0.0
C859 C 0.74074 0.45519 0.41442 0.0
C860 C 0.73316 0.4427 0.42143 0.0
C861 C 0.73916 0.476 0.41521 0.0
C862 C 0.72163 0.47133 0.4303 0.0
C863 C 0.71587 0.43625 0.4365 0.0
O864 O 0.71254 0.40466 0.46132 0.0
O865 O 0.6806 0.40885 0.45662 0.0
O866 O 0.69652 0.43783 0.43912 0.0
O867 O 0.72839 0.43174 0.44344 0.0
H868 H 0.6942 0.37854 0.443 0.0
H869 H 0.69324 0.34237 0.43992 0.0
H870 H 0.69009 0.33154 0.46985 0.0
H871 H 0.69161 0.36712 0.4728 0.0
H872 H 0.68098 0.45695 0.49654 0.0
H873 H 0.68628 0.44332 0.48061 0.0
H874 H 0.70305 0.51413 0.48687 0.0
H875 H 0.70901 0.50027 0.47139 0.0
H876 H 0.7279 0.49995 0.42407 0.0
H877 H 0.74779 0.44843 0.4083 0.0
H878 H 0.73474 0.42674 0.42058 0.0
H879 H 0.71427 0.47772 0.43644 0.0
C880 C 0.91092 0.46497 0.70449 0.0
C881 C 0.91805 0.46867 0.6953 0.0
C882 C 0.95394 0.46398 0.70044 0.0
C883 C 0.93939 0.46813 0.69329 0.0
C884 C 0.94638 0.4596 0.70949 0.0
C885 C 0.92532 0.46023 0.71147 0.0
U886 U 0.8507 0.47379 0.70208 0.0
O887 O 0.82618 0.45671 0.70925 0.0
O888 O 0.83058 0.48835 0.71251 0.0
C889 C 0.81999 0.4721 0.71422 0.0
C890 C 0.88891 0.46613 0.70736 0.0
C891 C 0.81308 0.46866 0.72403 0.0
C892 C 0.81903 0.46435 0.74088 0.0
C893 C 0.82669 0.46568 0.73161 0.0
C894 C 0.78425 0.4681 0.73502 0.0
C895 C 0.7977 0.46571 0.74264 0.0
C896 C 0.79186 0.46964 0.72585 0.0
C897 C 0.82872 0.48985 0.67702 0.0
C898 C 0.79645 0.5043 0.67128 0.0
C899 C 0.82458 0.49824 0.66051 0.0
C900 C 0.83635 0.49042 0.66783 0.0
C901 C 0.80474 0.50588 0.66214 0.0
C902 C 0.80844 0.49642 0.67872 0.0
C903 C 0.8434 0.48375 0.68448 0.0
O904 O 0.88045 0.48387 0.70789 0.0
O905 O 0.87622 0.45244 0.70419 0.0
O906 O 0.84299 0.46525 0.68748 0.0
O907 O 0.84785 0.49673 0.69109 0.0
H908 H 0.90723 0.47223 0.68975 0.0
H909 H 0.9445 0.47151 0.68622 0.0
H910 H 0.95679 0.45569 0.71514 0.0
H911 H 0.92026 0.45715 0.71858 0.0
H912 H 0.82973 0.46261 0.74667 0.0
H913 H 0.84314 0.46486 0.7304 0.0
H914 H 0.76783 0.46959 0.73619 0.0
H915 H 0.78109 0.47213 0.72014 0.0
H916 H 0.78118 0.50999 0.67277 0.0
H917 H 0.83135 0.49889 0.65356 0.0
H918 H 0.85188 0.4854 0.66634 0.0
H919 H 0.80216 0.49604 0.68577 0.0
C920 C 0.84376 0.65718 0.95817 0.0
C921 C 0.83338 0.66685 0.95077 0.0
C922 C 0.84385 0.6993 0.957 0.0
C923 C 0.83353 0.68782 0.95016 0.0
C924 C 0.85528 0.68932 0.96397 0.0
C925 C 0.85516 0.6686 0.96455 0.0
U926 U 0.83122 0.60037 0.95376 0.0
O927 O 0.84791 0.57479 0.95982 0.0
O928 O 0.81577 0.58039 0.96382 0.0
C929 C 0.83221 0.56925 0.96502 0.0
C930 C 0.84159 0.63569 0.96024 0.0
C931 C 0.83665 0.56225 0.97468 0.0
C932 C 0.84559 0.56718 0.99121 0.0
C933 C 0.84239 0.57494 0.9821 0.0
C934 C 0.83798 0.53414 0.98542 0.0
C935 C 0.8431 0.54661 0.99303 0.0
C936 C 0.83465 0.54187 0.97644 0.0
C937 C 0.81153 0.58185 0.92907 0.0
C938 C 0.80639 0.54847 0.92263 0.0
C939 C 0.79397 0.57729 0.91413 0.0
C940 C 0.80151 0.58972 0.92118 0.0
C941 C 0.79609 0.5565 0.91474 0.0
C942 C 0.81401 0.56108 0.92977 0.0
C943 C 0.8193 0.59614 0.93616 0.0
O944 O 0.82281 0.62849 0.9607 0.0
O945 O 0.8549 0.62332 0.95644 0.0
O946 O 0.83858 0.59442 0.93888 0.0
O947 O 0.80671 0.60094 0.94303 0.0
H948 H 0.82454 0.65831 0.94573 0.0
H949 H 0.82466 0.69504 0.94468 0.0
H950 H 0.86373 0.69761 0.96924 0.0
H951 H 0.86332 0.66149 0.9703 0.0
H952 H 0.84954 0.57734 0.99684 0.0
H953 H 0.84414 0.59077 0.98089 0.0
H954 H 0.83658 0.51821 0.98634 0.0
H955 H 0.83039 0.53179 0.97082 0.0
H956 H 0.80821 0.53252 0.92334 0.0
H957 H 0.78653 0.58407 0.9081 0.0
H958 H 0.79956 0.60567 0.92045 0.0
H959 H 0.82173 0.55465 0.9358 0.0
C960 C 0.41342 0.56116 0.20566 0.0
C961 C 0.42017 0.55791 0.19639 0.0
C962 C 0.45625 0.56311 0.20119 0.0
C963 C 0.44137 0.55894 0.19416 0.0
C964 C 0.44907 0.56597 0.21045 0.0
C965 C 0.42809 0.56523 0.2126 0.0
U966 U 0.35357 0.5523 0.2031 0.0
O967 O 0.33325 0.5381 0.21356 0.0
O968 O 0.32853 0.56947 0.20982 0.0
C969 C 0.32245 0.55437 0.21499 0.0
C970 C 0.3915 0.56021 0.20862 0.0
C971 C 0.31532 0.55859 0.22471 0.0
C972 C 0.32051 0.5635 0.24158 0.0
C973 C 0.32862 0.56065 0.23246 0.0
C974 C 0.286 0.5628 0.2352 0.0
C975 C 0.29898 0.56428 0.2431 0.0
C976 C 0.29404 0.55989 0.22619 0.0
C977 C 0.33217 0.53565 0.17817 0.0
C978 C 0.29844 0.52426 0.17275 0.0
C979 C 0.32739 0.52454 0.16204 0.0
C980 C 0.33994 0.53222 0.16912 0.0
C981 C 0.30663 0.52019 0.16377 0.0
C982 C 0.31118 0.53194 0.17994 0.0
C983 C 0.34708 0.54193 0.18547 0.0
O984 O 0.37883 0.5738 0.20532 0.0
O985 O 0.38308 0.54249 0.20925 0.0
O986 O 0.35145 0.52913 0.19217 0.0
O987 O 0.34645 0.56047 0.18841 0.0
H988 H 0.40913 0.55461 0.19089 0.0
H989 H 0.44598 0.55668 0.18693 0.0
H990 H 0.45963 0.56844 0.21622 0.0
H991 H 0.42332 0.56764 0.21981 0.0
H992 H 0.3311 0.56457 0.24744 0.0
H993 H 0.34514 0.55977 0.2315 0.0
H994 H 0.26945 0.56391 0.23593 0.0
H995 H 0.28347 0.55845 0.22033 0.0
H996 H 0.28252 0.52074 0.17429 0.0
H997 H 0.33411 0.52131 0.15523 0.0
H998 H 0.35606 0.53489 0.1676 0.0
H999 H 0.30484 0.53445 0.18688 0.0
C1000 C 0.20034 0.66041 0.95882 0.0
C1001 C 0.20452 0.66774 0.94975 0.0
C1002 C 0.19739 0.70184 0.95501 0.0
C1003 C 0.20299 0.68832 0.94785 0.0
C1004 C 0.19284 0.69416 0.96398 0.0
C1005 C 0.19438 0.67382 0.96585 0.0
U1006 U 0.21239 0.60356 0.95515 0.0
O1007 O 0.22621 0.58306 0.96548 0.0
O1008 O 0.19455 0.57806 0.96059 0.0
C1009 C 0.20949 0.57214 0.96617 0.0
C1010 C 0.20187 0.63909 0.96141 0.0
C1011 C 0.20374 0.56482 0.97564 0.0
C1012 C 0.19831 0.56891 0.99254 0.0
C1013 C 0.20202 0.57721 0.98358 0.0
C1014 C 0.19725 0.53605 0.9856 0.0
C1015 C 0.19636 0.54808 0.99369 0.0
C1016 C 0.20099 0.54428 0.97675 0.0
C1017 C 0.23347 0.58743 0.92998 0.0
C1018 C 0.24205 0.5557 0.9225 0.0
C1019 C 0.2459 0.58648 0.91387 0.0
C1020 C 0.23905 0.59715 0.92167 0.0
C1021 C 0.24722 0.56558 0.91404 0.0
C1022 C 0.23515 0.56656 0.93042 0.0
C1023 C 0.22574 0.60008 0.93774 0.0
O1024 O 0.18883 0.62675 0.95741 0.0
O1025 O 0.22046 0.63159 0.96234 0.0
O1026 O 0.23798 0.60345 0.94493 0.0
O1027 O 0.20622 0.59858 0.94008 0.0
H1028 H 0.2091 0.65764 0.94419 0.0
H1029 H 0.20664 0.69368 0.94087 0.0
H1030 H 0.188 0.70392 0.96963 0.0
H1031 H 0.19094 0.66852 0.97287 0.0
H1032 H 0.19765 0.57872 0.99857 0.0
H1033 H 0.20398 0.59315 0.9829 0.0
H1034 H 0.19522 0.52009 0.98608 0.0
H1035 H 0.20212 0.53444 0.97073 0.0
H1036 H 0.24292 0.53963 0.92295 0.0
H1037 H 0.25032 0.5948 0.90767 0.0
H1038 H 0.23802 0.61322 0.92118 0.0
H1039 H 0.231 0.55871 0.93679 0.0
C1040 C 0.12155 0.47003 0.70587 0.0
C1041 C 0.11221 0.47781 0.6977 0.0
C1042 C 0.07805 0.46832 0.70357 0.0
C1043 C 0.09057 0.47685 0.69653 0.0
C1044 C 0.08775 0.45976 0.71144 0.0
C1045 C 0.1091 0.46063 0.71256 0.0
U1046 U 0.1814 0.48115 0.70265 0.0
O1047 O 0.20151 0.49549 0.71316 0.0
O1048 O 0.2066 0.4642 0.70939 0.0
C1049 C 0.21248 0.47933 0.7146 0.0
C1050 C 0.14375 0.47224 0.70821 0.0
C1051 C 0.21933 0.47519 0.72437 0.0
C1052 C 0.21333 0.46951 0.74111 0.0
C1053 C 0.2057 0.4719 0.73188 0.0
C1054 C 0.24813 0.47335 0.73534 0.0
C1055 C 0.23473 0.47048 0.74299 0.0
C1056 C 0.24053 0.4756 0.7262 0.0
C1057 C 0.20407 0.49776 0.6781 0.0
C1058 C 0.23787 0.51037 0.67345 0.0
C1059 C 0.21177 0.50433 0.66165 0.0
C1060 C 0.1982 0.49795 0.66863 0.0
C1061 C 0.2317 0.51108 0.66391 0.0
C1062 C 0.22416 0.50377 0.68049 0.0
C1063 C 0.18831 0.49174 0.68508 0.0
O1064 O 0.15674 0.45898 0.70489 0.0
O1065 O 0.15148 0.49031 0.70861 0.0
O1066 O 0.18371 0.50446 0.69178 0.0
O1067 O 0.1885 0.47315 0.68795 0.0
H1068 H 0.1215 0.48508 0.69239 0.0
H1069 H 0.0836 0.4836 0.69039 0.0
H1070 H 0.07868 0.4529 0.71694 0.0
H1071 H 0.11587 0.45446 0.71889 0.0
H1072 H 0.20246 0.46707 0.74676 0.0
H1073 H 0.18924 0.47147 0.73065 0.0
H1074 H 0.26457 0.47463 0.73642 0.0
H1075 H 0.25134 0.4782 0.72053 0.0
H1076 H 0.25306 0.51538 0.67552 0.0
H1077 H 0.2065 0.50393 0.65443 0.0
H1078 H 0.18285 0.49327 0.6666 0.0
H1079 H 0.2291 0.50365 0.68777 0.0
C1080 C 0.33348 0.37165 0.45886 0.0
C1081 C 0.32994 0.36462 0.44968 0.0
C1082 C 0.33486 0.33009 0.45494 0.0
C1083 C 0.33061 0.34401 0.44774 0.0
C1084 C 0.33813 0.33746 0.4641 0.0
C1085 C 0.33756 0.35786 0.466 0.0
U1086 U 0.32406 0.4288 0.45496 0.0
O1087 O 0.31019 0.45012 0.46488 0.0
O1088 O 0.34241 0.45386 0.46058 0.0
C1089 C 0.32714 0.46065 0.46573 0.0
C1090 C 0.33296 0.39304 0.46145 0.0
C1091 C 0.33193 0.46888 0.47516 0.0
C1092 C 0.33693 0.46592 0.49213 0.0
C1093 C 0.33498 0.45699 0.48319 0.0
C1094 C 0.33361 0.49849 0.48502 0.0
C1095 C 0.33587 0.48677 0.49311 0.0
C1096 C 0.33172 0.48965 0.47617 0.0
C1097 C 0.30415 0.44755 0.43044 0.0
C1098 C 0.28673 0.47836 0.42607 0.0
C1099 C 0.29608 0.45454 0.41404 0.0
C1100 C 0.3047 0.44219 0.42092 0.0
C1101 C 0.2866 0.4726 0.41652 0.0
C1102 C 0.29546 0.46595 0.43298 0.0
C1103 C 0.31129 0.4328 0.43746 0.0
O1104 O 0.34662 0.4048 0.4575 0.0
O1105 O 0.31471 0.40133 0.46228 0.0
O1106 O 0.29893 0.42915 0.44457 0.0
O1107 O 0.33082 0.43334 0.43989 0.0
H1108 H 0.3267 0.375 0.44404 0.0
H1109 H 0.32806 0.33904 0.44059 0.0
H1110 H 0.34085 0.32743 0.46993 0.0
H1111 H 0.34021 0.36289 0.47314 0.0
H1112 H 0.33842 0.45657 0.4983 0.0
H1113 H 0.33516 0.44092 0.48259 0.0
H1114 H 0.33242 0.51453 0.48561 0.0
H1115 H 0.32927 0.49912 0.4701 0.0
H1116 H 0.27974 0.49228 0.42822 0.0
H1117 H 0.29601 0.44945 0.40681 0.0
H1118 H 0.31121 0.42802 0.41881 0.0
H1119 H 0.29492 0.47045 0.44029 0.0
C1120 C 0.41287 0.47194 0.82949 0.0
C1121 C 0.42101 0.48217 0.83728 0.0
C1122 C 0.45581 0.46913 0.83392 0.0
C1123 C 0.44223 0.48089 0.83943 0.0
C1124 C 0.44688 0.45809 0.82648 0.0
C1125 C 0.42601 0.45979 0.82423 0.0
U1126 U 0.35332 0.4823 0.83166 0.0
O1127 O 0.333 0.49618 0.82108 0.0
O1128 O 0.32815 0.46501 0.82513 0.0
C1129 C 0.32217 0.47987 0.81977 0.0
C1130 C 0.39118 0.47384 0.82626 0.0
C1131 C 0.31528 0.47516 0.81006 0.0
C1132 C 0.32049 0.4719 0.79311 0.0
C1133 C 0.3285 0.47491 0.80223 0.0
C1134 C 0.28628 0.46864 0.79963 0.0
C1135 C 0.29911 0.46914 0.79165 0.0
C1136 C 0.29423 0.47172 0.80865 0.0
C1137 C 0.33258 0.4981 0.85693 0.0
C1138 C 0.29937 0.50912 0.86315 0.0
C1139 C 0.32813 0.50389 0.87368 0.0
C1140 C 0.34043 0.49832 0.86609 0.0
C1141 C 0.30736 0.50925 0.87241 0.0
C1142 C 0.3119 0.50357 0.85545 0.0
C1143 C 0.34703 0.49248 0.84932 0.0
O1144 O 0.37807 0.46035 0.82922 0.0
O1145 O 0.38318 0.4918 0.82579 0.0
O1146 O 0.35069 0.50545 0.84261 0.0
O1147 O 0.34682 0.47395 0.84637 0.0
H1148 H 0.41111 0.49146 0.84156 0.0
H1149 H 0.44786 0.48961 0.84528 0.0
H1150 H 0.45574 0.44789 0.82225 0.0
H1151 H 0.4201 0.45158 0.81825 0.0
H1152 H 0.33097 0.47236 0.7872 0.0
H1153 H 0.34486 0.47742 0.80314 0.0
H1154 H 0.26992 0.46593 0.79894 0.0
H1155 H 0.28374 0.47171 0.81457 0.0
H1156 H 0.28346 0.51311 0.86185 0.0
H1157 H 0.33519 0.50433 0.88058 0.0
H1158 H 0.35636 0.49434 0.86739 0.0
H1159 H 0.30549 0.50358 0.84842 0.0
C1160 C 0.33473 0.65997 0.57513 0.0
C1161 C 0.32753 0.66924 0.58337 0.0
C1162 C 0.3398 0.7016 0.57768 0.0
C1163 C 0.33003 0.68995 0.58464 0.0
C1164 C 0.34658 0.69207 0.56943 0.0
C1165 C 0.34418 0.67161 0.56822 0.0
U1166 U 0.32311 0.60314 0.57998 0.0
O1167 O 0.30883 0.5821 0.57 0.0
O1168 O 0.34093 0.57778 0.5744 0.0
C1169 C 0.32567 0.57138 0.56913 0.0
C1170 C 0.33267 0.63842 0.57318 0.0
C1171 C 0.33078 0.56368 0.55964 0.0
C1172 C 0.3422 0.56726 0.54335 0.0
C1173 C 0.33788 0.57574 0.55222 0.0
C1174 C 0.33235 0.53486 0.54927 0.0
C1175 C 0.3393 0.54672 0.54181 0.0
C1176 C 0.32824 0.54323 0.55806 0.0
C1177 C 0.30387 0.58528 0.60485 0.0
C1178 C 0.28794 0.55405 0.60976 0.0
C1179 C 0.29382 0.58017 0.62117 0.0
C1180 C 0.30256 0.59205 0.61416 0.0
C1181 C 0.28612 0.56122 0.61903 0.0
C1182 C 0.29688 0.56597 0.6027 0.0
C1183 C 0.31102 0.59952 0.5976 0.0
O1184 O 0.34619 0.62641 0.57707 0.0
O1185 O 0.314 0.63091 0.57282 0.0
O1186 O 0.2984 0.60318 0.59058 0.0
O1187 O 0.33042 0.59853 0.59501 0.0
H1188 H 0.3201 0.66054 0.58881 0.0
H1189 H 0.32465 0.69674 0.59109 0.0
H1190 H 0.35365 0.70046 0.56379 0.0
H1191 H 0.34969 0.66483 0.56178 0.0
H1192 H 0.34745 0.57672 0.53767 0.0
H1193 H 0.33994 0.59158 0.55326 0.0
H1194 H 0.33004 0.51903 0.54827 0.0
H1195 H 0.32288 0.53363 0.56367 0.0
H1196 H 0.28187 0.53954 0.60792 0.0
H1197 H 0.2922 0.58617 0.62821 0.0
H1198 H 0.30765 0.60693 0.61597 0.0
H1199 H 0.29771 0.56042 0.59556 0.0
C1200 C 0.12247 0.56135 0.32929 0.0
C1201 C 0.11509 0.55528 0.33812 0.0
C1202 C 0.07938 0.56371 0.33353 0.0
C1203 C 0.09387 0.5566 0.34024 0.0
C1204 C 0.0874 0.56954 0.32469 0.0
C1205 C 0.10843 0.56862 0.3227 0.0
U1206 U 0.18207 0.55151 0.33198 0.0
O1207 O 0.2026 0.5374 0.3216 0.0
O1208 O 0.20731 0.5687 0.32545 0.0
C1209 C 0.2134 0.55368 0.32022 0.0
C1210 C 0.14436 0.55996 0.32636 0.0
C1211 C 0.22002 0.558 0.31046 0.0
C1212 C 0.21376 0.56167 0.29363 0.0
C1213 C 0.20625 0.55942 0.30286 0.0
C1214 C 0.24869 0.56159 0.29955 0.0
C1215 C 0.23517 0.56243 0.29182 0.0
C1216 C 0.2412 0.55946 0.30871 0.0
C1217 C 0.20382 0.5343 0.35656 0.0
C1218 C 0.23831 0.52444 0.36157 0.0
C1219 C 0.2102 0.52404 0.37268 0.0
C1220 C 0.19689 0.53093 0.3657 0.0
C1221 C 0.23136 0.52065 0.37089 0.0
C1222 C 0.22467 0.53101 0.35449 0.0
C1223 C 0.18837 0.54063 0.34953 0.0
O1224 O 0.15716 0.57337 0.32969 0.0
O1225 O 0.15252 0.5421 0.32575 0.0
O1226 O 0.18396 0.52803 0.34275 0.0
O1227 O 0.18881 0.55927 0.34674 0.0
H1228 H 0.12567 0.54952 0.34334 0.0
H1229 H 0.08913 0.55198 0.34718 0.0
H1230 H 0.07777 0.57448 0.31899 0.0
H1231 H 0.11372 0.57331 0.31582 0.0
H1232 H 0.20279 0.56256 0.2879 0.0
H1233 H 0.1898 0.5584 0.30404 0.0
H1234 H 0.26521 0.56173 0.29853 0.0
H1235 H 0.25212 0.55832 0.31445 0.0
H1236 H 0.25421 0.52246 0.35959 0.0
H1237 H 0.20317 0.52108 0.37938 0.0
H1238 H 0.18082 0.5333 0.36745 0.0
H1239 H 0.23039 0.53347 0.34743 0.0
C1240 C 0.20183 0.37209 0.07522 0.0
C1241 C 0.20414 0.3629 0.08406 0.0
C1242 C 0.19669 0.3302 0.07709 0.0
C1243 C 0.20164 0.34207 0.08498 0.0
C1244 C 0.19511 0.33965 0.06828 0.0
C1245 C 0.1975 0.36019 0.06739 0.0
U1246 U 0.21235 0.42936 0.08035 0.0
O1247 O 0.22614 0.45059 0.0704 0.0
O1248 O 0.19398 0.45441 0.07475 0.0
C1249 C 0.2091 0.46097 0.06946 0.0
C1250 C 0.20328 0.39387 0.07361 0.0
C1251 C 0.20391 0.46794 0.05986 0.0
C1252 C 0.19895 0.46275 0.04303 0.0
C1253 C 0.20179 0.45502 0.05215 0.0
C1254 C 0.19975 0.49621 0.04931 0.0
C1255 C 0.19829 0.48353 0.04146 0.0
C1256 C 0.20246 0.48851 0.05836 0.0
C1257 C 0.23199 0.44777 0.10509 0.0
C1258 C 0.24288 0.48065 0.11053 0.0
C1259 C 0.24303 0.4527 0.12126 0.0
C1260 C 0.2357 0.44034 0.11412 0.0
C1261 C 0.24712 0.47296 0.11958 0.0
C1262 C 0.23541 0.46812 0.10332 0.0
C1263 C 0.22501 0.43343 0.09785 0.0
O1264 O 0.18973 0.40546 0.07775 0.0
O1265 O 0.22173 0.40181 0.07304 0.0
O1266 O 0.2375 0.42995 0.09077 0.0
O1267 O 0.2055 0.43398 0.09539 0.0
H1268 H 0.20759 0.37178 0.09022 0.0
H1269 H 0.20305 0.33537 0.09187 0.0
H1270 H 0.19194 0.33115 0.06197 0.0
H1271 H 0.19579 0.36688 0.06049 0.0
H1272 H 0.1976 0.45245 0.03721 0.0
H1273 H 0.20279 0.43906 0.05314 0.0
H1274 H 0.19971 0.51222 0.04846 0.0
H1275 H 0.20414 0.49876 0.06419 0.0
H1276 H 0.24582 0.49617 0.10897 0.0
H1277 H 0.2455 0.44626 0.12814 0.0
H1278 H 0.23307 0.42476 0.11567 0.0
H1279 H 0.23257 0.47421 0.09639 0.0
H1280 H 0.26426 0.02474 0.25017 0.0
H1281 H 0.31283 0.98398 0.25798 0.0
H1282 H 0.29772 0.98055 0.27362 0.0
H1283 H 0.27022 0.98847 0.28498 0.0
H1284 H 0.22116 0.02833 0.27685 0.0
H1285 H 0.23636 0.03174 0.26124 0.0
C1286 C 0.27145 1.0148 0.25519 0.0
C1287 C 0.28967 1.00451 0.25275 0.0
C1288 C 0.26236 1.01243 0.2641 0.0
C1289 C 0.29899 0.99228 0.25959 0.0
C1290 C 0.29021 0.99014 0.26853 0.0
C1291 C 0.26286 0.99796 0.27981 0.0
C1292 C 0.24456 1.00821 0.28217 0.0
C1293 C 0.27183 1.00005 0.27085 0.0
C1294 C 0.23508 0.0201 0.27527 0.0
C1295 C 0.2439 0.02222 0.26635 0.0
H1296 H 0.31637 0.05048 0.50911 0.0
H1297 H 0.37033 0.02344 0.49697 0.0
H1298 H 0.37404 1.00181 0.51071 0.0
H1299 H 0.36157 0.9902 0.52602 0.0
H1300 H 0.30557 1.01503 0.53748 0.0
H1301 H 0.30325 0.03805 0.52431 0.0
C1302 C 0.32911 0.04008 0.50959 0.0
C1303 C 0.34326 0.03873 0.50214 0.0
C1304 C 0.33077 0.02727 0.51739 0.0
C1305 C 0.35942 0.02485 0.50269 0.0
C1306 C 0.36148 1.01245 0.51052 0.0
C1307 C 0.34873 1.0005 0.52562 0.0
C1308 C 0.33392 1.00092 0.53285 0.0
C1309 C 0.34714 1.01339 0.51787 0.0
C1310 C 0.31754 1.01461 0.53219 0.0
C1311 C 0.31607 0.02773 0.5246 0.0
H1312 H 0.27137 0.04371 0.75001 0.0
H1313 H 0.22094 1.00581 0.75836 0.0
H1314 H 0.23577 1.00273 0.77407 0.0
H1315 H 0.26377 1.00931 0.78516 0.0
H1316 H 0.31382 0.04802 0.77708 0.0
H1317 H 0.29899 0.05121 0.76135 0.0
C1318 C 0.26364 0.0347 0.75525 0.0
C1319 C 0.24508 0.0249 0.75293 0.0
C1320 C 0.27241 0.03275 0.76426 0.0
C1321 C 0.23509 1.01368 0.75991 0.0
C1322 C 0.24369 1.01173 0.76889 0.0
C1323 C 0.27135 0.01877 0.78005 0.0
C1324 C 0.28989 0.02855 0.78244 0.0
C1325 C 0.26245 0.02102 0.7711 0.0
C1326 C 0.2997 0.04012 0.77551 0.0
C1327 C 0.29109 0.04214 0.76652 0.0
H1328 H 0.20557 0.05575 0.0239 0.0
H1329 H 0.18168 1.00828 0.04114 0.0
H1330 H 0.18074 0.98623 0.02753 0.0
H1331 H 0.1876 0.98004 1.01086 0.0
H1332 H 0.21006 0.02901 0.99374 0.0
H1333 H 0.21012 0.05013 1.00705 0.0
C1334 C 0.19982 0.0407 0.02469 0.0
C1335 C 0.19404 0.03378 0.03365 0.0
C1336 C 0.19908 0.028 1.01678 0.0
C1337 C 0.18677 1.01406 0.03442 0.0
C1338 C 0.1861 1.00137 0.0266 0.0
C1339 C 0.19256 0.99521 1.00982 0.0
C1340 C 0.19908 1.00192 1.00083 0.0
C1341 C 0.19249 1.00809 0.01772 0.0
C1342 C 0.20509 0.0222 1.00018 0.0
C1343 C 0.20515 0.03485 1.00796 0.0
H1344 H 0.73206 0.03793 0.77616 0.0
H1345 H 0.7736 0.99712 0.78991 0.0
H1346 H 0.79468 0.99518 0.77577 0.0
H1347 H 0.80163 1.00507 0.75947 0.0
H1348 H 0.76085 0.04673 0.74577 0.0
H1349 H 0.73925 0.04809 0.75975 0.0
C1350 C 0.74563 0.02851 0.77601 0.0
C1351 C 0.75134 0.01784 0.78412 0.0
C1352 C 0.75794 0.0276 0.76784 0.0
C1353 C 0.76902 1.00572 0.78381 0.0
C1354 C 0.7811 1.00457 0.77572 0.0
C1355 C 0.78822 1.0147 0.75958 0.0
C1356 C 0.78294 0.02565 0.75149 0.0
C1357 C 0.77587 1.01559 0.76771 0.0
C1358 C 0.76523 0.03783 0.75179 0.0
C1359 C 0.75284 0.0387 0.75982 0.0
H1360 H 0.71419 0.97683 0.52355 0.0
H1361 H 0.68096 0.01852 0.54099 0.0
H1362 H 0.67804 0.04149 0.52785 0.0
H1363 H 0.6858 0.05044 0.51159 0.0
H1364 H 0.71967 1.00937 0.49409 0.0
H1365 H 0.72056 0.98526 0.5069 0.0
C1366 C 0.70598 0.99076 0.52444 0.0
C1367 C 0.6981 0.99596 0.53334 0.0
C1368 C 0.7043 1.00405 0.5168 0.0
C1369 C 0.6876 1.01421 0.53431 0.0
C1370 C 0.68581 0.02738 0.52677 0.0
C1371 C 0.69353 0.03629 0.51057 0.0
C1372 C 0.70276 0.03189 0.50187 0.0
C1373 C 0.69439 0.02261 0.51803 0.0
C1374 C 0.71223 1.01319 0.50066 0.0
C1375 C 0.7129 0.99939 0.50802 0.0
H1376 H 0.77772 0.03772 0.28186 0.0
H1377 H 0.79781 0.97663 0.28106 0.0
H1378 H 0.77932 0.97164 0.26616 0.0
H1379 H 0.75739 0.985 0.25327 0.0
H1380 H 0.73712 0.04603 0.25446 0.0
H1381 H 0.75576 0.05083 0.26925 0.0
C1382 C 0.77811 0.02335 0.27838 0.0
C1383 C 0.78917 1.00759 0.28249 0.0
C1384 C 0.76733 0.02061 0.26991 0.0
C1385 C 0.78966 0.98905 0.27793 0.0
C1386 C 0.77895 0.98617 0.26947 0.0
C1387 C 0.75689 0.99922 0.25688 0.0
C1388 C 0.74569 1.01509 0.2529 0.0
C1389 C 0.76767 1.00184 0.2654 0.0
C1390 C 0.74528 0.03354 0.25752 0.0
C1391 C 0.75607 0.03631 0.26592 0.0
H1392 H 0.8357 0.05585 0.02234 0.0
H1393 H 0.83352 1.00706 0.04215 0.0
H1394 H 0.83263 0.98342 0.02931 0.0
H1395 H 0.83133 0.97626 1.01235 0.0
H1396 H 0.84038 0.02462 0.99275 0.0
H1397 H 0.84009 0.04836 1.00559 0.0
C1398 C 0.83549 0.04009 0.02394 0.0
C1399 C 0.83393 0.03362 0.03335 0.0
C1400 C 0.83613 0.02625 1.01649 0.0
C1401 C 0.83367 1.0129 0.03506 0.0
C1402 C 0.83347 0.99916 0.02768 0.0
C1403 C 0.83367 0.9919 1.01085 0.0
C1404 C 0.83512 0.99846 1.00145 0.0
C1405 C 0.83446 1.00565 0.01835 0.0
C1406 C 0.83822 0.01896 0.99981 0.0
C1407 C 0.8383 0.03268 1.00719 0.0
H1408 H 0.76206 0.48914 0.78237 0.0
H1409 H 0.73339 0.43143 0.77989 0.0
H1410 H 0.74984 0.42669 0.76456 0.0
H1411 H 0.77272 0.43908 0.75175 0.0
H1412 H 0.80311 0.49561 0.75511 0.0
H1413 H 0.7861 0.50043 0.7703 0.0
C1414 C 0.75956 0.47534 0.77859 0.0
C1415 C 0.74645 0.46066 0.78242 0.0
C1416 C 0.7696 0.47243 0.76993 0.0
C1417 C 0.74308 0.44318 0.77716 0.0
C1418 C 0.75269 0.44035 0.7684 0.0
C1419 C 0.7758 0.45228 0.75591 0.0
C1420 C 0.78933 0.4669 0.75238 0.0
C1421 C 0.76606 0.45485 0.76472 0.0
C1422 C 0.79306 0.48403 0.75776 0.0
C1423 C 0.7832 0.48685 0.7664 0.0
H1424 H 0.82166 0.51564 1.00075 0.0
H1425 H 0.86974 0.55779 1.00734 0.0
H1426 H 0.87392 0.54247 0.02284 0.0
H1427 H 0.86409 0.51668 0.03452 0.0
H1428 H 0.81753 0.47357 0.02718 0.0
H1429 H 0.81345 0.4891 1.01179 0.0
C1430 C 0.83342 0.52135 1.00544 0.0
C1431 C 0.84547 0.53786 1.00271 0.0
C1432 C 0.83624 0.51206 1.01421 0.0
C1433 C 0.86002 0.5453 1.00918 0.0
C1434 C 0.86258 0.53639 0.01804 0.0
C1435 C 0.85312 0.51064 0.02953 0.0
C1436 C 0.84112 0.49392 0.03205 0.0
C1437 C 0.85081 0.5197 0.02063 0.0
C1438 C 0.82715 0.4862 0.02543 0.0
C1439 C 0.82465 0.49522 1.01665 0.0
H1440 H 0.76762 0.59035 0.2837 0.0
H1441 H 0.81012 0.54283 0.27734 0.0
H1442 H 0.79382 0.53821 0.26201 0.0
H1443 H 0.76711 0.54682 0.25064 0.0
H1444 H 0.72607 0.59607 0.2562 0.0
H1445 H 0.7416 0.60022 0.27176 0.0
C1446 C 0.77339 0.57907 0.27892 0.0
C1447 C 0.7902 0.56701 0.28169 0.0
C1448 C 0.76398 0.57656 0.27004 0.0
C1449 C 0.79749 0.55253 0.27538 0.0
C1450 C 0.78803 0.54974 0.26663 0.0
C1451 C 0.76171 0.55878 0.25512 0.0
C1452 C 0.74545 0.57122 0.25206 0.0
C1453 C 0.77123 0.5616 0.26391 0.0
C1454 C 0.73834 0.58606 0.25827 0.0
C1455 C 0.74739 0.5886 0.26717 0.0
H1456 H 0.71619 0.51447 0.50175 0.0
H1457 H 0.66175 0.47896 0.50643 0.0
H1458 H 0.65718 0.49466 0.52182 0.0
H1459 H 0.66866 0.51888 0.53401 0.0
H1460 H 0.72136 0.55602 0.52839 0.0
H1461 H 0.72607 0.53981 0.51316 0.0
C1462 C 0.70303 0.51033 0.506 0.0
C1463 C 0.68928 0.49554 0.50278 0.0
C1464 C 0.70005 0.51992 0.51468 0.0
C1465 C 0.6728 0.49005 0.50867 0.0
C1466 C 0.67004 0.4992 0.51747 0.0
C1467 C 0.68103 0.52352 0.52938 0.0
C1468 C 0.69462 0.53871 0.53232 0.0
C1469 C 0.68354 0.51422 0.52054 0.0
C1470 C 0.71055 0.5446 0.52626 0.0
C1471 C 0.71335 0.5352 0.51758 0.0
H1472 H 0.26355 0.54733 0.24981 0.0
H1473 H 0.31355 0.58559 0.25839 0.0
H1474 H 0.2979 0.58908 0.27395 0.0
H1475 H 0.26982 0.58147 0.28512 0.0
H1476 H 0.21987 0.54341 0.27622 0.0
H1477 H 0.23515 0.54075 0.26064 0.0
C1478 C 0.27096 0.55676 0.25498 0.0
C1479 C 0.28977 0.56626 0.25278 0.0
C1480 C 0.26168 0.55904 0.26386 0.0
C1481 C 0.29926 0.57787 0.25981 0.0
C1482 C 0.29019 0.58004 0.26871 0.0
C1483 C 0.26227 0.5725 0.2798 0.0
C1484 C 0.24364 0.56258 0.28198 0.0
C1485 C 0.27138 0.57068 0.27083 0.0
C1486 C 0.23399 0.55145 0.27484 0.0
C1487 C 0.24287 0.54971 0.26591 0.0
H1488 H 0.21325 0.51316 0.99979 0.0
H1489 H 0.17458 0.56155 1.00916 0.0
H1490 H 0.17084 0.54543 0.02451 0.0
H1491 H 0.1786 0.51749 0.03528 0.0
H1492 H 0.2173 0.46933 0.0256 0.0
H1493 H 0.21987 0.48497 1.01021 0.0
C1494 C 0.20366 0.52012 1.0051 0.0
C1495 C 0.19411 0.53858 1.0032 0.0
C1496 C 0.20131 0.51062 1.01385 0.0
C1497 C 0.18231 0.54749 1.01037 0.0
C1498 C 0.18002 0.53817 0.01914 0.0
C1499 C 0.18767 0.5104 0.02983 0.0
C1500 C 0.19783 0.49218 0.03172 0.0
C1501 C 0.18948 0.51973 0.02097 0.0
C1502 C 0.20908 0.48313 0.02442 0.0
C1503 C 0.21078 0.49221 1.01561 0.0
H1504 H 0.27129 0.45416 0.74924 0.0
H1505 H 0.21746 0.48566 0.75913 0.0
H1506 H 0.23251 0.48777 0.7748 0.0
H1507 H 0.26168 0.48287 0.78545 0.0
H1508 H 0.31561 0.45123 0.7758 0.0
H1509 H 0.30019 0.4481 0.76018 0.0
C1510 C 0.26283 0.46162 0.75478 0.0
C1511 C 0.24319 0.46988 0.75285 0.0
C1512 C 0.27179 0.46318 0.76381 0.0
C1513 C 0.23241 0.47895 0.7603 0.0
C1514 C 0.24114 0.48038 0.76929 0.0
C1515 C 0.27003 0.47491 0.78003 0.0
C1516 C 0.28988 0.46721 0.78196 0.0
C1517 C 0.26092 0.47282 0.77109 0.0
C1518 C 0.30049 0.45756 0.77462 0.0
C1519 C 0.29157 0.45558 0.76566 0.0
H1520 H 0.36646 0.49995 0.50497 0.0
H1521 H 0.30058 0.49634 0.50184 0.0
H1522 H 0.29579 0.51558 0.51627 0.0
H1523 H 0.31018 0.53344 0.52985 0.0
H1524 H 0.37588 0.5379 0.53318 0.0
H1525 H 0.38105 0.51846 0.51871 0.0
C1526 C 0.35112 0.5032 0.50756 0.0
C1527 C 0.33384 0.49647 0.50246 0.0
C1528 C 0.34849 0.5146 0.51585 0.0
C1529 C 0.31404 0.50107 0.50576 0.0
C1530 C 0.31131 0.51219 0.51396 0.0
C1531 C 0.32561 0.53034 0.52731 0.0
C1532 C 0.34262 0.53728 0.53247 0.0
C1533 C 0.32838 0.51911 0.51905 0.0
C1534 C 0.36257 0.53301 0.52921 0.0
C1535 C 0.36549 0.52175 0.52099 0.0
H1536 H 0.26691 0.04781 0.41267 0.0
H1537 H 0.30137 0.09104 0.39668 0.0
H1538 H 0.28503 0.07975 0.38224 0.0
H1539 H 0.25888 0.05937 0.3742 0.0
H1540 H 0.22619 1.01454 0.38995 0.0
H1541 H 0.24407 0.02447 0.40427 0.0
C1542 C 0.2712 0.05449 0.40602 0.0
C1543 C 0.28502 0.07064 0.40587 0.0
C1544 C 0.26192 0.04772 0.39762 0.0
C1545 C 0.29031 0.07902 0.39711 0.0
C1546 C 0.28106 0.07249 0.38879 0.0
C1547 C 0.25596 0.05148 0.38071 0.0
C1548 C 0.24082 0.0365 0.38098 0.0
C1549 C 0.26648 0.05714 0.38897 0.0
C1550 C 0.23731 0.02652 0.38954 0.0
C1551 C 0.24762 0.03211 0.39776 0.0
H1552 H 0.29592 0.98704 0.63073 0.0
H1553 H 0.2553 0.93741 0.6255 0.0
H1554 H 0.23465 0.94632 0.63911 0.0
H1555 H 0.22805 0.9677 0.6525 0.0
H1556 H 0.26696 0.01842 0.65786 0.0
H1557 H 0.28866 1.00934 0.64437 0.0
C1558 C 0.28247 0.97832 0.63256 0.0
C1559 C 0.2773 0.96145 0.62717 0.0
C1560 C 0.27051 0.98356 0.64048 0.0
C1561 C 0.25984 0.95024 0.62963 0.0
C1562 C 0.24797 0.95534 0.6374 0.0
C1563 C 0.24118 0.97692 0.65069 0.0
C1564 C 0.24572 0.99383 0.65612 0.0
C1565 C 0.25321 0.97186 0.64288 0.0
C1566 C 0.26316 1.00525 0.65382 0.0
C1567 C 0.27546 1.00016 0.64606 0.0
H1568 H 0.2376 0.95746 0.89811 0.0
H1569 H 0.27699 0.98463 0.91896 0.0
H1570 H 0.29724 1.00014 0.90651 0.0
H1571 H 0.30515 1.00437 0.88977 0.0
H1572 H 0.26796 0.97441 0.86894 0.0
H1573 H 0.24549 0.96174 0.88133 0.0
C1574 C 0.25067 0.96668 0.89997 0.0
C1575 C 0.25571 0.96969 0.90954 0.0
C1576 C 0.26271 0.97508 0.89276 0.0
C1577 C 0.27245 0.98217 0.91172 0.0
C1578 C 0.28421 0.99093 0.90459 0.0
C1579 C 0.29222 0.99496 0.8879 0.0
C1580 C 0.28847 0.9903 0.87837 0.0
C1581 C 0.27969 0.98721 0.89509 0.0
C1582 C 0.27122 0.9785 0.87616 0.0
C1583 C 0.25842 0.97108 0.88326 0.0
H1584 H 0.27426 0.08713 0.12886 0.0
H1585 H 0.23202 0.03799 0.12617 0.0
H1586 H 0.24765 0.02204 0.14002 0.0
H1587 H 0.27376 0.02245 0.15307 0.0
H1588 H 0.31418 0.07314 0.15553 0.0
H1589 H 0.29825 0.08844 0.14184 0.0
C1590 C 0.26818 0.07305 0.13135 0.0
C1591 C 0.25178 0.06396 0.12652 0.0
C1592 C 0.27681 0.06434 0.13938 0.0
C1593 C 0.24469 0.04534 0.1297 0.0
C1594 C 0.25351 0.03631 0.13768 0.0
C1595 C 0.27878 0.03696 0.15066 0.0
C1596 C 0.29525 0.04661 0.15527 0.0
C1597 C 0.26955 0.04575 0.14264 0.0
C1598 C 0.30169 0.06537 0.15205 0.0
C1599 C 0.29264 0.0741 0.14421 0.0
H1600 H 0.7662 0.93813 0.63306 0.0
H1601 H 0.75634 0.99577 0.6204 0.0
H1602 H 0.77209 1.01174 0.63413 0.0
H1603 H 0.7888 1.00914 0.64984 0.0
H1604 H 0.79538 0.95144 0.66274 0.0
H1605 H 0.77996 0.93568 0.64892 0.0
C1606 C 0.76696 0.95423 0.63333 0.0
C1607 C 0.75974 0.96565 0.62568 0.0
C1608 C 0.77524 0.96332 0.64136 0.0
C1609 C 0.76183 0.98649 0.6261 0.0
C1610 C 0.77067 0.99567 0.634 0.0
C1611 C 0.78642 0.99316 0.64966 0.0
C1612 C 0.79295 0.98143 0.65732 0.0
C1613 C 0.77735 0.98422 0.6417 0.0
C1614 C 0.79008 0.96075 0.65701 0.0
C1615 C 0.78149 0.95175 0.64907 0.0
H1616 H 0.74283 0.05224 0.40333 0.0
H1617 H 0.7894 0.09373 0.4124 0.0
H1618 H 0.81013 0.08613 0.39855 0.0
H1619 H 0.81477 0.06843 0.38385 0.0
H1620 H 0.76925 0.02614 0.37446 0.0
H1621 H 0.7479 0.03383 0.38825 0.0
C1622 C 0.75763 0.05937 0.40226 0.0
C1623 C 0.76476 0.07341 0.40883 0.0
C1624 C 0.76939 0.05509 0.39417 0.0
C1625 C 0.78376 0.08285 0.40739 0.0
C1626 C 0.79553 0.07858 0.39948 0.0
C1627 C 0.80028 0.06069 0.38484 0.0
C1628 C 0.79379 0.04652 0.3782 0.0
C1629 C 0.78844 0.06485 0.39281 0.0
C1630 C 0.77461 0.03716 0.37946 0.0
C1631 C 0.7625 0.04142 0.38738 0.0
H1632 H 0.7499 0.08386 0.12478 0.0
H1633 H 0.80529 0.04992 0.12925 0.0
H1634 H 0.79122 0.03691 0.14411 0.0
H1635 H 0.76263 0.03551 0.15592 0.0
H1636 H 0.7077 0.07009 0.15085 0.0
H1637 H 0.72214 0.08269 0.13624 0.0
C1638 C 0.7588 0.07344 0.12897 0.0
C1639 C 0.77848 0.06771 0.12591 0.0
C1640 C 0.75072 0.0663 0.13746 0.0
C1641 C 0.78993 0.05426 0.13139 0.0
C1642 C 0.78196 0.04702 0.13993 0.0
C1643 C 0.754 0.04594 0.15164 0.0
C1644 C 0.73403 0.05175 0.15444 0.0
C1645 C 0.76236 0.05303 0.14308 0.0
C1646 C 0.72298 0.06525 0.14881 0.0
C1647 C 0.7312 0.07244 0.14044 0.0
H1648 H 0.79377 0.95713 0.89929 0.0
H1649 H 0.74858 0.97975 0.91886 0.0
H1650 H 0.72866 0.9934 0.90581 0.0
H1651 H 0.72271 0.99685 0.88889 0.0
H1652 H 0.76573 0.97096 0.86924 0.0
H1653 H 0.7879 0.9608 0.88229 0.0
C1654 C 0.77954 0.965 0.90074 0.0
C1655 C 0.77273 0.96724 0.91012 0.0
C1656 C 0.76771 0.97219 0.89317 0.0
C1657 C 0.75446 0.97796 0.91178 0.0
C1658 C 0.74291 0.98561 0.9043 0.0
C1659 C 0.73685 0.98885 0.88743 0.0
C1660 C 0.7423 0.98448 0.87804 0.0
C1661 C 0.74918 0.98247 0.89497 0.0
C1662 C 0.7611 0.97467 0.87634 0.0
C1663 C 0.77373 0.96871 0.88382 0.0
H1664 H 0.77015 0.49984 0.88067 0.0
H1665 H 0.71703 0.53846 0.88178 0.0
H1666 H 0.73158 0.55608 0.89512 0.0
H1667 H 0.7587 0.56057 0.90664 0.0
H1668 H 0.81301 0.52372 0.90578 0.0
H1669 H 0.79859 0.50515 0.8924 0.0
C1670 C 0.76194 0.51224 0.88379 0.0
C1671 C 0.74235 0.51764 0.88026 0.0
C1672 C 0.77047 0.52249 0.89159 0.0
C1673 C 0.73192 0.53376 0.88441 0.0
C1674 C 0.74023 0.54388 0.89206 0.0
C1675 C 0.76752 0.54856 0.9035 0.0
C1676 C 0.787 0.54373 0.90717 0.0
C1677 C 0.75935 0.53831 0.89575 0.0
C1678 C 0.79791 0.52773 0.90314 0.0
C1679 C 0.78973 0.51722 0.89543 0.0
H1680 H 0.80456 0.50151 0.13347 0.0
H1681 H 0.75182 0.47033 0.12244 0.0
H1682 H 0.73024 0.48392 0.13493 0.0
H1683 H 0.72655 0.50294 0.14932 0.0
H1684 H 0.77818 0.53566 0.16053 0.0
H1685 H 0.80013 0.52268 0.14788 0.0
C1686 C 0.78827 0.49806 0.13375 0.0
C1687 C 0.7797 0.48504 0.127 0.0
C1688 C 0.77587 0.50583 0.14108 0.0
C1689 C 0.75866 0.48041 0.1275 0.0
C1690 C 0.74636 0.48807 0.13468 0.0
C1691 C 0.74249 0.50766 0.14896 0.0
C1692 C 0.75047 0.52056 0.15588 0.0
C1693 C 0.75483 0.50055 0.14157 0.0
C1694 C 0.77149 0.5257 0.15538 0.0
C1695 C 0.78404 0.5184 0.14808 0.0
H1696 H 0.77582 0.471 0.40653 0.0
H1697 H 0.72305 0.50995 0.40695 0.0
H1698 H 0.73734 0.52882 0.39366 0.0
H1699 H 0.76502 0.53364 0.38157 0.0
H1700 H 0.81636 0.49274 0.38128 0.0
H1701 H 0.80219 0.47507 0.39466 0.0
C1702 C 0.76727 0.48351 0.40369 0.0
C1703 C 0.74826 0.48885 0.40769 0.0
C1704 C 0.7753 0.4939 0.39597 0.0
C1705 C 0.73778 0.50552 0.40405 0.0
C1706 C 0.74587 0.5162 0.39638 0.0
C1707 C 0.77292 0.52074 0.38439 0.0
C1708 C 0.7919 0.5147 0.38045 0.0
C1709 C 0.76458 0.5104 0.3922 0.0
C1710 C 0.80195 0.49795 0.38423 0.0
C1711 C 0.79386 0.48778 0.3919 0.0
H1712 H 0.77829 0.55762 0.62706 0.0
H1713 H 0.72031 0.5279 0.63124 0.0
H1714 H 0.73472 0.51 0.64485 0.0
H1715 H 0.76433 0.50316 0.65575 0.0
H1716 H 0.82169 0.53407 0.65108 0.0
H1717 H 0.80702 0.55111 0.6376 0.0
C1718 C 0.76881 0.54716 0.63093 0.0
C1719 C 0.74828 0.54412 0.62815 0.0
C1720 C 0.77712 0.53715 0.63873 0.0
C1721 C 0.73624 0.53036 0.63318 0.0
C1722 C 0.74445 0.52026 0.64101 0.0
C1723 C 0.7735 0.51374 0.65181 0.0
C1724 C 0.79424 0.51709 0.6544 0.0
C1725 C 0.7649 0.52363 0.64391 0.0
C1726 C 0.80586 0.53089 0.64919 0.0
C1727 C 0.79748 0.54072 0.64146 0.0
H1728 H 0.27649 0.4619 0.13211 0.0
H1729 H 0.23868 0.51214 0.12443 0.0
H1730 H 0.25265 0.53111 0.13775 0.0
H1731 H 0.27596 0.5332 0.1518 0.0
H1732 H 0.3124 0.48191 0.15925 0.0
H1733 H 0.29804 0.46334 0.14604 0.0
C1734 C 0.27097 0.4769 0.13339 0.0
C1735 C 0.25628 0.48538 0.12729 0.0
C1736 C 0.27867 0.48747 0.14115 0.0
C1737 C 0.25001 0.50516 0.12894 0.0
C1738 C 0.25787 0.51597 0.13663 0.0
C1739 C 0.28038 0.51785 0.15059 0.0
C1740 C 0.29505 0.5088 0.15654 0.0
C1741 C 0.27215 0.50723 0.14284 0.0
C1742 C 0.30099 0.48905 0.15482 0.0
C1743 C 0.2929 0.47849 0.14723 0.0
H1744 H 0.27167 0.53201 0.91252 0.0
H1745 H 0.23773 0.57439 0.89574 0.0
H1746 H 0.25249 0.56056 0.88146 0.0
H1747 H 0.27728 0.53819 0.87367 0.0
H1748 H 0.30863 0.49365 0.89024 0.0
H1749 H 0.29257 0.50641 0.90447 0.0
C1750 C 0.26716 0.53801 0.90574 0.0
C1751 C 0.25402 0.55472 0.90533 0.0
C1752 C 0.27546 0.5297 0.89743 0.0
C1753 C 0.24839 0.56207 0.8964 0.0
C1754 C 0.25672 0.55405 0.88816 0.0
C1755 C 0.28032 0.53097 0.88034 0.0
C1756 C 0.29474 0.51528 0.88081 0.0
C1757 C 0.27067 0.53816 0.88858 0.0
C1758 C 0.29826 0.50621 0.88961 0.0
C1759 C 0.28893 0.51341 0.8978 0.0
H1760 H 0.22034 0.53233 0.64837 0.0
H1761 H 0.27419 0.50831 0.66213 0.0
H1762 H 0.29585 0.52095 0.64936 0.0
H1763 H 0.29945 0.53928 0.63415 0.0
H1764 H 0.24481 0.56057 0.62018 0.0
H1765 H 0.22344 0.54792 0.633 0.0
C1766 C 0.23675 0.52938 0.64855 0.0
C1767 C 0.24541 0.51912 0.65627 0.0
C1768 C 0.249 0.53609 0.64105 0.0
C1769 C 0.26693 0.51629 0.65641 0.0
C1770 C 0.27936 0.52337 0.64904 0.0
C1771 C 0.28283 0.54077 0.63388 0.0
C1772 C 0.27362 0.55064 0.6262 0.0
C1773 C 0.27056 0.53329 0.6413 0.0
C1774 C 0.25214 0.55275 0.62595 0.0
C1775 C 0.23996 0.54567 0.63331 0.0
H1776 H 0.29825 0.48135 0.3984 0.0
H1777 H 0.24864 0.48959 0.41821 0.0
H1778 H 0.22812 0.50596 0.40612 0.0
H1779 H 0.22407 0.51736 0.39024 0.0
H1780 H 0.27209 0.50629 0.36968 0.0
H1781 H 0.29358 0.49269 0.38195 0.0
C1782 C 0.28296 0.4868 0.40008 0.0
C1783 C 0.27511 0.4843 0.40927 0.0
C1784 C 0.27096 0.49594 0.393 0.0
C1785 C 0.25532 0.49162 0.4113 0.0
C1786 C 0.24348 0.50086 0.40435 0.0
C1787 C 0.23884 0.51163 0.3881 0.0
C1788 C 0.24554 0.51282 0.37861 0.0
C1789 C 0.25107 0.50294 0.39516 0.0
C1790 C 0.26572 0.50593 0.37667 0.0
C1791 C 0.27827 0.49786 0.38377 0.0
H1792 H 0.05208 0.02321 0.3412 0.0
H1793 H 0.05611 0.98021 0.31871 0.0
H1794 H 0.01881 0.97801 0.31802 0.0
H1795 H 0.98513 0.98962 0.32291 0.0
H1796 H 0.97963 0.03352 0.34489 0.0
H1797 H 1.01716 0.03329 0.34699 0.0
C1798 C 0.04475 1.01313 0.33628 0.0
C1799 C 0.05697 1.00216 0.32989 0.0
C1800 C 0.02298 1.01201 0.33584 0.0
C1801 C 0.04717 0.98912 0.32357 0.0
C1802 C 0.02578 0.98778 0.32319 0.0
C1803 C 0.99205 0.9993 0.32813 0.0
C1804 C 0.97946 1.01193 0.33355 0.0
C1805 C 1.01356 0.99948 0.32911 0.0
C1806 C 0.98883 0.0237 0.34055 0.0
C1807 C 1.01036 0.02368 0.34171 0.0
H1808 H 0.36589 0.79211 0.57572 0.0
H1809 H 0.30647 0.80011 0.58872 0.0
H1810 H 0.30207 0.76396 0.58959 0.0
H1811 H 0.31408 0.72993 0.58549 0.0
H1812 H 0.37373 0.72285 0.57247 0.0
H1813 H 0.37862 0.75867 0.5725 0.0
C1814 C 0.35193 0.786 0.57874 0.0
C1815 C 0.33648 0.7989 0.58208 0.0
C1816 C 0.34935 0.76526 0.57907 0.0
C1817 C 0.31872 0.7906 0.58616 0.0
C1818 C 0.31611 0.76989 0.58658 0.0
C1819 C 0.32829 0.73618 0.58281 0.0
C1820 C 0.34331 0.72352 0.57882 0.0
C1821 C 0.3312 0.75703 0.58292 0.0
C1822 C 0.36161 0.73208 0.57536 0.0
C1823 C 0.36454 0.75264 0.57543 0.0
H1824 H 0.4823 1.01045 0.84139 0.0
H1825 H 0.47839 0.05275 0.81861 0.0
H1826 H 0.5157 0.05487 0.81795 0.0
H1827 H 0.54933 0.04341 0.82299 0.0
H1828 H 0.55468 1.00011 0.84523 0.0
H1829 H 0.51714 1.00044 0.84727 0.0
C1830 C 0.48966 0.02037 0.83641 0.0
C1831 C 0.47749 0.03117 0.82994 0.0
C1832 C 0.51142 0.02142 0.83599 0.0
C1833 C 0.48732 0.04398 0.82354 0.0
C1834 C 0.50869 0.04527 0.82317 0.0
C1835 C 0.54237 0.03388 0.82825 0.0
C1836 C 0.5549 0.02139 0.83377 0.0
C1837 C 0.52088 0.03374 0.82919 0.0
C1838 C 0.5455 1.00981 0.84082 0.0
C1839 C 0.52398 1.00989 0.84194 0.0
H1840 H 0.17244 0.23986 0.07131 0.0
H1841 H 0.2212 0.23082 0.09148 0.0
H1842 H 0.22469 0.26692 0.09338 0.0
H1843 H 0.21614 0.3014 0.08802 0.0
H1844 H 0.16716 0.30918 0.06777 0.0
H1845 H 0.16223 0.27347 0.06697 0.0
C1846 C 0.18398 0.24568 0.07609 0.0
C1847 C 0.19681 0.23242 0.08107 0.0
C1848 C 0.1862 0.26643 0.07701 0.0
C1849 C 0.21108 0.24049 0.0875 0.0
C1850 C 0.21322 0.26122 0.08854 0.0
C1851 C 0.20418 0.29532 0.08355 0.0
C1852 C 0.19246 0.30822 0.07777 0.0
C1853 C 0.20118 0.27441 0.08315 0.0
C1854 C 0.17695 0.29983 0.07207 0.0
C1855 C 0.17395 0.2793 0.07165 0.0
H1856 H 0.98761 0.03737 0.69239 0.0
H1857 H 0.98283 0.99956 0.7168 0.0
H1858 H 0.02016 0.99776 0.71796 0.0
H1859 H 0.05399 1.00795 0.71267 0.0
H1860 H 0.06028 0.047 0.68881 0.0
H1861 H 0.02273 0.04682 0.68661 0.0
C1862 C 0.99483 0.02849 0.69783 0.0
C1863 C 0.98246 0.01863 0.70452 0.0
C1864 C 1.01657 0.02774 0.69857 0.0
C1865 C 0.99201 1.00732 0.7116 0.0
C1866 C 1.01336 1.00629 0.71228 0.0
C1867 C 0.04721 0.01655 0.70701 0.0
C1868 C 0.05997 0.02771 0.70102 0.0
C1869 C 0.02576 0.01668 0.70592 0.0
C1870 C 0.05086 0.03825 0.69354 0.0
C1871 C 0.02936 0.03824 0.69231 0.0
H1872 H 0.18351 0.79358 0.94486 0.0
H1873 H 0.21147 0.79946 0.97228 0.0
H1874 H 0.2157 0.76364 0.9733 0.0
H1875 H 0.21102 0.73061 0.96681 0.0
H1876 H 0.18246 0.72298 0.93969 0.0
H1877 H 0.17949 0.75929 0.93802 0.0
C1878 C 0.19069 0.78697 0.951 0.0
C1879 C 0.19691 0.79929 0.95855 0.0
C1880 C 0.19307 0.766 0.95159 0.0
C1881 C 0.20619 0.79042 0.96644 0.0
C1882 C 0.20872 0.76988 0.96703 0.0
C1883 C 0.20397 0.73679 0.96054 0.0
C1884 C 0.19674 0.72394 0.95346 0.0
C1885 C 0.20204 0.75753 0.95972 0.0
C1886 C 0.18823 0.73242 0.94527 0.0
C1887 C 0.18641 0.75323 0.94434 0.0
H1888 H 0.48395 1.01336 0.21612 0.0
H1889 H 0.47708 1.00205 0.18641 0.0
H1890 H 0.51457 1.00385 0.18448 0.0
H1891 H 0.5499 1.00663 0.19159 0.0
H1892 H 0.55501 1.01531 0.22158 0.0
H1893 H 0.51777 1.01566 0.22304 0.0
C1894 C 0.49046 1.01081 0.20921 0.0
C1895 C 0.4774 1.00714 0.20149 0.0
C1896 C 0.51195 1.01118 0.20821 0.0
C1897 C 0.48652 1.00491 0.19254 0.0
C1898 C 0.50806 1.0058 0.19144 0.0
C1899 C 0.54279 1.00875 0.19841 0.0
C1900 C 0.55534 1.01075 0.20648 0.0
C1901 C 0.52102 1.00867 0.19926 0.0
C1902 C 0.54583 1.01346 0.21527 0.0
C1903 C 0.52448 1.01374 0.21613 0.0
H1904 H 0.36048 0.30278 0.46304 0.0
H1905 H 0.31139 0.30727 0.44269 0.0
H1906 H 0.31067 0.27093 0.44124 0.0
H1907 H 0.32166 0.23741 0.44708 0.0
H1908 H 0.37033 0.23426 0.46776 0.0
H1909 H 0.37285 0.27028 0.46797 0.0
C1910 C 0.34941 0.29593 0.45833 0.0
C1911 C 0.33569 0.308 0.45317 0.0
C1912 C 0.34871 0.27504 0.45771 0.0
C1913 C 0.32215 0.29857 0.44681 0.0
C1914 C 0.3216 0.27769 0.44603 0.0
C1915 C 0.33303 0.2446 0.45152 0.0
C1916 C 0.34544 0.23293 0.45757 0.0
C1917 C 0.33449 0.26568 0.45163 0.0
C1918 C 0.36015 0.24268 0.46321 0.0
C1919 C 0.36172 0.26338 0.46331 0.0
H1920 H 0.6817 0.24169 0.44541 0.0
H1921 H 0.72152 0.23796 0.46964 0.0
H1922 H 0.72321 0.27412 0.47053 0.0
H1923 H 0.7131 0.30664 0.46474 0.0
H1924 H 0.67172 0.31165 0.44111 0.0
H1925 H 0.67132 0.27526 0.4395 0.0
C1926 C 0.69093 0.2489 0.45078 0.0
C1927 C 0.70156 0.23723 0.45743 0.0
C1928 C 0.69159 0.26989 0.45135 0.0
C1929 C 0.71323 0.24667 0.46445 0.0
C1930 C 0.7142 0.26733 0.46497 0.0
C1931 C 0.70381 0.29985 0.45927 0.0
C1932 C 0.69232 0.31195 0.45312 0.0
C1933 C 0.70333 0.27906 0.45852 0.0
C1934 C 0.68085 0.30277 0.44592 0.0
C1935 C 0.68051 0.28194 0.44503 0.0
H1936 H 0.84559 0.728 0.94297 0.0
H1937 H 0.83545 0.72028 0.97276 0.0
H1938 H 0.83186 0.75596 0.97475 0.0
H1939 H 0.83146 0.78928 0.96831 0.0
H1940 H 0.84249 0.79874 0.93876 0.0
H1941 H 0.84511 0.7626 0.93636 0.0
C1942 C 0.84247 0.73417 0.94987 0.0
C1943 C 0.84108 0.72135 0.95772 0.0
C1944 C 0.84038 0.75503 0.95101 0.0
C1945 C 0.83704 0.72968 0.96661 0.0
C1946 C 0.83483 0.75014 0.96777 0.0
C1947 C 0.8347 0.78356 0.96133 0.0
C1948 C 0.83706 0.79686 0.95377 0.0
C1949 C 0.83657 0.76294 0.96006 0.0
C1950 C 0.84054 0.78894 0.94473 0.0
C1951 C 0.84218 0.76824 0.94337 0.0
H1952 H 0.81248 0.30761 0.08075 0.0
H1953 H 0.87865 0.3117 0.08091 0.0
H1954 H 0.88141 0.2753 0.08106 0.0
H1955 H 0.86495 0.24227 0.08031 0.0
H1956 H 0.79872 0.23807 0.07977 0.0
H1957 H 0.79595 0.27437 0.08057 0.0
C1958 C 0.82744 0.30045 0.081 0.0
C1959 C 0.84535 0.31222 0.08095 0.0
C1960 C 0.82888 0.27949 0.08093 0.0
C1961 C 0.86469 0.30287 0.08105 0.0
C1962 C 0.86626 0.28209 0.08109 0.0
C1963 C 0.84992 0.24932 0.08045 0.0
C1964 C 0.83206 0.23745 0.08005 0.0
C1965 C 0.84846 0.27023 0.0809 0.0
C1966 C 0.81269 0.24682 0.08024 0.0
C1967 C 0.81111 0.2676 0.08064 0.0
H1968 H 0.71231 0.79189 0.58767 0.0
H1969 H 0.67073 0.79534 0.56386 0.0
H1970 H 0.66732 0.75986 0.5638 0.0
H1971 H 0.67559 0.72743 0.57013 0.0
H1972 H 0.71469 0.72232 0.59453 0.0
H1973 H 0.71772 0.75872 0.59522 0.0
C1974 C 0.70223 0.78511 0.58253 0.0
C1975 C 0.69277 0.79699 0.57546 0.0
C1976 C 0.69926 0.76416 0.58277 0.0
C1977 C 0.67952 0.78723 0.56904 0.0
C1978 C 0.67708 0.76665 0.56909 0.0
C1979 C 0.68505 0.73412 0.57556 0.0
C1980 C 0.69543 0.72187 0.58206 0.0
C1981 C 0.68703 0.75495 0.57582 0.0
C1982 C 0.70667 0.73117 0.58932 0.0
C1983 C 0.70857 0.75207 0.58967 0.0
H1984 H 0.5517 0.47547 0.84514 0.0
H1985 H 0.55676 0.44636 0.81812 0.0
H1986 H 0.51978 0.44673 0.81639 0.0
H1987 H 0.48662 0.45749 0.82163 0.0
H1988 H 0.47885 0.48008 0.84992 0.0
H1989 H 0.51616 0.48065 0.85182 0.0
C1990 C 0.54472 0.46892 0.83894 0.0
C1991 C 0.55742 0.46186 0.83155 0.0
C1992 C 0.52289 0.46833 0.8381 0.0
C1993 C 0.54776 0.45298 0.82371 0.0
C1994 C 0.52645 0.45299 0.82273 0.0
C1995 C 0.49246 0.46185 0.82844 0.0
C1996 C 0.479 0.46865 0.83557 0.0
C1997 C 0.51389 0.46103 0.82975 0.0
C1998 C 0.48817 0.47509 0.84409 0.0
C1999 C 0.50976 0.47523 0.84527 0.0
H2000 H 0.04851 0.5829 0.32328 0.0
H2001 H 0.05627 0.54766 0.34855 0.0
H2002 H 0.01928 0.54796 0.35083 0.0
H2003 H 0.98378 0.55532 0.34481 0.0
H2004 H 0.97781 0.58911 0.3191 0.0
H2005 H 1.01488 0.59067 0.31761 0.0
C2006 C 0.04271 0.57457 0.32918 0.0
C2007 C 0.05623 0.56465 0.33546 0.0
C2008 C 0.0212 0.57404 0.33032 0.0
C2009 C 0.04709 0.55537 0.34338 0.0
C2010 C 0.02558 0.55537 0.34471 0.0
C2011 C 0.9906 0.56327 0.33896 0.0
C2012 C 0.9777 0.57166 0.33197 0.0
C2013 C 1.01238 0.56428 0.3381 0.0
C2014 C 0.98705 0.58197 0.32448 0.0
C2015 C 1.00839 0.58304 0.32363 0.0
H2016 H 0.48568 0.58544 0.21021 0.0
H2017 H 0.47907 0.5438 0.18727 0.0
H2018 H 0.51643 0.54364 0.18512 0.0
H2019 H 0.55168 0.55249 0.19098 0.0
H2020 H 0.55682 0.59246 0.21465 0.0
H2021 H 0.51962 0.595 0.21558 0.0
C2022 C 0.49218 0.57588 0.20485 0.0
C2023 C 0.47911 0.56419 0.19913 0.0
C2024 C 0.51374 0.57518 0.20389 0.0
C2025 C 0.48835 0.55296 0.19187 0.0
C2026 C 0.50989 0.55269 0.19068 0.0
C2027 C 0.54465 0.56197 0.19624 0.0
C2028 C 0.55728 0.57195 0.20285 0.0
C2029 C 0.52285 0.56335 0.19681 0.0
C2030 C 0.54771 0.58421 0.2096 0.0
C2031 C 0.52632 0.5858 0.21012 0.0
H2032 H 0.98331 0.47782 0.71241 0.0
H2033 H 0.97666 0.45233 0.68474 0.0
H2034 H 1.01428 0.45243 0.68285 0.0
H2035 H 0.04968 0.45837 0.68958 0.0
H2036 H 0.05447 0.48239 0.71765 0.0
H2037 H 1.01721 0.48367 0.71891 0.0
C2038 C 0.98993 0.47198 0.70598 0.0
C2039 C 0.97689 0.4648 0.69881 0.0
C2040 C 1.01149 0.47169 0.70503 0.0
C2041 C 0.9861 0.45803 0.69042 0.0
C2042 C 1.00771 0.45796 0.68935 0.0
C2043 C 0.0425 0.46405 0.69591 0.0
C2044 C 0.05501 0.47015 0.70355 0.0
C2045 C 0.02066 0.4646 0.69667 0.0
C2046 C 0.04536 0.47739 0.71171 0.0
C2047 C 0.02398 0.47819 0.71244 0.0
loop_
_geom_bond_atom_site_label_1
_geom_bond_atom_site_label_2
_geom_bond_distance
_geom_bond_site_symmetry_2
_ccdc_geom_bond_type
C0 C1 1.264 . S
C0 C5 1.479 . S
C0 C10 1.465 . S
C1 C0 1.264 . S
C1 C3 1.339 . S
C1 H28 0.931 . S
C2 C3 1.395 . S
C2 C4 1.320 . S
C3 C1 1.339 . S
C3 C2 1.395 . S
C3 H29 0.929 . S
C4 C2 1.320 . S
C4 C5 1.405 . S
C4 H30 0.930 . S
C5 C0 1.479 . S
C5 C4 1.405 . S
C5 H31 0.931 . S
U6 O7 2.454 . S
U6 O8 2.458 . S
U6 C9 2.984 . S
U6 C10 2.847 . S
U6 C23 2.882 . S
U6 O24 2.441 . S
U6 O25 2.420 . S
U6 O26 2.455 . S
U6 O27 2.449 . S
O7 U6 2.454 . S
O7 C9 1.353 . S
O8 U6 2.458 . S
O8 C9 1.286 . S
C9 U6 2.984 . S
C9 O7 1.353 . S
C9 O8 1.286 . S
C9 C11 1.363 . S
C10 C0 1.465 . S
C10 U6 2.847 . S
C10 O24 1.249 . S
C10 O25 1.202 . S
C11 C9 1.363 . S
C11 C13 1.408 . S
C11 C16 1.342 . S
C12 C13 1.310 . S
C12 C15 1.461 . S
C12 H32 0.932 . S
C13 C11 1.408 . S
C13 C12 1.310 . S
C13 H33 0.930 . S
C14 C15 1.474 . S
C14 C16 1.285 . S
C14 H34 0.929 . S
C15 C12 1.461 . S
C15 C14 1.474 . S
C16 C11 1.342 . S
C16 C14 1.285 . S
C16 H35 0.930 . S
C17 C20 1.424 . S
C17 C22 1.245 . S
C17 C23 1.428 1_545 S
C18 C21 1.260 . S
C18 C22 1.477 . S
C18 H36 0.932 . S
C19 C20 1.384 . S
C19 C21 1.479 . S
C19 H37 0.929 . S
C20 C17 1.424 . S
C20 C19 1.384 . S
C20 H38 0.928 . S
C21 C18 1.260 . S
C21 C19 1.479 . S
C22 C17 1.245 . S
C22 C18 1.477 . S
C22 H39 0.932 . S
C23 U6 2.882 . S
C23 C17 1.428 1_565 S
C23 O26 1.301 . S
C23 O27 1.282 . S
O24 U6 2.441 . S
O24 C10 1.249 . S
O25 U6 2.420 . S
O25 C10 1.202 . S
O26 U6 2.455 . S
O26 C23 1.301 . S
O27 U6 2.449 . S
O27 C23 1.282 . S
H28 C1 0.931 . S
H29 C3 0.929 . S
H30 C4 0.930 . S
H31 C5 0.931 . S
H32 C12 0.932 . S
H33 C13 0.930 . S
H34 C14 0.929 . S
H35 C16 0.930 . S
H36 C18 0.932 . S
H37 C19 0.929 . S
H38 C20 0.928 . S
H39 C22 0.932 . S
C40 C41 1.264 . S
C40 C45 1.479 . S
C40 C50 1.465 . S
C41 C40 1.264 . S
C41 C43 1.339 . S
C41 H68 0.931 . S
C42 C43 1.395 . S
C42 C44 1.320 . S
C43 C41 1.339 . S
C43 C42 1.395 . S
C43 H69 0.929 . S
C44 C42 1.320 . S
C44 C45 1.405 . S
C44 H70 0.930 . S
C45 C40 1.479 . S
C45 C44 1.405 . S
C45 H71 0.931 . S
U46 O47 2.454 . S
U46 O48 2.458 . S
U46 C49 2.984 . S
U46 C50 2.847 . S
U46 C63 2.882 . S
U46 O64 2.441 . S
U46 O65 2.420 . S
U46 O66 2.455 . S
U46 O67 2.449 . S
O47 U46 2.454 . S
O47 C49 1.353 . S
O48 U46 2.458 . S
O48 C49 1.286 . S
C49 U46 2.984 . S
C49 O47 1.353 . S
C49 O48 1.286 . S
C49 C51 1.363 . S
C50 C40 1.465 . S
C50 U46 2.847 . S
C50 O64 1.249 . S
C50 O65 1.202 . S
C51 C49 1.363 . S
C51 C53 1.408 . S
C51 C56 1.342 . S
C52 C53 1.310 . S
C52 C55 1.461 . S
C52 H72 0.932 . S
C53 C51 1.408 . S
C53 C52 1.310 . S
C53 H73 0.930 . S
C54 C55 1.474 . S
C54 C56 1.285 . S
C54 H74 0.929 . S
C55 C52 1.461 . S
C55 C54 1.474 . S
C56 C51 1.342 . S
C56 C54 1.285 . S
C56 H75 0.930 . S
C57 C60 1.424 . S
C57 C62 1.245 . S
C57 C63 1.428 . S
C58 C61 1.260 . S
C58 C62 1.477 . S
C58 H76 0.932 . S
C59 C60 1.384 . S
C59 C61 1.479 . S
C59 H77 0.929 . S
C60 C57 1.424 . S
C60 C59 1.384 . S
C60 H78 0.928 . S
C61 C58 1.260 . S
C61 C59 1.479 . S
C62 C57 1.245 . S
C62 C58 1.477 . S
C62 H79 0.932 . S
C63 U46 2.882 . S
C63 C57 1.428 . S
C63 O66 1.301 . S
C63 O67 1.282 . S
O64 U46 2.441 . S
O64 C50 1.249 . S
O65 U46 2.420 . S
O65 C50 1.202 . S
O66 U46 2.455 . S
O66 C63 1.301 . S
O67 U46 2.449 . S
O67 C63 1.282 . S
H68 C41 0.931 . S
H69 C43 0.929 . S
H70 C44 0.930 . S
H71 C45 0.931 . S
H72 C52 0.932 . S
H73 C53 0.930 . S
H74 C54 0.929 . S
H75 C56 0.930 . S
H76 C58 0.932 . S
H77 C59 0.929 . S
H78 C60 0.928 . S
H79 C62 0.932 . S
C80 C81 1.264 . S
C80 C85 1.479 . S
C80 C90 1.465 . S
C81 C80 1.264 . S
C81 C83 1.339 . S
C81 H108 0.931 . S
C82 C83 1.395 . S
C82 C84 1.320 . S
C83 C81 1.339 . S
C83 C82 1.395 . S
C83 H109 0.929 . S
C84 C82 1.320 . S
C84 C85 1.405 . S
C84 H110 0.930 . S
C85 C80 1.479 . S
C85 C84 1.405 . S
C85 H111 0.931 . S
U86 O87 2.454 . S
U86 O88 2.458 . S
U86 C89 2.984 . S
U86 C90 2.847 . S
U86 C103 2.882 . S
U86 O104 2.441 . S
U86 O105 2.420 . S
U86 O106 2.455 . S
U86 O107 2.449 . S
O87 U86 2.454 . S
O87 C89 1.353 . S
O88 U86 2.458 . S
O88 C89 1.286 . S
C89 U86 2.984 . S
C89 O87 1.353 . S
C89 O88 1.286 . S
C89 C91 1.363 . S
C90 C80 1.465 . S
C90 U86 2.847 . S
C90 O104 1.249 . S
C90 O105 1.202 . S
C91 C89 1.363 . S
C91 C93 1.408 . S
C91 C96 1.342 . S
C92 C93 1.310 . S
C92 C95 1.461 . S
C92 H112 0.932 . S
C93 C91 1.408 . S
C93 C92 1.310 . S
C93 H113 0.930 . S
C94 C95 1.474 . S
C94 C96 1.285 . S
C94 H114 0.929 . S
C95 C92 1.461 . S
C95 C94 1.474 . S
C96 C91 1.342 . S
C96 C94 1.285 . S
C96 H115 0.930 . S
C97 C100 1.424 . S
C97 C102 1.245 . S
C97 C103 1.428 1_565 S
C98 C101 1.260 . S
C98 C102 1.477 . S
C98 H116 0.932 . S
C99 C100 1.384 . S
C99 C101 1.479 . S
C99 H117 0.929 . S
C100 C97 1.424 . S
C100 C99 1.384 . S
C100 H118 0.928 . S
C101 C98 1.260 . S
C101 C99 1.479 . S
C102 C97 1.245 . S
C102 C98 1.477 . S
C102 H119 0.932 . S
C103 U86 2.882 . S
C103 C97 1.428 1_545 S
C103 O106 1.301 . S
C103 O107 1.282 . S
O104 U86 2.441 . S
O104 C90 1.249 . S
O105 U86 2.420 . S
O105 C90 1.202 . S
O106 U86 2.455 . S
O106 C103 1.301 . S
O107 U86 2.449 . S
O107 C103 1.282 . S
H108 C81 0.931 . S
H109 C83 0.929 . S
H110 C84 0.930 . S
H111 C85 0.931 . S
H112 C92 0.932 . S
H113 C93 0.930 . S
H114 C94 0.929 . S
H115 C96 0.930 . S
H116 C98 0.932 . S
H117 C99 0.929 . S
H118 C100 0.928 . S
H119 C102 0.932 . S
C120 C121 1.264 . S
C120 C125 1.479 . S
C120 C130 1.465 . S
C121 C120 1.264 . S
C121 C123 1.339 . S
C121 H148 0.931 . S
C122 C123 1.395 . S
C122 C124 1.320 . S
C123 C121 1.339 . S
C123 C122 1.395 . S
C123 H149 0.929 . S
C124 C122 1.320 . S
C124 C125 1.405 . S
C124 H150 0.930 . S
C125 C120 1.479 . S
C125 C124 1.405 . S
C125 H151 0.931 . S
U126 O127 2.454 . S
U126 O128 2.458 . S
U126 C129 2.984 . S
U126 C130 2.847 . S
U126 C143 2.882 . S
U126 O144 2.441 . S
U126 O145 2.420 . S
U126 O146 2.455 . S
U126 O147 2.449 . S
O127 U126 2.454 . S
O127 C129 1.353 . S
O128 U126 2.458 . S
O128 C129 1.286 . S
C129 U126 2.984 . S
C129 O127 1.353 . S
C129 O128 1.286 . S
C129 C131 1.363 . S
C130 C120 1.465 . S
C130 U126 2.847 . S
C130 O144 1.249 . S
C130 O145 1.202 . S
C131 C129 1.363 . S
C131 C133 1.408 . S
C131 C136 1.342 . S
C132 C133 1.310 . S
C132 C135 1.461 . S
C132 H152 0.932 . S
C133 C131 1.408 . S
C133 C132 1.310 . S
C133 H153 0.930 . S
C134 C135 1.474 . S
C134 C136 1.285 . S
C134 H154 0.929 . S
C135 C132 1.461 . S
C135 C134 1.474 . S
C136 C131 1.342 . S
C136 C134 1.285 . S
C136 H155 0.930 . S
C137 C140 1.424 . S
C137 C142 1.245 . S
C137 C143 1.428 . S
C138 C141 1.260 . S
C138 C142 1.477 . S
C138 H156 0.932 . S
C139 C140 1.384 . S
C139 C141 1.479 . S
C139 H157 0.929 . S
C140 C137 1.424 . S
C140 C139 1.384 . S
C140 H158 0.928 . S
C141 C138 1.260 . S
C141 C139 1.479 . S
C142 C137 1.245 . S
C142 C138 1.477 . S
C142 H159 0.932 . S
C143 U126 2.882 . S
C143 C137 1.428 . S
C143 O146 1.301 . S
C143 O147 1.282 . S
O144 U126 2.441 . S
O144 C130 1.249 . S
O145 U126 2.420 . S
O145 C130 1.202 . S
O146 U126 2.455 . S
O146 C143 1.301 . S
O147 U126 2.449 . S
O147 C143 1.282 . S
H148 C121 0.931 . S
H149 C123 0.929 . S
H150 C124 0.930 . S
H151 C125 0.931 . S
H152 C132 0.932 . S
H153 C133 0.930 . S
H154 C134 0.929 . S
H155 C136 0.930 . S
H156 C138 0.932 . S
H157 C139 0.929 . S
H158 C140 0.928 . S
H159 C142 0.932 . S
C160 C161 1.264 . S
C160 C165 1.479 . S
C160 C170 1.465 . S
C161 C160 1.264 . S
C161 C163 1.339 . S
C161 H188 0.931 . S
C162 C163 1.395 . S
C162 C164 1.320 . S
C163 C161 1.339 . S
C163 C162 1.395 . S
C163 H189 0.929 . S
C164 C162 1.320 . S
C164 C165 1.405 . S
C164 H190 0.930 . S
C165 C160 1.479 . S
C165 C164 1.405 . S
C165 H191 0.931 . S
U166 O167 2.454 . S
U166 O168 2.458 . S
U166 C169 2.984 . S
U166 C170 2.847 . S
U166 C183 2.882 . S
U166 O184 2.441 . S
U166 O185 2.420 . S
U166 O186 2.455 . S
U166 O187 2.449 . S
O167 U166 2.454 . S
O167 C169 1.353 . S
O168 U166 2.458 . S
O168 C169 1.286 . S
C169 U166 2.984 . S
C169 O167 1.353 . S
C169 O168 1.286 . S
C169 C171 1.363 . S
C170 C160 1.465 . S
C170 U166 2.847 . S
C170 O184 1.249 . S
C170 O185 1.202 . S
C171 C169 1.363 . S
C171 C173 1.408 . S
C171 C176 1.342 . S
C172 C173 1.310 . S
C172 C175 1.461 . S
C172 H192 0.932 . S
C173 C171 1.408 . S
C173 C172 1.310 . S
C173 H193 0.930 . S
C174 C175 1.474 . S
C174 C176 1.285 . S
C174 H194 0.929 . S
C175 C172 1.461 . S
C175 C174 1.474 . S
C176 C171 1.342 . S
C176 C174 1.285 . S
C176 H195 0.930 . S
C177 C180 1.424 . S
C177 C182 1.245 . S
C177 C183 1.428 1_565 S
C178 C181 1.260 . S
C178 C182 1.477 . S
C178 H196 0.932 . S
C179 C180 1.384 . S
C179 C181 1.479 . S
C179 H197 0.929 . S
C180 C177 1.424 . S
C180 C179 1.384 . S
C180 H198 0.928 . S
C181 C178 1.260 . S
C181 C179 1.479 . S
C182 C177 1.245 . S
C182 C178 1.477 . S
C182 H199 0.932 . S
C183 U166 2.882 . S
C183 C177 1.428 1_545 S
C183 O186 1.301 . S
C183 O187 1.282 . S
O184 U166 2.441 . S
O184 C170 1.249 . S
O185 U166 2.420 . S
O185 C170 1.202 . S
O186 U166 2.455 . S
O186 C183 1.301 . S
O187 U166 2.449 . S
O187 C183 1.282 . S
H188 C161 0.931 . S
H189 C163 0.929 . S
H190 C164 0.930 . S
H191 C165 0.931 . S
H192 C172 0.932 . S
H193 C173 0.930 . S
H194 C174 0.929 . S
H195 C176 0.930 . S
H196 C178 0.932 . S
H197 C179 0.929 . S
H198 C180 0.928 . S
H199 C182 0.932 . S
C200 C201 1.264 . S
C200 C205 1.479 . S
C200 C210 1.465 . S
C201 C200 1.264 . S
C201 C203 1.339 . S
C201 H228 0.931 . S
C202 C203 1.395 . S
C202 C204 1.320 . S
C203 C201 1.339 . S
C203 C202 1.395 . S
C203 H229 0.929 . S
C204 C202 1.320 . S
C204 C205 1.405 . S
C204 H230 0.930 . S
C205 C200 1.479 . S
C205 C204 1.405 . S
C205 H231 0.931 . S
U206 O207 2.454 . S
U206 O208 2.458 . S
U206 C209 2.984 . S
U206 C210 2.847 . S
U206 C223 2.882 . S
U206 O224 2.441 . S
U206 O225 2.420 . S
U206 O226 2.455 . S
U206 O227 2.449 . S
O207 U206 2.454 . S
O207 C209 1.353 . S
O208 U206 2.458 . S
O208 C209 1.286 . S
C209 U206 2.984 . S
C209 O207 1.353 . S
C209 O208 1.286 . S
C209 C211 1.363 . S
C210 C200 1.465 . S
C210 U206 2.847 . S
C210 O224 1.249 . S
C210 O225 1.202 . S
C211 C209 1.363 . S
C211 C213 1.408 . S
C211 C216 1.342 . S
C212 C213 1.310 . S
C212 C215 1.461 . S
C212 H232 0.932 . S
C213 C211 1.408 . S
C213 C212 1.310 . S
C213 H233 0.930 . S
C214 C215 1.474 . S
C214 C216 1.285 . S
C214 H234 0.929 . S
C215 C212 1.461 . S
C215 C214 1.474 . S
C216 C211 1.342 . S
C216 C214 1.285 . S
C216 H235 0.930 . S
C217 C220 1.424 . S
C217 C222 1.245 . S
C217 C223 1.428 . S
C218 C221 1.260 . S
C218 C222 1.477 . S
C218 H236 0.932 . S
C219 C220 1.384 . S
C219 C221 1.479 . S
C219 H237 0.929 . S
C220 C217 1.424 . S
C220 C219 1.384 . S
C220 H238 0.928 . S
C221 C218 1.260 . S
C221 C219 1.479 . S
C222 C217 1.245 . S
C222 C218 1.477 . S
C222 H239 0.932 . S
C223 U206 2.882 . S
C223 C217 1.428 . S
C223 O226 1.301 . S
C223 O227 1.282 . S
O224 U206 2.441 . S
O224 C210 1.249 . S
O225 U206 2.420 . S
O225 C210 1.202 . S
O226 U206 2.455 . S
O226 C223 1.301 . S
O227 U206 2.449 . S
O227 C223 1.282 . S
H228 C201 0.931 . S
H229 C203 0.929 . S
H230 C204 0.930 . S
H231 C205 0.931 . S
H232 C212 0.932 . S
H233 C213 0.930 . S
H234 C214 0.929 . S
H235 C216 0.930 . S
H236 C218 0.932 . S
H237 C219 0.929 . S
H238 C220 0.928 . S
H239 C222 0.932 . S
C240 C241 1.264 . S
C240 C245 1.479 . S
C240 C250 1.465 . S
C241 C240 1.264 . S
C241 C243 1.339 . S
C241 H268 0.931 . S
C242 C243 1.395 . S
C242 C244 1.320 . S
C243 C241 1.339 . S
C243 C242 1.395 . S
C243 H269 0.929 . S
C244 C242 1.320 . S
C244 C245 1.405 . S
C244 H270 0.930 . S
C245 C240 1.479 . S
C245 C244 1.405 . S
C245 H271 0.931 . S
U246 O247 2.454 . S
U246 O248 2.458 . S
U246 C249 2.984 . S
U246 C250 2.847 . S
U246 C263 2.882 . S
U246 O264 2.441 . S
U246 O265 2.420 . S
U246 O266 2.455 . S
U246 O267 2.449 . S
O247 U246 2.454 . S
O247 C249 1.353 . S
O248 U246 2.458 . S
O248 C249 1.286 . S
C249 U246 2.984 . S
C249 O247 1.353 . S
C249 O248 1.286 . S
C249 C251 1.363 . S
C250 C240 1.465 . S
C250 U246 2.847 . S
C250 O264 1.249 . S
C250 O265 1.202 . S
C251 C249 1.363 . S
C251 C253 1.408 . S
C251 C256 1.342 . S
C252 C253 1.310 . S
C252 C255 1.461 . S
C252 H272 0.932 . S
C253 C251 1.408 . S
C253 C252 1.310 . S
C253 H273 0.930 . S
C254 C255 1.474 . S
C254 C256 1.285 . S
C254 H274 0.929 . S
C255 C252 1.461 . S
C255 C254 1.474 . S
C256 C251 1.342 . S
C256 C254 1.285 . S
C256 H275 0.930 . S
C257 C260 1.424 . S
C257 C262 1.245 . S
C257 C263 1.428 1_545 S
C258 C261 1.260 . S
C258 C262 1.477 . S
C258 H276 0.932 . S
C259 C260 1.384 . S
C259 C261 1.479 . S
C259 H277 0.929 . S
C260 C257 1.424 . S
C260 C259 1.384 . S
C260 H278 0.928 . S
C261 C258 1.260 . S
C261 C259 1.479 . S
C262 C257 1.245 . S
C262 C258 1.477 . S
C262 H279 0.932 . S
C263 U246 2.882 . S
C263 C257 1.428 1_565 S
C263 O266 1.301 . S
C263 O267 1.282 . S
O264 U246 2.441 . S
O264 C250 1.249 . S
O265 U246 2.420 . S
O265 C250 1.202 . S
O266 U246 2.455 . S
O266 C263 1.301 . S
O267 U246 2.449 . S
O267 C263 1.282 . S
H268 C241 0.931 . S
H269 C243 0.929 . S
H270 C244 0.930 . S
H271 C245 0.931 . S
H272 C252 0.932 . S
H273 C253 0.930 . S
H274 C254 0.929 . S
H275 C256 0.930 . S
H276 C258 0.932 . S
H277 C259 0.929 . S
H278 C260 0.928 . S
H279 C262 0.932 . S
C280 C281 1.264 . S
C280 C285 1.479 . S
C280 C290 1.465 . S
C281 C280 1.264 . S
C281 C283 1.339 . S
C281 H308 0.931 . S
C282 C283 1.395 . S
C282 C284 1.320 . S
C283 C281 1.339 . S
C283 C282 1.395 . S
C283 H309 0.929 . S
C284 C282 1.320 . S
C284 C285 1.405 . S
C284 H310 0.930 . S
C285 C280 1.479 . S
C285 C284 1.405 . S
C285 H311 0.931 . S
U286 O287 2.454 . S
U286 O288 2.458 . S
U286 C289 2.984 . S
U286 C290 2.847 . S
U286 C303 2.882 . S
U286 O304 2.441 . S
U286 O305 2.420 . S
U286 O306 2.455 . S
U286 O307 2.449 . S
O287 U286 2.454 . S
O287 C289 1.353 . S
O288 U286 2.458 . S
O288 C289 1.286 . S
C289 U286 2.984 . S
C289 O287 1.353 . S
C289 O288 1.286 . S
C289 C291 1.363 . S
C290 C280 1.465 . S
C290 U286 2.847 . S
C290 O304 1.249 . S
C290 O305 1.202 . S
C291 C289 1.363 . S
C291 C293 1.408 . S
C291 C296 1.342 . S
C292 C293 1.310 . S
C292 C295 1.461 . S
C292 H312 0.932 . S
C293 C291 1.408 . S
C293 C292 1.310 . S
C293 H313 0.930 . S
C294 C295 1.474 . S
C294 C296 1.285 . S
C294 H314 0.929 . S
C295 C292 1.461 . S
C295 C294 1.474 . S
C296 C291 1.342 . S
C296 C294 1.285 . S
C296 H315 0.930 . S
C297 C300 1.424 . S
C297 C302 1.245 . S
C297 C303 1.428 . S
C298 C301 1.260 . S
C298 C302 1.477 . S
C298 H316 0.932 . S
C299 C300 1.384 . S
C299 C301 1.479 . S
C299 H317 0.929 . S
C300 C297 1.424 . S
C300 C299 1.384 . S
C300 H318 0.928 . S
C301 C298 1.260 . S
C301 C299 1.479 . S
C302 C297 1.245 . S
C302 C298 1.477 . S
C302 H319 0.932 . S
C303 U286 2.882 . S
C303 C297 1.428 . S
C303 O306 1.301 . S
C303 O307 1.282 . S
O304 U286 2.441 . S
O304 C290 1.249 . S
O305 U286 2.420 . S
O305 C290 1.202 . S
O306 U286 2.455 . S
O306 C303 1.301 . S
O307 U286 2.449 . S
O307 C303 1.282 . S
H308 C281 0.931 . S
H309 C283 0.929 . S
H310 C284 0.930 . S
H311 C285 0.931 . S
H312 C292 0.932 . S
H313 C293 0.930 . S
H314 C294 0.929 . S
H315 C296 0.930 . S
H316 C298 0.932 . S
H317 C299 0.929 . S
H318 C300 0.928 . S
H319 C302 0.932 . S
C320 C321 1.264 . S
C320 C325 1.479 1_565 S
C320 C330 1.465 . S
C321 C320 1.264 . S
C321 C323 1.342 . S
C321 H348 0.931 . S
C322 C323 1.389 1_545 S
C322 C324 1.320 . S
C323 C321 1.342 . S
C323 C322 1.389 1_565 S
C323 H349 0.932 . S
C324 C322 1.320 . S
C324 C325 1.405 . S
C324 H350 0.930 . S
C325 C320 1.479 1_545 S
C325 C324 1.405 . S
C325 H351 0.931 . S
U326 O327 2.440 1_565 S
U326 O328 2.458 . S
U326 C329 2.997 . S
U326 C330 2.847 . S
U326 C343 2.882 . S
U326 O344 2.441 . S
U326 O345 2.420 . S
U326 O346 2.455 . S
U326 O347 2.449 . S
O327 U326 2.440 1_545 S
O327 C329 1.349 1_545 S
O328 U326 2.458 . S
O328 C329 1.300 . S
C329 U326 2.997 . S
C329 O327 1.349 1_565 S
C329 O328 1.300 . S
C329 C331 1.353 1_565 S
C330 C320 1.465 . S
C330 U326 2.847 . S
C330 O344 1.249 . S
C330 O345 1.202 . S
C331 C329 1.353 1_545 S
C331 C333 1.408 . S
C331 C336 1.342 . S
C332 C333 1.310 . S
C332 C335 1.461 . S
C332 H352 0.932 . S
C333 C331 1.408 . S
C333 C332 1.310 . S
C333 H353 0.930 . S
C334 C335 1.474 . S
C334 C336 1.285 . S
C334 H354 0.929 . S
C335 C332 1.461 . S
C335 C334 1.474 . S
C336 C331 1.342 . S
C336 C334 1.285 . S
C336 H355 0.938 . S
C337 C340 1.424 . S
C337 C342 1.245 . S
C337 C343 1.428 . S
C338 C341 1.260 . S
C338 C342 1.477 . S
C338 H356 0.932 . S
C339 C340 1.384 . S
C339 C341 1.479 . S
C339 H357 0.929 . S
C340 C337 1.424 . S
C340 C339 1.384 . S
C340 H358 0.928 . S
C341 C338 1.260 . S
C341 C339 1.479 . S
C342 C337 1.245 . S
C342 C338 1.477 . S
C342 H359 0.932 . S
C343 U326 2.882 . S
C343 C337 1.428 . S
C343 O346 1.301 . S
C343 O347 1.282 . S
O344 U326 2.441 . S
O344 C330 1.249 . S
O345 U326 2.420 . S
O345 C330 1.202 . S
O346 U326 2.455 . S
O346 C343 1.301 . S
O347 U326 2.449 . S
O347 C343 1.282 . S
H348 C321 0.931 . S
H349 C323 0.932 . S
H350 C324 0.930 . S
H351 C325 0.931 . S
H352 C332 0.932 . S
H353 C333 0.930 . S
H354 C334 0.929 . S
H355 C336 0.938 . S
H356 C338 0.932 . S
H357 C339 0.929 . S
H358 C340 0.928 . S
H359 C342 0.932 . S
C360 C361 1.264 . S
C360 C365 1.479 . S
C360 C370 1.465 . S
C361 C360 1.264 . S
C361 C363 1.339 . S
C361 H388 0.931 . S
C362 C363 1.395 . S
C362 C364 1.320 . S
C363 C361 1.339 . S
C363 C362 1.395 . S
C363 H389 0.929 . S
C364 C362 1.320 . S
C364 C365 1.405 . S
C364 H390 0.930 . S
C365 C360 1.479 . S
C365 C364 1.405 . S
C365 H391 0.931 . S
U366 O367 2.454 . S
U366 O368 2.458 . S
U366 C369 2.984 . S
U366 C370 2.847 . S
U366 C383 2.882 . S
U366 O384 2.441 . S
U366 O385 2.420 . S
U366 O386 2.455 . S
U366 O387 2.449 . S
O367 U366 2.454 . S
O367 C369 1.353 . S
O368 U366 2.458 . S
O368 C369 1.286 . S
C369 U366 2.984 . S
C369 O367 1.353 . S
C369 O368 1.286 . S
C369 C371 1.363 . S
C370 C360 1.465 . S
C370 U366 2.847 . S
C370 O384 1.249 . S
C370 O385 1.202 . S
C371 C369 1.363 . S
C371 C373 1.408 . S
C371 C376 1.342 . S
C372 C373 1.310 . S
C372 C375 1.461 . S
C372 H392 0.932 . S
C373 C371 1.408 . S
C373 C372 1.310 . S
C373 H393 0.930 . S
C374 C375 1.474 . S
C374 C376 1.285 . S
C374 H394 0.929 . S
C375 C372 1.461 . S
C375 C374 1.474 . S
C376 C371 1.342 . S
C376 C374 1.285 . S
C376 H395 0.930 . S
C377 C380 1.424 . S
C377 C382 1.245 . S
C377 C383 1.428 . S
C378 C381 1.260 . S
C378 C382 1.477 . S
C378 H396 0.932 . S
C379 C380 1.384 . S
C379 C381 1.479 . S
C379 H397 0.929 . S
C380 C377 1.424 . S
C380 C379 1.384 . S
C380 H398 0.928 . S
C381 C378 1.260 . S
C381 C379 1.479 . S
C382 C377 1.245 . S
C382 C378 1.477 . S
C382 H399 0.932 . S
C383 U366 2.882 . S
C383 C377 1.428 . S
C383 O386 1.301 . S
C383 O387 1.282 . S
O384 U366 2.441 . S
O384 C370 1.249 . S
O385 U366 2.420 . S
O385 C370 1.202 . S
O386 U366 2.455 . S
O386 C383 1.301 . S
O387 U366 2.449 . S
O387 C383 1.282 . S
H388 C361 0.931 . S
H389 C363 0.929 . S
H390 C364 0.930 . S
H391 C365 0.931 . S
H392 C372 0.932 . S
H393 C373 0.930 . S
H394 C374 0.929 . S
H395 C376 0.930 . S
H396 C378 0.932 . S
H397 C379 0.929 . S
H398 C380 0.928 . S
H399 C382 0.932 . S
C400 C401 1.264 . S
C400 C405 1.479 1_545 S
C400 C410 1.465 . S
C401 C400 1.264 . S
C401 C403 1.342 . S
C401 H428 0.931 . S
C402 C403 1.389 1_565 S
C402 C404 1.320 . S
C403 C401 1.342 . S
C403 C402 1.389 1_545 S
C403 H429 0.932 . S
C404 C402 1.320 . S
C404 C405 1.405 . S
C404 H430 0.930 . S
C405 C400 1.479 1_565 S
C405 C404 1.405 . S
C405 H431 0.931 . S
U406 O407 2.440 1_545 S
U406 O408 2.458 . S
U406 C409 2.997 . S
U406 C410 2.847 . S
U406 C423 2.882 . S
U406 O424 2.441 . S
U406 O425 2.420 . S
U406 O426 2.455 . S
U406 O427 2.449 . S
O407 U406 2.440 1_565 S
O407 C409 1.349 1_565 S
O408 U406 2.458 . S
O408 C409 1.300 . S
C409 U406 2.997 . S
C409 O407 1.349 1_545 S
C409 O408 1.300 . S
C409 C411 1.353 1_545 S
C410 C400 1.465 . S
C410 U406 2.847 . S
C410 O424 1.249 . S
C410 O425 1.202 . S
C411 C409 1.353 1_565 S
C411 C413 1.408 . S
C411 C416 1.342 . S
C412 C413 1.310 . S
C412 C415 1.461 . S
C412 H432 0.932 . S
C413 C411 1.408 . S
C413 C412 1.310 . S
C413 H433 0.930 . S
C414 C415 1.474 . S
C414 C416 1.285 . S
C414 H434 0.929 . S
C415 C412 1.461 . S
C415 C414 1.474 . S
C416 C411 1.342 . S
C416 C414 1.285 . S
C416 H435 0.938 . S
C417 C420 1.424 . S
C417 C422 1.245 . S
C417 C423 1.428 . S
C418 C421 1.260 . S
C418 C422 1.477 . S
C418 H436 0.932 . S
C419 C420 1.384 . S
C419 C421 1.479 . S
C419 H437 0.929 . S
C420 C417 1.424 . S
C420 C419 1.384 . S
C420 H438 0.928 . S
C421 C418 1.260 . S
C421 C419 1.479 . S
C422 C417 1.245 . S
C422 C418 1.477 . S
C422 H439 0.932 . S
C423 U406 2.882 . S
C423 C417 1.428 . S
C423 O426 1.301 . S
C423 O427 1.282 . S
O424 U406 2.441 . S
O424 C410 1.249 . S
O425 U406 2.420 . S
O425 C410 1.202 . S
O426 U406 2.455 . S
O426 C423 1.301 . S
O427 U406 2.449 . S
O427 C423 1.282 . S
H428 C401 0.931 . S
H429 C403 0.932 . S
H430 C404 0.930 . S
H431 C405 0.931 . S
H432 C412 0.932 . S
H433 C413 0.930 . S
H434 C414 0.929 . S
H435 C416 0.938 . S
H436 C418 0.932 . S
H437 C419 0.929 . S
H438 C420 0.928 . S
H439 C422 0.932 . S
C440 C441 1.264 . S
C440 C445 1.479 . S
C440 C450 1.465 . S
C441 C440 1.264 . S
C441 C443 1.339 . S
C441 H468 0.931 . S
C442 C443 1.395 . S
C442 C444 1.320 . S
C443 C441 1.339 . S
C443 C442 1.395 . S
C443 H469 0.929 . S
C444 C442 1.320 . S
C444 C445 1.405 . S
C444 H470 0.930 . S
C445 C440 1.479 . S
C445 C444 1.405 . S
C445 H471 0.931 . S
U446 O447 2.454 . S
U446 O448 2.458 . S
U446 C449 2.984 . S
U446 C450 2.847 . S
U446 C463 2.882 . S
U446 O464 2.441 . S
U446 O465 2.420 . S
U446 O466 2.455 . S
U446 O467 2.449 . S
O447 U446 2.454 . S
O447 C449 1.353 . S
O448 U446 2.458 . S
O448 C449 1.286 . S
C449 U446 2.984 . S
C449 O447 1.353 . S
C449 O448 1.286 . S
C449 C451 1.363 . S
C450 C440 1.465 . S
C450 U446 2.847 . S
C450 O464 1.249 . S
C450 O465 1.202 . S
C451 C449 1.363 . S
C451 C453 1.408 . S
C451 C456 1.342 . S
C452 C453 1.310 . S
C452 C455 1.461 . S
C452 H472 0.932 . S
C453 C451 1.408 . S
C453 C452 1.310 . S
C453 H473 0.930 . S
C454 C455 1.474 . S
C454 C456 1.285 . S
C454 H474 0.929 . S
C455 C452 1.461 . S
C455 C454 1.474 . S
C456 C451 1.342 . S
C456 C454 1.285 . S
C456 H475 0.930 . S
C457 C460 1.424 . S
C457 C462 1.245 . S
C457 C463 1.428 . S
C458 C461 1.260 . S
C458 C462 1.477 . S
C458 H476 0.932 . S
C459 C460 1.384 . S
C459 C461 1.479 . S
C459 H477 0.929 . S
C460 C457 1.424 . S
C460 C459 1.384 . S
C460 H478 0.928 . S
C461 C458 1.260 . S
C461 C459 1.479 . S
C462 C457 1.245 . S
C462 C458 1.477 . S
C462 H479 0.932 . S
C463 U446 2.882 . S
C463 C457 1.428 . S
C463 O466 1.301 . S
C463 O467 1.282 . S
O464 U446 2.441 . S
O464 C450 1.249 . S
O465 U446 2.420 . S
O465 C450 1.202 . S
O466 U446 2.455 . S
O466 C463 1.301 . S
O467 U446 2.449 . S
O467 C463 1.282 . S
H468 C441 0.931 . S
H469 C443 0.929 . S
H470 C444 0.930 . S
H471 C445 0.931 . S
H472 C452 0.932 . S
H473 C453 0.930 . S
H474 C454 0.929 . S
H475 C456 0.930 . S
H476 C458 0.932 . S
H477 C459 0.929 . S
H478 C460 0.928 . S
H479 C462 0.932 . S
C480 C481 1.264 . S
C480 C485 1.479 1_545 S
C480 C490 1.465 . S
C481 C480 1.264 . S
C481 C483 1.342 . S
C481 H508 0.931 . S
C482 C483 1.389 1_565 S
C482 C484 1.320 . S
C483 C481 1.342 . S
C483 C482 1.389 1_545 S
C483 H509 0.932 . S
C484 C482 1.320 . S
C484 C485 1.405 . S
C484 H510 0.930 . S
C485 C480 1.479 1_565 S
C485 C484 1.405 . S
C485 H511 0.931 . S
U486 O487 2.440 1_545 S
U486 O488 2.458 . S
U486 C489 2.998 . S
U486 C490 2.847 . S
U486 C503 2.882 . S
U486 O504 2.441 . S
U486 O505 2.420 . S
U486 O506 2.455 . S
U486 O507 2.449 . S
O487 U486 2.440 1_565 S
O487 C489 1.349 1_565 S
O488 U486 2.458 . S
O488 C489 1.300 . S
C489 U486 2.998 . S
C489 O487 1.349 1_545 S
C489 O488 1.300 . S
C489 C491 1.353 1_545 S
C490 C480 1.465 . S
C490 U486 2.847 . S
C490 O504 1.249 . S
C490 O505 1.202 . S
C491 C489 1.353 1_565 S
C491 C493 1.408 . S
C491 C496 1.342 . S
C492 C493 1.310 . S
C492 C495 1.461 . S
C492 H512 0.932 . S
C493 C491 1.408 . S
C493 C492 1.310 . S
C493 H513 0.930 . S
C494 C495 1.474 . S
C494 C496 1.285 . S
C494 H514 0.929 . S
C495 C492 1.461 . S
C495 C494 1.474 . S
C496 C491 1.342 . S
C496 C494 1.285 . S
C496 H515 0.938 . S
C497 C500 1.424 . S
C497 C502 1.245 . S
C497 C503 1.428 . S
C498 C501 1.260 . S
C498 C502 1.477 . S
C498 H516 0.932 . S
C499 C500 1.384 . S
C499 C501 1.479 . S
C499 H517 0.929 . S
C500 C497 1.424 . S
C500 C499 1.384 . S
C500 H518 0.928 . S
C501 C498 1.260 . S
C501 C499 1.479 . S
C502 C497 1.245 . S
C502 C498 1.477 . S
C502 H519 0.932 . S
C503 U486 2.882 . S
C503 C497 1.428 . S
C503 O506 1.301 . S
C503 O507 1.282 . S
O504 U486 2.441 . S
O504 C490 1.249 . S
O505 U486 2.420 . S
O505 C490 1.202 . S
O506 U486 2.455 . S
O506 C503 1.301 . S
O507 U486 2.449 . S
O507 C503 1.282 . S
H508 C481 0.931 . S
H509 C483 0.932 . S
H510 C484 0.930 . S
H511 C485 0.931 . S
H512 C492 0.932 . S
H513 C493 0.930 . S
H514 C494 0.929 . S
H515 C496 0.938 . S
H516 C498 0.932 . S
H517 C499 0.929 . S
H518 C500 0.928 . S
H519 C502 0.932 . S
C520 C521 1.264 . S
C520 C525 1.479 . S
C520 C530 1.465 . S
C521 C520 1.264 . S
C521 C523 1.339 . S
C521 H548 0.931 . S
C522 C523 1.395 . S
C522 C524 1.320 . S
C523 C521 1.339 . S
C523 C522 1.395 . S
C523 H549 0.929 . S
C524 C522 1.320 . S
C524 C525 1.405 . S
C524 H550 0.930 . S
C525 C520 1.479 . S
C525 C524 1.405 . S
C525 H551 0.931 . S
U526 O527 2.454 . S
U526 O528 2.458 . S
U526 C529 2.984 . S
U526 C530 2.847 . S
U526 C543 2.882 . S
U526 O544 2.441 . S
U526 O545 2.420 . S
U526 O546 2.455 . S
U526 O547 2.449 . S
O527 U526 2.454 . S
O527 C529 1.353 . S
O528 U526 2.458 . S
O528 C529 1.286 . S
C529 U526 2.984 . S
C529 O527 1.353 . S
C529 O528 1.286 . S
C529 C531 1.363 . S
C530 C520 1.465 . S
C530 U526 2.847 . S
C530 O544 1.249 . S
C530 O545 1.202 . S
C531 C529 1.363 . S
C531 C533 1.408 . S
C531 C536 1.342 . S
C532 C533 1.310 . S
C532 C535 1.461 . S
C532 H552 0.932 . S
C533 C531 1.408 . S
C533 C532 1.310 . S
C533 H553 0.930 . S
C534 C535 1.474 . S
C534 C536 1.285 . S
C534 H554 0.929 . S
C535 C532 1.461 . S
C535 C534 1.474 . S
C536 C531 1.342 . S
C536 C534 1.285 . S
C536 H555 0.930 . S
C537 C540 1.424 . S
C537 C542 1.245 . S
C537 C543 1.428 . S
C538 C541 1.260 . S
C538 C542 1.477 . S
C538 H556 0.932 . S
C539 C540 1.384 . S
C539 C541 1.479 . S
C539 H557 0.929 . S
C540 C537 1.424 . S
C540 C539 1.384 . S
C540 H558 0.928 . S
C541 C538 1.260 . S
C541 C539 1.479 . S
C542 C537 1.245 . S
C542 C538 1.477 . S
C542 H559 0.932 . S
C543 U526 2.882 . S
C543 C537 1.428 . S
C543 O546 1.301 . S
C543 O547 1.282 . S
O544 U526 2.441 . S
O544 C530 1.249 . S
O545 U526 2.420 . S
O545 C530 1.202 . S
O546 U526 2.455 . S
O546 C543 1.301 . S
O547 U526 2.449 . S
O547 C543 1.282 . S
H548 C521 0.931 . S
H549 C523 0.929 . S
H550 C524 0.930 . S
H551 C525 0.931 . S
H552 C532 0.932 . S
H553 C533 0.930 . S
H554 C534 0.929 . S
H555 C536 0.930 . S
H556 C538 0.932 . S
H557 C539 0.929 . S
H558 C540 0.928 . S
H559 C542 0.932 . S
C560 C561 1.264 . S
C560 C565 1.479 1_565 S
C560 C570 1.465 . S
C561 C560 1.264 . S
C561 C563 1.342 . S
C561 H588 0.931 . S
C562 C563 1.389 1_545 S
C562 C564 1.320 . S
C563 C561 1.342 . S
C563 C562 1.389 1_565 S
C563 H589 0.932 . S
C564 C562 1.320 . S
C564 C565 1.405 . S
C564 H590 0.930 . S
C565 C560 1.479 1_545 S
C565 C564 1.405 . S
C565 H591 0.931 . S
U566 O567 2.440 1_565 S
U566 O568 2.458 . S
U566 C569 2.997 . S
U566 C570 2.847 . S
U566 C583 2.882 . S
U566 O584 2.441 . S
U566 O585 2.420 . S
U566 O586 2.455 . S
U566 O587 2.449 . S
O567 U566 2.440 1_545 S
O567 C569 1.349 1_545 S
O568 U566 2.458 . S
O568 C569 1.300 . S
C569 U566 2.997 . S
C569 O567 1.349 1_565 S
C569 O568 1.300 . S
C569 C571 1.353 1_565 S
C570 C560 1.465 . S
C570 U566 2.847 . S
C570 O584 1.249 . S
C570 O585 1.202 . S
C571 C569 1.353 1_545 S
C571 C573 1.408 . S
C571 C576 1.342 . S
C572 C573 1.310 . S
C572 C575 1.461 . S
C572 H592 0.932 . S
C573 C571 1.408 . S
C573 C572 1.310 . S
C573 H593 0.930 . S
C574 C575 1.474 . S
C574 C576 1.285 . S
C574 H594 0.929 . S
C575 C572 1.461 . S
C575 C574 1.474 . S
C576 C571 1.342 . S
C576 C574 1.285 . S
C576 H595 0.938 . S
C577 C580 1.424 . S
C577 C582 1.245 . S
C577 C583 1.428 . S
C578 C581 1.260 . S
C578 C582 1.477 . S
C578 H596 0.932 . S
C579 C580 1.384 . S
C579 C581 1.479 . S
C579 H597 0.929 . S
C580 C577 1.424 . S
C580 C579 1.384 . S
C580 H598 0.928 . S
C581 C578 1.260 . S
C581 C579 1.479 . S
C582 C577 1.245 . S
C582 C578 1.477 . S
C582 H599 0.932 . S
C583 U566 2.882 . S
C583 C577 1.428 . S
C583 O586 1.301 . S
C583 O587 1.282 . S
O584 U566 2.441 . S
O584 C570 1.249 . S
O585 U566 2.420 . S
O585 C570 1.202 . S
O586 U566 2.455 . S
O586 C583 1.301 . S
O587 U566 2.449 . S
O587 C583 1.282 . S
H588 C561 0.931 . S
H589 C563 0.932 . S
H590 C564 0.930 . S
H591 C565 0.931 . S
H592 C572 0.932 . S
H593 C573 0.930 . S
H594 C574 0.929 . S
H595 C576 0.938 . S
H596 C578 0.932 . S
H597 C579 0.929 . S
H598 C580 0.928 . S
H599 C582 0.932 . S
C600 C601 1.264 . S
C600 C605 1.479 . S
C600 C610 1.465 . S
C601 C600 1.264 . S
C601 C603 1.339 . S
C601 H628 0.931 . S
C602 C603 1.395 . S
C602 C604 1.320 . S
C603 C601 1.339 . S
C603 C602 1.395 . S
C603 H629 0.929 . S
C604 C602 1.320 . S
C604 C605 1.405 . S
C604 H630 0.930 . S
C605 C600 1.479 . S
C605 C604 1.405 . S
C605 H631 0.931 . S
U606 O607 2.454 . S
U606 O608 2.458 . S
U606 C609 2.984 . S
U606 C610 2.847 . S
U606 C623 2.882 . S
U606 O624 2.441 . S
U606 O625 2.420 . S
U606 O626 2.455 . S
U606 O627 2.449 . S
O607 U606 2.454 . S
O607 C609 1.353 . S
O608 U606 2.458 . S
O608 C609 1.286 . S
C609 U606 2.984 . S
C609 O607 1.353 . S
C609 O608 1.286 . S
C609 C611 1.363 . S
C610 C600 1.465 . S
C610 U606 2.847 . S
C610 O624 1.249 . S
C610 O625 1.202 . S
C611 C609 1.363 . S
C611 C613 1.408 . S
C611 C616 1.342 . S
C612 C613 1.310 . S
C612 C615 1.461 . S
C612 H632 0.932 . S
C613 C611 1.408 . S
C613 C612 1.310 . S
C613 H633 0.930 . S
C614 C615 1.474 . S
C614 C616 1.285 . S
C614 H634 0.929 . S
C615 C612 1.461 . S
C615 C614 1.474 . S
C616 C611 1.342 . S
C616 C614 1.285 . S
C616 H635 0.930 . S
C617 C620 1.424 . S
C617 C622 1.245 . S
C617 C623 1.428 . S
C618 C621 1.260 . S
C618 C622 1.477 . S
C618 H636 0.932 . S
C619 C620 1.384 . S
C619 C621 1.479 . S
C619 H637 0.929 . S
C620 C617 1.424 . S
C620 C619 1.384 . S
C620 H638 0.928 . S
C621 C618 1.260 . S
C621 C619 1.479 . S
C622 C617 1.245 . S
C622 C618 1.477 . S
C622 H639 0.932 . S
C623 U606 2.882 . S
C623 C617 1.428 . S
C623 O626 1.301 . S
C623 O627 1.282 . S
O624 U606 2.441 . S
O624 C610 1.249 . S
O625 U606 2.420 . S
O625 C610 1.202 . S
O626 U606 2.455 . S
O626 C623 1.301 . S
O627 U606 2.449 . S
O627 C623 1.282 . S
H628 C601 0.931 . S
H629 C603 0.929 . S
H630 C604 0.930 . S
H631 C605 0.931 . S
H632 C612 0.932 . S
H633 C613 0.930 . S
H634 C614 0.929 . S
H635 C616 0.930 . S
H636 C618 0.932 . S
H637 C619 0.929 . S
H638 C620 0.928 . S
H639 C622 0.932 . S
C640 C641 1.264 . S
C640 C645 1.479 . S
C640 C650 1.465 . S
C641 C640 1.264 . S
C641 C643 1.339 . S
C641 H668 0.931 . S
C642 C643 1.395 . S
C642 C644 1.320 . S
C643 C641 1.339 . S
C643 C642 1.395 . S
C643 H669 0.929 . S
C644 C642 1.320 . S
C644 C645 1.405 . S
C644 H670 0.930 . S
C645 C640 1.479 . S
C645 C644 1.405 . S
C645 H671 0.931 . S
U646 O647 2.454 . S
U646 O648 2.458 . S
U646 C649 2.984 . S
U646 C650 2.847 . S
U646 C663 2.882 . S
U646 O664 2.441 . S
U646 O665 2.420 . S
U646 O666 2.455 . S
U646 O667 2.449 . S
O647 U646 2.454 . S
O647 C649 1.353 . S
O648 U646 2.458 . S
O648 C649 1.286 . S
C649 U646 2.984 . S
C649 O647 1.353 . S
C649 O648 1.286 . S
C649 C651 1.363 . S
C650 C640 1.465 . S
C650 U646 2.847 . S
C650 O664 1.249 . S
C650 O665 1.202 . S
C651 C649 1.363 . S
C651 C653 1.408 . S
C651 C656 1.342 . S
C652 C653 1.310 . S
C652 C655 1.461 . S
C652 H672 0.932 . S
C653 C651 1.408 . S
C653 C652 1.310 . S
C653 H673 0.930 . S
C654 C655 1.474 . S
C654 C656 1.285 . S
C654 H674 0.929 . S
C655 C652 1.461 . S
C655 C654 1.474 . S
C656 C651 1.342 . S
C656 C654 1.285 . S
C656 H675 0.930 . S
C657 C660 1.424 . S
C657 C662 1.245 . S
C657 C663 1.428 . S
C658 C661 1.260 . S
C658 C662 1.477 . S
C658 H676 0.932 . S
C659 C660 1.384 . S
C659 C661 1.479 . S
C659 H677 0.929 . S
C660 C657 1.424 . S
C660 C659 1.384 . S
C660 H678 0.928 . S
C661 C658 1.260 . S
C661 C659 1.479 . S
C662 C657 1.245 . S
C662 C658 1.477 . S
C662 H679 0.932 . S
C663 U646 2.882 . S
C663 C657 1.428 . S
C663 O666 1.301 . S
C663 O667 1.282 . S
O664 U646 2.441 . S
O664 C650 1.249 . S
O665 U646 2.420 . S
O665 C650 1.202 . S
O666 U646 2.455 . S
O666 C663 1.301 . S
O667 U646 2.449 . S
O667 C663 1.282 . S
H668 C641 0.931 . S
H669 C643 0.929 . S
H670 C644 0.930 . S
H671 C645 0.931 . S
H672 C652 0.932 . S
H673 C653 0.930 . S
H674 C654 0.929 . S
H675 C656 0.930 . S
H676 C658 0.932 . S
H677 C659 0.929 . S
H678 C660 0.928 . S
H679 C662 0.932 . S
C680 C681 1.264 . S
C680 C685 1.479 . S
C680 C690 1.465 . S
C681 C680 1.264 . S
C681 C683 1.339 . S
C681 H708 0.931 . S
C682 C683 1.395 . S
C682 C684 1.320 . S
C683 C681 1.339 . S
C683 C682 1.395 . S
C683 H709 0.929 . S
C684 C682 1.320 . S
C684 C685 1.405 . S
C684 H710 0.930 . S
C685 C680 1.479 . S
C685 C684 1.405 . S
C685 H711 0.931 . S
U686 O687 2.454 . S
U686 O688 2.458 . S
U686 C689 2.984 . S
U686 C690 2.847 . S
U686 C703 2.882 . S
U686 O704 2.441 . S
U686 O705 2.420 . S
U686 O706 2.455 . S
U686 O707 2.449 . S
O687 U686 2.454 . S
O687 C689 1.353 . S
O688 U686 2.458 . S
O688 C689 1.286 . S
C689 U686 2.984 . S
C689 O687 1.353 . S
C689 O688 1.286 . S
C689 C691 1.363 . S
C690 C680 1.465 . S
C690 U686 2.847 . S
C690 O704 1.249 . S
C690 O705 1.202 . S
C691 C689 1.363 . S
C691 C693 1.408 . S
C691 C696 1.342 . S
C692 C693 1.310 . S
C692 C695 1.461 . S
C692 H712 0.932 . S
C693 C691 1.408 . S
C693 C692 1.310 . S
C693 H713 0.930 . S
C694 C695 1.474 . S
C694 C696 1.285 . S
C694 H714 0.929 . S
C695 C692 1.461 . S
C695 C694 1.474 . S
C696 C691 1.342 . S
C696 C694 1.285 . S
C696 H715 0.930 . S
C697 C700 1.424 . S
C697 C702 1.245 . S
C697 C703 1.428 . S
C698 C701 1.260 . S
C698 C702 1.477 . S
C698 H716 0.932 . S
C699 C700 1.384 . S
C699 C701 1.479 . S
C699 H717 0.929 . S
C700 C697 1.424 . S
C700 C699 1.384 . S
C700 H718 0.928 . S
C701 C698 1.260 . S
C701 C699 1.479 . S
C702 C697 1.245 . S
C702 C698 1.477 . S
C702 H719 0.932 . S
C703 U686 2.882 . S
C703 C697 1.428 . S
C703 O706 1.301 . S
C703 O707 1.282 . S
O704 U686 2.441 . S
O704 C690 1.249 . S
O705 U686 2.420 . S
O705 C690 1.202 . S
O706 U686 2.455 . S
O706 C703 1.301 . S
O707 U686 2.449 . S
O707 C703 1.282 . S
H708 C681 0.931 . S
H709 C683 0.929 . S
H710 C684 0.930 . S
H711 C685 0.931 . S
H712 C692 0.932 . S
H713 C693 0.930 . S
H714 C694 0.929 . S
H715 C696 0.930 . S
H716 C698 0.932 . S
H717 C699 0.929 . S
H718 C700 0.928 . S
H719 C702 0.932 . S
C720 C721 1.264 . S
C720 C725 1.479 . S
C720 C730 1.465 . S
C721 C720 1.264 . S
C721 C723 1.339 . S
C721 H748 0.931 . S
C722 C723 1.395 . S
C722 C724 1.320 . S
C723 C721 1.339 . S
C723 C722 1.395 . S
C723 H749 0.929 . S
C724 C722 1.320 . S
C724 C725 1.405 . S
C724 H750 0.930 . S
C725 C720 1.479 . S
C725 C724 1.405 . S
C725 H751 0.931 . S
U726 O727 2.454 . S
U726 O728 2.458 . S
U726 C729 2.984 . S
U726 C730 2.847 . S
U726 C743 2.882 . S
U726 O744 2.441 . S
U726 O745 2.420 . S
U726 O746 2.455 . S
U726 O747 2.449 . S
O727 U726 2.454 . S
O727 C729 1.353 . S
O728 U726 2.458 . S
O728 C729 1.286 . S
C729 U726 2.984 . S
C729 O727 1.353 . S
C729 O728 1.286 . S
C729 C731 1.363 . S
C730 C720 1.465 . S
C730 U726 2.847 . S
C730 O744 1.249 . S
C730 O745 1.202 . S
C731 C729 1.363 . S
C731 C733 1.408 . S
C731 C736 1.342 . S
C732 C733 1.310 . S
C732 C735 1.461 . S
C732 H752 0.932 . S
C733 C731 1.408 . S
C733 C732 1.310 . S
C733 H753 0.930 . S
C734 C735 1.474 . S
C734 C736 1.285 . S
C734 H754 0.929 . S
C735 C732 1.461 . S
C735 C734 1.474 . S
C736 C731 1.342 . S
C736 C734 1.285 . S
C736 H755 0.930 . S
C737 C740 1.424 . S
C737 C742 1.245 . S
C737 C743 1.428 . S
C738 C741 1.260 . S
C738 C742 1.477 . S
C738 H756 0.932 . S
C739 C740 1.384 . S
C739 C741 1.479 . S
C739 H757 0.929 . S
C740 C737 1.424 . S
C740 C739 1.384 . S
C740 H758 0.928 . S
C741 C738 1.260 . S
C741 C739 1.479 . S
C742 C737 1.245 . S
C742 C738 1.477 . S
C742 H759 0.932 . S
C743 U726 2.882 . S
C743 C737 1.428 . S
C743 O746 1.301 . S
C743 O747 1.282 . S
O744 U726 2.441 . S
O744 C730 1.249 . S
O745 U726 2.420 . S
O745 C730 1.202 . S
O746 U726 2.455 . S
O746 C743 1.301 . S
O747 U726 2.449 . S
O747 C743 1.282 . S
H748 C721 0.931 . S
H749 C723 0.929 . S
H750 C724 0.930 . S
H751 C725 0.931 . S
H752 C732 0.932 . S
H753 C733 0.930 . S
H754 C734 0.929 . S
H755 C736 0.930 . S
H756 C738 0.932 . S
H757 C739 0.929 . S
H758 C740 0.928 . S
H759 C742 0.932 . S
C760 C761 1.264 . S
C760 C765 1.479 . S
C760 C770 1.465 . S
C761 C760 1.264 . S
C761 C763 1.339 . S
C761 H788 0.931 . S
C762 C763 1.395 . S
C762 C764 1.320 . S
C763 C761 1.339 . S
C763 C762 1.395 . S
C763 H789 0.929 . S
C764 C762 1.320 . S
C764 C765 1.405 . S
C764 H790 0.930 . S
C765 C760 1.479 . S
C765 C764 1.405 . S
C765 H791 0.931 . S
U766 O767 2.454 . S
U766 O768 2.458 . S
U766 C769 2.984 . S
U766 C770 2.847 . S
U766 C783 2.882 . S
U766 O784 2.441 . S
U766 O785 2.420 . S
U766 O786 2.455 . S
U766 O787 2.449 . S
O767 U766 2.454 . S
O767 C769 1.353 . S
O768 U766 2.458 . S
O768 C769 1.286 . S
C769 U766 2.984 . S
C769 O767 1.353 . S
C769 O768 1.286 . S
C769 C771 1.363 . S
C770 C760 1.465 . S
C770 U766 2.847 . S
C770 O784 1.249 . S
C770 O785 1.202 . S
C771 C769 1.363 . S
C771 C773 1.408 . S
C771 C776 1.342 . S
C772 C773 1.310 . S
C772 C775 1.461 . S
C772 H792 0.932 . S
C773 C771 1.408 . S
C773 C772 1.310 . S
C773 H793 0.930 . S
C774 C775 1.474 . S
C774 C776 1.285 . S
C774 H794 0.929 . S
C775 C772 1.461 . S
C775 C774 1.474 . S
C776 C771 1.342 . S
C776 C774 1.285 . S
C776 H795 0.930 . S
C777 C780 1.424 . S
C777 C782 1.245 . S
C777 C783 1.428 . S
C778 C781 1.260 . S
C778 C782 1.477 . S
C778 H796 0.932 . S
C779 C780 1.384 . S
C779 C781 1.479 . S
C779 H797 0.929 . S
C780 C777 1.424 . S
C780 C779 1.384 . S
C780 H798 0.928 . S
C781 C778 1.260 . S
C781 C779 1.479 . S
C782 C777 1.245 . S
C782 C778 1.477 . S
C782 H799 0.932 . S
C783 U766 2.882 . S
C783 C777 1.428 . S
C783 O786 1.301 . S
C783 O787 1.282 . S
O784 U766 2.441 . S
O784 C770 1.249 . S
O785 U766 2.420 . S
O785 C770 1.202 . S
O786 U766 2.455 . S
O786 C783 1.301 . S
O787 U766 2.449 . S
O787 C783 1.282 . S
H788 C761 0.931 . S
H789 C763 0.929 . S
H790 C764 0.930 . S
H791 C765 0.931 . S
H792 C772 0.932 . S
H793 C773 0.930 . S
H794 C774 0.929 . S
H795 C776 0.930 . S
H796 C778 0.932 . S
H797 C779 0.929 . S
H798 C780 0.928 . S
H799 C782 0.932 . S
C800 C801 1.264 . S
C800 C805 1.479 . S
C800 C810 1.465 . S
C801 C800 1.264 . S
C801 C803 1.339 . S
C801 H828 0.931 . S
C802 C803 1.395 . S
C802 C804 1.320 . S
C803 C801 1.339 . S
C803 C802 1.395 . S
C803 H829 0.929 . S
C804 C802 1.320 . S
C804 C805 1.405 . S
C804 H830 0.930 . S
C805 C800 1.479 . S
C805 C804 1.405 . S
C805 H831 0.931 . S
U806 O807 2.454 . S
U806 O808 2.458 . S
U806 C809 2.984 . S
U806 C810 2.847 . S
U806 C823 2.882 . S
U806 O824 2.441 . S
U806 O825 2.420 . S
U806 O826 2.455 . S
U806 O827 2.449 . S
O807 U806 2.454 . S
O807 C809 1.353 . S
O808 U806 2.458 . S
O808 C809 1.286 . S
C809 U806 2.984 . S
C809 O807 1.353 . S
C809 O808 1.286 . S
C809 C811 1.363 . S
C810 C800 1.465 . S
C810 U806 2.847 . S
C810 O824 1.249 . S
C810 O825 1.202 . S
C811 C809 1.363 . S
C811 C813 1.408 . S
C811 C816 1.342 . S
C812 C813 1.310 . S
C812 C815 1.461 . S
C812 H832 0.932 . S
C813 C811 1.408 . S
C813 C812 1.310 . S
C813 H833 0.930 . S
C814 C815 1.474 . S
C814 C816 1.285 . S
C814 H834 0.929 . S
C815 C812 1.461 . S
C815 C814 1.474 . S
C816 C811 1.342 . S
C816 C814 1.285 . S
C816 H835 0.930 . S
C817 C820 1.424 . S
C817 C822 1.245 . S
C817 C823 1.428 . S
C818 C821 1.260 . S
C818 C822 1.477 . S
C818 H836 0.932 . S
C819 C820 1.384 . S
C819 C821 1.479 . S
C819 H837 0.929 . S
C820 C817 1.424 . S
C820 C819 1.384 . S
C820 H838 0.928 . S
C821 C818 1.260 . S
C821 C819 1.479 . S
C822 C817 1.245 . S
C822 C818 1.477 . S
C822 H839 0.932 . S
C823 U806 2.882 . S
C823 C817 1.428 . S
C823 O826 1.301 . S
C823 O827 1.282 . S
O824 U806 2.441 . S
O824 C810 1.249 . S
O825 U806 2.420 . S
O825 C810 1.202 . S
O826 U806 2.455 . S
O826 C823 1.301 . S
O827 U806 2.449 . S
O827 C823 1.282 . S
H828 C801 0.931 . S
H829 C803 0.929 . S
H830 C804 0.930 . S
H831 C805 0.931 . S
H832 C812 0.932 . S
H833 C813 0.930 . S
H834 C814 0.929 . S
H835 C816 0.930 . S
H836 C818 0.932 . S
H837 C819 0.929 . S
H838 C820 0.928 . S
H839 C822 0.932 . S
C840 C841 1.264 . S
C840 C845 1.479 . S
C840 C850 1.465 . S
C841 C840 1.264 . S
C841 C843 1.339 . S
C841 H868 0.931 . S
C842 C843 1.395 . S
C842 C844 1.320 . S
C843 C841 1.339 . S
C843 C842 1.395 . S
C843 H869 0.929 . S
C844 C842 1.320 . S
C844 C845 1.405 . S
C844 H870 0.930 . S
C845 C840 1.479 . S
C845 C844 1.405 . S
C845 H871 0.931 . S
U846 O847 2.454 . S
U846 O848 2.458 . S
U846 C849 2.984 . S
U846 C850 2.847 . S
U846 C863 2.882 . S
U846 O864 2.441 . S
U846 O865 2.420 . S
U846 O866 2.455 . S
U846 O867 2.449 . S
O847 U846 2.454 . S
O847 C849 1.353 . S
O848 U846 2.458 . S
O848 C849 1.286 . S
C849 U846 2.984 . S
C849 O847 1.353 . S
C849 O848 1.286 . S
C849 C851 1.363 . S
C850 C840 1.465 . S
C850 U846 2.847 . S
C850 O864 1.249 . S
C850 O865 1.202 . S
C851 C849 1.363 . S
C851 C853 1.408 . S
C851 C856 1.342 . S
C852 C853 1.310 . S
C852 C855 1.461 . S
C852 H872 0.932 . S
C853 C851 1.408 . S
C853 C852 1.310 . S
C853 H873 0.930 . S
C854 C855 1.474 . S
C854 C856 1.285 . S
C854 H874 0.929 . S
C855 C852 1.461 . S
C855 C854 1.474 . S
C856 C851 1.342 . S
C856 C854 1.285 . S
C856 H875 0.930 . S
C857 C860 1.424 . S
C857 C862 1.245 . S
C857 C863 1.428 . S
C858 C861 1.260 . S
C858 C862 1.477 . S
C858 H876 0.932 . S
C859 C860 1.384 . S
C859 C861 1.479 . S
C859 H877 0.929 . S
C860 C857 1.424 . S
C860 C859 1.384 . S
C860 H878 0.928 . S
C861 C858 1.260 . S
C861 C859 1.479 . S
C862 C857 1.245 . S
C862 C858 1.477 . S
C862 H879 0.932 . S
C863 U846 2.882 . S
C863 C857 1.428 . S
C863 O866 1.301 . S
C863 O867 1.282 . S
O864 U846 2.441 . S
O864 C850 1.249 . S
O865 U846 2.420 . S
O865 C850 1.202 . S
O866 U846 2.455 . S
O866 C863 1.301 . S
O867 U846 2.449 . S
O867 C863 1.282 . S
H868 C841 0.931 . S
H869 C843 0.929 . S
H870 C844 0.930 . S
H871 C845 0.931 . S
H872 C852 0.932 . S
H873 C853 0.930 . S
H874 C854 0.929 . S
H875 C856 0.930 . S
H876 C858 0.932 . S
H877 C859 0.929 . S
H878 C860 0.928 . S
H879 C862 0.932 . S
C880 C881 1.264 . S
C880 C885 1.479 . S
C880 C890 1.465 . S
C881 C880 1.264 . S
C881 C883 1.339 . S
C881 H908 0.931 . S
C882 C883 1.395 . S
C882 C884 1.320 . S
C883 C881 1.339 . S
C883 C882 1.395 . S
C883 H909 0.929 . S
C884 C882 1.320 . S
C884 C885 1.405 . S
C884 H910 0.930 . S
C885 C880 1.479 . S
C885 C884 1.405 . S
C885 H911 0.931 . S
U886 O887 2.454 . S
U886 O888 2.458 . S
U886 C889 2.984 . S
U886 C890 2.847 . S
U886 C903 2.882 . S
U886 O904 2.441 . S
U886 O905 2.420 . S
U886 O906 2.455 . S
U886 O907 2.449 . S
O887 U886 2.454 . S
O887 C889 1.353 . S
O888 U886 2.458 . S
O888 C889 1.286 . S
C889 U886 2.984 . S
C889 O887 1.353 . S
C889 O888 1.286 . S
C889 C891 1.363 . S
C890 C880 1.465 . S
C890 U886 2.847 . S
C890 O904 1.249 . S
C890 O905 1.202 . S
C891 C889 1.363 . S
C891 C893 1.408 . S
C891 C896 1.342 . S
C892 C893 1.310 . S
C892 C895 1.461 . S
C892 H912 0.932 . S
C893 C891 1.408 . S
C893 C892 1.310 . S
C893 H913 0.930 . S
C894 C895 1.474 . S
C894 C896 1.285 . S
C894 H914 0.929 . S
C895 C892 1.461 . S
C895 C894 1.474 . S
C896 C891 1.342 . S
C896 C894 1.285 . S
C896 H915 0.930 . S
C897 C900 1.424 . S
C897 C902 1.245 . S
C897 C903 1.428 . S
C898 C901 1.260 . S
C898 C902 1.477 . S
C898 H916 0.932 . S
C899 C900 1.384 . S
C899 C901 1.479 . S
C899 H917 0.929 . S
C900 C897 1.424 . S
C900 C899 1.384 . S
C900 H918 0.928 . S
C901 C898 1.260 . S
C901 C899 1.479 . S
C902 C897 1.245 . S
C902 C898 1.477 . S
C902 H919 0.932 . S
C903 U886 2.882 . S
C903 C897 1.428 . S
C903 O906 1.301 . S
C903 O907 1.282 . S
O904 U886 2.441 . S
O904 C890 1.249 . S
O905 U886 2.420 . S
O905 C890 1.202 . S
O906 U886 2.455 . S
O906 C903 1.301 . S
O907 U886 2.449 . S
O907 C903 1.282 . S
H908 C881 0.931 . S
H909 C883 0.929 . S
H910 C884 0.930 . S
H911 C885 0.931 . S
H912 C892 0.932 . S
H913 C893 0.930 . S
H914 C894 0.929 . S
H915 C896 0.930 . S
H916 C898 0.932 . S
H917 C899 0.929 . S
H918 C900 0.928 . S
H919 C902 0.932 . S
C920 C921 1.264 . S
C920 C925 1.479 . S
C920 C930 1.465 . S
C921 C920 1.264 . S
C921 C923 1.339 . S
C921 H948 0.931 . S
C922 C923 1.395 . S
C922 C924 1.320 . S
C923 C921 1.339 . S
C923 C922 1.395 . S
C923 H949 0.929 . S
C924 C922 1.320 . S
C924 C925 1.405 . S
C924 H950 0.930 . S
C925 C920 1.479 . S
C925 C924 1.405 . S
C925 H951 0.931 . S
U926 O927 2.454 . S
U926 O928 2.458 . S
U926 C929 2.984 . S
U926 C930 2.847 . S
U926 C943 2.882 . S
U926 O944 2.441 . S
U926 O945 2.420 . S
U926 O946 2.455 . S
U926 O947 2.449 . S
O927 U926 2.454 . S
O927 C929 1.353 . S
O928 U926 2.458 . S
O928 C929 1.286 . S
C929 U926 2.984 . S
C929 O927 1.353 . S
C929 O928 1.286 . S
C929 C931 1.363 . S
C930 C920 1.465 . S
C930 U926 2.847 . S
C930 O944 1.249 . S
C930 O945 1.202 . S
C931 C929 1.363 . S
C931 C933 1.408 . S
C931 C936 1.342 . S
C932 C933 1.310 . S
C932 C935 1.461 . S
C932 H952 0.932 . S
C933 C931 1.408 . S
C933 C932 1.310 . S
C933 H953 0.930 . S
C934 C935 1.474 . S
C934 C936 1.285 . S
C934 H954 0.929 . S
C935 C932 1.461 . S
C935 C934 1.474 . S
C936 C931 1.342 . S
C936 C934 1.285 . S
C936 H955 0.930 . S
C937 C940 1.424 . S
C937 C942 1.245 . S
C937 C943 1.428 . S
C938 C941 1.260 . S
C938 C942 1.477 . S
C938 H956 0.932 . S
C939 C940 1.384 . S
C939 C941 1.479 . S
C939 H957 0.929 . S
C940 C937 1.424 . S
C940 C939 1.384 . S
C940 H958 0.928 . S
C941 C938 1.260 . S
C941 C939 1.479 . S
C942 C937 1.245 . S
C942 C938 1.477 . S
C942 H959 0.932 . S
C943 U926 2.882 . S
C943 C937 1.428 . S
C943 O946 1.301 . S
C943 O947 1.282 . S
O944 U926 2.441 . S
O944 C930 1.249 . S
O945 U926 2.420 . S
O945 C930 1.202 . S
O946 U926 2.455 . S
O946 C943 1.301 . S
O947 U926 2.449 . S
O947 C943 1.282 . S
H948 C921 0.931 . S
H949 C923 0.929 . S
H950 C924 0.930 . S
H951 C925 0.931 . S
H952 C932 0.932 . S
H953 C933 0.930 . S
H954 C934 0.929 . S
H955 C936 0.930 . S
H956 C938 0.932 . S
H957 C939 0.929 . S
H958 C940 0.928 . S
H959 C942 0.932 . S
C960 C961 1.264 . S
C960 C965 1.479 . S
C960 C970 1.465 . S
C961 C960 1.264 . S
C961 C963 1.339 . S
C961 H988 0.931 . S
C962 C963 1.395 . S
C962 C964 1.320 . S
C963 C961 1.339 . S
C963 C962 1.395 . S
C963 H989 0.929 . S
C964 C962 1.320 . S
C964 C965 1.405 . S
C964 H990 0.930 . S
C965 C960 1.479 . S
C965 C964 1.405 . S
C965 H991 0.931 . S
U966 O967 2.454 . S
U966 O968 2.458 . S
U966 C969 2.984 . S
U966 C970 2.847 . S
U966 C983 2.882 . S
U966 O984 2.441 . S
U966 O985 2.420 . S
U966 O986 2.455 . S
U966 O987 2.449 . S
O967 U966 2.454 . S
O967 C969 1.353 . S
O968 U966 2.458 . S
O968 C969 1.286 . S
C969 U966 2.984 . S
C969 O967 1.353 . S
C969 O968 1.286 . S
C969 C971 1.363 . S
C970 C960 1.465 . S
C970 U966 2.847 . S
C970 O984 1.249 . S
C970 O985 1.202 . S
C971 C969 1.363 . S
C971 C973 1.408 . S
C971 C976 1.342 . S
C972 C973 1.310 . S
C972 C975 1.461 . S
C972 H992 0.932 . S
C973 C971 1.408 . S
C973 C972 1.310 . S
C973 H993 0.930 . S
C974 C975 1.474 . S
C974 C976 1.285 . S
C974 H994 0.929 . S
C975 C972 1.461 . S
C975 C974 1.474 . S
C976 C971 1.342 . S
C976 C974 1.285 . S
C976 H995 0.930 . S
C977 C980 1.424 . S
C977 C982 1.245 . S
C977 C983 1.428 . S
C978 C981 1.260 . S
C978 C982 1.477 . S
C978 H996 0.932 . S
C979 C980 1.384 . S
C979 C981 1.479 . S
C979 H997 0.929 . S
C980 C977 1.424 . S
C980 C979 1.384 . S
C980 H998 0.928 . S
C981 C978 1.260 . S
C981 C979 1.479 . S
C982 C977 1.245 . S
C982 C978 1.477 . S
C982 H999 0.932 . S
C983 U966 2.882 . S
C983 C977 1.428 . S
C983 O986 1.301 . S
C983 O987 1.282 . S
O984 U966 2.441 . S
O984 C970 1.249 . S
O985 U966 2.420 . S
O985 C970 1.202 . S
O986 U966 2.455 . S
O986 C983 1.301 . S
O987 U966 2.449 . S
O987 C983 1.282 . S
H988 C961 0.931 . S
H989 C963 0.929 . S
H990 C964 0.930 . S
H991 C965 0.931 . S
H992 C972 0.932 . S
H993 C973 0.930 . S
H994 C974 0.929 . S
H995 C976 0.930 . S
H996 C978 0.932 . S
H997 C979 0.929 . S
H998 C980 0.928 . S
H999 C982 0.932 . S
C1000 C1001 1.264 . S
C1000 C1005 1.479 . S
C1000 C1010 1.465 . S
C1001 C1000 1.264 . S
C1001 C1003 1.339 . S
C1001 H1028 0.931 . S
C1002 C1003 1.395 . S
C1002 C1004 1.320 . S
C1003 C1001 1.339 . S
C1003 C1002 1.395 . S
C1003 H1029 0.929 . S
C1004 C1002 1.320 . S
C1004 C1005 1.405 . S
C1004 H1030 0.930 . S
C1005 C1000 1.479 . S
C1005 C1004 1.405 . S
C1005 H1031 0.931 . S
U1006 O1007 2.454 . S
U1006 O1008 2.458 . S
U1006 C1009 2.984 . S
U1006 C1010 2.847 . S
U1006 C1023 2.882 . S
U1006 O1024 2.441 . S
U1006 O1025 2.420 . S
U1006 O1026 2.455 . S
U1006 O1027 2.449 . S
O1007 U1006 2.454 . S
O1007 C1009 1.353 . S
O1008 U1006 2.458 . S
O1008 C1009 1.286 . S
C1009 U1006 2.984 . S
C1009 O1007 1.353 . S
C1009 O1008 1.286 . S
C1009 C1011 1.363 . S
C1010 C1000 1.465 . S
C1010 U1006 2.847 . S
C1010 O1024 1.249 . S
C1010 O1025 1.202 . S
C1011 C1009 1.363 . S
C1011 C1013 1.408 . S
C1011 C1016 1.342 . S
C1012 C1013 1.310 . S
C1012 C1015 1.461 . S
C1012 H1032 0.932 . S
C1013 C1011 1.408 . S
C1013 C1012 1.310 . S
C1013 H1033 0.930 . S
C1014 C1015 1.474 . S
C1014 C1016 1.285 . S
C1014 H1034 0.929 . S
C1015 C1012 1.461 . S
C1015 C1014 1.474 . S
C1016 C1011 1.342 . S
C1016 C1014 1.285 . S
C1016 H1035 0.930 . S
C1017 C1020 1.424 . S
C1017 C1022 1.245 . S
C1017 C1023 1.428 . S
C1018 C1021 1.260 . S
C1018 C1022 1.477 . S
C1018 H1036 0.932 . S
C1019 C1020 1.384 . S
C1019 C1021 1.479 . S
C1019 H1037 0.929 . S
C1020 C1017 1.424 . S
C1020 C1019 1.384 . S
C1020 H1038 0.928 . S
C1021 C1018 1.260 . S
C1021 C1019 1.479 . S
C1022 C1017 1.245 . S
C1022 C1018 1.477 . S
C1022 H1039 0.932 . S
C1023 U1006 2.882 . S
C1023 C1017 1.428 . S
C1023 O1026 1.301 . S
C1023 O1027 1.282 . S
O1024 U1006 2.441 . S
O1024 C1010 1.249 . S
O1025 U1006 2.420 . S
O1025 C1010 1.202 . S
O1026 U1006 2.455 . S
O1026 C1023 1.301 . S
O1027 U1006 2.449 . S
O1027 C1023 1.282 . S
H1028 C1001 0.931 . S
H1029 C1003 0.929 . S
H1030 C1004 0.930 . S
H1031 C1005 0.931 . S
H1032 C1012 0.932 . S
H1033 C1013 0.930 . S
H1034 C1014 0.929 . S
H1035 C1016 0.930 . S
H1036 C1018 0.932 . S
H1037 C1019 0.929 . S
H1038 C1020 0.928 . S
H1039 C1022 0.932 . S
C1040 C1041 1.264 . S
C1040 C1045 1.479 . S
C1040 C1050 1.465 . S
C1041 C1040 1.264 . S
C1041 C1043 1.339 . S
C1041 H1068 0.931 . S
C1042 C1043 1.395 . S
C1042 C1044 1.320 . S
C1043 C1041 1.339 . S
C1043 C1042 1.395 . S
C1043 H1069 0.929 . S
C1044 C1042 1.320 . S
C1044 C1045 1.405 . S
C1044 H1070 0.930 . S
C1045 C1040 1.479 . S
C1045 C1044 1.405 . S
C1045 H1071 0.931 . S
U1046 O1047 2.454 . S
U1046 O1048 2.458 . S
U1046 C1049 2.984 . S
U1046 C1050 2.847 . S
U1046 C1063 2.882 . S
U1046 O1064 2.441 . S
U1046 O1065 2.420 . S
U1046 O1066 2.455 . S
U1046 O1067 2.449 . S
O1047 U1046 2.454 . S
O1047 C1049 1.353 . S
O1048 U1046 2.458 . S
O1048 C1049 1.286 . S
C1049 U1046 2.984 . S
C1049 O1047 1.353 . S
C1049 O1048 1.286 . S
C1049 C1051 1.363 . S
C1050 C1040 1.465 . S
C1050 U1046 2.847 . S
C1050 O1064 1.249 . S
C1050 O1065 1.202 . S
C1051 C1049 1.363 . S
C1051 C1053 1.408 . S
C1051 C1056 1.342 . S
C1052 C1053 1.310 . S
C1052 C1055 1.461 . S
C1052 H1072 0.932 . S
C1053 C1051 1.408 . S
C1053 C1052 1.310 . S
C1053 H1073 0.930 . S
C1054 C1055 1.474 . S
C1054 C1056 1.285 . S
C1054 H1074 0.929 . S
C1055 C1052 1.461 . S
C1055 C1054 1.474 . S
C1056 C1051 1.342 . S
C1056 C1054 1.285 . S
C1056 H1075 0.930 . S
C1057 C1060 1.424 . S
C1057 C1062 1.245 . S
C1057 C1063 1.428 . S
C1058 C1061 1.260 . S
C1058 C1062 1.477 . S
C1058 H1076 0.932 . S
C1059 C1060 1.384 . S
C1059 C1061 1.479 . S
C1059 H1077 0.929 . S
C1060 C1057 1.424 . S
C1060 C1059 1.384 . S
C1060 H1078 0.928 . S
C1061 C1058 1.260 . S
C1061 C1059 1.479 . S
C1062 C1057 1.245 . S
C1062 C1058 1.477 . S
C1062 H1079 0.932 . S
C1063 U1046 2.882 . S
C1063 C1057 1.428 . S
C1063 O1066 1.301 . S
C1063 O1067 1.282 . S
O1064 U1046 2.441 . S
O1064 C1050 1.249 . S
O1065 U1046 2.420 . S
O1065 C1050 1.202 . S
O1066 U1046 2.455 . S
O1066 C1063 1.301 . S
O1067 U1046 2.449 . S
O1067 C1063 1.282 . S
H1068 C1041 0.931 . S
H1069 C1043 0.929 . S
H1070 C1044 0.930 . S
H1071 C1045 0.931 . S
H1072 C1052 0.932 . S
H1073 C1053 0.930 . S
H1074 C1054 0.929 . S
H1075 C1056 0.930 . S
H1076 C1058 0.932 . S
H1077 C1059 0.929 . S
H1078 C1060 0.928 . S
H1079 C1062 0.932 . S
C1080 C1081 1.264 . S
C1080 C1085 1.479 . S
C1080 C1090 1.465 . S
C1081 C1080 1.264 . S
C1081 C1083 1.339 . S
C1081 H1108 0.931 . S
C1082 C1083 1.395 . S
C1082 C1084 1.320 . S
C1083 C1081 1.339 . S
C1083 C1082 1.395 . S
C1083 H1109 0.929 . S
C1084 C1082 1.320 . S
C1084 C1085 1.405 . S
C1084 H1110 0.930 . S
C1085 C1080 1.479 . S
C1085 C1084 1.405 . S
C1085 H1111 0.931 . S
U1086 O1087 2.454 . S
U1086 O1088 2.458 . S
U1086 C1089 2.984 . S
U1086 C1090 2.847 . S
U1086 C1103 2.882 . S
U1086 O1104 2.441 . S
U1086 O1105 2.420 . S
U1086 O1106 2.455 . S
U1086 O1107 2.449 . S
O1087 U1086 2.454 . S
O1087 C1089 1.353 . S
O1088 U1086 2.458 . S
O1088 C1089 1.286 . S
C1089 U1086 2.984 . S
C1089 O1087 1.353 . S
C1089 O1088 1.286 . S
C1089 C1091 1.363 . S
C1090 C1080 1.465 . S
C1090 U1086 2.847 . S
C1090 O1104 1.249 . S
C1090 O1105 1.202 . S
C1091 C1089 1.363 . S
C1091 C1093 1.408 . S
C1091 C1096 1.342 . S
C1092 C1093 1.310 . S
C1092 C1095 1.461 . S
C1092 H1112 0.932 . S
C1093 C1091 1.408 . S
C1093 C1092 1.310 . S
C1093 H1113 0.930 . S
C1094 C1095 1.474 . S
C1094 C1096 1.285 . S
C1094 H1114 0.929 . S
C1095 C1092 1.461 . S
C1095 C1094 1.474 . S
C1096 C1091 1.342 . S
C1096 C1094 1.285 . S
C1096 H1115 0.930 . S
C1097 C1100 1.424 . S
C1097 C1102 1.245 . S
C1097 C1103 1.428 . S
C1098 C1101 1.260 . S
C1098 C1102 1.477 . S
C1098 H1116 0.932 . S
C1099 C1100 1.384 . S
C1099 C1101 1.479 . S
C1099 H1117 0.929 . S
C1100 C1097 1.424 . S
C1100 C1099 1.384 . S
C1100 H1118 0.928 . S
C1101 C1098 1.260 . S
C1101 C1099 1.479 . S
C1102 C1097 1.245 . S
C1102 C1098 1.477 . S
C1102 H1119 0.932 . S
C1103 U1086 2.882 . S
C1103 C1097 1.428 . S
C1103 O1106 1.301 . S
C1103 O1107 1.282 . S
O1104 U1086 2.441 . S
O1104 C1090 1.249 . S
O1105 U1086 2.420 . S
O1105 C1090 1.202 . S
O1106 U1086 2.455 . S
O1106 C1103 1.301 . S
O1107 U1086 2.449 . S
O1107 C1103 1.282 . S
H1108 C1081 0.931 . S
H1109 C1083 0.929 . S
H1110 C1084 0.930 . S
H1111 C1085 0.931 . S
H1112 C1092 0.932 . S
H1113 C1093 0.930 . S
H1114 C1094 0.929 . S
H1115 C1096 0.930 . S
H1116 C1098 0.932 . S
H1117 C1099 0.929 . S
H1118 C1100 0.928 . S
H1119 C1102 0.932 . S
C1120 C1121 1.264 . S
C1120 C1125 1.479 . S
C1120 C1130 1.465 . S
C1121 C1120 1.264 . S
C1121 C1123 1.339 . S
C1121 H1148 0.931 . S
C1122 C1123 1.395 . S
C1122 C1124 1.320 . S
C1123 C1121 1.339 . S
C1123 C1122 1.395 . S
C1123 H1149 0.929 . S
C1124 C1122 1.320 . S
C1124 C1125 1.405 . S
C1124 H1150 0.930 . S
C1125 C1120 1.479 . S
C1125 C1124 1.405 . S
C1125 H1151 0.931 . S
U1126 O1127 2.454 . S
U1126 O1128 2.458 . S
U1126 C1129 2.984 . S
U1126 C1130 2.847 . S
U1126 C1143 2.882 . S
U1126 O1144 2.441 . S
U1126 O1145 2.420 . S
U1126 O1146 2.455 . S
U1126 O1147 2.449 . S
O1127 U1126 2.454 . S
O1127 C1129 1.353 . S
O1128 U1126 2.458 . S
O1128 C1129 1.286 . S
C1129 U1126 2.984 . S
C1129 O1127 1.353 . S
C1129 O1128 1.286 . S
C1129 C1131 1.363 . S
C1130 C1120 1.465 . S
C1130 U1126 2.847 . S
C1130 O1144 1.249 . S
C1130 O1145 1.202 . S
C1131 C1129 1.363 . S
C1131 C1133 1.408 . S
C1131 C1136 1.342 . S
C1132 C1133 1.310 . S
C1132 C1135 1.461 . S
C1132 H1152 0.932 . S
C1133 C1131 1.408 . S
C1133 C1132 1.310 . S
C1133 H1153 0.930 . S
C1134 C1135 1.474 . S
C1134 C1136 1.285 . S
C1134 H1154 0.929 . S
C1135 C1132 1.461 . S
C1135 C1134 1.474 . S
C1136 C1131 1.342 . S
C1136 C1134 1.285 . S
C1136 H1155 0.930 . S
C1137 C1140 1.424 . S
C1137 C1142 1.245 . S
C1137 C1143 1.428 . S
C1138 C1141 1.260 . S
C1138 C1142 1.477 . S
C1138 H1156 0.932 . S
C1139 C1140 1.384 . S
C1139 C1141 1.479 . S
C1139 H1157 0.929 . S
C1140 C1137 1.424 . S
C1140 C1139 1.384 . S
C1140 H1158 0.928 . S
C1141 C1138 1.260 . S
C1141 C1139 1.479 . S
C1142 C1137 1.245 . S
C1142 C1138 1.477 . S
C1142 H1159 0.932 . S
C1143 U1126 2.882 . S
C1143 C1137 1.428 . S
C1143 O1146 1.301 . S
C1143 O1147 1.282 . S
O1144 U1126 2.441 . S
O1144 C1130 1.249 . S
O1145 U1126 2.420 . S
O1145 C1130 1.202 . S
O1146 U1126 2.455 . S
O1146 C1143 1.301 . S
O1147 U1126 2.449 . S
O1147 C1143 1.282 . S
H1148 C1121 0.931 . S
H1149 C1123 0.929 . S
H1150 C1124 0.930 . S
H1151 C1125 0.931 . S
H1152 C1132 0.932 . S
H1153 C1133 0.930 . S
H1154 C1134 0.929 . S
H1155 C1136 0.930 . S
H1156 C1138 0.932 . S
H1157 C1139 0.929 . S
H1158 C1140 0.928 . S
H1159 C1142 0.932 . S
C1160 C1161 1.264 . S
C1160 C1165 1.479 . S
C1160 C1170 1.465 . S
C1161 C1160 1.264 . S
C1161 C1163 1.339 . S
C1161 H1188 0.931 . S
C1162 C1163 1.395 . S
C1162 C1164 1.320 . S
C1163 C1161 1.339 . S
C1163 C1162 1.395 . S
C1163 H1189 0.929 . S
C1164 C1162 1.320 . S
C1164 C1165 1.405 . S
C1164 H1190 0.930 . S
C1165 C1160 1.479 . S
C1165 C1164 1.405 . S
C1165 H1191 0.931 . S
U1166 O1167 2.454 . S
U1166 O1168 2.458 . S
U1166 C1169 2.984 . S
U1166 C1170 2.847 . S
U1166 C1183 2.882 . S
U1166 O1184 2.441 . S
U1166 O1185 2.420 . S
U1166 O1186 2.455 . S
U1166 O1187 2.449 . S
O1167 U1166 2.454 . S
O1167 C1169 1.353 . S
O1168 U1166 2.458 . S
O1168 C1169 1.286 . S
C1169 U1166 2.984 . S
C1169 O1167 1.353 . S
C1169 O1168 1.286 . S
C1169 C1171 1.363 . S
C1170 C1160 1.465 . S
C1170 U1166 2.847 . S
C1170 O1184 1.249 . S
C1170 O1185 1.202 . S
C1171 C1169 1.363 . S
C1171 C1173 1.408 . S
C1171 C1176 1.342 . S
C1172 C1173 1.310 . S
C1172 C1175 1.461 . S
C1172 H1192 0.932 . S
C1173 C1171 1.408 . S
C1173 C1172 1.310 . S
C1173 H1193 0.930 . S
C1174 C1175 1.474 . S
C1174 C1176 1.285 . S
C1174 H1194 0.929 . S
C1175 C1172 1.461 . S
C1175 C1174 1.474 . S
C1176 C1171 1.342 . S
C1176 C1174 1.285 . S
C1176 H1195 0.930 . S
C1177 C1180 1.424 . S
C1177 C1182 1.245 . S
C1177 C1183 1.428 . S
C1178 C1181 1.260 . S
C1178 C1182 1.477 . S
C1178 H1196 0.932 . S
C1179 C1180 1.384 . S
C1179 C1181 1.479 . S
C1179 H1197 0.929 . S
C1180 C1177 1.424 . S
C1180 C1179 1.384 . S
C1180 H1198 0.928 . S
C1181 C1178 1.260 . S
C1181 C1179 1.479 . S
C1182 C1177 1.245 . S
C1182 C1178 1.477 . S
C1182 H1199 0.932 . S
C1183 U1166 2.882 . S
C1183 C1177 1.428 . S
C1183 O1186 1.301 . S
C1183 O1187 1.282 . S
O1184 U1166 2.441 . S
O1184 C1170 1.249 . S
O1185 U1166 2.420 . S
O1185 C1170 1.202 . S
O1186 U1166 2.455 . S
O1186 C1183 1.301 . S
O1187 U1166 2.449 . S
O1187 C1183 1.282 . S
H1188 C1161 0.931 . S
H1189 C1163 0.929 . S
H1190 C1164 0.930 . S
H1191 C1165 0.931 . S
H1192 C1172 0.932 . S
H1193 C1173 0.930 . S
H1194 C1174 0.929 . S
H1195 C1176 0.930 . S
H1196 C1178 0.932 . S
H1197 C1179 0.929 . S
H1198 C1180 0.928 . S
H1199 C1182 0.932 . S
C1200 C1201 1.264 . S
C1200 C1205 1.479 . S
C1200 C1210 1.465 . S
C1201 C1200 1.264 . S
C1201 C1203 1.339 . S
C1201 H1228 0.931 . S
C1202 C1203 1.395 . S
C1202 C1204 1.320 . S
C1203 C1201 1.339 . S
C1203 C1202 1.395 . S
C1203 H1229 0.929 . S
C1204 C1202 1.320 . S
C1204 C1205 1.405 . S
C1204 H1230 0.930 . S
C1205 C1200 1.479 . S
C1205 C1204 1.405 . S
C1205 H1231 0.931 . S
U1206 O1207 2.454 . S
U1206 O1208 2.458 . S
U1206 C1209 2.984 . S
U1206 C1210 2.847 . S
U1206 C1223 2.882 . S
U1206 O1224 2.441 . S
U1206 O1225 2.420 . S
U1206 O1226 2.455 . S
U1206 O1227 2.449 . S
O1207 U1206 2.454 . S
O1207 C1209 1.353 . S
O1208 U1206 2.458 . S
O1208 C1209 1.286 . S
C1209 U1206 2.984 . S
C1209 O1207 1.353 . S
C1209 O1208 1.286 . S
C1209 C1211 1.363 . S
C1210 C1200 1.465 . S
C1210 U1206 2.847 . S
C1210 O1224 1.249 . S
C1210 O1225 1.202 . S
C1211 C1209 1.363 . S
C1211 C1213 1.408 . S
C1211 C1216 1.342 . S
C1212 C1213 1.310 . S
C1212 C1215 1.461 . S
C1212 H1232 0.932 . S
C1213 C1211 1.408 . S
C1213 C1212 1.310 . S
C1213 H1233 0.930 . S
C1214 C1215 1.474 . S
C1214 C1216 1.285 . S
C1214 H1234 0.929 . S
C1215 C1212 1.461 . S
C1215 C1214 1.474 . S
C1216 C1211 1.342 . S
C1216 C1214 1.285 . S
C1216 H1235 0.930 . S
C1217 C1220 1.424 . S
C1217 C1222 1.245 . S
C1217 C1223 1.428 . S
C1218 C1221 1.260 . S
C1218 C1222 1.477 . S
C1218 H1236 0.932 . S
C1219 C1220 1.384 . S
C1219 C1221 1.479 . S
C1219 H1237 0.929 . S
C1220 C1217 1.424 . S
C1220 C1219 1.384 . S
C1220 H1238 0.928 . S
C1221 C1218 1.260 . S
C1221 C1219 1.479 . S
C1222 C1217 1.245 . S
C1222 C1218 1.477 . S
C1222 H1239 0.932 . S
C1223 U1206 2.882 . S
C1223 C1217 1.428 . S
C1223 O1226 1.301 . S
C1223 O1227 1.282 . S
O1224 U1206 2.441 . S
O1224 C1210 1.249 . S
O1225 U1206 2.420 . S
O1225 C1210 1.202 . S
O1226 U1206 2.455 . S
O1226 C1223 1.301 . S
O1227 U1206 2.449 . S
O1227 C1223 1.282 . S
H1228 C1201 0.931 . S
H1229 C1203 0.929 . S
H1230 C1204 0.930 . S
H1231 C1205 0.931 . S
H1232 C1212 0.932 . S
H1233 C1213 0.930 . S
H1234 C1214 0.929 . S
H1235 C1216 0.930 . S
H1236 C1218 0.932 . S
H1237 C1219 0.929 . S
H1238 C1220 0.928 . S
H1239 C1222 0.932 . S
C1240 C1241 1.264 . S
C1240 C1245 1.479 . S
C1240 C1250 1.465 . S
C1241 C1240 1.264 . S
C1241 C1243 1.339 . S
C1241 H1268 0.931 . S
C1242 C1243 1.395 . S
C1242 C1244 1.320 . S
C1243 C1241 1.339 . S
C1243 C1242 1.395 . S
C1243 H1269 0.929 . S
C1244 C1242 1.320 . S
C1244 C1245 1.405 . S
C1244 H1270 0.930 . S
C1245 C1240 1.479 . S
C1245 C1244 1.405 . S
C1245 H1271 0.931 . S
U1246 O1247 2.454 . S
U1246 O1248 2.458 . S
U1246 C1249 2.984 . S
U1246 C1250 2.847 . S
U1246 C1263 2.882 . S
U1246 O1264 2.441 . S
U1246 O1265 2.420 . S
U1246 O1266 2.455 . S
U1246 O1267 2.449 . S
O1247 U1246 2.454 . S
O1247 C1249 1.353 . S
O1248 U1246 2.458 . S
O1248 C1249 1.286 . S
C1249 U1246 2.984 . S
C1249 O1247 1.353 . S
C1249 O1248 1.286 . S
C1249 C1251 1.363 . S
C1250 C1240 1.465 . S
C1250 U1246 2.847 . S
C1250 O1264 1.249 . S
C1250 O1265 1.202 . S
C1251 C1249 1.363 . S
C1251 C1253 1.408 . S
C1251 C1256 1.342 . S
C1252 C1253 1.310 . S
C1252 C1255 1.461 . S
C1252 H1272 0.932 . S
C1253 C1251 1.408 . S
C1253 C1252 1.310 . S
C1253 H1273 0.930 . S
C1254 C1255 1.474 . S
C1254 C1256 1.285 . S
C1254 H1274 0.929 . S
C1255 C1252 1.461 . S
C1255 C1254 1.474 . S
C1256 C1251 1.342 . S
C1256 C1254 1.285 . S
C1256 H1275 0.930 . S
C1257 C1260 1.424 . S
C1257 C1262 1.245 . S
C1257 C1263 1.428 . S
C1258 C1261 1.260 . S
C1258 C1262 1.477 . S
C1258 H1276 0.932 . S
C1259 C1260 1.384 . S
C1259 C1261 1.479 . S
C1259 H1277 0.929 . S
C1260 C1257 1.424 . S
C1260 C1259 1.384 . S
C1260 H1278 0.928 . S
C1261 C1258 1.260 . S
C1261 C1259 1.479 . S
C1262 C1257 1.245 . S
C1262 C1258 1.477 . S
C1262 H1279 0.932 . S
C1263 U1246 2.882 . S
C1263 C1257 1.428 . S
C1263 O1266 1.301 . S
C1263 O1267 1.282 . S
O1264 U1246 2.441 . S
O1264 C1250 1.249 . S
O1265 U1246 2.420 . S
O1265 C1250 1.202 . S
O1266 U1246 2.455 . S
O1266 C1263 1.301 . S
O1267 U1246 2.449 . S
O1267 C1263 1.282 . S
H1268 C1241 0.931 . S
H1269 C1243 0.929 . S
H1270 C1244 0.930 . S
H1271 C1245 0.931 . S
H1272 C1252 0.932 . S
H1273 C1253 0.930 . S
H1274 C1254 0.929 . S
H1275 C1256 0.930 . S
H1276 C1258 0.932 . S
H1277 C1259 0.929 . S
H1278 C1260 0.928 . S
H1279 C1262 0.932 . S
H1280 C1286 0.930 1_545 S
H1281 C1289 0.930 . S
H1282 C1290 0.930 . S
H1283 C1291 0.930 . S
H1284 C1294 0.930 . S
H1285 C1295 0.930 . S
C1286 H1280 0.930 1_565 S
C1286 C1287 1.355 . S
C1286 C1288 1.415 . S
C1287 C1286 1.355 . S
C1287 C1289 1.419 . S
C1288 C1286 1.415 . S
C1288 C1293 1.425 . S
C1288 C1295 1.409 1_565 S
C1289 H1281 0.930 . S
C1289 C1287 1.419 . S
C1289 C1290 1.362 . S
C1290 H1282 0.930 . S
C1290 C1289 1.362 . S
C1290 C1293 1.409 . S
C1291 H1283 0.930 . S
C1291 C1292 1.355 . S
C1291 C1293 1.415 . S
C1292 C1291 1.355 . S
C1292 C1294 1.419 1_565 S
C1293 C1288 1.425 . S
C1293 C1290 1.409 . S
C1293 C1291 1.415 . S
C1294 H1284 0.930 . S
C1294 C1292 1.419 1_545 S
C1294 C1295 1.362 . S
C1295 H1285 0.930 . S
C1295 C1288 1.409 1_545 S
C1295 C1294 1.362 . S
H1296 C1302 0.930 . S
H1297 C1305 0.930 . S
H1298 C1306 0.930 . S
H1299 C1307 0.930 . S
H1300 C1310 0.930 . S
H1301 C1311 0.930 . S
C1302 H1296 0.930 . S
C1302 C1303 1.355 . S
C1302 C1304 1.415 . S
C1303 C1302 1.355 . S
C1303 C1305 1.419 . S
C1304 C1302 1.415 . S
C1304 C1309 1.425 1_545 S
C1304 C1311 1.409 . S
C1305 H1297 0.930 . S
C1305 C1303 1.419 . S
C1305 C1306 1.362 1_545 S
C1306 H1298 0.930 . S
C1306 C1305 1.362 1_565 S
C1306 C1309 1.409 . S
C1307 H1299 0.930 . S
C1307 C1308 1.355 . S
C1307 C1309 1.415 . S
C1308 C1307 1.355 . S
C1308 C1310 1.419 . S
C1309 C1304 1.425 1_565 S
C1309 C1306 1.409 . S
C1309 C1307 1.415 . S
C1310 H1300 0.930 . S
C1310 C1308 1.419 . S
C1310 C1311 1.362 1_565 S
C1311 H1301 0.930 . S
C1311 C1304 1.409 . S
C1311 C1310 1.362 1_545 S
H1312 C1318 0.930 . S
H1313 C1321 0.930 . S
H1314 C1322 0.930 . S
H1315 C1323 0.930 1_565 S
H1316 C1326 0.930 . S
H1317 C1327 0.930 . S
C1318 H1312 0.930 . S
C1318 C1319 1.355 . S
C1318 C1320 1.415 . S
C1319 C1318 1.355 . S
C1319 C1321 1.419 1_545 S
C1320 C1318 1.415 . S
C1320 C1325 1.425 . S
C1320 C1327 1.409 . S
C1321 H1313 0.930 . S
C1321 C1319 1.419 1_565 S
C1321 C1322 1.362 . S
C1322 H1314 0.930 . S
C1322 C1321 1.362 . S
C1322 C1325 1.409 1_565 S
C1323 H1315 0.930 1_545 S
C1323 C1324 1.355 . S
C1323 C1325 1.415 . S
C1324 C1323 1.355 . S
C1324 C1326 1.419 . S
C1325 C1320 1.425 . S
C1325 C1322 1.409 1_545 S
C1325 C1323 1.415 . S
C1326 H1316 0.930 . S
C1326 C1324 1.419 . S
C1326 C1327 1.362 . S
C1327 H1317 0.930 . S
C1327 C1320 1.409 . S
C1327 C1326 1.362 . S
H1328 C1334 0.930 . S
H1329 C1337 0.930 . S
H1330 C1338 0.930 . S
H1331 C1339 0.930 . S
H1332 C1342 0.930 . S
H1333 C1343 0.930 . S
C1334 H1328 0.930 . S
C1334 C1335 1.355 . S
C1334 C1336 1.321 1_554 S
C1335 C1334 1.355 . S
C1335 C1337 1.419 1_545 S
C1336 C1334 1.321 1_556 S
C1336 C1341 1.395 1_546 S
C1336 C1343 1.532 . S
C1337 H1329 0.930 . S
C1337 C1335 1.419 1_565 S
C1337 C1338 1.363 . S
C1338 H1330 0.930 . S
C1338 C1337 1.363 . S
C1338 C1341 1.532 . S
C1339 H1331 0.930 . S
C1339 C1340 1.355 . S
C1339 C1341 1.321 1_556 S
C1340 C1339 1.355 . S
C1340 C1342 1.419 1_565 S
C1341 C1336 1.395 1_564 S
C1341 C1338 1.532 . S
C1341 C1339 1.321 1_554 S
C1342 H1332 0.930 . S
C1342 C1340 1.419 1_545 S
C1342 C1343 1.363 . S
C1343 H1333 0.930 . S
C1343 C1336 1.532 . S
C1343 C1342 1.363 . S
H1344 C1350 0.930 . S
H1345 C1353 0.930 . S
H1346 C1354 0.930 . S
H1347 C1355 0.930 1_565 S
H1348 C1358 0.930 . S
H1349 C1359 0.930 . S
C1350 H1344 0.930 . S
C1350 C1351 1.355 . S
C1350 C1352 1.415 . S
C1351 C1350 1.355 . S
C1351 C1353 1.419 1_545 S
C1352 C1350 1.415 . S
C1352 C1357 1.425 . S
C1352 C1359 1.409 . S
C1353 H1345 0.930 . S
C1353 C1351 1.419 1_565 S
C1353 C1354 1.362 . S
C1354 H1346 0.930 . S
C1354 C1353 1.362 . S
C1354 C1357 1.409 1_565 S
C1355 H1347 0.930 1_545 S
C1355 C1356 1.355 . S
C1355 C1357 1.415 . S
C1356 C1355 1.355 . S
C1356 C1358 1.419 . S
C1357 C1352 1.425 . S
C1357 C1354 1.409 1_545 S
C1357 C1355 1.415 . S
C1358 H1348 0.930 . S
C1358 C1356 1.419 . S
C1358 C1359 1.362 . S
C1359 H1349 0.930 . S
C1359 C1352 1.409 . S
C1359 C1358 1.362 . S
H1360 C1366 0.930 . S
H1361 C1369 0.934 . S
H1362 C1370 0.930 . S
H1363 C1371 0.930 . S
H1364 C1374 0.934 . S
H1365 C1375 0.930 . S
C1366 H1360 0.930 . S
C1366 C1367 1.355 . S
C1366 C1368 1.415 . S
C1367 C1366 1.355 . S
C1367 C1369 1.402 1_565 S
C1368 C1366 1.415 . S
C1368 C1373 1.425 1_565 S
C1368 C1375 1.409 . S
C1369 H1361 0.934 . S
C1369 C1367 1.402 1_545 S
C1369 C1370 1.375 . S
C1370 H1362 0.930 . S
C1370 C1369 1.375 . S
C1370 C1373 1.409 . S
C1371 H1363 0.930 . S
C1371 C1372 1.355 . S
C1371 C1373 1.415 . S
C1372 C1371 1.355 . S
C1372 C1374 1.402 1_545 S
C1373 C1368 1.425 1_545 S
C1373 C1370 1.409 . S
C1373 C1371 1.415 . S
C1374 H1364 0.934 . S
C1374 C1372 1.402 1_565 S
C1374 C1375 1.375 . S
C1375 H1365 0.930 . S
C1375 C1368 1.409 . S
C1375 C1374 1.375 . S
H1376 C1382 0.930 . S
H1377 C1385 0.930 . S
H1378 C1386 0.930 . S
H1379 C1387 0.930 . S
H1380 C1390 0.930 . S
H1381 C1391 0.930 . S
C1382 H1376 0.930 . S
C1382 C1383 1.355 1_545 S
C1382 C1384 1.415 1_545 S
C1383 C1382 1.355 1_565 S
C1383 C1385 1.419 . S
C1384 C1382 1.415 1_565 S
C1384 C1389 1.425 . S
C1384 C1391 1.409 1_565 S
C1385 H1377 0.930 . S
C1385 C1383 1.419 . S
C1385 C1386 1.362 . S
C1386 H1378 0.930 . S
C1386 C1385 1.362 . S
C1386 C1389 1.409 . S
C1387 H1379 0.930 . S
C1387 C1388 1.355 . S
C1387 C1389 1.415 . S
C1388 C1387 1.355 . S
C1388 C1390 1.419 1_565 S
C1389 C1384 1.425 . S
C1389 C1386 1.409 . S
C1389 C1387 1.415 . S
C1390 H1380 0.930 . S
C1390 C1388 1.419 1_545 S
C1390 C1391 1.362 . S
C1391 H1381 0.930 . S
C1391 C1384 1.409 1_545 S
C1391 C1390 1.362 . S
H1392 C1398 0.930 . S
H1393 C1401 0.930 . S
H1394 C1402 0.930 . S
H1395 C1403 0.930 . S
H1396 C1406 0.930 . S
H1397 C1407 0.930 . S
C1398 H1392 0.930 . S
C1398 C1399 1.355 . S
C1398 C1400 1.415 1_554 S
C1399 C1398 1.355 . S
C1399 C1401 1.419 1_545 S
C1400 C1398 1.415 1_556 S
C1400 C1405 1.425 1_546 S
C1400 C1407 1.409 . S
C1401 H1393 0.930 . S
C1401 C1399 1.419 1_565 S
C1401 C1402 1.362 . S
C1402 H1394 0.930 . S
C1402 C1401 1.362 . S
C1402 C1405 1.409 . S
C1403 H1395 0.930 . S
C1403 C1404 1.355 . S
C1403 C1405 1.415 1_556 S
C1404 C1403 1.355 . S
C1404 C1406 1.419 1_565 S
C1405 C1400 1.425 1_564 S
C1405 C1402 1.409 . S
C1405 C1403 1.415 1_554 S
C1406 H1396 0.930 . S
C1406 C1404 1.419 1_545 S
C1406 C1407 1.362 . S
C1407 H1397 0.930 . S
C1407 C1400 1.409 . S
C1407 C1406 1.362 . S
H1408 C1414 0.930 . S
H1409 C1417 0.930 . S
H1410 C1418 0.930 . S
H1411 C1419 0.930 . S
H1412 C1422 0.930 . S
H1413 C1423 0.930 . S
C1414 H1408 0.930 . S
C1414 C1415 1.355 . S
C1414 C1416 1.415 . S
C1415 C1414 1.355 . S
C1415 C1417 1.419 . S
C1416 C1414 1.415 . S
C1416 C1421 1.425 . S
C1416 C1423 1.409 . S
C1417 H1409 0.930 . S
C1417 C1415 1.419 . S
C1417 C1418 1.362 . S
C1418 H1410 0.930 . S
C1418 C1417 1.362 . S
C1418 C1421 1.409 . S
C1419 H1411 0.930 . S
C1419 C1420 1.355 . S
C1419 C1421 1.415 . S
C1420 C1419 1.355 . S
C1420 C1422 1.419 . S
C1421 C1416 1.425 . S
C1421 C1418 1.409 . S
C1421 C1419 1.415 . S
C1422 H1412 0.930 . S
C1422 C1420 1.419 . S
C1422 C1423 1.362 . S
C1423 H1413 0.930 . S
C1423 C1416 1.409 . S
C1423 C1422 1.362 . S
H1424 C1430 0.930 . S
H1425 C1433 0.930 . S
H1426 C1434 0.888 1_554 S
H1427 C1435 0.930 . S
H1428 C1438 0.930 . S
H1429 C1439 0.888 1_556 S
C1430 H1424 0.930 . S
C1430 C1431 1.355 . S
C1430 C1432 1.415 . S
C1431 C1430 1.355 . S
C1431 C1433 1.419 . S
C1432 C1430 1.415 . S
C1432 C1437 1.425 1_556 S
C1432 C1439 1.383 1_556 S
C1433 H1425 0.930 . S
C1433 C1431 1.419 . S
C1433 C1434 1.435 . S
C1434 H1426 0.888 1_556 S
C1434 C1433 1.435 . S
C1434 C1437 1.383 1_556 S
C1435 H1427 0.930 . S
C1435 C1436 1.355 . S
C1435 C1437 1.415 . S
C1436 C1435 1.355 . S
C1436 C1438 1.419 . S
C1437 C1432 1.425 1_554 S
C1437 C1434 1.383 1_554 S
C1437 C1435 1.415 . S
C1438 H1428 0.930 . S
C1438 C1436 1.419 . S
C1438 C1439 1.435 . S
C1439 H1429 0.888 1_554 S
C1439 C1432 1.383 1_554 S
C1439 C1438 1.435 . S
H1440 C1446 0.930 . S
H1441 C1449 0.930 . S
H1442 C1450 0.930 . S
H1443 C1451 0.930 . S
H1444 C1454 0.930 . S
H1445 C1455 0.930 . S
C1446 H1440 0.930 . S
C1446 C1447 1.355 . S
C1446 C1448 1.415 . S
C1447 C1446 1.355 . S
C1447 C1449 1.419 . S
C1448 C1446 1.415 . S
C1448 C1453 1.425 . S
C1448 C1455 1.409 . S
C1449 H1441 0.930 . S
C1449 C1447 1.419 . S
C1449 C1450 1.362 . S
C1450 H1442 0.930 . S
C1450 C1449 1.362 . S
C1450 C1453 1.409 . S
C1451 H1443 0.930 . S
C1451 C1452 1.355 . S
C1451 C1453 1.415 . S
C1452 C1451 1.355 . S
C1452 C1454 1.419 . S
C1453 C1448 1.425 . S
C1453 C1450 1.409 . S
C1453 C1451 1.415 . S
C1454 H1444 0.930 . S
C1454 C1452 1.419 . S
C1454 C1455 1.362 . S
C1455 H1445 0.930 . S
C1455 C1448 1.409 . S
C1455 C1454 1.362 . S
H1456 C1462 0.930 . S
H1457 C1465 0.930 . S
H1458 C1466 0.930 . S
H1459 C1467 0.930 . S
H1460 C1470 0.930 . S
H1461 C1471 0.930 . S
C1462 H1456 0.930 . S
C1462 C1463 1.355 . S
C1462 C1464 1.415 . S
C1463 C1462 1.355 . S
C1463 C1465 1.419 . S
C1464 C1462 1.415 . S
C1464 C1469 1.425 . S
C1464 C1471 1.409 . S
C1465 H1457 0.930 . S
C1465 C1463 1.419 . S
C1465 C1466 1.362 . S
C1466 H1458 0.930 . S
C1466 C1465 1.362 . S
C1466 C1469 1.409 . S
C1467 H1459 0.930 . S
C1467 C1468 1.355 . S
C1467 C1469 1.415 . S
C1468 C1467 1.355 . S
C1468 C1470 1.419 . S
C1469 C1464 1.425 . S
C1469 C1466 1.409 . S
C1469 C1467 1.415 . S
C1470 H1460 0.930 . S
C1470 C1468 1.419 . S
C1470 C1471 1.362 . S
C1471 H1461 0.930 . S
C1471 C1464 1.409 . S
C1471 C1470 1.362 . S
H1472 C1478 0.930 . S
H1473 C1481 0.930 . S
H1474 C1482 0.930 . S
H1475 C1483 0.930 . S
H1476 C1486 0.930 . S
H1477 C1487 0.930 . S
C1478 H1472 0.930 . S
C1478 C1479 1.355 . S
C1478 C1480 1.415 . S
C1479 C1478 1.355 . S
C1479 C1481 1.419 . S
C1480 C1478 1.415 . S
C1480 C1485 1.425 . S
C1480 C1487 1.409 . S
C1481 H1473 0.930 . S
C1481 C1479 1.419 . S
C1481 C1482 1.362 . S
C1482 H1474 0.930 . S
C1482 C1481 1.362 . S
C1482 C1485 1.409 . S
C1483 H1475 0.930 . S
C1483 C1484 1.355 . S
C1483 C1485 1.415 . S
C1484 C1483 1.355 . S
C1484 C1486 1.419 . S
C1485 C1480 1.425 . S
C1485 C1482 1.409 . S
C1485 C1483 1.415 . S
C1486 H1476 0.930 . S
C1486 C1484 1.419 . S
C1486 C1487 1.362 . S
C1487 H1477 0.930 . S
C1487 C1480 1.409 . S
C1487 C1486 1.362 . S
H1488 C1494 0.930 . S
H1489 C1497 0.930 . S
H1490 C1498 0.952 . S
H1491 C1499 0.930 . S
H1492 C1502 0.930 . S
H1493 C1503 0.952 . S
C1494 H1488 0.930 . S
C1494 C1495 1.355 . S
C1494 C1496 1.415 . S
C1495 C1494 1.355 . S
C1495 C1497 1.419 . S
C1496 C1494 1.415 . S
C1496 C1501 1.425 1_556 S
C1496 C1503 1.419 . S
C1497 H1489 0.930 . S
C1497 C1495 1.419 . S
C1497 C1498 1.331 1_556 S
C1498 H1490 0.952 . S
C1498 C1497 1.331 1_554 S
C1498 C1501 1.420 . S
C1499 H1491 0.930 . S
C1499 C1500 1.355 . S
C1499 C1501 1.415 . S
C1500 C1499 1.355 . S
C1500 C1502 1.419 . S
C1501 C1496 1.425 1_554 S
C1501 C1498 1.420 . S
C1501 C1499 1.415 . S
C1502 H1492 0.930 . S
C1502 C1500 1.419 . S
C1502 C1503 1.331 1_554 S
C1503 H1493 0.952 . S
C1503 C1496 1.419 . S
C1503 C1502 1.331 1_556 S
H1504 C1510 0.930 . S
H1505 C1513 0.930 . S
H1506 C1514 0.930 . S
H1507 C1515 0.930 . S
H1508 C1518 0.930 . S
H1509 C1519 0.930 . S
C1510 H1504 0.930 . S
C1510 C1511 1.355 . S
C1510 C1512 1.415 . S
C1511 C1510 1.355 . S
C1511 C1513 1.419 . S
C1512 C1510 1.415 . S
C1512 C1517 1.425 . S
C1512 C1519 1.409 . S
C1513 H1505 0.930 . S
C1513 C1511 1.419 . S
C1513 C1514 1.362 . S
C1514 H1506 0.930 . S
C1514 C1513 1.362 . S
C1514 C1517 1.409 . S
C1515 H1507 0.930 . S
C1515 C1516 1.355 . S
C1515 C1517 1.415 . S
C1516 C1515 1.355 . S
C1516 C1518 1.419 . S
C1517 C1512 1.425 . S
C1517 C1514 1.409 . S
C1517 C1515 1.415 . S
C1518 H1508 0.930 . S
C1518 C1516 1.419 . S
C1518 C1519 1.362 . S
C1519 H1509 0.930 . S
C1519 C1512 1.409 . S
C1519 C1518 1.362 . S
H1520 C1526 0.930 . S
H1521 C1529 0.930 . S
H1522 C1530 0.930 . S
H1523 C1531 0.930 . S
H1524 C1534 0.930 . S
H1525 C1535 0.930 . S
C1526 H1520 0.930 . S
C1526 C1527 1.355 . S
C1526 C1528 1.415 . S
C1527 C1526 1.355 . S
C1527 C1529 1.419 . S
C1528 C1526 1.415 . S
C1528 C1533 1.425 . S
C1528 C1535 1.409 . S
C1529 H1521 0.930 . S
C1529 C1527 1.419 . S
C1529 C1530 1.362 . S
C1530 H1522 0.930 . S
C1530 C1529 1.362 . S
C1530 C1533 1.409 . S
C1531 H1523 0.930 . S
C1531 C1532 1.355 . S
C1531 C1533 1.415 . S
C1532 C1531 1.355 . S
C1532 C1534 1.419 . S
C1533 C1528 1.425 . S
C1533 C1530 1.409 . S
C1533 C1531 1.415 . S
C1534 H1524 0.930 . S
C1534 C1532 1.419 . S
C1534 C1535 1.362 . S
C1535 H1525 0.930 . S
C1535 C1528 1.409 . S
C1535 C1534 1.362 . S
H1536 C1542 0.930 . S
H1537 C1545 0.930 . S
H1538 C1546 0.930 . S
H1539 C1547 0.930 . S
H1540 C1550 0.930 . S
H1541 C1551 0.930 . S
C1542 H1536 0.930 . S
C1542 C1543 1.355 . S
C1542 C1544 1.415 . S
C1543 C1542 1.355 . S
C1543 C1545 1.419 . S
C1544 C1542 1.415 . S
C1544 C1549 1.425 . S
C1544 C1551 1.409 . S
C1545 H1537 0.930 . S
C1545 C1543 1.419 . S
C1545 C1546 1.362 . S
C1546 H1538 0.930 . S
C1546 C1545 1.362 . S
C1546 C1549 1.409 . S
C1547 H1539 0.930 . S
C1547 C1548 1.355 . S
C1547 C1549 1.415 . S
C1548 C1547 1.355 . S
C1548 C1550 1.419 . S
C1549 C1544 1.425 . S
C1549 C1546 1.409 . S
C1549 C1547 1.415 . S
C1550 H1540 0.930 . S
C1550 C1548 1.419 . S
C1550 C1551 1.362 . S
C1551 H1541 0.930 . S
C1551 C1544 1.409 . S
C1551 C1550 1.362 . S
H1552 C1558 0.930 . S
H1553 C1561 0.930 . S
H1554 C1562 0.930 . S
H1555 C1563 0.930 . S
H1556 C1566 0.930 . S
H1557 C1567 0.930 . S
C1558 H1552 0.930 . S
C1558 C1559 1.355 . S
C1558 C1560 1.415 . S
C1559 C1558 1.355 . S
C1559 C1561 1.419 . S
C1560 C1558 1.415 . S
C1560 C1565 1.425 . S
C1560 C1567 1.409 . S
C1561 H1553 0.930 . S
C1561 C1559 1.419 . S
C1561 C1562 1.362 . S
C1562 H1554 0.930 . S
C1562 C1561 1.362 . S
C1562 C1565 1.409 . S
C1563 H1555 0.930 . S
C1563 C1564 1.355 . S
C1563 C1565 1.415 . S
C1564 C1563 1.355 . S
C1564 C1566 1.419 . S
C1565 C1560 1.425 . S
C1565 C1562 1.409 . S
C1565 C1563 1.415 . S
C1566 H1556 0.930 . S
C1566 C1564 1.419 . S
C1566 C1567 1.362 . S
C1567 H1557 0.930 . S
C1567 C1560 1.409 . S
C1567 C1566 1.362 . S
H1568 C1574 0.930 . S
H1569 C1577 0.930 . S
H1570 C1578 0.930 . S
H1571 C1579 0.930 . S
H1572 C1582 0.930 . S
H1573 C1583 0.930 . S
C1574 H1568 0.930 . S
C1574 C1575 1.355 . S
C1574 C1576 1.415 . S
C1575 C1574 1.355 . S
C1575 C1577 1.419 . S
C1576 C1574 1.415 . S
C1576 C1581 1.425 . S
C1576 C1583 1.409 . S
C1577 H1569 0.930 . S
C1577 C1575 1.419 . S
C1577 C1578 1.362 . S
C1578 H1570 0.930 . S
C1578 C1577 1.362 . S
C1578 C1581 1.409 . S
C1579 H1571 0.930 . S
C1579 C1580 1.355 . S
C1579 C1581 1.415 . S
C1580 C1579 1.355 . S
C1580 C1582 1.419 . S
C1581 C1576 1.425 . S
C1581 C1578 1.409 . S
C1581 C1579 1.415 . S
C1582 H1572 0.930 . S
C1582 C1580 1.419 . S
C1582 C1583 1.362 . S
C1583 H1573 0.930 . S
C1583 C1576 1.409 . S
C1583 C1582 1.362 . S
H1584 C1590 0.930 . S
H1585 C1593 0.930 . S
H1586 C1594 0.930 . S
H1587 C1595 0.930 . S
H1588 C1598 0.930 . S
H1589 C1599 0.930 . S
C1590 H1584 0.930 . S
C1590 C1591 1.355 . S
C1590 C1592 1.415 . S
C1591 C1590 1.355 . S
C1591 C1593 1.419 . S
C1592 C1590 1.415 . S
C1592 C1597 1.425 . S
C1592 C1599 1.409 . S
C1593 H1585 0.930 . S
C1593 C1591 1.419 . S
C1593 C1594 1.362 . S
C1594 H1586 0.930 . S
C1594 C1593 1.362 . S
C1594 C1597 1.409 . S
C1595 H1587 0.930 . S
C1595 C1596 1.355 . S
C1595 C1597 1.415 . S
C1596 C1595 1.355 . S
C1596 C1598 1.419 . S
C1597 C1592 1.425 . S
C1597 C1594 1.409 . S
C1597 C1595 1.415 . S
C1598 H1588 0.930 . S
C1598 C1596 1.419 . S
C1598 C1599 1.362 . S
C1599 H1589 0.930 . S
C1599 C1592 1.409 . S
C1599 C1598 1.362 . S
H1600 C1606 0.930 . S
H1601 C1609 0.930 . S
H1602 C1610 0.930 . S
H1603 C1611 0.930 . S
H1604 C1614 0.930 . S
H1605 C1615 0.930 . S
C1606 H1600 0.930 . S
C1606 C1607 1.355 . S
C1606 C1608 1.415 . S
C1607 C1606 1.355 . S
C1607 C1609 1.419 . S
C1608 C1606 1.415 . S
C1608 C1613 1.425 . S
C1608 C1615 1.409 . S
C1609 H1601 0.930 . S
C1609 C1607 1.419 . S
C1609 C1610 1.362 . S
C1610 H1602 0.930 . S
C1610 C1609 1.362 . S
C1610 C1613 1.409 . S
C1611 H1603 0.930 . S
C1611 C1612 1.355 . S
C1611 C1613 1.415 . S
C1612 C1611 1.355 . S
C1612 C1614 1.419 . S
C1613 C1608 1.425 . S
C1613 C1610 1.409 . S
C1613 C1611 1.415 . S
C1614 H1604 0.930 . S
C1614 C1612 1.419 . S
C1614 C1615 1.362 . S
C1615 H1605 0.930 . S
C1615 C1608 1.409 . S
C1615 C1614 1.362 . S
H1616 C1622 0.930 . S
H1617 C1625 0.930 . S
H1618 C1626 0.930 . S
H1619 C1627 0.930 . S
H1620 C1630 0.930 . S
H1621 C1631 0.930 . S
C1622 H1616 0.930 . S
C1622 C1623 1.355 . S
C1622 C1624 1.415 . S
C1623 C1622 1.355 . S
C1623 C1625 1.419 . S
C1624 C1622 1.415 . S
C1624 C1629 1.425 . S
C1624 C1631 1.409 . S
C1625 H1617 0.930 . S
C1625 C1623 1.419 . S
C1625 C1626 1.362 . S
C1626 H1618 0.930 . S
C1626 C1625 1.362 . S
C1626 C1629 1.409 . S
C1627 H1619 0.930 . S
C1627 C1628 1.355 . S
C1627 C1629 1.415 . S
C1628 C1627 1.355 . S
C1628 C1630 1.419 . S
C1629 C1624 1.425 . S
C1629 C1626 1.409 . S
C1629 C1627 1.415 . S
C1630 H1620 0.930 . S
C1630 C1628 1.419 . S
C1630 C1631 1.362 . S
C1631 H1621 0.930 . S
C1631 C1624 1.409 . S
C1631 C1630 1.362 . S
H1632 C1638 0.930 . S
H1633 C1641 0.930 . S
H1634 C1642 0.930 . S
H1635 C1643 0.930 . S
H1636 C1646 0.930 . S
H1637 C1647 0.930 . S
C1638 H1632 0.930 . S
C1638 C1639 1.355 . S
C1638 C1640 1.415 . S
C1639 C1638 1.355 . S
C1639 C1641 1.419 . S
C1640 C1638 1.415 . S
C1640 C1645 1.425 . S
C1640 C1647 1.409 . S
C1641 H1633 0.930 . S
C1641 C1639 1.419 . S
C1641 C1642 1.362 . S
C1642 H1634 0.930 . S
C1642 C1641 1.362 . S
C1642 C1645 1.409 . S
C1643 H1635 0.930 . S
C1643 C1644 1.355 . S
C1643 C1645 1.415 . S
C1644 C1643 1.355 . S
C1644 C1646 1.419 . S
C1645 C1640 1.425 . S
C1645 C1642 1.409 . S
C1645 C1643 1.415 . S
C1646 H1636 0.930 . S
C1646 C1644 1.419 . S
C1646 C1647 1.362 . S
C1647 H1637 0.930 . S
C1647 C1640 1.409 . S
C1647 C1646 1.362 . S
H1648 C1654 0.930 . S
H1649 C1657 0.930 . S
H1650 C1658 0.930 . S
H1651 C1659 0.930 . S
H1652 C1662 0.930 . S
H1653 C1663 0.930 . S
C1654 H1648 0.930 . S
C1654 C1655 1.355 . S
C1654 C1656 1.415 . S
C1655 C1654 1.355 . S
C1655 C1657 1.419 . S
C1656 C1654 1.415 . S
C1656 C1661 1.425 . S
C1656 C1663 1.409 . S
C1657 H1649 0.930 . S
C1657 C1655 1.419 . S
C1657 C1658 1.362 . S
C1658 H1650 0.930 . S
C1658 C1657 1.362 . S
C1658 C1661 1.409 . S
C1659 H1651 0.930 . S
C1659 C1660 1.355 . S
C1659 C1661 1.415 . S
C1660 C1659 1.355 . S
C1660 C1662 1.419 . S
C1661 C1656 1.425 . S
C1661 C1658 1.409 . S
C1661 C1659 1.415 . S
C1662 H1652 0.930 . S
C1662 C1660 1.419 . S
C1662 C1663 1.362 . S
C1663 H1653 0.930 . S
C1663 C1656 1.409 . S
C1663 C1662 1.362 . S
H1664 C1670 0.930 . S
H1665 C1673 0.930 . S
H1666 C1674 0.930 . S
H1667 C1675 0.930 . S
H1668 C1678 0.930 . S
H1669 C1679 0.930 . S
C1670 H1664 0.930 . S
C1670 C1671 1.355 . S
C1670 C1672 1.415 . S
C1671 C1670 1.355 . S
C1671 C1673 1.419 . S
C1672 C1670 1.415 . S
C1672 C1677 1.425 . S
C1672 C1679 1.409 . S
C1673 H1665 0.930 . S
C1673 C1671 1.419 . S
C1673 C1674 1.362 . S
C1674 H1666 0.930 . S
C1674 C1673 1.362 . S
C1674 C1677 1.409 . S
C1675 H1667 0.930 . S
C1675 C1676 1.355 . S
C1675 C1677 1.415 . S
C1676 C1675 1.355 . S
C1676 C1678 1.419 . S
C1677 C1672 1.425 . S
C1677 C1674 1.409 . S
C1677 C1675 1.415 . S
C1678 H1668 0.930 . S
C1678 C1676 1.419 . S
C1678 C1679 1.362 . S
C1679 H1669 0.930 . S
C1679 C1672 1.409 . S
C1679 C1678 1.362 . S
H1680 C1686 0.930 . S
H1681 C1689 0.930 . S
H1682 C1690 0.930 . S
H1683 C1691 0.930 . S
H1684 C1694 0.930 . S
H1685 C1695 0.930 . S
C1686 H1680 0.930 . S
C1686 C1687 1.355 . S
C1686 C1688 1.415 . S
C1687 C1686 1.355 . S
C1687 C1689 1.419 . S
C1688 C1686 1.415 . S
C1688 C1693 1.425 . S
C1688 C1695 1.409 . S
C1689 H1681 0.930 . S
C1689 C1687 1.419 . S
C1689 C1690 1.362 . S
C1690 H1682 0.930 . S
C1690 C1689 1.362 . S
C1690 C1693 1.409 . S
C1691 H1683 0.930 . S
C1691 C1692 1.355 . S
C1691 C1693 1.415 . S
C1692 C1691 1.355 . S
C1692 C1694 1.419 . S
C1693 C1688 1.425 . S
C1693 C1690 1.409 . S
C1693 C1691 1.415 . S
C1694 H1684 0.930 . S
C1694 C1692 1.419 . S
C1694 C1695 1.362 . S
C1695 H1685 0.930 . S
C1695 C1688 1.409 . S
C1695 C1694 1.362 . S
H1696 C1702 0.930 . S
H1697 C1705 0.930 . S
H1698 C1706 0.930 . S
H1699 C1707 0.930 . S
H1700 C1710 0.930 . S
H1701 C1711 0.930 . S
C1702 H1696 0.930 . S
C1702 C1703 1.355 . S
C1702 C1704 1.415 . S
C1703 C1702 1.355 . S
C1703 C1705 1.419 . S
C1704 C1702 1.415 . S
C1704 C1709 1.425 . S
C1704 C1711 1.409 . S
C1705 H1697 0.930 . S
C1705 C1703 1.419 . S
C1705 C1706 1.362 . S
C1706 H1698 0.930 . S
C1706 C1705 1.362 . S
C1706 C1709 1.409 . S
C1707 H1699 0.930 . S
C1707 C1708 1.355 . S
C1707 C1709 1.415 . S
C1708 C1707 1.355 . S
C1708 C1710 1.419 . S
C1709 C1704 1.425 . S
C1709 C1706 1.409 . S
C1709 C1707 1.415 . S
C1710 H1700 0.930 . S
C1710 C1708 1.419 . S
C1710 C1711 1.362 . S
C1711 H1701 0.930 . S
C1711 C1704 1.409 . S
C1711 C1710 1.362 . S
H1712 C1718 0.930 . S
H1713 C1721 0.930 . S
H1714 C1722 0.930 . S
H1715 C1723 0.930 . S
H1716 C1726 0.930 . S
H1717 C1727 0.930 . S
C1718 H1712 0.930 . S
C1718 C1719 1.355 . S
C1718 C1720 1.415 . S
C1719 C1718 1.355 . S
C1719 C1721 1.419 . S
C1720 C1718 1.415 . S
C1720 C1725 1.425 . S
C1720 C1727 1.409 . S
C1721 H1713 0.930 . S
C1721 C1719 1.419 . S
C1721 C1722 1.362 . S
C1722 H1714 0.930 . S
C1722 C1721 1.362 . S
C1722 C1725 1.409 . S
C1723 H1715 0.930 . S
C1723 C1724 1.355 . S
C1723 C1725 1.415 . S
C1724 C1723 1.355 . S
C1724 C1726 1.419 . S
C1725 C1720 1.425 . S
C1725 C1722 1.409 . S
C1725 C1723 1.415 . S
C1726 H1716 0.930 . S
C1726 C1724 1.419 . S
C1726 C1727 1.362 . S
C1727 H1717 0.930 . S
C1727 C1720 1.409 . S
C1727 C1726 1.362 . S
H1728 C1734 0.930 . S
H1729 C1737 0.930 . S
H1730 C1738 0.930 . S
H1731 C1739 0.930 . S
H1732 C1742 0.930 . S
H1733 C1743 0.930 . S
C1734 H1728 0.930 . S
C1734 C1735 1.355 . S
C1734 C1736 1.415 . S
C1735 C1734 1.355 . S
C1735 C1737 1.419 . S
C1736 C1734 1.415 . S
C1736 C1741 1.425 . S
C1736 C1743 1.409 . S
C1737 H1729 0.930 . S
C1737 C1735 1.419 . S
C1737 C1738 1.362 . S
C1738 H1730 0.930 . S
C1738 C1737 1.362 . S
C1738 C1741 1.409 . S
C1739 H1731 0.930 . S
C1739 C1740 1.355 . S
C1739 C1741 1.415 . S
C1740 C1739 1.355 . S
C1740 C1742 1.419 . S
C1741 C1736 1.425 . S
C1741 C1738 1.409 . S
C1741 C1739 1.415 . S
C1742 H1732 0.930 . S
C1742 C1740 1.419 . S
C1742 C1743 1.362 . S
C1743 H1733 0.930 . S
C1743 C1736 1.409 . S
C1743 C1742 1.362 . S
H1744 C1750 0.930 . S
H1745 C1753 0.930 . S
H1746 C1754 0.930 . S
H1747 C1755 0.930 . S
H1748 C1758 0.930 . S
H1749 C1759 0.930 . S
C1750 H1744 0.930 . S
C1750 C1751 1.355 . S
C1750 C1752 1.415 . S
C1751 C1750 1.355 . S
C1751 C1753 1.419 . S
C1752 C1750 1.415 . S
C1752 C1757 1.425 . S
C1752 C1759 1.409 . S
C1753 H1745 0.930 . S
C1753 C1751 1.419 . S
C1753 C1754 1.362 . S
C1754 H1746 0.930 . S
C1754 C1753 1.362 . S
C1754 C1757 1.409 . S
C1755 H1747 0.930 . S
C1755 C1756 1.355 . S
C1755 C1757 1.415 . S
C1756 C1755 1.355 . S
C1756 C1758 1.419 . S
C1757 C1752 1.425 . S
C1757 C1754 1.409 . S
C1757 C1755 1.415 . S
C1758 H1748 0.930 . S
C1758 C1756 1.419 . S
C1758 C1759 1.362 . S
C1759 H1749 0.930 . S
C1759 C1752 1.409 . S
C1759 C1758 1.362 . S
H1760 C1766 0.930 . S
H1761 C1769 0.930 . S
H1762 C1770 0.930 . S
H1763 C1771 0.930 . S
H1764 C1774 0.930 . S
H1765 C1775 0.930 . S
C1766 H1760 0.930 . S
C1766 C1767 1.355 . S
C1766 C1768 1.415 . S
C1767 C1766 1.355 . S
C1767 C1769 1.419 . S
C1768 C1766 1.415 . S
C1768 C1773 1.425 . S
C1768 C1775 1.409 . S
C1769 H1761 0.930 . S
C1769 C1767 1.419 . S
C1769 C1770 1.362 . S
C1770 H1762 0.930 . S
C1770 C1769 1.362 . S
C1770 C1773 1.409 . S
C1771 H1763 0.930 . S
C1771 C1772 1.355 . S
C1771 C1773 1.415 . S
C1772 C1771 1.355 . S
C1772 C1774 1.419 . S
C1773 C1768 1.425 . S
C1773 C1770 1.409 . S
C1773 C1771 1.415 . S
C1774 H1764 0.930 . S
C1774 C1772 1.419 . S
C1774 C1775 1.362 . S
C1775 H1765 0.930 . S
C1775 C1768 1.409 . S
C1775 C1774 1.362 . S
H1776 C1782 0.930 . S
H1777 C1785 0.930 . S
H1778 C1786 0.930 . S
H1779 C1787 0.930 . S
H1780 C1790 0.930 . S
H1781 C1791 0.930 . S
C1782 H1776 0.930 . S
C1782 C1783 1.355 . S
C1782 C1784 1.415 . S
C1783 C1782 1.355 . S
C1783 C1785 1.419 . S
C1784 C1782 1.415 . S
C1784 C1789 1.425 . S
C1784 C1791 1.409 . S
C1785 H1777 0.930 . S
C1785 C1783 1.419 . S
C1785 C1786 1.362 . S
C1786 H1778 0.930 . S
C1786 C1785 1.362 . S
C1786 C1789 1.409 . S
C1787 H1779 0.930 . S
C1787 C1788 1.355 . S
C1787 C1789 1.415 . S
C1788 C1787 1.355 . S
C1788 C1790 1.419 . S
C1789 C1784 1.425 . S
C1789 C1786 1.409 . S
C1789 C1787 1.415 . S
C1790 H1780 0.930 . S
C1790 C1788 1.419 . S
C1790 C1791 1.362 . S
C1791 H1781 0.930 . S
C1791 C1784 1.409 . S
C1791 C1790 1.362 . S
H1792 C1798 0.931 . S
H1793 C1801 0.930 . S
H1794 C1802 0.930 . S
H1795 C1803 0.930 . S
H1796 C1806 0.915 1_545 S
H1797 C1807 0.959 . S
C1798 H1792 0.931 . S
C1798 C1799 1.355 . S
C1798 C1800 1.415 . S
C1799 C1798 1.355 . S
C1799 C1801 1.419 . S
C1800 C1798 1.415 . S
C1800 C1805 1.425 1_455 S
C1800 C1807 1.388 1_465 S
C1801 H1793 0.930 . S
C1801 C1799 1.419 . S
C1801 C1802 1.362 . S
C1802 H1794 0.930 . S
C1802 C1801 1.362 . S
C1802 C1805 1.409 1_455 S
C1803 H1795 0.930 . S
C1803 C1804 1.355 . S
C1803 C1805 1.415 . S
C1804 C1803 1.355 . S
C1804 C1806 1.439 . S
C1805 C1800 1.425 1_655 S
C1805 C1802 1.409 1_655 S
C1805 C1803 1.415 . S
C1806 H1796 0.915 1_565 S
C1806 C1804 1.439 . S
C1806 C1807 1.357 1_565 S
C1807 H1797 0.959 . S
C1807 C1800 1.388 1_645 S
C1807 C1806 1.357 1_545 S
H1808 C1814 0.930 . S
H1809 C1817 0.930 . S
H1810 C1818 0.930 . S
H1811 C1819 0.930 . S
H1812 C1822 0.930 . S
H1813 C1823 0.930 . S
C1814 H1808 0.930 . S
C1814 C1815 1.355 . S
C1814 C1816 1.415 . S
C1815 C1814 1.355 . S
C1815 C1817 1.419 . S
C1816 C1814 1.415 . S
C1816 C1821 1.425 . S
C1816 C1823 1.409 . S
C1817 H1809 0.930 . S
C1817 C1815 1.419 . S
C1817 C1818 1.362 . S
C1818 H1810 0.930 . S
C1818 C1817 1.362 . S
C1818 C1821 1.409 . S
C1819 H1811 0.930 . S
C1819 C1820 1.355 . S
C1819 C1821 1.415 . S
C1820 C1819 1.355 . S
C1820 C1822 1.419 . S
C1821 C1816 1.425 . S
C1821 C1818 1.409 . S
C1821 C1819 1.415 . S
C1822 H1812 0.930 . S
C1822 C1820 1.419 . S
C1822 C1823 1.362 . S
C1823 H1813 0.930 . S
C1823 C1816 1.409 . S
C1823 C1822 1.362 . S
H1824 C1830 0.948 . S
H1825 C1833 0.930 . S
H1826 C1834 0.930 . S
H1827 C1835 0.930 . S
H1828 C1838 0.930 1_565 S
H1829 C1839 0.939 . S
C1830 H1824 0.948 . S
C1830 C1831 1.355 . S
C1830 C1832 1.415 . S
C1831 C1830 1.355 . S
C1831 C1833 1.419 . S
C1832 C1830 1.415 . S
C1832 C1837 1.425 . S
C1832 C1839 1.402 1_545 S
C1833 H1825 0.930 . S
C1833 C1831 1.419 . S
C1833 C1834 1.362 . S
C1834 H1826 0.930 . S
C1834 C1833 1.362 . S
C1834 C1837 1.409 . S
C1835 H1827 0.930 . S
C1835 C1836 1.355 . S
C1835 C1837 1.415 . S
C1836 C1835 1.355 . S
C1836 C1838 1.419 . S
C1837 C1832 1.425 . S
C1837 C1834 1.409 . S
C1837 C1835 1.415 . S
C1838 H1828 0.930 1_545 S
C1838 C1836 1.419 . S
C1838 C1839 1.361 1_545 S
C1839 H1829 0.939 . S
C1839 C1832 1.402 1_565 S
C1839 C1838 1.361 1_565 S
H1840 C1846 0.930 . S
H1841 C1849 0.930 . S
H1842 C1850 0.930 . S
H1843 C1851 0.930 . S
H1844 C1854 0.930 . S
H1845 C1855 0.930 . S
C1846 H1840 0.930 . S
C1846 C1847 1.355 . S
C1846 C1848 1.415 . S
C1847 C1846 1.355 . S
C1847 C1849 1.419 . S
C1848 C1846 1.415 . S
C1848 C1853 1.425 . S
C1848 C1855 1.409 . S
C1849 H1841 0.930 . S
C1849 C1847 1.419 . S
C1849 C1850 1.362 . S
C1850 H1842 0.930 . S
C1850 C1849 1.362 . S
C1850 C1853 1.409 . S
C1851 H1843 0.930 . S
C1851 C1852 1.355 . S
C1851 C1853 1.415 . S
C1852 C1851 1.355 . S
C1852 C1854 1.419 . S
C1853 C1848 1.425 . S
C1853 C1850 1.409 . S
C1853 C1851 1.415 . S
C1854 H1844 0.930 . S
C1854 C1852 1.419 . S
C1854 C1855 1.362 . S
C1855 H1845 0.930 . S
C1855 C1848 1.409 . S
C1855 C1854 1.362 . S
H1856 C1862 0.930 . S
H1857 C1865 0.930 . S
H1858 C1866 0.930 . S
H1859 C1867 0.930 1_565 S
H1860 C1870 0.930 . S
H1861 C1871 0.930 . S
C1862 H1856 0.930 . S
C1862 C1863 1.355 . S
C1862 C1864 1.415 . S
C1863 C1862 1.355 . S
C1863 C1865 1.419 1_545 S
C1864 C1862 1.415 . S
C1864 C1869 1.425 1_655 S
C1864 C1871 1.409 1_655 S
C1865 H1857 0.930 . S
C1865 C1863 1.419 1_565 S
C1865 C1866 1.362 . S
C1866 H1858 0.930 . S
C1866 C1865 1.362 . S
C1866 C1869 1.409 1_665 S
C1867 H1859 0.930 1_545 S
C1867 C1868 1.355 . S
C1867 C1869 1.415 . S
C1868 C1867 1.355 . S
C1868 C1870 1.419 . S
C1869 C1864 1.425 1_455 S
C1869 C1866 1.409 1_445 S
C1869 C1867 1.415 . S
C1870 H1860 0.930 . S
C1870 C1868 1.419 . S
C1870 C1871 1.362 . S
C1871 H1861 0.930 . S
C1871 C1864 1.409 1_455 S
C1871 C1870 1.362 . S
H1872 C1878 0.930 . S
H1873 C1881 0.930 . S
H1874 C1882 0.930 . S
H1875 C1883 0.930 . S
H1876 C1886 0.930 . S
H1877 C1887 0.930 . S
C1878 H1872 0.930 . S
C1878 C1879 1.355 . S
C1878 C1880 1.415 . S
C1879 C1878 1.355 . S
C1879 C1881 1.419 . S
C1880 C1878 1.415 . S
C1880 C1885 1.425 . S
C1880 C1887 1.409 . S
C1881 H1873 0.930 . S
C1881 C1879 1.419 . S
C1881 C1882 1.362 . S
C1882 H1874 0.930 . S
C1882 C1881 1.362 . S
C1882 C1885 1.409 . S
C1883 H1875 0.930 . S
C1883 C1884 1.355 . S
C1883 C1885 1.415 . S
C1884 C1883 1.355 . S
C1884 C1886 1.419 . S
C1885 C1880 1.425 . S
C1885 C1882 1.409 . S
C1885 C1883 1.415 . S
C1886 H1876 0.930 . S
C1886 C1884 1.419 . S
C1886 C1887 1.362 . S
C1887 H1877 0.930 . S
C1887 C1880 1.409 . S
C1887 C1886 1.362 . S
H1888 C1894 0.930 . S
H1889 C1897 0.930 . S
H1890 C1898 0.930 . S
H1891 C1899 0.930 . S
H1892 C1902 0.930 . S
H1893 C1903 0.930 . S
C1894 H1888 0.930 . S
C1894 C1895 1.355 . S
C1894 C1896 1.415 . S
C1895 C1894 1.355 . S
C1895 C1897 1.419 . S
C1896 C1894 1.415 . S
C1896 C1901 1.425 . S
C1896 C1903 1.409 . S
C1897 H1889 0.930 . S
C1897 C1895 1.419 . S
C1897 C1898 1.362 . S
C1898 H1890 0.930 . S
C1898 C1897 1.362 . S
C1898 C1901 1.409 . S
C1899 H1891 0.930 . S
C1899 C1900 1.355 . S
C1899 C1901 1.415 . S
C1900 C1899 1.355 . S
C1900 C1902 1.419 . S
C1901 C1896 1.425 . S
C1901 C1898 1.409 . S
C1901 C1899 1.415 . S
C1902 H1892 0.930 . S
C1902 C1900 1.419 . S
C1902 C1903 1.362 . S
C1903 H1893 0.930 . S
C1903 C1896 1.409 . S
C1903 C1902 1.362 . S
H1904 C1910 0.930 . S
H1905 C1913 0.930 . S
H1906 C1914 0.930 . S
H1907 C1915 0.930 . S
H1908 C1918 0.930 . S
H1909 C1919 0.930 . S
C1910 H1904 0.930 . S
C1910 C1911 1.355 . S
C1910 C1912 1.415 . S
C1911 C1910 1.355 . S
C1911 C1913 1.419 . S
C1912 C1910 1.415 . S
C1912 C1917 1.425 . S
C1912 C1919 1.409 . S
C1913 H1905 0.930 . S
C1913 C1911 1.419 . S
C1913 C1914 1.362 . S
C1914 H1906 0.930 . S
C1914 C1913 1.362 . S
C1914 C1917 1.409 . S
C1915 H1907 0.930 . S
C1915 C1916 1.355 . S
C1915 C1917 1.415 . S
C1916 C1915 1.355 . S
C1916 C1918 1.419 . S
C1917 C1912 1.425 . S
C1917 C1914 1.409 . S
C1917 C1915 1.415 . S
C1918 H1908 0.930 . S
C1918 C1916 1.419 . S
C1918 C1919 1.362 . S
C1919 H1909 0.930 . S
C1919 C1912 1.409 . S
C1919 C1918 1.362 . S
H1920 C1926 0.930 . S
H1921 C1929 0.930 . S
H1922 C1930 0.930 . S
H1923 C1931 0.930 . S
H1924 C1934 0.930 . S
H1925 C1935 0.930 . S
C1926 H1920 0.930 . S
C1926 C1927 1.355 . S
C1926 C1928 1.415 . S
C1927 C1926 1.355 . S
C1927 C1929 1.419 . S
C1928 C1926 1.415 . S
C1928 C1933 1.425 . S
C1928 C1935 1.409 . S
C1929 H1921 0.930 . S
C1929 C1927 1.419 . S
C1929 C1930 1.362 . S
C1930 H1922 0.930 . S
C1930 C1929 1.362 . S
C1930 C1933 1.409 . S
C1931 H1923 0.930 . S
C1931 C1932 1.355 . S
C1931 C1933 1.415 . S
C1932 C1931 1.355 . S
C1932 C1934 1.419 . S
C1933 C1928 1.425 . S
C1933 C1930 1.409 . S
C1933 C1931 1.415 . S
C1934 H1924 0.930 . S
C1934 C1932 1.419 . S
C1934 C1935 1.362 . S
C1935 H1925 0.930 . S
C1935 C1928 1.409 . S
C1935 C1934 1.362 . S
H1936 C1942 0.930 . S
H1937 C1945 0.930 . S
H1938 C1946 0.930 . S
H1939 C1947 0.930 . S
H1940 C1950 0.930 . S
H1941 C1951 0.930 . S
C1942 H1936 0.930 . S
C1942 C1943 1.355 . S
C1942 C1944 1.415 . S
C1943 C1942 1.355 . S
C1943 C1945 1.419 . S
C1944 C1942 1.415 . S
C1944 C1949 1.425 . S
C1944 C1951 1.409 . S
C1945 H1937 0.930 . S
C1945 C1943 1.419 . S
C1945 C1946 1.362 . S
C1946 H1938 0.930 . S
C1946 C1945 1.362 . S
C1946 C1949 1.409 . S
C1947 H1939 0.930 . S
C1947 C1948 1.355 . S
C1947 C1949 1.415 . S
C1948 C1947 1.355 . S
C1948 C1950 1.419 . S
C1949 C1944 1.425 . S
C1949 C1946 1.409 . S
C1949 C1947 1.415 . S
C1950 H1940 0.930 . S
C1950 C1948 1.419 . S
C1950 C1951 1.362 . S
C1951 H1941 0.930 . S
C1951 C1944 1.409 . S
C1951 C1950 1.362 . S
H1952 C1958 0.930 . S
H1953 C1961 0.930 . S
H1954 C1962 0.930 . S
H1955 C1963 0.930 . S
H1956 C1966 0.930 . S
H1957 C1967 0.930 . S
C1958 H1952 0.930 . S
C1958 C1959 1.355 . S
C1958 C1960 1.415 . S
C1959 C1958 1.355 . S
C1959 C1961 1.419 . S
C1960 C1958 1.415 . S
C1960 C1965 1.425 . S
C1960 C1967 1.409 . S
C1961 H1953 0.930 . S
C1961 C1959 1.419 . S
C1961 C1962 1.362 . S
C1962 H1954 0.930 . S
C1962 C1961 1.362 . S
C1962 C1965 1.409 . S
C1963 H1955 0.930 . S
C1963 C1964 1.355 . S
C1963 C1965 1.415 . S
C1964 C1963 1.355 . S
C1964 C1966 1.419 . S
C1965 C1960 1.425 . S
C1965 C1962 1.409 . S
C1965 C1963 1.415 . S
C1966 H1956 0.930 . S
C1966 C1964 1.419 . S
C1966 C1967 1.362 . S
C1967 H1957 0.930 . S
C1967 C1960 1.409 . S
C1967 C1966 1.362 . S
H1968 C1974 0.930 . S
H1969 C1977 0.930 . S
H1970 C1978 0.930 . S
H1971 C1979 0.930 . S
H1972 C1982 0.930 . S
H1973 C1983 0.930 . S
C1974 H1968 0.930 . S
C1974 C1975 1.355 . S
C1974 C1976 1.415 . S
C1975 C1974 1.355 . S
C1975 C1977 1.419 . S
C1976 C1974 1.415 . S
C1976 C1981 1.425 . S
C1976 C1983 1.409 . S
C1977 H1969 0.930 . S
C1977 C1975 1.419 . S
C1977 C1978 1.362 . S
C1978 H1970 0.930 . S
C1978 C1977 1.362 . S
C1978 C1981 1.409 . S
C1979 H1971 0.930 . S
C1979 C1980 1.355 . S
C1979 C1981 1.415 . S
C1980 C1979 1.355 . S
C1980 C1982 1.419 . S
C1981 C1976 1.425 . S
C1981 C1978 1.409 . S
C1981 C1979 1.415 . S
C1982 H1972 0.930 . S
C1982 C1980 1.419 . S
C1982 C1983 1.362 . S
C1983 H1973 0.930 . S
C1983 C1976 1.409 . S
C1983 C1982 1.362 . S
H1984 C1990 0.930 . S
H1985 C1993 0.930 . S
H1986 C1994 0.930 . S
H1987 C1995 0.930 . S
H1988 C1998 0.930 . S
H1989 C1999 0.930 . S
C1990 H1984 0.930 . S
C1990 C1991 1.355 . S
C1990 C1992 1.415 . S
C1991 C1990 1.355 . S
C1991 C1993 1.419 . S
C1992 C1990 1.415 . S
C1992 C1997 1.425 . S
C1992 C1999 1.409 . S
C1993 H1985 0.930 . S
C1993 C1991 1.419 . S
C1993 C1994 1.362 . S
C1994 H1986 0.930 . S
C1994 C1993 1.362 . S
C1994 C1997 1.409 . S
C1995 H1987 0.930 . S
C1995 C1996 1.355 . S
C1995 C1997 1.415 . S
C1996 C1995 1.355 . S
C1996 C1998 1.419 . S
C1997 C1992 1.425 . S
C1997 C1994 1.409 . S
C1997 C1995 1.415 . S
C1998 H1988 0.930 . S
C1998 C1996 1.419 . S
C1998 C1999 1.362 . S
C1999 H1989 0.930 . S
C1999 C1992 1.409 . S
C1999 C1998 1.362 . S
H2000 C2006 0.930 . S
H2001 C2009 0.930 . S
H2002 C2010 0.930 . S
H2003 C2011 0.930 . S
H2004 C2014 0.930 . S
H2005 C2015 0.930 . S
C2006 H2000 0.930 . S
C2006 C2007 1.355 . S
C2006 C2008 1.415 . S
C2007 C2006 1.355 . S
C2007 C2009 1.419 . S
C2008 C2006 1.415 . S
C2008 C2013 1.425 1_455 S
C2008 C2015 1.409 1_455 S
C2009 H2001 0.930 . S
C2009 C2007 1.419 . S
C2009 C2010 1.362 . S
C2010 H2002 0.930 . S
C2010 C2009 1.362 . S
C2010 C2013 1.409 1_455 S
C2011 H2003 0.930 . S
C2011 C2012 1.355 . S
C2011 C2013 1.415 . S
C2012 C2011 1.355 . S
C2012 C2014 1.419 . S
C2013 C2008 1.425 1_655 S
C2013 C2010 1.409 1_655 S
C2013 C2011 1.415 . S
C2014 H2004 0.930 . S
C2014 C2012 1.419 . S
C2014 C2015 1.362 . S
C2015 H2005 0.930 . S
C2015 C2008 1.409 1_655 S
C2015 C2014 1.362 . S
H2016 C2022 0.930 . S
H2017 C2025 0.930 . S
H2018 C2026 0.930 . S
H2019 C2027 0.930 . S
H2020 C2030 0.930 . S
H2021 C2031 0.930 . S
C2022 H2016 0.930 . S
C2022 C2023 1.355 . S
C2022 C2024 1.415 . S
C2023 C2022 1.355 . S
C2023 C2025 1.419 . S
C2024 C2022 1.415 . S
C2024 C2029 1.425 . S
C2024 C2031 1.409 . S
C2025 H2017 0.930 . S
C2025 C2023 1.419 . S
C2025 C2026 1.362 . S
C2026 H2018 0.930 . S
C2026 C2025 1.362 . S
C2026 C2029 1.409 . S
C2027 H2019 0.930 . S
C2027 C2028 1.355 . S
C2027 C2029 1.415 . S
C2028 C2027 1.355 . S
C2028 C2030 1.419 . S
C2029 C2024 1.425 . S
C2029 C2026 1.409 . S
C2029 C2027 1.415 . S
C2030 H2020 0.930 . S
C2030 C2028 1.419 . S
C2030 C2031 1.362 . S
C2031 H2021 0.930 . S
C2031 C2024 1.409 . S
C2031 C2030 1.362 . S
H2032 C2038 0.930 . S
H2033 C2041 0.930 . S
H2034 C2042 0.930 . S
H2035 C2043 0.930 . S
H2036 C2046 0.930 . S
H2037 C2047 0.930 . S
C2038 H2032 0.930 . S
C2038 C2039 1.355 . S
C2038 C2040 1.415 . S
C2039 C2038 1.355 . S
C2039 C2041 1.419 . S
C2040 C2038 1.415 . S
C2040 C2045 1.425 1_655 S
C2040 C2047 1.409 1_655 S
C2041 H2033 0.930 . S
C2041 C2039 1.419 . S
C2041 C2042 1.362 . S
C2042 H2034 0.930 . S
C2042 C2041 1.362 . S
C2042 C2045 1.409 1_655 S
C2043 H2035 0.930 . S
C2043 C2044 1.355 . S
C2043 C2045 1.415 . S
C2044 C2043 1.355 . S
C2044 C2046 1.419 . S
C2045 C2040 1.425 1_455 S
C2045 C2042 1.409 1_455 S
C2045 C2043 1.415 . S
C2046 H2036 0.930 . S
C2046 C2044 1.419 . S
C2046 C2047 1.362 . S
C2047 H2037 0.930 . S
C2047 C2040 1.409 1_455 S
C2047 C2046 1.362 . S
C1287 C255 1.499 . S
C1292 C15 1.496 . S
C1303 C295 1.699 . S
C1308 C55 1.685 . S
C1319 C175 1.495 . S
C1324 C95 1.503 . S
C1335 C135 1.699 . S
C1340 C215 1.690 . S
C1351 C575 1.494 . S
C1356 C335 1.508 . S
C1367 C615 1.693 . S
C1372 C375 1.692 . S
C1383 C495 1.508 . S
C1388 C415 1.493 . S
C1399 C535 1.688 . S
C1404 C455 1.697 . S
C1415 C655 1.685 . S
C1420 C895 1.675 . S
C1431 C935 1.524 . S
C1436 C695 1.514 . S
C1447 C735 1.676 . S
C1452 C815 1.689 . S
C1463 C855 1.526 . S
C1468 C775 1.514 . S
C1479 C975 1.685 . S
C1484 C1215 1.670 . S
C1495 C1015 1.527 . S
C1500 C1255 1.508 . S
C1511 C1055 1.673 . S
C1516 C1135 1.675 . S
C1527 C1095 1.509 . S
C1532 C1175 1.531 . S
C1543 C301 1.515 . S
C1548 C21 1.510 . S
C1559 C61 1.512 . S
C1564 C181 1.499 . S
C1575 C221 1.515 . S
C1580 C101 1.503 . S
C1591 C141 1.521 . S
C1596 C261 1.519 . S
C1607 C621 1.482 . S
C1612 C341 1.468 . S
C1623 C381 1.430 . S
C1628 C501 1.493 . S
C1639 C541 1.499 . S
C1644 C421 1.493 . S
C1655 C461 1.444 . S
C1660 C581 1.471 . S
C1671 C661 1.799 . S
C1676 C941 1.795 . S
C1687 C701 1.793 . S
C1692 C821 1.786 . S
C1703 C861 1.791 . S
C1708 C741 1.795 . S
C1719 C781 1.793 . S
C1724 C901 1.797 . S
C1735 C1261 1.753 . S
C1740 C981 1.725 . S
C1751 C1021 1.739 . S
C1756 C1141 1.770 . S
C1767 C1061 1.753 . S
C1772 C1181 1.707 . S
C1783 C1101 1.707 . S
C1788 C1221 1.725 . S
C1799 C2 1.479 . S
C1804 C482 1.468 . S
C1815 C42 1.650 . S
C1820 C1162 1.628 . S
C1831 C82 1.479 . S
C1836 C562 1.469 . S
C1847 C122 1.647 . S
C1852 C1242 1.616 . S
C1863 C322 1.450 . S
C1868 C162 1.487 . S
C1879 C202 1.648 . S
C1884 C1002 1.629 . S
C1895 C242 1.502 . S
C1900 C402 1.470 . S
C1911 C1082 1.618 . S
C1916 C282 1.646 . S
C1927 C362 1.600 . S
C1932 C842 1.638 . S
C1943 C922 1.630 . S
C1948 C442 1.620 . S
C1959 C682 1.639 . S
C1964 C522 1.601 . S
C1975 C602 1.618 . S
C1980 C762 1.649 . S
C1991 C642 1.678 . S
C1996 C1122 1.661 . S
C2007 C1202 1.675 . S
C2012 C722 1.681 . S
C2023 C962 1.674 . S
C2028 C802 1.681 . S
C2039 C882 1.694 . S
C2044 C1042 1.648 . S
