# Generated by pormake.
# Topology uop, (4)-cn, num edge types: 1
# Building blocks:
#     Node 0, Type 0, BuildingBlock: NAWXER_clean_sbu_0, # of connection points: 4
#     Node 1, Type 0, BuildingBlock: NAWXER_clean_sbu_0, # of connection points: 4
#     Node 2, Type 0, BuildingBlock: NAWXER_clean_sbu_0, # of connection points: 4
#     Node 3, Type 0, BuildingBlock: NAWXER_clean_sbu_0, # of connection points: 4
#     Node 4, Type 0, BuildingBlock: NAWXER_clean_sbu_0, # of connection points: 4
#     Node 5, Type 0, BuildingBlock: NAWXER_clean_sbu_0, # of connection points: 4
#     Node 6, Type 0, BuildingBlock: NAWXER_clean_sbu_0, # of connection points: 4
#     Node 7, Type 0, BuildingBlock: NAWXER_clean_sbu_0, # of connection points: 4
#     Node 8, Type 0, BuildingBlock: NAWXER_clean_sbu_0, # of connection points: 4
#     Node 9, Type 0, BuildingBlock: NAWXER_clean_sbu_0, # of connection points: 4
#     Node 10, Type 0, BuildingBlock: NAWXER_clean_sbu_0, # of connection points: 4
#     Node 11, Type 0, BuildingBlock: NAWXER_clean_sbu_0, # of connection points: 4
#     Edge 12, Type (0, 0), BuildingBlock: XUDNAN_clean_linker_2, # of connection points: 2
#     Edge 13, Type (0, 0), BuildingBlock: XUDNAN_clean_linker_2, # of connection points: 2
#     Edge 14, Type (0, 0), BuildingBlock: XUDNAN_clean_linker_2, # of connection points: 2
#     Edge 15, Type (0, 0), BuildingBlock: XUDNAN_clean_linker_2, # of connection points: 2
#     Edge 16, Type (0, 0), BuildingBlock: XUDNAN_clean_linker_2, # of connection points: 2
#     Edge 17, Type (0, 0), BuildingBlock: XUDNAN_clean_linker_2, # of connection points: 2
#     Edge 18, Type (0, 0), BuildingBlock: XUDNAN_clean_linker_2, # of connection points: 2
#     Edge 19, Type (0, 0), BuildingBlock: XUDNAN_clean_linker_2, # of connection points: 2
#     Edge 20, Type (0, 0), BuildingBlock: XUDNAN_clean_linker_2, # of connection points: 2
#     Edge 21, Type (0, 0), BuildingBlock: XUDNAN_clean_linker_2, # of connection points: 2
#     Edge 22, Type (0, 0), BuildingBlock: XUDNAN_clean_linker_2, # of connection points: 2
#     Edge 23, Type (0, 0), BuildingBlock: XUDNAN_clean_linker_2, # of connection points: 2
#     Edge 24, Type (0, 0), BuildingBlock: XUDNAN_clean_linker_2, # of connection points: 2
#     Edge 25, Type (0, 0), BuildingBlock: XUDNAN_clean_linker_2, # of connection points: 2
#     Edge 26, Type (0, 0), BuildingBlock: XUDNAN_clean_linker_2, # of connection points: 2
#     Edge 27, Type (0, 0), BuildingBlock: XUDNAN_clean_linker_2, # of connection points: 2
#     Edge 28, Type (0, 0), BuildingBlock: XUDNAN_clean_linker_2, # of connection points: 2
#     Edge 29, Type (0, 0), BuildingBlock: XUDNAN_clean_linker_2, # of connection points: 2
#     Edge 30, Type (0, 0), BuildingBlock: XUDNAN_clean_linker_2, # of connection points: 2
#     Edge 31, Type (0, 0), BuildingBlock: XUDNAN_clean_linker_2, # of connection points: 2
#     Edge 32, Type (0, 0), BuildingBlock: XUDNAN_clean_linker_2, # of connection points: 2
#     Edge 33, Type (0, 0), BuildingBlock: XUDNAN_clean_linker_2, # of connection points: 2
#     Edge 34, Type (0, 0), BuildingBlock: XUDNAN_clean_linker_2, # of connection points: 2
#     Edge 35, Type (0, 0), BuildingBlock: XUDNAN_clean_linker_2, # of connection points: 2
# Relax obj value: 0.102
# Max RMSD: 0.272
# Mean RMSD: 0.272
data_MOF--net-uop--node1-NAWXER_clean_sbu_0--edge1-XUDNAN_clean_linker_2
_symmetry_space_group_name_H-M    P1
_symmetry_Int_Tables_number       1
_symmetry_cell_setting            triclinic
loop_
_symmetry_equiv_pos_as_xyz
'x, y, z'
_cell_length_a     33.5028
_cell_length_b     33.310615
_cell_length_c     46.367171
_cell_angle_alpha  90.036029
_cell_angle_beta   90.013366
_cell_angle_gamma 120.17168
loop_
_atom_site_label
_atom_site_type_symbol
_atom_site_fract_x
_atom_site_fract_y
_atom_site_fract_z
_atom_type_partial_charge
C0 C 0.26798 0.3746 0.25303 0.0
C1 C 0.26066 0.5059 0.21432 0.0
O2 O 0.26464 0.37191 0.22533 0.0
Zn3 Zn 0.25749 0.41348 0.19095 0.0
O4 O 0.26698 0.40767 0.26593 0.0
Zn5 Zn 0.26242 0.43824 0.23269 0.0
O6 O 0.19289 0.39111 0.2182 0.0
O7 O 0.19879 0.37268 0.17336 0.0
O8 O 0.26336 0.49506 0.24014 0.0
O9 O 0.25825 0.47885 0.19382 0.0
O10 O 0.31036 0.42961 0.16755 0.0
O11 O 0.32789 0.45959 0.21133 0.0
C12 C 0.17383 0.36906 0.19485 0.0
C13 C 0.34063 0.45352 0.18636 0.0
C14 C 0.82358 0.17649 0.51594 0.0
C15 C 0.89843 0.33985 0.54401 0.0
O16 O 0.81045 0.18108 0.54109 0.0
Zn17 Zn 0.82491 0.2383 0.56932 0.0
O18 O 0.85241 0.21245 0.50225 0.0
Zn19 Zn 0.85993 0.25858 0.5303 0.0
O20 O 0.89801 0.25029 0.5662 0.0
O21 O 0.84874 0.22439 0.60254 0.0
O22 O 0.90063 0.32266 0.52 0.0
O23 O 0.87194 0.31281 0.56397 0.0
O24 O 0.76639 0.23373 0.57462 0.0
O25 O 0.79282 0.25419 0.5304 0.0
C26 C 0.88843 0.23659 0.59252 0.0
C27 C 0.76112 0.24441 0.54925 0.0
C28 C 0.63602 0.88992 0.92748 0.0
C29 C 0.50368 0.75849 0.88403 0.0
O30 O 0.64005 0.89253 0.89984 0.0
Zn31 Zn 0.59825 0.84802 0.86364 0.0
O32 O 0.60111 0.85601 0.93906 0.0
Zn33 Zn 0.57134 0.8256 0.90455 0.0
O34 O 0.617 0.80187 0.88954 0.0
O35 O 0.63807 0.82931 0.84549 0.0
O36 O 0.51364 0.77041 0.91015 0.0
O37 O 0.53184 0.78395 0.86423 0.0
O38 O 0.58542 0.88866 0.84164 0.0
O39 O 0.55392 0.87404 0.88493 0.0
C40 C 0.63989 0.8059 0.86648 0.0
C41 C 0.56174 0.89495 0.86054 0.0
C42 C 0.75023 0.64679 0.24879 0.0
C43 C 0.75316 0.51308 0.21052 0.0
O44 O 0.75205 0.64868 0.22107 0.0
Zn45 Zn 0.75686 0.60549 0.18675 0.0
O46 O 0.75067 0.61366 0.26193 0.0
Zn47 Zn 0.75248 0.58152 0.22872 0.0
O48 O 0.8216 0.62736 0.2136 0.0
O49 O 0.81565 0.64551 0.1687 0.0
O50 O 0.75066 0.52436 0.23627 0.0
O51 O 0.75557 0.53987 0.18988 0.0
O52 O 0.70324 0.58967 0.16404 0.0
O53 O 0.68686 0.5616 0.20829 0.0
C54 C 0.84063 0.64905 0.19019 0.0
C55 C 0.67353 0.5673 0.18343 0.0
C56 C 0.13065 0.77476 0.6019 0.0
C57 C 0.25447 0.76884 0.55175 0.0
O58 O 0.12109 0.76625 0.57491 0.0
Zn59 Zn 0.15722 0.76085 0.53658 0.0
O60 O 0.1693 0.78227 0.61152 0.0
Zn61 Zn 0.192 0.77354 0.57607 0.0
O62 O 0.20441 0.83488 0.55389 0.0
O63 O 0.16703 0.81335 0.51252 0.0
O64 O 0.25024 0.77654 0.578 0.0
O65 O 0.22259 0.76246 0.53382 0.0
O66 O 0.11344 0.69788 0.524 0.0
O67 O 0.14269 0.70157 0.56723 0.0
C68 C 0.19307 0.84539 0.52991 0.0
C69 C 0.11497 0.67757 0.54686 0.0
C70 C 0.37124 0.11994 0.92392 0.0
C71 C 0.50555 0.25103 0.88232 0.0
O72 O 0.36819 0.11753 0.89623 0.0
Zn73 Zn 0.41137 0.16227 0.86058 0.0
O74 O 0.40576 0.15367 0.93596 0.0
Zn75 Zn 0.43684 0.18417 0.90187 0.0
O76 O 0.39229 0.20861 0.88601 0.0
O77 O 0.37248 0.1816 0.84174 0.0
O78 O 0.49452 0.23882 0.90829 0.0
O79 O 0.47803 0.22602 0.86211 0.0
O80 O 0.42463 0.12146 0.83899 0.0
O81 O 0.45434 0.13546 0.8828 0.0
C82 C 0.37024 0.20499 0.86262 0.0
C83 C 0.44729 0.11469 0.8584 0.0
C84 C 0.51424 0.76013 0.45828 0.0
C85 C 0.62953 0.76865 0.38988 0.0
O86 O 0.54838 0.75979 0.47045 0.0
Zn87 Zn 0.61069 0.76189 0.45878 0.0
O88 O 0.51315 0.76203 0.43095 0.0
Zn89 Zn 0.5717 0.76454 0.42319 0.0
O90 O 0.55948 0.69659 0.43381 0.0
O91 O 0.60066 0.70199 0.47233 0.0
O92 O 0.59218 0.76809 0.38381 0.0
O93 O 0.64003 0.76704 0.41635 0.0
O94 O 0.65664 0.81886 0.47738 0.0
O95 O 0.62345 0.83108 0.43986 0.0
C96 C 0.57242 0.67738 0.45268 0.0
C97 C 0.65303 0.84692 0.46047 0.0
C98 C 0.89486 0.65566 0.74849 0.0
C99 C 0.77959 0.53125 0.80872 0.0
O100 O 0.90512 0.66263 0.77537 0.0
Zn101 Zn 0.87528 0.62805 0.81528 0.0
O102 O 0.85741 0.62008 0.74078 0.0
Zn103 Zn 0.83632 0.59403 0.77876 0.0
O104 O 0.81741 0.64086 0.80006 0.0
O105 O 0.86559 0.67072 0.8367 0.0
O106 O 0.77909 0.53492 0.78145 0.0
O107 O 0.81301 0.56324 0.82327 0.0
O108 O 0.92065 0.61627 0.83082 0.0
O109 O 0.88722 0.57462 0.79187 0.0
C110 C 0.83177 0.66729 0.82243 0.0
C111 C 0.91655 0.58611 0.81255 0.0
C112 C 0.2552 0.7791 0.13853 0.0
C113 C 0.24904 0.89086 0.07372 0.0
O114 O 0.25664 0.81334 0.15217 0.0
Zn115 Zn 0.25531 0.87582 0.14155 0.0
O116 O 0.25209 0.77765 0.11121 0.0
Zn117 Zn 0.25109 0.83478 0.10662 0.0
O118 O 0.32128 0.88689 0.11987 0.0
O119 O 0.31185 0.92251 0.15715 0.0
O120 O 0.24742 0.85292 0.0677 0.0
O121 O 0.25162 0.90322 0.10019 0.0
O122 O 0.20305 0.86793 0.16178 0.0
O123 O 0.18476 0.81712 0.12655 0.0
C124 C 0.33848 0.91758 0.13998 0.0
C125 C 0.17261 0.83317 0.14797 0.0
C126 C 0.49147 0.24514 0.46558 0.0
C127 C 0.38022 0.24209 0.39674 0.0
O128 O 0.46161 0.25292 0.47775 0.0
Zn129 Zn 0.40225 0.25762 0.46497 0.0
O130 O 0.48857 0.23705 0.43868 0.0
Zn131 Zn 0.43385 0.24099 0.43164 0.0
O132 O 0.45835 0.31463 0.43781 0.0
O133 O 0.42121 0.321 0.47526 0.0
O134 O 0.41126 0.23146 0.39267 0.0
O135 O 0.3732 0.25213 0.42231 0.0
O136 O 0.35293 0.209 0.48687 0.0
O137 O 0.38022 0.18124 0.45413 0.0
C138 C 0.45064 0.34006 0.45518 0.0
C139 C 0.35217 0.17435 0.47491 0.0
C140 C 0.11919 0.3592 0.74213 0.0
C141 C 0.232 0.48083 0.80522 0.0
O142 O 0.108 0.35056 0.7688 0.0
Zn143 Zn 0.13616 0.38342 0.80945 0.0
O144 O 0.15643 0.3957 0.73535 0.0
Zn145 Zn 0.17615 0.4197 0.77395 0.0
O146 O 0.19508 0.37219 0.79456 0.0
O147 O 0.14531 0.33998 0.83018 0.0
O148 O 0.23317 0.47868 0.77788 0.0
O149 O 0.19823 0.448 0.81906 0.0
O150 O 0.09012 0.39386 0.82519 0.0
O151 O 0.12497 0.43849 0.78759 0.0
C152 C 0.17997 0.34461 0.81636 0.0
C153 C 0.09497 0.4255 0.80796 0.0
C154 C 0.76265 0.24019 0.13776 0.0
C155 C 0.76595 0.12444 0.07498 0.0
O156 O 0.76032 0.20596 0.15189 0.0
Zn157 Zn 0.76021 0.14241 0.14242 0.0
O158 O 0.76615 0.24093 0.11046 0.0
Zn159 Zn 0.76597 0.18295 0.10683 0.0
O160 O 0.69523 0.13251 0.12005 0.0
O161 O 0.703 0.09736 0.1582 0.0
O162 O 0.76931 0.16293 0.06828 0.0
O163 O 0.76281 0.11292 0.10164 0.0
O164 O 0.81188 0.14967 0.16318 0.0
O165 O 0.8316 0.19991 0.12755 0.0
C166 C 0.67717 0.1026 0.1405 0.0
C167 C 0.84294 0.18394 0.14938 0.0
H168 H 0.25207 0.70021 0.11717 0.0
H169 H 0.26233 0.77349 0.19687 0.0
H170 H 0.26491 0.71175 0.22451 0.0
H171 H 0.1789 0.58491 0.14493 0.0
H172 H 0.20649 0.55944 0.12462 0.0
H173 H 0.20577 0.6096 0.11079 0.0
H174 H 0.295 0.65373 0.10679 0.0
H175 H 0.29599 0.60369 0.12059 0.0
H176 H 0.32913 0.65917 0.13819 0.0
H177 H 0.26607 0.64259 0.24369 0.0
H178 H 0.26601 0.56989 0.25335 0.0
H179 H 0.25505 0.54065 0.16144 0.0
C180 C 0.25491 0.7033 0.14043 0.0
C181 C 0.25699 0.74179 0.15482 0.0
C182 C 0.26067 0.74443 0.1853 0.0
C183 C 0.26216 0.70952 0.20124 0.0
C184 C 0.25997 0.67211 0.18642 0.0
C185 C 0.25645 0.66869 0.15673 0.0
C186 C 0.25459 0.62463 0.14624 0.0
C187 C 0.2087 0.59277 0.13073 0.0
C188 C 0.29616 0.636 0.12681 0.0
C189 C 0.25757 0.60391 0.1747 0.0
C190 C 0.26065 0.63194 0.19756 0.0
C191 C 0.26369 0.62032 0.22598 0.0
C192 C 0.26361 0.57888 0.23122 0.0
C193 C 0.26052 0.54947 0.20817 0.0
C194 C 0.25745 0.56232 0.17953 0.0
H195 H 0.72818 0.24725 0.49522 0.0
H196 H 0.69793 0.24378 0.58656 0.0
H197 H 0.62659 0.24456 0.57491 0.0
H198 H 0.68492 0.32278 0.47347 0.0
H199 H 0.66057 0.29237 0.44012 0.0
H200 H 0.71017 0.29284 0.45552 0.0
H201 H 0.66623 0.20287 0.45506 0.0
H202 H 0.61647 0.20212 0.43971 0.0
H203 H 0.61098 0.1713 0.47276 0.0
H204 H 0.55899 0.24604 0.55379 0.0
H205 H 0.4976 0.24563 0.52429 0.0
H206 H 0.56958 0.2456 0.44639 0.0
C207 C 0.70666 0.24692 0.51275 0.0
C208 C 0.71874 0.24559 0.54182 0.0
C209 C 0.68941 0.24472 0.56413 0.0
C210 C 0.64883 0.24525 0.55775 0.0
C211 C 0.6378 0.24635 0.52893 0.0
C212 C 0.66566 0.24698 0.50676 0.0
C213 C 0.64502 0.24695 0.47763 0.0
C214 C 0.67708 0.29138 0.46069 0.0
C215 C 0.63402 0.2032 0.46028 0.0
C216 C 0.60127 0.24619 0.48697 0.0
C217 C 0.59802 0.24615 0.51667 0.0
C218 C 0.56106 0.24598 0.5305 0.0
C219 C 0.52638 0.24581 0.51353 0.0
C220 C 0.52866 0.24546 0.48302 0.0
C221 C 0.56669 0.2456 0.46965 0.0
H222 H 0.47044 0.71954 0.83032 0.0
H223 H 0.43783 0.69986 0.92178 0.0
H224 H 0.36532 0.62796 0.91105 0.0
H225 H 0.35326 0.6767 0.80539 0.0
H226 H 0.35925 0.64805 0.77409 0.0
H227 H 0.40894 0.6987 0.78861 0.0
H228 H 0.45182 0.65245 0.79332 0.0
H229 H 0.40227 0.60166 0.77883 0.0
H230 H 0.42546 0.59881 0.81335 0.0
H231 H 0.29727 0.55848 0.89131 0.0
H232 H 0.23646 0.49414 0.86334 0.0
H233 H 0.31132 0.55696 0.78413 0.0
C234 C 0.44798 0.70014 0.84806 0.0
C235 C 0.45996 0.71549 0.87692 0.0
C236 C 0.42959 0.68899 0.8995 0.0
C237 C 0.38821 0.64802 0.89366 0.0
C238 C 0.3775 0.63385 0.86511 0.0
C239 C 0.40631 0.65893 0.84262 0.0
C240 C 0.38628 0.63535 0.81391 0.0
C241 C 0.37634 0.66657 0.79435 0.0
C242 C 0.41837 0.62123 0.79898 0.0
C243 C 0.34189 0.5931 0.82392 0.0
C244 C 0.33768 0.59318 0.85355 0.0
C245 C 0.30005 0.55797 0.86807 0.0
C246 C 0.26566 0.52152 0.85193 0.0
C247 C 0.26898 0.52037 0.82149 0.0
C248 C 0.3077 0.55682 0.80734 0.0
H249 H 0.75824 0.47707 0.15788 0.0
H250 H 0.74953 0.4507 0.25008 0.0
H251 H 0.75121 0.37875 0.24116 0.0
H252 H 0.68577 0.35748 0.13611 0.0
H253 H 0.71943 0.3628 0.10453 0.0
H254 H 0.71755 0.41258 0.11794 0.0
H255 H 0.80684 0.45869 0.12125 0.0
H256 H 0.809 0.40904 0.10787 0.0
H257 H 0.83612 0.43516 0.14173 0.0
H258 H 0.75402 0.31021 0.22284 0.0
H259 H 0.75732 0.24822 0.19599 0.0
H260 H 0.76424 0.31785 0.11535 0.0
C261 C 0.75663 0.45614 0.17618 0.0
C262 C 0.75374 0.46963 0.2047 0.0
C263 C 0.75173 0.4412 0.22804 0.0
C264 C 0.75268 0.40021 0.22322 0.0
C265 C 0.75562 0.38798 0.19494 0.0
C266 C 0.75752 0.41494 0.17177 0.0
C267 C 0.76054 0.39356 0.14353 0.0
C268 C 0.7183 0.38085 0.12441 0.0
C269 C 0.80582 0.42605 0.12767 0.0
C270 C 0.76012 0.35046 0.15454 0.0
C271 C 0.75725 0.34806 0.18427 0.0
C272 C 0.75625 0.31163 0.19954 0.0
C273 C 0.75815 0.27656 0.18404 0.0
C274 C 0.76104 0.27806 0.15352 0.0
C275 C 0.76208 0.31567 0.13865 0.0
H276 H 0.43396 0.75848 0.44127 0.0
H277 H 0.51189 0.76103 0.51691 0.0
H278 H 0.45366 0.76263 0.54822 0.0
H279 H 0.39744 0.83556 0.46897 0.0
H280 H 0.34051 0.80455 0.45333 0.0
H281 H 0.38781 0.80264 0.43625 0.0
H282 H 0.34201 0.71276 0.43839 0.0
H283 H 0.29451 0.7144 0.45542 0.0
H284 H 0.32016 0.68422 0.47254 0.0
H285 H 0.38954 0.76632 0.57163 0.0
H286 H 0.32072 0.76964 0.58618 0.0
H287 H 0.28169 0.76338 0.49619 0.0
C288 C 0.43862 0.75917 0.46441 0.0
C289 C 0.47765 0.75964 0.47655 0.0
C290 C 0.48241 0.76059 0.50698 0.0
C291 C 0.44949 0.76154 0.52504 0.0
C292 C 0.41172 0.76131 0.51246 0.0
C293 C 0.40579 0.75993 0.48292 0.0
C294 C 0.36179 0.76013 0.47527 0.0
C295 C 0.37255 0.8033 0.4574 0.0
C296 C 0.32759 0.7152 0.45947 0.0
C297 C 0.34434 0.76223 0.50516 0.0
C298 C 0.37387 0.76292 0.52619 0.0
C299 C 0.36598 0.7656 0.55539 0.0
C300 C 0.32676 0.76757 0.56342 0.0
C301 C 0.29566 0.76671 0.54237 0.0
C302 C 0.30465 0.7639 0.51281 0.0
H303 H 0.53967 0.29247 0.82934 0.0
H304 H 0.5716 0.30669 0.92094 0.0
H305 H 0.64477 0.37848 0.91146 0.0
H306 H 0.65702 0.33552 0.80429 0.0
H307 H 0.65162 0.36624 0.77394 0.0
H308 H 0.60153 0.31504 0.78752 0.0
H309 H 0.5594 0.36173 0.79409 0.0
H310 H 0.60935 0.41308 0.78056 0.0
H311 H 0.58606 0.41412 0.81541 0.0
H312 H 0.71327 0.44851 0.89305 0.0
H313 H 0.77456 0.51428 0.86639 0.0
H314 H 0.70019 0.4568 0.78617 0.0
C315 C 0.56216 0.31062 0.84736 0.0
C316 C 0.54977 0.29382 0.8759 0.0
C317 C 0.58014 0.31873 0.8989 0.0
C318 C 0.6219 0.3596 0.89376 0.0
C319 C 0.63298 0.37528 0.86551 0.0
C320 C 0.6042 0.35176 0.84263 0.0
C321 C 0.62459 0.37694 0.81442 0.0
C322 C 0.63427 0.34662 0.79383 0.0
C323 C 0.59297 0.39238 0.8003 0.0
C324 C 0.66914 0.41829 0.82517 0.0
C325 C 0.67309 0.41636 0.85472 0.0
C326 C 0.71071 0.45047 0.86988 0.0
C327 C 0.74536 0.48775 0.85447 0.0
C328 C 0.74231 0.49083 0.82413 0.0
C329 C 0.70361 0.45544 0.80932 0.0
H330 H 0.605 0.54399 0.22322 0.0
H331 H 0.63066 0.55191 0.13106 0.0
H332 H 0.54829 0.52468 0.12174 0.0
H333 H 0.49237 0.44152 0.22238 0.0
H334 H 0.4696 0.46235 0.25011 0.0
H335 H 0.5303 0.48141 0.24941 0.0
H336 H 0.54952 0.56701 0.2484 0.0
H337 H 0.4889 0.54836 0.2489 0.0
H338 H 0.52521 0.58596 0.22053 0.0
H339 H 0.46297 0.49486 0.12252 0.0
H340 H 0.38087 0.46668 0.13329 0.0
H341 H 0.41182 0.48199 0.22492 0.0
C342 C 0.5932 0.53961 0.20107 0.0
C343 C 0.62407 0.54967 0.17783 0.0
C344 C 0.60752 0.54429 0.14917 0.0
C345 C 0.56085 0.52885 0.14367 0.0
C346 C 0.53138 0.5195 0.16707 0.0
C347 C 0.54691 0.52487 0.1952 0.0
C348 C 0.50834 0.51345 0.21646 0.0
C349 C 0.49964 0.47223 0.23572 0.0
C350 C 0.51861 0.55625 0.23463 0.0
C351 C 0.46857 0.50041 0.19588 0.0
C352 C 0.48255 0.50393 0.1675 0.0
C353 C 0.45165 0.49225 0.14465 0.0
C354 C 0.40512 0.47625 0.15098 0.0
C355 C 0.39007 0.47248 0.17991 0.0
C356 C 0.42241 0.48512 0.20257 0.0
H357 H 0.06915 0.6086 0.50598 0.0
H358 H 0.08754 0.63298 0.5983 0.0
H359 H 0.03262 0.55025 0.60726 0.0
H360 H 0.94751 0.52268 0.50757 0.0
H361 H 0.95128 0.4871 0.47961 0.0
H362 H 0.99127 0.54874 0.48008 0.0
H363 H 0.05999 0.53369 0.48025 0.0
H364 H 0.02021 0.47202 0.47966 0.0
H365 H 0.06306 0.4971 0.50775 0.0
H366 H 0.97492 0.46569 0.60667 0.0
H367 H 0.92201 0.38273 0.59643 0.0
H368 H 0.94292 0.41082 0.50456 0.0
C369 C 0.06153 0.59644 0.52804 0.0
C370 C 0.08272 0.62731 0.55143 0.0
C371 C 0.07209 0.61 0.58001 0.0
C372 C 0.0407 0.56306 0.58536 0.0
C373 C 0.02046 0.53355 0.56192 0.0
C374 C 0.03068 0.54929 0.53381 0.0
C375 C 1.00508 0.5096 0.51263 0.0
C376 C 0.97181 0.51752 0.49387 0.0
C377 C 0.03912 0.5027 0.49398 0.0
C378 C 0.97894 0.46929 0.53327 0.0
C379 C 0.988 0.4841 0.56159 0.0
C380 C 0.9676 0.4536 0.58459 0.0
C381 C 0.93742 0.40654 0.57854 0.0
C382 C 0.92826 0.39022 0.54971 0.0
C383 C 0.94932 0.4222 0.52682 0.0
H384 H 0.47187 0.07025 0.89837 0.0
H385 H 0.46146 0.08601 0.80621 0.0
H386 H 0.48958 0.03148 0.79687 0.0
H387 H 0.57485 0.06144 0.89686 0.0
H388 H 0.55533 0.01793 0.92473 0.0
H389 H 0.53557 0.05921 0.92422 0.0
H390 H 0.45066 0.99172 0.92383 0.0
H391 H 0.47015 0.95023 0.92429 0.0
H392 H 0.43188 0.94787 0.89616 0.0
H393 H 0.52049 0.97706 0.79744 0.0
H394 H 0.54877 0.92297 0.80785 0.0
H395 H 0.53528 0.93908 0.89964 0.0
C396 C 0.47584 0.06246 0.87624 0.0
C397 C 0.4648 0.08257 0.85298 0.0
C398 C 0.46973 0.07098 0.82433 0.0
C399 C 0.48574 0.04013 0.81881 0.0
C400 C 0.49616 0.02077 0.84219 0.0
C401 C 0.49115 0.03118 0.87034 0.0
C402 C 0.50351 1.00449 0.89152 0.0
C403 C 0.54477 0.03776 0.91044 0.0
C404 C 0.46154 0.97163 0.91003 0.0
C405 C 0.51652 0.97769 0.87084 0.0
C406 C 0.51234 0.98789 0.84251 0.0
C407 C 0.52365 0.96854 0.81953 0.0
C408 C 0.53975 0.93795 0.82566 0.0
C409 C 0.54391 0.92662 0.85452 0.0
C410 C 0.5319 0.94666 0.87735 0.0
H411 H 0.54148 0.60781 0.4938 0.0
H412 H 0.5713 0.6359 0.40263 0.0
H413 H 0.5473 0.55371 0.39417 0.0
H414 H 0.57546 0.51982 0.50126 0.0
H415 H 0.52837 0.48353 0.52501 0.0
H416 H 0.5513 0.54541 0.52465 0.0
H417 H 0.46972 0.53231 0.51394 0.0
H418 H 0.44656 0.47043 0.51429 0.0
H419 H 0.43807 0.49776 0.4832 0.0
H420 H 0.52091 0.46958 0.39522 0.0
H421 H 0.48625 0.38584 0.4048 0.0
H422 H 0.46663 0.40892 0.49457 0.0
C423 C 0.54336 0.59652 0.47219 0.0
C424 C 0.55857 0.62807 0.44886 0.0
C425 C 0.55972 0.61213 0.42074 0.0
C426 C 0.54638 0.56562 0.41575 0.0
C427 C 0.53118 0.53518 0.43904 0.0
C428 C 0.52894 0.54964 0.46666 0.0
C429 C 0.50809 0.50875 0.48735 0.0
C430 C 0.54289 0.51475 0.51096 0.0
C431 C 0.46293 0.50192 0.50046 0.0
C432 C 0.49905 0.46928 0.46699 0.0
C433 C 0.5134 0.48563 0.43935 0.0
C434 C 0.50942 0.45627 0.41676 0.0
C435 C 0.48984 0.40876 0.42244 0.0
C436 C 0.4737 0.39083 0.45039 0.0
C437 C 0.47849 0.42162 0.47296 0.0
H438 H 0.95076 0.552 0.77097 0.0
H439 H 0.94288 0.56725 0.86344 0.0
H440 H 0.98689 0.52731 0.8717 0.0
H441 H 0.94204 0.43941 0.77179 0.0
H442 H 0.98387 0.45292 0.74355 0.0
H443 H 0.95025 0.48142 0.7445 0.0
H444 H 0.02537 0.56157 0.74446 0.0
H445 H 0.05922 0.53332 0.74351 0.0
H446 H 0.06856 0.5744 0.77172 0.0
H447 H 0.02792 0.48339 0.87053 0.0
H448 H 0.0711 0.44328 0.85995 0.0
H449 H 0.05971 0.46138 0.76819 0.0
C450 C 0.95825 0.54667 0.7929 0.0
C451 C 0.94331 0.56243 0.81662 0.0
C452 C 0.95419 0.55555 0.84501 0.0
C453 C 0.979 0.53277 0.84993 0.0
C454 C 0.99339 0.51777 0.8262 0.0
C455 C 0.98409 0.52485 0.79822 0.0
C456 C 1.00553 0.50674 0.77673 0.0
C457 C 0.96819 0.46781 0.75805 0.0
C458 C 0.04183 0.54638 0.758 0.0
C459 C 0.02783 0.48806 0.7971 0.0
C460 C 0.01974 0.49439 0.82551 0.0
C461 C 0.03491 0.47856 0.8484 0.0
C462 C 0.05922 0.45568 0.84217 0.0
C463 C 0.06884 0.44952 0.81331 0.0
C464 C 0.0532 0.46617 0.79045 0.0
H465 H 0.40846 0.95095 0.09952 0.0
H466 H 0.38151 0.94689 0.19135 0.0
H467 H 0.46498 0.99347 0.20087 0.0
H468 H 0.51352 0.94565 0.10433 0.0
H469 H 0.54239 0.98649 0.07553 0.0
H470 H 0.48035 0.95122 0.0756 0.0
H471 H 0.47376 0.02531 0.07251 0.0
H472 H 0.53579 0.06081 0.07249 0.0
H473 H 0.50232 0.07038 0.09917 0.0
H474 H 0.54986 0.03695 0.20113 0.0
H475 H 0.63356 0.08141 0.19184 0.0
H476 H 0.60784 0.0645 0.09966 0.0
C477 C 0.42036 0.95975 0.12158 0.0
C478 C 0.38872 0.94521 0.14476 0.0
C479 C 0.40526 0.95785 0.17332 0.0
C480 C 0.45256 0.98415 0.17896 0.0
C481 C 0.48289 0.99823 0.15575 0.0
C482 C 0.46772 0.98708 0.12759 0.0
C483 C 0.5081 0.00851 0.10672 0.0
C484 C 0.51126 0.9707 0.08953 0.0
C485 C 0.50478 0.04333 0.08653 0.0
C486 C 0.54814 0.03296 0.12765 0.0
C487 C 0.53256 0.02596 0.15582 0.0
C488 C 0.56258 0.04311 0.17919 0.0
C489 C 0.60999 0.06815 0.17371 0.0
C490 C 0.6269 0.07652 0.14509 0.0
C491 C 0.5956 0.05903 0.12172 0.0
H492 H 0.26898 0.36751 0.31167 0.0
H493 H 0.28758 0.30873 0.23274 0.0
H494 H 0.31072 0.26119 0.26152 0.0
H495 H 0.36546 0.38015 0.34714 0.0
H496 H 0.33945 0.36575 0.38243 0.0
H497 H 0.31885 0.39033 0.35587 0.0
H498 H 0.2359 0.32016 0.36135 0.0
H499 H 0.25626 0.29537 0.38807 0.0
H500 H 0.22587 0.26207 0.35667 0.0
H501 H 0.34126 0.22778 0.2989 0.0
H502 H 0.37406 0.20979 0.34145 0.0
H503 H 0.3332 0.28933 0.39554 0.0
C504 C 0.27697 0.34395 0.30037 0.0
C505 C 0.27634 0.34177 0.26992 0.0
C506 C 0.28748 0.31076 0.25605 0.0
C507 C 0.30068 0.28364 0.27223 0.0
C508 C 0.30202 0.28755 0.30223 0.0
C509 C 0.28998 0.31664 0.31614 0.0
C510 C 0.29716 0.31709 0.34839 0.0
C511 C 0.33232 0.36623 0.35906 0.0
C512 C 0.25104 0.29749 0.36457 0.0
C513 C 0.31636 0.28469 0.35047 0.0
C514 C 0.31871 0.26774 0.32368 0.0
C515 C 0.33876 0.24014 0.32003 0.0
C516 C 0.35738 0.23018 0.34431 0.0
C517 C 0.35571 0.24768 0.37187 0.0
C518 C 0.33412 0.27454 0.37491 0.0
H519 H 0.97863 0.30554 0.59578 0.0
H520 H 0.87706 0.17626 0.63533 0.0
H521 H 0.93168 0.18862 0.67473 0.0
H522 H 0.08561 0.30306 0.61992 0.0
H523 H 0.11628 0.36471 0.62669 0.0
H524 H 0.07368 0.34085 0.59836 0.0
H525 H 0.03073 0.37951 0.62119 0.0
H526 H 0.07278 0.40305 0.64966 0.0
H527 H 0.0124 0.36734 0.65828 0.0
H528 H 0.99057 0.22042 0.71331 0.0
H529 H 0.05032 0.26941 0.74871 0.0
H530 H 0.11428 0.37961 0.68526 0.0
C531 C 0.96888 0.27892 0.61207 0.0
C532 C 0.92416 0.23944 0.61232 0.0
C533 C 0.9115 0.20633 0.63465 0.0
C534 C 0.94231 0.21305 0.65705 0.0
C535 C 0.98557 0.25322 0.65688 0.0
C536 C 0.99907 0.28556 0.63491 0.0
C537 C 0.04481 0.32865 0.64194 0.0
C538 C 0.08232 0.33466 0.62045 0.0
C539 C 0.03984 0.37217 0.64283 0.0
C540 C 0.05394 0.31617 0.67172 0.0
C541 C 0.01968 0.27219 0.67967 0.0
C542 C 0.01815 0.2545 0.70713 0.0
C543 C 0.05212 0.28269 0.72714 0.0
C544 C 0.08716 0.32814 0.71967 0.0
C545 C 0.08852 0.34463 0.69138 0.0
H546 H 0.6636 0.98221 0.93018 0.0
H547 H 0.68389 0.87553 0.96887 0.0
H548 H 0.73126 0.93007 0.00735 0.0
H549 H 0.77893 0.08601 0.95203 0.0
H550 H 0.75251 0.12052 0.95959 0.0
H551 H 0.72929 0.07702 0.9316 0.0
H552 H 0.64908 0.03907 0.95618 0.0
H553 H 0.67201 0.08202 0.98429 0.0
H554 H 0.64368 0.02122 0.99336 0.0
H555 H 0.76421 0.98994 0.04542 0.0
H556 H 0.78112 0.05174 0.08083 0.0
H557 H 0.7391 0.12064 0.01861 0.0
C558 C 0.67993 0.97133 0.94608 0.0
C559 C 0.6714 0.92534 0.94636 0.0
C560 C 0.69105 0.91107 0.96816 0.0
C561 C 0.71798 0.94179 0.99003 0.0
C562 C 0.72461 0.98657 0.98986 0.0
C563 C 0.7064 1.00153 0.96839 0.0
C564 C 0.71334 0.04911 0.97547 0.0
C565 C 0.74544 0.08531 0.95335 0.0
C566 C 0.66676 0.04773 0.97745 0.0
C567 C 0.73645 0.05757 0.00476 0.0
C568 C 0.7433 0.02137 0.01237 0.0
C569 C 0.76002 0.01902 0.03947 0.0
C570 C 0.76934 0.05418 0.0595 0.0
C571 C 0.76188 0.09121 0.05238 0.0
C572 C 0.74618 0.09334 0.02441 0.0
H573 H 0.60492 0.73314 0.33508 0.0
H574 H 0.72132 0.79908 0.39375 0.0
H575 H 0.76935 0.78616 0.35898 0.0
H576 H 0.62196 0.64406 0.3155 0.0
H577 H 0.60536 0.64065 0.27821 0.0
H578 H 0.58255 0.66321 0.30464 0.0
H579 H 0.61339 0.73923 0.27526 0.0
H580 H 0.63613 0.71667 0.24856 0.0
H581 H 0.67364 0.77172 0.26564 0.0
H582 H 0.8003 0.75442 0.32293 0.0
H583 H 0.81236 0.70639 0.2872 0.0
H584 H 0.67754 0.66181 0.25058 0.0
C585 C 0.641 0.74641 0.34005 0.0
C586 C 0.65961 0.76759 0.36694 0.0
C587 C 0.70649 0.78302 0.37319 0.0
C588 C 0.73411 0.77602 0.35351 0.0
C589 C 0.71441 0.75363 0.32759 0.0
C590 C 0.66902 0.73928 0.32066 0.0
C591 C 0.65483 0.71109 0.29298 0.0
C592 C 0.61377 0.66185 0.29817 0.0
C593 C 0.64386 0.73619 0.2692 0.0
C594 C 0.69866 0.71016 0.28619 0.0
C595 C 0.7328 0.73556 0.30624 0.0
C596 C 0.77445 0.73562 0.30658 0.0
C597 C 0.78105 0.70834 0.28627 0.0
C598 C 0.74643 0.68184 0.26582 0.0
C599 C 0.70516 0.68344 0.26536 0.0
H600 H 0.03878 0.71039 0.60361 0.0
H601 H 0.1459 0.83184 0.64744 0.0
H602 H 0.09135 0.82085 0.6866 0.0
H603 H 0.93685 0.72112 0.62803 0.0
H604 H 0.90152 0.65922 0.63283 0.0
H605 H 0.94546 0.68219 0.6053 0.0
H606 H 0.98151 0.63588 0.62685 0.0
H607 H 0.938 0.61304 0.65446 0.0
H608 H 0.99821 0.6437 0.66432 0.0
H609 H 0.03037 0.79088 0.72383 0.0
H610 H 0.96756 0.74278 0.75764 0.0
H611 H 0.89958 0.63858 0.69092 0.0
C612 C 0.04995 0.73566 0.6209 0.0
C613 C 0.09606 0.77254 0.62238 0.0
C614 C 0.11044 0.80379 0.64588 0.0
C615 C 0.07968 0.79789 0.66811 0.0
C616 C 0.03477 0.76031 0.6666 0.0
C617 C 0.01981 0.72967 0.6436 0.0
C618 C 0.97201 0.68862 0.64922 0.0
C619 C 0.93688 0.68776 0.62755 0.0
C620 C 0.9725 0.64262 0.64869 0.0
C621 C 0.96321 0.70016 0.67935 0.0
C622 C 0.99953 0.74212 0.68869 0.0
C623 C 1.00132 0.75841 0.7166 0.0
C624 C 0.96554 0.73073 0.73569 0.0
C625 C 0.92852 0.68709 0.72687 0.0
C626 C 0.92692 0.67221 0.6981 0.0
H627 H 0.27659 0.89379 0.0177 0.0
H628 H 0.22922 0.96068 0.07789 0.0
H629 H 0.24279 0.01987 0.04127 0.0
H630 H 0.36843 0.9939 0.99204 0.0
H631 H 0.36472 0.97522 0.95515 0.0
H632 H 0.34274 0.933 0.98365 0.0
H633 H 0.26278 0.89046 0.95859 0.0
H634 H 0.28464 0.93276 0.92993 0.0
H635 H 0.23391 0.92218 0.94968 0.0
H636 H 0.27313 0.07814 0.00226 0.0
H637 H 0.31972 0.13252 0.96355 0.0
H638 H 0.34712 0.0288 0.92761 0.0
C639 C 0.2676 0.91999 0.02279 0.0
C640 C 0.25138 0.9224 0.05052 0.0
C641 C 0.24143 0.95806 0.05673 0.0
C642 C 0.24878 0.99168 0.036 0.0
C643 C 0.26602 0.98914 0.00913 0.0
C644 C 0.2752 0.95415 0.00238 0.0
C645 C 0.29894 0.96269 0.97331 0.0
C646 C 0.34651 0.96645 0.97623 0.0
C647 C 0.26822 0.92476 0.95159 0.0
C648 C 0.30349 0.00897 0.96539 0.0
C649 C 0.28347 0.02312 0.98615 0.0
C650 C 0.28773 0.06692 0.98544 0.0
C651 C 0.31415 0.09754 0.96342 0.0
C652 C 0.3356 0.08408 0.94236 0.0
C653 C 0.32932 0.03894 0.94289 0.0
H654 H 0.92424 0.24111 0.1202 0.0
H655 H 0.8696 0.18002 0.20401 0.0
H656 H 0.94791 0.22107 0.22444 0.0
H657 H 0.02839 0.23295 0.12603 0.0
H658 H 0.06433 0.28709 0.10763 0.0
H659 H 1.00366 0.25338 0.09932 0.0
H660 H 0.99458 0.3245 0.11083 0.0
H661 H 0.05517 0.35836 0.11929 0.0
H662 H 0.01284 0.35253 0.14548 0.0
H663 H 0.03063 0.27167 0.2368 0.0
H664 H 0.11522 0.32328 0.23915 0.0
H665 H 0.11845 0.3476 0.14701 0.0
C666 C 0.92891 0.23635 0.1428 0.0
C667 C 0.89079 0.2074 0.1605 0.0
C668 C 0.89826 0.20177 0.18996 0.0
C669 C 0.94261 0.22512 0.20185 0.0
C670 C 0.97938 0.25351 0.18395 0.0
C671 C 0.9733 0.25878 0.15499 0.0
C672 C 0.01924 0.29051 0.14053 0.0
C673 C 0.0295 0.26441 0.11699 0.0
C674 C 0.02051 0.33405 0.12832 0.0
C675 C 0.05178 0.30244 0.16598 0.0
C676 C 0.02787 0.28111 0.19087 0.0
C677 C 0.0499 0.28822 0.21743 0.0
C678 C 0.09785 0.31768 0.21858 0.0
C679 C 0.12324 0.339 0.19326 0.0
C680 C 0.09986 0.33118 0.16663 0.0
H681 H 0.78041 0.09128 0.54283 0.0
H682 H 0.82151 0.15641 0.45867 0.0
H683 H 0.78461 0.07909 0.43569 0.0
H684 H 0.79952 0.99459 0.52633 0.0
H685 H 0.75079 0.95343 0.54738 0.0
H686 H 0.78131 0.01392 0.55736 0.0
H687 H 0.70482 0.01544 0.5552 0.0
H688 H 0.6741 0.95504 0.54515 0.0
H689 H 0.67081 0.99737 0.52262 0.0
H690 H 0.73771 0.99545 0.42158 0.0
H691 H 0.68949 0.91018 0.41736 0.0
H692 H 0.68346 0.89808 0.51059 0.0
C693 C 0.78189 0.08923 0.51958 0.0
C694 C 0.80374 0.12992 0.50252 0.0
C695 C 0.80516 0.12577 0.47218 0.0
C696 C 0.78419 0.08199 0.45893 0.0
C697 C 0.76259 0.04261 0.47631 0.0
C698 C 0.76184 0.04571 0.506 0.0
C699 C 0.73639 0.99782 0.51963 0.0
C700 C 0.76895 0.98946 0.53881 0.0
C701 C 0.69402 0.99104 0.53665 0.0
C702 C 0.72219 0.96737 0.49293 0.0
C703 C 0.73743 0.99404 0.46818 0.0
C704 C 0.72622 0.97417 0.4408 0.0
C705 C 0.6987 0.92578 0.43861 0.0
C706 C 0.68329 0.89767 0.46362 0.0
C707 C 0.69558 0.91876 0.49113 0.0
H708 H 0.7764 0.69257 0.79245 0.0
H709 H 0.83046 0.69321 0.87769 0.0
H710 H 0.78646 0.72752 0.89788 0.0
H711 H 0.78154 0.80383 0.80087 0.0
H712 H 0.72926 0.78629 0.78076 0.0
H713 H 0.76443 0.76088 0.77274 0.0
H714 H 0.6938 0.67878 0.78071 0.0
H715 H 0.65847 0.70395 0.78889 0.0
H716 H 0.66281 0.66549 0.81438 0.0
H717 H 0.73384 0.75726 0.90963 0.0
H718 H 0.68159 0.7893 0.91142 0.0
H719 H 0.66546 0.77577 0.81842 0.0
C720 C 0.77899 0.7001 0.81532 0.0
C721 C 0.80679 0.69016 0.8335 0.0
C722 C 0.80962 0.70079 0.8633 0.0
C723 C 0.78457 0.72007 0.87504 0.0
C724 C 0.75733 0.72924 0.85666 0.0
C725 C 0.75485 0.72037 0.82738 0.0
C726 C 0.72397 0.73514 0.81246 0.0
C727 C 0.75145 0.77384 0.79041 0.0
C728 C 0.68229 0.69334 0.79828 0.0
C729 C 0.70926 0.75317 0.83801 0.0
C730 C 0.72853 0.74882 0.86331 0.0
C731 C 0.71886 0.76132 0.88995 0.0
C732 C 0.689 0.77925 0.89077 0.0
C733 C 0.66979 0.78522 0.86507 0.0
C734 C 0.68012 0.77202 0.83835 0.0
H735 H 0.89687 0.67085 0.14262 0.0
H736 H 0.89843 0.69436 0.23481 0.0
H737 H 0.98303 0.74534 0.23327 0.0
H738 H 1.00152 0.6647 0.14201 0.0
H739 H 0.02086 0.69308 0.10758 0.0
H740 H 0.96002 0.65992 0.11546 0.0
H741 H 0.9521 0.73172 0.10399 0.0
H742 H 0.01293 0.76512 0.09614 0.0
H743 H 0.98808 0.78555 0.12276 0.0
H744 H 0.06589 0.79515 0.22191 0.0
H745 H 0.14474 0.83602 0.20237 0.0
H746 H 0.09205 0.77655 0.11786 0.0
C747 C 0.91513 0.68699 0.1624 0.0
C748 C 0.89124 0.67903 0.18883 0.0
C749 C 0.91617 0.70002 0.21438 0.0
C750 C 0.96414 0.72914 0.2137 0.0
C751 C 0.98671 0.7363 0.18737 0.0
C752 C 0.96329 0.71545 0.16222 0.0
C753 C 0.9965 0.7275 0.13712 0.0
C754 C 0.9946 0.68369 0.12483 0.0
C755 C 0.98681 0.75406 0.11362 0.0
C756 C 0.04213 0.7586 0.15212 0.0
C757 C 0.03537 0.76354 0.18102 0.0
C758 C 0.07174 0.79139 0.19937 0.0
C759 C 0.11639 0.81462 0.18799 0.0
C760 C 0.12453 0.80942 0.15859 0.0
C761 C 0.08684 0.78093 0.14043 0.0
H762 H 0.2358 0.89691 0.48131 0.0
H763 H 0.18611 0.90472 0.56625 0.0
H764 H 0.21598 0.98863 0.55953 0.0
H765 H 0.34156 1.0029 0.48756 0.0
H766 H 0.34432 0.01977 0.45036 0.0
H767 H 0.31396 0.95923 0.45999 0.0
H768 H 0.24003 0.94879 0.43519 0.0
H769 H 0.27025 0.00935 0.4254 0.0
H770 H 0.21725 0.98551 0.44564 0.0
H771 H 0.25363 0.07157 0.54486 0.0
H772 H 0.3016 0.14998 0.52461 0.0
H773 H 0.33234 0.0908 0.45026 0.0
C774 C 0.2304 0.91628 0.49811 0.0
C775 C 0.20804 0.89449 0.52411 0.0
C776 C 0.20283 0.92094 0.5461 0.0
C777 C 0.21955 0.9685 0.54245 0.0
C778 C 0.24208 0.98931 0.51681 0.0
C779 C 0.24795 0.96428 0.49507 0.0
C780 C 0.27721 0.99618 0.47084 0.0
C781 C 0.32191 0.99441 0.46698 0.0
C782 C 0.24952 0.98424 0.44259 0.0
C783 C 0.28718 0.04293 0.48255 0.0
C784 C 0.2659 0.03793 0.50888 0.0
C785 C 0.27036 0.07596 0.5242 0.0
C786 C 0.2977 0.12041 0.51248 0.0
C787 C 0.32084 0.1267 0.48584 0.0
C788 C 0.31512 0.08722 0.47065 0.0
H789 H 0.23559 0.31907 0.78675 0.0
H790 H 0.18137 0.31972 0.87171 0.0
H791 H 0.22512 0.28554 0.89238 0.0
H792 H 0.22974 0.20765 0.79599 0.0
H793 H 0.282 0.22449 0.77606 0.0
H794 H 0.24725 0.25022 0.76763 0.0
H795 H 0.31826 0.33216 0.7754 0.0
H796 H 0.35318 0.30668 0.78397 0.0
H797 H 0.34913 0.34573 0.80915 0.0
H798 H 0.27706 0.25548 0.90465 0.0
H799 H 0.32859 0.2227 0.90706 0.0
H800 H 0.34546 0.23493 0.81407 0.0
C801 C 0.23297 0.31188 0.80966 0.0
C802 C 0.20513 0.32209 0.82763 0.0
C803 C 0.20222 0.31189 0.85749 0.0
C804 C 0.22713 0.2927 0.8695 0.0
C805 C 0.25432 0.28316 0.85134 0.0
C806 C 0.25695 0.29164 0.82202 0.0
C807 C 0.28763 0.2763 0.8074 0.0
C808 C 0.26 0.23734 0.78547 0.0
C809 C 0.32953 0.31769 0.79314 0.0
C810 C 0.30202 0.25842 0.83317 0.0
C811 C 0.28278 0.26334 0.85831 0.0
C812 C 0.29205 0.25099 0.88511 0.0
C813 C 0.32151 0.23262 0.88627 0.0
C814 C 0.34073 0.22608 0.86076 0.0
C815 C 0.3308 0.23914 0.83387 0.0
loop_
_geom_bond_atom_site_label_1
_geom_bond_atom_site_label_2
_geom_bond_distance
_geom_bond_site_symmetry_2
_ccdc_geom_bond_type
C0 O2 1.247 . S
C0 O4 1.258 . S
C1 O8 1.247 . S
C1 O9 1.258 . S
O2 C0 1.247 . S
O2 Zn3 2.028 . S
Zn3 O2 2.028 . S
Zn3 O7 2.035 . S
Zn3 O9 2.035 . S
Zn3 O10 2.028 . S
O4 C0 1.258 . S
O4 Zn5 2.035 . S
Zn5 O4 2.035 . S
Zn5 O6 2.028 . S
Zn5 O8 2.028 . S
Zn5 O11 2.035 . S
O6 Zn5 2.028 . S
O6 C12 1.247 . S
O7 Zn3 2.035 . S
O7 C12 1.258 . S
O8 C1 1.247 . S
O8 Zn5 2.028 . S
O9 C1 1.258 . S
O9 Zn3 2.035 . S
O10 Zn3 2.028 . S
O10 C13 1.247 . S
O11 Zn5 2.035 . S
O11 C13 1.258 . S
C12 O6 1.247 . S
C12 O7 1.258 . S
C13 O10 1.247 . S
C13 O11 1.258 . S
C14 O16 1.247 . S
C14 O18 1.258 . S
C15 O22 1.247 . S
C15 O23 1.258 . S
O16 C14 1.247 . S
O16 Zn17 2.028 . S
Zn17 O16 2.028 . S
Zn17 O21 2.035 . S
Zn17 O23 2.035 . S
Zn17 O24 2.028 . S
O18 C14 1.258 . S
O18 Zn19 2.035 . S
Zn19 O18 2.035 . S
Zn19 O20 2.028 . S
Zn19 O22 2.028 . S
Zn19 O25 2.035 . S
O20 Zn19 2.028 . S
O20 C26 1.247 . S
O21 Zn17 2.035 . S
O21 C26 1.258 . S
O22 C15 1.247 . S
O22 Zn19 2.028 . S
O23 C15 1.258 . S
O23 Zn17 2.035 . S
O24 Zn17 2.028 . S
O24 C27 1.247 . S
O25 Zn19 2.035 . S
O25 C27 1.258 . S
C26 O20 1.247 . S
C26 O21 1.258 . S
C27 O24 1.247 . S
C27 O25 1.258 . S
C28 O30 1.247 . S
C28 O32 1.258 . S
C29 O36 1.247 . S
C29 O37 1.258 . S
O30 C28 1.247 . S
O30 Zn31 2.028 . S
Zn31 O30 2.028 . S
Zn31 O35 2.035 . S
Zn31 O37 2.035 . S
Zn31 O38 2.028 . S
O32 C28 1.258 . S
O32 Zn33 2.035 . S
Zn33 O32 2.035 . S
Zn33 O34 2.028 . S
Zn33 O36 2.028 . S
Zn33 O39 2.035 . S
O34 Zn33 2.028 . S
O34 C40 1.247 . S
O35 Zn31 2.035 . S
O35 C40 1.258 . S
O36 C29 1.247 . S
O36 Zn33 2.028 . S
O37 C29 1.258 . S
O37 Zn31 2.035 . S
O38 Zn31 2.028 . S
O38 C41 1.247 . S
O39 Zn33 2.035 . S
O39 C41 1.258 . S
C40 O34 1.247 . S
C40 O35 1.258 . S
C41 O38 1.247 . S
C41 O39 1.258 . S
C42 O44 1.247 . S
C42 O46 1.258 . S
C43 O50 1.247 . S
C43 O51 1.258 . S
O44 C42 1.247 . S
O44 Zn45 2.028 . S
Zn45 O44 2.028 . S
Zn45 O49 2.035 . S
Zn45 O51 2.035 . S
Zn45 O52 2.028 . S
O46 C42 1.258 . S
O46 Zn47 2.035 . S
Zn47 O46 2.035 . S
Zn47 O48 2.028 . S
Zn47 O50 2.028 . S
Zn47 O53 2.035 . S
O48 Zn47 2.028 . S
O48 C54 1.247 . S
O49 Zn45 2.035 . S
O49 C54 1.258 . S
O50 C43 1.247 . S
O50 Zn47 2.028 . S
O51 C43 1.258 . S
O51 Zn45 2.035 . S
O52 Zn45 2.028 . S
O52 C55 1.247 . S
O53 Zn47 2.035 . S
O53 C55 1.258 . S
C54 O48 1.247 . S
C54 O49 1.258 . S
C55 O52 1.247 . S
C55 O53 1.258 . S
C56 O58 1.247 . S
C56 O60 1.258 . S
C57 O64 1.247 . S
C57 O65 1.258 . S
O58 C56 1.247 . S
O58 Zn59 2.028 . S
Zn59 O58 2.028 . S
Zn59 O63 2.035 . S
Zn59 O65 2.035 . S
Zn59 O66 2.028 . S
O60 C56 1.258 . S
O60 Zn61 2.035 . S
Zn61 O60 2.035 . S
Zn61 O62 2.028 . S
Zn61 O64 2.028 . S
Zn61 O67 2.035 . S
O62 Zn61 2.028 . S
O62 C68 1.247 . S
O63 Zn59 2.035 . S
O63 C68 1.258 . S
O64 C57 1.247 . S
O64 Zn61 2.028 . S
O65 C57 1.258 . S
O65 Zn59 2.035 . S
O66 Zn59 2.028 . S
O66 C69 1.247 . S
O67 Zn61 2.035 . S
O67 C69 1.258 . S
C68 O62 1.247 . S
C68 O63 1.258 . S
C69 O66 1.247 . S
C69 O67 1.258 . S
C70 O72 1.247 . S
C70 O74 1.258 . S
C71 O78 1.247 . S
C71 O79 1.258 . S
O72 C70 1.247 . S
O72 Zn73 2.028 . S
Zn73 O72 2.028 . S
Zn73 O77 2.035 . S
Zn73 O79 2.035 . S
Zn73 O80 2.028 . S
O74 C70 1.258 . S
O74 Zn75 2.035 . S
Zn75 O74 2.035 . S
Zn75 O76 2.028 . S
Zn75 O78 2.028 . S
Zn75 O81 2.035 . S
O76 Zn75 2.028 . S
O76 C82 1.247 . S
O77 Zn73 2.035 . S
O77 C82 1.258 . S
O78 C71 1.247 . S
O78 Zn75 2.028 . S
O79 C71 1.258 . S
O79 Zn73 2.035 . S
O80 Zn73 2.028 . S
O80 C83 1.247 . S
O81 Zn75 2.035 . S
O81 C83 1.258 . S
C82 O76 1.247 . S
C82 O77 1.258 . S
C83 O80 1.247 . S
C83 O81 1.258 . S
C84 O86 1.247 . S
C84 O88 1.258 . S
C85 O92 1.247 . S
C85 O93 1.258 . S
O86 C84 1.247 . S
O86 Zn87 2.028 . S
Zn87 O86 2.028 . S
Zn87 O91 2.035 . S
Zn87 O93 2.035 . S
Zn87 O94 2.028 . S
O88 C84 1.258 . S
O88 Zn89 2.035 . S
Zn89 O88 2.035 . S
Zn89 O90 2.028 . S
Zn89 O92 2.028 . S
Zn89 O95 2.035 . S
O90 Zn89 2.028 . S
O90 C96 1.247 . S
O91 Zn87 2.035 . S
O91 C96 1.258 . S
O92 C85 1.247 . S
O92 Zn89 2.028 . S
O93 C85 1.258 . S
O93 Zn87 2.035 . S
O94 Zn87 2.028 . S
O94 C97 1.247 . S
O95 Zn89 2.035 . S
O95 C97 1.258 . S
C96 O90 1.247 . S
C96 O91 1.258 . S
C97 O94 1.247 . S
C97 O95 1.258 . S
C98 O100 1.247 . S
C98 O102 1.258 . S
C99 O106 1.247 . S
C99 O107 1.258 . S
O100 C98 1.247 . S
O100 Zn101 2.028 . S
Zn101 O100 2.028 . S
Zn101 O105 2.035 . S
Zn101 O107 2.035 . S
Zn101 O108 2.028 . S
O102 C98 1.258 . S
O102 Zn103 2.035 . S
Zn103 O102 2.035 . S
Zn103 O104 2.028 . S
Zn103 O106 2.028 . S
Zn103 O109 2.035 . S
O104 Zn103 2.028 . S
O104 C110 1.247 . S
O105 Zn101 2.035 . S
O105 C110 1.258 . S
O106 C99 1.247 . S
O106 Zn103 2.028 . S
O107 C99 1.258 . S
O107 Zn101 2.035 . S
O108 Zn101 2.028 . S
O108 C111 1.247 . S
O109 Zn103 2.035 . S
O109 C111 1.258 . S
C110 O104 1.247 . S
C110 O105 1.258 . S
C111 O108 1.247 . S
C111 O109 1.258 . S
C112 O114 1.247 . S
C112 O116 1.258 . S
C113 O120 1.247 . S
C113 O121 1.258 . S
O114 C112 1.247 . S
O114 Zn115 2.028 . S
Zn115 O114 2.028 . S
Zn115 O119 2.035 . S
Zn115 O121 2.035 . S
Zn115 O122 2.028 . S
O116 C112 1.258 . S
O116 Zn117 2.035 . S
Zn117 O116 2.035 . S
Zn117 O118 2.028 . S
Zn117 O120 2.028 . S
Zn117 O123 2.035 . S
O118 Zn117 2.028 . S
O118 C124 1.247 . S
O119 Zn115 2.035 . S
O119 C124 1.258 . S
O120 C113 1.247 . S
O120 Zn117 2.028 . S
O121 C113 1.258 . S
O121 Zn115 2.035 . S
O122 Zn115 2.028 . S
O122 C125 1.247 . S
O123 Zn117 2.035 . S
O123 C125 1.258 . S
C124 O118 1.247 . S
C124 O119 1.258 . S
C125 O122 1.247 . S
C125 O123 1.258 . S
C126 O128 1.247 . S
C126 O130 1.258 . S
C127 O134 1.247 . S
C127 O135 1.258 . S
O128 C126 1.247 . S
O128 Zn129 2.028 . S
Zn129 O128 2.028 . S
Zn129 O133 2.035 . S
Zn129 O135 2.035 . S
Zn129 O136 2.028 . S
O130 C126 1.258 . S
O130 Zn131 2.035 . S
Zn131 O130 2.035 . S
Zn131 O132 2.028 . S
Zn131 O134 2.028 . S
Zn131 O137 2.035 . S
O132 Zn131 2.028 . S
O132 C138 1.247 . S
O133 Zn129 2.035 . S
O133 C138 1.258 . S
O134 C127 1.247 . S
O134 Zn131 2.028 . S
O135 C127 1.258 . S
O135 Zn129 2.035 . S
O136 Zn129 2.028 . S
O136 C139 1.247 . S
O137 Zn131 2.035 . S
O137 C139 1.258 . S
C138 O132 1.247 . S
C138 O133 1.258 . S
C139 O136 1.247 . S
C139 O137 1.258 . S
C140 O142 1.247 . S
C140 O144 1.258 . S
C141 O148 1.247 . S
C141 O149 1.258 . S
O142 C140 1.247 . S
O142 Zn143 2.028 . S
Zn143 O142 2.028 . S
Zn143 O147 2.035 . S
Zn143 O149 2.035 . S
Zn143 O150 2.028 . S
O144 C140 1.258 . S
O144 Zn145 2.035 . S
Zn145 O144 2.035 . S
Zn145 O146 2.028 . S
Zn145 O148 2.028 . S
Zn145 O151 2.035 . S
O146 Zn145 2.028 . S
O146 C152 1.247 . S
O147 Zn143 2.035 . S
O147 C152 1.258 . S
O148 C141 1.247 . S
O148 Zn145 2.028 . S
O149 C141 1.258 . S
O149 Zn143 2.035 . S
O150 Zn143 2.028 . S
O150 C153 1.247 . S
O151 Zn145 2.035 . S
O151 C153 1.258 . S
C152 O146 1.247 . S
C152 O147 1.258 . S
C153 O150 1.247 . S
C153 O151 1.258 . S
C154 O156 1.247 . S
C154 O158 1.258 . S
C155 O162 1.247 . S
C155 O163 1.258 . S
O156 C154 1.247 . S
O156 Zn157 2.028 . S
Zn157 O156 2.028 . S
Zn157 O161 2.035 . S
Zn157 O163 2.035 . S
Zn157 O164 2.028 . S
O158 C154 1.258 . S
O158 Zn159 2.035 . S
Zn159 O158 2.035 . S
Zn159 O160 2.028 . S
Zn159 O162 2.028 . S
Zn159 O165 2.035 . S
O160 Zn159 2.028 . S
O160 C166 1.247 . S
O161 Zn157 2.035 . S
O161 C166 1.258 . S
O162 C155 1.247 . S
O162 Zn159 2.028 . S
O163 C155 1.258 . S
O163 Zn157 2.035 . S
O164 Zn157 2.028 . S
O164 C167 1.247 . S
O165 Zn159 2.035 . S
O165 C167 1.258 . S
C166 O160 1.247 . S
C166 O161 1.258 . S
C167 O164 1.247 . S
C167 O165 1.258 . S
H168 C180 0.930 . S
H169 C182 0.930 . S
H170 C183 0.930 . S
H171 C187 0.959 . S
H172 C187 0.959 . S
H173 C187 0.961 . S
H174 C188 0.960 . S
H175 C188 0.961 . S
H176 C188 0.959 . S
H177 C191 0.929 . S
H178 C192 0.931 . S
H179 C194 0.930 . S
C180 H168 0.930 . S
C180 C181 1.399 . S
C180 C185 1.399 . S
C181 C180 1.399 . S
C181 C182 1.376 . S
C182 H169 0.930 . S
C182 C181 1.376 . S
C182 C183 1.388 . S
C183 H170 0.930 . S
C183 C182 1.388 . S
C183 C184 1.390 . S
C184 C183 1.390 . S
C184 C185 1.394 . S
C184 C190 1.465 . S
C185 C180 1.399 . S
C185 C184 1.394 . S
C185 C186 1.516 . S
C186 C185 1.516 . S
C186 C187 1.502 . S
C186 C188 1.561 . S
C186 C189 1.526 . S
C187 H171 0.959 . S
C187 H172 0.959 . S
C187 H173 0.961 . S
C187 C186 1.502 . S
C188 H174 0.960 . S
C188 H175 0.961 . S
C188 H176 0.959 . S
C188 C186 1.561 . S
C189 C186 1.526 . S
C189 C190 1.396 . S
C189 C194 1.390 . S
C190 C184 1.465 . S
C190 C189 1.396 . S
C190 C191 1.399 . S
C191 H177 0.929 . S
C191 C190 1.399 . S
C191 C192 1.385 . S
C192 H178 0.931 . S
C192 C191 1.385 . S
C192 C193 1.389 . S
C193 C192 1.389 . S
C193 C194 1.387 . S
C194 H179 0.930 . S
C194 C189 1.390 . S
C194 C193 1.387 . S
H195 C207 0.930 . S
H196 C209 0.930 . S
H197 C210 0.930 . S
H198 C214 0.959 . S
H199 C214 0.959 . S
H200 C214 0.961 . S
H201 C215 0.960 . S
H202 C215 0.961 . S
H203 C215 0.959 . S
H204 C218 0.929 . S
H205 C219 0.931 . S
H206 C221 0.930 . S
C207 H195 0.930 . S
C207 C208 1.399 . S
C207 C212 1.399 . S
C208 C207 1.399 . S
C208 C209 1.376 . S
C209 H196 0.930 . S
C209 C208 1.376 . S
C209 C210 1.388 . S
C210 H197 0.930 . S
C210 C209 1.388 . S
C210 C211 1.390 . S
C211 C210 1.390 . S
C211 C212 1.394 . S
C211 C217 1.465 . S
C212 C207 1.399 . S
C212 C211 1.394 . S
C212 C213 1.516 . S
C213 C212 1.516 . S
C213 C214 1.502 . S
C213 C215 1.561 . S
C213 C216 1.526 . S
C214 H198 0.959 . S
C214 H199 0.959 . S
C214 H200 0.961 . S
C214 C213 1.502 . S
C215 H201 0.960 . S
C215 H202 0.961 . S
C215 H203 0.959 . S
C215 C213 1.561 . S
C216 C213 1.526 . S
C216 C217 1.396 . S
C216 C221 1.390 . S
C217 C211 1.465 . S
C217 C216 1.396 . S
C217 C218 1.399 . S
C218 H204 0.929 . S
C218 C217 1.399 . S
C218 C219 1.385 . S
C219 H205 0.931 . S
C219 C218 1.385 . S
C219 C220 1.389 . S
C220 C219 1.389 . S
C220 C221 1.387 . S
C221 H206 0.930 . S
C221 C216 1.390 . S
C221 C220 1.387 . S
H222 C234 0.930 . S
H223 C236 0.930 . S
H224 C237 0.930 . S
H225 C241 0.959 . S
H226 C241 0.959 . S
H227 C241 0.961 . S
H228 C242 0.960 . S
H229 C242 0.961 . S
H230 C242 0.959 . S
H231 C245 0.929 . S
H232 C246 0.931 . S
H233 C248 0.930 . S
C234 H222 0.930 . S
C234 C235 1.399 . S
C234 C239 1.399 . S
C235 C234 1.399 . S
C235 C236 1.376 . S
C236 H223 0.930 . S
C236 C235 1.376 . S
C236 C237 1.388 . S
C237 H224 0.930 . S
C237 C236 1.388 . S
C237 C238 1.390 . S
C238 C237 1.390 . S
C238 C239 1.394 . S
C238 C244 1.465 . S
C239 C234 1.399 . S
C239 C238 1.394 . S
C239 C240 1.516 . S
C240 C239 1.516 . S
C240 C241 1.502 . S
C240 C242 1.561 . S
C240 C243 1.526 . S
C241 H225 0.959 . S
C241 H226 0.959 . S
C241 H227 0.961 . S
C241 C240 1.502 . S
C242 H228 0.960 . S
C242 H229 0.961 . S
C242 H230 0.959 . S
C242 C240 1.561 . S
C243 C240 1.526 . S
C243 C244 1.396 . S
C243 C248 1.390 . S
C244 C238 1.465 . S
C244 C243 1.396 . S
C244 C245 1.399 . S
C245 H231 0.929 . S
C245 C244 1.399 . S
C245 C246 1.385 . S
C246 H232 0.931 . S
C246 C245 1.385 . S
C246 C247 1.389 . S
C247 C246 1.389 . S
C247 C248 1.387 . S
C248 H233 0.930 . S
C248 C243 1.390 . S
C248 C247 1.387 . S
H249 C261 0.930 . S
H250 C263 0.930 . S
H251 C264 0.930 . S
H252 C268 0.959 . S
H253 C268 0.959 . S
H254 C268 0.961 . S
H255 C269 0.960 . S
H256 C269 0.961 . S
H257 C269 0.959 . S
H258 C272 0.929 . S
H259 C273 0.931 . S
H260 C275 0.930 . S
C261 H249 0.930 . S
C261 C262 1.399 . S
C261 C266 1.399 . S
C262 C261 1.399 . S
C262 C263 1.376 . S
C263 H250 0.930 . S
C263 C262 1.376 . S
C263 C264 1.388 . S
C264 H251 0.930 . S
C264 C263 1.388 . S
C264 C265 1.390 . S
C265 C264 1.390 . S
C265 C266 1.394 . S
C265 C271 1.465 . S
C266 C261 1.399 . S
C266 C265 1.394 . S
C266 C267 1.516 . S
C267 C266 1.516 . S
C267 C268 1.502 . S
C267 C269 1.561 . S
C267 C270 1.526 . S
C268 H252 0.959 . S
C268 H253 0.959 . S
C268 H254 0.961 . S
C268 C267 1.502 . S
C269 H255 0.960 . S
C269 H256 0.961 . S
C269 H257 0.959 . S
C269 C267 1.561 . S
C270 C267 1.526 . S
C270 C271 1.396 . S
C270 C275 1.390 . S
C271 C265 1.465 . S
C271 C270 1.396 . S
C271 C272 1.399 . S
C272 H258 0.929 . S
C272 C271 1.399 . S
C272 C273 1.385 . S
C273 H259 0.931 . S
C273 C272 1.385 . S
C273 C274 1.389 . S
C274 C273 1.389 . S
C274 C275 1.387 . S
C275 H260 0.930 . S
C275 C270 1.390 . S
C275 C274 1.387 . S
H276 C288 0.930 . S
H277 C290 0.930 . S
H278 C291 0.930 . S
H279 C295 0.959 . S
H280 C295 0.959 . S
H281 C295 0.961 . S
H282 C296 0.960 . S
H283 C296 0.961 . S
H284 C296 0.959 . S
H285 C299 0.929 . S
H286 C300 0.931 . S
H287 C302 0.930 . S
C288 H276 0.930 . S
C288 C289 1.399 . S
C288 C293 1.399 . S
C289 C288 1.399 . S
C289 C290 1.376 . S
C290 H277 0.930 . S
C290 C289 1.376 . S
C290 C291 1.388 . S
C291 H278 0.930 . S
C291 C290 1.388 . S
C291 C292 1.390 . S
C292 C291 1.390 . S
C292 C293 1.394 . S
C292 C298 1.465 . S
C293 C288 1.399 . S
C293 C292 1.394 . S
C293 C294 1.516 . S
C294 C293 1.516 . S
C294 C295 1.502 . S
C294 C296 1.561 . S
C294 C297 1.526 . S
C295 H279 0.959 . S
C295 H280 0.959 . S
C295 H281 0.961 . S
C295 C294 1.502 . S
C296 H282 0.960 . S
C296 H283 0.961 . S
C296 H284 0.959 . S
C296 C294 1.561 . S
C297 C294 1.526 . S
C297 C298 1.396 . S
C297 C302 1.390 . S
C298 C292 1.465 . S
C298 C297 1.396 . S
C298 C299 1.399 . S
C299 H285 0.929 . S
C299 C298 1.399 . S
C299 C300 1.385 . S
C300 H286 0.931 . S
C300 C299 1.385 . S
C300 C301 1.389 . S
C301 C300 1.389 . S
C301 C302 1.387 . S
C302 H287 0.930 . S
C302 C297 1.390 . S
C302 C301 1.387 . S
H303 C315 0.930 . S
H304 C317 0.930 . S
H305 C318 0.930 . S
H306 C322 0.959 . S
H307 C322 0.959 . S
H308 C322 0.961 . S
H309 C323 0.960 . S
H310 C323 0.961 . S
H311 C323 0.959 . S
H312 C326 0.929 . S
H313 C327 0.931 . S
H314 C329 0.930 . S
C315 H303 0.930 . S
C315 C316 1.399 . S
C315 C320 1.399 . S
C316 C315 1.399 . S
C316 C317 1.376 . S
C317 H304 0.930 . S
C317 C316 1.376 . S
C317 C318 1.388 . S
C318 H305 0.930 . S
C318 C317 1.388 . S
C318 C319 1.390 . S
C319 C318 1.390 . S
C319 C320 1.394 . S
C319 C325 1.465 . S
C320 C315 1.399 . S
C320 C319 1.394 . S
C320 C321 1.516 . S
C321 C320 1.516 . S
C321 C322 1.502 . S
C321 C323 1.561 . S
C321 C324 1.526 . S
C322 H306 0.959 . S
C322 H307 0.959 . S
C322 H308 0.961 . S
C322 C321 1.502 . S
C323 H309 0.960 . S
C323 H310 0.961 . S
C323 H311 0.959 . S
C323 C321 1.561 . S
C324 C321 1.526 . S
C324 C325 1.396 . S
C324 C329 1.390 . S
C325 C319 1.465 . S
C325 C324 1.396 . S
C325 C326 1.399 . S
C326 H312 0.929 . S
C326 C325 1.399 . S
C326 C327 1.385 . S
C327 H313 0.931 . S
C327 C326 1.385 . S
C327 C328 1.389 . S
C328 C327 1.389 . S
C328 C329 1.387 . S
C329 H314 0.930 . S
C329 C324 1.390 . S
C329 C328 1.387 . S
H330 C342 0.930 . S
H331 C344 0.930 . S
H332 C345 0.930 . S
H333 C349 0.959 . S
H334 C349 0.959 . S
H335 C349 0.961 . S
H336 C350 0.960 . S
H337 C350 0.961 . S
H338 C350 0.959 . S
H339 C353 0.929 . S
H340 C354 0.931 . S
H341 C356 0.930 . S
C342 H330 0.930 . S
C342 C343 1.399 . S
C342 C347 1.399 . S
C343 C342 1.399 . S
C343 C344 1.376 . S
C344 H331 0.930 . S
C344 C343 1.376 . S
C344 C345 1.388 . S
C345 H332 0.930 . S
C345 C344 1.388 . S
C345 C346 1.390 . S
C346 C345 1.390 . S
C346 C347 1.394 . S
C346 C352 1.465 . S
C347 C342 1.399 . S
C347 C346 1.394 . S
C347 C348 1.516 . S
C348 C347 1.516 . S
C348 C349 1.502 . S
C348 C350 1.561 . S
C348 C351 1.526 . S
C349 H333 0.959 . S
C349 H334 0.959 . S
C349 H335 0.961 . S
C349 C348 1.502 . S
C350 H336 0.960 . S
C350 H337 0.961 . S
C350 H338 0.959 . S
C350 C348 1.561 . S
C351 C348 1.526 . S
C351 C352 1.396 . S
C351 C356 1.390 . S
C352 C346 1.465 . S
C352 C351 1.396 . S
C352 C353 1.399 . S
C353 H339 0.929 . S
C353 C352 1.399 . S
C353 C354 1.385 . S
C354 H340 0.931 . S
C354 C353 1.385 . S
C354 C355 1.389 . S
C355 C354 1.389 . S
C355 C356 1.387 . S
C356 H341 0.930 . S
C356 C351 1.390 . S
C356 C355 1.387 . S
H357 C369 0.930 . S
H358 C371 0.930 . S
H359 C372 0.930 . S
H360 C376 0.959 . S
H361 C376 0.959 . S
H362 C376 0.961 . S
H363 C377 0.960 . S
H364 C377 0.961 1_655 S
H365 C377 0.959 . S
H366 C380 0.929 1_455 S
H367 C381 0.931 . S
H368 C383 0.930 . S
C369 H357 0.930 . S
C369 C370 1.399 . S
C369 C374 1.399 . S
C370 C369 1.399 . S
C370 C371 1.376 . S
C371 H358 0.930 . S
C371 C370 1.376 . S
C371 C372 1.388 . S
C372 H359 0.930 . S
C372 C371 1.388 . S
C372 C373 1.390 . S
C373 C372 1.390 . S
C373 C374 1.394 . S
C373 C379 1.465 1_455 S
C374 C369 1.399 . S
C374 C373 1.394 . S
C374 C375 1.516 1_455 S
C375 C374 1.516 1_655 S
C375 C376 1.502 . S
C375 C377 1.561 1_655 S
C375 C378 1.526 . S
C376 H360 0.959 . S
C376 H361 0.959 . S
C376 H362 0.961 . S
C376 C375 1.502 . S
C377 H363 0.960 . S
C377 H364 0.961 1_455 S
C377 H365 0.959 . S
C377 C375 1.561 1_455 S
C378 C375 1.526 . S
C378 C379 1.396 . S
C378 C383 1.390 . S
C379 C373 1.465 1_655 S
C379 C378 1.396 . S
C379 C380 1.399 . S
C380 H366 0.929 1_655 S
C380 C379 1.399 . S
C380 C381 1.385 . S
C381 H367 0.931 . S
C381 C380 1.385 . S
C381 C382 1.389 . S
C382 C381 1.389 . S
C382 C383 1.387 . S
C383 H368 0.930 . S
C383 C378 1.390 . S
C383 C382 1.387 . S
H384 C396 0.930 . S
H385 C398 0.930 . S
H386 C399 0.932 . S
H387 C403 0.959 . S
H388 C403 0.959 . S
H389 C403 0.961 . S
H390 C404 0.960 1_545 S
H391 C404 0.961 . S
H392 C404 0.959 . S
H393 C407 0.929 . S
H394 C408 0.931 . S
H395 C410 0.930 . S
C396 H384 0.930 . S
C396 C397 1.399 . S
C396 C401 1.399 . S
C397 C396 1.399 . S
C397 C398 1.376 . S
C398 H385 0.930 . S
C398 C397 1.376 . S
C398 C399 1.388 . S
C399 H386 0.932 . S
C399 C398 1.388 . S
C399 C400 1.390 . S
C400 C399 1.390 . S
C400 C401 1.394 . S
C400 C406 1.465 1_545 S
C401 C396 1.399 . S
C401 C400 1.394 . S
C401 C402 1.516 . S
C402 C401 1.516 . S
C402 C403 1.502 . S
C402 C404 1.561 1_545 S
C402 C405 1.526 1_545 S
C403 H387 0.959 . S
C403 H388 0.959 . S
C403 H389 0.961 . S
C403 C402 1.502 . S
C404 H390 0.960 1_565 S
C404 H391 0.961 . S
C404 H392 0.959 . S
C404 C402 1.561 1_565 S
C405 C402 1.526 1_565 S
C405 C406 1.396 . S
C405 C410 1.390 . S
C406 C400 1.465 1_565 S
C406 C405 1.396 . S
C406 C407 1.399 . S
C407 H393 0.929 . S
C407 C406 1.399 . S
C407 C408 1.385 . S
C408 H394 0.931 . S
C408 C407 1.385 . S
C408 C409 1.389 . S
C409 C408 1.389 . S
C409 C410 1.387 . S
C410 H395 0.930 . S
C410 C405 1.390 . S
C410 C409 1.387 . S
H411 C423 0.930 . S
H412 C425 0.930 . S
H413 C426 0.930 . S
H414 C430 0.959 . S
H415 C430 0.959 . S
H416 C430 0.961 . S
H417 C431 0.960 . S
H418 C431 0.961 . S
H419 C431 0.959 . S
H420 C434 0.929 . S
H421 C435 0.931 . S
H422 C437 0.930 . S
C423 H411 0.930 . S
C423 C424 1.399 . S
C423 C428 1.399 . S
C424 C423 1.399 . S
C424 C425 1.376 . S
C425 H412 0.930 . S
C425 C424 1.376 . S
C425 C426 1.388 . S
C426 H413 0.930 . S
C426 C425 1.388 . S
C426 C427 1.390 . S
C427 C426 1.390 . S
C427 C428 1.394 . S
C427 C433 1.465 . S
C428 C423 1.399 . S
C428 C427 1.394 . S
C428 C429 1.516 . S
C429 C428 1.516 . S
C429 C430 1.502 . S
C429 C431 1.561 . S
C429 C432 1.526 . S
C430 H414 0.959 . S
C430 H415 0.959 . S
C430 H416 0.961 . S
C430 C429 1.502 . S
C431 H417 0.960 . S
C431 H418 0.961 . S
C431 H419 0.959 . S
C431 C429 1.561 . S
C432 C429 1.526 . S
C432 C433 1.396 . S
C432 C437 1.390 . S
C433 C427 1.465 . S
C433 C432 1.396 . S
C433 C434 1.399 . S
C434 H420 0.929 . S
C434 C433 1.399 . S
C434 C435 1.385 . S
C435 H421 0.931 . S
C435 C434 1.385 . S
C435 C436 1.389 . S
C436 C435 1.389 . S
C436 C437 1.387 . S
C437 H422 0.930 . S
C437 C432 1.390 . S
C437 C436 1.387 . S
H438 C450 0.930 . S
H439 C452 0.930 . S
H440 C453 0.930 . S
H441 C457 0.959 . S
H442 C457 0.959 . S
H443 C457 0.961 . S
H444 C458 0.960 . S
H445 C458 0.961 . S
H446 C458 0.959 . S
H447 C461 0.929 . S
H448 C462 0.931 . S
H449 C464 0.930 . S
C450 H438 0.930 . S
C450 C451 1.399 . S
C450 C455 1.399 . S
C451 C450 1.399 . S
C451 C452 1.376 . S
C452 H439 0.930 . S
C452 C451 1.376 . S
C452 C453 1.388 . S
C453 H440 0.930 . S
C453 C452 1.388 . S
C453 C454 1.390 . S
C454 C453 1.390 . S
C454 C455 1.394 . S
C454 C460 1.465 1_655 S
C455 C450 1.399 . S
C455 C454 1.394 . S
C455 C456 1.516 . S
C456 C455 1.516 . S
C456 C457 1.502 . S
C456 C458 1.561 1_655 S
C456 C459 1.526 1_655 S
C457 H441 0.959 . S
C457 H442 0.959 . S
C457 H443 0.961 . S
C457 C456 1.502 . S
C458 H444 0.960 . S
C458 H445 0.961 . S
C458 H446 0.959 . S
C458 C456 1.561 1_455 S
C459 C456 1.526 1_455 S
C459 C460 1.396 . S
C459 C464 1.390 . S
C460 C454 1.465 1_455 S
C460 C459 1.396 . S
C460 C461 1.399 . S
C461 H447 0.929 . S
C461 C460 1.399 . S
C461 C462 1.385 . S
C462 H448 0.931 . S
C462 C461 1.385 . S
C462 C463 1.389 . S
C463 C462 1.389 . S
C463 C464 1.387 . S
C464 H449 0.930 . S
C464 C459 1.390 . S
C464 C463 1.387 . S
H465 C477 0.930 . S
H466 C479 0.930 . S
H467 C480 0.930 . S
H468 C484 0.959 . S
H469 C484 0.959 . S
H470 C484 0.961 . S
H471 C485 0.960 1_565 S
H472 C485 0.961 . S
H473 C485 0.959 . S
H474 C488 0.929 . S
H475 C489 0.931 . S
H476 C491 0.930 . S
C477 H465 0.930 . S
C477 C478 1.399 . S
C477 C482 1.399 . S
C478 C477 1.399 . S
C478 C479 1.376 . S
C479 H466 0.930 . S
C479 C478 1.376 . S
C479 C480 1.388 . S
C480 H467 0.930 . S
C480 C479 1.388 . S
C480 C481 1.390 . S
C481 C480 1.390 . S
C481 C482 1.394 . S
C481 C487 1.465 1_565 S
C482 C477 1.399 . S
C482 C481 1.394 . S
C482 C483 1.516 . S
C483 C482 1.516 . S
C483 C484 1.502 . S
C483 C485 1.561 1_565 S
C483 C486 1.526 1_565 S
C484 H468 0.959 . S
C484 H469 0.959 . S
C484 H470 0.961 . S
C484 C483 1.502 . S
C485 H471 0.960 1_545 S
C485 H472 0.961 . S
C485 H473 0.959 . S
C485 C483 1.561 1_545 S
C486 C483 1.526 1_545 S
C486 C487 1.396 . S
C486 C491 1.390 . S
C487 C481 1.465 1_545 S
C487 C486 1.396 . S
C487 C488 1.399 . S
C488 H474 0.929 . S
C488 C487 1.399 . S
C488 C489 1.385 . S
C489 H475 0.931 . S
C489 C488 1.385 . S
C489 C490 1.389 . S
C490 C489 1.389 . S
C490 C491 1.387 . S
C491 H476 0.930 . S
C491 C486 1.390 . S
C491 C490 1.387 . S
H492 C504 0.930 . S
H493 C506 0.930 . S
H494 C507 0.930 . S
H495 C511 0.959 . S
H496 C511 0.959 . S
H497 C511 0.961 . S
H498 C512 0.960 . S
H499 C512 0.961 . S
H500 C512 0.959 . S
H501 C515 0.929 . S
H502 C516 0.931 . S
H503 C518 0.930 . S
C504 H492 0.930 . S
C504 C505 1.399 . S
C504 C509 1.399 . S
C505 C504 1.399 . S
C505 C506 1.376 . S
C506 H493 0.930 . S
C506 C505 1.376 . S
C506 C507 1.388 . S
C507 H494 0.930 . S
C507 C506 1.388 . S
C507 C508 1.390 . S
C508 C507 1.390 . S
C508 C509 1.394 . S
C508 C514 1.465 . S
C509 C504 1.399 . S
C509 C508 1.394 . S
C509 C510 1.516 . S
C510 C509 1.516 . S
C510 C511 1.502 . S
C510 C512 1.561 . S
C510 C513 1.526 . S
C511 H495 0.959 . S
C511 H496 0.959 . S
C511 H497 0.961 . S
C511 C510 1.502 . S
C512 H498 0.960 . S
C512 H499 0.961 . S
C512 H500 0.959 . S
C512 C510 1.561 . S
C513 C510 1.526 . S
C513 C514 1.396 . S
C513 C518 1.390 . S
C514 C508 1.465 . S
C514 C513 1.396 . S
C514 C515 1.399 . S
C515 H501 0.929 . S
C515 C514 1.399 . S
C515 C516 1.385 . S
C516 H502 0.931 . S
C516 C515 1.385 . S
C516 C517 1.389 . S
C517 C516 1.389 . S
C517 C518 1.387 . S
C518 H503 0.930 . S
C518 C513 1.390 . S
C518 C517 1.387 . S
H519 C531 0.930 1_455 S
H520 C533 0.930 . S
H521 C534 0.930 . S
H522 C538 0.959 . S
H523 C538 0.959 . S
H524 C538 0.961 . S
H525 C539 0.960 . S
H526 C539 0.961 . S
H527 C539 0.959 . S
H528 C542 0.929 . S
H529 C543 0.930 1_655 S
H530 C545 0.930 . S
C531 H519 0.930 1_655 S
C531 C532 1.399 . S
C531 C536 1.403 . S
C532 C531 1.399 . S
C532 C533 1.376 . S
C533 H520 0.930 . S
C533 C532 1.376 . S
C533 C534 1.388 . S
C534 H521 0.930 . S
C534 C533 1.388 . S
C534 C535 1.390 . S
C535 C534 1.390 . S
C535 C536 1.399 . S
C535 C541 1.465 . S
C536 C531 1.403 . S
C536 C535 1.399 . S
C536 C537 1.507 1_655 S
C537 C536 1.507 1_455 S
C537 C538 1.502 . S
C537 C539 1.561 . S
C537 C540 1.526 . S
C538 H522 0.959 . S
C538 H523 0.959 . S
C538 H524 0.961 . S
C538 C537 1.502 . S
C539 H525 0.960 . S
C539 H526 0.961 . S
C539 H527 0.959 . S
C539 C537 1.561 . S
C540 C537 1.526 . S
C540 C541 1.396 1_455 S
C540 C545 1.390 . S
C541 C535 1.465 . S
C541 C540 1.396 1_655 S
C541 C542 1.399 . S
C542 H528 0.929 . S
C542 C541 1.399 . S
C542 C543 1.375 1_655 S
C543 H529 0.930 1_455 S
C543 C542 1.375 1_455 S
C543 C544 1.401 . S
C544 C543 1.401 . S
C544 C545 1.387 . S
C545 H530 0.930 . S
C545 C540 1.390 . S
C545 C544 1.387 . S
H546 C558 0.930 1_545 S
H547 C560 0.930 . S
H548 C561 0.930 . S
H549 C565 0.959 . S
H550 C565 0.959 . S
H551 C565 0.961 . S
H552 C566 0.960 . S
H553 C566 0.961 . S
H554 C566 0.959 . S
H555 C569 0.929 . S
H556 C570 0.931 1_565 S
H557 C572 0.930 . S
C558 H546 0.930 1_565 S
C558 C559 1.399 . S
C558 C563 1.399 1_565 S
C559 C558 1.399 . S
C559 C560 1.376 . S
C560 H547 0.930 . S
C560 C559 1.376 . S
C560 C561 1.388 . S
C561 H548 0.930 . S
C561 C560 1.388 . S
C561 C562 1.390 . S
C562 C561 1.390 . S
C562 C563 1.394 1_565 S
C562 C568 1.465 1_556 S
C563 C558 1.399 1_545 S
C563 C562 1.394 1_545 S
C563 C564 1.516 . S
C564 C563 1.516 . S
C564 C565 1.502 . S
C564 C566 1.561 . S
C564 C567 1.526 1_556 S
C565 H549 0.959 . S
C565 H550 0.959 . S
C565 H551 0.961 . S
C565 C564 1.502 . S
C566 H552 0.960 . S
C566 H553 0.961 . S
C566 H554 0.959 . S
C566 C564 1.561 . S
C567 C564 1.526 1_554 S
C567 C568 1.396 1_545 S
C567 C572 1.390 . S
C568 C562 1.465 1_554 S
C568 C567 1.396 1_565 S
C568 C569 1.399 . S
C569 H555 0.929 . S
C569 C568 1.399 . S
C569 C570 1.385 1_565 S
C570 H556 0.931 1_545 S
C570 C569 1.385 1_545 S
C570 C571 1.389 . S
C571 C570 1.389 . S
C571 C572 1.387 . S
C572 H557 0.930 . S
C572 C567 1.390 . S
C572 C571 1.387 . S
H573 C585 0.930 . S
H574 C587 0.930 . S
H575 C588 0.930 . S
H576 C592 0.959 . S
H577 C592 0.959 . S
H578 C592 0.961 . S
H579 C593 0.960 . S
H580 C593 0.961 . S
H581 C593 0.959 . S
H582 C596 0.929 . S
H583 C597 0.931 . S
H584 C599 0.930 . S
C585 H573 0.930 . S
C585 C586 1.399 . S
C585 C590 1.399 . S
C586 C585 1.399 . S
C586 C587 1.376 . S
C587 H574 0.930 . S
C587 C586 1.376 . S
C587 C588 1.388 . S
C588 H575 0.930 . S
C588 C587 1.388 . S
C588 C589 1.390 . S
C589 C588 1.390 . S
C589 C590 1.394 . S
C589 C595 1.465 . S
C590 C585 1.399 . S
C590 C589 1.394 . S
C590 C591 1.516 . S
C591 C590 1.516 . S
C591 C592 1.502 . S
C591 C593 1.561 . S
C591 C594 1.526 . S
C592 H576 0.959 . S
C592 H577 0.959 . S
C592 H578 0.961 . S
C592 C591 1.502 . S
C593 H579 0.960 . S
C593 H580 0.961 . S
C593 H581 0.959 . S
C593 C591 1.561 . S
C594 C591 1.526 . S
C594 C595 1.396 . S
C594 C599 1.390 . S
C595 C589 1.465 . S
C595 C594 1.396 . S
C595 C596 1.399 . S
C596 H582 0.929 . S
C596 C595 1.399 . S
C596 C597 1.385 . S
C597 H583 0.931 . S
C597 C596 1.385 . S
C597 C598 1.389 . S
C598 C597 1.389 . S
C598 C599 1.387 . S
C599 H584 0.930 . S
C599 C594 1.390 . S
C599 C598 1.387 . S
H600 C612 0.930 1_655 S
H601 C614 0.930 . S
H602 C615 0.930 . S
H603 C619 0.959 . S
H604 C619 0.959 . S
H605 C619 0.961 . S
H606 C620 0.960 . S
H607 C620 0.961 . S
H608 C620 0.959 . S
H609 C623 0.929 . S
H610 C624 0.931 . S
H611 C626 0.930 . S
C612 H600 0.930 1_455 S
C612 C613 1.399 . S
C612 C617 1.399 1_455 S
C613 C612 1.399 . S
C613 C614 1.376 . S
C614 H601 0.930 . S
C614 C613 1.376 . S
C614 C615 1.388 . S
C615 H602 0.930 . S
C615 C614 1.388 . S
C615 C616 1.390 . S
C616 C615 1.390 . S
C616 C617 1.394 1_455 S
C616 C622 1.465 . S
C617 C612 1.399 1_655 S
C617 C616 1.394 1_655 S
C617 C618 1.516 . S
C618 C617 1.516 . S
C618 C619 1.502 . S
C618 C620 1.561 . S
C618 C621 1.526 . S
C619 H603 0.959 . S
C619 H604 0.959 . S
C619 H605 0.961 . S
C619 C618 1.502 . S
C620 H606 0.960 . S
C620 H607 0.961 . S
C620 H608 0.959 . S
C620 C618 1.561 . S
C621 C618 1.526 . S
C621 C622 1.396 1_655 S
C621 C626 1.390 . S
C622 C616 1.465 . S
C622 C621 1.396 1_455 S
C622 C623 1.399 . S
C623 H609 0.929 . S
C623 C622 1.399 . S
C623 C624 1.385 . S
C624 H610 0.931 . S
C624 C623 1.385 . S
C624 C625 1.389 1_455 S
C625 C624 1.389 1_655 S
C625 C626 1.387 . S
C626 H611 0.930 . S
C626 C621 1.390 . S
C626 C625 1.387 . S
H627 C639 0.930 . S
H628 C641 0.930 . S
H629 C642 0.930 . S
H630 C646 0.959 . S
H631 C646 0.959 . S
H632 C646 0.961 . S
H633 C647 0.960 . S
H634 C647 0.961 . S
H635 C647 0.959 . S
H636 C650 0.929 . S
H637 C651 0.931 . S
H638 C653 0.930 1_565 S
C639 H627 0.930 . S
C639 C640 1.399 . S
C639 C644 1.399 . S
C640 C639 1.399 . S
C640 C641 1.376 1_565 S
C641 H628 0.930 . S
C641 C640 1.376 1_545 S
C641 C642 1.388 . S
C642 H629 0.930 . S
C642 C641 1.388 . S
C642 C643 1.390 . S
C643 C642 1.390 . S
C643 C644 1.394 1_545 S
C643 C649 1.465 1_554 S
C644 C639 1.399 . S
C644 C643 1.394 1_565 S
C644 C645 1.516 1_554 S
C645 C644 1.516 1_556 S
C645 C646 1.502 . S
C645 C647 1.561 . S
C645 C648 1.526 . S
C646 H630 0.959 . S
C646 H631 0.959 . S
C646 H632 0.961 . S
C646 C645 1.502 . S
C647 H633 0.960 . S
C647 H634 0.961 . S
C647 H635 0.959 . S
C647 C645 1.561 . S
C648 C645 1.526 . S
C648 C649 1.396 1_565 S
C648 C653 1.390 1_565 S
C649 C643 1.465 1_556 S
C649 C648 1.396 1_545 S
C649 C650 1.399 . S
C650 H636 0.929 . S
C650 C649 1.399 . S
C650 C651 1.385 . S
C651 H637 0.931 . S
C651 C650 1.385 . S
C651 C652 1.389 . S
C652 C651 1.389 . S
C652 C653 1.387 . S
C653 H638 0.930 1_545 S
C653 C648 1.390 1_545 S
C653 C652 1.387 . S
H654 C666 0.930 . S
H655 C668 0.930 . S
H656 C669 0.930 . S
H657 C673 0.959 . S
H658 C673 0.959 . S
H659 C673 0.961 . S
H660 C674 0.960 1_655 S
H661 C674 0.961 . S
H662 C674 0.958 . S
H663 C677 0.929 . S
H664 C678 0.931 . S
H665 C680 0.930 . S
C666 H654 0.930 . S
C666 C667 1.399 . S
C666 C671 1.399 . S
C667 C666 1.399 . S
C667 C668 1.376 . S
C668 H655 0.930 . S
C668 C667 1.376 . S
C668 C669 1.388 . S
C669 H656 0.930 . S
C669 C668 1.388 . S
C669 C670 1.390 . S
C670 C669 1.390 . S
C670 C671 1.394 . S
C670 C676 1.465 1_655 S
C671 C666 1.399 . S
C671 C670 1.394 . S
C671 C672 1.516 1_655 S
C672 C671 1.516 1_455 S
C672 C673 1.502 . S
C672 C674 1.561 . S
C672 C675 1.526 . S
C673 H657 0.959 . S
C673 H658 0.959 . S
C673 H659 0.961 . S
C673 C672 1.502 . S
C674 H660 0.960 1_455 S
C674 H661 0.961 . S
C674 H662 0.958 . S
C674 C672 1.561 . S
C675 C672 1.526 . S
C675 C676 1.396 . S
C675 C680 1.390 . S
C676 C670 1.465 1_455 S
C676 C675 1.396 . S
C676 C677 1.399 . S
C677 H663 0.929 . S
C677 C676 1.399 . S
C677 C678 1.385 . S
C678 H664 0.931 . S
C678 C677 1.385 . S
C678 C679 1.389 . S
C679 C678 1.389 . S
C679 C680 1.387 . S
C680 H665 0.930 . S
C680 C675 1.390 . S
C680 C679 1.387 . S
H681 C693 0.930 . S
H682 C695 0.930 . S
H683 C696 0.930 . S
H684 C700 0.959 1_545 S
H685 C700 0.959 . S
H686 C700 0.961 1_545 S
H687 C701 0.960 . S
H688 C701 0.961 . S
H689 C701 0.959 . S
H690 C704 0.929 . S
H691 C705 0.931 . S
H692 C707 0.930 . S
C693 H681 0.930 . S
C693 C694 1.399 . S
C693 C698 1.399 . S
C694 C693 1.399 . S
C694 C695 1.376 . S
C695 H682 0.930 . S
C695 C694 1.376 . S
C695 C696 1.388 . S
C696 H683 0.930 . S
C696 C695 1.388 . S
C696 C697 1.390 . S
C697 C696 1.390 . S
C697 C698 1.394 . S
C697 C703 1.465 1_545 S
C698 C693 1.399 . S
C698 C697 1.394 . S
C698 C699 1.516 1_545 S
C699 C698 1.516 1_565 S
C699 C700 1.502 . S
C699 C701 1.561 . S
C699 C702 1.526 . S
C700 H684 0.959 1_565 S
C700 H685 0.959 . S
C700 H686 0.961 1_565 S
C700 C699 1.502 . S
C701 H687 0.960 . S
C701 H688 0.961 . S
C701 H689 0.959 . S
C701 C699 1.561 . S
C702 C699 1.526 . S
C702 C703 1.396 . S
C702 C707 1.390 . S
C703 C697 1.465 1_565 S
C703 C702 1.396 . S
C703 C704 1.399 . S
C704 H690 0.929 . S
C704 C703 1.399 . S
C704 C705 1.385 . S
C705 H691 0.931 . S
C705 C704 1.385 . S
C705 C706 1.389 . S
C706 C705 1.389 . S
C706 C707 1.387 . S
C707 H692 0.930 . S
C707 C702 1.390 . S
C707 C706 1.387 . S
H708 C720 0.930 . S
H709 C722 0.930 . S
H710 C723 0.930 . S
H711 C727 0.959 . S
H712 C727 0.959 . S
H713 C727 0.961 . S
H714 C728 0.960 . S
H715 C728 0.961 . S
H716 C728 0.959 . S
H717 C731 0.929 . S
H718 C732 0.931 . S
H719 C734 0.930 . S
C720 H708 0.930 . S
C720 C721 1.399 . S
C720 C725 1.399 . S
C721 C720 1.399 . S
C721 C722 1.376 . S
C722 H709 0.930 . S
C722 C721 1.376 . S
C722 C723 1.388 . S
C723 H710 0.930 . S
C723 C722 1.388 . S
C723 C724 1.390 . S
C724 C723 1.390 . S
C724 C725 1.394 . S
C724 C730 1.465 . S
C725 C720 1.399 . S
C725 C724 1.394 . S
C725 C726 1.516 . S
C726 C725 1.516 . S
C726 C727 1.502 . S
C726 C728 1.561 . S
C726 C729 1.526 . S
C727 H711 0.959 . S
C727 H712 0.959 . S
C727 H713 0.961 . S
C727 C726 1.502 . S
C728 H714 0.960 . S
C728 H715 0.961 . S
C728 H716 0.959 . S
C728 C726 1.561 . S
C729 C726 1.526 . S
C729 C730 1.396 . S
C729 C734 1.390 . S
C730 C724 1.465 . S
C730 C729 1.396 . S
C730 C731 1.399 . S
C731 H717 0.929 . S
C731 C730 1.399 . S
C731 C732 1.385 . S
C732 H718 0.931 . S
C732 C731 1.385 . S
C732 C733 1.389 . S
C733 C732 1.389 . S
C733 C734 1.387 . S
C734 H719 0.930 . S
C734 C729 1.390 . S
C734 C733 1.387 . S
H735 C747 0.930 . S
H736 C749 0.930 . S
H737 C750 0.930 . S
H738 C754 0.959 . S
H739 C754 0.959 . S
H740 C754 0.961 . S
H741 C755 0.960 . S
H742 C755 0.961 . S
H743 C755 0.959 . S
H744 C758 0.929 . S
H745 C759 0.931 . S
H746 C761 0.930 . S
C747 H735 0.930 . S
C747 C748 1.399 . S
C747 C752 1.399 . S
C748 C747 1.399 . S
C748 C749 1.376 . S
C749 H736 0.930 . S
C749 C748 1.376 . S
C749 C750 1.388 . S
C750 H737 0.930 . S
C750 C749 1.388 . S
C750 C751 1.390 . S
C751 C750 1.390 . S
C751 C752 1.394 . S
C751 C757 1.465 1_655 S
C752 C747 1.399 . S
C752 C751 1.394 . S
C752 C753 1.516 . S
C753 C752 1.516 . S
C753 C754 1.502 . S
C753 C755 1.561 . S
C753 C756 1.526 1_655 S
C754 H738 0.959 . S
C754 H739 0.959 . S
C754 H740 0.961 . S
C754 C753 1.502 . S
C755 H741 0.960 . S
C755 H742 0.961 . S
C755 H743 0.959 . S
C755 C753 1.561 . S
C756 C753 1.526 1_455 S
C756 C757 1.396 . S
C756 C761 1.390 . S
C757 C751 1.465 1_455 S
C757 C756 1.396 . S
C757 C758 1.399 . S
C758 H744 0.929 . S
C758 C757 1.399 . S
C758 C759 1.385 . S
C759 H745 0.931 . S
C759 C758 1.385 . S
C759 C760 1.389 . S
C760 C759 1.389 . S
C760 C761 1.387 . S
C761 H746 0.930 . S
C761 C756 1.390 . S
C761 C760 1.387 . S
H762 C774 0.930 . S
H763 C776 0.930 . S
H764 C777 0.930 . S
H765 C781 0.959 . S
H766 C781 0.959 . S
H767 C781 0.961 . S
H768 C782 0.960 . S
H769 C782 0.961 . S
H770 C782 0.959 . S
H771 C785 0.929 . S
H772 C786 0.931 . S
H773 C788 0.930 . S
C774 H762 0.930 . S
C774 C775 1.399 . S
C774 C779 1.399 . S
C775 C774 1.399 . S
C775 C776 1.376 . S
C776 H763 0.930 . S
C776 C775 1.376 . S
C776 C777 1.388 . S
C777 H764 0.930 . S
C777 C776 1.388 . S
C777 C778 1.390 . S
C778 C777 1.390 . S
C778 C779 1.394 . S
C778 C784 1.465 1_565 S
C779 C774 1.399 . S
C779 C778 1.394 . S
C779 C780 1.516 . S
C780 C779 1.516 . S
C780 C781 1.502 . S
C780 C782 1.561 . S
C780 C783 1.526 1_565 S
C781 H765 0.959 . S
C781 H766 0.959 . S
C781 H767 0.961 . S
C781 C780 1.502 . S
C782 H768 0.960 . S
C782 H769 0.961 . S
C782 H770 0.959 . S
C782 C780 1.561 . S
C783 C780 1.526 1_545 S
C783 C784 1.396 . S
C783 C788 1.390 . S
C784 C778 1.465 1_545 S
C784 C783 1.396 . S
C784 C785 1.399 . S
C785 H771 0.929 . S
C785 C784 1.399 . S
C785 C786 1.385 . S
C786 H772 0.931 . S
C786 C785 1.385 . S
C786 C787 1.389 . S
C787 C786 1.389 . S
C787 C788 1.387 . S
C788 H773 0.930 . S
C788 C783 1.390 . S
C788 C787 1.387 . S
H789 C801 0.930 . S
H790 C803 0.930 . S
H791 C804 0.930 . S
H792 C808 0.959 . S
H793 C808 0.959 . S
H794 C808 0.961 . S
H795 C809 0.960 . S
H796 C809 0.961 . S
H797 C809 0.959 . S
H798 C812 0.929 . S
H799 C813 0.931 . S
H800 C815 0.930 . S
C801 H789 0.930 . S
C801 C802 1.399 . S
C801 C806 1.399 . S
C802 C801 1.399 . S
C802 C803 1.376 . S
C803 H790 0.930 . S
C803 C802 1.376 . S
C803 C804 1.388 . S
C804 H791 0.930 . S
C804 C803 1.388 . S
C804 C805 1.390 . S
C805 C804 1.390 . S
C805 C806 1.394 . S
C805 C811 1.465 . S
C806 C801 1.399 . S
C806 C805 1.394 . S
C806 C807 1.516 . S
C807 C806 1.516 . S
C807 C808 1.502 . S
C807 C809 1.561 . S
C807 C810 1.526 . S
C808 H792 0.959 . S
C808 H793 0.959 . S
C808 H794 0.961 . S
C808 C807 1.502 . S
C809 H795 0.960 . S
C809 H796 0.961 . S
C809 H797 0.959 . S
C809 C807 1.561 . S
C810 C807 1.526 . S
C810 C811 1.396 . S
C810 C815 1.390 . S
C811 C805 1.465 . S
C811 C810 1.396 . S
C811 C812 1.399 . S
C812 H798 0.929 . S
C812 C811 1.399 . S
C812 C813 1.385 . S
C813 H799 0.931 . S
C813 C812 1.385 . S
C813 C814 1.389 . S
C814 C813 1.389 . S
C814 C815 1.387 . S
C815 H800 0.930 . S
C815 C810 1.390 . S
C815 C814 1.387 . S
C181 C112 2.188 . S
C193 C1 2.136 . S
C208 C27 2.178 . S
C220 C126 2.187 . S
C235 C29 2.155 . S
C247 C141 2.196 . S
C262 C43 2.169 . S
C274 C154 2.193 . S
C289 C84 2.201 . S
C301 C57 2.151 . S
C316 C71 2.155 . S
C328 C99 2.196 . S
C343 C55 1.453 . S
C355 C13 1.448 . S
C370 C69 1.469 . S
C382 C15 1.463 . S
C397 C83 1.448 . S
C409 C41 1.454 . S
C424 C96 1.469 . S
C436 C138 1.463 . S
C451 C111 1.448 . S
C463 C153 1.453 . S
C478 C124 1.449 . S
C490 C166 1.455 . S
C505 C0 1.870 . S
C517 C127 1.870 . S
C532 C26 1.834 . S
C544 C140 1.895 . S
C559 C28 1.833 . S
C571 C155 1.873 . S
C586 C85 1.884 . S
C598 C42 1.829 . S
C613 C56 1.831 . S
C625 C98 1.895 . S
C640 C113 1.891 . S
C652 C70 1.842 . S
C667 C167 1.403 . S
C679 C12 1.436 . S
C694 C14 1.432 . S
C706 C97 1.434 . S
C721 C110 1.410 . S
C733 C40 1.442 . S
C748 C54 1.436 . S
C760 C125 1.404 . S
C775 C68 1.431 . S
C787 C139 1.404 . S
C802 C152 1.419 . S
C814 C82 1.442 . S
