# Generated by pormake.
# Topology kag, (6)-cn, num edge types: 1
# Building blocks:
#     Node 0, Type 0, BuildingBlock: KUMBUR_clean_sbu_1, # of connection points: 6
#     Node 1, Type 0, BuildingBlock: KUMBUR_clean_sbu_1, # of connection points: 6
#     Node 2, Type 0, BuildingBlock: KUMBUR_clean_sbu_1, # of connection points: 6
#     Edge 3, Type (0, 0), BuildingBlock: UVAHIK_clean_linker_0, # of connection points: 2
#     Edge 4, Type (0, 0), BuildingBlock: UVAHIK_clean_linker_0, # of connection points: 2
#     Edge 5, Type (0, 0), BuildingBlock: UVAHIK_clean_linker_0, # of connection points: 2
#     Edge 6, Type (0, 0), BuildingBlock: UVAHIK_clean_linker_0, # of connection points: 2
#     Edge 7, Type (0, 0), BuildingBlock: UVAHIK_clean_linker_0, # of connection points: 2
#     Edge 8, Type (0, 0), BuildingBlock: UVAHIK_clean_linker_0, # of connection points: 2
#     Edge 9, Type (0, 0), BuildingBlock: UVAHIK_clean_linker_0, # of connection points: 2
#     Edge 10, Type (0, 0), BuildingBlock: UVAHIK_clean_linker_0, # of connection points: 2
#     Edge 11, Type (0, 0), BuildingBlock: UVAHIK_clean_linker_0, # of connection points: 2
# Relax obj value: 0.072
# Max RMSD: 0.169
# Mean RMSD: 0.111
data_MOF--net-kag--node1-KUMBUR_clean_sbu_1--edge1-UVAHIK_clean_linker_0
_symmetry_space_group_name_H-M    P1
_symmetry_Int_Tables_number       1
_symmetry_cell_setting            triclinic
loop_
_symmetry_equiv_pos_as_xyz
'x, y, z'
_cell_length_a     39.437409
_cell_length_b     48.98237
_cell_length_c     19.32746
_cell_angle_alpha  108.14307
_cell_angle_beta   96.276945
_cell_angle_gamma 102.90749
loop_
_atom_site_label
_atom_site_type_symbol
_atom_site_fract_x
_atom_site_fract_y
_atom_site_fract_z
_atom_type_partial_charge
Tb0 Tb 0.04955 0.54557 0.04243 0.0
C1 C 0.07697 0.42472 0.91779 0.0
N2 N 0.05642 0.43752 0.88413 0.0
C3 C 0.08393 0.42584 0.7779 0.0
C4 C 0.10325 0.41331 0.88451 0.0
C5 C 0.05828 0.43697 0.81349 0.0
C6 C 0.10692 0.41439 0.81406 0.0
C7 C 0.09068 0.40867 0.02124 0.0
C8 C 0.07084 0.42264 0.98509 0.0
C9 C 0.1181 0.3984 0.99026 0.0
C10 C 0.12437 0.40071 0.92195 0.0
Tb11 Tb 1.01655 0.45652 0.94784 0.0
N12 N 0.04382 0.43254 0.01246 0.0
C13 C 0.0815 0.40449 0.08583 0.0
C14 C 1.03285 0.42607 0.0717 0.0
C15 C 0.052 0.41271 0.11031 0.0
H16 H 0.04061 0.44594 0.78577 0.0
H17 H 0.04367 0.40836 0.15828 0.0
H18 H 0.06449 0.55967 0.2258 0.0
H19 H 0.97562 0.59245 0.88093 0.0
H20 H 1.00905 0.4308 0.08905 0.0
H21 H 0.09605 0.39385 0.11536 0.0
H22 H 1.0195 0.56589 0.906 0.0
H23 H 0.08604 0.42617 0.72279 0.0
H24 H 0.13392 0.3879 0.01761 0.0
H25 H 0.14502 0.39208 0.89779 0.0
H26 H 0.03507 0.57786 0.3301 0.0
H27 H 0.12681 0.40585 0.78649 0.0
H28 H 0.94135 0.61127 0.97656 0.0
N29 N 1.02693 0.56456 0.14587 0.0
C30 C 1.00061 0.57756 0.136 0.0
C31 C 1.02461 0.57737 0.27542 0.0
C32 C 0.98411 0.5898 0.19484 0.0
C33 C 0.04061 0.56617 0.21555 0.0
C34 C 0.99576 0.58873 0.26473 0.0
N35 N 1.00904 0.56889 0.01332 0.0
C36 C 1.00443 0.57388 0.94765 0.0
C37 C 0.96672 0.59571 0.05627 0.0
C38 C 0.99198 0.58052 0.06793 0.0
C39 C 0.9605 0.59965 0.98772 0.0
C40 C 0.97975 0.589 0.93352 0.0
H41 H 0.98377 0.59784 0.31143 0.0
H42 H 0.94442 0.61305 0.22707 0.0
H43 H 0.92919 0.61821 0.10557 0.0
O44 O 0.08707 0.5706 0.00038 0.0
O45 O 0.9925 0.52392 0.98921 0.0
O46 O 0.9805 0.47897 0.00757 0.0
O47 O 0.08113 0.58783 0.11346 0.0
O48 O 0.05214 0.52686 0.92503 0.0
O49 O 1.00645 0.48337 0.88031 0.0
O50 O 0.98263 0.41373 0.92841 0.0
O51 O 0.07075 0.48136 0.94574 0.0
O52 O 0.08723 0.51974 0.05688 0.0
O53 O 0.98028 0.43493 0.84709 0.0
O54 O 1.01222 0.4762 0.06447 0.0
O55 O 0.05873 0.51903 0.11235 0.0
C56 C 0.96999 0.50145 0.99813 0.0
C57 C 0.1386 0.5997 0.08834 0.0
C58 C 0.19724 0.62991 0.0903 0.0
C59 C 0.21262 0.61411 0.12847 0.0
C60 C 0.15439 0.5844 0.12718 0.0
C61 C 0.19125 0.59153 0.1468 0.0
C62 C 0.16006 0.62239 0.07012 0.0
C63 C 1.02915 0.5052 0.87012 0.0
C64 C 0.09993 0.59165 0.06442 0.0
C65 C 0.95763 0.60375 0.18273 0.0
C66 C 0.94902 0.60677 0.11361 0.0
C67 C 0.09546 0.5001 0.00226 0.0
C68 C 0.92571 0.40844 0.86319 0.0
C69 C 0.86897 0.37943 0.87559 0.0
C70 C 0.85242 0.3996 0.85726 0.0
C71 C 0.90847 0.42836 0.84554 0.0
C72 C 0.90578 0.38406 0.87823 0.0
C73 C 0.87211 0.42387 0.84259 0.0
C74 C 0.03607 0.49654 0.12039 0.0
C75 C 0.96444 0.4134 0.86777 0.0
H76 H 0.24113 0.6195 0.14517 0.0
H77 H 0.13827 0.56697 0.14226 0.0
H78 H 0.20329 0.57957 0.1765 0.0
H79 H 0.14774 0.63386 0.03922 0.0
H80 H 0.82414 0.3965 0.85344 0.0
H81 H 0.92302 0.44758 0.83443 0.0
H82 H 0.91915 0.36908 0.89335 0.0
H83 H 0.85912 0.43933 0.82903 0.0
Tb84 Tb 0.4852 0.98611 0.96312 0.0
C85 C 0.63764 0.98371 0.09567 0.0
N86 N 0.62032 0.0047 0.12209 0.0
C87 C 0.6392 0.00695 0.24645 0.0
C88 C 0.65604 0.97312 0.14392 0.0
C89 C 0.62136 0.01679 0.19644 0.0
C90 C 0.65647 0.9849 0.22007 0.0
C91 C 0.65376 0.95048 0.99023 0.0
C92 C 0.6363 0.97243 0.01961 0.0
C93 C 0.67208 0.93982 0.0381 0.0
C94 C 0.67317 0.95107 0.11469 0.0
Tb95 Tb 0.59078 0.01785 0.03494 0.0
N96 N 0.61725 0.98254 0.97452 0.0
C97 C 0.65236 0.93994 0.91363 0.0
C98 C 0.61744 0.97339 0.90018 0.0
C99 C 0.63448 0.95172 0.86862 0.0
H100 H 0.6094 0.0347 0.21727 0.0
H101 H 0.63413 0.94433 0.80955 0.0
H102 H 0.47196 0.99513 0.80055 0.0
H103 H 0.43805 0.0317 0.21717 0.0
H104 H 0.60535 0.98294 0.86448 0.0
H105 H 0.66549 0.92314 0.88889 0.0
H106 H 0.46143 0.9957 0.13071 0.0
H107 H 0.63988 0.01655 0.30533 0.0
H108 H 0.68553 0.92288 0.01643 0.0
H109 H 0.68738 0.94259 0.15085 0.0
H110 H 0.4469 0.02807 0.74809 0.0
H111 H 0.67029 0.97732 0.25895 0.0
H112 H 0.41873 0.07065 0.18023 0.0
N113 N 0.46165 0.01451 0.90812 0.0
C114 C 0.44704 0.03451 0.95182 0.0
C115 C 0.44691 0.03018 0.80553 0.0
C116 C 0.43262 0.05382 0.92441 0.0
C117 C 0.46123 0.01168 0.83536 0.0
C118 C 0.43278 0.0515 0.85036 0.0
N119 N 0.46156 0.01679 0.04904 0.0
C120 C 0.45594 0.01383 0.11531 0.0
C121 C 0.43231 0.05631 0.07158 0.0
C122 C 0.44759 0.03603 0.0249 0.0
C123 C 0.43032 0.0555 0.14271 0.0
C124 C 0.44143 0.0337 0.16396 0.0
H125 H 0.42193 0.06594 0.82721 0.0
H126 H 0.40764 0.08996 0.95181 0.0
H127 H 0.40694 0.0919 0.08037 0.0
O128 O 0.4463 0.95267 0.98003 0.0
O129 O 0.51355 0.0307 0.96467 0.0
O130 O 0.55666 0.04736 0.0681 0.0
O131 O 0.44112 0.96107 0.87785 0.0
O132 O 0.50817 0.98486 0.07097 0.0
O133 O 0.55682 0.02609 0.11732 0.0
O134 O 0.61986 0.04948 0.99488 0.0
O135 O 0.5669 0.97112 0.02449 0.0
O136 O 0.51708 0.9543 0.93252 0.0
O137 O 0.63865 0.04749 0.10114 0.0
O138 O 0.56955 0.01369 0.92056 0.0
O139 O 0.51674 0.97583 0.87716 0.0
C140 C 0.53592 0.05279 0.01921 0.0
C141 C 0.42233 0.91081 0.87009 0.0
C142 C 0.39958 0.85893 0.86167 0.0
C143 C 0.41029 0.84947 0.79307 0.0
C144 C 0.43255 0.90077 0.80107 0.0
C145 C 0.42662 0.87029 0.76313 0.0
C146 C 0.4058 0.88975 0.89992 0.0
C147 C 0.5324 0.00503 0.1267 0.0
C148 C 0.42924 0.94305 0.91185 0.0
C149 C 0.41868 0.0748 0.97167 0.0
C150 C 0.41846 0.07601 0.04502 0.0
C151 C 0.5409 0.94934 0.97679 0.0
C152 C 0.64789 0.09527 0.09198 0.0
C153 C 0.66818 0.14575 0.08894 0.0
C154 C 0.65806 0.15702 0.15756 0.0
C155 C 0.63812 0.1071 0.16063 0.0
C156 C 0.66282 0.11469 0.05634 0.0
C157 C 0.64316 0.13778 0.19296 0.0
C158 C 0.54373 0.99438 0.86639 0.0
C159 C 0.64258 0.06282 0.0573 0.0
H160 H 0.40546 0.82595 0.76179 0.0
H161 H 0.44553 0.91639 0.77665 0.0
H162 H 0.43466 0.86277 0.7102 0.0
H163 H 0.39817 0.89743 0.95335 0.0
H164 H 0.66231 0.18079 0.18477 0.0
H165 H 0.62628 0.09266 0.18914 0.0
H166 H 0.6701 0.10554 0.00315 0.0
H167 H 0.63551 0.14669 0.24576 0.0
Tb168 Tb 0.51813 0.45502 0.96802 0.0
C169 C 0.62231 0.58336 0.13234 0.0
N170 N 0.58852 0.57275 0.14018 0.0
C171 C 0.60529 0.5982 0.2719 0.0
C172 C 0.64914 0.60138 0.19451 0.0
C173 C 0.57952 0.5805 0.20859 0.0
C174 C 0.64029 0.60855 0.26493 0.0
C175 C 0.66482 0.58631 0.05112 0.0
C176 C 0.6301 0.57596 0.0615 0.0
C177 C 0.69164 0.60419 0.11298 0.0
C178 C 0.68383 0.61169 0.18445 0.0
Tb179 Tb 0.54931 0.54471 0.03188 0.0
N180 N 0.60383 0.55749 0.00312 0.0
C181 C 0.67159 0.57807 0.97893 0.0
C182 C 0.60989 0.55056 0.93236 0.0
C183 C 0.64392 0.56033 0.91928 0.0
H184 H 0.55234 0.57381 0.21457 0.0
H185 H 0.64874 0.55436 0.86314 0.0
H186 H 0.51931 0.42481 0.78792 0.0
H187 H 0.41545 0.44183 0.12757 0.0
H188 H 0.58862 0.53777 0.88594 0.0
H189 H 0.69794 0.58549 0.96861 0.0
H190 H 0.47591 0.46084 0.10924 0.0
H191 H 0.59806 0.60414 0.32598 0.0
H192 H 0.71853 0.61226 0.10616 0.0
H193 H 0.70481 0.62552 0.23161 0.0
H194 H 0.47604 0.3926 0.67391 0.0
H195 H 0.66015 0.62234 0.31411 0.0
H196 H 0.36846 0.4087 0.01957 0.0
N197 N 0.48122 0.42521 0.85801 0.0
C198 C 0.44725 0.41363 0.86306 0.0
C199 C 0.46751 0.3986 0.72666 0.0
C200 C 0.42183 0.39441 0.79956 0.0
C201 C 0.49186 0.41736 0.7913 0.0
C202 C 0.43229 0.38722 0.73069 0.0
N203 N 0.46292 0.44039 0.99199 0.0
C204 C 0.45554 0.44709 0.06174 0.0
C205 C 0.40314 0.40919 0.94023 0.0
C206 C 0.43797 0.42091 0.93244 0.0
C207 C 0.39494 0.41717 0.01123 0.0
C208 C 0.42135 0.43601 0.07229 0.0
H209 H 0.41355 0.37254 0.68055 0.0
H210 H 0.36706 0.3681 0.7587 0.0
H211 H 0.35071 0.38106 0.88182 0.0
O212 O 0.5287 0.43242 0.04075 0.0
O213 O 0.47563 0.47809 0.961 0.0
O214 O 0.49431 0.52734 0.04267 0.0
O215 O 0.52528 0.41193 0.92372 0.0
O216 O 0.54399 0.48377 0.08214 0.0
O217 O 0.5269 0.52713 0.113 0.0
O218 O 0.54066 0.56957 0.96354 0.0
O219 O 0.59064 0.5206 0.04109 0.0
O220 O 0.57212 0.47283 0.95308 0.0
O221 O 0.54401 0.58812 0.08103 0.0
O222 O 0.52245 0.51686 0.91765 0.0
O223 O 0.53919 0.4732 0.88657 0.0
C224 C 0.46908 0.50328 -8e-05 0.0
C225 C 0.5609 0.39682 0.00362 0.0
C226 C 0.58211 0.35566 0.022 0.0
C227 C 0.61706 0.37411 0.03984 0.0
C228 C 0.59596 0.41467 0.02149 0.0
C229 C 0.62386 0.40328 0.03918 0.0
C230 C 0.55407 0.36723 0.00327 0.0
C231 C 0.5333 0.50435 0.12913 0.0
C232 C 0.53112 0.40905 0.98822 0.0
C233 C 0.38698 0.38285 0.80689 0.0
C234 C 0.37767 0.39018 0.87704 0.0
C235 C 0.59739 0.49619 0.99835 0.0
C236 C 0.50991 0.60592 0.00541 0.0
C237 C 0.49016 0.64815 0.98967 0.0
C238 C 0.45482 0.63128 0.97929 0.0
C239 C 0.47451 0.58959 0.99385 0.0
C240 C 0.51768 0.63519 0.00337 0.0
C241 C 0.44717 0.6023 0.98131 0.0
C242 C 0.53129 0.49533 0.8695 0.0
C243 C 0.53891 0.59251 0.01822 0.0
H244 H 0.63923 0.36585 0.05367 0.0
H245 H 0.60169 0.43747 0.02246 0.0
H246 H 0.65089 0.4172 0.05288 0.0
H247 H 0.52692 0.35351 0.99024 0.0
H248 H 0.43297 0.64057 0.97019 0.0
H249 H 0.46809 0.567 0.99423 0.0
H250 H 0.5451 0.64757 0.011 0.0
H251 H 0.41987 0.5896 0.97297 0.0
C252 C 0.05866 0.52218 0.7767 0.0
C253 C 1.02929 0.50498 0.79346 0.0
C254 C 0.05957 0.5208 0.70361 0.0
C255 C 1.01757 0.47332 0.50843 0.0
H256 H 0.0612 0.54439 0.46754 0.0
C257 C 1.00512 0.48097 0.21388 0.0
C258 C 0.03626 0.49496 0.19555 0.0
C259 C 1.00473 0.48112 0.28622 0.0
C260 C 0.04922 0.52431 0.47824 0.0
H261 H 0.97743 0.47336 0.74695 0.0
H262 H 0.97851 0.47163 0.62001 0.0
H263 H 0.0588 0.54756 0.59522 0.0
H264 H 0.09178 0.51887 0.23749 0.0
H265 H 0.09091 0.51965 0.36437 0.0
H266 H 1.00733 0.45032 0.39088 0.0
C267 C 1.00132 0.48559 0.66284 0.0
C268 C 0.0479 0.52607 0.55142 0.0
C269 C 1.00058 0.48675 0.7358 0.0
C270 C 0.06725 0.50835 0.2504 0.0
C271 C 0.06675 0.50883 0.32292 0.0
C272 C 1.01857 0.47165 0.43517 0.0
C273 C 1.03095 0.50241 0.64564 0.0
C274 C 1.03212 0.50059 0.56756 0.0
C275 C 0.0354 0.49546 0.34172 0.0
C276 C 0.03449 0.4971 0.41938 0.0
H277 H 0.08137 0.53623 0.81978 0.0
H278 H 0.08308 0.5337 0.69246 0.0
H279 H 1.0058 0.45311 0.51869 0.0
H280 H 0.9808 0.47055 0.17277 0.0
H281 H 0.98015 0.47079 0.29927 0.0
C282 C 0.51679 0.97708 0.21259 0.0
C283 C 0.53183 0.00405 0.20241 0.0
C284 C 0.51756 0.97578 0.28401 0.0
C285 C 0.53186 0.02376 0.48275 0.0
H286 H 0.54782 0.95352 0.51815 0.0
C287 C 0.5639 0.0196 0.77774 0.0
C288 C 0.54451 0.99426 0.78983 0.0
C289 C 0.56255 0.02047 0.70587 0.0
C290 C 0.5431 0.97318 0.50897 0.0
H291 H 0.55811 0.05107 0.25903 0.0
H292 H 0.56071 0.04868 0.38345 0.0
H293 H 0.54459 0.95592 0.39351 0.0
H294 H 0.50922 0.94966 0.73582 0.0
H295 H 0.50732 0.95104 0.61013 0.0
H296 H 0.53112 0.04119 0.59878 0.0
C297 C 0.54791 0.02851 0.33654 0.0
C298 C 0.54108 0.97455 0.43743 0.0
C299 C 0.54681 0.02985 0.26512 0.0
C300 C 0.52446 0.96951 0.72832 0.0
C301 C 0.52346 0.97025 0.65634 0.0
C302 C 0.53425 0.0225 0.55438 0.0
C303 C 0.5335 0.00141 0.34704 0.0
C304 C 0.53539 0.99985 0.42326 0.0
C305 C 0.54215 0.99588 0.64442 0.0
C306 C 0.53987 0.9972 0.56829 0.0
H307 H 0.50485 0.95683 0.16528 0.0
H308 H 0.50554 0.95464 0.28971 0.0
H309 H 0.52678 0.04338 0.47396 0.0
H310 H 0.57942 0.03911 0.82396 0.0
H311 H 0.57751 0.04042 0.69835 0.0
C312 C 0.54719 0.47743 0.74366 0.0
C313 C 0.53041 0.4953 0.79245 0.0
C314 C 0.54717 0.47822 0.67184 0.0
C315 C 0.50082 0.50043 0.52895 0.0
H316 H 0.58623 0.49888 0.44754 0.0
C317 C 0.51666 0.52216 0.25432 0.0
C318 C 0.53325 0.504 0.2057 0.0
C319 C 0.51623 0.5213 0.32601 0.0
C320 C 0.56203 0.49903 0.46908 0.0
H321 H 0.50072 0.5283 0.80403 0.0
H322 H 0.50106 0.52993 0.6795 0.0
H323 H 0.58539 0.49651 0.57146 0.0
H324 H 0.56211 0.47043 0.19433 0.0
H325 H 0.56107 0.46877 0.31858 0.0
H326 H 0.4775 0.50302 0.42654 0.0
C327 C 0.51371 0.51486 0.6961 0.0
C328 C 0.56153 0.49762 0.54019 0.0
C329 C 0.51373 0.51407 0.76781 0.0
C330 C 0.54922 0.48486 0.23032 0.0
C331 C 0.54886 0.48404 0.3019 0.0
C332 C 0.50133 0.50187 0.45784 0.0
C333 C 0.53048 0.497 0.64715 0.0
C334 C 0.53091 0.49827 0.57109 0.0
C335 C 0.53238 0.50224 0.35074 0.0
C336 C 0.53193 0.50114 0.42692 0.0
H337 H 0.56086 0.46314 0.76123 0.0
H338 H 0.56012 0.46398 0.63552 0.0
H339 H 0.4766 0.50056 0.55047 0.0
H340 H 0.50368 0.53685 0.23681 0.0
H341 H 0.50352 0.53578 0.36231 0.0
C342 C 0.1577 0.50787 0.06839 0.0
C343 C 0.13354 0.5005 0.00199 0.0
C344 C 0.19347 0.5081 0.06803 0.0
C345 C 0.25628 0.4858 0.93708 0.0
H346 H 0.32718 0.53249 0.11437 0.0
C347 C 0.40319 0.4809 0.94657 0.0
C348 C 0.43093 0.50388 0.99863 0.0
C349 C 0.36746 0.48047 0.9476 0.0
C350 C 0.3082 0.51963 0.06344 0.0
H351 H 0.12851 0.48827 0.88306 0.0
H352 H 0.19051 0.49013 0.88197 0.0
H353 H 0.26619 0.53302 0.11393 0.0
H354 H 0.442 0.5456 0.09057 0.0
H355 H 0.38061 0.54637 0.08878 0.0
H356 H 0.29848 0.47422 0.8847 0.0
C357 C 0.18215 0.49456 0.93485 0.0
C358 C 0.27241 0.51939 0.06373 0.0
C359 C 0.14624 0.49367 0.93523 0.0
C360 C 0.42162 0.52724 0.04982 0.0
C361 C 0.38588 0.52738 0.04939 0.0
C362 C 0.29216 0.48669 0.93615 0.0
C363 C 0.20668 0.50164 0.00124 0.0
C364 C 0.24548 0.50228 0.00072 0.0
C365 C 0.35782 0.50377 -0.00111 0.0
C366 C 0.31906 0.50341 -0.00051 0.0
H367 H 0.14878 0.51299 0.12085 0.0
H368 H 0.21048 0.513 0.12063 0.0
H369 H 0.23707 0.47176 0.8873 0.0
H370 H 0.40895 0.46303 0.9044 0.0
H371 H 0.34755 0.46144 0.90806 0.0
C372 C 0.71486 0.16204 0.02052 0.0
C373 C 0.6856 0.16661 0.05351 0.0
C374 C 0.73319 0.18301 0.993 0.0
C375 C 0.72773 0.24964 0.9423 0.0
H376 H 0.83032 0.26727 0.98072 0.0
C377 C 0.81982 0.35705 0.93073 0.0
C378 C 0.84779 0.35379 0.89218 0.0
C379 C 0.79937 0.3329 0.94494 0.0
C380 C 0.80168 0.26236 0.96893 0.0
H381 H 0.65153 0.19609 0.07985 0.0
H382 H 0.68424 0.23318 0.03471 0.0
H383 H 0.79521 0.22724 0.01385 0.0
H384 H 0.87597 0.32231 0.83832 0.0
H385 H 0.84082 0.2804 0.86531 0.0
H386 H 0.73454 0.28563 0.89979 0.0
C387 C 0.69288 0.21324 0.02911 0.0
C388 C 0.78148 0.23932 0.98757 0.0
C389 C 0.67437 0.19215 0.05602 0.0
C390 C 0.85504 0.32581 0.86912 0.0
C391 C 0.83482 0.30174 0.88419 0.0
C392 C 0.74797 0.27291 0.92448 0.0
C393 C 0.7229 0.20919 0.99831 0.0
C394 C 0.74423 0.23276 0.97491 0.0
C395 C 0.80666 0.30502 0.92186 0.0
C396 C 0.78514 0.27961 0.93804 0.0
H397 H 0.72438 0.14273 0.01805 0.0
H398 H 0.75573 0.17882 0.96835 0.0
H399 H 0.69912 0.24491 0.93043 0.0
H400 H 0.81391 0.37838 0.9508 0.0
H401 H 0.77818 0.33618 0.97517 0.0
C402 C 0.56064 0.91226 0.0262 0.0
C403 C 0.53806 0.91811 0.9742 0.0
C404 C 0.55673 0.88312 0.02644 0.0
C405 C 0.49064 0.80918 0.9662 0.0
H406 H 0.57246 0.78029 0.00128 0.0
C407 C 0.47605 0.68539 0.93345 0.0
C408 C 0.49778 0.67897 0.98574 0.0
C409 C 0.48185 0.7144 0.93153 0.0
C410 C 0.54929 0.78806 0.99219 0.0
H411 H 0.49409 0.89745 0.88081 0.0
H412 H 0.48688 0.84681 0.8816 0.0
H413 H 0.58091 0.83083 0.99831 0.0
H414 H 0.54311 0.69845 0.07664 0.0
H415 H 0.55332 0.74905 0.0732 0.0
H416 H 0.45897 0.76658 0.96028 0.0
C417 C 0.50754 0.86481 0.92266 0.0
C418 C 0.55415 0.8171 0.99041 0.0
C419 C 0.5117 0.89392 0.92203 0.0
C420 C 0.52603 0.70239 0.03509 0.0
C421 C 0.53187 0.73149 0.03313 0.0
C422 C 0.48577 0.78018 0.96788 0.0
C423 C 0.5299 0.859 0.97514 0.0
C424 C 0.52488 0.82804 0.9771 0.0
C425 C 0.50963 0.73797 0.98174 0.0
C426 C 0.51501 0.76912 0.98069 0.0
H427 H 0.58097 0.93024 0.06795 0.0
H428 H 0.57419 0.87964 0.06825 0.0
H429 H 0.46752 0.81705 0.95768 0.0
H430 H 0.45452 0.66789 0.89341 0.0
H431 H 0.46463 0.71827 0.89008 0.0
C432 C 0.91664 0.52026 0.97121 0.0
C433 C 0.93159 0.50079 0.99675 0.0
C434 C 0.88072 0.51961 0.97081 0.0
C435 C 0.79317 0.47098 0.97305 0.0
H436 H 0.76635 0.54514 0.03393 0.0
C437 C 0.64492 0.47452 0.94168 0.0
C438 C 0.63546 0.49571 -0.00112 0.0
C439 C 0.68067 0.47473 0.94097 0.0
C440 C 0.77326 0.52416 0.01709 0.0
H441 H 0.91934 0.46451 0.03974 0.0
H442 H 0.857 0.46302 0.03792 0.0
H443 H 0.82859 0.5463 0.03335 0.0
H444 H 0.65691 0.53281 0.10231 0.0
H445 H 0.71885 0.53375 0.10003 0.0
H446 H 0.73787 0.44885 0.95722 0.0
C447 C 0.87311 0.47912 0.01876 0.0
C448 C 0.80909 0.52482 0.01599 0.0
C449 C 0.90911 0.48008 0.02011 0.0
C450 C 0.66294 0.5167 0.05605 0.0
C451 C 0.69869 0.51717 0.05486 0.0
C452 C 0.75729 0.47031 0.97346 0.0
C453 C 0.85828 0.49901 0.99457 0.0
C454 C 0.81974 0.49825 0.99431 0.0
C455 C 0.70825 0.49624 0.99719 0.0
C456 C 0.74668 0.49689 0.99583 0.0
H457 H 0.93254 0.53573 0.95026 0.0
H458 H 0.87036 0.53494 0.95043 0.0
H459 H 0.80004 0.44999 0.95526 0.0
H460 H 0.6247 0.45791 0.89666 0.0
H461 H 0.68673 0.45833 0.89528 0.0
C462 C 0.25083 0.65087 0.0443 0.0
C463 C 0.2198 0.6542 0.07148 0.0
C464 C 0.27154 0.67354 0.02509 0.0
C465 C 0.26602 0.7389 0.97236 0.0
H466 H 0.36874 0.75974 0.01823 0.0
C467 C 0.35181 0.84064 0.92526 0.0
C468 C 0.38118 0.83661 0.89216 0.0
C469 C 0.33337 0.81899 0.95059 0.0
C470 C 0.34007 0.75399 0.0045 0.0
H471 H 0.18681 0.68433 0.10204 0.0
H472 H 0.22291 0.72386 0.06877 0.0
H473 H 0.33411 0.72066 0.05578 0.0
H474 H 0.41474 0.80697 0.86152 0.0
H475 H 0.38238 0.76905 0.90529 0.0
H476 H 0.27188 0.77207 0.92093 0.0
C477 C 0.2309 0.70351 0.06089 0.0
C478 C 0.32024 0.73159 0.02594 0.0
C479 C 0.21021 0.68086 0.07998 0.0
C480 C 0.39208 0.81066 0.8863 0.0
C481 C 0.37373 0.78905 0.91195 0.0
C482 C 0.28581 0.76127 0.95106 0.0
C483 C 0.26168 0.70005 0.03272 0.0
C484 C 0.28296 0.72383 0.01019 0.0
C485 C 0.34388 0.7928 0.94355 0.0
C486 C 0.32306 0.76912 0.96697 0.0
H487 H 0.25871 0.63046 0.03633 0.0
H488 H 0.29483 0.67001 0.00268 0.0
H489 H 0.23737 0.73308 0.95807 0.0
H490 H 0.34247 0.8602 0.92995 0.0
H491 H 0.31075 0.82272 0.97552 0.0
C492 C 0.59277 0.31904 0.08331 0.0
C493 C 0.57532 0.32463 0.02373 0.0
C494 C 0.58767 0.28988 0.08401 0.0
C495 C 0.56245 0.21133 0.96044 0.0
H496 H 0.54658 0.19351 0.13802 0.0
C497 C 0.52743 0.08966 0.95755 0.0
C498 C 0.53985 0.084 0.02129 0.0
C499 C 0.53143 0.11895 0.95869 0.0
C500 C 0.55155 0.19804 0.08817 0.0
H501 H 0.53868 0.30376 0.9182 0.0
H502 H 0.53005 0.25272 0.91895 0.0
H503 H 0.55401 0.24435 0.13846 0.0
H504 H 0.5654 0.10484 0.13686 0.0
H505 H 0.5742 0.15598 0.1383 0.0
H506 H 0.56101 0.1654 0.91046 0.0
C507 C 0.54767 0.27101 0.96524 0.0
C508 C 0.55563 0.22727 0.0884 0.0
C509 C 0.55237 0.30027 0.96508 0.0
C510 C 0.55621 0.10843 0.08641 0.0
C511 C 0.56069 0.13781 0.08742 0.0
C512 C 0.55883 0.18218 0.96043 0.0
C513 C 0.56534 0.26543 0.02466 0.0
C514 C 0.56093 0.23427 0.02442 0.0
C515 C 0.5484 0.14358 0.02347 0.0
C516 C 0.55307 0.17497 0.02414 0.0
H517 H 0.61042 0.3373 0.12966 0.0
H518 H 0.60184 0.28641 0.13041 0.0
H519 H 0.56709 0.21603 0.91057 0.0
H520 H 0.51487 0.07142 0.90622 0.0
H521 H 0.52087 0.12218 0.90863 0.0
loop_
_geom_bond_atom_site_label_1
_geom_bond_atom_site_label_2
_geom_bond_distance
_geom_bond_site_symmetry_2
_ccdc_geom_bond_type
Tb0 N29 2.617 . S
Tb0 N35 2.572 1_455 S
Tb0 O44 2.465 1_554 S
Tb0 O45 2.387 1_455 S
Tb0 O47 2.428 . S
Tb0 O48 2.308 1_554 S
Tb0 O52 2.349 . S
Tb0 O55 2.393 . S
Tb0 C64 2.802 . S
C1 N2 1.387 . S
C1 C4 1.416 . S
C1 C8 1.424 . S
N2 C1 1.387 . S
N2 C5 1.333 1_455 S
N2 Tb11 2.611 1_455 S
C3 C5 1.390 1_455 S
C3 C6 1.339 . S
C3 H23 0.928 1_455 S
C4 C1 1.416 . S
C4 C6 1.416 . S
C4 C10 1.448 . S
C5 N2 1.333 1_655 S
C5 C3 1.390 1_655 S
C5 H16 0.930 . S
C6 C3 1.339 . S
C6 C4 1.416 . S
C6 H27 0.930 . S
C7 C8 1.413 . S
C7 C9 1.427 . S
C7 C13 1.416 1_556 S
C8 C1 1.424 . S
C8 C7 1.413 . S
C8 N12 1.361 . S
C9 C7 1.427 . S
C9 C10 1.328 . S
C9 H24 0.929 . S
C10 C4 1.448 . S
C10 C9 1.328 . S
C10 H25 0.930 . S
Tb11 N2 2.611 1_655 S
Tb11 N12 2.572 1_655 S
Tb11 O46 2.349 . S
Tb11 O49 2.393 . S
Tb11 O50 2.465 1_556 S
Tb11 O51 2.387 1_655 S
Tb11 O53 2.428 . S
Tb11 O54 2.308 1_656 S
Tb11 C75 2.802 . S
N12 C8 1.361 . S
N12 Tb11 2.572 1_455 S
N12 C14 1.340 1_556 S
C13 C7 1.416 1_554 S
C13 C15 1.332 . S
C13 H21 0.931 . S
C14 N12 1.340 1_554 S
C14 C15 1.407 . S
C14 H20 0.930 . S
C15 C13 1.332 . S
C15 C14 1.407 . S
C15 H17 0.929 . S
H16 C5 0.930 . S
H17 C15 0.929 . S
H18 C33 0.930 . S
H19 C40 0.929 . S
H20 C14 0.930 . S
H21 C13 0.931 . S
H22 C36 0.930 . S
H23 C3 0.928 1_655 S
H24 C9 0.929 . S
H25 C10 0.930 . S
H26 C31 0.930 1_455 S
H27 C6 0.930 . S
H28 C39 0.931 . S
N29 Tb0 2.617 . S
N29 C30 1.379 1_455 S
N29 C33 1.334 . S
C30 N29 1.379 1_655 S
C30 C32 1.416 . S
C30 C38 1.424 . S
C31 H26 0.930 1_655 S
C31 C33 1.390 1_655 S
C31 C34 1.339 . S
C32 C30 1.416 . S
C32 C34 1.416 . S
C32 C65 1.448 . S
C33 H18 0.930 . S
C33 N29 1.334 . S
C33 C31 1.390 1_455 S
C34 C31 1.339 . S
C34 C32 1.416 . S
C34 H41 0.930 . S
N35 Tb0 2.572 1_655 S
N35 C36 1.340 1_554 S
N35 C38 1.361 . S
C36 H22 0.930 . S
C36 N35 1.340 1_556 S
C36 C40 1.407 . S
C37 C38 1.413 . S
C37 C39 1.416 1_554 S
C37 C66 1.427 . S
C38 C30 1.424 . S
C38 N35 1.361 . S
C38 C37 1.413 . S
C39 H28 0.931 . S
C39 C37 1.416 1_556 S
C39 C40 1.332 . S
C40 H19 0.929 . S
C40 C36 1.407 . S
C40 C39 1.332 . S
H41 C34 0.930 . S
H42 C65 0.930 . S
H43 C66 0.929 . S
O44 Tb0 2.465 1_556 S
O44 C64 1.264 1_556 S
O45 Tb0 2.387 1_655 S
O45 C56 1.262 1_554 S
O46 Tb11 2.349 . S
O46 C56 1.244 . S
O47 Tb0 2.428 . S
O47 C64 1.256 . S
O48 Tb0 2.308 1_556 S
O48 C63 1.266 1_455 S
O49 Tb11 2.393 . S
O49 C63 1.248 . S
O50 Tb11 2.465 1_554 S
O50 C75 1.264 1_554 S
O51 Tb11 2.387 1_455 S
O51 C67 1.264 1_556 S
O52 Tb0 2.349 . S
O52 C67 1.243 . S
O53 Tb11 2.428 . S
O53 C75 1.256 . S
O54 Tb11 2.308 1_454 S
O54 C74 1.266 . S
O55 Tb0 2.393 . S
O55 C74 1.248 . S
C56 O45 1.262 1_556 S
C56 O46 1.244 . S
C57 C60 1.399 . S
C57 C62 1.383 . S
C57 C64 1.496 . S
C58 C59 1.399 . S
C58 C62 1.389 . S
C59 C58 1.399 . S
C59 C61 1.380 . S
C59 H76 0.929 . S
C60 C57 1.399 . S
C60 C61 1.392 . S
C60 H77 0.929 . S
C61 C59 1.380 . S
C61 C60 1.392 . S
C61 H78 0.929 . S
C62 C57 1.383 . S
C62 C58 1.389 . S
C62 H79 0.931 1_554 S
C63 O48 1.266 1_655 S
C63 O49 1.248 . S
C64 Tb0 2.802 . S
C64 O44 1.264 1_554 S
C64 O47 1.256 . S
C64 C57 1.496 . S
C65 C32 1.448 . S
C65 H42 0.930 . S
C65 C66 1.328 . S
C66 C37 1.427 . S
C66 H43 0.929 . S
C66 C65 1.328 . S
C67 O51 1.264 1_554 S
C67 O52 1.243 . S
C68 C71 1.399 . S
C68 C72 1.383 . S
C68 C75 1.496 . S
C69 C70 1.399 . S
C69 C72 1.389 . S
C70 C69 1.399 . S
C70 C73 1.380 . S
C70 H80 0.929 . S
C71 C68 1.399 . S
C71 C73 1.392 . S
C71 H81 0.929 . S
C72 C68 1.383 . S
C72 C69 1.389 . S
C72 H82 0.931 1_556 S
C73 C70 1.380 . S
C73 C71 1.392 . S
C73 H83 0.929 . S
C74 O54 1.266 . S
C74 O55 1.248 . S
C75 Tb11 2.802 . S
C75 O50 1.264 1_556 S
C75 O53 1.256 . S
C75 C68 1.496 . S
H76 C59 0.929 . S
H77 C60 0.929 . S
H78 C61 0.929 . S
H79 C62 0.931 1_556 S
H80 C70 0.929 . S
H81 C71 0.929 . S
H82 C72 0.931 1_554 S
H83 C73 0.929 . S
Tb84 N113 2.617 . S
Tb84 N119 2.572 1_566 S
Tb84 O128 2.465 1_556 S
Tb84 O129 2.387 1_565 S
Tb84 O131 2.428 . S
Tb84 O132 2.308 1_566 S
Tb84 O136 2.349 . S
Tb84 O139 2.393 . S
Tb84 C148 2.802 . S
C85 N86 1.379 1_565 S
C85 C88 1.416 . S
C85 C92 1.424 . S
N86 C85 1.379 1_545 S
N86 C89 1.334 . S
N86 Tb95 2.617 . S
C87 C89 1.390 . S
C87 C90 1.339 1_545 S
C87 H107 0.930 . S
C88 C85 1.416 . S
C88 C90 1.416 . S
C88 C94 1.448 . S
C89 N86 1.334 . S
C89 C87 1.390 . S
C89 H100 0.930 . S
C90 C87 1.339 1_565 S
C90 C88 1.416 . S
C90 H111 0.930 . S
C91 C92 1.408 1_556 S
C91 C93 1.415 1_556 S
C91 C97 1.432 . S
C92 C85 1.424 . S
C92 C91 1.408 1_554 S
C92 N96 1.361 1_554 S
C93 C91 1.415 1_554 S
C93 C94 1.328 . S
C93 H108 0.929 . S
C94 C88 1.448 . S
C94 C93 1.328 . S
C94 H109 0.930 . S
Tb95 N86 2.617 . S
Tb95 N96 2.572 1_544 S
Tb95 O130 2.349 . S
Tb95 O133 2.393 . S
Tb95 O134 2.465 1_554 S
Tb95 O135 2.387 1_545 S
Tb95 O137 2.428 . S
Tb95 O138 2.308 1_544 S
Tb95 C159 2.802 . S
N96 C92 1.361 1_556 S
N96 Tb95 2.572 1_566 S
N96 C98 1.340 . S
C97 C91 1.432 . S
C97 C99 1.332 . S
C97 H105 0.931 . S
C98 N96 1.340 . S
C98 C99 1.407 . S
C98 H104 0.930 . S
C99 C97 1.332 . S
C99 C98 1.407 . S
C99 H101 0.929 . S
H100 C89 0.930 . S
H101 C99 0.929 . S
H102 C117 0.930 . S
H103 C124 0.929 . S
H104 C98 0.930 . S
H105 C97 0.931 . S
H106 C120 0.930 . S
H107 C87 0.930 . S
H108 C93 0.929 . S
H109 C94 0.930 . S
H110 C115 0.930 . S
H111 C90 0.930 . S
H112 C123 0.931 . S
N113 Tb84 2.617 . S
N113 C114 1.379 1_565 S
N113 C117 1.334 . S
C114 N113 1.379 1_545 S
C114 C116 1.416 . S
C114 C122 1.424 . S
C115 H110 0.930 . S
C115 C117 1.390 . S
C115 C118 1.339 1_565 S
C116 C114 1.416 . S
C116 C118 1.416 . S
C116 C149 1.448 . S
C117 H102 0.930 . S
C117 N113 1.334 . S
C117 C115 1.390 . S
C118 C115 1.339 1_545 S
C118 C116 1.416 . S
C118 H125 0.930 . S
N119 Tb84 2.572 1_544 S
N119 C120 1.340 . S
N119 C122 1.361 1_554 S
C120 H106 0.930 . S
C120 N119 1.340 . S
C120 C124 1.407 . S
C121 C122 1.413 1_554 S
C121 C123 1.416 . S
C121 C150 1.427 1_554 S
C122 C114 1.424 . S
C122 N119 1.361 1_556 S
C122 C121 1.413 1_556 S
C123 H112 0.931 . S
C123 C121 1.416 . S
C123 C124 1.332 . S
C124 H103 0.929 . S
C124 C120 1.407 . S
C124 C123 1.332 . S
H125 C118 0.930 . S
H126 C149 0.930 . S
H127 C150 0.929 . S
O128 Tb84 2.465 1_554 S
O128 C148 1.264 1_554 S
O129 Tb84 2.387 1_545 S
O129 C140 1.264 1_556 S
O130 Tb95 2.349 . S
O130 C140 1.243 . S
O131 Tb84 2.428 . S
O131 C148 1.256 . S
O132 Tb84 2.308 1_544 S
O132 C147 1.266 . S
O133 Tb95 2.393 . S
O133 C147 1.248 . S
O134 Tb95 2.465 1_556 S
O134 C159 1.264 1_556 S
O135 Tb95 2.387 1_565 S
O135 C151 1.264 1_554 S
O136 Tb84 2.349 . S
O136 C151 1.243 . S
O137 Tb95 2.428 . S
O137 C159 1.256 . S
O138 Tb95 2.308 1_566 S
O138 C158 1.265 . S
O139 Tb84 2.393 . S
O139 C158 1.248 . S
C140 O129 1.264 1_554 S
C140 O130 1.243 . S
C141 C144 1.399 . S
C141 C146 1.383 1_556 S
C141 C148 1.496 . S
C142 C143 1.399 1_554 S
C142 C146 1.389 . S
C143 C142 1.399 1_556 S
C143 C145 1.380 . S
C143 H160 0.929 . S
C144 C141 1.399 . S
C144 C145 1.392 . S
C144 H161 0.929 . S
C145 C143 1.380 . S
C145 C144 1.392 . S
C145 H162 0.929 . S
C146 C141 1.383 1_554 S
C146 C142 1.389 . S
C146 H163 0.931 . S
C147 O132 1.266 . S
C147 O133 1.248 . S
C148 Tb84 2.802 . S
C148 O128 1.264 1_556 S
C148 O131 1.256 . S
C148 C141 1.496 . S
C149 C116 1.448 . S
C149 H126 0.930 . S
C149 C150 1.328 . S
C150 C121 1.427 1_556 S
C150 H127 0.929 . S
C150 C149 1.328 . S
C151 O135 1.264 1_556 S
C151 O136 1.243 . S
C152 C155 1.399 . S
C152 C156 1.383 1_554 S
C152 C159 1.496 . S
C153 C154 1.399 1_556 S
C153 C156 1.389 . S
C154 C153 1.399 1_554 S
C154 C157 1.380 . S
C154 H164 0.929 . S
C155 C152 1.399 . S
C155 C157 1.392 . S
C155 H165 0.929 . S
C156 C152 1.383 1_556 S
C156 C153 1.389 . S
C156 H166 0.931 . S
C157 C154 1.380 . S
C157 C155 1.392 . S
C157 H167 0.929 . S
C158 O138 1.265 . S
C158 O139 1.248 . S
C159 Tb95 2.802 . S
C159 O134 1.264 1_554 S
C159 O137 1.256 . S
C159 C152 1.496 . S
H160 C143 0.929 . S
H161 C144 0.929 . S
H162 C145 0.929 . S
H163 C146 0.931 . S
H164 C154 0.929 . S
H165 C155 0.929 . S
H166 C156 0.931 . S
H167 C157 0.929 . S
Tb168 N197 2.617 . S
Tb168 N203 2.572 . S
Tb168 O212 2.465 1_556 S
Tb168 O213 2.387 . S
Tb168 O215 2.428 . S
Tb168 O216 2.308 1_556 S
Tb168 O220 2.349 . S
Tb168 O223 2.393 . S
Tb168 C232 2.802 . S
C169 N170 1.379 . S
C169 C172 1.416 . S
C169 C176 1.424 . S
N170 C169 1.379 . S
N170 C173 1.334 . S
N170 Tb179 2.617 . S
C171 C173 1.390 . S
C171 C174 1.339 . S
C171 H191 0.930 . S
C172 C169 1.416 . S
C172 C174 1.416 . S
C172 C178 1.448 . S
C173 N170 1.334 . S
C173 C171 1.390 . S
C173 H184 0.930 . S
C174 C171 1.339 . S
C174 C172 1.416 . S
C174 H195 0.930 . S
C175 C176 1.413 . S
C175 C177 1.427 . S
C175 C181 1.415 . S
C176 C169 1.424 . S
C176 C175 1.413 . S
C176 N180 1.361 . S
C177 C175 1.427 . S
C177 C178 1.328 . S
C177 H192 0.929 . S
C178 C172 1.448 . S
C178 C177 1.328 . S
C178 H193 0.930 . S
Tb179 N170 2.617 . S
Tb179 N180 2.572 . S
Tb179 O214 2.349 . S
Tb179 O217 2.393 . S
Tb179 O218 2.465 1_554 S
Tb179 O219 2.387 . S
Tb179 O221 2.428 . S
Tb179 O222 2.308 1_554 S
Tb179 C243 2.802 . S
N180 C176 1.361 . S
N180 Tb179 2.572 . S
N180 C182 1.340 1_554 S
C181 C175 1.415 . S
C181 C183 1.333 1_554 S
C181 H189 0.932 1_554 S
C182 N180 1.340 1_556 S
C182 C183 1.407 . S
C182 H188 0.930 . S
C183 C181 1.333 1_556 S
C183 C182 1.407 . S
C183 H185 0.929 . S
H184 C173 0.930 . S
H185 C183 0.929 . S
H186 C201 0.930 . S
H187 C208 0.929 . S
H188 C182 0.930 . S
H189 C181 0.932 1_556 S
H190 C204 0.930 . S
H191 C171 0.930 . S
H192 C177 0.929 . S
H193 C178 0.930 . S
H194 C199 0.930 . S
H195 C174 0.930 . S
H196 C207 0.931 . S
N197 Tb168 2.617 . S
N197 C198 1.379 . S
N197 C201 1.334 . S
C198 N197 1.379 . S
C198 C200 1.416 . S
C198 C206 1.424 . S
C199 H194 0.930 . S
C199 C201 1.390 . S
C199 C202 1.339 . S
C200 C198 1.416 . S
C200 C202 1.416 . S
C200 C233 1.448 . S
C201 H186 0.930 . S
C201 N197 1.334 . S
C201 C199 1.390 . S
C202 C199 1.339 . S
C202 C200 1.416 . S
C202 H209 0.930 . S
N203 Tb168 2.572 . S
N203 C204 1.340 1_556 S
N203 C206 1.361 . S
C204 H190 0.930 . S
C204 N203 1.340 1_554 S
C204 C208 1.407 . S
C205 C206 1.413 . S
C205 C207 1.416 1_556 S
C205 C234 1.427 . S
C206 C198 1.424 . S
C206 N203 1.361 . S
C206 C205 1.413 . S
C207 H196 0.931 . S
C207 C205 1.416 1_554 S
C207 C208 1.332 . S
C208 H187 0.929 . S
C208 C204 1.407 . S
C208 C207 1.332 . S
H209 C202 0.930 . S
H210 C233 0.930 . S
H211 C234 0.929 . S
O212 Tb168 2.465 1_554 S
O212 C232 1.264 1_554 S
O213 Tb168 2.387 . S
O213 C224 1.264 . S
O214 Tb179 2.349 . S
O214 C224 1.243 1_554 S
O215 Tb168 2.428 . S
O215 C232 1.256 . S
O216 Tb168 2.308 1_554 S
O216 C231 1.266 . S
O217 Tb179 2.393 . S
O217 C231 1.248 . S
O218 Tb179 2.465 1_556 S
O218 C243 1.264 1_556 S
O219 Tb179 2.387 . S
O219 C235 1.264 . S
O220 Tb168 2.349 . S
O220 C235 1.243 1_556 S
O221 Tb179 2.428 . S
O221 C243 1.256 . S
O222 Tb179 2.308 1_556 S
O222 C242 1.266 . S
O223 Tb168 2.393 . S
O223 C242 1.248 . S
C224 O213 1.264 . S
C224 O214 1.243 1_556 S
C225 C228 1.399 . S
C225 C230 1.378 1_556 S
C225 C232 1.496 . S
C226 C227 1.399 . S
C226 C230 1.391 1_556 S
C227 C226 1.399 . S
C227 C229 1.380 . S
C227 H244 0.929 . S
C228 C225 1.399 . S
C228 C229 1.392 . S
C228 H245 0.929 . S
C229 C227 1.380 . S
C229 C228 1.392 . S
C229 H246 0.929 . S
C230 C225 1.378 1_554 S
C230 C226 1.391 1_554 S
C230 H247 0.935 . S
C231 O216 1.266 . S
C231 O217 1.248 . S
C232 Tb168 2.802 . S
C232 O212 1.264 1_556 S
C232 O215 1.256 . S
C232 C225 1.496 . S
C233 C200 1.448 . S
C233 H210 0.930 . S
C233 C234 1.328 . S
C234 C205 1.427 . S
C234 H211 0.929 . S
C234 C233 1.328 . S
C235 O219 1.264 . S
C235 O220 1.243 1_554 S
C236 C239 1.399 . S
C236 C240 1.398 . S
C236 C243 1.496 . S
C237 C238 1.399 . S
C237 C240 1.386 . S
C238 C237 1.399 . S
C238 C241 1.380 . S
C238 H248 0.929 . S
C239 C236 1.399 . S
C239 C241 1.392 . S
C239 H249 0.929 . S
C240 C236 1.398 . S
C240 C237 1.386 . S
C240 H250 0.919 1_554 S
C241 C238 1.380 . S
C241 C239 1.392 . S
C241 H251 0.929 . S
C242 O222 1.266 . S
C242 O223 1.248 . S
C243 Tb179 2.802 . S
C243 O218 1.264 1_554 S
C243 O221 1.256 . S
C243 C236 1.496 . S
H244 C227 0.929 . S
H245 C228 0.929 . S
H246 C229 0.929 . S
H247 C230 0.935 . S
H248 C238 0.929 . S
H249 C239 0.929 . S
H250 C240 0.919 1_556 S
H251 C241 0.929 . S
C252 C253 1.348 . S
C252 C254 1.327 . S
C252 H277 0.950 . S
C253 C252 1.348 . S
C253 C269 1.349 1_455 S
C254 C252 1.327 . S
C254 C273 1.436 . S
C254 H278 0.950 . S
C255 C272 1.574 . S
C255 C274 1.355 1_655 S
C255 H279 0.949 . S
H256 C260 0.949 . S
C257 C258 1.349 1_655 S
C257 C259 1.327 . S
C257 H280 0.950 . S
C258 C257 1.349 1_455 S
C258 C270 1.349 . S
C259 C257 1.327 . S
C259 C275 1.429 1_655 S
C259 H281 0.950 . S
C260 H256 0.949 . S
C260 C268 1.574 . S
C260 C276 1.368 . S
H261 C269 0.950 . S
H262 C267 0.950 . S
H263 C268 0.949 . S
H264 C270 0.950 . S
H265 C271 0.950 . S
H266 C272 0.949 . S
C267 H262 0.950 . S
C267 C269 1.327 . S
C267 C273 1.418 1_655 S
C268 C260 1.574 . S
C268 H263 0.949 . S
C268 C274 1.385 . S
C269 C253 1.349 1_655 S
C269 H261 0.950 . S
C269 C267 1.327 . S
C270 C258 1.349 . S
C270 H264 0.950 . S
C270 C271 1.327 . S
C271 H265 0.950 . S
C271 C270 1.327 . S
C271 C275 1.429 . S
C272 C255 1.574 . S
C272 H266 0.949 . S
C272 C276 1.368 1_655 S
C273 C254 1.436 . S
C273 C267 1.418 1_455 S
C273 C274 1.521 . S
C274 C255 1.355 1_455 S
C274 C268 1.385 . S
C274 C273 1.521 . S
C275 C259 1.429 1_455 S
C275 C271 1.429 . S
C275 C276 1.523 . S
C276 C260 1.368 . S
C276 C272 1.368 1_455 S
C276 C275 1.523 . S
H277 C252 0.950 . S
H278 C254 0.950 . S
H279 C255 0.949 . S
H280 C257 0.950 . S
H281 C259 0.950 . S
C282 C283 1.349 1_565 S
C282 C284 1.327 . S
C282 H307 0.950 . S
C283 C282 1.349 1_545 S
C283 C299 1.349 . S
C284 C282 1.327 . S
C284 C303 1.429 1_565 S
C284 H308 0.950 . S
C285 C302 1.574 . S
C285 C304 1.368 . S
C285 H309 0.949 . S
H286 C290 0.949 . S
C287 C288 1.349 1_545 S
C287 C289 1.327 . S
C287 H310 0.950 . S
C288 C287 1.349 1_565 S
C288 C300 1.349 . S
C289 C287 1.327 . S
C289 C305 1.429 1_545 S
C289 H311 0.950 . S
C290 H286 0.949 . S
C290 C298 1.574 . S
C290 C306 1.386 . S
H291 C299 0.950 . S
H292 C297 0.950 . S
H293 C298 0.949 . S
H294 C300 0.950 . S
H295 C301 0.950 . S
H296 C302 0.949 . S
C297 H292 0.950 . S
C297 C299 1.327 . S
C297 C303 1.429 . S
C298 C290 1.574 . S
C298 H293 0.949 . S
C298 C304 1.368 1_565 S
C299 C283 1.349 . S
C299 H291 0.950 . S
C299 C297 1.327 . S
C300 C288 1.349 . S
C300 H294 0.950 . S
C300 C301 1.327 . S
C301 H295 0.950 . S
C301 C300 1.327 . S
C301 C305 1.429 . S
C302 C285 1.574 . S
C302 H296 0.949 . S
C302 C306 1.343 1_545 S
C303 C284 1.429 1_545 S
C303 C297 1.429 . S
C303 C304 1.523 . S
C304 C285 1.368 . S
C304 C298 1.368 1_545 S
C304 C303 1.523 . S
C305 C289 1.429 1_565 S
C305 C301 1.429 . S
C305 C306 1.532 . S
C306 C290 1.386 . S
C306 C302 1.343 1_565 S
C306 C305 1.532 . S
H307 C282 0.950 . S
H308 C284 0.950 . S
H309 C285 0.949 . S
H310 C287 0.950 . S
H311 C289 0.950 . S
C312 C313 1.349 . S
C312 C314 1.327 . S
C312 H337 0.950 . S
C313 C312 1.349 . S
C313 C329 1.349 . S
C314 C312 1.327 . S
C314 C333 1.429 . S
C314 H338 0.950 . S
C315 C332 1.574 . S
C315 C334 1.368 . S
C315 H339 0.949 . S
H316 C320 0.949 . S
C317 C318 1.349 . S
C317 C319 1.327 . S
C317 H340 0.950 . S
C318 C317 1.349 . S
C318 C330 1.349 . S
C319 C317 1.327 . S
C319 C335 1.429 . S
C319 H341 0.950 . S
C320 H316 0.949 . S
C320 C328 1.574 . S
C320 C336 1.368 . S
H321 C329 0.950 . S
H322 C327 0.950 . S
H323 C328 0.949 . S
H324 C330 0.950 . S
H325 C331 0.950 . S
H326 C332 0.949 . S
C327 H322 0.950 . S
C327 C329 1.327 . S
C327 C333 1.429 . S
C328 C320 1.574 . S
C328 H323 0.949 . S
C328 C334 1.368 . S
C329 C313 1.349 . S
C329 H321 0.950 . S
C329 C327 1.327 . S
C330 C318 1.349 . S
C330 H324 0.950 . S
C330 C331 1.327 . S
C331 H325 0.950 . S
C331 C330 1.327 . S
C331 C335 1.429 . S
C332 C315 1.574 . S
C332 H326 0.949 . S
C332 C336 1.368 . S
C333 C314 1.429 . S
C333 C327 1.429 . S
C333 C334 1.523 . S
C334 C315 1.368 . S
C334 C328 1.368 . S
C334 C333 1.523 . S
C335 C319 1.429 . S
C335 C331 1.429 . S
C335 C336 1.523 . S
C336 C320 1.368 . S
C336 C332 1.368 . S
C336 C335 1.523 . S
H337 C312 0.950 . S
H338 C314 0.950 . S
H339 C315 0.949 . S
H340 C317 0.950 . S
H341 C319 0.950 . S
C342 C343 1.349 . S
C342 C344 1.327 . S
C342 H367 0.950 . S
C343 C342 1.349 . S
C343 C359 1.349 1_554 S
C344 C342 1.327 . S
C344 C363 1.429 . S
C344 H368 0.950 . S
C345 C362 1.574 . S
C345 C364 1.368 1_556 S
C345 H369 0.949 . S
H346 C350 0.949 . S
C347 C348 1.349 . S
C347 C349 1.327 . S
C347 H370 0.950 . S
C348 C347 1.349 . S
C348 C360 1.349 1_556 S
C349 C347 1.327 . S
C349 C365 1.429 . S
C349 H371 0.950 . S
C350 H346 0.949 . S
C350 C358 1.574 . S
C350 C366 1.376 . S
H351 C359 0.950 . S
H352 C357 0.950 . S
H353 C358 0.949 . S
H354 C360 0.950 . S
H355 C361 0.950 . S
H356 C362 0.949 . S
C357 H352 0.950 . S
C357 C359 1.327 . S
C357 C363 1.429 1_556 S
C358 C350 1.574 . S
C358 H353 0.949 . S
C358 C364 1.368 . S
C359 C343 1.349 1_556 S
C359 H351 0.950 . S
C359 C357 1.327 . S
C360 C348 1.349 1_554 S
C360 H354 0.950 . S
C360 C361 1.327 . S
C361 H355 0.950 . S
C361 C360 1.327 . S
C361 C365 1.429 1_554 S
C362 C345 1.574 . S
C362 H356 0.949 . S
C362 C366 1.362 1_556 S
C363 C344 1.429 . S
C363 C357 1.429 1_554 S
C363 C364 1.523 . S
C364 C345 1.368 1_554 S
C364 C358 1.368 . S
C364 C363 1.523 . S
C365 C349 1.429 . S
C365 C361 1.429 1_556 S
C365 C366 1.522 1_556 S
C366 C350 1.376 . S
C366 C362 1.362 1_554 S
C366 C365 1.522 1_554 S
H367 C342 0.950 . S
H368 C344 0.950 . S
H369 C345 0.949 . S
H370 C347 0.950 . S
H371 C349 0.950 . S
C372 C373 1.349 1_554 S
C372 C374 1.327 . S
C372 H397 0.950 . S
C373 C372 1.349 1_556 S
C373 C389 1.349 . S
C374 C372 1.327 . S
C374 C393 1.429 1_554 S
C374 H398 0.950 . S
C375 C392 1.574 . S
C375 C394 1.368 . S
C375 H399 0.949 . S
H376 C380 0.949 . S
C377 C378 1.349 1_556 S
C377 C379 1.327 . S
C377 H400 0.950 . S
C378 C377 1.349 1_554 S
C378 C390 1.349 . S
C379 C377 1.327 . S
C379 C395 1.429 1_556 S
C379 H401 0.950 . S
C380 H376 0.949 . S
C380 C388 1.574 . S
C380 C396 1.368 1_554 S
H381 C389 0.950 . S
H382 C387 0.950 . S
H383 C388 0.949 . S
H384 C390 0.950 . S
H385 C391 0.950 . S
H386 C392 0.949 . S
C387 H382 0.950 . S
C387 C389 1.327 . S
C387 C393 1.429 . S
C388 C380 1.574 . S
C388 H383 0.949 . S
C388 C394 1.368 1_554 S
C389 C373 1.349 . S
C389 H381 0.950 . S
C389 C387 1.327 . S
C390 C378 1.349 . S
C390 H384 0.950 . S
C390 C391 1.327 . S
C391 H385 0.950 . S
C391 C390 1.327 . S
C391 C395 1.429 . S
C392 C375 1.574 . S
C392 H386 0.949 . S
C392 C396 1.368 . S
C393 C374 1.429 1_556 S
C393 C387 1.429 . S
C393 C394 1.523 . S
C394 C375 1.368 . S
C394 C388 1.368 1_556 S
C394 C393 1.523 . S
C395 C379 1.429 1_554 S
C395 C391 1.429 . S
C395 C396 1.523 1_554 S
C396 C380 1.368 1_556 S
C396 C392 1.368 . S
C396 C395 1.523 1_556 S
H397 C372 0.950 . S
H398 C374 0.950 . S
H399 C375 0.949 . S
H400 C377 0.950 . S
H401 C379 0.950 . S
C402 C403 1.349 . S
C402 C404 1.327 . S
C402 H427 0.950 . S
C403 C402 1.349 . S
C403 C419 1.349 1_556 S
C404 C402 1.327 . S
C404 C423 1.429 . S
C404 H428 0.950 . S
C405 C422 1.574 . S
C405 C424 1.368 1_554 S
C405 H429 0.949 . S
H406 C410 0.949 . S
C407 C408 1.349 1_554 S
C407 C409 1.327 . S
C407 H430 0.950 . S
C408 C407 1.349 1_556 S
C408 C420 1.349 . S
C409 C407 1.327 . S
C409 C425 1.429 1_554 S
C409 H431 0.950 . S
C410 H406 0.949 . S
C410 C418 1.574 . S
C410 C426 1.368 . S
H411 C419 0.950 . S
H412 C417 0.950 . S
H413 C418 0.949 . S
H414 C420 0.950 . S
H415 C421 0.950 . S
H416 C422 0.949 . S
C417 H412 0.950 . S
C417 C419 1.327 . S
C417 C423 1.429 1_554 S
C418 C410 1.574 . S
C418 H413 0.949 . S
C418 C424 1.368 . S
C419 C403 1.349 1_554 S
C419 H411 0.950 . S
C419 C417 1.327 . S
C420 C408 1.349 . S
C420 H414 0.950 . S
C420 C421 1.327 . S
C421 H415 0.950 . S
C421 C420 1.327 . S
C421 C425 1.429 . S
C422 C405 1.574 . S
C422 H416 0.949 . S
C422 C426 1.368 1_554 S
C423 C404 1.429 . S
C423 C417 1.429 1_556 S
C423 C424 1.523 . S
C424 C405 1.368 1_556 S
C424 C418 1.368 . S
C424 C423 1.523 . S
C425 C409 1.429 1_556 S
C425 C421 1.429 . S
C425 C426 1.523 . S
C426 C410 1.368 . S
C426 C422 1.368 1_556 S
C426 C425 1.523 . S
H427 C402 0.950 . S
H428 C404 0.950 . S
H429 C405 0.949 . S
H430 C407 0.950 . S
H431 C409 0.950 . S
C432 C433 1.349 1_554 S
C432 C434 1.327 . S
C432 H457 0.950 . S
C433 C432 1.349 1_556 S
C433 C449 1.349 . S
C434 C432 1.327 . S
C434 C453 1.429 1_554 S
C434 H458 0.950 . S
C435 C452 1.574 . S
C435 C454 1.368 . S
C435 H459 0.949 . S
H436 C440 0.949 . S
C437 C438 1.349 1_556 S
C437 C439 1.327 . S
C437 H460 0.950 . S
C438 C437 1.349 1_554 S
C438 C450 1.349 . S
C439 C437 1.327 . S
C439 C455 1.429 1_556 S
C439 H461 0.950 . S
C440 H436 0.949 . S
C440 C448 1.574 . S
C440 C456 1.377 . S
H441 C449 0.950 . S
H442 C447 0.950 . S
H443 C448 0.949 . S
H444 C450 0.950 . S
H445 C451 0.950 . S
H446 C452 0.949 . S
C447 H442 0.950 . S
C447 C449 1.327 . S
C447 C453 1.429 . S
C448 C440 1.574 . S
C448 H443 0.949 . S
C448 C454 1.368 1_554 S
C449 C433 1.349 . S
C449 H441 0.950 . S
C449 C447 1.327 . S
C450 C438 1.349 . S
C450 H444 0.950 . S
C450 C451 1.327 . S
C451 H445 0.950 . S
C451 C450 1.327 . S
C451 C455 1.429 . S
C452 C435 1.574 . S
C452 H446 0.949 . S
C452 C456 1.358 1_556 S
C453 C434 1.429 1_556 S
C453 C447 1.429 . S
C453 C454 1.523 . S
C454 C435 1.368 . S
C454 C448 1.368 1_556 S
C454 C453 1.523 . S
C455 C439 1.429 1_554 S
C455 C451 1.429 . S
C455 C456 1.525 . S
C456 C440 1.377 . S
C456 C452 1.358 1_554 S
C456 C455 1.525 . S
H457 C432 0.950 . S
H458 C434 0.950 . S
H459 C435 0.949 . S
H460 C437 0.950 . S
H461 C439 0.950 . S
C462 C463 1.349 1_554 S
C462 C464 1.327 . S
C462 H487 0.950 . S
C463 C462 1.349 1_556 S
C463 C479 1.349 . S
C464 C462 1.327 . S
C464 C483 1.429 1_554 S
C464 H488 0.950 . S
C465 C482 1.574 . S
C465 C484 1.368 1_556 S
C465 H489 0.949 . S
H466 C470 0.949 . S
C467 C468 1.349 1_556 S
C467 C469 1.327 . S
C467 H490 0.950 . S
C468 C467 1.349 1_554 S
C468 C480 1.349 . S
C469 C467 1.327 . S
C469 C485 1.429 1_556 S
C469 H491 0.950 . S
C470 H466 0.949 . S
C470 C478 1.574 . S
C470 C486 1.368 . S
H471 C479 0.950 . S
H472 C477 0.950 . S
H473 C478 0.949 . S
H474 C480 0.950 . S
H475 C481 0.950 . S
H476 C482 0.949 . S
C477 H472 0.950 . S
C477 C479 1.327 . S
C477 C483 1.429 . S
C478 C470 1.574 . S
C478 H473 0.949 . S
C478 C484 1.368 . S
C479 C463 1.349 . S
C479 H471 0.950 . S
C479 C477 1.327 . S
C480 C468 1.349 . S
C480 H474 0.950 . S
C480 C481 1.327 . S
C481 H475 0.950 . S
C481 C480 1.327 . S
C481 C485 1.429 . S
C482 C465 1.574 . S
C482 H476 0.949 . S
C482 C486 1.368 1_556 S
C483 C464 1.429 1_556 S
C483 C477 1.429 . S
C483 C484 1.523 1_556 S
C484 C465 1.368 1_554 S
C484 C478 1.368 . S
C484 C483 1.523 1_554 S
C485 C469 1.429 1_554 S
C485 C481 1.429 . S
C485 C486 1.523 . S
C486 C470 1.368 . S
C486 C482 1.368 1_554 S
C486 C485 1.523 . S
H487 C462 0.950 . S
H488 C464 0.950 . S
H489 C465 0.949 . S
H490 C467 0.950 . S
H491 C469 0.950 . S
C492 C493 1.349 . S
C492 C494 1.327 . S
C492 H517 0.950 . S
C493 C492 1.349 . S
C493 C509 1.349 1_554 S
C494 C492 1.327 . S
C494 C513 1.429 . S
C494 H518 0.950 . S
C495 C512 1.574 . S
C495 C514 1.368 1_556 S
C495 H519 0.949 . S
H496 C500 0.949 . S
C497 C498 1.349 1_556 S
C497 C499 1.327 . S
C497 H520 0.950 . S
C498 C497 1.349 1_554 S
C498 C510 1.349 . S
C499 C497 1.327 . S
C499 C515 1.429 1_556 S
C499 H521 0.950 . S
C500 H496 0.949 . S
C500 C508 1.574 . S
C500 C516 1.368 . S
H501 C509 0.950 . S
H502 C507 0.950 . S
H503 C508 0.949 . S
H504 C510 0.950 . S
H505 C511 0.950 . S
H506 C512 0.949 . S
C507 H502 0.950 . S
C507 C509 1.327 . S
C507 C513 1.429 1_556 S
C508 C500 1.574 . S
C508 H503 0.949 . S
C508 C514 1.368 . S
C509 C493 1.349 1_556 S
C509 H501 0.950 . S
C509 C507 1.327 . S
C510 C498 1.349 . S
C510 H504 0.950 . S
C510 C511 1.327 . S
C511 H505 0.950 . S
C511 C510 1.327 . S
C511 C515 1.429 . S
C512 C495 1.574 . S
C512 H506 0.949 . S
C512 C516 1.368 1_556 S
C513 C494 1.429 . S
C513 C507 1.429 1_554 S
C513 C514 1.523 . S
C514 C495 1.368 1_554 S
C514 C508 1.368 . S
C514 C513 1.523 . S
C515 C499 1.429 1_554 S
C515 C511 1.429 . S
C515 C516 1.523 . S
C516 C500 1.368 . S
C516 C512 1.368 1_554 S
C516 C515 1.523 . S
H517 C492 0.950 . S
H518 C494 0.950 . S
H519 C495 0.949 . S
H520 C497 0.950 . S
H521 C499 0.950 . S
C253 C63 1.483 1_455 S
C258 C74 1.483 . S
C283 C147 1.519 . S
C288 C158 1.519 . S
C313 C242 1.478 . S
C318 C231 1.478 . S
C343 C67 2.262 . S
C348 C224 2.276 . S
C373 C153 0.748 . S
C378 C69 0.748 1_554 S
C403 C151 1.537 . S
C408 C237 1.405 1_556 S
C433 C56 2.262 . S
C438 C235 2.276 . S
C463 C58 0.748 1_556 S
C468 C142 0.748 . S
C493 C226 1.405 1_554 S
C498 C140 1.537 . S
