# Generated by pormake.
# Topology fcp, (5)-cn, num edge types: 1
# Building blocks:
#     Node 0, Type 0, BuildingBlock: BEQFEK_clean_sbu_0, # of connection points: 5
#     Node 1, Type 0, BuildingBlock: BEQFEK_clean_sbu_0, # of connection points: 5
#     Node 2, Type 0, BuildingBlock: BEQFEK_clean_sbu_0, # of connection points: 5
#     Node 3, Type 0, BuildingBlock: BEQFEK_clean_sbu_0, # of connection points: 5
#     Node 4, Type 0, BuildingBlock: BEQFEK_clean_sbu_0, # of connection points: 5
#     Node 5, Type 0, BuildingBlock: BEQFEK_clean_sbu_0, # of connection points: 5
#     Node 6, Type 0, BuildingBlock: BEQFEK_clean_sbu_0, # of connection points: 5
#     Node 7, Type 0, BuildingBlock: BEQFEK_clean_sbu_0, # of connection points: 5
#     Node 8, Type 0, BuildingBlock: BEQFEK_clean_sbu_0, # of connection points: 5
#     Node 9, Type 0, BuildingBlock: BEQFEK_clean_sbu_0, # of connection points: 5
#     Node 10, Type 0, BuildingBlock: BEQFEK_clean_sbu_0, # of connection points: 5
#     Node 11, Type 0, BuildingBlock: BEQFEK_clean_sbu_0, # of connection points: 5
#     Node 12, Type 0, BuildingBlock: BEQFEK_clean_sbu_0, # of connection points: 5
#     Node 13, Type 0, BuildingBlock: BEQFEK_clean_sbu_0, # of connection points: 5
#     Node 14, Type 0, BuildingBlock: BEQFEK_clean_sbu_0, # of connection points: 5
#     Node 15, Type 0, BuildingBlock: BEQFEK_clean_sbu_0, # of connection points: 5
#     Node 16, Type 0, BuildingBlock: BEQFEK_clean_sbu_0, # of connection points: 5
#     Node 17, Type 0, BuildingBlock: BEQFEK_clean_sbu_0, # of connection points: 5
#     Node 18, Type 0, BuildingBlock: BEQFEK_clean_sbu_0, # of connection points: 5
#     Node 19, Type 0, BuildingBlock: BEQFEK_clean_sbu_0, # of connection points: 5
#     Node 20, Type 0, BuildingBlock: BEQFEK_clean_sbu_0, # of connection points: 5
#     Node 21, Type 0, BuildingBlock: BEQFEK_clean_sbu_0, # of connection points: 5
#     Node 22, Type 0, BuildingBlock: BEQFEK_clean_sbu_0, # of connection points: 5
#     Node 23, Type 0, BuildingBlock: BEQFEK_clean_sbu_0, # of connection points: 5
#     Edge 24, Type (0, 0), BuildingBlock: TEMPAE_clean_linker_10, # of connection points: 2
#     Edge 25, Type (0, 0), BuildingBlock: TEMPAE_clean_linker_10, # of connection points: 2
#     Edge 26, Type (0, 0), BuildingBlock: TEMPAE_clean_linker_10, # of connection points: 2
#     Edge 27, Type (0, 0), BuildingBlock: TEMPAE_clean_linker_10, # of connection points: 2
#     Edge 28, Type (0, 0), BuildingBlock: TEMPAE_clean_linker_10, # of connection points: 2
#     Edge 29, Type (0, 0), BuildingBlock: TEMPAE_clean_linker_10, # of connection points: 2
#     Edge 30, Type (0, 0), BuildingBlock: TEMPAE_clean_linker_10, # of connection points: 2
#     Edge 31, Type (0, 0), BuildingBlock: TEMPAE_clean_linker_10, # of connection points: 2
#     Edge 32, Type (0, 0), BuildingBlock: TEMPAE_clean_linker_10, # of connection points: 2
#     Edge 33, Type (0, 0), BuildingBlock: TEMPAE_clean_linker_10, # of connection points: 2
#     Edge 34, Type (0, 0), BuildingBlock: TEMPAE_clean_linker_10, # of connection points: 2
#     Edge 35, Type (0, 0), BuildingBlock: TEMPAE_clean_linker_10, # of connection points: 2
#     Edge 36, Type (0, 0), BuildingBlock: TEMPAE_clean_linker_10, # of connection points: 2
#     Edge 37, Type (0, 0), BuildingBlock: TEMPAE_clean_linker_10, # of connection points: 2
#     Edge 38, Type (0, 0), BuildingBlock: TEMPAE_clean_linker_10, # of connection points: 2
#     Edge 39, Type (0, 0), BuildingBlock: TEMPAE_clean_linker_10, # of connection points: 2
#     Edge 40, Type (0, 0), BuildingBlock: TEMPAE_clean_linker_10, # of connection points: 2
#     Edge 41, Type (0, 0), BuildingBlock: TEMPAE_clean_linker_10, # of connection points: 2
#     Edge 42, Type (0, 0), BuildingBlock: TEMPAE_clean_linker_10, # of connection points: 2
#     Edge 43, Type (0, 0), BuildingBlock: TEMPAE_clean_linker_10, # of connection points: 2
#     Edge 44, Type (0, 0), BuildingBlock: TEMPAE_clean_linker_10, # of connection points: 2
#     Edge 45, Type (0, 0), BuildingBlock: TEMPAE_clean_linker_10, # of connection points: 2
#     Edge 46, Type (0, 0), BuildingBlock: TEMPAE_clean_linker_10, # of connection points: 2
#     Edge 47, Type (0, 0), BuildingBlock: TEMPAE_clean_linker_10, # of connection points: 2
#     Edge 48, Type (0, 0), BuildingBlock: TEMPAE_clean_linker_10, # of connection points: 2
#     Edge 49, Type (0, 0), BuildingBlock: TEMPAE_clean_linker_10, # of connection points: 2
#     Edge 50, Type (0, 0), BuildingBlock: TEMPAE_clean_linker_10, # of connection points: 2
#     Edge 51, Type (0, 0), BuildingBlock: TEMPAE_clean_linker_10, # of connection points: 2
#     Edge 52, Type (0, 0), BuildingBlock: TEMPAE_clean_linker_10, # of connection points: 2
#     Edge 53, Type (0, 0), BuildingBlock: TEMPAE_clean_linker_10, # of connection points: 2
#     Edge 54, Type (0, 0), BuildingBlock: TEMPAE_clean_linker_10, # of connection points: 2
#     Edge 55, Type (0, 0), BuildingBlock: TEMPAE_clean_linker_10, # of connection points: 2
#     Edge 56, Type (0, 0), BuildingBlock: TEMPAE_clean_linker_10, # of connection points: 2
#     Edge 57, Type (0, 0), BuildingBlock: TEMPAE_clean_linker_10, # of connection points: 2
#     Edge 58, Type (0, 0), BuildingBlock: TEMPAE_clean_linker_10, # of connection points: 2
#     Edge 59, Type (0, 0), BuildingBlock: TEMPAE_clean_linker_10, # of connection points: 2
#     Edge 60, Type (0, 0), BuildingBlock: TEMPAE_clean_linker_10, # of connection points: 2
#     Edge 61, Type (0, 0), BuildingBlock: TEMPAE_clean_linker_10, # of connection points: 2
#     Edge 62, Type (0, 0), BuildingBlock: TEMPAE_clean_linker_10, # of connection points: 2
#     Edge 63, Type (0, 0), BuildingBlock: TEMPAE_clean_linker_10, # of connection points: 2
#     Edge 64, Type (0, 0), BuildingBlock: TEMPAE_clean_linker_10, # of connection points: 2
#     Edge 65, Type (0, 0), BuildingBlock: TEMPAE_clean_linker_10, # of connection points: 2
#     Edge 66, Type (0, 0), BuildingBlock: TEMPAE_clean_linker_10, # of connection points: 2
#     Edge 67, Type (0, 0), BuildingBlock: TEMPAE_clean_linker_10, # of connection points: 2
#     Edge 68, Type (0, 0), BuildingBlock: TEMPAE_clean_linker_10, # of connection points: 2
#     Edge 69, Type (0, 0), BuildingBlock: TEMPAE_clean_linker_10, # of connection points: 2
#     Edge 70, Type (0, 0), BuildingBlock: TEMPAE_clean_linker_10, # of connection points: 2
#     Edge 71, Type (0, 0), BuildingBlock: TEMPAE_clean_linker_10, # of connection points: 2
#     Edge 72, Type (0, 0), BuildingBlock: TEMPAE_clean_linker_10, # of connection points: 2
#     Edge 73, Type (0, 0), BuildingBlock: TEMPAE_clean_linker_10, # of connection points: 2
#     Edge 74, Type (0, 0), BuildingBlock: TEMPAE_clean_linker_10, # of connection points: 2
#     Edge 75, Type (0, 0), BuildingBlock: TEMPAE_clean_linker_10, # of connection points: 2
#     Edge 76, Type (0, 0), BuildingBlock: TEMPAE_clean_linker_10, # of connection points: 2
#     Edge 77, Type (0, 0), BuildingBlock: TEMPAE_clean_linker_10, # of connection points: 2
#     Edge 78, Type (0, 0), BuildingBlock: TEMPAE_clean_linker_10, # of connection points: 2
#     Edge 79, Type (0, 0), BuildingBlock: TEMPAE_clean_linker_10, # of connection points: 2
#     Edge 80, Type (0, 0), BuildingBlock: TEMPAE_clean_linker_10, # of connection points: 2
#     Edge 81, Type (0, 0), BuildingBlock: TEMPAE_clean_linker_10, # of connection points: 2
#     Edge 82, Type (0, 0), BuildingBlock: TEMPAE_clean_linker_10, # of connection points: 2
#     Edge 83, Type (0, 0), BuildingBlock: TEMPAE_clean_linker_10, # of connection points: 2
# Relax obj value: 0.276
# Max RMSD: 0.212
# Mean RMSD: 0.212
data_MOF--net-fcp--node1-BEQFEK_clean_sbu_0--edge1-TEMPAE_clean_linker_10
_symmetry_space_group_name_H-M    P1
_symmetry_Int_Tables_number       1
_symmetry_cell_setting            triclinic
loop_
_symmetry_equiv_pos_as_xyz
'x, y, z'
_cell_length_a     52.152502
_cell_length_b     52.132401
_cell_length_c     52.13088
_cell_angle_alpha  90.002248
_cell_angle_beta   89.963356
_cell_angle_gamma 89.993458
loop_
_atom_site_label
_atom_site_type_symbol
_atom_site_fract_x
_atom_site_fract_y
_atom_site_fract_z
_atom_type_partial_charge
Co0 Co 0.03868 0.34189 0.16926 0.0
Co1 Co 0.08727 0.32221 0.13993 0.0
C2 C 0.05831 0.2882 0.17591 0.0
O3 O 0.04232 0.30594 0.1811 0.0
O4 O 0.07648 0.29178 0.15994 0.0
C5 C 0.98675 0.34508 0.18915 0.0
O6 O 0.98342 0.32173 0.18027 0.0
C7 C 0.12251 0.29065 0.10913 0.0
C8 C 0.14977 0.32001 0.0952 0.0
C9 C 0.14471 0.29394 0.09483 0.0
N10 N 0.11473 0.31379 0.1174 0.0
N11 N 0.13094 0.33127 0.10878 0.0
C12 C 0.11054 0.26596 0.11752 0.0
H13 H 0.08935 0.26783 0.11742 0.0
H14 H 0.11629 0.24961 0.10526 0.0
H15 H 0.11677 0.26185 0.13743 0.0
C16 C 0.02131 0.35201 0.11593 0.0
N17 N 0.03881 0.34404 0.13316 0.0
N18 N 0.05942 0.33605 0.12093 0.0
C19 C 0.05565 0.33866 0.09552 0.0
C20 C 0.03151 0.34903 0.09155 0.0
C21 C 0.99535 0.3621 0.12276 0.0
H22 H 0.99708 0.37627 0.13854 0.0
H23 H 0.98326 0.34602 0.12971 0.0
H24 H 0.98589 0.3712 0.106 0.0
O25 O 0.0668 0.36238 0.18372 0.0
O26 O 0.10163 0.34726 0.16451 0.0
H27 H 0.09124 0.34159 0.07542 0.0
H28 H 0.06523 0.32973 0.05595 0.0
C29 C 0.07389 0.32932 0.07537 0.0
H30 H 0.07975 0.30937 0.07979 0.0
H31 H 0.12954 0.35082 0.11281 0.0
O32 O 0.00776 0.35665 0.18506 0.0
C33 C 0.09094 0.36211 0.1806 0.0
Co34 Co 0.83025 0.46814 0.32983 0.0
Co35 Co 0.82208 0.41388 0.35505 0.0
C36 C 0.78266 0.43704 0.32072 0.0
O37 O 0.79627 0.45701 0.31776 0.0
O38 O 0.79017 0.41863 0.33487 0.0
C39 C 0.81907 0.51521 0.30418 0.0
O40 O 0.79607 0.50519 0.30237 0.0
C41 C 0.79718 0.3724 0.38335 0.0
C42 C 0.83 0.34812 0.39476 0.0
C43 C 0.80353 0.34992 0.39604 0.0
N44 N 0.81892 0.38354 0.37519 0.0
N45 N 0.8385 0.36905 0.38222 0.0
C46 C 0.77101 0.38183 0.37631 0.0
H47 H 0.76727 0.37659 0.35605 0.0
H48 H 0.77027 0.40303 0.37802 0.0
H49 H 0.75567 0.37326 0.38818 0.0
C50 C 0.83849 0.4823 0.38446 0.0
N51 N 0.83302 0.46519 0.36589 0.0
N52 N 0.82895 0.44259 0.3764 0.0
C53 C 0.83138 0.44466 0.40203 0.0
C54 C 0.83777 0.46981 0.408 0.0
C55 C 0.84511 0.50977 0.37945 0.0
H56 H 0.82732 0.52044 0.37473 0.0
H57 H 0.85438 0.51877 0.39635 0.0
H58 H 0.85812 0.51107 0.36266 0.0
O59 O 0.85567 0.44619 0.31237 0.0
O60 O 0.85057 0.408 0.33056 0.0
H61 H 0.84136 0.40882 0.41927 0.0
H62 H 0.82434 0.43029 0.44052 0.0
C63 C 0.82587 0.42334 0.42048 0.0
H64 H 0.80751 0.41403 0.41528 0.0
H65 H 0.85761 0.37318 0.37795 0.0
O66 O 0.83625 0.50357 0.31703 0.0
C67 C 0.86162 0.4226 0.31439 0.0
Co68 Co 0.95215 0.65199 0.16417 0.0
Co69 Co 0.90326 0.67249 0.13606 0.0
C70 C 0.93274 0.70496 0.17361 0.0
O71 O 0.94936 0.6875 0.17762 0.0
O72 O 0.91427 0.70152 0.15799 0.0
C73 C 0.0039 0.6466 0.18386 0.0
O74 O 0.00755 0.67051 0.17679 0.0
C75 C 0.86863 0.70691 0.10796 0.0
C76 C 0.84168 0.67928 0.09042 0.0
C77 C 0.84685 0.70523 0.09277 0.0
N78 N 0.87607 0.68299 0.11407 0.0
N79 N 0.86001 0.66658 0.10338 0.0
C80 C 0.88042 0.73048 0.11932 0.0
H81 H 0.87559 0.73109 0.13999 0.0
H82 H 0.90159 0.72947 0.11746 0.0
H83 H 0.87335 0.7484 0.11046 0.0
C84 C 0.9692 0.64389 0.11041 0.0
N85 N 0.95177 0.65129 0.128 0.0
N86 N 0.93107 0.65959 0.11618 0.0
C87 C 0.93471 0.65773 0.09065 0.0
C88 C 0.95887 0.64758 0.0862 0.0
C89 C 0.99511 0.63338 0.11678 0.0
H90 H 0.00711 0.64895 0.1249 0.0
H91 H 0.00474 0.62535 0.09957 0.0
H92 H 0.99321 0.61821 0.13158 0.0
O93 O 0.92379 0.63138 0.17812 0.0
O94 O 0.88869 0.64618 0.15919 0.0
H95 H 0.89917 0.6545 0.07058 0.0
H96 H 0.92486 0.66755 0.05142 0.0
C97 C 0.9162 0.66722 0.07086 0.0
H98 H 0.90985 0.68688 0.07586 0.0
H99 H 0.86123 0.6467 0.10546 0.0
O100 O 0.98276 0.63567 0.17886 0.0
C101 C 0.89965 0.63118 0.17496 0.0
Co102 Co 0.1621 0.52786 0.32831 0.0
Co103 Co 0.1652 0.58356 0.35058 0.0
C104 C 0.20604 0.56136 0.31604 0.0
O105 O 0.19519 0.53961 0.31501 0.0
O106 O 0.19614 0.57978 0.32859 0.0
C107 C 0.17448 0.47973 0.30539 0.0
O108 O 0.19723 0.49018 0.30285 0.0
C109 C 0.19136 0.62313 0.37953 0.0
C110 C 0.16341 0.65495 0.37892 0.0
C111 C 0.18823 0.64873 0.38624 0.0
N112 N 0.16957 0.61486 0.3686 0.0
N113 N 0.15275 0.6338 0.36867 0.0
C114 C 0.21524 0.60724 0.38128 0.0
H115 H 0.23167 0.6177 0.37266 0.0
H116 H 0.21272 0.58844 0.37179 0.0
H117 H 0.21969 0.60333 0.40169 0.0
C118 C 0.15924 0.51547 0.38392 0.0
N119 N 0.16059 0.53223 0.36431 0.0
N120 N 0.16102 0.55572 0.37353 0.0
C121 C 0.15907 0.55474 0.39925 0.0
C122 C 0.1582 0.52919 0.4068 0.0
C123 C 0.16071 0.48699 0.38066 0.0
H124 H 0.1735 0.48219 0.36435 0.0
H125 H 0.16796 0.47754 0.39829 0.0
H126 H 0.14129 0.47949 0.37629 0.0
O127 O 0.13499 0.54793 0.31036 0.0
O128 O 0.13545 0.58678 0.32784 0.0
H129 H 0.14711 0.57297 0.43458 0.0
H130 H 0.17563 0.586 0.41995 0.0
C131 C 0.15637 0.57788 0.41606 0.0
H132 H 0.14466 0.59267 0.40627 0.0
H133 H 0.1345 0.63266 0.36056 0.0
O134 O 0.15704 0.49172 0.31753 0.0
C135 C 0.12626 0.5707 0.31198 0.0
Co136 Co 0.03997 0.64966 0.8314 0.0
Co137 Co 0.08946 0.66898 0.8592 0.0
C138 C 0.06049 0.70251 0.82257 0.0
O139 O 0.04382 0.68517 0.81832 0.0
O140 O 0.07889 0.69878 0.83819 0.0
C141 C 0.98767 0.64755 0.81327 0.0
O142 O 0.98561 0.67117 0.8218 0.0
C143 C 0.12355 0.70202 0.88935 0.0
C144 C 0.15334 0.67448 0.90167 0.0
C145 C 0.14647 0.70013 0.90273 0.0
N146 N 0.11717 0.67852 0.88091 0.0
N147 N 0.13488 0.6621 0.88859 0.0
C148 C 0.10941 0.72589 0.88199 0.0
H149 H 0.08853 0.72195 0.88103 0.0
H150 H 0.1129 0.74185 0.89551 0.0
H151 H 0.11605 0.73203 0.86274 0.0
C152 C 0.02332 0.64152 0.88535 0.0
N153 N 0.04072 0.64855 0.86758 0.0
N154 N 0.06176 0.65624 0.87921 0.0
C155 C 0.05843 0.65426 0.90476 0.0
C156 C 0.03404 0.64479 0.90946 0.0
C157 C 0.99697 0.63197 0.8793 0.0
H158 H -0.00198 0.61737 0.86386 0.0
H159 H 0.98517 0.64819 0.87221 0.0
H160 H 0.98761 0.62354 0.89647 0.0
O161 O 0.06754 0.62835 0.81679 0.0
O162 O 0.10305 0.64294 0.83515 0.0
H163 H 0.09517 0.65152 0.92267 0.0
H164 H 0.06992 0.66165 0.94412 0.0
C165 C 0.07747 0.66319 0.9243 0.0
H166 H 0.0825 0.68349 0.92047 0.0
H167 H 0.13473 0.64257 0.88423 0.0
O168 O 0.00834 0.63522 0.81687 0.0
C169 C 0.09175 0.62808 0.81948 0.0
Co170 Co 0.16221 0.46451 0.66668 0.0
Co171 Co 0.17161 0.40928 0.64487 0.0
C172 C 0.20923 0.43462 0.67979 0.0
O173 O 0.19525 0.45444 0.68175 0.0
O174 O 0.20255 0.41585 0.66576 0.0
C175 C 0.17227 0.51336 0.68897 0.0
O176 O 0.19585 0.50459 0.68986 0.0
C177 C 0.20048 0.37159 0.61626 0.0
C178 C 0.17477 0.33795 0.61634 0.0
C179 C 0.19917 0.34587 0.60904 0.0
N180 N 0.17823 0.37808 0.62747 0.0
N181 N 0.16282 0.35802 0.6273 0.0
C182 C 0.22184 0.39036 0.61233 0.0
H183 H 0.21439 0.41029 0.61287 0.0
H184 H 0.23153 0.38692 0.59369 0.0
H185 H 0.23598 0.38835 0.6281 0.0
C186 C 0.15976 0.47638 0.61091 0.0
N187 N 0.1624 0.45993 0.63064 0.0
N188 N 0.16495 0.43649 0.62161 0.0
C189 C 0.16314 0.43714 0.59586 0.0
C190 C 0.16014 0.46247 0.58812 0.0
C191 C 0.15844 0.50488 0.61398 0.0
H192 H 0.17027 0.51098 0.63057 0.0
H193 H 0.16524 0.51487 0.59646 0.0
H194 H 0.13828 0.51054 0.61778 0.0
O195 O 0.13519 0.4432 0.68295 0.0
O196 O 0.14249 0.4039 0.66828 0.0
H197 H 0.15233 0.39794 0.58922 0.0
H198 H 0.15233 0.41772 0.56084 0.0
C199 C 0.16237 0.41375 0.57918 0.0
H200 H 0.18223 0.40752 0.57483 0.0
H201 H 0.14451 0.3578 0.63537 0.0
O202 O 0.15506 0.50033 0.67762 0.0
C203 C 0.12989 0.41935 0.68236 0.0
Co204 Co 0.95867 0.3379 0.83544 0.0
Co205 Co 0.90668 0.32278 0.86168 0.0
C206 C 0.93484 0.28657 0.82692 0.0
O207 O 0.95298 0.3025 0.82352 0.0
O208 O 0.91575 0.29198 0.84118 0.0
C209 C 0.9909 0.34892 0.79668 0.0
O210 O 0.97002 0.34026 0.78555 0.0
C211 C 0.86823 0.29257 0.88965 0.0
C212 C 0.84115 0.32273 0.9021 0.0
C213 C 0.8451 0.29646 0.90224 0.0
N214 N 0.87752 0.31553 0.88252 0.0
N215 N 0.86142 0.33349 0.8903 0.0
C216 C 0.87983 0.2676 0.88151 0.0
H217 H 0.90103 0.26874 0.88278 0.0
H218 H 0.87297 0.25126 0.89317 0.0
H219 H 0.87449 0.26394 0.86127 0.0
C220 C 0.97358 0.34674 0.88955 0.0
N221 N 0.95655 0.33991 0.87141 0.0
N222 N 0.93467 0.33376 0.88242 0.0
C223 C 0.93709 0.33652 0.90799 0.0
C224 C 0.96173 0.34497 0.91331 0.0
C225 C 0.00043 0.35512 0.88397 0.0
H226 H 0.00022 0.36996 0.86871 0.0
H227 H 0.01152 0.3385 0.8766 0.0
H228 H 0.00999 0.36287 0.90133 0.0
O229 O 0.933 0.36065 0.81974 0.0
O230 O 0.89589 0.34993 0.83744 0.0
H231 H 0.9006 0.34333 0.92533 0.0
H232 H 0.92405 0.32991 0.947 0.0
C233 C 0.91673 0.32958 0.92703 0.0
H234 H 0.90938 0.31009 0.92277 0.0
H235 H 0.86385 0.35305 0.88675 0.0
O236 O 0.99178 0.34938 0.82106 0.0
C237 C 0.90888 0.36336 0.82176 0.0
Co238 Co 0.83061 0.53141 0.66776 0.0
Co239 Co 0.82445 0.58577 0.64381 0.0
C240 C 0.7826 0.56012 0.67469 0.0
O241 O 0.79499 0.53931 0.67712 0.0
O242 O 0.79223 0.57913 0.66284 0.0
C243 C 0.83335 0.49654 0.70543 0.0
O244 O 0.82409 0.51736 0.71621 0.0
C245 C 0.79574 0.62315 0.61512 0.0
C246 C 0.8217 0.65659 0.61446 0.0
C247 C 0.79696 0.64891 0.60828 0.0
N248 N 0.81837 0.61634 0.62528 0.0
N249 N 0.83396 0.63626 0.62457 0.0
C250 C 0.77396 0.60472 0.61179 0.0
H251 H 0.78122 0.58473 0.6109 0.0
H252 H 0.76302 0.60917 0.59408 0.0
H253 H 0.76091 0.60605 0.62852 0.0
C254 C 0.84121 0.51823 0.61309 0.0
N255 N 0.83584 0.53503 0.63195 0.0
N256 N 0.83354 0.55813 0.62199 0.0
C257 C 0.83777 0.55688 0.59654 0.0
C258 C 0.84269 0.53151 0.59 0.0
C259 C 0.84472 0.49007 0.61725 0.0
H260 H 0.85678 0.48681 0.63447 0.0
H261 H 0.82573 0.48118 0.62088 0.0
H262 H 0.85371 0.48076 0.60034 0.0
O263 O 0.85373 0.55445 0.68738 0.0
O264 O 0.85172 0.59269 0.66889 0.0
H265 H 0.847 0.59555 0.5862 0.0
H266 H 0.84127 0.57485 0.55896 0.0
C267 C 0.8353 0.57938 0.57883 0.0
H268 H 0.81504 0.58569 0.57832 0.0
H269 H 0.85251 0.63632 0.63208 0.0
O270 O 0.83784 0.49685 0.68143 0.0
C271 C 0.86069 0.57779 0.68597 0.0
Co272 Co 0.16665 0.0419 0.34405 0.0
Co273 Co 0.13841 0.09311 0.33049 0.0
C274 C 0.17101 0.06395 0.29208 0.0
O275 O 0.17527 0.0456 0.30761 0.0
O276 O 0.15754 0.08331 0.29867 0.0
C277 C 0.18642 0.98977 0.3448 0.0
O278 O 0.17747 0.98745 0.32137 0.0
C279 C 0.10743 0.12991 0.30099 0.0
C280 C 0.09596 0.15737 0.33121 0.0
C281 C 0.09416 0.15262 0.30513 0.0
N282 N 0.11649 0.12158 0.32364 0.0
N283 N 0.10933 0.13793 0.34165 0.0
C284 C 0.11408 0.11776 0.27584 0.0
H285 H 0.13384 0.12352 0.27054 0.0
H286 H 0.11358 0.09657 0.27771 0.0
H287 H 0.10104 0.12381 0.26024 0.0
C288 C 0.1133 0.02579 0.35594 0.0
N289 N 0.13079 0.04356 0.34915 0.0
N290 N 0.11891 0.06504 0.34328 0.0
C291 C 0.09346 0.06164 0.34615 0.0
C292 C 0.08905 0.03669 0.35438 0.0
C293 C 0.11975 -0.00128 0.36289 0.0
H294 H 0.12561 0.98823 0.34532 0.0
H295 H 0.10314 0.98879 0.37176 0.0
H296 H 0.13616 -0.00148 0.37641 0.0
O297 O 0.18502 0.0691 0.3626 0.0
O298 O 0.16382 0.10534 0.35601 0.0
H299 H 0.07501 0.09791 0.35106 0.0
H300 H 0.05397 0.0731 0.33918 0.0
C301 C 0.0737 0.08095 0.3383 0.0
H302 H 0.07758 0.08729 0.31838 0.0
H303 H 0.11422 0.13618 0.36098 0.0
O304 O 0.18226 0.01022 0.35734 0.0
C305 C 0.18222 0.09303 0.3662 0.0
Co306 Co 0.53356 0.32453 0.15776 0.0
Co307 Co 0.58733 0.34898 0.16677 0.0
C308 C 0.56173 0.31402 0.20557 0.0
O309 O 0.54134 0.31193 0.19239 0.0
O310 O 0.58063 0.32731 0.1976 0.0
C311 C 0.48109 0.30703 0.16311 0.0
O312 O 0.48273 0.31377 0.18733 0.0
C313 C 0.62525 0.37882 0.19525 0.0
C314 C 0.65565 0.38433 0.16621 0.0
C315 C 0.64952 0.38908 0.19163 0.0
N316 N 0.61742 0.36856 0.17295 0.0
N317 N 0.63552 0.37219 0.15558 0.0
C318 C 0.61069 0.37646 0.21991 0.0
H319 H 0.59074 0.37015 0.21631 0.0
H320 H 0.60996 0.39506 0.2301 0.0
H321 H 0.62049 0.36243 0.23256 0.0
C322 C 0.51935 0.37951 0.15128 0.0
N323 N 0.53649 0.36067 0.15562 0.0
N324 N 0.55927 0.37092 0.15917 0.0
C325 C 0.55743 0.3966 0.15692 0.0
C326 C 0.53207 0.40291 0.15184 0.0
C327 C 0.49144 0.375 0.14647 0.0
H328 H 0.48913 0.35989 0.13167 0.0
H329 H 0.48234 0.36797 0.16439 0.0
H330 H 0.48162 0.39277 0.14009 0.0
O331 O 0.55701 0.30698 0.1337 0.0
O332 O 0.59489 0.32585 0.13767 0.0
H333 H 0.59536 0.40972 0.14835 0.0
H334 H 0.57367 0.43501 0.15803 0.0
C335 C 0.57923 0.41476 0.16128 0.0
H336 H 0.58595 0.41284 0.18135 0.0
H337 H 0.63447 0.36563 0.13669 0.0
O338 O 0.49954 0.31179 0.14795 0.0
C339 C 0.58042 0.30921 0.12726 0.0
Co340 Co 0.83415 0.95682 0.34176 0.0
Co341 Co 0.86097 0.90454 0.32815 0.0
C342 C 0.82457 0.93174 0.29193 0.0
O343 O 0.82187 0.95122 0.3064 0.0
O344 O 0.83838 0.91269 0.29854 0.0
C345 C 0.81352 0.00892 0.34225 0.0
O346 O 0.81994 0.01055 0.31793 0.0
C347 C 0.8916 0.86676 0.29809 0.0
C348 C 0.90152 0.83908 0.32858 0.0
C349 C 0.9041 0.84356 0.30251 0.0
N350 N 0.88216 0.87544 0.32056 0.0
N351 N 0.88846 0.85889 0.33869 0.0
C352 C 0.88765 0.87979 0.2728 0.0
H353 H 0.87322 0.89518 0.27413 0.0
H354 H 0.90594 0.88871 0.26661 0.0
H355 H 0.88175 0.86564 0.25803 0.0
C356 C 0.88829 0.97269 0.34934 0.0
N357 N 0.87028 0.95516 0.34341 0.0
N358 N 0.88151 0.93323 0.33782 0.0
C359 C 0.90709 0.93611 0.34014 0.0
C360 C 0.91222 0.96115 0.34759 0.0
C361 C 0.88246 -0.00027 0.35697 0.0
H362 H 0.86728 -0.0002 0.37188 0.0
H363 H 0.87497 0.01026 0.34006 0.0
H364 H 0.89973 0.00969 0.36439 0.0
O365 O 0.81864 0.93086 0.36445 0.0
O366 O 0.8381 0.89393 0.35653 0.0
H367 H 0.92375 0.89931 0.34714 0.0
H368 H 0.94623 0.92278 0.33501 0.0
C369 C 0.92623 0.91568 0.33378 0.0
H370 H 0.92274 0.90868 0.31401 0.0
H371 H 0.88325 0.86082 0.35792 0.0
O372 O 0.81958 0.9891 0.35503 0.0
C373 C 0.82159 0.90705 0.3688 0.0
Co374 Co 0.46614 0.66312 0.1539 0.0
Co375 Co 0.41346 0.63926 0.16944 0.0
C376 C 0.44188 0.67489 0.20454 0.0
O377 O 0.46011 0.67768 0.18853 0.0
O378 O 0.42288 0.66033 0.19966 0.0
C379 C 0.51881 0.68033 0.15593 0.0
O380 O 0.5183 0.67405 0.18033 0.0
C381 C 0.37104 0.61655 0.19872 0.0
C382 C 0.34904 0.59701 0.16818 0.0
C383 C 0.34938 0.6018 0.1943 0.0
N384 N 0.38322 0.61997 0.17627 0.0
N385 N 0.36996 0.60828 0.15809 0.0
C386 C 0.37854 0.62981 0.22303 0.0
H387 H 0.37835 0.65081 0.21962 0.0
H388 H 0.39834 0.62412 0.22834 0.0
H389 H 0.36531 0.62567 0.23912 0.0
C390 C 0.47973 0.6079 0.14846 0.0
N391 N 0.46305 0.62694 0.15371 0.0
N392 N 0.44087 0.61691 0.16039 0.0
C393 C 0.44283 0.59114 0.15992 0.0
C394 C 0.46741 0.58456 0.1521 0.0
C395 C 0.50672 0.61217 0.13974 0.0
H396 H 0.50718 0.62755 0.12504 0.0
H397 H 0.51841 0.61864 0.15631 0.0
H398 H 0.51524 0.5944 0.13169 0.0
O399 O 0.44178 0.679 0.12981 0.0
O400 O 0.40421 0.66279 0.14109 0.0
H401 H 0.40754 0.57129 0.15377 0.0
H402 H 0.43015 0.55384 0.17323 0.0
C403 C 0.42233 0.57315 0.16893 0.0
H404 H 0.41316 0.58084 0.1865 0.0
H405 H 0.37508 0.60826 0.13873 0.0
O406 O 0.49963 0.6753 0.14183 0.0
C407 C 0.41763 0.67754 0.12705 0.0
Co408 Co 0.16726 0.94747 0.64834 0.0
Co409 Co 0.13911 0.89729 0.6659 0.0
C410 C 0.17456 0.92546 0.70102 0.0
O411 O 0.17923 0.94224 0.6839 0.0
O412 O 0.15905 0.90703 0.69683 0.0
C413 C 0.187 -0.00084 0.64964 0.0
O414 O 0.1787 -0.00033 0.67343 0.0
C415 C 0.10914 0.86018 0.6962 0.0
C416 C 0.09538 0.83385 0.66594 0.0
C417 C 0.09509 0.83791 0.69219 0.0
N418 N 0.11715 0.86895 0.67331 0.0
N419 N 0.10866 0.85326 0.6553 0.0
C420 C 0.1175 0.87142 0.72125 0.0
H421 H 0.13791 0.8664 0.72442 0.0
H422 H 0.11596 0.89263 0.72046 0.0
H423 H 0.10623 0.86405 0.73766 0.0
C424 C 0.11364 0.96454 0.64018 0.0
N425 N 0.13118 0.94674 0.64664 0.0
N426 N 0.11937 0.92555 0.65367 0.0
C427 C 0.09385 0.92923 0.65183 0.0
C428 C 0.08942 0.95397 0.64313 0.0
C429 C 0.12004 0.99119 0.63172 0.0
H430 H 0.13559 0.99054 0.6172 0.0
H431 H 0.12716 0.00226 0.64843 0.0
H432 H 0.10305 0.00106 0.62354 0.0
O433 O 0.18214 0.92079 0.62625 0.0
O434 O 0.16394 0.8848 0.63989 0.0
H435 H 0.07458 0.89334 0.64745 0.0
H436 H 0.05453 0.91849 0.6603 0.0
C437 C 0.07412 0.91021 0.66039 0.0
H438 H 0.07868 0.90362 0.68009 0.0
H439 H 0.11252 0.85546 0.63578 0.0
O440 O 0.18242 0.97969 0.63573 0.0
C441 C 0.17963 0.89657 0.62539 0.0
Co442 Co 0.46659 0.33488 0.83836 0.0
Co443 Co 0.41206 0.35796 0.82835 0.0
C444 C 0.43495 0.32029 0.79224 0.0
O445 O 0.45481 0.31859 0.80622 0.0
O446 O 0.4167 0.33535 0.79816 0.0
C447 C 0.5152 0.31409 0.82527 0.0
O448 O 0.50586 0.31524 0.80192 0.0
C449 C 0.37108 0.38484 0.80163 0.0
C450 C 0.34454 0.39481 0.83319 0.0
C451 C 0.34773 0.39644 0.80685 0.0
N452 N 0.3813 0.37694 0.82389 0.0
N453 N 0.3655 0.38312 0.84272 0.0
C454 C 0.38243 0.37868 0.77596 0.0
H455 H 0.40367 0.37887 0.77715 0.0
H456 H 0.37615 0.39216 0.76085 0.0
H457 H 0.37619 0.35916 0.77028 0.0
C458 C 0.47999 0.39023 0.84067 0.0
N459 N 0.46317 0.37095 0.83713 0.0
N460 N 0.44023 0.38062 0.833 0.0
C461 C 0.4417 0.4064 0.83385 0.0
C462 C 0.46688 0.41336 0.83885 0.0
C463 C 0.5077 0.38632 0.84692 0.0
H464 H 0.5095 0.37197 0.86254 0.0
H465 H 0.51764 0.37849 0.8298 0.0
H466 H 0.51706 0.4045 0.85282 0.0
O467 O 0.44601 0.32026 0.86674 0.0
O468 O 0.40717 0.33571 0.85869 0.0
H469 H 0.40483 0.42113 0.84417 0.0
H470 H 0.42543 0.44446 0.82884 0.0
C471 C 0.41954 0.42403 0.82907 0.0
H472 H 0.41082 0.41936 0.81027 0.0
H473 H 0.36873 0.37881 0.862 0.0
O474 O 0.50245 0.32358 0.84378 0.0
C475 C 0.4222 0.3218 0.87199 0.0
Co476 Co 0.83651 0.04036 0.64893 0.0
Co477 Co 0.86465 0.08942 0.66902 0.0
C478 C 0.82857 0.05998 0.70252 0.0
O479 O 0.82377 0.04413 0.68456 0.0
O480 O 0.84451 0.07825 0.69934 0.0
C481 C 0.81632 0.9889 0.64715 0.0
O482 O 0.82371 0.98716 0.67117 0.0
C483 C 0.89181 0.12727 0.70084 0.0
C484 C 0.91092 0.15099 0.67131 0.0
C485 C 0.90748 0.14852 0.69753 0.0
N486 N 0.88656 0.1174 0.67762 0.0
N487 N 0.89811 0.13161 0.66007 0.0
C488 C 0.87924 0.11835 0.72505 0.0
H489 H 0.85823 0.12095 0.72313 0.0
H490 H 0.88311 0.09759 0.7278 0.0
H491 H 0.8857 0.12913 0.74215 0.0
C492 C 0.89009 0.0233 0.64055 0.0
N493 N 0.87261 0.04092 0.64766 0.0
N494 N 0.88449 0.06165 0.65585 0.0
C495 C 0.91 0.05777 0.65429 0.0
C496 C 0.91435 0.03347 0.64437 0.0
C497 C 0.88358 0.99722 0.63056 0.0
H498 H 0.86838 -0.00118 0.61577 0.0
H499 H 0.87593 0.98538 0.64652 0.0
H500 H 0.90062 0.98756 0.62223 0.0
O501 O 0.82202 0.06796 0.62782 0.0
O502 O 0.83999 0.1032 0.64349 0.0
H503 H 0.93173 0.09231 0.65087 0.0
H504 H 0.94882 0.06656 0.66631 0.0
C505 C 0.92983 0.07595 0.66432 0.0
H506 H 0.92382 0.08343 0.68329 0.0
H507 H 0.89677 0.12837 0.64036 0.0
O508 O 0.82157 0.00896 0.6344 0.0
C509 C 0.82451 0.09217 0.62822 0.0
Co510 Co 0.53066 0.674 0.83807 0.0
Co511 Co 0.58319 0.64895 0.82355 0.0
C512 C 0.55409 0.68328 0.78702 0.0
O513 O 0.53556 0.6861 0.80267 0.0
O514 O 0.57353 0.66956 0.79272 0.0
C515 C 0.47766 0.6908 0.83723 0.0
O516 O 0.47706 0.683 0.81327 0.0
C517 C 0.62321 0.6226 0.79388 0.0
C518 C 0.64667 0.60524 0.82464 0.0
C519 C 0.6446 0.60741 0.79826 0.0
N520 N 0.61281 0.62869 0.81665 0.0
N521 N 0.62694 0.61832 0.83496 0.0
C522 C 0.61428 0.63366 0.76897 0.0
H523 H 0.5937 0.62906 0.76613 0.0
H524 H 0.62558 0.62683 0.75234 0.0
H525 H 0.61624 0.65481 0.76998 0.0
C526 C 0.51675 0.61918 0.84617 0.0
N527 N 0.53363 0.63786 0.84032 0.0
N528 N 0.55568 0.62737 0.83389 0.0
C529 C 0.55347 0.60165 0.83528 0.0
C530 C 0.52885 0.59561 0.84334 0.0
C531 C 0.48962 0.62393 0.85414 0.0
H532 H 0.48899 0.63964 0.86847 0.0
H533 H 0.4784 0.63012 0.83716 0.0
H534 H 0.48074 0.60642 0.86238 0.0
O535 O 0.55611 0.69175 0.8596 0.0
O536 O 0.59329 0.67297 0.85119 0.0
H537 H 0.58922 0.58252 0.84109 0.0
H538 H 0.56591 0.56351 0.82407 0.0
C539 C 0.57367 0.58315 0.82662 0.0
H540 H 0.58184 0.58959 0.80809 0.0
H541 H 0.62315 0.62026 0.85452 0.0
O542 O 0.49762 0.68702 0.85064 0.0
C543 C 0.5801 0.68961 0.86318 0.0
Co544 Co 0.3353 0.16627 0.03878 0.0
Co545 Co 0.32037 0.13713 0.08949 0.0
C546 C 0.28218 0.16834 0.05874 0.0
O547 O 0.29851 0.17363 0.0414 0.0
O548 O 0.28826 0.15479 0.07819 0.0
C549 C 0.34652 0.20679 0.00788 0.0
O550 O 0.33541 0.21738 0.02788 0.0
C551 C 0.29069 0.10882 0.12838 0.0
C552 C 0.32145 0.09114 0.15155 0.0
C553 C 0.29507 0.09349 0.14968 0.0
N554 N 0.31343 0.11489 0.11786 0.0
N555 N 0.33173 0.1042 0.13178 0.0
C556 C 0.26589 0.12067 0.12024 0.0
H557 H 0.26237 0.11631 0.09971 0.0
H558 H 0.24937 0.11412 0.13185 0.0
H559 H 0.26752 0.14176 0.12242 0.0
C560 C 0.35001 0.11364 0.02316 0.0
N561 N 0.34146 0.13063 0.04063 0.0
N562 N 0.33505 0.11835 0.06177 0.0
C563 C 0.33926 0.09308 0.05833 0.0
C564 C 0.34912 0.08931 0.03391 0.0
C565 C 0.35802 0.12066 0.99653 0.0
H566 H 0.37184 0.13682 0.9973 0.0
H567 H 0.34098 0.1273 0.98565 0.0
H568 H 0.3669 0.10416 0.98642 0.0
O569 O 0.35278 0.1846 0.06673 0.0
O570 O 0.34445 0.16344 0.10265 0.0
H571 H 0.34527 0.07179 0.09281 0.0
H572 H 0.33036 0.05349 0.06762 0.0
C573 C 0.33124 0.07264 0.07687 0.0
H574 H 0.31209 0.07721 0.08486 0.0
H575 H 0.35129 0.10636 0.12812 0.0
O576 O 0.34834 0.18246 0.007 0.0
C577 C 0.35515 0.18187 0.09081 0.0
Co578 Co 0.33063 0.83378 0.96267 0.0
Co579 Co 0.31778 0.86129 0.91058 0.0
C580 C 0.27834 0.83107 0.94028 0.0
O581 O 0.29404 0.82642 0.95833 0.0
O582 O 0.28505 0.8441 0.92069 0.0
C583 C 0.33766 0.79427 0.99554 0.0
O584 O 0.32633 0.78392 0.97554 0.0
C585 C 0.29036 0.88878 0.86955 0.0
C586 C 0.32253 0.90368 0.84629 0.0
C587 C 0.29603 0.90247 0.84743 0.0
N588 N 0.31252 0.88248 0.88112 0.0
N589 N 0.33165 0.89159 0.86719 0.0
C590 C 0.26482 0.8786 0.87773 0.0
H591 H 0.26503 0.85744 0.87561 0.0
H592 H 0.26157 0.8832 0.89826 0.0
H593 H 0.2488 0.88625 0.86612 0.0
C594 C 0.34533 0.88682 0.97703 0.0
N595 N 0.33696 0.86933 0.95999 0.0
N596 N 0.33132 0.88092 0.93826 0.0
C597 C 0.33586 0.90623 0.94086 0.0
C598 C 0.34511 0.91075 0.96538 0.0
C599 C 0.35291 0.8806 0.00398 0.0
H600 H 0.36577 0.86365 0.00403 0.0
H601 H 0.33549 0.87552 0.01511 0.0
H602 H 0.36268 0.89703 0.01333 0.0
O603 O 0.34964 0.81449 0.93636 0.0
O604 O 0.34233 0.83445 0.89955 0.0
H605 H 0.34363 0.92575 0.90569 0.0
H606 H 0.32838 0.94557 0.92955 0.0
C607 C 0.32905 0.92602 0.92118 0.0
H608 H 0.31008 0.92157 0.91273 0.0
H609 H 0.35098 0.88887 0.87158 0.0
O610 O 0.34149 0.81838 0.9956 0.0
C611 C 0.35284 0.81652 0.9123 0.0
Co612 Co 0.33281 0.15871 0.53941 0.0
Co613 Co 0.35755 0.16497 0.59362 0.0
C614 C 0.32363 0.20544 0.56889 0.0
O615 O 0.32188 0.19386 0.5475 0.0
O616 O 0.3359 0.19578 0.58765 0.0
C617 C 0.31269 0.16465 0.48783 0.0
O618 O 0.3182 0.18914 0.48993 0.0
C619 C 0.38432 0.19339 0.63384 0.0
C620 C 0.39675 0.16248 0.66008 0.0
C621 C 0.39689 0.18886 0.65686 0.0
N622 N 0.37734 0.17069 0.62383 0.0
N623 N 0.38497 0.15228 0.63949 0.0
C624 C 0.37644 0.21868 0.62271 0.0
H625 H 0.35565 0.22155 0.62623 0.0
H626 H 0.37961 0.21852 0.60166 0.0
H627 H 0.38679 0.23506 0.63132 0.0
C628 C 0.38746 0.15147 0.52478 0.0
N629 N 0.3688 0.15526 0.54225 0.0
N630 N 0.37924 0.15815 0.56505 0.0
C631 C 0.40491 0.15632 0.56283 0.0
C632 C 0.41101 0.15192 0.53725 0.0
C633 C 0.38261 0.14754 0.49678 0.0
H634 H 0.36669 0.13367 0.49417 0.0
H635 H 0.3766 0.16602 0.48811 0.0
H636 H 0.39995 0.14036 0.48675 0.0
O637 O 0.31451 0.13516 0.56285 0.0
O638 O 0.33415 0.13599 0.60053 0.0
H639 H 0.4208 0.1458 0.59912 0.0
H640 H 0.44344 0.16139 0.57795 0.0
C641 C 0.42321 0.16102 0.58445 0.0
H642 H 0.41873 0.17972 0.59352 0.0
H643 H 0.38158 0.13279 0.63641 0.0
O644 O 0.31929 0.14923 0.50549 0.0
C645 C 0.31672 0.12733 0.58585 0.0
Co646 Co 0.65097 0.16303 0.94713 0.0
Co647 Co 0.66773 0.13634 0.89586 0.0
C648 C 0.70355 0.17009 0.92578 0.0
O649 O 0.6866 0.17456 0.94277 0.0
O650 O 0.69892 0.1554 0.90679 0.0
C651 C 0.65161 0.18441 0.99818 0.0
O652 O 0.6762 0.17894 0.998 0.0
C653 C 0.69865 0.10557 0.86005 0.0
C654 C 0.67113 0.09963 0.82837 0.0
C655 C 0.69629 0.09518 0.83563 0.0
N656 N 0.6759 0.11567 0.8668 0.0
N657 N 0.65946 0.11172 0.84794 0.0
C658 C 0.72266 0.10894 0.87538 0.0
H659 H 0.7323 0.12688 0.86922 0.0
H660 H 0.71798 0.11045 0.89609 0.0
H661 H 0.73617 0.09285 0.87241 0.0
C662 C 0.64296 0.10882 0.96255 0.0
N663 N 0.64885 0.12694 0.94513 0.0
N664 N 0.65442 0.11588 0.92313 0.0
C665 C 0.65137 0.09034 0.92559 0.0
C666 C 0.64425 0.08489 0.95076 0.0
C667 C 0.63879 0.11439 0.99041 0.0
H668 H 0.65087 0.13077 0.99641 0.0
H669 H 0.64356 0.09758 0.00255 0.0
H670 H 0.6184 0.11964 0.9935 0.0
O671 O 0.62962 0.17932 0.9205 0.0
O672 O 0.64271 0.16208 0.88384 0.0
H673 H 0.64532 0.05301 0.90828 0.0
H674 H 0.675 0.06893 0.89979 0.0
C675 C 0.65431 0.07177 0.90387 0.0
H676 H 0.64511 0.07967 0.88644 0.0
H677 H 0.64053 0.1182 0.84803 0.0
O678 O 0.63761 0.17753 0.97948 0.0
C679 C 0.62872 0.17775 0.8962 0.0
Co680 Co 0.66481 0.83309 0.53682 0.0
Co681 Co 0.63922 0.83283 0.59106 0.0
C682 C 0.67144 0.78886 0.57034 0.0
O683 O 0.67344 0.79842 0.54805 0.0
O684 O 0.65994 0.80069 0.58836 0.0
C685 C 0.70407 0.83449 0.50327 0.0
O686 O 0.71424 0.8267 0.52497 0.0
C687 C 0.60564 0.80886 0.62891 0.0
C688 C 0.60491 0.83778 0.65986 0.0
C689 C 0.59658 0.8133 0.65358 0.0
N690 N 0.61872 0.82967 0.62113 0.0
N691 N 0.61787 0.84706 0.63954 0.0
C692 C 0.60391 0.78452 0.61376 0.0
H693 H 0.61521 0.7858 0.59584 0.0
H694 H 0.58368 0.78095 0.60833 0.0
H695 H 0.6106 0.76809 0.62554 0.0
C696 C 0.61052 0.83963 0.52075 0.0
N697 N 0.629 0.83791 0.53869 0.0
N698 N 0.61841 0.83845 0.56161 0.0
C699 C 0.5929 0.84134 0.55901 0.0
C700 C 0.58694 0.84179 0.53304 0.0
C701 C 0.61532 0.83688 0.49258 0.0
H702 H 0.63278 0.82523 0.48916 0.0
H703 H 0.59869 0.82782 0.48288 0.0
H704 H 0.61837 0.85619 0.48417 0.0
O705 O 0.68353 0.85796 0.55881 0.0
O706 O 0.66351 0.86117 0.59618 0.0
H707 H 0.55676 0.85421 0.57476 0.0
H708 H 0.56985 0.82555 0.58901 0.0
C709 C 0.57471 0.84463 0.58099 0.0
H710 H 0.58378 0.8563 0.59627 0.0
H711 H 0.62708 0.86481 0.63867 0.0
O712 O 0.67996 0.83817 0.50238 0.0
C713 C 0.68142 0.86781 0.58104 0.0
Co714 Co 0.6597 0.83578 0.03785 0.0
Co715 Co 0.66967 0.8609 0.09126 0.0
C716 C 0.7109 0.83324 0.06024 0.0
O717 O 0.69634 0.82913 0.04113 0.0
O718 O 0.70266 0.84467 0.08026 0.0
C719 C 0.66028 0.8147 0.98624 0.0
O720 O 0.68489 0.82003 0.98578 0.0
C721 C 0.69836 0.89329 0.12655 0.0
C722 C 0.67441 0.89153 0.16141 0.0
C723 C 0.69778 0.90058 0.15232 0.0
N724 N 0.67678 0.88027 0.12125 0.0
N725 N 0.66237 0.87957 0.14203 0.0
C726 C 0.71836 0.89872 0.10668 0.0
H727 H 0.70983 0.89775 0.0872 0.0
H728 H 0.72688 0.91799 0.1097 0.0
H729 H 0.73365 0.88396 0.10783 0.0
C730 C 0.6465 0.88965 0.02506 0.0
N731 N 0.65277 0.87119 0.04195 0.0
N732 N 0.65565 0.88149 0.06479 0.0
C733 C 0.65022 0.90669 0.06345 0.0
C734 C 0.64453 0.91292 0.03809 0.0
C735 C 0.64568 0.8854 0.99666 0.0
H736 H 0.65847 0.86931 0.99128 0.0
H737 H 0.65171 0.90284 0.98606 0.0
H738 H 0.62581 0.88039 0.99095 0.0
O739 O 0.64189 0.81443 0.06369 0.0
O740 O 0.64578 0.83354 0.10143 0.0
H741 H 0.63793 0.94135 0.08265 0.0
H742 H 0.66983 0.93034 0.09059 0.0
C743 C 0.64995 0.92416 0.08624 0.0
H744 H 0.64234 0.91383 0.1032 0.0
H745 H 0.64481 0.87005 0.14326 0.0
O746 O 0.64675 0.82159 0.0053 0.0
C747 C 0.63732 0.81536 0.08761 0.0
Co748 Co 0.33116 0.82927 0.45729 0.0
Co749 Co 0.35466 0.82357 0.40189 0.0
C750 C 0.31973 0.78381 0.42469 0.0
O751 O 0.31799 0.79625 0.44553 0.0
O752 O 0.33329 0.79205 0.40612 0.0
C753 C 0.30604 0.81792 0.50461 0.0
O754 O 0.30336 0.79521 0.49411 0.0
C755 C 0.38651 0.79897 0.36266 0.0
C756 C 0.38683 0.82819 0.33199 0.0
C757 C 0.39521 0.80366 0.33792 0.0
N758 N 0.37369 0.81977 0.37091 0.0
N759 N 0.37422 0.83729 0.3526 0.0
C760 C 0.38848 0.77444 0.37748 0.0
H761 H 0.38202 0.75811 0.36543 0.0
H762 H 0.37704 0.77533 0.39535 0.0
H763 H 0.40874 0.771 0.38289 0.0
C764 C 0.38624 0.83349 0.47063 0.0
N765 N 0.36715 0.83073 0.45349 0.0
N766 N 0.37695 0.82916 0.43027 0.0
C767 C 0.40262 0.83164 0.43183 0.0
C768 C 0.40942 0.83419 0.45747 0.0
C769 C 0.38221 0.83395 0.49905 0.0
H770 H 0.36632 0.82085 0.50435 0.0
H771 H 0.39983 0.82819 0.50947 0.0
H772 H 0.37678 0.85367 0.50497 0.0
O773 O 0.31387 0.85582 0.43642 0.0
O774 O 0.33096 0.85285 0.3975 0.0
H775 H 0.41074 0.84464 0.39362 0.0
H776 H 0.43844 0.84297 0.41416 0.0
C777 C 0.42009 0.83349 0.4091 0.0
H778 H 0.42427 0.81394 0.40186 0.0
H779 H 0.36525 0.85514 0.35387 0.0
O780 O 0.31922 0.83496 0.49313 0.0
C781 C 0.3153 0.86314 0.41316 0.0
Co782 Co 0.66914 0.16132 0.46558 0.0
Co783 Co 0.64423 0.17063 0.41132 0.0
C784 C 0.67908 0.20927 0.43557 0.0
O785 O 0.6816 0.19539 0.45542 0.0
O786 O 0.66506 0.20215 0.41689 0.0
C787 C 0.69336 0.17157 0.51365 0.0
O788 O 0.69393 0.19516 0.50488 0.0
C789 C 0.61627 0.19704 0.37031 0.0
C790 C 0.60494 0.16492 0.34507 0.0
C791 C 0.60382 0.19136 0.34748 0.0
N792 N 0.62418 0.17494 0.38097 0.0
N793 N 0.61716 0.15579 0.36591 0.0
C794 C 0.62332 0.22292 0.38053 0.0
H795 H 0.62211 0.22288 0.40178 0.0
H796 H 0.6111 0.23842 0.37281 0.0
H797 H 0.6434 0.22706 0.37493 0.0
C798 C 0.61442 0.15458 0.47978 0.0
N799 N 0.63308 0.1592 0.46251 0.0
N800 N 0.62264 0.16349 0.43993 0.0
C801 C 0.59694 0.16186 0.44215 0.0
C802 C 0.59086 0.15602 0.46743 0.0
C803 C 0.61933 0.14845 0.50737 0.0
H804 H 0.63532 0.1345 0.50886 0.0
H805 H 0.62524 0.16622 0.51749 0.0
H806 H 0.60203 0.14043 0.51682 0.0
O807 O 0.68659 0.13645 0.44296 0.0
O808 O 0.66846 0.14193 0.4048 0.0
H809 H 0.58011 0.15263 0.40593 0.0
H810 H 0.55849 0.16885 0.42767 0.0
C811 C 0.57859 0.16772 0.42085 0.0
H812 H 0.58374 0.18635 0.41203 0.0
H813 H 0.62127 0.13655 0.36956 0.0
O814 O 0.68178 0.1543 0.50089 0.0
C815 C 0.68467 0.13081 0.41929 0.0
C816 C 0.14714 0.44162 0.2962 0.0
C817 C 0.16732 0.45783 0.2891 0.0
C818 C 0.13735 0.42354 0.27887 0.0
C819 C 0.14743 0.42243 0.25365 0.0
C820 C 0.16861 0.43794 0.24682 0.0
C821 C 0.17859 0.4552 0.26483 0.0
C822 C 0.11534 0.40663 0.2871 0.0
C823 C 0.17943 0.43783 0.21994 0.0
C824 C 0.12843 0.36778 0.20946 0.0
C825 C 0.10679 0.37817 0.19742 0.0
C826 C 0.14193 0.38192 0.22795 0.0
C827 C 0.13401 0.40725 0.23371 0.0
C828 C 0.11278 0.41813 0.22071 0.0
C829 C 0.0991 0.40323 0.20306 0.0
C830 C 0.16395 0.36946 0.24201 0.0
C831 C 0.10428 0.44538 0.22571 0.0
H832 H 0.13856 0.44359 0.31505 0.0
H833 H 0.19406 0.46792 0.25922 0.0
H834 H 0.09743 0.41317 0.27766 0.0
H835 H 0.11876 0.3865 0.28108 0.0
H836 H 0.11236 0.40709 0.3082 0.0
H837 H 0.19745 0.44911 0.21846 0.0
H838 H 0.18329 0.41796 0.21344 0.0
H839 H 0.16514 0.44621 0.20657 0.0
H840 H 0.13406 0.3482 0.20527 0.0
H841 H 0.08234 0.41115 0.19364 0.0
H842 H 0.15923 0.36801 0.26273 0.0
H843 H 0.18148 0.38137 0.24038 0.0
H844 H 0.16824 0.34993 0.23462 0.0
H845 H 0.09729 0.44721 0.24573 0.0
H846 H 0.08869 0.45152 0.21255 0.0
H847 H 0.12071 0.45872 0.22346 0.0
C848 C 0.94213 0.34857 0.20663 0.0
C849 C 0.96767 0.35686 0.20647 0.0
C850 C 0.9243 0.35923 0.22382 0.0
C851 C 0.93246 0.3781 0.24159 0.0
C852 C 0.95826 0.38642 0.24155 0.0
C853 C 0.97547 0.37592 0.2238 0.0
C854 C 0.89676 0.35035 0.22296 0.0
C855 C 0.96782 0.40613 0.26053 0.0
C856 C 0.88456 0.42332 0.27241 0.0
C857 C 0.88036 0.41153 0.29623 0.0
C858 C 0.90105 0.41233 0.25423 0.0
C859 C 0.91408 0.38931 0.26025 0.0
C860 C 0.91021 0.37748 0.2844 0.0
C861 C 0.89314 0.38859 0.30202 0.0
C862 C 0.90437 0.42526 0.22851 0.0
C863 C 0.92426 0.35324 0.29171 0.0
H864 H 0.93605 0.3339 0.19322 0.0
H865 H 0.99528 0.38221 0.22397 0.0
H866 H 0.89138 0.34156 0.24157 0.0
H867 H 0.88387 0.367 0.2199 0.0
H868 H 0.89335 0.33611 0.20747 0.0
H869 H 0.98862 0.41012 0.25828 0.0
H870 H 0.95714 0.42437 0.25811 0.0
H871 H 0.9643 0.39935 0.2804 0.0
H872 H 0.87447 0.44088 0.2677 0.0
H873 H 0.88996 0.37944 0.32042 0.0
H874 H 0.89965 0.41163 0.21287 0.0
H875 H 0.92465 0.4311 0.22588 0.0
H876 H 0.89204 0.44253 0.22648 0.0
H877 H 0.91974 0.33773 0.27788 0.0
H878 H 0.91922 0.34655 0.31131 0.0
H879 H 0.94527 0.35653 0.29083 0.0
C880 C 0.84696 0.55238 0.2927 0.0
C881 C 0.82658 0.53601 0.28662 0.0
C882 C 0.85645 0.56981 0.27451 0.0
C883 C 0.84588 0.57009 0.24948 0.0
C884 C 0.82474 0.55417 0.24356 0.0
C885 C 0.81507 0.5376 0.26237 0.0
C886 C 0.87846 0.58715 0.28177 0.0
C887 C 0.81345 0.55333 0.21689 0.0
C888 C 0.86249 0.6246 0.20411 0.0
C889 C 0.88416 0.61467 0.19173 0.0
C890 C 0.84972 0.61032 0.22303 0.0
C891 C 0.85841 0.58527 0.22892 0.0
C892 C 0.87958 0.57476 0.21551 0.0
C893 C 0.89252 0.58982 0.19741 0.0
C894 C 0.82772 0.62241 0.23748 0.0
C895 C 0.88887 0.5478 0.22062 0.0
H896 H 0.85577 0.55119 0.31149 0.0
H897 H 0.79948 0.52472 0.25753 0.0
H898 H 0.89614 0.58081 0.27177 0.0
H899 H 0.87449 0.60714 0.27563 0.0
H900 H 0.88217 0.58702 0.30275 0.0
H901 H 0.79587 0.54134 0.21596 0.0
H902 H 0.80871 0.57293 0.21015 0.0
H903 H 0.82782 0.5453 0.20337 0.0
H904 H 0.85634 0.64403 0.19994 0.0
H905 H 0.90932 0.58223 0.18776 0.0
H906 H 0.83288 0.62426 0.25805 0.0
H907 H 0.81047 0.61004 0.23643 0.0
H908 H 0.82276 0.64172 0.22995 0.0
H909 H 0.89652 0.54645 0.24042 0.0
H910 H 0.90419 0.54183 0.20705 0.0
H911 H 0.8727 0.53404 0.2191 0.0
C912 C 0.09154 0.60092 0.29889 0.0
C913 C 0.10682 0.57951 0.29339 0.0
C914 C 0.07468 0.61092 0.2805 0.0
C915 C 0.07356 0.59956 0.25585 0.0
C916 C 0.08875 0.57778 0.25026 0.0
C917 C 0.10501 0.56782 0.26922 0.0
C918 C 0.05825 0.63378 0.28736 0.0
C919 C 0.08836 0.56544 0.22405 0.0
C920 C 0.01453 0.61259 0.21567 0.0
C921 C 0.02256 0.63341 0.2006 0.0
C922 C 0.03103 0.60121 0.23352 0.0
C923 C 0.05637 0.61051 0.23598 0.0
C924 C 0.06494 0.63088 0.22015 0.0
C925 C 0.0478 0.64232 0.20281 0.0
C926 C 0.02105 0.57986 0.25039 0.0
C927 C 0.09205 0.64089 0.22188 0.0
H928 H 0.09285 0.60995 0.31758 0.0
H929 H 0.11704 0.55144 0.26478 0.0
H930 H 0.06328 0.65029 0.27491 0.0
H931 H 0.03774 0.62929 0.28393 0.0
H932 H 0.06063 0.63965 0.3077 0.0
H933 H 0.10125 0.54851 0.22286 0.0
H934 H 0.06861 0.55927 0.21915 0.0
H935 H 0.09437 0.57961 0.20934 0.0
H936 H 0.99497 0.60571 0.2142 0.0
H937 H 0.0541 0.65831 0.19111 0.0
H938 H 0.0217 0.58593 0.27078 0.0
H939 H 0.03339 0.56263 0.24855 0.0
H940 H 0.00103 0.57441 0.24559 0.0
H941 H 0.09529 0.64958 0.24103 0.0
H942 H 0.09621 0.65556 0.20699 0.0
H943 H 0.10591 0.62487 0.21976 0.0
C944 C 0.14329 0.54959 0.70072 0.0
C945 C 0.16453 0.5342 0.70639 0.0
C946 C 0.1336 0.56687 0.71896 0.0
C947 C 0.14486 0.56792 0.74367 0.0
C948 C 0.16682 0.55298 0.74915 0.0
C949 C 0.17667 0.5366 0.73025 0.0
C950 C 0.1107 0.5832 0.71212 0.0
C951 C 0.17889 0.55296 0.77549 0.0
C952 C 0.12782 0.62241 0.7889 0.0
C953 C 0.10696 0.6119 0.80216 0.0
C954 C 0.14038 0.60836 0.76967 0.0
C955 C 0.13238 0.58296 0.76438 0.0
C956 C 0.11201 0.57193 0.7786 0.0
C957 C 0.09917 0.58677 0.79698 0.0
C958 C 0.16142 0.62103 0.75432 0.0
C959 C 0.10352 0.54459 0.77414 0.0
H960 H 0.13398 0.54774 0.68222 0.0
H961 H 0.19291 0.52444 0.73478 0.0
H962 H 0.09358 0.57631 0.72271 0.0
H963 H 0.11403 0.60343 0.71788 0.0
H964 H 0.1064 0.58263 0.69126 0.0
H965 H 0.19691 0.54161 0.77609 0.0
H966 H 0.18313 0.57282 0.7818 0.0
H967 H 0.1652 0.54467 0.78954 0.0
H968 H 0.13348 0.64206 0.79269 0.0
H969 H 0.08298 0.57876 0.8073 0.0
H970 H 0.15561 0.62221 0.73388 0.0
H971 H 0.1792 0.6094 0.75512 0.0
H972 H 0.16579 0.64069 0.7613 0.0
H973 H 0.09535 0.54267 0.7546 0.0
H974 H 0.08884 0.5383 0.78825 0.0
H975 H 0.12021 0.53143 0.77536 0.0
C976 C 0.00845 0.36193 0.75425 0.0
C977 C 0.01204 0.35908 0.78076 0.0
C978 C 0.0278 0.37203 0.73862 0.0
C979 C 0.05144 0.37925 0.74972 0.0
C980 C 0.05532 0.37631 0.77645 0.0
C981 C 0.03547 0.36635 0.79173 0.0
C982 C 0.02287 0.37506 0.71021 0.0
C983 C 0.08043 0.38361 0.78886 0.0
C984 C 0.10784 0.3827 0.70399 0.0
C985 C 0.10961 0.40917 0.6994 0.0
C986 C 0.0894 0.37277 0.72084 0.0
C987 C 0.07209 0.38968 0.73314 0.0
C988 C 0.07371 0.41639 0.72858 0.0
C989 C 0.09256 0.42584 0.71186 0.0
C990 C 0.08835 0.34418 0.7254 0.0
C991 C 0.0553 0.43495 0.74108 0.0
H992 H 0.99035 0.35649 0.74561 0.0
H993 H 0.03834 0.36417 0.81221 0.0
H994 H 0.02542 0.39541 0.70453 0.0
H995 H 0.03694 0.36359 0.69912 0.0
H996 H 0.00325 0.36888 0.70468 0.0
H997 H 0.08043 0.37998 0.80986 0.0
H998 H 0.09634 0.37257 0.78002 0.0
H999 H 0.08445 0.40423 0.78551 0.0
H1000 H 0.1211 0.36969 0.69463 0.0
H1001 H 0.0938 0.44631 0.70841 0.0
H1002 H 0.06967 0.33648 0.71876 0.0
H1003 H 0.08983 0.34005 0.74623 0.0
H1004 H 0.10395 0.33378 0.71525 0.0
H1005 H 0.03539 0.43047 0.73508 0.0
H1006 H 0.05953 0.45521 0.73601 0.0
H1007 H 0.05611 0.43292 0.76225 0.0
C1008 C 0.86968 0.3793 0.79918 0.0
C1009 C 0.89586 0.38183 0.80473 0.0
C1010 C 0.85756 0.39609 0.78198 0.0
C1011 C 0.87191 0.41611 0.77055 0.0
C1012 C 0.8983 0.41883 0.77624 0.0
C1013 C 0.90999 0.40152 0.79309 0.0
C1014 C 0.82947 0.39244 0.77602 0.0
C1015 C 0.91412 0.44026 0.76481 0.0
C1016 C 0.85044 0.4519 0.71095 0.0
C1017 C 0.84075 0.47456 0.7217 0.0
C1018 C 0.85955 0.43203 0.72669 0.0
C1019 C 0.85923 0.43516 0.75368 0.0
C1020 C 0.84863 0.4576 0.76459 0.0
C1021 C 0.83937 0.47694 0.74847 0.0
C1022 C 0.87036 0.40811 0.71445 0.0
C1023 C 0.84822 0.46179 0.79328 0.0
H1024 H 0.85876 0.36391 0.80792 0.0
H1025 H 0.93023 0.40359 0.79736 0.0
H1026 H 0.81845 0.40951 0.78233 0.0
H1027 H 0.82669 0.39055 0.75501 0.0
H1028 H 0.82136 0.3752 0.78558 0.0
H1029 H 0.93448 0.43951 0.77103 0.0
H1030 H 0.9135 0.43928 0.74357 0.0
H1031 H 0.90598 0.45908 0.77054 0.0
H1032 H 0.85138 0.4499 0.69027 0.0
H1033 H 0.83185 0.49436 0.75697 0.0
H1034 H 0.86193 0.39076 0.72343 0.0
H1035 H 0.89137 0.40733 0.71766 0.0
H1036 H 0.86671 0.40746 0.69347 0.0
H1037 H 0.83895 0.44533 0.80305 0.0
H1038 H 0.83789 0.47962 0.79873 0.0
H1039 H 0.86817 0.46307 0.80057 0.0
C1040 C 0.97395 0.61621 0.77999 0.0
C1041 C 0.96765 0.63637 0.79668 0.0
C1042 C 0.95605 0.60665 0.76244 0.0
C1043 C 0.93103 0.6171 0.76195 0.0
C1044 C 0.92424 0.63687 0.77931 0.0
C1045 C 0.94277 0.64651 0.79631 0.0
C1046 C 0.96415 0.58586 0.74392 0.0
C1047 C 0.89752 0.64801 0.7797 0.0
C1048 C 0.8933 0.60989 0.70017 0.0
C1049 C 0.87865 0.58797 0.70533 0.0
C1050 C 0.91034 0.6197 0.71853 0.0
C1051 C 0.91225 0.60762 0.74278 0.0
C1052 C 0.89711 0.58578 0.74828 0.0
C1053 C 0.88069 0.57604 0.72936 0.0
C1054 C 0.92664 0.64268 0.71179 0.0
C1055 C 0.89829 0.57268 0.77409 0.0
H1056 H 0.99322 0.60841 0.78002 0.0
H1057 H 0.93781 0.66201 0.80926 0.0
H1058 H 0.95158 0.56884 0.74606 0.0
H1059 H 0.96204 0.59281 0.72391 0.0
H1060 H 0.98435 0.57977 0.74688 0.0
H1061 H 0.89492 0.66223 0.79536 0.0
H1062 H 0.89343 0.65756 0.76113 0.0
H1063 H 0.88318 0.63247 0.78212 0.0
H1064 H 0.89179 0.61912 0.6816 0.0
H1065 H 0.86914 0.55926 0.73355 0.0
H1066 H 0.94724 0.63749 0.71308 0.0
H1067 H 0.9232 0.65841 0.72569 0.0
H1068 H 0.92269 0.64995 0.69216 0.0
H1069 H 0.91778 0.56479 0.77731 0.0
H1070 H 0.88421 0.55678 0.77576 0.0
H1071 H 0.89454 0.58678 0.7896 0.0
C1072 C 0.1951 0.12742 0.39712 0.0
C1073 C 0.20173 0.10665 0.38144 0.0
C1074 C 0.21351 0.13901 0.41303 0.0
C1075 C 0.23917 0.13002 0.41253 0.0
C1076 C 0.24615 0.11002 0.39558 0.0
C1077 C 0.22726 0.09833 0.38053 0.0
C1078 C 0.20524 0.1599 0.43129 0.0
C1079 C 0.2734 0.1003 0.39402 0.0
C1080 C 0.29168 0.16913 0.44479 0.0
C1081 C 0.29485 0.1556 0.4678 0.0
C1082 C 0.27367 0.16103 0.42643 0.0
C1083 C 0.25808 0.13939 0.43164 0.0
C1084 C 0.26107 0.12588 0.45498 0.0
C1085 C 0.27962 0.13394 0.47258 0.0
C1086 C 0.27145 0.17543 0.40141 0.0
C1087 C 0.24453 0.10298 0.4615 0.0
H1088 H 0.17534 0.13385 0.39777 0.0
H1089 H 0.23249 0.08254 0.36803 0.0
H1090 H 0.20679 0.15282 0.45131 0.0
H1091 H 0.21803 0.1768 0.42955 0.0
H1092 H 0.18516 0.16613 0.42785 0.0
H1093 H 0.27626 0.08693 0.37767 0.0
H1094 H 0.28697 0.11656 0.392 0.0
H1095 H 0.27836 0.09005 0.412 0.0
H1096 H 0.30341 0.18589 0.44108 0.0
H1097 H 0.2817 0.1236 0.49051 0.0
H1098 H 0.25166 0.18286 0.39901 0.0
H1099 H 0.27524 0.16224 0.38514 0.0
H1100 H 0.28506 0.19178 0.40026 0.0
H1101 H 0.22395 0.10823 0.46016 0.0
H1102 H 0.24835 0.09549 0.48108 0.0
H1103 H 0.24801 0.08732 0.44751 0.0
C1104 C 0.61225 0.29761 0.09325 0.0
C1105 C 0.59121 0.29091 0.10856 0.0
C1106 C 0.62253 0.2801 0.07553 0.0
C1107 C 0.61194 0.25513 0.07372 0.0
C1108 C 0.59106 0.24813 0.08957 0.0
C1109 C 0.58072 0.26623 0.10654 0.0
C1110 C 0.64437 0.28844 0.05845 0.0
C1111 C 0.57965 0.22151 0.08863 0.0
C1112 C 0.61985 0.21711 0.01228 0.0
C1113 C 0.64089 0.20141 0.01811 0.0
C1114 C 0.61051 0.23494 0.0301 0.0
C1115 C 0.62204 0.23658 0.0546 0.0
C1116 C 0.64291 0.22034 0.06084 0.0
C1117 C 0.65235 0.20317 0.04234 0.0
C1118 C 0.5886 0.25231 0.02252 0.0
C1119 C 0.65519 0.22108 0.08705 0.0
H1120 H 0.62035 0.3167 0.09478 0.0
H1121 H 0.56467 0.26086 0.11863 0.0
H1122 H 0.66115 0.27569 0.06129 0.0
H1123 H 0.63859 0.28678 0.03803 0.0
H1124 H 0.65037 0.30854 0.06221 0.0
H1125 H 0.5644 0.21872 0.10326 0.0
H1126 H 0.57131 0.21788 0.06941 0.0
H1127 H 0.59485 0.20695 0.09178 0.0
H1128 H 0.61114 0.21605 0.99343 0.0
H1129 H 0.66859 0.19101 0.04687 0.0
H1130 H 0.59441 0.27267 0.02467 0.0
H1131 H 0.57197 0.2491 0.03539 0.0
H1132 H 0.58231 0.24912 0.00241 0.0
H1133 H 0.66337 0.24037 0.09069 0.0
H1134 H 0.67069 0.20661 0.08911 0.0
H1135 H 0.6405 0.21753 0.10205 0.0
C1136 C 0.71094 0.84841 0.45768 0.0
C1137 C 0.72101 0.84153 0.48164 0.0
C1138 C 0.7271 0.85707 0.43791 0.0
C1139 C 0.7538 0.85923 0.44243 0.0
C1140 C 0.7641 0.8516 0.46632 0.0
C1141 C 0.74761 0.84267 0.48554 0.0
C1142 C 0.71552 0.86469 0.4125 0.0
C1143 C 0.79241 0.85394 0.47202 0.0
C1144 C 0.80125 0.86783 0.38775 0.0
C1145 C 0.80473 0.89451 0.38786 0.0
C1146 C 0.78424 0.85606 0.40502 0.0
C1147 C 0.77081 0.87131 0.42304 0.0
C1148 C 0.77443 0.89821 0.42335 0.0
C1149 C 0.7912 0.90949 0.40566 0.0
C1150 C 0.7806 0.82735 0.40398 0.0
C1151 C 0.7608 0.91509 0.44258 0.0
H1152 H 0.69043 0.84742 0.45452 0.0
H1153 H 0.75559 0.83742 0.504 0.0
H1154 H 0.71743 0.88571 0.40979 0.0
H1155 H 0.72596 0.85527 0.39651 0.0
H1156 H 0.69489 0.85955 0.41121 0.0
H1157 H 0.79753 0.84587 0.49106 0.0
H1158 H 0.80382 0.84393 0.45711 0.0
H1159 H 0.79809 0.87445 0.47163 0.0
H1160 H 0.81146 0.85619 0.37387 0.0
H1161 H 0.79386 0.93011 0.40591 0.0
H1162 H 0.76 0.82274 0.40132 0.0
H1163 H 0.78667 0.8186 0.4224 0.0
H1164 H 0.79173 0.81835 0.38818 0.0
H1165 H 0.73974 0.91276 0.44071 0.0
H1166 H 0.76558 0.93571 0.44012 0.0
H1167 H 0.76607 0.90923 0.46236 0.0
C1168 C 0.34801 0.75092 0.01265 0.0
C1169 C 0.34754 0.77759 0.01622 0.0
C1170 C 0.35864 0.73461 0.03114 0.0
C1171 C 0.36877 0.74519 0.05396 0.0
C1172 C 0.36777 0.77204 0.05805 0.0
C1173 C 0.35731 0.78799 0.039 0.0
C1174 C 0.35965 0.70612 0.02592 0.0
C1175 C 0.3781 0.78392 0.08234 0.0
C1176 C 0.37852 0.69919 0.10958 0.0
C1177 C 0.40492 0.6943 0.10801 0.0
C1178 C 0.36655 0.71613 0.09243 0.0
C1179 C 0.38128 0.72811 0.07302 0.0
C1180 C 0.40788 0.72306 0.07117 0.0
C1181 C 0.41941 0.70636 0.0888 0.0
C1182 C 0.33818 0.72128 0.09511 0.0
C1183 C 0.42414 0.73514 0.05044 0.0
H1184 H 0.34059 0.74271 0.99505 0.0
H1185 H 0.35691 0.80858 0.0419 0.0
H1186 H 0.3799 0.6996 0.02543 0.0
H1187 H 0.34995 0.69545 0.04158 0.0
H1188 H 0.35042 0.70092 0.00744 0.0
H1189 H 0.37458 0.80492 0.0832 0.0
H1190 H 0.36912 0.77478 0.09934 0.0
H1191 H 0.39905 0.7805 0.08366 0.0
H1192 H 0.36724 0.69014 0.12453 0.0
H1193 H 0.43982 0.70263 0.08743 0.0
H1194 H 0.32801 0.71516 0.07746 0.0
H1195 H 0.33477 0.74217 0.09742 0.0
H1196 H 0.32963 0.71109 0.11176 0.0
H1197 H 0.41672 0.72959 0.03128 0.0
H1198 H 0.44459 0.72931 0.05174 0.0
H1199 H 0.42303 0.75635 0.05175 0.0
C1200 C 0.26484 0.8142 0.52819 0.0
C1201 C 0.28919 0.82539 0.52604 0.0
C1202 C 0.2467 0.82382 0.54553 0.0
C1203 C 0.25341 0.84458 0.56165 0.0
C1204 C 0.27857 0.85482 0.56076 0.0
C1205 C 0.29606 0.84539 0.54258 0.0
C1206 C 0.21987 0.81289 0.54535 0.0
C1207 C 0.28668 0.87639 0.57829 0.0
C1208 C 0.20205 0.891 0.58375 0.0
C1209 C 0.19673 0.88193 0.60843 0.0
C1210 C 0.21993 0.8785 0.56805 0.0
C1211 C 0.2335 0.85705 0.57775 0.0
C1212 C 0.22814 0.84779 0.60272 0.0
C1213 C 0.20942 0.86012 0.61764 0.0
C1214 C 0.22447 0.88841 0.5412 0.0
C1215 C 0.2428 0.8255 0.61397 0.0
H1216 H 0.25938 0.7989 0.51521 0.0
H1217 H 0.31495 0.85395 0.54098 0.0
H1218 H 0.21377 0.80769 0.56504 0.0
H1219 H 0.20629 0.82764 0.53822 0.0
H1220 H 0.21827 0.79564 0.53293 0.0
H1221 H 0.30769 0.87982 0.57755 0.0
H1222 H 0.27675 0.89433 0.57262 0.0
H1223 H 0.28112 0.8721 0.59838 0.0
H1224 H 0.19216 0.9079 0.57672 0.0
H1225 H 0.20552 0.85342 0.63694 0.0
H1226 H 0.22225 0.87261 0.5271 0.0
H1227 H 0.24436 0.89571 0.53945 0.0
H1228 H 0.21103 0.90411 0.53601 0.0
H1229 H 0.24096 0.80838 0.60149 0.0
H1230 H 0.23605 0.82044 0.63354 0.0
H1231 H 0.2635 0.83036 0.61495 0.0
C1232 C 0.38482 0.30197 0.89454 0.0
C1233 C 0.41142 0.30569 0.89276 0.0
C1234 C 0.37433 0.28539 0.91293 0.0
C1235 C 0.39079 0.27247 0.9302 0.0
C1236 C 0.41761 0.27642 0.9288 0.0
C1237 C 0.42763 0.29287 0.90999 0.0
C1238 C 0.34564 0.28152 0.91373 0.0
C1239 C 0.43571 0.26327 0.94719 0.0
C1240 C 0.3612 0.24955 0.9925 0.0
C1241 C 0.35788 0.22326 0.98779 0.0
C1242 C 0.37223 0.26567 0.97405 0.0
C1243 C 0.37982 0.25533 0.95015 0.0
C1244 C 0.37649 0.22881 0.9452 0.0
C1245 C 0.36571 0.21301 0.9642 0.0
C1246 C 0.37576 0.29378 0.98017 0.0
C1247 C 0.38411 0.21721 0.91978 0.0
H1248 H 0.37215 0.31162 0.88119 0.0
H1249 H 0.44819 0.29565 0.90876 0.0
H1250 H 0.34104 0.26088 0.91128 0.0
H1251 H 0.33802 0.28748 0.93269 0.0
H1252 H 0.33555 0.2926 0.89859 0.0
H1253 H 0.45606 0.2685 0.94364 0.0
H1254 H 0.43073 0.26848 0.96722 0.0
H1255 H 0.43373 0.24215 0.94549 0.0
H1256 H 0.35541 0.25758 0.01079 0.0
H1257 H 0.36317 0.19271 0.96047 0.0
H1258 H 0.36459 0.30563 0.96649 0.0
H1259 H 0.39622 0.29919 0.97796 0.0
H1260 H 0.36954 0.29862 -2e-05 0.0
H1261 H 0.37339 0.22669 0.90403 0.0
H1262 H 0.38031 0.19626 0.91899 0.0
H1263 H 0.40481 0.22051 0.91618 0.0
C1264 C 0.80259 0.10023 0.58676 0.0
C1265 C 0.80732 0.10761 0.61211 0.0
C1266 C 0.78417 0.113 0.57195 0.0
C1267 C 0.76945 0.13289 0.5832 0.0
C1268 C 0.77436 0.14057 0.60878 0.0
C1269 C 0.79362 0.12808 0.62283 0.0
C1270 C 0.78013 0.10486 0.54444 0.0
C1271 C 0.75851 0.16111 0.62165 0.0
C1272 C 0.73448 0.17675 0.53707 0.0
C1273 C 0.71096 0.164 0.53441 0.0
C1274 C 0.7535 0.16728 0.55351 0.0
C1275 C 0.74851 0.14504 0.56822 0.0
C1276 C 0.72412 0.13313 0.5669 0.0
C1277 C 0.70575 0.14249 0.5496 0.0
C1278 C 0.77949 0.18007 0.5538 0.0
C1279 C 0.71779 0.10987 0.58295 0.0
H1280 H 0.81325 0.08434 0.57858 0.0
H1281 H 0.79707 0.13342 0.64264 0.0
H1282 H 0.76083 0.09619 0.54227 0.0
H1283 H 0.78099 0.12179 0.53157 0.0
H1284 H 0.79465 0.09065 0.538 0.0
H1285 H 0.76542 0.16551 0.64132 0.0
H1286 H 0.7588 0.179 0.61016 0.0
H1287 H 0.73824 0.15473 0.62286 0.0
H1288 H 0.73866 0.19324 0.52509 0.0
H1289 H 0.68751 0.13272 0.54759 0.0
H1290 H 0.79393 0.16692 0.54533 0.0
H1291 H 0.7856 0.18416 0.57375 0.0
H1292 H 0.77964 0.1983 0.54275 0.0
H1293 H 0.72889 0.09312 0.57596 0.0
H1294 H 0.69707 0.105 0.58219 0.0
H1295 H 0.7233 0.11316 0.60325 0.0
C1296 C 0.62854 0.78138 0.97394 0.0
C1297 C 0.64899 0.79738 0.96693 0.0
C1298 C 0.61841 0.7635 0.95667 0.0
C1299 C 0.62848 0.76209 0.93151 0.0
C1300 C 0.64886 0.77849 0.92414 0.0
C1301 C 0.65918 0.79572 0.94212 0.0
C1302 C 0.59709 0.74594 0.96547 0.0
C1303 C 0.65957 0.77799 0.89724 0.0
C1304 C 0.61525 0.7012 0.8937 0.0
C1305 C 0.59297 0.70803 0.88037 0.0
C1306 C 0.62726 0.71872 0.91028 0.0
C1307 C 0.61711 0.7438 0.91288 0.0
C1308 C 0.59507 0.75098 0.8988 0.0
C1309 C 0.58305 0.73289 0.883 0.0
C1310 C 0.65032 0.71018 0.92555 0.0
C1311 C 0.58403 0.77772 0.90059 0.0
H1312 H 0.62087 0.78232 0.99325 0.0
H1313 H 0.67499 0.8081 0.93671 0.0
H1314 H 0.57958 0.74947 0.95395 0.0
H1315 H 0.60268 0.72563 0.96244 0.0
H1316 H 0.59229 0.74868 0.98606 0.0
H1317 H 0.67512 0.79228 0.89445 0.0
H1318 H 0.66723 0.75864 0.8928 0.0
H1319 H 0.64406 0.78198 0.88322 0.0
H1320 H 0.62291 0.68197 0.89166 0.0
H1321 H 0.56604 0.73834 0.87237 0.0
H1322 H 0.64594 0.71129 0.94636 0.0
H1323 H 0.66677 0.72314 0.92186 0.0
H1324 H 0.65617 0.69022 0.92088 0.0
H1325 H 0.57673 0.78121 0.92028 0.0
H1326 H 0.56806 0.7808 0.88684 0.0
H1327 H 0.59918 0.79217 0.89679 0.0
C1328 C 0.43667 0.28905 0.16724 0.0
C1329 C 0.46015 0.2902 0.15421 0.0
C1330 C 0.41731 0.27209 0.1592 0.0
C1331 C 0.42195 0.25556 0.13813 0.0
C1332 C 0.44574 0.25654 0.12513 0.0
C1333 C 0.46438 0.27405 0.13312 0.0
C1334 C 0.39188 0.27198 0.17304 0.0
C1335 C 0.45162 0.23894 0.10283 0.0
C1336 C 0.38455 0.19428 0.12659 0.0
C1337 C 0.37011 0.20114 0.10503 0.0
C1338 C 0.40077 0.2122 0.13847 0.0
C1339 C 0.40191 0.23762 0.12888 0.0
C1340 C 0.38604 0.24498 0.10815 0.0
C1341 C 0.3706 0.22654 0.09625 0.0
C1342 C 0.41783 0.20353 0.16018 0.0
C1343 C 0.38627 0.27201 0.09773 0.0
H1344 H 0.43338 0.30152 0.18355 0.0
H1345 H 0.48264 0.27459 0.12316 0.0
H1346 H 0.37622 0.27645 0.15935 0.0
H1347 H 0.38798 0.25262 0.18096 0.0
H1348 H 0.39128 0.28612 0.18897 0.0
H1349 H 0.47155 0.24128 0.09566 0.0
H1350 H 0.44885 0.21865 0.10863 0.0
H1351 H 0.43823 0.24285 0.08678 0.0
H1352 H 0.38412 0.17462 0.13336 0.0
H1353 H 0.35906 0.23197 0.07982 0.0
H1354 H 0.41658 0.21708 0.17653 0.0
H1355 H 0.43807 0.20338 0.1536 0.0
H1356 H 0.4128 0.184 0.16705 0.0
H1357 H 0.38476 0.28612 0.11359 0.0
H1358 H 0.37036 0.27545 0.08398 0.0
H1359 H 0.40468 0.27563 0.08768 0.0
C1360 C 0.37012 0.77218 0.90919 0.0
C1361 C 0.3685 0.79704 0.89906 0.0
C1362 C 0.38559 0.75352 0.89761 0.0
C1363 C 0.4003 0.76011 0.87578 0.0
C1364 C 0.39826 0.78501 0.86508 0.0
C1365 C 0.38207 0.80313 0.87669 0.0
C1366 C 0.38682 0.72702 0.90926 0.0
C1367 C 0.41411 0.79288 0.84215 0.0
C1368 C 0.46272 0.72402 0.86798 0.0
C1369 C 0.45717 0.70738 0.84757 0.0
C1370 C 0.44443 0.74143 0.87705 0.0
C1371 C 0.41973 0.74181 0.86587 0.0
C1372 C 0.41374 0.72468 0.84565 0.0
C1373 C 0.4327 0.70784 0.83648 0.0
C1374 C 0.45172 0.75968 0.89837 0.0
C1375 C 0.38737 0.72417 0.83377 0.0
H1376 H 0.35929 0.7673 0.92627 0.0
H1377 H 0.3808 0.82236 0.86885 0.0
H1378 H 0.38419 0.71219 0.89422 0.0
H1379 H 0.40597 0.7239 0.91796 0.0
H1380 H 0.37204 0.72416 0.92436 0.0
H1381 H 0.409 0.81234 0.83511 0.0
H1382 H 0.43473 0.79278 0.8474 0.0
H1383 H 0.41158 0.77898 0.82625 0.0
H1384 H 0.48169 0.72399 0.87646 0.0
H1385 H 0.42836 0.69497 0.82074 0.0
H1386 H 0.43929 0.7564 0.91532 0.0
H1387 H 0.44869 0.77978 0.89207 0.0
H1388 H 0.47203 0.75744 0.90437 0.0
H1389 H 0.37273 0.72053 0.8488 0.0
H1390 H 0.38559 0.7092 0.81871 0.0
H1391 H 0.38293 0.74309 0.82512 0.0
C1392 C 0.22149 0.01349 0.61986 0.0
C1393 C 0.20469 0.01915 0.64012 0.0
C1394 C 0.23987 0.03129 0.61171 0.0
C1395 C 0.24111 0.0556 0.6237 0.0
C1396 C 0.22384 0.06169 0.64379 0.0
C1397 C 0.206 0.04322 0.65199 0.0
C1398 C 0.25823 0.02392 0.59052 0.0
C1399 C 0.22421 0.08767 0.65656 0.0
C1400 C 0.30311 0.09333 0.61699 0.0
C1401 C 0.29757 0.109 0.59587 0.0
C1402 C 0.28483 0.07593 0.62642 0.0
C1403 C 0.26029 0.0747 0.61481 0.0
C1404 C 0.25444 0.09091 0.59387 0.0
C1405 C 0.27324 0.10764 0.58447 0.0
C1406 C 0.29192 0.0585 0.64843 0.0
C1407 C 0.22835 0.09051 0.5813 0.0
H1408 H 0.22078 0.99479 0.61078 0.0
H1409 H 0.19302 0.04766 0.66762 0.0
H1410 H 0.25595 0.03711 0.57399 0.0
H1411 H 0.2783 0.02577 0.59735 0.0
H1412 H 0.25519 0.00396 0.58372 0.0
H1413 H 0.20908 0.08959 0.67145 0.0
H1414 H 0.24314 0.09101 0.66565 0.0
H1415 H 0.22144 0.10294 0.64199 0.0
H1416 H 0.32189 0.09433 0.62582 0.0
H1417 H 0.26872 0.11998 0.56835 0.0
H1418 H 0.2905 0.03818 0.64224 0.0
H1419 H 0.27829 0.06114 0.66455 0.0
H1420 H 0.31167 0.06208 0.65553 0.0
H1421 H 0.22488 0.07148 0.57245 0.0
H1422 H 0.2264 0.10543 0.56621 0.0
H1423 H 0.21316 0.09356 0.5959 0.0
C1424 C 0.53753 0.27282 0.81768 0.0
C1425 C 0.53616 0.29613 0.831 0.0
C1426 C 0.55382 0.25314 0.82601 0.0
C1427 C 0.56969 0.2573 0.84761 0.0
C1428 C 0.56975 0.28153 0.85992 0.0
C1429 C 0.55254 0.30054 0.85178 0.0
C1430 C 0.5526 0.22734 0.81287 0.0
C1431 C 0.5871 0.28698 0.88244 0.0
C1432 C 0.58805 0.20189 0.89085 0.0
C1433 C 0.61276 0.19619 0.88214 0.0
C1434 C 0.57346 0.22113 0.87906 0.0
C1435 C 0.58436 0.23565 0.85883 0.0
C1436 C 0.60933 0.22984 0.84989 0.0
C1437 C 0.62309 0.20979 0.8614 0.0
C1438 C 0.54655 0.22616 0.88853 0.0
C1439 C 0.62188 0.24547 0.82899 0.0
H1440 H 0.52456 0.26928 0.80181 0.0
H1441 H 0.55145 0.31862 0.862 0.0
H1442 H 0.57211 0.22051 0.8079 0.0
H1443 H 0.54409 0.21306 0.82617 0.0
H1444 H 0.54085 0.22789 0.79511 0.0
H1445 H 0.58744 0.30769 0.88745 0.0
H1446 H 0.58039 0.27608 0.89944 0.0
H1447 H 0.60696 0.28062 0.8782 0.0
H1448 H 0.58017 0.19129 0.90693 0.0
H1449 H 0.64243 0.20555 0.85501 0.0
H1450 H 0.53289 0.226 0.87221 0.0
H1451 H 0.54553 0.24544 0.89748 0.0
H1452 H 0.5402 0.21173 0.90287 0.0
H1453 H 0.60966 0.24578 0.81159 0.0
H1454 H 0.64109 0.23793 0.82368 0.0
H1455 H 0.62403 0.26562 0.83551 0.0
C1456 C 0.78317 0.97652 0.61511 0.0
C1457 C 0.79858 0.96978 0.63611 0.0
C1458 C 0.76431 0.95982 0.60585 0.0
C1459 C 0.76116 0.93552 0.6175 0.0
C1460 C 0.77725 0.9282 0.63812 0.0
C1461 C 0.79562 0.94557 0.6474 0.0
C1462 C 0.74724 0.96849 0.5841 0.0
C1463 C 0.77481 0.90217 0.65058 0.0
C1464 C 0.69675 0.90234 0.61062 0.0
C1465 C 0.70141 0.88577 0.58998 0.0
C1466 C 0.71605 0.91873 0.61974 0.0
C1467 C 0.74068 0.91804 0.6083 0.0
C1468 C 0.74554 0.90119 0.5876 0.0
C1469 C 0.72576 0.88545 0.5785 0.0
C1470 C 0.71002 0.93692 0.64147 0.0
C1471 C 0.77169 0.8996 0.57521 0.0
H1472 H 0.78519 0.9953 0.60641 0.0
H1473 H 0.80756 0.94026 0.66357 0.0
H1474 H 0.7486 0.95485 0.56783 0.0
H1475 H 0.72695 0.96865 0.59053 0.0
H1476 H 0.75229 0.98796 0.57707 0.0
H1477 H 0.78974 0.89889 0.66541 0.0
H1478 H 0.75569 0.90031 0.65971 0.0
H1479 H 0.77632 0.88686 0.63586 0.0
H1480 H 0.67795 0.90265 0.6195 0.0
H1481 H 0.72957 0.87243 0.56273 0.0
H1482 H 0.71356 0.95698 0.6353 0.0
H1483 H 0.72286 0.93304 0.65798 0.0
H1484 H 0.68982 0.93528 0.64806 0.0
H1485 H 0.77693 0.91845 0.56684 0.0
H1486 H 0.77249 0.8849 0.55981 0.0
H1487 H 0.78637 0.89491 0.58988 0.0
C1488 C 0.56256 0.70009 0.15847 0.0
C1489 C 0.53897 0.69749 0.14588 0.0
C1490 C 0.58075 0.7181 0.15001 0.0
C1491 C 0.57479 0.73426 0.129 0.0
C1492 C 0.5511 0.73149 0.11611 0.0
C1493 C 0.53366 0.71292 0.12449 0.0
C1494 C 0.60618 0.72007 0.16369 0.0
C1495 C 0.5438 0.74866 0.09391 0.0
C1496 C 0.60684 0.79901 0.12075 0.0
C1497 C 0.62258 0.79439 0.09949 0.0
C1498 C 0.59168 0.77935 0.13114 0.0
C1499 C 0.59297 0.7544 0.12042 0.0
C1500 C 0.60985 0.74939 0.09978 0.0
C1501 C 0.62417 0.76956 0.0893 0.0
C1502 C 0.5734 0.78555 0.15274 0.0
C1503 C 0.61224 0.7229 0.08827 0.0
H1504 H 0.56674 0.68815 0.17497 0.0
H1505 H 0.51535 0.71121 0.11479 0.0
H1506 H 0.62213 0.71839 0.14969 0.0
H1507 H 0.60791 0.73912 0.17299 0.0
H1508 H 0.6085 0.705 0.17858 0.0
H1509 H 0.52441 0.74426 0.08627 0.0
H1510 H 0.54417 0.76902 0.1001 0.0
H1511 H 0.55789 0.74658 0.07811 0.0
H1512 H 0.60564 0.81823 0.12863 0.0
H1513 H 0.6367 0.76587 0.0731 0.0
H1514 H 0.5763 0.77213 0.16899 0.0
H1515 H 0.55336 0.78309 0.14603 0.0
H1516 H 0.57577 0.8055 0.15986 0.0
H1517 H 0.6151 0.70841 0.1036 0.0
H1518 H 0.62842 0.72156 0.07446 0.0
H1519 H 0.59428 0.71788 0.07807 0.0
C1520 C 0.20473 0.94535 0.34599 0.0
C1521 C 0.20423 0.97049 0.35546 0.0
C1522 C 0.2225 0.92743 0.35542 0.0
C1523 C 0.24052 0.9351 0.37425 0.0
C1524 C 0.24012 0.96049 0.38379 0.0
C1525 C 0.22179 0.97777 0.3745 0.0
C1526 C 0.22201 0.90031 0.34528 0.0
C1527 C 0.25933 0.96955 0.40349 0.0
C1528 C 0.27325 0.88565 0.4163 0.0
C1529 C 0.29679 0.88238 0.40369 0.0
C1530 C 0.25457 0.90238 0.40664 0.0
C1531 C 0.25981 0.91664 0.38415 0.0
C1532 C 0.28371 0.91378 0.37156 0.0
C1533 C 0.30183 0.89643 0.38132 0.0
C1534 C 0.22913 0.90458 0.42034 0.0
C1535 C 0.2902 0.92916 0.34788 0.0
H1536 H 0.19115 0.93967 0.33131 0.0
H1537 H 0.2217 0.99728 0.3817 0.0
H1538 H 0.2405 0.89578 0.33578 0.0
H1539 H 0.21965 0.88658 0.36138 0.0
H1540 H 0.20625 0.8972 0.33129 0.0
H1541 H 0.25674 0.9901 0.40851 0.0
H1542 H 0.25757 0.95798 0.42125 0.0
H1543 H 0.2791 0.96681 0.39609 0.0
H1544 H 0.26911 0.87458 0.43341 0.0
H1545 H 0.32002 0.89396 0.37153 0.0
H1546 H 0.21327 0.90008 0.4069 0.0
H1547 H 0.2262 0.92455 0.42709 0.0
H1548 H 0.22779 0.8915 0.43711 0.0
H1549 H 0.27619 0.92499 0.33244 0.0
H1550 H 0.30978 0.92496 0.3406 0.0
H1551 H 0.28885 0.94996 0.35218 0.0
C1552 C 0.79374 0.05273 0.34406 0.0
C1553 C 0.79578 0.02778 0.35381 0.0
C1554 C 0.77596 0.07017 0.35442 0.0
C1555 C 0.75941 0.06214 0.37445 0.0
C1556 C 0.76131 0.03689 0.3842 0.0
C1557 C 0.77969 0.02016 0.37401 0.0
C1558 C 0.77493 0.09718 0.34404 0.0
C1559 C 0.74366 0.0274 0.40514 0.0
C1560 C 0.72781 0.11031 0.41887 0.0
C1561 C 0.70332 0.11268 0.40801 0.0
C1562 C 0.74645 0.09447 0.40771 0.0
C1563 C 0.74024 0.08011 0.38554 0.0
C1564 C 0.71544 0.08217 0.37465 0.0
C1565 C 0.69736 0.09875 0.38582 0.0
C1566 C 0.77285 0.09324 0.41957 0.0
C1567 C 0.7079 0.06659 0.35143 0.0
H1568 H 0.80617 0.05866 0.32847 0.0
H1569 H 0.78092 0.00077 0.38141 0.0
H1570 H 0.75572 0.10104 0.33577 0.0
H1571 H 0.7779 0.11113 0.35984 0.0
H1572 H 0.78963 0.10063 0.329 0.0
H1573 H 0.74711 0.00694 0.41001 0.0
H1574 H 0.74628 0.03906 0.42274 0.0
H1575 H 0.72338 0.0296 0.39908 0.0
H1576 H 0.73264 0.12136 0.43581 0.0
H1577 H 0.67845 0.10057 0.37739 0.0
H1578 H 0.78761 0.09792 0.40496 0.0
H1579 H 0.7768 0.0735 0.42643 0.0
H1580 H 0.77499 0.10666 0.43598 0.0
H1581 H 0.72083 0.07104 0.33514 0.0
H1582 H 0.68781 0.0703 0.34539 0.0
H1583 H 0.71001 0.04584 0.35568 0.0
C1584 C 0.96176 0.36729 0.95545 0.0
C1585 C 0.97294 0.34943 0.93881 0.0
C1586 C 0.97073 0.3701 0.98064 0.0
C1587 C 0.99104 0.35433 0.98933 0.0
C1588 C 0.00274 0.33665 0.9723 0.0
C1589 C 0.99362 0.33456 0.9471 0.0
C1590 C 0.95813 0.38947 0.9981 0.0
C1591 C 0.02427 0.31932 0.98096 0.0
C1592 C 0.03 0.36969 0.04867 0.0
C1593 C 0.01893 0.35314 0.06665 0.0
C1594 C 0.02033 0.37122 0.02363 0.0
C1595 C -0.00056 0.35544 0.01649 0.0
C1596 C 0.98763 0.33937 0.03497 0.0
C1597 C 0.99746 0.33856 0.05999 0.0
C1598 C 0.03309 0.38893 0.0046 0.0
C1599 C 0.96549 0.32206 0.02799 0.0
H1600 H 0.94574 0.37877 0.9488 0.0
H1601 H 0.00202 0.32063 0.93412 0.0
H1602 H 0.94827 0.37942 0.01406 0.0
H1603 H 0.97282 0.40219 0.00677 0.0
H1604 H 0.94387 0.4015 0.98782 0.0
H1605 H 0.0317 0.30712 0.96515 0.0
H1606 H 0.04033 0.3309 0.98872 0.0
H1607 H 0.01742 0.30668 0.99666 0.0
H1608 H 0.04667 0.3809 0.05405 0.0
H1609 H 0.98916 0.32563 0.07401 0.0
H1610 H 0.01853 0.40087 0.9947 0.0
H1611 H 0.04305 0.37744 0.98971 0.0
H1612 H 0.04733 0.40177 0.01387 0.0
H1613 H 0.94989 0.33332 0.01893 0.0
H1614 H 0.95758 0.31184 0.04493 0.0
H1615 H 0.97196 0.30761 0.01376 0.0
C1616 C 0.85891 0.46793 0.45078 0.0
C1617 C 0.84229 0.4805 0.43384 0.0
C1618 C 0.86124 0.47596 0.47633 0.0
C1619 C 0.84678 0.49724 0.48497 0.0
C1620 C 0.83085 0.51073 0.46757 0.0
C1621 C 0.82874 0.50212 0.44215 0.0
C1622 C 0.8784 0.46108 0.49429 0.0
C1623 C 0.81531 0.53365 0.47604 0.0
C1624 C 0.82833 0.50225 0.55517 0.0
C1625 C 0.8455 0.52089 0.56392 0.0
C1626 C 0.82898 0.49388 0.52961 0.0
C1627 C 0.84719 0.50457 0.5125 0.0
C1628 C 0.86517 0.52278 0.52154 0.0
C1629 C 0.8642 0.53061 0.54727 0.0
C1630 C 0.80968 0.4742 0.52073 0.0
C1631 C 0.88486 0.53457 0.50389 0.0
H1632 H 0.8696 0.45136 0.44415 0.0
H1633 H 0.8158 0.51172 0.42902 0.0
H1634 H 0.892 0.4742 0.50406 0.0
H1635 H 0.86662 0.45182 0.50941 0.0
H1636 H 0.88953 0.44598 0.48417 0.0
H1637 H 0.80531 0.54307 0.45976 0.0
H1638 H 0.80076 0.52755 0.49032 0.0
H1639 H 0.82788 0.54797 0.48552 0.0
H1640 H 0.81384 0.49483 0.56812 0.0
H1641 H 0.87765 0.54483 0.55428 0.0
H1642 H 0.81963 0.45781 0.51149 0.0
H1643 H 0.79684 0.48285 0.50614 0.0
H1644 H 0.79775 0.46679 0.53676 0.0
H1645 H 0.89622 0.51934 0.49431 0.0
H1646 H 0.8982 0.54758 0.51422 0.0
H1647 H 0.87506 0.54567 0.4886 0.0
C1648 C 0.00081 0.65717 0.94127 0.0
C1649 C 0.02164 0.64167 0.93463 0.0
C1650 C 0.99055 0.65645 0.96613 0.0
C1651 C 0.0012 0.63948 0.9845 0.0
C1652 C 0.02164 0.62304 0.97746 0.0
C1653 C 0.03181 0.62453 0.95259 0.0
C1654 C 0.96898 0.67452 0.97301 0.0
C1655 C 0.03313 0.60435 0.99635 0.0
C1656 C 0.99288 0.65785 0.05442 0.0
C1657 C 0.9712 0.64358 0.06111 0.0
C1658 C 0.00316 0.65635 0.02959 0.0
C1659 C 0.99164 0.63983 0.01134 0.0
C1660 C 0.97031 0.6246 0.01845 0.0
C1661 C 0.96015 0.62689 0.04326 0.0
C1662 C 0.02569 0.67315 0.02262 0.0
C1663 C 0.95786 0.60641 -0.00032 0.0
H1664 H 0.99319 0.67053 0.92727 0.0
H1665 H 0.04797 0.61258 0.94722 0.0
H1666 H 0.95242 0.6636 0.98069 0.0
H1667 H 0.97539 0.68785 0.98832 0.0
H1668 H 0.96242 0.686 0.95631 0.0
H1669 H 0.0476 0.5916 0.98727 0.0
H1670 H 0.04249 0.615 0.0122 0.0
H1671 H 0.01786 0.59231 0.00499 0.0
H1672 H 0.00118 0.6709 0.06833 0.0
H1673 H 0.94334 0.61589 0.04866 0.0
H1674 H 0.02002 0.68674 0.00725 0.0
H1675 H 0.04162 0.66129 0.01499 0.0
H1676 H 0.03288 0.68434 0.03927 0.0
H1677 H 0.94907 0.61743 0.98375 0.0
H1678 H 0.94275 0.5945 0.00884 0.0
H1679 H 0.97249 0.59352 0.99113 0.0
C1680 C 0.17611 0.46274 0.54305 0.0
C1681 C 0.15906 0.47227 0.56151 0.0
C1682 C 0.17521 0.47135 0.51762 0.0
C1683 C 0.15725 0.49047 0.51067 0.0
C1684 C 0.14013 0.50037 0.5293 0.0
C1685 C 0.14108 0.49094 0.5545 0.0
C1686 C 0.19358 0.46011 0.49823 0.0
C1687 C 0.12102 0.52109 0.52267 0.0
C1688 C 0.17386 0.52992 0.45196 0.0
C1689 C 0.15779 0.51914 0.43333 0.0
C1690 C 0.17342 0.52115 0.47735 0.0
C1691 C 0.15701 0.50062 0.48408 0.0
C1692 C 0.14096 0.48941 0.46526 0.0
C1693 C 0.14136 0.499 0.4401 0.0
C1694 C 0.19061 0.5338 0.49693 0.0
C1695 C 0.12354 0.46718 0.47166 0.0
H1696 H 0.19035 0.44864 0.54854 0.0
H1697 H 0.12768 0.49809 0.5687 0.0
H1698 H 0.18282 0.45251 0.48152 0.0
H1699 H 0.20662 0.47527 0.49098 0.0
H1700 H 0.20538 0.44438 0.50645 0.0
H1701 H 0.10915 0.52681 0.53942 0.0
H1702 H 0.13124 0.53827 0.51538 0.0
H1703 H 0.10812 0.51438 0.50715 0.0
H1704 H 0.18693 0.54518 0.44663 0.0
H1705 H 0.12874 0.49084 0.42576 0.0
H1706 H 0.2047 0.5197 0.50435 0.0
H1707 H 0.17907 0.54053 0.51351 0.0
H1708 H 0.20125 0.5504 0.48884 0.0
H1709 H 0.13504 0.45089 0.47911 0.0
H1710 H 0.11243 0.46049 0.45476 0.0
H1711 H 0.10991 0.47279 0.487 0.0
C1712 C 0.94512 0.99395 0.33656 0.0
C1713 C 0.93762 0.97296 0.35148 0.0
C1714 C 0.96993 0.00413 0.33864 0.0
C1715 C 0.98746 0.99314 0.35627 0.0
C1716 C 0.97963 0.97238 0.37193 0.0
C1717 C 0.95477 0.96244 0.36924 0.0
C1718 C 0.97763 0.02616 0.32148 0.0
C1719 C 0.99764 0.96039 0.39116 0.0
C1720 C 0.05807 0.00273 0.34145 0.0
C1721 C 0.06395 0.02387 0.35689 0.0
C1722 C 0.03335 0.99211 0.34153 0.0
C1723 C 0.01423 0.00286 0.35758 0.0
C1724 C 0.02043 0.02364 0.37394 0.0
C1725 C 0.04526 0.03398 0.37331 0.0
C1726 C 0.02745 0.97004 0.32373 0.0
C1727 C 0.00066 0.03541 0.39152 0.0
H1728 H 0.93177 0.00191 0.32274 0.0
H1729 H 0.94876 0.94625 0.38083 0.0
H1730 H 0.98466 0.04246 0.33319 0.0
H1731 H 0.99361 0.02013 0.30878 0.0
H1732 H 0.9615 0.03296 0.30933 0.0
H1733 H 0.98813 0.94531 0.40283 0.0
H1734 H 0.01421 0.95168 0.38103 0.0
H1735 H 0.00536 0.9753 0.40424 0.0
H1736 H 0.07256 0.99513 0.32861 0.0
H1737 H 0.04999 0.05033 0.38526 0.0
H1738 H 0.01297 0.97611 0.30938 0.0
H1739 H 0.01911 0.9538 0.33467 0.0
H1740 H 0.04476 0.96313 0.3134 0.0
H1741 H 0.98524 0.0444 0.37995 0.0
H1742 H 0.00904 0.05024 0.40431 0.0
H1743 H 0.9916 0.02035 0.40353 0.0
C1744 C 0.53044 0.44567 0.13058 0.0
C1745 C 0.52114 0.4289 0.14938 0.0
C1746 C 0.52182 0.47114 0.12934 0.0
C1747 C 0.50358 0.47995 0.14744 0.0
C1748 C 0.49369 0.4628 0.16609 0.0
C1749 C 0.50255 0.43738 0.16675 0.0
C1750 C 0.53258 0.48873 0.10901 0.0
C1751 C 0.47429 0.4715 0.18576 0.0
C1752 C 0.50004 0.55115 0.16265 0.0
C1753 C 0.47792 0.55839 0.14931 0.0
C1754 C 0.50885 0.52571 0.1619 0.0
C1755 C 0.49525 0.50724 0.14731 0.0
C1756 C 0.4733 0.51472 0.13322 0.0
C1757 C 0.46485 0.54023 0.13447 0.0
C1758 C 0.53227 0.51844 0.17728 0.0
C1759 C 0.45846 0.49567 0.11724 0.0
H1760 H 0.54476 0.4389 0.1171 0.0
H1761 H 0.49553 0.42432 0.18134 0.0
H1762 H 0.51677 0.49738 0.0977 0.0
H1763 H 0.54321 0.5047 0.11821 0.0
H1764 H 0.54576 0.47858 0.09569 0.0
H1765 H 0.468 0.45561 0.1985 0.0
H1766 H 0.48266 0.48694 0.19778 0.0
H1767 H 0.45719 0.47963 0.17607 0.0
H1768 H 0.50996 0.56522 0.1743 0.0
H1769 H 0.44779 0.54598 0.12407 0.0
H1770 H 0.5468 0.50938 0.16465 0.0
H1771 H 0.52695 0.50411 0.1921 0.0
H1772 H 0.54113 0.53524 0.18693 0.0
H1773 H 0.47143 0.48607 0.10336 0.0
H1774 H 0.44253 0.50485 0.10648 0.0
H1775 H 0.45033 0.48053 0.12979 0.0
C1776 C 0.0582 0.98753 0.65621 0.0
C1777 C 0.06441 0.96678 0.64041 0.0
C1778 C 0.03362 -0.00157 0.65552 0.0
C1779 C 0.01511 0.98852 0.63827 0.0
C1780 C 0.02168 0.96807 0.62165 0.0
C1781 C 0.04626 0.95723 0.62312 0.0
C1782 C 0.02721 0.01995 0.67382 0.0
C1783 C 0.00264 0.95736 0.60266 0.0
C1784 C 0.94514 -0.00122 0.65541 0.0
C1785 C 0.93933 0.02071 0.64113 0.0
C1786 C 0.9697 0.98787 0.6544 0.0
C1787 C 0.98862 -0.00101 0.63836 0.0
C1788 C 0.98246 0.02068 0.62321 0.0
C1789 C 0.95789 0.03148 0.62502 0.0
C1790 C 0.97567 0.965 0.67115 0.0
C1791 C 0.00195 0.03274 0.60552 0.0
H1792 H 0.07233 0.99465 0.66969 0.0
H1793 H 0.05129 0.94113 0.61094 0.0
H1794 H 0.02031 0.03694 0.66304 0.0
H1795 H 0.01147 0.01389 0.68681 0.0
H1796 H 0.04394 0.02575 0.68566 0.0
H1797 H 0.01132 0.9426 0.58998 0.0
H1798 H 0.98628 0.94859 0.61306 0.0
H1799 H 0.99479 0.97301 0.59057 0.0
H1800 H 0.9307 0.99072 0.66804 0.0
H1801 H 0.95319 0.04849 0.61402 0.0
H1802 H 0.99104 0.97006 0.68496 0.0
H1803 H 0.98289 0.94889 0.65928 0.0
H1804 H 0.95864 0.95832 0.68209 0.0
H1805 H 0.01804 0.04074 0.61691 0.0
H1806 H 0.99356 0.0484 0.59375 0.0
H1807 H 0.01013 0.01802 0.59249 0.0
C1808 C 0.49662 0.56233 0.83153 0.0
C1809 C 0.51791 0.56965 0.84609 0.0
C1810 C 0.48802 0.53681 0.83164 0.0
C1811 C 0.50098 0.51837 0.84684 0.0
C1812 C 0.52192 0.52599 0.86233 0.0
C1813 C 0.5302 0.55158 0.86168 0.0
C1814 C 0.46568 0.52939 0.81479 0.0
C1815 C 0.53603 0.50699 0.87901 0.0
C1816 C 0.46612 0.45592 0.86046 0.0
C1817 C 0.47698 0.43959 0.84211 0.0
C1818 C 0.47408 0.48154 0.86256 0.0
C1819 C 0.49322 0.49096 0.84577 0.0
C1820 C 0.50463 0.47428 0.82756 0.0
C1821 C 0.49642 0.44868 0.82604 0.0
C1822 C 0.4617 0.49861 0.88241 0.0
C1823 C 0.52504 0.48366 0.80927 0.0
H1824 H 0.48733 0.57636 0.81931 0.0
H1825 H 0.54667 0.55741 0.87295 0.0
H1826 H 0.47217 0.51552 0.8 0.0
H1827 H 0.45065 0.51974 0.82636 0.0
H1828 H 0.45702 0.54622 0.805 0.0
H1829 H 0.55088 0.51633 0.89108 0.0
H1830 H 0.52234 0.49677 0.89171 0.0
H1831 H 0.54546 0.49233 0.86679 0.0
H1832 H 0.45116 0.44868 0.87297 0.0
H1833 H 0.50466 0.43595 0.8118 0.0
H1834 H 0.45141 0.51456 0.87279 0.0
H1835 H 0.47658 0.50732 0.89487 0.0
H1836 H 0.44786 0.48803 0.89469 0.0
H1837 H 0.51715 0.49918 0.79704 0.0
H1838 H 0.53237 0.46811 0.79667 0.0
H1839 H 0.54137 0.49188 0.82014 0.0
C1840 C 0.37083 0.04692 0.03243 0.0
C1841 C 0.3537 0.06439 0.02144 0.0
C1842 C 0.37266 0.02174 0.02314 0.0
C1843 C 0.3566 0.01392 0.00271 0.0
C1844 C 0.33997 0.0319 0.99092 0.0
C1845 C 0.33883 0.05705 0.00038 0.0
C1846 C 0.39094 0.00326 0.03587 0.0
C1847 C 0.32238 0.02421 0.96925 0.0
C1848 C 0.36808 0.95254 0.96538 0.0
C1849 C 0.35041 0.93597 0.97694 0.0
C1850 C 0.37111 0.97777 0.97423 0.0
C1851 C 0.35575 0.98657 0.99481 0.0
C1852 C 0.33843 0.96955 0.00704 0.0
C1853 C 0.33609 0.94433 0.99801 0.0
C1854 C 0.39009 0.99521 0.96103 0.0
C1855 C 0.32155 0.97831 0.02891 0.0
H1856 H 0.38224 0.05278 0.0488 0.0
H1857 H 0.32539 0.07063 0.99217 0.0
H1858 H 0.37992 0.98845 0.04645 0.0
H1859 H 0.40268 0.99319 0.02124 0.0
H1860 H 0.40398 0.01305 0.04959 0.0
H1861 H 0.31172 0.04083 0.96123 0.0
H1862 H 0.33349 0.01504 0.95359 0.0
H1863 H 0.30829 0.00987 0.97626 0.0
H1864 H 0.3791 0.94589 0.94903 0.0
H1865 H 0.32224 0.93145 0.00669 0.0
H1866 H 0.40276 0.0045 0.97537 0.0
H1867 H 0.37968 0.0107 0.95082 0.0
H1868 H 0.40217 0.98475 0.94693 0.0
H1869 H 0.33339 0.98667 0.04447 0.0
H1870 H 0.30991 0.96241 0.03701 0.0
H1871 H 0.30838 0.99358 0.02209 0.0
C1872 C 0.44407 0.16681 0.50602 0.0
C1873 C 0.4369 0.1502 0.52585 0.0
C1874 C 0.46918 0.16666 0.49632 0.0
C1875 C 0.48745 0.14946 0.50676 0.0
C1876 C 0.48006 0.13222 0.5264 0.0
C1877 C 0.45481 0.13279 0.5357 0.0
C1878 C 0.47633 0.1853 0.47534 0.0
C1879 C 0.49893 0.11353 0.53792 0.0
C1880 C 0.54728 0.13634 0.46731 0.0
C1881 C 0.56497 0.15308 0.47861 0.0
C1882 C 0.52205 0.13464 0.47652 0.0
C1883 C 0.51445 0.15003 0.49757 0.0
C1884 C 0.5325 0.16651 0.50945 0.0
C1885 C 0.55761 0.16782 0.4998 0.0
C1886 C 0.50341 0.11677 0.46343 0.0
C1887 C 0.52514 0.18319 0.53195 0.0
H1888 H 0.4302 0.18039 0.49858 0.0
H1889 H 0.44909 0.11984 0.55094 0.0
H1890 H 0.4913 0.19866 0.48239 0.0
H1891 H 0.48451 0.17483 0.45871 0.0
H1892 H 0.45964 0.19673 0.46865 0.0
H1893 H 0.48988 0.1008 0.55242 0.0
H1894 H 0.50754 0.10146 0.52265 0.0
H1895 H 0.51481 0.12419 0.54723 0.0
H1896 H 0.55314 0.1248 0.45102 0.0
H1897 H 0.57131 0.18088 0.50839 0.0
H1898 H 0.48737 0.12798 0.45507 0.0
H1899 H 0.49499 0.10332 0.4776 0.0
H1900 H 0.51261 0.10546 0.44788 0.0
H1901 H 0.50997 0.19691 0.52607 0.0
H1902 H 0.54168 0.19422 0.53959 0.0
H1903 H 0.51711 0.17123 0.54761 0.0
C1904 C 0.65896 0.03975 0.95736 0.0
C1905 C 0.64145 0.05935 0.96298 0.0
C1906 C 0.65707 0.01569 0.96917 0.0
C1907 C 0.638 0.01156 0.98805 0.0
C1908 C 0.62033 0.03131 0.99396 0.0
C1909 C 0.62194 0.05481 0.98091 0.0
C1910 C 0.67582 0.99488 0.96177 0.0
C1911 C 0.60035 0.02794 0.01465 0.0
C1912 C 0.62357 0.94266 0.0067 0.0
C1913 C 0.64099 0.9388 0.0268 0.0
C1914 C 0.62209 0.96637 0.99402 0.0
C1915 C 0.63758 0.98699 0.00246 0.0
C1916 C 0.65413 0.98361 0.02369 0.0
C1917 C 0.65611 0.95939 0.03516 0.0
C1918 C 0.60487 0.96897 0.97089 0.0
C1919 C 0.67039 0.00535 0.03381 0.0
H1920 H 0.67449 0.04331 0.94402 0.0
H1921 H 0.60816 0.06981 0.98506 0.0
H1922 H 0.689 0.99097 0.97798 0.0
H1923 H 0.66545 0.97678 0.9575 0.0
H1924 H 0.68748 0.00023 0.94474 0.0
H1925 H 0.58785 0.04508 0.01669 0.0
H1926 H 0.58814 0.01105 0.01045 0.0
H1927 H 0.60993 0.02427 0.0333 0.0
H1928 H 0.61153 0.92693 0.00044 0.0
H1929 H 0.67011 0.95649 0.0502 0.0
H1930 H 0.61669 0.97296 0.95364 0.0
H1931 H 0.59158 0.98538 0.97335 0.0
H1932 H 0.59341 0.95136 0.96734 0.0
H1933 H 0.68573 0.00995 0.01981 0.0
H1934 H 0.67952 0.00053 0.05244 0.0
H1935 H 0.65859 0.02289 0.03634 0.0
C1936 C 0.4549 0.81962 0.45951 0.0
C1937 C 0.43559 0.83616 0.46819 0.0
C1938 C 0.47989 0.82126 0.46922 0.0
C1939 C 0.48554 0.8396 0.48842 0.0
C1940 C 0.46607 0.85632 0.49732 0.0
C1941 C 0.44131 0.8545 0.48695 0.0
C1942 C 0.50017 0.80319 0.45913 0.0
C1943 C 0.47133 0.8759 0.518 0.0
C1944 C 0.54219 0.82516 0.53148 0.0
C1945 C 0.56108 0.84141 0.52142 0.0
C1946 C 0.51742 0.82471 0.52116 0.0
C1947 C 0.51157 0.84051 0.4999 0.0
C1948 C 0.53067 0.85673 0.4894 0.0
C1949 C 0.55524 0.85708 0.50041 0.0
C1950 C 0.49754 0.80724 0.53297 0.0
C1951 C 0.52518 0.8736 0.46652 0.0
H1952 H 0.45037 0.80518 0.44525 0.0
H1953 H 0.42643 0.86749 0.49344 0.0
H1954 H 0.51697 0.81422 0.45215 0.0
H1955 H 0.50698 0.79053 0.47481 0.0
H1956 H 0.49295 0.79098 0.44323 0.0
H1957 H 0.45416 0.88766 0.52258 0.0
H1958 H 0.47777 0.86608 0.53574 0.0
H1959 H 0.48704 0.88888 0.5119 0.0
H1960 H 0.54686 0.81259 0.54736 0.0
H1961 H 0.56982 0.86974 0.49273 0.0
H1962 H 0.49107 0.79291 0.51863 0.0
H1963 H 0.48047 0.81853 0.5388 0.0
H1964 H 0.50497 0.79686 0.55003 0.0
H1965 H 0.51887 0.86165 0.45008 0.0
H1966 H 0.5422 0.88495 0.46056 0.0
H1967 H 0.50929 0.88701 0.47105 0.0
C1968 C 0.03968 0.26088 0.21079 0.0
C1969 C 0.05774 0.26416 0.19108 0.0
C1970 C 0.04192 0.24063 0.22839 0.0
C1971 C 0.06275 0.22336 0.22623 0.0
C1972 C 0.07984 0.22539 0.20524 0.0
C1973 C 0.07708 0.24572 0.18788 0.0
C1974 C 0.02309 0.23887 0.25033 0.0
C1975 C 0.10223 0.20727 0.20218 0.0
C1976 C 0.09244 0.19638 0.28669 0.0
C1977 C 0.08436 0.17081 0.28586 0.0
C1978 C 0.08495 0.21381 0.26769 0.0
C1979 C 0.06877 0.20546 0.24753 0.0
C1980 C 0.05964 0.17989 0.24723 0.0
C1981 C 0.06753 0.16282 0.26652 0.0
C1982 C 0.09507 0.24095 0.26874 0.0
C1983 C 0.04211 0.17044 0.22624 0.0
H1984 H 0.02447 0.27484 0.2133 0.0
H1985 H 0.09096 0.24786 0.1726 0.0
H1986 H 0.01693 0.21873 0.25337 0.0
H1987 H 0.03248 0.24545 0.26825 0.0
H1988 H 0.00583 0.25091 0.247 0.0
H1989 H 0.11193 0.20957 0.18333 0.0
H1990 H 0.11647 0.21098 0.21756 0.0
H1991 H 0.09585 0.18707 0.20415 0.0
H1992 H 0.10533 0.20254 0.30179 0.0
H1993 H 0.06065 0.1432 0.26643 0.0
H1994 H 0.07894 0.25481 0.26831 0.0
H1995 H 0.1072 0.24476 0.25167 0.0
H1996 H 0.10666 0.24459 0.28624 0.0
H1997 H 0.02528 0.18332 0.22437 0.0
H1998 H 0.03523 0.15059 0.22982 0.0
H1999 H 0.0524 0.17078 0.20761 0.0
C2000 C 0.75563 0.44963 0.28333 0.0
C2001 C 0.75928 0.43402 0.30497 0.0
C2002 C 0.73596 0.44457 0.26578 0.0
C2003 C 0.71941 0.42352 0.2701 0.0
C2004 C 0.72188 0.40875 0.29274 0.0
C2005 C 0.74188 0.41413 0.30989 0.0
C2006 C 0.73402 0.46069 0.24178 0.0
C2007 C 0.70428 0.3864 0.29818 0.0
C2008 C 0.65947 0.41709 0.22934 0.0
C2009 C 0.66736 0.39886 0.21125 0.0
C2010 C 0.67614 0.42526 0.24882 0.0
C2011 C 0.70137 0.41533 0.24972 0.0
C2012 C 0.70965 0.39754 0.23093 0.0
C2013 C 0.6925 0.38952 0.21191 0.0
C2014 C 0.66676 0.44437 0.26845 0.0
C2015 C 0.73655 0.38678 0.23107 0.0
H2016 H 0.76898 0.46504 0.27931 0.0
H2017 H 0.74431 0.40227 0.32674 0.0
H2018 H 0.74002 0.4491 0.22496 0.0
H2019 H 0.71393 0.46678 0.23845 0.0
H2020 H 0.74635 0.47805 0.24273 0.0
H2021 H 0.70693 0.37867 0.31786 0.0
H2022 H 0.68396 0.39222 0.29578 0.0
H2023 H 0.70812 0.37078 0.28423 0.0
H2024 H 0.64044 0.42526 0.22809 0.0
H2025 H 0.69863 0.37553 0.19778 0.0
H2026 H 0.67874 0.46193 0.2678 0.0
H2027 H 0.66864 0.43619 0.28801 0.0
H2028 H 0.64642 0.44988 0.2653 0.0
H2029 H 0.75072 0.40262 0.23006 0.0
H2030 H 0.74006 0.37349 0.21478 0.0
H2031 H 0.74003 0.37628 0.24925 0.0
C2032 C 0.91062 0.79851 0.28812 0.0
C2033 C 0.91409 0.82479 0.28359 0.0
C2034 C 0.9173 0.78023 0.26959 0.0
C2035 C 0.92774 0.78842 0.2459 0.0
C2036 C 0.93277 0.81477 0.24179 0.0
C2037 C 0.92609 0.83265 0.26082 0.0
C2038 C 0.91187 0.75225 0.27486 0.0
C2039 C 0.94414 0.82418 0.21687 0.0
C2040 C 0.95451 0.7346 0.2047 0.0
C2041 C 0.93319 0.72859 0.18942 0.0
C2042 C 0.95364 0.75506 0.22226 0.0
C2043 C 0.93082 0.76957 0.22473 0.0
C2044 C 0.90974 0.76437 0.20848 0.0
C2045 C 0.91121 0.74401 0.19103 0.0
C2046 C 0.97663 0.76026 0.23903 0.0
C2047 C 0.885 0.77933 0.21055 0.0
H2048 H 0.90164 0.79221 0.3058 0.0
H2049 H 0.93008 0.85274 0.25766 0.0
H2050 H 0.8964 0.74545 0.26193 0.0
H2051 H 0.92913 0.74047 0.27086 0.0
H2052 H 0.90582 0.74886 0.29501 0.0
H2053 H 0.94938 0.84482 0.2177 0.0
H2054 H 0.96146 0.81288 0.21186 0.0
H2055 H 0.93006 0.82144 0.20116 0.0
H2056 H 0.97164 0.72288 0.2035 0.0
H2057 H 0.89454 0.73943 0.17959 0.0
H2058 H 0.97244 0.754 0.25893 0.0
H2059 H 0.98087 0.7811 0.23968 0.0
H2060 H 0.99398 0.74992 0.23221 0.0
H2061 H 0.87581 0.77534 0.22934 0.0
H2062 H 0.87121 0.7743 0.19511 0.0
H2063 H 0.88886 0.80023 0.20966 0.0
C2064 C 0.30363 0.59754 0.20673 0.0
C2065 C 0.32951 0.59409 0.2128 0.0
C2066 C 0.28444 0.59147 0.22454 0.0
C2067 C 0.29144 0.58153 0.24882 0.0
C2068 C 0.31757 0.57732 0.25475 0.0
C2069 C 0.33634 0.58351 0.23652 0.0
C2070 C 0.25672 0.59604 0.21751 0.0
C2071 C 0.32568 0.56654 0.28037 0.0
C2072 C 0.24191 0.58966 0.30136 0.0
C2073 C 0.2296 0.56574 0.30087 0.0
C2074 C 0.26269 0.5948 0.28508 0.0
C2075 C 0.27128 0.57557 0.26795 0.0
C2076 C 0.25963 0.55109 0.26808 0.0
C2077 C 0.23894 0.54646 0.28456 0.0
C2078 C 0.27483 0.62109 0.28555 0.0
C2079 C 0.26835 0.53009 0.2501 0.0
H2080 H 0.29843 0.60556 0.18826 0.0
H2081 H 0.3564 0.58016 0.24083 0.0
H2082 H 0.2457 0.57791 0.21918 0.0
H2083 H 0.24804 0.60999 0.23104 0.0
H2084 H 0.25453 0.60354 0.19768 0.0
H2085 H 0.34681 0.56426 0.28185 0.0
H2086 H 0.31911 0.57938 0.29602 0.0
H2087 H 0.31655 0.54758 0.28352 0.0
H2088 H 0.23493 0.60462 0.31402 0.0
H2089 H 0.22963 0.52789 0.28407 0.0
H2090 H 0.27138 0.6309 0.26699 0.0
H2091 H 0.2959 0.61943 0.28799 0.0
H2092 H 0.26708 0.6333 0.30122 0.0
H2093 H 0.26447 0.53583 0.22998 0.0
H2094 H 0.25847 0.51159 0.25388 0.0
H2095 H 0.28933 0.52708 0.25186 0.0
C2096 C 0.08063 0.74375 0.8087 0.0
C2097 C 0.06031 0.72621 0.80685 0.0
C2098 C 0.08327 0.76386 0.79108 0.0
C2099 C 0.06508 0.76659 0.77114 0.0
C2100 C 0.04352 0.75013 0.77021 0.0
C2101 C 0.0414 0.73007 0.78807 0.0
C2102 C 0.10651 0.78107 0.79278 0.0
C2103 C 0.02356 0.75266 0.74942 0.0
C2104 C 0.06996 0.82774 0.73182 0.0
C2105 C 0.08549 0.81959 0.71147 0.0
C2106 C 0.06232 0.81051 0.75108 0.0
C2107 C 0.07039 0.78462 0.74973 0.0
C2108 C 0.08515 0.77613 0.72854 0.0
C2109 C 0.0924 0.79373 0.70958 0.0
C2110 C 0.04629 0.82014 0.77319 0.0
C2111 C 0.09413 0.74866 0.72637 0.0
H2112 H 0.09528 0.74107 0.82313 0.0
H2113 H 0.0255 0.71678 0.78658 0.0
H2114 H 0.11949 0.7771 0.77638 0.0
H2115 H 0.10076 0.80151 0.79154 0.0
H2116 H 0.11739 0.77813 0.81086 0.0
H2117 H 0.00618 0.74106 0.75359 0.0
H2118 H 0.01781 0.773 0.74695 0.0
H2119 H 0.03175 0.74606 0.73091 0.0
H2120 H 0.06397 0.84763 0.73277 0.0
H2121 H 0.10425 0.78744 0.69368 0.0
H2122 H 0.05764 0.81926 0.79116 0.0
H2123 H 0.02924 0.80771 0.7759 0.0
H2124 H 0.03978 0.84022 0.77026 0.0
H2125 H 0.1072 0.7441 0.74254 0.0
H2126 H 0.10442 0.74492 0.70809 0.0
H2127 H 0.07756 0.73538 0.72768 0.0
C2128 C 0.30313 0.39637 0.79043 0.0
C2129 C 0.32833 0.40531 0.7884 0.0
C2130 C 0.2847 0.40302 0.77207 0.0
C2131 C 0.29177 0.419 0.75126 0.0
C2132 C 0.317 0.42884 0.74966 0.0
C2133 C 0.33495 0.42209 0.7685 0.0
C2134 C 0.25785 0.39248 0.77461 0.0
C2135 C 0.32515 0.44602 0.72781 0.0
C2136 C 0.24935 0.41183 0.69283 0.0
C2137 C 0.23238 0.43246 0.69598 0.0
C2138 C 0.2696 0.40792 0.71006 0.0
C2139 C 0.27274 0.4249 0.73102 0.0
C2140 C 0.2564 0.44639 0.73365 0.0
C2141 C 0.23647 0.44998 0.71601 0.0
C2142 C 0.28693 0.38499 0.70647 0.0
C2143 C 0.25908 0.46482 0.75584 0.0
H2144 H 0.29802 0.38358 0.80602 0.0
H2145 H 0.35422 0.42982 0.76761 0.0
H2146 H 0.2437 0.40838 0.77447 0.0
H2147 H 0.25346 0.37992 0.758 0.0
H2148 H 0.25523 0.3812 0.79251 0.0
H2149 H 0.34535 0.45249 0.72971 0.0
H2150 H 0.32306 0.43563 0.70935 0.0
H2151 H 0.31256 0.46314 0.72687 0.0
H2152 H 0.24643 0.39834 0.67729 0.0
H2153 H 0.22345 0.46597 0.71863 0.0
H2154 H 0.2838 0.37113 0.72232 0.0
H2155 H 0.30734 0.39098 0.70721 0.0
H2156 H 0.28341 0.37502 0.68797 0.0
H2157 H 0.25411 0.45486 0.77399 0.0
H2158 H 0.2464 0.48183 0.75379 0.0
H2159 H 0.27919 0.4715 0.75759 0.0
C2160 C 0.91272 0.24705 0.81118 0.0
C2161 C 0.93471 0.26251 0.81183 0.0
C2162 C 0.91075 0.22653 0.79394 0.0
C2163 C 0.9313 0.22134 0.77697 0.0
C2164 C 0.95419 0.23578 0.77864 0.0
C2165 C 0.95562 0.25624 0.79604 0.0
C2166 C 0.88603 0.21147 0.79279 0.0
C2167 C 0.9766 0.23061 0.76104 0.0
C2168 C 0.92739 0.15888 0.73984 0.0
C2169 C 0.91581 0.16713 0.71706 0.0
C2170 C 0.93334 0.17642 0.75936 0.0
C2171 C 0.92764 0.20272 0.75578 0.0
C2172 C 0.91704 0.21122 0.73226 0.0
C2173 C 0.91138 0.19329 0.7131 0.0
C2174 C 0.94496 0.16675 0.78404 0.0
C2175 C 0.91075 0.23914 0.7277 0.0
H2176 H 0.89648 0.25168 0.82324 0.0
H2177 H 0.9728 0.26793 0.79653 0.0
H2178 H 0.87601 0.2157 0.7745 0.0
H2179 H 0.89002 0.19058 0.79317 0.0
H2180 H 0.87294 0.21622 0.80893 0.0
H2181 H 0.99412 0.24111 0.76708 0.0
H2182 H 0.98097 0.20979 0.76038 0.0
H2183 H 0.97163 0.23668 0.74126 0.0
H2184 H 0.93141 0.13865 0.74252 0.0
H2185 H 0.90259 0.1996 0.69534 0.0
H2186 H 0.93113 0.16943 0.8 0.0
H2187 H 0.96239 0.17795 0.78887 0.0
H2188 H 0.95014 0.14611 0.78296 0.0
H2189 H 0.89582 0.24547 0.7415 0.0
H2190 H 0.90365 0.24271 0.70793 0.0
H2191 H 0.92796 0.25119 0.731 0.0
C2192 C 0.68919 0.59978 0.78348 0.0
C2193 C 0.66285 0.59703 0.77935 0.0
C2194 C 0.70691 0.59148 0.76508 0.0
C2195 C 0.69796 0.58002 0.74213 0.0
C2196 C 0.67137 0.57621 0.73837 0.0
C2197 C 0.65409 0.58462 0.75719 0.0
C2198 C 0.73517 0.59568 0.76986 0.0
C2199 C 0.6612 0.56387 0.71424 0.0
C2200 C 0.74486 0.58681 0.6873 0.0
C2201 C 0.75806 0.5634 0.68856 0.0
C2202 C 0.72414 0.59188 0.70364 0.0
C2203 C 0.71657 0.57314 0.72176 0.0
C2204 C 0.72868 0.54886 0.72201 0.0
C2205 C 0.74928 0.54424 0.70534 0.0
C2206 C 0.71147 0.61791 0.70262 0.0
C2207 C 0.72105 0.52837 0.741 0.0
H2208 H 0.69591 0.60914 0.8008 0.0
H2209 H 0.63368 0.58172 0.75449 0.0
H2210 H 0.74572 0.57729 0.76804 0.0
H2211 H 0.74304 0.60899 0.75523 0.0
H2212 H 0.73898 0.60382 0.78918 0.0
H2213 H 0.64009 0.56106 0.71491 0.0
H2214 H 0.66589 0.57606 0.69743 0.0
H2215 H 0.67052 0.545 0.71112 0.0
H2216 H 0.75141 0.6017 0.67438 0.0
H2217 H 0.75928 0.52604 0.70639 0.0
H2218 H 0.71645 0.62893 0.72014 0.0
H2219 H 0.6903 0.61589 0.70219 0.0
H2220 H 0.71761 0.62918 0.68559 0.0
H2221 H 0.72721 0.53418 0.76053 0.0
H2222 H 0.72992 0.50953 0.73647 0.0
H2223 H 0.69991 0.52605 0.74146 0.0
C2224 C 0.18441 0.08617 0.25169 0.0
C2225 C 0.18468 0.06416 0.26715 0.0
C2226 C 0.20085 0.08843 0.23052 0.0
C2227 C 0.21796 0.06817 0.22468 0.0
C2228 C 0.21707 0.04519 0.23906 0.0
C2229 C 0.20042 0.04344 0.26013 0.0
C2230 C 0.20108 0.11318 0.21547 0.0
C2231 C 0.23485 0.02307 0.23327 0.0
C2232 C 0.25348 0.07262 0.16126 0.0
C2233 C 0.27625 0.08466 0.16887 0.0
C2234 C 0.23448 0.06642 0.17929 0.0
C2235 C 0.23859 0.07225 0.20548 0.0
C2236 C 0.26214 0.08327 0.21335 0.0
C2237 C 0.28076 0.08923 0.19491 0.0
C2238 C 0.20975 0.05441 0.17026 0.0
C2239 C 0.26731 0.08963 0.24114 0.0
H2240 H 0.17233 0.10225 0.25685 0.0
H2241 H 0.20063 0.02622 0.27179 0.0
H2242 H 0.21922 0.12363 0.21929 0.0
H2243 H 0.2003 0.10921 0.19458 0.0
H2244 H 0.18477 0.12589 0.22064 0.0
H2245 H 0.22933 0.00539 0.2438 0.0
H2246 H 0.23507 0.01885 0.21242 0.0
H2247 H 0.25469 0.02831 0.23889 0.0
H2248 H 0.25038 0.06848 0.14111 0.0
H2249 H 0.29849 0.09838 0.20076 0.0
H2250 H 0.19368 0.06801 0.17335 0.0
H2251 H 0.20546 0.03691 0.18157 0.0
H2252 H 0.21039 0.04925 0.14959 0.0
H2253 H 0.25345 0.10434 0.24784 0.0
H2254 H 0.28705 0.09705 0.2442 0.0
H2255 H 0.26459 0.07235 0.25326 0.0
C2256 C 0.60215 0.20621 0.30223 0.0
C2257 C 0.59448 0.20937 0.32776 0.0
C2258 C 0.59494 0.22397 0.28339 0.0
C2259 C 0.57966 0.24534 0.29032 0.0
C2260 C 0.57109 0.2481 0.31594 0.0
C2261 C 0.57839 0.22986 0.33433 0.0
C2262 C 0.60416 0.22017 0.25618 0.0
C2263 C 0.55469 0.27057 0.32399 0.0
C2264 C 0.58589 0.30205 0.24527 0.0
C2265 C 0.56448 0.29873 0.22935 0.0
C2266 C 0.59041 0.2855 0.26599 0.0
C2267 C 0.57324 0.265 0.27073 0.0
C2268 C 0.55099 0.26224 0.25547 0.0
C2269 C 0.5468 0.27923 0.23504 0.0
C2270 C 0.61417 0.28927 0.28211 0.0
C2271 C 0.5323 0.24055 0.25986 0.0
H2272 H 0.61439 0.19018 0.29714 0.0
H2273 H 0.57162 0.23168 0.35391 0.0
H2274 H 0.58762 0.22007 0.2428 0.0
H2275 H 0.61678 0.23635 0.25053 0.0
H2276 H 0.61498 0.20197 0.25376 0.0
H2277 H 0.54914 0.26957 0.34455 0.0
H2278 H 0.56528 0.28874 0.32069 0.0
H2279 H 0.53703 0.27136 0.31218 0.0
H2280 H 0.59954 0.31718 0.24115 0.0
H2281 H 0.53018 0.27649 0.22286 0.0
H2282 H 0.62757 0.27304 0.27896 0.0
H2283 H 0.60912 0.28942 0.30279 0.0
H2284 H 0.6243 0.30742 0.27741 0.0
H2285 H 0.54168 0.22204 0.25513 0.0
H2286 H 0.51477 0.24249 0.24791 0.0
H2287 H 0.52654 0.23968 0.28032 0.0
C2288 C 0.80021 0.90611 0.26006 0.0
C2289 C 0.80933 0.93003 0.26818 0.0
C2290 C 0.78314 0.90415 0.23943 0.0
C2291 C 0.77574 0.92659 0.22603 0.0
C2292 C 0.78601 0.95066 0.23326 0.0
C2293 C 0.80233 0.95218 0.25464 0.0
C2294 C 0.77216 0.87817 0.23275 0.0
C2295 C 0.77937 0.97482 0.21875 0.0
C2296 C 0.74425 0.91032 0.16271 0.0
C2297 C 0.7181 0.91168 0.16908 0.0
C2298 C 0.76328 0.91734 0.1804 0.0
C2299 C 0.7561 0.92471 0.20549 0.0
C2300 C 0.72983 0.92713 0.21181 0.0
C2301 C 0.71122 0.92101 0.19342 0.0
C2302 C 0.79112 0.9153 0.17267 0.0
C2303 C 0.72132 0.93434 0.23856 0.0
H2304 H 0.80544 0.88899 0.27064 0.0
H2305 H 0.80955 0.97067 0.26082 0.0
H2306 H 0.75097 0.87858 0.2348 0.0
H2307 H 0.77648 0.87336 0.21249 0.0
H2308 H 0.77985 0.86265 0.24516 0.0
H2309 H 0.79125 0.9914 0.2249 0.0
H2310 H 0.78207 0.97182 0.19784 0.0
H2311 H 0.75891 0.97969 0.22187 0.0
H2312 H 0.75032 0.90249 0.14459 0.0
H2313 H 0.69114 0.92232 0.19864 0.0
H2314 H 0.79951 0.89759 0.18093 0.0
H2315 H 0.80225 0.93182 0.18017 0.0
H2316 H 0.79343 0.91452 0.15149 0.0
H2317 H 0.72695 0.91896 0.25216 0.0
H2318 H 0.70023 0.93711 0.23987 0.0
H2319 H 0.73091 0.95222 0.24489 0.0
C2320 C 0.45681 0.71292 0.22982 0.0
C2321 C 0.44114 0.69111 0.22788 0.0
C2322 C 0.45301 0.73097 0.24945 0.0
C2323 C 0.43309 0.72707 0.26749 0.0
C2324 C 0.41855 0.70417 0.26676 0.0
C2325 C 0.42284 0.68643 0.24702 0.0
C2326 C 0.46913 0.75502 0.24979 0.0
C2327 C 0.39726 0.69917 0.28577 0.0
C2328 C 0.42595 0.76815 0.32729 0.0
C2329 C 0.40671 0.78529 0.31964 0.0
C2330 C 0.43538 0.74947 0.31031 0.0
C2331 C 0.42533 0.74806 0.28514 0.0
C2332 C 0.40664 0.76603 0.27704 0.0
C2333 C 0.39767 0.7845 0.29437 0.0
C2334 C 0.45561 0.7309 0.31946 0.0
C2335 C 0.39545 0.76519 0.25033 0.0
H2336 H 0.47116 0.71665 0.21523 0.0
H2337 H 0.41111 0.66936 0.24607 0.0
H2338 H 0.45742 0.77148 0.24309 0.0
H2339 H 0.47561 0.75945 0.26956 0.0
H2340 H 0.48621 0.75335 0.23715 0.0
H2341 H 0.38949 0.67939 0.28415 0.0
H2342 H 0.40418 0.70217 0.30566 0.0
H2343 H 0.38138 0.71294 0.28243 0.0
H2344 H 0.43371 0.76935 0.34649 0.0
H2345 H 0.38286 0.79781 0.28837 0.0
H2346 H 0.4721 0.73077 0.30601 0.0
H2347 H 0.44762 0.71118 0.3198 0.0
H2348 H 0.46269 0.73567 0.33898 0.0
H2349 H 0.41098 0.76611 0.23582 0.0
H2350 H 0.38185 0.7812 0.24675 0.0
H2351 H 0.38514 0.74679 0.24745 0.0
C2352 C 0.25601 0.92419 0.83254 0.0
C2353 C 0.27828 0.91027 0.82689 0.0
C2354 C 0.23792 0.92955 0.81336 0.0
C2355 C 0.24241 0.92087 0.78803 0.0
C2356 C 0.2655 0.90785 0.78206 0.0
C2357 C 0.28325 0.90283 0.80159 0.0
C2358 C 0.21367 0.94376 0.82034 0.0
C2359 C 0.27104 0.89835 0.75524 0.0
C2360 C 0.18784 0.90567 0.74269 0.0
C2361 C 0.18929 0.92616 0.72531 0.0
C2362 C 0.20425 0.90434 0.76392 0.0
C2363 C 0.22252 0.92401 0.76792 0.0
C2364 C 0.22313 0.94547 0.75132 0.0
C2365 C 0.20652 0.94628 0.73018 0.0
C2366 C 0.20296 0.88117 0.78128 0.0
C2367 C 0.24219 0.96693 0.75512 0.0
H2368 H 0.25257 0.93048 0.85206 0.0
H2369 H 0.30059 0.8922 0.79727 0.0
H2370 H 0.21075 0.96025 0.80722 0.0
H2371 H 0.19693 0.93083 0.81808 0.0
H2372 H 0.21402 0.95093 0.8404 0.0
H2373 H 0.29041 0.88966 0.75357 0.0
H2374 H 0.25658 0.88375 0.7497 0.0
H2375 H 0.26955 0.91437 0.74132 0.0
H2376 H 0.1746 0.89008 0.73918 0.0
H2377 H 0.20767 0.96232 0.717 0.0
H2378 H 0.20171 0.88722 0.80164 0.0
H2379 H 0.22075 0.86969 0.77914 0.0
H2380 H 0.18629 0.86867 0.77684 0.0
H2381 H 0.24203 0.97355 0.77535 0.0
H2382 H 0.23819 0.98358 0.74243 0.0
H2383 H 0.2618 0.95983 0.75092 0.0
C2384 C 0.41079 0.30451 0.75383 0.0
C2385 C 0.43228 0.30291 0.76991 0.0
C2386 C 0.40679 0.2865 0.73425 0.0
C2387 C 0.42463 0.26632 0.73078 0.0
C2388 C 0.44684 0.26512 0.74628 0.0
C2389 C 0.45044 0.28348 0.76561 0.0
C2390 C 0.38299 0.28854 0.71788 0.0
C2391 C 0.46627 0.24385 0.74319 0.0
C2392 C 0.39802 0.20532 0.70156 0.0
C2393 C 0.40564 0.20781 0.67594 0.0
C2394 C 0.40455 0.22402 0.71974 0.0
C2395 C 0.41914 0.2456 0.71203 0.0
C2396 C 0.42775 0.24765 0.68636 0.0
C2397 C 0.42107 0.22854 0.66863 0.0
C2398 C 0.39527 0.22101 0.74702 0.0
C2399 C 0.44346 0.2703 0.6775 0.0
H2400 H 0.39673 0.31947 0.75689 0.0
H2401 H 0.46714 0.28204 0.7779 0.0
H2402 H 0.38819 0.28811 0.69724 0.0
H2403 H 0.37033 0.27184 0.72158 0.0
H2404 H 0.372 0.30637 0.72179 0.0
H2405 H 0.48347 0.2468 0.7554 0.0
H2406 H 0.45737 0.22525 0.74845 0.0
H2407 H 0.47248 0.24237 0.7229 0.0
H2408 H 0.38628 0.18911 0.70721 0.0
H2409 H 0.42773 0.2299 0.64898 0.0
H2410 H 0.38201 0.23692 0.7519 0.0
H2411 H 0.41169 0.22209 0.7605 0.0
H2412 H 0.38512 0.20253 0.75012 0.0
H2413 H 0.43217 0.2882 0.67978 0.0
H2414 H 0.4494 0.26855 0.6571 0.0
H2415 H 0.46089 0.27229 0.68953 0.0
C2416 C 0.79149 0.04298 0.72786 0.0
C2417 C 0.813 0.0591 0.72632 0.0
C2418 C 0.77373 0.04547 0.74794 0.0
C2419 C 0.77761 0.06451 0.7669 0.0
C2420 C 0.80034 0.07933 0.76663 0.0
C2421 C 0.8178 0.07639 0.74637 0.0
C2422 C 0.74985 0.02911 0.74768 0.0
C2423 C 0.80531 0.09968 0.78663 0.0
C2424 C 0.71867 0.09732 0.79375 0.0
C2425 C 0.71685 0.08648 0.81824 0.0
C2426 C 0.73828 0.09014 0.77688 0.0
C2427 C 0.75642 0.07148 0.78463 0.0
C2428 C 0.75436 0.06001 0.80918 0.0
C2429 C 0.73445 0.06761 0.82571 0.0
C2430 C 0.73976 0.10282 0.75085 0.0
C2431 C 0.77319 0.03987 0.81794 0.0
H2432 H 0.7877 0.02934 0.71264 0.0
H2433 H 0.8346 0.08853 0.7457 0.0
H2434 H 0.74558 0.02167 0.76715 0.0
H2435 H 0.73326 0.04097 0.7416 0.0
H2436 H 0.75161 0.01264 0.73427 0.0
H2437 H 0.82524 0.10713 0.78569 0.0
H2438 H 0.79191 0.11595 0.78364 0.0
H2439 H 0.80176 0.09202 0.80616 0.0
H2440 H 0.70496 0.11185 0.78796 0.0
H2441 H 0.73249 0.0586 0.84434 0.0
H2442 H 0.73896 0.08809 0.73551 0.0
H2443 H 0.75829 0.11308 0.74884 0.0
H2444 H 0.72395 0.11675 0.7477 0.0
H2445 H 0.77309 0.02344 0.80442 0.0
H2446 H 0.76878 0.03266 0.83751 0.0
H2447 H 0.79289 0.04789 0.81791 0.0
C2448 C 0.53772 0.71983 0.76061 0.0
C2449 C 0.55456 0.69898 0.76332 0.0
C2450 C 0.54105 0.73784 0.7409 0.0
C2451 C 0.56161 0.73483 0.72345 0.0
C2452 C 0.57737 0.71277 0.72484 0.0
C2453 C 0.57363 0.69509 0.74476 0.0
C2454 C 0.52373 0.76104 0.73997 0.0
C2455 C 0.5993 0.7087 0.70636 0.0
C2456 C 0.56732 0.7764 0.66384 0.0
C2457 C 0.58556 0.7945 0.67175 0.0
C2458 C 0.55885 0.75707 0.68058 0.0
C2459 C 0.56867 0.7561 0.70586 0.0
C2460 C 0.58618 0.77507 0.71427 0.0
C2461 C 0.59436 0.79406 0.69712 0.0
C2462 C 0.53991 0.73735 0.67107 0.0
C2463 C 0.59695 0.77483 0.74117 0.0
H2464 H 0.52278 0.72296 0.77474 0.0
H2465 H 0.58633 0.67878 0.74634 0.0
H2466 H 0.53442 0.77811 0.74682 0.0
H2467 H 0.51752 0.76501 0.72002 0.0
H2468 H 0.50644 0.75859 0.75219 0.0
H2469 H 0.60786 0.68926 0.70819 0.0
H2470 H 0.59277 0.71143 0.6863 0.0
H2471 H 0.61449 0.72312 0.71011 0.0
H2472 H 0.55962 0.77731 0.6446 0.0
H2473 H 0.60838 0.80808 0.70336 0.0
H2474 H 0.52311 0.73642 0.6841 0.0
H2475 H 0.54898 0.7181 0.67111 0.0
H2476 H 0.53308 0.74159 0.65134 0.0
H2477 H 0.58114 0.77484 0.75542 0.0
H2478 H 0.60955 0.79158 0.745 0.0
H2479 H 0.60824 0.75704 0.74423 0.0
C2480 C 0.2519 0.20015 0.03946 0.0
C2481 C 0.25688 0.18128 0.05803 0.0
C2482 C 0.23079 0.21662 0.04183 0.0
C2483 C 0.21435 0.21414 0.06327 0.0
C2484 C 0.21782 0.19359 0.08064 0.0
C2485 C 0.23901 0.17733 0.07773 0.0
C2486 C 0.22748 0.23806 0.02264 0.0
C2487 C 0.20054 0.19015 0.10365 0.0
C2488 C 0.18817 0.27507 0.09263 0.0
C2489 C 0.1624 0.27407 0.08538 0.0
C2490 C 0.2053 0.2558 0.08519 0.0
C2491 C 0.1964 0.2352 0.06987 0.0
C2492 C 0.17053 0.23457 0.06173 0.0
C2493 C 0.15376 0.25414 0.06958 0.0
C2494 C 0.23278 0.2572 0.09426 0.0
C2495 C 0.16053 0.21309 0.04509 0.0
H2496 H 0.26535 0.20318 0.02388 0.0
H2497 H 0.24228 0.16247 0.0918 0.0
H2498 H 0.207 0.24056 0.01752 0.0
H2499 H 0.2342 0.25632 0.03127 0.0
H2500 H 0.23866 0.23458 0.00483 0.0
H2501 H 0.2035 0.17128 0.11312 0.0
H2502 H 0.20458 0.20549 0.11784 0.0
H2503 H 0.18011 0.19186 0.09804 0.0
H2504 H 0.1948 0.29062 0.10476 0.0
H2505 H 0.13392 0.25387 0.06341 0.0
H2506 H 0.246 0.25691 0.07758 0.0
H2507 H 0.23729 0.24021 0.10626 0.0
H2508 H 0.23667 0.27477 0.10567 0.0
H2509 H 0.17244 0.21125 0.02755 0.0
H2510 H 0.14025 0.21615 0.03934 0.0
H2511 H 0.1619 0.19463 0.05558 0.0
C2512 C 0.24839 0.79861 0.95879 0.0
C2513 C 0.25331 0.81766 0.94037 0.0
C2514 C 0.22794 0.78145 0.95581 0.0
C2515 C 0.21196 0.78354 0.93401 0.0
C2516 C 0.21518 0.80431 0.91683 0.0
C2517 C 0.23585 0.82115 0.92023 0.0
C2518 C 0.22505 0.75966 0.97468 0.0
C2519 C 0.19821 0.80743 0.89358 0.0
C2520 C 0.18877 0.72158 0.9043 0.0
C2521 C 0.16305 0.72108 0.91187 0.0
C2522 C 0.20486 0.74176 0.9116 0.0
C2523 C 0.19493 0.76189 0.92693 0.0
C2524 C 0.1691 0.76116 0.93521 0.0
C2525 C 0.15346 0.74054 0.92773 0.0
C2526 C 0.23241 0.74169 0.9026 0.0
C2527 C 0.15798 0.7822 0.9517 0.0
H2528 H 0.26153 0.7959 0.97466 0.0
H2529 H 0.2391 0.83614 0.90626 0.0
H2530 H 0.2046 0.75641 0.97949 0.0
H2531 H 0.2325 0.74175 0.96591 0.0
H2532 H 0.23583 0.76327 0.9927 0.0
H2533 H 0.20054 0.82658 0.88452 0.0
H2534 H 0.20319 0.79256 0.87918 0.0
H2535 H 0.17776 0.80473 0.89879 0.0
H2536 H 0.19618 0.70639 0.89216 0.0
H2537 H 0.13379 0.73959 0.93437 0.0
H2538 H 0.24553 0.74257 0.91932 0.0
H2539 H 0.23616 0.7589 0.89065 0.0
H2540 H 0.23718 0.72435 0.89116 0.0
H2541 H 0.16913 0.78401 0.96972 0.0
H2542 H 0.13756 0.77866 0.95663 0.0
H2543 H 0.1594 0.80085 0.94154 0.0
C2544 C 0.30263 0.24529 0.55237 0.0
C2545 C 0.30878 0.22915 0.57297 0.0
C2546 C 0.28647 0.26655 0.5559 0.0
C2547 C 0.27561 0.27111 0.58037 0.0
C2548 C 0.28215 0.25509 0.6013 0.0
C2549 C 0.299 0.23456 0.59741 0.0
C2550 C 0.28066 0.28382 0.5334 0.0
C2551 C 0.27051 0.25894 0.62757 0.0
C2552 C 0.24554 0.33357 0.60183 0.0
C2553 C 0.21928 0.32853 0.59855 0.0
C2554 C 0.26421 0.31581 0.59413 0.0
C2555 C 0.25647 0.29184 0.58412 0.0
C2556 C 0.23012 0.28672 0.58028 0.0
C2557 C 0.21191 0.30525 0.5872 0.0
C2558 C 0.29219 0.32222 0.59797 0.0
C2559 C 0.22104 0.26109 0.57026 0.0
H2560 H 0.31032 0.24119 0.53348 0.0
H2561 H 0.30354 0.22196 0.61333 0.0
H2562 H 0.26016 0.28203 0.52806 0.0
H2563 H 0.28405 0.30416 0.53871 0.0
H2564 H 0.29254 0.2791 0.51635 0.0
H2565 H 0.27763 0.24475 0.64177 0.0
H2566 H 0.27489 0.27847 0.63477 0.0
H2567 H 0.24933 0.25725 0.62637 0.0
H2568 H 0.25185 0.35068 0.6115 0.0
H2569 H 0.19173 0.30103 0.58457 0.0
H2570 H 0.3036 0.31656 0.5809 0.0
H2571 H 0.29977 0.31137 0.61462 0.0
H2572 H 0.29518 0.343 0.60161 0.0
H2573 H 0.23079 0.25639 0.55195 0.0
H2574 H 0.19999 0.26065 0.56707 0.0
H2575 H 0.22608 0.24581 0.58422 0.0
C2576 C 0.80069 0.27964 0.90057 0.0
C2577 C 0.82585 0.27708 0.90951 0.0
C2578 C 0.78232 0.26072 0.9056 0.0
C2579 C 0.78933 0.23879 0.92002 0.0
C2580 C 0.81451 0.23656 0.92988 0.0
C2581 C 0.83248 0.25592 0.92466 0.0
C2582 C 0.75557 0.26393 0.89496 0.0
C2583 C 0.82256 0.21354 0.94549 0.0
C2584 C 0.73223 0.2026 0.94624 0.0
C2585 C 0.728 0.18449 0.92675 0.0
C2586 C 0.75312 0.21948 0.94514 0.0
C2587 C 0.77022 0.21812 0.92412 0.0
C2588 C 0.76714 0.19871 0.90539 0.0
C2589 C 0.74602 0.18212 0.90691 0.0
C2590 C 0.75581 0.23987 0.96554 0.0
C2591 C 0.78518 0.1965 0.88283 0.0
H2592 H 0.79557 0.29614 0.88899 0.0
H2593 H 0.85174 0.25446 0.9323 0.0
H2594 H 0.75132 0.24817 0.88131 0.0
H2595 H 0.74127 0.26278 0.91068 0.0
H2596 H 0.75305 0.28252 0.88484 0.0
H2597 H 0.84261 0.21516 0.95249 0.0
H2598 H 0.80963 0.21114 0.96222 0.0
H2599 H 0.82089 0.19591 0.93367 0.0
H2600 H 0.71857 0.20445 0.96181 0.0
H2601 H 0.74306 0.16808 0.89188 0.0
H2602 H 0.75068 0.25881 0.95731 0.0
H2603 H 0.77594 0.24112 0.97229 0.0
H2604 H 0.74318 0.23617 0.98231 0.0
H2605 H 0.78231 0.2131 0.86982 0.0
H2606 H 0.782 0.1786 0.87172 0.0
H2607 H 0.8054 0.19698 0.88938 0.0
C2608 C 0.68963 0.74686 0.55661 0.0
C2609 C 0.68537 0.76499 0.576 0.0
C2610 C 0.70579 0.72579 0.56079 0.0
C2611 C 0.71856 0.72339 0.58461 0.0
C2612 C 0.7137 0.74124 0.6045 0.0
C2613 C 0.6968 0.76165 0.60006 0.0
C2614 C 0.70982 0.70657 0.5395 0.0
C2615 C 0.72738 0.73961 0.62998 0.0
C2616 C 0.75049 0.66202 0.60649 0.0
C2617 C 0.77621 0.66645 0.59982 0.0
C2618 C 0.73128 0.67976 0.60035 0.0
C2619 C 0.73808 0.70308 0.58837 0.0
C2620 C 0.76391 0.70775 0.58149 0.0
C2621 C 0.7826 0.68925 0.58704 0.0
C2622 C 0.70383 0.67392 0.60759 0.0
C2623 C 0.77199 0.73273 0.56922 0.0
H2624 H 0.68064 0.7494 0.53804 0.0
H2625 H 0.69371 0.77582 0.61497 0.0
H2626 H 0.72977 0.70797 0.53224 0.0
H2627 H 0.70713 0.68677 0.54686 0.0
H2628 H 0.69647 0.70972 0.52321 0.0
H2629 H 0.72088 0.75462 0.64365 0.0
H2630 H 0.72425 0.72055 0.63886 0.0
H2631 H 0.74834 0.74182 0.62697 0.0
H2632 H 0.74521 0.64536 0.61753 0.0
H2633 H 0.80243 0.69297 0.582 0.0
H2634 H 0.69083 0.67797 0.59124 0.0
H2635 H 0.69785 0.68642 0.62373 0.0
H2636 H 0.70124 0.65361 0.61351 0.0
H2637 H 0.76099 0.73603 0.55132 0.0
H2638 H 0.79278 0.73312 0.56456 0.0
H2639 H 0.76768 0.7489 0.58238 0.0
C2640 C 0.80341 0.72405 0.08903 0.0
C2641 C 0.82974 0.72612 0.08442 0.0
C2642 C 0.78675 0.74412 0.08276 0.0
C2643 C 0.79674 0.76677 0.07155 0.0
C2644 C 0.82325 0.76863 0.06606 0.0
C2645 C 0.83945 0.74807 0.07234 0.0
C2646 C 0.75851 0.74126 0.0886 0.0
C2647 C 0.83448 0.79243 0.054 0.0
C2648 C 0.74433 0.80541 0.0402 0.0
C2649 C 0.73655 0.82112 0.06065 0.0
C2650 C 0.76543 0.78897 0.04267 0.0
C2651 C 0.77913 0.78841 0.06606 0.0
C2652 C 0.77301 0.80608 0.08575 0.0
C2653 C 0.75174 0.82225 0.08283 0.0
C2654 C 0.77147 0.77055 0.02114 0.0
C2655 C 0.78748 0.80634 0.11083 0.0
H2656 H 0.79591 0.70694 0.09818 0.0
H2657 H 0.85973 0.7492 0.06793 0.0
H2658 H 0.75248 0.75614 0.10258 0.0
H2659 H 0.74707 0.74413 0.0709 0.0
H2660 H 0.75379 0.72211 0.09668 0.0
H2661 H 0.85536 0.79047 0.05021 0.0
H2662 H 0.82459 0.79676 0.03568 0.0
H2663 H 0.83144 0.80911 0.06687 0.0
H2664 H 0.73296 0.80465 0.02282 0.0
H2665 H 0.74612 0.83459 0.09859 0.0
H2666 H 0.76434 0.75116 0.0263 0.0
H2667 H 0.79245 0.76903 0.01805 0.0
H2668 H 0.76226 0.77641 0.00284 0.0
H2669 H 0.78204 0.78923 0.12228 0.0
H2670 H 0.78317 0.82376 0.12234 0.0
H2671 H 0.80845 0.80537 0.10743 0.0
C2672 C 0.20757 0.69229 0.38412 0.0
C2673 C 0.20818 0.66733 0.39409 0.0
C2674 C 0.22698 0.70995 0.38981 0.0
C2675 C 0.24761 0.70239 0.40571 0.0
C2676 C 0.24818 0.67737 0.41619 0.0
C2677 C 0.22819 0.66027 0.41059 0.0
C2678 C 0.22542 0.73669 0.37874 0.0
C2679 C 0.26989 0.66869 0.43326 0.0
C2680 C 0.30673 0.74443 0.40032 0.0
C2681 C 0.30337 0.76091 0.42129 0.0
C2682 C 0.28935 0.72439 0.39565 0.0
C2683 C 0.26798 0.72115 0.41213 0.0
C2684 C 0.26503 0.73714 0.43381 0.0
C2685 C 0.28285 0.75669 0.43822 0.0
C2686 C 0.29332 0.7073 0.37262 0.0
C2687 C 0.24229 0.73455 0.45162 0.0
H2688 H 0.1921 0.69793 0.37143 0.0
H2689 H 0.22822 0.64152 0.41939 0.0
H2690 H 0.22546 0.75106 0.39445 0.0
H2691 H 0.24247 0.74053 0.3666 0.0
H2692 H 0.20792 0.73959 0.36695 0.0
H2693 H 0.26813 0.64818 0.43878 0.0
H2694 H 0.28851 0.67151 0.42334 0.0
H2695 H 0.27033 0.68046 0.45097 0.0
H2696 H 0.32264 0.74749 0.38726 0.0
H2697 H 0.27994 0.76941 0.4544 0.0
H2698 H 0.27791 0.71081 0.35838 0.0
H2699 H 0.29212 0.68683 0.37834 0.0
H2700 H 0.31212 0.71071 0.3632 0.0
H2701 H 0.22444 0.73939 0.44111 0.0
H2702 H 0.2438 0.74734 0.46861 0.0
H2703 H 0.24039 0.71448 0.4584 0.0
C2704 C 0.6922 0.24916 0.41218 0.0
C2705 C 0.69495 0.23272 0.43327 0.0
C2706 C 0.70932 0.26952 0.4082 0.0
C2707 C 0.72973 0.27339 0.42567 0.0
C2708 C 0.73194 0.25762 0.44761 0.0
C2709 C 0.71448 0.23753 0.45119 0.0
C2710 C 0.70619 0.28621 0.38473 0.0
C2711 C 0.7535 0.26112 0.46662 0.0
C2712 C 0.78907 0.30461 0.39778 0.0
C2713 C 0.78598 0.33004 0.40572 0.0
C2714 C 0.77116 0.28581 0.4047 0.0
C2715 C 0.74977 0.29274 0.41995 0.0
C2716 C 0.74723 0.3182 0.429 0.0
C2717 C 0.7656 0.33654 0.42197 0.0
C2718 C 0.77471 0.25873 0.39502 0.0
C2719 C 0.72476 0.32622 0.44541 0.0
H2720 H 0.67712 0.24574 0.39836 0.0
H2721 H 0.71685 0.22495 0.46755 0.0
H2722 H 0.70625 0.30677 0.39024 0.0
H2723 H 0.7226 0.28312 0.37153 0.0
H2724 H 0.68816 0.28201 0.3742 0.0
H2725 H 0.75114 0.24881 0.48386 0.0
H2726 H 0.77202 0.25624 0.45733 0.0
H2727 H 0.75471 0.28142 0.47286 0.0
H2728 H 0.80503 0.29962 0.3854 0.0
H2729 H 0.76381 0.35609 0.42883 0.0
H2730 H 0.7587 0.25361 0.38199 0.0
H2731 H 0.77427 0.24501 0.41129 0.0
H2732 H 0.79307 0.25624 0.38449 0.0
H2733 H 0.70669 0.32386 0.43443 0.0
H2734 H 0.72623 0.3465 0.45178 0.0
H2735 H 0.72335 0.31374 0.46259 0.0
loop_
_geom_bond_atom_site_label_1
_geom_bond_atom_site_label_2
_geom_bond_distance
_geom_bond_site_symmetry_2
_ccdc_geom_bond_type
Co0 O3 1.970 . S
Co0 N17 1.989 . S
Co0 O25 1.967 . S
Co0 O32 1.920 . S
Co1 O4 1.966 . S
Co1 N10 2.022 . S
Co1 N18 1.993 . S
Co1 O26 1.941 . S
C2 O3 1.258 . S
C2 O4 1.263 . S
O3 Co0 1.970 . S
O3 C2 1.258 . S
O4 Co1 1.966 . S
O4 C2 1.263 . S
C5 O6 1.238 . S
C5 O32 1.258 1_655 S
O6 C5 1.238 . S
C7 C9 1.400 . S
C7 N10 1.351 . S
C7 C12 1.501 . S
C8 C9 1.387 . S
C8 N11 1.341 . S
C9 C7 1.400 . S
C9 C8 1.387 . S
N10 Co1 2.022 . S
N10 C7 1.351 . S
N10 N11 1.365 . S
N11 C8 1.341 . S
N11 N10 1.365 . S
N11 H31 0.862 . S
C12 C7 1.501 . S
C12 H13 0.961 . S
C12 H14 0.961 . S
C12 H15 0.960 . S
H13 C12 0.961 . S
H14 C12 0.961 . S
H15 C12 0.960 . S
C16 N17 1.342 . S
C16 C20 1.401 . S
C16 C21 1.499 . S
N17 Co0 1.989 . S
N17 C16 1.342 . S
N17 N18 1.388 . S
N18 Co1 1.993 . S
N18 N17 1.388 . S
N18 C19 1.346 . S
C19 N18 1.346 . S
C19 C20 1.396 . S
C19 C29 1.510 . S
C20 C16 1.401 . S
C20 C19 1.396 . S
C21 C16 1.499 . S
C21 H22 0.959 . S
C21 H23 0.960 1_455 S
C21 H24 0.961 . S
H22 C21 0.959 . S
H23 C21 0.960 1_655 S
H24 C21 0.961 . S
O25 Co0 1.967 . S
O25 C33 1.258 . S
O26 Co1 1.941 . S
O26 C33 1.266 . S
H27 C29 0.959 . S
H28 C29 0.961 . S
C29 C19 1.510 . S
C29 H27 0.959 . S
C29 H28 0.961 . S
C29 H30 0.960 . S
H30 C29 0.960 . S
H31 N11 0.862 . S
O32 Co0 1.920 . S
O32 C5 1.258 1_455 S
C33 O25 1.258 . S
C33 O26 1.266 . S
Co34 O37 1.970 . S
Co34 N51 1.989 . S
Co34 O59 1.967 . S
Co34 O66 1.920 . S
Co35 O38 1.966 . S
Co35 N44 2.022 . S
Co35 N52 1.993 . S
Co35 O60 1.941 . S
C36 O37 1.258 . S
C36 O38 1.263 . S
O37 Co34 1.970 . S
O37 C36 1.258 . S
O38 Co35 1.966 . S
O38 C36 1.263 . S
C39 O40 1.235 . S
C39 O66 1.289 . S
O40 C39 1.235 . S
C41 C43 1.400 . S
C41 N44 1.351 . S
C41 C46 1.501 . S
C42 C43 1.387 . S
C42 N45 1.341 . S
C43 C41 1.400 . S
C43 C42 1.387 . S
N44 Co35 2.022 . S
N44 C41 1.351 . S
N44 N45 1.365 . S
N45 C42 1.341 . S
N45 N44 1.365 . S
N45 H65 0.862 . S
C46 C41 1.501 . S
C46 H47 0.961 . S
C46 H48 0.961 . S
C46 H49 0.960 . S
H47 C46 0.961 . S
H48 C46 0.961 . S
H49 C46 0.960 . S
C50 N51 1.342 . S
C50 C54 1.401 . S
C50 C55 1.499 . S
N51 Co34 1.989 . S
N51 C50 1.342 . S
N51 N52 1.388 . S
N52 Co35 1.993 . S
N52 N51 1.388 . S
N52 C53 1.346 . S
C53 N52 1.346 . S
C53 C54 1.396 . S
C53 C63 1.510 . S
C54 C50 1.401 . S
C54 C53 1.396 . S
C55 C50 1.499 . S
C55 H56 0.959 . S
C55 H57 0.960 . S
C55 H58 0.961 . S
H56 C55 0.959 . S
H57 C55 0.960 . S
H58 C55 0.961 . S
O59 Co34 1.967 . S
O59 C67 1.258 . S
O60 Co35 1.941 . S
O60 C67 1.266 . S
H61 C63 0.959 . S
H62 C63 0.961 . S
C63 C53 1.510 . S
C63 H61 0.959 . S
C63 H62 0.961 . S
C63 H64 0.960 . S
H64 C63 0.960 . S
H65 N45 0.862 . S
O66 Co34 1.920 . S
O66 C39 1.289 . S
C67 O59 1.258 . S
C67 O60 1.266 . S
Co68 O71 1.970 . S
Co68 N85 1.989 . S
Co68 O93 1.967 . S
Co68 O100 1.920 . S
Co69 O72 1.966 . S
Co69 N78 2.022 . S
Co69 N86 1.993 . S
Co69 O94 1.941 . S
C70 O71 1.258 . S
C70 O72 1.263 . S
O71 Co68 1.970 . S
O71 C70 1.258 . S
O72 Co69 1.966 . S
O72 C70 1.263 . S
C73 O74 1.238 . S
C73 O100 1.258 1_455 S
O74 C73 1.238 . S
C75 C77 1.400 . S
C75 N78 1.351 . S
C75 C80 1.501 . S
C76 C77 1.387 . S
C76 N79 1.341 . S
C77 C75 1.400 . S
C77 C76 1.387 . S
N78 Co69 2.022 . S
N78 C75 1.351 . S
N78 N79 1.365 . S
N79 C76 1.341 . S
N79 N78 1.365 . S
N79 H99 0.862 . S
C80 C75 1.501 . S
C80 H81 0.961 . S
C80 H82 0.961 . S
C80 H83 0.960 . S
H81 C80 0.961 . S
H82 C80 0.961 . S
H83 C80 0.960 . S
C84 N85 1.342 . S
C84 C88 1.401 . S
C84 C89 1.499 . S
N85 Co68 1.989 . S
N85 C84 1.342 . S
N85 N86 1.388 . S
N86 Co69 1.993 . S
N86 N85 1.388 . S
N86 C87 1.346 . S
C87 N86 1.346 . S
C87 C88 1.396 . S
C87 C97 1.510 . S
C88 C84 1.401 . S
C88 C87 1.396 . S
C89 C84 1.499 . S
C89 H90 0.959 . S
C89 H91 0.960 1_655 S
C89 H92 0.961 . S
H90 C89 0.959 . S
H91 C89 0.960 1_455 S
H92 C89 0.961 . S
O93 Co68 1.967 . S
O93 C101 1.258 . S
O94 Co69 1.941 . S
O94 C101 1.266 . S
H95 C97 0.959 . S
H96 C97 0.961 . S
C97 C87 1.510 . S
C97 H95 0.959 . S
C97 H96 0.961 . S
C97 H98 0.960 . S
H98 C97 0.960 . S
H99 N79 0.862 . S
O100 Co68 1.920 . S
O100 C73 1.258 1_655 S
C101 O93 1.258 . S
C101 O94 1.266 . S
Co102 O105 1.970 . S
Co102 N119 1.989 . S
Co102 O127 1.967 . S
Co102 O134 1.920 . S
Co103 O106 1.966 . S
Co103 N112 2.022 . S
Co103 N120 1.993 . S
Co103 O128 1.941 . S
C104 O105 1.258 . S
C104 O106 1.263 . S
O105 Co102 1.970 . S
O105 C104 1.258 . S
O106 Co103 1.966 . S
O106 C104 1.263 . S
C107 O108 1.235 . S
C107 O134 1.289 . S
O108 C107 1.235 . S
C109 C111 1.400 . S
C109 N112 1.351 . S
C109 C114 1.501 . S
C110 C111 1.387 . S
C110 N113 1.341 . S
C111 C109 1.400 . S
C111 C110 1.387 . S
N112 Co103 2.022 . S
N112 C109 1.351 . S
N112 N113 1.365 . S
N113 C110 1.341 . S
N113 N112 1.365 . S
N113 H133 0.862 . S
C114 C109 1.501 . S
C114 H115 0.961 . S
C114 H116 0.961 . S
C114 H117 0.960 . S
H115 C114 0.961 . S
H116 C114 0.961 . S
H117 C114 0.960 . S
C118 N119 1.342 . S
C118 C122 1.401 . S
C118 C123 1.499 . S
N119 Co102 1.989 . S
N119 C118 1.342 . S
N119 N120 1.388 . S
N120 Co103 1.993 . S
N120 N119 1.388 . S
N120 C121 1.346 . S
C121 N120 1.346 . S
C121 C122 1.396 . S
C121 C131 1.510 . S
C122 C118 1.401 . S
C122 C121 1.396 . S
C123 C118 1.499 . S
C123 H124 0.959 . S
C123 H125 0.960 . S
C123 H126 0.961 . S
H124 C123 0.959 . S
H125 C123 0.960 . S
H126 C123 0.961 . S
O127 Co102 1.967 . S
O127 C135 1.258 . S
O128 Co103 1.941 . S
O128 C135 1.266 . S
H129 C131 0.959 . S
H130 C131 0.961 . S
C131 C121 1.510 . S
C131 H129 0.959 . S
C131 H130 0.961 . S
C131 H132 0.960 . S
H132 C131 0.960 . S
H133 N113 0.862 . S
O134 Co102 1.920 . S
O134 C107 1.289 . S
C135 O127 1.258 . S
C135 O128 1.266 . S
Co136 O139 1.970 . S
Co136 N153 1.989 . S
Co136 O161 1.967 . S
Co136 O168 1.920 . S
Co137 O140 1.966 . S
Co137 N146 2.022 . S
Co137 N154 1.993 . S
Co137 O162 1.941 . S
C138 O139 1.258 . S
C138 O140 1.263 . S
O139 Co136 1.970 . S
O139 C138 1.258 . S
O140 Co137 1.966 . S
O140 C138 1.263 . S
C141 O142 1.238 . S
C141 O168 1.258 1_655 S
O142 C141 1.238 . S
C143 C145 1.400 . S
C143 N146 1.351 . S
C143 C148 1.501 . S
C144 C145 1.387 . S
C144 N147 1.341 . S
C145 C143 1.400 . S
C145 C144 1.387 . S
N146 Co137 2.022 . S
N146 C143 1.351 . S
N146 N147 1.365 . S
N147 C144 1.341 . S
N147 N146 1.365 . S
N147 H167 0.862 . S
C148 C143 1.501 . S
C148 H149 0.961 . S
C148 H150 0.961 . S
C148 H151 0.960 . S
H149 C148 0.961 . S
H150 C148 0.961 . S
H151 C148 0.960 . S
C152 N153 1.342 . S
C152 C156 1.401 . S
C152 C157 1.499 . S
N153 Co136 1.989 . S
N153 C152 1.342 . S
N153 N154 1.388 . S
N154 Co137 1.993 . S
N154 N153 1.388 . S
N154 C155 1.346 . S
C155 N154 1.346 . S
C155 C156 1.396 . S
C155 C165 1.510 . S
C156 C152 1.401 . S
C156 C155 1.396 . S
C157 C152 1.499 . S
C157 H158 0.959 . S
C157 H159 0.960 1_455 S
C157 H160 0.961 . S
H158 C157 0.959 . S
H159 C157 0.960 1_655 S
H160 C157 0.961 . S
O161 Co136 1.967 . S
O161 C169 1.258 . S
O162 Co137 1.941 . S
O162 C169 1.266 . S
H163 C165 0.959 . S
H164 C165 0.961 . S
C165 C155 1.510 . S
C165 H163 0.959 . S
C165 H164 0.961 . S
C165 H166 0.960 . S
H166 C165 0.960 . S
H167 N147 0.862 . S
O168 Co136 1.920 . S
O168 C141 1.258 1_455 S
C169 O161 1.258 . S
C169 O162 1.266 . S
Co170 O173 1.970 . S
Co170 N187 1.989 . S
Co170 O195 1.967 . S
Co170 O202 1.920 . S
Co171 O174 1.966 . S
Co171 N180 2.022 . S
Co171 N188 1.993 . S
Co171 O196 1.941 . S
C172 O173 1.258 . S
C172 O174 1.263 . S
O173 Co170 1.970 . S
O173 C172 1.258 . S
O174 Co171 1.966 . S
O174 C172 1.263 . S
C175 O176 1.235 . S
C175 O202 1.289 . S
O176 C175 1.235 . S
C177 C179 1.400 . S
C177 N180 1.351 . S
C177 C182 1.501 . S
C178 C179 1.387 . S
C178 N181 1.341 . S
C179 C177 1.400 . S
C179 C178 1.387 . S
N180 Co171 2.022 . S
N180 C177 1.351 . S
N180 N181 1.365 . S
N181 C178 1.341 . S
N181 N180 1.365 . S
N181 H201 0.862 . S
C182 C177 1.501 . S
C182 H183 0.961 . S
C182 H184 0.961 . S
C182 H185 0.960 . S
H183 C182 0.961 . S
H184 C182 0.961 . S
H185 C182 0.960 . S
C186 N187 1.342 . S
C186 C190 1.401 . S
C186 C191 1.499 . S
N187 Co170 1.989 . S
N187 C186 1.342 . S
N187 N188 1.388 . S
N188 Co171 1.993 . S
N188 N187 1.388 . S
N188 C189 1.346 . S
C189 N188 1.346 . S
C189 C190 1.396 . S
C189 C199 1.510 . S
C190 C186 1.401 . S
C190 C189 1.396 . S
C191 C186 1.499 . S
C191 H192 0.959 . S
C191 H193 0.960 . S
C191 H194 0.961 . S
H192 C191 0.959 . S
H193 C191 0.960 . S
H194 C191 0.961 . S
O195 Co170 1.967 . S
O195 C203 1.258 . S
O196 Co171 1.941 . S
O196 C203 1.266 . S
H197 C199 0.959 . S
H198 C199 0.961 . S
C199 C189 1.510 . S
C199 H197 0.959 . S
C199 H198 0.961 . S
C199 H200 0.960 . S
H200 C199 0.960 . S
H201 N181 0.862 . S
O202 Co170 1.920 . S
O202 C175 1.289 . S
C203 O195 1.258 . S
C203 O196 1.266 . S
Co204 O207 1.970 . S
Co204 N221 1.989 . S
Co204 O229 1.967 . S
Co204 O236 1.920 . S
Co205 O208 1.966 . S
Co205 N214 2.022 . S
Co205 N222 1.993 . S
Co205 O230 1.941 . S
C206 O207 1.258 . S
C206 O208 1.263 . S
O207 Co204 1.970 . S
O207 C206 1.258 . S
O208 Co205 1.966 . S
O208 C206 1.263 . S
C209 O210 1.238 . S
C209 O236 1.258 1_455 S
O210 C209 1.238 . S
C211 C213 1.400 . S
C211 N214 1.351 . S
C211 C216 1.501 . S
C212 C213 1.387 . S
C212 N215 1.341 . S
C213 C211 1.400 . S
C213 C212 1.387 . S
N214 Co205 2.022 . S
N214 C211 1.351 . S
N214 N215 1.365 . S
N215 C212 1.341 . S
N215 N214 1.365 . S
N215 H235 0.862 . S
C216 C211 1.501 . S
C216 H217 0.961 . S
C216 H218 0.961 . S
C216 H219 0.960 . S
H217 C216 0.961 . S
H218 C216 0.961 . S
H219 C216 0.960 . S
C220 N221 1.342 . S
C220 C224 1.401 . S
C220 C225 1.499 . S
N221 Co204 1.989 . S
N221 C220 1.342 . S
N221 N222 1.388 . S
N222 Co205 1.993 . S
N222 N221 1.388 . S
N222 C223 1.346 . S
C223 N222 1.346 . S
C223 C224 1.396 . S
C223 C233 1.510 . S
C224 C220 1.401 . S
C224 C223 1.396 . S
C225 C220 1.499 . S
C225 H226 0.959 . S
C225 H227 0.960 1_655 S
C225 H228 0.961 . S
H226 C225 0.959 . S
H227 C225 0.960 1_455 S
H228 C225 0.961 . S
O229 Co204 1.967 . S
O229 C237 1.258 . S
O230 Co205 1.941 . S
O230 C237 1.266 . S
H231 C233 0.959 . S
H232 C233 0.961 . S
C233 C223 1.510 . S
C233 H231 0.959 . S
C233 H232 0.961 . S
C233 H234 0.960 . S
H234 C233 0.960 . S
H235 N215 0.862 . S
O236 Co204 1.920 . S
O236 C209 1.258 1_655 S
C237 O229 1.258 . S
C237 O230 1.266 . S
Co238 O241 1.970 . S
Co238 N255 1.989 . S
Co238 O263 1.967 . S
Co238 O270 1.920 . S
Co239 O242 1.966 . S
Co239 N248 2.022 . S
Co239 N256 1.993 . S
Co239 O264 1.941 . S
C240 O241 1.258 . S
C240 O242 1.263 . S
O241 Co238 1.970 . S
O241 C240 1.258 . S
O242 Co239 1.966 . S
O242 C240 1.263 . S
C243 O244 1.235 . S
C243 O270 1.289 . S
O244 C243 1.235 . S
C245 C247 1.400 . S
C245 N248 1.351 . S
C245 C250 1.501 . S
C246 C247 1.387 . S
C246 N249 1.341 . S
C247 C245 1.400 . S
C247 C246 1.387 . S
N248 Co239 2.022 . S
N248 C245 1.351 . S
N248 N249 1.365 . S
N249 C246 1.341 . S
N249 N248 1.365 . S
N249 H269 0.862 . S
C250 C245 1.501 . S
C250 H251 0.961 . S
C250 H252 0.961 . S
C250 H253 0.960 . S
H251 C250 0.961 . S
H252 C250 0.961 . S
H253 C250 0.960 . S
C254 N255 1.342 . S
C254 C258 1.401 . S
C254 C259 1.499 . S
N255 Co238 1.989 . S
N255 C254 1.342 . S
N255 N256 1.388 . S
N256 Co239 1.993 . S
N256 N255 1.388 . S
N256 C257 1.346 . S
C257 N256 1.346 . S
C257 C258 1.396 . S
C257 C267 1.510 . S
C258 C254 1.401 . S
C258 C257 1.396 . S
C259 C254 1.499 . S
C259 H260 0.959 . S
C259 H261 0.960 . S
C259 H262 0.961 . S
H260 C259 0.959 . S
H261 C259 0.960 . S
H262 C259 0.961 . S
O263 Co238 1.967 . S
O263 C271 1.258 . S
O264 Co239 1.941 . S
O264 C271 1.266 . S
H265 C267 0.959 . S
H266 C267 0.961 . S
C267 C257 1.510 . S
C267 H265 0.959 . S
C267 H266 0.961 . S
C267 H268 0.960 . S
H268 C267 0.960 . S
H269 N249 0.862 . S
O270 Co238 1.920 . S
O270 C243 1.289 . S
C271 O263 1.258 . S
C271 O264 1.266 . S
Co272 O275 1.970 . S
Co272 N289 1.989 . S
Co272 O297 1.967 . S
Co272 O304 1.920 . S
Co273 O276 1.966 . S
Co273 N282 2.022 . S
Co273 N290 1.993 . S
Co273 O298 1.941 . S
C274 O275 1.258 . S
C274 O276 1.263 . S
O275 Co272 1.970 . S
O275 C274 1.258 . S
O276 Co273 1.966 . S
O276 C274 1.263 . S
C277 O278 1.238 . S
C277 O304 1.258 1_565 S
O278 C277 1.238 . S
C279 C281 1.400 . S
C279 N282 1.351 . S
C279 C284 1.501 . S
C280 C281 1.387 . S
C280 N283 1.341 . S
C281 C279 1.400 . S
C281 C280 1.387 . S
N282 Co273 2.022 . S
N282 C279 1.351 . S
N282 N283 1.365 . S
N283 C280 1.341 . S
N283 N282 1.365 . S
N283 H303 0.862 . S
C284 C279 1.501 . S
C284 H285 0.961 . S
C284 H286 0.961 . S
C284 H287 0.960 . S
H285 C284 0.961 . S
H286 C284 0.961 . S
H287 C284 0.960 . S
C288 N289 1.342 . S
C288 C292 1.401 . S
C288 C293 1.499 . S
N289 Co272 1.989 . S
N289 C288 1.342 . S
N289 N290 1.388 . S
N290 Co273 1.993 . S
N290 N289 1.388 . S
N290 C291 1.346 . S
C291 N290 1.346 . S
C291 C292 1.396 . S
C291 C301 1.510 . S
C292 C288 1.401 . S
C292 C291 1.396 . S
C293 C288 1.499 . S
C293 H294 0.959 . S
C293 H295 0.960 1_545 S
C293 H296 0.961 . S
H294 C293 0.959 . S
H295 C293 0.960 1_565 S
H296 C293 0.961 . S
O297 Co272 1.967 . S
O297 C305 1.258 . S
O298 Co273 1.941 . S
O298 C305 1.266 . S
H299 C301 0.959 . S
H300 C301 0.961 . S
C301 C291 1.510 . S
C301 H299 0.959 . S
C301 H300 0.961 . S
C301 H302 0.960 . S
H302 C301 0.960 . S
H303 N283 0.862 . S
O304 Co272 1.920 . S
O304 C277 1.258 1_545 S
C305 O297 1.258 . S
C305 O298 1.266 . S
Co306 O309 1.970 . S
Co306 N323 1.989 . S
Co306 O331 1.967 . S
Co306 O338 1.920 . S
Co307 O310 1.966 . S
Co307 N316 2.022 . S
Co307 N324 1.993 . S
Co307 O332 1.941 . S
C308 O309 1.258 . S
C308 O310 1.263 . S
O309 Co306 1.970 . S
O309 C308 1.258 . S
O310 Co307 1.966 . S
O310 C308 1.263 . S
C311 O312 1.235 . S
C311 O338 1.289 . S
O312 C311 1.235 . S
C313 C315 1.400 . S
C313 N316 1.351 . S
C313 C318 1.501 . S
C314 C315 1.387 . S
C314 N317 1.341 . S
C315 C313 1.400 . S
C315 C314 1.387 . S
N316 Co307 2.022 . S
N316 C313 1.351 . S
N316 N317 1.365 . S
N317 C314 1.341 . S
N317 N316 1.365 . S
N317 H337 0.862 . S
C318 C313 1.501 . S
C318 H319 0.961 . S
C318 H320 0.961 . S
C318 H321 0.960 . S
H319 C318 0.961 . S
H320 C318 0.961 . S
H321 C318 0.960 . S
C322 N323 1.342 . S
C322 C326 1.401 . S
C322 C327 1.499 . S
N323 Co306 1.989 . S
N323 C322 1.342 . S
N323 N324 1.388 . S
N324 Co307 1.993 . S
N324 N323 1.388 . S
N324 C325 1.346 . S
C325 N324 1.346 . S
C325 C326 1.396 . S
C325 C335 1.510 . S
C326 C322 1.401 . S
C326 C325 1.396 . S
C327 C322 1.499 . S
C327 H328 0.959 . S
C327 H329 0.960 . S
C327 H330 0.961 . S
H328 C327 0.959 . S
H329 C327 0.960 . S
H330 C327 0.961 . S
O331 Co306 1.967 . S
O331 C339 1.258 . S
O332 Co307 1.941 . S
O332 C339 1.266 . S
H333 C335 0.959 . S
H334 C335 0.961 . S
C335 C325 1.510 . S
C335 H333 0.959 . S
C335 H334 0.961 . S
C335 H336 0.960 . S
H336 C335 0.960 . S
H337 N317 0.862 . S
O338 Co306 1.920 . S
O338 C311 1.289 . S
C339 O331 1.258 . S
C339 O332 1.266 . S
Co340 O343 1.970 . S
Co340 N357 1.989 . S
Co340 O365 1.967 . S
Co340 O372 1.920 . S
Co341 O344 1.966 . S
Co341 N350 2.022 . S
Co341 N358 1.993 . S
Co341 O366 1.941 . S
C342 O343 1.258 . S
C342 O344 1.263 . S
O343 Co340 1.970 . S
O343 C342 1.258 . S
O344 Co341 1.966 . S
O344 C342 1.263 . S
C345 O346 1.238 . S
C345 O372 1.258 1_545 S
O346 C345 1.238 . S
C347 C349 1.400 . S
C347 N350 1.351 . S
C347 C352 1.501 . S
C348 C349 1.387 . S
C348 N351 1.341 . S
C349 C347 1.400 . S
C349 C348 1.387 . S
N350 Co341 2.022 . S
N350 C347 1.351 . S
N350 N351 1.365 . S
N351 C348 1.341 . S
N351 N350 1.365 . S
N351 H371 0.862 . S
C352 C347 1.501 . S
C352 H353 0.961 . S
C352 H354 0.961 . S
C352 H355 0.960 . S
H353 C352 0.961 . S
H354 C352 0.961 . S
H355 C352 0.960 . S
C356 N357 1.342 . S
C356 C360 1.401 . S
C356 C361 1.499 . S
N357 Co340 1.989 . S
N357 C356 1.342 . S
N357 N358 1.388 . S
N358 Co341 1.993 . S
N358 N357 1.388 . S
N358 C359 1.346 . S
C359 N358 1.346 . S
C359 C360 1.396 . S
C359 C369 1.510 . S
C360 C356 1.401 . S
C360 C359 1.396 . S
C361 C356 1.499 . S
C361 H362 0.959 . S
C361 H363 0.960 1_565 S
C361 H364 0.961 . S
H362 C361 0.959 . S
H363 C361 0.960 1_545 S
H364 C361 0.961 . S
O365 Co340 1.967 . S
O365 C373 1.258 . S
O366 Co341 1.941 . S
O366 C373 1.266 . S
H367 C369 0.959 . S
H368 C369 0.961 . S
C369 C359 1.510 . S
C369 H367 0.959 . S
C369 H368 0.961 . S
C369 H370 0.960 . S
H370 C369 0.960 . S
H371 N351 0.862 . S
O372 Co340 1.920 . S
O372 C345 1.258 1_565 S
C373 O365 1.258 . S
C373 O366 1.266 . S
Co374 O377 1.970 . S
Co374 N391 1.989 . S
Co374 O399 1.967 . S
Co374 O406 1.920 . S
Co375 O378 1.966 . S
Co375 N384 2.022 . S
Co375 N392 1.993 . S
Co375 O400 1.941 . S
C376 O377 1.258 . S
C376 O378 1.263 . S
O377 Co374 1.970 . S
O377 C376 1.258 . S
O378 Co375 1.966 . S
O378 C376 1.263 . S
C379 O380 1.235 . S
C379 O406 1.289 . S
O380 C379 1.235 . S
C381 C383 1.400 . S
C381 N384 1.351 . S
C381 C386 1.501 . S
C382 C383 1.387 . S
C382 N385 1.341 . S
C383 C381 1.400 . S
C383 C382 1.387 . S
N384 Co375 2.022 . S
N384 C381 1.351 . S
N384 N385 1.365 . S
N385 C382 1.341 . S
N385 N384 1.365 . S
N385 H405 0.862 . S
C386 C381 1.501 . S
C386 H387 0.961 . S
C386 H388 0.961 . S
C386 H389 0.960 . S
H387 C386 0.961 . S
H388 C386 0.961 . S
H389 C386 0.960 . S
C390 N391 1.342 . S
C390 C394 1.401 . S
C390 C395 1.499 . S
N391 Co374 1.989 . S
N391 C390 1.342 . S
N391 N392 1.388 . S
N392 Co375 1.993 . S
N392 N391 1.388 . S
N392 C393 1.346 . S
C393 N392 1.346 . S
C393 C394 1.396 . S
C393 C403 1.510 . S
C394 C390 1.401 . S
C394 C393 1.396 . S
C395 C390 1.499 . S
C395 H396 0.959 . S
C395 H397 0.960 . S
C395 H398 0.961 . S
H396 C395 0.959 . S
H397 C395 0.960 . S
H398 C395 0.961 . S
O399 Co374 1.967 . S
O399 C407 1.258 . S
O400 Co375 1.941 . S
O400 C407 1.266 . S
H401 C403 0.959 . S
H402 C403 0.961 . S
C403 C393 1.510 . S
C403 H401 0.959 . S
C403 H402 0.961 . S
C403 H404 0.960 . S
H404 C403 0.960 . S
H405 N385 0.862 . S
O406 Co374 1.920 . S
O406 C379 1.289 . S
C407 O399 1.258 . S
C407 O400 1.266 . S
Co408 O411 1.970 . S
Co408 N425 1.989 . S
Co408 O433 1.967 . S
Co408 O440 1.920 . S
Co409 O412 1.966 . S
Co409 N418 2.022 . S
Co409 N426 1.993 . S
Co409 O434 1.941 . S
C410 O411 1.258 . S
C410 O412 1.263 . S
O411 Co408 1.970 . S
O411 C410 1.258 . S
O412 Co409 1.966 . S
O412 C410 1.263 . S
C413 O414 1.238 . S
C413 O440 1.258 1_545 S
O414 C413 1.238 . S
C415 C417 1.400 . S
C415 N418 1.351 . S
C415 C420 1.501 . S
C416 C417 1.387 . S
C416 N419 1.341 . S
C417 C415 1.400 . S
C417 C416 1.387 . S
N418 Co409 2.022 . S
N418 C415 1.351 . S
N418 N419 1.365 . S
N419 C416 1.341 . S
N419 N418 1.365 . S
N419 H439 0.862 . S
C420 C415 1.501 . S
C420 H421 0.961 . S
C420 H422 0.961 . S
C420 H423 0.960 . S
H421 C420 0.961 . S
H422 C420 0.961 . S
H423 C420 0.960 . S
C424 N425 1.342 . S
C424 C428 1.401 . S
C424 C429 1.499 . S
N425 Co408 1.989 . S
N425 C424 1.342 . S
N425 N426 1.388 . S
N426 Co409 1.993 . S
N426 N425 1.388 . S
N426 C427 1.346 . S
C427 N426 1.346 . S
C427 C428 1.396 . S
C427 C437 1.510 . S
C428 C424 1.401 . S
C428 C427 1.396 . S
C429 C424 1.499 . S
C429 H430 0.959 . S
C429 H431 0.960 1_565 S
C429 H432 0.961 . S
H430 C429 0.959 . S
H431 C429 0.960 1_545 S
H432 C429 0.961 . S
O433 Co408 1.967 . S
O433 C441 1.258 . S
O434 Co409 1.941 . S
O434 C441 1.266 . S
H435 C437 0.959 . S
H436 C437 0.961 . S
C437 C427 1.510 . S
C437 H435 0.959 . S
C437 H436 0.961 . S
C437 H438 0.960 . S
H438 C437 0.960 . S
H439 N419 0.862 . S
O440 Co408 1.920 . S
O440 C413 1.258 1_565 S
C441 O433 1.258 . S
C441 O434 1.266 . S
Co442 O445 1.970 . S
Co442 N459 1.989 . S
Co442 O467 1.967 . S
Co442 O474 1.920 . S
Co443 O446 1.966 . S
Co443 N452 2.022 . S
Co443 N460 1.993 . S
Co443 O468 1.941 . S
C444 O445 1.258 . S
C444 O446 1.263 . S
O445 Co442 1.970 . S
O445 C444 1.258 . S
O446 Co443 1.966 . S
O446 C444 1.263 . S
C447 O448 1.235 . S
C447 O474 1.289 . S
O448 C447 1.235 . S
C449 C451 1.400 . S
C449 N452 1.351 . S
C449 C454 1.501 . S
C450 C451 1.387 . S
C450 N453 1.341 . S
C451 C449 1.400 . S
C451 C450 1.387 . S
N452 Co443 2.022 . S
N452 C449 1.351 . S
N452 N453 1.365 . S
N453 C450 1.341 . S
N453 N452 1.365 . S
N453 H473 0.862 . S
C454 C449 1.501 . S
C454 H455 0.961 . S
C454 H456 0.961 . S
C454 H457 0.960 . S
H455 C454 0.961 . S
H456 C454 0.961 . S
H457 C454 0.960 . S
C458 N459 1.342 . S
C458 C462 1.401 . S
C458 C463 1.499 . S
N459 Co442 1.989 . S
N459 C458 1.342 . S
N459 N460 1.388 . S
N460 Co443 1.993 . S
N460 N459 1.388 . S
N460 C461 1.346 . S
C461 N460 1.346 . S
C461 C462 1.396 . S
C461 C471 1.510 . S
C462 C458 1.401 . S
C462 C461 1.396 . S
C463 C458 1.499 . S
C463 H464 0.959 . S
C463 H465 0.960 . S
C463 H466 0.961 . S
H464 C463 0.959 . S
H465 C463 0.960 . S
H466 C463 0.961 . S
O467 Co442 1.967 . S
O467 C475 1.258 . S
O468 Co443 1.941 . S
O468 C475 1.266 . S
H469 C471 0.959 . S
H470 C471 0.961 . S
C471 C461 1.510 . S
C471 H469 0.959 . S
C471 H470 0.961 . S
C471 H472 0.960 . S
H472 C471 0.960 . S
H473 N453 0.862 . S
O474 Co442 1.920 . S
O474 C447 1.289 . S
C475 O467 1.258 . S
C475 O468 1.266 . S
Co476 O479 1.970 . S
Co476 N493 1.989 . S
Co476 O501 1.967 . S
Co476 O508 1.920 . S
Co477 O480 1.966 . S
Co477 N486 2.022 . S
Co477 N494 1.993 . S
Co477 O502 1.941 . S
C478 O479 1.258 . S
C478 O480 1.263 . S
O479 Co476 1.970 . S
O479 C478 1.258 . S
O480 Co477 1.966 . S
O480 C478 1.263 . S
C481 O482 1.238 . S
C481 O508 1.258 1_565 S
O482 C481 1.238 . S
C483 C485 1.400 . S
C483 N486 1.351 . S
C483 C488 1.501 . S
C484 C485 1.387 . S
C484 N487 1.341 . S
C485 C483 1.400 . S
C485 C484 1.387 . S
N486 Co477 2.022 . S
N486 C483 1.351 . S
N486 N487 1.365 . S
N487 C484 1.341 . S
N487 N486 1.365 . S
N487 H507 0.862 . S
C488 C483 1.501 . S
C488 H489 0.961 . S
C488 H490 0.961 . S
C488 H491 0.960 . S
H489 C488 0.961 . S
H490 C488 0.961 . S
H491 C488 0.960 . S
C492 N493 1.342 . S
C492 C496 1.401 . S
C492 C497 1.499 . S
N493 Co476 1.989 . S
N493 C492 1.342 . S
N493 N494 1.388 . S
N494 Co477 1.993 . S
N494 N493 1.388 . S
N494 C495 1.346 . S
C495 N494 1.346 . S
C495 C496 1.396 . S
C495 C505 1.510 . S
C496 C492 1.401 . S
C496 C495 1.396 . S
C497 C492 1.499 . S
C497 H498 0.959 . S
C497 H499 0.960 1_545 S
C497 H500 0.961 . S
H498 C497 0.959 . S
H499 C497 0.960 1_565 S
H500 C497 0.961 . S
O501 Co476 1.967 . S
O501 C509 1.258 . S
O502 Co477 1.941 . S
O502 C509 1.266 . S
H503 C505 0.959 . S
H504 C505 0.961 . S
C505 C495 1.510 . S
C505 H503 0.959 . S
C505 H504 0.961 . S
C505 H506 0.960 . S
H506 C505 0.960 . S
H507 N487 0.862 . S
O508 Co476 1.920 . S
O508 C481 1.258 1_545 S
C509 O501 1.258 . S
C509 O502 1.266 . S
Co510 O513 1.970 . S
Co510 N527 1.989 . S
Co510 O535 1.967 . S
Co510 O542 1.920 . S
Co511 O514 1.966 . S
Co511 N520 2.022 . S
Co511 N528 1.993 . S
Co511 O536 1.941 . S
C512 O513 1.258 . S
C512 O514 1.263 . S
O513 Co510 1.970 . S
O513 C512 1.258 . S
O514 Co511 1.966 . S
O514 C512 1.263 . S
C515 O516 1.235 . S
C515 O542 1.289 . S
O516 C515 1.235 . S
C517 C519 1.400 . S
C517 N520 1.351 . S
C517 C522 1.501 . S
C518 C519 1.387 . S
C518 N521 1.341 . S
C519 C517 1.400 . S
C519 C518 1.387 . S
N520 Co511 2.022 . S
N520 C517 1.351 . S
N520 N521 1.365 . S
N521 C518 1.341 . S
N521 N520 1.365 . S
N521 H541 0.862 . S
C522 C517 1.501 . S
C522 H523 0.961 . S
C522 H524 0.961 . S
C522 H525 0.960 . S
H523 C522 0.961 . S
H524 C522 0.961 . S
H525 C522 0.960 . S
C526 N527 1.342 . S
C526 C530 1.401 . S
C526 C531 1.499 . S
N527 Co510 1.989 . S
N527 C526 1.342 . S
N527 N528 1.388 . S
N528 Co511 1.993 . S
N528 N527 1.388 . S
N528 C529 1.346 . S
C529 N528 1.346 . S
C529 C530 1.396 . S
C529 C539 1.510 . S
C530 C526 1.401 . S
C530 C529 1.396 . S
C531 C526 1.499 . S
C531 H532 0.959 . S
C531 H533 0.960 . S
C531 H534 0.961 . S
H532 C531 0.959 . S
H533 C531 0.960 . S
H534 C531 0.961 . S
O535 Co510 1.967 . S
O535 C543 1.258 . S
O536 Co511 1.941 . S
O536 C543 1.266 . S
H537 C539 0.959 . S
H538 C539 0.961 . S
C539 C529 1.510 . S
C539 H537 0.959 . S
C539 H538 0.961 . S
C539 H540 0.960 . S
H540 C539 0.960 . S
H541 N521 0.862 . S
O542 Co510 1.920 . S
O542 C515 1.289 . S
C543 O535 1.258 . S
C543 O536 1.266 . S
Co544 O547 1.970 . S
Co544 N561 1.989 . S
Co544 O569 1.967 . S
Co544 O576 1.920 . S
Co545 O548 1.966 . S
Co545 N554 2.022 . S
Co545 N562 1.993 . S
Co545 O570 1.941 . S
C546 O547 1.258 . S
C546 O548 1.263 . S
O547 Co544 1.970 . S
O547 C546 1.258 . S
O548 Co545 1.966 . S
O548 C546 1.263 . S
C549 O550 1.238 . S
C549 O576 1.258 1_556 S
O550 C549 1.238 . S
C551 C553 1.400 . S
C551 N554 1.351 . S
C551 C556 1.501 . S
C552 C553 1.387 . S
C552 N555 1.341 . S
C553 C551 1.400 . S
C553 C552 1.387 . S
N554 Co545 2.022 . S
N554 C551 1.351 . S
N554 N555 1.365 . S
N555 C552 1.341 . S
N555 N554 1.365 . S
N555 H575 0.862 . S
C556 C551 1.501 . S
C556 H557 0.961 . S
C556 H558 0.961 . S
C556 H559 0.960 . S
H557 C556 0.961 . S
H558 C556 0.961 . S
H559 C556 0.960 . S
C560 N561 1.342 . S
C560 C564 1.401 . S
C560 C565 1.499 . S
N561 Co544 1.989 . S
N561 C560 1.342 . S
N561 N562 1.388 . S
N562 Co545 1.993 . S
N562 N561 1.388 . S
N562 C563 1.346 . S
C563 N562 1.346 . S
C563 C564 1.396 . S
C563 C573 1.510 . S
C564 C560 1.401 . S
C564 C563 1.396 . S
C565 C560 1.499 . S
C565 H566 0.959 . S
C565 H567 0.960 1_554 S
C565 H568 0.961 . S
H566 C565 0.959 . S
H567 C565 0.960 1_556 S
H568 C565 0.961 . S
O569 Co544 1.967 . S
O569 C577 1.258 . S
O570 Co545 1.941 . S
O570 C577 1.266 . S
H571 C573 0.959 . S
H572 C573 0.961 . S
C573 C563 1.510 . S
C573 H571 0.959 . S
C573 H572 0.961 . S
C573 H574 0.960 . S
H574 C573 0.960 . S
H575 N555 0.862 . S
O576 Co544 1.920 . S
O576 C549 1.258 1_554 S
C577 O569 1.258 . S
C577 O570 1.266 . S
Co578 O581 1.970 . S
Co578 N595 1.989 . S
Co578 O603 1.967 . S
Co578 O610 1.920 . S
Co579 O582 1.966 . S
Co579 N588 2.022 . S
Co579 N596 1.993 . S
Co579 O604 1.941 . S
C580 O581 1.258 . S
C580 O582 1.263 . S
O581 Co578 1.970 . S
O581 C580 1.258 . S
O582 Co579 1.966 . S
O582 C580 1.263 . S
C583 O584 1.238 . S
C583 O610 1.258 1_554 S
O584 C583 1.238 . S
C585 C587 1.400 . S
C585 N588 1.351 . S
C585 C590 1.501 . S
C586 C587 1.387 . S
C586 N589 1.341 . S
C587 C585 1.400 . S
C587 C586 1.387 . S
N588 Co579 2.022 . S
N588 C585 1.351 . S
N588 N589 1.365 . S
N589 C586 1.341 . S
N589 N588 1.365 . S
N589 H609 0.862 . S
C590 C585 1.501 . S
C590 H591 0.961 . S
C590 H592 0.961 . S
C590 H593 0.960 . S
H591 C590 0.961 . S
H592 C590 0.961 . S
H593 C590 0.960 . S
C594 N595 1.342 . S
C594 C598 1.401 . S
C594 C599 1.499 . S
N595 Co578 1.989 . S
N595 C594 1.342 . S
N595 N596 1.388 . S
N596 Co579 1.993 . S
N596 N595 1.388 . S
N596 C597 1.346 . S
C597 N596 1.346 . S
C597 C598 1.396 . S
C597 C607 1.510 . S
C598 C594 1.401 . S
C598 C597 1.396 . S
C599 C594 1.499 . S
C599 H600 0.959 . S
C599 H601 0.960 1_556 S
C599 H602 0.961 . S
H600 C599 0.959 . S
H601 C599 0.960 1_554 S
H602 C599 0.961 . S
O603 Co578 1.967 . S
O603 C611 1.258 . S
O604 Co579 1.941 . S
O604 C611 1.266 . S
H605 C607 0.959 . S
H606 C607 0.961 . S
C607 C597 1.510 . S
C607 H605 0.959 . S
C607 H606 0.961 . S
C607 H608 0.960 . S
H608 C607 0.960 . S
H609 N589 0.862 . S
O610 Co578 1.920 . S
O610 C583 1.258 1_556 S
C611 O603 1.258 . S
C611 O604 1.266 . S
Co612 O615 1.970 . S
Co612 N629 1.989 . S
Co612 O637 1.967 . S
Co612 O644 1.920 . S
Co613 O616 1.966 . S
Co613 N622 2.022 . S
Co613 N630 1.993 . S
Co613 O638 1.941 . S
C614 O615 1.258 . S
C614 O616 1.263 . S
O615 Co612 1.970 . S
O615 C614 1.258 . S
O616 Co613 1.966 . S
O616 C614 1.263 . S
C617 O618 1.235 . S
C617 O644 1.289 . S
O618 C617 1.235 . S
C619 C621 1.400 . S
C619 N622 1.351 . S
C619 C624 1.501 . S
C620 C621 1.387 . S
C620 N623 1.341 . S
C621 C619 1.400 . S
C621 C620 1.387 . S
N622 Co613 2.022 . S
N622 C619 1.351 . S
N622 N623 1.365 . S
N623 C620 1.341 . S
N623 N622 1.365 . S
N623 H643 0.862 . S
C624 C619 1.501 . S
C624 H625 0.961 . S
C624 H626 0.961 . S
C624 H627 0.960 . S
H625 C624 0.961 . S
H626 C624 0.961 . S
H627 C624 0.960 . S
C628 N629 1.342 . S
C628 C632 1.401 . S
C628 C633 1.499 . S
N629 Co612 1.989 . S
N629 C628 1.342 . S
N629 N630 1.388 . S
N630 Co613 1.993 . S
N630 N629 1.388 . S
N630 C631 1.346 . S
C631 N630 1.346 . S
C631 C632 1.396 . S
C631 C641 1.510 . S
C632 C628 1.401 . S
C632 C631 1.396 . S
C633 C628 1.499 . S
C633 H634 0.959 . S
C633 H635 0.960 . S
C633 H636 0.961 . S
H634 C633 0.959 . S
H635 C633 0.960 . S
H636 C633 0.961 . S
O637 Co612 1.967 . S
O637 C645 1.258 . S
O638 Co613 1.941 . S
O638 C645 1.266 . S
H639 C641 0.959 . S
H640 C641 0.961 . S
C641 C631 1.510 . S
C641 H639 0.959 . S
C641 H640 0.961 . S
C641 H642 0.960 . S
H642 C641 0.960 . S
H643 N623 0.862 . S
O644 Co612 1.920 . S
O644 C617 1.289 . S
C645 O637 1.258 . S
C645 O638 1.266 . S
Co646 O649 1.970 . S
Co646 N663 1.989 . S
Co646 O671 1.967 . S
Co646 O678 1.920 . S
Co647 O650 1.966 . S
Co647 N656 2.022 . S
Co647 N664 1.993 . S
Co647 O672 1.941 . S
C648 O649 1.258 . S
C648 O650 1.263 . S
O649 Co646 1.970 . S
O649 C648 1.258 . S
O650 Co647 1.966 . S
O650 C648 1.263 . S
C651 O652 1.238 . S
C651 O678 1.258 1_554 S
O652 C651 1.238 . S
C653 C655 1.400 . S
C653 N656 1.351 . S
C653 C658 1.501 . S
C654 C655 1.387 . S
C654 N657 1.341 . S
C655 C653 1.400 . S
C655 C654 1.387 . S
N656 Co647 2.022 . S
N656 C653 1.351 . S
N656 N657 1.365 . S
N657 C654 1.341 . S
N657 N656 1.365 . S
N657 H677 0.862 . S
C658 C653 1.501 . S
C658 H659 0.961 . S
C658 H660 0.961 . S
C658 H661 0.960 . S
H659 C658 0.961 . S
H660 C658 0.961 . S
H661 C658 0.960 . S
C662 N663 1.342 . S
C662 C666 1.401 . S
C662 C667 1.499 . S
N663 Co646 1.989 . S
N663 C662 1.342 . S
N663 N664 1.388 . S
N664 Co647 1.993 . S
N664 N663 1.388 . S
N664 C665 1.346 . S
C665 N664 1.346 . S
C665 C666 1.396 . S
C665 C675 1.510 . S
C666 C662 1.401 . S
C666 C665 1.396 . S
C667 C662 1.499 . S
C667 H668 0.959 . S
C667 H669 0.960 1_556 S
C667 H670 0.961 . S
H668 C667 0.959 . S
H669 C667 0.960 1_554 S
H670 C667 0.961 . S
O671 Co646 1.967 . S
O671 C679 1.258 . S
O672 Co647 1.941 . S
O672 C679 1.266 . S
H673 C675 0.959 . S
H674 C675 0.961 . S
C675 C665 1.510 . S
C675 H673 0.959 . S
C675 H674 0.961 . S
C675 H676 0.960 . S
H676 C675 0.960 . S
H677 N657 0.862 . S
O678 Co646 1.920 . S
O678 C651 1.258 1_556 S
C679 O671 1.258 . S
C679 O672 1.266 . S
Co680 O683 1.970 . S
Co680 N697 1.989 . S
Co680 O705 1.967 . S
Co680 O712 1.920 . S
Co681 O684 1.966 . S
Co681 N690 2.022 . S
Co681 N698 1.993 . S
Co681 O706 1.941 . S
C682 O683 1.258 . S
C682 O684 1.263 . S
O683 Co680 1.970 . S
O683 C682 1.258 . S
O684 Co681 1.966 . S
O684 C682 1.263 . S
C685 O686 1.235 . S
C685 O712 1.289 . S
O686 C685 1.235 . S
C687 C689 1.400 . S
C687 N690 1.351 . S
C687 C692 1.501 . S
C688 C689 1.387 . S
C688 N691 1.341 . S
C689 C687 1.400 . S
C689 C688 1.387 . S
N690 Co681 2.022 . S
N690 C687 1.351 . S
N690 N691 1.365 . S
N691 C688 1.341 . S
N691 N690 1.365 . S
N691 H711 0.862 . S
C692 C687 1.501 . S
C692 H693 0.961 . S
C692 H694 0.961 . S
C692 H695 0.960 . S
H693 C692 0.961 . S
H694 C692 0.961 . S
H695 C692 0.960 . S
C696 N697 1.342 . S
C696 C700 1.401 . S
C696 C701 1.499 . S
N697 Co680 1.989 . S
N697 C696 1.342 . S
N697 N698 1.388 . S
N698 Co681 1.993 . S
N698 N697 1.388 . S
N698 C699 1.346 . S
C699 N698 1.346 . S
C699 C700 1.396 . S
C699 C709 1.510 . S
C700 C696 1.401 . S
C700 C699 1.396 . S
C701 C696 1.499 . S
C701 H702 0.959 . S
C701 H703 0.960 . S
C701 H704 0.961 . S
H702 C701 0.959 . S
H703 C701 0.960 . S
H704 C701 0.961 . S
O705 Co680 1.967 . S
O705 C713 1.258 . S
O706 Co681 1.941 . S
O706 C713 1.266 . S
H707 C709 0.959 . S
H708 C709 0.961 . S
C709 C699 1.510 . S
C709 H707 0.959 . S
C709 H708 0.961 . S
C709 H710 0.960 . S
H710 C709 0.960 . S
H711 N691 0.862 . S
O712 Co680 1.920 . S
O712 C685 1.289 . S
C713 O705 1.258 . S
C713 O706 1.266 . S
Co714 O717 1.970 . S
Co714 N731 1.989 . S
Co714 O739 1.967 . S
Co714 O746 1.920 . S
Co715 O718 1.966 . S
Co715 N724 2.022 . S
Co715 N732 1.993 . S
Co715 O740 1.941 . S
C716 O717 1.258 . S
C716 O718 1.263 . S
O717 Co714 1.970 . S
O717 C716 1.258 . S
O718 Co715 1.966 . S
O718 C716 1.263 . S
C719 O720 1.238 . S
C719 O746 1.258 1_556 S
O720 C719 1.238 . S
C721 C723 1.400 . S
C721 N724 1.351 . S
C721 C726 1.501 . S
C722 C723 1.387 . S
C722 N725 1.341 . S
C723 C721 1.400 . S
C723 C722 1.387 . S
N724 Co715 2.022 . S
N724 C721 1.351 . S
N724 N725 1.365 . S
N725 C722 1.341 . S
N725 N724 1.365 . S
N725 H745 0.862 . S
C726 C721 1.501 . S
C726 H727 0.961 . S
C726 H728 0.961 . S
C726 H729 0.960 . S
H727 C726 0.961 . S
H728 C726 0.961 . S
H729 C726 0.960 . S
C730 N731 1.342 . S
C730 C734 1.401 . S
C730 C735 1.499 . S
N731 Co714 1.989 . S
N731 C730 1.342 . S
N731 N732 1.388 . S
N732 Co715 1.993 . S
N732 N731 1.388 . S
N732 C733 1.346 . S
C733 N732 1.346 . S
C733 C734 1.396 . S
C733 C743 1.510 . S
C734 C730 1.401 . S
C734 C733 1.396 . S
C735 C730 1.499 . S
C735 H736 0.959 . S
C735 H737 0.960 1_554 S
C735 H738 0.961 . S
H736 C735 0.959 . S
H737 C735 0.960 1_556 S
H738 C735 0.961 . S
O739 Co714 1.967 . S
O739 C747 1.258 . S
O740 Co715 1.941 . S
O740 C747 1.266 . S
H741 C743 0.959 . S
H742 C743 0.961 . S
C743 C733 1.510 . S
C743 H741 0.959 . S
C743 H742 0.961 . S
C743 H744 0.960 . S
H744 C743 0.960 . S
H745 N725 0.862 . S
O746 Co714 1.920 . S
O746 C719 1.258 1_554 S
C747 O739 1.258 . S
C747 O740 1.266 . S
Co748 O751 1.970 . S
Co748 N765 1.989 . S
Co748 O773 1.967 . S
Co748 O780 1.920 . S
Co749 O752 1.966 . S
Co749 N758 2.022 . S
Co749 N766 1.993 . S
Co749 O774 1.941 . S
C750 O751 1.258 . S
C750 O752 1.263 . S
O751 Co748 1.970 . S
O751 C750 1.258 . S
O752 Co749 1.966 . S
O752 C750 1.263 . S
C753 O754 1.235 . S
C753 O780 1.289 . S
O754 C753 1.235 . S
C755 C757 1.400 . S
C755 N758 1.351 . S
C755 C760 1.501 . S
C756 C757 1.387 . S
C756 N759 1.341 . S
C757 C755 1.400 . S
C757 C756 1.387 . S
N758 Co749 2.022 . S
N758 C755 1.351 . S
N758 N759 1.365 . S
N759 C756 1.341 . S
N759 N758 1.365 . S
N759 H779 0.862 . S
C760 C755 1.501 . S
C760 H761 0.961 . S
C760 H762 0.961 . S
C760 H763 0.960 . S
H761 C760 0.961 . S
H762 C760 0.961 . S
H763 C760 0.960 . S
C764 N765 1.342 . S
C764 C768 1.401 . S
C764 C769 1.499 . S
N765 Co748 1.989 . S
N765 C764 1.342 . S
N765 N766 1.388 . S
N766 Co749 1.993 . S
N766 N765 1.388 . S
N766 C767 1.346 . S
C767 N766 1.346 . S
C767 C768 1.396 . S
C767 C777 1.510 . S
C768 C764 1.401 . S
C768 C767 1.396 . S
C769 C764 1.499 . S
C769 H770 0.959 . S
C769 H771 0.960 . S
C769 H772 0.961 . S
H770 C769 0.959 . S
H771 C769 0.960 . S
H772 C769 0.961 . S
O773 Co748 1.967 . S
O773 C781 1.258 . S
O774 Co749 1.941 . S
O774 C781 1.266 . S
H775 C777 0.959 . S
H776 C777 0.961 . S
C777 C767 1.510 . S
C777 H775 0.959 . S
C777 H776 0.961 . S
C777 H778 0.960 . S
H778 C777 0.960 . S
H779 N759 0.862 . S
O780 Co748 1.920 . S
O780 C753 1.289 . S
C781 O773 1.258 . S
C781 O774 1.266 . S
Co782 O785 1.970 . S
Co782 N799 1.989 . S
Co782 O807 1.967 . S
Co782 O814 1.920 . S
Co783 O786 1.966 . S
Co783 N792 2.022 . S
Co783 N800 1.993 . S
Co783 O808 1.941 . S
C784 O785 1.258 . S
C784 O786 1.263 . S
O785 Co782 1.970 . S
O785 C784 1.258 . S
O786 Co783 1.966 . S
O786 C784 1.263 . S
C787 O788 1.235 . S
C787 O814 1.289 . S
O788 C787 1.235 . S
C789 C791 1.400 . S
C789 N792 1.351 . S
C789 C794 1.501 . S
C790 C791 1.387 . S
C790 N793 1.341 . S
C791 C789 1.400 . S
C791 C790 1.387 . S
N792 Co783 2.022 . S
N792 C789 1.351 . S
N792 N793 1.365 . S
N793 C790 1.341 . S
N793 N792 1.365 . S
N793 H813 0.862 . S
C794 C789 1.501 . S
C794 H795 0.961 . S
C794 H796 0.961 . S
C794 H797 0.960 . S
H795 C794 0.961 . S
H796 C794 0.961 . S
H797 C794 0.960 . S
C798 N799 1.342 . S
C798 C802 1.401 . S
C798 C803 1.499 . S
N799 Co782 1.989 . S
N799 C798 1.342 . S
N799 N800 1.388 . S
N800 Co783 1.993 . S
N800 N799 1.388 . S
N800 C801 1.346 . S
C801 N800 1.346 . S
C801 C802 1.396 . S
C801 C811 1.510 . S
C802 C798 1.401 . S
C802 C801 1.396 . S
C803 C798 1.499 . S
C803 H804 0.959 . S
C803 H805 0.960 . S
C803 H806 0.961 . S
H804 C803 0.959 . S
H805 C803 0.960 . S
H806 C803 0.961 . S
O807 Co782 1.967 . S
O807 C815 1.258 . S
O808 Co783 1.941 . S
O808 C815 1.266 . S
H809 C811 0.959 . S
H810 C811 0.961 . S
C811 C801 1.510 . S
C811 H809 0.959 . S
C811 H810 0.961 . S
C811 H812 0.960 . S
H812 C811 0.960 . S
H813 N793 0.862 . S
O814 Co782 1.920 . S
O814 C787 1.289 . S
C815 O807 1.258 . S
C815 O808 1.266 . S
C816 C817 1.391 . S
C816 C818 1.394 . S
C816 H832 0.931 . S
C817 C816 1.391 . S
C817 C821 1.376 . S
C818 C816 1.394 . S
C818 C819 1.369 . S
C818 C822 1.531 . S
C819 C818 1.369 . S
C819 C820 1.410 . S
C819 C827 1.503 . S
C820 C819 1.410 . S
C820 C821 1.392 . S
C820 C823 1.511 . S
C821 C817 1.376 . S
C821 C820 1.392 . S
C821 H833 0.929 . S
C822 C818 1.531 . S
C822 H834 0.960 . S
C822 H835 0.962 . S
C822 H836 0.960 . S
C823 C820 1.511 . S
C823 H837 0.961 . S
C823 H838 0.961 . S
C823 H839 0.961 . S
C824 C825 1.370 . S
C824 C826 1.363 . S
C824 H840 0.931 . S
C825 C824 1.370 . S
C825 C829 1.408 . S
C826 C824 1.363 . S
C826 C827 1.370 . S
C826 C830 1.524 . S
C827 C819 1.503 . S
C827 C826 1.370 . S
C827 C828 1.403 . S
C828 C827 1.403 . S
C828 C829 1.404 . S
C828 C831 1.539 . S
C829 C825 1.408 . S
C829 C828 1.404 . S
C829 H841 0.930 . S
C830 C826 1.524 . S
C830 H842 0.956 . S
C830 H843 0.961 . S
C830 H844 0.961 . S
C831 C828 1.539 . S
C831 H845 0.958 . S
C831 H846 0.961 . S
C831 H847 0.960 . S
H832 C816 0.931 . S
H833 C821 0.929 . S
H834 C822 0.960 . S
H835 C822 0.962 . S
H836 C822 0.960 . S
H837 C823 0.961 . S
H838 C823 0.961 . S
H839 C823 0.961 . S
H840 C824 0.931 . S
H841 C829 0.930 . S
H842 C830 0.956 . S
H843 C830 0.961 . S
H844 C830 0.961 . S
H845 C831 0.958 . S
H846 C831 0.961 . S
H847 C831 0.960 . S
C848 C849 1.391 . S
C848 C850 1.394 . S
C848 H864 0.931 . S
C849 C848 1.391 . S
C849 C853 1.376 . S
C850 C848 1.394 . S
C850 C851 1.369 . S
C850 C854 1.531 . S
C851 C850 1.369 . S
C851 C852 1.410 . S
C851 C859 1.503 . S
C852 C851 1.410 . S
C852 C853 1.392 . S
C852 C855 1.511 . S
C853 C849 1.376 . S
C853 C852 1.392 . S
C853 H865 0.929 1_655 S
C854 C850 1.531 . S
C854 H866 0.960 . S
C854 H867 0.962 . S
C854 H868 0.960 . S
C855 C852 1.511 . S
C855 H869 0.970 . S
C855 H870 0.961 . S
C855 H871 0.961 . S
C856 C857 1.370 . S
C856 C858 1.363 . S
C856 H872 0.931 . S
C857 C856 1.370 . S
C857 C861 1.408 . S
C858 C856 1.363 . S
C858 C859 1.370 . S
C858 C862 1.524 . S
C859 C851 1.503 . S
C859 C858 1.370 . S
C859 C860 1.403 . S
C860 C859 1.403 . S
C860 C861 1.404 . S
C860 C863 1.539 . S
C861 C857 1.408 . S
C861 C860 1.404 . S
C861 H873 0.930 . S
C862 C858 1.524 . S
C862 H874 0.956 . S
C862 H875 0.961 . S
C862 H876 0.961 . S
C863 C860 1.539 . S
C863 H877 0.958 . S
C863 H878 0.961 . S
C863 H879 0.960 . S
H864 C848 0.931 . S
H865 C853 0.929 1_455 S
H866 C854 0.960 . S
H867 C854 0.962 . S
H868 C854 0.960 . S
H869 C855 0.970 . S
H870 C855 0.961 . S
H871 C855 0.961 . S
H872 C856 0.931 . S
H873 C861 0.930 . S
H874 C862 0.956 . S
H875 C862 0.961 . S
H876 C862 0.961 . S
H877 C863 0.958 . S
H878 C863 0.961 . S
H879 C863 0.960 . S
C880 C881 1.391 . S
C880 C882 1.394 . S
C880 H896 0.931 . S
C881 C880 1.391 . S
C881 C885 1.376 . S
C882 C880 1.394 . S
C882 C883 1.369 . S
C882 C886 1.531 . S
C883 C882 1.369 . S
C883 C884 1.410 . S
C883 C891 1.503 . S
C884 C883 1.410 . S
C884 C885 1.392 . S
C884 C887 1.511 . S
C885 C881 1.376 . S
C885 C884 1.392 . S
C885 H897 0.929 . S
C886 C882 1.531 . S
C886 H898 0.960 . S
C886 H899 0.962 . S
C886 H900 0.960 . S
C887 C884 1.511 . S
C887 H901 0.961 . S
C887 H902 0.961 . S
C887 H903 0.961 . S
C888 C889 1.370 . S
C888 C890 1.363 . S
C888 H904 0.931 . S
C889 C888 1.370 . S
C889 C893 1.408 . S
C890 C888 1.363 . S
C890 C891 1.370 . S
C890 C894 1.524 . S
C891 C883 1.503 . S
C891 C890 1.370 . S
C891 C892 1.403 . S
C892 C891 1.403 . S
C892 C893 1.404 . S
C892 C895 1.539 . S
C893 C889 1.408 . S
C893 C892 1.404 . S
C893 H905 0.930 . S
C894 C890 1.524 . S
C894 H906 0.956 . S
C894 H907 0.961 . S
C894 H908 0.961 . S
C895 C892 1.539 . S
C895 H909 0.958 . S
C895 H910 0.961 . S
C895 H911 0.960 . S
H896 C880 0.931 . S
H897 C885 0.929 . S
H898 C886 0.960 . S
H899 C886 0.962 . S
H900 C886 0.960 . S
H901 C887 0.961 . S
H902 C887 0.961 . S
H903 C887 0.961 . S
H904 C888 0.931 . S
H905 C893 0.930 . S
H906 C894 0.956 . S
H907 C894 0.961 . S
H908 C894 0.961 . S
H909 C895 0.958 . S
H910 C895 0.961 . S
H911 C895 0.960 . S
C912 C913 1.391 . S
C912 C914 1.394 . S
C912 H928 0.931 . S
C913 C912 1.391 . S
C913 C917 1.376 . S
C914 C912 1.394 . S
C914 C915 1.369 . S
C914 C918 1.531 . S
C915 C914 1.369 . S
C915 C916 1.410 . S
C915 C923 1.503 . S
C916 C915 1.410 . S
C916 C917 1.392 . S
C916 C919 1.511 . S
C917 C913 1.376 . S
C917 C916 1.392 . S
C917 H929 0.929 . S
C918 C914 1.531 . S
C918 H930 0.960 . S
C918 H931 0.962 . S
C918 H932 0.960 . S
C919 C916 1.511 . S
C919 H933 0.961 . S
C919 H934 0.961 . S
C919 H935 0.961 . S
C920 C921 1.370 . S
C920 C922 1.363 . S
C920 H936 0.931 1_455 S
C921 C920 1.370 . S
C921 C925 1.408 . S
C922 C920 1.363 . S
C922 C923 1.370 . S
C922 C926 1.524 . S
C923 C915 1.503 . S
C923 C922 1.370 . S
C923 C924 1.403 . S
C924 C923 1.403 . S
C924 C925 1.404 . S
C924 C927 1.539 . S
C925 C921 1.408 . S
C925 C924 1.404 . S
C925 H937 0.930 . S
C926 C922 1.524 . S
C926 H938 0.956 . S
C926 H939 0.961 . S
C926 H940 0.961 . S
C927 C924 1.539 . S
C927 H941 0.958 . S
C927 H942 0.961 . S
C927 H943 0.960 . S
H928 C912 0.931 . S
H929 C917 0.929 . S
H930 C918 0.960 . S
H931 C918 0.962 . S
H932 C918 0.960 . S
H933 C919 0.961 . S
H934 C919 0.961 . S
H935 C919 0.961 . S
H936 C920 0.931 1_655 S
H937 C925 0.930 . S
H938 C926 0.956 . S
H939 C926 0.961 . S
H940 C926 0.961 . S
H941 C927 0.958 . S
H942 C927 0.961 . S
H943 C927 0.960 . S
C944 C945 1.391 . S
C944 C946 1.394 . S
C944 H960 0.931 . S
C945 C944 1.391 . S
C945 C949 1.376 . S
C946 C944 1.394 . S
C946 C947 1.369 . S
C946 C950 1.531 . S
C947 C946 1.369 . S
C947 C948 1.410 . S
C947 C955 1.503 . S
C948 C947 1.410 . S
C948 C949 1.392 . S
C948 C951 1.511 . S
C949 C945 1.376 . S
C949 C948 1.392 . S
C949 H961 0.929 . S
C950 C946 1.531 . S
C950 H962 0.960 . S
C950 H963 0.962 . S
C950 H964 0.960 . S
C951 C948 1.511 . S
C951 H965 0.961 . S
C951 H966 0.961 . S
C951 H967 0.961 . S
C952 C953 1.370 . S
C952 C954 1.363 . S
C952 H968 0.931 . S
C953 C952 1.370 . S
C953 C957 1.408 . S
C954 C952 1.363 . S
C954 C955 1.370 . S
C954 C958 1.524 . S
C955 C947 1.503 . S
C955 C954 1.370 . S
C955 C956 1.403 . S
C956 C955 1.403 . S
C956 C957 1.404 . S
C956 C959 1.539 . S
C957 C953 1.408 . S
C957 C956 1.404 . S
C957 H969 0.930 . S
C958 C954 1.524 . S
C958 H970 0.956 . S
C958 H971 0.961 . S
C958 H972 0.961 . S
C959 C956 1.539 . S
C959 H973 0.958 . S
C959 H974 0.961 . S
C959 H975 0.960 . S
H960 C944 0.931 . S
H961 C949 0.929 . S
H962 C950 0.960 . S
H963 C950 0.962 . S
H964 C950 0.960 . S
H965 C951 0.961 . S
H966 C951 0.961 . S
H967 C951 0.961 . S
H968 C952 0.931 . S
H969 C957 0.930 . S
H970 C958 0.956 . S
H971 C958 0.961 . S
H972 C958 0.961 . S
H973 C959 0.958 . S
H974 C959 0.961 . S
H975 C959 0.960 . S
C976 C977 1.391 . S
C976 C978 1.394 . S
C976 H992 0.931 . S
C977 C976 1.391 . S
C977 C981 1.376 . S
C978 C976 1.394 . S
C978 C979 1.369 . S
C978 C982 1.531 . S
C979 C978 1.369 . S
C979 C980 1.410 . S
C979 C987 1.503 . S
C980 C979 1.410 . S
C980 C981 1.392 . S
C980 C983 1.511 . S
C981 C977 1.376 . S
C981 C980 1.392 . S
C981 H993 0.929 . S
C982 C978 1.531 . S
C982 H994 0.960 . S
C982 H995 0.962 . S
C982 H996 0.960 . S
C983 C980 1.511 . S
C983 H997 0.961 . S
C983 H998 0.961 . S
C983 H999 0.961 . S
C984 C985 1.370 . S
C984 C986 1.363 . S
C984 H1000 0.931 . S
C985 C984 1.370 . S
C985 C989 1.408 . S
C986 C984 1.363 . S
C986 C987 1.370 . S
C986 C990 1.524 . S
C987 C979 1.503 . S
C987 C986 1.370 . S
C987 C988 1.403 . S
C988 C987 1.403 . S
C988 C989 1.404 . S
C988 C991 1.539 . S
C989 C985 1.408 . S
C989 C988 1.404 . S
C989 H1001 0.930 . S
C990 C986 1.524 . S
C990 H1002 0.956 . S
C990 H1003 0.961 . S
C990 H1004 0.961 . S
C991 C988 1.539 . S
C991 H1005 0.958 . S
C991 H1006 0.961 . S
C991 H1007 0.960 . S
H992 C976 0.931 . S
H993 C981 0.929 . S
H994 C982 0.960 . S
H995 C982 0.962 . S
H996 C982 0.960 . S
H997 C983 0.961 . S
H998 C983 0.961 . S
H999 C983 0.961 . S
H1000 C984 0.931 . S
H1001 C989 0.930 . S
H1002 C990 0.956 . S
H1003 C990 0.961 . S
H1004 C990 0.961 . S
H1005 C991 0.958 . S
H1006 C991 0.961 . S
H1007 C991 0.960 . S
C1008 C1009 1.391 . S
C1008 C1010 1.394 . S
C1008 H1024 0.931 . S
C1009 C1008 1.391 . S
C1009 C1013 1.376 . S
C1010 C1008 1.394 . S
C1010 C1011 1.369 . S
C1010 C1014 1.531 . S
C1011 C1010 1.369 . S
C1011 C1012 1.410 . S
C1011 C1019 1.503 . S
C1012 C1011 1.410 . S
C1012 C1013 1.392 . S
C1012 C1015 1.511 . S
C1013 C1009 1.376 . S
C1013 C1012 1.392 . S
C1013 H1025 0.929 . S
C1014 C1010 1.531 . S
C1014 H1026 0.960 . S
C1014 H1027 0.962 . S
C1014 H1028 0.960 . S
C1015 C1012 1.511 . S
C1015 H1029 0.961 . S
C1015 H1030 0.961 . S
C1015 H1031 0.961 . S
C1016 C1017 1.370 . S
C1016 C1018 1.363 . S
C1016 H1032 0.931 . S
C1017 C1016 1.370 . S
C1017 C1021 1.408 . S
C1018 C1016 1.363 . S
C1018 C1019 1.370 . S
C1018 C1022 1.524 . S
C1019 C1011 1.503 . S
C1019 C1018 1.370 . S
C1019 C1020 1.403 . S
C1020 C1019 1.403 . S
C1020 C1021 1.404 . S
C1020 C1023 1.539 . S
C1021 C1017 1.408 . S
C1021 C1020 1.404 . S
C1021 H1033 0.930 . S
C1022 C1018 1.524 . S
C1022 H1034 0.956 . S
C1022 H1035 0.961 . S
C1022 H1036 0.961 . S
C1023 C1020 1.539 . S
C1023 H1037 0.958 . S
C1023 H1038 0.961 . S
C1023 H1039 0.960 . S
H1024 C1008 0.931 . S
H1025 C1013 0.929 . S
H1026 C1014 0.960 . S
H1027 C1014 0.962 . S
H1028 C1014 0.960 . S
H1029 C1015 0.961 . S
H1030 C1015 0.961 . S
H1031 C1015 0.961 . S
H1032 C1016 0.931 . S
H1033 C1021 0.930 . S
H1034 C1022 0.956 . S
H1035 C1022 0.961 . S
H1036 C1022 0.961 . S
H1037 C1023 0.958 . S
H1038 C1023 0.961 . S
H1039 C1023 0.960 . S
C1040 C1041 1.391 . S
C1040 C1042 1.394 . S
C1040 H1056 0.931 1_655 S
C1041 C1040 1.391 . S
C1041 C1045 1.376 . S
C1042 C1040 1.394 . S
C1042 C1043 1.369 . S
C1042 C1046 1.531 . S
C1043 C1042 1.369 . S
C1043 C1044 1.410 . S
C1043 C1051 1.503 . S
C1044 C1043 1.410 . S
C1044 C1045 1.392 . S
C1044 C1047 1.511 . S
C1045 C1041 1.376 . S
C1045 C1044 1.392 . S
C1045 H1057 0.929 . S
C1046 C1042 1.531 . S
C1046 H1058 0.960 . S
C1046 H1059 0.962 . S
C1046 H1060 0.960 . S
C1047 C1044 1.511 . S
C1047 H1061 0.961 . S
C1047 H1062 0.961 . S
C1047 H1063 0.961 . S
C1048 C1049 1.370 . S
C1048 C1050 1.363 . S
C1048 H1064 0.931 . S
C1049 C1048 1.370 . S
C1049 C1053 1.408 . S
C1050 C1048 1.363 . S
C1050 C1051 1.370 . S
C1050 C1054 1.524 . S
C1051 C1043 1.503 . S
C1051 C1050 1.370 . S
C1051 C1052 1.403 . S
C1052 C1051 1.403 . S
C1052 C1053 1.404 . S
C1052 C1055 1.539 . S
C1053 C1049 1.408 . S
C1053 C1052 1.404 . S
C1053 H1065 0.930 . S
C1054 C1050 1.524 . S
C1054 H1066 0.956 . S
C1054 H1067 0.961 . S
C1054 H1068 0.961 . S
C1055 C1052 1.539 . S
C1055 H1069 0.958 . S
C1055 H1070 0.961 . S
C1055 H1071 0.960 . S
H1056 C1040 0.931 1_455 S
H1057 C1045 0.929 . S
H1058 C1046 0.960 . S
H1059 C1046 0.962 . S
H1060 C1046 0.960 . S
H1061 C1047 0.961 . S
H1062 C1047 0.961 . S
H1063 C1047 0.961 . S
H1064 C1048 0.931 . S
H1065 C1053 0.930 . S
H1066 C1054 0.956 . S
H1067 C1054 0.961 . S
H1068 C1054 0.961 . S
H1069 C1055 0.958 . S
H1070 C1055 0.961 . S
H1071 C1055 0.960 . S
C1072 C1073 1.391 . S
C1072 C1074 1.394 . S
C1072 H1088 0.931 . S
C1073 C1072 1.391 . S
C1073 C1077 1.376 . S
C1074 C1072 1.394 . S
C1074 C1075 1.369 . S
C1074 C1078 1.531 . S
C1075 C1074 1.369 . S
C1075 C1076 1.410 . S
C1075 C1083 1.503 . S
C1076 C1075 1.410 . S
C1076 C1077 1.392 . S
C1076 C1079 1.511 . S
C1077 C1073 1.376 . S
C1077 C1076 1.392 . S
C1077 H1089 0.929 . S
C1078 C1074 1.531 . S
C1078 H1090 0.960 . S
C1078 H1091 0.962 . S
C1078 H1092 0.960 . S
C1079 C1076 1.511 . S
C1079 H1093 0.961 . S
C1079 H1094 0.961 . S
C1079 H1095 0.961 . S
C1080 C1081 1.370 . S
C1080 C1082 1.363 . S
C1080 H1096 0.931 . S
C1081 C1080 1.370 . S
C1081 C1085 1.408 . S
C1082 C1080 1.363 . S
C1082 C1083 1.370 . S
C1082 C1086 1.524 . S
C1083 C1075 1.503 . S
C1083 C1082 1.370 . S
C1083 C1084 1.403 . S
C1084 C1083 1.403 . S
C1084 C1085 1.404 . S
C1084 C1087 1.539 . S
C1085 C1081 1.408 . S
C1085 C1084 1.404 . S
C1085 H1097 0.930 . S
C1086 C1082 1.524 . S
C1086 H1098 0.956 . S
C1086 H1099 0.961 . S
C1086 H1100 0.961 . S
C1087 C1084 1.539 . S
C1087 H1101 0.958 . S
C1087 H1102 0.961 . S
C1087 H1103 0.960 . S
H1088 C1072 0.931 . S
H1089 C1077 0.929 . S
H1090 C1078 0.960 . S
H1091 C1078 0.962 . S
H1092 C1078 0.960 . S
H1093 C1079 0.961 . S
H1094 C1079 0.961 . S
H1095 C1079 0.961 . S
H1096 C1080 0.931 . S
H1097 C1085 0.930 . S
H1098 C1086 0.956 . S
H1099 C1086 0.961 . S
H1100 C1086 0.961 . S
H1101 C1087 0.958 . S
H1102 C1087 0.961 . S
H1103 C1087 0.960 . S
C1104 C1105 1.391 . S
C1104 C1106 1.394 . S
C1104 H1120 0.931 . S
C1105 C1104 1.391 . S
C1105 C1109 1.376 . S
C1106 C1104 1.394 . S
C1106 C1107 1.369 . S
C1106 C1110 1.531 . S
C1107 C1106 1.369 . S
C1107 C1108 1.410 . S
C1107 C1115 1.503 . S
C1108 C1107 1.410 . S
C1108 C1109 1.392 . S
C1108 C1111 1.511 . S
C1109 C1105 1.376 . S
C1109 C1108 1.392 . S
C1109 H1121 0.929 . S
C1110 C1106 1.531 . S
C1110 H1122 0.960 . S
C1110 H1123 0.962 . S
C1110 H1124 0.960 . S
C1111 C1108 1.511 . S
C1111 H1125 0.961 . S
C1111 H1126 0.961 . S
C1111 H1127 0.961 . S
C1112 C1113 1.370 . S
C1112 C1114 1.363 . S
C1112 H1128 0.931 1_554 S
C1113 C1112 1.370 . S
C1113 C1117 1.408 . S
C1114 C1112 1.363 . S
C1114 C1115 1.370 . S
C1114 C1118 1.524 . S
C1115 C1107 1.503 . S
C1115 C1114 1.370 . S
C1115 C1116 1.403 . S
C1116 C1115 1.403 . S
C1116 C1117 1.404 . S
C1116 C1119 1.539 . S
C1117 C1113 1.408 . S
C1117 C1116 1.404 . S
C1117 H1129 0.930 . S
C1118 C1114 1.524 . S
C1118 H1130 0.956 . S
C1118 H1131 0.961 . S
C1118 H1132 0.961 . S
C1119 C1116 1.539 . S
C1119 H1133 0.958 . S
C1119 H1134 0.961 . S
C1119 H1135 0.960 . S
H1120 C1104 0.931 . S
H1121 C1109 0.929 . S
H1122 C1110 0.960 . S
H1123 C1110 0.962 . S
H1124 C1110 0.960 . S
H1125 C1111 0.961 . S
H1126 C1111 0.961 . S
H1127 C1111 0.961 . S
H1128 C1112 0.931 1_556 S
H1129 C1117 0.930 . S
H1130 C1118 0.956 . S
H1131 C1118 0.961 . S
H1132 C1118 0.961 . S
H1133 C1119 0.958 . S
H1134 C1119 0.961 . S
H1135 C1119 0.960 . S
C1136 C1137 1.391 . S
C1136 C1138 1.394 . S
C1136 H1152 0.931 . S
C1137 C1136 1.391 . S
C1137 C1141 1.376 . S
C1138 C1136 1.394 . S
C1138 C1139 1.369 . S
C1138 C1142 1.531 . S
C1139 C1138 1.369 . S
C1139 C1140 1.410 . S
C1139 C1147 1.503 . S
C1140 C1139 1.410 . S
C1140 C1141 1.392 . S
C1140 C1143 1.511 . S
C1141 C1137 1.376 . S
C1141 C1140 1.392 . S
C1141 H1153 0.929 . S
C1142 C1138 1.531 . S
C1142 H1154 0.960 . S
C1142 H1155 0.962 . S
C1142 H1156 0.960 . S
C1143 C1140 1.511 . S
C1143 H1157 0.961 . S
C1143 H1158 0.961 . S
C1143 H1159 0.961 . S
C1144 C1145 1.370 . S
C1144 C1146 1.363 . S
C1144 H1160 0.931 . S
C1145 C1144 1.370 . S
C1145 C1149 1.408 . S
C1146 C1144 1.363 . S
C1146 C1147 1.370 . S
C1146 C1150 1.524 . S
C1147 C1139 1.503 . S
C1147 C1146 1.370 . S
C1147 C1148 1.403 . S
C1148 C1147 1.403 . S
C1148 C1149 1.404 . S
C1148 C1151 1.539 . S
C1149 C1145 1.408 . S
C1149 C1148 1.404 . S
C1149 H1161 0.930 . S
C1150 C1146 1.524 . S
C1150 H1162 0.956 . S
C1150 H1163 0.961 . S
C1150 H1164 0.961 . S
C1151 C1148 1.539 . S
C1151 H1165 0.958 . S
C1151 H1166 0.961 . S
C1151 H1167 0.960 . S
H1152 C1136 0.931 . S
H1153 C1141 0.929 . S
H1154 C1142 0.960 . S
H1155 C1142 0.962 . S
H1156 C1142 0.960 . S
H1157 C1143 0.961 . S
H1158 C1143 0.961 . S
H1159 C1143 0.961 . S
H1160 C1144 0.931 . S
H1161 C1149 0.930 . S
H1162 C1150 0.956 . S
H1163 C1150 0.961 . S
H1164 C1150 0.961 . S
H1165 C1151 0.958 . S
H1166 C1151 0.961 . S
H1167 C1151 0.960 . S
C1168 C1169 1.391 . S
C1168 C1170 1.394 . S
C1168 H1184 0.931 1_554 S
C1169 C1168 1.391 . S
C1169 C1173 1.376 . S
C1170 C1168 1.394 . S
C1170 C1171 1.369 . S
C1170 C1174 1.531 . S
C1171 C1170 1.369 . S
C1171 C1172 1.410 . S
C1171 C1179 1.503 . S
C1172 C1171 1.410 . S
C1172 C1173 1.392 . S
C1172 C1175 1.511 . S
C1173 C1169 1.376 . S
C1173 C1172 1.392 . S
C1173 H1185 0.929 . S
C1174 C1170 1.531 . S
C1174 H1186 0.960 . S
C1174 H1187 0.962 . S
C1174 H1188 0.960 . S
C1175 C1172 1.511 . S
C1175 H1189 0.961 . S
C1175 H1190 0.961 . S
C1175 H1191 0.961 . S
C1176 C1177 1.370 . S
C1176 C1178 1.363 . S
C1176 H1192 0.931 . S
C1177 C1176 1.370 . S
C1177 C1181 1.408 . S
C1178 C1176 1.363 . S
C1178 C1179 1.370 . S
C1178 C1182 1.524 . S
C1179 C1171 1.503 . S
C1179 C1178 1.370 . S
C1179 C1180 1.403 . S
C1180 C1179 1.403 . S
C1180 C1181 1.404 . S
C1180 C1183 1.539 . S
C1181 C1177 1.408 . S
C1181 C1180 1.404 . S
C1181 H1193 0.930 . S
C1182 C1178 1.524 . S
C1182 H1194 0.956 . S
C1182 H1195 0.961 . S
C1182 H1196 0.961 . S
C1183 C1180 1.539 . S
C1183 H1197 0.958 . S
C1183 H1198 0.961 . S
C1183 H1199 0.960 . S
H1184 C1168 0.931 1_556 S
H1185 C1173 0.929 . S
H1186 C1174 0.960 . S
H1187 C1174 0.962 . S
H1188 C1174 0.960 . S
H1189 C1175 0.961 . S
H1190 C1175 0.961 . S
H1191 C1175 0.961 . S
H1192 C1176 0.931 . S
H1193 C1181 0.930 . S
H1194 C1182 0.956 . S
H1195 C1182 0.961 . S
H1196 C1182 0.961 . S
H1197 C1183 0.958 . S
H1198 C1183 0.961 . S
H1199 C1183 0.960 . S
C1200 C1201 1.391 . S
C1200 C1202 1.394 . S
C1200 H1216 0.931 . S
C1201 C1200 1.391 . S
C1201 C1205 1.376 . S
C1202 C1200 1.394 . S
C1202 C1203 1.369 . S
C1202 C1206 1.531 . S
C1203 C1202 1.369 . S
C1203 C1204 1.410 . S
C1203 C1211 1.503 . S
C1204 C1203 1.410 . S
C1204 C1205 1.392 . S
C1204 C1207 1.511 . S
C1205 C1201 1.376 . S
C1205 C1204 1.392 . S
C1205 H1217 0.929 . S
C1206 C1202 1.531 . S
C1206 H1218 0.960 . S
C1206 H1219 0.962 . S
C1206 H1220 0.960 . S
C1207 C1204 1.511 . S
C1207 H1221 0.961 . S
C1207 H1222 0.961 . S
C1207 H1223 0.961 . S
C1208 C1209 1.370 . S
C1208 C1210 1.363 . S
C1208 H1224 0.931 . S
C1209 C1208 1.370 . S
C1209 C1213 1.408 . S
C1210 C1208 1.363 . S
C1210 C1211 1.370 . S
C1210 C1214 1.524 . S
C1211 C1203 1.503 . S
C1211 C1210 1.370 . S
C1211 C1212 1.403 . S
C1212 C1211 1.403 . S
C1212 C1213 1.404 . S
C1212 C1215 1.539 . S
C1213 C1209 1.408 . S
C1213 C1212 1.404 . S
C1213 H1225 0.930 . S
C1214 C1210 1.524 . S
C1214 H1226 0.956 . S
C1214 H1227 0.961 . S
C1214 H1228 0.961 . S
C1215 C1212 1.539 . S
C1215 H1229 0.958 . S
C1215 H1230 0.961 . S
C1215 H1231 0.960 . S
H1216 C1200 0.931 . S
H1217 C1205 0.929 . S
H1218 C1206 0.960 . S
H1219 C1206 0.962 . S
H1220 C1206 0.960 . S
H1221 C1207 0.961 . S
H1222 C1207 0.961 . S
H1223 C1207 0.961 . S
H1224 C1208 0.931 . S
H1225 C1213 0.930 . S
H1226 C1214 0.956 . S
H1227 C1214 0.961 . S
H1228 C1214 0.961 . S
H1229 C1215 0.958 . S
H1230 C1215 0.961 . S
H1231 C1215 0.960 . S
C1232 C1233 1.391 . S
C1232 C1234 1.394 . S
C1232 H1248 0.931 . S
C1233 C1232 1.391 . S
C1233 C1237 1.376 . S
C1234 C1232 1.394 . S
C1234 C1235 1.369 . S
C1234 C1238 1.531 . S
C1235 C1234 1.369 . S
C1235 C1236 1.410 . S
C1235 C1243 1.503 . S
C1236 C1235 1.410 . S
C1236 C1237 1.392 . S
C1236 C1239 1.511 . S
C1237 C1233 1.376 . S
C1237 C1236 1.392 . S
C1237 H1249 0.929 . S
C1238 C1234 1.531 . S
C1238 H1250 0.960 . S
C1238 H1251 0.962 . S
C1238 H1252 0.960 . S
C1239 C1236 1.511 . S
C1239 H1253 0.961 . S
C1239 H1254 0.961 . S
C1239 H1255 0.961 . S
C1240 C1241 1.370 . S
C1240 C1242 1.363 . S
C1240 H1256 0.939 . S
C1241 C1240 1.370 . S
C1241 C1245 1.408 . S
C1242 C1240 1.363 . S
C1242 C1243 1.370 . S
C1242 C1246 1.524 . S
C1243 C1235 1.503 . S
C1243 C1242 1.370 . S
C1243 C1244 1.403 . S
C1244 C1243 1.403 . S
C1244 C1245 1.404 . S
C1244 C1247 1.539 . S
C1245 C1241 1.408 . S
C1245 C1244 1.404 . S
C1245 H1257 0.930 . S
C1246 C1242 1.524 . S
C1246 H1258 0.956 . S
C1246 H1259 0.961 . S
C1246 H1260 0.961 . S
C1247 C1244 1.539 . S
C1247 H1261 0.958 . S
C1247 H1262 0.961 . S
C1247 H1263 0.960 . S
H1248 C1232 0.931 . S
H1249 C1237 0.929 . S
H1250 C1238 0.960 . S
H1251 C1238 0.962 . S
H1252 C1238 0.960 . S
H1253 C1239 0.961 . S
H1254 C1239 0.961 . S
H1255 C1239 0.961 . S
H1256 C1240 0.939 . S
H1257 C1245 0.930 . S
H1258 C1246 0.956 . S
H1259 C1246 0.961 . S
H1260 C1246 0.961 . S
H1261 C1247 0.958 . S
H1262 C1247 0.961 . S
H1263 C1247 0.960 . S
C1264 C1265 1.391 . S
C1264 C1266 1.394 . S
C1264 H1280 0.931 . S
C1265 C1264 1.391 . S
C1265 C1269 1.376 . S
C1266 C1264 1.394 . S
C1266 C1267 1.369 . S
C1266 C1270 1.531 . S
C1267 C1266 1.369 . S
C1267 C1268 1.410 . S
C1267 C1275 1.503 . S
C1268 C1267 1.410 . S
C1268 C1269 1.392 . S
C1268 C1271 1.511 . S
C1269 C1265 1.376 . S
C1269 C1268 1.392 . S
C1269 H1281 0.929 . S
C1270 C1266 1.531 . S
C1270 H1282 0.960 . S
C1270 H1283 0.962 . S
C1270 H1284 0.960 . S
C1271 C1268 1.511 . S
C1271 H1285 0.961 . S
C1271 H1286 0.961 . S
C1271 H1287 0.961 . S
C1272 C1273 1.370 . S
C1272 C1274 1.363 . S
C1272 H1288 0.931 . S
C1273 C1272 1.370 . S
C1273 C1277 1.408 . S
C1274 C1272 1.363 . S
C1274 C1275 1.370 . S
C1274 C1278 1.524 . S
C1275 C1267 1.503 . S
C1275 C1274 1.370 . S
C1275 C1276 1.403 . S
C1276 C1275 1.403 . S
C1276 C1277 1.404 . S
C1276 C1279 1.539 . S
C1277 C1273 1.408 . S
C1277 C1276 1.404 . S
C1277 H1289 0.930 . S
C1278 C1274 1.524 . S
C1278 H1290 0.956 . S
C1278 H1291 0.961 . S
C1278 H1292 0.961 . S
C1279 C1276 1.539 . S
C1279 H1293 0.958 . S
C1279 H1294 0.961 . S
C1279 H1295 0.960 . S
H1280 C1264 0.931 . S
H1281 C1269 0.929 . S
H1282 C1270 0.960 . S
H1283 C1270 0.962 . S
H1284 C1270 0.960 . S
H1285 C1271 0.961 . S
H1286 C1271 0.961 . S
H1287 C1271 0.961 . S
H1288 C1272 0.931 . S
H1289 C1277 0.930 . S
H1290 C1278 0.956 . S
H1291 C1278 0.961 . S
H1292 C1278 0.961 . S
H1293 C1279 0.958 . S
H1294 C1279 0.961 . S
H1295 C1279 0.960 . S
C1296 C1297 1.391 . S
C1296 C1298 1.394 . S
C1296 H1312 0.931 1_556 S
C1297 C1296 1.391 . S
C1297 C1301 1.376 . S
C1298 C1296 1.394 . S
C1298 C1299 1.369 . S
C1298 C1302 1.531 . S
C1299 C1298 1.369 . S
C1299 C1300 1.410 . S
C1299 C1307 1.503 . S
C1300 C1299 1.410 . S
C1300 C1301 1.392 . S
C1300 C1303 1.511 . S
C1301 C1297 1.376 . S
C1301 C1300 1.392 . S
C1301 H1313 0.929 . S
C1302 C1298 1.531 . S
C1302 H1314 0.960 . S
C1302 H1315 0.962 . S
C1302 H1316 0.960 . S
C1303 C1300 1.511 . S
C1303 H1317 0.961 . S
C1303 H1318 0.961 . S
C1303 H1319 0.961 . S
C1304 C1305 1.370 . S
C1304 C1306 1.363 . S
C1304 H1320 0.931 . S
C1305 C1304 1.370 . S
C1305 C1309 1.408 . S
C1306 C1304 1.363 . S
C1306 C1307 1.370 . S
C1306 C1310 1.524 . S
C1307 C1299 1.503 . S
C1307 C1306 1.370 . S
C1307 C1308 1.403 . S
C1308 C1307 1.403 . S
C1308 C1309 1.404 . S
C1308 C1311 1.539 . S
C1309 C1305 1.408 . S
C1309 C1308 1.404 . S
C1309 H1321 0.930 . S
C1310 C1306 1.524 . S
C1310 H1322 0.956 . S
C1310 H1323 0.961 . S
C1310 H1324 0.961 . S
C1311 C1308 1.539 . S
C1311 H1325 0.958 . S
C1311 H1326 0.961 . S
C1311 H1327 0.960 . S
H1312 C1296 0.931 1_554 S
H1313 C1301 0.929 . S
H1314 C1302 0.960 . S
H1315 C1302 0.962 . S
H1316 C1302 0.960 . S
H1317 C1303 0.961 . S
H1318 C1303 0.961 . S
H1319 C1303 0.961 . S
H1320 C1304 0.931 . S
H1321 C1309 0.930 . S
H1322 C1310 0.956 . S
H1323 C1310 0.961 . S
H1324 C1310 0.961 . S
H1325 C1311 0.958 . S
H1326 C1311 0.961 . S
H1327 C1311 0.960 . S
C1328 C1329 1.391 . S
C1328 C1330 1.394 . S
C1328 H1344 0.931 . S
C1329 C1328 1.391 . S
C1329 C1333 1.376 . S
C1330 C1328 1.394 . S
C1330 C1331 1.369 . S
C1330 C1334 1.531 . S
C1331 C1330 1.369 . S
C1331 C1332 1.410 . S
C1331 C1339 1.503 . S
C1332 C1331 1.410 . S
C1332 C1333 1.392 . S
C1332 C1335 1.511 . S
C1333 C1329 1.376 . S
C1333 C1332 1.392 . S
C1333 H1345 0.929 . S
C1334 C1330 1.531 . S
C1334 H1346 0.960 . S
C1334 H1347 0.962 . S
C1334 H1348 0.960 . S
C1335 C1332 1.511 . S
C1335 H1349 0.961 . S
C1335 H1350 0.961 . S
C1335 H1351 0.961 . S
C1336 C1337 1.370 . S
C1336 C1338 1.363 . S
C1336 H1352 0.931 . S
C1337 C1336 1.370 . S
C1337 C1341 1.408 . S
C1338 C1336 1.363 . S
C1338 C1339 1.370 . S
C1338 C1342 1.524 . S
C1339 C1331 1.503 . S
C1339 C1338 1.370 . S
C1339 C1340 1.403 . S
C1340 C1339 1.403 . S
C1340 C1341 1.404 . S
C1340 C1343 1.539 . S
C1341 C1337 1.408 . S
C1341 C1340 1.404 . S
C1341 H1353 0.930 . S
C1342 C1338 1.524 . S
C1342 H1354 0.956 . S
C1342 H1355 0.961 . S
C1342 H1356 0.961 . S
C1343 C1340 1.539 . S
C1343 H1357 0.958 . S
C1343 H1358 0.961 . S
C1343 H1359 0.960 . S
H1344 C1328 0.931 . S
H1345 C1333 0.929 . S
H1346 C1334 0.960 . S
H1347 C1334 0.962 . S
H1348 C1334 0.960 . S
H1349 C1335 0.961 . S
H1350 C1335 0.961 . S
H1351 C1335 0.961 . S
H1352 C1336 0.931 . S
H1353 C1341 0.930 . S
H1354 C1342 0.956 . S
H1355 C1342 0.961 . S
H1356 C1342 0.961 . S
H1357 C1343 0.958 . S
H1358 C1343 0.961 . S
H1359 C1343 0.960 . S
C1360 C1361 1.391 . S
C1360 C1362 1.394 . S
C1360 H1376 0.931 . S
C1361 C1360 1.391 . S
C1361 C1365 1.376 . S
C1362 C1360 1.394 . S
C1362 C1363 1.369 . S
C1362 C1366 1.531 . S
C1363 C1362 1.369 . S
C1363 C1364 1.410 . S
C1363 C1371 1.503 . S
C1364 C1363 1.410 . S
C1364 C1365 1.392 . S
C1364 C1367 1.511 . S
C1365 C1361 1.376 . S
C1365 C1364 1.392 . S
C1365 H1377 0.929 . S
C1366 C1362 1.531 . S
C1366 H1378 0.960 . S
C1366 H1379 0.962 . S
C1366 H1380 0.960 . S
C1367 C1364 1.511 . S
C1367 H1381 0.961 . S
C1367 H1382 0.961 . S
C1367 H1383 0.961 . S
C1368 C1369 1.370 . S
C1368 C1370 1.363 . S
C1368 H1384 0.931 . S
C1369 C1368 1.370 . S
C1369 C1373 1.408 . S
C1370 C1368 1.363 . S
C1370 C1371 1.370 . S
C1370 C1374 1.524 . S
C1371 C1363 1.503 . S
C1371 C1370 1.370 . S
C1371 C1372 1.403 . S
C1372 C1371 1.403 . S
C1372 C1373 1.404 . S
C1372 C1375 1.539 . S
C1373 C1369 1.408 . S
C1373 C1372 1.404 . S
C1373 H1385 0.930 . S
C1374 C1370 1.524 . S
C1374 H1386 0.956 . S
C1374 H1387 0.961 . S
C1374 H1388 0.961 . S
C1375 C1372 1.539 . S
C1375 H1389 0.958 . S
C1375 H1390 0.961 . S
C1375 H1391 0.960 . S
H1376 C1360 0.931 . S
H1377 C1365 0.929 . S
H1378 C1366 0.960 . S
H1379 C1366 0.962 . S
H1380 C1366 0.960 . S
H1381 C1367 0.961 . S
H1382 C1367 0.961 . S
H1383 C1367 0.961 . S
H1384 C1368 0.931 . S
H1385 C1373 0.930 . S
H1386 C1374 0.956 . S
H1387 C1374 0.961 . S
H1388 C1374 0.961 . S
H1389 C1375 0.958 . S
H1390 C1375 0.961 . S
H1391 C1375 0.960 . S
C1392 C1393 1.391 . S
C1392 C1394 1.394 . S
C1392 H1408 0.931 1_545 S
C1393 C1392 1.391 . S
C1393 C1397 1.376 . S
C1394 C1392 1.394 . S
C1394 C1395 1.369 . S
C1394 C1398 1.531 . S
C1395 C1394 1.369 . S
C1395 C1396 1.410 . S
C1395 C1403 1.503 . S
C1396 C1395 1.410 . S
C1396 C1397 1.392 . S
C1396 C1399 1.511 . S
C1397 C1393 1.376 . S
C1397 C1396 1.392 . S
C1397 H1409 0.929 . S
C1398 C1394 1.531 . S
C1398 H1410 0.960 . S
C1398 H1411 0.962 . S
C1398 H1412 0.960 1_545 S
C1399 C1396 1.511 . S
C1399 H1413 0.961 . S
C1399 H1414 0.961 . S
C1399 H1415 0.961 . S
C1400 C1401 1.370 . S
C1400 C1402 1.363 . S
C1400 H1416 0.931 . S
C1401 C1400 1.370 . S
C1401 C1405 1.408 . S
C1402 C1400 1.363 . S
C1402 C1403 1.370 . S
C1402 C1406 1.524 . S
C1403 C1395 1.503 . S
C1403 C1402 1.370 . S
C1403 C1404 1.403 . S
C1404 C1403 1.403 . S
C1404 C1405 1.404 . S
C1404 C1407 1.539 . S
C1405 C1401 1.408 . S
C1405 C1404 1.404 . S
C1405 H1417 0.930 . S
C1406 C1402 1.524 . S
C1406 H1418 0.956 . S
C1406 H1419 0.961 . S
C1406 H1420 0.961 . S
C1407 C1404 1.539 . S
C1407 H1421 0.958 . S
C1407 H1422 0.961 . S
C1407 H1423 0.960 . S
H1408 C1392 0.931 1_565 S
H1409 C1397 0.929 . S
H1410 C1398 0.960 . S
H1411 C1398 0.962 . S
H1412 C1398 0.960 1_565 S
H1413 C1399 0.961 . S
H1414 C1399 0.961 . S
H1415 C1399 0.961 . S
H1416 C1400 0.931 . S
H1417 C1405 0.930 . S
H1418 C1406 0.956 . S
H1419 C1406 0.961 . S
H1420 C1406 0.961 . S
H1421 C1407 0.958 . S
H1422 C1407 0.961 . S
H1423 C1407 0.960 . S
C1424 C1425 1.391 . S
C1424 C1426 1.394 . S
C1424 H1440 0.931 . S
C1425 C1424 1.391 . S
C1425 C1429 1.376 . S
C1426 C1424 1.394 . S
C1426 C1427 1.369 . S
C1426 C1430 1.531 . S
C1427 C1426 1.369 . S
C1427 C1428 1.410 . S
C1427 C1435 1.503 . S
C1428 C1427 1.410 . S
C1428 C1429 1.392 . S
C1428 C1431 1.511 . S
C1429 C1425 1.376 . S
C1429 C1428 1.392 . S
C1429 H1441 0.929 . S
C1430 C1426 1.531 . S
C1430 H1442 0.960 . S
C1430 H1443 0.962 . S
C1430 H1444 0.960 . S
C1431 C1428 1.511 . S
C1431 H1445 0.961 . S
C1431 H1446 0.961 . S
C1431 H1447 0.961 . S
C1432 C1433 1.370 . S
C1432 C1434 1.363 . S
C1432 H1448 0.931 . S
C1433 C1432 1.370 . S
C1433 C1437 1.408 . S
C1434 C1432 1.363 . S
C1434 C1435 1.370 . S
C1434 C1438 1.524 . S
C1435 C1427 1.503 . S
C1435 C1434 1.370 . S
C1435 C1436 1.403 . S
C1436 C1435 1.403 . S
C1436 C1437 1.404 . S
C1436 C1439 1.539 . S
C1437 C1433 1.408 . S
C1437 C1436 1.404 . S
C1437 H1449 0.930 . S
C1438 C1434 1.524 . S
C1438 H1450 0.956 . S
C1438 H1451 0.961 . S
C1438 H1452 0.961 . S
C1439 C1436 1.539 . S
C1439 H1453 0.958 . S
C1439 H1454 0.961 . S
C1439 H1455 0.960 . S
H1440 C1424 0.931 . S
H1441 C1429 0.929 . S
H1442 C1430 0.960 . S
H1443 C1430 0.962 . S
H1444 C1430 0.960 . S
H1445 C1431 0.961 . S
H1446 C1431 0.961 . S
H1447 C1431 0.961 . S
H1448 C1432 0.931 . S
H1449 C1437 0.930 . S
H1450 C1438 0.956 . S
H1451 C1438 0.961 . S
H1452 C1438 0.961 . S
H1453 C1439 0.958 . S
H1454 C1439 0.961 . S
H1455 C1439 0.960 . S
C1456 C1457 1.391 . S
C1456 C1458 1.394 . S
C1456 H1472 0.931 . S
C1457 C1456 1.391 . S
C1457 C1461 1.376 . S
C1458 C1456 1.394 . S
C1458 C1459 1.369 . S
C1458 C1462 1.531 . S
C1459 C1458 1.369 . S
C1459 C1460 1.410 . S
C1459 C1467 1.503 . S
C1460 C1459 1.410 . S
C1460 C1461 1.392 . S
C1460 C1463 1.511 . S
C1461 C1457 1.376 . S
C1461 C1460 1.392 . S
C1461 H1473 0.929 . S
C1462 C1458 1.531 . S
C1462 H1474 0.960 . S
C1462 H1475 0.962 . S
C1462 H1476 0.960 . S
C1463 C1460 1.511 . S
C1463 H1477 0.961 . S
C1463 H1478 0.961 . S
C1463 H1479 0.961 . S
C1464 C1465 1.370 . S
C1464 C1466 1.363 . S
C1464 H1480 0.931 . S
C1465 C1464 1.370 . S
C1465 C1469 1.408 . S
C1466 C1464 1.363 . S
C1466 C1467 1.370 . S
C1466 C1470 1.524 . S
C1467 C1459 1.503 . S
C1467 C1466 1.370 . S
C1467 C1468 1.403 . S
C1468 C1467 1.403 . S
C1468 C1469 1.404 . S
C1468 C1471 1.539 . S
C1469 C1465 1.408 . S
C1469 C1468 1.404 . S
C1469 H1481 0.930 . S
C1470 C1466 1.524 . S
C1470 H1482 0.956 . S
C1470 H1483 0.961 . S
C1470 H1484 0.961 . S
C1471 C1468 1.539 . S
C1471 H1485 0.958 . S
C1471 H1486 0.961 . S
C1471 H1487 0.960 . S
H1472 C1456 0.931 . S
H1473 C1461 0.929 . S
H1474 C1462 0.960 . S
H1475 C1462 0.962 . S
H1476 C1462 0.960 . S
H1477 C1463 0.961 . S
H1478 C1463 0.961 . S
H1479 C1463 0.961 . S
H1480 C1464 0.931 . S
H1481 C1469 0.930 . S
H1482 C1470 0.956 . S
H1483 C1470 0.961 . S
H1484 C1470 0.961 . S
H1485 C1471 0.958 . S
H1486 C1471 0.961 . S
H1487 C1471 0.960 . S
C1488 C1489 1.391 . S
C1488 C1490 1.394 . S
C1488 H1504 0.931 . S
C1489 C1488 1.391 . S
C1489 C1493 1.376 . S
C1490 C1488 1.394 . S
C1490 C1491 1.369 . S
C1490 C1494 1.531 . S
C1491 C1490 1.369 . S
C1491 C1492 1.410 . S
C1491 C1499 1.503 . S
C1492 C1491 1.410 . S
C1492 C1493 1.392 . S
C1492 C1495 1.511 . S
C1493 C1489 1.376 . S
C1493 C1492 1.392 . S
C1493 H1505 0.929 . S
C1494 C1490 1.531 . S
C1494 H1506 0.960 . S
C1494 H1507 0.962 . S
C1494 H1508 0.960 . S
C1495 C1492 1.511 . S
C1495 H1509 0.961 . S
C1495 H1510 0.961 . S
C1495 H1511 0.961 . S
C1496 C1497 1.370 . S
C1496 C1498 1.363 . S
C1496 H1512 0.931 . S
C1497 C1496 1.370 . S
C1497 C1501 1.408 . S
C1498 C1496 1.363 . S
C1498 C1499 1.370 . S
C1498 C1502 1.524 . S
C1499 C1491 1.503 . S
C1499 C1498 1.370 . S
C1499 C1500 1.403 . S
C1500 C1499 1.403 . S
C1500 C1501 1.404 . S
C1500 C1503 1.539 . S
C1501 C1497 1.408 . S
C1501 C1500 1.404 . S
C1501 H1513 0.930 . S
C1502 C1498 1.524 . S
C1502 H1514 0.956 . S
C1502 H1515 0.961 . S
C1502 H1516 0.961 . S
C1503 C1500 1.539 . S
C1503 H1517 0.958 . S
C1503 H1518 0.961 . S
C1503 H1519 0.960 . S
H1504 C1488 0.931 . S
H1505 C1493 0.929 . S
H1506 C1494 0.960 . S
H1507 C1494 0.962 . S
H1508 C1494 0.960 . S
H1509 C1495 0.961 . S
H1510 C1495 0.961 . S
H1511 C1495 0.961 . S
H1512 C1496 0.931 . S
H1513 C1501 0.930 . S
H1514 C1502 0.956 . S
H1515 C1502 0.961 . S
H1516 C1502 0.961 . S
H1517 C1503 0.958 . S
H1518 C1503 0.961 . S
H1519 C1503 0.960 . S
C1520 C1521 1.391 . S
C1520 C1522 1.394 . S
C1520 H1536 0.931 . S
C1521 C1520 1.391 . S
C1521 C1525 1.376 . S
C1522 C1520 1.394 . S
C1522 C1523 1.369 . S
C1522 C1526 1.531 . S
C1523 C1522 1.369 . S
C1523 C1524 1.410 . S
C1523 C1531 1.503 . S
C1524 C1523 1.410 . S
C1524 C1525 1.392 . S
C1524 C1527 1.511 . S
C1525 C1521 1.376 . S
C1525 C1524 1.392 . S
C1525 H1537 0.929 1_565 S
C1526 C1522 1.531 . S
C1526 H1538 0.960 . S
C1526 H1539 0.962 . S
C1526 H1540 0.960 . S
C1527 C1524 1.511 . S
C1527 H1541 0.994 . S
C1527 H1542 0.961 . S
C1527 H1543 0.961 . S
C1528 C1529 1.370 . S
C1528 C1530 1.363 . S
C1528 H1544 0.931 . S
C1529 C1528 1.370 . S
C1529 C1533 1.408 . S
C1530 C1528 1.363 . S
C1530 C1531 1.370 . S
C1530 C1534 1.524 . S
C1531 C1523 1.503 . S
C1531 C1530 1.370 . S
C1531 C1532 1.403 . S
C1532 C1531 1.403 . S
C1532 C1533 1.404 . S
C1532 C1535 1.539 . S
C1533 C1529 1.408 . S
C1533 C1532 1.404 . S
C1533 H1545 0.930 . S
C1534 C1530 1.524 . S
C1534 H1546 0.956 . S
C1534 H1547 0.961 . S
C1534 H1548 0.961 . S
C1535 C1532 1.539 . S
C1535 H1549 0.958 . S
C1535 H1550 0.961 . S
C1535 H1551 0.960 . S
H1536 C1520 0.931 . S
H1537 C1525 0.929 1_545 S
H1538 C1526 0.960 . S
H1539 C1526 0.962 . S
H1540 C1526 0.960 . S
H1541 C1527 0.994 . S
H1542 C1527 0.961 . S
H1543 C1527 0.961 . S
H1544 C1528 0.931 . S
H1545 C1533 0.930 . S
H1546 C1534 0.956 . S
H1547 C1534 0.961 . S
H1548 C1534 0.961 . S
H1549 C1535 0.958 . S
H1550 C1535 0.961 . S
H1551 C1535 0.960 . S
C1552 C1553 1.391 . S
C1552 C1554 1.394 . S
C1552 H1568 0.931 . S
C1553 C1552 1.391 . S
C1553 C1557 1.376 . S
C1554 C1552 1.394 . S
C1554 C1555 1.369 . S
C1554 C1558 1.531 . S
C1555 C1554 1.369 . S
C1555 C1556 1.410 . S
C1555 C1563 1.503 . S
C1556 C1555 1.410 . S
C1556 C1557 1.392 . S
C1556 C1559 1.511 . S
C1557 C1553 1.376 . S
C1557 C1556 1.392 . S
C1557 H1569 0.929 . S
C1558 C1554 1.531 . S
C1558 H1570 0.960 . S
C1558 H1571 0.962 . S
C1558 H1572 0.960 . S
C1559 C1556 1.511 . S
C1559 H1573 0.961 . S
C1559 H1574 0.961 . S
C1559 H1575 0.961 . S
C1560 C1561 1.370 . S
C1560 C1562 1.363 . S
C1560 H1576 0.931 . S
C1561 C1560 1.370 . S
C1561 C1565 1.408 . S
C1562 C1560 1.363 . S
C1562 C1563 1.370 . S
C1562 C1566 1.524 . S
C1563 C1555 1.503 . S
C1563 C1562 1.370 . S
C1563 C1564 1.403 . S
C1564 C1563 1.403 . S
C1564 C1565 1.404 . S
C1564 C1567 1.539 . S
C1565 C1561 1.408 . S
C1565 C1564 1.404 . S
C1565 H1577 0.930 . S
C1566 C1562 1.524 . S
C1566 H1578 0.956 . S
C1566 H1579 0.961 . S
C1566 H1580 0.961 . S
C1567 C1564 1.539 . S
C1567 H1581 0.958 . S
C1567 H1582 0.961 . S
C1567 H1583 0.960 . S
H1568 C1552 0.931 . S
H1569 C1557 0.929 . S
H1570 C1558 0.960 . S
H1571 C1558 0.962 . S
H1572 C1558 0.960 . S
H1573 C1559 0.961 . S
H1574 C1559 0.961 . S
H1575 C1559 0.961 . S
H1576 C1560 0.931 . S
H1577 C1565 0.930 . S
H1578 C1566 0.956 . S
H1579 C1566 0.961 . S
H1580 C1566 0.961 . S
H1581 C1567 0.958 . S
H1582 C1567 0.961 . S
H1583 C1567 0.960 . S
C1584 C1585 1.391 . S
C1584 C1586 1.394 . S
C1584 H1600 0.931 . S
C1585 C1584 1.391 . S
C1585 C1589 1.376 . S
C1586 C1584 1.394 . S
C1586 C1587 1.369 . S
C1586 C1590 1.531 1_556 S
C1587 C1586 1.369 . S
C1587 C1588 1.410 1_655 S
C1587 C1595 1.503 1_656 S
C1588 C1587 1.410 1_455 S
C1588 C1589 1.392 1_455 S
C1588 C1591 1.511 . S
C1589 C1585 1.376 . S
C1589 C1588 1.392 1_655 S
C1589 H1601 0.929 1_655 S
C1590 C1586 1.531 1_554 S
C1590 H1602 0.960 . S
C1590 H1603 0.962 . S
C1590 H1604 0.960 . S
C1591 C1588 1.511 . S
C1591 H1605 0.961 . S
C1591 H1606 0.961 . S
C1591 H1607 0.961 . S
C1592 C1593 1.370 . S
C1592 C1594 1.363 . S
C1592 H1608 0.931 . S
C1593 C1592 1.370 . S
C1593 C1597 1.408 . S
C1594 C1592 1.363 . S
C1594 C1595 1.370 . S
C1594 C1598 1.524 1_455 S
C1595 C1587 1.503 1_454 S
C1595 C1594 1.370 . S
C1595 C1596 1.403 . S
C1596 C1595 1.403 . S
C1596 C1597 1.404 . S
C1596 C1599 1.539 . S
C1597 C1593 1.408 . S
C1597 C1596 1.404 . S
C1597 H1609 0.930 . S
C1598 C1594 1.524 1_655 S
C1598 H1610 0.956 . S
C1598 H1611 0.961 1_654 S
C1598 H1612 0.961 1_655 S
C1599 C1596 1.539 . S
C1599 H1613 0.958 . S
C1599 H1614 0.961 . S
C1599 H1615 0.960 1_554 S
H1600 C1584 0.931 . S
H1601 C1589 0.929 1_455 S
H1602 C1590 0.960 . S
H1603 C1590 0.962 . S
H1604 C1590 0.960 . S
H1605 C1591 0.961 . S
H1606 C1591 0.961 . S
H1607 C1591 0.961 . S
H1608 C1592 0.931 . S
H1609 C1597 0.930 . S
H1610 C1598 0.956 . S
H1611 C1598 0.961 1_456 S
H1612 C1598 0.961 1_455 S
H1613 C1599 0.958 . S
H1614 C1599 0.961 . S
H1615 C1599 0.960 1_556 S
C1616 C1617 1.391 . S
C1616 C1618 1.394 . S
C1616 H1632 0.931 . S
C1617 C1616 1.391 . S
C1617 C1621 1.376 . S
C1618 C1616 1.394 . S
C1618 C1619 1.369 . S
C1618 C1622 1.531 . S
C1619 C1618 1.369 . S
C1619 C1620 1.410 . S
C1619 C1627 1.503 . S
C1620 C1619 1.410 . S
C1620 C1621 1.392 . S
C1620 C1623 1.511 . S
C1621 C1617 1.376 . S
C1621 C1620 1.392 . S
C1621 H1633 0.929 . S
C1622 C1618 1.531 . S
C1622 H1634 0.960 . S
C1622 H1635 0.962 . S
C1622 H1636 0.960 . S
C1623 C1620 1.511 . S
C1623 H1637 0.961 . S
C1623 H1638 0.961 . S
C1623 H1639 0.961 . S
C1624 C1625 1.370 . S
C1624 C1626 1.363 . S
C1624 H1640 0.931 . S
C1625 C1624 1.370 . S
C1625 C1629 1.408 . S
C1626 C1624 1.363 . S
C1626 C1627 1.370 . S
C1626 C1630 1.524 . S
C1627 C1619 1.503 . S
C1627 C1626 1.370 . S
C1627 C1628 1.403 . S
C1628 C1627 1.403 . S
C1628 C1629 1.404 . S
C1628 C1631 1.539 . S
C1629 C1625 1.408 . S
C1629 C1628 1.404 . S
C1629 H1641 0.930 . S
C1630 C1626 1.524 . S
C1630 H1642 0.956 . S
C1630 H1643 0.961 . S
C1630 H1644 0.961 . S
C1631 C1628 1.539 . S
C1631 H1645 0.958 . S
C1631 H1646 0.961 . S
C1631 H1647 0.960 . S
H1632 C1616 0.931 . S
H1633 C1621 0.929 . S
H1634 C1622 0.960 . S
H1635 C1622 0.962 . S
H1636 C1622 0.960 . S
H1637 C1623 0.961 . S
H1638 C1623 0.961 . S
H1639 C1623 0.961 . S
H1640 C1624 0.931 . S
H1641 C1629 0.930 . S
H1642 C1630 0.956 . S
H1643 C1630 0.961 . S
H1644 C1630 0.961 . S
H1645 C1631 0.958 . S
H1646 C1631 0.961 . S
H1647 C1631 0.960 . S
C1648 C1649 1.391 . S
C1648 C1650 1.394 1_455 S
C1648 H1664 0.931 1_455 S
C1649 C1648 1.391 . S
C1649 C1653 1.376 . S
C1650 C1648 1.394 1_655 S
C1650 C1651 1.369 1_655 S
C1650 C1654 1.531 . S
C1651 C1650 1.369 1_455 S
C1651 C1652 1.410 . S
C1651 C1659 1.503 1_456 S
C1652 C1651 1.410 . S
C1652 C1653 1.392 . S
C1652 C1655 1.511 1_556 S
C1653 C1649 1.376 . S
C1653 C1652 1.392 . S
C1653 H1665 0.929 . S
C1654 C1650 1.531 . S
C1654 H1666 0.960 . S
C1654 H1667 0.962 . S
C1654 H1668 0.960 . S
C1655 C1652 1.511 1_554 S
C1655 H1669 0.961 . S
C1655 H1670 0.961 . S
C1655 H1671 0.961 . S
C1656 C1657 1.370 . S
C1656 C1658 1.363 . S
C1656 H1672 0.931 . S
C1657 C1656 1.370 . S
C1657 C1661 1.408 . S
C1658 C1656 1.363 . S
C1658 C1659 1.370 . S
C1658 C1662 1.524 . S
C1659 C1651 1.503 1_654 S
C1659 C1658 1.370 . S
C1659 C1660 1.403 . S
C1660 C1659 1.403 . S
C1660 C1661 1.404 . S
C1660 C1663 1.539 1_655 S
C1661 C1657 1.408 . S
C1661 C1660 1.404 . S
C1661 H1673 0.930 . S
C1662 C1658 1.524 . S
C1662 H1674 0.956 1_554 S
C1662 H1675 0.918 1_654 S
C1662 H1676 0.961 . S
C1663 C1660 1.539 1_455 S
C1663 H1677 0.958 1_455 S
C1663 H1678 0.961 . S
C1663 H1679 0.960 . S
H1664 C1648 0.931 1_655 S
H1665 C1653 0.929 . S
H1666 C1654 0.960 . S
H1667 C1654 0.962 . S
H1668 C1654 0.960 . S
H1669 C1655 0.961 . S
H1670 C1655 0.961 . S
H1671 C1655 0.961 . S
H1672 C1656 0.931 . S
H1673 C1661 0.930 . S
H1674 C1662 0.956 1_556 S
H1675 C1662 0.918 1_456 S
H1676 C1662 0.961 . S
H1677 C1663 0.958 1_655 S
H1678 C1663 0.961 . S
H1679 C1663 0.960 . S
C1680 C1681 1.391 . S
C1680 C1682 1.394 . S
C1680 H1696 0.931 . S
C1681 C1680 1.391 . S
C1681 C1685 1.376 . S
C1682 C1680 1.394 . S
C1682 C1683 1.369 . S
C1682 C1686 1.531 . S
C1683 C1682 1.369 . S
C1683 C1684 1.410 . S
C1683 C1691 1.503 . S
C1684 C1683 1.410 . S
C1684 C1685 1.392 . S
C1684 C1687 1.511 . S
C1685 C1681 1.376 . S
C1685 C1684 1.392 . S
C1685 H1697 0.929 . S
C1686 C1682 1.531 . S
C1686 H1698 0.960 . S
C1686 H1699 0.962 . S
C1686 H1700 0.960 . S
C1687 C1684 1.511 . S
C1687 H1701 0.961 . S
C1687 H1702 0.961 . S
C1687 H1703 0.961 . S
C1688 C1689 1.370 . S
C1688 C1690 1.363 . S
C1688 H1704 0.931 . S
C1689 C1688 1.370 . S
C1689 C1693 1.408 . S
C1690 C1688 1.363 . S
C1690 C1691 1.370 . S
C1690 C1694 1.524 . S
C1691 C1683 1.503 . S
C1691 C1690 1.370 . S
C1691 C1692 1.403 . S
C1692 C1691 1.403 . S
C1692 C1693 1.404 . S
C1692 C1695 1.539 . S
C1693 C1689 1.408 . S
C1693 C1692 1.404 . S
C1693 H1705 0.930 . S
C1694 C1690 1.524 . S
C1694 H1706 0.956 . S
C1694 H1707 0.961 . S
C1694 H1708 0.961 . S
C1695 C1692 1.539 . S
C1695 H1709 0.958 . S
C1695 H1710 0.961 . S
C1695 H1711 0.960 . S
H1696 C1680 0.931 . S
H1697 C1685 0.929 . S
H1698 C1686 0.960 . S
H1699 C1686 0.962 . S
H1700 C1686 0.960 . S
H1701 C1687 0.961 . S
H1702 C1687 0.961 . S
H1703 C1687 0.961 . S
H1704 C1688 0.931 . S
H1705 C1693 0.930 . S
H1706 C1694 0.956 . S
H1707 C1694 0.961 . S
H1708 C1694 0.961 . S
H1709 C1695 0.958 . S
H1710 C1695 0.961 . S
H1711 C1695 0.960 . S
C1712 C1713 1.391 . S
C1712 C1714 1.394 1_565 S
C1712 H1728 0.931 1_565 S
C1713 C1712 1.391 . S
C1713 C1717 1.376 . S
C1714 C1712 1.394 1_545 S
C1714 C1715 1.369 1_545 S
C1714 C1718 1.531 . S
C1715 C1714 1.369 1_565 S
C1715 C1716 1.410 . S
C1715 C1723 1.503 1_665 S
C1716 C1715 1.410 . S
C1716 C1717 1.392 . S
C1716 C1719 1.511 1_655 S
C1717 C1713 1.376 . S
C1717 C1716 1.392 . S
C1717 H1729 0.929 . S
C1718 C1714 1.531 . S
C1718 H1730 0.960 . S
C1718 H1731 0.962 . S
C1718 H1732 0.960 . S
C1719 C1716 1.511 1_455 S
C1719 H1733 0.961 . S
C1719 H1734 0.961 . S
C1719 H1735 0.961 . S
C1720 C1721 1.370 . S
C1720 C1722 1.363 . S
C1720 H1736 0.931 . S
C1721 C1720 1.370 . S
C1721 C1725 1.408 . S
C1722 C1720 1.363 . S
C1722 C1723 1.370 . S
C1722 C1726 1.524 . S
C1723 C1715 1.503 1_445 S
C1723 C1722 1.370 . S
C1723 C1724 1.403 . S
C1724 C1723 1.403 . S
C1724 C1725 1.404 . S
C1724 C1727 1.539 1_545 S
C1725 C1721 1.408 . S
C1725 C1724 1.404 . S
C1725 H1737 0.930 . S
C1726 C1722 1.524 . S
C1726 H1738 0.956 1_455 S
C1726 H1739 0.969 1_545 S
C1726 H1740 0.961 . S
C1727 C1724 1.539 1_565 S
C1727 H1741 0.958 1_565 S
C1727 H1742 0.961 . S
C1727 H1743 0.960 . S
H1728 C1712 0.931 1_545 S
H1729 C1717 0.929 . S
H1730 C1718 0.960 . S
H1731 C1718 0.962 . S
H1732 C1718 0.960 . S
H1733 C1719 0.961 . S
H1734 C1719 0.961 . S
H1735 C1719 0.961 . S
H1736 C1720 0.931 . S
H1737 C1725 0.930 . S
H1738 C1726 0.956 1_655 S
H1739 C1726 0.969 1_565 S
H1740 C1726 0.961 . S
H1741 C1727 0.958 1_545 S
H1742 C1727 0.961 . S
H1743 C1727 0.960 . S
C1744 C1745 1.391 . S
C1744 C1746 1.394 . S
C1744 H1760 0.931 . S
C1745 C1744 1.391 . S
C1745 C1749 1.376 . S
C1746 C1744 1.394 . S
C1746 C1747 1.369 . S
C1746 C1750 1.531 . S
C1747 C1746 1.369 . S
C1747 C1748 1.410 . S
C1747 C1755 1.503 . S
C1748 C1747 1.410 . S
C1748 C1749 1.392 . S
C1748 C1751 1.511 . S
C1749 C1745 1.376 . S
C1749 C1748 1.392 . S
C1749 H1761 0.929 . S
C1750 C1746 1.531 . S
C1750 H1762 0.960 . S
C1750 H1763 0.962 . S
C1750 H1764 0.960 . S
C1751 C1748 1.511 . S
C1751 H1765 0.961 . S
C1751 H1766 0.961 . S
C1751 H1767 0.961 . S
C1752 C1753 1.370 . S
C1752 C1754 1.363 . S
C1752 H1768 0.931 . S
C1753 C1752 1.370 . S
C1753 C1757 1.408 . S
C1754 C1752 1.363 . S
C1754 C1755 1.370 . S
C1754 C1758 1.524 . S
C1755 C1747 1.503 . S
C1755 C1754 1.370 . S
C1755 C1756 1.403 . S
C1756 C1755 1.403 . S
C1756 C1757 1.404 . S
C1756 C1759 1.539 . S
C1757 C1753 1.408 . S
C1757 C1756 1.404 . S
C1757 H1769 0.930 . S
C1758 C1754 1.524 . S
C1758 H1770 0.956 . S
C1758 H1771 0.961 . S
C1758 H1772 0.961 . S
C1759 C1756 1.539 . S
C1759 H1773 0.958 . S
C1759 H1774 0.961 . S
C1759 H1775 0.960 . S
H1760 C1744 0.931 . S
H1761 C1749 0.929 . S
H1762 C1750 0.960 . S
H1763 C1750 0.962 . S
H1764 C1750 0.960 . S
H1765 C1751 0.961 . S
H1766 C1751 0.961 . S
H1767 C1751 0.961 . S
H1768 C1752 0.931 . S
H1769 C1757 0.930 . S
H1770 C1758 0.956 . S
H1771 C1758 0.961 . S
H1772 C1758 0.961 . S
H1773 C1759 0.958 . S
H1774 C1759 0.961 . S
H1775 C1759 0.960 . S
C1776 C1777 1.391 . S
C1776 C1778 1.394 1_565 S
C1776 H1792 0.931 . S
C1777 C1776 1.391 . S
C1777 C1781 1.376 . S
C1778 C1776 1.394 1_545 S
C1778 C1779 1.369 1_545 S
C1778 C1782 1.531 . S
C1779 C1778 1.369 1_565 S
C1779 C1780 1.410 . S
C1779 C1787 1.503 1_465 S
C1780 C1779 1.410 . S
C1780 C1781 1.392 . S
C1780 C1783 1.520 . S
C1781 C1777 1.376 . S
C1781 C1780 1.392 . S
C1781 H1793 0.929 . S
C1782 C1778 1.531 . S
C1782 H1794 0.960 . S
C1782 H1795 0.962 . S
C1782 H1796 0.960 . S
C1783 C1780 1.520 . S
C1783 H1797 0.962 . S
C1783 H1798 0.948 1_455 S
C1783 H1799 0.962 . S
C1784 C1785 1.370 . S
C1784 C1786 1.363 1_545 S
C1784 H1800 0.931 . S
C1785 C1784 1.370 . S
C1785 C1789 1.408 . S
C1786 C1784 1.363 1_565 S
C1786 C1787 1.370 1_565 S
C1786 C1790 1.524 . S
C1787 C1779 1.503 1_645 S
C1787 C1786 1.370 1_545 S
C1787 C1788 1.403 . S
C1788 C1787 1.403 . S
C1788 C1789 1.404 . S
C1788 C1791 1.539 1_655 S
C1789 C1785 1.408 . S
C1789 C1788 1.404 . S
C1789 H1801 0.930 . S
C1790 C1786 1.524 . S
C1790 H1802 0.956 . S
C1790 H1803 0.961 . S
C1790 H1804 0.961 . S
C1791 C1788 1.539 1_455 S
C1791 H1805 0.958 . S
C1791 H1806 0.961 1_455 S
C1791 H1807 0.960 . S
H1792 C1776 0.931 . S
H1793 C1781 0.929 . S
H1794 C1782 0.960 . S
H1795 C1782 0.962 . S
H1796 C1782 0.960 . S
H1797 C1783 0.962 . S
H1798 C1783 0.948 1_655 S
H1799 C1783 0.962 . S
H1800 C1784 0.931 . S
H1801 C1789 0.930 . S
H1802 C1790 0.956 . S
H1803 C1790 0.961 . S
H1804 C1790 0.961 . S
H1805 C1791 0.958 . S
H1806 C1791 0.961 1_655 S
H1807 C1791 0.960 . S
C1808 C1809 1.391 . S
C1808 C1810 1.394 . S
C1808 H1824 0.931 . S
C1809 C1808 1.391 . S
C1809 C1813 1.376 . S
C1810 C1808 1.394 . S
C1810 C1811 1.369 . S
C1810 C1814 1.531 . S
C1811 C1810 1.369 . S
C1811 C1812 1.410 . S
C1811 C1819 1.503 . S
C1812 C1811 1.410 . S
C1812 C1813 1.392 . S
C1812 C1815 1.511 . S
C1813 C1809 1.376 . S
C1813 C1812 1.392 . S
C1813 H1825 0.929 . S
C1814 C1810 1.531 . S
C1814 H1826 0.960 . S
C1814 H1827 0.962 . S
C1814 H1828 0.960 . S
C1815 C1812 1.511 . S
C1815 H1829 0.961 . S
C1815 H1830 0.961 . S
C1815 H1831 0.961 . S
C1816 C1817 1.370 . S
C1816 C1818 1.363 . S
C1816 H1832 0.931 . S
C1817 C1816 1.370 . S
C1817 C1821 1.408 . S
C1818 C1816 1.363 . S
C1818 C1819 1.370 . S
C1818 C1822 1.524 . S
C1819 C1811 1.503 . S
C1819 C1818 1.370 . S
C1819 C1820 1.403 . S
C1820 C1819 1.403 . S
C1820 C1821 1.404 . S
C1820 C1823 1.539 . S
C1821 C1817 1.408 . S
C1821 C1820 1.404 . S
C1821 H1833 0.930 . S
C1822 C1818 1.524 . S
C1822 H1834 0.956 . S
C1822 H1835 0.961 . S
C1822 H1836 0.961 . S
C1823 C1820 1.539 . S
C1823 H1837 0.958 . S
C1823 H1838 0.961 . S
C1823 H1839 0.960 . S
H1824 C1808 0.931 . S
H1825 C1813 0.929 . S
H1826 C1814 0.960 . S
H1827 C1814 0.962 . S
H1828 C1814 0.960 . S
H1829 C1815 0.961 . S
H1830 C1815 0.961 . S
H1831 C1815 0.961 . S
H1832 C1816 0.931 . S
H1833 C1821 0.930 . S
H1834 C1822 0.956 . S
H1835 C1822 0.961 . S
H1836 C1822 0.961 . S
H1837 C1823 0.958 . S
H1838 C1823 0.961 . S
H1839 C1823 0.960 . S
C1840 C1841 1.391 . S
C1840 C1842 1.394 . S
C1840 H1856 0.931 . S
C1841 C1840 1.391 . S
C1841 C1845 1.376 . S
C1842 C1840 1.394 . S
C1842 C1843 1.369 . S
C1842 C1846 1.531 . S
C1843 C1842 1.369 . S
C1843 C1844 1.410 . S
C1843 C1851 1.503 1_544 S
C1844 C1843 1.410 . S
C1844 C1845 1.392 . S
C1844 C1847 1.511 . S
C1845 C1841 1.376 . S
C1845 C1844 1.392 . S
C1845 H1857 0.929 . S
C1846 C1842 1.531 . S
C1846 H1858 0.960 1_545 S
C1846 H1859 0.962 1_554 S
C1846 H1860 0.960 . S
C1847 C1844 1.511 . S
C1847 H1861 0.961 . S
C1847 H1862 0.978 1_545 S
C1847 H1863 0.961 1_545 S
C1848 C1849 1.370 . S
C1848 C1850 1.363 . S
C1848 H1864 0.931 . S
C1849 C1848 1.370 . S
C1849 C1853 1.408 . S
C1850 C1848 1.363 . S
C1850 C1851 1.370 . S
C1850 C1854 1.524 1_565 S
C1851 C1843 1.503 1_566 S
C1851 C1850 1.370 . S
C1851 C1852 1.403 1_556 S
C1852 C1851 1.403 1_554 S
C1852 C1853 1.404 1_554 S
C1852 C1855 1.539 . S
C1853 C1849 1.408 . S
C1853 C1852 1.404 1_556 S
C1853 H1865 0.930 1_556 S
C1854 C1850 1.524 1_545 S
C1854 H1866 0.956 . S
C1854 H1867 0.961 . S
C1854 H1868 0.961 . S
C1855 C1852 1.539 . S
C1855 H1869 0.958 . S
C1855 H1870 0.961 . S
C1855 H1871 0.960 . S
H1856 C1840 0.931 . S
H1857 C1845 0.929 . S
H1858 C1846 0.960 1_565 S
H1859 C1846 0.962 1_556 S
H1860 C1846 0.960 . S
H1861 C1847 0.961 . S
H1862 C1847 0.978 1_565 S
H1863 C1847 0.961 1_565 S
H1864 C1848 0.931 . S
H1865 C1853 0.930 1_554 S
H1866 C1854 0.956 . S
H1867 C1854 0.961 . S
H1868 C1854 0.961 . S
H1869 C1855 0.958 . S
H1870 C1855 0.961 . S
H1871 C1855 0.960 . S
C1872 C1873 1.391 . S
C1872 C1874 1.394 . S
C1872 H1888 0.931 . S
C1873 C1872 1.391 . S
C1873 C1877 1.376 . S
C1874 C1872 1.394 . S
C1874 C1875 1.369 . S
C1874 C1878 1.531 . S
C1875 C1874 1.369 . S
C1875 C1876 1.410 . S
C1875 C1883 1.503 . S
C1876 C1875 1.410 . S
C1876 C1877 1.392 . S
C1876 C1879 1.511 . S
C1877 C1873 1.376 . S
C1877 C1876 1.392 . S
C1877 H1889 0.929 . S
C1878 C1874 1.531 . S
C1878 H1890 0.960 . S
C1878 H1891 0.962 . S
C1878 H1892 0.960 . S
C1879 C1876 1.511 . S
C1879 H1893 0.961 . S
C1879 H1894 0.961 . S
C1879 H1895 0.961 . S
C1880 C1881 1.370 . S
C1880 C1882 1.363 . S
C1880 H1896 0.931 . S
C1881 C1880 1.370 . S
C1881 C1885 1.408 . S
C1882 C1880 1.363 . S
C1882 C1883 1.370 . S
C1882 C1886 1.524 . S
C1883 C1875 1.503 . S
C1883 C1882 1.370 . S
C1883 C1884 1.403 . S
C1884 C1883 1.403 . S
C1884 C1885 1.404 . S
C1884 C1887 1.539 . S
C1885 C1881 1.408 . S
C1885 C1884 1.404 . S
C1885 H1897 0.930 . S
C1886 C1882 1.524 . S
C1886 H1898 0.956 . S
C1886 H1899 0.961 . S
C1886 H1900 0.961 . S
C1887 C1884 1.539 . S
C1887 H1901 0.958 . S
C1887 H1902 0.961 . S
C1887 H1903 0.960 . S
H1888 C1872 0.931 . S
H1889 C1877 0.929 . S
H1890 C1878 0.960 . S
H1891 C1878 0.962 . S
H1892 C1878 0.960 . S
H1893 C1879 0.961 . S
H1894 C1879 0.961 . S
H1895 C1879 0.961 . S
H1896 C1880 0.931 . S
H1897 C1885 0.930 . S
H1898 C1886 0.956 . S
H1899 C1886 0.961 . S
H1900 C1886 0.961 . S
H1901 C1887 0.958 . S
H1902 C1887 0.961 . S
H1903 C1887 0.960 . S
C1904 C1905 1.391 . S
C1904 C1906 1.394 . S
C1904 H1920 0.931 . S
C1905 C1904 1.391 . S
C1905 C1909 1.376 . S
C1906 C1904 1.394 . S
C1906 C1907 1.369 . S
C1906 C1910 1.531 1_545 S
C1907 C1906 1.369 . S
C1907 C1908 1.410 1_556 S
C1907 C1915 1.503 1_546 S
C1908 C1907 1.410 1_554 S
C1908 C1909 1.392 1_554 S
C1908 C1911 1.511 . S
C1909 C1905 1.376 . S
C1909 C1908 1.392 1_556 S
C1909 H1921 0.929 1_556 S
C1910 C1906 1.531 1_565 S
C1910 H1922 0.960 . S
C1910 H1923 0.962 . S
C1910 H1924 0.960 1_565 S
C1911 C1908 1.511 . S
C1911 H1925 0.961 . S
C1911 H1926 0.961 . S
C1911 H1927 0.961 . S
C1912 C1913 1.370 . S
C1912 C1914 1.363 . S
C1912 H1928 0.931 . S
C1913 C1912 1.370 . S
C1913 C1917 1.408 . S
C1914 C1912 1.363 . S
C1914 C1915 1.370 . S
C1914 C1918 1.524 1_554 S
C1915 C1907 1.503 1_564 S
C1915 C1914 1.370 . S
C1915 C1916 1.403 . S
C1916 C1915 1.403 . S
C1916 C1917 1.404 . S
C1916 C1919 1.539 . S
C1917 C1913 1.408 . S
C1917 C1916 1.404 . S
C1917 H1929 0.930 . S
C1918 C1914 1.524 1_556 S
C1918 H1930 0.956 . S
C1918 H1931 0.961 . S
C1918 H1932 0.961 . S
C1919 C1916 1.539 . S
C1919 H1933 0.958 . S
C1919 H1934 0.961 . S
C1919 H1935 0.960 1_565 S
H1920 C1904 0.931 . S
H1921 C1909 0.929 1_554 S
H1922 C1910 0.960 . S
H1923 C1910 0.962 . S
H1924 C1910 0.960 1_545 S
H1925 C1911 0.961 . S
H1926 C1911 0.961 . S
H1927 C1911 0.961 . S
H1928 C1912 0.931 . S
H1929 C1917 0.930 . S
H1930 C1918 0.956 . S
H1931 C1918 0.961 . S
H1932 C1918 0.961 . S
H1933 C1919 0.958 . S
H1934 C1919 0.961 . S
H1935 C1919 0.960 1_545 S
C1936 C1937 1.391 . S
C1936 C1938 1.394 . S
C1936 H1952 0.931 . S
C1937 C1936 1.391 . S
C1937 C1941 1.376 . S
C1938 C1936 1.394 . S
C1938 C1939 1.369 . S
C1938 C1942 1.531 . S
C1939 C1938 1.369 . S
C1939 C1940 1.410 . S
C1939 C1947 1.503 . S
C1940 C1939 1.410 . S
C1940 C1941 1.392 . S
C1940 C1943 1.511 . S
C1941 C1937 1.376 . S
C1941 C1940 1.392 . S
C1941 H1953 0.929 . S
C1942 C1938 1.531 . S
C1942 H1954 0.960 . S
C1942 H1955 0.962 . S
C1942 H1956 0.960 . S
C1943 C1940 1.511 . S
C1943 H1957 0.961 . S
C1943 H1958 0.961 . S
C1943 H1959 0.961 . S
C1944 C1945 1.370 . S
C1944 C1946 1.363 . S
C1944 H1960 0.931 . S
C1945 C1944 1.370 . S
C1945 C1949 1.408 . S
C1946 C1944 1.363 . S
C1946 C1947 1.370 . S
C1946 C1950 1.524 . S
C1947 C1939 1.503 . S
C1947 C1946 1.370 . S
C1947 C1948 1.403 . S
C1948 C1947 1.403 . S
C1948 C1949 1.404 . S
C1948 C1951 1.539 . S
C1949 C1945 1.408 . S
C1949 C1948 1.404 . S
C1949 H1961 0.930 . S
C1950 C1946 1.524 . S
C1950 H1962 0.956 . S
C1950 H1963 0.961 . S
C1950 H1964 0.961 . S
C1951 C1948 1.539 . S
C1951 H1965 0.958 . S
C1951 H1966 0.961 . S
C1951 H1967 0.960 . S
H1952 C1936 0.931 . S
H1953 C1941 0.929 . S
H1954 C1942 0.960 . S
H1955 C1942 0.962 . S
H1956 C1942 0.960 . S
H1957 C1943 0.961 . S
H1958 C1943 0.961 . S
H1959 C1943 0.961 . S
H1960 C1944 0.931 . S
H1961 C1949 0.930 . S
H1962 C1950 0.956 . S
H1963 C1950 0.961 . S
H1964 C1950 0.961 . S
H1965 C1951 0.958 . S
H1966 C1951 0.961 . S
H1967 C1951 0.960 . S
C1968 C1969 1.391 . S
C1968 C1970 1.394 . S
C1968 H1984 0.931 . S
C1969 C1968 1.391 . S
C1969 C1973 1.376 . S
C1970 C1968 1.394 . S
C1970 C1971 1.369 . S
C1970 C1974 1.531 . S
C1971 C1970 1.369 . S
C1971 C1972 1.410 . S
C1971 C1979 1.503 . S
C1972 C1971 1.410 . S
C1972 C1973 1.392 . S
C1972 C1975 1.511 . S
C1973 C1969 1.376 . S
C1973 C1972 1.392 . S
C1973 H1985 0.929 . S
C1974 C1970 1.531 . S
C1974 H1986 0.960 . S
C1974 H1987 0.962 . S
C1974 H1988 0.960 . S
C1975 C1972 1.511 . S
C1975 H1989 0.961 . S
C1975 H1990 0.961 . S
C1975 H1991 0.961 . S
C1976 C1977 1.370 . S
C1976 C1978 1.363 . S
C1976 H1992 0.931 . S
C1977 C1976 1.370 . S
C1977 C1981 1.408 . S
C1978 C1976 1.363 . S
C1978 C1979 1.370 . S
C1978 C1982 1.524 . S
C1979 C1971 1.503 . S
C1979 C1978 1.370 . S
C1979 C1980 1.403 . S
C1980 C1979 1.403 . S
C1980 C1981 1.404 . S
C1980 C1983 1.539 . S
C1981 C1977 1.408 . S
C1981 C1980 1.404 . S
C1981 H1993 0.930 . S
C1982 C1978 1.524 . S
C1982 H1994 0.956 . S
C1982 H1995 0.961 . S
C1982 H1996 0.961 . S
C1983 C1980 1.539 . S
C1983 H1997 0.958 . S
C1983 H1998 0.961 . S
C1983 H1999 0.960 . S
H1984 C1968 0.931 . S
H1985 C1973 0.929 . S
H1986 C1974 0.960 . S
H1987 C1974 0.962 . S
H1988 C1974 0.960 . S
H1989 C1975 0.961 . S
H1990 C1975 0.961 . S
H1991 C1975 0.961 . S
H1992 C1976 0.931 . S
H1993 C1981 0.930 . S
H1994 C1982 0.956 . S
H1995 C1982 0.961 . S
H1996 C1982 0.961 . S
H1997 C1983 0.958 . S
H1998 C1983 0.961 . S
H1999 C1983 0.960 . S
C2000 C2001 1.391 . S
C2000 C2002 1.394 . S
C2000 H2016 0.931 . S
C2001 C2000 1.391 . S
C2001 C2005 1.376 . S
C2002 C2000 1.394 . S
C2002 C2003 1.369 . S
C2002 C2006 1.531 . S
C2003 C2002 1.369 . S
C2003 C2004 1.410 . S
C2003 C2011 1.503 . S
C2004 C2003 1.410 . S
C2004 C2005 1.392 . S
C2004 C2007 1.511 . S
C2005 C2001 1.376 . S
C2005 C2004 1.392 . S
C2005 H2017 0.929 . S
C2006 C2002 1.531 . S
C2006 H2018 0.960 . S
C2006 H2019 0.962 . S
C2006 H2020 0.960 . S
C2007 C2004 1.511 . S
C2007 H2021 0.961 . S
C2007 H2022 0.961 . S
C2007 H2023 0.961 . S
C2008 C2009 1.370 . S
C2008 C2010 1.363 . S
C2008 H2024 0.931 . S
C2009 C2008 1.370 . S
C2009 C2013 1.408 . S
C2010 C2008 1.363 . S
C2010 C2011 1.370 . S
C2010 C2014 1.524 . S
C2011 C2003 1.503 . S
C2011 C2010 1.370 . S
C2011 C2012 1.403 . S
C2012 C2011 1.403 . S
C2012 C2013 1.404 . S
C2012 C2015 1.539 . S
C2013 C2009 1.408 . S
C2013 C2012 1.404 . S
C2013 H2025 0.930 . S
C2014 C2010 1.524 . S
C2014 H2026 0.956 . S
C2014 H2027 0.961 . S
C2014 H2028 0.961 . S
C2015 C2012 1.539 . S
C2015 H2029 0.958 . S
C2015 H2030 0.961 . S
C2015 H2031 0.960 . S
H2016 C2000 0.931 . S
H2017 C2005 0.929 . S
H2018 C2006 0.960 . S
H2019 C2006 0.962 . S
H2020 C2006 0.960 . S
H2021 C2007 0.961 . S
H2022 C2007 0.961 . S
H2023 C2007 0.961 . S
H2024 C2008 0.931 . S
H2025 C2013 0.930 . S
H2026 C2014 0.956 . S
H2027 C2014 0.961 . S
H2028 C2014 0.961 . S
H2029 C2015 0.958 . S
H2030 C2015 0.961 . S
H2031 C2015 0.960 . S
C2032 C2033 1.391 . S
C2032 C2034 1.394 . S
C2032 H2048 0.931 . S
C2033 C2032 1.391 . S
C2033 C2037 1.376 . S
C2034 C2032 1.394 . S
C2034 C2035 1.369 . S
C2034 C2038 1.531 . S
C2035 C2034 1.369 . S
C2035 C2036 1.410 . S
C2035 C2043 1.503 . S
C2036 C2035 1.410 . S
C2036 C2037 1.392 . S
C2036 C2039 1.511 . S
C2037 C2033 1.376 . S
C2037 C2036 1.392 . S
C2037 H2049 0.929 . S
C2038 C2034 1.531 . S
C2038 H2050 0.960 . S
C2038 H2051 0.962 . S
C2038 H2052 0.960 . S
C2039 C2036 1.511 . S
C2039 H2053 0.961 . S
C2039 H2054 0.961 . S
C2039 H2055 0.961 . S
C2040 C2041 1.370 . S
C2040 C2042 1.363 . S
C2040 H2056 0.931 . S
C2041 C2040 1.370 . S
C2041 C2045 1.408 . S
C2042 C2040 1.363 . S
C2042 C2043 1.370 . S
C2042 C2046 1.524 . S
C2043 C2035 1.503 . S
C2043 C2042 1.370 . S
C2043 C2044 1.403 . S
C2044 C2043 1.403 . S
C2044 C2045 1.404 . S
C2044 C2047 1.539 . S
C2045 C2041 1.408 . S
C2045 C2044 1.404 . S
C2045 H2057 0.930 . S
C2046 C2042 1.524 . S
C2046 H2058 0.956 . S
C2046 H2059 0.961 . S
C2046 H2060 0.961 . S
C2047 C2044 1.539 . S
C2047 H2061 0.958 . S
C2047 H2062 0.961 . S
C2047 H2063 0.960 . S
H2048 C2032 0.931 . S
H2049 C2037 0.929 . S
H2050 C2038 0.960 . S
H2051 C2038 0.962 . S
H2052 C2038 0.960 . S
H2053 C2039 0.961 . S
H2054 C2039 0.961 . S
H2055 C2039 0.961 . S
H2056 C2040 0.931 . S
H2057 C2045 0.930 . S
H2058 C2046 0.956 . S
H2059 C2046 0.961 . S
H2060 C2046 0.961 . S
H2061 C2047 0.958 . S
H2062 C2047 0.961 . S
H2063 C2047 0.960 . S
C2064 C2065 1.391 . S
C2064 C2066 1.394 . S
C2064 H2080 0.931 . S
C2065 C2064 1.391 . S
C2065 C2069 1.376 . S
C2066 C2064 1.394 . S
C2066 C2067 1.369 . S
C2066 C2070 1.531 . S
C2067 C2066 1.369 . S
C2067 C2068 1.410 . S
C2067 C2075 1.503 . S
C2068 C2067 1.410 . S
C2068 C2069 1.392 . S
C2068 C2071 1.511 . S
C2069 C2065 1.376 . S
C2069 C2068 1.392 . S
C2069 H2081 0.929 . S
C2070 C2066 1.531 . S
C2070 H2082 0.960 . S
C2070 H2083 0.962 . S
C2070 H2084 0.960 . S
C2071 C2068 1.511 . S
C2071 H2085 0.961 . S
C2071 H2086 0.961 . S
C2071 H2087 0.961 . S
C2072 C2073 1.370 . S
C2072 C2074 1.363 . S
C2072 H2088 0.931 . S
C2073 C2072 1.370 . S
C2073 C2077 1.408 . S
C2074 C2072 1.363 . S
C2074 C2075 1.370 . S
C2074 C2078 1.524 . S
C2075 C2067 1.503 . S
C2075 C2074 1.370 . S
C2075 C2076 1.403 . S
C2076 C2075 1.403 . S
C2076 C2077 1.404 . S
C2076 C2079 1.539 . S
C2077 C2073 1.408 . S
C2077 C2076 1.404 . S
C2077 H2089 0.930 . S
C2078 C2074 1.524 . S
C2078 H2090 0.956 . S
C2078 H2091 0.961 . S
C2078 H2092 0.961 . S
C2079 C2076 1.539 . S
C2079 H2093 0.958 . S
C2079 H2094 0.961 . S
C2079 H2095 0.960 . S
H2080 C2064 0.931 . S
H2081 C2069 0.929 . S
H2082 C2070 0.960 . S
H2083 C2070 0.962 . S
H2084 C2070 0.960 . S
H2085 C2071 0.961 . S
H2086 C2071 0.961 . S
H2087 C2071 0.961 . S
H2088 C2072 0.931 . S
H2089 C2077 0.930 . S
H2090 C2078 0.956 . S
H2091 C2078 0.961 . S
H2092 C2078 0.961 . S
H2093 C2079 0.958 . S
H2094 C2079 0.961 . S
H2095 C2079 0.960 . S
C2096 C2097 1.391 . S
C2096 C2098 1.394 . S
C2096 H2112 0.931 . S
C2097 C2096 1.391 . S
C2097 C2101 1.376 . S
C2098 C2096 1.394 . S
C2098 C2099 1.369 . S
C2098 C2102 1.531 . S
C2099 C2098 1.369 . S
C2099 C2100 1.410 . S
C2099 C2107 1.503 . S
C2100 C2099 1.410 . S
C2100 C2101 1.392 . S
C2100 C2103 1.511 . S
C2101 C2097 1.376 . S
C2101 C2100 1.392 . S
C2101 H2113 0.929 . S
C2102 C2098 1.531 . S
C2102 H2114 0.960 . S
C2102 H2115 0.962 . S
C2102 H2116 0.960 . S
C2103 C2100 1.511 . S
C2103 H2117 0.961 . S
C2103 H2118 0.961 . S
C2103 H2119 0.961 . S
C2104 C2105 1.370 . S
C2104 C2106 1.363 . S
C2104 H2120 0.931 . S
C2105 C2104 1.370 . S
C2105 C2109 1.408 . S
C2106 C2104 1.363 . S
C2106 C2107 1.370 . S
C2106 C2110 1.524 . S
C2107 C2099 1.503 . S
C2107 C2106 1.370 . S
C2107 C2108 1.403 . S
C2108 C2107 1.403 . S
C2108 C2109 1.404 . S
C2108 C2111 1.539 . S
C2109 C2105 1.408 . S
C2109 C2108 1.404 . S
C2109 H2121 0.930 . S
C2110 C2106 1.524 . S
C2110 H2122 0.956 . S
C2110 H2123 0.961 . S
C2110 H2124 0.961 . S
C2111 C2108 1.539 . S
C2111 H2125 0.958 . S
C2111 H2126 0.961 . S
C2111 H2127 0.960 . S
H2112 C2096 0.931 . S
H2113 C2101 0.929 . S
H2114 C2102 0.960 . S
H2115 C2102 0.962 . S
H2116 C2102 0.960 . S
H2117 C2103 0.961 . S
H2118 C2103 0.961 . S
H2119 C2103 0.961 . S
H2120 C2104 0.931 . S
H2121 C2109 0.930 . S
H2122 C2110 0.956 . S
H2123 C2110 0.961 . S
H2124 C2110 0.961 . S
H2125 C2111 0.958 . S
H2126 C2111 0.961 . S
H2127 C2111 0.960 . S
C2128 C2129 1.391 . S
C2128 C2130 1.394 . S
C2128 H2144 0.931 . S
C2129 C2128 1.391 . S
C2129 C2133 1.376 . S
C2130 C2128 1.394 . S
C2130 C2131 1.369 . S
C2130 C2134 1.531 . S
C2131 C2130 1.369 . S
C2131 C2132 1.410 . S
C2131 C2139 1.503 . S
C2132 C2131 1.410 . S
C2132 C2133 1.392 . S
C2132 C2135 1.511 . S
C2133 C2129 1.376 . S
C2133 C2132 1.392 . S
C2133 H2145 0.929 . S
C2134 C2130 1.531 . S
C2134 H2146 0.960 . S
C2134 H2147 0.962 . S
C2134 H2148 0.960 . S
C2135 C2132 1.511 . S
C2135 H2149 0.961 . S
C2135 H2150 0.961 . S
C2135 H2151 0.961 . S
C2136 C2137 1.370 . S
C2136 C2138 1.363 . S
C2136 H2152 0.931 . S
C2137 C2136 1.370 . S
C2137 C2141 1.408 . S
C2138 C2136 1.363 . S
C2138 C2139 1.370 . S
C2138 C2142 1.524 . S
C2139 C2131 1.503 . S
C2139 C2138 1.370 . S
C2139 C2140 1.403 . S
C2140 C2139 1.403 . S
C2140 C2141 1.404 . S
C2140 C2143 1.539 . S
C2141 C2137 1.408 . S
C2141 C2140 1.404 . S
C2141 H2153 0.930 . S
C2142 C2138 1.524 . S
C2142 H2154 0.956 . S
C2142 H2155 0.961 . S
C2142 H2156 0.961 . S
C2143 C2140 1.539 . S
C2143 H2157 0.958 . S
C2143 H2158 0.961 . S
C2143 H2159 0.960 . S
H2144 C2128 0.931 . S
H2145 C2133 0.929 . S
H2146 C2134 0.960 . S
H2147 C2134 0.962 . S
H2148 C2134 0.960 . S
H2149 C2135 0.961 . S
H2150 C2135 0.961 . S
H2151 C2135 0.961 . S
H2152 C2136 0.931 . S
H2153 C2141 0.930 . S
H2154 C2142 0.956 . S
H2155 C2142 0.961 . S
H2156 C2142 0.961 . S
H2157 C2143 0.958 . S
H2158 C2143 0.961 . S
H2159 C2143 0.960 . S
C2160 C2161 1.391 . S
C2160 C2162 1.394 . S
C2160 H2176 0.931 . S
C2161 C2160 1.391 . S
C2161 C2165 1.376 . S
C2162 C2160 1.394 . S
C2162 C2163 1.369 . S
C2162 C2166 1.531 . S
C2163 C2162 1.369 . S
C2163 C2164 1.410 . S
C2163 C2171 1.503 . S
C2164 C2163 1.410 . S
C2164 C2165 1.392 . S
C2164 C2167 1.511 . S
C2165 C2161 1.376 . S
C2165 C2164 1.392 . S
C2165 H2177 0.929 . S
C2166 C2162 1.531 . S
C2166 H2178 0.960 . S
C2166 H2179 0.962 . S
C2166 H2180 0.960 . S
C2167 C2164 1.511 . S
C2167 H2181 0.961 . S
C2167 H2182 0.961 . S
C2167 H2183 0.961 . S
C2168 C2169 1.370 . S
C2168 C2170 1.363 . S
C2168 H2184 0.931 . S
C2169 C2168 1.370 . S
C2169 C2173 1.408 . S
C2170 C2168 1.363 . S
C2170 C2171 1.370 . S
C2170 C2174 1.524 . S
C2171 C2163 1.503 . S
C2171 C2170 1.370 . S
C2171 C2172 1.403 . S
C2172 C2171 1.403 . S
C2172 C2173 1.404 . S
C2172 C2175 1.539 . S
C2173 C2169 1.408 . S
C2173 C2172 1.404 . S
C2173 H2185 0.930 . S
C2174 C2170 1.524 . S
C2174 H2186 0.956 . S
C2174 H2187 0.961 . S
C2174 H2188 0.961 . S
C2175 C2172 1.539 . S
C2175 H2189 0.958 . S
C2175 H2190 0.961 . S
C2175 H2191 0.960 . S
H2176 C2160 0.931 . S
H2177 C2165 0.929 . S
H2178 C2166 0.960 . S
H2179 C2166 0.962 . S
H2180 C2166 0.960 . S
H2181 C2167 0.961 . S
H2182 C2167 0.961 . S
H2183 C2167 0.961 . S
H2184 C2168 0.931 . S
H2185 C2173 0.930 . S
H2186 C2174 0.956 . S
H2187 C2174 0.961 . S
H2188 C2174 0.961 . S
H2189 C2175 0.958 . S
H2190 C2175 0.961 . S
H2191 C2175 0.960 . S
C2192 C2193 1.391 . S
C2192 C2194 1.394 . S
C2192 H2208 0.931 . S
C2193 C2192 1.391 . S
C2193 C2197 1.376 . S
C2194 C2192 1.394 . S
C2194 C2195 1.369 . S
C2194 C2198 1.531 . S
C2195 C2194 1.369 . S
C2195 C2196 1.410 . S
C2195 C2203 1.503 . S
C2196 C2195 1.410 . S
C2196 C2197 1.392 . S
C2196 C2199 1.511 . S
C2197 C2193 1.376 . S
C2197 C2196 1.392 . S
C2197 H2209 0.929 . S
C2198 C2194 1.531 . S
C2198 H2210 0.960 . S
C2198 H2211 0.962 . S
C2198 H2212 0.960 . S
C2199 C2196 1.511 . S
C2199 H2213 0.961 . S
C2199 H2214 0.961 . S
C2199 H2215 0.961 . S
C2200 C2201 1.370 . S
C2200 C2202 1.363 . S
C2200 H2216 0.931 . S
C2201 C2200 1.370 . S
C2201 C2205 1.408 . S
C2202 C2200 1.363 . S
C2202 C2203 1.370 . S
C2202 C2206 1.524 . S
C2203 C2195 1.503 . S
C2203 C2202 1.370 . S
C2203 C2204 1.403 . S
C2204 C2203 1.403 . S
C2204 C2205 1.404 . S
C2204 C2207 1.539 . S
C2205 C2201 1.408 . S
C2205 C2204 1.404 . S
C2205 H2217 0.930 . S
C2206 C2202 1.524 . S
C2206 H2218 0.956 . S
C2206 H2219 0.961 . S
C2206 H2220 0.961 . S
C2207 C2204 1.539 . S
C2207 H2221 0.958 . S
C2207 H2222 0.961 . S
C2207 H2223 0.960 . S
H2208 C2192 0.931 . S
H2209 C2197 0.929 . S
H2210 C2198 0.960 . S
H2211 C2198 0.962 . S
H2212 C2198 0.960 . S
H2213 C2199 0.961 . S
H2214 C2199 0.961 . S
H2215 C2199 0.961 . S
H2216 C2200 0.931 . S
H2217 C2205 0.930 . S
H2218 C2206 0.956 . S
H2219 C2206 0.961 . S
H2220 C2206 0.961 . S
H2221 C2207 0.958 . S
H2222 C2207 0.961 . S
H2223 C2207 0.960 . S
C2224 C2225 1.391 . S
C2224 C2226 1.394 . S
C2224 H2240 0.931 . S
C2225 C2224 1.391 . S
C2225 C2229 1.376 . S
C2226 C2224 1.394 . S
C2226 C2227 1.369 . S
C2226 C2230 1.531 . S
C2227 C2226 1.369 . S
C2227 C2228 1.410 . S
C2227 C2235 1.503 . S
C2228 C2227 1.410 . S
C2228 C2229 1.392 . S
C2228 C2231 1.511 . S
C2229 C2225 1.376 . S
C2229 C2228 1.392 . S
C2229 H2241 0.929 . S
C2230 C2226 1.531 . S
C2230 H2242 0.960 . S
C2230 H2243 0.962 . S
C2230 H2244 0.960 . S
C2231 C2228 1.511 . S
C2231 H2245 0.961 . S
C2231 H2246 0.961 . S
C2231 H2247 0.961 . S
C2232 C2233 1.370 . S
C2232 C2234 1.363 . S
C2232 H2248 0.931 . S
C2233 C2232 1.370 . S
C2233 C2237 1.408 . S
C2234 C2232 1.363 . S
C2234 C2235 1.370 . S
C2234 C2238 1.524 . S
C2235 C2227 1.503 . S
C2235 C2234 1.370 . S
C2235 C2236 1.403 . S
C2236 C2235 1.403 . S
C2236 C2237 1.404 . S
C2236 C2239 1.539 . S
C2237 C2233 1.408 . S
C2237 C2236 1.404 . S
C2237 H2249 0.930 . S
C2238 C2234 1.524 . S
C2238 H2250 0.956 . S
C2238 H2251 0.961 . S
C2238 H2252 0.961 . S
C2239 C2236 1.539 . S
C2239 H2253 0.958 . S
C2239 H2254 0.961 . S
C2239 H2255 0.960 . S
H2240 C2224 0.931 . S
H2241 C2229 0.929 . S
H2242 C2230 0.960 . S
H2243 C2230 0.962 . S
H2244 C2230 0.960 . S
H2245 C2231 0.961 . S
H2246 C2231 0.961 . S
H2247 C2231 0.961 . S
H2248 C2232 0.931 . S
H2249 C2237 0.930 . S
H2250 C2238 0.956 . S
H2251 C2238 0.961 . S
H2252 C2238 0.961 . S
H2253 C2239 0.958 . S
H2254 C2239 0.961 . S
H2255 C2239 0.960 . S
C2256 C2257 1.391 . S
C2256 C2258 1.394 . S
C2256 H2272 0.931 . S
C2257 C2256 1.391 . S
C2257 C2261 1.376 . S
C2258 C2256 1.394 . S
C2258 C2259 1.369 . S
C2258 C2262 1.531 . S
C2259 C2258 1.369 . S
C2259 C2260 1.410 . S
C2259 C2267 1.503 . S
C2260 C2259 1.410 . S
C2260 C2261 1.392 . S
C2260 C2263 1.511 . S
C2261 C2257 1.376 . S
C2261 C2260 1.392 . S
C2261 H2273 0.929 . S
C2262 C2258 1.531 . S
C2262 H2274 0.960 . S
C2262 H2275 0.962 . S
C2262 H2276 0.960 . S
C2263 C2260 1.511 . S
C2263 H2277 0.961 . S
C2263 H2278 0.961 . S
C2263 H2279 0.961 . S
C2264 C2265 1.370 . S
C2264 C2266 1.363 . S
C2264 H2280 0.931 . S
C2265 C2264 1.370 . S
C2265 C2269 1.408 . S
C2266 C2264 1.363 . S
C2266 C2267 1.370 . S
C2266 C2270 1.524 . S
C2267 C2259 1.503 . S
C2267 C2266 1.370 . S
C2267 C2268 1.403 . S
C2268 C2267 1.403 . S
C2268 C2269 1.404 . S
C2268 C2271 1.539 . S
C2269 C2265 1.408 . S
C2269 C2268 1.404 . S
C2269 H2281 0.930 . S
C2270 C2266 1.524 . S
C2270 H2282 0.956 . S
C2270 H2283 0.961 . S
C2270 H2284 0.961 . S
C2271 C2268 1.539 . S
C2271 H2285 0.958 . S
C2271 H2286 0.961 . S
C2271 H2287 0.960 . S
H2272 C2256 0.931 . S
H2273 C2261 0.929 . S
H2274 C2262 0.960 . S
H2275 C2262 0.962 . S
H2276 C2262 0.960 . S
H2277 C2263 0.961 . S
H2278 C2263 0.961 . S
H2279 C2263 0.961 . S
H2280 C2264 0.931 . S
H2281 C2269 0.930 . S
H2282 C2270 0.956 . S
H2283 C2270 0.961 . S
H2284 C2270 0.961 . S
H2285 C2271 0.958 . S
H2286 C2271 0.961 . S
H2287 C2271 0.960 . S
C2288 C2289 1.391 . S
C2288 C2290 1.394 . S
C2288 H2304 0.931 . S
C2289 C2288 1.391 . S
C2289 C2293 1.376 . S
C2290 C2288 1.394 . S
C2290 C2291 1.369 . S
C2290 C2294 1.531 . S
C2291 C2290 1.369 . S
C2291 C2292 1.410 . S
C2291 C2299 1.503 . S
C2292 C2291 1.410 . S
C2292 C2293 1.392 . S
C2292 C2295 1.511 . S
C2293 C2289 1.376 . S
C2293 C2292 1.392 . S
C2293 H2305 0.929 . S
C2294 C2290 1.531 . S
C2294 H2306 0.960 . S
C2294 H2307 0.962 . S
C2294 H2308 0.960 . S
C2295 C2292 1.511 . S
C2295 H2309 0.961 . S
C2295 H2310 0.961 . S
C2295 H2311 0.961 . S
C2296 C2297 1.370 . S
C2296 C2298 1.363 . S
C2296 H2312 0.931 . S
C2297 C2296 1.370 . S
C2297 C2301 1.408 . S
C2298 C2296 1.363 . S
C2298 C2299 1.370 . S
C2298 C2302 1.524 . S
C2299 C2291 1.503 . S
C2299 C2298 1.370 . S
C2299 C2300 1.403 . S
C2300 C2299 1.403 . S
C2300 C2301 1.404 . S
C2300 C2303 1.539 . S
C2301 C2297 1.408 . S
C2301 C2300 1.404 . S
C2301 H2313 0.930 . S
C2302 C2298 1.524 . S
C2302 H2314 0.956 . S
C2302 H2315 0.961 . S
C2302 H2316 0.961 . S
C2303 C2300 1.539 . S
C2303 H2317 0.958 . S
C2303 H2318 0.961 . S
C2303 H2319 0.960 . S
H2304 C2288 0.931 . S
H2305 C2293 0.929 . S
H2306 C2294 0.960 . S
H2307 C2294 0.962 . S
H2308 C2294 0.960 . S
H2309 C2295 0.961 . S
H2310 C2295 0.961 . S
H2311 C2295 0.961 . S
H2312 C2296 0.931 . S
H2313 C2301 0.930 . S
H2314 C2302 0.956 . S
H2315 C2302 0.961 . S
H2316 C2302 0.961 . S
H2317 C2303 0.958 . S
H2318 C2303 0.961 . S
H2319 C2303 0.960 . S
C2320 C2321 1.391 . S
C2320 C2322 1.394 . S
C2320 H2336 0.931 . S
C2321 C2320 1.391 . S
C2321 C2325 1.376 . S
C2322 C2320 1.394 . S
C2322 C2323 1.369 . S
C2322 C2326 1.531 . S
C2323 C2322 1.369 . S
C2323 C2324 1.410 . S
C2323 C2331 1.503 . S
C2324 C2323 1.410 . S
C2324 C2325 1.392 . S
C2324 C2327 1.511 . S
C2325 C2321 1.376 . S
C2325 C2324 1.392 . S
C2325 H2337 0.929 . S
C2326 C2322 1.531 . S
C2326 H2338 0.960 . S
C2326 H2339 0.962 . S
C2326 H2340 0.960 . S
C2327 C2324 1.511 . S
C2327 H2341 0.961 . S
C2327 H2342 0.961 . S
C2327 H2343 0.961 . S
C2328 C2329 1.370 . S
C2328 C2330 1.363 . S
C2328 H2344 0.931 . S
C2329 C2328 1.370 . S
C2329 C2333 1.408 . S
C2330 C2328 1.363 . S
C2330 C2331 1.370 . S
C2330 C2334 1.524 . S
C2331 C2323 1.503 . S
C2331 C2330 1.370 . S
C2331 C2332 1.403 . S
C2332 C2331 1.403 . S
C2332 C2333 1.404 . S
C2332 C2335 1.539 . S
C2333 C2329 1.408 . S
C2333 C2332 1.404 . S
C2333 H2345 0.930 . S
C2334 C2330 1.524 . S
C2334 H2346 0.956 . S
C2334 H2347 0.961 . S
C2334 H2348 0.961 . S
C2335 C2332 1.539 . S
C2335 H2349 0.958 . S
C2335 H2350 0.961 . S
C2335 H2351 0.960 . S
H2336 C2320 0.931 . S
H2337 C2325 0.929 . S
H2338 C2326 0.960 . S
H2339 C2326 0.962 . S
H2340 C2326 0.960 . S
H2341 C2327 0.961 . S
H2342 C2327 0.961 . S
H2343 C2327 0.961 . S
H2344 C2328 0.931 . S
H2345 C2333 0.930 . S
H2346 C2334 0.956 . S
H2347 C2334 0.961 . S
H2348 C2334 0.961 . S
H2349 C2335 0.958 . S
H2350 C2335 0.961 . S
H2351 C2335 0.960 . S
C2352 C2353 1.391 . S
C2352 C2354 1.394 . S
C2352 H2368 0.931 . S
C2353 C2352 1.391 . S
C2353 C2357 1.376 . S
C2354 C2352 1.394 . S
C2354 C2355 1.369 . S
C2354 C2358 1.531 . S
C2355 C2354 1.369 . S
C2355 C2356 1.410 . S
C2355 C2363 1.503 . S
C2356 C2355 1.410 . S
C2356 C2357 1.392 . S
C2356 C2359 1.511 . S
C2357 C2353 1.376 . S
C2357 C2356 1.392 . S
C2357 H2369 0.929 . S
C2358 C2354 1.531 . S
C2358 H2370 0.960 . S
C2358 H2371 0.962 . S
C2358 H2372 0.960 . S
C2359 C2356 1.511 . S
C2359 H2373 0.961 . S
C2359 H2374 0.961 . S
C2359 H2375 0.961 . S
C2360 C2361 1.370 . S
C2360 C2362 1.363 . S
C2360 H2376 0.931 . S
C2361 C2360 1.370 . S
C2361 C2365 1.408 . S
C2362 C2360 1.363 . S
C2362 C2363 1.370 . S
C2362 C2366 1.524 . S
C2363 C2355 1.503 . S
C2363 C2362 1.370 . S
C2363 C2364 1.403 . S
C2364 C2363 1.403 . S
C2364 C2365 1.404 . S
C2364 C2367 1.539 . S
C2365 C2361 1.408 . S
C2365 C2364 1.404 . S
C2365 H2377 0.930 . S
C2366 C2362 1.524 . S
C2366 H2378 0.956 . S
C2366 H2379 0.961 . S
C2366 H2380 0.961 . S
C2367 C2364 1.539 . S
C2367 H2381 0.958 . S
C2367 H2382 0.961 . S
C2367 H2383 0.960 . S
H2368 C2352 0.931 . S
H2369 C2357 0.929 . S
H2370 C2358 0.960 . S
H2371 C2358 0.962 . S
H2372 C2358 0.960 . S
H2373 C2359 0.961 . S
H2374 C2359 0.961 . S
H2375 C2359 0.961 . S
H2376 C2360 0.931 . S
H2377 C2365 0.930 . S
H2378 C2366 0.956 . S
H2379 C2366 0.961 . S
H2380 C2366 0.961 . S
H2381 C2367 0.958 . S
H2382 C2367 0.961 . S
H2383 C2367 0.960 . S
C2384 C2385 1.391 . S
C2384 C2386 1.394 . S
C2384 H2400 0.931 . S
C2385 C2384 1.391 . S
C2385 C2389 1.376 . S
C2386 C2384 1.394 . S
C2386 C2387 1.369 . S
C2386 C2390 1.531 . S
C2387 C2386 1.369 . S
C2387 C2388 1.410 . S
C2387 C2395 1.503 . S
C2388 C2387 1.410 . S
C2388 C2389 1.392 . S
C2388 C2391 1.511 . S
C2389 C2385 1.376 . S
C2389 C2388 1.392 . S
C2389 H2401 0.929 . S
C2390 C2386 1.531 . S
C2390 H2402 0.960 . S
C2390 H2403 0.962 . S
C2390 H2404 0.960 . S
C2391 C2388 1.511 . S
C2391 H2405 0.961 . S
C2391 H2406 0.961 . S
C2391 H2407 0.961 . S
C2392 C2393 1.370 . S
C2392 C2394 1.363 . S
C2392 H2408 0.931 . S
C2393 C2392 1.370 . S
C2393 C2397 1.408 . S
C2394 C2392 1.363 . S
C2394 C2395 1.370 . S
C2394 C2398 1.524 . S
C2395 C2387 1.503 . S
C2395 C2394 1.370 . S
C2395 C2396 1.403 . S
C2396 C2395 1.403 . S
C2396 C2397 1.404 . S
C2396 C2399 1.539 . S
C2397 C2393 1.408 . S
C2397 C2396 1.404 . S
C2397 H2409 0.930 . S
C2398 C2394 1.524 . S
C2398 H2410 0.956 . S
C2398 H2411 0.961 . S
C2398 H2412 0.961 . S
C2399 C2396 1.539 . S
C2399 H2413 0.958 . S
C2399 H2414 0.961 . S
C2399 H2415 0.960 . S
H2400 C2384 0.931 . S
H2401 C2389 0.929 . S
H2402 C2390 0.960 . S
H2403 C2390 0.962 . S
H2404 C2390 0.960 . S
H2405 C2391 0.961 . S
H2406 C2391 0.961 . S
H2407 C2391 0.961 . S
H2408 C2392 0.931 . S
H2409 C2397 0.930 . S
H2410 C2398 0.956 . S
H2411 C2398 0.961 . S
H2412 C2398 0.961 . S
H2413 C2399 0.958 . S
H2414 C2399 0.961 . S
H2415 C2399 0.960 . S
C2416 C2417 1.391 . S
C2416 C2418 1.394 . S
C2416 H2432 0.931 . S
C2417 C2416 1.391 . S
C2417 C2421 1.376 . S
C2418 C2416 1.394 . S
C2418 C2419 1.369 . S
C2418 C2422 1.531 . S
C2419 C2418 1.369 . S
C2419 C2420 1.410 . S
C2419 C2427 1.503 . S
C2420 C2419 1.410 . S
C2420 C2421 1.392 . S
C2420 C2423 1.511 . S
C2421 C2417 1.376 . S
C2421 C2420 1.392 . S
C2421 H2433 0.929 . S
C2422 C2418 1.531 . S
C2422 H2434 0.960 . S
C2422 H2435 0.962 . S
C2422 H2436 0.960 . S
C2423 C2420 1.511 . S
C2423 H2437 0.961 . S
C2423 H2438 0.961 . S
C2423 H2439 0.961 . S
C2424 C2425 1.370 . S
C2424 C2426 1.363 . S
C2424 H2440 0.931 . S
C2425 C2424 1.370 . S
C2425 C2429 1.408 . S
C2426 C2424 1.363 . S
C2426 C2427 1.370 . S
C2426 C2430 1.524 . S
C2427 C2419 1.503 . S
C2427 C2426 1.370 . S
C2427 C2428 1.403 . S
C2428 C2427 1.403 . S
C2428 C2429 1.404 . S
C2428 C2431 1.539 . S
C2429 C2425 1.408 . S
C2429 C2428 1.404 . S
C2429 H2441 0.930 . S
C2430 C2426 1.524 . S
C2430 H2442 0.956 . S
C2430 H2443 0.961 . S
C2430 H2444 0.961 . S
C2431 C2428 1.539 . S
C2431 H2445 0.958 . S
C2431 H2446 0.961 . S
C2431 H2447 0.960 . S
H2432 C2416 0.931 . S
H2433 C2421 0.929 . S
H2434 C2422 0.960 . S
H2435 C2422 0.962 . S
H2436 C2422 0.960 . S
H2437 C2423 0.961 . S
H2438 C2423 0.961 . S
H2439 C2423 0.961 . S
H2440 C2424 0.931 . S
H2441 C2429 0.930 . S
H2442 C2430 0.956 . S
H2443 C2430 0.961 . S
H2444 C2430 0.961 . S
H2445 C2431 0.958 . S
H2446 C2431 0.961 . S
H2447 C2431 0.960 . S
C2448 C2449 1.391 . S
C2448 C2450 1.394 . S
C2448 H2464 0.931 . S
C2449 C2448 1.391 . S
C2449 C2453 1.376 . S
C2450 C2448 1.394 . S
C2450 C2451 1.369 . S
C2450 C2454 1.531 . S
C2451 C2450 1.369 . S
C2451 C2452 1.410 . S
C2451 C2459 1.503 . S
C2452 C2451 1.410 . S
C2452 C2453 1.392 . S
C2452 C2455 1.511 . S
C2453 C2449 1.376 . S
C2453 C2452 1.392 . S
C2453 H2465 0.929 . S
C2454 C2450 1.531 . S
C2454 H2466 0.960 . S
C2454 H2467 0.962 . S
C2454 H2468 0.960 . S
C2455 C2452 1.511 . S
C2455 H2469 0.961 . S
C2455 H2470 0.961 . S
C2455 H2471 0.961 . S
C2456 C2457 1.370 . S
C2456 C2458 1.363 . S
C2456 H2472 0.931 . S
C2457 C2456 1.370 . S
C2457 C2461 1.408 . S
C2458 C2456 1.363 . S
C2458 C2459 1.370 . S
C2458 C2462 1.524 . S
C2459 C2451 1.503 . S
C2459 C2458 1.370 . S
C2459 C2460 1.403 . S
C2460 C2459 1.403 . S
C2460 C2461 1.404 . S
C2460 C2463 1.539 . S
C2461 C2457 1.408 . S
C2461 C2460 1.404 . S
C2461 H2473 0.930 . S
C2462 C2458 1.524 . S
C2462 H2474 0.956 . S
C2462 H2475 0.961 . S
C2462 H2476 0.961 . S
C2463 C2460 1.539 . S
C2463 H2477 0.958 . S
C2463 H2478 0.961 . S
C2463 H2479 0.960 . S
H2464 C2448 0.931 . S
H2465 C2453 0.929 . S
H2466 C2454 0.960 . S
H2467 C2454 0.962 . S
H2468 C2454 0.960 . S
H2469 C2455 0.961 . S
H2470 C2455 0.961 . S
H2471 C2455 0.961 . S
H2472 C2456 0.931 . S
H2473 C2461 0.930 . S
H2474 C2462 0.956 . S
H2475 C2462 0.961 . S
H2476 C2462 0.961 . S
H2477 C2463 0.958 . S
H2478 C2463 0.961 . S
H2479 C2463 0.960 . S
C2480 C2481 1.391 . S
C2480 C2482 1.394 . S
C2480 H2496 0.931 . S
C2481 C2480 1.391 . S
C2481 C2485 1.376 . S
C2482 C2480 1.394 . S
C2482 C2483 1.369 . S
C2482 C2486 1.531 . S
C2483 C2482 1.369 . S
C2483 C2484 1.410 . S
C2483 C2491 1.503 . S
C2484 C2483 1.410 . S
C2484 C2485 1.392 . S
C2484 C2487 1.511 . S
C2485 C2481 1.376 . S
C2485 C2484 1.392 . S
C2485 H2497 0.929 . S
C2486 C2482 1.531 . S
C2486 H2498 0.960 . S
C2486 H2499 0.962 . S
C2486 H2500 0.960 . S
C2487 C2484 1.511 . S
C2487 H2501 0.961 . S
C2487 H2502 0.961 . S
C2487 H2503 0.961 . S
C2488 C2489 1.370 . S
C2488 C2490 1.363 . S
C2488 H2504 0.931 . S
C2489 C2488 1.370 . S
C2489 C2493 1.408 . S
C2490 C2488 1.363 . S
C2490 C2491 1.370 . S
C2490 C2494 1.524 . S
C2491 C2483 1.503 . S
C2491 C2490 1.370 . S
C2491 C2492 1.403 . S
C2492 C2491 1.403 . S
C2492 C2493 1.404 . S
C2492 C2495 1.539 . S
C2493 C2489 1.408 . S
C2493 C2492 1.404 . S
C2493 H2505 0.930 . S
C2494 C2490 1.524 . S
C2494 H2506 0.956 . S
C2494 H2507 0.961 . S
C2494 H2508 0.961 . S
C2495 C2492 1.539 . S
C2495 H2509 0.958 . S
C2495 H2510 0.961 . S
C2495 H2511 0.960 . S
H2496 C2480 0.931 . S
H2497 C2485 0.929 . S
H2498 C2486 0.960 . S
H2499 C2486 0.962 . S
H2500 C2486 0.960 . S
H2501 C2487 0.961 . S
H2502 C2487 0.961 . S
H2503 C2487 0.961 . S
H2504 C2488 0.931 . S
H2505 C2493 0.930 . S
H2506 C2494 0.956 . S
H2507 C2494 0.961 . S
H2508 C2494 0.961 . S
H2509 C2495 0.958 . S
H2510 C2495 0.961 . S
H2511 C2495 0.960 . S
C2512 C2513 1.391 . S
C2512 C2514 1.394 . S
C2512 H2528 0.931 . S
C2513 C2512 1.391 . S
C2513 C2517 1.376 . S
C2514 C2512 1.394 . S
C2514 C2515 1.369 . S
C2514 C2518 1.531 . S
C2515 C2514 1.369 . S
C2515 C2516 1.410 . S
C2515 C2523 1.503 . S
C2516 C2515 1.410 . S
C2516 C2517 1.392 . S
C2516 C2519 1.511 . S
C2517 C2513 1.376 . S
C2517 C2516 1.392 . S
C2517 H2529 0.929 . S
C2518 C2514 1.531 . S
C2518 H2530 0.960 . S
C2518 H2531 0.962 . S
C2518 H2532 0.960 . S
C2519 C2516 1.511 . S
C2519 H2533 0.961 . S
C2519 H2534 0.961 . S
C2519 H2535 0.961 . S
C2520 C2521 1.370 . S
C2520 C2522 1.363 . S
C2520 H2536 0.931 . S
C2521 C2520 1.370 . S
C2521 C2525 1.408 . S
C2522 C2520 1.363 . S
C2522 C2523 1.370 . S
C2522 C2526 1.524 . S
C2523 C2515 1.503 . S
C2523 C2522 1.370 . S
C2523 C2524 1.403 . S
C2524 C2523 1.403 . S
C2524 C2525 1.404 . S
C2524 C2527 1.539 . S
C2525 C2521 1.408 . S
C2525 C2524 1.404 . S
C2525 H2537 0.930 . S
C2526 C2522 1.524 . S
C2526 H2538 0.956 . S
C2526 H2539 0.961 . S
C2526 H2540 0.961 . S
C2527 C2524 1.539 . S
C2527 H2541 0.958 . S
C2527 H2542 0.961 . S
C2527 H2543 0.960 . S
H2528 C2512 0.931 . S
H2529 C2517 0.929 . S
H2530 C2518 0.960 . S
H2531 C2518 0.962 . S
H2532 C2518 0.960 . S
H2533 C2519 0.961 . S
H2534 C2519 0.961 . S
H2535 C2519 0.961 . S
H2536 C2520 0.931 . S
H2537 C2525 0.930 . S
H2538 C2526 0.956 . S
H2539 C2526 0.961 . S
H2540 C2526 0.961 . S
H2541 C2527 0.958 . S
H2542 C2527 0.961 . S
H2543 C2527 0.960 . S
C2544 C2545 1.391 . S
C2544 C2546 1.394 . S
C2544 H2560 0.931 . S
C2545 C2544 1.391 . S
C2545 C2549 1.376 . S
C2546 C2544 1.394 . S
C2546 C2547 1.369 . S
C2546 C2550 1.531 . S
C2547 C2546 1.369 . S
C2547 C2548 1.410 . S
C2547 C2555 1.503 . S
C2548 C2547 1.410 . S
C2548 C2549 1.392 . S
C2548 C2551 1.511 . S
C2549 C2545 1.376 . S
C2549 C2548 1.392 . S
C2549 H2561 0.929 . S
C2550 C2546 1.531 . S
C2550 H2562 0.960 . S
C2550 H2563 0.962 . S
C2550 H2564 0.960 . S
C2551 C2548 1.511 . S
C2551 H2565 0.961 . S
C2551 H2566 0.961 . S
C2551 H2567 0.961 . S
C2552 C2553 1.370 . S
C2552 C2554 1.363 . S
C2552 H2568 0.931 . S
C2553 C2552 1.370 . S
C2553 C2557 1.408 . S
C2554 C2552 1.363 . S
C2554 C2555 1.370 . S
C2554 C2558 1.524 . S
C2555 C2547 1.503 . S
C2555 C2554 1.370 . S
C2555 C2556 1.403 . S
C2556 C2555 1.403 . S
C2556 C2557 1.404 . S
C2556 C2559 1.539 . S
C2557 C2553 1.408 . S
C2557 C2556 1.404 . S
C2557 H2569 0.930 . S
C2558 C2554 1.524 . S
C2558 H2570 0.956 . S
C2558 H2571 0.961 . S
C2558 H2572 0.961 . S
C2559 C2556 1.539 . S
C2559 H2573 0.958 . S
C2559 H2574 0.961 . S
C2559 H2575 0.960 . S
H2560 C2544 0.931 . S
H2561 C2549 0.929 . S
H2562 C2550 0.960 . S
H2563 C2550 0.962 . S
H2564 C2550 0.960 . S
H2565 C2551 0.961 . S
H2566 C2551 0.961 . S
H2567 C2551 0.961 . S
H2568 C2552 0.931 . S
H2569 C2557 0.930 . S
H2570 C2558 0.956 . S
H2571 C2558 0.961 . S
H2572 C2558 0.961 . S
H2573 C2559 0.958 . S
H2574 C2559 0.961 . S
H2575 C2559 0.960 . S
C2576 C2577 1.391 . S
C2576 C2578 1.394 . S
C2576 H2592 0.931 . S
C2577 C2576 1.391 . S
C2577 C2581 1.376 . S
C2578 C2576 1.394 . S
C2578 C2579 1.369 . S
C2578 C2582 1.531 . S
C2579 C2578 1.369 . S
C2579 C2580 1.410 . S
C2579 C2587 1.503 . S
C2580 C2579 1.410 . S
C2580 C2581 1.392 . S
C2580 C2583 1.511 . S
C2581 C2577 1.376 . S
C2581 C2580 1.392 . S
C2581 H2593 0.929 . S
C2582 C2578 1.531 . S
C2582 H2594 0.960 . S
C2582 H2595 0.962 . S
C2582 H2596 0.960 . S
C2583 C2580 1.511 . S
C2583 H2597 0.961 . S
C2583 H2598 0.961 . S
C2583 H2599 0.961 . S
C2584 C2585 1.370 . S
C2584 C2586 1.363 . S
C2584 H2600 0.931 . S
C2585 C2584 1.370 . S
C2585 C2589 1.408 . S
C2586 C2584 1.363 . S
C2586 C2587 1.370 . S
C2586 C2590 1.524 . S
C2587 C2579 1.503 . S
C2587 C2586 1.370 . S
C2587 C2588 1.403 . S
C2588 C2587 1.403 . S
C2588 C2589 1.404 . S
C2588 C2591 1.539 . S
C2589 C2585 1.408 . S
C2589 C2588 1.404 . S
C2589 H2601 0.930 . S
C2590 C2586 1.524 . S
C2590 H2602 0.956 . S
C2590 H2603 0.961 . S
C2590 H2604 0.961 . S
C2591 C2588 1.539 . S
C2591 H2605 0.958 . S
C2591 H2606 0.961 . S
C2591 H2607 0.960 . S
H2592 C2576 0.931 . S
H2593 C2581 0.929 . S
H2594 C2582 0.960 . S
H2595 C2582 0.962 . S
H2596 C2582 0.960 . S
H2597 C2583 0.961 . S
H2598 C2583 0.961 . S
H2599 C2583 0.961 . S
H2600 C2584 0.931 . S
H2601 C2589 0.930 . S
H2602 C2590 0.956 . S
H2603 C2590 0.961 . S
H2604 C2590 0.961 . S
H2605 C2591 0.958 . S
H2606 C2591 0.961 . S
H2607 C2591 0.960 . S
C2608 C2609 1.391 . S
C2608 C2610 1.394 . S
C2608 H2624 0.931 . S
C2609 C2608 1.391 . S
C2609 C2613 1.376 . S
C2610 C2608 1.394 . S
C2610 C2611 1.369 . S
C2610 C2614 1.531 . S
C2611 C2610 1.369 . S
C2611 C2612 1.410 . S
C2611 C2619 1.503 . S
C2612 C2611 1.410 . S
C2612 C2613 1.392 . S
C2612 C2615 1.511 . S
C2613 C2609 1.376 . S
C2613 C2612 1.392 . S
C2613 H2625 0.929 . S
C2614 C2610 1.531 . S
C2614 H2626 0.960 . S
C2614 H2627 0.962 . S
C2614 H2628 0.960 . S
C2615 C2612 1.511 . S
C2615 H2629 0.961 . S
C2615 H2630 0.961 . S
C2615 H2631 0.961 . S
C2616 C2617 1.370 . S
C2616 C2618 1.363 . S
C2616 H2632 0.931 . S
C2617 C2616 1.370 . S
C2617 C2621 1.408 . S
C2618 C2616 1.363 . S
C2618 C2619 1.370 . S
C2618 C2622 1.524 . S
C2619 C2611 1.503 . S
C2619 C2618 1.370 . S
C2619 C2620 1.403 . S
C2620 C2619 1.403 . S
C2620 C2621 1.404 . S
C2620 C2623 1.539 . S
C2621 C2617 1.408 . S
C2621 C2620 1.404 . S
C2621 H2633 0.930 . S
C2622 C2618 1.524 . S
C2622 H2634 0.956 . S
C2622 H2635 0.961 . S
C2622 H2636 0.961 . S
C2623 C2620 1.539 . S
C2623 H2637 0.958 . S
C2623 H2638 0.961 . S
C2623 H2639 0.960 . S
H2624 C2608 0.931 . S
H2625 C2613 0.929 . S
H2626 C2614 0.960 . S
H2627 C2614 0.962 . S
H2628 C2614 0.960 . S
H2629 C2615 0.961 . S
H2630 C2615 0.961 . S
H2631 C2615 0.961 . S
H2632 C2616 0.931 . S
H2633 C2621 0.930 . S
H2634 C2622 0.956 . S
H2635 C2622 0.961 . S
H2636 C2622 0.961 . S
H2637 C2623 0.958 . S
H2638 C2623 0.961 . S
H2639 C2623 0.960 . S
C2640 C2641 1.391 . S
C2640 C2642 1.394 . S
C2640 H2656 0.931 . S
C2641 C2640 1.391 . S
C2641 C2645 1.376 . S
C2642 C2640 1.394 . S
C2642 C2643 1.369 . S
C2642 C2646 1.531 . S
C2643 C2642 1.369 . S
C2643 C2644 1.410 . S
C2643 C2651 1.503 . S
C2644 C2643 1.410 . S
C2644 C2645 1.392 . S
C2644 C2647 1.511 . S
C2645 C2641 1.376 . S
C2645 C2644 1.392 . S
C2645 H2657 0.929 . S
C2646 C2642 1.531 . S
C2646 H2658 0.960 . S
C2646 H2659 0.962 . S
C2646 H2660 0.960 . S
C2647 C2644 1.511 . S
C2647 H2661 0.961 . S
C2647 H2662 0.961 . S
C2647 H2663 0.961 . S
C2648 C2649 1.370 . S
C2648 C2650 1.363 . S
C2648 H2664 0.931 . S
C2649 C2648 1.370 . S
C2649 C2653 1.408 . S
C2650 C2648 1.363 . S
C2650 C2651 1.370 . S
C2650 C2654 1.524 . S
C2651 C2643 1.503 . S
C2651 C2650 1.370 . S
C2651 C2652 1.403 . S
C2652 C2651 1.403 . S
C2652 C2653 1.404 . S
C2652 C2655 1.539 . S
C2653 C2649 1.408 . S
C2653 C2652 1.404 . S
C2653 H2665 0.930 . S
C2654 C2650 1.524 . S
C2654 H2666 0.956 . S
C2654 H2667 0.961 . S
C2654 H2668 0.961 . S
C2655 C2652 1.539 . S
C2655 H2669 0.958 . S
C2655 H2670 0.961 . S
C2655 H2671 0.960 . S
H2656 C2640 0.931 . S
H2657 C2645 0.929 . S
H2658 C2646 0.960 . S
H2659 C2646 0.962 . S
H2660 C2646 0.960 . S
H2661 C2647 0.961 . S
H2662 C2647 0.961 . S
H2663 C2647 0.961 . S
H2664 C2648 0.931 . S
H2665 C2653 0.930 . S
H2666 C2654 0.956 . S
H2667 C2654 0.961 . S
H2668 C2654 0.961 . S
H2669 C2655 0.958 . S
H2670 C2655 0.961 . S
H2671 C2655 0.960 . S
C2672 C2673 1.391 . S
C2672 C2674 1.394 . S
C2672 H2688 0.931 . S
C2673 C2672 1.391 . S
C2673 C2677 1.376 . S
C2674 C2672 1.394 . S
C2674 C2675 1.369 . S
C2674 C2678 1.531 . S
C2675 C2674 1.369 . S
C2675 C2676 1.410 . S
C2675 C2683 1.503 . S
C2676 C2675 1.410 . S
C2676 C2677 1.392 . S
C2676 C2679 1.511 . S
C2677 C2673 1.376 . S
C2677 C2676 1.392 . S
C2677 H2689 0.929 . S
C2678 C2674 1.531 . S
C2678 H2690 0.960 . S
C2678 H2691 0.962 . S
C2678 H2692 0.960 . S
C2679 C2676 1.511 . S
C2679 H2693 0.961 . S
C2679 H2694 0.961 . S
C2679 H2695 0.961 . S
C2680 C2681 1.370 . S
C2680 C2682 1.363 . S
C2680 H2696 0.931 . S
C2681 C2680 1.370 . S
C2681 C2685 1.408 . S
C2682 C2680 1.363 . S
C2682 C2683 1.370 . S
C2682 C2686 1.524 . S
C2683 C2675 1.503 . S
C2683 C2682 1.370 . S
C2683 C2684 1.403 . S
C2684 C2683 1.403 . S
C2684 C2685 1.404 . S
C2684 C2687 1.539 . S
C2685 C2681 1.408 . S
C2685 C2684 1.404 . S
C2685 H2697 0.930 . S
C2686 C2682 1.524 . S
C2686 H2698 0.956 . S
C2686 H2699 0.961 . S
C2686 H2700 0.961 . S
C2687 C2684 1.539 . S
C2687 H2701 0.958 . S
C2687 H2702 0.961 . S
C2687 H2703 0.960 . S
H2688 C2672 0.931 . S
H2689 C2677 0.929 . S
H2690 C2678 0.960 . S
H2691 C2678 0.962 . S
H2692 C2678 0.960 . S
H2693 C2679 0.961 . S
H2694 C2679 0.961 . S
H2695 C2679 0.961 . S
H2696 C2680 0.931 . S
H2697 C2685 0.930 . S
H2698 C2686 0.956 . S
H2699 C2686 0.961 . S
H2700 C2686 0.961 . S
H2701 C2687 0.958 . S
H2702 C2687 0.961 . S
H2703 C2687 0.960 . S
C2704 C2705 1.391 . S
C2704 C2706 1.394 . S
C2704 H2720 0.931 . S
C2705 C2704 1.391 . S
C2705 C2709 1.376 . S
C2706 C2704 1.394 . S
C2706 C2707 1.369 . S
C2706 C2710 1.531 . S
C2707 C2706 1.369 . S
C2707 C2708 1.410 . S
C2707 C2715 1.503 . S
C2708 C2707 1.410 . S
C2708 C2709 1.392 . S
C2708 C2711 1.511 . S
C2709 C2705 1.376 . S
C2709 C2708 1.392 . S
C2709 H2721 0.929 . S
C2710 C2706 1.531 . S
C2710 H2722 0.960 . S
C2710 H2723 0.962 . S
C2710 H2724 0.960 . S
C2711 C2708 1.511 . S
C2711 H2725 0.961 . S
C2711 H2726 0.961 . S
C2711 H2727 0.961 . S
C2712 C2713 1.370 . S
C2712 C2714 1.363 . S
C2712 H2728 0.931 . S
C2713 C2712 1.370 . S
C2713 C2717 1.408 . S
C2714 C2712 1.363 . S
C2714 C2715 1.370 . S
C2714 C2718 1.524 . S
C2715 C2707 1.503 . S
C2715 C2714 1.370 . S
C2715 C2716 1.403 . S
C2716 C2715 1.403 . S
C2716 C2717 1.404 . S
C2716 C2719 1.539 . S
C2717 C2713 1.408 . S
C2717 C2716 1.404 . S
C2717 H2729 0.930 . S
C2718 C2714 1.524 . S
C2718 H2730 0.956 . S
C2718 H2731 0.961 . S
C2718 H2732 0.961 . S
C2719 C2716 1.539 . S
C2719 H2733 0.958 . S
C2719 H2734 0.961 . S
C2719 H2735 0.960 . S
H2720 C2704 0.931 . S
H2721 C2709 0.929 . S
H2722 C2710 0.960 . S
H2723 C2710 0.962 . S
H2724 C2710 0.960 . S
H2725 C2711 0.961 . S
H2726 C2711 0.961 . S
H2727 C2711 0.961 . S
H2728 C2712 0.931 . S
H2729 C2717 0.930 . S
H2730 C2718 0.956 . S
H2731 C2718 0.961 . S
H2732 C2718 0.961 . S
H2733 C2719 0.958 . S
H2734 C2719 0.961 . S
H2735 C2719 0.960 . S
C817 C107 1.249 . S
C825 C33 1.261 . S
C849 C5 1.266 . S
C857 C67 1.260 . S
C881 C39 1.259 . S
C889 C101 1.257 . S
C913 C135 1.234 . S
C921 C73 1.290 . S
C945 C175 1.243 . S
C953 C169 1.262 . S
C977 C209 1.265 . S
C985 C203 1.261 . S
C1009 C237 1.274 . S
C1017 C243 1.246 . S
C1041 C141 1.301 . S
C1049 C271 1.247 . S
C1073 C305 1.257 . S
C1081 C617 1.256 . S
C1105 C339 1.243 . S
C1113 C651 1.286 . S
C1137 C685 1.242 . S
C1145 C373 1.263 . S
C1169 C583 1.281 . S
C1177 C407 1.255 . S
C1201 C753 1.255 . S
C1209 C441 1.250 . S
C1233 C475 1.230 . S
C1241 C549 1.292 . S
C1265 C509 1.237 . S
C1273 C787 1.263 . S
C1297 C719 1.298 . S
C1305 C543 1.249 . S
C1329 C311 1.269 . S
C1337 C577 1.252 . S
C1361 C611 1.243 . S
C1369 C515 1.254 . S
C1393 C413 1.287 . S
C1401 C645 1.253 . S
C1425 C447 1.269 . S
C1433 C679 1.247 . S
C1457 C481 1.303 . S
C1465 C713 1.247 . S
C1489 C379 1.274 . S
C1497 C747 1.247 . S
C1521 C277 1.256 . S
C1529 C781 1.264 . S
C1553 C345 1.254 . S
C1561 C815 1.265 . S
C1585 C224 2.001 . S
C1593 C20 2.013 . S
C1617 C54 2.004 . S
C1625 C258 2.015 . S
C1649 C156 2.020 . S
C1657 C88 2.018 . S
C1681 C190 2.018 . S
C1689 C122 2.017 . S
C1713 C360 2.020 . S
C1721 C292 2.019 . S
C1745 C326 2.008 . S
C1753 C394 2.017 . S
C1777 C428 2.014 . S
C1785 C496 2.019 . S
C1809 C530 2.005 . S
C1817 C462 2.012 . S
C1841 C564 2.015 . S
C1849 C598 2.014 . S
C1873 C632 2.007 . S
C1881 C802 2.012 . S
C1905 C666 2.001 . S
C1913 C734 2.014 . S
C1937 C768 2.019 . S
C1945 C700 2.017 . S
C1969 C2 1.196 . S
C1977 C281 1.167 . S
C2001 C36 1.211 . S
C2009 C315 1.158 . S
C2033 C349 1.117 . S
C2041 C70 1.213 . S
C2065 C383 1.171 . S
C2073 C104 1.204 . S
C2097 C138 1.214 . S
C2105 C417 1.155 . S
C2129 C451 1.119 . S
C2137 C172 1.213 . S
C2161 C206 1.221 . S
C2169 C485 1.145 . S
C2193 C519 1.167 . S
C2201 C240 1.204 . S
C2225 C274 1.215 . S
C2233 C553 1.148 . S
C2257 C791 1.132 . S
C2265 C308 1.210 . S
C2289 C342 1.204 . S
C2297 C723 1.167 . S
C2321 C376 1.219 . S
C2329 C757 1.146 . S
C2353 C587 1.188 . S
C2361 C410 1.203 . S
C2385 C444 1.198 . S
C2393 C621 1.171 . S
C2417 C478 1.190 . S
C2425 C655 1.179 . S
C2449 C512 1.221 . S
C2457 C689 1.145 . S
C2481 C546 1.198 . S
C2489 C9 1.172 . S
C2513 C580 1.189 . S
C2521 C145 1.180 . S
C2545 C614 1.205 . S
C2553 C179 1.159 . S
C2577 C213 1.190 . S
C2585 C648 1.200 . S
C2609 C682 1.212 . S
C2617 C247 1.152 . S
C2641 C77 1.125 . S
C2649 C716 1.211 . S
C2673 C111 1.179 . S
C2681 C750 1.202 . S
C2705 C784 1.186 . S
C2713 C43 1.181 . S
