# Generated by pormake.
# Topology can, (4)-cn, num edge types: 1
# Building blocks:
#     Node 0, Type 0, BuildingBlock: GALJAG_clean_sbu_0, # of connection points: 4
#     Node 1, Type 0, BuildingBlock: GALJAG_clean_sbu_0, # of connection points: 4
#     Node 2, Type 0, BuildingBlock: GALJAG_clean_sbu_0, # of connection points: 4
#     Node 3, Type 0, BuildingBlock: GALJAG_clean_sbu_0, # of connection points: 4
#     Node 4, Type 0, BuildingBlock: GALJAG_clean_sbu_0, # of connection points: 4
#     Node 5, Type 0, BuildingBlock: GALJAG_clean_sbu_0, # of connection points: 4
#     Node 6, Type 0, BuildingBlock: GALJAG_clean_sbu_0, # of connection points: 4
#     Node 7, Type 0, BuildingBlock: GALJAG_clean_sbu_0, # of connection points: 4
#     Node 8, Type 0, BuildingBlock: GALJAG_clean_sbu_0, # of connection points: 4
#     Node 9, Type 0, BuildingBlock: GALJAG_clean_sbu_0, # of connection points: 4
#     Node 10, Type 0, BuildingBlock: GALJAG_clean_sbu_0, # of connection points: 4
#     Node 11, Type 0, BuildingBlock: GALJAG_clean_sbu_0, # of connection points: 4
#     Edge 12, Type (0, 0), BuildingBlock: XIVTED_clean_linker_0, # of connection points: 2
#     Edge 13, Type (0, 0), BuildingBlock: XIVTED_clean_linker_0, # of connection points: 2
#     Edge 14, Type (0, 0), BuildingBlock: XIVTED_clean_linker_0, # of connection points: 2
#     Edge 15, Type (0, 0), BuildingBlock: XIVTED_clean_linker_0, # of connection points: 2
#     Edge 16, Type (0, 0), BuildingBlock: XIVTED_clean_linker_0, # of connection points: 2
#     Edge 17, Type (0, 0), BuildingBlock: XIVTED_clean_linker_0, # of connection points: 2
#     Edge 18, Type (0, 0), BuildingBlock: XIVTED_clean_linker_0, # of connection points: 2
#     Edge 19, Type (0, 0), BuildingBlock: XIVTED_clean_linker_0, # of connection points: 2
#     Edge 20, Type (0, 0), BuildingBlock: XIVTED_clean_linker_0, # of connection points: 2
#     Edge 21, Type (0, 0), BuildingBlock: XIVTED_clean_linker_0, # of connection points: 2
#     Edge 22, Type (0, 0), BuildingBlock: XIVTED_clean_linker_0, # of connection points: 2
#     Edge 23, Type (0, 0), BuildingBlock: XIVTED_clean_linker_0, # of connection points: 2
#     Edge 24, Type (0, 0), BuildingBlock: XIVTED_clean_linker_0, # of connection points: 2
#     Edge 25, Type (0, 0), BuildingBlock: XIVTED_clean_linker_0, # of connection points: 2
#     Edge 26, Type (0, 0), BuildingBlock: XIVTED_clean_linker_0, # of connection points: 2
#     Edge 27, Type (0, 0), BuildingBlock: XIVTED_clean_linker_0, # of connection points: 2
#     Edge 28, Type (0, 0), BuildingBlock: XIVTED_clean_linker_0, # of connection points: 2
#     Edge 29, Type (0, 0), BuildingBlock: XIVTED_clean_linker_0, # of connection points: 2
#     Edge 30, Type (0, 0), BuildingBlock: XIVTED_clean_linker_0, # of connection points: 2
#     Edge 31, Type (0, 0), BuildingBlock: XIVTED_clean_linker_0, # of connection points: 2
#     Edge 32, Type (0, 0), BuildingBlock: XIVTED_clean_linker_0, # of connection points: 2
#     Edge 33, Type (0, 0), BuildingBlock: XIVTED_clean_linker_0, # of connection points: 2
#     Edge 34, Type (0, 0), BuildingBlock: XIVTED_clean_linker_0, # of connection points: 2
#     Edge 35, Type (0, 0), BuildingBlock: XIVTED_clean_linker_0, # of connection points: 2
# Relax obj value: 0.108
# Max RMSD: 0.101
# Mean RMSD: 0.101
data_MOF--net-can--node1-GALJAG_clean_sbu_0--edge1-XIVTED_clean_linker_0
_symmetry_space_group_name_H-M    P1
_symmetry_Int_Tables_number       1
_symmetry_cell_setting            triclinic
loop_
_symmetry_equiv_pos_as_xyz
'x, y, z'
_cell_length_a     53.53117
_cell_length_b     53.510266
_cell_length_c     28.932634
_cell_angle_alpha  89.921347
_cell_angle_beta   90.041614
_cell_angle_gamma 120.04498
loop_
_atom_site_label
_atom_site_type_symbol
_atom_site_fract_x
_atom_site_fract_y
_atom_site_fract_z
_atom_type_partial_charge
In0 In 0.03984 0.38004 0.25665 0.0
O1 O 0.08846 0.40123 0.25793 0.0
O2 O 0.06375 0.3552 0.254 0.0
C3 C 0.03596 0.42822 0.26036 0.0
C4 C 0.02354 0.36086 0.16971 0.0
C5 C 0.0195 0.35675 0.34046 0.0
O6 O 0.05965 0.42859 0.26311 0.0
O7 O 0.01408 0.40345 0.2558 0.0
O8 O 0.00347 0.34865 0.30507 0.0
O9 O 0.04518 0.37617 0.33317 0.0
C10 C 0.0884 0.37761 0.2557 0.0
O11 O 0.00919 0.34626 0.20434 0.0
O12 O 0.0453 0.38488 0.17928 0.0
In13 In 0.65593 0.04349 0.74755 0.0
O14 O 0.6835 0.09202 0.74634 0.0
O15 O 0.70486 0.06738 0.74406 0.0
C16 C 0.6045 0.0409 0.75346 0.0
C17 C 0.65706 0.0259 0.66076 0.0
C18 C 0.65922 0.02335 0.83149 0.0
O19 O 0.6282 0.06426 0.75553 0.0
O20 O 0.60664 0.01863 0.74841 0.0
O21 O 0.65093 0.00721 0.79625 0.0
O22 O 0.66582 0.0491 0.82396 0.0
C23 C 0.70708 0.09204 0.74439 0.0
O24 O 0.65769 0.0119 0.6956 0.0
O25 O 0.65538 0.04799 0.67006 0.0
In26 In 0.60171 0.65425 0.24723 0.0
O27 O 0.58084 0.68185 0.24507 0.0
O28 O 0.62692 0.7032 0.24529 0.0
C29 C 0.55287 0.60254 0.25018 0.0
C30 C 0.62206 0.65705 0.16115 0.0
C31 C 0.62361 0.65644 0.33208 0.0
O32 O 0.55305 0.62607 0.25439 0.0
O33 O 0.57738 0.60503 0.24456 0.0
O34 O 0.63163 0.64798 0.29726 0.0
O35 O 0.60511 0.66378 0.32367 0.0
C36 C 0.6045 0.70545 0.24439 0.0
O37 O 0.63598 0.65684 0.1964 0.0
O38 O 0.59819 0.65533 0.16971 0.0
In39 In 0.94071 0.61213 0.73817 0.0
O40 O 0.89199 0.58845 0.73917 0.0
O41 O 0.91432 0.63428 0.73054 0.0
C42 C 0.945 0.5647 0.75218 0.0
C43 C 0.95554 0.62751 0.64941 0.0
C44 C 0.96262 0.64035 0.81832 0.0
O45 O 0.92149 0.56464 0.75537 0.0
O46 O 0.96655 0.5888 0.74185 0.0
O47 O 0.97862 0.64383 0.78393 0.0
O48 O 0.93616 0.62337 0.8116 0.0
C49 C 0.8904 0.61106 0.73373 0.0
O50 O 0.9683 0.64495 0.68221 0.0
O51 O 0.93637 0.60262 0.66179 0.0
In52 In 0.32315 0.94372 0.24068 0.0
O53 O 0.32067 0.97424 0.18718 0.0
O54 O 0.32454 0.93867 0.16361 0.0
C55 C 0.31867 0.96398 0.3236 0.0
C56 C 0.2723 0.895 0.23713 0.0
C57 C 0.37471 0.94685 0.24865 0.0
O58 O 0.32811 0.98026 0.28854 0.0
O59 O 0.31155 0.93807 0.31635 0.0
O60 O 0.3511 0.92337 0.25057 0.0
O61 O 0.37241 0.96897 0.24269 0.0
C62 C 0.32195 0.96011 0.15312 0.0
O63 O 0.29589 0.89515 0.24083 0.0
O64 O 0.27438 0.91958 0.23537 0.0
In65 In 0.36534 0.32393 0.74196 0.0
O66 O 0.33411 0.3201 0.68418 0.0
O67 O 0.37759 0.33317 0.66689 0.0
C68 C 0.33585 0.31623 0.82107 0.0
C69 C 0.36475 0.27401 0.7337 0.0
C70 C 0.4134 0.37433 0.75992 0.0
O71 O 0.33318 0.32967 0.78716 0.0
O72 O 0.35273 0.30665 0.81436 0.0
O73 O 0.41255 0.35037 0.76156 0.0
O74 O 0.38982 0.37294 0.74951 0.0
C75 C 0.35289 0.32696 0.65278 0.0
O76 O 0.38762 0.29758 0.74165 0.0
O77 O 0.34209 0.27565 0.73003 0.0
In78 In 0.61068 0.94494 0.24788 0.0
O79 O 0.58866 0.89645 0.24649 0.0
O80 O 0.63474 0.91998 0.24418 0.0
C81 C 0.56152 0.94693 0.25446 0.0
C82 C 0.63452 0.96577 0.33137 0.0
C83 C 0.62931 0.96246 0.16091 0.0
O84 O 0.56229 0.92386 0.25796 0.0
O85 O 0.58568 0.96926 0.24775 0.0
O86 O 0.6442 0.9763 0.1956 0.0
O87 O 0.60544 0.94053 0.17046 0.0
C88 C 0.61181 0.89565 0.24441 0.0
O89 O 0.641 0.98196 0.29628 0.0
O90 O 0.61677 0.93958 0.32381 0.0
In91 In 0.65257 0.60754 0.75031 0.0
O92 O 0.67961 0.58604 0.74893 0.0
O93 O 0.70125 0.63199 0.7426 0.0
C94 C 0.60087 0.55963 0.76174 0.0
C95 C 0.65827 0.63322 0.8328 0.0
C96 C 0.6514 0.62337 0.66231 0.0
O97 O 0.62431 0.55943 0.76302 0.0
O98 O 0.60345 0.58408 0.75458 0.0
O99 O 0.65362 0.63947 0.69595 0.0
O100 O 0.64926 0.59962 0.67346 0.0
C101 C 0.7032 0.60941 0.74405 0.0
O102 O 0.64897 0.64012 0.79765 0.0
O103 O 0.66493 0.61408 0.82575 0.0
In104 In 0.03192 0.66282 0.23721 0.0
O105 O 0.08049 0.68825 0.23948 0.0
O106 O 0.05796 0.71151 0.23042 0.0
C107 C 0.03133 0.6126 0.2487 0.0
C108 C 0.00824 0.6662 0.31767 0.0
C109 C 0.01641 0.66431 0.1491 0.0
O110 O 0.05368 0.63686 0.25432 0.0
O111 O 0.00908 0.61358 0.23736 0.0
O112 O 0.00327 0.66768 0.1827 0.0
O113 O 0.03632 0.65948 0.16033 0.0
C114 C 0.08194 0.71239 0.23409 0.0
O115 O -0.00709 0.65083 0.28451 0.0
O116 O 0.03486 0.68021 0.30942 0.0
In117 In 0.36677 0.03897 0.74049 0.0
O118 O 0.38911 0.08751 0.73891 0.0
O119 O 0.34311 0.06401 0.73342 0.0
C120 C 0.41572 0.03683 0.7496 0.0
C121 C 0.34176 0.01855 0.8234 0.0
C122 C 0.34879 0.02163 0.6534 0.0
O123 O 0.41499 0.05995 0.75247 0.0
O124 O 0.39162 0.01454 0.74225 0.0
O125 O 0.33319 0.00827 0.68781 0.0
O126 O 0.37312 0.04278 0.66334 0.0
C127 C 0.36604 0.08831 0.7345 0.0
O128 O 0.33686 0.00198 0.78929 0.0
O129 O 0.35851 0.04488 0.81511 0.0
In130 In 0.31718 0.36366 0.23867 0.0
O131 O 0.29352 0.38841 0.24776 0.0
O132 O 0.26868 0.34286 0.23605 0.0
C133 C 0.36731 0.41395 0.24529 0.0
C134 C 0.3168 0.33632 0.3177 0.0
C135 C 0.31185 0.34467 0.15098 0.0
O136 O 0.34346 0.41128 0.2574 0.0
O137 O 0.36589 0.39122 0.22997 0.0
O138 O 0.3115 0.32951 0.18481 0.0
O139 O 0.31546 0.36903 0.16166 0.0
C140 C 0.26884 0.36628 0.24296 0.0
O141 O 0.29758 0.34225 0.30732 0.0
O142 O 0.33584 0.34286 0.28707 0.0
In143 In 0.94418 0.32783 0.75798 0.0
O144 O 0.98164 0.33469 0.80545 0.0
O145 O 0.93916 0.3143 0.83294 0.0
C146 C 0.96103 0.32714 0.67054 0.0
C147 C 0.89459 0.27779 0.75266 0.0
C148 C 0.94671 0.37913 0.76718 0.0
O149 O 0.97464 0.3251 0.70476 0.0
O150 O 0.93974 0.32999 0.68081 0.0
O151 O 0.92376 0.35534 0.77245 0.0
O152 O 0.96862 0.37717 0.75745 0.0
C153 C 0.96552 0.32353 0.84024 0.0
O154 O 0.89562 0.30182 0.75607 0.0
O155 O 0.91879 0.27896 0.75219 0.0
H156 H 0.97427 0.31387 0.13684 0.0
H157 H 0.02128 0.35362 0.87176 0.0
H158 H 0.0558 0.38562 0.09283 0.0
H159 H 0.93418 0.2941 0.91557 0.0
H160 H 0.037 0.35899 0.95254 0.0
H161 H 0.96174 0.3002 0.0556 0.0
C162 C -0.01043 0.32661 0.11012 0.0
C163 C 0.01592 0.35109 0.12145 0.0
C164 C 0.01451 0.3445 0.94436 0.0
C165 C 0.00192 0.33556 0.02884 0.0
C166 C 0.00559 0.34133 0.89828 0.0
C167 C 0.97637 0.32367 0.88715 0.0
C168 C -0.00596 0.3298 0.97933 0.0
C169 C 0.95689 0.3082 0.92279 0.0
C170 C 0.98244 0.31882 0.06383 0.0
C171 C 0.03508 0.36676 0.08556 0.0
N172 N 0.96602 0.3118 0.96733 0.0
N173 N 0.02765 0.35881 0.04089 0.0
H174 H 0.66174 0.02166 0.36255 0.0
H175 H 0.65241 0.97545 0.62865 0.0
H176 H 0.62955 0.93389 0.40774 0.0
H177 H 0.66465 0.0577 0.58323 0.0
H178 H 0.65222 0.96194 0.54755 0.0
H179 H 0.67181 0.03749 0.4433 0.0
C180 C 0.65722 0.00582 0.38939 0.0
C181 C 0.64456 0.97643 0.3786 0.0
C182 C 0.65511 0.983 0.55545 0.0
C183 C 0.65581 -0.00576 0.47074 0.0
C184 C 0.65523 0.99069 0.60165 0.0
C185 C 0.65825 0.01758 0.61255 0.0
C186 C 0.65828 0.00246 0.52012 0.0
C187 C 0.66196 0.03661 0.57631 0.0
C188 C 0.66281 0.0148 0.43544 0.0
C189 C 0.63908 0.95675 0.41466 0.0
N190 N 0.66179 0.02866 0.53174 0.0
N191 N 0.64457 0.96598 0.45915 0.0
H192 H 0.66728 0.65115 0.12969 0.0
H193 H 0.63284 0.66363 0.86357 0.0
H194 H 0.60011 0.66757 0.08368 0.0
H195 H 0.68478 0.62734 0.90888 0.0
H196 H 0.62834 0.6749 0.94419 0.0
H197 H 0.68119 0.65142 0.04874 0.0
C198 C 0.65565 0.65504 0.1026 0.0
C199 C 0.63231 0.65898 0.11325 0.0
C200 C 0.64099 0.66476 0.93637 0.0
C201 C 0.64813 0.65954 0.02104 0.0
C202 C 0.64368 0.65849 0.89039 0.0
C203 C 0.6589 0.64425 0.87972 0.0
C204 C 0.65376 0.65684 0.9717 0.0
C205 C 0.67255 0.63805 0.91575 0.0
C206 C 0.66355 0.65517 0.0565 0.0
C207 C 0.61802 0.66407 0.07692 0.0
N208 N 0.66948 0.64418 0.96018 0.0
N209 N 0.62607 0.66409 0.03247 0.0
H210 H 0.03586 0.70296 0.38893 0.0
H211 H 0.9256 0.59501 0.57547 0.0
H212 H 0.95566 0.62666 0.35339 0.0
H213 H -0.00162 0.6779 0.61121 0.0
H214 H 0.93522 0.60745 0.49391 0.0
H215 H 0.02105 0.6961 0.46988 0.0
C216 C 0.01488 0.68501 0.39812 0.0
C217 C -0.00298 0.66518 0.36455 0.0
C218 C 0.94902 0.62304 0.51949 0.0
C219 C 0.98019 0.65691 0.45721 0.0
C220 C 0.94365 0.61588 0.56611 0.0
C221 C 0.96141 0.63538 0.60013 0.0
C222 C 0.97251 0.64981 0.5066 0.0
C223 C 0.98429 0.66219 0.58603 0.0
C224 C 0.00648 0.68108 0.44437 0.0
C225 C 0.97007 0.64241 0.37824 0.0
N226 N -0.01066 0.66855 0.54024 0.0
N227 N 0.96263 0.63865 0.42369 0.0
H228 H 0.34303 0.05058 0.89725 0.0
H229 H 0.31517 0.92728 0.07751 0.0
H230 H 0.31793 0.96345 0.85736 0.0
H231 H 0.32429 0.00901 0.11806 0.0
H232 H 0.31396 0.93955 -0.00324 0.0
H233 H 0.33341 0.03517 0.97786 0.0
C234 C 0.33509 0.02808 0.90545 0.0
C235 C 0.33152 0.00828 0.8707 0.0
C236 C 0.31601 0.95476 0.02322 0.0
C237 C 0.32087 0.9906 0.96295 0.0
C238 C 0.31686 0.94784 0.06938 0.0
C239 C 0.32014 0.96732 0.10448 0.0
C240 C 0.31878 0.98153 0.0119 0.0
C241 C 0.32191 -0.00652 0.09199 0.0
C242 C 0.32962 0.01931 0.95149 0.0
C243 C 0.32104 0.9794 0.88314 0.0
N244 N 0.3215 -3e-05 0.04661 0.0
N245 N 0.31646 0.9715 0.9284 0.0
H246 H 0.2762 0.31722 0.38574 0.0
H247 H 0.39013 0.33864 0.58142 0.0
H248 H 0.363 0.33588 0.35737 0.0
H249 H 0.30135 0.31271 0.61078 0.0
H250 H 0.37971 0.33553 0.49906 0.0
H251 H 0.2836 0.31174 0.46758 0.0
C252 C 0.29667 0.31965 0.39667 0.0
C253 C 0.31913 0.32723 0.36485 0.0
C254 C 0.36244 0.33042 0.52339 0.0
C255 C 0.32792 0.32156 0.45852 0.0
C256 C 0.3684 0.33236 0.5705 0.0
C257 C 0.34658 0.3261 0.60298 0.0
C258 C 0.33444 0.32228 0.50846 0.0
C259 C 0.31883 0.3179 0.58684 0.0
C260 C 0.30091 0.31665 0.44343 0.0
C261 C 0.34514 0.33005 0.38078 0.0
N262 N 0.31356 0.31633 0.54061 0.0
N263 N 0.34895 0.32758 0.42665 0.0
H264 H 0.01792 0.66401 0.8512 0.0
H265 H 0.97015 0.66666 0.1129 0.0
H266 H 0.93195 0.64329 0.89081 0.0
H267 H 0.04807 0.66684 0.07411 0.0
H268 H 0.95931 0.66769 0.03067 0.0
H269 H 0.03312 0.67564 0.93203 0.0
C270 C 0.00242 0.66246 0.87675 0.0
C271 C 0.9736 0.65235 0.86457 0.0
C272 C 0.97887 0.6677 0.04028 0.0
C273 C -0.00936 0.66531 0.95674 0.0
C274 C 0.98501 0.66708 0.08711 0.0
C275 C 0.0098 0.66627 0.1002 0.0
C276 C -0.00219 0.66774 0.00656 0.0
C277 C 0.0285 0.66706 0.06548 0.0
C278 C 0.01102 0.6689 0.92287 0.0
C279 C 0.95433 0.65068 0.89896 0.0
N280 N 0.02207 0.66764 0.02029 0.0
N281 N 0.96312 0.65683 0.94357 0.0
H282 H 0.34502 0.01972 0.35529 0.0
H283 H 0.3029 0.97176 0.61959 0.0
H284 H 0.29057 0.93134 0.3986 0.0
H285 H 0.3742 0.054 0.57706 0.0
H286 H 0.29086 0.95888 0.53788 0.0
H287 H 0.34828 0.03506 0.436 0.0
C288 C 0.33341 0.00363 0.38168 0.0
C289 C 0.31781 0.97424 0.37049 0.0
C290 C 0.30901 0.97982 0.54658 0.0
C291 C 0.32146 0.99147 0.46246 0.0
C292 C 0.31584 0.98714 0.59309 0.0
C293 C 0.33977 0.01378 0.60494 0.0
C294 C 0.32609 -0.00055 0.51196 0.0
C295 C 0.35579 0.03305 0.56936 0.0
C296 C 0.33538 0.01234 0.42768 0.0
C297 C 0.30313 0.95422 0.40592 0.0
N298 N 0.34872 0.02547 0.5245 0.0
N299 N 0.30546 0.96318 0.45038 0.0
H300 H 0.31051 0.34632 0.85389 0.0
H301 H 0.31213 0.29731 0.11505 0.0
H302 H 0.33284 0.28208 0.8929 0.0
H303 H 0.30386 0.37077 0.07644 0.0
H304 H 0.31032 0.28502 0.03297 0.0
H305 H 0.29781 0.34864 0.93453 0.0
C306 C 0.3122 0.33232 0.87926 0.0
C307 C 0.32312 0.31431 0.86699 0.0
C308 C 0.30864 0.30368 0.04258 0.0
C309 C 0.30899 0.31701 0.95899 0.0
C310 C 0.30969 0.31067 0.08934 0.0
C311 C 0.3086 0.33531 0.10238 0.0
C312 C 0.30636 0.32141 0.00887 0.0
C313 C 0.30522 0.3518 0.0678 0.0
C314 C 0.30512 0.33375 0.92527 0.0
C315 C 0.32487 0.29658 0.90111 0.0
N316 N 0.30441 0.34467 0.02264 0.0
N317 N 0.3182 0.29859 0.94566 0.0
H318 H 0.01114 0.33197 0.63645 0.0
H319 H 0.96372 0.3266 0.37197 0.0
H320 H 0.9287 0.32048 0.59421 0.0
H321 H 0.05218 0.3627 0.41602 0.0
H322 H 0.94824 0.31435 0.4527 0.0
H323 H 0.02432 0.3338 0.55472 0.0
C324 C -0.00423 0.32961 0.61 0.0
C325 C 0.96897 0.32643 0.62197 0.0
C326 C 0.97101 0.32471 0.44453 0.0
C327 C 0.98369 0.32824 0.52892 0.0
C328 C 0.9798 0.33156 0.39854 0.0
C329 C 0.00924 0.34595 0.38754 0.0
C330 C -0.00817 0.33208 0.47946 0.0
C331 C 0.02925 0.3519 0.42318 0.0
C332 C 0.00328 0.33068 0.56347 0.0
C333 C 0.94975 0.32333 0.58643 0.0
N334 N 0.0202 0.34508 0.46759 0.0
N335 N 0.95751 0.3244 0.54152 0.0
H336 H 0.63469 0.9675 0.86251 0.0
H337 H 0.67331 0.014 0.12803 0.0
H338 H 0.68454 0.056 0.90778 0.0
H339 H 0.60573 0.9301 0.08388 0.0
H340 H 0.68492 0.02811 0.04661 0.0
H341 H 0.63132 0.95172 0.94305 0.0
C342 C 0.64523 0.98355 0.88932 0.0
C343 C 0.65964 0.01306 0.87865 0.0
C344 C 0.6677 0.00655 0.05487 0.0
C345 C 0.65591 -0.0047 0.97048 0.0
C346 C 0.66113 -0.00149 0.10123 0.0
C347 C 0.63835 0.97099 0.11258 0.0
C348 C 0.65153 0.98679 0.01984 0.0
C349 C 0.62326 0.95167 0.07659 0.0
C350 C 0.64322 0.97458 0.93522 0.0
C351 C 0.67295 0.03301 0.91463 0.0
N352 N 0.63005 0.95996 0.03187 0.0
N353 N 0.67065 0.02378 0.95898 0.0
H354 H 0.61784 0.68374 0.40696 0.0
H355 H 0.65693 0.59647 0.58668 0.0
H356 H 0.6509 0.62835 0.36565 0.0
H357 H 0.64615 0.66816 0.62668 0.0
H358 H 0.65497 0.60796 0.50564 0.0
H359 H 0.62863 0.67895 0.48738 0.0
C360 C 0.62766 0.67077 0.41483 0.0
C361 C 0.63332 0.65623 0.37971 0.0
C362 C 0.65326 0.62134 0.53206 0.0
C363 C 0.64539 0.65038 0.47175 0.0
C364 C 0.65423 0.61472 0.57836 0.0
C365 C 0.65146 0.63128 0.61342 0.0
C366 C 0.64911 0.64449 0.5206 0.0
C367 C 0.64825 0.6548 0.60068 0.0
C368 C 0.63385 0.6681 0.46075 0.0
C369 C 0.64619 0.63988 0.39175 0.0
N370 N 0.64687 0.66055 0.55521 0.0
N371 N 0.65146 0.63709 0.43691 0.0
H372 H 0.07692 0.60577 0.27164 0.0
H373 H -0.01198 0.43352 0.24997 0.0
H374 H 0.98634 0.55751 0.23727 0.0
H375 H 0.07991 0.48331 0.27331 0.0
H376 H 0.98609 0.47828 0.24987 0.0
H377 H 0.07755 0.56061 0.27729 0.0
C378 C 0.05713 0.58562 0.26542 0.0
C379 C 0.03156 0.58533 0.2538 0.0
C380 C 0.00665 0.47938 0.25512 0.0
C381 C 0.03212 0.53356 0.2601 0.0
C382 C 0.00775 0.45387 0.25522 0.0
C383 C 0.03418 0.45479 0.26152 0.0
C384 C 0.03216 0.50592 0.26146 0.0
C385 C 0.0591 0.48167 0.2682 0.0
C386 C 0.0575 0.55984 0.2686 0.0
C387 C 0.00653 0.55865 0.2462 0.0
N388 N 0.05748 0.50617 0.26793 0.0
N389 N 0.00744 0.53378 0.24937 0.0
H390 H 0.42352 0.99017 0.74223 0.0
H391 H 0.5952 0.08597 0.7667 0.0
H392 H 0.4696 0.08221 0.76534 0.0
H393 H 0.55034 -0.00627 0.74585 0.0
H394 H 0.54895 0.08447 0.76865 0.0
H395 H 0.46936 0.99042 0.74583 0.0
C396 C 0.44328 0.01039 0.74824 0.0
C397 C 0.44285 0.03623 0.75334 0.0
C398 C 0.54915 0.06452 0.76376 0.0
C399 C 0.49519 0.0367 0.7574 0.0
C400 C 0.57557 0.06537 0.76263 0.0
C401 C 0.57655 0.03994 0.75596 0.0
C402 C 0.5235 0.03804 0.75804 0.0
C403 C 0.55048 0.01384 0.751 0.0
C404 C 0.4694 0.01053 0.75027 0.0
C405 C 0.46899 0.06182 0.76109 0.0
N406 N 0.52496 0.01356 0.75198 0.0
N407 N 0.4941 0.06141 0.76275 0.0
H408 H 0.54637 0.54917 0.23515 0.0
H409 H 0.37526 0.46612 0.27336 0.0
H410 H 0.49831 0.59193 0.26736 0.0
H411 H 0.42146 0.42464 0.22361 0.0
H412 H 0.42069 0.512 0.27626 0.0
H413 H 0.50127 0.5028 0.23553 0.0
C414 C 0.52632 0.54876 0.24242 0.0
C415 C 0.526 0.57437 0.25116 0.0
C416 C 0.42091 0.49287 0.26473 0.0
C417 C 0.47444 0.52153 0.2517 0.0
C418 C 0.395 0.46668 0.26314 0.0
C419 C 0.39465 0.44161 0.24813 0.0
C420 C 0.44665 0.49396 0.25134 0.0
C421 C 0.42081 0.44351 0.23532 0.0
C422 C 0.5006 0.52232 0.24256 0.0
C423 C 0.49948 0.57267 0.26034 0.0
N424 N 0.44579 0.46926 0.2372 0.0
N425 N 0.47475 0.54669 0.26039 0.0
H426 H -0.00763 0.55827 0.7426 0.0
H427 H 0.90249 0.38811 0.79005 0.0
H428 H 0.90176 0.51129 0.77699 0.0
H429 H -0.00756 0.43331 0.75133 0.0
H430 H 0.90301 0.43392 0.79083 0.0
H431 H -0.00598 0.51355 0.75073 0.0
C432 C 0.97288 0.53857 0.75207 0.0
C433 C 0.94685 0.53838 0.75888 0.0
C434 C 0.9227 0.4339 0.78233 0.0
C435 C 0.94855 0.48731 0.7682 0.0
C436 C 0.92241 0.40774 0.78191 0.0
C437 C 0.94742 0.40695 0.77034 0.0
C438 C 0.94817 0.45949 0.77094 0.0
C439 C 0.97266 0.43301 0.76029 0.0
C440 C 0.97382 0.51308 0.75668 0.0
C441 C 0.92224 0.51234 0.77119 0.0
N442 N 0.97236 0.45826 0.76057 0.0
N443 N 0.92368 0.48784 0.7753 0.0
H444 H 0.4288 -0.00569 0.24228 0.0
H445 H 0.50762 0.90148 0.26971 0.0
H446 H 0.38427 0.90206 0.26327 0.0
H447 H 0.55348 -0.00665 0.24466 0.0
H448 H 0.46237 0.90199 0.27101 0.0
H449 H 0.47493 -0.00484 0.24641 0.0
C450 C 0.42876 0.97427 0.24789 0.0
C451 C 0.40274 0.94806 0.25229 0.0
C452 C 0.4823 0.92209 0.26533 0.0
C453 C 0.45523 0.94885 0.25703 0.0
C454 C 0.50815 0.9218 0.26461 0.0
C455 C 0.53428 0.9474 0.2569 0.0
C456 C 0.48253 0.94817 0.25821 0.0
C457 C 0.53375 0.97313 0.25062 0.0
C458 C 0.45505 0.97476 0.25022 0.0
C459 C 0.40385 0.92273 0.25956 0.0
N460 N 0.50822 0.97286 0.25126 0.0
N461 N 0.42966 0.92375 0.26161 0.0
H462 H 0.54721 0.55385 0.75586 0.0
H463 H 0.46605 0.38209 0.78374 0.0
H464 H 0.59048 0.50525 0.77971 0.0
H465 H 0.42208 0.42912 0.75219 0.0
H466 H 0.51138 0.4277 0.7897 0.0
H467 H 0.50071 0.50904 0.76122 0.0
C468 C 0.54689 0.53376 0.76245 0.0
C469 C 0.57267 0.53316 0.76704 0.0
C470 C 0.49182 0.42811 0.78171 0.0
C471 C 0.51972 0.48197 0.77321 0.0
C472 C 0.46592 0.40207 0.77835 0.0
C473 C 0.44036 0.40187 0.76711 0.0
C474 C 0.49218 0.45417 0.7736 0.0
C475 C 0.44138 0.42836 0.76072 0.0
C476 C 0.52038 0.50822 0.7655 0.0
C477 C 0.5711 0.50663 0.77569 0.0
N478 N 0.46695 0.45349 0.76376 0.0
N479 N 0.54507 0.48208 0.77831 0.0
H480 H 0.1437 0.42255 0.26084 0.0
H481 H 0.21354 0.32154 0.23698 0.0
H482 H 0.09385 0.32973 0.24908 0.0
H483 H 0.26348 0.41393 0.25525 0.0
H484 H 0.16937 0.32414 0.24125 0.0
H485 H 0.18792 0.41991 0.25881 0.0
C486 C 0.14209 0.40162 0.25787 0.0
C487 C 0.11516 0.37632 0.25503 0.0
C488 C 0.18998 0.34385 0.24436 0.0
C489 C 0.16552 0.37312 0.25265 0.0
C490 C 0.21518 0.34238 0.24188 0.0
C491 C 0.24212 0.36758 0.24567 0.0
C492 C 0.1918 0.37073 0.25057 0.0
C493 C 0.24309 0.394 0.25211 0.0
C494 C 0.16732 0.40012 0.25674 0.0
C495 C 0.11423 0.34976 0.2513 0.0
N496 N 0.21823 0.3949 0.25428 0.0
N497 N 0.13909 0.34885 0.25013 0.0
H498 H 0.84056 0.27056 0.75175 0.0
H499 H 0.76095 0.0982 0.74145 0.0
H500 H 0.8861 0.22304 0.74687 0.0
H501 H 0.71671 0.14701 0.74524 0.0
H502 H 0.80715 0.1435 0.74175 0.0
H503 H 0.79494 0.22521 0.74782 0.0
C504 C 0.84093 0.25053 0.74981 0.0
C505 C 0.86707 0.25047 0.74975 0.0
C506 C 0.78732 0.14427 0.74242 0.0
C507 C 0.81497 0.19848 0.74526 0.0
C508 C 0.76099 0.11846 0.74224 0.0
C509 C 0.73506 0.11895 0.74344 0.0
C510 C 0.78759 0.17064 0.74385 0.0
C511 C 0.73624 0.1457 0.74438 0.0
C512 C 0.81488 0.22464 0.74754 0.0
C513 C 0.86635 0.22396 0.74708 0.0
N514 N 0.76209 0.17049 0.74465 0.0
N515 N 0.84065 0.19895 0.74502 0.0
H516 H 0.55929 0.7152 0.24194 0.0
H517 H 0.65828 0.88731 0.24215 0.0
H518 H 0.6524 0.75931 0.24362 0.0
H519 H 0.56512 0.84156 0.24324 0.0
H520 H 0.65705 0.84093 0.24081 0.0
H521 H 0.5614 0.76173 0.24052 0.0
C522 C 0.5802 0.73473 0.24197 0.0
C523 C 0.60571 0.73348 0.24299 0.0
C524 C 0.63691 0.84109 0.24128 0.0
C525 C 0.60834 0.78682 0.2414 0.0
C526 C 0.63761 0.86751 0.24203 0.0
C527 C 0.61177 0.86818 0.24289 0.0
C528 C 0.61018 0.81531 0.24138 0.0
C529 C 0.58556 0.84199 0.24268 0.0
C530 C 0.58141 0.7613 0.24116 0.0
C531 C 0.63223 0.7594 0.24291 0.0
N532 N 0.58545 0.81662 0.24199 0.0
N533 N 0.63287 0.78509 0.24219 0.0
H534 H 0.83652 0.564 0.7402 0.0
H535 H 0.75682 0.65661 0.73286 0.0
H536 H 0.88133 0.65669 0.72475 0.0
H537 H 0.71253 0.56386 0.74715 0.0
H538 H 0.80268 0.65716 0.72797 0.0
H539 H 0.7907 0.5635 0.74075 0.0
C540 C 0.83667 0.58424 0.73679 0.0
C541 C 0.86267 0.61044 0.73256 0.0
C542 C 0.78292 0.63669 0.7321 0.0
C543 C 0.81044 0.61007 0.73327 0.0
C544 C 0.75678 0.63638 0.73492 0.0
C545 C 0.73095 0.61016 0.74054 0.0
C546 C 0.78313 0.61059 0.73497 0.0
C547 C 0.73201 0.58455 0.74292 0.0
C548 C 0.81053 0.58396 0.73712 0.0
C549 C 0.86171 0.63604 0.72817 0.0
N550 N 0.75772 0.58541 0.7402 0.0
N551 N 0.83597 0.63523 0.72877 0.0
H552 H 0.26265 0.84003 0.24128 0.0
H553 H 0.09103 0.76714 0.22473 0.0
H554 H 0.21864 0.8888 0.22908 0.0
H555 H 0.13574 0.71929 0.24094 0.0
H556 H 0.13753 0.81203 0.2242 0.0
H557 H 0.21617 0.79544 0.23921 0.0
C558 C 0.24316 0.84132 0.23812 0.0
C559 C 0.2444 0.86805 0.23542 0.0
C560 C 0.13715 0.7917 0.22782 0.0
C561 C 0.19119 0.81722 0.23303 0.0
C562 C 0.11065 0.76612 0.2281 0.0
C563 C 0.10964 0.73956 0.23295 0.0
C564 C 0.16271 0.79061 0.23241 0.0
C565 C 0.13561 0.73935 0.23718 0.0
C566 C 0.21664 0.81588 0.23694 0.0
C567 C 0.21856 0.86856 0.23131 0.0
N568 N 0.16111 0.76452 0.23685 0.0
N569 N 0.19294 0.84346 0.23028 0.0
H570 H 0.31827 0.22022 0.72025 0.0
H571 H 0.41253 0.14261 0.73655 0.0
H572 H 0.41067 0.26542 0.73932 0.0
H573 H 0.31963 0.0962 0.72536 0.0
H574 H 0.41232 0.18799 0.73311 0.0
H575 H 0.31835 0.17459 0.71743 0.0
C576 C 0.33857 0.22051 0.72368 0.0
C577 C 0.36449 0.24651 0.73022 0.0
C578 C 0.39196 0.16791 0.73132 0.0
C579 C 0.36476 0.19463 0.7271 0.0
C580 C 0.39208 0.142 0.73329 0.0
C581 C 0.36604 0.11569 0.73143 0.0
C582 C 0.36561 0.16748 0.72749 0.0
C583 C 0.34016 0.11609 0.72705 0.0
C584 C 0.33861 0.1945 0.72211 0.0
C585 C 0.3902 0.24579 0.73438 0.0
N586 N 0.34059 0.14165 0.72534 0.0
N587 N 0.38967 0.22022 0.73286 0.0
loop_
_geom_bond_atom_site_label_1
_geom_bond_atom_site_label_2
_geom_bond_distance
_geom_bond_site_symmetry_2
_ccdc_geom_bond_type
In0 O1 2.294 . S
In0 O2 2.326 . S
In0 O6 2.266 . S
In0 O7 2.326 . S
In0 O8 2.266 . S
In0 O9 2.326 . S
In0 O11 2.294 . S
In0 O12 2.326 . S
O1 In0 2.294 . S
O1 C10 1.240 . S
O2 In0 2.326 . S
O2 C10 1.252 . S
C3 O6 1.252 . S
C3 O7 1.260 . S
C4 O11 1.240 . S
C4 O12 1.252 . S
C5 O8 1.252 . S
C5 O9 1.260 . S
O6 In0 2.266 . S
O6 C3 1.252 . S
O7 In0 2.326 . S
O7 C3 1.260 . S
O8 In0 2.266 . S
O8 C5 1.252 . S
O9 In0 2.326 . S
O9 C5 1.260 . S
C10 O1 1.240 . S
C10 O2 1.252 . S
O11 In0 2.294 . S
O11 C4 1.240 . S
O12 In0 2.326 . S
O12 C4 1.252 . S
In13 O14 2.294 . S
In13 O15 2.326 . S
In13 O19 2.266 . S
In13 O20 2.326 . S
In13 O21 2.266 . S
In13 O22 2.326 . S
In13 O24 2.294 . S
In13 O25 2.326 . S
O14 In13 2.294 . S
O14 C23 1.240 . S
O15 In13 2.326 . S
O15 C23 1.252 . S
C16 O19 1.252 . S
C16 O20 1.260 . S
C17 O24 1.240 . S
C17 O25 1.252 . S
C18 O21 1.252 . S
C18 O22 1.260 . S
O19 In13 2.266 . S
O19 C16 1.252 . S
O20 In13 2.326 . S
O20 C16 1.260 . S
O21 In13 2.266 . S
O21 C18 1.252 . S
O22 In13 2.326 . S
O22 C18 1.260 . S
C23 O14 1.240 . S
C23 O15 1.252 . S
O24 In13 2.294 . S
O24 C17 1.240 . S
O25 In13 2.326 . S
O25 C17 1.252 . S
In26 O27 2.294 . S
In26 O28 2.326 . S
In26 O32 2.266 . S
In26 O33 2.326 . S
In26 O34 2.266 . S
In26 O35 2.326 . S
In26 O37 2.294 . S
In26 O38 2.326 . S
O27 In26 2.294 . S
O27 C36 1.240 . S
O28 In26 2.326 . S
O28 C36 1.252 . S
C29 O32 1.252 . S
C29 O33 1.260 . S
C30 O37 1.240 . S
C30 O38 1.252 . S
C31 O34 1.252 . S
C31 O35 1.260 . S
O32 In26 2.266 . S
O32 C29 1.252 . S
O33 In26 2.326 . S
O33 C29 1.260 . S
O34 In26 2.266 . S
O34 C31 1.252 . S
O35 In26 2.326 . S
O35 C31 1.260 . S
C36 O27 1.240 . S
C36 O28 1.252 . S
O37 In26 2.294 . S
O37 C30 1.240 . S
O38 In26 2.326 . S
O38 C30 1.252 . S
In39 O40 2.294 . S
In39 O41 2.326 . S
In39 O45 2.266 . S
In39 O46 2.326 . S
In39 O47 2.266 . S
In39 O48 2.326 . S
In39 O50 2.294 . S
In39 O51 2.326 . S
O40 In39 2.294 . S
O40 C49 1.240 . S
O41 In39 2.326 . S
O41 C49 1.252 . S
C42 O45 1.252 . S
C42 O46 1.260 . S
C43 O50 1.240 . S
C43 O51 1.252 . S
C44 O47 1.252 . S
C44 O48 1.260 . S
O45 In39 2.266 . S
O45 C42 1.252 . S
O46 In39 2.326 . S
O46 C42 1.260 . S
O47 In39 2.266 . S
O47 C44 1.252 . S
O48 In39 2.326 . S
O48 C44 1.260 . S
C49 O40 1.240 . S
C49 O41 1.252 . S
O50 In39 2.294 . S
O50 C43 1.240 . S
O51 In39 2.326 . S
O51 C43 1.252 . S
In52 O53 2.294 . S
In52 O54 2.326 . S
In52 O58 2.266 . S
In52 O59 2.326 . S
In52 O60 2.266 . S
In52 O61 2.326 . S
In52 O63 2.294 . S
In52 O64 2.326 . S
O53 In52 2.294 . S
O53 C62 1.240 . S
O54 In52 2.326 . S
O54 C62 1.252 . S
C55 O58 1.252 . S
C55 O59 1.260 . S
C56 O63 1.240 . S
C56 O64 1.252 . S
C57 O60 1.252 . S
C57 O61 1.260 . S
O58 In52 2.266 . S
O58 C55 1.252 . S
O59 In52 2.326 . S
O59 C55 1.260 . S
O60 In52 2.266 . S
O60 C57 1.252 . S
O61 In52 2.326 . S
O61 C57 1.260 . S
C62 O53 1.240 . S
C62 O54 1.252 . S
O63 In52 2.294 . S
O63 C56 1.240 . S
O64 In52 2.326 . S
O64 C56 1.252 . S
In65 O66 2.294 . S
In65 O67 2.326 . S
In65 O71 2.266 . S
In65 O72 2.326 . S
In65 O73 2.266 . S
In65 O74 2.326 . S
In65 O76 2.294 . S
In65 O77 2.326 . S
O66 In65 2.294 . S
O66 C75 1.240 . S
O67 In65 2.326 . S
O67 C75 1.252 . S
C68 O71 1.252 . S
C68 O72 1.260 . S
C69 O76 1.240 . S
C69 O77 1.252 . S
C70 O73 1.252 . S
C70 O74 1.260 . S
O71 In65 2.266 . S
O71 C68 1.252 . S
O72 In65 2.326 . S
O72 C68 1.260 . S
O73 In65 2.266 . S
O73 C70 1.252 . S
O74 In65 2.326 . S
O74 C70 1.260 . S
C75 O66 1.240 . S
C75 O67 1.252 . S
O76 In65 2.294 . S
O76 C69 1.240 . S
O77 In65 2.326 . S
O77 C69 1.252 . S
In78 O79 2.294 . S
In78 O80 2.326 . S
In78 O84 2.266 . S
In78 O85 2.326 . S
In78 O86 2.266 . S
In78 O87 2.326 . S
In78 O89 2.294 . S
In78 O90 2.326 . S
O79 In78 2.294 . S
O79 C88 1.240 . S
O80 In78 2.326 . S
O80 C88 1.252 . S
C81 O84 1.252 . S
C81 O85 1.260 . S
C82 O89 1.240 . S
C82 O90 1.252 . S
C83 O86 1.252 . S
C83 O87 1.260 . S
O84 In78 2.266 . S
O84 C81 1.252 . S
O85 In78 2.326 . S
O85 C81 1.260 . S
O86 In78 2.266 . S
O86 C83 1.252 . S
O87 In78 2.326 . S
O87 C83 1.260 . S
C88 O79 1.240 . S
C88 O80 1.252 . S
O89 In78 2.294 . S
O89 C82 1.240 . S
O90 In78 2.326 . S
O90 C82 1.252 . S
In91 O92 2.294 . S
In91 O93 2.326 . S
In91 O97 2.266 . S
In91 O98 2.326 . S
In91 O99 2.266 . S
In91 O100 2.326 . S
In91 O102 2.294 . S
In91 O103 2.326 . S
O92 In91 2.294 . S
O92 C101 1.240 . S
O93 In91 2.326 . S
O93 C101 1.252 . S
C94 O97 1.252 . S
C94 O98 1.260 . S
C95 O102 1.240 . S
C95 O103 1.252 . S
C96 O99 1.252 . S
C96 O100 1.260 . S
O97 In91 2.266 . S
O97 C94 1.252 . S
O98 In91 2.326 . S
O98 C94 1.260 . S
O99 In91 2.266 . S
O99 C96 1.252 . S
O100 In91 2.326 . S
O100 C96 1.260 . S
C101 O92 1.240 . S
C101 O93 1.252 . S
O102 In91 2.294 . S
O102 C95 1.240 . S
O103 In91 2.326 . S
O103 C95 1.252 . S
In104 O105 2.294 . S
In104 O106 2.326 . S
In104 O110 2.266 . S
In104 O111 2.326 . S
In104 O112 2.266 . S
In104 O113 2.326 . S
In104 O115 2.294 . S
In104 O116 2.326 . S
O105 In104 2.294 . S
O105 C114 1.240 . S
O106 In104 2.326 . S
O106 C114 1.252 . S
C107 O110 1.252 . S
C107 O111 1.260 . S
C108 O115 1.240 . S
C108 O116 1.252 . S
C109 O112 1.252 . S
C109 O113 1.260 . S
O110 In104 2.266 . S
O110 C107 1.252 . S
O111 In104 2.326 . S
O111 C107 1.260 . S
O112 In104 2.266 . S
O112 C109 1.252 . S
O113 In104 2.326 . S
O113 C109 1.260 . S
C114 O105 1.240 . S
C114 O106 1.252 . S
O115 In104 2.294 . S
O115 C108 1.240 . S
O116 In104 2.326 . S
O116 C108 1.252 . S
In117 O118 2.294 . S
In117 O119 2.326 . S
In117 O123 2.266 . S
In117 O124 2.326 . S
In117 O125 2.266 . S
In117 O126 2.326 . S
In117 O128 2.294 . S
In117 O129 2.326 . S
O118 In117 2.294 . S
O118 C127 1.240 . S
O119 In117 2.326 . S
O119 C127 1.252 . S
C120 O123 1.252 . S
C120 O124 1.260 . S
C121 O128 1.240 . S
C121 O129 1.252 . S
C122 O125 1.252 . S
C122 O126 1.260 . S
O123 In117 2.266 . S
O123 C120 1.252 . S
O124 In117 2.326 . S
O124 C120 1.260 . S
O125 In117 2.266 . S
O125 C122 1.252 . S
O126 In117 2.326 . S
O126 C122 1.260 . S
C127 O118 1.240 . S
C127 O119 1.252 . S
O128 In117 2.294 . S
O128 C121 1.240 . S
O129 In117 2.326 . S
O129 C121 1.252 . S
In130 O131 2.294 . S
In130 O132 2.326 . S
In130 O136 2.266 . S
In130 O137 2.326 . S
In130 O138 2.266 . S
In130 O139 2.326 . S
In130 O141 2.294 . S
In130 O142 2.326 . S
O131 In130 2.294 . S
O131 C140 1.240 . S
O132 In130 2.326 . S
O132 C140 1.252 . S
C133 O136 1.252 . S
C133 O137 1.260 . S
C134 O141 1.240 . S
C134 O142 1.252 . S
C135 O138 1.252 . S
C135 O139 1.260 . S
O136 In130 2.266 . S
O136 C133 1.252 . S
O137 In130 2.326 . S
O137 C133 1.260 . S
O138 In130 2.266 . S
O138 C135 1.252 . S
O139 In130 2.326 . S
O139 C135 1.260 . S
C140 O131 1.240 . S
C140 O132 1.252 . S
O141 In130 2.294 . S
O141 C134 1.240 . S
O142 In130 2.326 . S
O142 C134 1.252 . S
In143 O144 2.294 . S
In143 O145 2.326 . S
In143 O149 2.266 . S
In143 O150 2.326 . S
In143 O151 2.266 . S
In143 O152 2.326 . S
In143 O154 2.294 . S
In143 O155 2.326 . S
O144 In143 2.294 . S
O144 C153 1.240 . S
O145 In143 2.326 . S
O145 C153 1.252 . S
C146 O149 1.252 . S
C146 O150 1.260 . S
C147 O154 1.240 . S
C147 O155 1.252 . S
C148 O151 1.252 . S
C148 O152 1.260 . S
O149 In143 2.266 . S
O149 C146 1.252 . S
O150 In143 2.326 . S
O150 C146 1.260 . S
O151 In143 2.266 . S
O151 C148 1.252 . S
O152 In143 2.326 . S
O152 C148 1.260 . S
C153 O144 1.240 . S
C153 O145 1.252 . S
O154 In143 2.294 . S
O154 C147 1.240 . S
O155 In143 2.326 . S
O155 C147 1.252 . S
H156 C162 0.930 . S
H157 C166 0.930 . S
H158 C171 0.929 . S
H159 C169 0.929 . S
H160 C164 0.929 . S
H161 C170 0.929 . S
C162 H156 0.930 . S
C162 C163 1.367 1_655 S
C162 C170 1.378 . S
C163 C162 1.367 1_455 S
C163 C171 1.433 . S
C164 H160 0.929 . S
C164 C166 1.378 . S
C164 C168 1.350 1_455 S
C165 C168 1.463 1_454 S
C165 C170 1.350 1_455 S
C165 N173 1.427 . S
C166 H157 0.930 . S
C166 C164 1.378 . S
C166 C167 1.367 1_455 S
C167 C166 1.367 1_655 S
C167 C169 1.433 . S
C168 C164 1.350 1_655 S
C168 C165 1.463 1_656 S
C168 N172 1.427 . S
C169 H159 0.929 . S
C169 C167 1.433 . S
C169 N172 1.384 . S
C170 H161 0.929 . S
C170 C162 1.378 . S
C170 C165 1.350 1_655 S
C171 H158 0.929 . S
C171 C163 1.433 . S
C171 N173 1.384 . S
N172 C168 1.427 . S
N172 C169 1.384 . S
N173 C165 1.427 . S
N173 C171 1.384 . S
H174 C180 0.930 . S
H175 C184 0.930 . S
H176 C189 0.929 . S
H177 C187 0.929 . S
H178 C182 0.929 . S
H179 C188 0.929 . S
C180 H174 0.930 . S
C180 C181 1.367 1_545 S
C180 C188 1.378 . S
C181 C180 1.367 1_565 S
C181 C189 1.433 . S
C182 H178 0.929 . S
C182 C184 1.378 . S
C182 C186 1.350 1_565 S
C183 C186 1.463 1_565 S
C183 C188 1.350 1_565 S
C183 N191 1.427 . S
C184 H175 0.930 . S
C184 C182 1.378 . S
C184 C185 1.367 1_565 S
C185 C184 1.367 1_545 S
C185 C187 1.433 . S
C186 C182 1.350 1_545 S
C186 C183 1.463 1_545 S
C186 N190 1.427 . S
C187 H177 0.929 . S
C187 C185 1.433 . S
C187 N190 1.384 . S
C188 H179 0.929 . S
C188 C180 1.378 . S
C188 C183 1.350 1_545 S
C189 H176 0.929 . S
C189 C181 1.433 . S
C189 N191 1.384 . S
N190 C186 1.427 . S
N190 C187 1.384 . S
N191 C183 1.427 . S
N191 C189 1.384 . S
H192 C198 0.930 . S
H193 C202 0.930 . S
H194 C207 0.929 . S
H195 C205 0.929 . S
H196 C200 0.929 . S
H197 C206 0.929 . S
C198 H192 0.930 . S
C198 C199 1.367 . S
C198 C206 1.378 . S
C199 C198 1.367 . S
C199 C207 1.433 . S
C200 H196 0.929 . S
C200 C202 1.378 . S
C200 C204 1.350 . S
C201 C204 1.463 1_554 S
C201 C206 1.350 . S
C201 N209 1.427 . S
C202 H193 0.930 . S
C202 C200 1.378 . S
C202 C203 1.367 . S
C203 C202 1.367 . S
C203 C205 1.433 . S
C204 C200 1.350 . S
C204 C201 1.463 1_556 S
C204 N208 1.427 . S
C205 H195 0.929 . S
C205 C203 1.433 . S
C205 N208 1.384 . S
C206 H197 0.929 . S
C206 C198 1.378 . S
C206 C201 1.350 . S
C207 H194 0.929 . S
C207 C199 1.433 . S
C207 N209 1.384 . S
N208 C204 1.427 . S
N208 C205 1.384 . S
N209 C201 1.427 . S
N209 C207 1.384 . S
H210 C216 0.930 . S
H211 C220 0.930 . S
H212 C225 0.929 . S
H213 C223 0.929 . S
H214 C218 0.929 . S
H215 C224 0.929 . S
C216 H210 0.930 . S
C216 C217 1.367 . S
C216 C224 1.378 . S
C217 C216 1.367 . S
C217 C225 1.433 . S
C218 H214 0.929 . S
C218 C220 1.378 . S
C218 C222 1.350 . S
C219 C222 1.463 1_455 S
C219 C224 1.350 . S
C219 N227 1.427 . S
C220 H211 0.930 . S
C220 C218 1.378 . S
C220 C221 1.367 . S
C221 C220 1.367 . S
C221 C223 1.433 . S
C222 C218 1.350 . S
C222 C219 1.463 1_655 S
C222 N226 1.427 . S
C223 H213 0.929 . S
C223 C221 1.433 . S
C223 N226 1.384 . S
C224 H215 0.929 . S
C224 C216 1.378 . S
C224 C219 1.350 . S
C225 H212 0.929 . S
C225 C217 1.433 . S
C225 N227 1.384 . S
N226 C222 1.427 . S
N226 C223 1.384 . S
N227 C219 1.427 . S
N227 C225 1.384 . S
H228 C234 0.930 . S
H229 C238 0.930 . S
H230 C243 0.929 . S
H231 C241 0.929 . S
H232 C236 0.929 . S
H233 C242 0.929 . S
C234 H228 0.930 . S
C234 C235 1.367 . S
C234 C242 1.378 . S
C235 C234 1.367 . S
C235 C243 1.433 1_545 S
C236 H232 0.929 . S
C236 C238 1.378 . S
C236 C240 1.350 . S
C237 C240 1.463 1_546 S
C237 C242 1.350 . S
C237 N245 1.427 1_545 S
C238 H229 0.930 . S
C238 C236 1.378 . S
C238 C239 1.367 . S
C239 C238 1.367 . S
C239 C241 1.433 1_565 S
C240 C236 1.350 . S
C240 C237 1.463 1_564 S
C240 N244 1.427 1_565 S
C241 H231 0.929 . S
C241 C239 1.433 1_545 S
C241 N244 1.384 . S
C242 H233 0.929 . S
C242 C234 1.378 . S
C242 C237 1.350 . S
C243 H230 0.929 . S
C243 C235 1.433 1_565 S
C243 N245 1.384 . S
N244 C240 1.427 1_545 S
N244 C241 1.384 . S
N245 C237 1.427 1_565 S
N245 C243 1.384 . S
H246 C252 0.930 . S
H247 C256 0.930 . S
H248 C261 0.929 . S
H249 C259 0.929 . S
H250 C254 0.929 . S
H251 C260 0.929 . S
C252 H246 0.930 . S
C252 C253 1.367 . S
C252 C260 1.378 . S
C253 C252 1.367 . S
C253 C261 1.433 . S
C254 H250 0.929 . S
C254 C256 1.378 . S
C254 C258 1.350 . S
C255 C258 1.463 . S
C255 C260 1.350 . S
C255 N263 1.427 . S
C256 H247 0.930 . S
C256 C254 1.378 . S
C256 C257 1.367 . S
C257 C256 1.367 . S
C257 C259 1.433 . S
C258 C254 1.350 . S
C258 C255 1.463 . S
C258 N262 1.427 . S
C259 H249 0.929 . S
C259 C257 1.433 . S
C259 N262 1.384 . S
C260 H251 0.929 . S
C260 C252 1.378 . S
C260 C255 1.350 . S
C261 H248 0.929 . S
C261 C253 1.433 . S
C261 N263 1.384 . S
N262 C258 1.427 . S
N262 C259 1.384 . S
N263 C255 1.427 . S
N263 C261 1.384 . S
H264 C270 0.930 . S
H265 C274 0.930 . S
H266 C279 0.929 . S
H267 C277 0.929 . S
H268 C272 0.938 . S
H269 C278 0.939 . S
C270 H264 0.930 . S
C270 C271 1.367 . S
C270 C278 1.376 1_655 S
C271 C270 1.367 . S
C271 C279 1.433 . S
C272 H268 0.938 . S
C272 C274 1.376 1_655 S
C272 C276 1.342 1_655 S
C273 C276 1.463 1_656 S
C273 C278 1.342 1_655 S
C273 N281 1.427 . S
C274 H265 0.930 . S
C274 C272 1.376 1_455 S
C274 C275 1.367 . S
C275 C274 1.367 . S
C275 C277 1.433 . S
C276 C272 1.342 1_455 S
C276 C273 1.463 1_454 S
C276 N280 1.427 . S
C277 H267 0.929 . S
C277 C275 1.433 . S
C277 N280 1.384 . S
C278 H269 0.939 . S
C278 C270 1.376 1_455 S
C278 C273 1.342 1_455 S
C279 H266 0.929 . S
C279 C271 1.433 . S
C279 N281 1.384 . S
N280 C276 1.427 . S
N280 C277 1.384 . S
N281 C273 1.427 . S
N281 C279 1.384 . S
H282 C288 0.930 . S
H283 C292 0.930 . S
H284 C297 0.929 . S
H285 C295 0.929 . S
H286 C290 0.929 . S
H287 C296 0.929 . S
C288 H282 0.930 . S
C288 C289 1.367 1_545 S
C288 C296 1.378 . S
C289 C288 1.367 1_565 S
C289 C297 1.433 . S
C290 H286 0.929 . S
C290 C292 1.378 . S
C290 C294 1.350 1_565 S
C291 C294 1.463 1_565 S
C291 C296 1.350 1_565 S
C291 N299 1.427 . S
C292 H283 0.930 . S
C292 C290 1.378 . S
C292 C293 1.367 1_565 S
C293 C292 1.367 1_545 S
C293 C295 1.433 . S
C294 C290 1.350 1_545 S
C294 C291 1.463 1_545 S
C294 N298 1.427 . S
C295 H285 0.929 . S
C295 C293 1.433 . S
C295 N298 1.384 . S
C296 H287 0.929 . S
C296 C288 1.378 . S
C296 C291 1.350 1_545 S
C297 H284 0.929 . S
C297 C289 1.433 . S
C297 N299 1.384 . S
N298 C294 1.427 . S
N298 C295 1.384 . S
N299 C291 1.427 . S
N299 C297 1.384 . S
H300 C306 0.930 . S
H301 C310 0.930 . S
H302 C315 0.929 . S
H303 C313 0.929 . S
H304 C308 0.929 . S
H305 C314 0.929 . S
C306 H300 0.930 . S
C306 C307 1.367 . S
C306 C314 1.378 . S
C307 C306 1.367 . S
C307 C315 1.433 . S
C308 H304 0.929 . S
C308 C310 1.378 . S
C308 C312 1.350 . S
C309 C312 1.463 1_556 S
C309 C314 1.350 . S
C309 N317 1.427 . S
C310 H301 0.930 . S
C310 C308 1.378 . S
C310 C311 1.367 . S
C311 C310 1.367 . S
C311 C313 1.433 . S
C312 C308 1.350 . S
C312 C309 1.463 1_554 S
C312 N316 1.427 . S
C313 H303 0.929 . S
C313 C311 1.433 . S
C313 N316 1.384 . S
C314 H305 0.929 . S
C314 C306 1.378 . S
C314 C309 1.350 . S
C315 H302 0.929 . S
C315 C307 1.433 . S
C315 N317 1.384 . S
N316 C312 1.427 . S
N316 C313 1.384 . S
N317 C309 1.427 . S
N317 C315 1.384 . S
H318 C324 0.930 . S
H319 C328 0.930 . S
H320 C333 0.929 . S
H321 C331 0.929 . S
H322 C326 0.929 . S
H323 C332 0.929 . S
C324 H318 0.930 . S
C324 C325 1.367 1_455 S
C324 C332 1.378 . S
C325 C324 1.367 1_655 S
C325 C333 1.433 . S
C326 H322 0.929 . S
C326 C328 1.378 . S
C326 C330 1.316 1_655 S
C327 C330 1.461 1_655 S
C327 C332 1.316 1_655 S
C327 N335 1.467 . S
C328 H319 0.930 . S
C328 C326 1.378 . S
C328 C329 1.367 1_655 S
C329 C328 1.367 1_455 S
C329 C331 1.433 . S
C330 C326 1.316 1_455 S
C330 C327 1.461 1_455 S
C330 N334 1.467 . S
C331 H321 0.929 . S
C331 C329 1.433 . S
C331 N334 1.384 . S
C332 H323 0.929 . S
C332 C324 1.378 . S
C332 C327 1.316 1_455 S
C333 H320 0.929 . S
C333 C325 1.433 . S
C333 N335 1.384 . S
N334 C330 1.467 . S
N334 C331 1.384 . S
N335 C327 1.467 . S
N335 C333 1.384 . S
H336 C342 0.930 . S
H337 C346 0.930 . S
H338 C351 0.929 . S
H339 C349 0.929 . S
H340 C344 0.929 . S
H341 C350 0.929 . S
C342 H336 0.930 . S
C342 C343 1.367 1_565 S
C342 C350 1.378 . S
C343 C342 1.367 1_545 S
C343 C351 1.433 . S
C344 H340 0.929 . S
C344 C346 1.378 . S
C344 C348 1.350 1_545 S
C345 C348 1.463 1_546 S
C345 C350 1.350 1_545 S
C345 N353 1.427 . S
C346 H337 0.930 . S
C346 C344 1.378 . S
C346 C347 1.367 1_545 S
C347 C346 1.367 1_565 S
C347 C349 1.433 . S
C348 C344 1.350 1_565 S
C348 C345 1.463 1_564 S
C348 N352 1.427 . S
C349 H339 0.929 . S
C349 C347 1.433 . S
C349 N352 1.384 . S
C350 H341 0.929 . S
C350 C342 1.378 . S
C350 C345 1.350 1_565 S
C351 H338 0.929 . S
C351 C343 1.433 . S
C351 N353 1.384 . S
N352 C348 1.427 . S
N352 C349 1.384 . S
N353 C345 1.427 . S
N353 C351 1.384 . S
H354 C360 0.930 . S
H355 C364 0.930 . S
H356 C369 0.929 . S
H357 C367 0.929 . S
H358 C362 0.929 . S
H359 C368 0.929 . S
C360 H354 0.930 . S
C360 C361 1.367 . S
C360 C368 1.378 . S
C361 C360 1.367 . S
C361 C369 1.433 . S
C362 H358 0.929 . S
C362 C364 1.378 . S
C362 C366 1.350 . S
C363 C366 1.463 . S
C363 C368 1.350 . S
C363 N371 1.427 . S
C364 H355 0.930 . S
C364 C362 1.378 . S
C364 C365 1.367 . S
C365 C364 1.367 . S
C365 C367 1.433 . S
C366 C362 1.350 . S
C366 C363 1.463 . S
C366 N370 1.427 . S
C367 H357 0.929 . S
C367 C365 1.433 . S
C367 N370 1.384 . S
C368 H359 0.929 . S
C368 C360 1.378 . S
C368 C363 1.350 . S
C369 H356 0.929 . S
C369 C361 1.433 . S
C369 N371 1.384 . S
N370 C366 1.427 . S
N370 C367 1.384 . S
N371 C363 1.427 . S
N371 C369 1.384 . S
H372 C378 0.930 . S
H373 C382 0.930 1_655 S
H374 C387 0.929 1_655 S
H375 C385 0.929 . S
H376 C380 0.929 1_655 S
H377 C386 0.929 . S
C378 H372 0.930 . S
C378 C379 1.367 . S
C378 C386 1.378 . S
C379 C378 1.367 . S
C379 C387 1.433 . S
C380 H376 0.929 1_455 S
C380 C382 1.378 . S
C380 C384 1.350 . S
C381 C384 1.463 . S
C381 C386 1.350 . S
C381 N389 1.427 . S
C382 H373 0.930 1_455 S
C382 C380 1.378 . S
C382 C383 1.367 . S
C383 C382 1.367 . S
C383 C385 1.433 . S
C384 C380 1.350 . S
C384 C381 1.463 . S
C384 N388 1.427 . S
C385 H375 0.929 . S
C385 C383 1.433 . S
C385 N388 1.384 . S
C386 H377 0.929 . S
C386 C378 1.378 . S
C386 C381 1.350 . S
C387 H374 0.929 1_455 S
C387 C379 1.433 . S
C387 N389 1.384 . S
N388 C384 1.427 . S
N388 C385 1.384 . S
N389 C381 1.427 . S
N389 C387 1.384 . S
H390 C396 0.930 . S
H391 C400 0.930 . S
H392 C405 0.929 . S
H393 C403 0.929 . S
H394 C398 0.929 . S
H395 C404 0.929 . S
C396 H390 0.930 . S
C396 C397 1.367 . S
C396 C404 1.378 . S
C397 C396 1.367 . S
C397 C405 1.433 . S
C398 H394 0.929 . S
C398 C400 1.378 . S
C398 C402 1.350 . S
C399 C402 1.463 . S
C399 C404 1.350 . S
C399 N407 1.427 . S
C400 H391 0.930 . S
C400 C398 1.378 . S
C400 C401 1.367 . S
C401 C400 1.367 . S
C401 C403 1.433 . S
C402 C398 1.350 . S
C402 C399 1.463 . S
C402 N406 1.427 . S
C403 H393 0.929 . S
C403 C401 1.433 . S
C403 N406 1.384 . S
C404 H395 0.929 . S
C404 C396 1.378 . S
C404 C399 1.350 . S
C405 H392 0.929 . S
C405 C397 1.433 . S
C405 N407 1.384 . S
N406 C402 1.427 . S
N406 C403 1.384 . S
N407 C399 1.427 . S
N407 C405 1.384 . S
H408 C414 0.930 . S
H409 C418 0.930 . S
H410 C423 0.929 . S
H411 C421 0.929 . S
H412 C416 0.929 . S
H413 C422 0.929 . S
C414 H408 0.930 . S
C414 C415 1.367 . S
C414 C422 1.378 . S
C415 C414 1.367 . S
C415 C423 1.433 . S
C416 H412 0.929 . S
C416 C418 1.378 . S
C416 C420 1.350 . S
C417 C420 1.463 . S
C417 C422 1.350 . S
C417 N425 1.427 . S
C418 H409 0.930 . S
C418 C416 1.378 . S
C418 C419 1.367 . S
C419 C418 1.367 . S
C419 C421 1.433 . S
C420 C416 1.350 . S
C420 C417 1.463 . S
C420 N424 1.427 . S
C421 H411 0.929 . S
C421 C419 1.433 . S
C421 N424 1.384 . S
C422 H413 0.929 . S
C422 C414 1.378 . S
C422 C417 1.350 . S
C423 H410 0.929 . S
C423 C415 1.433 . S
C423 N425 1.384 . S
N424 C420 1.427 . S
N424 C421 1.384 . S
N425 C417 1.427 . S
N425 C423 1.384 . S
H426 C432 0.930 . S
H427 C436 0.930 . S
H428 C441 0.929 . S
H429 C439 0.929 . S
H430 C434 0.929 . S
H431 C440 0.929 . S
C432 H426 0.930 . S
C432 C433 1.367 . S
C432 C440 1.378 . S
C433 C432 1.367 . S
C433 C441 1.433 . S
C434 H430 0.929 . S
C434 C436 1.378 . S
C434 C438 1.350 . S
C435 C438 1.463 . S
C435 C440 1.350 . S
C435 N443 1.427 . S
C436 H427 0.930 . S
C436 C434 1.378 . S
C436 C437 1.367 . S
C437 C436 1.367 . S
C437 C439 1.433 . S
C438 C434 1.350 . S
C438 C435 1.463 . S
C438 N442 1.427 . S
C439 H429 0.929 . S
C439 C437 1.433 . S
C439 N442 1.384 . S
C440 H431 0.929 . S
C440 C432 1.378 . S
C440 C435 1.350 . S
C441 H428 0.929 . S
C441 C433 1.433 . S
C441 N443 1.384 . S
N442 C438 1.427 . S
N442 C439 1.384 . S
N443 C435 1.427 . S
N443 C441 1.384 . S
H444 C450 0.930 1_545 S
H445 C454 0.930 . S
H446 C459 0.929 . S
H447 C457 0.929 1_545 S
H448 C452 0.929 . S
H449 C458 0.929 1_545 S
C450 H444 0.930 1_565 S
C450 C451 1.367 . S
C450 C458 1.378 . S
C451 C450 1.367 . S
C451 C459 1.433 . S
C452 H448 0.929 . S
C452 C454 1.378 . S
C452 C456 1.350 . S
C453 C456 1.463 . S
C453 C458 1.350 . S
C453 N461 1.427 . S
C454 H445 0.930 . S
C454 C452 1.378 . S
C454 C455 1.367 . S
C455 C454 1.367 . S
C455 C457 1.433 . S
C456 C452 1.350 . S
C456 C453 1.463 . S
C456 N460 1.427 . S
C457 H447 0.929 1_565 S
C457 C455 1.433 . S
C457 N460 1.384 . S
C458 H449 0.929 1_565 S
C458 C450 1.378 . S
C458 C453 1.350 . S
C459 H446 0.929 . S
C459 C451 1.433 . S
C459 N461 1.384 . S
N460 C456 1.427 . S
N460 C457 1.384 . S
N461 C453 1.427 . S
N461 C459 1.384 . S
H462 C468 0.930 . S
H463 C472 0.930 . S
H464 C477 0.929 . S
H465 C475 0.929 . S
H466 C470 0.929 . S
H467 C476 0.929 . S
C468 H462 0.930 . S
C468 C469 1.367 . S
C468 C476 1.378 . S
C469 C468 1.367 . S
C469 C477 1.433 . S
C470 H466 0.929 . S
C470 C472 1.378 . S
C470 C474 1.350 . S
C471 C474 1.463 . S
C471 C476 1.350 . S
C471 N479 1.427 . S
C472 H463 0.930 . S
C472 C470 1.378 . S
C472 C473 1.367 . S
C473 C472 1.367 . S
C473 C475 1.433 . S
C474 C470 1.350 . S
C474 C471 1.463 . S
C474 N478 1.427 . S
C475 H465 0.929 . S
C475 C473 1.433 . S
C475 N478 1.384 . S
C476 H467 0.929 . S
C476 C468 1.378 . S
C476 C471 1.350 . S
C477 H464 0.929 . S
C477 C469 1.433 . S
C477 N479 1.384 . S
N478 C474 1.427 . S
N478 C475 1.384 . S
N479 C471 1.427 . S
N479 C477 1.384 . S
H480 C486 0.930 . S
H481 C490 0.930 . S
H482 C495 0.929 . S
H483 C493 0.929 . S
H484 C488 0.929 . S
H485 C494 0.929 . S
C486 H480 0.930 . S
C486 C487 1.367 . S
C486 C494 1.378 . S
C487 C486 1.367 . S
C487 C495 1.433 . S
C488 H484 0.929 . S
C488 C490 1.378 . S
C488 C492 1.350 . S
C489 C492 1.463 . S
C489 C494 1.350 . S
C489 N497 1.427 . S
C490 H481 0.930 . S
C490 C488 1.378 . S
C490 C491 1.367 . S
C491 C490 1.367 . S
C491 C493 1.433 . S
C492 C488 1.350 . S
C492 C489 1.463 . S
C492 N496 1.427 . S
C493 H483 0.929 . S
C493 C491 1.433 . S
C493 N496 1.384 . S
C494 H485 0.929 . S
C494 C486 1.378 . S
C494 C489 1.350 . S
C495 H482 0.929 . S
C495 C487 1.433 . S
C495 N497 1.384 . S
N496 C492 1.427 . S
N496 C493 1.384 . S
N497 C489 1.427 . S
N497 C495 1.384 . S
H498 C504 0.930 . S
H499 C508 0.930 . S
H500 C513 0.929 . S
H501 C511 0.929 . S
H502 C506 0.929 . S
H503 C512 0.929 . S
C504 H498 0.930 . S
C504 C505 1.367 . S
C504 C512 1.378 . S
C505 C504 1.367 . S
C505 C513 1.433 . S
C506 H502 0.929 . S
C506 C508 1.378 . S
C506 C510 1.350 . S
C507 C510 1.463 . S
C507 C512 1.350 . S
C507 N515 1.427 . S
C508 H499 0.930 . S
C508 C506 1.378 . S
C508 C509 1.367 . S
C509 C508 1.367 . S
C509 C511 1.433 . S
C510 C506 1.350 . S
C510 C507 1.463 . S
C510 N514 1.427 . S
C511 H501 0.929 . S
C511 C509 1.433 . S
C511 N514 1.384 . S
C512 H503 0.929 . S
C512 C504 1.378 . S
C512 C507 1.350 . S
C513 H500 0.929 . S
C513 C505 1.433 . S
C513 N515 1.384 . S
N514 C510 1.427 . S
N514 C511 1.384 . S
N515 C507 1.427 . S
N515 C513 1.384 . S
H516 C522 0.930 . S
H517 C526 0.930 . S
H518 C531 0.929 . S
H519 C529 0.929 . S
H520 C524 0.929 . S
H521 C530 0.929 . S
C522 H516 0.930 . S
C522 C523 1.367 . S
C522 C530 1.378 . S
C523 C522 1.367 . S
C523 C531 1.433 . S
C524 H520 0.929 . S
C524 C526 1.378 . S
C524 C528 1.350 . S
C525 C528 1.463 . S
C525 C530 1.350 . S
C525 N533 1.427 . S
C526 H517 0.930 . S
C526 C524 1.378 . S
C526 C527 1.367 . S
C527 C526 1.367 . S
C527 C529 1.433 . S
C528 C524 1.350 . S
C528 C525 1.463 . S
C528 N532 1.427 . S
C529 H519 0.929 . S
C529 C527 1.433 . S
C529 N532 1.384 . S
C530 H521 0.929 . S
C530 C522 1.378 . S
C530 C525 1.350 . S
C531 H518 0.929 . S
C531 C523 1.433 . S
C531 N533 1.384 . S
N532 C528 1.427 . S
N532 C529 1.384 . S
N533 C525 1.427 . S
N533 C531 1.384 . S
H534 C540 0.930 . S
H535 C544 0.930 . S
H536 C549 0.929 . S
H537 C547 0.929 . S
H538 C542 0.929 . S
H539 C548 0.929 . S
C540 H534 0.930 . S
C540 C541 1.367 . S
C540 C548 1.378 . S
C541 C540 1.367 . S
C541 C549 1.433 . S
C542 H538 0.929 . S
C542 C544 1.378 . S
C542 C546 1.350 . S
C543 C546 1.463 . S
C543 C548 1.350 . S
C543 N551 1.427 . S
C544 H535 0.930 . S
C544 C542 1.378 . S
C544 C545 1.367 . S
C545 C544 1.367 . S
C545 C547 1.433 . S
C546 C542 1.350 . S
C546 C543 1.463 . S
C546 N550 1.427 . S
C547 H537 0.929 . S
C547 C545 1.433 . S
C547 N550 1.384 . S
C548 H539 0.929 . S
C548 C540 1.378 . S
C548 C543 1.350 . S
C549 H536 0.929 . S
C549 C541 1.433 . S
C549 N551 1.384 . S
N550 C546 1.427 . S
N550 C547 1.384 . S
N551 C543 1.427 . S
N551 C549 1.384 . S
H552 C558 0.930 . S
H553 C562 0.930 . S
H554 C567 0.929 . S
H555 C565 0.929 . S
H556 C560 0.929 . S
H557 C566 0.929 . S
C558 H552 0.930 . S
C558 C559 1.367 . S
C558 C566 1.378 . S
C559 C558 1.367 . S
C559 C567 1.433 . S
C560 H556 0.929 . S
C560 C562 1.378 . S
C560 C564 1.350 . S
C561 C564 1.463 . S
C561 C566 1.350 . S
C561 N569 1.427 . S
C562 H553 0.930 . S
C562 C560 1.378 . S
C562 C563 1.367 . S
C563 C562 1.367 . S
C563 C565 1.433 . S
C564 C560 1.350 . S
C564 C561 1.463 . S
C564 N568 1.427 . S
C565 H555 0.929 . S
C565 C563 1.433 . S
C565 N568 1.384 . S
C566 H557 0.929 . S
C566 C558 1.378 . S
C566 C561 1.350 . S
C567 H554 0.929 . S
C567 C559 1.433 . S
C567 N569 1.384 . S
N568 C564 1.427 . S
N568 C565 1.384 . S
N569 C561 1.427 . S
N569 C567 1.384 . S
H570 C576 0.930 . S
H571 C580 0.930 . S
H572 C585 0.929 . S
H573 C583 0.929 . S
H574 C578 0.929 . S
H575 C584 0.929 . S
C576 H570 0.930 . S
C576 C577 1.367 . S
C576 C584 1.378 . S
C577 C576 1.367 . S
C577 C585 1.433 . S
C578 H574 0.929 . S
C578 C580 1.378 . S
C578 C582 1.350 . S
C579 C582 1.463 . S
C579 C584 1.350 . S
C579 N587 1.427 . S
C580 H571 0.930 . S
C580 C578 1.378 . S
C580 C581 1.367 . S
C581 C580 1.367 . S
C581 C583 1.433 . S
C582 C578 1.350 . S
C582 C579 1.463 . S
C582 N586 1.427 . S
C583 H573 0.929 . S
C583 C581 1.433 . S
C583 N586 1.384 . S
C584 H575 0.929 . S
C584 C576 1.378 . S
C584 C579 1.350 . S
C585 H572 0.929 . S
C585 C577 1.433 . S
C585 N587 1.384 . S
N586 C582 1.427 . S
N586 C583 1.384 . S
N587 C579 1.427 . S
N587 C585 1.384 . S
C163 C4 1.382 . S
C167 C153 1.379 . S
C181 C82 1.379 . S
C185 C17 1.382 . S
C199 C30 1.382 . S
C203 C95 1.379 . S
C217 C108 1.382 . S
C221 C43 1.375 . S
C235 C121 1.380 . S
C239 C62 1.375 . S
C253 C134 1.382 . S
C257 C75 1.375 . S
C271 C44 1.350 . S
C275 C109 1.353 . S
C289 C55 1.356 . S
C293 C122 1.354 . S
C307 C68 1.354 . S
C311 C135 1.356 . S
C325 C146 1.356 . S
C329 C5 1.355 . S
C343 C18 1.356 . S
C347 C83 1.354 . S
C361 C31 1.348 . S
C365 C96 1.346 . S
C379 C107 1.727 . S
C383 C3 1.728 . S
C397 C120 1.729 . S
C401 C16 1.728 . S
C415 C29 1.725 . S
C419 C133 1.725 . S
C433 C42 1.725 . S
C437 C148 1.725 . S
C451 C57 1.728 . S
C455 C81 1.727 . S
C469 C94 1.725 . S
C473 C70 1.725 . S
C487 C10 1.712 . S
C491 C140 1.715 . S
C505 C147 1.715 . S
C509 C23 1.716 . S
C523 C36 1.714 . S
C527 C88 1.716 . S
C541 C49 1.712 . S
C545 C101 1.716 . S
C559 C56 1.713 . S
C563 C114 1.716 . S
C577 C69 1.713 . S
C581 C127 1.713 . S
