# Generated by pormake.
# Topology pts-e, (5)-cn, num edge types: 1
# Building blocks:
#     Node 0, Type 0, BuildingBlock: XOMCOT_clean_sbu_0, # of connection points: 5
#     Node 1, Type 0, BuildingBlock: XOMCOT_clean_sbu_0, # of connection points: 5
#     Node 2, Type 0, BuildingBlock: XOMCOT_clean_sbu_0, # of connection points: 5
#     Node 3, Type 0, BuildingBlock: XOMCOT_clean_sbu_0, # of connection points: 5
#     Node 4, Type 0, BuildingBlock: XOMCOT_clean_sbu_0, # of connection points: 5
#     Node 5, Type 0, BuildingBlock: XOMCOT_clean_sbu_0, # of connection points: 5
#     Node 6, Type 0, BuildingBlock: XOMCOT_clean_sbu_0, # of connection points: 5
#     Node 7, Type 0, BuildingBlock: XOMCOT_clean_sbu_0, # of connection points: 5
#     Edge 8, Type (0, 0), BuildingBlock: KIFKEQ_clean_linker_1, # of connection points: 2
#     Edge 9, Type (0, 0), BuildingBlock: KIFKEQ_clean_linker_1, # of connection points: 2
#     Edge 10, Type (0, 0), BuildingBlock: KIFKEQ_clean_linker_1, # of connection points: 2
#     Edge 11, Type (0, 0), BuildingBlock: KIFKEQ_clean_linker_1, # of connection points: 2
#     Edge 12, Type (0, 0), BuildingBlock: KIFKEQ_clean_linker_1, # of connection points: 2
#     Edge 13, Type (0, 0), BuildingBlock: KIFKEQ_clean_linker_1, # of connection points: 2
#     Edge 14, Type (0, 0), BuildingBlock: KIFKEQ_clean_linker_1, # of connection points: 2
#     Edge 15, Type (0, 0), BuildingBlock: KIFKEQ_clean_linker_1, # of connection points: 2
#     Edge 16, Type (0, 0), BuildingBlock: KIFKEQ_clean_linker_1, # of connection points: 2
#     Edge 17, Type (0, 0), BuildingBlock: KIFKEQ_clean_linker_1, # of connection points: 2
#     Edge 18, Type (0, 0), BuildingBlock: KIFKEQ_clean_linker_1, # of connection points: 2
#     Edge 19, Type (0, 0), BuildingBlock: KIFKEQ_clean_linker_1, # of connection points: 2
#     Edge 20, Type (0, 0), BuildingBlock: KIFKEQ_clean_linker_1, # of connection points: 2
#     Edge 21, Type (0, 0), BuildingBlock: KIFKEQ_clean_linker_1, # of connection points: 2
#     Edge 22, Type (0, 0), BuildingBlock: KIFKEQ_clean_linker_1, # of connection points: 2
#     Edge 23, Type (0, 0), BuildingBlock: KIFKEQ_clean_linker_1, # of connection points: 2
#     Edge 24, Type (0, 0), BuildingBlock: KIFKEQ_clean_linker_1, # of connection points: 2
#     Edge 25, Type (0, 0), BuildingBlock: KIFKEQ_clean_linker_1, # of connection points: 2
#     Edge 26, Type (0, 0), BuildingBlock: KIFKEQ_clean_linker_1, # of connection points: 2
#     Edge 27, Type (0, 0), BuildingBlock: KIFKEQ_clean_linker_1, # of connection points: 2
# Relax obj value: 0.535
# Max RMSD: 0.259
# Mean RMSD: 0.259
data_MOF--net-pts-e--node1-XOMCOT_clean_sbu_0--edge1-KIFKEQ_clean_linker_1
_symmetry_space_group_name_H-M    P1
_symmetry_Int_Tables_number       1
_symmetry_cell_setting            triclinic
loop_
_symmetry_equiv_pos_as_xyz
'x, y, z'
_cell_length_a     34.857794
_cell_length_b     34.780927
_cell_length_c     49.030683
_cell_angle_alpha  89.964353
_cell_angle_beta   89.878456
_cell_angle_gamma 89.964581
loop_
_atom_site_label
_atom_site_type_symbol
_atom_site_fract_x
_atom_site_fract_y
_atom_site_fract_z
_atom_type_partial_charge
Co0 Co 0.27474 -0.00037 0.13904 0.0
C1 C 0.35615 0.00722 0.15441 0.0
C2 C 0.33913 0.94823 0.15235 0.0
C3 C 0.37835 0.94976 0.1561 0.0
N4 N 0.32524 0.98442 0.15143 0.0
N5 N 0.3889 0.98703 0.15707 0.0
H6 H 0.35542 0.03796 0.15331 0.0
H7 H 0.32225 0.92262 0.14888 0.0
C8 C 0.25952 0.95222 0.18905 0.0
O9 O 0.28882 0.96916 0.20082 0.0
N10 N 0.22477 0.01504 0.12608 0.0
C11 C 0.21679 0.04812 0.11291 0.0
C12 C 0.17781 0.05072 0.1093 0.0
C13 C 0.19056 -0.00197 0.13045 0.0
N14 N 0.16139 0.01932 0.12045 0.0
C15 C 0.29068 0.07483 0.15964 0.0
C16 C 0.23328 0.07549 0.19838 0.0
C17 C 0.2527 0.10964 0.19233 0.0
C18 C 0.28254 0.10888 0.1734 0.0
C19 C 0.24261 0.04192 0.18438 0.0
N20 N 0.2713 0.04154 0.16531 0.0
H21 H 0.31023 0.07661 0.14268 0.0
H22 H 0.22397 0.01758 0.18719 0.0
H23 H 0.23769 0.06967 0.10726 0.0
H24 H 0.18689 0.97111 0.14114 0.0
O25 O 0.2981 0.02751 0.10953 0.0
O26 O 0.28056 0.96639 0.10754 0.0
O27 O 0.25016 0.9613 0.16468 0.0
C28 C 0.29498 -0.00367 0.09524 0.0
H29 H 0.39776 0.92546 0.15624 0.0
H30 H 0.16261 0.07474 0.10035 0.0
H31 H 0.20928 0.07534 0.21246 0.0
H32 H 0.29711 0.1351 0.16744 0.0
Co33 Co 0.03942 0.27117 0.64637 0.0
C34 C 0.04972 0.35279 0.66253 0.0
C35 C 0.10191 0.32793 0.64763 0.0
C36 C 0.10828 0.36637 0.65289 0.0
N37 N 0.06506 0.31952 0.65362 0.0
N38 N 0.07533 0.38173 0.66234 0.0
H39 H 0.02012 0.35684 0.66786 0.0
H40 H 0.12242 0.30777 0.63927 0.0
C41 C 0.09179 0.25605 0.69344 0.0
O42 O 0.0835 0.29048 0.70273 0.0
N43 N 0.01372 0.22336 0.63859 0.0
C44 C 0.97664 0.21974 0.63135 0.0
C45 C 0.96827 0.18137 0.62864 0.0
C46 C 0.02755 0.18724 0.64009 0.0
N47 N 0.00024 0.16093 0.6342 0.0
C48 C 0.97103 0.30298 0.66903 0.0
C49 C 0.96453 0.24992 0.71057 0.0
C50 C 0.93254 0.27176 0.70313 0.0
C51 C 0.93643 0.29994 0.68315 0.0
C52 C -0.00133 0.25397 0.69609 0.0
N53 N 0.00147 0.27953 0.67498 0.0
H54 H 0.97179 0.32175 0.65152 0.0
H55 H 0.02073 0.233 0.69989 0.0
H56 H 0.95693 0.24339 0.62841 0.0
H57 H 0.05672 0.1804 0.64582 0.0
O58 O 0.01226 0.29485 0.61666 0.0
O59 O 0.06863 0.26593 0.61287 0.0
O60 O 0.07597 0.24354 0.67167 0.0
C61 C 0.04029 0.28381 0.60108 0.0
H62 H 0.13469 0.38196 0.64937 0.0
H63 H 0.94082 0.16956 0.62272 0.0
H64 H 0.96196 0.22712 0.72554 0.0
H65 H 0.91186 0.31655 0.67648 0.0
Co66 Co 0.76849 0.03729 0.1466 0.0
C67 C 0.68635 0.05675 0.15547 0.0
C68 C 0.71475 0.09935 0.13126 0.0
C69 C 0.67618 0.10817 0.13237 0.0
N70 N 0.72104 0.06666 0.14547 0.0
N71 N 0.65862 0.0813 0.14772 0.0
H72 H 0.68052 0.0314 0.1673 0.0
H73 H 0.73636 0.11498 0.11995 0.0
C74 C 0.77717 0.09833 0.18967 0.0
O75 O 0.73997 0.09771 0.19382 0.0
N76 N 0.81537 0.00805 0.14714 0.0
C77 C 0.81862 0.96951 0.1461 0.0
C78 C 0.85691 0.96012 0.14505 0.0
C79 C 0.85148 0.02168 0.14654 0.0
N80 N 0.87758 0.99294 0.14526 0.0
C81 C 0.72544 0.97555 0.16979 0.0
C82 C 0.7593 0.97743 0.22055 0.0
C83 C 0.73598 0.94611 0.21363 0.0
C84 C 0.71785 0.94605 0.18826 0.0
C85 C 0.76639 0.0062 0.20143 0.0
N86 N 0.74975 0.00505 0.17626 0.0
H87 H 0.71273 0.97382 0.14978 0.0
H88 H 0.788 0.02714 0.20633 0.0
H89 H 0.79482 0.94962 0.14537 0.0
H90 H 0.85832 0.05201 0.14668 0.0
O91 O 0.75092 0.00672 0.1163 0.0
O92 O 0.78447 0.06054 0.11254 0.0
O93 O 0.79255 0.07589 0.17214 0.0
C94 C 0.76765 0.0317 0.10061 0.0
H95 H 0.66199 0.13172 0.12204 0.0
H96 H 0.86846 0.93136 0.1432 0.0
H97 H 0.77511 0.97783 0.23955 0.0
H98 H 0.70003 0.92211 0.18204 0.0
Co99 Co -0.00276 0.76232 0.63791 0.0
C100 C -0.0043 0.68297 0.66005 0.0
C101 C 0.94395 0.69654 0.63877 0.0
C102 C 0.94375 0.65787 0.64504 0.0
N103 N 0.97698 0.71217 0.64781 0.0
N104 N 0.97669 0.64939 0.65812 0.0
H105 H 0.02309 0.68555 0.66978 0.0
H106 H 0.92253 0.71159 0.62694 0.0
C107 C 0.94257 0.77691 0.68418 0.0
O108 O 0.95112 0.74294 0.69414 0.0
N109 N 0.01792 0.81165 0.62745 0.0
C110 C 0.05372 0.81777 0.61797 0.0
C111 C 0.05908 0.8566 0.61467 0.0
C112 C 0.00194 0.84679 0.62987 0.0
N113 N 0.02659 0.8748 0.62223 0.0
C114 C 0.0684 0.73997 0.66141 0.0
C115 C 0.06949 0.7965 0.7008 0.0
C116 C 0.1034 0.77684 0.69445 0.0
C117 C 0.10226 0.74698 0.67553 0.0
C118 C 0.03608 0.78836 0.68639 0.0
N119 N 0.03589 0.76092 0.66645 0.0
H120 H 0.0692 0.71913 0.64513 0.0
H121 H 0.012 0.80725 0.68946 0.0
H122 H 0.07492 0.79561 0.61446 0.0
H123 H 0.97312 0.85184 0.63723 0.0
O124 O 0.02675 0.73846 0.60941 0.0
O125 O 0.96789 0.76121 0.60427 0.0
O126 O 0.95835 0.78881 0.66217 0.0
C127 C -0.00202 0.74502 0.59338 0.0
H128 H 0.92233 0.63724 0.63868 0.0
H129 H 0.08539 0.87043 0.60821 0.0
H130 H 0.06958 0.82014 0.71518 0.0
H131 H 0.1281 0.73161 0.66983 0.0
Co132 Co 0.28131 0.02677 0.84714 0.0
C133 C 0.36366 0.03433 0.83511 0.0
C134 C 0.33884 0.08896 0.84469 0.0
C135 C 0.37757 0.09401 0.83989 0.0
N136 N 0.3302 0.0515 0.84116 0.0
N137 N 0.39289 0.05945 0.8337 0.0
H138 H 0.3674 0.00384 0.83329 0.0
H139 H 0.31847 0.11095 0.85053 0.0
C140 C 0.26726 0.08399 0.80222 0.0
O141 O 0.30156 0.07648 0.79243 0.0
N142 N 0.23291 0.00202 0.85363 0.0
C143 C 0.22718 0.96418 0.85784 0.0
C144 C 0.18844 0.95781 0.86058 0.0
C145 C 0.19792 0.01829 0.85412 0.0
N146 N 0.17017 0.99185 0.85821 0.0
C147 C 0.31191 0.95951 0.8213 0.0
C148 C 0.26883 0.96409 0.77435 0.0
C149 C 0.29169 0.93157 0.77878 0.0
C150 C 0.31386 0.92969 0.80239 0.0
C151 C 0.26734 0.99303 0.79393 0.0
N152 N 0.28943 0.9912 0.81688 0.0
H153 H 0.32707 0.95579 0.84025 0.0
H154 H 0.24589 0.01494 0.79133 0.0
H155 H 0.24957 0.94269 0.85865 0.0
H156 H 0.19283 0.04865 0.85095 0.0
O157 O 0.30374 -0.00354 0.87583 0.0
O158 O 0.27663 0.05352 0.8816 0.0
O159 O 0.25481 0.06619 0.82329 0.0
C160 C 0.2937 0.02383 0.89233 0.0
H161 H 0.39317 0.12083 0.84116 0.0
H162 H 0.17481 0.93031 0.86415 0.0
H163 H 0.24956 0.96561 0.75707 0.0
H164 H 0.33082 0.90439 0.80696 0.0
Co165 Co 0.00515 0.27558 0.35184 0.0
C166 C 0.99351 0.35802 0.33928 0.0
C167 C 0.94206 0.33203 0.35441 0.0
C168 C 0.93463 0.37025 0.34883 0.0
N169 N 0.97901 0.32442 0.34812 0.0
N170 N 0.96711 0.38623 0.33908 0.0
H171 H 0.02294 0.36259 0.33374 0.0
H172 H 0.92189 0.31116 0.36229 0.0
C173 C 0.94765 0.26428 0.30712 0.0
O174 O 0.95479 0.29949 0.29886 0.0
N175 N 0.03117 0.22718 0.35604 0.0
C176 C 0.06932 0.22199 0.35849 0.0
C177 C 0.07659 0.18325 0.36052 0.0
C178 C 0.01562 0.19181 0.35694 0.0
N179 N 0.04282 0.16441 0.35956 0.0
C180 C 0.07087 0.30988 0.32646 0.0
C181 C 0.06698 0.2692 0.27832 0.0
C182 C 0.09897 0.29247 0.28328 0.0
C183 C 0.10053 0.31342 0.30751 0.0
C184 C 0.0383 0.26599 0.29796 0.0
N185 N 0.03982 0.28681 0.32155 0.0
H186 H 0.07385 0.32466 0.34567 0.0
H187 H 0.01687 0.24421 0.29485 0.0
H188 H 0.09039 0.24477 0.35881 0.0
H189 H 0.98517 0.18624 0.35533 0.0
O190 O 0.03551 0.2964 0.38107 0.0
O191 O 0.97937 0.26748 0.38637 0.0
O192 O 0.96587 0.25013 0.32742 0.0
C193 C 0.00884 0.28428 0.39746 0.0
H194 H 0.90753 0.38496 0.35156 0.0
H195 H 0.10449 0.17 0.3629 0.0
H196 H 0.06575 0.25088 0.26047 0.0
H197 H 0.12538 0.33076 0.3124 0.0
Co198 Co 0.77547 0.0063 0.85037 0.0
C199 C 0.69239 -0.00095 0.84059 0.0
C200 C 0.71762 0.94427 0.84909 0.0
C201 C 0.67893 0.93908 0.84421 0.0
N202 N 0.72597 0.98195 0.84631 0.0
N203 N 0.66343 0.97373 0.83861 0.0
H204 H 0.68843 0.02949 0.83871 0.0
H205 H 0.73832 0.92211 0.85392 0.0
C206 C 0.7836 0.95377 0.80205 0.0
O207 O 0.7484 0.96256 0.79486 0.0
N208 N 0.82452 0.03052 0.85492 0.0
C209 C 0.83092 0.06803 0.85999 0.0
C210 C 0.86984 0.07381 0.86177 0.0
C211 C 0.85929 0.01384 0.85396 0.0
N212 N 0.88754 0.03972 0.85799 0.0
C213 C 0.74202 0.07602 0.83047 0.0
C214 C 0.77871 0.07715 0.78065 0.0
C215 C 0.75678 0.10899 0.7886 0.0
C216 C 0.73781 0.10798 0.81364 0.0
C217 C 0.78257 0.04589 0.79826 0.0
N218 N 0.76367 0.04501 0.82271 0.0
H219 H 0.7289 0.0772 0.85037 0.0
H220 H 0.80322 0.0242 0.79286 0.0
H221 H 0.80887 0.08963 0.86237 0.0
H222 H 0.86378 0.98353 0.85012 0.0
O223 O 0.75676 0.03354 0.88177 0.0
O224 O 0.78435 0.97623 0.88314 0.0
O225 O 0.79885 0.96949 0.82298 0.0
C226 C 0.76885 0.00485 0.8963 0.0
H227 H 0.66362 0.91203 0.84451 0.0
H228 H 0.88396 0.10086 0.86597 0.0
H229 H 0.79546 0.07777 0.76201 0.0
H230 H 0.72157 0.13256 0.82081 0.0
Co231 Co 0.02909 0.76863 0.34768 0.0
C232 C 0.02785 0.6869 0.33109 0.0
C233 C 0.08488 0.70954 0.33072 0.0
C234 C 0.08648 0.67114 0.3238 0.0
N235 N 0.04789 0.71954 0.33468 0.0
N236 N 0.05042 0.65711 0.32399 0.0
H237 H -0.00214 0.68388 0.33547 0.0
H238 H 0.10908 0.72864 0.33323 0.0
C239 C 0.07535 0.78764 0.29824 0.0
O240 O 0.05744 0.75928 0.28598 0.0
N241 N 0.01031 0.81716 0.3612 0.0
C242 C 0.97493 0.82324 0.37148 0.0
C243 C 0.97017 0.86194 0.3758 0.0
C244 C 0.02678 0.85212 0.35954 0.0
N245 N 0.00269 0.88001 0.36819 0.0
C246 C 0.95641 0.74818 0.32491 0.0
C247 C 0.95152 0.81042 0.29026 0.0
C248 C 0.91867 0.7885 0.29549 0.0
C249 C 0.92171 0.75609 0.31206 0.0
C250 C 0.9858 0.80133 0.30332 0.0
N251 N 0.98814 0.7706 0.32067 0.0
H252 H 0.95586 0.72678 0.3407 0.0
H253 H 0.0089 0.82175 0.30164 0.0
H254 H 0.9535 0.80121 0.37463 0.0
H255 H 0.05494 0.8573 0.351 0.0
O256 O 0.00123 0.74284 0.37609 0.0
O257 O 0.06109 0.76347 0.37982 0.0
O258 O 0.06692 0.79607 0.32296 0.0
C259 C 0.0314 0.74714 0.39118 0.0
H260 H 0.11223 0.6548 0.31954 0.0
H261 H 0.9445 0.8758 0.38344 0.0
H262 H 0.94998 0.83619 0.27789 0.0
H263 H 0.89656 0.73933 0.31732 0.0
H264 H 0.28016 0.9404 0.05741 0.0
H265 H 0.32792 0.0543 0.06649 0.0
H266 H 0.28453 0.94678 0.00782 0.0
H267 H 0.33255 0.06047 0.01716 0.0
H268 H 0.27715 0.07634 0.93206 0.0
H269 H 0.28313 0.06778 0.98129 0.0
H270 H 0.32964 0.95401 0.96865 0.0
H271 H 0.32338 0.96237 0.91947 0.0
C272 C 0.29231 0.9664 0.04884 0.0
C273 C 0.30334 -0.00304 0.06577 0.0
C274 C 0.29485 0.97007 0.02049 0.0
C275 C 0.3084 0.00436 0.00867 0.0
C276 C 0.32132 0.03402 0.0257 0.0
C277 C 0.31887 0.03034 0.05395 0.0
C278 C 0.28895 0.04966 0.9398 0.0
C279 C 0.2997 0.02003 0.92196 0.0
C280 C 0.29256 0.04481 0.96795 0.0
C281 C 0.30685 0.01018 0.97877 0.0
C282 C 0.31822 0.98082 0.96088 0.0
C283 C 0.3148 0.98575 0.93274 0.0
H284 H 0.07125 0.31003 0.42526 0.0
H285 H 0.95655 0.26581 0.43693 0.0
H286 H 0.08004 0.31285 0.47455 0.0
H287 H 0.96548 0.26851 0.48631 0.0
H288 H 0.98149 0.31497 0.57226 0.0
H289 H 0.97417 0.31761 0.52294 0.0
H290 H 0.08577 0.26541 0.51294 0.0
H291 H 0.09328 0.26286 0.56252 0.0
C292 C 0.04783 0.30111 0.43836 0.0
C293 C 0.01317 0.2877 0.42727 0.0
C294 C 0.053 0.30251 0.46656 0.0
C295 C 0.0235 0.29085 0.48423 0.0
C296 C 0.98859 0.27803 0.47314 0.0
C297 C 0.98352 0.27634 0.44491 0.0
C298 C 0.00468 0.30437 0.55958 0.0
C299 C 0.03795 0.28858 0.57125 0.0
C300 C 0.00032 0.30567 0.53134 0.0
C301 C 0.02923 0.29144 0.51414 0.0
C302 C 0.0631 0.27679 0.52575 0.0
C303 C 0.06737 0.27525 0.55409 0.0
H304 H 0.79326 0.08262 0.06233 0.0
H305 H 0.7432 0.9697 0.07152 0.0
H306 H 0.79361 0.07442 0.01286 0.0
H307 H 0.74345 0.96163 0.02205 0.0
H308 H 0.79061 0.94967 0.93321 0.0
H309 H 0.7908 0.95531 0.98306 0.0
H310 H 0.7435 0.06974 0.9766 0.0
H311 H 0.74336 0.06428 0.9272 0.0
C312 C 0.78234 0.05609 0.05378 0.0
C313 C 0.76803 0.0269 0.07074 0.0
C314 C 0.78242 0.05144 0.0255 0.0
C315 C 0.76846 0.01741 0.01366 0.0
C316 C 0.75465 0.98801 0.03065 0.0
C317 C 0.75427 0.99279 0.05893 0.0
C318 C 0.78006 0.97587 0.94251 0.0
C319 C 0.76705 0.00652 0.92633 0.0
C320 C 0.7801 0.97908 0.97098 0.0
C321 C 0.76748 0.01312 0.98363 0.0
C322 C 0.75396 0.04343 0.96739 0.0
C323 C 0.75364 0.04013 0.93909 0.0
H324 H 0.08493 0.76236 0.43056 0.0
H325 H 0.97304 0.71195 0.41809 0.0
H326 H 0.07635 0.75614 0.47989 0.0
H327 H 0.96466 0.70563 0.46716 0.0
H328 H 0.05922 0.71449 0.56672 0.0
H329 H 0.06864 0.70874 0.51768 0.0
H330 H 0.9547 0.75365 0.50416 0.0
H331 H 0.94508 0.75925 0.5534 0.0
C332 C 0.05891 0.74926 0.43832 0.0
C333 C 0.02958 0.73794 0.42051 0.0
C334 C 0.05398 0.74567 0.46652 0.0
C335 C 0.0196 0.7308 0.47733 0.0
C336 C 0.99114 0.71777 0.45942 0.0
C337 C -0.00389 0.72121 0.43131 0.0
C338 C 0.03594 0.72271 0.55332 0.0
C339 C 0.00141 0.73752 0.56388 0.0
C340 C 0.0415 0.7196 0.52524 0.0
C341 C 0.01256 0.73099 0.50712 0.0
C342 C 0.97742 0.74436 0.51768 0.0
C343 C 0.97192 0.74768 0.54584 0.0
H344 H 0.17103 0.27489 0.29982 0.0
H345 H 0.10357 0.29762 0.22786 0.0
H346 H 0.21846 0.24158 0.27221 0.0
H347 H 0.15165 0.26493 0.19997 0.0
H348 H 0.17971 0.13431 0.18854 0.0
H349 H 0.1527 0.19411 0.2051 0.0
H350 H 0.26455 0.22961 0.23352 0.0
H351 H 0.29178 0.16872 0.21676 0.0
C352 C 0.16746 0.27468 0.27787 0.0
C353 C 0.13327 0.28782 0.26595 0.0
C354 C 0.19472 0.25559 0.26201 0.0
C355 C 0.18802 0.24965 0.23411 0.0
C356 C 0.15693 0.26838 0.2216 0.0
C357 C 0.1295 0.28713 0.23748 0.0
C358 C 0.19855 0.15491 0.19828 0.0
C359 C 0.23754 0.14673 0.20202 0.0
C360 C 0.18329 0.18955 0.20725 0.0
C361 C 0.20665 0.2168 0.2203 0.0
C362 C 0.24602 0.20916 0.22337 0.0
C363 C 0.26147 0.17442 0.214 0.0
H364 H 0.7457 0.12148 0.73419 0.0
H365 H 0.77803 0.17802 0.809 0.0
H366 H 0.77343 0.17443 0.70802 0.0
H367 H 0.8072 0.22975 0.78316 0.0
H368 H 0.90106 0.20492 0.68881 0.0
H369 H 0.84164 0.17709 0.70487 0.0
H370 H 0.81715 0.28089 0.75039 0.0
H371 H 0.87806 0.30862 0.73416 0.0
C372 C 0.75752 0.14592 0.74497 0.0
C373 C 0.76065 0.14541 0.77346 0.0
C374 C 0.77347 0.17615 0.73008 0.0
C375 C 0.79379 0.20551 0.74351 0.0
C376 C 0.79195 0.2076 0.77211 0.0
C377 C 0.77535 0.17775 0.78698 0.0
C378 C 0.88264 0.22193 0.70196 0.0
C379 C 0.8942 0.25828 0.71095 0.0
C380 C 0.84817 0.20634 0.7108 0.0
C381 C 0.82446 0.22677 0.72895 0.0
C382 C 0.83493 0.26441 0.73653 0.0
C383 C 0.86964 0.2802 0.72742 0.0
H384 H 0.72904 0.93805 0.26897 0.0
H385 H 0.75088 0.87421 0.19505 0.0
H386 H 0.76065 0.88769 0.29537 0.0
H387 H 0.78301 0.82469 0.22111 0.0
H388 H 0.89154 0.85989 0.30457 0.0
H389 H 0.83049 0.88671 0.29087 0.0
H390 H 0.79727 0.77693 0.25694 0.0
H391 H 0.85958 0.75002 0.27062 0.0
C392 C 0.73903 0.91246 0.25855 0.0
C393 C 0.73865 0.91052 0.22997 0.0
C394 C 0.75719 0.8837 0.2736 0.0
C395 C 0.77563 0.85312 0.26013 0.0
C396 C 0.76939 0.84804 0.23208 0.0
C397 C 0.75092 0.87658 0.21708 0.0
C398 C 0.87118 0.84146 0.29422 0.0
C399 C 0.88054 0.8033 0.28788 0.0
C400 C 0.83578 0.85653 0.28692 0.0
C401 C 0.80882 0.83382 0.27301 0.0
C402 C 0.81748 0.79503 0.2677 0.0
C403 C 0.85306 0.77975 0.27531 0.0
H404 H 0.2926 0.92649 0.72326 0.0
H405 H 0.27483 0.85962 0.79641 0.0
H406 H 0.25803 0.87812 0.69693 0.0
H407 H 0.2397 0.81191 0.77037 0.0
H408 H 0.16358 0.73789 0.71772 0.0
H409 H 0.22521 0.76536 0.73245 0.0
H410 H 0.18782 0.87725 0.70466 0.0
H411 H 0.12735 0.85003 0.69007 0.0
C412 C 0.28274 0.90065 0.73344 0.0
C413 C 0.28542 0.89714 0.76186 0.0
C414 C 0.26295 0.87304 0.71844 0.0
C415 C 0.24515 0.84203 0.73183 0.0
C416 C 0.25298 0.83559 0.75953 0.0
C417 C 0.27309 0.86302 0.77448 0.0
C418 C 0.16898 0.76826 0.71472 0.0
C419 C 0.14062 0.79216 0.70347 0.0
C420 C 0.20414 0.78385 0.72291 0.0
C421 C 0.2115 0.82328 0.71935 0.0
C422 C 0.18346 0.84661 0.70713 0.0
C423 C 0.14845 0.83123 0.69933 0.0
H424 H 0.94363 0.85549 0.68476 0.0
H425 H 0.88611 0.75743 0.72018 0.0
H426 H 0.90504 0.89854 0.71329 0.0
H427 H 0.84699 0.80062 0.74824 0.0
H428 H 0.75743 0.89864 0.76725 0.0
H429 H 0.79532 0.85583 0.7381 0.0
H430 H 0.89949 0.90813 0.76758 0.0
H431 H 0.86173 0.95043 0.79725 0.0
C432 C 0.92243 0.84318 0.69837 0.0
C433 C 0.91778 0.8031 0.70019 0.0
C434 C 0.9006 0.86779 0.71481 0.0
C435 C 0.87313 0.85283 0.73294 0.0
C436 C 0.86789 0.81284 0.73434 0.0
C437 C 0.89031 0.78819 0.71835 0.0
C438 C 0.78841 0.90096 0.76754 0.0
C439 C 0.80662 0.92781 0.78457 0.0
C440 C 0.81004 0.87641 0.75094 0.0
C441 C 0.85025 0.87881 0.75059 0.0
C442 C 0.86849 0.90589 0.76739 0.0
C443 C 0.8469 0.92988 0.78445 0.0
H444 H 0.26659 0.93105 0.24272 0.0
H445 H 0.19499 0.91471 0.17183 0.0
H446 H 0.22339 0.89055 0.26943 0.0
H447 H 0.15146 0.8752 0.19863 0.0
H448 H 0.10161 0.77534 0.24649 0.0
H449 H 0.14746 0.81351 0.22065 0.0
H450 H 0.15907 0.89119 0.28885 0.0
H451 H 0.11365 0.85241 0.31503 0.0
C452 C 0.24169 0.91883 0.2328 0.0
C453 C 0.23431 0.92622 0.20509 0.0
C454 C 0.21675 0.89584 0.24819 0.0
C455 C 0.18386 0.87963 0.23623 0.0
C456 C 0.17675 0.88675 0.20845 0.0
C457 C 0.20165 0.90967 0.19308 0.0
C458 C 0.11394 0.80051 0.25606 0.0
C459 C 0.10381 0.81084 0.28284 0.0
C460 C 0.14014 0.82255 0.24114 0.0
C461 C 0.15688 0.85558 0.25257 0.0
C462 C 0.14708 0.8657 0.2795 0.0
C463 C 0.12085 0.84358 0.29447 0.0
H464 H 0.0939 0.17745 0.69397 0.0
H465 H 0.1479 0.27775 0.72881 0.0
H466 H 0.13608 0.13598 0.72105 0.0
H467 H 0.19056 0.23621 0.75535 0.0
H468 H 0.28729 0.14249 0.76802 0.0
H469 H 0.24456 0.18448 0.74185 0.0
H470 H 0.14627 0.12526 0.77506 0.0
H471 H 0.18885 0.08378 0.80176 0.0
C472 C 0.11492 0.19061 0.70726 0.0
C473 C 0.11766 0.23083 0.70928 0.0
C474 C 0.13884 0.1669 0.72284 0.0
C475 C 0.16649 0.18299 0.74023 0.0
C476 C 0.16955 0.22316 0.74199 0.0
C477 C 0.14508 0.24686 0.7269 0.0
C478 C 0.25656 0.13856 0.76982 0.0
C479 C 0.2414 0.10996 0.78698 0.0
C480 C 0.23218 0.16262 0.75493 0.0
C481 C 0.19222 0.15796 0.75644 0.0
C482 C 0.17701 0.12926 0.77347 0.0
C483 C 0.20136 0.10575 0.78884 0.0
H484 H 0.85449 0.09194 0.19799 0.0
H485 H 0.75568 0.15988 0.22079 0.0
H486 H 0.89495 0.13167 0.22728 0.0
H487 H 0.79633 0.19976 0.24988 0.0
H488 H 0.89335 0.28739 0.27063 0.0
H489 H 0.85173 0.24707 0.24263 0.0
H490 H 0.90151 0.14539 0.27863 0.0
H491 H 0.94302 0.18567 0.30688 0.0
C492 C 0.84142 0.11543 0.20916 0.0
C493 C 0.80186 0.12281 0.20703 0.0
C494 C 0.86456 0.13798 0.22607 0.0
C495 C 0.84876 0.16875 0.24088 0.0
C496 C 0.80929 0.17635 0.23857 0.0
C497 C 0.78603 0.15343 0.222 0.0
C498 C 0.89532 0.25643 0.27267 0.0
C499 C 0.92146 0.23973 0.29098 0.0
C500 C 0.87137 0.23339 0.25672 0.0
C501 C 0.87345 0.19312 0.25843 0.0
C502 C 0.89951 0.17636 0.27677 0.0
C503 C 0.92307 0.19943 0.29305 0.0
H504 H 0.12562 0.9823 0.16196 0.0
H505 H 0.10547 0.04118 0.08579 0.0
H506 H 0.0566 0.97538 0.16862 0.0
H507 H 0.03654 0.03385 0.09215 0.0
H508 H 0.91775 0.05439 0.12642 0.0
H509 H 0.98681 0.0594 0.12096 0.0
H510 H 8e-05 0.94355 0.15141 0.0
H511 H 0.93106 0.93922 0.15822 0.0
C512 C 0.10645 0.99319 0.14643 0.0
C513 C 0.1209 0.01247 0.12341 0.0
C514 C 0.0669 0.98928 0.15024 0.0
C515 C 0.04103 0.0044 0.13104 0.0
C516 C 0.05563 0.02268 0.10765 0.0
C517 C 0.0951 0.02676 0.10393 0.0
C518 C 0.93531 0.03016 0.13236 0.0
C519 C 0.91866 -0.00365 0.14271 0.0
C520 C 0.97496 0.03284 0.12885 0.0
C521 C -0.00103 0.00173 0.13549 0.0
C522 C 0.98244 0.96813 0.14623 0.0
C523 C 0.94277 0.9655 0.14984 0.0
H524 H 0.06531 0.11956 0.62611 0.0
H525 H 0.9437 0.10836 0.6414 0.0
H526 H 0.07111 0.04983 0.62409 0.0
H527 H 0.9492 0.03884 0.63814 0.0
H528 H 0.98143 0.91384 0.65779 0.0
H529 H 0.97515 0.9835 0.66176 0.0
H530 H 0.05289 -0.00191 0.59376 0.0
H531 H 0.05932 0.92859 0.59001 0.0
C532 C 0.03984 0.10229 0.62913 0.0
C533 C 0.00401 0.11966 0.63375 0.0
C534 C 0.04308 0.06231 0.62765 0.0
C535 C 0.01055 0.03877 0.63074 0.0
C536 C 0.97486 0.0561 0.63584 0.0
C537 C 0.97164 0.09604 0.63736 0.0
C538 C -0.00321 0.93194 0.64351 0.0
C539 C 0.02098 0.91575 0.62364 0.0
C540 C 0.99327 0.97185 0.6458 0.0
C541 C 0.01377 -0.00364 0.6282 0.0
C542 C 0.03737 0.98006 0.60802 0.0
C543 C 0.04097 0.94024 0.6058 0.0
H544 H 0.94364 0.08916 0.84329 0.0
H545 H 0.92335 0.97415 0.87321 0.0
H546 H 0.01249 0.07729 0.84372 0.0
H547 H 0.99227 0.9623 0.87396 0.0
H548 H 0.11458 0.94237 0.84274 0.0
H549 H 0.04566 0.95387 0.84288 0.0
H550 H 0.06466 0.0677 0.87548 0.0
H551 H 0.13365 0.05622 0.87503 0.0
C552 C 0.95395 0.06147 0.85022 0.0
C553 C 0.92814 0.03259 0.85823 0.0
C554 C 0.99337 0.05468 0.8505 0.0
C555 C 0.00783 0.01889 0.85894 0.0
C556 C 0.98199 0.98999 0.86697 0.0
C557 C 0.94254 -0.00325 0.86655 0.0
C558 C 0.10399 0.96968 0.85018 0.0
C559 C 0.12948 -0.00159 0.85886 0.0
C560 C 0.06452 0.97627 0.85028 0.0
C561 C 0.04971 0.0117 0.85918 0.0
C562 C 0.07522 0.04033 0.86808 0.0
C563 C 0.11471 0.03377 0.86785 0.0
H564 H 0.94955 0.93465 0.35823 0.0
H565 H 0.06973 0.91759 0.37541 0.0
H566 H 0.95959 0.00375 0.35608 0.0
H567 H 0.07989 0.98706 0.37393 0.0
H568 H 0.09068 0.1094 0.34068 0.0
H569 H 0.08126 0.04005 0.34282 0.0
H570 H 0.97313 0.05765 0.38438 0.0
H571 H 0.98234 0.12701 0.38158 0.0
C572 C 0.97805 0.94579 0.36193 0.0
C573 C 0.00884 0.92082 0.36715 0.0
C574 C 0.98383 0.98541 0.36074 0.0
C575 C 0.02051 0.00102 0.36497 0.0
C576 C 0.05136 0.97597 0.37019 0.0
C577 C 0.0456 0.93624 0.37113 0.0
C578 C 0.06504 0.09836 0.35039 0.0
C579 C 0.0372 0.12353 0.36093 0.0
C580 C 0.05966 0.05864 0.3517 0.0
C581 C 0.02645 0.04325 0.36379 0.0
C582 C -0.00127 0.06853 0.37449 0.0
C583 C 0.00397 0.10825 0.37294 0.0
H584 H 0.45322 0.95436 0.17783 0.0
H585 H 0.4119 0.0552 0.1355 0.0
H586 H 0.51815 0.98074 0.17675 0.0
H587 H 0.47574 0.08227 0.13584 0.0
H588 H 0.6026 0.09419 0.11088 0.0
H589 H 0.53623 0.07246 0.11406 0.0
H590 H 0.55721 0.03134 0.19592 0.0
H591 H 0.62377 0.05252 0.19234 0.0
C592 C 0.45789 0.98216 0.16848 0.0
C593 C 0.4272 0.00267 0.157 0.0
C594 C 0.49497 -0.00246 0.16815 0.0
C595 C 0.50209 0.03375 0.15632 0.0
C596 C 0.47136 0.05421 0.14492 0.0
C597 C 0.43449 0.03882 0.14513 0.0
C598 C 0.59269 0.08134 0.12974 0.0
C599 C 0.61823 0.07486 0.15131 0.0
C600 C 0.55474 0.06874 0.13158 0.0
C601 C 0.54154 0.0497 0.15515 0.0
C602 C 0.56669 0.04505 0.17725 0.0
C603 C 0.60465 0.05743 0.17531 0.0
H604 H 0.93715 0.58319 0.66676 0.0
H605 H 0.05202 0.62962 0.66171 0.0
H606 H 0.96405 0.5187 0.67152 0.0
H607 H 0.07849 0.56601 0.66779 0.0
H608 H 0.10574 0.44338 0.63657 0.0
H609 H 0.08292 0.50948 0.63931 0.0
H610 H 0.00118 0.47623 0.70137 0.0
H611 H 0.02403 0.41002 0.69845 0.0
C612 C 0.968 0.57981 0.66702 0.0
C613 C 0.99222 0.61177 0.66379 0.0
C614 C 0.98346 0.54293 0.67005 0.0
C615 C 0.02344 0.53729 0.66991 0.0
C616 C 0.04759 0.56935 0.66765 0.0
C617 C 0.03223 0.60605 0.66454 0.0
C618 C 0.08359 0.45039 0.65124 0.0
C619 C 0.06641 0.42153 0.66709 0.0
C620 C 0.0704 0.48824 0.65281 0.0
C621 C 0.03992 0.49798 0.67037 0.0
C622 C 0.02414 0.46946 0.68725 0.0
C623 C 0.0373 0.43163 0.68565 0.0
H624 H 0.45609 0.09862 0.85036 0.0
H625 H 0.41967 -0.00268 0.80631 0.0
H626 H 0.52258 0.07647 0.84737 0.0
H627 H 0.48566 0.97458 0.80479 0.0
H628 H 0.59945 0.93437 0.85357 0.0
H629 H 0.53298 0.95601 0.84811 0.0
H630 H 0.57238 0.05735 0.80576 0.0
H631 H 0.63827 0.03516 0.80981 0.0
C632 C 0.46218 0.072 0.83981 0.0
C633 C 0.43242 0.04939 0.82912 0.0
C634 C 0.50012 0.05926 0.83825 0.0
C635 C 0.50871 0.02361 0.82626 0.0
C636 C 0.47939 0.00183 0.81454 0.0
C637 C 0.44167 0.01485 0.81561 0.0
C638 C 0.59388 0.96077 0.84258 0.0
C639 C 0.6242 0.98344 0.83272 0.0
C640 C 0.55598 0.97319 0.83957 0.0
C641 C 0.54807 0.00856 0.82694 0.0
C642 C 0.57807 0.03033 0.816 0.0
C643 C 0.61573 0.01764 0.81853 0.0
H644 H 0.93088 0.44999 0.35796 0.0
H645 H 0.01933 0.41157 0.3024 0.0
H646 H 0.94975 0.51671 0.34948 0.0
H647 H 0.03885 0.47789 0.29478 0.0
H648 H 0.09298 0.59218 0.33013 0.0
H649 H 0.06954 0.52616 0.32907 0.0
H650 H 0.95586 0.56693 0.30972 0.0
H651 H 0.97934 0.63284 0.30965 0.0
C652 C 0.95383 0.45577 0.34364 0.0
C653 C 0.97414 0.4255 0.33134 0.0
C654 C 0.96468 0.49386 0.33884 0.0
C655 C -0.0039 0.50214 0.32182 0.0
C656 C 0.01499 0.47208 0.30837 0.0
C657 C 0.00389 0.43417 0.31289 0.0
C658 C 0.06323 0.58715 0.32505 0.0
C659 C 0.03796 0.61795 0.32047 0.0
C660 C 0.04979 0.54936 0.32452 0.0
C661 C 0.01084 0.54173 0.31961 0.0
C662 C 0.98588 0.57225 0.31397 0.0
C663 C -0.00061 0.60995 0.3141 0.0
loop_
_geom_bond_atom_site_label_1
_geom_bond_atom_site_label_2
_geom_bond_distance
_geom_bond_site_symmetry_2
_ccdc_geom_bond_type
Co0 N4 2.148 . S
Co0 N10 2.128 . S
Co0 N20 2.194 . S
Co0 O25 2.351 . S
Co0 O26 2.165 . S
Co0 O27 2.096 1_545 S
C1 N4 1.301 . S
C1 N5 1.328 . S
C1 H6 0.930 . S
C2 C3 1.333 . S
C2 N4 1.317 1_565 S
C2 H7 0.930 . S
C3 C2 1.333 . S
C3 N5 1.350 1_565 S
C3 H29 0.931 . S
N4 Co0 2.148 . S
N4 C1 1.301 . S
N4 C2 1.317 1_545 S
N5 C1 1.328 . S
N5 C3 1.350 1_545 S
H6 C1 0.930 . S
H7 C2 0.930 . S
C8 O9 1.224 . S
C8 O27 1.247 . S
O9 C8 1.224 . S
N10 Co0 2.128 . S
N10 C11 1.355 . S
N10 C13 1.311 . S
C11 N10 1.355 . S
C11 C12 1.363 . S
C11 H23 0.929 . S
C12 C11 1.363 . S
C12 N14 1.375 . S
C12 H30 0.931 . S
C13 N10 1.311 . S
C13 N14 1.347 . S
C13 H24 0.929 1_545 S
N14 C12 1.375 . S
N14 C13 1.347 . S
C15 C18 1.365 . S
C15 N20 1.328 . S
C15 H21 0.929 . S
C16 C17 1.362 . S
C16 C19 1.378 . S
C16 H31 0.929 . S
C17 C16 1.362 . S
C17 C18 1.366 . S
C18 C15 1.365 . S
C18 C17 1.366 . S
C18 H32 0.930 . S
C19 C16 1.378 . S
C19 N20 1.315 . S
C19 H22 0.930 . S
N20 Co0 2.194 . S
N20 C15 1.328 . S
N20 C19 1.315 . S
H21 C15 0.929 . S
H22 C19 0.930 . S
H23 C11 0.929 . S
H24 C13 0.929 1_565 S
O25 Co0 2.351 . S
O25 C28 1.244 . S
O26 Co0 2.165 . S
O26 C28 1.264 . S
O27 Co0 2.096 1_565 S
O27 C8 1.247 . S
C28 O25 1.244 . S
C28 O26 1.264 . S
H29 C3 0.931 . S
H30 C12 0.931 . S
H31 C16 0.929 . S
H32 C18 0.930 . S
Co33 N37 2.148 . S
Co33 N43 2.128 . S
Co33 N53 2.194 1_455 S
Co33 O58 2.351 1_455 S
Co33 O59 2.155 . S
Co33 O60 2.096 . S
C34 N37 1.301 . S
C34 N38 1.328 . S
C34 H39 0.930 1_455 S
C35 C36 1.333 . S
C35 N37 1.317 . S
C35 H40 0.930 . S
C36 C35 1.333 . S
C36 N38 1.350 . S
C36 H62 0.931 . S
N37 Co33 2.148 . S
N37 C34 1.301 . S
N37 C35 1.317 . S
N38 C34 1.328 . S
N38 C36 1.350 . S
H39 C34 0.930 1_655 S
H40 C35 0.930 . S
C41 O42 1.224 . S
C41 O60 1.247 . S
O42 C41 1.224 . S
N43 Co33 2.128 . S
N43 C44 1.355 1_455 S
N43 C46 1.311 . S
C44 N43 1.355 1_655 S
C44 C45 1.363 . S
C44 H56 0.929 . S
C45 C44 1.363 . S
C45 N47 1.375 1_655 S
C45 H63 0.931 . S
C46 N43 1.311 . S
C46 N47 1.347 . S
C46 H57 0.929 . S
N47 C45 1.375 1_455 S
N47 C46 1.347 . S
C48 C51 1.365 . S
C48 N53 1.328 . S
C48 H54 0.929 . S
C49 C50 1.362 . S
C49 C52 1.378 . S
C49 H64 0.929 . S
C50 C49 1.362 . S
C50 C51 1.366 . S
C51 C48 1.365 . S
C51 C50 1.366 . S
C51 H65 0.930 . S
C52 C49 1.378 . S
C52 N53 1.315 . S
C52 H55 0.930 . S
N53 Co33 2.194 1_655 S
N53 C48 1.328 . S
N53 C52 1.315 . S
H54 C48 0.929 . S
H55 C52 0.930 . S
H56 C44 0.929 . S
H57 C46 0.929 . S
O58 Co33 2.351 1_655 S
O58 C61 1.244 1_655 S
O59 Co33 2.155 . S
O59 C61 1.240 . S
O60 Co33 2.096 . S
O60 C41 1.247 . S
C61 O58 1.244 1_455 S
C61 O59 1.240 . S
H62 C36 0.931 . S
H63 C45 0.931 . S
H64 C49 0.929 . S
H65 C51 0.930 . S
Co66 N70 2.148 . S
Co66 N76 2.128 . S
Co66 N86 2.194 1_545 S
Co66 O91 2.351 1_545 S
Co66 O92 2.155 . S
Co66 O93 2.096 . S
C67 N70 1.301 . S
C67 N71 1.328 . S
C67 H72 0.930 1_545 S
C68 C69 1.333 . S
C68 N70 1.317 . S
C68 H73 0.930 . S
C69 C68 1.333 . S
C69 N71 1.350 . S
C69 H95 0.931 . S
N70 Co66 2.148 . S
N70 C67 1.301 . S
N70 C68 1.317 . S
N71 C67 1.328 . S
N71 C69 1.350 . S
H72 C67 0.930 1_565 S
H73 C68 0.930 . S
C74 O75 1.224 . S
C74 O93 1.247 . S
O75 C74 1.224 . S
N76 Co66 2.128 . S
N76 C77 1.355 1_545 S
N76 C79 1.311 . S
C77 N76 1.355 1_565 S
C77 C78 1.363 . S
C77 H89 0.929 . S
C78 C77 1.363 . S
C78 N80 1.375 1_565 S
C78 H96 0.931 . S
C79 N76 1.311 . S
C79 N80 1.347 . S
C79 H90 0.929 . S
N80 C78 1.375 1_545 S
N80 C79 1.347 . S
C81 C84 1.365 . S
C81 N86 1.328 . S
C81 H87 0.929 . S
C82 C83 1.362 . S
C82 C85 1.378 . S
C82 H97 0.929 . S
C83 C82 1.362 . S
C83 C84 1.366 . S
C84 C81 1.365 . S
C84 C83 1.366 . S
C84 H98 0.930 . S
C85 C82 1.378 . S
C85 N86 1.315 . S
C85 H88 0.930 . S
N86 Co66 2.194 1_565 S
N86 C81 1.328 . S
N86 C85 1.315 . S
H87 C81 0.929 . S
H88 C85 0.930 . S
H89 C77 0.929 . S
H90 C79 0.929 . S
O91 Co66 2.351 1_565 S
O91 C94 1.244 1_565 S
O92 Co66 2.155 . S
O92 C94 1.240 . S
O93 Co66 2.096 . S
O93 C74 1.247 . S
C94 O91 1.244 1_545 S
C94 O92 1.240 . S
H95 C69 0.931 . S
H96 C78 0.931 . S
H97 C82 0.929 . S
H98 C84 0.930 . S
Co99 N103 2.148 . S
Co99 N109 2.128 . S
Co99 N119 2.194 . S
Co99 O124 2.351 . S
Co99 O125 2.155 . S
Co99 O126 2.096 1_455 S
C100 N103 1.301 . S
C100 N104 1.328 . S
C100 H105 0.930 . S
C101 C102 1.333 . S
C101 N103 1.317 1_655 S
C101 H106 0.930 . S
C102 C101 1.333 . S
C102 N104 1.350 1_655 S
C102 H128 0.931 . S
N103 Co99 2.148 . S
N103 C100 1.301 . S
N103 C101 1.317 1_455 S
N104 C100 1.328 . S
N104 C102 1.350 1_455 S
H105 C100 0.930 . S
H106 C101 0.930 . S
C107 O108 1.224 . S
C107 O126 1.247 . S
O108 C107 1.224 . S
N109 Co99 2.128 . S
N109 C110 1.355 . S
N109 C112 1.311 . S
C110 N109 1.355 . S
C110 C111 1.363 . S
C110 H122 0.929 . S
C111 C110 1.363 . S
C111 N113 1.375 . S
C111 H129 0.931 . S
C112 N109 1.311 . S
C112 N113 1.347 . S
C112 H123 0.929 1_455 S
N113 C111 1.375 . S
N113 C112 1.347 . S
C114 C117 1.365 . S
C114 N119 1.328 . S
C114 H120 0.929 . S
C115 C116 1.362 . S
C115 C118 1.378 . S
C115 H130 0.929 . S
C116 C115 1.362 . S
C116 C117 1.366 . S
C117 C114 1.365 . S
C117 C116 1.366 . S
C117 H131 0.930 . S
C118 C115 1.378 . S
C118 N119 1.315 . S
C118 H121 0.930 . S
N119 Co99 2.194 . S
N119 C114 1.328 . S
N119 C118 1.315 . S
H120 C114 0.929 . S
H121 C118 0.930 . S
H122 C110 0.929 . S
H123 C112 0.929 1_655 S
O124 Co99 2.351 . S
O124 C127 1.244 . S
O125 Co99 2.155 . S
O125 C127 1.240 . S
O126 Co99 2.096 1_655 S
O126 C107 1.247 . S
C127 O124 1.244 . S
C127 O125 1.240 . S
H128 C102 0.931 . S
H129 C111 0.931 . S
H130 C115 0.929 . S
H131 C117 0.930 . S
Co132 N136 2.148 . S
Co132 N142 2.128 . S
Co132 N152 2.194 1_545 S
Co132 O157 2.351 1_545 S
Co132 O158 2.155 . S
Co132 O159 2.096 . S
C133 N136 1.301 . S
C133 N137 1.328 . S
C133 H138 0.930 1_545 S
C134 C135 1.333 . S
C134 N136 1.317 . S
C134 H139 0.930 . S
C135 C134 1.333 . S
C135 N137 1.350 . S
C135 H161 0.931 . S
N136 Co132 2.148 . S
N136 C133 1.301 . S
N136 C134 1.317 . S
N137 C133 1.328 . S
N137 C135 1.350 . S
H138 C133 0.930 1_565 S
H139 C134 0.930 . S
C140 O141 1.224 . S
C140 O159 1.247 . S
O141 C140 1.224 . S
N142 Co132 2.128 . S
N142 C143 1.355 1_545 S
N142 C145 1.311 . S
C143 N142 1.355 1_565 S
C143 C144 1.363 . S
C143 H155 0.929 . S
C144 C143 1.363 . S
C144 N146 1.375 1_565 S
C144 H162 0.931 . S
C145 N142 1.311 . S
C145 N146 1.347 . S
C145 H156 0.929 . S
N146 C144 1.375 1_545 S
N146 C145 1.347 . S
C147 C150 1.365 . S
C147 N152 1.328 . S
C147 H153 0.929 . S
C148 C149 1.362 . S
C148 C151 1.378 . S
C148 H163 0.929 . S
C149 C148 1.362 . S
C149 C150 1.366 . S
C150 C147 1.365 . S
C150 C149 1.366 . S
C150 H164 0.930 . S
C151 C148 1.378 . S
C151 N152 1.315 . S
C151 H154 0.930 . S
N152 Co132 2.194 1_565 S
N152 C147 1.328 . S
N152 C151 1.315 . S
H153 C147 0.929 . S
H154 C151 0.930 . S
H155 C143 0.929 . S
H156 C145 0.929 . S
O157 Co132 2.351 1_565 S
O157 C160 1.244 1_565 S
O158 Co132 2.155 . S
O158 C160 1.240 . S
O159 Co132 2.096 . S
O159 C140 1.247 . S
C160 O157 1.244 1_545 S
C160 O158 1.240 . S
H161 C135 0.931 . S
H162 C144 0.931 . S
H163 C148 0.929 . S
H164 C150 0.930 . S
Co165 N169 2.148 . S
Co165 N175 2.128 . S
Co165 N185 2.194 . S
Co165 O190 2.351 . S
Co165 O191 2.165 . S
Co165 O192 2.096 1_455 S
C166 N169 1.301 . S
C166 N170 1.328 . S
C166 H171 0.930 . S
C167 C168 1.333 . S
C167 N169 1.317 1_655 S
C167 H172 0.930 . S
C168 C167 1.333 . S
C168 N170 1.350 1_655 S
C168 H194 0.931 . S
N169 Co165 2.148 . S
N169 C166 1.301 . S
N169 C167 1.317 1_455 S
N170 C166 1.328 . S
N170 C168 1.350 1_455 S
H171 C166 0.930 . S
H172 C167 0.930 . S
C173 O174 1.224 . S
C173 O192 1.247 . S
O174 C173 1.224 . S
N175 Co165 2.128 . S
N175 C176 1.355 . S
N175 C178 1.311 . S
C176 N175 1.355 . S
C176 C177 1.363 . S
C176 H188 0.929 . S
C177 C176 1.363 . S
C177 N179 1.375 . S
C177 H195 0.931 . S
C178 N175 1.311 . S
C178 N179 1.347 . S
C178 H189 0.929 1_455 S
N179 C177 1.375 . S
N179 C178 1.347 . S
C180 C183 1.365 . S
C180 N185 1.328 . S
C180 H186 0.929 . S
C181 C182 1.362 . S
C181 C184 1.378 . S
C181 H196 0.929 . S
C182 C181 1.362 . S
C182 C183 1.366 . S
C183 C180 1.365 . S
C183 C182 1.366 . S
C183 H197 0.930 . S
C184 C181 1.378 . S
C184 N185 1.315 . S
C184 H187 0.930 . S
N185 Co165 2.194 . S
N185 C180 1.328 . S
N185 C184 1.315 . S
H186 C180 0.929 . S
H187 C184 0.930 . S
H188 C176 0.929 . S
H189 C178 0.929 1_655 S
O190 Co165 2.351 . S
O190 C193 1.244 . S
O191 Co165 2.165 . S
O191 C193 1.264 . S
O192 Co165 2.096 1_655 S
O192 C173 1.247 . S
C193 O190 1.244 . S
C193 O191 1.264 . S
H194 C168 0.931 . S
H195 C177 0.931 . S
H196 C181 0.929 . S
H197 C183 0.930 . S
Co198 N202 2.148 . S
Co198 N208 2.128 . S
Co198 N218 2.194 . S
Co198 O223 2.351 . S
Co198 O224 2.155 . S
Co198 O225 2.096 1_545 S
C199 N202 1.301 . S
C199 N203 1.328 . S
C199 H204 0.930 . S
C200 C201 1.333 . S
C200 N202 1.317 1_565 S
C200 H205 0.930 . S
C201 C200 1.333 . S
C201 N203 1.350 1_565 S
C201 H227 0.931 . S
N202 Co198 2.148 . S
N202 C199 1.301 . S
N202 C200 1.317 1_545 S
N203 C199 1.328 . S
N203 C201 1.350 1_545 S
H204 C199 0.930 . S
H205 C200 0.930 . S
C206 O207 1.224 . S
C206 O225 1.247 . S
O207 C206 1.224 . S
N208 Co198 2.128 . S
N208 C209 1.355 . S
N208 C211 1.311 . S
C209 N208 1.355 . S
C209 C210 1.363 . S
C209 H221 0.929 . S
C210 C209 1.363 . S
C210 N212 1.375 . S
C210 H228 0.931 . S
C211 N208 1.311 . S
C211 N212 1.347 . S
C211 H222 0.929 1_545 S
N212 C210 1.375 . S
N212 C211 1.347 . S
C213 C216 1.365 . S
C213 N218 1.328 . S
C213 H219 0.929 . S
C214 C215 1.362 . S
C214 C217 1.378 . S
C214 H229 0.929 . S
C215 C214 1.362 . S
C215 C216 1.366 . S
C216 C213 1.365 . S
C216 C215 1.366 . S
C216 H230 0.930 . S
C217 C214 1.378 . S
C217 N218 1.315 . S
C217 H220 0.930 . S
N218 Co198 2.194 . S
N218 C213 1.328 . S
N218 C217 1.315 . S
H219 C213 0.929 . S
H220 C217 0.930 . S
H221 C209 0.929 . S
H222 C211 0.929 1_565 S
O223 Co198 2.351 . S
O223 C226 1.244 . S
O224 Co198 2.155 . S
O224 C226 1.240 . S
O225 Co198 2.096 1_565 S
O225 C206 1.247 . S
C226 O223 1.244 . S
C226 O224 1.240 . S
H227 C201 0.931 . S
H228 C210 0.931 . S
H229 C214 0.929 . S
H230 C216 0.930 . S
Co231 N235 2.148 . S
Co231 N241 2.128 . S
Co231 N251 2.194 1_455 S
Co231 O256 2.351 1_455 S
Co231 O257 2.155 . S
Co231 O258 2.096 . S
C232 N235 1.301 . S
C232 N236 1.328 . S
C232 H237 0.930 1_455 S
C233 C234 1.333 . S
C233 N235 1.317 . S
C233 H238 0.930 . S
C234 C233 1.333 . S
C234 N236 1.350 . S
C234 H260 0.931 . S
N235 Co231 2.148 . S
N235 C232 1.301 . S
N235 C233 1.317 . S
N236 C232 1.328 . S
N236 C234 1.350 . S
H237 C232 0.930 1_655 S
H238 C233 0.930 . S
C239 O240 1.224 . S
C239 O258 1.247 . S
O240 C239 1.224 . S
N241 Co231 2.128 . S
N241 C242 1.355 1_455 S
N241 C244 1.311 . S
C242 N241 1.355 1_655 S
C242 C243 1.363 . S
C242 H254 0.929 . S
C243 C242 1.363 . S
C243 N245 1.375 1_655 S
C243 H261 0.931 . S
C244 N241 1.311 . S
C244 N245 1.347 . S
C244 H255 0.929 . S
N245 C243 1.375 1_455 S
N245 C244 1.347 . S
C246 C249 1.365 . S
C246 N251 1.328 . S
C246 H252 0.929 . S
C247 C248 1.362 . S
C247 C250 1.378 . S
C247 H262 0.929 . S
C248 C247 1.362 . S
C248 C249 1.366 . S
C249 C246 1.365 . S
C249 C248 1.366 . S
C249 H263 0.930 . S
C250 C247 1.378 . S
C250 N251 1.315 . S
C250 H253 0.930 . S
N251 Co231 2.194 1_655 S
N251 C246 1.328 . S
N251 C250 1.315 . S
H252 C246 0.929 . S
H253 C250 0.930 . S
H254 C242 0.929 . S
H255 C244 0.929 . S
O256 Co231 2.351 1_655 S
O256 C259 1.244 1_655 S
O257 Co231 2.155 . S
O257 C259 1.240 . S
O258 Co231 2.096 . S
O258 C239 1.247 . S
C259 O256 1.244 1_455 S
C259 O257 1.240 . S
H260 C234 0.931 . S
H261 C243 0.931 . S
H262 C247 0.929 . S
H263 C249 0.930 . S
H264 C272 0.950 . S
H265 C277 0.950 . S
H266 C274 0.950 . S
H267 C276 0.950 . S
H268 C278 0.950 . S
H269 C280 0.950 . S
H270 C282 0.950 . S
H271 C283 0.950 . S
C272 H264 0.950 . S
C272 C273 1.386 1_565 S
C272 C274 1.391 . S
C273 C272 1.386 1_545 S
C273 C277 1.393 . S
C274 H266 0.950 . S
C274 C272 1.391 . S
C274 C275 1.400 1_565 S
C275 C274 1.400 1_545 S
C275 C276 1.398 . S
C275 C281 1.491 1_554 S
C276 H267 0.950 . S
C276 C275 1.398 . S
C276 C277 1.391 . S
C277 H265 0.950 . S
C277 C273 1.393 . S
C277 C276 1.391 . S
C278 H268 0.950 . S
C278 C279 1.386 . S
C278 C280 1.391 . S
C279 C278 1.386 . S
C279 C283 1.393 1_545 S
C280 H269 0.950 . S
C280 C278 1.391 . S
C280 C281 1.400 . S
C281 C275 1.491 1_556 S
C281 C280 1.400 . S
C281 C282 1.398 1_545 S
C282 H270 0.950 . S
C282 C281 1.398 1_565 S
C282 C283 1.391 . S
C283 H271 0.950 . S
C283 C279 1.393 1_565 S
C283 C282 1.391 . S
H284 C292 0.950 . S
H285 C297 0.950 1_655 S
H286 C294 0.950 . S
H287 C296 0.950 1_655 S
H288 C298 0.950 . S
H289 C300 0.950 . S
H290 C302 0.950 . S
H291 C303 0.950 . S
C292 H284 0.950 . S
C292 C293 1.386 . S
C292 C294 1.391 . S
C293 C292 1.386 . S
C293 C297 1.393 . S
C294 H286 0.950 . S
C294 C292 1.391 . S
C294 C295 1.400 . S
C295 C294 1.400 . S
C295 C296 1.398 . S
C295 C301 1.491 . S
C296 H287 0.950 1_455 S
C296 C295 1.398 . S
C296 C297 1.391 . S
C297 H285 0.950 1_455 S
C297 C293 1.393 . S
C297 C296 1.391 . S
C298 H288 0.950 . S
C298 C299 1.386 1_655 S
C298 C300 1.391 . S
C299 C298 1.386 1_455 S
C299 C303 1.393 . S
C300 H289 0.950 . S
C300 C298 1.391 . S
C300 C301 1.400 1_655 S
C301 C295 1.491 . S
C301 C300 1.400 1_455 S
C301 C302 1.398 . S
C302 H290 0.950 . S
C302 C301 1.398 . S
C302 C303 1.391 . S
C303 H291 0.950 . S
C303 C299 1.393 . S
C303 C302 1.391 . S
H304 C312 0.950 . S
H305 C317 0.950 . S
H306 C314 0.950 . S
H307 C316 0.959 . S
H308 C318 0.950 1_565 S
H309 C320 0.950 1_565 S
H310 C322 0.950 . S
H311 C323 0.950 . S
C312 H304 0.950 . S
C312 C313 1.386 . S
C312 C314 1.391 . S
C313 C312 1.386 . S
C313 C317 1.393 1_545 S
C314 H306 0.950 . S
C314 C312 1.391 . S
C314 C315 1.400 . S
C315 C314 1.400 . S
C315 C316 1.389 1_545 S
C315 C321 1.491 1_554 S
C316 H307 0.959 . S
C316 C315 1.389 1_565 S
C316 C317 1.392 . S
C317 H305 0.950 . S
C317 C313 1.393 1_565 S
C317 C316 1.392 . S
C318 H308 0.950 1_545 S
C318 C319 1.386 . S
C318 C320 1.391 . S
C319 C318 1.386 . S
C319 C323 1.393 . S
C320 H309 0.950 1_545 S
C320 C318 1.391 . S
C320 C321 1.400 . S
C321 C315 1.491 1_556 S
C321 C320 1.400 . S
C321 C322 1.398 . S
C322 H310 0.950 . S
C322 C321 1.398 . S
C322 C323 1.391 . S
C323 H311 0.950 . S
C323 C319 1.393 . S
C323 C322 1.391 . S
H324 C332 0.949 1_655 S
H325 C337 0.950 . S
H326 C334 0.950 . S
H327 C336 0.950 . S
H328 C338 0.950 . S
H329 C340 0.950 . S
H330 C342 0.950 . S
H331 C343 0.950 . S
C332 H324 0.949 1_455 S
C332 C333 1.386 . S
C332 C334 1.391 . S
C333 C332 1.386 . S
C333 C337 1.393 . S
C334 H326 0.950 . S
C334 C332 1.391 . S
C334 C335 1.400 . S
C335 C334 1.400 . S
C335 C336 1.398 . S
C335 C341 1.491 . S
C336 H327 0.950 . S
C336 C335 1.398 . S
C336 C337 1.391 . S
C337 H325 0.950 . S
C337 C333 1.393 . S
C337 C336 1.391 . S
C338 H328 0.950 . S
C338 C339 1.386 . S
C338 C340 1.391 . S
C339 C338 1.386 . S
C339 C343 1.393 . S
C340 H329 0.950 . S
C340 C338 1.391 . S
C340 C341 1.400 . S
C341 C335 1.491 . S
C341 C340 1.400 . S
C341 C342 1.398 . S
C342 H330 0.950 . S
C342 C341 1.398 . S
C342 C343 1.391 . S
C343 H331 0.950 . S
C343 C339 1.393 . S
C343 C342 1.391 . S
H344 C352 0.950 . S
H345 C357 0.950 . S
H346 C354 0.950 . S
H347 C356 0.950 . S
H348 C358 0.950 . S
H349 C360 0.950 . S
H350 C362 0.950 . S
H351 C363 0.950 . S
C352 H344 0.950 . S
C352 C353 1.386 . S
C352 C354 1.391 . S
C353 C352 1.386 . S
C353 C357 1.393 . S
C354 H346 0.950 . S
C354 C352 1.391 . S
C354 C355 1.400 . S
C355 C354 1.400 . S
C355 C356 1.398 . S
C355 C361 1.491 . S
C356 H347 0.950 . S
C356 C355 1.398 . S
C356 C357 1.391 . S
C357 H345 0.950 . S
C357 C353 1.393 . S
C357 C356 1.391 . S
C358 H348 0.950 . S
C358 C359 1.386 . S
C358 C360 1.391 . S
C359 C358 1.386 . S
C359 C363 1.393 . S
C360 H349 0.950 . S
C360 C358 1.391 . S
C360 C361 1.400 . S
C361 C355 1.491 . S
C361 C360 1.400 . S
C361 C362 1.398 . S
C362 H350 0.950 . S
C362 C361 1.398 . S
C362 C363 1.391 . S
C363 H351 0.950 . S
C363 C359 1.393 . S
C363 C362 1.391 . S
H364 C372 0.950 . S
H365 C377 0.950 . S
H366 C374 0.950 . S
H367 C376 0.950 . S
H368 C378 0.950 . S
H369 C380 0.950 . S
H370 C382 0.950 . S
H371 C383 0.950 . S
C372 H364 0.950 . S
C372 C373 1.386 . S
C372 C374 1.391 . S
C373 C372 1.386 . S
C373 C377 1.393 . S
C374 H366 0.950 . S
C374 C372 1.391 . S
C374 C375 1.400 . S
C375 C374 1.400 . S
C375 C376 1.398 . S
C375 C381 1.491 . S
C376 H367 0.950 . S
C376 C375 1.398 . S
C376 C377 1.391 . S
C377 H365 0.950 . S
C377 C373 1.393 . S
C377 C376 1.391 . S
C378 H368 0.950 . S
C378 C379 1.386 . S
C378 C380 1.391 . S
C379 C378 1.386 . S
C379 C383 1.393 . S
C380 H369 0.950 . S
C380 C378 1.391 . S
C380 C381 1.400 . S
C381 C375 1.491 . S
C381 C380 1.400 . S
C381 C382 1.398 . S
C382 H370 0.950 . S
C382 C381 1.398 . S
C382 C383 1.391 . S
C383 H371 0.950 . S
C383 C379 1.393 . S
C383 C382 1.391 . S
H384 C392 0.950 . S
H385 C397 0.950 . S
H386 C394 0.950 . S
H387 C396 0.950 . S
H388 C398 0.950 . S
H389 C400 0.950 . S
H390 C402 0.950 . S
H391 C403 0.950 . S
C392 H384 0.950 . S
C392 C393 1.386 . S
C392 C394 1.391 . S
C393 C392 1.386 . S
C393 C397 1.393 . S
C394 H386 0.950 . S
C394 C392 1.391 . S
C394 C395 1.400 . S
C395 C394 1.400 . S
C395 C396 1.398 . S
C395 C401 1.491 . S
C396 H387 0.950 . S
C396 C395 1.398 . S
C396 C397 1.391 . S
C397 H385 0.950 . S
C397 C393 1.393 . S
C397 C396 1.391 . S
C398 H388 0.950 . S
C398 C399 1.386 . S
C398 C400 1.391 . S
C399 C398 1.386 . S
C399 C403 1.393 . S
C400 H389 0.950 . S
C400 C398 1.391 . S
C400 C401 1.400 . S
C401 C395 1.491 . S
C401 C400 1.400 . S
C401 C402 1.398 . S
C402 H390 0.950 . S
C402 C401 1.398 . S
C402 C403 1.391 . S
C403 H391 0.950 . S
C403 C399 1.393 . S
C403 C402 1.391 . S
H404 C412 0.950 . S
H405 C417 0.950 . S
H406 C414 0.950 . S
H407 C416 0.950 . S
H408 C418 0.950 . S
H409 C420 0.950 . S
H410 C422 0.950 . S
H411 C423 0.950 . S
C412 H404 0.950 . S
C412 C413 1.386 . S
C412 C414 1.391 . S
C413 C412 1.386 . S
C413 C417 1.393 . S
C414 H406 0.950 . S
C414 C412 1.391 . S
C414 C415 1.400 . S
C415 C414 1.400 . S
C415 C416 1.398 . S
C415 C421 1.491 . S
C416 H407 0.950 . S
C416 C415 1.398 . S
C416 C417 1.391 . S
C417 H405 0.950 . S
C417 C413 1.393 . S
C417 C416 1.391 . S
C418 H408 0.950 . S
C418 C419 1.386 . S
C418 C420 1.391 . S
C419 C418 1.386 . S
C419 C423 1.393 . S
C420 H409 0.950 . S
C420 C418 1.391 . S
C420 C421 1.400 . S
C421 C415 1.491 . S
C421 C420 1.400 . S
C421 C422 1.398 . S
C422 H410 0.950 . S
C422 C421 1.398 . S
C422 C423 1.391 . S
C423 H411 0.950 . S
C423 C419 1.393 . S
C423 C422 1.391 . S
H424 C432 0.950 . S
H425 C437 0.950 . S
H426 C434 0.950 . S
H427 C436 0.950 . S
H428 C438 0.950 . S
H429 C440 0.950 . S
H430 C442 0.950 . S
H431 C443 0.950 . S
C432 H424 0.950 . S
C432 C433 1.386 . S
C432 C434 1.391 . S
C433 C432 1.386 . S
C433 C437 1.393 . S
C434 H426 0.950 . S
C434 C432 1.391 . S
C434 C435 1.400 . S
C435 C434 1.400 . S
C435 C436 1.398 . S
C435 C441 1.491 . S
C436 H427 0.950 . S
C436 C435 1.398 . S
C436 C437 1.391 . S
C437 H425 0.950 . S
C437 C433 1.393 . S
C437 C436 1.391 . S
C438 H428 0.950 . S
C438 C439 1.386 . S
C438 C440 1.391 . S
C439 C438 1.386 . S
C439 C443 1.393 . S
C440 H429 0.950 . S
C440 C438 1.391 . S
C440 C441 1.400 . S
C441 C435 1.491 . S
C441 C440 1.400 . S
C441 C442 1.398 . S
C442 H430 0.950 . S
C442 C441 1.398 . S
C442 C443 1.391 . S
C443 H431 0.950 . S
C443 C439 1.393 . S
C443 C442 1.391 . S
H444 C452 0.950 . S
H445 C457 0.950 . S
H446 C454 0.950 . S
H447 C456 0.950 . S
H448 C458 0.950 . S
H449 C460 0.950 . S
H450 C462 0.950 . S
H451 C463 0.950 . S
C452 H444 0.950 . S
C452 C453 1.386 . S
C452 C454 1.391 . S
C453 C452 1.386 . S
C453 C457 1.393 . S
C454 H446 0.950 . S
C454 C452 1.391 . S
C454 C455 1.400 . S
C455 C454 1.400 . S
C455 C456 1.398 . S
C455 C461 1.491 . S
C456 H447 0.950 . S
C456 C455 1.398 . S
C456 C457 1.391 . S
C457 H445 0.950 . S
C457 C453 1.393 . S
C457 C456 1.391 . S
C458 H448 0.950 . S
C458 C459 1.386 . S
C458 C460 1.391 . S
C459 C458 1.386 . S
C459 C463 1.393 . S
C460 H449 0.950 . S
C460 C458 1.391 . S
C460 C461 1.400 . S
C461 C455 1.491 . S
C461 C460 1.400 . S
C461 C462 1.398 . S
C462 H450 0.950 . S
C462 C461 1.398 . S
C462 C463 1.391 . S
C463 H451 0.950 . S
C463 C459 1.393 . S
C463 C462 1.391 . S
H464 C472 0.950 . S
H465 C477 0.950 . S
H466 C474 0.950 . S
H467 C476 0.950 . S
H468 C478 0.950 . S
H469 C480 0.950 . S
H470 C482 0.950 . S
H471 C483 0.950 . S
C472 H464 0.950 . S
C472 C473 1.386 . S
C472 C474 1.391 . S
C473 C472 1.386 . S
C473 C477 1.393 . S
C474 H466 0.950 . S
C474 C472 1.391 . S
C474 C475 1.400 . S
C475 C474 1.400 . S
C475 C476 1.398 . S
C475 C481 1.491 . S
C476 H467 0.950 . S
C476 C475 1.398 . S
C476 C477 1.391 . S
C477 H465 0.950 . S
C477 C473 1.393 . S
C477 C476 1.391 . S
C478 H468 0.950 . S
C478 C479 1.386 . S
C478 C480 1.391 . S
C479 C478 1.386 . S
C479 C483 1.393 . S
C480 H469 0.950 . S
C480 C478 1.391 . S
C480 C481 1.400 . S
C481 C475 1.491 . S
C481 C480 1.400 . S
C481 C482 1.398 . S
C482 H470 0.950 . S
C482 C481 1.398 . S
C482 C483 1.391 . S
C483 H471 0.950 . S
C483 C479 1.393 . S
C483 C482 1.391 . S
H484 C492 0.950 . S
H485 C497 0.950 . S
H486 C494 0.950 . S
H487 C496 0.950 . S
H488 C498 0.950 . S
H489 C500 0.950 . S
H490 C502 0.950 . S
H491 C503 0.950 . S
C492 H484 0.950 . S
C492 C493 1.386 . S
C492 C494 1.391 . S
C493 C492 1.386 . S
C493 C497 1.393 . S
C494 H486 0.950 . S
C494 C492 1.391 . S
C494 C495 1.400 . S
C495 C494 1.400 . S
C495 C496 1.398 . S
C495 C501 1.491 . S
C496 H487 0.950 . S
C496 C495 1.398 . S
C496 C497 1.391 . S
C497 H485 0.950 . S
C497 C493 1.393 . S
C497 C496 1.391 . S
C498 H488 0.950 . S
C498 C499 1.386 . S
C498 C500 1.391 . S
C499 C498 1.386 . S
C499 C503 1.393 . S
C500 H489 0.950 . S
C500 C498 1.391 . S
C500 C501 1.400 . S
C501 C495 1.491 . S
C501 C500 1.400 . S
C501 C502 1.398 . S
C502 H490 0.950 . S
C502 C501 1.398 . S
C502 C503 1.391 . S
C503 H491 0.950 . S
C503 C499 1.393 . S
C503 C502 1.391 . S
H504 C512 0.950 . S
H505 C517 0.950 . S
H506 C514 0.956 . S
H507 C516 0.950 . S
H508 C518 0.950 . S
H509 C520 0.950 . S
H510 C522 0.950 . S
H511 C523 0.950 1_565 S
C512 H504 0.950 . S
C512 C513 1.386 1_565 S
C512 C514 1.392 . S
C513 C512 1.386 1_545 S
C513 C517 1.393 . S
C514 H506 0.956 . S
C514 C512 1.392 . S
C514 C515 1.394 1_565 S
C515 C514 1.394 1_545 S
C515 C516 1.398 . S
C515 C521 1.491 . S
C516 H507 0.950 . S
C516 C515 1.398 . S
C516 C517 1.391 . S
C517 H505 0.950 . S
C517 C513 1.393 . S
C517 C516 1.391 . S
C518 H508 0.950 . S
C518 C519 1.386 . S
C518 C520 1.391 . S
C519 C518 1.386 . S
C519 C523 1.393 . S
C520 H509 0.950 . S
C520 C518 1.391 . S
C520 C521 1.400 1_655 S
C521 C515 1.491 . S
C521 C520 1.400 1_455 S
C521 C522 1.399 1_445 S
C522 H510 0.950 . S
C522 C521 1.399 1_665 S
C522 C523 1.391 1_565 S
C523 H511 0.950 1_545 S
C523 C519 1.393 . S
C523 C522 1.391 1_545 S
H524 C532 0.950 . S
H525 C537 0.940 1_655 S
H526 C534 0.950 . S
H527 C536 0.955 . S
H528 C538 0.950 . S
H529 C540 0.950 . S
H530 C542 0.950 . S
H531 C543 0.950 . S
C532 H524 0.950 . S
C532 C533 1.386 . S
C532 C534 1.391 . S
C533 C532 1.386 . S
C533 C537 1.403 . S
C534 H526 0.950 . S
C534 C532 1.391 . S
C534 C535 1.400 . S
C535 C534 1.400 . S
C535 C536 1.393 1_455 S
C535 C541 1.491 . S
C536 H527 0.955 . S
C536 C535 1.393 1_655 S
C536 C537 1.390 1_655 S
C537 H525 0.940 1_455 S
C537 C533 1.403 . S
C537 C536 1.390 1_455 S
C538 H528 0.950 . S
C538 C539 1.386 1_655 S
C538 C540 1.391 . S
C539 C538 1.386 1_455 S
C539 C543 1.393 . S
C540 H529 0.950 . S
C540 C538 1.391 . S
C540 C541 1.400 1_665 S
C541 C535 1.491 . S
C541 C540 1.400 1_445 S
C541 C542 1.398 1_545 S
C542 H530 0.950 . S
C542 C541 1.398 1_565 S
C542 C543 1.391 . S
C543 H531 0.950 . S
C543 C539 1.393 . S
C543 C542 1.391 . S
H544 C552 0.950 . S
H545 C557 0.950 . S
H546 C554 0.950 . S
H547 C556 0.950 . S
H548 C558 0.950 . S
H549 C560 0.950 . S
H550 C562 0.950 . S
H551 C563 0.950 . S
C552 H544 0.950 . S
C552 C553 1.386 . S
C552 C554 1.391 . S
C553 C552 1.386 . S
C553 C557 1.393 1_545 S
C554 H546 0.950 . S
C554 C552 1.391 . S
C554 C555 1.400 1_655 S
C555 C554 1.400 1_455 S
C555 C556 1.398 1_445 S
C555 C561 1.491 . S
C556 H547 0.950 . S
C556 C555 1.398 1_665 S
C556 C557 1.391 . S
C557 H545 0.950 . S
C557 C553 1.393 1_565 S
C557 C556 1.391 . S
C558 H548 0.950 . S
C558 C559 1.386 1_565 S
C558 C560 1.391 . S
C559 C558 1.386 1_545 S
C559 C563 1.393 . S
C560 H549 0.950 . S
C560 C558 1.391 . S
C560 C561 1.400 1_565 S
C561 C555 1.491 . S
C561 C560 1.400 1_545 S
C561 C562 1.398 . S
C562 H550 0.950 . S
C562 C561 1.398 . S
C562 C563 1.391 . S
C563 H551 0.950 . S
C563 C559 1.393 . S
C563 C562 1.391 . S
H564 C572 0.950 . S
H565 C577 0.950 . S
H566 C574 0.950 . S
H567 C576 0.950 . S
H568 C578 0.950 . S
H569 C580 0.950 . S
H570 C582 0.950 . S
H571 C583 0.950 . S
C572 H564 0.950 . S
C572 C573 1.386 1_655 S
C572 C574 1.391 . S
C573 C572 1.386 1_455 S
C573 C577 1.393 . S
C574 H566 0.950 . S
C574 C572 1.391 . S
C574 C575 1.400 1_665 S
C575 C574 1.400 1_445 S
C575 C576 1.398 1_545 S
C575 C581 1.491 . S
C576 H567 0.950 . S
C576 C575 1.398 1_565 S
C576 C577 1.391 . S
C577 H565 0.950 . S
C577 C573 1.393 . S
C577 C576 1.391 . S
C578 H568 0.950 . S
C578 C579 1.386 . S
C578 C580 1.391 . S
C579 C578 1.386 . S
C579 C583 1.393 1_455 S
C580 H569 0.950 . S
C580 C578 1.391 . S
C580 C581 1.400 . S
C581 C575 1.491 . S
C581 C580 1.400 . S
C581 C582 1.398 1_455 S
C582 H570 0.950 . S
C582 C581 1.398 1_655 S
C582 C583 1.391 . S
C583 H571 0.950 . S
C583 C579 1.393 1_655 S
C583 C582 1.391 . S
H584 C592 0.950 . S
H585 C597 0.950 . S
H586 C594 0.950 . S
H587 C596 0.950 . S
H588 C598 0.950 . S
H589 C600 0.950 . S
H590 C602 0.950 . S
H591 C603 0.943 1_565 S
C592 H584 0.950 . S
C592 C593 1.386 . S
C592 C594 1.391 . S
C593 C592 1.386 . S
C593 C597 1.393 . S
C594 H586 0.950 . S
C594 C592 1.391 . S
C594 C595 1.400 . S
C595 C594 1.400 . S
C595 C596 1.398 . S
C595 C601 1.491 . S
C596 H587 0.950 . S
C596 C595 1.398 . S
C596 C597 1.391 . S
C597 H585 0.950 . S
C597 C593 1.393 . S
C597 C596 1.391 . S
C598 H588 0.950 . S
C598 C599 1.386 . S
C598 C600 1.391 . S
C599 C598 1.386 . S
C599 C603 1.393 . S
C600 H589 0.950 . S
C600 C598 1.391 . S
C600 C601 1.400 . S
C601 C595 1.491 . S
C601 C600 1.400 . S
C601 C602 1.398 . S
C602 H590 0.950 . S
C602 C601 1.398 . S
C602 C603 1.391 . S
C603 H591 0.943 1_545 S
C603 C599 1.393 . S
C603 C602 1.391 . S
H604 C612 0.950 . S
H605 C617 0.950 . S
H606 C614 0.950 . S
H607 C616 0.950 . S
H608 C618 0.950 . S
H609 C620 0.950 . S
H610 C622 0.950 . S
H611 C623 0.950 . S
C612 H604 0.950 . S
C612 C613 1.386 . S
C612 C614 1.391 . S
C613 C612 1.386 . S
C613 C617 1.393 . S
C614 H606 0.950 . S
C614 C612 1.391 . S
C614 C615 1.400 . S
C615 C614 1.400 . S
C615 C616 1.398 . S
C615 C621 1.491 . S
C616 H607 0.950 . S
C616 C615 1.398 . S
C616 C617 1.391 . S
C617 H605 0.950 . S
C617 C613 1.393 . S
C617 C616 1.391 . S
C618 H608 0.950 . S
C618 C619 1.386 . S
C618 C620 1.391 . S
C619 C618 1.386 . S
C619 C623 1.393 . S
C620 H609 0.950 . S
C620 C618 1.391 . S
C620 C621 1.400 . S
C621 C615 1.491 . S
C621 C620 1.400 . S
C621 C622 1.398 . S
C622 H610 0.950 . S
C622 C621 1.398 . S
C622 C623 1.391 . S
C623 H611 0.950 . S
C623 C619 1.393 . S
C623 C622 1.391 . S
H624 C632 0.950 . S
H625 C637 0.950 . S
H626 C634 0.950 . S
H627 C636 0.950 . S
H628 C638 0.950 . S
H629 C640 0.950 . S
H630 C642 0.950 . S
H631 C643 0.950 . S
C632 H624 0.950 . S
C632 C633 1.386 . S
C632 C634 1.391 . S
C633 C632 1.386 . S
C633 C637 1.393 1_545 S
C634 H626 0.950 . S
C634 C632 1.391 . S
C634 C635 1.400 . S
C635 C634 1.400 . S
C635 C636 1.398 1_545 S
C635 C641 1.491 . S
C636 H627 0.950 . S
C636 C635 1.398 1_565 S
C636 C637 1.391 . S
C637 H625 0.950 . S
C637 C633 1.393 1_565 S
C637 C636 1.391 . S
C638 H628 0.950 . S
C638 C639 1.386 1_565 S
C638 C640 1.391 . S
C639 C638 1.386 1_545 S
C639 C643 1.393 . S
C640 H629 0.950 . S
C640 C638 1.391 . S
C640 C641 1.400 1_565 S
C641 C635 1.491 . S
C641 C640 1.400 1_545 S
C641 C642 1.398 . S
C642 H630 0.950 . S
C642 C641 1.398 . S
C642 C643 1.391 . S
C643 H631 0.950 . S
C643 C639 1.393 . S
C643 C642 1.391 . S
H644 C652 0.950 . S
H645 C657 0.950 . S
H646 C654 0.950 . S
H647 C656 0.950 . S
H648 C658 0.950 . S
H649 C660 0.950 . S
H650 C662 0.950 . S
H651 C663 0.950 . S
C652 H644 0.950 . S
C652 C653 1.386 1_655 S
C652 C654 1.391 . S
C653 C652 1.386 1_455 S
C653 C657 1.393 . S
C654 H646 0.950 . S
C654 C652 1.391 . S
C654 C655 1.400 1_655 S
C655 C654 1.400 1_455 S
C655 C656 1.398 . S
C655 C661 1.491 . S
C656 H647 0.950 . S
C656 C655 1.398 . S
C656 C657 1.391 . S
C657 H645 0.950 . S
C657 C653 1.393 . S
C657 C656 1.391 . S
C658 H648 0.950 . S
C658 C659 1.386 . S
C658 C660 1.391 . S
C659 C658 1.386 . S
C659 C663 1.393 1_455 S
C660 H649 0.950 . S
C660 C658 1.391 . S
C660 C661 1.400 . S
C661 C655 1.491 . S
C661 C660 1.400 . S
C661 C662 1.398 1_455 S
C662 H650 0.950 . S
C662 C661 1.398 1_655 S
C662 C663 1.391 . S
C663 H651 0.950 . S
C663 C659 1.393 1_655 S
C663 C662 1.391 . S
C273 C28 1.661 . S
C279 C160 1.674 . S
C293 C193 1.675 . S
C299 C61 1.663 . S
C313 C94 1.667 . S
C319 C226 1.673 . S
C333 C259 1.673 . S
C339 C127 1.667 . S
C353 C182 0.368 . S
C359 C17 0.457 . S
C373 C215 0.431 . S
C379 C50 0.395 . S
C393 C83 0.433 . S
C399 C248 0.393 . S
C413 C149 0.452 . S
C419 C116 0.378 . S
C433 C107 1.310 . S
C439 C206 1.291 . S
C453 C8 1.287 . S
C459 C239 1.312 . S
C473 C41 1.305 . S
C479 C140 1.296 . S
C493 C74 1.303 . S
C499 C173 1.298 . S
C513 N14 0.681 . S
C519 N80 0.673 . S
C533 N47 0.711 . S
C539 N113 0.700 . S
C553 N212 0.688 . S
C559 N146 0.701 . S
C573 N245 0.689 . S
C579 N179 0.702 . S
C593 N5 1.033 . S
C599 N71 1.028 . S
C613 N104 1.032 . S
C619 N38 1.028 . S
C633 N137 1.049 . S
C639 N203 1.039 . S
C653 N170 1.041 . S
C659 N236 1.032 . S
