# Generated by pormake.
# Topology lll, (7)-cn, num edge types: 1
# Building blocks:
#     Node 0, Type 0, BuildingBlock: NUHQUE_clean_sbu_2, # of connection points: 7
#     Node 1, Type 0, BuildingBlock: NUHQUE_clean_sbu_2, # of connection points: 7
#     Node 2, Type 0, BuildingBlock: NUHQUE_clean_sbu_2, # of connection points: 7
#     Node 3, Type 0, BuildingBlock: NUHQUE_clean_sbu_2, # of connection points: 7
#     Node 4, Type 0, BuildingBlock: NUHQUE_clean_sbu_2, # of connection points: 7
#     Node 5, Type 0, BuildingBlock: NUHQUE_clean_sbu_2, # of connection points: 7
#     Node 6, Type 0, BuildingBlock: NUHQUE_clean_sbu_2, # of connection points: 7
#     Node 7, Type 0, BuildingBlock: NUHQUE_clean_sbu_2, # of connection points: 7
#     Node 8, Type 0, BuildingBlock: NUHQUE_clean_sbu_2, # of connection points: 7
#     Node 9, Type 0, BuildingBlock: NUHQUE_clean_sbu_2, # of connection points: 7
#     Node 10, Type 0, BuildingBlock: NUHQUE_clean_sbu_2, # of connection points: 7
#     Node 11, Type 0, BuildingBlock: NUHQUE_clean_sbu_2, # of connection points: 7
#     Node 12, Type 0, BuildingBlock: NUHQUE_clean_sbu_2, # of connection points: 7
#     Node 13, Type 0, BuildingBlock: NUHQUE_clean_sbu_2, # of connection points: 7
#     Node 14, Type 0, BuildingBlock: NUHQUE_clean_sbu_2, # of connection points: 7
#     Node 15, Type 0, BuildingBlock: NUHQUE_clean_sbu_2, # of connection points: 7
#     Edge 16, Type (0, 0), BuildingBlock: XUDNAN_clean_linker_2, # of connection points: 2
#     Edge 17, Type (0, 0), BuildingBlock: XUDNAN_clean_linker_2, # of connection points: 2
#     Edge 18, Type (0, 0), BuildingBlock: XUDNAN_clean_linker_2, # of connection points: 2
#     Edge 19, Type (0, 0), BuildingBlock: XUDNAN_clean_linker_2, # of connection points: 2
#     Edge 20, Type (0, 0), BuildingBlock: XUDNAN_clean_linker_2, # of connection points: 2
#     Edge 21, Type (0, 0), BuildingBlock: XUDNAN_clean_linker_2, # of connection points: 2
#     Edge 22, Type (0, 0), BuildingBlock: XUDNAN_clean_linker_2, # of connection points: 2
#     Edge 23, Type (0, 0), BuildingBlock: XUDNAN_clean_linker_2, # of connection points: 2
#     Edge 24, Type (0, 0), BuildingBlock: XUDNAN_clean_linker_2, # of connection points: 2
#     Edge 25, Type (0, 0), BuildingBlock: XUDNAN_clean_linker_2, # of connection points: 2
#     Edge 26, Type (0, 0), BuildingBlock: XUDNAN_clean_linker_2, # of connection points: 2
#     Edge 27, Type (0, 0), BuildingBlock: XUDNAN_clean_linker_2, # of connection points: 2
#     Edge 28, Type (0, 0), BuildingBlock: XUDNAN_clean_linker_2, # of connection points: 2
#     Edge 29, Type (0, 0), BuildingBlock: XUDNAN_clean_linker_2, # of connection points: 2
#     Edge 30, Type (0, 0), BuildingBlock: XUDNAN_clean_linker_2, # of connection points: 2
#     Edge 31, Type (0, 0), BuildingBlock: XUDNAN_clean_linker_2, # of connection points: 2
#     Edge 32, Type (0, 0), BuildingBlock: XUDNAN_clean_linker_2, # of connection points: 2
#     Edge 33, Type (0, 0), BuildingBlock: XUDNAN_clean_linker_2, # of connection points: 2
#     Edge 34, Type (0, 0), BuildingBlock: XUDNAN_clean_linker_2, # of connection points: 2
#     Edge 35, Type (0, 0), BuildingBlock: XUDNAN_clean_linker_2, # of connection points: 2
#     Edge 36, Type (0, 0), BuildingBlock: XUDNAN_clean_linker_2, # of connection points: 2
#     Edge 37, Type (0, 0), BuildingBlock: XUDNAN_clean_linker_2, # of connection points: 2
#     Edge 38, Type (0, 0), BuildingBlock: XUDNAN_clean_linker_2, # of connection points: 2
#     Edge 39, Type (0, 0), BuildingBlock: XUDNAN_clean_linker_2, # of connection points: 2
#     Edge 40, Type (0, 0), BuildingBlock: XUDNAN_clean_linker_2, # of connection points: 2
#     Edge 41, Type (0, 0), BuildingBlock: XUDNAN_clean_linker_2, # of connection points: 2
#     Edge 42, Type (0, 0), BuildingBlock: XUDNAN_clean_linker_2, # of connection points: 2
#     Edge 43, Type (0, 0), BuildingBlock: XUDNAN_clean_linker_2, # of connection points: 2
#     Edge 44, Type (0, 0), BuildingBlock: XUDNAN_clean_linker_2, # of connection points: 2
#     Edge 45, Type (0, 0), BuildingBlock: XUDNAN_clean_linker_2, # of connection points: 2
#     Edge 46, Type (0, 0), BuildingBlock: XUDNAN_clean_linker_2, # of connection points: 2
#     Edge 47, Type (0, 0), BuildingBlock: XUDNAN_clean_linker_2, # of connection points: 2
#     Edge 48, Type (0, 0), BuildingBlock: XUDNAN_clean_linker_2, # of connection points: 2
#     Edge 49, Type (0, 0), BuildingBlock: XUDNAN_clean_linker_2, # of connection points: 2
#     Edge 50, Type (0, 0), BuildingBlock: XUDNAN_clean_linker_2, # of connection points: 2
#     Edge 51, Type (0, 0), BuildingBlock: XUDNAN_clean_linker_2, # of connection points: 2
#     Edge 52, Type (0, 0), BuildingBlock: XUDNAN_clean_linker_2, # of connection points: 2
#     Edge 53, Type (0, 0), BuildingBlock: XUDNAN_clean_linker_2, # of connection points: 2
#     Edge 54, Type (0, 0), BuildingBlock: XUDNAN_clean_linker_2, # of connection points: 2
#     Edge 55, Type (0, 0), BuildingBlock: XUDNAN_clean_linker_2, # of connection points: 2
#     Edge 56, Type (0, 0), BuildingBlock: XUDNAN_clean_linker_2, # of connection points: 2
#     Edge 57, Type (0, 0), BuildingBlock: XUDNAN_clean_linker_2, # of connection points: 2
#     Edge 58, Type (0, 0), BuildingBlock: XUDNAN_clean_linker_2, # of connection points: 2
#     Edge 59, Type (0, 0), BuildingBlock: XUDNAN_clean_linker_2, # of connection points: 2
#     Edge 60, Type (0, 0), BuildingBlock: XUDNAN_clean_linker_2, # of connection points: 2
#     Edge 61, Type (0, 0), BuildingBlock: XUDNAN_clean_linker_2, # of connection points: 2
#     Edge 62, Type (0, 0), BuildingBlock: XUDNAN_clean_linker_2, # of connection points: 2
#     Edge 63, Type (0, 0), BuildingBlock: XUDNAN_clean_linker_2, # of connection points: 2
#     Edge 64, Type (0, 0), BuildingBlock: XUDNAN_clean_linker_2, # of connection points: 2
#     Edge 65, Type (0, 0), BuildingBlock: XUDNAN_clean_linker_2, # of connection points: 2
#     Edge 66, Type (0, 0), BuildingBlock: XUDNAN_clean_linker_2, # of connection points: 2
#     Edge 67, Type (0, 0), BuildingBlock: XUDNAN_clean_linker_2, # of connection points: 2
#     Edge 68, Type (0, 0), BuildingBlock: XUDNAN_clean_linker_2, # of connection points: 2
#     Edge 69, Type (0, 0), BuildingBlock: XUDNAN_clean_linker_2, # of connection points: 2
#     Edge 70, Type (0, 0), BuildingBlock: XUDNAN_clean_linker_2, # of connection points: 2
#     Edge 71, Type (0, 0), BuildingBlock: XUDNAN_clean_linker_2, # of connection points: 2
# Relax obj value: 0.473
# Max RMSD: 0.287
# Mean RMSD: 0.287
data_MOF--net-lll--node1-NUHQUE_clean_sbu_2--edge1-XUDNAN_clean_linker_2
_symmetry_space_group_name_H-M    P1
_symmetry_Int_Tables_number       1
_symmetry_cell_setting            triclinic
loop_
_symmetry_equiv_pos_as_xyz
'x, y, z'
_cell_length_a     47.862163
_cell_length_b     47.834253
_cell_length_c     46.462384
_cell_angle_alpha  89.983733
_cell_angle_beta   89.708065
_cell_angle_gamma 89.923093
loop_
_atom_site_label
_atom_site_type_symbol
_atom_site_fract_x
_atom_site_fract_y
_atom_site_fract_z
_atom_type_partial_charge
O0 O 0.69895 0.12299 1.02759 0.0
Tb1 Tb 0.70817 0.14921 0.06443 0.0
Eu2 Eu 0.63687 0.1682 0.0869 0.0
C3 C 0.70974 0.13267 1.00348 0.0
O4 O 0.72538 0.1552 1.00471 0.0
C5 C 0.66635 0.18234 1.0279 0.0
O6 O 0.60605 0.20097 0.07153 0.0
C7 C 0.60969 0.12643 0.10907 0.0
C8 C 0.58687 0.21358 0.08735 0.0
O9 O 0.56822 0.22926 0.07439 0.0
C10 C 0.69053 0.16317 0.12374 0.0
C11 C 0.60586 0.11016 0.13588 0.0
C12 C 0.59429 0.08326 0.13366 0.0
C13 C 0.58653 0.06827 0.1584 0.0
C14 C 0.59047 0.08046 0.1855 0.0
C15 C 0.6016 0.10742 0.18832 0.0
C16 C 0.60974 0.1222 0.1634 0.0
O17 O 0.69098 0.18508 0.04042 0.0
O18 O 0.64771 0.16534 0.03947 0.0
O19 O 0.74698 0.12557 0.06429 0.0
O20 O 0.74753 0.16863 0.07676 0.0
C21 C 0.76229 0.14579 0.07416 0.0
O22 O 0.67192 0.18189 0.1162 0.0
O23 O 0.69248 0.14097 0.10737 0.0
O24 O 0.60077 0.15237 0.1098 0.0
O25 O 0.63288 0.12304 0.094 0.0
H26 H 0.59057 0.07431 0.11258 0.0
H27 H 0.58375 0.0693 0.20465 0.0
H28 H 0.61767 0.14332 0.16531 0.0
O29 O 0.90638 0.21991 0.25637 0.0
Tb30 Tb 0.88666 0.22764 0.29786 0.0
Eu31 Eu 0.86827 0.15931 0.32084 0.0
C32 C 0.89505 0.23561 0.23622 0.0
O33 O 0.87354 0.2511 0.24376 0.0
C34 C 0.84039 0.19117 0.26832 0.0
O35 O 0.83336 0.13583 0.34112 0.0
C36 C 0.91313 0.12988 0.32945 0.0
C37 C 0.80773 0.14166 0.33349 0.0
O38 O 0.80364 0.15749 0.31081 0.0
C39 C 0.87822 0.21218 0.35972 0.0
C40 C 0.92616 0.11682 0.35499 0.0
C41 C 0.94735 0.09658 0.3516 0.0
C42 C 0.95969 0.08399 0.37582 0.0
C43 C 0.95047 0.09177 0.4035 0.0
C44 C 0.92869 0.11129 0.40725 0.0
C45 C 0.91663 0.1237 0.38282 0.0
O46 O 0.84541 0.21478 0.28223 0.0
O47 O 0.8536 0.16793 0.2753 0.0
O48 O 0.91065 0.26616 0.29234 0.0
O49 O 0.86893 0.26814 0.30863 0.0
C50 C 0.89114 0.28254 0.30202 0.0
O51 O 0.85971 0.19262 0.35472 0.0
O52 O 0.89864 0.21495 0.34092 0.0
O53 O 0.88914 0.11893 0.32168 0.0
O54 O 0.91323 0.15745 0.3283 0.0
H55 H 0.95446 0.09088 0.3302 0.0
H56 H 0.95982 0.08198 0.42217 0.0
H57 H 0.89995 0.13887 0.38543 0.0
O58 O 0.73723 0.39093 0.50426 0.0
Tb59 Tb 0.75745 0.37005 0.54045 0.0
Eu60 Eu 0.82422 0.36022 0.57418 0.0
C61 C 0.74785 0.39067 0.4781 0.0
O62 O 0.77339 0.38137 0.4742 0.0
C63 C 0.81088 0.34593 0.50963 0.0
O64 O 0.81062 0.316 0.56441 0.0
C65 C 0.87361 0.37046 0.59473 0.0
C66 C 0.81723 0.29331 0.57857 0.0
O67 O 0.8096 0.26894 0.56826 0.0
C68 C 0.77208 0.39446 0.59876 0.0
C69 C 0.88828 0.38214 0.62013 0.0
C70 C 0.91005 0.40123 0.61521 0.0
C71 C 0.92521 0.41272 0.63815 0.0
C72 C 0.91819 0.40502 0.66647 0.0
C73 C 0.89678 0.38554 0.67206 0.0
C74 C 0.88186 0.37414 0.64867 0.0
O75 O 0.78443 0.34093 0.51616 0.0
O76 O 0.82534 0.36366 0.52547 0.0
O77 O 0.71319 0.36454 0.54709 0.0
O78 O 0.74124 0.34327 0.57497 0.0
C79 C 0.71514 0.34939 0.57013 0.0
O80 O 0.79131 0.3759 0.60514 0.0
O81 O 0.7692 0.40202 0.57154 0.0
O82 O 0.86112 0.34615 0.59742 0.0
O83 O 0.8598 0.38828 0.57846 0.0
H84 H 0.91524 0.40717 0.5933 0.0
H85 H 0.9303 0.4133 0.68418 0.0
H86 H 0.86529 0.35927 0.65272 0.0
O87 O 0.61641 0.28071 0.76223 0.0
Tb88 Tb 0.63349 0.31434 0.78834 0.0
Eu89 Eu 0.64237 0.36571 0.83455 0.0
C90 C 0.59709 0.28438 0.74251 0.0
O91 O 0.58441 0.30865 0.7404 0.0
C92 C 0.64485 0.3715 0.76557 0.0
O93 O 0.67189 0.38531 0.86515 0.0
C94 C 0.59403 0.38423 0.85048 0.0
C95 C 0.69861 0.38363 0.85971 0.0
O96 O 0.7066 0.37939 0.83296 0.0
C97 C 0.63797 0.30153 0.85421 0.0
C98 C 0.57821 0.38907 0.87742 0.0
C99 C 0.5532 0.40394 0.87496 0.0
C100 C 0.53895 0.41337 0.89943 0.0
C101 C 0.54919 0.40661 0.92673 0.0
C102 C 0.57411 0.39139 0.93019 0.0
C103 C 0.58896 0.38292 0.90513 0.0
O104 O 0.62413 0.35335 0.76625 0.0
O105 O 0.65837 0.37651 0.78963 0.0
O106 O 0.67609 0.32396 0.80181 0.0
O107 O 0.66938 0.30061 0.76347 0.0
C108 C 0.68797 0.31241 0.77961 0.0
O109 O 0.65263 0.32468 0.85691 0.0
O110 O 0.62248 0.29745 0.83101 0.0
O111 O 0.61586 0.40045 0.84659 0.0
O112 O 0.59785 0.35827 0.84175 0.0
H113 H 0.54584 0.4099 0.85377 0.0
H114 H 0.53815 0.41449 0.94547 0.0
H115 H 0.60879 0.37214 0.90709 0.0
O116 O 0.67879 0.40845 0.26357 0.0
Tb117 Tb 0.70705 0.37254 0.26347 0.0
Eu118 Eu 0.64593 0.37048 0.23344 0.0
C119 C 0.66717 0.42089 0.28621 0.0
O120 O 0.64914 0.44105 0.28132 0.0
C121 C 0.65888 0.34927 0.30049 0.0
O122 O 0.62965 0.32715 0.22759 0.0
C123 C 0.6064 0.40351 0.2151 0.0
C124 C 0.64038 0.30516 0.24031 0.0
O125 O 0.66465 0.30676 0.25321 0.0
C126 C 0.7035 0.35474 0.20037 0.0
C127 C 0.59439 0.41758 0.18948 0.0
C128 C 0.57218 0.4364 0.19383 0.0
C129 C 0.55679 0.44713 0.17053 0.0
C130 C 0.56431 0.43894 0.14244 0.0
C131 C 0.58657 0.42017 0.13742 0.0
C132 C 0.60173 0.40972 0.16114 0.0
O133 O 0.686 0.34767 0.29586 0.0
O134 O 0.64208 0.3625 0.28228 0.0
O135 O 0.74485 0.36912 0.28906 0.0
O136 O 0.74357 0.39915 0.25541 0.0
C137 C 0.75881 0.38857 0.27576 0.0
O138 O 0.68064 0.37007 0.19923 0.0
O139 O 0.71264 0.34634 0.22546 0.0
O140 O 0.60466 0.37617 0.21549 0.0
O141 O 0.62977 0.41302 0.22633 0.0
H142 H 0.56638 0.44211 0.21564 0.0
H143 H 0.55232 0.44662 0.12435 0.0
H144 H 0.61827 0.39459 0.15766 0.0
O145 O 0.57617 0.19362 0.53889 0.0
Tb146 Tb 0.61076 0.22331 0.53957 0.0
Eu147 Eu 0.61436 0.1722 0.49659 0.0
C148 C 0.56106 0.18711 0.56189 0.0
O149 O 0.53875 0.17151 0.55868 0.0
C150 C 0.64836 0.175 0.55416 0.0
O151 O 0.65862 0.1676 0.48275 0.0
C152 C 0.58728 0.13139 0.47323 0.0
C153 C 0.67686 0.18794 0.48277 0.0
O154 O 0.6695 0.21348 0.48969 0.0
C155 C 0.61403 0.2372 0.47416 0.0
C156 C 0.57267 0.12244 0.44693 0.0
C157 C 0.55173 0.10239 0.45006 0.0
C158 C 0.54017 0.08915 0.42602 0.0
C159 C 0.54909 0.09715 0.39833 0.0
C160 C 0.56972 0.11792 0.39443 0.0
C161 C 0.58154 0.13042 0.4191 0.0
O162 O 0.64951 0.20184 0.54913 0.0
O163 O 0.62838 0.16057 0.54175 0.0
O164 O 0.58893 0.25815 0.56062 0.0
O165 O 0.62157 0.23719 0.58251 0.0
C166 C 0.60277 0.25658 0.58461 0.0
O167 O 0.60581 0.21122 0.46982 0.0
O168 O 0.62074 0.24614 0.50005 0.0
O169 O 0.61442 0.1346 0.47098 0.0
O170 O 0.57501 0.1497 0.4904 0.0
H171 H 0.5451 0.09637 0.47154 0.0
H172 H 0.5409 0.08613 0.37985 0.0
H173 H 0.59786 0.14593 0.41678 0.0
O174 O 0.76442 0.1243 0.79849 0.0
Tb175 Tb 0.79912 0.13325 0.7698 0.0
Eu176 Eu 0.85135 0.14672 0.72365 0.0
C177 C 0.76134 0.09955 0.81037 0.0
O178 O 0.77795 0.07906 0.80239 0.0
C179 C 0.85622 0.13276 0.79198 0.0
O180 O 0.85646 0.19315 0.72154 0.0
C181 C 0.89129 0.12455 0.69355 0.0
C182 C 0.87878 0.20574 0.7316 0.0
O183 O 0.89921 0.19097 0.74267 0.0
C184 C 0.78688 0.12945 0.70431 0.0
C185 C 0.90146 0.11231 0.66626 0.0
C186 C 0.92296 0.0925 0.6684 0.0
C187 C 0.93719 0.08336 0.64384 0.0
C188 C 0.92908 0.09309 0.61684 0.0
C189 C 0.90781 0.11304 0.61384 0.0
C190 C 0.89367 0.12261 0.63878 0.0
O191 O 0.83621 0.11466 0.78735 0.0
O192 O 0.863 0.14998 0.77102 0.0
O193 O 0.80143 0.17378 0.79163 0.0
O194 O 0.80869 0.17161 0.74678 0.0
C195 C 0.80827 0.18797 0.76888 0.0
O196 O 0.81024 0.14336 0.69897 0.0
O197 O 0.78151 0.11802 0.72964 0.0
O198 O 0.88584 0.15144 0.6938 0.0
O199 O 0.87511 0.10958 0.71071 0.0
H200 H 0.92976 0.0854 0.68942 0.0
H201 H 0.93981 0.08522 0.59786 0.0
H202 H 0.87771 0.13858 0.63694 0.0
O203 O 0.91943 0.29054 1.02285 0.0
Tb204 Tb 0.88848 0.2589 0.03364 0.0
Eu205 Eu 0.87484 0.30453 0.98701 0.0
C206 C 0.93948 0.29742 0.04082 0.0
O207 O 0.95899 0.31496 0.0325 0.0
C208 C 0.84414 0.30341 0.05049 0.0
O209 O 0.83452 0.29248 0.96711 0.0
C210 C 0.89413 0.34754 0.95924 0.0
C211 C 0.81496 0.27762 0.97978 0.0
O212 O 0.81857 0.26767 1.00577 0.0
C213 C 0.88053 0.24061 0.9714 0.0
C214 C 0.90767 0.35797 0.93253 0.0
C215 C 0.92973 0.37706 0.93561 0.0
C216 C 0.942 0.38958 0.91146 0.0
C217 C 0.93198 0.38326 0.88402 0.0
C218 C 0.90933 0.36506 0.88018 0.0
C219 C 0.89744 0.35191 0.9046 0.0
O220 O 0.85135 0.27705 0.05344 0.0
O221 O 0.85556 0.31886 1.02994 0.0
O222 O 0.91374 0.22168 0.04278 0.0
O223 O 0.89243 0.24179 0.07668 0.0
C224 C 0.90863 0.22091 0.07027 0.0
O225 O 0.89157 0.26515 0.96571 0.0
O226 O 0.87146 0.23562 0.99759 0.0
O227 O 0.86808 0.3391 0.95764 0.0
O228 O 0.90936 0.33311 0.97763 0.0
H229 H 0.93712 0.38254 0.95691 0.0
H230 H 0.94148 0.39332 0.86547 0.0
H231 H 0.87982 0.33796 0.90195 0.0
O232 O 0.25198 0.58928 0.50212 0.0
Tb233 Tb 0.24895 0.60987 0.5435 0.0
Eu234 Eu 0.17309 0.61749 0.57774 0.0
C235 C 0.2628 0.60458 0.4814 0.0
O236 O 0.27069 0.63018 0.4876 0.0
C237 C 0.19574 0.63859 0.51611 0.0
O238 O 0.18341 0.66289 0.58283 0.0
C239 C 0.12281 0.60339 0.59331 0.0
C240 C 0.2102 0.6686 0.58371 0.0
O241 O 0.22791 0.64795 0.5821 0.0
C242 C 0.22807 0.59296 0.60402 0.0
C243 C 0.10681 0.59148 0.61796 0.0
C244 C 0.08841 0.56915 0.6126 0.0
C245 C 0.0724 0.55718 0.63492 0.0
C246 C 0.07524 0.56794 0.66285 0.0
C247 C 0.0925 0.59099 0.66871 0.0
C248 C 0.10869 0.60245 0.64614 0.0
O249 O 0.22221 0.64218 0.52365 0.0
O250 O 0.17985 0.61954 0.52902 0.0
O251 O 0.294 0.60198 0.54392 0.0
O252 O 0.27787 0.63842 0.5645 0.0
C253 C 0.30025 0.62389 0.55908 0.0
O254 O 0.20368 0.60312 0.61151 0.0
O255 O 0.23056 0.58436 0.57715 0.0
O256 O 0.13258 0.62902 0.59575 0.0
O257 O 0.13997 0.58632 0.57964 0.0
H258 H 0.08627 0.56144 0.59079 0.0
H259 H 0.06412 0.558 0.68044 0.0
H260 H 0.12224 0.62008 0.65036 0.0
O261 O 0.38633 0.75108 0.73524 0.0
Tb262 Tb 0.37936 0.72512 0.77339 0.0
Eu263 Eu 0.36125 0.6731 0.8217 0.0
C264 C 0.40385 0.74309 0.71483 0.0
O265 O 0.41874 0.72034 0.71884 0.0
C266 C 0.35754 0.66742 0.75114 0.0
O267 O 0.32327 0.68229 0.84913 0.0
C268 C 0.38317 0.62889 0.84439 0.0
C269 C 0.32708 0.68866 0.87644 0.0
O270 O 0.35263 0.69133 0.88609 0.0
C271 C 0.39913 0.73002 0.83566 0.0
C272 C 0.39312 0.61645 0.87145 0.0
C273 C 0.40912 0.59207 0.86938 0.0
C274 C 0.41647 0.57705 0.89408 0.0
C275 C 0.40873 0.58733 0.92122 0.0
C276 C 0.3926 0.61173 0.92383 0.0
C277 C 0.38444 0.62609 0.89876 0.0
O278 O 0.37757 0.68629 0.74801 0.0
O279 O 0.34593 0.66229 0.77644 0.0
O280 O 0.34666 0.75457 0.78717 0.0
O281 O 0.34096 0.71099 0.79282 0.0
C282 C 0.33021 0.7352 0.79705 0.0
O283 O 0.37918 0.71219 0.84228 0.0
O284 O 0.40809 0.733 0.80881 0.0
O285 O 0.35613 0.63311 0.8426 0.0
O286 O 0.39842 0.64845 0.83192 0.0
H287 H 0.41515 0.58428 0.84831 0.0
H288 H 0.41399 0.57552 0.94038 0.0
H289 H 0.37119 0.64429 0.90054 0.0
O290 O 0.2949 0.86663 1.01196 0.0
Tb291 Tb 0.32468 0.84699 0.04111 0.0
Eu292 Eu 0.37776 0.83817 0.0847 0.0
C293 C 0.30192 0.88933 0.99759 0.0
O294 O 0.32601 0.90124 1.00312 0.0
C295 C 0.38126 0.83718 1.01531 0.0
O296 O 0.39741 0.80388 0.11025 0.0
C297 C 0.39941 0.88521 0.10112 0.0
C298 C 0.40786 0.80717 0.13615 0.0
O299 O 0.40962 0.83235 0.1472 0.0
C300 C 0.31377 0.84503 0.10647 0.0
C301 C 0.40663 0.89898 0.12868 0.0
C302 C 0.43118 0.91498 0.12932 0.0
C303 C 0.44157 0.92534 0.15534 0.0
C304 C 0.42696 0.91997 0.18097 0.0
C305 C 0.40199 0.90451 0.18104 0.0
C306 C 0.39168 0.89417 0.15461 0.0
O307 O 0.36232 0.85691 1.01698 0.0
O308 O 0.38719 0.82301 0.03878 0.0
O309 O 0.30521 0.80846 1.02628 0.0
O310 O 0.33657 0.80612 0.05808 0.0
C311 C 0.31943 0.79164 0.04265 0.0
O312 O 0.33697 0.83027 0.1092 0.0
O313 O 0.30997 0.86088 0.0834 0.0
O314 O 0.41435 0.86298 0.09483 0.0
O315 O 0.37286 0.88268 0.09429 0.0
H316 H 0.4429 0.91842 0.10958 0.0
H317 H 0.43489 0.92835 0.20101 0.0
H318 H 0.37285 0.88161 0.15439 0.0
O319 O 0.1103 0.76315 0.26212 0.0
Tb320 Tb 0.14115 0.75279 0.29458 0.0
Eu321 Eu 0.15463 0.8226 0.31803 0.0
C322 C 0.11802 0.76009 0.23509 0.0
O323 O 0.14355 0.75156 0.22943 0.0
C324 C 0.17654 0.79486 0.26026 0.0
O325 O 0.19691 0.84096 0.32473 0.0
C326 C 0.11582 0.85919 0.33021 0.0
C327 C 0.21446 0.84757 0.30387 0.0
O328 O 0.20708 0.84587 0.27683 0.0
C329 C 0.14507 0.76969 0.35682 0.0
C330 C 0.10313 0.87483 0.35453 0.0
C331 C 0.08988 0.90078 0.34932 0.0
C332 C 0.07905 0.91672 0.37229 0.0
C333 C 0.08115 0.90625 0.40035 0.0
C334 C 0.09394 0.88034 0.40599 0.0
C335 C 0.10519 0.86482 0.38294 0.0
O336 O 0.17824 0.7699 0.27232 0.0
O337 O 0.15815 0.81296 0.27036 0.0
O338 O 0.12352 0.71149 0.28656 0.0
O339 O 0.15908 0.7153 0.31366 0.0
C340 C 0.14043 0.6982 0.30353 0.0
O341 O 0.16259 0.79055 0.35361 0.0
O342 O 0.12637 0.7664 0.33655 0.0
O343 O 0.14163 0.86593 0.32343 0.0
O344 O 0.11111 0.83206 0.32867 0.0
H345 H 0.08877 0.90893 0.32758 0.0
H346 H 0.07334 0.91883 0.41808 0.0
H347 H 0.11548 0.84502 0.38707 0.0
O348 O 0.18651 0.90686 0.80832 0.0
Tb349 Tb 0.17056 0.87054 0.78545 0.0
Eu350 Eu 0.1261 0.85064 0.72178 0.0
C351 C 0.17582 0.91278 0.83375 0.0
O352 O 0.15065 0.90358 0.83976 0.0
C353 C 0.11526 0.84167 0.78797 0.0
O354 O 0.14987 0.82019 0.69526 0.0
C355 C 0.08317 0.86605 0.69252 0.0
C356 C 0.17261 0.8081 0.70468 0.0
O357 O 0.17988 0.8109 0.73172 0.0
C358 C 0.18757 0.87534 0.71903 0.0
C359 C 0.07863 0.8815 0.6654 0.0
C360 C 0.06667 0.90821 0.6669 0.0
C361 C 0.06275 0.92407 0.64198 0.0
C362 C 0.07008 0.9128 0.6152 0.0
C363 C 0.08132 0.88577 0.61302 0.0
C364 C 0.08607 0.87029 0.63826 0.0
O365 O 0.12546 0.86732 0.78815 0.0
O366 O 0.11566 0.82837 0.7633 0.0
O367 O 0.1876 0.8534 0.82515 0.0
O368 O 0.17474 0.82576 0.79205 0.0
C369 C 0.18402 0.8275 0.81816 0.0
O370 O 0.16128 0.88155 0.71358 0.0
O371 O 0.1953 0.8688 0.74551 0.0
O372 O 0.09418 0.84092 0.6904 0.0
O373 O 0.093 0.88076 0.71426 0.0
H374 H 0.06082 0.91694 0.68763 0.0
H375 H 0.06661 0.92501 0.59586 0.0
H376 H 0.09499 0.84951 0.63664 0.0
O377 O 0.08264 0.7124 0.03303 0.0
Tb378 Tb 0.10976 0.68497 1.00849 0.0
Eu379 Eu 0.12313 0.63426 0.96031 0.0
C380 C 0.06474 0.70263 0.05204 0.0
O381 O 0.05846 0.67591 0.05169 0.0
C382 C 0.1263 0.62908 1.02745 0.0
O383 O 0.14191 0.60152 0.93147 0.0
C384 C 0.07123 0.62197 0.95286 0.0
C385 C 0.16878 0.59705 0.92926 0.0
O386 O 0.17773 0.57522 0.91475 0.0
C387 C 0.11819 0.69912 0.94306 0.0
C388 C 0.0594 0.60895 0.92667 0.0
C389 C 0.04619 0.58282 0.92914 0.0
C390 C 0.04076 0.56674 0.90457 0.0
C391 C 0.04689 0.57769 0.87727 0.0
C392 C 0.05977 0.60385 0.87412 0.0
C393 C 0.06625 0.61932 0.89898 0.0
O394 O 0.10295 0.64324 1.02485 0.0
O395 O 0.14231 0.62767 1.00448 0.0
O396 O 0.13791 0.70216 0.04043 0.0
O397 O 0.15513 0.68419 1.00237 0.0
C398 C 0.16084 0.69556 1.02709 0.0
O399 O 0.13308 0.67606 0.93901 0.0
O400 O 0.10204 0.70252 0.96595 0.0
O401 O 0.08826 0.60582 0.96734 0.0
O402 O 0.08055 0.64764 0.95043 0.0
H403 H 0.04235 0.57398 0.95029 0.0
H404 H 0.043 0.56499 0.85837 0.0
H405 H 0.07751 0.63884 0.89672 0.0
O406 O 0.29444 0.58879 0.25961 0.0
Tb407 Tb 0.25447 0.60761 0.27012 0.0
Eu408 Eu 0.29533 0.63794 0.22592 0.0
C409 C 0.3087 0.57407 0.27843 0.0
O410 O 0.33152 0.56103 0.27019 0.0
C411 C 0.27748 0.66657 0.28773 0.0
O412 O 0.26743 0.6666 0.20019 0.0
C413 C 0.34496 0.62571 0.20613 0.0
C414 C 0.27494 0.68996 0.18779 0.0
O415 O 0.25716 0.70298 0.17105 0.0
C416 C 0.23691 0.61269 0.20701 0.0
C417 C 0.36047 0.61219 0.18209 0.0
C418 C 0.38156 0.59257 0.18855 0.0
C419 C 0.39784 0.58014 0.16659 0.0
C420 C 0.39269 0.58798 0.13794 0.0
C421 C 0.37216 0.60794 0.13099 0.0
C422 C 0.35575 0.6196 0.15319 0.0
O423 O 0.25631 0.64907 0.28932 0.0
O424 O 0.29741 0.66328 0.26813 0.0
O425 O 0.22685 0.57173 0.27674 0.0
O426 O 0.24024 0.59469 0.31275 0.0
C427 C 0.2252 0.57351 0.30463 0.0
O428 O 0.26397 0.61067 0.20202 0.0
O429 O 0.22825 0.61729 0.23343 0.0
O430 O 0.33222 0.64957 0.20113 0.0
O431 O 0.33096 0.60927 0.22371 0.0
H432 H 0.3856 0.58744 0.21087 0.0
H433 H 0.40435 0.57806 0.12069 0.0
H434 H 0.33987 0.63494 0.14802 0.0
O435 O 0.36385 0.84652 0.51488 0.0
Tb436 Tb 0.34424 0.80579 0.50847 0.0
Eu437 Eu 0.32314 0.85599 0.47863 0.0
C438 C 0.3781 0.85392 0.53798 0.0
O439 O 0.38724 0.87972 0.53984 0.0
C440 C 0.29556 0.83538 0.53922 0.0
O441 O 0.36143 0.83341 0.46026 0.0
C442 C 0.33454 0.90637 0.46059 0.0
C443 C 0.36855 0.82793 0.43303 0.0
O444 O 0.39249 0.81504 0.4289 0.0
C445 C 0.30862 0.79664 0.45178 0.0
C446 C 0.351 0.91949 0.4366 0.0
C447 C 0.3731 0.93762 0.44352 0.0
C448 C 0.39061 0.94864 0.42186 0.0
C449 C 0.38644 0.94076 0.39311 0.0
C450 C 0.36449 0.92303 0.38553 0.0
C451 C 0.34651 0.91318 0.40734 0.0
O452 O 0.30555 0.81066 0.53229 0.0
O453 O 0.30287 0.8575 0.52382 0.0
O454 O 0.38031 0.77757 0.5106 0.0
O455 O 0.35109 0.77883 0.54522 0.0
C456 C 0.37406 0.76752 0.53586 0.0
O457 O 0.29772 0.82177 0.45635 0.0
O458 O 0.32982 0.78776 0.46746 0.0
O459 O 0.31046 0.89407 0.45518 0.0
O460 O 0.34956 0.89284 0.47974 0.0
H461 H 0.37665 0.94317 0.46582 0.0
H462 H 0.40041 0.94842 0.37644 0.0
H463 H 0.32969 0.90011 0.40146 0.0
H464 H 0.78755 0.17293 0.11796 0.0
H465 H 0.80116 0.11022 0.05247 0.0
H466 H 0.85126 0.1091 0.06405 0.0
H467 H 0.83374 0.21469 0.10785 0.0
H468 H 0.84662 0.22177 0.14364 0.0
H469 H 0.81245 0.20802 0.13932 0.0
H470 H 0.82668 0.16891 0.17389 0.0
H471 H 0.86209 0.18105 0.17606 0.0
H472 H 0.85499 0.14553 0.16533 0.0
H473 H 0.89695 0.12868 0.06613 0.0
H474 H 0.9264 0.16876 0.05419 0.0
H475 H 0.89033 0.21535 0.12452 0.0
C476 C 0.80124 0.15833 0.107 0.0
C477 C 0.79113 0.14222 0.08397 0.0
C478 C 0.80886 0.12295 0.07001 0.0
C479 C 0.83725 0.12184 0.07687 0.0
C480 C 0.84735 0.13937 0.0985 0.0
C481 C 0.82958 0.15653 0.11431 0.0
C482 C 0.84605 0.17714 0.13223 0.0
C483 C 0.83403 0.20715 0.13048 0.0
C484 C 0.84757 0.16751 0.16372 0.0
C485 C 0.87453 0.17393 0.11815 0.0
C486 C 0.87559 0.15019 0.10085 0.0
C487 C 0.89662 0.14677 0.08011 0.0
C488 C 0.91363 0.16968 0.07348 0.0
C489 C 0.90919 0.19531 0.08772 0.0
C490 C 0.89326 0.1958 0.11322 0.0
H491 H 0.78704 0.38337 0.32508 0.0
H492 H 0.7977 0.40204 0.235 0.0
H493 H 0.84808 0.39241 0.2391 0.0
H494 H 0.8692 0.40414 0.34474 0.0
H495 H 0.86752 0.37761 0.37223 0.0
H496 H 0.83798 0.40031 0.3662 0.0
H497 H 0.80705 0.35723 0.36039 0.0
H498 H 0.83573 0.3344 0.36556 0.0
H499 H 0.81513 0.33141 0.3332 0.0
H500 H 0.88691 0.36107 0.24665 0.0
H501 H 0.90654 0.31451 0.25642 0.0
H502 H 0.8739 0.31738 0.34293 0.0
C503 C 0.80042 0.38758 0.30695 0.0
C504 C 0.78877 0.39352 0.27997 0.0
C505 C 0.80644 0.39784 0.25603 0.0
C506 C 0.83518 0.39257 0.2583 0.0
C507 C 0.84588 0.38403 0.28488 0.0
C508 C 0.82911 0.38303 0.30932 0.0
C509 C 0.84348 0.3677 0.33363 0.0
C510 C 0.85526 0.38869 0.35547 0.0
C511 C 0.8242 0.34635 0.34891 0.0
C512 C 0.86694 0.35407 0.3169 0.0
C513 C 0.86969 0.36569 0.28958 0.0
C514 C 0.88577 0.35263 0.26823 0.0
C515 C 0.89689 0.32609 0.27388 0.0
C516 C 0.89137 0.31298 0.30045 0.0
C517 C 0.87839 0.32782 0.32276 0.0
H518 H 0.71248 0.31725 0.61866 0.0
H519 H 0.66737 0.37906 0.56954 0.0
H520 H 0.62703 0.37398 0.60097 0.0
H521 H 0.68128 0.27078 0.62108 0.0
H522 H 0.67496 0.25748 0.65694 0.0
H523 H 0.70406 0.28 0.65042 0.0
H524 H 0.68734 0.31409 0.68931 0.0
H525 H 0.65877 0.29061 0.69686 0.0
H526 H 0.65203 0.32688 0.68943 0.0
H527 H 0.58878 0.34653 0.61257 0.0
H528 H 0.5726 0.30494 0.58737 0.0
H529 H 0.63232 0.25468 0.63324 0.0
C530 C 0.69417 0.33018 0.6156 0.0
C531 C 0.69243 0.34764 0.59136 0.0
C532 C 0.6687 0.36463 0.58746 0.0
C533 C 0.64586 0.36244 0.6059 0.0
C534 C 0.64625 0.34217 0.62752 0.0
C535 C 0.67056 0.32719 0.63352 0.0
C536 C 0.66345 0.30171 0.6513 0.0
C537 C 0.68199 0.27598 0.64439 0.0
C538 C 0.66548 0.30876 0.6836 0.0
C539 C 0.63295 0.29874 0.6428 0.0
C540 C 0.6222 0.32467 0.63438 0.0
C541 C 0.59744 0.32643 0.61848 0.0
C542 C 0.58838 0.30273 0.60385 0.0
C543 C 0.6024 0.27728 0.60781 0.0
C544 C 0.62197 0.27455 0.63012 0.0
H545 H 0.71296 0.29404 0.73141 0.0
H546 H 0.7296 0.32799 0.81547 0.0
H547 H 0.77901 0.3139 0.8111 0.0
H548 H 0.73669 0.23815 0.73331 0.0
H549 H 0.75574 0.23359 0.7 0.0
H550 H 0.72893 0.25927 0.70209 0.0
H551 H 0.76354 0.29612 0.68529 0.0
H552 H 0.79235 0.27174 0.68479 0.0
H553 H 0.79444 0.30343 0.7058 0.0
H554 H 0.80961 0.27464 0.81179 0.0
H555 H 0.82182 0.2247 0.81124 0.0
H556 H 0.79479 0.21845 0.7231 0.0
C557 C 0.72756 0.2995 0.74817 0.0
C558 C 0.71795 0.31132 0.77403 0.0
C559 C 0.73697 0.3187 0.79566 0.0
C560 C 0.765 0.31088 0.79317 0.0
C561 C 0.77345 0.296 0.76879 0.0
C562 C 0.75563 0.2919 0.74569 0.0
C563 C 0.76768 0.27114 0.72451 0.0
C564 C 0.74598 0.24924 0.71454 0.0
C565 C 0.78028 0.28651 0.69853 0.0
C566 C 0.79054 0.25878 0.74297 0.0
C567 C 0.79474 0.27449 0.76779 0.0
C568 C 0.80787 0.26298 0.79192 0.0
C569 C 0.81455 0.23453 0.79167 0.0
C570 C 0.80921 0.21836 0.76706 0.0
C571 C 0.79947 0.23106 0.7418 0.0
H572 H 0.36605 0.75136 0.59016 0.0
H573 H 0.4111 0.73015 0.51262 0.0
H574 H 0.41513 0.68159 0.52894 0.0
H575 H 0.39277 0.67931 0.63523 0.0
H576 H 0.35855 0.6798 0.6516 0.0
H577 H 0.37741 0.71196 0.64649 0.0
H578 H 0.33441 0.73166 0.62025 0.0
H579 H 0.31648 0.69942 0.62454 0.0
H580 H 0.3212 0.71376 0.58888 0.0
H581 H 0.39252 0.63812 0.53624 0.0
H582 H 0.34931 0.61081 0.53242 0.0
H583 H 0.31367 0.65656 0.60368 0.0
C584 C 0.37822 0.73651 0.57777 0.0
C585 C 0.38754 0.74375 0.55005 0.0
C586 C 0.4036 0.72469 0.53393 0.0
C587 C 0.40606 0.69699 0.54327 0.0
C588 C 0.39217 0.68891 0.56855 0.0
C589 C 0.37958 0.7086 0.58651 0.0
C590 C 0.35923 0.69483 0.60718 0.0
C591 C 0.37285 0.69122 0.63685 0.0
C592 C 0.3312 0.71085 0.61022 0.0
C593 C 0.35622 0.6668 0.59241 0.0
C594 C 0.37762 0.6625 0.57252 0.0
C595 C 0.37622 0.64093 0.55221 0.0
C596 C 0.35147 0.6256 0.54992 0.0
C597 C 0.32842 0.63237 0.56749 0.0
C598 C 0.33148 0.65145 0.59022 0.0
H599 H 0.22202 0.82804 0.86015 0.0
H600 H 0.16749 0.77423 0.81188 0.0
H601 H 0.19685 0.73399 0.82307 0.0
H602 H 0.27279 0.81874 0.8315 0.0
H603 H 0.30039 0.8147 0.85748 0.0
H604 H 0.26906 0.83234 0.86761 0.0
H605 H 0.26129 0.79809 0.9099 0.0
H606 H 0.29351 0.78075 0.90026 0.0
H607 H 0.2617 0.76093 0.90359 0.0
H608 H 0.23831 0.71162 0.81098 0.0
H609 H 0.28436 0.70449 0.78892 0.0
H610 H 0.31774 0.77331 0.83819 0.0
C611 C 0.21564 0.8072 0.85398 0.0
C612 C 0.19321 0.80371 0.83504 0.0
C613 C 0.18481 0.7769 0.82652 0.0
C614 C 0.20147 0.75394 0.8329 0.0
C615 C 0.22683 0.75866 0.84666 0.0
C616 C 0.23343 0.78448 0.85873 0.0
C617 C 0.26456 0.78663 0.86441 0.0
C618 C 0.27738 0.81473 0.85457 0.0
C619 C 0.27061 0.78126 0.89643 0.0
C620 C 0.27462 0.76232 0.84646 0.0
C621 C 0.2526 0.74515 0.83866 0.0
C622 C 0.25578 0.72411 0.81808 0.0
C623 C 0.28178 0.72058 0.80515 0.0
C624 C 0.30379 0.73892 0.81174 0.0
C625 C 0.30064 0.75943 0.83303 0.0
H626 H 0.30919 0.74721 1.0085 0.0
H627 H 0.30302 0.77734 0.09594 0.0
H628 H 0.26671 0.74255 0.10648 0.0
H629 H 0.25081 0.74205 0.99003 0.0
H630 H 0.24705 0.7086 0.97278 0.0
H631 H 0.28084 0.72422 0.97503 0.0
H632 H 0.30073 0.6813 1.00049 0.0
H633 H 0.26717 0.66386 0.99959 0.0
H634 H 0.28493 0.66843 0.03314 0.0
H635 H 0.2202 0.72336 0.1002 0.0
H636 H 0.17366 0.71153 0.08149 0.0
H637 H 0.2105 0.68884 0.99944 0.0
C638 C 0.30154 0.7448 1.03033 0.0
C639 C 0.30863 0.76448 0.05144 0.0
C640 C 0.298 0.76191 0.0797 0.0
C641 C 0.27732 0.74219 0.08585 0.0
C642 C 0.2685 0.72467 0.06373 0.0
C643 C 0.2815 0.72451 0.03696 0.0
C644 C 0.26554 0.70654 1.01591 0.0
C645 C 0.26078 0.72128 0.98677 0.0
C646 C 0.28053 0.67838 1.01199 0.0
C647 C 0.23875 0.70243 0.03265 0.0
C648 C 0.24141 0.71166 0.06076 0.0
C649 C 0.21822 0.71478 0.07876 0.0
C650 C 0.19181 0.70841 0.06783 0.0
C651 C 0.18882 0.69936 0.03907 0.0
C652 C 0.21257 0.69537 1.02164 0.0
H653 H 0.15956 0.67553 0.35257 0.0
H654 H 0.11225 0.65649 0.27626 0.0
H655 H 0.11267 0.60657 0.28898 0.0
H656 H 0.20554 0.63754 0.35187 0.0
H657 H 0.20855 0.62247 0.38752 0.0
H658 H 0.19028 0.65457 0.38284 0.0
H659 H 0.14673 0.63412 0.40682 0.0
H660 H 0.16522 0.60163 0.41203 0.0
H661 H 0.13195 0.60188 0.39406 0.0
H662 H 0.13491 0.56266 0.2958 0.0
H663 H 0.18074 0.54271 0.28576 0.0
H664 H 0.21429 0.58286 0.36075 0.0
C665 C 0.14843 0.66064 0.33938 0.0
C666 C 0.13657 0.66927 0.31323 0.0
C667 C 0.12179 0.64998 0.29627 0.0
C668 C 0.12148 0.62163 0.30374 0.0
C669 C 0.13548 0.613 0.32862 0.0
C670 C 0.14783 0.63229 0.34689 0.0
C671 C 0.16699 0.61786 0.36799 0.0
C672 C 0.19453 0.63402 0.37268 0.0
C673 C 0.15181 0.61359 0.39692 0.0
C674 C 0.17058 0.59003 0.35267 0.0
C675 C 0.14918 0.58608 0.33274 0.0
C676 C 0.15147 0.5657 0.31125 0.0
C677 C 0.17777 0.55412 0.30569 0.0
C678 C 0.20096 0.56361 0.3214 0.0
C679 C 0.19639 0.57675 0.34809 0.0
H680 H 0.67446 0.29793 0.90062 0.0
H681 H 0.60407 0.25565 0.86141 0.0
H682 H 0.60491 0.22037 0.90024 0.0
H683 H 0.70992 0.23284 0.92463 0.0
H684 H 0.72279 0.24939 0.95683 0.0
H685 H 0.71653 0.26977 0.92491 0.0
H686 H 0.68436 0.30268 0.95522 0.0
H687 H 0.69009 0.28125 0.98654 0.0
H688 H 0.65504 0.28772 0.97417 0.0
H689 H 0.6122 0.19033 0.94453 0.0
H690 H 0.62545 0.16773 0.99008 0.0
H691 H 0.69219 0.22806 1.00104 0.0
C692 C 0.65918 0.28126 0.90015 0.0
C693 C 0.639 0.27987 0.87775 0.0
C694 C 0.61969 0.25742 0.87808 0.0
C695 C 0.62002 0.23718 0.90015 0.0
C696 C 0.63999 0.23927 0.92187 0.0
C697 C 0.65938 0.26061 0.92195 0.0
C698 C 0.67868 0.25782 0.94786 0.0
C699 C 0.7088 0.25208 0.93801 0.0
C700 C 0.67694 0.28392 0.96709 0.0
C701 C 0.66655 0.23226 0.96288 0.0
C702 C 0.64439 0.22175 0.94728 0.0
C703 C 0.62957 0.19842 0.95678 0.0
C704 C 0.6373 0.18571 0.98287 0.0
C705 C 0.65988 0.19599 0.99951 0.0
C706 C 0.6749 0.2195 0.98898 0.0
H707 H 0.8097 0.14632 0.24613 0.0
H708 H 0.82154 0.23595 0.23786 0.0
H709 H 0.78646 0.23731 0.19961 0.0
H710 H 0.79595 0.13031 0.16963 0.0
H711 H 0.76939 0.10527 0.1786 0.0
H712 H 0.7975 0.11173 0.20338 0.0
H713 H 0.75932 0.12205 0.24253 0.0
H714 H 0.73205 0.11707 0.21642 0.0
H715 H 0.73418 0.14943 0.23611 0.0
H716 H 0.75069 0.22999 0.16254 0.0
H717 H 0.71381 0.21479 0.12912 0.0
H718 H 0.72134 0.13002 0.16139 0.0
C719 C 0.805 0.1662 0.2361 0.0
C720 C 0.8189 0.19105 0.24496 0.0
C721 C 0.81166 0.21661 0.23151 0.0
C722 C 0.79161 0.21764 0.20966 0.0
C723 C 0.77829 0.19305 0.20155 0.0
C724 C 0.78436 0.16776 0.21443 0.0
C725 C 0.76577 0.14477 0.2021 0.0
C726 C 0.78324 0.12169 0.1876 0.0
C727 C 0.7467 0.13261 0.2257 0.0
C728 C 0.74887 0.16112 0.17997 0.0
C729 C 0.75659 0.18891 0.18023 0.0
C730 C 0.74417 0.20841 0.16214 0.0
C731 C 0.72302 0.19956 0.14347 0.0
C732 C 0.7141 0.17135 0.14299 0.0
C733 C 0.72761 0.15176 0.16126 0.0
H734 H 0.78947 0.30355 0.47497 0.0
H735 H 0.86532 0.35052 0.49105 0.0
H736 H 0.89017 0.32221 0.45462 0.0
H737 H 0.82084 0.2371 0.4659 0.0
H738 H 0.79905 0.22563 0.43675 0.0
H739 H 0.78578 0.2505 0.46253 0.0
H740 H 0.774 0.28482 0.42217 0.0
H741 H 0.78773 0.26175 0.39485 0.0
H742 H 0.80102 0.2967 0.39793 0.0
H743 H 0.90743 0.28795 0.41642 0.0
H744 H 0.91546 0.25065 0.38048 0.0
H745 H 0.82914 0.22447 0.38965 0.0
C746 C 0.81126 0.30806 0.47074 0.0
C747 C 0.82529 0.32953 0.48615 0.0
C748 C 0.8539 0.33442 0.47974 0.0
C749 C 0.86829 0.31835 0.45898 0.0
C750 C 0.85397 0.29723 0.4445 0.0
C751 C 0.82605 0.2921 0.45003 0.0
C752 C 0.81565 0.268 0.43149 0.0
C753 C 0.80467 0.24389 0.45028 0.0
C754 C 0.79325 0.27842 0.4104 0.0
C755 C 0.84229 0.25969 0.41551 0.0
C756 C 0.86403 0.27718 0.42297 0.0
C757 C 0.89052 0.27411 0.41058 0.0
C758 C 0.89493 0.25274 0.39014 0.0
C759 C 0.87316 0.2342 0.38231 0.0
C760 C 0.84645 0.23789 0.39535 0.0
H761 H 0.701 0.37386 0.75379 0.0
H762 H 0.62036 0.38516 0.71347 0.0
H763 H 0.6442 0.39753 0.6675 0.0
H764 H 0.73886 0.42887 0.71474 0.0
H765 H 0.77043 0.40843 0.71209 0.0
H766 H 0.747 0.40351 0.74215 0.0
H767 H 0.74498 0.35163 0.73045 0.0
H768 H 0.76696 0.35533 0.6993 0.0
H769 H 0.73284 0.33985 0.69572 0.0
H770 H 0.67866 0.41172 0.62595 0.0
H771 H 0.71762 0.41279 0.5905 0.0
H772 H 0.77494 0.38701 0.65739 0.0
C773 C 0.68827 0.37937 0.73543 0.0
C774 C 0.65865 0.37923 0.73756 0.0
C775 C 0.64296 0.38557 0.71261 0.0
C776 C 0.65641 0.39275 0.68641 0.0
C777 C 0.68567 0.39301 0.6852 0.0
C778 C 0.70133 0.38585 0.70902 0.0
C779 C 0.73234 0.38531 0.70168 0.0
C780 C 0.74808 0.40788 0.71867 0.0
C781 C 0.74498 0.35625 0.70705 0.0
C782 C 0.73177 0.39232 0.66982 0.0
C783 C 0.70485 0.39791 0.66089 0.0
C784 C 0.69963 0.40647 0.63264 0.0
C785 C 0.72203 0.40737 0.61265 0.0
C786 C 0.74944 0.39944 0.62079 0.0
C787 C 0.75424 0.39272 0.65013 0.0
H788 H 0.68503 0.33333 0.35126 0.0
H789 H 0.60478 0.33272 0.30841 0.0
H790 H 0.58452 0.3062 0.34897 0.0
H791 H 0.68187 0.26507 0.38138 0.0
H792 H 0.69758 0.27424 0.41525 0.0
H793 H 0.70584 0.29406 0.38338 0.0
H794 H 0.69055 0.3395 0.40912 0.0
H795 H 0.68209 0.31993 0.44111 0.0
H796 H 0.65606 0.34191 0.42461 0.0
H797 H 0.57391 0.27558 0.39167 0.0
H798 H 0.57254 0.24677 0.43586 0.0
H799 H 0.6581 0.26981 0.45437 0.0
C800 C 0.66314 0.32791 0.35062 0.0
C801 C 0.64655 0.33528 0.32648 0.0
C802 C 0.61794 0.32765 0.32657 0.0
C803 C 0.60623 0.31243 0.34955 0.0
C804 C 0.62315 0.30527 0.37279 0.0
C805 C 0.6509 0.31312 0.3738 0.0
C806 C 0.66435 0.30274 0.40153 0.0
C807 C 0.68886 0.28285 0.39498 0.0
C808 C 0.67381 0.32749 0.4202 0.0
C809 C 0.64001 0.28719 0.41554 0.0
C810 C 0.61652 0.28886 0.3984 0.0
C811 C 0.592 0.27463 0.40553 0.0
C812 C 0.59138 0.25828 0.43068 0.0
C813 C 0.6149 0.25655 0.44894 0.0
C814 C 0.63951 0.27142 0.4413 0.0
H815 H 0.69539 0.19778 0.5786 0.0
H816 H 0.64338 0.1236 0.58017 0.0
H817 H 0.67317 0.10343 0.61832 0.0
H818 H 0.76118 0.16213 0.58874 0.0
H819 H 0.77562 0.18929 0.61105 0.0
H820 H 0.75001 0.19786 0.58417 0.0
H821 H 0.71873 0.22099 0.62322 0.0
H822 H 0.74439 0.21261 0.65007 0.0
H823 H 0.70879 0.20114 0.65461 0.0
H824 H 0.70786 0.09237 0.65853 0.0
H825 H 0.74591 0.09024 0.69453 0.0
H826 H 0.77672 0.17032 0.66437 0.0
C827 C 0.69028 0.17724 0.58688 0.0
C828 C 0.66695 0.16229 0.57631 0.0
C829 C 0.66115 0.13544 0.58776 0.0
C830 C 0.67793 0.12385 0.60954 0.0
C831 C 0.7007 0.13919 0.61955 0.0
C832 C 0.707 0.16523 0.60838 0.0
C833 C 0.73283 0.17733 0.62253 0.0
C834 C 0.7563 0.18191 0.60029 0.0
C835 C 0.72575 0.20462 0.63856 0.0
C836 C 0.74014 0.15403 0.64338 0.0
C837 C 0.72119 0.13233 0.64162 0.0
C838 C 0.72299 0.10911 0.65979 0.0
C839 C 0.74467 0.10804 0.68019 0.0
C840 C 0.76464 0.12979 0.68195 0.0
C841 C 0.76223 0.15299 0.66313 0.0
H842 H 0.89426 0.24492 0.91365 0.0
H843 H 0.85922 0.18758 0.97654 0.0
H844 H 0.85208 0.15254 0.93826 0.0
H845 H 0.84758 0.22854 0.85743 0.0
H846 H 0.8731 0.23113 0.82883 0.0
H847 H 0.87735 0.25121 0.86126 0.0
H848 H 0.92624 0.22977 0.8691 0.0
H849 H 0.92258 0.20976 0.83648 0.0
H850 H 0.9303 0.1923 0.86991 0.0
H851 H 0.84664 0.1242 0.8922 0.0
H852 H 0.84269 0.1058 0.84261 0.0
H853 H 0.88191 0.18126 0.80991 0.0
C854 C 0.88538 0.22488 0.91948 0.0
C855 C 0.87747 0.21907 0.94831 0.0
C856 C 0.8656 0.19262 0.95476 0.0
C857 C 0.86147 0.1725 0.9331 0.0
C858 C 0.86939 0.17894 0.90493 0.0
C859 C 0.88115 0.2045 0.89809 0.0
C860 C 0.88693 0.20659 0.86599 0.0
C861 C 0.87024 0.23079 0.85258 0.0
C862 C 0.91838 0.20979 0.86003 0.0
C863 C 0.87634 0.17835 0.85579 0.0
C864 C 0.8664 0.16264 0.87857 0.0
C865 C 0.85464 0.13625 0.87426 0.0
C866 C 0.85259 0.12587 0.84596 0.0
C867 C 0.86229 0.14175 0.82217 0.0
C868 C 0.87471 0.1682 0.82747 0.0
H869 H 0.81357 0.27765 0.09434 0.0
H870 H 0.82463 0.35754 0.05146 0.0
H871 H 0.78862 0.37834 0.08314 0.0
H872 H 0.73908 0.28502 0.10333 0.0
H873 H 0.7361 0.2698 0.1385 0.0
H874 H 0.7632 0.25804 0.11408 0.0
H875 H 0.80238 0.26895 0.14892 0.0
H876 H 0.77726 0.27957 0.17582 0.0
H877 H 0.80474 0.30312 0.16523 0.0
H878 H 0.75011 0.39058 0.11945 0.0
H879 H 0.71637 0.39408 0.15989 0.0
H880 H 0.73238 0.30754 0.18192 0.0
C881 C 0.80853 0.29956 0.09159 0.0
C882 C 0.82234 0.31589 0.07023 0.0
C883 C 0.81468 0.34444 0.06752 0.0
C884 C 0.79409 0.3565 0.08546 0.0
C885 C 0.78106 0.3399 0.10629 0.0
C886 C 0.78812 0.31206 0.10955 0.0
C887 C 0.77104 0.29894 0.1338 0.0
C888 C 0.75125 0.27657 0.12172 0.0
C889 C 0.79003 0.28691 0.15731 0.0
C890 C 0.75449 0.32402 0.14474 0.0
C891 C 0.75985 0.34723 0.12789 0.0
C892 C 0.74601 0.37253 0.13286 0.0
C893 C 0.72672 0.3743 0.15585 0.0
C894 C 0.72176 0.3512 0.17428 0.0
C895 C 0.73587 0.32568 0.16843 0.0
H896 H 0.19091 0.75824 0.39212 0.0
H897 H 0.10631 0.73129 0.37445 0.0
H898 H 0.11028 0.69509 0.41209 0.0
H899 H 0.21904 0.68406 0.4087 0.0
H900 H 0.24293 0.70065 0.43296 0.0
H901 H 0.23023 0.71895 0.40174 0.0
H902 H 0.21577 0.75817 0.44144 0.0
H903 H 0.22549 0.73484 0.47015 0.0
H904 H 0.19039 0.7484 0.46832 0.0
H905 H 0.12274 0.66238 0.45322 0.0
H906 H 0.14324 0.63481 0.4927 0.0
H907 H 0.22069 0.6812 0.48378 0.0
C908 C 0.17323 0.74475 0.39623 0.0
C909 C 0.14809 0.74811 0.38034 0.0
C910 C 0.12567 0.72956 0.38627 0.0
C911 C 0.12777 0.70877 0.40766 0.0
C912 C 0.15266 0.70614 0.42298 0.0
C913 C 0.17521 0.7233 0.41724 0.0
C914 C 0.19969 0.71563 0.43674 0.0
C915 C 0.22444 0.70421 0.41905 0.0
C916 C 0.20836 0.74075 0.45526 0.0
C917 C 0.18699 0.69242 0.45506 0.0
C918 C 0.15994 0.68706 0.44648 0.0
C919 C 0.14397 0.66641 0.45995 0.0
C920 C 0.15589 0.65075 0.48248 0.0
C921 C 0.18371 0.65557 0.49172 0.0
C922 C 0.19939 0.67681 0.47753 0.0
H923 H 0.30213 0.66511 0.7392 0.0
H924 H 0.38271 0.64086 0.70458 0.0
H925 H 0.35898 0.61744 0.6635 0.0
H926 H 0.26277 0.60489 0.71996 0.0
H927 H 0.23202 0.62447 0.71023 0.0
H928 H 0.25563 0.63811 0.73679 0.0
H929 H 0.26063 0.6835 0.70718 0.0
H930 H 0.23772 0.67021 0.67975 0.0
H931 H 0.27249 0.68162 0.67039 0.0
H932 H 0.32418 0.59345 0.62729 0.0
H933 H 0.28404 0.57829 0.59732 0.0
H934 H 0.22774 0.62314 0.65428 0.0
C935 C 0.31482 0.65477 0.72302 0.0
C936 C 0.34429 0.65443 0.72534 0.0
C937 C 0.36013 0.64123 0.70336 0.0
C938 C 0.34676 0.62776 0.68004 0.0
C939 C 0.31752 0.62828 0.67858 0.0
C940 C 0.3019 0.64201 0.69935 0.0
C941 C 0.271 0.6412 0.69237 0.0
C942 C 0.25439 0.62628 0.71626 0.0
C943 C 0.25976 0.67089 0.68712 0.0
C944 C 0.27135 0.62425 0.66481 0.0
C945 C 0.29824 0.61664 0.65716 0.0
C946 C 0.30317 0.59985 0.63296 0.0
C947 C 0.28022 0.59137 0.61594 0.0
C948 C 0.25264 0.60001 0.62275 0.0
C949 C 0.24845 0.61635 0.64791 0.0
H950 H 0.40083 0.72015 0.89361 0.0
H951 H 0.41124 0.78639 0.83088 0.0
H952 H 0.41104 0.8213 0.87043 0.0
H953 H 0.35297 0.75492 0.93737 0.0
H954 H 0.36581 0.74146 0.97104 0.0
H955 H 0.37044 0.72154 0.93852 0.0
H956 H 0.4238 0.71968 0.94655 0.0
H957 H 0.41947 0.73914 0.97948 0.0
H958 H 0.44291 0.75171 0.95189 0.0
H959 H 0.4023 0.84947 0.91716 0.0
H960 H 0.39147 0.86741 0.96607 0.0
H961 H 0.38891 0.7825 0.99837 0.0
C962 C 0.40387 0.74195 0.88818 0.0
C963 C 0.4064 0.7504 0.85896 0.0
C964 C 0.40995 0.77922 0.85296 0.0
C965 C 0.40952 0.79924 0.87537 0.0
C966 C 0.40583 0.7902 0.90382 0.0
C967 C 0.40361 0.76208 0.91025 0.0
C968 C 0.3985 0.75762 0.94228 0.0
C969 C 0.37026 0.74303 0.94759 0.0
C970 C 0.42261 0.74106 0.95585 0.0
C971 C 0.39793 0.78763 0.95303 0.0
C972 C 0.40192 0.80618 0.93052 0.0
C973 C 0.39986 0.83503 0.93493 0.0
C974 C 0.39367 0.84509 0.96283 0.0
C975 C 0.39009 0.8265 0.98632 0.0
C976 C 0.39247 0.79736 0.98116 0.0
H977 H 0.2303 0.7778 0.24267 0.0
H978 H 0.16059 0.83065 0.21818 0.0
H979 H 0.18796 0.84903 0.17745 0.0
H980 H 0.28485 0.82736 0.22561 0.0
H981 H 0.30876 0.80164 0.21143 0.0
H982 H 0.28338 0.79174 0.2383 0.0
H983 H 0.26493 0.75311 0.20408 0.0
H984 H 0.29056 0.76327 0.17747 0.0
H985 H 0.25405 0.76243 0.16823 0.0
H986 H 0.22305 0.86366 0.14024 0.0
H987 H 0.26285 0.87146 0.10735 0.0
H988 H 0.31119 0.80973 0.15429 0.0
C989 C 0.22068 0.79285 0.2284 0.0
C990 C 0.19304 0.80264 0.23379 0.0
C991 C 0.18157 0.82277 0.21476 0.0
C992 C 0.19703 0.83344 0.19147 0.0
C993 C 0.22428 0.82401 0.18714 0.0
C994 C 0.23607 0.80403 0.20487 0.0
C995 C 0.26604 0.79795 0.1952 0.0
C996 C 0.28698 0.8051 0.21907 0.0
C997 C 0.26909 0.76736 0.18567 0.0
C998 C 0.26916 0.81777 0.1696 0.0
C999 C 0.24473 0.83255 0.16543 0.0
C1000 C 0.24227 0.85212 0.14328 0.0
C1001 C 0.26514 0.85649 0.12466 0.0
C1002 C 0.29045 0.84143 0.12802 0.0
C1003 C 0.29235 0.82185 0.15106 0.0
H1004 H 0.10287 0.78514 0.79443 0.0
H1005 H 0.12421 0.85913 0.84345 0.0
H1006 H 0.12908 0.83038 0.88711 0.0
H1007 H 0.0609 0.75522 0.85445 0.0
H1008 H 0.06957 0.71958 0.84557 0.0
H1009 H 0.06793 0.74564 0.81759 0.0
H1010 H 0.12003 0.73499 0.80192 0.0
H1011 H 0.11817 0.7073 0.82815 0.0
H1012 H 0.14582 0.73233 0.82999 0.0
H1013 H 0.13353 0.79363 0.92523 0.0
H1014 H 0.13287 0.75187 0.95656 0.0
H1015 H 0.10745 0.70076 0.8843 0.0
C1016 C 0.1084 0.79536 0.81438 0.0
C1017 C 0.11397 0.82461 0.81514 0.0
C1018 C 0.12049 0.83696 0.84195 0.0
C1019 C 0.12328 0.82069 0.86696 0.0
C1020 C 0.11869 0.79195 0.86523 0.0
C1021 C 0.11075 0.77937 0.83981 0.0
C1022 C 0.10524 0.74824 0.84455 0.0
C1023 C 0.07406 0.7418 0.84029 0.0
C1024 C 0.12341 0.72972 0.82493 0.0
C1025 C 0.11338 0.74503 0.87602 0.0
C1026 C 0.12056 0.77068 0.88757 0.0
C1027 C 0.12798 0.77347 0.91639 0.0
C1028 C 0.12766 0.74963 0.93401 0.0
C1029 C 0.12053 0.72308 0.92281 0.0
C1030 C 0.11354 0.72072 0.8933 0.0
H1031 H 0.18172 0.62086 0.04299 0.0
H1032 H 0.0979 0.62645 0.07858 0.0
H1033 H 0.11702 0.62077 0.12752 0.0
H1034 H 0.20884 0.56934 0.09375 0.0
H1035 H 0.24284 0.58533 0.09614 0.0
H1036 H 0.22275 0.58868 0.0636 0.0
H1037 H 0.22566 0.64309 0.06673 0.0
H1038 H 0.24684 0.63899 0.09841 0.0
H1039 H 0.21557 0.65986 0.09999 0.0
H1040 H 0.14508 0.61587 0.17285 0.0
H1041 H 0.17996 0.61328 0.21152 0.0
H1042 H 0.2465 0.61147 0.14767 0.0
C1043 C 0.16733 0.62044 0.06104 0.0
C1044 C 0.1381 0.62373 0.05675 0.0
C1045 C 0.12022 0.62374 0.08113 0.0
C1046 C 0.13093 0.62053 0.10908 0.0
C1047 C 0.15973 0.61747 0.11258 0.0
C1048 C 0.17775 0.61749 0.08926 0.0
C1049 C 0.20796 0.61484 0.09923 0.0
C1050 C 0.22139 0.58794 0.08748 0.0
C1051 C 0.22502 0.64073 0.09052 0.0
C1052 C 0.20408 0.6134 0.13177 0.0
C1053 C 0.17603 0.61487 0.13889 0.0
C1054 C 0.16708 0.61461 0.16748 0.0
C1055 C 0.18717 0.61312 0.18939 0.0
C1056 C 0.21616 0.612 0.18291 0.0
C1057 C 0.22458 0.61196 0.15352 0.0
H1058 H 0.32305 0.69015 0.31655 0.0
H1059 H 0.23302 0.69585 0.30856 0.0
H1060 H 0.23169 0.73126 0.34712 0.0
H1061 H 0.32291 0.6929 0.39294 0.0
H1062 H 0.35468 0.71282 0.39609 0.0
H1063 H 0.34927 0.69083 0.36516 0.0
H1064 H 0.35724 0.73354 0.33163 0.0
H1065 H 0.3625 0.75561 0.36259 0.0
H1066 H 0.33621 0.7645 0.3365 0.0
H1067 H 0.23983 0.76578 0.38788 0.0
H1068 H 0.25559 0.79127 0.43113 0.0
H1069 H 0.34019 0.76272 0.41547 0.0
C1070 C 0.30319 0.69948 0.32237 0.0
C1071 C 0.27814 0.69043 0.3089 0.0
C1072 C 0.25251 0.70247 0.31814 0.0
C1073 C 0.25154 0.7227 0.34013 0.0
C1074 C 0.27637 0.73067 0.35343 0.0
C1075 C 0.30174 0.71929 0.34509 0.0
C1076 C 0.3249 0.72965 0.3649 0.0
C1077 C 0.33877 0.70508 0.3807 0.0
C1078 C 0.3465 0.74684 0.34788 0.0
C1079 C 0.30856 0.74816 0.38581 0.0
C1080 C 0.2807 0.74891 0.37835 0.0
C1081 C 0.2615 0.76479 0.39416 0.0
C1082 C 0.27068 0.77945 0.41864 0.0
C1083 C 0.29906 0.7793 0.42675 0.0
C1084 C 0.31822 0.7632 0.41005 0.0
H1085 H 0.25444 0.87471 0.55672 0.0
H1086 H 0.2998 0.80113 0.58531 0.0
H1087 H 0.27801 0.80524 0.63304 0.0
H1088 H 0.25506 0.9138 0.6225 0.0
H1089 H 0.2193 0.92558 0.62118 0.0
H1090 H 0.23791 0.91788 0.58829 0.0
H1091 H 0.19967 0.88208 0.57332 0.0
H1092 H 0.18076 0.89136 0.60561 0.0
H1093 H 0.18941 0.85541 0.59866 0.0
H1094 H 0.26147 0.82374 0.68032 0.0
H1095 H 0.23261 0.84074 0.72045 0.0
H1096 H 0.18866 0.89629 0.66211 0.0
C1097 C 0.25986 0.85959 0.5731 0.0
C1098 C 0.27967 0.838 0.56716 0.0
C1099 C 0.28522 0.8181 0.58905 0.0
C1100 C 0.27312 0.82038 0.61649 0.0
C1101 C 0.25511 0.84254 0.62212 0.0
C1102 C 0.24713 0.86095 0.6008 0.0
C1103 C 0.22476 0.88091 0.61262 0.0
C1104 C 0.23487 0.91135 0.61104 0.0
C1105 C 0.19702 0.87722 0.59656 0.0
C1106 C 0.22223 0.87109 0.64391 0.0
C1107 C 0.241 0.84976 0.64889 0.0
C1108 C 0.24565 0.83947 0.67647 0.0
C1109 C 0.22924 0.84959 0.6993 0.0
C1110 C 0.20752 0.86926 0.69463 0.0
C1111 C 0.20443 0.88062 0.66643 0.0
H1112 H 0.66539 0.25927 0.21963 0.0
H1113 H 0.58554 0.2926 0.24613 0.0
H1114 H 0.5614 0.25569 0.21914 0.0
H1115 H 0.65329 0.26029 0.15722 0.0
H1116 H 0.66906 0.2294 0.14259 0.0
H1117 H 0.68175 0.24321 0.17561 0.0
H1118 H 0.67343 0.19822 0.20292 0.0
H1119 H 0.66013 0.18062 0.17158 0.0
H1120 H 0.6394 0.18214 0.20372 0.0
H1121 H 0.54662 0.23025 0.17685 0.0
H1122 H 0.54308 0.22025 0.1249 0.0
H1123 H 0.63206 0.20962 0.12016 0.0
C1124 C 0.6429 0.25727 0.22127 0.0
C1125 C 0.62719 0.27817 0.23491 0.0
C1126 C 0.59778 0.27628 0.2359 0.0
C1127 C 0.58395 0.25528 0.22067 0.0
C1128 C 0.59988 0.2367 0.20424 0.0
C1129 C 0.62892 0.23726 0.20484 0.0
C1130 C 0.64125 0.22156 0.17962 0.0
C1131 C 0.66254 0.23967 0.16282 0.0
C1132 C 0.65437 0.19405 0.19006 0.0
C1133 C 0.61505 0.21599 0.16248 0.0
C1134 C 0.59125 0.22291 0.17795 0.0
C1135 C 0.565 0.22373 0.16494 0.0
C1136 C 0.56318 0.21837 0.13534 0.0
C1137 C 0.58755 0.2129 0.11902 0.0
C1138 C 0.61341 0.21121 0.13289 0.0
H1139 H 0.69411 0.21123 0.4332 0.0
H1140 H 0.71547 0.14976 0.49793 0.0
H1141 H 0.75044 0.12893 0.46489 0.0
H1142 H 0.69397 0.16523 0.37659 0.0
H1143 H 0.70846 0.18856 0.34998 0.0
H1144 H 0.68901 0.20247 0.38 0.0
H1145 H 0.73095 0.23361 0.39557 0.0
H1146 H 0.74937 0.22129 0.36413 0.0
H1147 H 0.7649 0.21769 0.39916 0.0
H1148 H 0.77938 0.11247 0.42368 0.0
H1149 H 0.80626 0.10555 0.37876 0.0
H1150 H 0.76243 0.17541 0.33983 0.0
C1151 C 0.70726 0.19432 0.44079 0.0
C1152 C 0.70305 0.18241 0.4681 0.0
C1153 C 0.71929 0.15941 0.47717 0.0
C1154 C 0.73881 0.1473 0.45849 0.0
C1155 C 0.74121 0.15833 0.43088 0.0
C1156 C 0.72627 0.1816 0.42217 0.0
C1157 C 0.73121 0.18804 0.39075 0.0
C1158 C 0.70404 0.18594 0.37332 0.0
C1159 C 0.74491 0.21689 0.38718 0.0
C1160 C 0.75122 0.16472 0.38316 0.0
C1161 C 0.75667 0.1478 0.40658 0.0
C1162 C 0.77537 0.12555 0.40515 0.0
C1163 C 0.79029 0.12162 0.37953 0.0
C1164 C 0.78625 0.13987 0.35592 0.0
C1165 C 0.76555 0.16081 0.35735 0.0
H1166 H 0.8652 0.26614 0.58879 0.0
H1167 H 0.8047 0.3221 0.6274 0.0
H1168 H 0.82882 0.31792 0.67417 0.0
H1169 H 0.86599 0.21843 0.63681 0.0
H1170 H 0.9028 0.21028 0.63693 0.0
H1171 H 0.88761 0.22589 0.60583 0.0
H1172 H 0.92365 0.26628 0.60864 0.0
H1173 H 0.93872 0.25075 0.64038 0.0
H1174 H 0.92665 0.28646 0.64124 0.0
H1175 H 0.84533 0.29326 0.71694 0.0
H1176 H 0.85646 0.25477 0.75018 0.0
H1177 H 0.90972 0.2172 0.68583 0.0
C1178 C 0.85773 0.27807 0.60709 0.0
C1179 C 0.83344 0.2944 0.60496 0.0
C1180 C 0.82351 0.30959 0.62893 0.0
C1181 C 0.83703 0.30727 0.65546 0.0
C1182 C 0.86024 0.2897 0.65746 0.0
C1183 C 0.87105 0.27598 0.63363 0.0
C1184 C 0.89325 0.25508 0.64201 0.0
C1185 C 0.88698 0.22573 0.62972 0.0
C1186 C 0.92229 0.26527 0.63251 0.0
C1187 C 0.89029 0.25616 0.67442 0.0
C1188 C 0.87187 0.27701 0.68299 0.0
C1189 C 0.86072 0.27776 0.7108 0.0
C1190 C 0.86711 0.25587 0.72963 0.0
C1191 C 0.88416 0.2336 0.72034 0.0
C1192 C 0.89765 0.2349 0.69349 0.0
H1193 H 0.80169 0.27337 0.92435 0.0
H1194 H 0.76768 0.29283 1.00849 0.0
H1195 H 0.73223 0.32327 0.98602 0.0
H1196 H 0.80365 0.33779 0.90139 0.0
H1197 H 0.7945 0.33221 0.86425 0.0
H1198 H 0.81072 0.30461 0.8844 0.0
H1199 H 0.76949 0.2704 0.87477 0.0
H1200 H 0.75489 0.29716 0.85221 0.0
H1201 H 0.73413 0.2824 0.88042 0.0
H1202 H 0.70784 0.35892 0.95538 0.0
H1203 H 0.68939 0.38998 0.91745 0.0
H1204 H 0.74524 0.35127 0.85524 0.0
C1205 C 0.78553 0.28259 0.93777 0.0
C1206 C 0.78712 0.28096 0.9679 0.0
C1207 C 0.76632 0.29361 0.98523 0.0
C1208 C 0.74654 0.31139 0.97268 0.0
C1209 C 0.74801 0.31564 0.94303 0.0
C1210 C 0.76645 0.30094 0.92568 0.0
C1211 C 0.76648 0.31162 0.89514 0.0
C1212 C 0.79556 0.32218 0.8858 0.0
C1213 C 0.75561 0.28904 0.87448 0.0
C1214 C 0.74606 0.33541 0.89824 0.0
C1215 C 0.73522 0.33712 0.92581 0.0
C1216 C 0.71589 0.35754 0.93362 0.0
C1217 C 0.70594 0.37538 0.91209 0.0
C1218 C 0.71567 0.37272 0.88333 0.0
C1219 C 0.73714 0.3536 0.87686 0.0
H1220 H 0.16433 0.80413 0.64745 0.0
H1221 H 0.22195 0.78049 0.71488 0.0
H1222 H 0.25031 0.75465 0.67935 0.0
H1223 H 0.15497 0.74377 0.6233 0.0
H1224 H 0.15231 0.75118 0.58531 0.0
H1225 H 0.14481 0.77802 0.6108 0.0
H1226 H 0.18082 0.80901 0.58557 0.0
H1227 H 0.19093 0.78189 0.56078 0.0
H1228 H 0.21694 0.79843 0.58294 0.0
H1229 H 0.26518 0.72304 0.64182 0.0
H1230 H 0.25688 0.67996 0.61444 0.0
H1231 H 0.18588 0.71848 0.57288 0.0
C1232 C 0.1834 0.79418 0.65456 0.0
C1233 C 0.19098 0.79414 0.68379 0.0
C1234 C 0.21577 0.78065 0.69249 0.0
C1235 C 0.23231 0.76647 0.6723 0.0
C1236 C 0.22359 0.76579 0.64364 0.0
C1237 C 0.19942 0.7792 0.63485 0.0
C1238 C 0.18971 0.76879 0.60587 0.0
C1239 C 0.15867 0.75986 0.60644 0.0
C1240 C 0.19498 0.79086 0.58243 0.0
C1241 C 0.20932 0.74433 0.60213 0.0
C1242 C 0.23047 0.74479 0.62244 0.0
C1243 C 0.24892 0.72251 0.62575 0.0
C1244 C 0.24395 0.6981 0.61018 0.0
C1245 C 0.22022 0.69615 0.59231 0.0
C1246 C 0.20395 0.71991 0.58671 0.0
H1247 H 0.27167 0.70028 0.86941 0.0
H1248 H 0.33137 0.6672 0.92986 0.0
H1249 H 0.29311 0.64783 0.95888 0.0
H1250 H 0.21365 0.71526 0.93134 0.0
H1251 H 0.18725 0.70838 0.90478 0.0
H1252 H 0.21919 0.72581 0.89466 0.0
H1253 H 0.22599 0.68754 0.85508 0.0
H1254 H 0.19506 0.67002 0.86666 0.0
H1255 H 0.22785 0.65135 0.86571 0.0
H1256 H 0.25168 0.62133 0.97221 0.0
H1257 H 0.20971 0.5916 0.9691 0.0
H1258 H 0.17419 0.64789 0.90644 0.0
C1259 C 0.27636 0.69065 0.88976 0.0
C1260 C 0.30422 0.68499 0.89731 0.0
C1261 C 0.31006 0.67164 0.9237 0.0
C1262 C 0.28841 0.661 0.94066 0.0
C1263 C 0.26099 0.66592 0.93221 0.0
C1264 C 0.25479 0.68158 0.90799 0.0
C1265 C 0.22376 0.68087 0.90173 0.0
C1266 C 0.21015 0.70925 0.90853 0.0
C1267 C 0.21786 0.67184 0.87048 0.0
C1268 C 0.21444 0.65911 0.92335 0.0
C1269 C 0.23599 0.65154 0.94155 0.0
C1270 C 0.23418 0.628 0.95925 0.0
C1271 C 0.21038 0.61114 0.95733 0.0
C1272 C 0.18875 0.61825 0.9382 0.0
C1273 C 0.19012 0.6431 0.92217 0.0
H1274 H 0.31398 0.68928 0.14629 0.0
H1275 H 0.2986 0.71439 0.23433 0.0
H1276 H 0.34501 0.73714 0.23593 0.0
H1277 H 0.3936 0.67923 0.15506 0.0
H1278 H 0.40056 0.69313 0.11965 0.0
H1279 H 0.36944 0.67301 0.12609 0.0
H1280 H 0.33706 0.71204 0.10825 0.0
H1281 H 0.36743 0.73171 0.09891 0.0
H1282 H 0.34135 0.74693 0.12229 0.0
H1283 H 0.38319 0.76864 0.22255 0.0
H1284 H 0.40737 0.80547 0.19533 0.0
H1285 H 0.406 0.7535 0.11913 0.0
C1286 C 0.32107 0.69879 0.16611 0.0
C1287 C 0.30336 0.70026 0.1902 0.0
C1288 C 0.31244 0.71296 0.21586 0.0
C1289 C 0.33879 0.72559 0.217 0.0
C1290 C 0.35596 0.72424 0.19263 0.0
C1291 C 0.34767 0.71047 0.16785 0.0
C1292 C 0.36778 0.71542 0.14329 0.0
C1293 C 0.38382 0.68859 0.13564 0.0
C1294 C 0.3525 0.72725 0.11668 0.0
C1295 C 0.38685 0.73674 0.15702 0.0
C1296 C 0.38018 0.7411 0.18576 0.0
C1297 C 0.38952 0.76474 0.20052 0.0
C1298 C 0.40344 0.78563 0.1849 0.0
C1299 C 0.40784 0.78241 0.15498 0.0
C1300 C 0.40267 0.75635 0.14202 0.0
H1301 H 0.31817 0.85545 0.4292 0.0
H1302 H 0.37959 0.81437 0.3765 0.0
H1303 H 0.35006 0.82232 0.33391 0.0
H1304 H 0.25732 0.8261 0.3937 0.0
H1305 H 0.23719 0.85675 0.40078 0.0
H1306 H 0.26483 0.84782 0.42478 0.0
H1307 H 0.28159 0.89987 0.41368 0.0
H1308 H 0.25491 0.9034 0.38747 0.0
H1309 H 0.29029 0.90879 0.37692 0.0
H1310 H 0.30965 0.8287 0.29813 0.0
H1311 H 0.26283 0.83216 0.2753 0.0
H1312 H 0.2305 0.87267 0.35167 0.0
C1313 C 0.32523 0.84807 0.40916 0.0
C1314 C 0.35101 0.8342 0.40704 0.0
C1315 C 0.35995 0.8253 0.37929 0.0
C1316 C 0.34333 0.82983 0.3548 0.0
C1317 C 0.31778 0.84355 0.35818 0.0
C1318 C 0.30874 0.85274 0.38485 0.0
C1319 C 0.27924 0.86475 0.38347 0.0
C1320 C 0.25858 0.84776 0.40188 0.0
C1321 C 0.27666 0.89597 0.39089 0.0
C1322 C 0.27349 0.86067 0.35214 0.0
C1323 C 0.29554 0.84836 0.33759 0.0
C1324 C 0.29263 0.83911 0.30922 0.0
C1325 C 0.26614 0.8414 0.29627 0.0
C1326 C 0.24343 0.85295 0.3119 0.0
C1327 C 0.24775 0.86414 0.33926 0.0
H1328 H 0.73324 0.14086 0.83883 0.0
H1329 H 0.74986 0.05174 0.84102 0.0
H1330 H 0.72756 0.04887 0.88898 0.0
H1331 H 0.75372 0.15386 0.90558 0.0
H1332 H 0.72831 0.18048 0.91416 0.0
H1333 H 0.73801 0.17438 0.87738 0.0
H1334 H 0.68612 0.16601 0.86431 0.0
H1335 H 0.67625 0.17227 0.90127 0.0
H1336 H 0.66615 0.14021 0.8838 0.0
H1337 H 0.71236 0.05731 0.94022 0.0
H1338 H 0.70808 0.07682 0.98956 0.0
H1339 H 0.70242 0.16019 0.95376 0.0
C1340 C 0.73118 0.12051 0.84883 0.0
C1341 C 0.74315 0.0965 0.83609 0.0
C1342 C 0.74067 0.07041 0.85028 0.0
C1343 C 0.72789 0.06856 0.8775 0.0
C1344 C 0.71748 0.09292 0.89013 0.0
C1345 C 0.71876 0.11842 0.87604 0.0
C1346 C 0.7104 0.14222 0.89575 0.0
C1347 C 0.73402 0.16397 0.89838 0.0
C1348 C 0.6831 0.15598 0.88568 0.0
C1349 C 0.70598 0.12639 0.92356 0.0
C1350 C 0.70925 0.09789 0.91984 0.0
C1351 C 0.70907 0.0795 0.94326 0.0
C1352 C 0.70655 0.09067 0.97118 0.0
C1353 C 0.70486 0.11989 0.97519 0.0
C1354 C 0.70345 0.13771 0.95108 0.0
H1355 H 0.90467 0.31116 0.08456 0.0
H1356 H 0.97545 0.25872 0.06286 0.0
H1357 H 0.9735 0.23719 0.11155 0.0
H1358 H 0.92506 0.32149 0.16143 0.0
H1359 H 0.88904 0.32195 0.17294 0.0
H1360 H 0.89842 0.33459 0.13766 0.0
H1361 H 0.86305 0.30072 0.11573 0.0
H1362 H 0.85407 0.28661 0.1504 0.0
H1363 H 0.86597 0.26372 0.12213 0.0
H1364 H 0.96042 0.21875 0.16213 0.0
H1365 H 0.93986 0.20821 0.21026 0.0
H1366 H 0.87803 0.27326 0.1966 0.0
C1367 C 0.91997 0.29545 0.09034 0.0
C1368 C 0.93994 0.28616 0.0702 0.0
C1369 C 0.95991 0.26582 0.07823 0.0
C1370 C 0.95897 0.25358 0.10578 0.0
C1371 C 0.93831 0.26249 0.12503 0.0
C1372 C 0.91958 0.28342 0.11777 0.0
C1373 C 0.89902 0.28897 0.14182 0.0
C1374 C 0.90315 0.31849 0.1542 0.0
C1375 C 0.86874 0.28468 0.13192 0.0
C1376 C 0.90797 0.26686 0.16307 0.0
C1377 C 0.93095 0.25203 0.15349 0.0
C1378 C 0.9426 0.2305 0.16995 0.0
C1379 C 0.93075 0.22452 0.19714 0.0
C1380 C 0.90735 0.23983 0.20723 0.0
C1381 C 0.89587 0.261 0.18966 0.0
H1382 H 0.76385 0.3914 0.42172 0.0
H1383 H 0.69153 0.40361 0.47693 0.0
H1384 H 0.66187 0.40991 0.43376 0.0
H1385 H 0.74859 0.43984 0.36935 0.0
H1386 H 0.75821 0.41985 0.33827 0.0
H1387 H 0.77549 0.41356 0.37208 0.0
H1388 H 0.76213 0.36209 0.37577 0.0
H1389 H 0.74634 0.36318 0.34074 0.0
H1390 H 0.72666 0.35138 0.37111 0.0
H1391 H 0.64052 0.41508 0.38298 0.0
H1392 H 0.63033 0.42113 0.33116 0.0
H1393 H 0.71709 0.40645 0.31065 0.0
C1394 C 0.74185 0.39581 0.42492 0.0
C1395 C 0.73014 0.39723 0.45278 0.0
C1396 C 0.70111 0.40265 0.45579 0.0
C1397 C 0.68405 0.40612 0.43137 0.0
C1398 C 0.69635 0.40403 0.40413 0.0
C1399 C 0.72463 0.39926 0.401 0.0
C1400 C 0.73289 0.3968 0.36978 0.0
C1401 C 0.75516 0.41873 0.36191 0.0
C1402 C 0.74264 0.36669 0.36387 0.0
C1403 C 0.70529 0.4028 0.35531 0.0
C1404 C 0.6842 0.40618 0.37547 0.0
C1405 C 0.65695 0.41235 0.36713 0.0
C1406 C 0.65138 0.4158 0.33762 0.0
C1407 C 0.67294 0.41326 0.31668 0.0
C1408 C 0.70012 0.40667 0.32585 0.0
H1409 H 0.55146 0.27578 0.70734 0.0
H1410 H 0.63473 0.2449 0.72599 0.0
H1411 H 0.63198 0.21304 0.68456 0.0
H1412 H 0.52653 0.20247 0.67972 0.0
H1413 H 0.50351 0.21905 0.6543 0.0
H1414 H 0.50991 0.23514 0.68874 0.0
H1415 H 0.5223 0.279 0.66198 0.0
H1416 H 0.52149 0.26426 0.62637 0.0
H1417 H 0.55282 0.28041 0.63984 0.0
H1418 H 0.62225 0.18728 0.63937 0.0
H1419 H 0.60676 0.17113 0.59165 0.0
H1420 H 0.53114 0.22001 0.59969 0.0
C1421 C 0.56873 0.26171 0.70313 0.0
C1422 C 0.59326 0.26274 0.72002 0.0
C1423 C 0.61558 0.24423 0.71369 0.0
C1424 C 0.61419 0.22594 0.69022 0.0
C1425 C 0.59 0.22573 0.67371 0.0
C1426 C 0.56735 0.24262 0.68017 0.0
C1427 C 0.54445 0.23907 0.65788 0.0
C1428 C 0.51964 0.22297 0.67094 0.0
C1429 C 0.53472 0.2673 0.64568 0.0
C1430 C 0.55959 0.221 0.63579 0.0
C1431 C 0.58508 0.21217 0.64634 0.0
C1432 C 0.60251 0.19436 0.63073 0.0
C1433 C 0.59398 0.18583 0.60331 0.0
C1434 C 0.56899 0.196 0.59119 0.0
C1435 C 0.551 0.21294 0.60808 0.0
H1436 H 0.28406 0.63293 0.43568 0.0
H1437 H 0.25053 0.55208 0.46028 0.0
H1438 H 0.25862 0.53488 0.41053 0.0
H1439 H 0.25505 0.63552 0.36527 0.0
H1440 H 0.2853 0.65221 0.3503 0.0
H1441 H 0.27641 0.65782 0.38746 0.0
H1442 H 0.3262 0.64076 0.40183 0.0
H1443 H 0.33457 0.63604 0.36431 0.0
H1444 H 0.33843 0.60732 0.38911 0.0
H1445 H 0.27244 0.52654 0.35787 0.0
H1446 H 0.28786 0.52876 0.30675 0.0
H1447 H 0.31031 0.61575 0.31772 0.0
C1448 C 0.27838 0.61156 0.43076 0.0
C1449 C 0.26677 0.59379 0.45188 0.0
C1450 C 0.25953 0.56603 0.4444 0.0
C1451 C 0.26409 0.5561 0.41625 0.0
C1452 C 0.27588 0.57423 0.39602 0.0
C1453 C 0.28281 0.60138 0.40304 0.0
C1454 C 0.29503 0.61692 0.3777 0.0
C1455 C 0.27678 0.64214 0.36981 0.0
C1456 C 0.32536 0.62577 0.3836 0.0
C1457 C 0.29374 0.59443 0.35497 0.0
C1458 C 0.28295 0.56978 0.36595 0.0
C1459 C 0.28068 0.5458 0.34905 0.0
C1460 C 0.28947 0.54719 0.32017 0.0
C1461 C 0.29974 0.57252 0.30857 0.0
C1462 C 0.30207 0.59632 0.32617 0.0
H1463 H 0.37184 0.78758 0.69611 0.0
H1464 H 0.43919 0.73229 0.66961 0.0
H1465 H 0.44057 0.75525 0.62207 0.0
H1466 H 0.3353 0.78931 0.62948 0.0
H1467 H 0.32669 0.82594 0.63335 0.0
H1468 H 0.33215 0.80481 0.66479 0.0
H1469 H 0.36896 0.84182 0.68062 0.0
H1470 H 0.36352 0.86133 0.64793 0.0
H1471 H 0.39808 0.84943 0.65714 0.0
H1472 H 0.43539 0.78519 0.57744 0.0
H1473 H 0.42036 0.81619 0.53759 0.0
H1474 H 0.35442 0.84973 0.59159 0.0
C1475 C 0.38712 0.7805 0.68046 0.0
C1476 C 0.40555 0.7582 0.68682 0.0
C1477 C 0.42498 0.74944 0.66548 0.0
C1478 C 0.42597 0.7624 0.63835 0.0
C1479 C 0.40747 0.78422 0.63276 0.0
C1480 C 0.38836 0.79316 0.65318 0.0
C1481 C 0.37024 0.81647 0.64136 0.0
C1482 C 0.33923 0.80853 0.6423 0.0
C1483 C 0.37552 0.84388 0.65774 0.0
C1484 C 0.38109 0.81828 0.61066 0.0
C1485 C 0.40325 0.80015 0.60647 0.0
C1486 C 0.41776 0.79911 0.58037 0.0
C1487 C 0.40896 0.81654 0.55778 0.0
C1488 C 0.38541 0.83413 0.56114 0.0
C1489 C 0.37171 0.83546 0.58813 0.0
H1490 H 0.17598 0.88633 0.88548 0.0
H1491 H 0.22087 0.94825 0.83531 0.0
H1492 H 0.25635 0.95167 0.87396 0.0
H1493 H 0.19059 0.91318 0.95747 0.0
H1494 H 0.19538 0.87874 0.97243 0.0
H1495 H 0.17204 0.88381 0.94257 0.0
H1496 H 0.19928 0.8465 0.91298 0.0
H1497 H 0.22239 0.84126 0.94294 0.0
H1498 H 0.23648 0.85036 0.90818 0.0
H1499 H 0.28782 0.94654 0.91733 0.0
H1500 H 0.31449 0.93149 0.95989 0.0
H1501 H 0.25028 0.87041 0.98004 0.0
C1502 C 0.1928 0.90129 0.88302 0.0
C1503 C 0.19529 0.91775 0.85784 0.0
C1504 C 0.21833 0.93598 0.85474 0.0
C1505 C 0.23854 0.93797 0.87654 0.0
C1506 C 0.23562 0.92116 0.90098 0.0
C1507 C 0.21343 0.90297 0.90417 0.0
C1508 C 0.21644 0.88522 0.93103 0.0
C1509 C 0.19217 0.89057 0.95212 0.0
C1510 C 0.21878 0.85399 0.92331 0.0
C1511 C 0.24376 0.89633 0.94267 0.0
C1512 C 0.25435 0.91722 0.92517 0.0
C1513 C 0.27965 0.93028 0.9312 0.0
C1514 C 0.29464 0.92158 0.95551 0.0
C1515 C 0.28451 0.89978 0.97344 0.0
C1516 C 0.25856 0.88722 0.96693 0.0
H1517 H 0.0952 0.74631 0.07162 0.0
H1518 H 0.02386 0.69449 0.09292 0.0
H1519 H 0.023 0.7146 0.14195 0.0
H1520 H 0.12983 0.73129 0.13046 0.0
H1521 H 0.14645 0.76471 0.13553 0.0
H1522 H 0.13577 0.75424 0.10026 0.0
H1523 H 0.10592 0.79922 0.09535 0.0
H1524 H 0.11674 0.81004 0.13076 0.0
H1525 H 0.08009 0.80748 0.12242 0.0
H1526 H 0.036 0.73244 0.19083 0.0
H1527 H 0.0637 0.74236 0.23452 0.0
H1528 H 0.12857 0.77929 0.18165 0.0
C1529 C 0.07847 0.74024 0.08607 0.0
C1530 C 0.05927 0.71921 0.07832 0.0
C1531 C 0.03849 0.71091 0.09831 0.0
C1532 C 0.03781 0.72231 0.12618 0.0
C1533 C 0.05814 0.74188 0.13371 0.0
C1534 C 0.07809 0.75079 0.11408 0.0
C1535 C 0.1011 0.76715 0.1286 0.0
C1536 C 0.12994 0.75351 0.12342 0.0
C1537 C 0.10093 0.7978 0.1187 0.0
C1538 C 0.09194 0.76465 0.15967 0.0
C1539 C 0.06657 0.751 0.1622 0.0
C1540 C 0.0555 0.74375 0.18907 0.0
C1541 C 0.07128 0.74954 0.21379 0.0
C1542 C 0.09804 0.76174 0.21123 0.0
C1543 C 0.1079 0.77034 0.18403 0.0
H1544 H 0.53886 0.12113 0.34467 0.0
H1545 H 0.62364 0.12952 0.37615 0.0
H1546 H 0.64054 0.13563 0.32621 0.0
H1547 H 0.55566 0.07855 0.28701 0.0
H1548 H 0.52986 0.09292 0.26304 0.0
H1549 H 0.52423 0.09419 0.30128 0.0
H1550 H 0.51792 0.14799 0.29843 0.0
H1551 H 0.52373 0.14685 0.26008 0.0
H1552 H 0.54501 0.16907 0.28232 0.0
H1553 H 0.64883 0.1349 0.27148 0.0
H1554 H 0.64739 0.12502 0.21898 0.0
H1555 H 0.55758 0.11569 0.22424 0.0
C1556 C 0.56097 0.12456 0.34123 0.0
C1557 C 0.57981 0.12486 0.36463 0.0
C1558 C 0.60857 0.12965 0.35886 0.0
C1559 C 0.61843 0.13305 0.33043 0.0
C1560 C 0.59931 0.13179 0.30786 0.0
C1561 C 0.57114 0.12773 0.31308 0.0
C1562 C 0.5551 0.12442 0.28529 0.0
C1563 C 0.54037 0.09583 0.2841 0.0
C1564 C 0.53421 0.14852 0.2813 0.0
C1565 C 0.5787 0.12622 0.26356 0.0
C1566 C 0.60406 0.13103 0.27679 0.0
C1567 C 0.629 0.13156 0.26095 0.0
C1568 C 0.62804 0.1261 0.23112 0.0
C1569 C 0.60236 0.1199 0.21762 0.0
C1570 C 0.57743 0.12081 0.234 0.0
H1571 H 0.95968 0.12542 0.45442 0.0
H1572 H 0.87442 0.11205 0.42681 0.0
H1573 H 0.85784 0.11889 0.47696 0.0
H1574 H 0.95566 0.0888 0.51822 0.0
H1575 H 0.97759 0.11217 0.53845 0.0
H1576 H 0.98171 0.10965 0.50009 0.0
H1577 H 0.97421 0.16319 0.49559 0.0
H1578 H 0.96981 0.16579 0.53406 0.0
H1579 H 0.94304 0.17887 0.51044 0.0
H1580 H 0.85187 0.12003 0.532 0.0
H1581 H 0.8576 0.11549 0.58491 0.0
H1582 H 0.94607 0.13207 0.57533 0.0
C1583 C 0.93747 0.1244 0.45887 0.0
C1584 C 0.91835 0.11818 0.43675 0.0
C1585 C 0.88943 0.11703 0.44341 0.0
C1586 C 0.87983 0.12089 0.47184 0.0
C1587 C 0.89934 0.12651 0.49332 0.0
C1588 C 0.92755 0.12865 0.48697 0.0
C1589 C 0.94457 0.13316 0.51392 0.0
C1590 C 0.96613 0.10954 0.5179 0.0
C1591 C 0.95874 0.16197 0.51347 0.0
C1592 C 0.92179 0.13194 0.53661 0.0
C1593 C 0.89574 0.12834 0.52449 0.0
C1594 C 0.87209 0.12353 0.54165 0.0
C1595 C 0.87543 0.1212 0.57174 0.0
C1596 C 0.90221 0.12362 0.58424 0.0
C1597 C 0.92526 0.13044 0.56641 0.0
H1598 H 0.89097 0.41845 0.72015 0.0
H1599 H 0.8924 0.33204 0.69262 0.0
H1600 H 0.88945 0.31678 0.74366 0.0
H1601 H 0.93467 0.40968 0.77871 0.0
H1602 H 0.91708 0.43456 0.80164 0.0
H1603 H 0.91542 0.43834 0.76319 0.0
H1604 H 0.86129 0.4381 0.76582 0.0
H1605 H 0.86282 0.43425 0.80438 0.0
H1606 H 0.84357 0.40938 0.78314 0.0
H1607 H 0.89011 0.31102 0.79843 0.0
H1608 H 0.89873 0.31598 0.85088 0.0
H1609 H 0.89657 0.4061 0.84172 0.0
C1610 C 0.8899 0.39629 0.7248 0.0
C1611 C 0.89136 0.37638 0.70233 0.0
C1612 C 0.8904 0.34759 0.7094 0.0
C1613 C 0.88875 0.33875 0.73829 0.0
C1614 C 0.88753 0.35892 0.75995 0.0
C1615 C 0.88802 0.38715 0.75344 0.0
C1616 C 0.88911 0.4047 0.78053 0.0
C1617 C 0.91564 0.42288 0.78104 0.0
C1618 C 0.86262 0.42267 0.78365 0.0
C1619 C 0.89005 0.38202 0.80329 0.0
C1620 C 0.88868 0.35569 0.79117 0.0
C1621 C 0.8909 0.33158 0.8081 0.0
C1622 C 0.89561 0.33454 0.83792 0.0
C1623 C 0.89834 0.36139 0.85039 0.0
C1624 C 0.89455 0.38527 0.83283 0.0
H1625 H 0.54958 0.3993 0.09822 0.0
H1626 H 0.637 0.42006 0.1085 0.0
H1627 H 0.64549 0.40891 0.05696 0.0
H1628 H 0.56047 0.34109 0.04657 0.0
H1629 H 0.52929 0.3498 1.02688 0.0
H1630 H 0.53115 0.35682 0.06494 0.0
H1631 H 0.51915 0.4089 0.05555 0.0
H1632 H 0.51718 0.40201 1.01758 0.0
H1633 H 0.54034 0.42874 1.03071 0.0
H1634 H 0.64237 0.40116 1.0018 0.0
H1635 H 0.6281 0.39729 0.9507 0.0
H1636 H 0.54369 0.37773 0.97833 0.0
C1637 C 0.57061 0.40111 0.08973 0.0
C1638 C 0.59262 0.41065 0.10736 0.0
C1639 C 0.61986 0.41264 0.09544 0.0
C1640 C 0.62484 0.40636 0.06616 0.0
C1641 C 0.60248 0.39752 0.04918 0.0
C1642 C 0.57597 0.39451 0.0608 0.0
C1643 C 0.55513 0.38588 0.03807 0.0
C1644 C 0.54332 0.35666 0.0445 0.0
C1645 C 0.53158 0.40768 0.03532 0.0
C1646 C 0.57368 0.38551 1.01155 0.0
C1647 C 0.60099 0.39211 1.01821 0.0
C1648 C 0.62114 0.39545 0.99653 0.0
C1649 C 0.6129 0.39298 0.96747 0.0
C1650 C 0.58473 0.38725 0.96027 0.0
C1651 C 0.56538 0.38227 0.9829 0.0
H1652 H 0.04795 0.59815 0.70507 0.0
H1653 H 0.13777 0.60921 0.70052 0.0
H1654 H 0.13817 0.62156 0.75235 0.0
H1655 H 0.03251 0.65192 0.76052 0.0
H1656 H 0.00634 0.63017 0.77725 0.0
H1657 H 0.01268 0.6277 0.73905 0.0
H1658 H 0.02163 0.57446 0.74415 0.0
H1659 H 0.01532 0.57676 0.78222 0.0
H1660 H 0.04775 0.56232 0.76905 0.0
H1661 H 0.12898 0.62663 0.80666 0.0
H1662 H 0.11188 0.62143 0.85683 0.0
H1663 H 0.02861 0.60476 0.8251 0.0
C1664 C 0.06774 0.60355 0.71478 0.0
C1665 C 0.09287 0.60257 0.69863 0.0
C1666 C 0.11819 0.61009 0.71226 0.0
C1667 C 0.1186 0.61706 0.74176 0.0
C1668 C 0.09348 0.61665 0.75727 0.0
C1669 C 0.06851 0.61016 0.74406 0.0
C1670 C 0.04482 0.60802 0.76565 0.0
C1671 C 0.02279 0.63082 0.76029 0.0
C1672 C 0.03163 0.57865 0.76524 0.0
C1673 C 0.06041 0.61329 0.79335 0.0
C1674 C 0.08835 0.61887 0.78818 0.0
C1675 C 0.10707 0.62268 0.81082 0.0
C1676 C 0.09716 0.61985 0.83928 0.0
C1677 C 0.06888 0.61284 0.84484 0.0
C1678 C 0.05027 0.61034 0.82149 0.0
H1679 H 0.41305 0.61986 0.09169 0.0
H1680 H 0.32303 0.6147 0.10097 0.0
H1681 H 0.31789 0.62275 0.04857 0.0
H1682 H 0.41402 0.67259 1.03216 0.0
H1683 H 0.44356 0.65584 1.01518 0.0
H1684 H 0.4396 0.65469 0.05378 0.0
H1685 H 0.44234 0.60054 0.05238 0.0
H1686 H 0.44625 0.60153 1.01393 0.0
H1687 H 0.41838 0.58145 1.02995 0.0
H1688 H 0.3234 0.6232 0.99408 0.0
H1689 H 0.3389 0.61731 0.94338 0.0
H1690 H 0.42513 0.62275 0.97029 0.0
C1691 C 0.39221 0.62084 0.08278 0.0
C1692 C 0.36845 0.61642 0.10038 0.0
C1693 C 0.34153 0.61817 0.08794 0.0
C1694 C 0.33843 0.62272 0.05818 0.0
C1695 C 0.36244 0.62589 0.04127 0.0
C1696 C 0.3888 0.62536 0.05328 0.0
C1697 C 0.41141 0.62683 1.03043 0.0
C1698 C 0.42813 0.65411 0.03305 0.0
C1699 C 0.43071 0.60106 1.03176 0.0
C1700 C 0.39378 0.62678 1.0035 0.0
C1701 C 0.36555 0.62676 1.01009 0.0
C1702 C 0.34539 0.62412 0.98865 0.0
C1703 C 0.35433 0.62097 0.95992 0.0
C1704 C 0.38313 0.62043 0.95295 0.0
C1705 C 0.40297 0.62385 0.97502 0.0
H1706 H 0.42461 0.88523 0.23123 0.0
H1707 H 0.34697 0.91495 0.19476 0.0
H1708 H 0.32604 0.9169 0.24369 0.0
H1709 H 0.39194 0.84396 0.29244 0.0
H1710 H 0.41999 0.85336 0.31626 0.0
H1711 H 0.42666 0.84932 0.27825 0.0
H1712 H 0.44723 0.89943 0.27651 0.0
H1713 H 0.44039 0.90371 0.31431 0.0
H1714 H 0.42624 0.92839 0.28892 0.0
H1715 H 0.31705 0.92417 0.29749 0.0
H1716 H 0.32019 0.93343 0.34979 0.0
H1717 H 0.40276 0.8967 0.35117 0.0
C1718 C 0.40291 0.89133 0.23347 0.0
C1719 C 0.38737 0.89988 0.20915 0.0
C1720 C 0.35913 0.90796 0.21299 0.0
C1721 C 0.34714 0.90923 0.24076 0.0
C1722 C 0.36349 0.90184 0.26445 0.0
C1723 C 0.39065 0.89248 0.26094 0.0
C1724 C 0.40468 0.88793 0.28978 0.0
C1725 C 0.4112 0.85679 0.29445 0.0
C1726 C 0.43118 0.90594 0.29252 0.0
C1727 C 0.38186 0.89774 0.31012 0.0
C1728 C 0.35804 0.90524 0.29523 0.0
C1729 C 0.33523 0.91741 0.30936 0.0
C1730 C 0.33698 0.92226 0.33921 0.0
C1731 C 0.36118 0.91472 0.35478 0.0
C1732 C 0.38371 0.90203 0.33994 0.0
H1733 H 0.05292 0.88081 0.44678 0.0
H1734 H 0.13998 0.85901 0.43386 0.0
H1735 H 0.14482 0.85053 0.48625 0.0
H1736 H 0.06262 0.9203 0.50683 0.0
H1737 H 0.03065 0.9103 0.52472 0.0
H1738 H 0.0329 0.90909 0.48614 0.0
H1739 H 0.01871 0.85678 0.48681 0.0
H1740 H 0.0163 0.85786 0.52552 0.0
H1741 H 0.03843 0.83234 0.50818 0.0
H1742 H 0.14148 0.85165 0.5414 0.0
H1743 H 0.13026 0.86267 0.59242 0.0
H1744 H 0.04571 0.88415 0.56795 0.0
C1745 C 0.07286 0.87361 0.45488 0.0
C1746 C 0.09606 0.87055 0.43629 0.0
C1747 C 0.12182 0.86115 0.44769 0.0
C1748 C 0.12476 0.85635 0.47743 0.0
C1749 C 0.10164 0.86071 0.49536 0.0
C1750 C 0.07609 0.86885 0.48432 0.0
C1751 C 0.05518 0.87501 0.50795 0.0
C1752 C 0.04475 0.90547 0.5063 0.0
C1753 C 0.03071 0.85425 0.50706 0.0
C1754 C 0.07316 0.87025 0.53412 0.0
C1755 C 0.09978 0.86151 0.52665 0.0
C1756 C 0.12054 0.85797 0.54743 0.0
C1757 C 0.11402 0.86419 0.57635 0.0
C1758 C 0.08714 0.8742 0.58398 0.0
C1759 C 0.06639 0.87641 0.56265 0.0
H1760 H 0.54195 0.05472 0.12428 0.0
H1761 H 0.59721 0.0209 0.1893 0.0
H1762 H 0.56812 0.97838 0.1923 0.0
H1763 H 0.48032 0.0332 0.15562 0.0
H1764 H 0.46246 0.02445 0.12278 0.0
H1765 H 0.48966 0.05035 0.12238 0.0
H1766 H 0.51636 0.02258 0.08306 0.0
H1767 H 0.48903 0.99669 0.08305 0.0
H1768 H 0.52474 0.9863 0.08908 0.0
H1769 H 0.52998 0.94291 0.19313 0.0
H1770 H 0.4865 0.9153 0.18964 0.0
H1771 H 0.45623 0.97127 0.12329 0.0
C1772 C 0.54845 0.03791 0.13837 0.0
C1773 C 0.57192 0.04098 0.15645 0.0
C1774 C 0.5793 0.01892 0.17529 0.0
C1775 C 0.56296 0.99469 0.17707 0.0
C1776 C 0.53941 0.99272 0.1597 0.0
C1777 C 0.53233 0.01355 0.14042 0.0
C1778 C 0.50477 0.00716 0.12585 0.0
C1779 C 0.48303 0.03016 0.13204 0.0
C1780 C 0.50899 0.00292 0.09333 0.0
C1781 C 0.49706 0.97998 0.14063 0.0
C1782 C 0.51743 0.97194 0.15994 0.0
C1783 C 0.51412 0.94869 0.1777 0.0
C1784 C 0.48933 0.93326 0.17572 0.0
C1785 C 0.4682 0.9411 0.15608 0.0
C1786 C 0.47231 0.96456 0.1381 0.0
H1787 H 0.95783 0.03115 0.35187 0.0
H1788 H 0.01313 0.08959 0.3942 0.0
H1789 H 0.05111 0.05446 0.39292 0.0
H1790 H 0.98051 0.97166 0.39081 0.0
H1791 H 0.97766 0.94747 0.36123 0.0
H1792 H 0.95581 0.97811 0.3624 0.0
H1793 H 0.97393 0.99277 0.31201 0.0
H1794 H 0.99592 0.96216 0.31073 0.0
H1795 H 0.01098 0.99637 0.30593 0.0
H1796 H 0.082 0.01234 0.39026 0.0
H1797 H 0.10315 0.96519 0.38869 0.0
H1798 H 0.02823 0.93255 0.34912 0.0
C1799 C 0.97816 0.03663 0.36026 0.0
C1800 C 0.98277 0.06324 0.37274 0.0
C1801 C 0.00933 0.06945 0.38431 0.0
C1802 C 0.03101 0.04964 0.38361 0.0
C1803 C 0.02581 0.0235 0.37146 0.0
C1804 C 2e-05 0.01684 0.3601 0.0
C1805 C -0.0006 0.98641 0.35048 0.0
C1806 C 0.97702 0.96995 0.36723 0.0
C1807 C 0.99479 0.98431 0.31784 0.0
C1808 C 0.02871 0.97694 0.35855 0.0
C1809 C 0.04363 -0.00115 0.37032 0.0
C1810 C 0.07065 0.99515 0.38075 0.0
C1811 C 0.08255 0.96834 0.37968 0.0
C1812 C 0.06758 0.94542 0.36827 0.0
C1813 C 0.04041 0.94988 0.35721 0.0
H1814 H 0.0213 0.5474 0.66088 0.0
H1815 H 0.07826 0.51314 0.59683 0.0
H1816 H 0.046 0.4736 0.58935 0.0
H1817 H 0.00409 0.48176 0.69317 0.0
H1818 H 0.96828 0.49123 0.70039 0.0
H1819 H 0.99483 0.51785 0.69914 0.0
H1820 H 0.96678 0.54452 0.66026 0.0
H1821 H 0.94012 0.51799 0.66138 0.0
H1822 H 0.95684 0.52669 0.6277 0.0
H1823 H 0.00769 0.43703 0.58966 0.0
H1824 H 0.96741 0.40589 0.59877 0.0
H1825 H 0.93717 0.4627 0.66471 0.0
C1826 C 0.02727 0.53155 0.6454 0.0
C1827 C 0.05254 0.53361 0.62946 0.0
C1828 C 0.05894 0.51249 0.60902 0.0
C1829 C 0.0408 0.48978 0.60475 0.0
C1830 C 0.01636 0.4883 0.62117 0.0
C1831 C 0.00966 0.50859 0.64117 0.0
C1832 C 0.98269 0.50166 0.65687 0.0
C1833 C 0.98779 0.4979 0.68931 0.0
C1834 C 0.96029 0.52405 0.6512 0.0
C1835 C 0.97525 0.47418 0.64267 0.0
C1836 C 0.9948 0.46695 0.62194 0.0
C1837 C 0.99227 0.44253 0.60582 0.0
C1838 C 0.96926 0.42503 0.61106 0.0
C1839 C 0.94913 0.43186 0.63242 0.0
C1840 C 0.95231 0.45681 0.64839 0.0
H1841 H 0.46073 0.55771 0.92539 0.0
H1842 H 0.40394 0.53467 0.85689 0.0
H1843 H 0.42742 0.48885 0.85247 0.0
H1844 H 0.52128 0.52639 0.89524 0.0
H1845 H 0.53503 0.51493 0.92932 0.0
H1846 H 0.51293 0.54535 0.9277 0.0
H1847 H 0.47954 0.52306 0.96536 0.0
H1848 H 0.50147 0.49246 0.96693 0.0
H1849 H 0.46492 0.489 0.95853 0.0
H1850 H 0.458 0.44616 0.85462 0.0
H1851 H 0.49458 0.41031 0.86228 0.0
H1852 H 0.53096 0.46182 0.9292 0.0
C1853 C 0.45308 0.5429 0.90967 0.0
C1854 C 0.43064 0.54969 0.89141 0.0
C1855 C 0.4214 0.52996 0.87081 0.0
C1856 C 0.43441 0.50383 0.86832 0.0
C1857 C 0.45652 0.49779 0.88664 0.0
C1858 C 0.46582 0.51678 0.90688 0.0
C1859 C 0.49063 0.50558 0.92323 0.0
C1860 C 0.51649 0.52416 0.91857 0.0
C1861 C 0.48371 0.50234 0.95542 0.0
C1862 C 0.49404 0.47748 0.90879 0.0
C1863 C 0.47406 0.47324 0.8879 0.0
C1864 C 0.47366 0.44914 0.87104 0.0
C1865 C 0.49451 0.42899 0.87546 0.0
C1866 C 0.51539 0.4332 0.89649 0.0
C1867 C 0.51488 0.45767 0.91346 0.0
H1868 H 0.54027 0.49427 0.1404 0.0
H1869 H 0.51606 0.44094 0.21186 0.0
H1870 H 0.47396 0.46983 0.21972 0.0
H1871 H 0.51621 0.55961 0.17185 0.0
H1872 H 0.504 0.5735 0.13811 0.0
H1873 H 0.5327 0.5491 0.1386 0.0
H1874 H 0.50606 0.51675 0.10347 0.0
H1875 H 0.47728 0.54104 0.10292 0.0
H1876 H 0.47136 0.50507 0.11276 0.0
H1877 H 0.43308 0.50352 0.21854 0.0
H1878 H 0.39738 0.53951 0.20881 0.0
H1879 H 0.44885 0.572 0.13918 0.0
C1880 C 0.52613 0.48864 0.15771 0.0
C1881 C 0.53173 0.46532 0.17562 0.0
C1882 C 0.51264 0.45891 0.19813 0.0
C1883 C 0.48851 0.47513 0.20268 0.0
C1884 C 0.48362 0.49788 0.18462 0.0
C1885 C 0.50196 0.50472 0.16266 0.0
C1886 C 0.49168 0.53012 0.14618 0.0
C1887 C 0.51238 0.55453 0.14886 0.0
C1888 C 0.48627 0.5228 0.11446 0.0
C1889 C 0.46458 0.53628 0.1621 0.0
C1890 C 0.46031 0.51746 0.1842 0.0
C1891 C 0.43637 0.51854 0.20144 0.0
C1892 C 0.41624 0.53928 0.19586 0.0
C1893 C 0.42004 0.55888 0.17324 0.0
C1894 C 0.44485 0.55729 0.15641 0.0
H1895 H 0.49249 0.07802 0.3951 0.0
H1896 H 0.54254 0.04718 0.46609 0.0
H1897 H 0.5086 0.00931 0.47428 0.0
H1898 H 0.42515 0.06303 0.4259 0.0
H1899 H 0.41002 0.05202 0.39231 0.0
H1900 H 0.43788 0.0773 0.39239 0.0
H1901 H 0.46693 0.04592 0.35795 0.0
H1902 H 0.43909 0.02064 0.35762 0.0
H1903 H 0.47384 0.01013 0.36781 0.0
H1904 H 0.46934 0.97454 0.47475 0.0
H1905 H 0.42877 0.94388 0.46545 0.0
H1906 H 0.40492 0.99685 0.3938 0.0
C1907 C 0.4964 0.06322 0.41226 0.0
C1908 C 0.52 0.06586 0.43019 0.0
C1909 C 0.52427 0.04605 0.45248 0.0
C1910 C 0.5052 0.02433 0.45723 0.0
C1911 C 0.48201 0.02255 0.4394 0.0
C1912 C 0.47763 0.04131 0.41723 0.0
C1913 C 0.45137 0.03428 0.40075 0.0
C1914 C 0.42983 0.05807 0.40299 0.0
C1915 C 0.45823 0.02732 0.36917 0.0
C1916 C 0.44177 0.00861 0.41709 0.0
C1917 C 0.45962 0.00226 0.43941 0.0
C1918 C 0.45515 0.97932 0.45736 0.0
C1919 C 0.43199 0.96214 0.45206 0.0
C1920 C 0.41376 0.96798 0.42892 0.0
C1921 C 0.41865 0.99173 0.4115 0.0
H1922 H 0.01494 0.93933 0.67005 0.0
H1923 H 0.08238 0.97184 0.61716 0.0
H1924 H 0.05981 0.01835 0.61709 0.0
H1925 H 0.96152 0.97356 0.63462 0.0
H1926 H 0.94052 0.98048 0.66614 0.0
H1927 H 0.96384 0.95099 0.6656 0.0
H1928 H 0.98791 0.96912 0.71182 0.0
H1929 H 0.96457 -0.00127 0.71254 0.0
H1930 H 0.00183 0.00412 0.71254 0.0
H1931 H 0.0281 0.0592 0.61845 0.0
H1932 H 0.98832 0.09203 0.61996 0.0
H1933 H 0.94106 0.03314 0.67179 0.0
C1934 C 0.02526 0.95648 0.65912 0.0
C1935 C 0.05041 0.95226 0.64377 0.0
C1936 C 0.06305 0.97483 0.62899 0.0
C1937 C 0.05052 0.00128 0.62903 0.0
C1938 C 0.02546 0.00468 0.644 0.0
C1939 C 0.01294 0.98295 0.65881 0.0
C1940 C 0.98473 0.99146 0.67082 0.0
C1941 C 0.96128 0.97303 0.65855 0.0
C1942 C 0.98478 0.99082 0.7039 0.0
C1943 C 0.98294 0.02109 0.65962 0.0
C1944 C 0.00686 0.0284 0.64459 0.0
C1945 C 0.00943 0.05392 0.63049 0.0
C1946 C 0.98673 0.07231 0.63133 0.0
C1947 C 0.96181 0.06496 0.64601 0.0
C1948 C 0.96011 0.03932 0.66085 0.0
H1949 H 0.9957 0.54488 0.93401 0.0
H1950 H 0.06684 0.52195 0.88083 0.0
H1951 H 0.05228 0.47254 0.88246 0.0
H1952 H 0.99423 0.48008 0.9785 0.0
H1953 H 0.95659 0.47889 0.97916 0.0
H1954 H 0.97432 0.51206 0.97693 0.0
H1955 H 0.94685 0.52417 0.93064 0.0
H1956 H 0.92898 0.49118 0.93283 0.0
H1957 H 0.94793 0.50037 0.90057 0.0
H1958 H 0.0279 0.4271 0.88521 0.0
H1959 H 0.99399 0.38823 0.88786 0.0
H1960 H 0.93858 0.43953 0.93968 0.0
C1961 C 0.0084 0.52929 0.92323 0.0
C1962 C 0.03232 0.53709 0.90724 0.0
C1963 C 0.04829 0.51632 0.89297 0.0
C1964 C 0.04034 0.48821 0.89399 0.0
C1965 C 0.01641 0.48117 0.90948 0.0
C1966 C 0.00062 0.50103 0.92387 0.0
C1967 C 0.97451 0.48809 0.93679 0.0
C1968 C 0.97495 0.48989 0.96981 0.0
C1969 C 0.94801 0.50176 0.92446 0.0
C1970 C 0.97772 0.45812 0.92664 0.0
C1971 C 0.00227 0.45455 0.91126 0.0
C1972 C 0.00887 0.42941 0.89768 0.0
C1973 C 0.98958 0.40749 0.89928 0.0
C1974 C 0.96408 0.41088 0.91438 0.0
C1975 C 0.95836 0.43627 0.92875 0.0
loop_
_geom_bond_atom_site_label_1
_geom_bond_atom_site_label_2
_geom_bond_distance
_geom_bond_site_symmetry_2
_ccdc_geom_bond_type
O0 Tb1 2.292 1_556 S
O0 C3 1.255 . S
Tb1 O0 2.292 1_554 S
Tb1 O17 2.326 . S
Tb1 O19 2.500 1_554 S
Tb1 O20 2.473 . S
Tb1 O23 2.324 . S
Eu2 O6 2.292 . S
Eu2 C7 2.852 . S
Eu2 O18 2.324 . S
Eu2 O22 2.326 . S
Eu2 O24 2.500 . S
Eu2 O25 2.473 . S
C3 O0 1.255 . S
C3 O4 1.247 . S
O4 C3 1.247 . S
C5 O17 1.242 . S
C5 O18 1.258 . S
O6 Eu2 2.292 . S
O6 C8 1.255 . S
C7 Eu2 2.852 . S
C7 C11 1.503 . S
C7 O24 1.273 . S
C7 O25 1.257 . S
C8 O6 1.255 . S
C8 O9 1.247 . S
O9 C8 1.247 . S
C10 O22 1.242 . S
C10 O23 1.258 . S
C11 C7 1.503 . S
C11 C12 1.379 . S
C11 C16 1.392 . S
C12 C11 1.379 . S
C12 C13 1.404 . S
C12 H26 0.929 . S
C13 C12 1.404 . S
C13 C14 1.389 . S
C14 C13 1.389 . S
C14 C15 1.399 . S
C14 H27 0.931 . S
C15 C14 1.399 . S
C15 C16 1.390 . S
C16 C11 1.392 . S
C16 C15 1.390 . S
C16 H28 0.929 . S
O17 Tb1 2.326 . S
O17 C5 1.242 . S
O18 Eu2 2.324 . S
O18 C5 1.258 . S
O19 Tb1 2.500 1_556 S
O19 C21 1.273 1_556 S
O20 Tb1 2.473 . S
O20 C21 1.257 . S
C21 O19 1.273 1_554 S
C21 O20 1.257 . S
O22 Eu2 2.326 . S
O22 C10 1.242 . S
O23 Tb1 2.324 . S
O23 C10 1.258 . S
O24 Eu2 2.500 . S
O24 C7 1.273 . S
O25 Eu2 2.473 . S
O25 C7 1.257 . S
H26 C12 0.929 . S
H27 C14 0.931 . S
H28 C16 0.929 . S
O29 Tb30 2.292 . S
O29 C32 1.255 . S
Tb30 O29 2.292 . S
Tb30 O46 2.326 . S
Tb30 O48 2.500 . S
Tb30 O49 2.473 . S
Tb30 O52 2.324 . S
Eu31 O35 2.292 . S
Eu31 C36 2.852 . S
Eu31 O47 2.324 . S
Eu31 O51 2.326 . S
Eu31 O53 2.500 . S
Eu31 O54 2.473 . S
C32 O29 1.255 . S
C32 O33 1.247 . S
O33 C32 1.247 . S
C34 O46 1.242 . S
C34 O47 1.258 . S
O35 Eu31 2.292 . S
O35 C37 1.255 . S
C36 Eu31 2.852 . S
C36 C40 1.503 . S
C36 O53 1.273 . S
C36 O54 1.257 . S
C37 O35 1.255 . S
C37 O38 1.247 . S
O38 C37 1.247 . S
C39 O51 1.242 . S
C39 O52 1.258 . S
C40 C36 1.503 . S
C40 C41 1.379 . S
C40 C45 1.392 . S
C41 C40 1.379 . S
C41 C42 1.404 . S
C41 H55 0.929 . S
C42 C41 1.404 . S
C42 C43 1.389 . S
C43 C42 1.389 . S
C43 C44 1.399 . S
C43 H56 0.931 . S
C44 C43 1.399 . S
C44 C45 1.390 . S
C45 C40 1.392 . S
C45 C44 1.390 . S
C45 H57 0.929 . S
O46 Tb30 2.326 . S
O46 C34 1.242 . S
O47 Eu31 2.324 . S
O47 C34 1.258 . S
O48 Tb30 2.500 . S
O48 C50 1.273 . S
O49 Tb30 2.473 . S
O49 C50 1.257 . S
C50 O48 1.273 . S
C50 O49 1.257 . S
O51 Eu31 2.326 . S
O51 C39 1.242 . S
O52 Tb30 2.324 . S
O52 C39 1.258 . S
O53 Eu31 2.500 . S
O53 C36 1.273 . S
O54 Eu31 2.473 . S
O54 C36 1.257 . S
H55 C41 0.929 . S
H56 C43 0.931 . S
H57 C45 0.929 . S
O58 Tb59 2.292 . S
O58 C61 1.255 . S
Tb59 O58 2.292 . S
Tb59 O75 2.326 . S
Tb59 O77 2.500 . S
Tb59 O78 2.473 . S
Tb59 O81 2.324 . S
Eu60 O64 2.292 . S
Eu60 C65 2.852 . S
Eu60 O76 2.324 . S
Eu60 O80 2.326 . S
Eu60 O82 2.500 . S
Eu60 O83 2.473 . S
C61 O58 1.255 . S
C61 O62 1.247 . S
O62 C61 1.247 . S
C63 O75 1.242 . S
C63 O76 1.258 . S
O64 Eu60 2.292 . S
O64 C66 1.255 . S
C65 Eu60 2.852 . S
C65 C69 1.503 . S
C65 O82 1.273 . S
C65 O83 1.257 . S
C66 O64 1.255 . S
C66 O67 1.247 . S
O67 C66 1.247 . S
C68 O80 1.242 . S
C68 O81 1.258 . S
C69 C65 1.503 . S
C69 C70 1.379 . S
C69 C74 1.392 . S
C70 C69 1.379 . S
C70 C71 1.404 . S
C70 H84 0.929 . S
C71 C70 1.404 . S
C71 C72 1.389 . S
C72 C71 1.389 . S
C72 C73 1.399 . S
C72 H85 0.931 . S
C73 C72 1.399 . S
C73 C74 1.390 . S
C74 C69 1.392 . S
C74 C73 1.390 . S
C74 H86 0.929 . S
O75 Tb59 2.326 . S
O75 C63 1.242 . S
O76 Eu60 2.324 . S
O76 C63 1.258 . S
O77 Tb59 2.500 . S
O77 C79 1.273 . S
O78 Tb59 2.473 . S
O78 C79 1.257 . S
C79 O77 1.273 . S
C79 O78 1.257 . S
O80 Eu60 2.326 . S
O80 C68 1.242 . S
O81 Tb59 2.324 . S
O81 C68 1.258 . S
O82 Eu60 2.500 . S
O82 C65 1.273 . S
O83 Eu60 2.473 . S
O83 C65 1.257 . S
H84 C70 0.929 . S
H85 C72 0.931 . S
H86 C74 0.929 . S
O87 Tb88 2.292 . S
O87 C90 1.255 . S
Tb88 O87 2.292 . S
Tb88 O104 2.326 . S
Tb88 O106 2.500 . S
Tb88 O107 2.473 . S
Tb88 O110 2.324 . S
Eu89 O93 2.292 . S
Eu89 C94 2.852 . S
Eu89 O105 2.324 . S
Eu89 O109 2.326 . S
Eu89 O111 2.500 . S
Eu89 O112 2.473 . S
C90 O87 1.255 . S
C90 O91 1.247 . S
O91 C90 1.247 . S
C92 O104 1.242 . S
C92 O105 1.258 . S
O93 Eu89 2.292 . S
O93 C95 1.255 . S
C94 Eu89 2.852 . S
C94 C98 1.503 . S
C94 O111 1.273 . S
C94 O112 1.257 . S
C95 O93 1.255 . S
C95 O96 1.247 . S
O96 C95 1.247 . S
C97 O109 1.242 . S
C97 O110 1.258 . S
C98 C94 1.503 . S
C98 C99 1.379 . S
C98 C103 1.392 . S
C99 C98 1.379 . S
C99 C100 1.404 . S
C99 H113 0.929 . S
C100 C99 1.404 . S
C100 C101 1.389 . S
C101 C100 1.389 . S
C101 C102 1.399 . S
C101 H114 0.931 . S
C102 C101 1.399 . S
C102 C103 1.390 . S
C103 C98 1.392 . S
C103 C102 1.390 . S
C103 H115 0.929 . S
O104 Tb88 2.326 . S
O104 C92 1.242 . S
O105 Eu89 2.324 . S
O105 C92 1.258 . S
O106 Tb88 2.500 . S
O106 C108 1.273 . S
O107 Tb88 2.473 . S
O107 C108 1.257 . S
C108 O106 1.273 . S
C108 O107 1.257 . S
O109 Eu89 2.326 . S
O109 C97 1.242 . S
O110 Tb88 2.324 . S
O110 C97 1.258 . S
O111 Eu89 2.500 . S
O111 C94 1.273 . S
O112 Eu89 2.473 . S
O112 C94 1.257 . S
H113 C99 0.929 . S
H114 C101 0.931 . S
H115 C103 0.929 . S
O116 Tb117 2.292 . S
O116 C119 1.255 . S
Tb117 O116 2.292 . S
Tb117 O133 2.326 . S
Tb117 O135 2.500 . S
Tb117 O136 2.473 . S
Tb117 O139 2.324 . S
Eu118 O122 2.292 . S
Eu118 C123 2.852 . S
Eu118 O134 2.324 . S
Eu118 O138 2.326 . S
Eu118 O140 2.500 . S
Eu118 O141 2.473 . S
C119 O116 1.255 . S
C119 O120 1.247 . S
O120 C119 1.247 . S
C121 O133 1.242 . S
C121 O134 1.258 . S
O122 Eu118 2.292 . S
O122 C124 1.255 . S
C123 Eu118 2.852 . S
C123 C127 1.503 . S
C123 O140 1.273 . S
C123 O141 1.257 . S
C124 O122 1.255 . S
C124 O125 1.247 . S
O125 C124 1.247 . S
C126 O138 1.242 . S
C126 O139 1.258 . S
C127 C123 1.503 . S
C127 C128 1.379 . S
C127 C132 1.392 . S
C128 C127 1.379 . S
C128 C129 1.404 . S
C128 H142 0.929 . S
C129 C128 1.404 . S
C129 C130 1.389 . S
C130 C129 1.389 . S
C130 C131 1.399 . S
C130 H143 0.931 . S
C131 C130 1.399 . S
C131 C132 1.390 . S
C132 C127 1.392 . S
C132 C131 1.390 . S
C132 H144 0.929 . S
O133 Tb117 2.326 . S
O133 C121 1.242 . S
O134 Eu118 2.324 . S
O134 C121 1.258 . S
O135 Tb117 2.500 . S
O135 C137 1.273 . S
O136 Tb117 2.473 . S
O136 C137 1.257 . S
C137 O135 1.273 . S
C137 O136 1.257 . S
O138 Eu118 2.326 . S
O138 C126 1.242 . S
O139 Tb117 2.324 . S
O139 C126 1.258 . S
O140 Eu118 2.500 . S
O140 C123 1.273 . S
O141 Eu118 2.473 . S
O141 C123 1.257 . S
H142 C128 0.929 . S
H143 C130 0.931 . S
H144 C132 0.929 . S
O145 Tb146 2.292 . S
O145 C148 1.255 . S
Tb146 O145 2.292 . S
Tb146 O162 2.326 . S
Tb146 O164 2.500 . S
Tb146 O165 2.473 . S
Tb146 O168 2.324 . S
Eu147 O151 2.292 . S
Eu147 C152 2.852 . S
Eu147 O163 2.324 . S
Eu147 O167 2.326 . S
Eu147 O169 2.500 . S
Eu147 O170 2.473 . S
C148 O145 1.255 . S
C148 O149 1.247 . S
O149 C148 1.247 . S
C150 O162 1.242 . S
C150 O163 1.258 . S
O151 Eu147 2.292 . S
O151 C153 1.255 . S
C152 Eu147 2.852 . S
C152 C156 1.503 . S
C152 O169 1.273 . S
C152 O170 1.257 . S
C153 O151 1.255 . S
C153 O154 1.247 . S
O154 C153 1.247 . S
C155 O167 1.242 . S
C155 O168 1.258 . S
C156 C152 1.503 . S
C156 C157 1.379 . S
C156 C161 1.392 . S
C157 C156 1.379 . S
C157 C158 1.404 . S
C157 H171 0.929 . S
C158 C157 1.404 . S
C158 C159 1.389 . S
C159 C158 1.389 . S
C159 C160 1.399 . S
C159 H172 0.931 . S
C160 C159 1.399 . S
C160 C161 1.390 . S
C161 C156 1.392 . S
C161 C160 1.390 . S
C161 H173 0.929 . S
O162 Tb146 2.326 . S
O162 C150 1.242 . S
O163 Eu147 2.324 . S
O163 C150 1.258 . S
O164 Tb146 2.500 . S
O164 C166 1.273 . S
O165 Tb146 2.473 . S
O165 C166 1.257 . S
C166 O164 1.273 . S
C166 O165 1.257 . S
O167 Eu147 2.326 . S
O167 C155 1.242 . S
O168 Tb146 2.324 . S
O168 C155 1.258 . S
O169 Eu147 2.500 . S
O169 C152 1.273 . S
O170 Eu147 2.473 . S
O170 C152 1.257 . S
H171 C157 0.929 . S
H172 C159 0.931 . S
H173 C161 0.929 . S
O174 Tb175 2.292 . S
O174 C177 1.255 . S
Tb175 O174 2.292 . S
Tb175 O191 2.326 . S
Tb175 O193 2.500 . S
Tb175 O194 2.473 . S
Tb175 O197 2.324 . S
Eu176 O180 2.292 . S
Eu176 C181 2.852 . S
Eu176 O192 2.324 . S
Eu176 O196 2.326 . S
Eu176 O198 2.500 . S
Eu176 O199 2.473 . S
C177 O174 1.255 . S
C177 O178 1.247 . S
O178 C177 1.247 . S
C179 O191 1.242 . S
C179 O192 1.258 . S
O180 Eu176 2.292 . S
O180 C182 1.255 . S
C181 Eu176 2.852 . S
C181 C185 1.503 . S
C181 O198 1.273 . S
C181 O199 1.257 . S
C182 O180 1.255 . S
C182 O183 1.247 . S
O183 C182 1.247 . S
C184 O196 1.242 . S
C184 O197 1.258 . S
C185 C181 1.503 . S
C185 C186 1.379 . S
C185 C190 1.392 . S
C186 C185 1.379 . S
C186 C187 1.404 . S
C186 H200 0.929 . S
C187 C186 1.404 . S
C187 C188 1.389 . S
C188 C187 1.389 . S
C188 C189 1.399 . S
C188 H201 0.931 . S
C189 C188 1.399 . S
C189 C190 1.390 . S
C190 C185 1.392 . S
C190 C189 1.390 . S
C190 H202 0.929 . S
O191 Tb175 2.326 . S
O191 C179 1.242 . S
O192 Eu176 2.324 . S
O192 C179 1.258 . S
O193 Tb175 2.500 . S
O193 C195 1.273 . S
O194 Tb175 2.473 . S
O194 C195 1.257 . S
C195 O193 1.273 . S
C195 O194 1.257 . S
O196 Eu176 2.326 . S
O196 C184 1.242 . S
O197 Tb175 2.324 . S
O197 C184 1.258 . S
O198 Eu176 2.500 . S
O198 C181 1.273 . S
O199 Eu176 2.473 . S
O199 C181 1.257 . S
H200 C186 0.929 . S
H201 C188 0.931 . S
H202 C190 0.929 . S
O203 Tb204 2.292 1_554 S
O203 C206 1.255 . S
Tb204 O203 2.292 1_556 S
Tb204 O220 2.326 . S
Tb204 O222 2.500 1_556 S
Tb204 O223 2.473 . S
Tb204 O226 2.324 . S
Eu205 O209 2.292 . S
Eu205 C210 2.852 . S
Eu205 O221 2.324 . S
Eu205 O225 2.326 . S
Eu205 O227 2.500 . S
Eu205 O228 2.473 . S
C206 O203 1.255 . S
C206 O207 1.247 . S
O207 C206 1.247 . S
C208 O220 1.242 . S
C208 O221 1.258 . S
O209 Eu205 2.292 . S
O209 C211 1.255 . S
C210 Eu205 2.852 . S
C210 C214 1.503 . S
C210 O227 1.273 . S
C210 O228 1.257 . S
C211 O209 1.255 . S
C211 O212 1.247 . S
O212 C211 1.247 . S
C213 O225 1.242 . S
C213 O226 1.258 . S
C214 C210 1.503 . S
C214 C215 1.379 . S
C214 C219 1.392 . S
C215 C214 1.379 . S
C215 C216 1.404 . S
C215 H229 0.929 . S
C216 C215 1.404 . S
C216 C217 1.389 . S
C217 C216 1.389 . S
C217 C218 1.399 . S
C217 H230 0.931 . S
C218 C217 1.399 . S
C218 C219 1.390 . S
C219 C214 1.392 . S
C219 C218 1.390 . S
C219 H231 0.929 . S
O220 Tb204 2.326 . S
O220 C208 1.242 . S
O221 Eu205 2.324 . S
O221 C208 1.258 . S
O222 Tb204 2.500 1_554 S
O222 C224 1.273 1_554 S
O223 Tb204 2.473 . S
O223 C224 1.257 . S
C224 O222 1.273 1_556 S
C224 O223 1.257 . S
O225 Eu205 2.326 . S
O225 C213 1.242 . S
O226 Tb204 2.324 . S
O226 C213 1.258 . S
O227 Eu205 2.500 . S
O227 C210 1.273 . S
O228 Eu205 2.473 . S
O228 C210 1.257 . S
H229 C215 0.929 . S
H230 C217 0.931 . S
H231 C219 0.929 . S
O232 Tb233 2.292 . S
O232 C235 1.255 . S
Tb233 O232 2.292 . S
Tb233 O249 2.326 . S
Tb233 O251 2.500 . S
Tb233 O252 2.473 . S
Tb233 O255 2.324 . S
Eu234 O238 2.292 . S
Eu234 C239 2.852 . S
Eu234 O250 2.324 . S
Eu234 O254 2.326 . S
Eu234 O256 2.500 . S
Eu234 O257 2.473 . S
C235 O232 1.255 . S
C235 O236 1.247 . S
O236 C235 1.247 . S
C237 O249 1.242 . S
C237 O250 1.258 . S
O238 Eu234 2.292 . S
O238 C240 1.255 . S
C239 Eu234 2.852 . S
C239 C243 1.503 . S
C239 O256 1.273 . S
C239 O257 1.257 . S
C240 O238 1.255 . S
C240 O241 1.247 . S
O241 C240 1.247 . S
C242 O254 1.242 . S
C242 O255 1.258 . S
C243 C239 1.503 . S
C243 C244 1.379 . S
C243 C248 1.392 . S
C244 C243 1.379 . S
C244 C245 1.404 . S
C244 H258 0.929 . S
C245 C244 1.404 . S
C245 C246 1.389 . S
C246 C245 1.389 . S
C246 C247 1.399 . S
C246 H259 0.931 . S
C247 C246 1.399 . S
C247 C248 1.390 . S
C248 C243 1.392 . S
C248 C247 1.390 . S
C248 H260 0.929 . S
O249 Tb233 2.326 . S
O249 C237 1.242 . S
O250 Eu234 2.324 . S
O250 C237 1.258 . S
O251 Tb233 2.500 . S
O251 C253 1.273 . S
O252 Tb233 2.473 . S
O252 C253 1.257 . S
C253 O251 1.273 . S
C253 O252 1.257 . S
O254 Eu234 2.326 . S
O254 C242 1.242 . S
O255 Tb233 2.324 . S
O255 C242 1.258 . S
O256 Eu234 2.500 . S
O256 C239 1.273 . S
O257 Eu234 2.473 . S
O257 C239 1.257 . S
H258 C244 0.929 . S
H259 C246 0.931 . S
H260 C248 0.929 . S
O261 Tb262 2.292 . S
O261 C264 1.255 . S
Tb262 O261 2.292 . S
Tb262 O278 2.326 . S
Tb262 O280 2.500 . S
Tb262 O281 2.473 . S
Tb262 O284 2.324 . S
Eu263 O267 2.292 . S
Eu263 C268 2.852 . S
Eu263 O279 2.324 . S
Eu263 O283 2.326 . S
Eu263 O285 2.500 . S
Eu263 O286 2.473 . S
C264 O261 1.255 . S
C264 O265 1.247 . S
O265 C264 1.247 . S
C266 O278 1.242 . S
C266 O279 1.258 . S
O267 Eu263 2.292 . S
O267 C269 1.255 . S
C268 Eu263 2.852 . S
C268 C272 1.503 . S
C268 O285 1.273 . S
C268 O286 1.257 . S
C269 O267 1.255 . S
C269 O270 1.247 . S
O270 C269 1.247 . S
C271 O283 1.242 . S
C271 O284 1.258 . S
C272 C268 1.503 . S
C272 C273 1.379 . S
C272 C277 1.392 . S
C273 C272 1.379 . S
C273 C274 1.404 . S
C273 H287 0.929 . S
C274 C273 1.404 . S
C274 C275 1.389 . S
C275 C274 1.389 . S
C275 C276 1.399 . S
C275 H288 0.931 . S
C276 C275 1.399 . S
C276 C277 1.390 . S
C277 C272 1.392 . S
C277 C276 1.390 . S
C277 H289 0.929 . S
O278 Tb262 2.326 . S
O278 C266 1.242 . S
O279 Eu263 2.324 . S
O279 C266 1.258 . S
O280 Tb262 2.500 . S
O280 C282 1.273 . S
O281 Tb262 2.473 . S
O281 C282 1.257 . S
C282 O280 1.273 . S
C282 O281 1.257 . S
O283 Eu263 2.326 . S
O283 C271 1.242 . S
O284 Tb262 2.324 . S
O284 C271 1.258 . S
O285 Eu263 2.500 . S
O285 C268 1.273 . S
O286 Eu263 2.473 . S
O286 C268 1.257 . S
H287 C273 0.929 . S
H288 C275 0.931 . S
H289 C277 0.929 . S
O290 Tb291 2.292 1_556 S
O290 C293 1.255 . S
Tb291 O290 2.292 1_554 S
Tb291 O307 2.326 . S
Tb291 O309 2.500 1_554 S
Tb291 O310 2.473 . S
Tb291 O313 2.324 . S
Eu292 O296 2.292 . S
Eu292 C297 2.852 . S
Eu292 O308 2.324 . S
Eu292 O312 2.326 . S
Eu292 O314 2.500 . S
Eu292 O315 2.473 . S
C293 O290 1.255 . S
C293 O294 1.247 . S
O294 C293 1.247 . S
C295 O307 1.242 . S
C295 O308 1.258 . S
O296 Eu292 2.292 . S
O296 C298 1.255 . S
C297 Eu292 2.852 . S
C297 C301 1.503 . S
C297 O314 1.273 . S
C297 O315 1.257 . S
C298 O296 1.255 . S
C298 O299 1.247 . S
O299 C298 1.247 . S
C300 O312 1.242 . S
C300 O313 1.258 . S
C301 C297 1.503 . S
C301 C302 1.379 . S
C301 C306 1.392 . S
C302 C301 1.379 . S
C302 C303 1.404 . S
C302 H316 0.929 . S
C303 C302 1.404 . S
C303 C304 1.389 . S
C304 C303 1.389 . S
C304 C305 1.399 . S
C304 H317 0.931 . S
C305 C304 1.399 . S
C305 C306 1.390 . S
C306 C301 1.392 . S
C306 C305 1.390 . S
C306 H318 0.929 . S
O307 Tb291 2.326 . S
O307 C295 1.242 . S
O308 Eu292 2.324 . S
O308 C295 1.258 . S
O309 Tb291 2.500 1_556 S
O309 C311 1.273 1_556 S
O310 Tb291 2.473 . S
O310 C311 1.257 . S
C311 O309 1.273 1_554 S
C311 O310 1.257 . S
O312 Eu292 2.326 . S
O312 C300 1.242 . S
O313 Tb291 2.324 . S
O313 C300 1.258 . S
O314 Eu292 2.500 . S
O314 C297 1.273 . S
O315 Eu292 2.473 . S
O315 C297 1.257 . S
H316 C302 0.929 . S
H317 C304 0.931 . S
H318 C306 0.929 . S
O319 Tb320 2.292 . S
O319 C322 1.255 . S
Tb320 O319 2.292 . S
Tb320 O336 2.326 . S
Tb320 O338 2.500 . S
Tb320 O339 2.473 . S
Tb320 O342 2.324 . S
Eu321 O325 2.292 . S
Eu321 C326 2.852 . S
Eu321 O337 2.324 . S
Eu321 O341 2.326 . S
Eu321 O343 2.500 . S
Eu321 O344 2.473 . S
C322 O319 1.255 . S
C322 O323 1.247 . S
O323 C322 1.247 . S
C324 O336 1.242 . S
C324 O337 1.258 . S
O325 Eu321 2.292 . S
O325 C327 1.255 . S
C326 Eu321 2.852 . S
C326 C330 1.503 . S
C326 O343 1.273 . S
C326 O344 1.257 . S
C327 O325 1.255 . S
C327 O328 1.247 . S
O328 C327 1.247 . S
C329 O341 1.242 . S
C329 O342 1.258 . S
C330 C326 1.503 . S
C330 C331 1.379 . S
C330 C335 1.392 . S
C331 C330 1.379 . S
C331 C332 1.404 . S
C331 H345 0.929 . S
C332 C331 1.404 . S
C332 C333 1.389 . S
C333 C332 1.389 . S
C333 C334 1.399 . S
C333 H346 0.931 . S
C334 C333 1.399 . S
C334 C335 1.390 . S
C335 C330 1.392 . S
C335 C334 1.390 . S
C335 H347 0.929 . S
O336 Tb320 2.326 . S
O336 C324 1.242 . S
O337 Eu321 2.324 . S
O337 C324 1.258 . S
O338 Tb320 2.500 . S
O338 C340 1.273 . S
O339 Tb320 2.473 . S
O339 C340 1.257 . S
C340 O338 1.273 . S
C340 O339 1.257 . S
O341 Eu321 2.326 . S
O341 C329 1.242 . S
O342 Tb320 2.324 . S
O342 C329 1.258 . S
O343 Eu321 2.500 . S
O343 C326 1.273 . S
O344 Eu321 2.473 . S
O344 C326 1.257 . S
H345 C331 0.929 . S
H346 C333 0.931 . S
H347 C335 0.929 . S
O348 Tb349 2.292 . S
O348 C351 1.255 . S
Tb349 O348 2.292 . S
Tb349 O365 2.326 . S
Tb349 O367 2.500 . S
Tb349 O368 2.473 . S
Tb349 O371 2.324 . S
Eu350 O354 2.292 . S
Eu350 C355 2.852 . S
Eu350 O366 2.324 . S
Eu350 O370 2.326 . S
Eu350 O372 2.500 . S
Eu350 O373 2.473 . S
C351 O348 1.255 . S
C351 O352 1.247 . S
O352 C351 1.247 . S
C353 O365 1.242 . S
C353 O366 1.258 . S
O354 Eu350 2.292 . S
O354 C356 1.255 . S
C355 Eu350 2.852 . S
C355 C359 1.503 . S
C355 O372 1.273 . S
C355 O373 1.257 . S
C356 O354 1.255 . S
C356 O357 1.247 . S
O357 C356 1.247 . S
C358 O370 1.242 . S
C358 O371 1.258 . S
C359 C355 1.503 . S
C359 C360 1.379 . S
C359 C364 1.392 . S
C360 C359 1.379 . S
C360 C361 1.404 . S
C360 H374 0.929 . S
C361 C360 1.404 . S
C361 C362 1.389 . S
C362 C361 1.389 . S
C362 C363 1.399 . S
C362 H375 0.931 . S
C363 C362 1.399 . S
C363 C364 1.390 . S
C364 C359 1.392 . S
C364 C363 1.390 . S
C364 H376 0.929 . S
O365 Tb349 2.326 . S
O365 C353 1.242 . S
O366 Eu350 2.324 . S
O366 C353 1.258 . S
O367 Tb349 2.500 . S
O367 C369 1.273 . S
O368 Tb349 2.473 . S
O368 C369 1.257 . S
C369 O367 1.273 . S
C369 O368 1.257 . S
O370 Eu350 2.326 . S
O370 C358 1.242 . S
O371 Tb349 2.324 . S
O371 C358 1.258 . S
O372 Eu350 2.500 . S
O372 C355 1.273 . S
O373 Eu350 2.473 . S
O373 C355 1.257 . S
H374 C360 0.929 . S
H375 C362 0.931 . S
H376 C364 0.929 . S
O377 Tb378 2.292 1_554 S
O377 C380 1.255 . S
Tb378 O377 2.292 1_556 S
Tb378 O394 2.326 . S
Tb378 O396 2.500 1_556 S
Tb378 O397 2.473 . S
Tb378 O400 2.324 . S
Eu379 O383 2.292 . S
Eu379 C384 2.852 . S
Eu379 O395 2.324 . S
Eu379 O399 2.326 . S
Eu379 O401 2.500 . S
Eu379 O402 2.473 . S
C380 O377 1.255 . S
C380 O381 1.247 . S
O381 C380 1.247 . S
C382 O394 1.242 . S
C382 O395 1.258 . S
O383 Eu379 2.292 . S
O383 C385 1.255 . S
C384 Eu379 2.852 . S
C384 C388 1.503 . S
C384 O401 1.273 . S
C384 O402 1.257 . S
C385 O383 1.255 . S
C385 O386 1.247 . S
O386 C385 1.247 . S
C387 O399 1.242 . S
C387 O400 1.258 . S
C388 C384 1.503 . S
C388 C389 1.379 . S
C388 C393 1.392 . S
C389 C388 1.379 . S
C389 C390 1.404 . S
C389 H403 0.929 . S
C390 C389 1.404 . S
C390 C391 1.389 . S
C391 C390 1.389 . S
C391 C392 1.399 . S
C391 H404 0.931 . S
C392 C391 1.399 . S
C392 C393 1.390 . S
C393 C388 1.392 . S
C393 C392 1.390 . S
C393 H405 0.929 . S
O394 Tb378 2.326 . S
O394 C382 1.242 . S
O395 Eu379 2.324 . S
O395 C382 1.258 . S
O396 Tb378 2.500 1_554 S
O396 C398 1.273 1_554 S
O397 Tb378 2.473 . S
O397 C398 1.257 . S
C398 O396 1.273 1_556 S
C398 O397 1.257 . S
O399 Eu379 2.326 . S
O399 C387 1.242 . S
O400 Tb378 2.324 . S
O400 C387 1.258 . S
O401 Eu379 2.500 . S
O401 C384 1.273 . S
O402 Eu379 2.473 . S
O402 C384 1.257 . S
H403 C389 0.929 . S
H404 C391 0.931 . S
H405 C393 0.929 . S
O406 Tb407 2.292 . S
O406 C409 1.255 . S
Tb407 O406 2.292 . S
Tb407 O423 2.326 . S
Tb407 O425 2.500 . S
Tb407 O426 2.473 . S
Tb407 O429 2.324 . S
Eu408 O412 2.292 . S
Eu408 C413 2.852 . S
Eu408 O424 2.324 . S
Eu408 O428 2.326 . S
Eu408 O430 2.500 . S
Eu408 O431 2.473 . S
C409 O406 1.255 . S
C409 O410 1.247 . S
O410 C409 1.247 . S
C411 O423 1.242 . S
C411 O424 1.258 . S
O412 Eu408 2.292 . S
O412 C414 1.255 . S
C413 Eu408 2.852 . S
C413 C417 1.503 . S
C413 O430 1.273 . S
C413 O431 1.257 . S
C414 O412 1.255 . S
C414 O415 1.247 . S
O415 C414 1.247 . S
C416 O428 1.242 . S
C416 O429 1.258 . S
C417 C413 1.503 . S
C417 C418 1.379 . S
C417 C422 1.392 . S
C418 C417 1.379 . S
C418 C419 1.404 . S
C418 H432 0.929 . S
C419 C418 1.404 . S
C419 C420 1.389 . S
C420 C419 1.389 . S
C420 C421 1.399 . S
C420 H433 0.931 . S
C421 C420 1.399 . S
C421 C422 1.390 . S
C422 C417 1.392 . S
C422 C421 1.390 . S
C422 H434 0.929 . S
O423 Tb407 2.326 . S
O423 C411 1.242 . S
O424 Eu408 2.324 . S
O424 C411 1.258 . S
O425 Tb407 2.500 . S
O425 C427 1.273 . S
O426 Tb407 2.473 . S
O426 C427 1.257 . S
C427 O425 1.273 . S
C427 O426 1.257 . S
O428 Eu408 2.326 . S
O428 C416 1.242 . S
O429 Tb407 2.324 . S
O429 C416 1.258 . S
O430 Eu408 2.500 . S
O430 C413 1.273 . S
O431 Eu408 2.473 . S
O431 C413 1.257 . S
H432 C418 0.929 . S
H433 C420 0.931 . S
H434 C422 0.929 . S
O435 Tb436 2.292 . S
O435 C438 1.255 . S
Tb436 O435 2.292 . S
Tb436 O452 2.326 . S
Tb436 O454 2.500 . S
Tb436 O455 2.473 . S
Tb436 O458 2.324 . S
Eu437 O441 2.292 . S
Eu437 C442 2.852 . S
Eu437 O453 2.324 . S
Eu437 O457 2.326 . S
Eu437 O459 2.500 . S
Eu437 O460 2.473 . S
C438 O435 1.255 . S
C438 O439 1.247 . S
O439 C438 1.247 . S
C440 O452 1.242 . S
C440 O453 1.258 . S
O441 Eu437 2.292 . S
O441 C443 1.255 . S
C442 Eu437 2.852 . S
C442 C446 1.503 . S
C442 O459 1.273 . S
C442 O460 1.257 . S
C443 O441 1.255 . S
C443 O444 1.247 . S
O444 C443 1.247 . S
C445 O457 1.242 . S
C445 O458 1.258 . S
C446 C442 1.503 . S
C446 C447 1.379 . S
C446 C451 1.392 . S
C447 C446 1.379 . S
C447 C448 1.404 . S
C447 H461 0.929 . S
C448 C447 1.404 . S
C448 C449 1.389 . S
C449 C448 1.389 . S
C449 C450 1.399 . S
C449 H462 0.931 . S
C450 C449 1.399 . S
C450 C451 1.390 . S
C451 C446 1.392 . S
C451 C450 1.390 . S
C451 H463 0.929 . S
O452 Tb436 2.326 . S
O452 C440 1.242 . S
O453 Eu437 2.324 . S
O453 C440 1.258 . S
O454 Tb436 2.500 . S
O454 C456 1.273 . S
O455 Tb436 2.473 . S
O455 C456 1.257 . S
C456 O454 1.273 . S
C456 O455 1.257 . S
O457 Eu437 2.326 . S
O457 C445 1.242 . S
O458 Tb436 2.324 . S
O458 C445 1.258 . S
O459 Eu437 2.500 . S
O459 C442 1.273 . S
O460 Eu437 2.473 . S
O460 C442 1.257 . S
H461 C447 0.929 . S
H462 C449 0.931 . S
H463 C451 0.929 . S
H464 C476 0.930 . S
H465 C478 0.930 . S
H466 C479 0.930 . S
H467 C483 0.959 . S
H468 C483 0.959 . S
H469 C483 0.961 . S
H470 C484 0.960 . S
H471 C484 0.961 . S
H472 C484 0.959 . S
H473 C487 0.929 . S
H474 C488 0.931 . S
H475 C490 0.930 . S
C476 H464 0.930 . S
C476 C477 1.399 1_554 S
C476 C481 1.399 . S
C477 C476 1.399 1_556 S
C477 C478 1.376 . S
C478 H465 0.930 . S
C478 C477 1.376 . S
C478 C479 1.388 . S
C479 H466 0.930 . S
C479 C478 1.388 . S
C479 C480 1.390 . S
C480 C479 1.390 . S
C480 C481 1.394 1_556 S
C480 C486 1.465 . S
C481 C476 1.399 . S
C481 C480 1.394 1_554 S
C481 C482 1.516 . S
C482 C481 1.516 . S
C482 C483 1.502 . S
C482 C484 1.561 . S
C482 C485 1.526 . S
C483 H467 0.959 . S
C483 H468 0.959 . S
C483 H469 0.961 . S
C483 C482 1.502 . S
C484 H470 0.960 . S
C484 H471 0.961 . S
C484 H472 0.959 . S
C484 C482 1.561 . S
C485 C482 1.526 . S
C485 C486 1.396 1_554 S
C485 C490 1.390 . S
C486 C480 1.465 . S
C486 C485 1.396 1_556 S
C486 C487 1.399 . S
C487 H473 0.929 . S
C487 C486 1.399 . S
C487 C488 1.385 . S
C488 H474 0.931 . S
C488 C487 1.385 . S
C488 C489 1.389 . S
C489 C488 1.389 . S
C489 C490 1.387 1_556 S
C490 H475 0.930 . S
C490 C485 1.390 . S
C490 C489 1.387 1_554 S
H491 C503 0.930 . S
H492 C505 0.930 . S
H493 C506 0.930 . S
H494 C510 0.959 . S
H495 C510 0.959 . S
H496 C510 0.961 . S
H497 C511 0.960 . S
H498 C511 0.961 . S
H499 C511 0.959 . S
H500 C514 0.929 . S
H501 C515 0.931 . S
H502 C517 0.930 . S
C503 H491 0.930 . S
C503 C504 1.399 . S
C503 C508 1.399 . S
C504 C503 1.399 . S
C504 C505 1.376 . S
C505 H492 0.930 . S
C505 C504 1.376 . S
C505 C506 1.388 . S
C506 H493 0.930 . S
C506 C505 1.388 . S
C506 C507 1.390 . S
C507 C506 1.390 . S
C507 C508 1.394 . S
C507 C513 1.465 . S
C508 C503 1.399 . S
C508 C507 1.394 . S
C508 C509 1.516 . S
C509 C508 1.516 . S
C509 C510 1.502 . S
C509 C511 1.561 . S
C509 C512 1.526 . S
C510 H494 0.959 . S
C510 H495 0.959 . S
C510 H496 0.961 . S
C510 C509 1.502 . S
C511 H497 0.960 . S
C511 H498 0.961 . S
C511 H499 0.959 . S
C511 C509 1.561 . S
C512 C509 1.526 . S
C512 C513 1.396 . S
C512 C517 1.390 . S
C513 C507 1.465 . S
C513 C512 1.396 . S
C513 C514 1.399 . S
C514 H500 0.929 . S
C514 C513 1.399 . S
C514 C515 1.385 . S
C515 H501 0.931 . S
C515 C514 1.385 . S
C515 C516 1.389 . S
C516 C515 1.389 . S
C516 C517 1.387 . S
C517 H502 0.930 . S
C517 C512 1.390 . S
C517 C516 1.387 . S
H518 C530 0.930 . S
H519 C532 0.930 . S
H520 C533 0.930 . S
H521 C537 0.959 . S
H522 C537 0.959 . S
H523 C537 0.961 . S
H524 C538 0.960 . S
H525 C538 0.961 . S
H526 C538 0.959 . S
H527 C541 0.929 . S
H528 C542 0.931 . S
H529 C544 0.930 . S
C530 H518 0.930 . S
C530 C531 1.399 . S
C530 C535 1.399 . S
C531 C530 1.399 . S
C531 C532 1.376 . S
C532 H519 0.930 . S
C532 C531 1.376 . S
C532 C533 1.388 . S
C533 H520 0.930 . S
C533 C532 1.388 . S
C533 C534 1.390 . S
C534 C533 1.390 . S
C534 C535 1.394 . S
C534 C540 1.465 . S
C535 C530 1.399 . S
C535 C534 1.394 . S
C535 C536 1.516 . S
C536 C535 1.516 . S
C536 C537 1.502 . S
C536 C538 1.561 . S
C536 C539 1.526 . S
C537 H521 0.959 . S
C537 H522 0.959 . S
C537 H523 0.961 . S
C537 C536 1.502 . S
C538 H524 0.960 . S
C538 H525 0.961 . S
C538 H526 0.959 . S
C538 C536 1.561 . S
C539 C536 1.526 . S
C539 C540 1.396 . S
C539 C544 1.390 . S
C540 C534 1.465 . S
C540 C539 1.396 . S
C540 C541 1.399 . S
C541 H527 0.929 . S
C541 C540 1.399 . S
C541 C542 1.385 . S
C542 H528 0.931 . S
C542 C541 1.385 . S
C542 C543 1.389 . S
C543 C542 1.389 . S
C543 C544 1.387 . S
C544 H529 0.930 . S
C544 C539 1.390 . S
C544 C543 1.387 . S
H545 C557 0.930 . S
H546 C559 0.930 . S
H547 C560 0.930 . S
H548 C564 0.959 . S
H549 C564 0.959 . S
H550 C564 0.961 . S
H551 C565 0.960 . S
H552 C565 0.961 . S
H553 C565 0.959 . S
H554 C568 0.929 . S
H555 C569 0.931 . S
H556 C571 0.930 . S
C557 H545 0.930 . S
C557 C558 1.399 . S
C557 C562 1.399 . S
C558 C557 1.399 . S
C558 C559 1.376 . S
C559 H546 0.930 . S
C559 C558 1.376 . S
C559 C560 1.388 . S
C560 H547 0.930 . S
C560 C559 1.388 . S
C560 C561 1.390 . S
C561 C560 1.390 . S
C561 C562 1.394 . S
C561 C567 1.465 . S
C562 C557 1.399 . S
C562 C561 1.394 . S
C562 C563 1.516 . S
C563 C562 1.516 . S
C563 C564 1.502 . S
C563 C565 1.561 . S
C563 C566 1.526 . S
C564 H548 0.959 . S
C564 H549 0.959 . S
C564 H550 0.961 . S
C564 C563 1.502 . S
C565 H551 0.960 . S
C565 H552 0.961 . S
C565 H553 0.959 . S
C565 C563 1.561 . S
C566 C563 1.526 . S
C566 C567 1.396 . S
C566 C571 1.390 . S
C567 C561 1.465 . S
C567 C566 1.396 . S
C567 C568 1.399 . S
C568 H554 0.929 . S
C568 C567 1.399 . S
C568 C569 1.385 . S
C569 H555 0.931 . S
C569 C568 1.385 . S
C569 C570 1.389 . S
C570 C569 1.389 . S
C570 C571 1.387 . S
C571 H556 0.930 . S
C571 C566 1.390 . S
C571 C570 1.387 . S
H572 C584 0.930 . S
H573 C586 0.930 . S
H574 C587 0.930 . S
H575 C591 0.959 . S
H576 C591 0.959 . S
H577 C591 0.961 . S
H578 C592 0.960 . S
H579 C592 0.961 . S
H580 C592 0.959 . S
H581 C595 0.929 . S
H582 C596 0.931 . S
H583 C598 0.930 . S
C584 H572 0.930 . S
C584 C585 1.399 . S
C584 C589 1.399 . S
C585 C584 1.399 . S
C585 C586 1.376 . S
C586 H573 0.930 . S
C586 C585 1.376 . S
C586 C587 1.388 . S
C587 H574 0.930 . S
C587 C586 1.388 . S
C587 C588 1.390 . S
C588 C587 1.390 . S
C588 C589 1.394 . S
C588 C594 1.465 . S
C589 C584 1.399 . S
C589 C588 1.394 . S
C589 C590 1.516 . S
C590 C589 1.516 . S
C590 C591 1.502 . S
C590 C592 1.561 . S
C590 C593 1.526 . S
C591 H575 0.959 . S
C591 H576 0.959 . S
C591 H577 0.961 . S
C591 C590 1.502 . S
C592 H578 0.960 . S
C592 H579 0.961 . S
C592 H580 0.959 . S
C592 C590 1.561 . S
C593 C590 1.526 . S
C593 C594 1.396 . S
C593 C598 1.390 . S
C594 C588 1.465 . S
C594 C593 1.396 . S
C594 C595 1.399 . S
C595 H581 0.929 . S
C595 C594 1.399 . S
C595 C596 1.385 . S
C596 H582 0.931 . S
C596 C595 1.385 . S
C596 C597 1.389 . S
C597 C596 1.389 . S
C597 C598 1.387 . S
C598 H583 0.930 . S
C598 C593 1.390 . S
C598 C597 1.387 . S
H599 C611 0.930 . S
H600 C613 0.930 . S
H601 C614 0.930 . S
H602 C618 0.959 . S
H603 C618 0.959 . S
H604 C618 0.961 . S
H605 C619 0.960 . S
H606 C619 0.961 . S
H607 C619 0.959 . S
H608 C622 0.929 . S
H609 C623 0.931 . S
H610 C625 0.930 . S
C611 H599 0.930 . S
C611 C612 1.399 . S
C611 C616 1.399 . S
C612 C611 1.399 . S
C612 C613 1.376 . S
C613 H600 0.930 . S
C613 C612 1.376 . S
C613 C614 1.388 . S
C614 H601 0.930 . S
C614 C613 1.388 . S
C614 C615 1.390 . S
C615 C614 1.390 . S
C615 C616 1.394 . S
C615 C621 1.465 . S
C616 C611 1.399 . S
C616 C615 1.394 . S
C616 C617 1.516 . S
C617 C616 1.516 . S
C617 C618 1.502 . S
C617 C619 1.561 . S
C617 C620 1.526 . S
C618 H602 0.959 . S
C618 H603 0.959 . S
C618 H604 0.961 . S
C618 C617 1.502 . S
C619 H605 0.960 . S
C619 H606 0.961 . S
C619 H607 0.959 . S
C619 C617 1.561 . S
C620 C617 1.526 . S
C620 C621 1.396 . S
C620 C625 1.390 . S
C621 C615 1.465 . S
C621 C620 1.396 . S
C621 C622 1.399 . S
C622 H608 0.929 . S
C622 C621 1.399 . S
C622 C623 1.385 . S
C623 H609 0.931 . S
C623 C622 1.385 . S
C623 C624 1.389 . S
C624 C623 1.389 . S
C624 C625 1.387 . S
C625 H610 0.930 . S
C625 C620 1.390 . S
C625 C624 1.387 . S
H626 C638 0.930 . S
H627 C640 0.930 . S
H628 C641 0.930 . S
H629 C645 0.959 . S
H630 C645 0.959 . S
H631 C645 0.961 . S
H632 C646 0.960 . S
H633 C646 0.961 . S
H634 C646 0.959 . S
H635 C649 0.929 . S
H636 C650 0.931 . S
H637 C652 0.930 . S
C638 H626 0.930 . S
C638 C639 1.399 1_556 S
C638 C643 1.399 . S
C639 C638 1.399 1_554 S
C639 C640 1.376 . S
C640 H627 0.930 . S
C640 C639 1.376 . S
C640 C641 1.388 . S
C641 H628 0.930 . S
C641 C640 1.388 . S
C641 C642 1.390 . S
C642 C641 1.390 . S
C642 C643 1.394 1_554 S
C642 C648 1.465 . S
C643 C638 1.399 . S
C643 C642 1.394 1_556 S
C643 C644 1.516 . S
C644 C643 1.516 . S
C644 C645 1.502 . S
C644 C646 1.561 1_556 S
C644 C647 1.526 . S
C645 H629 0.959 . S
C645 H630 0.959 . S
C645 H631 0.961 . S
C645 C644 1.502 . S
C646 H632 0.960 . S
C646 H633 0.961 . S
C646 H634 0.959 . S
C646 C644 1.561 1_554 S
C647 C644 1.526 . S
C647 C648 1.396 1_556 S
C647 C652 1.390 . S
C648 C642 1.465 . S
C648 C647 1.396 1_554 S
C648 C649 1.399 . S
C649 H635 0.929 . S
C649 C648 1.399 . S
C649 C650 1.385 . S
C650 H636 0.931 . S
C650 C649 1.385 . S
C650 C651 1.389 . S
C651 C650 1.389 . S
C651 C652 1.387 1_554 S
C652 H637 0.930 . S
C652 C647 1.390 . S
C652 C651 1.387 1_556 S
H653 C665 0.930 . S
H654 C667 0.930 . S
H655 C668 0.930 . S
H656 C672 0.959 . S
H657 C672 0.959 . S
H658 C672 0.961 . S
H659 C673 0.960 . S
H660 C673 0.961 . S
H661 C673 0.959 . S
H662 C676 0.929 . S
H663 C677 0.931 . S
H664 C679 0.930 . S
C665 H653 0.930 . S
C665 C666 1.399 . S
C665 C670 1.399 . S
C666 C665 1.399 . S
C666 C667 1.376 . S
C667 H654 0.930 . S
C667 C666 1.376 . S
C667 C668 1.388 . S
C668 H655 0.930 . S
C668 C667 1.388 . S
C668 C669 1.390 . S
C669 C668 1.390 . S
C669 C670 1.394 . S
C669 C675 1.465 . S
C670 C665 1.399 . S
C670 C669 1.394 . S
C670 C671 1.516 . S
C671 C670 1.516 . S
C671 C672 1.502 . S
C671 C673 1.561 . S
C671 C674 1.526 . S
C672 H656 0.959 . S
C672 H657 0.959 . S
C672 H658 0.961 . S
C672 C671 1.502 . S
C673 H659 0.960 . S
C673 H660 0.961 . S
C673 H661 0.959 . S
C673 C671 1.561 . S
C674 C671 1.526 . S
C674 C675 1.396 . S
C674 C679 1.390 . S
C675 C669 1.465 . S
C675 C674 1.396 . S
C675 C676 1.399 . S
C676 H662 0.929 . S
C676 C675 1.399 . S
C676 C677 1.385 . S
C677 H663 0.931 . S
C677 C676 1.385 . S
C677 C678 1.389 . S
C678 C677 1.389 . S
C678 C679 1.387 . S
C679 H664 0.930 . S
C679 C674 1.390 . S
C679 C678 1.387 . S
H680 C692 0.930 . S
H681 C694 0.930 . S
H682 C695 0.930 . S
H683 C699 0.959 . S
H684 C699 0.959 . S
H685 C699 0.961 . S
H686 C700 0.960 . S
H687 C700 0.961 . S
H688 C700 0.959 . S
H689 C703 0.929 . S
H690 C704 0.931 . S
H691 C706 0.930 . S
C692 H680 0.930 . S
C692 C693 1.399 . S
C692 C697 1.399 . S
C693 C692 1.399 . S
C693 C694 1.376 . S
C694 H681 0.930 . S
C694 C693 1.376 . S
C694 C695 1.388 . S
C695 H682 0.930 . S
C695 C694 1.388 . S
C695 C696 1.390 . S
C696 C695 1.390 . S
C696 C697 1.394 . S
C696 C702 1.465 . S
C697 C692 1.399 . S
C697 C696 1.394 . S
C697 C698 1.516 . S
C698 C697 1.516 . S
C698 C699 1.502 . S
C698 C700 1.561 . S
C698 C701 1.526 . S
C699 H683 0.959 . S
C699 H684 0.959 . S
C699 H685 0.961 . S
C699 C698 1.502 . S
C700 H686 0.960 . S
C700 H687 0.961 . S
C700 H688 0.959 . S
C700 C698 1.561 . S
C701 C698 1.526 . S
C701 C702 1.396 . S
C701 C706 1.390 . S
C702 C696 1.465 . S
C702 C701 1.396 . S
C702 C703 1.399 . S
C703 H689 0.929 . S
C703 C702 1.399 . S
C703 C704 1.385 . S
C704 H690 0.931 . S
C704 C703 1.385 . S
C704 C705 1.389 . S
C705 C704 1.389 . S
C705 C706 1.387 . S
C706 H691 0.930 . S
C706 C701 1.390 . S
C706 C705 1.387 . S
H707 C719 0.930 . S
H708 C721 0.930 . S
H709 C722 0.930 . S
H710 C726 0.959 . S
H711 C726 0.959 . S
H712 C726 0.961 . S
H713 C727 0.960 . S
H714 C727 0.961 . S
H715 C727 0.959 . S
H716 C730 0.929 . S
H717 C731 0.931 . S
H718 C733 0.930 . S
C719 H707 0.930 . S
C719 C720 1.399 . S
C719 C724 1.399 . S
C720 C719 1.399 . S
C720 C721 1.376 . S
C721 H708 0.930 . S
C721 C720 1.376 . S
C721 C722 1.388 . S
C722 H709 0.930 . S
C722 C721 1.388 . S
C722 C723 1.390 . S
C723 C722 1.390 . S
C723 C724 1.394 . S
C723 C729 1.465 . S
C724 C719 1.399 . S
C724 C723 1.394 . S
C724 C725 1.516 . S
C725 C724 1.516 . S
C725 C726 1.502 . S
C725 C727 1.561 . S
C725 C728 1.526 . S
C726 H710 0.959 . S
C726 H711 0.959 . S
C726 H712 0.961 . S
C726 C725 1.502 . S
C727 H713 0.960 . S
C727 H714 0.961 . S
C727 H715 0.959 . S
C727 C725 1.561 . S
C728 C725 1.526 . S
C728 C729 1.396 . S
C728 C733 1.390 . S
C729 C723 1.465 . S
C729 C728 1.396 . S
C729 C730 1.399 . S
C730 H716 0.929 . S
C730 C729 1.399 . S
C730 C731 1.385 . S
C731 H717 0.931 . S
C731 C730 1.385 . S
C731 C732 1.389 . S
C732 C731 1.389 . S
C732 C733 1.387 . S
C733 H718 0.930 . S
C733 C728 1.390 . S
C733 C732 1.387 . S
H734 C746 0.930 . S
H735 C748 0.930 . S
H736 C749 0.930 . S
H737 C753 0.959 . S
H738 C753 0.959 . S
H739 C753 0.961 . S
H740 C754 0.960 . S
H741 C754 0.961 . S
H742 C754 0.959 . S
H743 C757 0.929 . S
H744 C758 0.931 . S
H745 C760 0.930 . S
C746 H734 0.930 . S
C746 C747 1.399 . S
C746 C751 1.399 . S
C747 C746 1.399 . S
C747 C748 1.376 . S
C748 H735 0.930 . S
C748 C747 1.376 . S
C748 C749 1.388 . S
C749 H736 0.930 . S
C749 C748 1.388 . S
C749 C750 1.390 . S
C750 C749 1.390 . S
C750 C751 1.394 . S
C750 C756 1.465 . S
C751 C746 1.399 . S
C751 C750 1.394 . S
C751 C752 1.516 . S
C752 C751 1.516 . S
C752 C753 1.502 . S
C752 C754 1.561 . S
C752 C755 1.526 . S
C753 H737 0.959 . S
C753 H738 0.959 . S
C753 H739 0.961 . S
C753 C752 1.502 . S
C754 H740 0.960 . S
C754 H741 0.961 . S
C754 H742 0.959 . S
C754 C752 1.561 . S
C755 C752 1.526 . S
C755 C756 1.396 . S
C755 C760 1.390 . S
C756 C750 1.465 . S
C756 C755 1.396 . S
C756 C757 1.399 . S
C757 H743 0.929 . S
C757 C756 1.399 . S
C757 C758 1.385 . S
C758 H744 0.931 . S
C758 C757 1.385 . S
C758 C759 1.389 . S
C759 C758 1.389 . S
C759 C760 1.387 . S
C760 H745 0.930 . S
C760 C755 1.390 . S
C760 C759 1.387 . S
H761 C773 0.930 . S
H762 C775 0.930 . S
H763 C776 0.930 . S
H764 C780 0.959 . S
H765 C780 0.959 . S
H766 C780 0.961 . S
H767 C781 0.960 . S
H768 C781 0.961 . S
H769 C781 0.959 . S
H770 C784 0.929 . S
H771 C785 0.931 . S
H772 C787 0.930 . S
C773 H761 0.930 . S
C773 C774 1.399 . S
C773 C778 1.399 . S
C774 C773 1.399 . S
C774 C775 1.376 . S
C775 H762 0.930 . S
C775 C774 1.376 . S
C775 C776 1.388 . S
C776 H763 0.930 . S
C776 C775 1.388 . S
C776 C777 1.390 . S
C777 C776 1.390 . S
C777 C778 1.394 . S
C777 C783 1.465 . S
C778 C773 1.399 . S
C778 C777 1.394 . S
C778 C779 1.516 . S
C779 C778 1.516 . S
C779 C780 1.502 . S
C779 C781 1.561 . S
C779 C782 1.526 . S
C780 H764 0.959 . S
C780 H765 0.959 . S
C780 H766 0.961 . S
C780 C779 1.502 . S
C781 H767 0.960 . S
C781 H768 0.961 . S
C781 H769 0.959 . S
C781 C779 1.561 . S
C782 C779 1.526 . S
C782 C783 1.396 . S
C782 C787 1.390 . S
C783 C777 1.465 . S
C783 C782 1.396 . S
C783 C784 1.399 . S
C784 H770 0.929 . S
C784 C783 1.399 . S
C784 C785 1.385 . S
C785 H771 0.931 . S
C785 C784 1.385 . S
C785 C786 1.389 . S
C786 C785 1.389 . S
C786 C787 1.387 . S
C787 H772 0.930 . S
C787 C782 1.390 . S
C787 C786 1.387 . S
H788 C800 0.930 . S
H789 C802 0.930 . S
H790 C803 0.930 . S
H791 C807 0.959 . S
H792 C807 0.959 . S
H793 C807 0.961 . S
H794 C808 0.960 . S
H795 C808 0.961 . S
H796 C808 0.959 . S
H797 C811 0.929 . S
H798 C812 0.931 . S
H799 C814 0.930 . S
C800 H788 0.930 . S
C800 C801 1.399 . S
C800 C805 1.399 . S
C801 C800 1.399 . S
C801 C802 1.376 . S
C802 H789 0.930 . S
C802 C801 1.376 . S
C802 C803 1.388 . S
C803 H790 0.930 . S
C803 C802 1.388 . S
C803 C804 1.390 . S
C804 C803 1.390 . S
C804 C805 1.394 . S
C804 C810 1.465 . S
C805 C800 1.399 . S
C805 C804 1.394 . S
C805 C806 1.516 . S
C806 C805 1.516 . S
C806 C807 1.502 . S
C806 C808 1.561 . S
C806 C809 1.526 . S
C807 H791 0.959 . S
C807 H792 0.959 . S
C807 H793 0.961 . S
C807 C806 1.502 . S
C808 H794 0.960 . S
C808 H795 0.961 . S
C808 H796 0.959 . S
C808 C806 1.561 . S
C809 C806 1.526 . S
C809 C810 1.396 . S
C809 C814 1.390 . S
C810 C804 1.465 . S
C810 C809 1.396 . S
C810 C811 1.399 . S
C811 H797 0.929 . S
C811 C810 1.399 . S
C811 C812 1.385 . S
C812 H798 0.931 . S
C812 C811 1.385 . S
C812 C813 1.389 . S
C813 C812 1.389 . S
C813 C814 1.387 . S
C814 H799 0.930 . S
C814 C809 1.390 . S
C814 C813 1.387 . S
H815 C827 0.930 . S
H816 C829 0.930 . S
H817 C830 0.930 . S
H818 C834 0.959 . S
H819 C834 0.959 . S
H820 C834 0.961 . S
H821 C835 0.960 . S
H822 C835 0.961 . S
H823 C835 0.959 . S
H824 C838 0.929 . S
H825 C839 0.931 . S
H826 C841 0.930 . S
C827 H815 0.930 . S
C827 C828 1.399 . S
C827 C832 1.399 . S
C828 C827 1.399 . S
C828 C829 1.376 . S
C829 H816 0.930 . S
C829 C828 1.376 . S
C829 C830 1.388 . S
C830 H817 0.930 . S
C830 C829 1.388 . S
C830 C831 1.390 . S
C831 C830 1.390 . S
C831 C832 1.394 . S
C831 C837 1.465 . S
C832 C827 1.399 . S
C832 C831 1.394 . S
C832 C833 1.516 . S
C833 C832 1.516 . S
C833 C834 1.502 . S
C833 C835 1.561 . S
C833 C836 1.526 . S
C834 H818 0.959 . S
C834 H819 0.959 . S
C834 H820 0.961 . S
C834 C833 1.502 . S
C835 H821 0.960 . S
C835 H822 0.961 . S
C835 H823 0.959 . S
C835 C833 1.561 . S
C836 C833 1.526 . S
C836 C837 1.396 . S
C836 C841 1.390 . S
C837 C831 1.465 . S
C837 C836 1.396 . S
C837 C838 1.399 . S
C838 H824 0.929 . S
C838 C837 1.399 . S
C838 C839 1.385 . S
C839 H825 0.931 . S
C839 C838 1.385 . S
C839 C840 1.389 . S
C840 C839 1.389 . S
C840 C841 1.387 . S
C841 H826 0.930 . S
C841 C836 1.390 . S
C841 C840 1.387 . S
H842 C854 0.930 . S
H843 C856 0.930 . S
H844 C857 0.930 . S
H845 C861 0.959 . S
H846 C861 0.959 . S
H847 C861 0.961 . S
H848 C862 0.960 . S
H849 C862 0.961 . S
H850 C862 0.959 . S
H851 C865 0.929 . S
H852 C866 0.931 . S
H853 C868 0.930 . S
C854 H842 0.930 . S
C854 C855 1.399 . S
C854 C859 1.399 . S
C855 C854 1.399 . S
C855 C856 1.376 . S
C856 H843 0.930 . S
C856 C855 1.376 . S
C856 C857 1.388 . S
C857 H844 0.930 . S
C857 C856 1.388 . S
C857 C858 1.390 . S
C858 C857 1.390 . S
C858 C859 1.394 . S
C858 C864 1.465 . S
C859 C854 1.399 . S
C859 C858 1.394 . S
C859 C860 1.516 . S
C860 C859 1.516 . S
C860 C861 1.502 . S
C860 C862 1.561 . S
C860 C863 1.526 . S
C861 H845 0.959 . S
C861 H846 0.959 . S
C861 H847 0.961 . S
C861 C860 1.502 . S
C862 H848 0.960 . S
C862 H849 0.961 . S
C862 H850 0.959 . S
C862 C860 1.561 . S
C863 C860 1.526 . S
C863 C864 1.396 . S
C863 C868 1.390 . S
C864 C858 1.465 . S
C864 C863 1.396 . S
C864 C865 1.399 . S
C865 H851 0.929 . S
C865 C864 1.399 . S
C865 C866 1.385 . S
C866 H852 0.931 . S
C866 C865 1.385 . S
C866 C867 1.389 . S
C867 C866 1.389 . S
C867 C868 1.387 . S
C868 H853 0.930 . S
C868 C863 1.390 . S
C868 C867 1.387 . S
H869 C881 0.930 . S
H870 C883 0.930 . S
H871 C884 0.930 . S
H872 C888 0.959 . S
H873 C888 0.959 . S
H874 C888 0.961 . S
H875 C889 0.960 . S
H876 C889 0.961 . S
H877 C889 0.959 . S
H878 C892 0.929 . S
H879 C893 0.931 . S
H880 C895 0.930 . S
C881 H869 0.930 . S
C881 C882 1.399 . S
C881 C886 1.399 . S
C882 C881 1.399 . S
C882 C883 1.376 . S
C883 H870 0.930 . S
C883 C882 1.376 . S
C883 C884 1.388 . S
C884 H871 0.930 . S
C884 C883 1.388 . S
C884 C885 1.390 . S
C885 C884 1.390 . S
C885 C886 1.394 . S
C885 C891 1.465 . S
C886 C881 1.399 . S
C886 C885 1.394 . S
C886 C887 1.516 . S
C887 C886 1.516 . S
C887 C888 1.502 . S
C887 C889 1.561 . S
C887 C890 1.526 . S
C888 H872 0.959 . S
C888 H873 0.959 . S
C888 H874 0.961 . S
C888 C887 1.502 . S
C889 H875 0.960 . S
C889 H876 0.961 . S
C889 H877 0.959 . S
C889 C887 1.561 . S
C890 C887 1.526 . S
C890 C891 1.396 . S
C890 C895 1.390 . S
C891 C885 1.465 . S
C891 C890 1.396 . S
C891 C892 1.399 . S
C892 H878 0.929 . S
C892 C891 1.399 . S
C892 C893 1.385 . S
C893 H879 0.931 . S
C893 C892 1.385 . S
C893 C894 1.389 . S
C894 C893 1.389 . S
C894 C895 1.387 . S
C895 H880 0.930 . S
C895 C890 1.390 . S
C895 C894 1.387 . S
H896 C908 0.930 . S
H897 C910 0.930 . S
H898 C911 0.930 . S
H899 C915 0.959 . S
H900 C915 0.959 . S
H901 C915 0.961 . S
H902 C916 0.960 . S
H903 C916 0.961 . S
H904 C916 0.959 . S
H905 C919 0.929 . S
H906 C920 0.931 . S
H907 C922 0.930 . S
C908 H896 0.930 . S
C908 C909 1.399 . S
C908 C913 1.399 . S
C909 C908 1.399 . S
C909 C910 1.376 . S
C910 H897 0.930 . S
C910 C909 1.376 . S
C910 C911 1.388 . S
C911 H898 0.930 . S
C911 C910 1.388 . S
C911 C912 1.390 . S
C912 C911 1.390 . S
C912 C913 1.394 . S
C912 C918 1.465 . S
C913 C908 1.399 . S
C913 C912 1.394 . S
C913 C914 1.516 . S
C914 C913 1.516 . S
C914 C915 1.502 . S
C914 C916 1.561 . S
C914 C917 1.526 . S
C915 H899 0.959 . S
C915 H900 0.959 . S
C915 H901 0.961 . S
C915 C914 1.502 . S
C916 H902 0.960 . S
C916 H903 0.961 . S
C916 H904 0.959 . S
C916 C914 1.561 . S
C917 C914 1.526 . S
C917 C918 1.396 . S
C917 C922 1.390 . S
C918 C912 1.465 . S
C918 C917 1.396 . S
C918 C919 1.399 . S
C919 H905 0.929 . S
C919 C918 1.399 . S
C919 C920 1.385 . S
C920 H906 0.931 . S
C920 C919 1.385 . S
C920 C921 1.389 . S
C921 C920 1.389 . S
C921 C922 1.387 . S
C922 H907 0.930 . S
C922 C917 1.390 . S
C922 C921 1.387 . S
H923 C935 0.930 . S
H924 C937 0.930 . S
H925 C938 0.930 . S
H926 C942 0.959 . S
H927 C942 0.959 . S
H928 C942 0.961 . S
H929 C943 0.960 . S
H930 C943 0.961 . S
H931 C943 0.959 . S
H932 C946 0.929 . S
H933 C947 0.931 . S
H934 C949 0.930 . S
C935 H923 0.930 . S
C935 C936 1.399 . S
C935 C940 1.399 . S
C936 C935 1.399 . S
C936 C937 1.376 . S
C937 H924 0.930 . S
C937 C936 1.376 . S
C937 C938 1.388 . S
C938 H925 0.930 . S
C938 C937 1.388 . S
C938 C939 1.390 . S
C939 C938 1.390 . S
C939 C940 1.394 . S
C939 C945 1.465 . S
C940 C935 1.399 . S
C940 C939 1.394 . S
C940 C941 1.516 . S
C941 C940 1.516 . S
C941 C942 1.502 . S
C941 C943 1.561 . S
C941 C944 1.526 . S
C942 H926 0.959 . S
C942 H927 0.959 . S
C942 H928 0.961 . S
C942 C941 1.502 . S
C943 H929 0.960 . S
C943 H930 0.961 . S
C943 H931 0.959 . S
C943 C941 1.561 . S
C944 C941 1.526 . S
C944 C945 1.396 . S
C944 C949 1.390 . S
C945 C939 1.465 . S
C945 C944 1.396 . S
C945 C946 1.399 . S
C946 H932 0.929 . S
C946 C945 1.399 . S
C946 C947 1.385 . S
C947 H933 0.931 . S
C947 C946 1.385 . S
C947 C948 1.389 . S
C948 C947 1.389 . S
C948 C949 1.387 . S
C949 H934 0.930 . S
C949 C944 1.390 . S
C949 C948 1.387 . S
H950 C962 0.930 . S
H951 C964 0.930 . S
H952 C965 0.930 . S
H953 C969 0.959 . S
H954 C969 0.959 . S
H955 C969 0.961 . S
H956 C970 0.960 . S
H957 C970 0.961 . S
H958 C970 0.959 . S
H959 C973 0.929 . S
H960 C974 0.931 . S
H961 C976 0.930 . S
C962 H950 0.930 . S
C962 C963 1.399 . S
C962 C967 1.399 . S
C963 C962 1.399 . S
C963 C964 1.376 . S
C964 H951 0.930 . S
C964 C963 1.376 . S
C964 C965 1.388 . S
C965 H952 0.930 . S
C965 C964 1.388 . S
C965 C966 1.390 . S
C966 C965 1.390 . S
C966 C967 1.394 . S
C966 C972 1.465 . S
C967 C962 1.399 . S
C967 C966 1.394 . S
C967 C968 1.516 . S
C968 C967 1.516 . S
C968 C969 1.502 . S
C968 C970 1.561 . S
C968 C971 1.526 . S
C969 H953 0.959 . S
C969 H954 0.959 . S
C969 H955 0.961 . S
C969 C968 1.502 . S
C970 H956 0.960 . S
C970 H957 0.961 . S
C970 H958 0.959 . S
C970 C968 1.561 . S
C971 C968 1.526 . S
C971 C972 1.396 . S
C971 C976 1.390 . S
C972 C966 1.465 . S
C972 C971 1.396 . S
C972 C973 1.399 . S
C973 H959 0.929 . S
C973 C972 1.399 . S
C973 C974 1.385 . S
C974 H960 0.931 . S
C974 C973 1.385 . S
C974 C975 1.389 . S
C975 C974 1.389 . S
C975 C976 1.387 . S
C976 H961 0.930 . S
C976 C971 1.390 . S
C976 C975 1.387 . S
H977 C989 0.930 . S
H978 C991 0.930 . S
H979 C992 0.930 . S
H980 C996 0.959 . S
H981 C996 0.959 . S
H982 C996 0.961 . S
H983 C997 0.960 . S
H984 C997 0.961 . S
H985 C997 0.959 . S
H986 C1000 0.929 . S
H987 C1001 0.931 . S
H988 C1003 0.930 . S
C989 H977 0.930 . S
C989 C990 1.399 . S
C989 C994 1.399 . S
C990 C989 1.399 . S
C990 C991 1.376 . S
C991 H978 0.930 . S
C991 C990 1.376 . S
C991 C992 1.388 . S
C992 H979 0.930 . S
C992 C991 1.388 . S
C992 C993 1.390 . S
C993 C992 1.390 . S
C993 C994 1.394 . S
C993 C999 1.465 . S
C994 C989 1.399 . S
C994 C993 1.394 . S
C994 C995 1.516 . S
C995 C994 1.516 . S
C995 C996 1.502 . S
C995 C997 1.561 . S
C995 C998 1.526 . S
C996 H980 0.959 . S
C996 H981 0.959 . S
C996 H982 0.961 . S
C996 C995 1.502 . S
C997 H983 0.960 . S
C997 H984 0.961 . S
C997 H985 0.959 . S
C997 C995 1.561 . S
C998 C995 1.526 . S
C998 C999 1.396 . S
C998 C1003 1.390 . S
C999 C993 1.465 . S
C999 C998 1.396 . S
C999 C1000 1.399 . S
C1000 H986 0.929 . S
C1000 C999 1.399 . S
C1000 C1001 1.385 . S
C1001 H987 0.931 . S
C1001 C1000 1.385 . S
C1001 C1002 1.389 . S
C1002 C1001 1.389 . S
C1002 C1003 1.387 . S
C1003 H988 0.930 . S
C1003 C998 1.390 . S
C1003 C1002 1.387 . S
H1004 C1016 0.930 . S
H1005 C1018 0.930 . S
H1006 C1019 0.930 . S
H1007 C1023 0.959 . S
H1008 C1023 0.959 . S
H1009 C1023 0.961 . S
H1010 C1024 0.960 . S
H1011 C1024 0.961 . S
H1012 C1024 0.959 . S
H1013 C1027 0.929 . S
H1014 C1028 0.931 . S
H1015 C1030 0.930 . S
C1016 H1004 0.930 . S
C1016 C1017 1.399 . S
C1016 C1021 1.399 . S
C1017 C1016 1.399 . S
C1017 C1018 1.376 . S
C1018 H1005 0.930 . S
C1018 C1017 1.376 . S
C1018 C1019 1.388 . S
C1019 H1006 0.930 . S
C1019 C1018 1.388 . S
C1019 C1020 1.390 . S
C1020 C1019 1.390 . S
C1020 C1021 1.394 . S
C1020 C1026 1.465 . S
C1021 C1016 1.399 . S
C1021 C1020 1.394 . S
C1021 C1022 1.516 . S
C1022 C1021 1.516 . S
C1022 C1023 1.502 . S
C1022 C1024 1.561 . S
C1022 C1025 1.526 . S
C1023 H1007 0.959 . S
C1023 H1008 0.959 . S
C1023 H1009 0.961 . S
C1023 C1022 1.502 . S
C1024 H1010 0.960 . S
C1024 H1011 0.961 . S
C1024 H1012 0.959 . S
C1024 C1022 1.561 . S
C1025 C1022 1.526 . S
C1025 C1026 1.396 . S
C1025 C1030 1.390 . S
C1026 C1020 1.465 . S
C1026 C1025 1.396 . S
C1026 C1027 1.399 . S
C1027 H1013 0.929 . S
C1027 C1026 1.399 . S
C1027 C1028 1.385 . S
C1028 H1014 0.931 . S
C1028 C1027 1.385 . S
C1028 C1029 1.389 . S
C1029 C1028 1.389 . S
C1029 C1030 1.387 . S
C1030 H1015 0.930 . S
C1030 C1025 1.390 . S
C1030 C1029 1.387 . S
H1031 C1043 0.930 . S
H1032 C1045 0.930 . S
H1033 C1046 0.930 . S
H1034 C1050 0.959 . S
H1035 C1050 0.959 . S
H1036 C1050 0.961 . S
H1037 C1051 0.960 . S
H1038 C1051 0.961 . S
H1039 C1051 0.959 . S
H1040 C1054 0.929 . S
H1041 C1055 0.931 . S
H1042 C1057 0.930 . S
C1043 H1031 0.930 . S
C1043 C1044 1.399 . S
C1043 C1048 1.399 . S
C1044 C1043 1.399 . S
C1044 C1045 1.376 . S
C1045 H1032 0.930 . S
C1045 C1044 1.376 . S
C1045 C1046 1.388 . S
C1046 H1033 0.930 . S
C1046 C1045 1.388 . S
C1046 C1047 1.390 . S
C1047 C1046 1.390 . S
C1047 C1048 1.394 . S
C1047 C1053 1.465 . S
C1048 C1043 1.399 . S
C1048 C1047 1.394 . S
C1048 C1049 1.516 . S
C1049 C1048 1.516 . S
C1049 C1050 1.502 . S
C1049 C1051 1.561 . S
C1049 C1052 1.526 . S
C1050 H1034 0.959 . S
C1050 H1035 0.959 . S
C1050 H1036 0.961 . S
C1050 C1049 1.502 . S
C1051 H1037 0.960 . S
C1051 H1038 0.961 . S
C1051 H1039 0.959 . S
C1051 C1049 1.561 . S
C1052 C1049 1.526 . S
C1052 C1053 1.396 . S
C1052 C1057 1.390 . S
C1053 C1047 1.465 . S
C1053 C1052 1.396 . S
C1053 C1054 1.399 . S
C1054 H1040 0.929 . S
C1054 C1053 1.399 . S
C1054 C1055 1.385 . S
C1055 H1041 0.931 . S
C1055 C1054 1.385 . S
C1055 C1056 1.389 . S
C1056 C1055 1.389 . S
C1056 C1057 1.387 . S
C1057 H1042 0.930 . S
C1057 C1052 1.390 . S
C1057 C1056 1.387 . S
H1058 C1070 0.930 . S
H1059 C1072 0.930 . S
H1060 C1073 0.930 . S
H1061 C1077 0.959 . S
H1062 C1077 0.959 . S
H1063 C1077 0.961 . S
H1064 C1078 0.960 . S
H1065 C1078 0.961 . S
H1066 C1078 0.959 . S
H1067 C1081 0.929 . S
H1068 C1082 0.931 . S
H1069 C1084 0.930 . S
C1070 H1058 0.930 . S
C1070 C1071 1.399 . S
C1070 C1075 1.399 . S
C1071 C1070 1.399 . S
C1071 C1072 1.376 . S
C1072 H1059 0.930 . S
C1072 C1071 1.376 . S
C1072 C1073 1.388 . S
C1073 H1060 0.930 . S
C1073 C1072 1.388 . S
C1073 C1074 1.390 . S
C1074 C1073 1.390 . S
C1074 C1075 1.394 . S
C1074 C1080 1.465 . S
C1075 C1070 1.399 . S
C1075 C1074 1.394 . S
C1075 C1076 1.516 . S
C1076 C1075 1.516 . S
C1076 C1077 1.502 . S
C1076 C1078 1.561 . S
C1076 C1079 1.526 . S
C1077 H1061 0.959 . S
C1077 H1062 0.959 . S
C1077 H1063 0.961 . S
C1077 C1076 1.502 . S
C1078 H1064 0.960 . S
C1078 H1065 0.961 . S
C1078 H1066 0.959 . S
C1078 C1076 1.561 . S
C1079 C1076 1.526 . S
C1079 C1080 1.396 . S
C1079 C1084 1.390 . S
C1080 C1074 1.465 . S
C1080 C1079 1.396 . S
C1080 C1081 1.399 . S
C1081 H1067 0.929 . S
C1081 C1080 1.399 . S
C1081 C1082 1.385 . S
C1082 H1068 0.931 . S
C1082 C1081 1.385 . S
C1082 C1083 1.389 . S
C1083 C1082 1.389 . S
C1083 C1084 1.387 . S
C1084 H1069 0.930 . S
C1084 C1079 1.390 . S
C1084 C1083 1.387 . S
H1085 C1097 0.930 . S
H1086 C1099 0.930 . S
H1087 C1100 0.930 . S
H1088 C1104 0.959 . S
H1089 C1104 0.959 . S
H1090 C1104 0.961 . S
H1091 C1105 0.960 . S
H1092 C1105 0.961 . S
H1093 C1105 0.959 . S
H1094 C1108 0.929 . S
H1095 C1109 0.931 . S
H1096 C1111 0.930 . S
C1097 H1085 0.930 . S
C1097 C1098 1.399 . S
C1097 C1102 1.399 . S
C1098 C1097 1.399 . S
C1098 C1099 1.376 . S
C1099 H1086 0.930 . S
C1099 C1098 1.376 . S
C1099 C1100 1.388 . S
C1100 H1087 0.930 . S
C1100 C1099 1.388 . S
C1100 C1101 1.390 . S
C1101 C1100 1.390 . S
C1101 C1102 1.394 . S
C1101 C1107 1.465 . S
C1102 C1097 1.399 . S
C1102 C1101 1.394 . S
C1102 C1103 1.516 . S
C1103 C1102 1.516 . S
C1103 C1104 1.502 . S
C1103 C1105 1.561 . S
C1103 C1106 1.526 . S
C1104 H1088 0.959 . S
C1104 H1089 0.959 . S
C1104 H1090 0.961 . S
C1104 C1103 1.502 . S
C1105 H1091 0.960 . S
C1105 H1092 0.961 . S
C1105 H1093 0.959 . S
C1105 C1103 1.561 . S
C1106 C1103 1.526 . S
C1106 C1107 1.396 . S
C1106 C1111 1.390 . S
C1107 C1101 1.465 . S
C1107 C1106 1.396 . S
C1107 C1108 1.399 . S
C1108 H1094 0.929 . S
C1108 C1107 1.399 . S
C1108 C1109 1.385 . S
C1109 H1095 0.931 . S
C1109 C1108 1.385 . S
C1109 C1110 1.389 . S
C1110 C1109 1.389 . S
C1110 C1111 1.387 . S
C1111 H1096 0.930 . S
C1111 C1106 1.390 . S
C1111 C1110 1.387 . S
H1112 C1124 0.930 . S
H1113 C1126 0.930 . S
H1114 C1127 0.930 . S
H1115 C1131 0.959 . S
H1116 C1131 0.959 . S
H1117 C1131 0.961 . S
H1118 C1132 0.960 . S
H1119 C1132 0.961 . S
H1120 C1132 0.959 . S
H1121 C1135 0.929 . S
H1122 C1136 0.931 . S
H1123 C1138 0.930 . S
C1124 H1112 0.930 . S
C1124 C1125 1.399 . S
C1124 C1129 1.399 . S
C1125 C1124 1.399 . S
C1125 C1126 1.376 . S
C1126 H1113 0.930 . S
C1126 C1125 1.376 . S
C1126 C1127 1.388 . S
C1127 H1114 0.930 . S
C1127 C1126 1.388 . S
C1127 C1128 1.390 . S
C1128 C1127 1.390 . S
C1128 C1129 1.394 . S
C1128 C1134 1.465 . S
C1129 C1124 1.399 . S
C1129 C1128 1.394 . S
C1129 C1130 1.516 . S
C1130 C1129 1.516 . S
C1130 C1131 1.502 . S
C1130 C1132 1.561 . S
C1130 C1133 1.526 . S
C1131 H1115 0.959 . S
C1131 H1116 0.959 . S
C1131 H1117 0.961 . S
C1131 C1130 1.502 . S
C1132 H1118 0.960 . S
C1132 H1119 0.961 . S
C1132 H1120 0.959 . S
C1132 C1130 1.561 . S
C1133 C1130 1.526 . S
C1133 C1134 1.396 . S
C1133 C1138 1.390 . S
C1134 C1128 1.465 . S
C1134 C1133 1.396 . S
C1134 C1135 1.399 . S
C1135 H1121 0.929 . S
C1135 C1134 1.399 . S
C1135 C1136 1.385 . S
C1136 H1122 0.931 . S
C1136 C1135 1.385 . S
C1136 C1137 1.389 . S
C1137 C1136 1.389 . S
C1137 C1138 1.387 . S
C1138 H1123 0.930 . S
C1138 C1133 1.390 . S
C1138 C1137 1.387 . S
H1139 C1151 0.930 . S
H1140 C1153 0.930 . S
H1141 C1154 0.930 . S
H1142 C1158 0.959 . S
H1143 C1158 0.959 . S
H1144 C1158 0.961 . S
H1145 C1159 0.960 . S
H1146 C1159 0.961 . S
H1147 C1159 0.959 . S
H1148 C1162 0.929 . S
H1149 C1163 0.931 . S
H1150 C1165 0.930 . S
C1151 H1139 0.930 . S
C1151 C1152 1.399 . S
C1151 C1156 1.399 . S
C1152 C1151 1.399 . S
C1152 C1153 1.376 . S
C1153 H1140 0.930 . S
C1153 C1152 1.376 . S
C1153 C1154 1.388 . S
C1154 H1141 0.930 . S
C1154 C1153 1.388 . S
C1154 C1155 1.390 . S
C1155 C1154 1.390 . S
C1155 C1156 1.394 . S
C1155 C1161 1.465 . S
C1156 C1151 1.399 . S
C1156 C1155 1.394 . S
C1156 C1157 1.516 . S
C1157 C1156 1.516 . S
C1157 C1158 1.502 . S
C1157 C1159 1.561 . S
C1157 C1160 1.526 . S
C1158 H1142 0.959 . S
C1158 H1143 0.959 . S
C1158 H1144 0.961 . S
C1158 C1157 1.502 . S
C1159 H1145 0.960 . S
C1159 H1146 0.961 . S
C1159 H1147 0.959 . S
C1159 C1157 1.561 . S
C1160 C1157 1.526 . S
C1160 C1161 1.396 . S
C1160 C1165 1.390 . S
C1161 C1155 1.465 . S
C1161 C1160 1.396 . S
C1161 C1162 1.399 . S
C1162 H1148 0.929 . S
C1162 C1161 1.399 . S
C1162 C1163 1.385 . S
C1163 H1149 0.931 . S
C1163 C1162 1.385 . S
C1163 C1164 1.389 . S
C1164 C1163 1.389 . S
C1164 C1165 1.387 . S
C1165 H1150 0.930 . S
C1165 C1160 1.390 . S
C1165 C1164 1.387 . S
H1166 C1178 0.930 . S
H1167 C1180 0.930 . S
H1168 C1181 0.930 . S
H1169 C1185 0.959 . S
H1170 C1185 0.959 . S
H1171 C1185 0.961 . S
H1172 C1186 0.960 . S
H1173 C1186 0.961 . S
H1174 C1186 0.959 . S
H1175 C1189 0.929 . S
H1176 C1190 0.931 . S
H1177 C1192 0.930 . S
C1178 H1166 0.930 . S
C1178 C1179 1.399 . S
C1178 C1183 1.399 . S
C1179 C1178 1.399 . S
C1179 C1180 1.376 . S
C1180 H1167 0.930 . S
C1180 C1179 1.376 . S
C1180 C1181 1.388 . S
C1181 H1168 0.930 . S
C1181 C1180 1.388 . S
C1181 C1182 1.390 . S
C1182 C1181 1.390 . S
C1182 C1183 1.394 . S
C1182 C1188 1.465 . S
C1183 C1178 1.399 . S
C1183 C1182 1.394 . S
C1183 C1184 1.516 . S
C1184 C1183 1.516 . S
C1184 C1185 1.502 . S
C1184 C1186 1.561 . S
C1184 C1187 1.526 . S
C1185 H1169 0.959 . S
C1185 H1170 0.959 . S
C1185 H1171 0.961 . S
C1185 C1184 1.502 . S
C1186 H1172 0.960 . S
C1186 H1173 0.961 . S
C1186 H1174 0.959 . S
C1186 C1184 1.561 . S
C1187 C1184 1.526 . S
C1187 C1188 1.396 . S
C1187 C1192 1.390 . S
C1188 C1182 1.465 . S
C1188 C1187 1.396 . S
C1188 C1189 1.399 . S
C1189 H1175 0.929 . S
C1189 C1188 1.399 . S
C1189 C1190 1.385 . S
C1190 H1176 0.931 . S
C1190 C1189 1.385 . S
C1190 C1191 1.389 . S
C1191 C1190 1.389 . S
C1191 C1192 1.387 . S
C1192 H1177 0.930 . S
C1192 C1187 1.390 . S
C1192 C1191 1.387 . S
H1193 C1205 0.930 . S
H1194 C1207 0.930 . S
H1195 C1208 0.930 . S
H1196 C1212 0.959 . S
H1197 C1212 0.959 . S
H1198 C1212 0.961 . S
H1199 C1213 0.960 . S
H1200 C1213 0.961 . S
H1201 C1213 0.959 . S
H1202 C1216 0.929 . S
H1203 C1217 0.931 . S
H1204 C1219 0.930 . S
C1205 H1193 0.930 . S
C1205 C1206 1.399 . S
C1205 C1210 1.399 . S
C1206 C1205 1.399 . S
C1206 C1207 1.376 . S
C1207 H1194 0.930 . S
C1207 C1206 1.376 . S
C1207 C1208 1.388 . S
C1208 H1195 0.930 . S
C1208 C1207 1.388 . S
C1208 C1209 1.390 . S
C1209 C1208 1.390 . S
C1209 C1210 1.394 . S
C1209 C1215 1.465 . S
C1210 C1205 1.399 . S
C1210 C1209 1.394 . S
C1210 C1211 1.516 . S
C1211 C1210 1.516 . S
C1211 C1212 1.502 . S
C1211 C1213 1.561 . S
C1211 C1214 1.526 . S
C1212 H1196 0.959 . S
C1212 H1197 0.959 . S
C1212 H1198 0.961 . S
C1212 C1211 1.502 . S
C1213 H1199 0.960 . S
C1213 H1200 0.961 . S
C1213 H1201 0.959 . S
C1213 C1211 1.561 . S
C1214 C1211 1.526 . S
C1214 C1215 1.396 . S
C1214 C1219 1.390 . S
C1215 C1209 1.465 . S
C1215 C1214 1.396 . S
C1215 C1216 1.399 . S
C1216 H1202 0.929 . S
C1216 C1215 1.399 . S
C1216 C1217 1.385 . S
C1217 H1203 0.931 . S
C1217 C1216 1.385 . S
C1217 C1218 1.389 . S
C1218 C1217 1.389 . S
C1218 C1219 1.387 . S
C1219 H1204 0.930 . S
C1219 C1214 1.390 . S
C1219 C1218 1.387 . S
H1220 C1232 0.930 . S
H1221 C1234 0.930 . S
H1222 C1235 0.930 . S
H1223 C1239 0.959 . S
H1224 C1239 0.959 . S
H1225 C1239 0.961 . S
H1226 C1240 0.960 . S
H1227 C1240 0.961 . S
H1228 C1240 0.959 . S
H1229 C1243 0.929 . S
H1230 C1244 0.931 . S
H1231 C1246 0.930 . S
C1232 H1220 0.930 . S
C1232 C1233 1.399 . S
C1232 C1237 1.399 . S
C1233 C1232 1.399 . S
C1233 C1234 1.376 . S
C1234 H1221 0.930 . S
C1234 C1233 1.376 . S
C1234 C1235 1.388 . S
C1235 H1222 0.930 . S
C1235 C1234 1.388 . S
C1235 C1236 1.390 . S
C1236 C1235 1.390 . S
C1236 C1237 1.394 . S
C1236 C1242 1.465 . S
C1237 C1232 1.399 . S
C1237 C1236 1.394 . S
C1237 C1238 1.516 . S
C1238 C1237 1.516 . S
C1238 C1239 1.502 . S
C1238 C1240 1.561 . S
C1238 C1241 1.526 . S
C1239 H1223 0.959 . S
C1239 H1224 0.959 . S
C1239 H1225 0.961 . S
C1239 C1238 1.502 . S
C1240 H1226 0.960 . S
C1240 H1227 0.961 . S
C1240 H1228 0.959 . S
C1240 C1238 1.561 . S
C1241 C1238 1.526 . S
C1241 C1242 1.396 . S
C1241 C1246 1.390 . S
C1242 C1236 1.465 . S
C1242 C1241 1.396 . S
C1242 C1243 1.399 . S
C1243 H1229 0.929 . S
C1243 C1242 1.399 . S
C1243 C1244 1.385 . S
C1244 H1230 0.931 . S
C1244 C1243 1.385 . S
C1244 C1245 1.389 . S
C1245 C1244 1.389 . S
C1245 C1246 1.387 . S
C1246 H1231 0.930 . S
C1246 C1241 1.390 . S
C1246 C1245 1.387 . S
H1247 C1259 0.930 . S
H1248 C1261 0.930 . S
H1249 C1262 0.930 . S
H1250 C1266 0.959 . S
H1251 C1266 0.959 . S
H1252 C1266 0.961 . S
H1253 C1267 0.960 . S
H1254 C1267 0.961 . S
H1255 C1267 0.959 . S
H1256 C1270 0.929 . S
H1257 C1271 0.931 . S
H1258 C1273 0.930 . S
C1259 H1247 0.930 . S
C1259 C1260 1.399 . S
C1259 C1264 1.399 . S
C1260 C1259 1.399 . S
C1260 C1261 1.376 . S
C1261 H1248 0.930 . S
C1261 C1260 1.376 . S
C1261 C1262 1.388 . S
C1262 H1249 0.930 . S
C1262 C1261 1.388 . S
C1262 C1263 1.390 . S
C1263 C1262 1.390 . S
C1263 C1264 1.394 . S
C1263 C1269 1.465 . S
C1264 C1259 1.399 . S
C1264 C1263 1.394 . S
C1264 C1265 1.516 . S
C1265 C1264 1.516 . S
C1265 C1266 1.502 . S
C1265 C1267 1.561 . S
C1265 C1268 1.526 . S
C1266 H1250 0.959 . S
C1266 H1251 0.959 . S
C1266 H1252 0.961 . S
C1266 C1265 1.502 . S
C1267 H1253 0.960 . S
C1267 H1254 0.961 . S
C1267 H1255 0.959 . S
C1267 C1265 1.561 . S
C1268 C1265 1.526 . S
C1268 C1269 1.396 . S
C1268 C1273 1.390 . S
C1269 C1263 1.465 . S
C1269 C1268 1.396 . S
C1269 C1270 1.399 . S
C1270 H1256 0.929 . S
C1270 C1269 1.399 . S
C1270 C1271 1.385 . S
C1271 H1257 0.931 . S
C1271 C1270 1.385 . S
C1271 C1272 1.389 . S
C1272 C1271 1.389 . S
C1272 C1273 1.387 . S
C1273 H1258 0.930 . S
C1273 C1268 1.390 . S
C1273 C1272 1.387 . S
H1274 C1286 0.930 . S
H1275 C1288 0.930 . S
H1276 C1289 0.930 . S
H1277 C1293 0.959 . S
H1278 C1293 0.959 . S
H1279 C1293 0.961 . S
H1280 C1294 0.960 . S
H1281 C1294 0.961 . S
H1282 C1294 0.959 . S
H1283 C1297 0.929 . S
H1284 C1298 0.931 . S
H1285 C1300 0.930 . S
C1286 H1274 0.930 . S
C1286 C1287 1.399 . S
C1286 C1291 1.399 . S
C1287 C1286 1.399 . S
C1287 C1288 1.376 . S
C1288 H1275 0.930 . S
C1288 C1287 1.376 . S
C1288 C1289 1.388 . S
C1289 H1276 0.930 . S
C1289 C1288 1.388 . S
C1289 C1290 1.390 . S
C1290 C1289 1.390 . S
C1290 C1291 1.394 . S
C1290 C1296 1.465 . S
C1291 C1286 1.399 . S
C1291 C1290 1.394 . S
C1291 C1292 1.516 . S
C1292 C1291 1.516 . S
C1292 C1293 1.502 . S
C1292 C1294 1.561 . S
C1292 C1295 1.526 . S
C1293 H1277 0.959 . S
C1293 H1278 0.959 . S
C1293 H1279 0.961 . S
C1293 C1292 1.502 . S
C1294 H1280 0.960 . S
C1294 H1281 0.961 . S
C1294 H1282 0.959 . S
C1294 C1292 1.561 . S
C1295 C1292 1.526 . S
C1295 C1296 1.396 . S
C1295 C1300 1.390 . S
C1296 C1290 1.465 . S
C1296 C1295 1.396 . S
C1296 C1297 1.399 . S
C1297 H1283 0.929 . S
C1297 C1296 1.399 . S
C1297 C1298 1.385 . S
C1298 H1284 0.931 . S
C1298 C1297 1.385 . S
C1298 C1299 1.389 . S
C1299 C1298 1.389 . S
C1299 C1300 1.387 . S
C1300 H1285 0.930 . S
C1300 C1295 1.390 . S
C1300 C1299 1.387 . S
H1301 C1313 0.930 . S
H1302 C1315 0.930 . S
H1303 C1316 0.930 . S
H1304 C1320 0.959 . S
H1305 C1320 0.959 . S
H1306 C1320 0.961 . S
H1307 C1321 0.960 . S
H1308 C1321 0.961 . S
H1309 C1321 0.959 . S
H1310 C1324 0.929 . S
H1311 C1325 0.931 . S
H1312 C1327 0.930 . S
C1313 H1301 0.930 . S
C1313 C1314 1.399 . S
C1313 C1318 1.399 . S
C1314 C1313 1.399 . S
C1314 C1315 1.376 . S
C1315 H1302 0.930 . S
C1315 C1314 1.376 . S
C1315 C1316 1.388 . S
C1316 H1303 0.930 . S
C1316 C1315 1.388 . S
C1316 C1317 1.390 . S
C1317 C1316 1.390 . S
C1317 C1318 1.394 . S
C1317 C1323 1.465 . S
C1318 C1313 1.399 . S
C1318 C1317 1.394 . S
C1318 C1319 1.516 . S
C1319 C1318 1.516 . S
C1319 C1320 1.502 . S
C1319 C1321 1.561 . S
C1319 C1322 1.526 . S
C1320 H1304 0.959 . S
C1320 H1305 0.959 . S
C1320 H1306 0.961 . S
C1320 C1319 1.502 . S
C1321 H1307 0.960 . S
C1321 H1308 0.961 . S
C1321 H1309 0.959 . S
C1321 C1319 1.561 . S
C1322 C1319 1.526 . S
C1322 C1323 1.396 . S
C1322 C1327 1.390 . S
C1323 C1317 1.465 . S
C1323 C1322 1.396 . S
C1323 C1324 1.399 . S
C1324 H1310 0.929 . S
C1324 C1323 1.399 . S
C1324 C1325 1.385 . S
C1325 H1311 0.931 . S
C1325 C1324 1.385 . S
C1325 C1326 1.389 . S
C1326 C1325 1.389 . S
C1326 C1327 1.387 . S
C1327 H1312 0.930 . S
C1327 C1322 1.390 . S
C1327 C1326 1.387 . S
H1328 C1340 0.930 . S
H1329 C1342 0.930 . S
H1330 C1343 0.930 . S
H1331 C1347 0.959 . S
H1332 C1347 0.959 . S
H1333 C1347 0.961 . S
H1334 C1348 0.960 . S
H1335 C1348 0.961 . S
H1336 C1348 0.959 . S
H1337 C1351 0.929 . S
H1338 C1352 0.931 . S
H1339 C1354 0.930 . S
C1340 H1328 0.930 . S
C1340 C1341 1.399 . S
C1340 C1345 1.399 . S
C1341 C1340 1.399 . S
C1341 C1342 1.376 . S
C1342 H1329 0.930 . S
C1342 C1341 1.376 . S
C1342 C1343 1.388 . S
C1343 H1330 0.930 . S
C1343 C1342 1.388 . S
C1343 C1344 1.390 . S
C1344 C1343 1.390 . S
C1344 C1345 1.394 . S
C1344 C1350 1.465 . S
C1345 C1340 1.399 . S
C1345 C1344 1.394 . S
C1345 C1346 1.516 . S
C1346 C1345 1.516 . S
C1346 C1347 1.502 . S
C1346 C1348 1.561 . S
C1346 C1349 1.526 . S
C1347 H1331 0.959 . S
C1347 H1332 0.959 . S
C1347 H1333 0.961 . S
C1347 C1346 1.502 . S
C1348 H1334 0.960 . S
C1348 H1335 0.961 . S
C1348 H1336 0.959 . S
C1348 C1346 1.561 . S
C1349 C1346 1.526 . S
C1349 C1350 1.396 . S
C1349 C1354 1.390 . S
C1350 C1344 1.465 . S
C1350 C1349 1.396 . S
C1350 C1351 1.399 . S
C1351 H1337 0.929 . S
C1351 C1350 1.399 . S
C1351 C1352 1.385 . S
C1352 H1338 0.931 . S
C1352 C1351 1.385 . S
C1352 C1353 1.389 . S
C1353 C1352 1.389 . S
C1353 C1354 1.387 . S
C1354 H1339 0.930 . S
C1354 C1349 1.390 . S
C1354 C1353 1.387 . S
H1355 C1367 0.930 . S
H1356 C1369 0.930 . S
H1357 C1370 0.930 . S
H1358 C1374 0.949 1_455 S
H1359 C1374 0.952 1_455 S
H1360 C1374 0.953 1_455 S
H1361 C1375 0.960 . S
H1362 C1375 0.961 . S
H1363 C1375 0.959 . S
H1364 C1378 0.929 . S
H1365 C1379 0.931 . S
H1366 C1381 0.930 . S
C1367 H1355 0.930 . S
C1367 C1368 1.399 . S
C1367 C1372 1.399 . S
C1368 C1367 1.399 . S
C1368 C1369 1.376 . S
C1369 H1356 0.930 . S
C1369 C1368 1.376 . S
C1369 C1370 1.388 . S
C1370 H1357 0.930 . S
C1370 C1369 1.388 . S
C1370 C1371 1.390 . S
C1371 C1370 1.390 . S
C1371 C1372 1.394 . S
C1371 C1377 1.465 . S
C1372 C1367 1.399 . S
C1372 C1371 1.394 . S
C1372 C1373 1.516 . S
C1373 C1372 1.516 . S
C1373 C1374 1.528 . S
C1373 C1375 1.561 . S
C1373 C1376 1.526 . S
C1374 H1358 0.949 1_655 S
C1374 H1359 0.952 1_655 S
C1374 H1360 0.953 1_655 S
C1374 C1373 1.528 . S
C1375 H1361 0.960 . S
C1375 H1362 0.961 . S
C1375 H1363 0.959 . S
C1375 C1373 1.561 . S
C1376 C1373 1.526 . S
C1376 C1377 1.396 . S
C1376 C1381 1.390 . S
C1377 C1371 1.465 . S
C1377 C1376 1.396 . S
C1377 C1378 1.399 . S
C1378 H1364 0.929 . S
C1378 C1377 1.399 . S
C1378 C1379 1.385 . S
C1379 H1365 0.931 . S
C1379 C1378 1.385 . S
C1379 C1380 1.389 . S
C1380 C1379 1.389 . S
C1380 C1381 1.387 . S
C1381 H1366 0.930 . S
C1381 C1376 1.390 . S
C1381 C1380 1.387 . S
H1382 C1394 0.930 . S
H1383 C1396 0.930 . S
H1384 C1397 0.930 . S
H1385 C1401 0.959 . S
H1386 C1401 0.959 . S
H1387 C1401 0.961 . S
H1388 C1402 0.960 . S
H1389 C1402 0.961 . S
H1390 C1402 0.959 . S
H1391 C1405 0.929 . S
H1392 C1406 0.931 . S
H1393 C1408 0.930 . S
C1394 H1382 0.930 . S
C1394 C1395 1.399 . S
C1394 C1399 1.399 . S
C1395 C1394 1.399 . S
C1395 C1396 1.376 . S
C1396 H1383 0.930 . S
C1396 C1395 1.376 . S
C1396 C1397 1.388 . S
C1397 H1384 0.930 . S
C1397 C1396 1.388 . S
C1397 C1398 1.390 . S
C1398 C1397 1.390 . S
C1398 C1399 1.394 . S
C1398 C1404 1.465 . S
C1399 C1394 1.399 . S
C1399 C1398 1.394 . S
C1399 C1400 1.516 . S
C1400 C1399 1.516 . S
C1400 C1401 1.502 . S
C1400 C1402 1.561 . S
C1400 C1403 1.526 . S
C1401 H1385 0.959 . S
C1401 H1386 0.959 . S
C1401 H1387 0.961 . S
C1401 C1400 1.502 . S
C1402 H1388 0.960 . S
C1402 H1389 0.961 . S
C1402 H1390 0.959 . S
C1402 C1400 1.561 . S
C1403 C1400 1.526 . S
C1403 C1404 1.396 . S
C1403 C1408 1.390 . S
C1404 C1398 1.465 . S
C1404 C1403 1.396 . S
C1404 C1405 1.399 . S
C1405 H1391 0.929 . S
C1405 C1404 1.399 . S
C1405 C1406 1.385 . S
C1406 H1392 0.931 . S
C1406 C1405 1.385 . S
C1406 C1407 1.389 . S
C1407 C1406 1.389 . S
C1407 C1408 1.387 . S
C1408 H1393 0.930 . S
C1408 C1403 1.390 . S
C1408 C1407 1.387 . S
H1409 C1421 0.930 . S
H1410 C1423 0.930 . S
H1411 C1424 0.930 . S
H1412 C1428 0.959 . S
H1413 C1428 0.959 . S
H1414 C1428 0.961 . S
H1415 C1429 0.960 . S
H1416 C1429 0.961 . S
H1417 C1429 0.959 . S
H1418 C1432 0.929 . S
H1419 C1433 0.931 . S
H1420 C1435 0.930 . S
C1421 H1409 0.930 . S
C1421 C1422 1.399 . S
C1421 C1426 1.399 . S
C1422 C1421 1.399 . S
C1422 C1423 1.376 . S
C1423 H1410 0.930 . S
C1423 C1422 1.376 . S
C1423 C1424 1.388 . S
C1424 H1411 0.930 . S
C1424 C1423 1.388 . S
C1424 C1425 1.390 . S
C1425 C1424 1.390 . S
C1425 C1426 1.394 . S
C1425 C1431 1.465 . S
C1426 C1421 1.399 . S
C1426 C1425 1.394 . S
C1426 C1427 1.516 . S
C1427 C1426 1.516 . S
C1427 C1428 1.502 . S
C1427 C1429 1.561 . S
C1427 C1430 1.526 . S
C1428 H1412 0.959 . S
C1428 H1413 0.959 . S
C1428 H1414 0.961 . S
C1428 C1427 1.502 . S
C1429 H1415 0.960 . S
C1429 H1416 0.961 . S
C1429 H1417 0.959 . S
C1429 C1427 1.561 . S
C1430 C1427 1.526 . S
C1430 C1431 1.396 . S
C1430 C1435 1.390 . S
C1431 C1425 1.465 . S
C1431 C1430 1.396 . S
C1431 C1432 1.399 . S
C1432 H1418 0.929 . S
C1432 C1431 1.399 . S
C1432 C1433 1.385 . S
C1433 H1419 0.931 . S
C1433 C1432 1.385 . S
C1433 C1434 1.389 . S
C1434 C1433 1.389 . S
C1434 C1435 1.387 . S
C1435 H1420 0.930 . S
C1435 C1430 1.390 . S
C1435 C1434 1.387 . S
H1436 C1448 0.930 . S
H1437 C1450 0.930 . S
H1438 C1451 0.930 . S
H1439 C1455 0.959 . S
H1440 C1455 0.959 . S
H1441 C1455 0.961 . S
H1442 C1456 0.960 . S
H1443 C1456 0.961 . S
H1444 C1456 0.959 . S
H1445 C1459 0.929 . S
H1446 C1460 0.931 . S
H1447 C1462 0.930 . S
C1448 H1436 0.930 . S
C1448 C1449 1.399 . S
C1448 C1453 1.399 . S
C1449 C1448 1.399 . S
C1449 C1450 1.376 . S
C1450 H1437 0.930 . S
C1450 C1449 1.376 . S
C1450 C1451 1.388 . S
C1451 H1438 0.930 . S
C1451 C1450 1.388 . S
C1451 C1452 1.390 . S
C1452 C1451 1.390 . S
C1452 C1453 1.394 . S
C1452 C1458 1.465 . S
C1453 C1448 1.399 . S
C1453 C1452 1.394 . S
C1453 C1454 1.516 . S
C1454 C1453 1.516 . S
C1454 C1455 1.502 . S
C1454 C1456 1.561 . S
C1454 C1457 1.526 . S
C1455 H1439 0.959 . S
C1455 H1440 0.959 . S
C1455 H1441 0.961 . S
C1455 C1454 1.502 . S
C1456 H1442 0.960 . S
C1456 H1443 0.961 . S
C1456 H1444 0.959 . S
C1456 C1454 1.561 . S
C1457 C1454 1.526 . S
C1457 C1458 1.396 . S
C1457 C1462 1.390 . S
C1458 C1452 1.465 . S
C1458 C1457 1.396 . S
C1458 C1459 1.399 . S
C1459 H1445 0.929 . S
C1459 C1458 1.399 . S
C1459 C1460 1.385 . S
C1460 H1446 0.931 . S
C1460 C1459 1.385 . S
C1460 C1461 1.389 . S
C1461 C1460 1.389 . S
C1461 C1462 1.387 . S
C1462 H1447 0.930 . S
C1462 C1457 1.390 . S
C1462 C1461 1.387 . S
H1463 C1475 0.930 . S
H1464 C1477 0.930 . S
H1465 C1478 0.930 . S
H1466 C1482 0.959 . S
H1467 C1482 0.959 . S
H1468 C1482 0.961 . S
H1469 C1483 0.960 . S
H1470 C1483 0.961 . S
H1471 C1483 0.959 . S
H1472 C1486 0.929 . S
H1473 C1487 0.931 . S
H1474 C1489 0.930 . S
C1475 H1463 0.930 . S
C1475 C1476 1.399 . S
C1475 C1480 1.399 . S
C1476 C1475 1.399 . S
C1476 C1477 1.376 . S
C1477 H1464 0.930 . S
C1477 C1476 1.376 . S
C1477 C1478 1.388 . S
C1478 H1465 0.930 . S
C1478 C1477 1.388 . S
C1478 C1479 1.390 . S
C1479 C1478 1.390 . S
C1479 C1480 1.394 . S
C1479 C1485 1.465 . S
C1480 C1475 1.399 . S
C1480 C1479 1.394 . S
C1480 C1481 1.516 . S
C1481 C1480 1.516 . S
C1481 C1482 1.502 . S
C1481 C1483 1.561 . S
C1481 C1484 1.526 . S
C1482 H1466 0.959 . S
C1482 H1467 0.959 . S
C1482 H1468 0.961 . S
C1482 C1481 1.502 . S
C1483 H1469 0.960 . S
C1483 H1470 0.961 . S
C1483 H1471 0.959 . S
C1483 C1481 1.561 . S
C1484 C1481 1.526 . S
C1484 C1485 1.396 . S
C1484 C1489 1.390 . S
C1485 C1479 1.465 . S
C1485 C1484 1.396 . S
C1485 C1486 1.399 . S
C1486 H1472 0.929 . S
C1486 C1485 1.399 . S
C1486 C1487 1.385 . S
C1487 H1473 0.931 . S
C1487 C1486 1.385 . S
C1487 C1488 1.389 . S
C1488 C1487 1.389 . S
C1488 C1489 1.387 . S
C1489 H1474 0.930 . S
C1489 C1484 1.390 . S
C1489 C1488 1.387 . S
H1490 C1502 0.930 . S
H1491 C1504 0.930 . S
H1492 C1505 0.930 1_545 S
H1493 C1509 0.959 . S
H1494 C1509 0.959 . S
H1495 C1509 0.961 . S
H1496 C1510 0.960 . S
H1497 C1510 0.961 . S
H1498 C1510 0.959 . S
H1499 C1513 0.929 1_545 S
H1500 C1514 0.931 . S
H1501 C1516 0.930 . S
C1502 H1490 0.930 . S
C1502 C1503 1.399 . S
C1502 C1507 1.399 . S
C1503 C1502 1.399 . S
C1503 C1504 1.376 . S
C1504 H1491 0.930 . S
C1504 C1503 1.376 . S
C1504 C1505 1.388 . S
C1505 H1492 0.930 1_565 S
C1505 C1504 1.388 . S
C1505 C1506 1.390 . S
C1506 C1505 1.390 . S
C1506 C1507 1.394 . S
C1506 C1512 1.465 . S
C1507 C1502 1.399 . S
C1507 C1506 1.394 . S
C1507 C1508 1.516 . S
C1508 C1507 1.516 . S
C1508 C1509 1.502 . S
C1508 C1510 1.561 . S
C1508 C1511 1.526 . S
C1509 H1493 0.959 . S
C1509 H1494 0.959 . S
C1509 H1495 0.961 . S
C1509 C1508 1.502 . S
C1510 H1496 0.960 . S
C1510 H1497 0.961 . S
C1510 H1498 0.959 . S
C1510 C1508 1.561 . S
C1511 C1508 1.526 . S
C1511 C1512 1.396 . S
C1511 C1516 1.390 . S
C1512 C1506 1.465 . S
C1512 C1511 1.396 . S
C1512 C1513 1.399 . S
C1513 H1499 0.929 1_565 S
C1513 C1512 1.399 . S
C1513 C1514 1.385 . S
C1514 H1500 0.931 . S
C1514 C1513 1.385 . S
C1514 C1515 1.389 . S
C1515 C1514 1.389 . S
C1515 C1516 1.387 . S
C1516 H1501 0.930 . S
C1516 C1511 1.390 . S
C1516 C1515 1.387 . S
H1517 C1529 0.930 . S
H1518 C1531 0.930 . S
H1519 C1532 0.930 . S
H1520 C1536 0.959 . S
H1521 C1536 0.959 . S
H1522 C1536 0.961 . S
H1523 C1537 0.960 . S
H1524 C1537 0.961 . S
H1525 C1537 0.959 1_655 S
H1526 C1540 0.929 . S
H1527 C1541 0.931 . S
H1528 C1543 0.930 . S
C1529 H1517 0.930 . S
C1529 C1530 1.399 . S
C1529 C1534 1.399 . S
C1530 C1529 1.399 . S
C1530 C1531 1.376 . S
C1531 H1518 0.930 . S
C1531 C1530 1.376 . S
C1531 C1532 1.388 . S
C1532 H1519 0.930 . S
C1532 C1531 1.388 . S
C1532 C1533 1.390 . S
C1533 C1532 1.390 . S
C1533 C1534 1.394 . S
C1533 C1539 1.465 . S
C1534 C1529 1.399 . S
C1534 C1533 1.394 . S
C1534 C1535 1.516 . S
C1535 C1534 1.516 . S
C1535 C1536 1.502 . S
C1535 C1537 1.561 . S
C1535 C1538 1.526 . S
C1536 H1520 0.959 . S
C1536 H1521 0.959 . S
C1536 H1522 0.961 . S
C1536 C1535 1.502 . S
C1537 H1523 0.960 . S
C1537 H1524 0.961 . S
C1537 H1525 0.959 1_455 S
C1537 C1535 1.561 . S
C1538 C1535 1.526 . S
C1538 C1539 1.396 . S
C1538 C1543 1.390 . S
C1539 C1533 1.465 . S
C1539 C1538 1.396 . S
C1539 C1540 1.399 . S
C1540 H1526 0.929 . S
C1540 C1539 1.399 . S
C1540 C1541 1.385 . S
C1541 H1527 0.931 . S
C1541 C1540 1.385 . S
C1541 C1542 1.389 . S
C1542 C1541 1.389 . S
C1542 C1543 1.387 . S
C1543 H1528 0.930 . S
C1543 C1538 1.390 . S
C1543 C1542 1.387 . S
H1544 C1556 0.930 . S
H1545 C1558 0.930 . S
H1546 C1559 0.930 . S
H1547 C1563 0.959 . S
H1548 C1563 0.959 . S
H1549 C1563 0.961 . S
H1550 C1564 0.960 . S
H1551 C1564 0.961 . S
H1552 C1564 0.959 . S
H1553 C1567 0.929 . S
H1554 C1568 0.931 . S
H1555 C1570 0.930 . S
C1556 H1544 0.930 . S
C1556 C1557 1.399 . S
C1556 C1561 1.399 . S
C1557 C1556 1.399 . S
C1557 C1558 1.376 . S
C1558 H1545 0.930 . S
C1558 C1557 1.376 . S
C1558 C1559 1.388 . S
C1559 H1546 0.930 . S
C1559 C1558 1.388 . S
C1559 C1560 1.390 . S
C1560 C1559 1.390 . S
C1560 C1561 1.394 . S
C1560 C1566 1.465 . S
C1561 C1556 1.399 . S
C1561 C1560 1.394 . S
C1561 C1562 1.516 . S
C1562 C1561 1.516 . S
C1562 C1563 1.502 . S
C1562 C1564 1.561 . S
C1562 C1565 1.526 . S
C1563 H1547 0.959 . S
C1563 H1548 0.959 . S
C1563 H1549 0.961 . S
C1563 C1562 1.502 . S
C1564 H1550 0.960 . S
C1564 H1551 0.961 . S
C1564 H1552 0.959 . S
C1564 C1562 1.561 . S
C1565 C1562 1.526 . S
C1565 C1566 1.396 . S
C1565 C1570 1.390 . S
C1566 C1560 1.465 . S
C1566 C1565 1.396 . S
C1566 C1567 1.399 . S
C1567 H1553 0.929 . S
C1567 C1566 1.399 . S
C1567 C1568 1.385 . S
C1568 H1554 0.931 . S
C1568 C1567 1.385 . S
C1568 C1569 1.389 . S
C1569 C1568 1.389 . S
C1569 C1570 1.387 . S
C1570 H1555 0.930 . S
C1570 C1565 1.390 . S
C1570 C1569 1.387 . S
H1571 C1583 0.930 . S
H1572 C1585 0.930 . S
H1573 C1586 0.930 . S
H1574 C1590 0.959 . S
H1575 C1590 0.959 . S
H1576 C1590 0.961 . S
H1577 C1591 0.960 . S
H1578 C1591 0.961 . S
H1579 C1591 0.959 . S
H1580 C1594 0.929 . S
H1581 C1595 0.931 . S
H1582 C1597 0.930 . S
C1583 H1571 0.930 . S
C1583 C1584 1.399 . S
C1583 C1588 1.399 . S
C1584 C1583 1.399 . S
C1584 C1585 1.376 . S
C1585 H1572 0.930 . S
C1585 C1584 1.376 . S
C1585 C1586 1.388 . S
C1586 H1573 0.930 . S
C1586 C1585 1.388 . S
C1586 C1587 1.390 . S
C1587 C1586 1.390 . S
C1587 C1588 1.394 . S
C1587 C1593 1.465 . S
C1588 C1583 1.399 . S
C1588 C1587 1.394 . S
C1588 C1589 1.516 . S
C1589 C1588 1.516 . S
C1589 C1590 1.502 . S
C1589 C1591 1.561 . S
C1589 C1592 1.526 . S
C1590 H1574 0.959 . S
C1590 H1575 0.959 . S
C1590 H1576 0.961 . S
C1590 C1589 1.502 . S
C1591 H1577 0.960 . S
C1591 H1578 0.961 . S
C1591 H1579 0.959 . S
C1591 C1589 1.561 . S
C1592 C1589 1.526 . S
C1592 C1593 1.396 . S
C1592 C1597 1.390 . S
C1593 C1587 1.465 . S
C1593 C1592 1.396 . S
C1593 C1594 1.399 . S
C1594 H1580 0.929 . S
C1594 C1593 1.399 . S
C1594 C1595 1.385 . S
C1595 H1581 0.931 . S
C1595 C1594 1.385 . S
C1595 C1596 1.389 . S
C1596 C1595 1.389 . S
C1596 C1597 1.387 . S
C1597 H1582 0.930 . S
C1597 C1592 1.390 . S
C1597 C1596 1.387 . S
H1598 C1610 0.930 . S
H1599 C1612 0.930 . S
H1600 C1613 0.930 . S
H1601 C1617 0.959 . S
H1602 C1617 0.959 . S
H1603 C1617 0.961 . S
H1604 C1618 0.960 . S
H1605 C1618 0.961 . S
H1606 C1618 0.959 . S
H1607 C1621 0.929 . S
H1608 C1622 0.931 . S
H1609 C1624 0.930 . S
C1610 H1598 0.930 . S
C1610 C1611 1.399 . S
C1610 C1615 1.399 . S
C1611 C1610 1.399 . S
C1611 C1612 1.376 . S
C1612 H1599 0.930 . S
C1612 C1611 1.376 . S
C1612 C1613 1.388 . S
C1613 H1600 0.930 . S
C1613 C1612 1.388 . S
C1613 C1614 1.390 . S
C1614 C1613 1.390 . S
C1614 C1615 1.394 . S
C1614 C1620 1.465 . S
C1615 C1610 1.399 . S
C1615 C1614 1.394 . S
C1615 C1616 1.516 . S
C1616 C1615 1.516 . S
C1616 C1617 1.502 . S
C1616 C1618 1.561 . S
C1616 C1619 1.526 . S
C1617 H1601 0.959 . S
C1617 H1602 0.959 . S
C1617 H1603 0.961 . S
C1617 C1616 1.502 . S
C1618 H1604 0.960 . S
C1618 H1605 0.961 . S
C1618 H1606 0.959 . S
C1618 C1616 1.561 . S
C1619 C1616 1.526 . S
C1619 C1620 1.396 . S
C1619 C1624 1.390 . S
C1620 C1614 1.465 . S
C1620 C1619 1.396 . S
C1620 C1621 1.399 . S
C1621 H1607 0.929 . S
C1621 C1620 1.399 . S
C1621 C1622 1.385 . S
C1622 H1608 0.931 . S
C1622 C1621 1.385 . S
C1622 C1623 1.389 . S
C1623 C1622 1.389 . S
C1623 C1624 1.387 . S
C1624 H1609 0.930 . S
C1624 C1619 1.390 . S
C1624 C1623 1.387 . S
H1625 C1637 0.930 . S
H1626 C1639 0.930 . S
H1627 C1640 0.930 . S
H1628 C1644 0.951 1_556 S
H1629 C1644 0.945 1_556 S
H1630 C1644 0.981 . S
H1631 C1645 0.960 . S
H1632 C1645 0.961 . S
H1633 C1645 0.959 . S
H1634 C1648 0.929 . S
H1635 C1649 0.931 . S
H1636 C1651 0.930 . S
C1637 H1625 0.930 . S
C1637 C1638 1.399 . S
C1637 C1642 1.399 . S
C1638 C1637 1.399 . S
C1638 C1639 1.376 . S
C1639 H1626 0.930 . S
C1639 C1638 1.376 . S
C1639 C1640 1.388 . S
C1640 H1627 0.930 . S
C1640 C1639 1.388 . S
C1640 C1641 1.390 . S
C1641 C1640 1.390 . S
C1641 C1642 1.394 . S
C1641 C1647 1.465 1_554 S
C1642 C1637 1.399 . S
C1642 C1641 1.394 . S
C1642 C1643 1.516 . S
C1643 C1642 1.516 . S
C1643 C1644 1.505 . S
C1643 C1645 1.561 . S
C1643 C1646 1.526 1_554 S
C1644 H1628 0.951 1_554 S
C1644 H1629 0.945 1_554 S
C1644 H1630 0.981 . S
C1644 C1643 1.505 . S
C1645 H1631 0.960 . S
C1645 H1632 0.961 . S
C1645 H1633 0.959 . S
C1645 C1643 1.561 . S
C1646 C1643 1.526 1_556 S
C1646 C1647 1.396 . S
C1646 C1651 1.390 . S
C1647 C1641 1.465 1_556 S
C1647 C1646 1.396 . S
C1647 C1648 1.399 . S
C1648 H1634 0.929 . S
C1648 C1647 1.399 . S
C1648 C1649 1.385 . S
C1649 H1635 0.931 . S
C1649 C1648 1.385 . S
C1649 C1650 1.389 . S
C1650 C1649 1.389 . S
C1650 C1651 1.387 . S
C1651 H1636 0.930 . S
C1651 C1646 1.390 . S
C1651 C1650 1.387 . S
H1652 C1664 0.930 . S
H1653 C1666 0.930 . S
H1654 C1667 0.930 . S
H1655 C1671 0.959 . S
H1656 C1671 0.959 . S
H1657 C1671 0.961 . S
H1658 C1672 0.960 . S
H1659 C1672 0.961 . S
H1660 C1672 0.959 . S
H1661 C1675 0.929 . S
H1662 C1676 0.931 . S
H1663 C1678 0.930 . S
C1664 H1652 0.930 . S
C1664 C1665 1.399 . S
C1664 C1669 1.399 . S
C1665 C1664 1.399 . S
C1665 C1666 1.376 . S
C1666 H1653 0.930 . S
C1666 C1665 1.376 . S
C1666 C1667 1.388 . S
C1667 H1654 0.930 . S
C1667 C1666 1.388 . S
C1667 C1668 1.390 . S
C1668 C1667 1.390 . S
C1668 C1669 1.394 . S
C1668 C1674 1.465 . S
C1669 C1664 1.399 . S
C1669 C1668 1.394 . S
C1669 C1670 1.516 . S
C1670 C1669 1.516 . S
C1670 C1671 1.502 . S
C1670 C1672 1.561 . S
C1670 C1673 1.526 . S
C1671 H1655 0.959 . S
C1671 H1656 0.959 . S
C1671 H1657 0.961 . S
C1671 C1670 1.502 . S
C1672 H1658 0.960 . S
C1672 H1659 0.961 . S
C1672 H1660 0.959 . S
C1672 C1670 1.561 . S
C1673 C1670 1.526 . S
C1673 C1674 1.396 . S
C1673 C1678 1.390 . S
C1674 C1668 1.465 . S
C1674 C1673 1.396 . S
C1674 C1675 1.399 . S
C1675 H1661 0.929 . S
C1675 C1674 1.399 . S
C1675 C1676 1.385 . S
C1676 H1662 0.931 . S
C1676 C1675 1.385 . S
C1676 C1677 1.389 . S
C1677 C1676 1.389 . S
C1677 C1678 1.387 . S
C1678 H1663 0.930 . S
C1678 C1673 1.390 . S
C1678 C1677 1.387 . S
H1679 C1691 0.930 . S
H1680 C1693 0.930 . S
H1681 C1694 0.930 . S
H1682 C1698 0.959 1_556 S
H1683 C1698 0.959 1_556 S
H1684 C1698 0.961 . S
H1685 C1699 0.960 . S
H1686 C1699 0.961 . S
H1687 C1699 0.959 . S
H1688 C1702 0.929 . S
H1689 C1703 0.931 . S
H1690 C1705 0.930 . S
C1691 H1679 0.930 . S
C1691 C1692 1.399 . S
C1691 C1696 1.399 . S
C1692 C1691 1.399 . S
C1692 C1693 1.376 . S
C1693 H1680 0.930 . S
C1693 C1692 1.376 . S
C1693 C1694 1.388 . S
C1694 H1681 0.930 . S
C1694 C1693 1.388 . S
C1694 C1695 1.390 . S
C1695 C1694 1.390 . S
C1695 C1696 1.394 . S
C1695 C1701 1.465 1_554 S
C1696 C1691 1.399 . S
C1696 C1695 1.394 . S
C1696 C1697 1.516 . S
C1697 C1696 1.516 . S
C1697 C1698 1.502 . S
C1697 C1699 1.561 . S
C1697 C1700 1.526 1_554 S
C1698 H1682 0.959 1_554 S
C1698 H1683 0.959 1_554 S
C1698 H1684 0.961 . S
C1698 C1697 1.502 . S
C1699 H1685 0.960 . S
C1699 H1686 0.961 . S
C1699 H1687 0.959 . S
C1699 C1697 1.561 . S
C1700 C1697 1.526 1_556 S
C1700 C1701 1.396 . S
C1700 C1705 1.390 . S
C1701 C1695 1.465 1_556 S
C1701 C1700 1.396 . S
C1701 C1702 1.399 . S
C1702 H1688 0.929 . S
C1702 C1701 1.399 . S
C1702 C1703 1.385 . S
C1703 H1689 0.931 . S
C1703 C1702 1.385 . S
C1703 C1704 1.389 . S
C1704 C1703 1.389 . S
C1704 C1705 1.387 . S
C1705 H1690 0.930 . S
C1705 C1700 1.390 . S
C1705 C1704 1.387 . S
H1706 C1718 0.930 . S
H1707 C1720 0.930 . S
H1708 C1721 0.930 . S
H1709 C1725 0.959 . S
H1710 C1725 0.959 . S
H1711 C1725 0.961 . S
H1712 C1726 0.960 . S
H1713 C1726 0.961 . S
H1714 C1726 0.959 . S
H1715 C1729 0.929 . S
H1716 C1730 0.931 . S
H1717 C1732 0.930 . S
C1718 H1706 0.930 . S
C1718 C1719 1.399 . S
C1718 C1723 1.399 . S
C1719 C1718 1.399 . S
C1719 C1720 1.376 . S
C1720 H1707 0.930 . S
C1720 C1719 1.376 . S
C1720 C1721 1.388 . S
C1721 H1708 0.930 . S
C1721 C1720 1.388 . S
C1721 C1722 1.390 . S
C1722 C1721 1.390 . S
C1722 C1723 1.394 . S
C1722 C1728 1.465 . S
C1723 C1718 1.399 . S
C1723 C1722 1.394 . S
C1723 C1724 1.516 . S
C1724 C1723 1.516 . S
C1724 C1725 1.502 . S
C1724 C1726 1.561 . S
C1724 C1727 1.526 . S
C1725 H1709 0.959 . S
C1725 H1710 0.959 . S
C1725 H1711 0.961 . S
C1725 C1724 1.502 . S
C1726 H1712 0.960 . S
C1726 H1713 0.961 . S
C1726 H1714 0.959 . S
C1726 C1724 1.561 . S
C1727 C1724 1.526 . S
C1727 C1728 1.396 . S
C1727 C1732 1.390 . S
C1728 C1722 1.465 . S
C1728 C1727 1.396 . S
C1728 C1729 1.399 . S
C1729 H1715 0.929 . S
C1729 C1728 1.399 . S
C1729 C1730 1.385 . S
C1730 H1716 0.931 . S
C1730 C1729 1.385 . S
C1730 C1731 1.389 . S
C1731 C1730 1.389 . S
C1731 C1732 1.387 . S
C1732 H1717 0.930 . S
C1732 C1727 1.390 . S
C1732 C1731 1.387 . S
H1733 C1745 0.930 . S
H1734 C1747 0.930 . S
H1735 C1748 0.930 . S
H1736 C1752 0.959 . S
H1737 C1752 0.959 . S
H1738 C1752 0.961 . S
H1739 C1753 0.960 . S
H1740 C1753 0.961 . S
H1741 C1753 0.959 . S
H1742 C1756 0.929 . S
H1743 C1757 0.931 . S
H1744 C1759 0.930 . S
C1745 H1733 0.930 . S
C1745 C1746 1.399 . S
C1745 C1750 1.399 . S
C1746 C1745 1.399 . S
C1746 C1747 1.376 . S
C1747 H1734 0.930 . S
C1747 C1746 1.376 . S
C1747 C1748 1.388 . S
C1748 H1735 0.930 . S
C1748 C1747 1.388 . S
C1748 C1749 1.390 . S
C1749 C1748 1.390 . S
C1749 C1750 1.394 . S
C1749 C1755 1.465 . S
C1750 C1745 1.399 . S
C1750 C1749 1.394 . S
C1750 C1751 1.516 . S
C1751 C1750 1.516 . S
C1751 C1752 1.502 . S
C1751 C1753 1.561 . S
C1751 C1754 1.526 . S
C1752 H1736 0.959 . S
C1752 H1737 0.959 . S
C1752 H1738 0.961 . S
C1752 C1751 1.502 . S
C1753 H1739 0.960 . S
C1753 H1740 0.961 . S
C1753 H1741 0.959 . S
C1753 C1751 1.561 . S
C1754 C1751 1.526 . S
C1754 C1755 1.396 . S
C1754 C1759 1.390 . S
C1755 C1749 1.465 . S
C1755 C1754 1.396 . S
C1755 C1756 1.399 . S
C1756 H1742 0.929 . S
C1756 C1755 1.399 . S
C1756 C1757 1.385 . S
C1757 H1743 0.931 . S
C1757 C1756 1.385 . S
C1757 C1758 1.389 . S
C1758 C1757 1.389 . S
C1758 C1759 1.387 . S
C1759 H1744 0.930 . S
C1759 C1754 1.390 . S
C1759 C1758 1.387 . S
H1760 C1772 0.930 . S
H1761 C1774 0.930 . S
H1762 C1775 0.930 . S
H1763 C1779 0.959 . S
H1764 C1779 0.959 . S
H1765 C1779 0.961 . S
H1766 C1780 0.960 . S
H1767 C1780 0.961 . S
H1768 C1780 0.959 . S
H1769 C1783 0.929 . S
H1770 C1784 0.931 . S
H1771 C1786 0.933 . S
C1772 H1760 0.930 . S
C1772 C1773 1.399 . S
C1772 C1777 1.399 . S
C1773 C1772 1.399 . S
C1773 C1774 1.376 1_545 S
C1774 H1761 0.930 . S
C1774 C1773 1.376 1_565 S
C1774 C1775 1.388 . S
C1775 H1762 0.930 . S
C1775 C1774 1.388 . S
C1775 C1776 1.390 . S
C1776 C1775 1.390 . S
C1776 C1777 1.394 1_565 S
C1776 C1782 1.465 . S
C1777 C1772 1.399 . S
C1777 C1776 1.394 1_545 S
C1777 C1778 1.516 . S
C1778 C1777 1.516 . S
C1778 C1779 1.502 . S
C1778 C1780 1.561 1_545 S
C1778 C1781 1.534 . S
C1779 H1763 0.959 . S
C1779 H1764 0.959 . S
C1779 H1765 0.961 . S
C1779 C1778 1.502 . S
C1780 H1766 0.960 . S
C1780 H1767 0.961 . S
C1780 H1768 0.959 . S
C1780 C1778 1.561 1_565 S
C1781 C1778 1.534 . S
C1781 C1782 1.387 1_545 S
C1781 C1786 1.389 . S
C1782 C1776 1.465 . S
C1782 C1781 1.387 1_565 S
C1782 C1783 1.399 . S
C1783 H1769 0.929 . S
C1783 C1782 1.399 . S
C1783 C1784 1.385 . S
C1784 H1770 0.931 . S
C1784 C1783 1.385 . S
C1784 C1785 1.389 . S
C1785 C1784 1.389 . S
C1785 C1786 1.383 1_565 S
C1786 H1771 0.933 . S
C1786 C1781 1.389 . S
C1786 C1785 1.383 1_545 S
H1787 C1799 0.930 . S
H1788 C1801 0.930 . S
H1789 C1802 0.930 . S
H1790 C1806 0.959 . S
H1791 C1806 0.959 . S
H1792 C1806 0.961 1_545 S
H1793 C1807 0.987 . S
H1794 C1807 0.935 1_565 S
H1795 C1807 0.961 . S
H1796 C1810 0.929 . S
H1797 C1811 0.931 . S
H1798 C1813 0.933 . S
C1799 H1787 0.930 . S
C1799 C1800 1.399 . S
C1799 C1804 1.399 . S
C1800 C1799 1.399 . S
C1800 C1801 1.376 1_655 S
C1801 H1788 0.930 . S
C1801 C1800 1.376 1_455 S
C1801 C1802 1.388 . S
C1802 H1789 0.930 . S
C1802 C1801 1.388 . S
C1802 C1803 1.390 . S
C1803 C1802 1.390 . S
C1803 C1804 1.394 1_455 S
C1803 C1809 1.465 1_545 S
C1804 C1799 1.399 . S
C1804 C1803 1.394 1_655 S
C1804 C1805 1.516 1_545 S
C1805 C1804 1.516 1_565 S
C1805 C1806 1.502 . S
C1805 C1807 1.559 1_665 S
C1805 C1808 1.534 . S
C1806 H1790 0.959 . S
C1806 H1791 0.959 . S
C1806 H1792 0.961 1_565 S
C1806 C1805 1.502 . S
C1807 H1793 0.987 . S
C1807 H1794 0.935 1_545 S
C1807 H1795 0.961 . S
C1807 C1805 1.559 1_445 S
C1808 C1805 1.534 . S
C1808 C1809 1.387 1_655 S
C1808 C1813 1.389 . S
C1809 C1803 1.465 1_565 S
C1809 C1808 1.387 1_455 S
C1809 C1810 1.399 . S
C1810 H1796 0.929 . S
C1810 C1809 1.399 . S
C1810 C1811 1.385 . S
C1811 H1797 0.931 . S
C1811 C1810 1.385 . S
C1811 C1812 1.389 . S
C1812 C1811 1.389 . S
C1812 C1813 1.383 1_455 S
C1813 H1798 0.933 . S
C1813 C1808 1.389 . S
C1813 C1812 1.383 1_655 S
H1814 C1826 0.930 . S
H1815 C1828 0.930 . S
H1816 C1829 0.930 . S
H1817 C1833 0.959 . S
H1818 C1833 0.959 . S
H1819 C1833 0.961 1_455 S
H1820 C1834 0.960 1_455 S
H1821 C1834 0.961 . S
H1822 C1834 0.959 . S
H1823 C1837 0.929 . S
H1824 C1838 0.931 . S
H1825 C1840 0.930 . S
C1826 H1814 0.930 . S
C1826 C1827 1.399 . S
C1826 C1831 1.399 . S
C1827 C1826 1.399 . S
C1827 C1828 1.376 . S
C1828 H1815 0.930 . S
C1828 C1827 1.376 . S
C1828 C1829 1.388 . S
C1829 H1816 0.930 . S
C1829 C1828 1.388 . S
C1829 C1830 1.390 . S
C1830 C1829 1.390 . S
C1830 C1831 1.394 . S
C1830 C1836 1.465 1_455 S
C1831 C1826 1.399 . S
C1831 C1830 1.394 . S
C1831 C1832 1.516 1_455 S
C1832 C1831 1.516 1_655 S
C1832 C1833 1.502 . S
C1832 C1834 1.561 . S
C1832 C1835 1.526 . S
C1833 H1817 0.959 . S
C1833 H1818 0.959 . S
C1833 H1819 0.961 1_655 S
C1833 C1832 1.502 . S
C1834 H1820 0.960 1_655 S
C1834 H1821 0.961 . S
C1834 H1822 0.959 . S
C1834 C1832 1.561 . S
C1835 C1832 1.526 . S
C1835 C1836 1.396 . S
C1835 C1840 1.390 . S
C1836 C1830 1.465 1_655 S
C1836 C1835 1.396 . S
C1836 C1837 1.399 . S
C1837 H1823 0.929 . S
C1837 C1836 1.399 . S
C1837 C1838 1.385 . S
C1838 H1824 0.931 . S
C1838 C1837 1.385 . S
C1838 C1839 1.389 . S
C1839 C1838 1.389 . S
C1839 C1840 1.387 . S
C1840 H1825 0.930 . S
C1840 C1835 1.390 . S
C1840 C1839 1.387 . S
H1841 C1853 0.930 . S
H1842 C1855 0.930 . S
H1843 C1856 0.930 . S
H1844 C1860 0.959 . S
H1845 C1860 0.959 . S
H1846 C1860 0.961 . S
H1847 C1861 0.960 . S
H1848 C1861 0.961 . S
H1849 C1861 0.959 . S
H1850 C1864 0.929 . S
H1851 C1865 0.931 . S
H1852 C1867 0.930 . S
C1853 H1841 0.930 . S
C1853 C1854 1.399 . S
C1853 C1858 1.399 . S
C1854 C1853 1.399 . S
C1854 C1855 1.376 . S
C1855 H1842 0.930 . S
C1855 C1854 1.376 . S
C1855 C1856 1.388 . S
C1856 H1843 0.930 . S
C1856 C1855 1.388 . S
C1856 C1857 1.390 . S
C1857 C1856 1.390 . S
C1857 C1858 1.394 . S
C1857 C1863 1.465 . S
C1858 C1853 1.399 . S
C1858 C1857 1.394 . S
C1858 C1859 1.516 . S
C1859 C1858 1.516 . S
C1859 C1860 1.502 . S
C1859 C1861 1.561 . S
C1859 C1862 1.526 . S
C1860 H1844 0.959 . S
C1860 H1845 0.959 . S
C1860 H1846 0.961 . S
C1860 C1859 1.502 . S
C1861 H1847 0.960 . S
C1861 H1848 0.961 . S
C1861 H1849 0.959 . S
C1861 C1859 1.561 . S
C1862 C1859 1.526 . S
C1862 C1863 1.396 . S
C1862 C1867 1.390 . S
C1863 C1857 1.465 . S
C1863 C1862 1.396 . S
C1863 C1864 1.399 . S
C1864 H1850 0.929 . S
C1864 C1863 1.399 . S
C1864 C1865 1.385 . S
C1865 H1851 0.931 . S
C1865 C1864 1.385 . S
C1865 C1866 1.389 . S
C1866 C1865 1.389 . S
C1866 C1867 1.387 . S
C1867 H1852 0.930 . S
C1867 C1862 1.390 . S
C1867 C1866 1.387 . S
H1868 C1880 0.930 . S
H1869 C1882 0.930 . S
H1870 C1883 0.930 . S
H1871 C1887 0.959 . S
H1872 C1887 0.959 . S
H1873 C1887 0.961 . S
H1874 C1888 0.960 . S
H1875 C1888 0.961 . S
H1876 C1888 0.959 . S
H1877 C1891 0.929 . S
H1878 C1892 0.931 . S
H1879 C1894 0.930 . S
C1880 H1868 0.930 . S
C1880 C1881 1.399 . S
C1880 C1885 1.399 . S
C1881 C1880 1.399 . S
C1881 C1882 1.376 . S
C1882 H1869 0.930 . S
C1882 C1881 1.376 . S
C1882 C1883 1.388 . S
C1883 H1870 0.930 . S
C1883 C1882 1.388 . S
C1883 C1884 1.390 . S
C1884 C1883 1.390 . S
C1884 C1885 1.394 . S
C1884 C1890 1.465 . S
C1885 C1880 1.399 . S
C1885 C1884 1.394 . S
C1885 C1886 1.516 . S
C1886 C1885 1.516 . S
C1886 C1887 1.502 . S
C1886 C1888 1.561 . S
C1886 C1889 1.526 . S
C1887 H1871 0.959 . S
C1887 H1872 0.959 . S
C1887 H1873 0.961 . S
C1887 C1886 1.502 . S
C1888 H1874 0.960 . S
C1888 H1875 0.961 . S
C1888 H1876 0.959 . S
C1888 C1886 1.561 . S
C1889 C1886 1.526 . S
C1889 C1890 1.396 . S
C1889 C1894 1.390 . S
C1890 C1884 1.465 . S
C1890 C1889 1.396 . S
C1890 C1891 1.399 . S
C1891 H1877 0.929 . S
C1891 C1890 1.399 . S
C1891 C1892 1.385 . S
C1892 H1878 0.931 . S
C1892 C1891 1.385 . S
C1892 C1893 1.389 . S
C1893 C1892 1.389 . S
C1893 C1894 1.387 . S
C1894 H1879 0.930 . S
C1894 C1889 1.390 . S
C1894 C1893 1.387 . S
H1895 C1907 0.930 . S
H1896 C1909 0.930 . S
H1897 C1910 0.930 . S
H1898 C1914 0.959 . S
H1899 C1914 0.959 1_565 S
H1900 C1914 0.961 . S
H1901 C1915 0.960 1_545 S
H1902 C1915 0.961 . S
H1903 C1915 0.959 . S
H1904 C1918 0.929 . S
H1905 C1919 0.931 . S
H1906 C1921 0.930 . S
C1907 H1895 0.930 . S
C1907 C1908 1.399 . S
C1907 C1912 1.399 . S
C1908 C1907 1.399 . S
C1908 C1909 1.376 . S
C1909 H1896 0.930 . S
C1909 C1908 1.376 . S
C1909 C1910 1.388 . S
C1910 H1897 0.930 . S
C1910 C1909 1.388 . S
C1910 C1911 1.390 . S
C1911 C1910 1.390 . S
C1911 C1912 1.394 . S
C1911 C1917 1.465 1_545 S
C1912 C1907 1.399 . S
C1912 C1911 1.394 . S
C1912 C1913 1.516 . S
C1913 C1912 1.516 . S
C1913 C1914 1.502 . S
C1913 C1915 1.561 1_545 S
C1913 C1916 1.526 1_545 S
C1914 H1898 0.959 . S
C1914 H1899 0.959 1_545 S
C1914 H1900 0.961 . S
C1914 C1913 1.502 . S
C1915 H1901 0.960 1_565 S
C1915 H1902 0.961 . S
C1915 H1903 0.959 . S
C1915 C1913 1.561 1_565 S
C1916 C1913 1.526 1_565 S
C1916 C1917 1.396 . S
C1916 C1921 1.390 . S
C1917 C1911 1.465 1_565 S
C1917 C1916 1.396 . S
C1917 C1918 1.399 . S
C1918 H1904 0.929 . S
C1918 C1917 1.399 . S
C1918 C1919 1.385 . S
C1919 H1905 0.931 . S
C1919 C1918 1.385 . S
C1919 C1920 1.389 . S
C1920 C1919 1.389 . S
C1920 C1921 1.387 . S
C1921 H1906 0.930 . S
C1921 C1916 1.390 . S
C1921 C1920 1.387 . S
H1922 C1934 0.930 . S
H1923 C1936 0.931 1_545 S
H1924 C1937 0.930 . S
H1925 C1941 0.959 . S
H1926 C1941 0.959 . S
H1927 C1941 0.961 1_455 S
H1928 C1942 0.960 . S
H1929 C1942 0.961 1_655 S
H1930 C1942 0.959 . S
H1931 C1945 0.929 . S
H1932 C1946 0.931 . S
H1933 C1948 0.930 . S
C1934 H1922 0.930 . S
C1934 C1935 1.399 . S
C1934 C1939 1.399 . S
C1935 C1934 1.399 . S
C1935 C1936 1.376 . S
C1936 H1923 0.931 1_565 S
C1936 C1935 1.376 . S
C1936 C1937 1.389 1_565 S
C1937 H1924 0.930 . S
C1937 C1936 1.389 1_545 S
C1937 C1938 1.390 . S
C1938 C1937 1.390 . S
C1938 C1939 1.394 1_545 S
C1938 C1944 1.465 1_455 S
C1939 C1934 1.399 . S
C1939 C1938 1.394 1_565 S
C1939 C1940 1.502 1_455 S
C1940 C1939 1.502 1_655 S
C1940 C1941 1.504 . S
C1940 C1942 1.560 1_665 S
C1940 C1943 1.539 1_565 S
C1941 H1925 0.959 . S
C1941 H1926 0.959 . S
C1941 H1927 0.961 1_655 S
C1941 C1940 1.504 . S
C1942 H1928 0.960 . S
C1942 H1929 0.961 1_455 S
C1942 H1930 0.959 . S
C1942 C1940 1.560 1_445 S
C1943 C1940 1.539 1_545 S
C1943 C1944 1.396 . S
C1943 C1948 1.390 . S
C1944 C1938 1.465 1_655 S
C1944 C1943 1.396 . S
C1944 C1945 1.399 . S
C1945 H1931 0.929 . S
C1945 C1944 1.399 . S
C1945 C1946 1.385 . S
C1946 H1932 0.931 . S
C1946 C1945 1.385 . S
C1946 C1947 1.389 . S
C1947 C1946 1.389 . S
C1947 C1948 1.387 . S
C1948 H1933 0.930 . S
C1948 C1943 1.390 . S
C1948 C1947 1.387 . S
H1949 C1961 0.930 . S
H1950 C1963 0.930 . S
H1951 C1964 0.930 . S
H1952 C1968 0.959 . S
H1953 C1968 0.959 . S
H1954 C1968 0.961 . S
H1955 C1969 0.960 . S
H1956 C1969 0.961 . S
H1957 C1969 0.959 . S
H1958 C1972 0.929 . S
H1959 C1973 0.931 . S
H1960 C1975 0.930 . S
C1961 H1949 0.930 . S
C1961 C1962 1.399 . S
C1961 C1966 1.399 . S
C1962 C1961 1.399 . S
C1962 C1963 1.376 . S
C1963 H1950 0.930 . S
C1963 C1962 1.376 . S
C1963 C1964 1.388 . S
C1964 H1951 0.930 . S
C1964 C1963 1.388 . S
C1964 C1965 1.389 1_455 S
C1965 C1964 1.389 1_655 S
C1965 C1966 1.394 1_655 S
C1965 C1971 1.466 . S
C1966 C1961 1.399 . S
C1966 C1965 1.394 1_455 S
C1966 C1967 1.516 1_455 S
C1967 C1966 1.516 1_655 S
C1967 C1968 1.502 1_655 S
C1967 C1969 1.561 . S
C1967 C1970 1.526 . S
C1968 H1952 0.959 . S
C1968 H1953 0.959 . S
C1968 H1954 0.961 . S
C1968 C1967 1.502 1_455 S
C1969 H1955 0.960 . S
C1969 H1956 0.961 . S
C1969 H1957 0.959 . S
C1969 C1967 1.561 . S
C1970 C1967 1.526 . S
C1970 C1971 1.396 . S
C1970 C1975 1.390 . S
C1971 C1965 1.466 . S
C1971 C1970 1.396 . S
C1971 C1972 1.399 . S
C1972 H1958 0.929 . S
C1972 C1971 1.399 . S
C1972 C1973 1.385 . S
C1973 H1959 0.931 . S
C1973 C1972 1.385 . S
C1973 C1974 1.389 . S
C1974 C1973 1.389 . S
C1974 C1975 1.387 . S
C1975 H1960 0.930 . S
C1975 C1970 1.390 . S
C1975 C1974 1.387 . S
C477 C21 0.410 1_556 S
C489 C224 0.242 . S
C504 C137 0.379 . S
C516 C50 0.510 . S
C531 C79 0.397 . S
C543 C166 0.238 . S
C558 C108 0.381 . S
C570 C195 0.511 . S
C585 C456 0.234 . S
C597 C253 0.370 . S
C612 C369 0.395 . S
C624 C282 0.514 . S
C639 C311 0.234 . S
C651 C398 0.369 1_554 S
C666 C340 0.430 . S
C678 C427 0.252 . S
C693 C97 2.315 . S
C705 C5 2.260 1_556 S
C720 C34 2.261 . S
C732 C10 2.272 . S
C747 C63 2.288 . S
C759 C39 2.299 . S
C774 C92 2.293 . S
C786 C68 2.293 . S
C801 C121 2.242 . S
C813 C155 2.301 . S
C828 C150 2.291 . S
C840 C184 2.296 . S
C855 C213 2.284 . S
C867 C179 2.299 . S
C882 C208 2.290 1_554 S
C894 C126 2.260 . S
C909 C329 2.283 . S
C921 C237 2.299 . S
C936 C266 2.293 . S
C948 C242 2.260 . S
C963 C271 2.266 . S
C975 C295 2.301 1_556 S
C990 C324 2.256 . S
C1002 C300 2.276 . S
C1017 C353 2.289 . S
C1029 C387 2.260 . S
C1044 C382 2.297 1_554 S
C1056 C416 2.288 . S
C1071 C411 2.267 . S
C1083 C445 2.268 . S
C1098 C440 2.257 . S
C1110 C358 2.276 . S
C1125 C124 0.924 . S
C1137 C8 0.839 . S
C1152 C153 0.825 . S
C1164 C37 0.936 . S
C1179 C66 0.976 . S
C1191 C182 0.783 . S
C1206 C211 0.802 . S
C1218 C95 0.956 . S
C1233 C356 0.833 . S
C1245 C240 0.942 . S
C1260 C269 0.977 . S
C1272 C385 0.781 . S
C1287 C414 0.780 . S
C1299 C298 0.983 . S
C1314 C443 0.977 . S
C1326 C327 0.781 . S
C1341 C177 2.218 . S
C1353 C3 2.185 . S
C1368 C206 2.170 . S
C1380 C32 2.196 . S
C1395 C61 2.195 . S
C1407 C119 2.214 . S
C1422 C90 2.170 . S
C1434 C148 2.193 . S
C1449 C235 2.195 . S
C1461 C409 2.214 . S
C1476 C264 2.218 . S
C1488 C438 2.181 . S
C1503 C351 2.192 . S
C1515 C293 2.216 . S
C1530 C380 2.216 . S
C1542 C322 2.175 . S
C1557 C160 2.260 . S
C1569 C15 2.265 . S
C1584 C44 2.260 . S
C1596 C189 2.265 . S
C1611 C73 2.264 . S
C1623 C218 2.261 . S
C1638 C131 2.281 . S
C1650 C102 2.278 . S
C1665 C247 2.283 . S
C1677 C392 2.276 . S
C1692 C421 2.283 . S
C1704 C276 2.275 . S
C1719 C305 2.278 . S
C1731 C450 2.258 . S
C1746 C334 2.259 . S
C1758 C363 2.282 . S
C1773 C13 1.928 . S
C1785 C303 1.859 . S
C1800 C42 1.928 . S
C1812 C332 1.859 . S
C1827 C245 1.966 . S
C1839 C71 1.885 . S
C1854 C274 1.898 . S
C1866 C100 1.961 . S
C1881 C129 1.880 . S
C1893 C419 1.966 . S
C1908 C158 1.894 . S
C1920 C448 1.963 . S
C1935 C361 1.913 . S
C1947 C187 1.866 . S
C1962 C390 1.898 . S
C1974 C216 1.877 . S
