# Generated by pormake.
# Topology zfs, (5)-cn, num edge types: 1
# Building blocks:
#     Node 0, Type 0, BuildingBlock: BEQFEK_clean_sbu_0, # of connection points: 5
#     Node 1, Type 0, BuildingBlock: BEQFEK_clean_sbu_0, # of connection points: 5
#     Node 2, Type 0, BuildingBlock: BEQFEK_clean_sbu_0, # of connection points: 5
#     Node 3, Type 0, BuildingBlock: BEQFEK_clean_sbu_0, # of connection points: 5
#     Node 4, Type 0, BuildingBlock: BEQFEK_clean_sbu_0, # of connection points: 5
#     Node 5, Type 0, BuildingBlock: BEQFEK_clean_sbu_0, # of connection points: 5
#     Node 6, Type 0, BuildingBlock: BEQFEK_clean_sbu_0, # of connection points: 5
#     Node 7, Type 0, BuildingBlock: BEQFEK_clean_sbu_0, # of connection points: 5
#     Edge 8, Type (0, 0), BuildingBlock: ZUJKAS_clean_linker_0, # of connection points: 2
#     Edge 9, Type (0, 0), BuildingBlock: ZUJKAS_clean_linker_0, # of connection points: 2
#     Edge 10, Type (0, 0), BuildingBlock: ZUJKAS_clean_linker_0, # of connection points: 2
#     Edge 11, Type (0, 0), BuildingBlock: ZUJKAS_clean_linker_0, # of connection points: 2
#     Edge 12, Type (0, 0), BuildingBlock: ZUJKAS_clean_linker_0, # of connection points: 2
#     Edge 13, Type (0, 0), BuildingBlock: ZUJKAS_clean_linker_0, # of connection points: 2
#     Edge 14, Type (0, 0), BuildingBlock: ZUJKAS_clean_linker_0, # of connection points: 2
#     Edge 15, Type (0, 0), BuildingBlock: ZUJKAS_clean_linker_0, # of connection points: 2
#     Edge 16, Type (0, 0), BuildingBlock: ZUJKAS_clean_linker_0, # of connection points: 2
#     Edge 17, Type (0, 0), BuildingBlock: ZUJKAS_clean_linker_0, # of connection points: 2
#     Edge 18, Type (0, 0), BuildingBlock: ZUJKAS_clean_linker_0, # of connection points: 2
#     Edge 19, Type (0, 0), BuildingBlock: ZUJKAS_clean_linker_0, # of connection points: 2
#     Edge 20, Type (0, 0), BuildingBlock: ZUJKAS_clean_linker_0, # of connection points: 2
#     Edge 21, Type (0, 0), BuildingBlock: ZUJKAS_clean_linker_0, # of connection points: 2
#     Edge 22, Type (0, 0), BuildingBlock: ZUJKAS_clean_linker_0, # of connection points: 2
#     Edge 23, Type (0, 0), BuildingBlock: ZUJKAS_clean_linker_0, # of connection points: 2
#     Edge 24, Type (0, 0), BuildingBlock: ZUJKAS_clean_linker_0, # of connection points: 2
#     Edge 25, Type (0, 0), BuildingBlock: ZUJKAS_clean_linker_0, # of connection points: 2
#     Edge 26, Type (0, 0), BuildingBlock: ZUJKAS_clean_linker_0, # of connection points: 2
#     Edge 27, Type (0, 0), BuildingBlock: ZUJKAS_clean_linker_0, # of connection points: 2
# Relax obj value: 0.255
# Max RMSD: 0.151
# Mean RMSD: 0.151
data_MOF--net-zfs--node1-BEQFEK_clean_sbu_0--edge1-ZUJKAS_clean_linker_0
_symmetry_space_group_name_H-M    P1
_symmetry_Int_Tables_number       1
_symmetry_cell_setting            triclinic
loop_
_symmetry_equiv_pos_as_xyz
'x, y, z'
_cell_length_a     41.935516
_cell_length_b     41.930803
_cell_length_c     52.124521
_cell_angle_alpha  89.985906
_cell_angle_beta   90.015318
_cell_angle_gamma 90.015272
loop_
_atom_site_label
_atom_site_type_symbol
_atom_site_fract_x
_atom_site_fract_y
_atom_site_fract_z
_atom_type_partial_charge
Co0 Co 0.06248 0.26526 0.24472 0.0
Co1 Co 0.01004 0.27315 0.20282 0.0
C2 C 0.04379 0.32958 0.22703 0.0
O3 O 0.06144 0.31192 0.24083 0.0
O4 O 0.0231 0.31755 0.212 0.0
C5 C 0.12344 0.27057 0.26965 0.0
O6 O 0.12906 0.29299 0.25263 0.0
C7 C 0.99319 0.2941 0.15187 0.0
C8 C 0.94809 0.26889 0.14373 0.0
C9 C 0.97058 0.28907 0.13282 0.0
N10 N 0.98454 0.2776 0.17282 0.0
N11 N 0.95725 0.26301 0.16806 0.0
C12 C 0.02457 0.31097 0.14951 0.0
H13 H 0.04138 0.30276 0.16456 0.0
H14 H 0.03529 0.30678 0.13035 0.0
H15 H 0.02077 0.33697 0.15197 0.0
C16 C 0.09173 0.22472 0.204 0.0
N17 N 0.06864 0.24426 0.21281 0.0
N18 N 0.04599 0.24655 0.19542 0.0
C19 C 0.05365 0.22791 0.17521 0.0
C20 C 0.08303 0.21371 0.17987 0.0
C21 C 0.12062 0.21536 0.21907 0.0
H22 H 0.11341 0.20795 0.23865 0.0
H23 H 0.13665 0.23629 0.22085 0.0
H24 H 0.13379 0.19556 0.20975 0.0
O25 O 0.02223 0.25075 0.2612 0.0
O26 O 0.98454 0.25405 0.23129 0.0
H27 H 0.00799 0.22169 0.1573 0.0
H28 H 0.04036 0.2029 0.14027 0.0
C29 C 0.03339 0.22398 0.15174 0.0
H30 H 0.03616 0.24524 0.13935 0.0
H31 H 0.94562 0.24801 0.18103 0.0
O32 O 0.09717 0.25547 0.26897 0.0
C33 C 0.99339 0.24704 0.25403 0.0
Co34 Co 0.7365 0.06807 0.50031 0.0
Co35 Co 0.72677 0.01672 0.45749 0.0
C36 C 0.6712 0.04596 0.48536 0.0
O37 O 0.68953 0.06352 0.49871 0.0
O38 O 0.68247 0.0268 0.46873 0.0
C39 C 0.72588 0.12554 0.52921 0.0
O40 O 0.69703 0.12432 0.51946 0.0
C41 C 0.70431 0.99557 0.40754 0.0
C42 C 0.74074 0.96032 0.39624 0.0
C43 C 0.71479 0.97731 0.387 0.0
N44 N 0.72394 0.99068 0.42751 0.0
N45 N 0.74509 0.96881 0.42093 0.0
C46 C 0.67682 0.01835 0.40813 0.0
H47 H 0.66108 0.01204 0.42437 0.0
H48 H 0.68567 0.04295 0.41143 0.0
H49 H 0.66243 0.01735 0.39031 0.0
C50 C 0.77409 0.09921 0.4591 0.0
N51 N 0.75472 0.07581 0.46765 0.0
N52 N 0.75049 0.05464 0.44935 0.0
C53 C 0.76685 0.06421 0.42836 0.0
C54 C 0.7825 0.09269 0.43385 0.0
C55 C 0.78653 0.12552 0.47574 0.0
H56 H 0.79502 0.11547 0.4942 0.0
H57 H 0.76687 0.14241 0.48 0.0
H58 H 0.80644 0.13859 0.46649 0.0
O59 O 0.7551 0.02897 0.51553 0.0
O60 O 0.74902 0.99219 0.48521 0.0
H61 H 0.77715 0.0229 0.40573 0.0
H62 H 0.78 0.05994 0.3881 0.0
C63 C 0.76674 0.04699 0.40322 0.0
H64 H 0.74189 0.04454 0.39653 0.0
H65 H 0.76381 0.96132 0.43269 0.0
O66 O 0.74608 0.1041 0.52346 0.0
C67 C 0.7586 1.00047 0.50749 0.0
Co68 Co 0.93459 0.73515 0.74754 0.0
Co69 Co 0.98766 0.72643 0.70617 0.0
C70 C 0.95715 0.6705 0.73344 0.0
O71 O 0.93843 0.68833 0.74611 0.0
O72 O 0.97732 0.68231 0.71787 0.0
C73 C 0.87624 0.72541 0.77506 0.0
O74 O 0.87709 0.697 0.76448 0.0
C75 C 0.0031 0.70643 0.65471 0.0
C76 C 0.04788 0.73199 0.64617 0.0
C77 C 0.02451 0.713 0.63515 0.0
N78 N 0.01275 0.72165 0.676 0.0
N79 N 0.03992 0.73636 0.67099 0.0
C80 C 0.97354 0.68637 0.65334 0.0
H81 H 0.95227 0.70201 0.65224 0.0
H82 H 0.97399 0.67029 0.63644 0.0
H83 H 0.97128 0.67169 0.67089 0.0
C84 C 0.90361 0.7707 0.70499 0.0
N85 N 0.92748 0.75275 0.71461 0.0
N86 N 0.95048 0.75065 0.69755 0.0
C87 C 0.94234 0.76816 0.67679 0.0
C88 C 0.91218 0.78097 0.6806 0.0
C89 C 0.87322 0.77757 0.71896 0.0
H90 H 0.87831 0.79355 0.73543 0.0
H91 H 0.86327 0.75501 0.72665 0.0
H92 H 0.85524 0.78888 0.70629 0.0
O93 O 0.97402 0.75383 0.76311 0.0
O94 O 0.01193 0.74868 0.73355 0.0
H95 H 0.98943 0.77719 0.66216 0.0
H96 H 0.95835 0.79979 0.64671 0.0
C97 C 0.96449 0.77632 0.65522 0.0
H98 H 0.9624 0.75807 0.63997 0.0
H99 H 0.05215 0.75066 0.68411 0.0
O100 O 0.89827 0.74538 0.77022 0.0
C101 C 0.00277 0.75786 0.7557 0.0
Co102 Co 0.26722 0.93506 0.99612 0.0
Co103 Co 0.27433 0.98805 0.9542 0.0
C104 C 0.33108 0.95954 0.98179 0.0
O105 O 0.31389 0.94024 0.9945 0.0
O106 O 0.31861 0.97929 0.96621 0.0
C107 C 0.27846 0.87735 0.02434 0.0
O108 O 0.30707 0.87895 0.01418 0.0
C109 C 0.29584 0.00511 0.90333 0.0
C110 C 0.26244 0.04316 0.89182 0.0
C111 C 0.28596 0.02305 0.88236 0.0
N112 N 0.27798 0.01313 0.92372 0.0
N113 N 0.25873 0.03662 0.91697 0.0
C114 C 0.32146 0.98021 0.90422 0.0
H115 H 0.3365 0.98384 0.92141 0.0
H116 H 0.3104 0.95623 0.90564 0.0
H117 H 0.33724 0.98144 0.88718 0.0
C118 C 0.23226 0.90267 0.95414 0.0
N119 N 0.24973 0.92713 0.96334 0.0
N120 N 0.25172 0.94961 0.9458 0.0
C121 C 0.23504 0.94021 0.92492 0.0
C122 C 0.22243 0.91008 0.92942 0.0
C123 C 0.22533 0.87282 0.96885 0.0
H124 H 0.2099 0.87863 0.9855 0.0
H125 H 0.24796 0.86279 0.97633 0.0
H126 H 0.21342 0.85459 0.95676 0.0
O127 O 0.24754 0.97397 0.01138 0.0
O128 O 0.25119 0.0118 0.98158 0.0
H129 H 0.22326 0.98563 0.90868 0.0
H130 H 0.20695 0.95232 0.89142 0.0
C131 C 0.22802 0.96096 0.90225 0.0
H132 H 0.24885 0.96091 0.88919 0.0
H133 H 0.24149 0.04656 0.929 0.0
O134 O 0.25797 0.89873 0.01907 0.0
C135 C 0.2425 0.00249 0.00384 0.0
Co136 Co 0.06931 0.73487 0.25041 0.0
Co137 Co 0.01797 0.72534 0.29323 0.0
C138 C 0.04785 0.66964 0.26598 0.0
O139 O 0.06526 0.68791 0.25248 0.0
O140 O 0.02855 0.68099 0.28246 0.0
C141 C 0.12789 0.72451 0.2232 0.0
O142 O 0.12742 0.69644 0.23436 0.0
C143 C 0.99711 0.70333 0.34335 0.0
C144 C 0.96118 0.73926 0.3543 0.0
C145 C 0.97859 0.71372 0.36376 0.0
N146 N 0.99193 0.72263 0.32321 0.0
N147 N 0.96968 0.74348 0.32959 0.0
C148 C 0.02041 0.67627 0.34303 0.0
H149 H 0.01428 0.66008 0.32703 0.0
H150 H 0.04481 0.68552 0.3395 0.0
H151 H 0.01979 0.66221 0.36104 0.0
C152 C 0.09966 0.77389 0.29111 0.0
N153 N 0.0767 0.75383 0.28283 0.0
N154 N 0.05556 0.74961 0.30116 0.0
C155 C 0.06475 0.76664 0.32191 0.0
C156 C 0.09291 0.78275 0.31622 0.0
C157 C 0.12564 0.78665 0.27429 0.0
H158 H 0.11545 0.79415 0.25561 0.0
H159 H 0.14324 0.76744 0.27056 0.0
H160 H 0.13795 0.80731 0.28313 0.0
O161 O 0.03014 0.7528 0.23487 0.0
O162 O 0.99335 0.7469 0.26521 0.0
H163 H 0.02323 0.77687 0.3443 0.0
H164 H 0.06016 0.78053 0.36199 0.0
C165 C 0.04743 0.76681 0.34701 0.0
H166 H 0.04526 0.74207 0.35402 0.0
H167 H 0.96188 0.76191 0.31766 0.0
O168 O 0.10547 0.74423 0.22742 0.0
C169 C 0.0016 0.75617 0.24283 0.0
Co170 Co 0.26729 0.06864 0.50145 0.0
Co171 Co 0.27229 0.01573 0.54335 0.0
C172 C 0.33067 0.04641 0.5207 0.0
O173 O 0.31389 0.06448 0.50647 0.0
O174 O 0.31767 0.02635 0.53579 0.0
C175 C 0.27956 0.12624 0.47213 0.0
O176 O 0.30867 0.12479 0.48137 0.0
C177 C 0.2885 0.99047 0.59382 0.0
C178 C 0.25121 0.95389 0.59937 0.0
C179 C 0.27598 0.96949 0.61175 0.0
N180 N 0.27155 0.98773 0.57205 0.0
N181 N 0.24991 0.96517 0.57522 0.0
C182 C 0.31279 0.01605 0.59842 0.0
H183 H 0.30956 0.03597 0.58467 0.0
H184 H 0.31111 0.02533 0.61831 0.0
H185 H 0.33696 0.00584 0.59572 0.0
C186 C 0.22629 0.09866 0.54122 0.0
N187 N 0.24566 0.0751 0.53303 0.0
N188 N 0.24794 0.05317 0.55099 0.0
C189 C 0.23016 0.06226 0.57134 0.0
C190 C 0.21574 0.09138 0.56583 0.0
C191 C 0.21637 0.12631 0.5249 0.0
H192 H 0.20873 0.11754 0.50579 0.0
H193 H 0.23712 0.14235 0.52202 0.0
H194 H 0.1965 0.13995 0.53364 0.0
O195 O 0.25085 0.03013 0.48372 0.0
O196 O 0.25279 0.99261 0.51376 0.0
H197 H 0.21873 0.01979 0.59225 0.0
H198 H 0.21288 0.05599 0.61046 0.0
C199 C 0.22808 0.04406 0.59602 0.0
H200 H 0.25218 0.04199 0.60441 0.0
H201 H 0.23289 0.95901 0.56148 0.0
O202 O 0.25926 0.10513 0.47843 0.0
C203 C 0.24606 0.00153 0.49101 0.0
Co204 Co 0.93933 0.2666 0.75662 0.0
Co205 Co 0.9927 0.27431 0.79788 0.0
C206 C 0.95933 0.33093 0.77396 0.0
O207 O 0.94085 0.31331 0.76084 0.0
O208 O 0.98054 0.31883 0.78846 0.0
C209 C 0.87976 0.27534 0.73001 0.0
O210 O 0.87915 0.30319 0.74153 0.0
C211 C 0.01213 0.2956 0.84822 0.0
C212 C 0.05558 0.26754 0.85609 0.0
C213 C 0.03469 0.2893 0.86708 0.0
N214 N 0.01923 0.27821 0.82736 0.0
N215 N 0.04559 0.26195 0.83193 0.0
C216 C 0.9819 0.3144 0.8508 0.0
H217 H 0.96423 0.30686 0.83618 0.0
H218 H 0.97138 0.3113 0.87018 0.0
H219 H 0.98722 0.34007 0.84787 0.0
C220 C 0.91154 0.2251 0.7969 0.0
N221 N 0.93412 0.24541 0.78844 0.0
N222 N 0.9564 0.24842 0.80603 0.0
C223 C 0.94869 0.22992 0.82635 0.0
C224 C 0.91988 0.21458 0.82128 0.0
C225 C 0.884 0.21405 0.78091 0.0
H226 H 0.89275 0.20654 0.76177 0.0
H227 H 0.86718 0.23418 0.77809 0.0
H228 H 0.87121 0.19376 0.78987 0.0
O229 O 0.9789 0.25191 0.73929 0.0
O230 O 0.01696 0.25449 0.769 0.0
H231 H 0.99342 0.22264 0.84539 0.0
H232 H 0.95943 0.2091 0.86371 0.0
C233 C 0.96822 0.22762 0.85036 0.0
H234 H 0.9671 0.25062 0.86068 0.0
H235 H 0.05589 0.24596 0.81902 0.0
O236 O 0.90304 0.25652 0.73387 0.0
C237 C 0.00774 0.24774 0.7463 0.0
Co238 Co 0.73469 0.9321 0.00354 0.0
Co239 Co 0.7294 0.98589 0.04468 0.0
C240 C 0.67154 0.95683 0.01862 0.0
O241 O 0.68813 0.93691 0.00604 0.0
O242 O 0.68472 0.97705 0.03343 0.0
C243 C 0.7231 0.87473 0.97478 0.0
O244 O 0.69408 0.87688 0.98408 0.0
C245 C 0.71084 0.00171 0.09636 0.0
C246 C 0.73701 0.04626 0.1045 0.0
C247 C 0.7179 0.02316 0.11577 0.0
N248 N 0.72585 0.01108 0.0749 0.0
N249 N 0.74095 0.0381 0.07968 0.0
C250 C 0.69047 0.97239 0.09807 0.0
H251 H 0.70587 0.95098 0.09956 0.0
H252 H 0.67434 0.97337 0.11492 0.0
H253 H 0.67588 0.96984 0.0805 0.0
C254 C 0.77062 0.90041 0.04557 0.0
N255 N 0.75323 0.92479 0.03612 0.0
N256 N 0.75244 0.94801 0.05305 0.0
C257 C 0.77028 0.93952 0.07352 0.0
C258 C 0.7819 0.90889 0.06969 0.0
C259 C 0.77606 0.86966 0.0317 0.0
H260 H 0.7531 0.86077 0.02394 0.0
H261 H 0.7865 0.85125 0.04447 0.0
H262 H 0.79235 0.87392 0.01528 0.0
O263 O 0.75336 0.97115 0.9873 0.0
O264 O 0.75222 0.00917 0.01712 0.0
H265 H 0.80356 0.95494 0.10262 0.0
H266 H 0.7623 0.96023 0.11046 0.0
C267 C 0.77993 0.96166 0.09469 0.0
H268 H 0.78119 0.9865 0.08757 0.0
H269 H 0.75516 0.05012 0.06637 0.0
O270 O 0.74382 0.89559 0.98078 0.0
C271 C 0.75938 0.99959 0.99462 0.0
H272 H 0.01889 0.62243 0.29399 0.0
H273 H 0.02114 0.56503 0.28682 0.0
H274 H 0.08094 0.58001 0.22058 0.0
H275 H 0.07998 0.63743 0.22828 0.0
H276 H 1.00039 0.53113 0.2477 0.0
H277 H 0.13062 0.51213 0.25687 0.0
H278 H 0.11168 0.54907 0.26592 0.0
H279 H 0.12075 0.54103 0.23278 0.0
C280 C 0.03294 0.61359 0.27813 0.0
C281 C 0.04954 0.63464 0.26192 0.0
C282 C 0.03409 0.58069 0.27397 0.0
C283 C 0.05166 0.56808 0.25341 0.0
C284 C 0.06797 0.58903 0.237 0.0
H285 H 0.01848 0.3752 0.19534 0.0
H286 H 0.02129 0.43314 0.20041 0.0
C287 C 0.06719 0.62194 0.24135 0.0
C288 C 0.0517 0.53314 0.24864 0.0
H289 H 0.10035 0.46859 0.24057 0.0
C290 C 0.02226 0.51745 0.24623 0.0
C291 C 0.08023 0.51519 0.24701 0.0
C292 C 0.11259 0.53014 0.25104 0.0
C293 C 0.02051 0.4844 0.24221 0.0
C294 C 0.04904 0.46663 0.23967 0.0
C295 C 0.07849 0.48228 0.24217 0.0
C296 C 0.04883 0.43157 0.23554 0.0
C297 C 0.98808 0.46879 0.24151 0.0
C298 C 0.06459 0.41144 0.25292 0.0
C299 C 0.06353 0.37836 0.24981 0.0
C300 C 0.04651 0.3647 0.22931 0.0
C301 C 0.03144 0.38494 0.21152 0.0
C302 C 0.03285 0.41807 0.21448 0.0
H303 H 0.96967 0.48382 0.25092 0.0
H304 H 0.98077 0.46526 0.22124 0.0
H305 H 0.98848 0.44516 0.25113 0.0
H306 H 0.07722 0.4213 0.26923 0.0
H307 H 0.07546 0.3635 0.26384 0.0
H308 H 0.63926 0.07841 0.52303 0.0
H309 H 0.58193 0.0789 0.53135 0.0
H310 H 0.5665 0.01813 0.46576 0.0
H311 H 0.62378 0.01643 0.45793 0.0
H312 H 0.53276 0.09956 0.50389 0.0
H313 H 0.51882 0.96984 0.51987 0.0
H314 H 0.55738 0.98874 0.5179 0.0
H315 H 0.53594 0.97843 0.48912 0.0
C316 C 0.62372 0.06505 0.51038 0.0
C317 C 0.63626 0.04726 0.48983 0.0
C318 C 0.59091 0.06539 0.51518 0.0
C319 C 0.56992 0.04804 0.4995 0.0
C320 C 0.58227 0.03097 0.47858 0.0
H321 H 0.36657 0.07676 0.48437 0.0
H322 H 0.42454 0.07804 0.48073 0.0
C323 C 0.61509 0.0303 0.47395 0.0
C324 C 0.53509 0.04825 0.50478 0.0
H325 H 0.47079 0.99956 0.51385 0.0
C326 C 0.51925 0.07769 0.50626 0.0
C327 C 0.51752 0.01976 0.5084 0.0
C328 C 0.53335 0.98744 0.50903 0.0
C329 C 0.48623 0.07941 0.51055 0.0
C330 C 0.46838 0.05085 0.51269 0.0
C331 C 0.48437 0.02145 0.51191 0.0
C332 C 0.4331 0.05081 0.51535 0.0
C333 C 0.47095 0.11184 0.51313 0.0
C334 C 0.41845 0.03428 0.53562 0.0
C335 C 0.38519 0.033 0.53751 0.0
C336 C 0.36592 0.04832 0.51918 0.0
C337 C 0.38067 0.06497 0.49897 0.0
C338 C 0.41388 0.06593 0.49696 0.0
H339 H 0.48851 0.13006 0.51947 0.0
H340 H 0.46157 0.1194 0.49417 0.0
H341 H 0.4509 0.1114 0.52703 0.0
H342 H 0.43278 0.02228 0.54998 0.0
H343 H 0.37462 0.01999 0.55333 0.0
H344 H 0.99806 0.62515 0.71477 0.0
H345 H 0.99629 0.56761 0.7221 0.0
H346 H 0.91095 0.57884 0.76737 0.0
H347 H 0.913 0.63646 0.76077 0.0
H348 H 0.95281 0.54009 0.79065 0.0
H349 H 0.93829 0.50259 0.68944 0.0
H350 H 0.97286 0.52707 0.69426 0.0
H351 H 0.93375 0.54349 0.69954 0.0
C352 C 0.9788 0.61539 0.72618 0.0
C353 C 0.95564 0.63546 0.73713 0.0
C354 C 0.97771 0.58243 0.73021 0.0
C355 C 0.95317 0.56882 0.74492 0.0
C356 C 0.93003 0.58879 0.75587 0.0
H357 H 0.91327 0.36521 0.74898 0.0
H358 H 0.91034 0.42297 0.74347 0.0
C359 C 0.93124 0.62175 0.75203 0.0
C360 C 0.95218 0.53391 0.74963 0.0
H361 H 0.95128 0.46166 0.71946 0.0
C362 C 0.95228 0.52293 0.77509 0.0
C363 C 0.95096 0.51153 0.72933 0.0
C364 C 0.94862 0.52173 0.70162 0.0
C365 C 0.95186 0.4902 0.7808 0.0
C366 C 0.95218 0.46782 0.76048 0.0
C367 C 0.95141 0.47881 0.73504 0.0
C368 C 0.95327 0.43289 0.7651 0.0
C369 C 0.95051 0.47999 0.80855 0.0
C370 C 0.97838 0.41919 0.77912 0.0
C371 C 0.97997 0.38614 0.78253 0.0
C372 C 0.95675 0.36608 0.77161 0.0
C373 C 0.93159 0.37991 0.75763 0.0
C374 C 0.92988 0.41295 0.75443 0.0
H375 H 0.94063 0.49914 0.82095 0.0
H376 H 0.93573 0.45823 0.81097 0.0
H377 H 0.97501 0.47467 0.81535 0.0
H378 H 0.99713 0.43399 0.78701 0.0
H379 H 0.99979 0.3763 0.79325 0.0
H380 H 0.36673 0.91599 0.0084 0.0
H381 H 0.42441 0.91577 0.01475 0.0
H382 H 0.43258 0.00216 0.9703 0.0
H383 H 0.37494 0.00212 0.96323 0.0
H384 H 0.47759 0.95937 0.95718 0.0
H385 H 0.47454 0.97186 0.063 0.0
H386 H 0.4525 0.93799 0.05169 0.0
H387 H 0.43967 0.97758 0.04324 0.0
C388 C 0.38074 0.93501 0.0 0.0
C389 C 0.36614 0.95921 0.98543 0.0
C390 C 0.41373 0.93495 0.00381 0.0
C391 C 0.43274 0.95932 0.99348 0.0
C392 C 0.41833 0.98323 0.97861 0.0
H393 H 0.62865 1.00024 0.03738 0.0
H394 H 0.5709 0.00113 0.03081 0.0
C395 C 0.38536 0.98318 0.97459 0.0
C396 C 0.46774 0.95955 0.99772 0.0
H397 H 0.52487 0.95927 0.04443 0.0
C398 C 0.48794 0.9595 0.97626 0.0
C399 C 0.48122 0.96018 0.02263 0.0
C400 C 0.46088 0.96223 0.04645 0.0
C401 C 0.52125 0.95956 0.97899 0.0
C402 C 0.53471 0.95887 0.00389 0.0
C403 C 0.51452 0.95944 0.02536 0.0
C404 C 0.5697 0.95794 0.0081 0.0
C405 C 0.54163 0.96098 0.95515 0.0
C406 C 0.58814 0.93304 0.99793 0.0
C407 C 0.62116 0.9326 0.00146 0.0
C408 C 0.63639 0.95683 0.01556 0.0
C409 C 0.61773 0.98127 0.02634 0.0
C410 C 0.58471 0.98181 0.02262 0.0
H411 H 0.52815 0.97068 0.93853 0.0
H412 H 0.56312 0.97597 0.95826 0.0
H413 H 0.54954 0.93653 0.95009 0.0
H414 H 0.57698 0.9139 0.98726 0.0
H415 H 0.63472 0.91323 0.99312 0.0
H416 H 0.22017 0.13924 0.45404 0.0
H417 H 0.2054 0.1769 0.42054 0.0
H418 H 0.30324 0.20765 0.41431 0.0
H419 H 0.31849 0.1695 0.44791 0.0
H420 H 0.21449 0.24498 0.4171 0.0
H421 H 0.27853 0.1768 0.34092 0.0
H422 H 0.27003 0.15934 0.37183 0.0
H423 H 0.30031 0.18934 0.36893 0.0
C424 C 0.23861 0.15408 0.4457 0.0
C425 C 0.27058 0.15112 0.45341 0.0
C426 C 0.23008 0.17571 0.42664 0.0
C427 C 0.25329 0.19477 0.41483 0.0
C428 C 0.28508 0.19283 0.42304 0.0
H429 H 0.18494 0.29245 0.27436 0.0
H430 H 0.22248 0.28129 0.30951 0.0
C431 C 0.29369 0.17114 0.44227 0.0
C432 C 0.24366 0.21513 0.39304 0.0
H433 H 0.24122 0.21491 0.32759 0.0
C434 C 0.22099 0.23907 0.39752 0.0
C435 C 0.25236 0.20743 0.36756 0.0
C436 C 0.27655 0.18178 0.36179 0.0
C437 C 0.20492 0.25375 0.37714 0.0
C438 C 0.21156 0.24397 0.35178 0.0
C439 C 0.23623 0.22219 0.34715 0.0
C440 C 0.18949 0.25159 0.33062 0.0
C441 C 0.17955 0.2782 0.38289 0.0
C442 C 0.15897 0.23802 0.33079 0.0
C443 C 0.13777 0.24395 0.31081 0.0
C444 C 0.14664 0.26374 0.29025 0.0
C445 C 0.1774 0.2772 0.29 0.0
C446 C 0.19882 0.27093 0.31001 0.0
H447 H 0.18346 0.28961 0.40187 0.0
H448 H 0.17896 0.29699 0.36787 0.0
H449 H 0.15591 0.2663 0.38326 0.0
H450 H 0.1516 0.2226 0.3464 0.0
H451 H 0.1143 0.23321 0.31163 0.0
H452 H 0.68576 0.16485 0.55594 0.0
H453 H 0.70036 0.20271 0.58987 0.0
H454 H 0.7997 0.1802 0.57847 0.0
H455 H 0.78544 0.14244 0.54479 0.0
H456 H 0.73423 0.18377 0.63487 0.0
H457 H 0.79823 0.2788 0.58225 0.0
H458 H 0.7704 0.25199 0.56683 0.0
H459 H 0.81079 0.23957 0.57284 0.0
C460 C 0.71074 0.1684 0.5604 0.0
C461 C 0.73448 0.15057 0.54784 0.0
C462 C 0.71899 0.19001 0.57973 0.0
C463 C 0.75109 0.1945 0.58636 0.0
C464 C 0.77483 0.1775 0.57326 0.0
H465 H 0.86751 0.21621 0.71098 0.0
H466 H 0.82845 0.20162 0.67838 0.0
C467 C 0.76662 0.15572 0.55419 0.0
C468 C 0.76008 0.21408 0.60875 0.0
H469 H 0.81302 0.2715 0.62685 0.0
C470 C 0.75078 0.20355 0.63317 0.0
C471 C 0.78125 0.24013 0.60644 0.0
C472 C 0.79051 0.25352 0.58065 0.0
C473 C 0.76444 0.21654 0.65537 0.0
C474 C 0.78807 0.24037 0.65292 0.0
C475 C 0.79513 0.25294 0.62864 0.0
C476 C 0.80891 0.24916 0.67462 0.0
C477 C 0.75468 0.20359 0.6812 0.0
C478 C 0.81093 0.2808 0.68316 0.0
C479 C 0.83331 0.28925 0.70188 0.0
C480 C 0.85432 0.26624 0.71188 0.0
C481 C 0.85175 0.23449 0.70357 0.0
C482 C 0.82925 0.22605 0.68512 0.0
H483 H 0.73015 0.19357 0.68061 0.0
H484 H 0.7712 0.1841 0.68675 0.0
H485 H 0.75575 0.22238 0.69618 0.0
H486 H 0.79561 0.29899 0.67504 0.0
H487 H 0.83481 0.31393 0.70789 0.0
H488 H 0.68256 0.83488 0.94895 0.0
H489 H 0.69668 0.79607 0.91563 0.0
H490 H 0.79622 0.81851 0.9261 0.0
H491 H 0.78245 0.85709 0.95925 0.0
H492 H 0.72887 0.81325 0.87039 0.0
H493 H 0.79579 0.72058 0.92311 0.0
H494 H 0.76854 0.74771 0.93879 0.0
H495 H 0.80875 0.75994 0.93168 0.0
C496 C 0.70748 0.8311 0.94444 0.0
C497 C 0.73142 0.84915 0.95656 0.0
C498 C 0.71546 0.80893 0.92546 0.0
C499 C 0.74748 0.80414 0.91872 0.0
C500 C 0.77141 0.82137 0.93142 0.0
H501 H 0.86129 0.78447 0.79302 0.0
H502 H 0.82194 0.79804 0.82566 0.0
C503 C 0.76348 0.84366 0.95018 0.0
C504 C 0.75617 0.78418 0.89649 0.0
H505 H 0.81027 0.72798 0.87826 0.0
C506 C 0.74598 0.79397 0.87209 0.0
C507 C 0.77803 0.7587 0.89877 0.0
C508 C 0.78815 0.74589 0.92455 0.0
C509 C 0.7595 0.78099 0.84984 0.0
C510 C 0.78393 0.75799 0.85222 0.0
C511 C 0.79181 0.74597 0.87653 0.0
C512 C 0.80476 0.7497 0.83041 0.0
C513 C 0.74871 0.79314 0.82403 0.0
C514 C 0.80822 0.71797 0.82241 0.0
C515 C 0.83079 0.71011 0.80371 0.0
C516 C 0.85056 0.73384 0.79314 0.0
C517 C 0.84651 0.76566 0.80087 0.0
C518 C 0.82382 0.7735 0.81933 0.0
H519 H 0.72375 0.80197 0.82483 0.0
H520 H 0.76417 0.81336 0.81817 0.0
H521 H 0.75042 0.77425 0.80916 0.0
H522 H 0.79392 0.69928 0.83098 0.0
H523 H 0.83344 0.68537 0.79815 0.0
H524 H 0.31908 0.83592 0.04841 0.0
H525 H 0.30539 0.79624 0.08121 0.0
H526 H 0.20604 0.82123 0.07386 0.0
H527 H 0.21939 0.86072 0.04126 0.0
H528 H 0.27501 0.81231 0.12775 0.0
H529 H 0.20469 0.72305 0.07404 0.0
H530 H 0.23207 0.75024 0.05853 0.0
H531 H 0.19237 0.76302 0.06675 0.0
C532 C 0.29427 0.83256 0.05351 0.0
C533 C 0.2703 0.85154 0.04241 0.0
C534 C 0.28653 0.80989 0.07218 0.0
C535 C 0.2547 0.80553 0.07961 0.0
C536 C 0.23069 0.82378 0.06797 0.0
H537 H 0.14341 0.78361 0.20579 0.0
H538 H 0.18251 0.79726 0.17298 0.0
C539 C 0.23839 0.84656 0.04954 0.0
C540 C 0.24639 0.78478 0.10149 0.0
H541 H 0.19183 0.7288 0.11935 0.0
C542 C 0.25752 0.79338 0.1259 0.0
C543 C 0.22402 0.75977 0.09899 0.0
C544 C 0.21285 0.74824 0.07311 0.0
C545 C 0.24441 0.77976 0.14807 0.0
C546 C 0.2195 0.75729 0.1456 0.0
C547 C 0.21069 0.74637 0.12117 0.0
C548 C 0.19896 0.74881 0.16753 0.0
C549 C 0.25608 0.79076 0.17397 0.0
C550 C 0.19521 0.71698 0.17522 0.0
C551 C 0.17282 0.70907 0.19407 0.0
C552 C 0.15349 0.73286 0.20503 0.0
C553 C 0.15784 0.76476 0.19761 0.0
C554 C 0.18039 0.77264 0.17905 0.0
H555 H 0.28112 0.79933 0.17293 0.0
H556 H 0.24104 0.8109 0.18062 0.0
H557 H 0.25454 0.77131 0.18838 0.0
H558 H 0.20914 0.69827 0.16629 0.0
H559 H 0.1699 0.68427 0.19939 0.0
H560 H 0.99311 0.34463 0.11134 0.0
H561 H 0.00383 0.35462 0.06586 0.0
H562 H 0.96255 0.26353 0.0466 0.0
H563 H 0.95263 0.25296 0.09202 0.0
H564 H 0.04339 0.31334 0.03515 0.0
H565 H 0.9217 0.32696 0.99491 0.0
H566 H 0.93035 0.33194 0.02865 0.0
H567 H 0.92648 0.29265 0.01522 0.0
C568 C 0.98644 0.32667 0.09744 0.0
C569 C 0.97284 0.29762 0.10531 0.0
C570 C 0.99229 0.33257 0.07147 0.0
C571 C 0.98394 0.30983 0.05293 0.0
C572 C 0.96883 0.28155 0.06061 0.0
H573 H 0.05088 0.25188 0.90757 0.0
H574 H 0.04163 0.26238 0.95306 0.0
C575 C 0.9632 0.27554 0.08657 0.0
C576 C 0.99335 0.31421 0.02582 0.0
H577 H 0.96354 0.31583 0.96493 0.0
C578 C 0.02597 0.3144 0.01979 0.0
C579 C 0.97057 0.3159 0.00589 0.0
C580 C 0.9353 0.31716 0.01142 0.0
C581 C 0.03639 0.31452 0.99421 0.0
C582 C 0.01357 0.31427 0.97427 0.0
C583 C 0.98098 0.31582 0.98031 0.0
C584 C 0.02279 0.30985 0.94713 0.0
C585 C 0.07169 0.31427 0.98868 0.0
C586 C 0.01571 0.33327 0.92879 0.0
C587 C 0.02123 0.32742 0.90276 0.0
C588 C 0.03317 0.29775 0.89464 0.0
C589 C 0.04162 0.27495 0.9132 0.0
C590 C 0.03634 0.28091 0.93921 0.0
H591 H 0.08573 0.32307 0.00531 0.0
H592 H 0.07934 0.28946 0.98455 0.0
H593 H 0.07732 0.32917 0.97165 0.0
H594 H 0.00539 0.35583 0.93459 0.0
H595 H 0.01552 0.34588 0.889 0.0
H596 H 0.70335 0.06969 0.15035 0.0
H597 H 0.6967 0.06371 0.19697 0.0
H598 H 0.71445 0.96276 0.1903 0.0
H599 H 0.72147 0.96856 0.1442 0.0
H600 H 0.66156 0.97908 0.22266 0.0
H601 H 0.77255 0.04597 0.24584 0.0
H602 H 0.74429 0.06641 0.22578 0.0
H603 H 0.76401 0.03134 0.21401 0.0
C604 C 0.70554 0.04624 0.15889 0.0
C605 C 0.71211 0.0195 0.14357 0.0
C606 C 0.70182 0.04286 0.18543 0.0
C607 C 0.7051 0.01278 0.19698 0.0
C608 C 0.71147 0.98609 0.18168 0.0
H609 H 0.71225 0.93174 0.34977 0.0
H610 H 0.70672 0.94014 0.30335 0.0
C611 C 0.71518 0.98944 0.15526 0.0
C612 C 0.70323 0.00896 0.22511 0.0
H613 H 0.74229 0.02691 0.28061 0.0
C614 C 0.67907 0.98964 0.23541 0.0
C615 C 0.72627 0.02262 0.24154 0.0
C616 C 0.75344 0.04256 0.23133 0.0
C617 C 0.67722 0.98378 0.26189 0.0
C618 C 0.7005 0.99716 0.27829 0.0
C619 C 0.72446 0.01672 0.26796 0.0
C620 C 0.70074 0.99131 0.30627 0.0
C621 C 0.65022 0.96367 0.2721 0.0
C622 C 0.69964 0.01726 0.32317 0.0
C623 C 0.70313 0.01254 0.34947 0.0
C624 C 0.70737 0.9817 0.3595 0.0
C625 C 0.70825 0.95565 0.34258 0.0
C626 C 0.70492 0.96041 0.31614 0.0
H627 H 0.63007 0.96239 0.25829 0.0
H628 H 0.65895 0.93904 0.27546 0.0
H629 H 0.64125 0.97325 0.2906 0.0
H630 H 0.69698 0.04133 0.31591 0.0
H631 H 0.7039 0.03333 0.36172 0.0
H632 H 0.07071 0.69879 0.60022 0.0
H633 H 0.06443 0.693 0.55356 0.0
H634 H 0.96346 0.7101 0.56091 0.0
H635 H 0.96956 0.7164 0.60703 0.0
H636 H 0.98051 0.65773 0.52741 0.0
H637 H 0.04525 0.77066 0.50637 0.0
H638 H 0.06605 0.74222 0.52604 0.0
H639 H 0.03058 0.76102 0.53799 0.0
C640 C 0.04718 0.70097 0.59183 0.0
C641 C 0.02054 0.70721 0.60736 0.0
C642 C 0.04363 0.69773 0.56527 0.0
C643 C 0.01346 0.70112 0.5539 0.0
C644 C 0.98685 0.70703 0.56939 0.0
H645 H 0.93275 0.70996 0.40073 0.0
H646 H 0.94086 0.70407 0.44718 0.0
C647 C 0.99038 0.71031 0.59584 0.0
C648 C 0.00953 0.70005 0.52576 0.0
H649 H 0.02664 0.74115 0.47104 0.0
C650 C 0.99068 0.67583 0.515 0.0
C651 C 0.02268 0.72388 0.50979 0.0
C652 C 0.04208 0.75111 0.52054 0.0
C653 C 0.98488 0.67464 0.48849 0.0
C654 C 0.9978 0.69867 0.47254 0.0
C655 C 0.0168 0.72275 0.48334 0.0
C656 C 0.9922 0.69945 0.44452 0.0
C657 C 0.9654 0.6475 0.47775 0.0
C658 C 0.01832 0.69932 0.42778 0.0
C659 C 0.01376 0.70304 0.40149 0.0
C660 C 0.98291 0.70651 0.3913 0.0
C661 C 0.95669 0.70656 0.40805 0.0
C662 C 0.96129 0.70301 0.4345 0.0
H663 H 0.96446 0.62697 0.49121 0.0
H664 H 0.94062 0.6558 0.47443 0.0
H665 H 0.97527 0.6392 0.45915 0.0
H666 H 0.04239 0.69716 0.43516 0.0
H667 H 0.03462 0.70447 0.38936 0.0
H668 H 0.33226 0.96701 0.63821 0.0
H669 H 0.33956 0.97265 0.68479 0.0
H670 H 0.23775 0.98268 0.69405 0.0
H671 H 0.23044 0.97568 0.64798 0.0
H672 H 0.32713 0.02048 0.71558 0.0
H673 H 0.25501 0.91796 0.74767 0.0
H674 H 0.266 0.92344 0.71453 0.0
H675 H 0.23161 0.94353 0.72761 0.0
C676 C 0.31152 0.96988 0.65038 0.0
C677 C 0.2808 0.9705 0.63972 0.0
C678 C 0.31567 0.97321 0.67689 0.0
C679 C 0.28914 0.97744 0.69302 0.0
C680 C 0.25849 0.97833 0.68219 0.0
H681 H 0.28428 0.06617 0.84318 0.0
H682 H 0.28806 0.05532 0.79713 0.0
C683 C 0.25433 0.97442 0.65586 0.0
C684 C 0.2933 0.98236 0.721 0.0
H685 H 0.26391 0.95912 0.77899 0.0
C686 C 0.3137 0.00675 0.72952 0.0
C687 C 0.27627 0.96409 0.73925 0.0
C688 C 0.25631 0.93558 0.73178 0.0
C689 C 0.31669 0.01405 0.75571 0.0
C690 C 0.29781 0.99731 0.77377 0.0
C691 C 0.27815 0.97232 0.76523 0.0
C692 C 0.29791 0.00488 0.80163 0.0
C693 C 0.34038 0.03928 0.76366 0.0
C694 C 0.30108 0.98012 0.81954 0.0
C695 C 0.29764 0.98606 0.84568 0.0
C696 C 0.29222 0.01718 0.85475 0.0
C697 C 0.28933 0.04209 0.83685 0.0
C698 C 0.29186 0.03595 0.81052 0.0
H699 H 0.36 0.04149 0.74945 0.0
H700 H 0.32813 0.06269 0.76469 0.0
H701 H 0.35093 0.03394 0.78272 0.0
H702 H 0.30518 0.95583 0.81325 0.0
H703 H 0.29783 0.96581 0.85849 0.0
H704 H 0.14266 0.22234 0.16052 0.0
H705 H 0.17132 0.18775 0.13021 0.0
H706 H 0.09264 0.12148 0.1311 0.0
H707 H 0.0641 0.15598 0.16139 0.0
H708 H 0.19015 0.12363 0.13432 0.0
H709 H 0.10454 0.1408 0.05434 0.0
H710 H 0.10515 0.16621 0.08229 0.0
H711 H 0.08643 0.12768 0.08372 0.0
C712 C 0.13166 0.2003 0.15426 0.0
C713 C 0.10104 0.19198 0.16283 0.0
C714 C 0.14795 0.18063 0.13696 0.0
C715 C 0.1338 0.15239 0.12796 0.0
C716 C 0.10365 0.14355 0.13728 0.0
H717 H 0.22081 0.99088 0.05249 0.0
H718 H 0.19562 0.02822 0.08208 0.0
C719 C 0.08741 0.16318 0.15457 0.0
C720 C 0.15057 0.13208 0.10892 0.0
H721 H 0.1435 0.10011 0.04889 0.0
C722 C 0.18005 0.1186 0.11559 0.0
C723 C 0.13759 0.12595 0.08434 0.0
C724 C 0.10684 0.14114 0.07557 0.0
C725 C 0.19648 0.09841 0.09861 0.0
C726 C 0.18283 0.09119 0.07445 0.0
C727 C 0.15378 0.10541 0.0675 0.0
C728 C 0.19807 0.06856 0.05627 0.0
C729 C 0.22844 0.08521 0.10661 0.0
C730 C 0.20701 0.07856 0.03159 0.0
C731 C 0.2213 0.05716 0.01445 0.0
C732 C 0.22672 0.02525 0.02165 0.0
C733 C 0.21723 0.01527 0.04629 0.0
C734 C 0.20298 0.03666 0.06335 0.0
H735 H 0.23946 0.09974 0.12208 0.0
H736 H 0.2252 0.06062 0.11404 0.0
H737 H 0.24514 0.08421 0.0901 0.0
H738 H 0.20321 0.10303 0.02566 0.0
H739 H 0.2282 0.06567 0.99564 0.0
H740 H 0.93841 0.21373 0.24432 0.0
H741 H 0.90206 0.1899 0.27572 0.0
H742 H 0.95876 0.22884 0.33734 0.0
H743 H 0.99596 0.25107 0.30611 0.0
H744 H 0.94542 0.17139 0.34835 0.0
H745 H 0.83268 0.22746 0.31712 0.0
H746 H 0.85063 0.20533 0.29152 0.0
H747 H 0.87083 0.23966 0.30456 0.0
C748 C 0.94291 0.21739 0.26457 0.0
C749 C 0.97004 0.23426 0.27274 0.0
C750 C 0.92196 0.20398 0.28254 0.0
C751 C 0.92719 0.20802 0.30902 0.0
C752 C 0.95407 0.22533 0.31709 0.0
H753 H 0.78252 0.15657 0.42325 0.0
H754 H 0.81883 0.18578 0.39474 0.0
C755 C 0.97535 0.23808 0.29919 0.0
C756 C 0.90582 0.19286 0.32841 0.0
H757 H 0.82784 0.18302 0.34572 0.0
C758 C 0.91972 0.17424 0.34786 0.0
C759 C 0.87227 0.19692 0.32824 0.0
C760 C 0.85578 0.21872 0.3094 0.0
C761 C 0.90116 0.15922 0.36675 0.0
C762 C 0.86748 0.1616 0.36561 0.0
C763 C 0.85358 0.18074 0.34649 0.0
C764 C 0.84625 0.14417 0.38379 0.0
C765 C 0.91807 0.14161 0.38804 0.0
C766 C 0.84946 0.11108 0.38724 0.0
C767 C 0.82936 0.09464 0.40404 0.0
C768 C 0.80482 0.11066 0.41708 0.0
C769 C 0.80138 0.14368 0.41355 0.0
C770 C 0.82195 0.1603 0.39711 0.0
H771 H 0.94232 0.15148 0.39138 0.0
H772 H 0.90455 0.14283 0.40633 0.0
H773 H 0.9209 0.11621 0.38254 0.0
H774 H 0.86731 0.09781 0.37672 0.0
H775 H 0.83281 0.06924 0.40664 0.0
H776 H 0.77549 0.93857 0.49652 0.0
H777 H 0.80005 0.89956 0.5255 0.0
H778 H 0.80066 0.96929 0.58623 0.0
H779 H 0.7762 0.00833 0.55763 0.0
H780 H 0.85991 0.90628 0.55346 0.0
H781 H 0.75585 0.8901 0.61808 0.0
H782 H 0.7523 0.90701 0.58633 0.0
H783 H 0.76724 0.93081 0.61234 0.0
C784 C 0.78076 0.9456 0.51605 0.0
C785 C 0.77373 0.97661 0.52472 0.0
C786 C 0.79482 0.92328 0.53257 0.0
C787 C 0.80175 0.93142 0.55809 0.0
C788 C 0.79501 0.96235 0.56673 0.0
H789 H 0.88549 0.83906 0.69086 0.0
H790 H 0.85853 0.87489 0.66057 0.0
C791 C 0.78116 0.9847 0.55025 0.0
C792 C 0.81671 0.90792 0.57565 0.0
H793 H 0.80477 0.8672 0.6316 0.0
C794 C 0.84782 0.89749 0.57044 0.0
C795 C 0.80091 0.89673 0.59787 0.0
C796 C 0.76713 0.90648 0.60398 0.0
C797 C 0.86391 0.87676 0.58723 0.0
C798 C 0.84812 0.86553 0.6095 0.0
C799 C 0.81687 0.8758 0.61456 0.0
C800 C 0.8637 0.84338 0.62793 0.0
C801 C 0.89803 0.86796 0.58135 0.0
C802 C 0.87499 0.81351 0.61981 0.0
C803 C 0.8904 0.79314 0.63706 0.0
C804 C 0.89437 0.80203 0.66283 0.0
C805 C 0.8824 0.83154 0.67114 0.0
C806 C 0.86714 0.85202 0.65384 0.0
H807 H 0.90929 0.88531 0.56802 0.0
H808 H 0.91255 0.86677 0.59914 0.0
H809 H 0.89859 0.84418 0.57203 0.0
H810 H 0.8719 0.80594 0.6001 0.0
H811 H 0.89922 0.77037 0.63027 0.0
H812 H 0.99308 0.77685 0.80539 0.0
H813 H 0.0314 0.8017 0.83455 0.0
H814 H 0.10341 0.7982 0.77562 0.0
H815 H 0.06525 0.77347 0.74619 0.0
H816 H 0.09181 0.77707 0.85091 0.0
H817 H 0.10367 0.89245 0.79928 0.0
H818 H 0.07107 0.86521 0.79353 0.0
H819 H 0.10968 0.85741 0.78002 0.0
C820 C 0.01701 0.78146 0.79853 0.0
C821 C 0.02599 0.77324 0.77335 0.0
C822 C 0.0389 0.79562 0.81527 0.0
C823 C 0.07012 0.80212 0.80716 0.0
C824 C 0.07927 0.79385 0.78213 0.0
H825 H 0.23321 0.89353 0.87974 0.0
H826 H 0.19692 0.86557 0.85044 0.0
C827 C 0.05743 0.77957 0.76537 0.0
C828 C 0.09322 0.81709 0.82508 0.0
H829 H 0.13818 0.88398 0.83448 0.0
C830 C 0.10193 0.80047 0.84738 0.0
C831 C 0.10643 0.84756 0.82036 0.0
C832 C 0.09712 0.86691 0.79712 0.0
C833 C 0.12389 0.81332 0.86495 0.0
C834 C 0.13693 0.84395 0.86036 0.0
C835 C 0.12824 0.8605 0.83798 0.0
C836 C 0.15942 0.85946 0.87855 0.0
C837 C 0.13343 0.79363 0.88794 0.0
C838 C 0.15041 0.86543 0.90408 0.0
C839 C 0.1712 0.8812 0.92083 0.0
C840 C 0.2012 0.89157 0.91227 0.0
C841 C 0.21021 0.88564 0.88677 0.0
C842 C 0.18951 0.86974 0.87006 0.0
H843 H 0.12888 0.76783 0.88475 0.0
H844 H 0.15905 0.79693 0.8926 0.0
H845 H 0.11914 0.80122 0.90478 0.0
H846 H 0.12702 0.85853 0.91091 0.0
H847 H 0.1635 0.88606 0.94027 0.0
H848 H 0.15687 0.78509 0.32644 0.0
H849 H 0.18499 0.82267 0.3545 0.0
H850 H 0.09571 0.86898 0.37207 0.0
H851 H 0.06817 0.83321 0.34245 0.0
H852 H 0.13834 0.91173 0.36668 0.0
H853 H 0.1897 0.81931 0.43025 0.0
H854 H 0.20254 0.81466 0.39768 0.0
H855 H 0.16099 0.80992 0.40566 0.0
C856 C 0.1434 0.80355 0.33612 0.0
C857 C 0.11027 0.80591 0.33265 0.0
C858 C 0.15939 0.82471 0.35248 0.0
C859 C 0.14241 0.84813 0.36615 0.0
C860 C 0.1094 0.85096 0.36206 0.0
H861 H 0.21225 0.94731 0.50175 0.0
H862 H 0.18709 0.91077 0.4712 0.0
C863 C 0.0936 0.83031 0.3453 0.0
C864 C 0.15879 0.87007 0.38441 0.0
H865 H 0.20831 0.87231 0.43648 0.0
C866 C 0.15352 0.90304 0.38201 0.0
C867 C 0.17821 0.85886 0.40477 0.0
C868 C 0.18293 0.82375 0.40995 0.0
C869 C 0.16699 0.92499 0.39924 0.0
C870 C 0.18762 0.9139 0.41885 0.0
C871 C 0.19285 0.88094 0.42131 0.0
C872 C 0.20341 0.93595 0.43736 0.0
C873 C 0.15795 0.9597 0.39668 0.0
C874 C 0.22149 0.962 0.42864 0.0
C875 C 0.23524 0.98329 0.44607 0.0
C876 C 0.23209 0.97845 0.47264 0.0
C877 C 0.21508 0.95169 0.4814 0.0
C878 C 0.20072 0.93077 0.46393 0.0
H879 H 0.13465 0.96256 0.38678 0.0
H880 H 0.15641 0.97152 0.4157 0.0
H881 H 0.1762 0.97219 0.385 0.0
H882 H 0.22498 0.96595 0.40831 0.0
H883 H 0.24863 0.00341 0.43872 0.0
H884 H 0.16261 0.06971 0.5904 0.0
H885 H 0.12845 0.09877 0.62026 0.0
H886 H 0.18286 0.18451 0.60661 0.0
H887 H 0.21875 0.1546 0.5783 0.0
H888 H 0.17186 0.18004 0.65494 0.0
H889 H 0.0573 0.15736 0.60621 0.0
H890 H 0.0762 0.12044 0.61433 0.0
H891 H 0.09495 0.14713 0.59174 0.0
C892 C 0.16739 0.09471 0.59394 0.0
C893 C 0.19349 0.10984 0.58226 0.0
C894 C 0.1475 0.11148 0.61069 0.0
C895 C 0.15252 0.14411 0.61538 0.0
C896 C 0.17832 0.15941 0.60329 0.0
H897 H 0.00608 0.25418 0.69437 0.0
H898 H 0.04285 0.23183 0.66285 0.0
C899 C 0.19867 0.14241 0.58695 0.0
C900 C 0.13171 0.16181 0.63369 0.0
H901 H 0.05394 0.17488 0.64995 0.0
C902 C 0.14606 0.17921 0.65365 0.0
C903 C 0.098 0.16135 0.63188 0.0
C904 C 0.08078 0.14586 0.6097 0.0
C905 C 0.12775 0.19548 0.67208 0.0
C906 C 0.09405 0.1932 0.67124 0.0
C907 C 0.07974 0.17635 0.65095 0.0
C908 C 0.07299 0.20835 0.69084 0.0
C909 C 0.14488 0.21549 0.69181 0.0
C910 C 0.07756 0.20285 0.71722 0.0
C911 C 0.05695 0.21638 0.73537 0.0
C912 C 0.03074 0.23478 0.72744 0.0
C913 C 0.02601 0.24 0.70107 0.0
C914 C 0.04702 0.22717 0.68302 0.0
H915 H 0.1685 0.22354 0.68464 0.0
H916 H 0.13074 0.23684 0.69721 0.0
H917 H 0.1491 0.20094 0.70927 0.0
H918 H 0.09667 0.18758 0.72383 0.0
H919 H 0.06094 0.21162 0.75554 0.0
H920 H 0.94282 0.16088 0.84459 0.0
H921 H 0.91446 0.12499 0.87364 0.0
H922 H 0.82795 0.17888 0.86201 0.0
H923 H 0.85717 0.21652 0.83481 0.0
H924 H 0.83213 0.16547 0.90947 0.0
H925 H 0.85717 0.05369 0.8574 0.0
H926 H 0.89364 0.07275 0.86655 0.0
H927 H 0.86707 0.09217 0.84423 0.0
C928 C 0.91786 0.1653 0.84858 0.0
C929 C 0.90229 0.19173 0.83778 0.0
C930 C 0.90146 0.14438 0.86477 0.0
C931 C 0.86878 0.14867 0.86968 0.0
C932 C 0.85309 0.17489 0.85853 0.0
H933 H 0.75639 0.99857 0.94237 0.0
H934 H 0.78097 0.0358 0.91221 0.0
C935 C 0.86972 0.19627 0.84285 0.0
C936 C 0.85126 0.12665 0.88718 0.0
H937 H 0.83841 0.04795 0.90058 0.0
C938 C 0.83326 0.13977 0.90732 0.0
C939 C 0.85209 0.09306 0.88424 0.0
C940 C 0.86824 0.07715 0.86175 0.0
C941 C 0.81662 0.12039 0.92477 0.0
C942 C 0.81921 0.08677 0.92285 0.0
C943 C 0.83674 0.07366 0.90243 0.0
C944 C 0.80364 0.06469 0.94146 0.0
C945 C 0.7958 0.13632 0.94461 0.0
C946 C 0.80824 0.0682 0.96804 0.0
C947 C 0.79349 0.04738 0.98536 0.0
C948 C 0.77472 0.02194 0.97642 0.0
C949 C 0.77078 0.01792 0.94984 0.0
C950 C 0.78487 0.0392 0.93257 0.0
H951 H 0.78778 0.16023 0.93804 0.0
H952 H 0.77439 0.12176 0.94905 0.0
H953 H 0.8097 0.13977 0.96251 0.0
H954 H 0.82351 0.08687 0.97545 0.0
H955 H 0.79732 0.0508 0.00573 0.0
H956 H 0.93988 0.77362 0.25382 0.0
H957 H 0.90082 0.79773 0.22463 0.0
H958 H 0.97002 0.79616 0.16352 0.0
H959 H 0.00912 0.77217 0.19234 0.0
H960 H 0.90862 0.85709 0.19554 0.0
H961 H 0.88957 0.75143 0.13306 0.0
H962 H 0.90651 0.74844 0.16484 0.0
H963 H 0.93051 0.7622 0.13854 0.0
C964 C 0.94678 0.7783 0.23415 0.0
C965 C 0.97766 0.77084 0.22544 0.0
C966 C 0.92443 0.79209 0.21752 0.0
C967 C 0.93243 0.79831 0.19185 0.0
C968 C 0.96321 0.79108 0.18315 0.0
H969 H 0.83875 0.88003 0.05872 0.0
H970 H 0.8747 0.85289 0.08884 0.0
C971 C 0.98559 0.77751 0.19974 0.0
C972 C 0.90898 0.81317 0.17423 0.0
H973 H 0.86697 0.80024 0.11905 0.0
C974 C 0.89927 0.84464 0.17891 0.0
C975 C 0.89711 0.7969 0.15247 0.0
C976 C 0.90619 0.76278 0.14693 0.0
C977 C 0.87855 0.86059 0.16205 0.0
C978 C 0.86654 0.84429 0.14028 0.0
C979 C 0.87615 0.81271 0.13572 0.0
C980 C 0.84421 0.85968 0.12191 0.0
C981 C 0.87058 0.89508 0.16731 0.0
C982 C 0.81483 0.87185 0.13034 0.0
C983 C 0.79442 0.88738 0.11321 0.0
C984 C 0.80276 0.89058 0.08725 0.0
C985 C 0.83167 0.87758 0.07861 0.0
C986 C 0.85222 0.86222 0.0958 0.0
H987 H 0.88851 0.90644 0.18008 0.0
H988 H 0.86918 0.90902 0.14923 0.0
H989 H 0.84709 0.89643 0.17704 0.0
H990 H 0.80772 0.86945 0.15022 0.0
H991 H 0.7721 0.89699 0.12025 0.0
loop_
_geom_bond_atom_site_label_1
_geom_bond_atom_site_label_2
_geom_bond_distance
_geom_bond_site_symmetry_2
_ccdc_geom_bond_type
Co0 O3 1.970 . S
Co0 N17 1.989 . S
Co0 O25 1.967 . S
Co0 O32 1.920 . S
Co1 O4 1.966 . S
Co1 N10 2.022 . S
Co1 N18 1.993 . S
Co1 O26 1.941 . S
C2 O3 1.258 . S
C2 O4 1.263 . S
O3 Co0 1.970 . S
O3 C2 1.258 . S
O4 Co1 1.966 . S
O4 C2 1.263 . S
C5 O6 1.235 . S
C5 O32 1.289 . S
O6 C5 1.235 . S
C7 C9 1.400 . S
C7 N10 1.351 . S
C7 C12 1.501 . S
C8 C9 1.387 . S
C8 N11 1.341 . S
C9 C7 1.400 . S
C9 C8 1.387 . S
N10 Co1 2.022 . S
N10 C7 1.351 . S
N10 N11 1.365 . S
N11 C8 1.341 . S
N11 N10 1.365 . S
N11 H31 0.862 . S
C12 C7 1.501 . S
C12 H13 0.961 . S
C12 H14 0.961 . S
C12 H15 0.960 . S
H13 C12 0.961 . S
H14 C12 0.961 . S
H15 C12 0.960 . S
C16 N17 1.342 . S
C16 C20 1.401 . S
C16 C21 1.499 . S
N17 Co0 1.989 . S
N17 C16 1.342 . S
N17 N18 1.388 . S
N18 Co1 1.993 . S
N18 N17 1.388 . S
N18 C19 1.346 . S
C19 N18 1.346 . S
C19 C20 1.396 . S
C19 C29 1.510 . S
C20 C16 1.401 . S
C20 C19 1.396 . S
C21 C16 1.499 . S
C21 H22 0.959 . S
C21 H23 0.960 . S
C21 H24 0.961 . S
H22 C21 0.959 . S
H23 C21 0.960 . S
H24 C21 0.961 . S
O25 Co0 1.967 . S
O25 C33 1.258 . S
O26 Co1 1.941 . S
O26 C33 1.266 . S
H27 C29 0.959 . S
H28 C29 0.961 . S
C29 C19 1.510 . S
C29 H27 0.959 . S
C29 H28 0.961 . S
C29 H30 0.960 . S
H30 C29 0.960 . S
H31 N11 0.862 . S
O32 Co0 1.920 . S
O32 C5 1.289 . S
C33 O25 1.258 . S
C33 O26 1.266 . S
Co34 O37 1.970 . S
Co34 N51 1.989 . S
Co34 O59 1.967 . S
Co34 O66 1.920 . S
Co35 O38 1.966 . S
Co35 N44 2.022 . S
Co35 N52 1.993 . S
Co35 O60 1.941 . S
C36 O37 1.258 . S
C36 O38 1.263 . S
O37 Co34 1.970 . S
O37 C36 1.258 . S
O38 Co35 1.966 . S
O38 C36 1.263 . S
C39 O40 1.235 . S
C39 O66 1.289 . S
O40 C39 1.235 . S
C41 C43 1.400 . S
C41 N44 1.351 . S
C41 C46 1.501 . S
C42 C43 1.387 . S
C42 N45 1.341 . S
C43 C41 1.400 . S
C43 C42 1.387 . S
N44 Co35 2.022 . S
N44 C41 1.351 . S
N44 N45 1.365 . S
N45 C42 1.341 . S
N45 N44 1.365 . S
N45 H65 0.862 . S
C46 C41 1.501 . S
C46 H47 0.961 . S
C46 H48 0.961 . S
C46 H49 0.960 . S
H47 C46 0.961 . S
H48 C46 0.961 . S
H49 C46 0.960 . S
C50 N51 1.342 . S
C50 C54 1.401 . S
C50 C55 1.499 . S
N51 Co34 1.989 . S
N51 C50 1.342 . S
N51 N52 1.388 . S
N52 Co35 1.993 . S
N52 N51 1.388 . S
N52 C53 1.346 . S
C53 N52 1.346 . S
C53 C54 1.396 . S
C53 C63 1.510 . S
C54 C50 1.401 . S
C54 C53 1.396 . S
C55 C50 1.499 . S
C55 H56 0.959 . S
C55 H57 0.960 . S
C55 H58 0.961 . S
H56 C55 0.959 . S
H57 C55 0.960 . S
H58 C55 0.961 . S
O59 Co34 1.967 . S
O59 C67 1.258 . S
O60 Co35 1.941 . S
O60 C67 1.266 . S
H61 C63 0.959 . S
H62 C63 0.961 . S
C63 C53 1.510 . S
C63 H61 0.959 . S
C63 H62 0.961 . S
C63 H64 0.960 . S
H64 C63 0.960 . S
H65 N45 0.862 . S
O66 Co34 1.920 . S
O66 C39 1.289 . S
C67 O59 1.258 . S
C67 O60 1.266 . S
Co68 O71 1.970 . S
Co68 N85 1.989 . S
Co68 O93 1.967 . S
Co68 O100 1.920 . S
Co69 O72 1.966 . S
Co69 N78 2.022 . S
Co69 N86 1.993 . S
Co69 O94 1.941 . S
C70 O71 1.258 . S
C70 O72 1.263 . S
O71 Co68 1.970 . S
O71 C70 1.258 . S
O72 Co69 1.966 . S
O72 C70 1.263 . S
C73 O74 1.235 . S
C73 O100 1.289 . S
O74 C73 1.235 . S
C75 C77 1.400 . S
C75 N78 1.351 . S
C75 C80 1.501 . S
C76 C77 1.387 . S
C76 N79 1.341 . S
C77 C75 1.400 . S
C77 C76 1.387 . S
N78 Co69 2.022 . S
N78 C75 1.351 . S
N78 N79 1.365 . S
N79 C76 1.341 . S
N79 N78 1.365 . S
N79 H99 0.862 . S
C80 C75 1.501 . S
C80 H81 0.961 . S
C80 H82 0.961 . S
C80 H83 0.960 . S
H81 C80 0.961 . S
H82 C80 0.961 . S
H83 C80 0.960 . S
C84 N85 1.342 . S
C84 C88 1.401 . S
C84 C89 1.499 . S
N85 Co68 1.989 . S
N85 C84 1.342 . S
N85 N86 1.388 . S
N86 Co69 1.993 . S
N86 N85 1.388 . S
N86 C87 1.346 . S
C87 N86 1.346 . S
C87 C88 1.396 . S
C87 C97 1.510 . S
C88 C84 1.401 . S
C88 C87 1.396 . S
C89 C84 1.499 . S
C89 H90 0.959 . S
C89 H91 0.960 . S
C89 H92 0.961 . S
H90 C89 0.959 . S
H91 C89 0.960 . S
H92 C89 0.961 . S
O93 Co68 1.967 . S
O93 C101 1.258 . S
O94 Co69 1.941 . S
O94 C101 1.266 . S
H95 C97 0.959 . S
H96 C97 0.961 . S
C97 C87 1.510 . S
C97 H95 0.959 . S
C97 H96 0.961 . S
C97 H98 0.960 . S
H98 C97 0.960 . S
H99 N79 0.862 . S
O100 Co68 1.920 . S
O100 C73 1.289 . S
C101 O93 1.258 . S
C101 O94 1.266 . S
Co102 O105 1.970 . S
Co102 N119 1.989 . S
Co102 O127 1.967 . S
Co102 O134 1.920 1_556 S
Co103 O106 1.966 . S
Co103 N112 2.022 . S
Co103 N120 1.993 . S
Co103 O128 1.941 . S
C104 O105 1.258 . S
C104 O106 1.263 . S
O105 Co102 1.970 . S
O105 C104 1.258 . S
O106 Co103 1.966 . S
O106 C104 1.263 . S
C107 O108 1.235 . S
C107 O134 1.289 . S
O108 C107 1.235 . S
C109 C111 1.400 . S
C109 N112 1.351 . S
C109 C114 1.501 . S
C110 C111 1.387 . S
C110 N113 1.341 . S
C111 C109 1.400 . S
C111 C110 1.387 . S
N112 Co103 2.022 . S
N112 C109 1.351 . S
N112 N113 1.365 . S
N113 C110 1.341 . S
N113 N112 1.365 . S
N113 H133 0.862 . S
C114 C109 1.501 . S
C114 H115 0.961 . S
C114 H116 0.961 . S
C114 H117 0.960 . S
H115 C114 0.961 . S
H116 C114 0.961 . S
H117 C114 0.960 . S
C118 N119 1.342 . S
C118 C122 1.401 . S
C118 C123 1.499 . S
N119 Co102 1.989 . S
N119 C118 1.342 . S
N119 N120 1.388 . S
N120 Co103 1.993 . S
N120 N119 1.388 . S
N120 C121 1.346 . S
C121 N120 1.346 . S
C121 C122 1.396 . S
C121 C131 1.510 . S
C122 C118 1.401 . S
C122 C121 1.396 . S
C123 C118 1.499 . S
C123 H124 0.959 . S
C123 H125 0.960 . S
C123 H126 0.961 . S
H124 C123 0.959 . S
H125 C123 0.960 . S
H126 C123 0.961 . S
O127 Co102 1.967 . S
O127 C135 1.258 . S
O128 Co103 1.941 . S
O128 C135 1.266 . S
H129 C131 0.959 . S
H130 C131 0.961 . S
C131 C121 1.510 . S
C131 H129 0.959 . S
C131 H130 0.961 . S
C131 H132 0.960 . S
H132 C131 0.960 . S
H133 N113 0.862 . S
O134 Co102 1.920 1_554 S
O134 C107 1.289 . S
C135 O127 1.258 . S
C135 O128 1.266 . S
Co136 O139 1.970 . S
Co136 N153 1.989 . S
Co136 O161 1.967 . S
Co136 O168 1.920 . S
Co137 O140 1.966 . S
Co137 N146 2.022 . S
Co137 N154 1.993 . S
Co137 O162 1.941 . S
C138 O139 1.258 . S
C138 O140 1.263 . S
O139 Co136 1.970 . S
O139 C138 1.258 . S
O140 Co137 1.966 . S
O140 C138 1.263 . S
C141 O142 1.235 . S
C141 O168 1.289 . S
O142 C141 1.235 . S
C143 C145 1.400 . S
C143 N146 1.351 . S
C143 C148 1.501 . S
C144 C145 1.387 . S
C144 N147 1.341 . S
C145 C143 1.400 . S
C145 C144 1.387 . S
N146 Co137 2.022 . S
N146 C143 1.351 . S
N146 N147 1.365 . S
N147 C144 1.341 . S
N147 N146 1.365 . S
N147 H167 0.862 . S
C148 C143 1.501 . S
C148 H149 0.961 . S
C148 H150 0.961 . S
C148 H151 0.960 . S
H149 C148 0.961 . S
H150 C148 0.961 . S
H151 C148 0.960 . S
C152 N153 1.342 . S
C152 C156 1.401 . S
C152 C157 1.499 . S
N153 Co136 1.989 . S
N153 C152 1.342 . S
N153 N154 1.388 . S
N154 Co137 1.993 . S
N154 N153 1.388 . S
N154 C155 1.346 . S
C155 N154 1.346 . S
C155 C156 1.396 . S
C155 C165 1.510 . S
C156 C152 1.401 . S
C156 C155 1.396 . S
C157 C152 1.499 . S
C157 H158 0.959 . S
C157 H159 0.960 . S
C157 H160 0.961 . S
H158 C157 0.959 . S
H159 C157 0.960 . S
H160 C157 0.961 . S
O161 Co136 1.967 . S
O161 C169 1.258 . S
O162 Co137 1.941 . S
O162 C169 1.266 . S
H163 C165 0.959 . S
H164 C165 0.961 . S
C165 C155 1.510 . S
C165 H163 0.959 . S
C165 H164 0.961 . S
C165 H166 0.960 . S
H166 C165 0.960 . S
H167 N147 0.862 . S
O168 Co136 1.920 . S
O168 C141 1.289 . S
C169 O161 1.258 . S
C169 O162 1.266 . S
Co170 O173 1.970 . S
Co170 N187 1.989 . S
Co170 O195 1.967 . S
Co170 O202 1.920 . S
Co171 O174 1.966 . S
Co171 N180 2.022 . S
Co171 N188 1.993 . S
Co171 O196 1.941 . S
C172 O173 1.258 . S
C172 O174 1.263 . S
O173 Co170 1.970 . S
O173 C172 1.258 . S
O174 Co171 1.966 . S
O174 C172 1.263 . S
C175 O176 1.235 . S
C175 O202 1.289 . S
O176 C175 1.235 . S
C177 C179 1.400 . S
C177 N180 1.351 . S
C177 C182 1.501 . S
C178 C179 1.387 . S
C178 N181 1.341 . S
C179 C177 1.400 . S
C179 C178 1.387 . S
N180 Co171 2.022 . S
N180 C177 1.351 . S
N180 N181 1.365 . S
N181 C178 1.341 . S
N181 N180 1.365 . S
N181 H201 0.862 . S
C182 C177 1.501 . S
C182 H183 0.961 . S
C182 H184 0.961 . S
C182 H185 0.960 . S
H183 C182 0.961 . S
H184 C182 0.961 . S
H185 C182 0.960 . S
C186 N187 1.342 . S
C186 C190 1.401 . S
C186 C191 1.499 . S
N187 Co170 1.989 . S
N187 C186 1.342 . S
N187 N188 1.388 . S
N188 Co171 1.993 . S
N188 N187 1.388 . S
N188 C189 1.346 . S
C189 N188 1.346 . S
C189 C190 1.396 . S
C189 C199 1.510 . S
C190 C186 1.401 . S
C190 C189 1.396 . S
C191 C186 1.499 . S
C191 H192 0.959 . S
C191 H193 0.960 . S
C191 H194 0.961 . S
H192 C191 0.959 . S
H193 C191 0.960 . S
H194 C191 0.961 . S
O195 Co170 1.967 . S
O195 C203 1.258 . S
O196 Co171 1.941 . S
O196 C203 1.266 . S
H197 C199 0.959 . S
H198 C199 0.961 . S
C199 C189 1.510 . S
C199 H197 0.959 . S
C199 H198 0.961 . S
C199 H200 0.960 . S
H200 C199 0.960 . S
H201 N181 0.862 . S
O202 Co170 1.920 . S
O202 C175 1.289 . S
C203 O195 1.258 . S
C203 O196 1.266 . S
Co204 O207 1.970 . S
Co204 N221 1.989 . S
Co204 O229 1.967 . S
Co204 O236 1.920 . S
Co205 O208 1.966 . S
Co205 N214 2.022 . S
Co205 N222 1.993 . S
Co205 O230 1.941 . S
C206 O207 1.258 . S
C206 O208 1.263 . S
O207 Co204 1.970 . S
O207 C206 1.258 . S
O208 Co205 1.966 . S
O208 C206 1.263 . S
C209 O210 1.235 . S
C209 O236 1.289 . S
O210 C209 1.235 . S
C211 C213 1.400 . S
C211 N214 1.351 . S
C211 C216 1.501 . S
C212 C213 1.387 . S
C212 N215 1.341 . S
C213 C211 1.400 . S
C213 C212 1.387 . S
N214 Co205 2.022 . S
N214 C211 1.351 . S
N214 N215 1.365 . S
N215 C212 1.341 . S
N215 N214 1.365 . S
N215 H235 0.862 . S
C216 C211 1.501 . S
C216 H217 0.961 . S
C216 H218 0.961 . S
C216 H219 0.960 . S
H217 C216 0.961 . S
H218 C216 0.961 . S
H219 C216 0.960 . S
C220 N221 1.342 . S
C220 C224 1.401 . S
C220 C225 1.499 . S
N221 Co204 1.989 . S
N221 C220 1.342 . S
N221 N222 1.388 . S
N222 Co205 1.993 . S
N222 N221 1.388 . S
N222 C223 1.346 . S
C223 N222 1.346 . S
C223 C224 1.396 . S
C223 C233 1.510 . S
C224 C220 1.401 . S
C224 C223 1.396 . S
C225 C220 1.499 . S
C225 H226 0.959 . S
C225 H227 0.960 . S
C225 H228 0.961 . S
H226 C225 0.959 . S
H227 C225 0.960 . S
H228 C225 0.961 . S
O229 Co204 1.967 . S
O229 C237 1.258 . S
O230 Co205 1.941 . S
O230 C237 1.266 . S
H231 C233 0.959 . S
H232 C233 0.961 . S
C233 C223 1.510 . S
C233 H231 0.959 . S
C233 H232 0.961 . S
C233 H234 0.960 . S
H234 C233 0.960 . S
H235 N215 0.862 . S
O236 Co204 1.920 . S
O236 C209 1.289 . S
C237 O229 1.258 . S
C237 O230 1.266 . S
Co238 O241 1.970 . S
Co238 N255 1.989 . S
Co238 O263 1.967 . S
Co238 O270 1.920 1_554 S
Co239 O242 1.966 . S
Co239 N248 2.022 . S
Co239 N256 1.993 . S
Co239 O264 1.941 . S
C240 O241 1.258 . S
C240 O242 1.263 . S
O241 Co238 1.970 . S
O241 C240 1.258 . S
O242 Co239 1.966 . S
O242 C240 1.263 . S
C243 O244 1.235 . S
C243 O270 1.289 . S
O244 C243 1.235 . S
C245 C247 1.400 . S
C245 N248 1.351 . S
C245 C250 1.501 . S
C246 C247 1.387 . S
C246 N249 1.341 . S
C247 C245 1.400 . S
C247 C246 1.387 . S
N248 Co239 2.022 . S
N248 C245 1.351 . S
N248 N249 1.365 . S
N249 C246 1.341 . S
N249 N248 1.365 . S
N249 H269 0.862 . S
C250 C245 1.501 . S
C250 H251 0.961 . S
C250 H252 0.961 . S
C250 H253 0.960 . S
H251 C250 0.961 . S
H252 C250 0.961 . S
H253 C250 0.960 . S
C254 N255 1.342 . S
C254 C258 1.401 . S
C254 C259 1.499 . S
N255 Co238 1.989 . S
N255 C254 1.342 . S
N255 N256 1.388 . S
N256 Co239 1.993 . S
N256 N255 1.388 . S
N256 C257 1.346 . S
C257 N256 1.346 . S
C257 C258 1.396 . S
C257 C267 1.510 . S
C258 C254 1.401 . S
C258 C257 1.396 . S
C259 C254 1.499 . S
C259 H260 0.959 . S
C259 H261 0.960 . S
C259 H262 0.961 . S
H260 C259 0.959 . S
H261 C259 0.960 . S
H262 C259 0.961 . S
O263 Co238 1.967 . S
O263 C271 1.258 . S
O264 Co239 1.941 . S
O264 C271 1.266 . S
H265 C267 0.959 . S
H266 C267 0.961 . S
C267 C257 1.510 . S
C267 H265 0.959 . S
C267 H266 0.961 . S
C267 H268 0.960 . S
H268 C267 0.960 . S
H269 N249 0.862 . S
O270 Co238 1.920 1_556 S
O270 C243 1.289 . S
C271 O263 1.258 . S
C271 O264 1.266 . S
H272 C280 0.929 . S
H273 C282 0.930 . S
H274 C284 0.930 . S
H275 C287 0.929 . S
H276 C290 0.930 . S
H277 C292 0.960 . S
H278 C292 0.960 . S
H279 C292 0.960 . S
C280 H272 0.929 . S
C280 C281 1.377 . S
C280 C282 1.384 . S
C281 C280 1.377 . S
C281 C287 1.390 . S
C282 H273 0.930 . S
C282 C280 1.384 . S
C282 C283 1.372 . S
C283 C282 1.372 . S
C283 C284 1.400 . S
C283 C288 1.490 . S
C284 H274 0.930 . S
C284 C283 1.400 . S
C284 C287 1.386 . S
H285 C301 0.930 . S
H286 C302 0.931 . S
C287 H275 0.929 . S
C287 C281 1.390 . S
C287 C284 1.386 . S
C288 C283 1.490 . S
C288 C290 1.395 . S
C288 C291 1.403 . S
H289 C295 0.930 . S
C290 H276 0.930 . S
C290 C288 1.395 . S
C290 C293 1.403 . S
C291 C288 1.403 . S
C291 C292 1.524 . S
C291 C295 1.400 . S
C292 H277 0.960 . S
C292 H278 0.960 . S
C292 H279 0.960 . S
C292 C291 1.524 . S
C293 C290 1.403 . S
C293 C294 1.392 . S
C293 C297 1.495 . S
C294 C293 1.392 . S
C294 C295 1.385 . S
C294 C296 1.478 . S
C295 H289 0.930 . S
C295 C291 1.400 . S
C295 C294 1.385 . S
C296 C294 1.478 . S
C296 C298 1.381 . S
C296 C302 1.383 . S
C297 C293 1.495 . S
C297 H303 0.959 . S
C297 H304 0.961 . S
C297 H305 0.960 . S
C298 C296 1.381 . S
C298 C299 1.394 . S
C298 H306 0.930 . S
C299 C298 1.394 . S
C299 C300 1.383 . S
C299 H307 0.929 . S
C300 C299 1.383 . S
C300 C301 1.377 . S
C301 H285 0.930 . S
C301 C300 1.377 . S
C301 C302 1.379 . S
C302 H286 0.931 . S
C302 C296 1.383 . S
C302 C301 1.379 . S
H303 C297 0.959 . S
H304 C297 0.961 . S
H305 C297 0.960 . S
H306 C298 0.930 . S
H307 C299 0.929 . S
H308 C316 0.929 . S
H309 C318 0.930 . S
H310 C320 0.930 . S
H311 C323 0.929 . S
H312 C326 0.930 . S
H313 C328 0.960 . S
H314 C328 0.960 . S
H315 C328 0.960 . S
C316 H308 0.929 . S
C316 C317 1.377 . S
C316 C318 1.384 . S
C317 C316 1.377 . S
C317 C323 1.390 . S
C318 H309 0.930 . S
C318 C316 1.384 . S
C318 C319 1.372 . S
C319 C318 1.372 . S
C319 C320 1.400 . S
C319 C324 1.490 . S
C320 H310 0.930 . S
C320 C319 1.400 . S
C320 C323 1.386 . S
H321 C337 0.930 . S
H322 C338 0.931 . S
C323 H311 0.929 . S
C323 C317 1.390 . S
C323 C320 1.386 . S
C324 C319 1.490 . S
C324 C326 1.395 . S
C324 C327 1.403 . S
H325 C331 0.930 . S
C326 H312 0.930 . S
C326 C324 1.395 . S
C326 C329 1.403 . S
C327 C324 1.403 . S
C327 C328 1.524 . S
C327 C331 1.400 . S
C328 H313 0.960 . S
C328 H314 0.960 . S
C328 H315 0.960 . S
C328 C327 1.524 . S
C329 C326 1.403 . S
C329 C330 1.392 . S
C329 C333 1.495 . S
C330 C329 1.392 . S
C330 C331 1.385 . S
C330 C332 1.478 . S
C331 H325 0.930 . S
C331 C327 1.400 . S
C331 C330 1.385 . S
C332 C330 1.478 . S
C332 C334 1.381 . S
C332 C338 1.383 . S
C333 C329 1.495 . S
C333 H339 0.959 . S
C333 H340 0.961 . S
C333 H341 0.960 . S
C334 C332 1.381 . S
C334 C335 1.394 . S
C334 H342 0.930 . S
C335 C334 1.394 . S
C335 C336 1.383 . S
C335 H343 0.929 . S
C336 C335 1.383 . S
C336 C337 1.377 . S
C337 H321 0.930 . S
C337 C336 1.377 . S
C337 C338 1.379 . S
C338 H322 0.931 . S
C338 C332 1.383 . S
C338 C337 1.379 . S
H339 C333 0.959 . S
H340 C333 0.961 . S
H341 C333 0.960 . S
H342 C334 0.930 . S
H343 C335 0.929 . S
H344 C352 0.929 . S
H345 C354 0.930 . S
H346 C356 0.930 . S
H347 C359 0.929 . S
H348 C362 0.930 . S
H349 C364 0.960 . S
H350 C364 0.960 . S
H351 C364 0.960 . S
C352 H344 0.929 . S
C352 C353 1.377 . S
C352 C354 1.384 . S
C353 C352 1.377 . S
C353 C359 1.390 . S
C354 H345 0.930 . S
C354 C352 1.384 . S
C354 C355 1.372 . S
C355 C354 1.372 . S
C355 C356 1.400 . S
C355 C360 1.490 . S
C356 H346 0.930 . S
C356 C355 1.400 . S
C356 C359 1.386 . S
H357 C373 0.930 . S
H358 C374 0.931 . S
C359 H347 0.929 . S
C359 C353 1.390 . S
C359 C356 1.386 . S
C360 C355 1.490 . S
C360 C362 1.395 . S
C360 C363 1.403 . S
H361 C367 0.930 . S
C362 H348 0.930 . S
C362 C360 1.395 . S
C362 C365 1.403 . S
C363 C360 1.403 . S
C363 C364 1.524 . S
C363 C367 1.400 . S
C364 H349 0.960 . S
C364 H350 0.960 . S
C364 H351 0.960 . S
C364 C363 1.524 . S
C365 C362 1.403 . S
C365 C366 1.392 . S
C365 C369 1.495 . S
C366 C365 1.392 . S
C366 C367 1.385 . S
C366 C368 1.478 . S
C367 H361 0.930 . S
C367 C363 1.400 . S
C367 C366 1.385 . S
C368 C366 1.478 . S
C368 C370 1.381 . S
C368 C374 1.383 . S
C369 C365 1.495 . S
C369 H375 0.959 . S
C369 H376 0.961 . S
C369 H377 0.960 . S
C370 C368 1.381 . S
C370 C371 1.394 . S
C370 H378 0.930 . S
C371 C370 1.394 . S
C371 C372 1.383 . S
C371 H379 0.929 . S
C372 C371 1.383 . S
C372 C373 1.377 . S
C373 H357 0.930 . S
C373 C372 1.377 . S
C373 C374 1.379 . S
C374 H358 0.931 . S
C374 C368 1.383 . S
C374 C373 1.379 . S
H375 C369 0.959 . S
H376 C369 0.961 . S
H377 C369 0.960 . S
H378 C370 0.930 . S
H379 C371 0.929 . S
H380 C388 0.929 . S
H381 C390 0.930 . S
H382 C392 0.930 1_554 S
H383 C395 0.929 . S
H384 C398 0.930 . S
H385 C400 0.960 . S
H386 C400 0.960 . S
H387 C400 0.960 . S
C388 H380 0.929 . S
C388 C389 1.377 . S
C388 C390 1.384 . S
C389 C388 1.377 . S
C389 C395 1.390 . S
C390 H381 0.930 . S
C390 C388 1.384 . S
C390 C391 1.372 . S
C391 C390 1.372 . S
C391 C392 1.400 . S
C391 C396 1.490 . S
C392 H382 0.930 1_556 S
C392 C391 1.400 . S
C392 C395 1.386 . S
H393 C409 0.930 . S
H394 C410 0.931 . S
C395 H383 0.929 . S
C395 C389 1.390 . S
C395 C392 1.386 . S
C396 C391 1.490 . S
C396 C398 1.395 . S
C396 C399 1.403 1_556 S
H397 C403 0.930 . S
C398 H384 0.930 . S
C398 C396 1.395 . S
C398 C401 1.403 . S
C399 C396 1.403 1_554 S
C399 C400 1.524 . S
C399 C403 1.400 . S
C400 H385 0.960 . S
C400 H386 0.960 . S
C400 H387 0.960 . S
C400 C399 1.524 . S
C401 C398 1.403 . S
C401 C402 1.392 1_556 S
C401 C405 1.495 . S
C402 C401 1.392 1_554 S
C402 C403 1.385 . S
C402 C404 1.478 . S
C403 H397 0.930 . S
C403 C399 1.400 . S
C403 C402 1.385 . S
C404 C402 1.478 . S
C404 C406 1.381 . S
C404 C410 1.383 . S
C405 C401 1.495 . S
C405 H411 0.959 . S
C405 H412 0.961 . S
C405 H413 0.960 . S
C406 C404 1.381 . S
C406 C407 1.394 . S
C406 H414 0.930 1_554 S
C407 C406 1.394 . S
C407 C408 1.383 . S
C407 H415 0.929 . S
C408 C407 1.383 . S
C408 C409 1.377 . S
C409 H393 0.930 . S
C409 C408 1.377 . S
C409 C410 1.379 . S
C410 H394 0.931 . S
C410 C404 1.383 . S
C410 C409 1.379 . S
H411 C405 0.959 . S
H412 C405 0.961 . S
H413 C405 0.960 . S
H414 C406 0.930 1_556 S
H415 C407 0.929 . S
H416 C424 0.929 . S
H417 C426 0.930 . S
H418 C428 0.930 . S
H419 C431 0.929 . S
H420 C434 0.930 . S
H421 C436 0.960 . S
H422 C436 0.960 . S
H423 C436 0.960 . S
C424 H416 0.929 . S
C424 C425 1.377 . S
C424 C426 1.384 . S
C425 C424 1.377 . S
C425 C431 1.390 . S
C426 H417 0.930 . S
C426 C424 1.384 . S
C426 C427 1.372 . S
C427 C426 1.372 . S
C427 C428 1.400 . S
C427 C432 1.490 . S
C428 H418 0.930 . S
C428 C427 1.400 . S
C428 C431 1.386 . S
H429 C445 0.930 . S
H430 C446 0.931 . S
C431 H419 0.929 . S
C431 C425 1.390 . S
C431 C428 1.386 . S
C432 C427 1.490 . S
C432 C434 1.395 . S
C432 C435 1.403 . S
H433 C439 0.930 . S
C434 H420 0.930 . S
C434 C432 1.395 . S
C434 C437 1.403 . S
C435 C432 1.403 . S
C435 C436 1.524 . S
C435 C439 1.400 . S
C436 H421 0.960 . S
C436 H422 0.960 . S
C436 H423 0.960 . S
C436 C435 1.524 . S
C437 C434 1.403 . S
C437 C438 1.392 . S
C437 C441 1.495 . S
C438 C437 1.392 . S
C438 C439 1.385 . S
C438 C440 1.478 . S
C439 H433 0.930 . S
C439 C435 1.400 . S
C439 C438 1.385 . S
C440 C438 1.478 . S
C440 C442 1.381 . S
C440 C446 1.383 . S
C441 C437 1.495 . S
C441 H447 0.959 . S
C441 H448 0.961 . S
C441 H449 0.960 . S
C442 C440 1.381 . S
C442 C443 1.394 . S
C442 H450 0.930 . S
C443 C442 1.394 . S
C443 C444 1.383 . S
C443 H451 0.929 . S
C444 C443 1.383 . S
C444 C445 1.377 . S
C445 H429 0.930 . S
C445 C444 1.377 . S
C445 C446 1.379 . S
C446 H430 0.931 . S
C446 C440 1.383 . S
C446 C445 1.379 . S
H447 C441 0.959 . S
H448 C441 0.961 . S
H449 C441 0.960 . S
H450 C442 0.930 . S
H451 C443 0.929 . S
H452 C460 0.929 . S
H453 C462 0.930 . S
H454 C464 0.930 . S
H455 C467 0.929 . S
H456 C470 0.930 . S
H457 C472 0.960 . S
H458 C472 0.960 . S
H459 C472 0.960 . S
C460 H452 0.929 . S
C460 C461 1.377 . S
C460 C462 1.384 . S
C461 C460 1.377 . S
C461 C467 1.390 . S
C462 H453 0.930 . S
C462 C460 1.384 . S
C462 C463 1.372 . S
C463 C462 1.372 . S
C463 C464 1.400 . S
C463 C468 1.490 . S
C464 H454 0.930 . S
C464 C463 1.400 . S
C464 C467 1.386 . S
H465 C481 0.930 . S
H466 C482 0.931 . S
C467 H455 0.929 . S
C467 C461 1.390 . S
C467 C464 1.386 . S
C468 C463 1.490 . S
C468 C470 1.395 . S
C468 C471 1.403 . S
H469 C475 0.930 . S
C470 H456 0.930 . S
C470 C468 1.395 . S
C470 C473 1.403 . S
C471 C468 1.403 . S
C471 C472 1.524 . S
C471 C475 1.400 . S
C472 H457 0.960 . S
C472 H458 0.960 . S
C472 H459 0.960 . S
C472 C471 1.524 . S
C473 C470 1.403 . S
C473 C474 1.392 . S
C473 C477 1.495 . S
C474 C473 1.392 . S
C474 C475 1.385 . S
C474 C476 1.478 . S
C475 H469 0.930 . S
C475 C471 1.400 . S
C475 C474 1.385 . S
C476 C474 1.478 . S
C476 C478 1.381 . S
C476 C482 1.383 . S
C477 C473 1.495 . S
C477 H483 0.959 . S
C477 H484 0.961 . S
C477 H485 0.960 . S
C478 C476 1.381 . S
C478 C479 1.394 . S
C478 H486 0.930 . S
C479 C478 1.394 . S
C479 C480 1.383 . S
C479 H487 0.929 . S
C480 C479 1.383 . S
C480 C481 1.377 . S
C481 H465 0.930 . S
C481 C480 1.377 . S
C481 C482 1.379 . S
C482 H466 0.931 . S
C482 C476 1.383 . S
C482 C481 1.379 . S
H483 C477 0.959 . S
H484 C477 0.961 . S
H485 C477 0.960 . S
H486 C478 0.930 . S
H487 C479 0.929 . S
H488 C496 0.929 . S
H489 C498 0.930 . S
H490 C500 0.930 . S
H491 C503 0.929 . S
H492 C506 0.930 . S
H493 C508 0.960 . S
H494 C508 0.960 . S
H495 C508 0.960 . S
C496 H488 0.929 . S
C496 C497 1.377 . S
C496 C498 1.384 . S
C497 C496 1.377 . S
C497 C503 1.390 . S
C498 H489 0.930 . S
C498 C496 1.384 . S
C498 C499 1.372 . S
C499 C498 1.372 . S
C499 C500 1.400 . S
C499 C504 1.490 . S
C500 H490 0.930 . S
C500 C499 1.400 . S
C500 C503 1.386 . S
H501 C517 0.930 . S
H502 C518 0.931 . S
C503 H491 0.929 . S
C503 C497 1.390 . S
C503 C500 1.386 . S
C504 C499 1.490 . S
C504 C506 1.395 . S
C504 C507 1.403 . S
H505 C511 0.930 . S
C506 H492 0.930 . S
C506 C504 1.395 . S
C506 C509 1.403 . S
C507 C504 1.403 . S
C507 C508 1.524 . S
C507 C511 1.400 . S
C508 H493 0.960 . S
C508 H494 0.960 . S
C508 H495 0.960 . S
C508 C507 1.524 . S
C509 C506 1.403 . S
C509 C510 1.392 . S
C509 C513 1.495 . S
C510 C509 1.392 . S
C510 C511 1.385 . S
C510 C512 1.478 . S
C511 H505 0.930 . S
C511 C507 1.400 . S
C511 C510 1.385 . S
C512 C510 1.478 . S
C512 C514 1.381 . S
C512 C518 1.383 . S
C513 C509 1.495 . S
C513 H519 0.959 . S
C513 H520 0.961 . S
C513 H521 0.960 . S
C514 C512 1.381 . S
C514 C515 1.394 . S
C514 H522 0.930 . S
C515 C514 1.394 . S
C515 C516 1.383 . S
C515 H523 0.929 . S
C516 C515 1.383 . S
C516 C517 1.377 . S
C517 H501 0.930 . S
C517 C516 1.377 . S
C517 C518 1.379 . S
C518 H502 0.931 . S
C518 C512 1.383 . S
C518 C517 1.379 . S
H519 C513 0.959 . S
H520 C513 0.961 . S
H521 C513 0.960 . S
H522 C514 0.930 . S
H523 C515 0.929 . S
H524 C532 0.929 . S
H525 C534 0.930 . S
H526 C536 0.930 . S
H527 C539 0.929 . S
H528 C542 0.930 . S
H529 C544 0.960 . S
H530 C544 0.960 . S
H531 C544 0.960 . S
C532 H524 0.929 . S
C532 C533 1.377 . S
C532 C534 1.384 . S
C533 C532 1.377 . S
C533 C539 1.390 . S
C534 H525 0.930 . S
C534 C532 1.384 . S
C534 C535 1.372 . S
C535 C534 1.372 . S
C535 C536 1.400 . S
C535 C540 1.490 . S
C536 H526 0.930 . S
C536 C535 1.400 . S
C536 C539 1.386 . S
H537 C553 0.930 . S
H538 C554 0.931 . S
C539 H527 0.929 . S
C539 C533 1.390 . S
C539 C536 1.386 . S
C540 C535 1.490 . S
C540 C542 1.395 . S
C540 C543 1.403 . S
H541 C547 0.930 . S
C542 H528 0.930 . S
C542 C540 1.395 . S
C542 C545 1.403 . S
C543 C540 1.403 . S
C543 C544 1.524 . S
C543 C547 1.400 . S
C544 H529 0.960 . S
C544 H530 0.960 . S
C544 H531 0.960 . S
C544 C543 1.524 . S
C545 C542 1.403 . S
C545 C546 1.392 . S
C545 C549 1.495 . S
C546 C545 1.392 . S
C546 C547 1.385 . S
C546 C548 1.478 . S
C547 H541 0.930 . S
C547 C543 1.400 . S
C547 C546 1.385 . S
C548 C546 1.478 . S
C548 C550 1.381 . S
C548 C554 1.383 . S
C549 C545 1.495 . S
C549 H555 0.959 . S
C549 H556 0.961 . S
C549 H557 0.960 . S
C550 C548 1.381 . S
C550 C551 1.394 . S
C550 H558 0.930 . S
C551 C550 1.394 . S
C551 C552 1.383 . S
C551 H559 0.929 . S
C552 C551 1.383 . S
C552 C553 1.377 . S
C553 H537 0.930 . S
C553 C552 1.377 . S
C553 C554 1.379 . S
C554 H538 0.931 . S
C554 C548 1.383 . S
C554 C553 1.379 . S
H555 C549 0.959 . S
H556 C549 0.961 . S
H557 C549 0.960 . S
H558 C550 0.930 . S
H559 C551 0.929 . S
H560 C568 0.929 . S
H561 C570 0.930 . S
H562 C572 0.930 . S
H563 C575 0.929 . S
H564 C578 0.930 . S
H565 C580 0.960 . S
H566 C580 0.960 . S
H567 C580 0.960 . S
C568 H560 0.929 . S
C568 C569 1.377 . S
C568 C570 1.384 . S
C569 C568 1.377 . S
C569 C575 1.390 . S
C570 H561 0.930 . S
C570 C568 1.384 . S
C570 C571 1.372 . S
C571 C570 1.372 . S
C571 C572 1.400 . S
C571 C576 1.490 . S
C572 H562 0.930 . S
C572 C571 1.400 . S
C572 C575 1.386 . S
H573 C589 0.930 . S
H574 C590 0.931 . S
C575 H563 0.929 . S
C575 C569 1.390 . S
C575 C572 1.386 . S
C576 C571 1.490 . S
C576 C578 1.395 . S
C576 C579 1.403 1_455 S
H577 C583 0.930 . S
C578 H564 0.930 . S
C578 C576 1.395 . S
C578 C581 1.403 1_554 S
C579 C576 1.403 1_655 S
C579 C580 1.524 . S
C579 C583 1.400 1_554 S
C580 H565 0.960 . S
C580 H566 0.960 . S
C580 H567 0.960 . S
C580 C579 1.524 . S
C581 C578 1.403 1_556 S
C581 C582 1.392 1_455 S
C581 C585 1.495 . S
C582 C581 1.392 1_655 S
C582 C583 1.385 . S
C582 C584 1.478 . S
C583 H577 0.930 . S
C583 C579 1.400 1_556 S
C583 C582 1.385 . S
C584 C582 1.478 . S
C584 C586 1.381 . S
C584 C590 1.383 . S
C585 C581 1.495 . S
C585 H591 0.959 . S
C585 H592 0.961 . S
C585 H593 0.960 . S
C586 C584 1.381 . S
C586 C587 1.394 . S
C586 H594 0.930 . S
C587 C586 1.394 . S
C587 C588 1.383 . S
C587 H595 0.929 . S
C588 C587 1.383 . S
C588 C589 1.377 . S
C589 H573 0.930 . S
C589 C588 1.377 . S
C589 C590 1.379 . S
C590 H574 0.931 . S
C590 C584 1.383 . S
C590 C589 1.379 . S
H591 C585 0.959 . S
H592 C585 0.961 . S
H593 C585 0.960 . S
H594 C586 0.930 . S
H595 C587 0.929 . S
H596 C604 0.929 . S
H597 C606 0.930 . S
H598 C608 0.930 . S
H599 C611 0.929 . S
H600 C614 0.930 . S
H601 C616 0.960 . S
H602 C616 0.960 . S
H603 C616 0.960 1_565 S
C604 H596 0.929 . S
C604 C605 1.377 . S
C604 C606 1.384 . S
C605 C604 1.377 . S
C605 C611 1.390 . S
C606 H597 0.930 . S
C606 C604 1.384 . S
C606 C607 1.372 . S
C607 C606 1.372 . S
C607 C608 1.400 . S
C607 C612 1.490 . S
C608 H598 0.930 . S
C608 C607 1.400 . S
C608 C611 1.386 . S
H609 C625 0.930 . S
H610 C626 0.931 1_565 S
C611 H599 0.929 . S
C611 C605 1.390 . S
C611 C608 1.386 . S
C612 C607 1.490 . S
C612 C614 1.395 . S
C612 C615 1.403 1_565 S
H613 C619 0.930 . S
C614 H600 0.930 . S
C614 C612 1.395 . S
C614 C617 1.403 . S
C615 C612 1.403 1_545 S
C615 C616 1.524 . S
C615 C619 1.400 . S
C616 H601 0.960 . S
C616 H602 0.960 . S
C616 H603 0.960 1_545 S
C616 C615 1.524 . S
C617 C614 1.403 . S
C617 C618 1.392 1_565 S
C617 C621 1.495 . S
C618 C617 1.392 1_545 S
C618 C619 1.385 . S
C618 C620 1.478 . S
C619 H613 0.930 . S
C619 C615 1.400 . S
C619 C618 1.385 . S
C620 C618 1.478 . S
C620 C622 1.381 . S
C620 C626 1.383 . S
C621 C617 1.495 . S
C621 H627 0.959 . S
C621 H628 0.961 . S
C621 H629 0.960 1_565 S
C622 C620 1.381 . S
C622 C623 1.394 . S
C622 H630 0.930 . S
C623 C622 1.394 . S
C623 C624 1.383 . S
C623 H631 0.929 . S
C624 C623 1.383 . S
C624 C625 1.377 . S
C625 H609 0.930 . S
C625 C624 1.377 . S
C625 C626 1.379 . S
C626 H610 0.931 1_545 S
C626 C620 1.383 . S
C626 C625 1.379 . S
H627 C621 0.959 . S
H628 C621 0.961 . S
H629 C621 0.960 1_545 S
H630 C622 0.930 . S
H631 C623 0.929 . S
H632 C640 0.929 . S
H633 C642 0.930 . S
H634 C644 0.930 . S
H635 C647 0.929 . S
H636 C650 0.930 . S
H637 C652 0.960 . S
H638 C652 0.960 . S
H639 C652 0.960 1_655 S
C640 H632 0.929 . S
C640 C641 1.377 . S
C640 C642 1.384 . S
C641 C640 1.377 . S
C641 C647 1.390 . S
C642 H633 0.930 . S
C642 C640 1.384 . S
C642 C643 1.372 . S
C643 C642 1.372 . S
C643 C644 1.400 . S
C643 C648 1.490 . S
C644 H634 0.930 . S
C644 C643 1.400 . S
C644 C647 1.386 . S
H645 C661 0.930 . S
H646 C662 0.931 1_655 S
C647 H635 0.929 . S
C647 C641 1.390 . S
C647 C644 1.386 . S
C648 C643 1.490 . S
C648 C650 1.395 . S
C648 C651 1.403 1_655 S
H649 C655 0.930 . S
C650 H636 0.930 . S
C650 C648 1.395 . S
C650 C653 1.403 . S
C651 C648 1.403 1_455 S
C651 C652 1.524 . S
C651 C655 1.400 . S
C652 H637 0.960 . S
C652 H638 0.960 . S
C652 H639 0.960 1_455 S
C652 C651 1.524 . S
C653 C650 1.403 . S
C653 C654 1.392 1_655 S
C653 C657 1.495 . S
C654 C653 1.392 1_455 S
C654 C655 1.385 . S
C654 C656 1.478 . S
C655 H649 0.930 . S
C655 C651 1.400 . S
C655 C654 1.385 . S
C656 C654 1.478 . S
C656 C658 1.381 . S
C656 C662 1.383 . S
C657 C653 1.495 . S
C657 H663 0.959 . S
C657 H664 0.961 . S
C657 H665 0.960 1_655 S
C658 C656 1.381 . S
C658 C659 1.394 . S
C658 H666 0.930 . S
C659 C658 1.394 . S
C659 C660 1.383 . S
C659 H667 0.929 . S
C660 C659 1.383 . S
C660 C661 1.377 . S
C661 H645 0.930 . S
C661 C660 1.377 . S
C661 C662 1.379 . S
C662 H646 0.931 1_455 S
C662 C656 1.383 . S
C662 C661 1.379 . S
H663 C657 0.959 . S
H664 C657 0.961 . S
H665 C657 0.960 1_455 S
H666 C658 0.930 . S
H667 C659 0.929 . S
H668 C676 0.929 . S
H669 C678 0.930 . S
H670 C680 0.930 . S
H671 C683 0.929 . S
H672 C686 0.930 . S
H673 C688 0.960 . S
H674 C688 0.960 . S
H675 C688 0.960 . S
C676 H668 0.929 . S
C676 C677 1.377 . S
C676 C678 1.384 . S
C677 C676 1.377 . S
C677 C683 1.390 . S
C678 H669 0.930 . S
C678 C676 1.384 . S
C678 C679 1.372 . S
C679 C678 1.372 . S
C679 C680 1.400 . S
C679 C684 1.490 . S
C680 H670 0.930 . S
C680 C679 1.400 . S
C680 C683 1.386 . S
H681 C697 0.930 . S
H682 C698 0.931 . S
C683 H671 0.929 . S
C683 C677 1.390 . S
C683 C680 1.386 . S
C684 C679 1.490 . S
C684 C686 1.395 . S
C684 C687 1.403 1_545 S
H685 C691 0.930 . S
C686 H672 0.930 . S
C686 C684 1.395 . S
C686 C689 1.403 . S
C687 C684 1.403 1_565 S
C687 C688 1.524 . S
C687 C691 1.400 . S
C688 H673 0.960 . S
C688 H674 0.960 . S
C688 H675 0.960 . S
C688 C687 1.524 . S
C689 C686 1.403 . S
C689 C690 1.392 1_545 S
C689 C693 1.495 . S
C690 C689 1.392 1_565 S
C690 C691 1.385 . S
C690 C692 1.478 . S
C691 H685 0.930 . S
C691 C687 1.400 . S
C691 C690 1.385 . S
C692 C690 1.478 . S
C692 C694 1.381 . S
C692 C698 1.383 . S
C693 C689 1.495 . S
C693 H699 0.959 . S
C693 H700 0.961 . S
C693 H701 0.960 . S
C694 C692 1.381 . S
C694 C695 1.394 . S
C694 H702 0.930 . S
C695 C694 1.394 . S
C695 C696 1.383 . S
C695 H703 0.929 . S
C696 C695 1.383 . S
C696 C697 1.377 . S
C697 H681 0.930 . S
C697 C696 1.377 . S
C697 C698 1.379 . S
C698 H682 0.931 . S
C698 C692 1.383 . S
C698 C697 1.379 . S
H699 C693 0.959 . S
H700 C693 0.961 . S
H701 C693 0.960 . S
H702 C694 0.930 . S
H703 C695 0.929 . S
H704 C712 0.929 . S
H705 C714 0.930 . S
H706 C716 0.930 . S
H707 C719 0.929 . S
H708 C722 0.930 . S
H709 C724 0.960 . S
H710 C724 0.960 . S
H711 C724 0.960 . S
C712 H704 0.929 . S
C712 C713 1.377 . S
C712 C714 1.384 . S
C713 C712 1.377 . S
C713 C719 1.390 . S
C714 H705 0.930 . S
C714 C712 1.384 . S
C714 C715 1.372 . S
C715 C714 1.372 . S
C715 C716 1.400 . S
C715 C720 1.490 . S
C716 H706 0.930 . S
C716 C715 1.400 . S
C716 C719 1.386 . S
H717 C733 0.930 . S
H718 C734 0.931 . S
C719 H707 0.929 . S
C719 C713 1.390 . S
C719 C716 1.386 . S
C720 C715 1.490 . S
C720 C722 1.395 . S
C720 C723 1.403 . S
H721 C727 0.930 . S
C722 H708 0.930 . S
C722 C720 1.395 . S
C722 C725 1.403 . S
C723 C720 1.403 . S
C723 C724 1.524 . S
C723 C727 1.400 . S
C724 H709 0.960 . S
C724 H710 0.960 . S
C724 H711 0.960 . S
C724 C723 1.524 . S
C725 C722 1.403 . S
C725 C726 1.392 . S
C725 C729 1.495 . S
C726 C725 1.392 . S
C726 C727 1.385 . S
C726 C728 1.478 . S
C727 H721 0.930 . S
C727 C723 1.400 . S
C727 C726 1.385 . S
C728 C726 1.478 . S
C728 C730 1.381 . S
C728 C734 1.383 . S
C729 C725 1.495 . S
C729 H735 0.959 . S
C729 H736 0.961 . S
C729 H737 0.960 . S
C730 C728 1.381 . S
C730 C731 1.394 . S
C730 H738 0.930 . S
C731 C730 1.394 . S
C731 C732 1.383 1_545 S
C731 H739 0.929 . S
C732 C731 1.383 1_565 S
C732 C733 1.377 . S
C733 H717 0.930 . S
C733 C732 1.377 . S
C733 C734 1.379 1_565 S
C734 H718 0.931 . S
C734 C728 1.383 . S
C734 C733 1.379 1_545 S
H735 C729 0.959 . S
H736 C729 0.961 . S
H737 C729 0.960 . S
H738 C730 0.930 . S
H739 C731 0.929 . S
H740 C748 0.929 . S
H741 C750 0.930 . S
H742 C752 0.930 . S
H743 C755 0.929 . S
H744 C758 0.930 . S
H745 C760 0.960 . S
H746 C760 0.960 . S
H747 C760 0.960 . S
C748 H740 0.929 . S
C748 C749 1.377 1_655 S
C748 C750 1.384 . S
C749 C748 1.377 1_455 S
C749 C755 1.390 . S
C750 H741 0.930 . S
C750 C748 1.384 . S
C750 C751 1.372 . S
C751 C750 1.372 . S
C751 C752 1.400 . S
C751 C756 1.490 . S
C752 H742 0.930 . S
C752 C751 1.400 . S
C752 C755 1.386 1_655 S
H753 C769 0.930 . S
H754 C770 0.931 . S
C755 H743 0.929 . S
C755 C749 1.390 . S
C755 C752 1.386 1_455 S
C756 C751 1.490 . S
C756 C758 1.395 . S
C756 C759 1.403 . S
H757 C763 0.930 . S
C758 H744 0.930 . S
C758 C756 1.395 . S
C758 C761 1.403 . S
C759 C756 1.403 . S
C759 C760 1.524 . S
C759 C763 1.400 . S
C760 H745 0.960 . S
C760 H746 0.960 . S
C760 H747 0.960 . S
C760 C759 1.524 . S
C761 C758 1.403 . S
C761 C762 1.392 . S
C761 C765 1.495 . S
C762 C761 1.392 . S
C762 C763 1.385 . S
C762 C764 1.478 . S
C763 H757 0.930 . S
C763 C759 1.400 . S
C763 C762 1.385 . S
C764 C762 1.478 . S
C764 C766 1.381 . S
C764 C770 1.383 . S
C765 C761 1.495 . S
C765 H771 0.959 . S
C765 H772 0.961 . S
C765 H773 0.960 . S
C766 C764 1.381 . S
C766 C767 1.394 . S
C766 H774 0.930 . S
C767 C766 1.394 . S
C767 C768 1.383 . S
C767 H775 0.929 . S
C768 C767 1.383 . S
C768 C769 1.377 . S
C769 H753 0.930 . S
C769 C768 1.377 . S
C769 C770 1.379 . S
C770 H754 0.931 . S
C770 C764 1.383 . S
C770 C769 1.379 . S
H771 C765 0.959 . S
H772 C765 0.961 . S
H773 C765 0.960 . S
H774 C766 0.930 . S
H775 C767 0.929 . S
H776 C784 0.929 . S
H777 C786 0.930 . S
H778 C788 0.930 . S
H779 C791 0.929 . S
H780 C794 0.930 . S
H781 C796 0.960 . S
H782 C796 0.960 . S
H783 C796 0.960 . S
C784 H776 0.929 . S
C784 C785 1.377 1_565 S
C784 C786 1.384 . S
C785 C784 1.377 1_545 S
C785 C791 1.390 . S
C786 H777 0.930 . S
C786 C784 1.384 . S
C786 C787 1.372 . S
C787 C786 1.372 . S
C787 C788 1.400 . S
C787 C792 1.490 . S
C788 H778 0.930 . S
C788 C787 1.400 . S
C788 C791 1.386 1_565 S
H789 C805 0.930 . S
H790 C806 0.931 . S
C791 H779 0.929 . S
C791 C785 1.390 . S
C791 C788 1.386 1_545 S
C792 C787 1.490 . S
C792 C794 1.395 . S
C792 C795 1.403 . S
H793 C799 0.930 . S
C794 H780 0.930 . S
C794 C792 1.395 . S
C794 C797 1.403 . S
C795 C792 1.403 . S
C795 C796 1.524 . S
C795 C799 1.400 . S
C796 H781 0.960 . S
C796 H782 0.960 . S
C796 H783 0.960 . S
C796 C795 1.524 . S
C797 C794 1.403 . S
C797 C798 1.392 . S
C797 C801 1.495 . S
C798 C797 1.392 . S
C798 C799 1.385 . S
C798 C800 1.478 . S
C799 H793 0.930 . S
C799 C795 1.400 . S
C799 C798 1.385 . S
C800 C798 1.478 . S
C800 C802 1.381 . S
C800 C806 1.383 . S
C801 C797 1.495 . S
C801 H807 0.959 . S
C801 H808 0.961 . S
C801 H809 0.960 . S
C802 C800 1.381 . S
C802 C803 1.394 . S
C802 H810 0.930 . S
C803 C802 1.394 . S
C803 C804 1.383 . S
C803 H811 0.929 . S
C804 C803 1.383 . S
C804 C805 1.377 . S
C805 H789 0.930 . S
C805 C804 1.377 . S
C805 C806 1.379 . S
C806 H790 0.931 . S
C806 C800 1.383 . S
C806 C805 1.379 . S
H807 C801 0.959 . S
H808 C801 0.961 . S
H809 C801 0.960 . S
H810 C802 0.930 . S
H811 C803 0.929 . S
H812 C820 0.929 . S
H813 C822 0.930 1_655 S
H814 C824 0.930 . S
H815 C827 0.929 . S
H816 C830 0.930 . S
H817 C832 0.960 . S
H818 C832 0.960 . S
H819 C832 0.960 . S
C820 H812 0.929 . S
C820 C821 1.377 . S
C820 C822 1.384 1_655 S
C821 C820 1.377 . S
C821 C827 1.390 1_655 S
C822 H813 0.930 1_455 S
C822 C820 1.384 1_455 S
C822 C823 1.372 . S
C823 C822 1.372 . S
C823 C824 1.400 . S
C823 C828 1.490 . S
C824 H814 0.930 . S
C824 C823 1.400 . S
C824 C827 1.386 . S
H825 C841 0.930 . S
H826 C842 0.931 . S
C827 H815 0.929 . S
C827 C821 1.390 1_455 S
C827 C824 1.386 . S
C828 C823 1.490 . S
C828 C830 1.395 . S
C828 C831 1.403 . S
H829 C835 0.930 . S
C830 H816 0.930 . S
C830 C828 1.395 . S
C830 C833 1.403 . S
C831 C828 1.403 . S
C831 C832 1.524 . S
C831 C835 1.400 . S
C832 H817 0.960 . S
C832 H818 0.960 . S
C832 H819 0.960 . S
C832 C831 1.524 . S
C833 C830 1.403 . S
C833 C834 1.392 . S
C833 C837 1.495 . S
C834 C833 1.392 . S
C834 C835 1.385 . S
C834 C836 1.478 . S
C835 H829 0.930 . S
C835 C831 1.400 . S
C835 C834 1.385 . S
C836 C834 1.478 . S
C836 C838 1.381 . S
C836 C842 1.383 . S
C837 C833 1.495 . S
C837 H843 0.959 . S
C837 H844 0.961 . S
C837 H845 0.960 . S
C838 C836 1.381 . S
C838 C839 1.394 . S
C838 H846 0.930 . S
C839 C838 1.394 . S
C839 C840 1.383 . S
C839 H847 0.929 . S
C840 C839 1.383 . S
C840 C841 1.377 . S
C841 H825 0.930 . S
C841 C840 1.377 . S
C841 C842 1.379 . S
C842 H826 0.931 . S
C842 C836 1.383 . S
C842 C841 1.379 . S
H843 C837 0.959 . S
H844 C837 0.961 . S
H845 C837 0.960 . S
H846 C838 0.930 . S
H847 C839 0.929 . S
H848 C856 0.929 . S
H849 C858 0.930 . S
H850 C860 0.930 . S
H851 C863 0.929 . S
H852 C866 0.930 . S
H853 C868 0.960 . S
H854 C868 0.960 . S
H855 C868 0.960 . S
C856 H848 0.929 . S
C856 C857 1.377 . S
C856 C858 1.384 . S
C857 C856 1.377 . S
C857 C863 1.390 . S
C858 H849 0.930 . S
C858 C856 1.384 . S
C858 C859 1.372 . S
C859 C858 1.372 . S
C859 C860 1.400 . S
C859 C864 1.490 . S
C860 H850 0.930 . S
C860 C859 1.400 . S
C860 C863 1.386 . S
H861 C877 0.930 . S
H862 C878 0.931 . S
C863 H851 0.929 . S
C863 C857 1.390 . S
C863 C860 1.386 . S
C864 C859 1.490 . S
C864 C866 1.395 . S
C864 C867 1.403 . S
H865 C871 0.930 . S
C866 H852 0.930 . S
C866 C864 1.395 . S
C866 C869 1.403 . S
C867 C864 1.403 . S
C867 C868 1.524 . S
C867 C871 1.400 . S
C868 H853 0.960 . S
C868 H854 0.960 . S
C868 H855 0.960 . S
C868 C867 1.524 . S
C869 C866 1.403 . S
C869 C870 1.392 . S
C869 C873 1.495 . S
C870 C869 1.392 . S
C870 C871 1.385 . S
C870 C872 1.478 . S
C871 H865 0.930 . S
C871 C867 1.400 . S
C871 C870 1.385 . S
C872 C870 1.478 . S
C872 C874 1.381 . S
C872 C878 1.383 . S
C873 C869 1.495 . S
C873 H879 0.959 . S
C873 H880 0.961 . S
C873 H881 0.960 . S
C874 C872 1.381 . S
C874 C875 1.394 . S
C874 H882 0.930 . S
C875 C874 1.394 . S
C875 C876 1.383 1_565 S
C875 H883 0.929 1_565 S
C876 C875 1.383 1_545 S
C876 C877 1.377 . S
C877 H861 0.930 . S
C877 C876 1.377 . S
C877 C878 1.379 1_545 S
C878 H862 0.931 . S
C878 C872 1.383 . S
C878 C877 1.379 1_565 S
H879 C873 0.959 . S
H880 C873 0.961 . S
H881 C873 0.960 . S
H882 C874 0.930 . S
H883 C875 0.929 1_545 S
H884 C892 0.929 . S
H885 C894 0.930 . S
H886 C896 0.930 . S
H887 C899 0.929 . S
H888 C902 0.930 . S
H889 C904 0.960 . S
H890 C904 0.960 . S
H891 C904 0.960 . S
C892 H884 0.929 . S
C892 C893 1.377 . S
C892 C894 1.384 . S
C893 C892 1.377 . S
C893 C899 1.390 . S
C894 H885 0.930 . S
C894 C892 1.384 . S
C894 C895 1.372 . S
C895 C894 1.372 . S
C895 C896 1.400 . S
C895 C900 1.490 . S
C896 H886 0.930 . S
C896 C895 1.400 . S
C896 C899 1.386 . S
H897 C913 0.930 . S
H898 C914 0.931 . S
C899 H887 0.929 . S
C899 C893 1.390 . S
C899 C896 1.386 . S
C900 C895 1.490 . S
C900 C902 1.395 . S
C900 C903 1.403 . S
H901 C907 0.930 . S
C902 H888 0.930 . S
C902 C900 1.395 . S
C902 C905 1.403 . S
C903 C900 1.403 . S
C903 C904 1.524 . S
C903 C907 1.400 . S
C904 H889 0.960 . S
C904 H890 0.960 . S
C904 H891 0.960 . S
C904 C903 1.524 . S
C905 C902 1.403 . S
C905 C906 1.392 . S
C905 C909 1.495 . S
C906 C905 1.392 . S
C906 C907 1.385 . S
C906 C908 1.478 . S
C907 H901 0.930 . S
C907 C903 1.400 . S
C907 C906 1.385 . S
C908 C906 1.478 . S
C908 C910 1.381 . S
C908 C914 1.383 . S
C909 C905 1.495 . S
C909 H915 0.959 . S
C909 H916 0.961 . S
C909 H917 0.960 . S
C910 C908 1.381 . S
C910 C911 1.394 . S
C910 H918 0.930 . S
C911 C910 1.394 . S
C911 C912 1.383 1_455 S
C911 H919 0.929 . S
C912 C911 1.383 1_655 S
C912 C913 1.377 . S
C913 H897 0.930 . S
C913 C912 1.377 . S
C913 C914 1.379 1_655 S
C914 H898 0.931 . S
C914 C908 1.383 . S
C914 C913 1.379 1_455 S
H915 C909 0.959 . S
H916 C909 0.961 . S
H917 C909 0.960 . S
H918 C910 0.930 . S
H919 C911 0.929 . S
H920 C928 0.929 . S
H921 C930 0.930 . S
H922 C932 0.930 . S
H923 C935 0.929 . S
H924 C938 0.930 . S
H925 C940 0.960 . S
H926 C940 0.960 . S
H927 C940 0.960 . S
C928 H920 0.929 . S
C928 C929 1.377 . S
C928 C930 1.384 . S
C929 C928 1.377 . S
C929 C935 1.390 . S
C930 H921 0.930 . S
C930 C928 1.384 . S
C930 C931 1.372 . S
C931 C930 1.372 . S
C931 C932 1.400 . S
C931 C936 1.490 . S
C932 H922 0.930 . S
C932 C931 1.400 . S
C932 C935 1.386 . S
H933 C949 0.930 1_565 S
H934 C950 0.931 . S
C935 H923 0.929 . S
C935 C929 1.390 . S
C935 C932 1.386 . S
C936 C931 1.490 . S
C936 C938 1.395 . S
C936 C939 1.403 . S
H937 C943 0.930 . S
C938 H924 0.930 . S
C938 C936 1.395 . S
C938 C941 1.403 . S
C939 C936 1.403 . S
C939 C940 1.524 . S
C939 C943 1.400 . S
C940 H925 0.960 . S
C940 H926 0.960 . S
C940 H927 0.960 . S
C940 C939 1.524 . S
C941 C938 1.403 . S
C941 C942 1.392 . S
C941 C945 1.495 . S
C942 C941 1.392 . S
C942 C943 1.385 . S
C942 C944 1.478 . S
C943 H937 0.930 . S
C943 C939 1.400 . S
C943 C942 1.385 . S
C944 C942 1.478 . S
C944 C946 1.381 . S
C944 C950 1.383 . S
C945 C941 1.495 . S
C945 H951 0.959 . S
C945 H952 0.961 . S
C945 H953 0.960 . S
C946 C944 1.381 . S
C946 C947 1.394 . S
C946 H954 0.930 . S
C947 C946 1.394 . S
C947 C948 1.383 1_545 S
C947 H955 0.929 1_546 S
C948 C947 1.383 1_565 S
C948 C949 1.377 1_565 S
C949 H933 0.930 1_545 S
C949 C948 1.377 1_545 S
C949 C950 1.379 . S
C950 H934 0.931 . S
C950 C944 1.383 . S
C950 C949 1.379 . S
H951 C945 0.959 . S
H952 C945 0.961 . S
H953 C945 0.960 . S
H954 C946 0.930 . S
H955 C947 0.929 1_564 S
H956 C964 0.929 . S
H957 C966 0.930 . S
H958 C968 0.930 . S
H959 C971 0.929 . S
H960 C974 0.930 . S
H961 C976 0.960 . S
H962 C976 0.960 . S
H963 C976 0.960 . S
C964 H956 0.929 . S
C964 C965 1.377 1_655 S
C964 C966 1.384 . S
C965 C964 1.377 1_455 S
C965 C971 1.390 . S
C966 H957 0.930 . S
C966 C964 1.384 . S
C966 C967 1.372 . S
C967 C966 1.372 . S
C967 C968 1.400 . S
C967 C972 1.490 . S
C968 H958 0.930 . S
C968 C967 1.400 . S
C968 C971 1.386 1_655 S
H969 C985 0.930 . S
H970 C986 0.931 . S
C971 H959 0.929 . S
C971 C965 1.390 . S
C971 C968 1.386 1_455 S
C972 C967 1.490 . S
C972 C974 1.395 . S
C972 C975 1.403 . S
H973 C979 0.930 . S
C974 H960 0.930 . S
C974 C972 1.395 . S
C974 C977 1.403 . S
C975 C972 1.403 . S
C975 C976 1.524 . S
C975 C979 1.400 . S
C976 H961 0.960 . S
C976 H962 0.960 . S
C976 H963 0.960 . S
C976 C975 1.524 . S
C977 C974 1.403 . S
C977 C978 1.392 . S
C977 C981 1.495 . S
C978 C977 1.392 . S
C978 C979 1.385 . S
C978 C980 1.478 . S
C979 H973 0.930 . S
C979 C975 1.400 . S
C979 C978 1.385 . S
C980 C978 1.478 . S
C980 C982 1.381 . S
C980 C986 1.383 . S
C981 C977 1.495 . S
C981 H987 0.959 . S
C981 H988 0.961 . S
C981 H989 0.960 . S
C982 C980 1.381 . S
C982 C983 1.394 . S
C982 H990 0.930 . S
C983 C982 1.394 . S
C983 C984 1.383 . S
C983 H991 0.929 . S
C984 C983 1.383 . S
C984 C985 1.377 . S
C985 H969 0.930 . S
C985 C984 1.377 . S
C985 C986 1.379 . S
C986 H970 0.931 . S
C986 C980 1.383 . S
C986 C985 1.379 . S
H987 C981 0.959 . S
H988 C981 0.961 . S
H989 C981 0.960 . S
H990 C982 0.930 . S
H991 C983 0.929 . S
C281 C138 0.991 . S
C300 C2 0.982 . S
C317 C36 0.990 . S
C336 C172 0.996 . S
C353 C70 0.992 . S
C372 C206 0.995 . S
C389 C104 0.991 . S
C408 C240 0.982 . S
C425 C175 0.632 . S
C444 C5 0.634 . S
C461 C39 0.632 . S
C480 C209 0.630 . S
C497 C243 0.633 . S
C516 C73 0.638 . S
C533 C107 0.633 . S
C552 C141 0.640 . S
C569 C9 0.691 . S
C588 C213 0.668 . S
C605 C247 0.679 . S
C624 C43 0.726 . S
C641 C77 0.680 . S
C660 C145 0.722 . S
C677 C179 0.684 . S
C696 C111 0.699 . S
C713 C20 2.422 . S
C732 C135 2.421 1_554 S
C749 C33 2.426 . S
C768 C54 2.418 . S
C785 C67 2.426 . S
C804 C88 2.414 . S
C821 C101 2.425 . S
C840 C122 2.422 . S
C857 C156 2.423 . S
C876 C203 2.419 . S
C893 C190 2.422 . S
C912 C237 2.424 . S
C929 C224 2.423 . S
C948 C271 2.423 1_556 S
C965 C169 2.426 . S
C984 C258 2.415 . S
