# Generated by pormake.
# Topology osc, (6)-cn, num edge types: 1
# Building blocks:
#     Node 0, Type 0, BuildingBlock: IZENUY_clean_sbu_0, # of connection points: 6
#     Node 1, Type 0, BuildingBlock: IZENUY_clean_sbu_0, # of connection points: 6
#     Node 2, Type 0, BuildingBlock: IZENUY_clean_sbu_0, # of connection points: 6
#     Node 3, Type 0, BuildingBlock: IZENUY_clean_sbu_0, # of connection points: 6
#     Node 4, Type 0, BuildingBlock: IZENUY_clean_sbu_0, # of connection points: 6
#     Node 5, Type 0, BuildingBlock: IZENUY_clean_sbu_0, # of connection points: 6
#     Node 6, Type 0, BuildingBlock: IZENUY_clean_sbu_0, # of connection points: 6
#     Node 7, Type 0, BuildingBlock: IZENUY_clean_sbu_0, # of connection points: 6
#     Edge 8, Type (0, 0), BuildingBlock: EYOCIG_clean_linker_4, # of connection points: 2
#     Edge 9, Type (0, 0), BuildingBlock: EYOCIG_clean_linker_4, # of connection points: 2
#     Edge 10, Type (0, 0), BuildingBlock: EYOCIG_clean_linker_4, # of connection points: 2
#     Edge 11, Type (0, 0), BuildingBlock: EYOCIG_clean_linker_4, # of connection points: 2
#     Edge 12, Type (0, 0), BuildingBlock: EYOCIG_clean_linker_4, # of connection points: 2
#     Edge 13, Type (0, 0), BuildingBlock: EYOCIG_clean_linker_4, # of connection points: 2
#     Edge 14, Type (0, 0), BuildingBlock: EYOCIG_clean_linker_4, # of connection points: 2
#     Edge 15, Type (0, 0), BuildingBlock: EYOCIG_clean_linker_4, # of connection points: 2
#     Edge 16, Type (0, 0), BuildingBlock: EYOCIG_clean_linker_4, # of connection points: 2
#     Edge 17, Type (0, 0), BuildingBlock: EYOCIG_clean_linker_4, # of connection points: 2
#     Edge 18, Type (0, 0), BuildingBlock: EYOCIG_clean_linker_4, # of connection points: 2
#     Edge 19, Type (0, 0), BuildingBlock: EYOCIG_clean_linker_4, # of connection points: 2
#     Edge 20, Type (0, 0), BuildingBlock: EYOCIG_clean_linker_4, # of connection points: 2
#     Edge 21, Type (0, 0), BuildingBlock: EYOCIG_clean_linker_4, # of connection points: 2
#     Edge 22, Type (0, 0), BuildingBlock: EYOCIG_clean_linker_4, # of connection points: 2
#     Edge 23, Type (0, 0), BuildingBlock: EYOCIG_clean_linker_4, # of connection points: 2
#     Edge 24, Type (0, 0), BuildingBlock: EYOCIG_clean_linker_4, # of connection points: 2
#     Edge 25, Type (0, 0), BuildingBlock: EYOCIG_clean_linker_4, # of connection points: 2
#     Edge 26, Type (0, 0), BuildingBlock: EYOCIG_clean_linker_4, # of connection points: 2
#     Edge 27, Type (0, 0), BuildingBlock: EYOCIG_clean_linker_4, # of connection points: 2
#     Edge 28, Type (0, 0), BuildingBlock: EYOCIG_clean_linker_4, # of connection points: 2
#     Edge 29, Type (0, 0), BuildingBlock: EYOCIG_clean_linker_4, # of connection points: 2
#     Edge 30, Type (0, 0), BuildingBlock: EYOCIG_clean_linker_4, # of connection points: 2
#     Edge 31, Type (0, 0), BuildingBlock: EYOCIG_clean_linker_4, # of connection points: 2
# Relax obj value: 0.251
# Max RMSD: 0.250
# Mean RMSD: 0.249
data_MOF--net-osc--node1-IZENUY_clean_sbu_0--edge1-EYOCIG_clean_linker_4
_symmetry_space_group_name_H-M    P1
_symmetry_Int_Tables_number       1
_symmetry_cell_setting            triclinic
loop_
_symmetry_equiv_pos_as_xyz
'x, y, z'
_cell_length_a     22.728561
_cell_length_b     37.64738
_cell_length_c     20.862024
_cell_angle_alpha  90.002914
_cell_angle_beta   90.005753
_cell_angle_gamma 90.021197
loop_
_atom_site_label
_atom_site_type_symbol
_atom_site_fract_x
_atom_site_fract_y
_atom_site_fract_z
_atom_type_partial_charge
Fe0 Fe 0.27591 0.05815 0.40522 0.0
Fe1 Fe 0.3072 0.12003 0.31554 0.0
O2 O 0.31595 0.09761 0.38939 0.0
Fe3 Fe 0.36635 0.11468 0.44658 0.0
O4 O 0.40923 0.07525 0.4419 0.0
O5 O 0.33639 0.03678 0.45045 0.0
O6 O 0.30442 0.03597 0.33479 0.0
C7 C 0.29821 0.04735 0.27867 0.0
C8 C 0.2749 0.08493 0.52508 0.0
O9 O 0.28947 0.08002 0.26799 0.0
C10 C 0.31888 0.17623 0.4061 0.0
O11 O 0.20917 0.07339 0.36218 0.0
O12 O 0.23027 0.12817 0.33145 0.0
O13 O 0.32623 0.09746 0.51759 0.0
O14 O 0.2442 0.07664 0.47731 0.0
C15 C 0.42608 0.12269 0.32937 0.0
O16 O 0.32271 0.1645 0.34922 0.0
O17 O 0.32609 0.156 0.45356 0.0
C18 C 0.19339 0.10385 0.34204 0.0
O19 O 0.38362 0.11244 0.29546 0.0
O20 O 0.41798 0.1332 0.38649 0.0
C21 C 0.3906 0.04463 0.45331 0.0
Fe22 Fe 0.23654 0.97214 0.9052 0.0
Fe23 Fe 0.20653 0.90985 0.81582 0.0
O24 O 0.1972 0.93236 0.8896 0.0
Fe25 Fe 0.14688 0.91501 0.94668 0.0
O26 O 0.10345 0.95418 0.94238 0.0
O27 O 0.17537 0.99345 0.94927 0.0
O28 O 0.20834 0.99387 0.83414 0.0
C29 C 0.21524 0.98237 0.77822 0.0
C30 C 0.23746 0.94548 0.02552 0.0
O31 O 0.2244 0.94972 0.76804 0.0
C32 C 0.19493 0.85357 0.90615 0.0
O33 O 0.30384 0.9569 0.86314 0.0
O34 O 0.28344 0.90198 0.83237 0.0
O35 O 0.18662 0.93228 1.01783 0.0
O36 O 0.26801 0.95439 0.97802 0.0
C37 C 0.0875 0.90716 0.82915 0.0
O38 O 0.19105 0.86534 0.84934 0.0
O39 O 0.1876 0.87379 0.9536 0.0
C40 C 0.32003 0.92644 0.84327 0.0
O41 O 0.13012 0.91729 0.79531 0.0
O42 O 0.09552 0.89649 0.88623 0.0
C43 C 0.12136 0.98512 0.95222 0.0
Fe44 Fe 0.77628 0.47172 0.13741 0.0
Fe45 Fe 0.80727 0.40985 0.22723 0.0
O46 O 0.81595 0.43213 0.15318 0.0
Fe47 Fe 0.86588 0.41475 0.09583 0.0
O48 O 0.90925 0.454 0.09974 0.0
O49 O 0.83696 0.49294 0.09227 0.0
O50 O 0.80505 0.49382 0.20781 0.0
C51 C 0.79866 0.48254 0.26395 0.0
C52 C 0.77459 0.44478 1.01755 0.0
O53 O 0.78972 0.44991 0.27469 0.0
C54 C 0.81802 0.35346 0.13712 0.0
O55 O 0.70943 0.45654 0.18037 0.0
O56 O 0.7303 0.40178 0.21151 0.0
O57 O 0.82568 0.4319 0.02489 0.0
O58 O 0.74424 0.45344 0.06532 0.0
C59 C 0.9261 0.40705 0.21281 0.0
O60 O 0.8225 0.3653 0.19384 0.0
O61 O 0.82509 0.37356 0.08946 0.0
C62 C 0.69352 0.42607 0.20042 0.0
O63 O 0.88382 0.41741 0.24693 0.0
O64 O 0.9176 0.39629 0.15589 0.0
C65 C 0.89103 0.48478 0.08904 0.0
Fe66 Fe 0.7061 0.61974 0.72734 0.0
Fe67 Fe 0.64747 0.6149 0.59588 0.0
O68 O 0.69722 0.59735 0.65336 0.0
Fe69 Fe 0.73642 0.5575 0.63796 0.0
O70 O 0.70786 0.53577 0.70882 0.0
O71 O 0.7235 0.57984 0.77518 0.0
O72 O 0.62948 0.61238 0.74705 0.0
C73 C 0.58724 0.62273 0.71286 0.0
C74 C 0.81975 0.6031 0.70051 0.0
O75 O 0.59583 0.63348 0.65593 0.0
C76 C 0.73813 0.58417 0.51762 0.0
O77 O 0.69109 0.6643 0.6939 0.0
O78 O 0.6886 0.65603 0.58956 0.0
O79 O 0.80362 0.57269 0.68031 0.0
O80 O 0.78317 0.62753 0.71156 0.0
C81 C 0.62135 0.54481 0.5904 0.0
O82 O 0.68746 0.5976 0.52498 0.0
O83 O 0.76833 0.57515 0.5653 0.0
C84 C 0.69557 0.67616 0.63722 0.0
O85 O 0.60368 0.57585 0.5996 0.0
O86 O 0.67526 0.5363 0.59372 0.0
C87 C 0.71444 0.54721 0.7648 0.0
Fe88 Fe 0.73677 0.97239 0.63686 0.0
Fe89 Fe 0.64751 0.91503 0.59427 0.0
O90 O 0.69725 0.93255 0.65199 0.0
Fe91 Fe 0.70577 0.9101 0.72611 0.0
O92 O 0.72329 0.94986 0.77415 0.0
O93 O 0.70848 0.99402 0.70789 0.0
O94 O 0.67581 0.99392 0.59309 0.0
C95 C 0.62198 0.9854 0.58896 0.0
C96 C 0.81974 0.92645 0.69923 0.0
O97 O 0.60413 0.95428 0.59709 0.0
C98 C 0.69482 0.8536 0.63625 0.0
O99 O 0.76845 0.95504 0.56387 0.0
O100 O 0.68798 0.93195 0.52353 0.0
O101 O 0.78291 0.90217 0.71069 0.0
O102 O 0.8039 0.95687 0.67885 0.0
C103 C 0.58683 0.90758 0.71114 0.0
O104 O 0.68809 0.87367 0.58848 0.0
O105 O 0.69049 0.86558 0.69283 0.0
C106 C 0.73843 0.94569 0.51626 0.0
O107 O 0.59533 0.89687 0.65417 0.0
O108 O 0.62915 0.91763 0.74553 0.0
C109 C 0.71447 0.98248 0.76384 0.0
Fe110 Fe 0.8076 0.11991 0.22586 0.0
Fe111 Fe 0.77543 0.05799 0.1365 0.0
O112 O 0.81555 0.09753 0.15174 0.0
Fe113 Fe 0.86517 0.11481 0.09386 0.0
O114 O 0.91764 0.13299 0.15345 0.0
O115 O 0.88423 0.11213 0.24489 0.0
O116 O 0.78991 0.08003 0.27365 0.0
C117 C 0.79843 0.04737 0.263 0.0
C118 C 0.81827 0.17627 0.13583 0.0
O119 O 0.80429 0.03598 0.20689 0.0
C120 C 0.77317 0.0849 1.01648 0.0
O121 O 0.73056 0.12819 0.21072 0.0
O122 O 0.70895 0.07351 0.17957 0.0
O123 O 0.82479 0.15619 0.08806 0.0
O124 O 0.82308 0.16438 0.19244 0.0
C125 C 0.88967 0.04456 0.08728 0.0
O126 O 0.74319 0.07607 0.06443 0.0
O127 O 0.82422 0.09789 0.02337 0.0
C128 C 0.69346 0.10405 0.19956 0.0
O129 O 0.83564 0.03645 0.09136 0.0
O130 O 0.90818 0.0754 0.09695 0.0
C131 C 0.92639 0.12227 0.21035 0.0
Fe132 Fe 0.20577 0.62014 0.81701 0.0
Fe133 Fe 0.23727 0.55778 0.90556 0.0
O134 O 0.19738 0.59744 0.89075 0.0
Fe135 Fe 0.14744 0.61446 0.94855 0.0
O136 O 0.0953 0.63285 0.88883 0.0
O137 O 0.12926 0.61238 0.79736 0.0
O138 O 0.22368 0.58049 0.7687 0.0
C139 C 0.21494 0.54779 0.77875 0.0
C140 C 0.19446 0.67619 0.90773 0.0
O141 O 0.20869 0.53614 0.83463 0.0
C142 C 0.23893 0.58406 0.0261 0.0
O143 O 0.28276 0.62834 0.83273 0.0
O144 O 0.30404 0.57347 0.86307 0.0
O145 O 0.18776 0.65589 0.95521 0.0
O146 O 0.19009 0.66448 0.85095 0.0
C147 C 0.12266 0.54415 0.95356 0.0
O148 O 0.26916 0.57542 0.97821 0.0
O149 O 0.18801 0.59721 1.01907 0.0
C150 C 0.31973 0.60406 0.84334 0.0
O151 O 0.1767 0.53603 0.94989 0.0
O152 O 0.10438 0.57509 0.94461 0.0
C153 C 0.08687 0.62226 0.83178 0.0
Fe154 Fe 0.27582 0.47155 0.40578 0.0
Fe155 Fe 0.36625 0.4152 0.44825 0.0
O156 O 0.31601 0.43204 0.39065 0.0
Fe157 Fe 0.30755 0.40938 0.31691 0.0
O158 O 0.28969 0.44912 0.26884 0.0
O159 O 0.30446 0.49341 0.3351 0.0
O160 O 0.336 0.49329 0.4507 0.0
C161 C 0.39015 0.48547 0.45424 0.0
C162 C 0.19358 0.42537 0.34325 0.0
O163 O 0.40892 0.45476 0.44394 0.0
C164 C 0.31938 0.35339 0.40773 0.0
O165 O 0.244 0.45348 0.47815 0.0
O166 O 0.32567 0.43237 0.51888 0.0
O167 O 0.23058 0.40112 0.3327 0.0
O168 O 0.20924 0.45595 0.36293 0.0
C169 C 0.42648 0.40718 0.33129 0.0
O170 O 0.32631 0.3737 0.45515 0.0
O171 O 0.32328 0.36506 0.35087 0.0
C172 C 0.27448 0.44512 0.52603 0.0
O173 O 0.41832 0.39683 0.3885 0.0
O174 O 0.384 0.41709 0.29705 0.0
C175 C 0.29848 0.48181 0.27912 0.0
C176 C 0.533 0.0155 0.53922 0.0
C177 C 0.57993 1.00843 0.56161 0.0
C178 C 0.47722 0.01646 0.51125 0.0
C179 C 0.43127 0.02285 0.48596 0.0
C180 C 0.97698 0.01509 0.03296 0.0
C181 C 0.93068 0.02197 0.05702 0.0
C182 C 0.03284 1.01409 1.00515 0.0
C183 C 0.07953 1.00745 0.98176 0.0
C184 C 0.03439 0.51428 1.0053 0.0
C185 C 0.0811 0.52127 0.98225 0.0
C186 C 0.97852 0.51327 0.03311 0.0
C187 C 0.93224 0.50679 0.05763 0.0
C188 C 0.53244 0.51572 0.53848 0.0
C189 C 0.57926 0.52236 0.56156 0.0
C190 C 0.47671 0.51474 0.5104 0.0
C191 C 0.43072 0.5079 0.48562 0.0
C192 C 0.28186 1.00034 0.18561 0.0
C193 C 0.2893 0.02186 0.22797 0.0
C194 C 0.26763 0.97711 0.13425 0.0
C195 C 0.25169 0.96197 0.08608 0.0
C196 C 0.2313 0.029 0.68445 0.0
C197 C 0.22398 1.00769 0.72719 0.0
C198 C 0.2451 0.05223 0.63294 0.0
C199 C 0.26063 0.06772 0.58497 0.0
C200 C 0.76842 0.55243 0.40903 0.0
C201 C 0.75247 0.56761 0.45715 0.0
C202 C 0.78258 0.52939 0.35736 0.0
C203 C 0.78994 0.50808 0.31464 0.0
C204 C 0.74434 0.4771 0.90956 0.0
C205 C 0.76021 0.4617 0.95746 0.0
C206 C 0.73034 0.5004 0.85825 0.0
C207 C 0.72311 0.52181 0.8157 0.0
C208 C 0.74236 0.05269 0.90869 0.0
C209 C 0.75846 0.06805 0.95651 0.0
C210 C 0.72875 0.02927 0.85751 0.0
C211 C 0.72228 1.00778 0.81499 0.0
C212 C 0.76876 0.97715 0.40754 0.0
C213 C 0.7527 0.96202 0.45563 0.0
C214 C 0.78278 1.00042 0.35621 0.0
C215 C 0.78989 0.02192 0.3138 0.0
C216 C 0.23069 0.50121 0.68496 0.0
C217 C 0.22355 0.52259 0.72757 0.0
C218 C 0.24446 0.47785 0.63369 0.0
C219 C 0.26011 0.46232 0.58584 0.0
C220 C 0.26934 0.55171 0.13398 0.0
C221 C 0.25345 0.56711 0.0861 0.0
C222 C 0.28317 0.52844 0.18534 0.0
C223 C 0.29012 0.50707 0.228 0.0
C224 C 0.53123 0.12012 0.27516 0.0
C225 C 0.48431 0.12189 0.30223 0.0
C226 C 0.58617 0.11492 0.24454 0.0
C227 C 0.63474 0.10913 0.22351 0.0
C228 C 0.9273 0.91594 0.74421 0.0
C229 C 0.87867 0.92167 0.72311 0.0
C230 C 0.98225 0.91054 0.77493 0.0
C231 C 0.02919 0.9084 0.80201 0.0
C232 C 0.08652 0.41483 0.29714 0.0
C233 C 0.13501 0.42043 0.31864 0.0
C234 C 0.03157 0.40975 0.26639 0.0
C235 C 0.98451 0.4079 0.23956 0.0
C236 C 0.42679 0.6147 0.79718 0.0
C237 C 0.37833 0.609 0.81873 0.0
C238 C 0.4817 0.61991 0.76634 0.0
C239 C 0.52876 0.62182 0.7395 0.0
C240 C 0.48148 0.91084 0.76497 0.0
C241 C 0.52835 0.90868 0.73779 0.0
C242 C 0.42691 0.91622 0.79642 0.0
C243 C 0.37862 0.9219 0.81841 0.0
C244 C 0.08675 0.11421 0.29469 0.0
C245 C 0.13499 0.10858 0.31684 0.0
C246 C 0.03202 0.1194 0.26352 0.0
C247 C 0.98496 0.12136 0.23673 0.0
C248 C 0.98146 0.61879 0.77814 0.0
C249 C 0.0284 0.62101 0.80515 0.0
C250 C 0.92677 0.61336 0.74697 0.0
C251 C 0.87841 0.60767 0.72515 0.0
C252 C 0.53171 0.41013 0.27731 0.0
C253 C 0.4848 0.40818 0.30437 0.0
C254 C 0.58647 0.41546 0.24634 0.0
C255 C 0.63487 0.42126 0.22481 0.0
C256 C 0.31495 0.24599 0.42046 0.0
C257 C 0.31678 0.21402 0.41605 0.0
C258 C 0.3151 0.28359 0.42113 0.0
C259 C 0.31709 0.3156 0.41761 0.0
C260 C 0.19926 0.78372 0.92026 0.0
C261 C 0.19724 0.81572 0.91599 0.0
C262 C 0.19912 0.74607 0.92092 0.0
C263 C 0.19698 0.71404 0.91751 0.0
C264 C 0.81334 0.24609 0.123 0.0
C265 C 0.81559 0.21409 0.12645 0.0
C266 C 0.81325 0.28368 0.12343 0.0
C267 C 0.81545 0.31566 0.1275 0.0
C268 C 0.69965 0.78369 0.62367 0.0
C269 C 0.69743 0.81572 0.62703 0.0
C270 C 0.69988 0.74604 0.62393 0.0
C271 C 0.6979 0.71403 0.62771 0.0
loop_
_geom_bond_atom_site_label_1
_geom_bond_atom_site_label_2
_geom_bond_distance
_geom_bond_site_symmetry_2
_ccdc_geom_bond_type
Fe0 O2 1.918 . S
Fe0 O5 1.997 . S
Fe0 O6 2.002 . S
Fe0 O11 1.976 . S
Fe0 O14 1.996 . S
Fe1 O2 1.918 . S
Fe1 O9 1.997 . S
Fe1 O12 1.996 . S
Fe1 O16 1.976 . S
Fe1 O19 2.002 . S
O2 Fe0 1.918 . S
O2 Fe1 1.918 . S
O2 Fe3 1.918 . S
Fe3 O2 1.918 . S
Fe3 O4 2.002 . S
Fe3 O13 1.976 . S
Fe3 O17 1.996 . S
Fe3 O20 1.997 . S
O4 Fe3 2.002 . S
O4 C21 1.295 . S
O5 Fe0 1.997 . S
O5 C21 1.235 . S
O6 Fe0 2.002 . S
O6 C7 1.295 . S
C7 O6 1.295 . S
C7 O9 1.235 . S
C8 O13 1.287 . S
C8 O14 1.255 . S
O9 Fe1 1.997 . S
O9 C7 1.235 . S
C10 O16 1.287 . S
C10 O17 1.255 . S
O11 Fe0 1.976 . S
O11 C18 1.287 . S
O12 Fe1 1.996 . S
O12 C18 1.255 . S
O13 Fe3 1.976 . S
O13 C8 1.287 . S
O14 Fe0 1.996 . S
O14 C8 1.255 . S
C15 O19 1.295 . S
C15 O20 1.235 . S
O16 Fe1 1.976 . S
O16 C10 1.287 . S
O17 Fe3 1.996 . S
O17 C10 1.255 . S
C18 O11 1.287 . S
C18 O12 1.255 . S
O19 Fe1 2.002 . S
O19 C15 1.295 . S
O20 Fe3 1.997 . S
O20 C15 1.235 . S
C21 O4 1.295 . S
C21 O5 1.235 . S
Fe22 O24 1.918 . S
Fe22 O27 1.997 . S
Fe22 O28 2.002 . S
Fe22 O33 1.976 . S
Fe22 O36 1.996 . S
Fe23 O24 1.918 . S
Fe23 O31 1.997 . S
Fe23 O34 1.996 . S
Fe23 O38 1.976 . S
Fe23 O41 2.002 . S
O24 Fe22 1.918 . S
O24 Fe23 1.918 . S
O24 Fe25 1.918 . S
Fe25 O24 1.918 . S
Fe25 O26 2.002 . S
Fe25 O35 1.976 1_556 S
Fe25 O39 1.996 . S
Fe25 O42 1.997 . S
O26 Fe25 2.002 . S
O26 C43 1.295 . S
O27 Fe22 1.997 . S
O27 C43 1.235 . S
O28 Fe22 2.002 . S
O28 C29 1.295 . S
C29 O28 1.295 . S
C29 O31 1.235 . S
C30 O35 1.287 . S
C30 O36 1.255 1_554 S
O31 Fe23 1.997 . S
O31 C29 1.235 . S
C32 O38 1.287 . S
C32 O39 1.255 . S
O33 Fe22 1.976 . S
O33 C40 1.287 . S
O34 Fe23 1.996 . S
O34 C40 1.255 . S
O35 Fe25 1.976 1_554 S
O35 C30 1.287 . S
O36 Fe22 1.996 . S
O36 C30 1.255 1_556 S
C37 O41 1.295 . S
C37 O42 1.235 . S
O38 Fe23 1.976 . S
O38 C32 1.287 . S
O39 Fe25 1.996 . S
O39 C32 1.255 . S
C40 O33 1.287 . S
C40 O34 1.255 . S
O41 Fe23 2.002 . S
O41 C37 1.295 . S
O42 Fe25 1.997 . S
O42 C37 1.235 . S
C43 O26 1.295 . S
C43 O27 1.235 . S
Fe44 O46 1.918 . S
Fe44 O49 1.997 . S
Fe44 O50 2.002 . S
Fe44 O55 1.976 . S
Fe44 O58 1.996 . S
Fe45 O46 1.918 . S
Fe45 O53 1.997 . S
Fe45 O56 1.996 . S
Fe45 O60 1.976 . S
Fe45 O63 2.002 . S
O46 Fe44 1.918 . S
O46 Fe45 1.918 . S
O46 Fe47 1.918 . S
Fe47 O46 1.918 . S
Fe47 O48 2.002 . S
Fe47 O57 1.976 1_554 S
Fe47 O61 1.996 . S
Fe47 O64 1.997 . S
O48 Fe47 2.002 . S
O48 C65 1.295 . S
O49 Fe44 1.997 . S
O49 C65 1.235 . S
O50 Fe44 2.002 . S
O50 C51 1.295 . S
C51 O50 1.295 . S
C51 O53 1.235 . S
C52 O57 1.287 . S
C52 O58 1.255 1_556 S
O53 Fe45 1.997 . S
O53 C51 1.235 . S
C54 O60 1.287 . S
C54 O61 1.255 . S
O55 Fe44 1.976 . S
O55 C62 1.287 . S
O56 Fe45 1.996 . S
O56 C62 1.255 . S
O57 Fe47 1.976 1_556 S
O57 C52 1.287 . S
O58 Fe44 1.996 . S
O58 C52 1.255 1_554 S
C59 O63 1.295 . S
C59 O64 1.235 . S
O60 Fe45 1.976 . S
O60 C54 1.287 . S
O61 Fe47 1.996 . S
O61 C54 1.255 . S
C62 O55 1.287 . S
C62 O56 1.255 . S
O63 Fe45 2.002 . S
O63 C59 1.295 . S
O64 Fe47 1.997 . S
O64 C59 1.235 . S
C65 O48 1.295 . S
C65 O49 1.235 . S
Fe66 O68 1.918 . S
Fe66 O71 1.997 . S
Fe66 O72 2.002 . S
Fe66 O77 1.976 . S
Fe66 O80 1.996 . S
Fe67 O68 1.918 . S
Fe67 O75 1.997 . S
Fe67 O78 1.996 . S
Fe67 O82 1.976 . S
Fe67 O85 2.002 . S
O68 Fe66 1.918 . S
O68 Fe67 1.918 . S
O68 Fe69 1.918 . S
Fe69 O68 1.918 . S
Fe69 O70 2.002 . S
Fe69 O79 1.976 . S
Fe69 O83 1.996 . S
Fe69 O86 1.997 . S
O70 Fe69 2.002 . S
O70 C87 1.295 . S
O71 Fe66 1.997 . S
O71 C87 1.235 . S
O72 Fe66 2.002 . S
O72 C73 1.295 . S
C73 O72 1.295 . S
C73 O75 1.235 . S
C74 O79 1.287 . S
C74 O80 1.255 . S
O75 Fe67 1.997 . S
O75 C73 1.235 . S
C76 O82 1.287 . S
C76 O83 1.255 . S
O77 Fe66 1.976 . S
O77 C84 1.287 . S
O78 Fe67 1.996 . S
O78 C84 1.255 . S
O79 Fe69 1.976 . S
O79 C74 1.287 . S
O80 Fe66 1.996 . S
O80 C74 1.255 . S
C81 O85 1.295 . S
C81 O86 1.235 . S
O82 Fe67 1.976 . S
O82 C76 1.287 . S
O83 Fe69 1.996 . S
O83 C76 1.255 . S
C84 O77 1.287 . S
C84 O78 1.255 . S
O85 Fe67 2.002 . S
O85 C81 1.295 . S
O86 Fe69 1.997 . S
O86 C81 1.235 . S
C87 O70 1.295 . S
C87 O71 1.235 . S
Fe88 O90 1.918 . S
Fe88 O93 1.997 . S
Fe88 O94 2.002 . S
Fe88 O99 1.976 . S
Fe88 O102 1.996 . S
Fe89 O90 1.918 . S
Fe89 O97 1.997 . S
Fe89 O100 1.996 . S
Fe89 O104 1.976 . S
Fe89 O107 2.002 . S
O90 Fe88 1.918 . S
O90 Fe89 1.918 . S
O90 Fe91 1.918 . S
Fe91 O90 1.918 . S
Fe91 O92 2.002 . S
Fe91 O101 1.976 . S
Fe91 O105 1.996 . S
Fe91 O108 1.997 . S
O92 Fe91 2.002 . S
O92 C109 1.295 . S
O93 Fe88 1.997 . S
O93 C109 1.235 . S
O94 Fe88 2.002 . S
O94 C95 1.295 . S
C95 O94 1.295 . S
C95 O97 1.235 . S
C96 O101 1.287 . S
C96 O102 1.255 . S
O97 Fe89 1.997 . S
O97 C95 1.235 . S
C98 O104 1.287 . S
C98 O105 1.255 . S
O99 Fe88 1.976 . S
O99 C106 1.287 . S
O100 Fe89 1.996 . S
O100 C106 1.255 . S
O101 Fe91 1.976 . S
O101 C96 1.287 . S
O102 Fe88 1.996 . S
O102 C96 1.255 . S
C103 O107 1.295 . S
C103 O108 1.235 . S
O104 Fe89 1.976 . S
O104 C98 1.287 . S
O105 Fe91 1.996 . S
O105 C98 1.255 . S
C106 O99 1.287 . S
C106 O100 1.255 . S
O107 Fe89 2.002 . S
O107 C103 1.295 . S
O108 Fe91 1.997 . S
O108 C103 1.235 . S
C109 O92 1.295 . S
C109 O93 1.235 . S
Fe110 O112 1.918 . S
Fe110 O115 1.997 . S
Fe110 O116 2.002 . S
Fe110 O121 1.976 . S
Fe110 O124 1.996 . S
Fe111 O112 1.918 . S
Fe111 O119 1.997 . S
Fe111 O122 1.996 . S
Fe111 O126 1.976 . S
Fe111 O129 2.002 . S
O112 Fe110 1.918 . S
O112 Fe111 1.918 . S
O112 Fe113 1.918 . S
Fe113 O112 1.918 . S
Fe113 O114 2.002 . S
Fe113 O123 1.976 . S
Fe113 O127 1.996 1_554 S
Fe113 O130 1.997 . S
O114 Fe113 2.002 . S
O114 C131 1.295 . S
O115 Fe110 1.997 . S
O115 C131 1.235 . S
O116 Fe110 2.002 . S
O116 C117 1.295 . S
C117 O116 1.295 . S
C117 O119 1.235 . S
C118 O123 1.287 . S
C118 O124 1.255 . S
O119 Fe111 1.997 . S
O119 C117 1.235 . S
C120 O126 1.287 1_556 S
C120 O127 1.255 . S
O121 Fe110 1.976 . S
O121 C128 1.287 . S
O122 Fe111 1.996 . S
O122 C128 1.255 . S
O123 Fe113 1.976 . S
O123 C118 1.287 . S
O124 Fe110 1.996 . S
O124 C118 1.255 . S
C125 O129 1.295 . S
C125 O130 1.235 . S
O126 Fe111 1.976 . S
O126 C120 1.287 1_554 S
O127 Fe113 1.996 1_556 S
O127 C120 1.255 . S
C128 O121 1.287 . S
C128 O122 1.255 . S
O129 Fe111 2.002 . S
O129 C125 1.295 . S
O130 Fe113 1.997 . S
O130 C125 1.235 . S
C131 O114 1.295 . S
C131 O115 1.235 . S
Fe132 O134 1.918 . S
Fe132 O137 1.997 . S
Fe132 O138 2.002 . S
Fe132 O143 1.976 . S
Fe132 O146 1.996 . S
Fe133 O134 1.918 . S
Fe133 O141 1.997 . S
Fe133 O144 1.996 . S
Fe133 O148 1.976 . S
Fe133 O151 2.002 . S
O134 Fe132 1.918 . S
O134 Fe133 1.918 . S
O134 Fe135 1.918 . S
Fe135 O134 1.918 . S
Fe135 O136 2.002 . S
Fe135 O145 1.976 . S
Fe135 O149 1.996 1_556 S
Fe135 O152 1.997 . S
O136 Fe135 2.002 . S
O136 C153 1.295 . S
O137 Fe132 1.997 . S
O137 C153 1.235 . S
O138 Fe132 2.002 . S
O138 C139 1.295 . S
C139 O138 1.295 . S
C139 O141 1.235 . S
C140 O145 1.287 . S
C140 O146 1.255 . S
O141 Fe133 1.997 . S
O141 C139 1.235 . S
C142 O148 1.287 1_554 S
C142 O149 1.255 . S
O143 Fe132 1.976 . S
O143 C150 1.287 . S
O144 Fe133 1.996 . S
O144 C150 1.255 . S
O145 Fe135 1.976 . S
O145 C140 1.287 . S
O146 Fe132 1.996 . S
O146 C140 1.255 . S
C147 O151 1.295 . S
C147 O152 1.235 . S
O148 Fe133 1.976 . S
O148 C142 1.287 1_556 S
O149 Fe135 1.996 1_554 S
O149 C142 1.255 . S
C150 O143 1.287 . S
C150 O144 1.255 . S
O151 Fe133 2.002 . S
O151 C147 1.295 . S
O152 Fe135 1.997 . S
O152 C147 1.235 . S
C153 O136 1.295 . S
C153 O137 1.235 . S
Fe154 O156 1.918 . S
Fe154 O159 1.997 . S
Fe154 O160 2.002 . S
Fe154 O165 1.976 . S
Fe154 O168 1.996 . S
Fe155 O156 1.918 . S
Fe155 O163 1.997 . S
Fe155 O166 1.996 . S
Fe155 O170 1.976 . S
Fe155 O173 2.002 . S
O156 Fe154 1.918 . S
O156 Fe155 1.918 . S
O156 Fe157 1.918 . S
Fe157 O156 1.918 . S
Fe157 O158 2.002 . S
Fe157 O167 1.976 . S
Fe157 O171 1.996 . S
Fe157 O174 1.997 . S
O158 Fe157 2.002 . S
O158 C175 1.295 . S
O159 Fe154 1.997 . S
O159 C175 1.235 . S
O160 Fe154 2.002 . S
O160 C161 1.295 . S
C161 O160 1.295 . S
C161 O163 1.235 . S
C162 O167 1.287 . S
C162 O168 1.255 . S
O163 Fe155 1.997 . S
O163 C161 1.235 . S
C164 O170 1.287 . S
C164 O171 1.255 . S
O165 Fe154 1.976 . S
O165 C172 1.287 . S
O166 Fe155 1.996 . S
O166 C172 1.255 . S
O167 Fe157 1.976 . S
O167 C162 1.287 . S
O168 Fe154 1.996 . S
O168 C162 1.255 . S
C169 O173 1.295 . S
C169 O174 1.235 . S
O170 Fe155 1.976 . S
O170 C164 1.287 . S
O171 Fe157 1.996 . S
O171 C164 1.255 . S
C172 O165 1.287 . S
C172 O166 1.255 . S
O173 Fe155 2.002 . S
O173 C169 1.295 . S
O174 Fe157 1.997 . S
O174 C169 1.235 . S
C175 O158 1.295 . S
C175 O159 1.235 . S
C176 C177 1.169 1_545 S
C176 C178 1.381 . S
C177 C176 1.169 1_565 S
C178 C176 1.381 . S
C178 C179 1.170 . S
C179 C178 1.170 . S
C180 C181 1.170 . S
C180 C182 1.377 1_644 S
C181 C180 1.170 . S
C182 C180 1.377 1_466 S
C182 C183 1.175 . S
C183 C182 1.175 . S
C184 C185 1.170 . S
C184 C186 1.380 1_456 S
C185 C184 1.170 . S
C186 C184 1.380 1_654 S
C186 C187 1.170 . S
C187 C186 1.170 . S
C188 C189 1.170 . S
C188 C190 1.380 . S
C189 C188 1.170 . S
C190 C188 1.380 . S
C190 C191 1.170 . S
C191 C190 1.170 . S
C192 C193 1.170 1_565 S
C192 C194 1.380 . S
C193 C192 1.170 1_545 S
C194 C192 1.380 . S
C194 C195 1.170 . S
C195 C194 1.170 . S
C196 C197 1.170 1_545 S
C196 C198 1.380 . S
C197 C196 1.170 1_565 S
C198 C196 1.380 . S
C198 C199 1.170 . S
C199 C198 1.170 . S
C200 C201 1.170 . S
C200 C202 1.380 . S
C201 C200 1.170 . S
C202 C200 1.380 . S
C202 C203 1.170 . S
C203 C202 1.170 . S
C204 C205 1.170 . S
C204 C206 1.380 . S
C205 C204 1.170 . S
C206 C204 1.380 . S
C206 C207 1.170 . S
C207 C206 1.170 . S
C208 C209 1.170 . S
C208 C210 1.380 . S
C209 C208 1.170 . S
C210 C208 1.380 . S
C210 C211 1.170 1_545 S
C211 C210 1.170 1_565 S
C212 C213 1.170 . S
C212 C214 1.380 . S
C213 C212 1.170 . S
C214 C212 1.380 . S
C214 C215 1.170 1_565 S
C215 C214 1.170 1_545 S
C216 C217 1.170 . S
C216 C218 1.380 . S
C217 C216 1.170 . S
C218 C216 1.380 . S
C218 C219 1.170 . S
C219 C218 1.170 . S
C220 C221 1.170 . S
C220 C222 1.380 . S
C221 C220 1.170 . S
C222 C220 1.380 . S
C222 C223 1.170 . S
C223 C222 1.170 . S
C224 C225 1.170 . S
C224 C226 1.380 . S
C225 C224 1.170 . S
C226 C224 1.380 . S
C226 C227 1.170 . S
C227 C226 1.170 . S
C228 C229 1.170 . S
C228 C230 1.380 . S
C229 C228 1.170 . S
C230 C228 1.380 . S
C230 C231 1.170 1_655 S
C231 C230 1.170 1_455 S
C232 C233 1.170 . S
C232 C234 1.380 . S
C233 C232 1.170 . S
C234 C232 1.380 . S
C234 C235 1.170 1_455 S
C235 C234 1.170 1_655 S
C236 C237 1.170 . S
C236 C238 1.380 . S
C237 C236 1.170 . S
C238 C236 1.380 . S
C238 C239 1.170 . S
C239 C238 1.170 . S
C240 C241 1.170 . S
C240 C242 1.380 . S
C241 C240 1.170 . S
C242 C240 1.380 . S
C242 C243 1.170 . S
C243 C242 1.170 . S
C244 C245 1.170 . S
C244 C246 1.380 . S
C245 C244 1.170 . S
C246 C244 1.380 . S
C246 C247 1.170 1_455 S
C247 C246 1.170 1_655 S
C248 C249 1.170 1_655 S
C248 C250 1.380 . S
C249 C248 1.170 1_455 S
C250 C248 1.380 . S
C250 C251 1.170 . S
C251 C250 1.170 . S
C252 C253 1.170 . S
C252 C254 1.380 . S
C253 C252 1.170 . S
C254 C252 1.380 . S
C254 C255 1.170 . S
C255 C254 1.170 . S
C256 C257 1.170 . S
C256 C258 1.380 . S
C257 C256 1.170 . S
C258 C256 1.380 . S
C258 C259 1.170 . S
C259 C258 1.170 . S
C260 C261 1.170 . S
C260 C262 1.380 . S
C261 C260 1.170 . S
C262 C260 1.380 . S
C262 C263 1.170 . S
C263 C262 1.170 . S
C264 C265 1.170 . S
C264 C266 1.380 . S
C265 C264 1.170 . S
C266 C264 1.380 . S
C266 C267 1.170 . S
C267 C266 1.170 . S
C268 C269 1.170 . S
C268 C270 1.380 . S
C269 C268 1.170 . S
C270 C268 1.380 . S
C270 C271 1.170 . S
C271 C270 1.170 . S
C177 C95 1.253 . S
C179 C21 1.190 . S
C181 C125 1.196 . S
C183 C43 1.224 . S
C185 C147 1.254 . S
C187 C65 1.189 . S
C189 C81 1.201 . S
C191 C161 1.213 . S
C193 C7 1.621 . S
C195 C30 1.586 . S
C197 C29 1.622 . S
C199 C8 1.592 . S
C201 C76 1.594 . S
C203 C51 1.624 . S
C205 C52 1.594 . S
C207 C87 1.623 . S
C209 C120 1.607 . S
C211 C109 1.659 . S
C213 C106 1.588 . S
C215 C117 1.635 . S
C217 C139 1.632 . S
C219 C172 1.568 . S
C221 C142 1.569 . S
C223 C175 1.642 . S
C225 C15 1.492 . S
C227 C128 1.486 . S
C229 C96 1.480 . S
C231 C37 1.472 . S
C233 C162 1.465 . S
C235 C59 1.486 . S
C237 C150 1.466 . S
C239 C73 1.487 . S
C241 C103 1.472 . S
C243 C40 1.480 . S
C245 C18 1.454 . S
C247 C131 1.493 . S
C249 C153 1.472 . S
C251 C74 1.483 . S
C253 C169 1.481 . S
C255 C62 1.479 . S
C257 C10 1.448 . S
C259 C164 1.441 . S
C261 C32 1.457 . S
C263 C140 1.446 . S
C265 C118 1.444 . S
C267 C54 1.455 . S
C269 C98 1.443 . S
C271 C84 1.453 . S
