# Generated by pormake.
# Topology kag, (6)-cn, num edge types: 1
# Building blocks:
#     Node 0, Type 0, BuildingBlock: CUKXOW_clean_sbu_0, # of connection points: 6
#     Node 1, Type 0, BuildingBlock: CUKXOW_clean_sbu_0, # of connection points: 6
#     Node 2, Type 0, BuildingBlock: CUKXOW_clean_sbu_0, # of connection points: 6
#     Edge 3, Type (0, 0), BuildingBlock: MIFKUJ_clean_linker_0, # of connection points: 2
#     Edge 4, Type (0, 0), BuildingBlock: MIFKUJ_clean_linker_0, # of connection points: 2
#     Edge 5, Type (0, 0), BuildingBlock: MIFKUJ_clean_linker_0, # of connection points: 2
#     Edge 6, Type (0, 0), BuildingBlock: MIFKUJ_clean_linker_0, # of connection points: 2
#     Edge 7, Type (0, 0), BuildingBlock: MIFKUJ_clean_linker_0, # of connection points: 2
#     Edge 8, Type (0, 0), BuildingBlock: MIFKUJ_clean_linker_0, # of connection points: 2
#     Edge 9, Type (0, 0), BuildingBlock: MIFKUJ_clean_linker_0, # of connection points: 2
#     Edge 10, Type (0, 0), BuildingBlock: MIFKUJ_clean_linker_0, # of connection points: 2
#     Edge 11, Type (0, 0), BuildingBlock: MIFKUJ_clean_linker_0, # of connection points: 2
# Relax obj value: 0.017
# Max RMSD: 0.096
# Mean RMSD: 0.064
data_MOF--net-kag--node1-CUKXOW_clean_sbu_0--edge1-MIFKUJ_clean_linker_0
_symmetry_space_group_name_H-M    P1
_symmetry_Int_Tables_number       1
_symmetry_cell_setting            triclinic
loop_
_symmetry_equiv_pos_as_xyz
'x, y, z'
_cell_length_a     37.51838
_cell_length_b     45.091791
_cell_length_c     19.79396
_cell_angle_alpha  89.362455
_cell_angle_beta   102.61808
_cell_angle_gamma 121.19449
loop_
_atom_site_label
_atom_site_type_symbol
_atom_site_fract_x
_atom_site_fract_y
_atom_site_fract_z
_atom_type_partial_charge
Tb0 Tb 0.0662 0.54338 0.01784 0.0
C1 C 0.04392 0.50411 0.14606 0.0
Tb2 Tb 0.99986 0.466 0.9908 0.0
O3 O 1.02373 0.55477 0.05613 0.0
O4 O 0.99778 0.51196 0.98138 0.0
O5 O 0.07547 0.53039 0.12387 0.0
C6 C 0.93524 0.4005 0.99023 0.0
O7 O 1.00902 0.47856 0.10211 0.0
C8 C 0.07748 0.48351 0.985 0.0
C9 C 1.01954 0.50565 0.86045 0.0
O10 O 0.97585 0.41223 0.01346 0.0
O11 O 0.93075 0.42568 0.96656 0.0
O12 O 0.0424 0.45673 0.94783 0.0
O13 O 0.06823 0.49748 0.02767 0.0
O14 O 0.99208 0.4765 0.88273 0.0
O15 O 0.05088 0.53384 0.90377 0.0
C16 C 0.13663 0.60649 0.0223 0.0
O17 O 0.13033 0.57703 -0.00148 0.0
O18 O 0.10343 0.60035 0.04378 0.0
C19 C 0.98863 0.52699 0.02193 0.0
Tb20 Tb 0.51658 0.02745 0.98126 0.0
C21 C 0.54284 0.00629 0.12757 0.0
Tb22 Tb 0.55088 0.97566 0.9918 0.0
O23 O 0.45624 0.98656 0.0033 0.0
O24 O 0.49185 0.97356 0.95641 0.0
O25 O 0.53783 0.02996 0.09348 0.0
C26 C 0.55048 0.91674 0.99483 0.0
O27 O 0.54439 0.98098 0.09707 0.0
C28 C 0.61323 0.04249 0.01229 0.0
C29 C 0.53174 0.00156 0.8477 0.0
O30 O 0.52817 0.924 0.02549 0.0
O31 O 0.5733 0.94277 0.96289 0.0
O32 O 0.62075 0.01729 0.01591 0.0
O33 O 0.57346 0.02818 0.00086 0.0
O34 O 0.53344 0.97604 0.87965 0.0
O35 O 0.52976 0.02636 0.87947 0.0
C36 C 0.51104 0.08363 0.96998 0.0
O37 O 0.4848 0.05396 0.93041 0.0
O38 O 0.53975 0.08137 0.01597 0.0
C39 C 0.46021 0.96126 0.98319 0.0
Tb40 Tb 0.54915 0.54025 0.00687 0.0
C41 C 0.52067 0.49889 0.85709 0.0
Tb42 Tb 0.51287 0.45922 0.99116 0.0
O43 O 0.61355 0.55127 0.0579 0.0
O44 O 0.57035 0.5065 0.98724 0.0
O45 O 0.52823 0.52709 0.89348 0.0
C46 C 0.50966 0.39931 0.98255 0.0
O47 O 0.51822 0.47134 0.88594 0.0
C48 C 0.45176 0.47268 0.98849 0.0
C49 C 0.5383 0.50033 0.14009 0.0
O50 O 0.48308 0.40606 0.9422 0.0
O51 O 0.53797 0.42624 0.02829 0.0
O52 O 0.44431 0.44119 0.98139 0.0
O53 O 0.49137 0.49294 0.99591 0.0
O54 O 0.53099 0.47206 0.10438 0.0
O55 O 0.54249 0.52838 0.11142 0.0
C56 C 0.55326 0.60077 0.00635 0.0
O57 O 0.52528 0.57305 0.02809 0.0
O58 O 0.57941 0.59463 0.98463 0.0
C59 C 0.60647 0.52193 0.0307 0.0
H60 H 0.97121 0.45078 0.75577 0.0
H61 H 0.97479 0.45117 0.63382 0.0
H62 H 0.06676 0.5622 0.67156 0.0
H63 H 0.0633 0.56216 0.79336 0.0
H64 H 1.00806 0.54292 0.54385 0.0
H65 H 0.102 0.50885 0.67382 0.0
H66 H 0.12063 0.47387 0.75371 0.0
H67 H 1.0291 0.38095 0.61112 0.0
H68 H 1.00932 0.4153 0.53093 0.0
H69 H 0.09504 0.55884 0.25044 0.0
H70 H 0.09173 0.55937 0.37275 0.0
H71 H 0.99382 0.44963 0.33453 0.0
H72 H 0.99666 0.44888 0.21243 0.0
H73 H 0.05628 0.4689 0.46259 0.0
H74 H 0.96562 0.50525 0.32927 0.0
H75 H 0.94975 0.54175 0.25007 0.0
H76 H 0.03744 0.63233 0.40035 0.0
H77 H 0.05497 0.59656 0.4796 0.0
C78 C 0.99168 0.4754 0.73798 0.0
C79 C 1.01719 0.50639 0.78465 0.0
C80 C 0.99383 0.47554 0.66827 0.0
C81 C 1.02149 0.50665 0.64383 0.0
C82 C 0.04529 0.5379 0.6893 0.0
C83 C 0.04334 0.53776 0.75907 0.0
C84 C 1.0276 0.50627 0.5722 0.0
C85 C 1.01905 0.52705 0.52628 0.0
C86 C 0.04154 0.48527 0.54912 0.0
C87 C 0.05385 0.4646 0.59668 0.0
C88 C 0.0856 0.48092 0.65972 0.0
C89 C 0.0964 0.46121 0.70505 0.0
C90 C 0.07599 0.4252 0.68757 0.0
C91 C 0.04483 0.40884 0.62463 0.0
C92 C 0.03382 0.42842 0.57921 0.0
C93 C 0.0733 0.53471 0.26833 0.0
C94 C 0.04593 0.50388 0.22163 0.0
C95 C 0.07134 0.53509 0.33813 0.0
C96 C 0.04226 0.50459 0.36247 0.0
C97 C 1.01646 0.47343 0.31679 0.0
C98 C 1.01801 0.47312 0.24694 0.0
C99 C 0.0367 0.50551 0.43423 0.0
C100 C 0.04533 0.4848 0.48016 0.0
C101 C 1.0231 0.52676 0.45736 0.0
C102 C 1.01196 0.54822 0.41019 0.0
C103 C 0.98185 0.533 0.34525 0.0
C104 C 0.97255 0.55356 0.3003 0.0
C105 C 0.99255 0.58932 0.32018 0.0
C106 C 1.02197 0.60461 0.38501 0.0
C107 C 0.03168 0.5842 0.42992 0.0
H108 H 0.98522 0.60518 0.28538 0.0
H109 H 0.08438 0.40999 0.72274 0.0
H110 H 0.55272 0.05838 0.21399 0.0
H111 H 0.55281 0.05864 0.33741 0.0
H112 H 0.53851 0.95736 0.33563 0.0
H113 H 0.53814 0.95667 0.21212 0.0
H114 H 0.48124 0.96082 0.39598 0.0
H115 H 0.633 0.02788 0.41179 0.0
H116 H 0.69974 0.07541 0.38645 0.0
H117 H 0.68167 0.15153 0.47573 0.0
H118 H 0.61442 0.10443 0.50064 0.0
H119 H 0.52493 0.95175 0.7592 0.0
H120 H 0.52773 0.95408 0.63714 0.0
H121 H 0.54301 0.05569 0.64545 0.0
H122 H 0.54054 0.0538 0.7679 0.0
H123 H 0.59963 0.05311 0.58176 0.0
H124 H 0.44856 0.98716 0.56575 0.0
H125 H 0.38121 0.9403 0.59052 0.0
H126 H 0.39713 0.86296 0.50076 0.0
H127 H 0.46497 0.90938 0.47636 0.0
C128 C 0.54983 0.03621 0.23984 0.0
C129 C 0.54541 0.00749 0.20314 0.0
C130 C 0.55006 0.0365 0.31045 0.0
C131 C 0.54588 0.0081 0.34555 0.0
C132 C 0.54179 0.97952 0.30932 0.0
C133 C 0.5418 0.97928 0.23883 0.0
C134 C 0.54431 0.00765 0.41955 0.0
C135 C 0.50737 0.9807 0.4368 0.0
C136 C 0.57792 0.03423 0.4722 0.0
C137 C 0.61841 0.06261 0.45742 0.0
C138 C 0.64304 0.05475 0.42544 0.0
C139 C 0.681 0.08161 0.41126 0.0
C140 C 0.69486 0.11646 0.4293 0.0
C141 C 0.67084 0.12452 0.46168 0.0
C142 C 0.63282 0.09775 0.47589 0.0
C143 C 0.5288 0.9746 0.73519 0.0
C144 C 0.53234 0.00254 0.77329 0.0
C145 C 0.53027 0.97582 0.66534 0.0
C146 C 0.53525 0.00494 0.63228 0.0
C147 C 0.5391 0.03298 0.67015 0.0
C148 C 0.53744 0.03173 0.73998 0.0
C149 C 0.53669 0.00612 0.5582 0.0
C150 C 0.57353 0.03323 0.54091 0.0
C151 C 0.50291 0.97977 0.50538 0.0
C152 C 0.46209 0.95176 0.51988 0.0
C153 C 0.43791 0.96016 0.55185 0.0
C154 C 0.3996 0.93368 0.56571 0.0
C155 C 0.38496 0.89867 0.5474 0.0
C156 C 0.40855 0.89008 0.51501 0.0
C157 C 0.44692 0.91647 0.5011 0.0
H158 H 0.35528 0.87821 0.55815 0.0
H159 H 0.7243 0.13722 0.41842 0.0
H160 H 0.54849 0.5552 0.7835 0.0
H161 H 0.55142 0.55558 0.66133 0.0
H162 H 0.49074 0.44346 0.63825 0.0
H163 H 0.48877 0.44296 0.76061 0.0
H164 H 0.55791 0.47215 0.585 0.0
H165 H 0.43643 0.48476 0.56796 0.0
H166 H 0.39837 0.51189 0.59792 0.0
H167 H 0.48865 0.60879 0.5359 0.0
H168 H 0.52759 0.58237 0.50641 0.0
H169 H 0.51031 0.44422 0.21434 0.0
H170 H 0.50788 0.44422 0.33676 0.0
H171 H 0.5682 0.5563 0.35845 0.0
H172 H 0.56974 0.55644 0.23598 0.0
H173 H 0.50168 0.52799 0.41269 0.0
H174 H 0.62295 0.51564 0.42912 0.0
H175 H 0.66174 0.48901 0.40005 0.0
H176 H 0.57266 0.39216 0.46384 0.0
H177 H 0.53298 0.41807 0.49242 0.0
C178 C 0.53525 0.53058 0.75215 0.0
C179 C 0.51844 0.49905 0.78171 0.0
C180 C 0.5369 0.53083 0.68229 0.0
C181 C 0.52104 0.4995 0.64052 0.0
C182 C 0.50331 0.46794 0.66958 0.0
C183 C 0.50209 0.46771 0.73949 0.0
C184 C 0.52441 0.49961 0.56729 0.0
C185 C 0.54506 0.48392 0.547 0.0
C186 C 0.50873 0.51583 0.51833 0.0
C187 C 0.48514 0.53167 0.53558 0.0
C188 C 0.44833 0.51192 0.56116 0.0
C189 C 0.42657 0.52716 0.57798 0.0
C190 C 0.44114 0.56207 0.56898 0.0
C191 C 0.47742 0.58177 0.54292 0.0
C192 C 0.49932 0.56667 0.52608 0.0
C193 C 0.5235 0.4689 0.24539 0.0
C194 C 0.54011 0.50031 0.2154 0.0
C195 C 0.52218 0.46887 0.31541 0.0
C196 C 0.53813 0.50031 0.3569 0.0
C197 C 0.55557 0.53174 0.32736 0.0
C198 C 0.55649 0.53175 0.25733 0.0
C199 C 0.53506 0.50042 0.43028 0.0
C200 C 0.5145 0.51619 0.45063 0.0
C201 C 0.55087 0.48431 0.47932 0.0
C202 C 0.57475 0.46871 0.46226 0.0
C203 C 0.61144 0.48858 0.43643 0.0
C204 C 0.63362 0.47363 0.42014 0.0
C205 C 0.61961 0.43889 0.42992 0.0
C206 C 0.58345 0.41905 0.4562 0.0
C207 C 0.56112 0.43387 0.47251 0.0
H208 H 0.63683 0.42736 0.41728 0.0
H209 H 0.42426 0.57382 0.58207 0.0
H210 H 0.09806 0.4539 0.89456 0.0
H211 H 0.16758 0.46071 0.90057 0.0
H212 H 0.22508 0.53672 0.08255 0.0
H213 H 0.15488 0.52993 0.07681 0.0
H214 H 0.27833 0.55268 0.98223 0.0
H215 H 0.20102 0.46044 0.11355 0.0
H216 H 0.13759 0.4069 0.13337 0.0
H217 H 0.13611 0.34977 0.95956 0.0
H218 H 0.19914 0.40312 0.93802 0.0
H219 H 0.45882 0.527 0.06415 0.0
H220 H 0.40119 0.53767 0.06682 0.0
H221 H 0.31246 0.44765 0.91346 0.0
H222 H 0.36977 0.437 0.91155 0.0
H223 H 0.27904 0.44381 0.01605 0.0
H224 H 0.35432 0.53555 0.88085 0.0
H225 H 0.41449 0.58938 0.85435 0.0
H226 H 0.41891 0.64787 0.02899 0.0
H227 H 0.35939 0.59422 0.05761 0.0
C228 C 0.12552 0.47232 0.9356 0.0
C229 C 0.12094 0.49102 0.98586 0.0
C230 C 0.16528 0.47623 0.93886 0.0
C231 C 0.20139 0.49887 0.99252 0.0
C232 C 0.19757 0.51905 0.04081 0.0
C233 C 0.15751 0.51507 0.03764 0.0
C234 C 0.2418 0.49899 0.00029 0.0
C235 C 0.27896 0.52914 0.99087 0.0
C236 C 0.24226 0.4681 0.01059 0.0
C237 C 0.20463 0.43585 0.0239 0.0
C238 C 0.18699 0.43652 0.07926 0.0
C239 C 0.15113 0.40619 0.09084 0.0
C240 C 0.13279 0.37497 0.04768 0.0
C241 C 0.15033 0.37398 0.99293 0.0
C242 C 0.18616 0.40425 0.98107 0.0
C243 C 0.42736 0.5103 0.02945 0.0
C244 C 0.41888 0.48163 0.98655 0.0
C245 C 0.39431 0.51622 0.03134 0.0
C246 C 0.35234 0.49362 0.98996 0.0
C247 C 0.3444 0.46545 0.94605 0.0
C248 C 0.37718 0.45939 0.94481 0.0
C249 C 0.31565 0.49721 0.9954 0.0
C250 C 0.27899 0.46763 0.00796 0.0
C251 C 0.31586 0.52865 0.98767 0.0
C252 C 0.35272 0.56069 0.97196 0.0
C253 C 0.36853 0.55976 0.9143 0.0
C254 C 0.40245 0.59027 0.89876 0.0
C255 C 0.4205 0.622 0.93996 0.0
C256 C 0.40491 0.62325 -0.00285 0.0
C257 C 0.37114 0.59278 0.01313 0.0
H258 H 0.44648 0.64564 0.92739 0.0
H259 H 0.10502 0.35152 0.05672 0.0
H260 H 0.70002 0.07732 0.0653 0.0
H261 H 0.75257 0.13932 0.06378 0.0
H262 H 0.64992 0.15373 0.95906 0.0
H263 H 0.59786 0.09159 0.95796 0.0
H264 H 0.71487 0.18501 0.89931 0.0
H265 H 0.6999 0.18319 0.13327 0.0
H266 H 0.69866 0.16305 0.24958 0.0
H267 H 0.83097 0.19368 0.28545 0.0
H268 H 0.83285 0.21351 0.16891 0.0
H269 H 0.84829 0.37188 0.94384 0.0
H270 H 0.79093 0.31182 0.94946 0.0
H271 H 0.8864 0.28817 0.04772 0.0
H272 H 0.94351 0.34796 0.04273 0.0
H273 H 0.82194 0.26284 0.11269 0.0
H274 H 0.83493 0.26132 0.8757 0.0
H275 H 0.83567 0.28087 0.75888 0.0
H276 H 0.70604 0.25651 0.72935 0.0
H277 H 0.70474 0.23723 0.84645 0.0
C278 C 0.68878 0.09386 0.04243 0.0
C279 C 0.64479 0.07999 0.01356 0.0
C280 C 0.71873 0.12927 0.04186 0.0
C281 C 0.70515 0.15141 0.01246 0.0
C282 C 0.66117 0.13734 0.98274 0.0
C283 C 0.63132 0.10195 0.98317 0.0
C284 C 0.7369 0.18895 0.01078 0.0
C285 C 0.73781 0.20216 0.94617 0.0
C286 C 0.76734 0.21125 0.0717 0.0
C287 C 0.7664 0.19956 0.14206 0.0
C288 C 0.72865 0.1854 0.16574 0.0
C289 C 0.72784 0.17407 0.23174 0.0
C290 C 0.76468 0.17702 0.27479 0.0
C291 C 0.80244 0.19138 0.252 0.0
C292 C 0.80341 0.2027 0.18601 0.0
C293 C 0.8569 0.35377 0.96649 0.0
C294 C 0.90027 0.36446 0.99258 0.0
C295 C 0.82418 0.3195 0.96958 0.0
C296 C 0.83438 0.29539 -0.00139 0.0
C297 C 0.87774 0.30627 0.02522 0.0
C298 C 0.91034 0.34041 0.02205 0.0
C299 C 0.80014 0.25874 0.00117 0.0
C300 C 0.79876 0.24572 0.06596 0.0
C301 C 0.76918 0.23664 0.94048 0.0
C302 C 0.76992 0.24822 0.87012 0.0
C303 C 0.80672 0.26041 0.84453 0.0
C304 C 0.80721 0.27139 0.77822 0.0
C305 C 0.77097 0.27003 0.7368 0.0
C306 C 0.73411 0.25761 0.76154 0.0
C307 C 0.73347 0.24664 0.82785 0.0
H308 H 0.77141 0.27852 0.68547 0.0
H309 H 0.76402 0.16824 0.32585 0.0
H310 H 0.59806 0.90004 0.93704 0.0
H311 H 0.59699 0.84534 0.93856 0.0
H312 H 0.49942 0.80455 0.05437 0.0
H313 H 0.50078 0.85949 0.05369 0.0
H314 H 0.56312 0.79282 0.10948 0.0
H315 H 0.47204 0.77608 0.88497 0.0
H316 H 0.45131 0.79123 0.76898 0.0
H317 H 0.55676 0.79395 0.7113 0.0
H318 H 0.57852 0.77931 0.8274 0.0
H319 H 0.504 0.61616 0.06146 0.0
H320 H 0.50434 0.67044 0.06098 0.0
H321 H 0.60411 0.71357 0.94961 0.0
H322 H 0.60423 0.65915 0.95059 0.0
H323 H 0.53775 0.72337 0.89218 0.0
H324 H 0.62852 0.74031 0.12028 0.0
H325 H 0.64686 0.72404 0.23631 0.0
H326 H 0.53847 0.71928 0.28664 0.0
H327 H 0.51914 0.73509 0.1705 0.0
C328 C 0.57638 0.87937 0.96271 0.0
C329 C 0.54958 0.88383 0.99538 0.0
C330 C 0.57566 0.84814 0.96329 0.0
C331 C 0.54786 0.82087 0.99605 0.0
C332 C 0.5211 0.82535 0.02888 0.0
C333 C 0.52187 0.85663 0.02839 0.0
C334 C 0.54748 0.78797 -0.00283 0.0
C335 C 0.55699 0.77735 0.06197 0.0
C336 C 0.54021 0.76824 0.93513 0.0
C337 C 0.52715 0.77693 0.86514 0.0
C338 C 0.49103 0.78019 0.84777 0.0
C339 C 0.47905 0.78863 0.78196 0.0
C340 C 0.50276 0.79364 0.73286 0.0
C341 C 0.53845 0.79011 0.74942 0.0
C342 C 0.5506 0.78171 0.8152 0.0
C343 C 0.52621 0.6373 0.03724 0.0
C344 C 0.55426 0.63371 0.00628 0.0
C345 C 0.52641 0.66826 0.03716 0.0
C346 C 0.55441 0.69599 0.00564 0.0
C347 C 0.5823 0.69238 0.97421 0.0
C348 C 0.58243 0.66146 0.97494 0.0
C349 C 0.55385 0.72847 0.00447 0.0
C350 C 0.54398 0.73891 0.93964 0.0
C351 C 0.56047 0.74789 0.06647 0.0
C352 C 0.57221 0.73861 0.1365 0.0
C353 C 0.60843 0.73556 0.15591 0.0
C354 C 0.61902 0.72646 0.22172 0.0
C355 C 0.59379 0.72056 0.26876 0.0
C356 C 0.55796 0.72384 0.25014 0.0
C357 C 0.54721 0.73291 0.18436 0.0
H358 H 0.60205 0.71351 0.31969 0.0
H359 H 0.49344 0.80017 0.68193 0.0
H360 H 0.96819 0.55763 0.11082 0.0
H361 H 0.89736 0.54582 0.11309 0.0
H362 H 0.83884 0.46375 0.94174 0.0
H363 H 0.91047 0.47634 0.93816 0.0
H364 H 0.80387 0.50105 0.91841 0.0
H365 H 0.82869 0.44604 0.11058 0.0
H366 H 0.86515 0.43675 0.22078 0.0
H367 H 0.86903 0.52045 0.33013 0.0
H368 H 0.83339 0.53079 0.22037 0.0
H369 H 0.60118 0.46829 0.95619 0.0
H370 H 0.65925 0.45793 0.95611 0.0
H371 H 0.74618 0.5471 0.11193 0.0
H372 H 0.6881 0.55702 0.11325 0.0
H373 H 0.75848 0.49359 0.13849 0.0
H374 H 0.74205 0.55186 0.93396 0.0
H375 H 0.69976 0.55539 0.8231 0.0
H376 H 0.67458 0.45747 0.73686 0.0
H377 H 0.71635 0.45321 0.84754 0.0
C378 C 0.94025 0.53693 0.07376 0.0
C379 C 0.9449 0.5179 0.02428 0.0
C380 C 0.8996 0.52996 0.0755 0.0
C381 C 0.86239 0.5035 0.02827 0.0
C382 C 0.86693 0.4842 0.97897 0.0
C383 C 0.90783 0.49127 0.97712 0.0
C384 C 0.81939 0.49764 0.02859 0.0
C385 C 0.79363 0.49869 0.96641 0.0
C386 C 0.80564 0.49455 0.09102 0.0
C387 C 0.82845 0.48927 0.15699 0.0
C388 C 0.8377 0.46273 0.15794 0.0
C389 C 0.85813 0.45721 0.2204 0.0
C390 C 0.86913 0.47785 0.28246 0.0
C391 C 0.86019 0.50432 0.28207 0.0
C392 C 0.83994 0.51006 0.21972 0.0
C393 C 0.63254 0.48536 0.99111 0.0
C394 C 0.64017 0.51357 0.03457 0.0
C395 C 0.66579 0.47956 0.99069 0.0
C396 C 0.70739 0.50206 0.03326 0.0
C397 C 0.71448 0.52941 0.07851 0.0
C398 C 0.68127 0.53514 0.07909 0.0
C399 C 0.74421 0.4984 0.02914 0.0
C400 C 0.76867 0.49548 0.09054 0.0
C401 C 0.75636 0.49915 0.96591 0.0
C402 C 0.732 0.5021 0.8991 0.0
C403 C 0.72734 0.53104 0.89141 0.0
C404 C 0.70348 0.53317 0.82863 0.0
C405 C 0.68441 0.50664 0.77302 0.0
C406 C 0.68932 0.47799 0.77999 0.0
C407 C 0.71312 0.47572 0.84269 0.0
H408 H 0.66589 0.5083 0.7245 0.0
H409 H 0.88471 0.4734 0.33083 0.0
H410 H 0.20097 0.62378 0.95711 0.0
H411 H 0.25994 0.68262 0.94908 0.0
H412 H 0.216 0.72672 0.07889 0.0
H413 H 0.15639 0.66823 0.08474 0.0
H414 H 0.23029 0.76007 0.97125 0.0
H415 H 0.30925 0.72044 0.13401 0.0
H416 H 0.33562 0.68146 0.1721 0.0
H417 H 0.39662 0.70273 0.00252 0.0
H418 H 0.37002 0.7414 0.9627 0.0
H419 H 0.40033 0.93383 0.05865 0.0
H420 H 0.34968 0.87219 0.06475 0.0
H421 H 0.40286 0.84263 0.92526 0.0
H422 H 0.45417 0.90459 0.91983 0.0
H423 H 0.38527 0.8006 0.02694 0.0
H424 H 0.30892 0.83954 0.86423 0.0
H425 H 0.28307 0.8783 0.82132 0.0
H426 H 0.21713 0.85724 0.98445 0.0
H427 H 0.24309 0.81872 0.02897 0.0
C428 C 0.20423 0.6461 0.98432 0.0
C429 C 0.17412 0.64153 0.02142 0.0
C430 C 0.23806 0.67971 0.98003 0.0
C431 C 0.24279 0.70926 0.01387 0.0
C432 C 0.2131 0.70445 0.05216 0.0
C433 C 0.17907 0.671 0.05565 0.0
C434 C 0.2769 0.74537 0.0067 0.0
C435 C 0.26421 0.76895 0.98446 0.0
C436 C 0.32113 0.75674 0.02073 0.0
C437 C 0.33713 0.73348 0.04483 0.0
C438 C 0.32793 0.71656 0.10444 0.0
C439 C 0.34298 0.69455 0.1264 0.0
C440 C 0.36762 0.6895 0.08958 0.0
C441 C 0.37742 0.70657 0.03086 0.0
C442 C 0.36236 0.72854 0.00858 0.0
C443 C 0.40129 0.91419 0.02944 0.0
C444 C 0.43096 0.92392 0.98849 0.0
C445 C 0.3723 0.87896 0.03285 0.0
C446 C 0.3719 0.8527 0.99449 0.0
C447 C 0.40243 0.86239 0.95511 0.0
C448 C 0.43166 0.89775 0.95196 0.0
C449 C 0.33855 0.81532 0.99397 0.0
C450 C 0.35131 0.79155 0.01393 0.0
C451 C 0.29424 0.80352 0.9772 0.0
C452 C 0.27825 0.82646 0.95026 0.0
C453 C 0.28914 0.84335 0.89124 0.0
C454 C 0.27444 0.86526 0.86659 0.0
C455 C 0.24855 0.87029 0.90022 0.0
C456 C 0.23721 0.85334 0.95848 0.0
C457 C 0.25188 0.83144 0.9834 0.0
H458 H 0.2372 0.88726 0.88107 0.0
H459 H 0.37923 0.67245 0.10665 0.0
H460 H 0.56541 0.38322 0.05974 0.0
H461 H 0.56401 0.32868 0.04664 0.0
H462 H 0.45058 0.28743 0.87607 0.0
H463 H 0.45154 0.34177 0.88958 0.0
H464 H 0.44311 0.24052 0.96757 0.0
H465 H 0.54598 0.3154 0.84298 0.0
H466 H 0.60986 0.36989 0.82741 0.0
H467 H 0.69019 0.35417 0.99546 0.0
H468 H 0.62669 0.29986 0.01287 0.0
H469 H 0.45266 0.09253 0.87751 0.0
H470 H 0.45124 0.14625 0.86807 0.0
H471 H 0.56533 0.1999 0.03781 0.0
H472 H 0.56718 0.14663 0.04675 0.0
H473 H 0.56984 0.23982 0.93329 0.0
H474 H 0.46709 0.16934 0.06581 0.0
H475 H 0.40336 0.11633 0.08645 0.0
H476 H 0.32333 0.12482 0.9056 0.0
H477 H 0.38675 0.17766 0.88338 0.0
C478 C 0.54018 0.36246 0.0196 0.0
C479 C 0.50859 0.36652 0.97562 0.0
C480 C 0.53954 0.33147 0.0119 0.0
C481 C 0.50749 0.30429 0.95981 0.0
C482 C 0.47562 0.30819 0.91639 0.0
C483 C 0.47625 0.33918 0.92409 0.0
C484 C 0.50692 0.27155 0.95151 0.0
C485 C 0.47048 0.24022 0.95875 0.0
C486 C 0.54298 0.27146 0.9411 0.0
C487 C 0.58146 0.30366 0.92958 0.0
C488 C 0.57723 0.32364 0.87689 0.0
C489 C 0.61338 0.35451 0.86772 0.0
C490 C 0.65404 0.36553 0.91054 0.0
C491 C 0.65866 0.34561 0.96238 0.0
C492 C 0.6226 0.31476 0.97187 0.0
C493 C 0.47739 0.11586 0.91258 0.0
C494 C 0.5098 0.11553 0.9632 0.0
C495 C 0.47657 0.14643 0.90721 0.0
C496 C 0.50802 0.1769 0.95263 0.0
C497 C 0.54084 0.17666 0.00224 0.0
C498 C 0.54168 0.1462 0.00757 0.0
C499 C 0.50627 0.20888 0.95042 0.0
C500 C 0.54227 0.24007 0.94114 0.0
C501 C 0.46985 0.20891 0.9591 0.0
C502 C 0.43172 0.17719 0.97246 0.0
C503 C 0.43596 0.15973 0.03012 0.0
C504 C 0.39989 0.12975 0.04217 0.0
C505 C 0.35934 0.11715 -0.00276 0.0
C506 C 0.35477 0.13457 0.94027 0.0
C507 C 0.39076 0.16454 0.92794 0.0
H508 H 0.33145 0.09394 0.00666 0.0
H509 H 0.68197 0.38948 0.90348 0.0
loop_
_geom_bond_atom_site_label_1
_geom_bond_atom_site_label_2
_geom_bond_distance
_geom_bond_site_symmetry_2
_ccdc_geom_bond_type
Tb0 O3 2.453 1_455 S
Tb0 O4 2.596 1_455 S
Tb0 O5 2.374 1_556 S
Tb0 O13 2.343 1_556 S
Tb0 O15 2.358 1_455 S
Tb0 O17 2.427 . S
Tb0 O18 2.513 1_556 S
C1 O5 1.251 . S
C1 O7 1.263 . S
Tb2 O4 2.343 1_554 S
Tb2 O7 2.353 1_655 S
Tb2 O10 2.427 . S
Tb2 O11 2.513 1_554 S
Tb2 O12 2.453 1_655 S
Tb2 O13 2.596 1_655 S
Tb2 O14 2.374 1_554 S
O3 Tb0 2.453 1_655 S
O3 C19 1.245 . S
O4 Tb0 2.596 1_655 S
O4 Tb2 2.343 1_556 S
O4 C19 1.259 . S
O5 Tb0 2.374 1_554 S
O5 C1 1.251 . S
C6 O10 1.275 1_556 S
C6 O11 1.246 . S
O7 C1 1.263 . S
O7 Tb2 2.353 1_455 S
C8 O12 1.245 . S
C8 O13 1.259 . S
C9 O14 1.250 . S
C9 O15 1.248 . S
O10 Tb2 2.427 . S
O10 C6 1.275 1_554 S
O11 Tb2 2.513 1_556 S
O11 C6 1.246 . S
O12 Tb2 2.453 1_455 S
O12 C8 1.245 . S
O13 Tb0 2.343 1_554 S
O13 Tb2 2.596 1_455 S
O13 C8 1.259 . S
O14 Tb2 2.374 1_556 S
O14 C9 1.250 . S
O15 Tb0 2.358 1_655 S
O15 C9 1.248 . S
C16 O17 1.275 1_554 S
C16 O18 1.246 . S
O17 Tb0 2.427 . S
O17 C16 1.275 1_556 S
O18 Tb0 2.513 1_554 S
O18 C16 1.246 . S
C19 O3 1.245 . S
C19 O4 1.259 . S
Tb20 O23 2.453 1_545 S
Tb20 O24 2.597 1_545 S
Tb20 O25 2.374 1_556 S
Tb20 O33 2.343 1_556 S
Tb20 O35 2.353 . S
Tb20 O37 2.427 . S
Tb20 O38 2.513 1_556 S
C21 O25 1.251 . S
C21 O27 1.263 1_545 S
Tb22 O24 2.345 1_554 S
Tb22 O27 2.353 . S
Tb22 O30 2.427 . S
Tb22 O31 2.513 1_554 S
Tb22 O32 2.453 1_565 S
Tb22 O33 2.596 1_565 S
Tb22 O34 2.374 1_554 S
O23 Tb20 2.453 1_565 S
O23 C39 1.245 . S
O24 Tb20 2.597 1_565 S
O24 Tb22 2.345 1_556 S
O24 C39 1.257 . S
O25 Tb20 2.374 1_554 S
O25 C21 1.251 . S
C26 O30 1.275 . S
C26 O31 1.246 1_554 S
O27 C21 1.263 1_565 S
O27 Tb22 2.353 . S
C28 O32 1.245 . S
C28 O33 1.259 . S
C29 O34 1.250 1_545 S
C29 O35 1.263 . S
O30 Tb22 2.427 . S
O30 C26 1.275 . S
O31 Tb22 2.513 1_556 S
O31 C26 1.246 1_556 S
O32 Tb22 2.453 1_545 S
O32 C28 1.245 . S
O33 Tb20 2.343 1_554 S
O33 Tb22 2.596 1_545 S
O33 C28 1.259 . S
O34 Tb22 2.374 1_556 S
O34 C29 1.250 1_565 S
O35 Tb20 2.353 . S
O35 C29 1.263 . S
C36 O37 1.275 . S
C36 O38 1.246 1_556 S
O37 Tb20 2.427 . S
O37 C36 1.275 . S
O38 Tb20 2.513 1_554 S
O38 C36 1.246 1_554 S
C39 O23 1.245 . S
C39 O24 1.257 . S
Tb40 O43 2.453 . S
Tb40 O44 2.596 . S
Tb40 O45 2.374 1_554 S
Tb40 O53 2.343 1_554 S
Tb40 O55 2.353 . S
Tb40 O57 2.427 . S
Tb40 O58 2.513 1_554 S
C41 O45 1.251 . S
C41 O47 1.263 . S
Tb42 O44 2.343 1_556 S
Tb42 O47 2.353 . S
Tb42 O50 2.427 . S
Tb42 O51 2.513 1_556 S
Tb42 O52 2.453 . S
Tb42 O53 2.596 . S
Tb42 O54 2.374 1_556 S
O43 Tb40 2.453 . S
O43 C59 1.245 . S
O44 Tb40 2.596 . S
O44 Tb42 2.343 1_554 S
O44 C59 1.259 . S
O45 Tb40 2.374 1_556 S
O45 C41 1.251 . S
C46 O50 1.275 . S
C46 O51 1.246 1_556 S
O47 C41 1.263 . S
O47 Tb42 2.353 . S
C48 O52 1.245 . S
C48 O53 1.259 . S
C49 O54 1.250 . S
C49 O55 1.263 . S
O50 Tb42 2.427 . S
O50 C46 1.275 . S
O51 Tb42 2.513 1_554 S
O51 C46 1.246 1_554 S
O52 Tb42 2.453 . S
O52 C48 1.245 . S
O53 Tb40 2.343 1_556 S
O53 Tb42 2.596 . S
O53 C48 1.259 . S
O54 Tb42 2.374 1_554 S
O54 C49 1.250 . S
O55 Tb40 2.353 . S
O55 C49 1.263 . S
C56 O57 1.275 . S
C56 O58 1.246 1_554 S
O57 Tb40 2.427 . S
O57 C56 1.275 . S
O58 Tb40 2.513 1_556 S
O58 C56 1.246 1_556 S
C59 O43 1.245 . S
C59 O44 1.259 . S
H60 C78 0.951 . S
H61 C80 0.951 . S
H62 C82 0.950 . S
H63 C83 0.950 . S
H64 C85 0.950 . S
H65 C88 0.950 . S
H66 C89 0.950 . S
H67 C91 0.950 1_655 S
H68 C92 0.950 . S
H69 C93 0.951 . S
H70 C95 0.951 . S
H71 C97 0.950 . S
H72 C98 0.950 . S
H73 C100 0.950 . S
H74 C103 0.950 . S
H75 C104 0.950 . S
H76 C106 0.950 1_455 S
H77 C107 0.950 . S
C78 H60 0.951 . S
C78 C79 1.366 . S
C78 C80 1.388 . S
C79 C78 1.366 . S
C79 C83 1.385 1_655 S
C80 H61 0.951 . S
C80 C78 1.388 . S
C80 C81 1.366 1_655 S
C81 C80 1.366 1_455 S
C81 C82 1.414 . S
C81 C84 1.499 . S
C82 H62 0.950 . S
C82 C81 1.414 . S
C82 C83 1.374 . S
C83 H63 0.950 . S
C83 C79 1.385 1_455 S
C83 C82 1.374 . S
C84 C81 1.499 . S
C84 C85 1.373 1_455 S
C84 C86 1.389 . S
C85 H64 0.950 . S
C85 C84 1.373 1_655 S
C85 C101 1.377 . S
C86 C84 1.389 . S
C86 C87 1.524 . S
C86 C100 1.377 . S
C87 C86 1.524 . S
C87 C88 1.397 . S
C87 C92 1.363 1_455 S
C88 H65 0.950 . S
C88 C87 1.397 . S
C88 C89 1.334 . S
C89 H66 0.950 . S
C89 C88 1.334 . S
C89 C90 1.287 . S
C90 C89 1.287 . S
C90 C91 1.524 . S
C90 H109 0.913 . S
C91 H67 0.950 1_455 S
C91 C90 1.524 . S
C91 C92 1.415 1_455 S
C92 H68 0.950 . S
C92 C87 1.363 1_655 S
C92 C91 1.415 1_655 S
C93 H69 0.951 . S
C93 C94 1.366 . S
C93 C95 1.388 . S
C94 C93 1.366 . S
C94 C98 1.385 1_455 S
C95 H70 0.951 . S
C95 C93 1.388 . S
C95 C96 1.366 . S
C96 C95 1.366 . S
C96 C97 1.414 1_455 S
C96 C99 1.494 1_455 S
C97 H71 0.950 . S
C97 C96 1.414 1_655 S
C97 C98 1.374 . S
C98 H72 0.950 . S
C98 C94 1.385 1_655 S
C98 C97 1.374 . S
C99 C96 1.494 1_655 S
C99 C100 1.365 1_655 S
C99 C101 1.402 . S
C100 H73 0.950 . S
C100 C86 1.377 . S
C100 C99 1.365 1_455 S
C101 C85 1.377 . S
C101 C99 1.402 . S
C101 C102 1.524 . S
C102 C101 1.524 . S
C102 C103 1.397 . S
C102 C107 1.363 1_655 S
C103 H74 0.950 . S
C103 C102 1.397 . S
C103 C104 1.334 . S
C104 H75 0.950 . S
C104 C103 1.334 . S
C104 C105 1.287 . S
C105 C104 1.287 . S
C105 C106 1.525 . S
C105 H108 0.999 . S
C106 H76 0.950 1_655 S
C106 C105 1.525 . S
C106 C107 1.413 1_655 S
C107 H77 0.950 . S
C107 C102 1.363 1_455 S
C107 C106 1.413 1_455 S
H108 C105 0.999 . S
H109 C90 0.913 . S
H110 C128 0.951 . S
H111 C130 0.951 . S
H112 C132 0.950 . S
H113 C133 0.950 . S
H114 C135 0.950 . S
H115 C138 0.950 . S
H116 C139 0.950 . S
H117 C141 0.950 . S
H118 C142 0.950 . S
H119 C143 0.951 . S
H120 C145 0.951 . S
H121 C147 0.950 . S
H122 C148 0.950 . S
H123 C150 0.950 . S
H124 C153 0.950 . S
H125 C154 0.950 . S
H126 C156 0.950 . S
H127 C157 0.950 . S
C128 H110 0.951 . S
C128 C129 1.366 1_545 S
C128 C130 1.388 . S
C129 C128 1.366 1_565 S
C129 C133 1.385 . S
C130 H111 0.951 . S
C130 C128 1.388 . S
C130 C131 1.366 1_545 S
C131 C130 1.366 1_565 S
C131 C132 1.414 . S
C131 C134 1.499 . S
C132 H112 0.950 . S
C132 C131 1.414 . S
C132 C133 1.374 . S
C133 H113 0.950 . S
C133 C129 1.385 . S
C133 C132 1.374 . S
C134 C131 1.499 . S
C134 C135 1.373 . S
C134 C136 1.389 1_565 S
C135 H114 0.950 . S
C135 C134 1.373 . S
C135 C151 1.378 . S
C136 C134 1.389 1_545 S
C136 C137 1.524 . S
C136 C150 1.377 . S
C137 C136 1.524 . S
C137 C138 1.397 1_545 S
C137 C142 1.363 . S
C138 H115 0.950 . S
C138 C137 1.397 1_565 S
C138 C139 1.334 . S
C139 H116 0.950 . S
C139 C138 1.334 . S
C139 C140 1.287 . S
C140 C139 1.287 . S
C140 C141 1.524 1_565 S
C140 H159 0.913 . S
C141 H117 0.950 . S
C141 C140 1.524 1_545 S
C141 C142 1.415 . S
C142 H118 0.950 . S
C142 C137 1.363 . S
C142 C141 1.415 . S
C143 H119 0.951 . S
C143 C144 1.366 1_565 S
C143 C145 1.388 . S
C144 C143 1.366 1_545 S
C144 C148 1.385 . S
C145 H120 0.951 . S
C145 C143 1.388 . S
C145 C146 1.366 1_565 S
C146 C145 1.366 1_545 S
C146 C147 1.414 . S
C146 C149 1.499 . S
C147 H121 0.950 . S
C147 C146 1.414 . S
C147 C148 1.374 . S
C148 H122 0.950 . S
C148 C144 1.385 . S
C148 C147 1.374 . S
C149 C146 1.499 . S
C149 C150 1.373 . S
C149 C151 1.393 1_545 S
C150 H123 0.950 . S
C150 C136 1.377 . S
C150 C149 1.373 . S
C151 C135 1.378 . S
C151 C149 1.393 1_565 S
C151 C152 1.519 1_565 S
C152 C151 1.519 1_545 S
C152 C153 1.396 . S
C152 C157 1.363 1_545 S
C153 H124 0.950 . S
C153 C152 1.396 . S
C153 C154 1.334 . S
C154 H125 0.950 . S
C154 C153 1.334 . S
C154 C155 1.287 . S
C155 C154 1.287 . S
C155 C156 1.524 1_545 S
C155 H158 0.999 . S
C156 H126 0.950 . S
C156 C155 1.524 1_565 S
C156 C157 1.415 . S
C157 H127 0.950 . S
C157 C152 1.363 1_565 S
C157 C156 1.415 . S
H158 C155 0.999 . S
H159 C140 0.913 . S
H160 C178 0.951 . S
H161 C180 0.951 . S
H162 C182 0.950 . S
H163 C183 0.950 . S
H164 C185 0.950 . S
H165 C188 0.950 . S
H166 C189 0.950 . S
H167 C191 0.950 . S
H168 C192 0.950 . S
H169 C193 0.951 . S
H170 C195 0.951 . S
H171 C197 0.950 . S
H172 C198 0.950 . S
H173 C200 0.950 . S
H174 C203 0.950 . S
H175 C204 0.950 . S
H176 C206 0.950 . S
H177 C207 0.950 . S
C178 H160 0.951 . S
C178 C179 1.366 . S
C178 C180 1.388 . S
C179 C178 1.366 . S
C179 C183 1.385 . S
C180 H161 0.951 . S
C180 C178 1.388 . S
C180 C181 1.366 . S
C181 C180 1.366 . S
C181 C182 1.414 . S
C181 C184 1.499 . S
C182 H162 0.950 . S
C182 C181 1.414 . S
C182 C183 1.374 . S
C183 H163 0.950 . S
C183 C179 1.385 . S
C183 C182 1.374 . S
C184 C181 1.499 . S
C184 C185 1.373 . S
C184 C186 1.389 . S
C185 H164 0.950 . S
C185 C184 1.373 . S
C185 C201 1.377 . S
C186 C184 1.389 . S
C186 C187 1.524 . S
C186 C200 1.377 . S
C187 C186 1.524 . S
C187 C188 1.397 . S
C187 C192 1.363 . S
C188 H165 0.950 . S
C188 C187 1.397 . S
C188 C189 1.334 . S
C189 H166 0.950 . S
C189 C188 1.334 . S
C189 C190 1.287 . S
C190 C189 1.287 . S
C190 C191 1.524 . S
C190 H209 0.913 . S
C191 H167 0.950 . S
C191 C190 1.524 . S
C191 C192 1.415 . S
C192 H168 0.950 . S
C192 C187 1.363 . S
C192 C191 1.415 . S
C193 H169 0.951 . S
C193 C194 1.366 . S
C193 C195 1.388 . S
C194 C193 1.366 . S
C194 C198 1.385 . S
C195 H170 0.951 . S
C195 C193 1.388 . S
C195 C196 1.366 . S
C196 C195 1.366 . S
C196 C197 1.414 . S
C196 C199 1.499 . S
C197 H171 0.950 . S
C197 C196 1.414 . S
C197 C198 1.374 . S
C198 H172 0.950 . S
C198 C194 1.385 . S
C198 C197 1.374 . S
C199 C196 1.499 . S
C199 C200 1.373 . S
C199 C201 1.389 . S
C200 H173 0.950 . S
C200 C186 1.377 . S
C200 C199 1.373 . S
C201 C185 1.377 . S
C201 C199 1.389 . S
C201 C202 1.524 . S
C202 C201 1.524 . S
C202 C203 1.397 . S
C202 C207 1.363 . S
C203 H174 0.950 . S
C203 C202 1.397 . S
C203 C204 1.334 . S
C204 H175 0.950 . S
C204 C203 1.334 . S
C204 C205 1.287 . S
C205 C204 1.287 . S
C205 C206 1.524 . S
C205 H208 0.999 . S
C206 H176 0.950 . S
C206 C205 1.524 . S
C206 C207 1.415 . S
C207 H177 0.950 . S
C207 C202 1.363 . S
C207 C206 1.415 . S
H208 C205 0.999 . S
H209 C190 0.913 . S
H210 C228 0.951 . S
H211 C230 0.951 . S
H212 C232 0.950 . S
H213 C233 0.950 . S
H214 C235 0.950 . S
H215 C238 0.950 . S
H216 C239 0.950 . S
H217 C241 0.950 . S
H218 C242 0.950 . S
H219 C243 0.951 . S
H220 C245 0.951 . S
H221 C247 0.950 . S
H222 C248 0.950 . S
H223 C250 0.950 . S
H224 C253 0.950 . S
H225 C254 0.950 . S
H226 C256 0.950 . S
H227 C257 0.950 . S
C228 H210 0.951 . S
C228 C229 1.366 . S
C228 C230 1.388 . S
C229 C228 1.366 . S
C229 C233 1.385 1_556 S
C230 H211 0.951 . S
C230 C228 1.388 . S
C230 C231 1.364 1_556 S
C231 C230 1.364 1_554 S
C231 C232 1.417 . S
C231 C234 1.498 . S
C232 H212 0.950 . S
C232 C231 1.417 . S
C232 C233 1.374 . S
C233 H213 0.950 . S
C233 C229 1.385 1_554 S
C233 C232 1.374 . S
C234 C231 1.498 . S
C234 C235 1.373 1_554 S
C234 C236 1.389 . S
C235 H214 0.950 . S
C235 C234 1.373 1_556 S
C235 C251 1.377 . S
C236 C234 1.389 . S
C236 C237 1.524 . S
C236 C250 1.377 . S
C237 C236 1.524 . S
C237 C238 1.397 . S
C237 C242 1.363 1_554 S
C238 H215 0.950 . S
C238 C237 1.397 . S
C238 C239 1.334 . S
C239 H216 0.950 . S
C239 C238 1.334 . S
C239 C240 1.287 . S
C240 C239 1.287 . S
C240 C241 1.524 1_554 S
C240 H259 0.913 . S
C241 H217 0.950 . S
C241 C240 1.524 1_556 S
C241 C242 1.415 . S
C242 H218 0.950 . S
C242 C237 1.363 1_556 S
C242 C241 1.415 . S
C243 H219 0.951 . S
C243 C244 1.366 . S
C243 C245 1.388 . S
C244 C243 1.366 . S
C244 C248 1.385 1_554 S
C245 H220 0.951 . S
C245 C243 1.388 . S
C245 C246 1.366 1_554 S
C246 C245 1.366 1_556 S
C246 C247 1.414 . S
C246 C249 1.499 . S
C247 H221 0.950 . S
C247 C246 1.414 . S
C247 C248 1.374 . S
C248 H222 0.950 . S
C248 C244 1.385 1_556 S
C248 C247 1.374 . S
C249 C246 1.499 . S
C249 C250 1.373 1_556 S
C249 C251 1.389 . S
C250 H223 0.950 . S
C250 C236 1.377 . S
C250 C249 1.373 1_554 S
C251 C235 1.377 . S
C251 C249 1.389 . S
C251 C252 1.524 . S
C252 C251 1.524 . S
C252 C253 1.397 . S
C252 C257 1.363 1_556 S
C253 H224 0.950 . S
C253 C252 1.397 . S
C253 C254 1.334 . S
C254 H225 0.950 . S
C254 C253 1.334 . S
C254 C255 1.287 . S
C255 C254 1.287 . S
C255 C256 1.524 1_556 S
C255 H258 0.999 . S
C256 H226 0.950 . S
C256 C255 1.524 1_554 S
C256 C257 1.415 . S
C257 H227 0.950 . S
C257 C252 1.363 1_554 S
C257 C256 1.415 . S
H258 C255 0.999 . S
H259 C240 0.913 . S
H260 C278 0.951 . S
H261 C280 0.951 . S
H262 C282 0.950 . S
H263 C283 0.950 . S
H264 C285 0.950 . S
H265 C288 0.950 . S
H266 C289 0.950 . S
H267 C291 0.950 . S
H268 C292 0.950 . S
H269 C293 0.951 . S
H270 C295 0.951 . S
H271 C297 0.950 . S
H272 C298 0.950 . S
H273 C300 0.950 . S
H274 C303 0.950 . S
H275 C304 0.950 . S
H276 C306 0.950 . S
H277 C307 0.950 . S
C278 H260 0.951 . S
C278 C279 1.366 1_554 S
C278 C280 1.388 . S
C279 C278 1.366 1_556 S
C279 C283 1.385 . S
C280 H261 0.951 . S
C280 C278 1.388 . S
C280 C281 1.366 1_554 S
C281 C280 1.366 1_556 S
C281 C282 1.414 . S
C281 C284 1.499 . S
C282 H262 0.950 . S
C282 C281 1.414 . S
C282 C283 1.374 . S
C283 H263 0.950 . S
C283 C279 1.385 . S
C283 C282 1.374 . S
C284 C281 1.499 . S
C284 C285 1.373 . S
C284 C286 1.389 1_556 S
C285 H264 0.950 . S
C285 C284 1.373 . S
C285 C301 1.377 . S
C286 C284 1.389 1_554 S
C286 C287 1.524 . S
C286 C300 1.377 . S
C287 C286 1.524 . S
C287 C288 1.397 . S
C287 C292 1.363 . S
C288 H265 0.950 . S
C288 C287 1.397 . S
C288 C289 1.334 . S
C289 H266 0.950 . S
C289 C288 1.334 . S
C289 C290 1.287 . S
C290 C289 1.287 . S
C290 C291 1.524 . S
C290 H309 0.913 . S
C291 H267 0.950 . S
C291 C290 1.524 . S
C291 C292 1.415 . S
C292 H268 0.950 . S
C292 C287 1.363 . S
C292 C291 1.415 . S
C293 H269 0.951 . S
C293 C294 1.366 . S
C293 C295 1.388 . S
C294 C293 1.366 . S
C294 C298 1.385 1_556 S
C295 H270 0.951 . S
C295 C293 1.388 . S
C295 C296 1.366 . S
C296 C295 1.366 . S
C296 C297 1.414 1_556 S
C296 C299 1.499 . S
C297 H271 0.950 . S
C297 C296 1.414 1_554 S
C297 C298 1.374 . S
C298 H272 0.950 . S
C298 C294 1.385 1_554 S
C298 C297 1.374 . S
C299 C296 1.499 . S
C299 C300 1.373 1_556 S
C299 C301 1.389 . S
C300 H273 0.950 . S
C300 C286 1.377 . S
C300 C299 1.373 1_554 S
C301 C285 1.377 . S
C301 C299 1.389 . S
C301 C302 1.524 . S
C302 C301 1.524 . S
C302 C303 1.397 . S
C302 C307 1.363 . S
C303 H274 0.950 . S
C303 C302 1.397 . S
C303 C304 1.334 . S
C304 H275 0.950 . S
C304 C303 1.334 . S
C304 C305 1.287 . S
C305 C304 1.287 . S
C305 C306 1.524 . S
C305 H308 0.999 . S
C306 H276 0.950 . S
C306 C305 1.524 . S
C306 C307 1.415 . S
C307 H277 0.950 . S
C307 C302 1.363 . S
C307 C306 1.415 . S
H308 C305 0.999 . S
H309 C290 0.913 . S
H310 C328 0.951 . S
H311 C330 0.951 . S
H312 C332 0.950 . S
H313 C333 0.950 . S
H314 C335 0.950 . S
H315 C338 0.950 . S
H316 C339 0.950 . S
H317 C341 0.950 . S
H318 C342 0.950 . S
H319 C343 0.951 . S
H320 C345 0.951 . S
H321 C347 0.950 . S
H322 C348 0.950 . S
H323 C350 0.950 . S
H324 C353 0.950 . S
H325 C354 0.950 . S
H326 C356 0.950 . S
H327 C357 0.950 . S
C328 H310 0.951 . S
C328 C329 1.366 1_556 S
C328 C330 1.388 . S
C329 C328 1.366 1_554 S
C329 C333 1.385 . S
C330 H311 0.951 . S
C330 C328 1.388 . S
C330 C331 1.366 1_556 S
C331 C330 1.366 1_554 S
C331 C332 1.414 . S
C331 C334 1.499 . S
C332 H312 0.950 . S
C332 C331 1.414 . S
C332 C333 1.374 . S
C333 H313 0.950 . S
C333 C329 1.385 . S
C333 C332 1.374 . S
C334 C331 1.499 . S
C334 C335 1.373 . S
C334 C336 1.389 1_554 S
C335 H314 0.950 . S
C335 C334 1.373 . S
C335 C351 1.377 . S
C336 C334 1.389 1_556 S
C336 C337 1.524 . S
C336 C350 1.377 . S
C337 C336 1.524 . S
C337 C338 1.397 . S
C337 C342 1.363 . S
C338 H315 0.950 . S
C338 C337 1.397 . S
C338 C339 1.334 . S
C339 H316 0.950 . S
C339 C338 1.334 . S
C339 C340 1.287 . S
C340 C339 1.287 . S
C340 C341 1.524 . S
C340 H359 0.913 . S
C341 H317 0.950 . S
C341 C340 1.524 . S
C341 C342 1.415 . S
C342 H318 0.950 . S
C342 C337 1.363 . S
C342 C341 1.415 . S
C343 H319 0.951 . S
C343 C344 1.366 . S
C343 C345 1.388 . S
C344 C343 1.366 . S
C344 C348 1.385 1_554 S
C345 H320 0.951 . S
C345 C343 1.388 . S
C345 C346 1.366 . S
C346 C345 1.366 . S
C346 C347 1.414 1_554 S
C346 C349 1.499 . S
C347 H321 0.950 . S
C347 C346 1.414 1_556 S
C347 C348 1.374 . S
C348 H322 0.950 . S
C348 C344 1.385 1_556 S
C348 C347 1.374 . S
C349 C346 1.499 . S
C349 C350 1.373 1_554 S
C349 C351 1.389 . S
C350 H323 0.950 . S
C350 C336 1.377 . S
C350 C349 1.373 1_556 S
C351 C335 1.377 . S
C351 C349 1.389 . S
C351 C352 1.524 . S
C352 C351 1.524 . S
C352 C353 1.397 . S
C352 C357 1.363 . S
C353 H324 0.950 . S
C353 C352 1.397 . S
C353 C354 1.334 . S
C354 H325 0.950 . S
C354 C353 1.334 . S
C354 C355 1.287 . S
C355 C354 1.287 . S
C355 C356 1.524 . S
C355 H358 0.999 . S
C356 H326 0.950 . S
C356 C355 1.524 . S
C356 C357 1.415 . S
C357 H327 0.950 . S
C357 C352 1.363 . S
C357 C356 1.415 . S
H358 C355 0.999 . S
H359 C340 0.913 . S
H360 C378 0.951 . S
H361 C380 0.951 . S
H362 C382 0.950 . S
H363 C383 0.950 . S
H364 C385 0.950 . S
H365 C388 0.950 . S
H366 C389 0.950 . S
H367 C391 0.950 . S
H368 C392 0.950 . S
H369 C393 0.951 . S
H370 C395 0.951 . S
H371 C397 0.950 . S
H372 C398 0.950 . S
H373 C400 0.950 . S
H374 C403 0.950 . S
H375 C404 0.950 . S
H376 C406 0.950 . S
H377 C407 0.950 . S
C378 H360 0.951 . S
C378 C379 1.366 . S
C378 C380 1.388 . S
C379 C378 1.366 . S
C379 C383 1.385 1_554 S
C380 H361 0.951 . S
C380 C378 1.388 . S
C380 C381 1.366 . S
C381 C380 1.366 . S
C381 C382 1.414 1_554 S
C381 C384 1.499 . S
C382 H362 0.950 . S
C382 C381 1.414 1_556 S
C382 C383 1.374 . S
C383 H363 0.950 . S
C383 C379 1.385 1_556 S
C383 C382 1.374 . S
C384 C381 1.499 . S
C384 C385 1.373 1_554 S
C384 C386 1.389 . S
C385 H364 0.950 . S
C385 C384 1.373 1_556 S
C385 C401 1.377 . S
C386 C384 1.389 . S
C386 C387 1.524 . S
C386 C400 1.377 . S
C387 C386 1.524 . S
C387 C388 1.397 . S
C387 C392 1.363 . S
C388 H365 0.950 . S
C388 C387 1.397 . S
C388 C389 1.334 . S
C389 H366 0.950 . S
C389 C388 1.334 . S
C389 C390 1.287 . S
C390 C389 1.287 . S
C390 C391 1.524 . S
C390 H409 0.913 . S
C391 H367 0.950 . S
C391 C390 1.524 . S
C391 C392 1.415 . S
C392 H368 0.950 . S
C392 C387 1.363 . S
C392 C391 1.415 . S
C393 H369 0.951 . S
C393 C394 1.375 . S
C393 C395 1.388 . S
C394 C393 1.375 . S
C394 C398 1.379 1_556 S
C395 H370 0.951 . S
C395 C393 1.388 . S
C395 C396 1.366 . S
C396 C395 1.366 . S
C396 C397 1.414 1_556 S
C396 C399 1.499 1_556 S
C397 H371 0.950 . S
C397 C396 1.414 1_554 S
C397 C398 1.374 . S
C398 H372 0.950 . S
C398 C394 1.379 1_554 S
C398 C397 1.374 . S
C399 C396 1.499 1_554 S
C399 C400 1.373 . S
C399 C401 1.389 1_554 S
C400 H373 0.950 . S
C400 C386 1.377 . S
C400 C399 1.373 . S
C401 C385 1.377 . S
C401 C399 1.389 1_556 S
C401 C402 1.524 . S
C402 C401 1.524 . S
C402 C403 1.397 . S
C402 C407 1.363 . S
C403 H374 0.950 . S
C403 C402 1.397 . S
C403 C404 1.334 . S
C404 H375 0.950 . S
C404 C403 1.334 . S
C404 C405 1.287 . S
C405 C404 1.287 . S
C405 C406 1.524 . S
C405 H408 0.999 . S
C406 H376 0.950 . S
C406 C405 1.524 . S
C406 C407 1.415 . S
C407 H377 0.950 . S
C407 C402 1.363 . S
C407 C406 1.415 . S
H408 C405 0.999 . S
H409 C390 0.913 . S
H410 C428 0.951 . S
H411 C430 0.951 . S
H412 C432 0.950 . S
H413 C433 0.950 . S
H414 C435 0.950 . S
H415 C438 0.950 . S
H416 C439 0.950 . S
H417 C441 0.952 . S
H418 C442 0.950 . S
H419 C443 0.951 . S
H420 C445 0.951 . S
H421 C447 0.950 . S
H422 C448 0.950 . S
H423 C450 0.950 . S
H424 C453 0.950 . S
H425 C454 0.950 . S
H426 C456 0.950 . S
H427 C457 0.950 . S
C428 H410 0.951 . S
C428 C429 1.366 1_556 S
C428 C430 1.388 . S
C429 C428 1.366 1_554 S
C429 C433 1.385 . S
C430 H411 0.951 . S
C430 C428 1.388 . S
C430 C431 1.366 1_556 S
C431 C430 1.366 1_554 S
C431 C432 1.414 . S
C431 C434 1.499 . S
C432 H412 0.950 . S
C432 C431 1.414 . S
C432 C433 1.374 . S
C433 H413 0.950 . S
C433 C429 1.385 . S
C433 C432 1.374 . S
C434 C431 1.499 . S
C434 C435 1.373 . S
C434 C436 1.389 . S
C435 H414 0.950 . S
C435 C434 1.373 . S
C435 C451 1.377 . S
C436 C434 1.389 . S
C436 C437 1.524 . S
C436 C450 1.377 . S
C437 C436 1.524 . S
C437 C438 1.397 . S
C437 C442 1.363 1_554 S
C438 H415 0.950 . S
C438 C437 1.397 . S
C438 C439 1.334 . S
C439 H416 0.950 . S
C439 C438 1.334 . S
C439 C440 1.287 . S
C440 C439 1.287 . S
C440 C441 1.521 1_554 S
C440 H459 0.913 . S
C441 H417 0.952 . S
C441 C440 1.521 1_556 S
C441 C442 1.415 . S
C442 H418 0.950 . S
C442 C437 1.363 1_556 S
C442 C441 1.415 . S
C443 H419 0.951 . S
C443 C444 1.366 . S
C443 C445 1.388 . S
C444 C443 1.366 . S
C444 C448 1.385 1_554 S
C445 H420 0.951 . S
C445 C443 1.388 . S
C445 C446 1.366 . S
C446 C445 1.366 . S
C446 C447 1.414 1_554 S
C446 C449 1.499 . S
C447 H421 0.950 . S
C447 C446 1.414 1_556 S
C447 C448 1.374 . S
C448 H422 0.950 . S
C448 C444 1.385 1_556 S
C448 C447 1.374 . S
C449 C446 1.499 . S
C449 C450 1.373 . S
C449 C451 1.389 . S
C450 H423 0.950 . S
C450 C436 1.377 . S
C450 C449 1.373 . S
C451 C435 1.377 . S
C451 C449 1.389 . S
C451 C452 1.524 1_554 S
C452 C451 1.524 1_556 S
C452 C453 1.397 . S
C452 C457 1.363 1_556 S
C453 H424 0.950 . S
C453 C452 1.397 . S
C453 C454 1.334 . S
C454 H425 0.950 . S
C454 C453 1.334 . S
C454 C455 1.287 . S
C455 C454 1.287 . S
C455 C456 1.524 1_556 S
C455 H458 0.999 . S
C456 H426 0.950 . S
C456 C455 1.524 1_554 S
C456 C457 1.415 . S
C457 H427 0.950 . S
C457 C452 1.363 1_554 S
C457 C456 1.415 . S
H458 C455 0.999 . S
H459 C440 0.913 . S
H460 C478 0.951 . S
H461 C480 0.951 . S
H462 C482 0.950 . S
H463 C483 0.950 . S
H464 C485 0.950 . S
H465 C488 0.950 . S
H466 C489 0.950 . S
H467 C491 0.950 . S
H468 C492 0.950 . S
H469 C493 0.951 . S
H470 C495 0.951 . S
H471 C497 0.950 . S
H472 C498 0.950 . S
H473 C500 0.950 . S
H474 C503 0.950 . S
H475 C504 0.950 . S
H476 C506 0.950 . S
H477 C507 0.950 . S
C478 H460 0.951 . S
C478 C479 1.366 1_554 S
C478 C480 1.388 . S
C479 C478 1.366 1_556 S
C479 C483 1.385 . S
C480 H461 0.951 . S
C480 C478 1.388 . S
C480 C481 1.366 1_554 S
C481 C480 1.366 1_556 S
C481 C482 1.414 . S
C481 C484 1.499 . S
C482 H462 0.950 . S
C482 C481 1.414 . S
C482 C483 1.374 . S
C483 H463 0.950 . S
C483 C479 1.385 . S
C483 C482 1.374 . S
C484 C481 1.499 . S
C484 C485 1.373 1_556 S
C484 C486 1.389 . S
C485 H464 0.950 . S
C485 C484 1.373 1_554 S
C485 C501 1.377 . S
C486 C484 1.389 . S
C486 C487 1.524 . S
C486 C500 1.377 . S
C487 C486 1.524 . S
C487 C488 1.397 . S
C487 C492 1.363 . S
C488 H465 0.950 . S
C488 C487 1.397 . S
C488 C489 1.334 . S
C489 H466 0.950 . S
C489 C488 1.334 . S
C489 C490 1.287 . S
C490 C489 1.287 . S
C490 C491 1.524 . S
C490 H509 0.913 . S
C491 H467 0.950 . S
C491 C490 1.524 . S
C491 C492 1.415 . S
C492 H468 0.950 . S
C492 C487 1.363 . S
C492 C491 1.415 . S
C493 H469 0.951 . S
C493 C494 1.366 . S
C493 C495 1.388 . S
C494 C493 1.366 . S
C494 C498 1.385 1_556 S
C495 H470 0.951 . S
C495 C493 1.388 . S
C495 C496 1.366 . S
C496 C495 1.366 . S
C496 C497 1.414 1_556 S
C496 C499 1.499 . S
C497 H471 0.950 . S
C497 C496 1.414 1_554 S
C497 C498 1.374 . S
C498 H472 0.950 . S
C498 C494 1.385 1_554 S
C498 C497 1.374 . S
C499 C496 1.499 . S
C499 C500 1.373 . S
C499 C501 1.389 1_556 S
C500 H473 0.950 . S
C500 C486 1.377 . S
C500 C499 1.373 . S
C501 C485 1.377 . S
C501 C499 1.389 1_554 S
C501 C502 1.524 . S
C502 C501 1.524 . S
C502 C503 1.397 . S
C502 C507 1.363 . S
C503 H474 0.950 . S
C503 C502 1.397 . S
C503 C504 1.334 . S
C504 H475 0.950 . S
C504 C503 1.334 . S
C504 C505 1.287 . S
C505 C504 1.287 . S
C505 C506 1.524 . S
C505 H508 0.999 . S
C506 H476 0.950 . S
C506 C505 1.524 . S
C506 C507 1.415 . S
C507 H477 0.950 . S
C507 C502 1.363 . S
C507 C506 1.415 . S
H508 C505 0.999 . S
H509 C490 0.913 . S
C79 C9 1.499 . S
C94 C1 1.499 . S
C129 C21 1.489 1_565 S
C144 C29 1.489 . S
C179 C41 1.487 . S
C194 C49 1.487 . S
C229 C8 1.775 1_556 S
C244 C48 1.800 1_554 S
C279 C28 1.589 1_556 S
C294 C6 1.594 . S
C329 C26 1.355 . S
C344 C56 1.346 . S
C379 C19 1.774 1_554 S
C394 C59 1.797 1_556 S
C429 C16 1.593 . S
C444 C39 1.590 1_554 S
C479 C46 1.346 . S
C494 C36 1.355 . S
