# Generated by pormake.
# Topology fob, (5)-cn, num edge types: 1
# Building blocks:
#     Node 0, Type 0, BuildingBlock: XOMCOT_clean_sbu_0, # of connection points: 5
#     Node 1, Type 0, BuildingBlock: XOMCOT_clean_sbu_0, # of connection points: 5
#     Node 2, Type 0, BuildingBlock: XOMCOT_clean_sbu_0, # of connection points: 5
#     Node 3, Type 0, BuildingBlock: XOMCOT_clean_sbu_0, # of connection points: 5
#     Node 4, Type 0, BuildingBlock: XOMCOT_clean_sbu_0, # of connection points: 5
#     Node 5, Type 0, BuildingBlock: XOMCOT_clean_sbu_0, # of connection points: 5
#     Node 6, Type 0, BuildingBlock: XOMCOT_clean_sbu_0, # of connection points: 5
#     Node 7, Type 0, BuildingBlock: XOMCOT_clean_sbu_0, # of connection points: 5
#     Node 8, Type 0, BuildingBlock: XOMCOT_clean_sbu_0, # of connection points: 5
#     Node 9, Type 0, BuildingBlock: XOMCOT_clean_sbu_0, # of connection points: 5
#     Node 10, Type 0, BuildingBlock: XOMCOT_clean_sbu_0, # of connection points: 5
#     Node 11, Type 0, BuildingBlock: XOMCOT_clean_sbu_0, # of connection points: 5
#     Node 12, Type 0, BuildingBlock: XOMCOT_clean_sbu_0, # of connection points: 5
#     Node 13, Type 0, BuildingBlock: XOMCOT_clean_sbu_0, # of connection points: 5
#     Node 14, Type 0, BuildingBlock: XOMCOT_clean_sbu_0, # of connection points: 5
#     Node 15, Type 0, BuildingBlock: XOMCOT_clean_sbu_0, # of connection points: 5
#     Edge 16, Type (0, 0), BuildingBlock: UVAHIK_clean_linker_0, # of connection points: 2
#     Edge 17, Type (0, 0), BuildingBlock: UVAHIK_clean_linker_0, # of connection points: 2
#     Edge 18, Type (0, 0), BuildingBlock: UVAHIK_clean_linker_0, # of connection points: 2
#     Edge 19, Type (0, 0), BuildingBlock: UVAHIK_clean_linker_0, # of connection points: 2
#     Edge 20, Type (0, 0), BuildingBlock: UVAHIK_clean_linker_0, # of connection points: 2
#     Edge 21, Type (0, 0), BuildingBlock: UVAHIK_clean_linker_0, # of connection points: 2
#     Edge 22, Type (0, 0), BuildingBlock: UVAHIK_clean_linker_0, # of connection points: 2
#     Edge 23, Type (0, 0), BuildingBlock: UVAHIK_clean_linker_0, # of connection points: 2
#     Edge 24, Type (0, 0), BuildingBlock: UVAHIK_clean_linker_0, # of connection points: 2
#     Edge 25, Type (0, 0), BuildingBlock: UVAHIK_clean_linker_0, # of connection points: 2
#     Edge 26, Type (0, 0), BuildingBlock: UVAHIK_clean_linker_0, # of connection points: 2
#     Edge 27, Type (0, 0), BuildingBlock: UVAHIK_clean_linker_0, # of connection points: 2
#     Edge 28, Type (0, 0), BuildingBlock: UVAHIK_clean_linker_0, # of connection points: 2
#     Edge 29, Type (0, 0), BuildingBlock: UVAHIK_clean_linker_0, # of connection points: 2
#     Edge 30, Type (0, 0), BuildingBlock: UVAHIK_clean_linker_0, # of connection points: 2
#     Edge 31, Type (0, 0), BuildingBlock: UVAHIK_clean_linker_0, # of connection points: 2
#     Edge 32, Type (0, 0), BuildingBlock: UVAHIK_clean_linker_0, # of connection points: 2
#     Edge 33, Type (0, 0), BuildingBlock: UVAHIK_clean_linker_0, # of connection points: 2
#     Edge 34, Type (0, 0), BuildingBlock: UVAHIK_clean_linker_0, # of connection points: 2
#     Edge 35, Type (0, 0), BuildingBlock: UVAHIK_clean_linker_0, # of connection points: 2
#     Edge 36, Type (0, 0), BuildingBlock: UVAHIK_clean_linker_0, # of connection points: 2
#     Edge 37, Type (0, 0), BuildingBlock: UVAHIK_clean_linker_0, # of connection points: 2
#     Edge 38, Type (0, 0), BuildingBlock: UVAHIK_clean_linker_0, # of connection points: 2
#     Edge 39, Type (0, 0), BuildingBlock: UVAHIK_clean_linker_0, # of connection points: 2
#     Edge 40, Type (0, 0), BuildingBlock: UVAHIK_clean_linker_0, # of connection points: 2
#     Edge 41, Type (0, 0), BuildingBlock: UVAHIK_clean_linker_0, # of connection points: 2
#     Edge 42, Type (0, 0), BuildingBlock: UVAHIK_clean_linker_0, # of connection points: 2
#     Edge 43, Type (0, 0), BuildingBlock: UVAHIK_clean_linker_0, # of connection points: 2
#     Edge 44, Type (0, 0), BuildingBlock: UVAHIK_clean_linker_0, # of connection points: 2
#     Edge 45, Type (0, 0), BuildingBlock: UVAHIK_clean_linker_0, # of connection points: 2
#     Edge 46, Type (0, 0), BuildingBlock: UVAHIK_clean_linker_0, # of connection points: 2
#     Edge 47, Type (0, 0), BuildingBlock: UVAHIK_clean_linker_0, # of connection points: 2
#     Edge 48, Type (0, 0), BuildingBlock: UVAHIK_clean_linker_0, # of connection points: 2
#     Edge 49, Type (0, 0), BuildingBlock: UVAHIK_clean_linker_0, # of connection points: 2
#     Edge 50, Type (0, 0), BuildingBlock: UVAHIK_clean_linker_0, # of connection points: 2
#     Edge 51, Type (0, 0), BuildingBlock: UVAHIK_clean_linker_0, # of connection points: 2
#     Edge 52, Type (0, 0), BuildingBlock: UVAHIK_clean_linker_0, # of connection points: 2
#     Edge 53, Type (0, 0), BuildingBlock: UVAHIK_clean_linker_0, # of connection points: 2
#     Edge 54, Type (0, 0), BuildingBlock: UVAHIK_clean_linker_0, # of connection points: 2
#     Edge 55, Type (0, 0), BuildingBlock: UVAHIK_clean_linker_0, # of connection points: 2
# Relax obj value: 0.078
# Max RMSD: 0.143
# Mean RMSD: 0.143
data_MOF--net-fob--node1-XOMCOT_clean_sbu_0--edge1-UVAHIK_clean_linker_0
_symmetry_space_group_name_H-M    P1
_symmetry_Int_Tables_number       1
_symmetry_cell_setting            triclinic
loop_
_symmetry_equiv_pos_as_xyz
'x, y, z'
_cell_length_a     33.64973
_cell_length_b     80.712013
_cell_length_c     62.910224
_cell_angle_alpha  100.82334
_cell_angle_beta   89.987482
_cell_angle_gamma 89.911484
loop_
_atom_site_label
_atom_site_type_symbol
_atom_site_fract_x
_atom_site_fract_y
_atom_site_fract_z
_atom_type_partial_charge
Co0 Co 0.10867 0.14112 0.46809 0.0
C1 C 0.08641 0.10687 0.47409 0.0
C2 C 0.14605 0.10771 0.46219 0.0
C3 C 0.13795 0.09147 0.46469 0.0
N4 N 0.1137 0.1173 0.46802 0.0
N5 N 0.10042 0.09094 0.47219 0.0
H6 H 0.05717 0.11097 0.48006 0.0
H7 H 0.17364 0.11223 0.45656 0.0
C8 C 0.13896 0.14585 0.42509 0.0
O9 O 0.10919 0.15617 0.42379 0.0
N10 N 0.10494 0.1653 0.46848 0.0
C11 C 0.07302 0.17564 0.47106 0.0
C12 C 0.08554 0.19198 0.47209 0.0
C13 C 0.13645 0.17567 0.46833 0.0
N14 N 0.12546 0.19202 0.47041 0.0
C15 C 0.02425 0.14092 0.46267 0.0
C16 C 0.02268 0.1234 0.42052 0.0
C17 C 0.98705 0.12958 0.43049 0.0
C18 C 0.98797 0.13807 0.452 0.0
C19 C 0.05847 0.12677 0.43175 0.0
N20 N 0.05917 0.13644 0.45209 0.0
H21 H 0.02417 0.14697 0.47949 0.0
H22 H 0.08542 0.12138 0.42411 0.0
H23 H 0.04264 0.17207 0.47283 0.0
H24 H 0.16688 0.17125 0.46684 0.0
O25 O 0.0879 0.14461 0.49708 0.0
O26 O 0.15179 0.14547 0.48855 0.0
O27 O 0.1417 0.1383 0.44113 0.0
C28 C 0.1246 0.1468 0.50347 0.0
H29 H 0.15807 0.08086 0.46099 0.0
H30 H 0.06665 0.20304 0.47477 0.0
H31 H 0.02295 0.11629 0.4041 0.0
H32 H 0.96082 0.14241 0.46054 0.0
Co33 Co 0.10974 0.1418 0.75786 0.0
C34 C 0.08097 0.17652 0.76047 0.0
C35 C 0.13817 0.17614 0.77548 0.0
C36 C 0.12729 0.19269 0.77599 0.0
N37 N 0.10902 0.16607 0.7658 0.0
N38 N 0.09138 0.1929 0.76643 0.0
H39 H 0.05391 0.17212 0.752 0.0
H40 H 0.16602 0.17177 0.78102 0.0
C41 C 0.14145 0.12992 0.79687 0.0
O42 O 0.11426 0.11804 0.79434 0.0
N43 N 0.11124 0.11731 0.74935 0.0
C44 C 0.08243 0.10678 0.74004 0.0
C45 C 0.09697 0.09058 0.73588 0.0
C46 C 0.14343 0.10733 0.74987 0.0
N47 N 0.13527 0.09089 0.74217 0.0
C48 C 0.02568 0.13763 0.76166 0.0
C49 C 0.02124 0.14673 0.80614 0.0
C50 C 0.98665 0.1414 0.79443 0.0
C51 C 0.98906 0.1372 0.77186 0.0
C52 C 0.05733 0.14697 0.79522 0.0
N53 N 0.05973 0.14135 0.77336 0.0
H54 H 0.02631 0.13526 0.74424 0.0
H55 H 0.08304 0.15199 0.80444 0.0
H56 H 0.05314 0.11033 0.73574 0.0
H57 H 0.1721 0.112 0.75607 0.0
O58 O 0.08901 0.14349 0.72991 0.0
O59 O 0.15311 0.14322 0.73818 0.0
O60 O 0.14259 0.14056 0.7842 0.0
C61 C 0.12579 0.14432 0.72388 0.0
H62 H 0.1453 0.20365 0.78204 0.0
H63 H 0.08077 0.07947 0.72827 0.0
H64 H 0.02057 0.1506 0.82357 0.0
H65 H 0.96273 0.13392 0.76208 0.0
Co66 Co 0.89004 0.89135 0.50822 0.0
C67 C 0.91352 0.9265 0.50772 0.0
C68 C 0.85509 0.92508 0.52101 0.0
C69 C 0.86349 0.94172 0.52063 0.0
N70 N 0.88649 0.9156 0.51295 0.0
N71 N 0.90022 0.9426 0.51225 0.0
H72 H 0.9418 0.92263 0.50019 0.0
H73 H 0.82777 0.9202 0.52646 0.0
C74 C 0.86256 0.88188 0.54953 0.0
O75 O 0.89112 0.87059 0.54788 0.0
N76 N 0.89256 0.8668 0.503 0.0
C77 C 0.92253 0.85651 0.49448 0.0
C78 C 0.90962 0.84008 0.49118 0.0
C79 C 0.86153 0.85637 0.50419 0.0
N80 N 0.87128 0.84 0.4973 0.0
C81 C 0.97482 0.8899 0.51108 0.0
C82 C 0.98072 0.90091 0.55522 0.0
C83 C 0.01509 0.89538 0.54337 0.0
C84 C 0.01196 0.8904 0.5209 0.0
C85 C 0.94408 0.90024 0.54466 0.0
N86 N 0.94107 0.89353 0.5231 0.0
H87 H 0.97338 0.88649 0.49369 0.0
H88 H 0.91832 0.90519 0.55394 0.0
H89 H 0.95142 0.86037 0.48999 0.0
H90 H 0.83205 0.86077 0.50939 0.0
O91 O 0.90837 0.89093 0.47922 0.0
O92 O 0.84512 0.8897 0.48886 0.0
O93 O 0.85936 0.89149 0.53564 0.0
C94 C 0.87119 0.88962 0.47357 0.0
H95 H 0.84401 0.95234 0.52614 0.0
H96 H 0.9271 0.82905 0.48456 0.0
H97 H 0.9819 0.9054 0.57255 0.0
H98 H 0.03803 0.8869 0.51095 0.0
Co99 Co 0.8928 0.88956 0.21938 0.0
C100 C 0.91655 0.8536 0.21722 0.0
C101 C 0.85777 0.85591 0.20514 0.0
C102 C 0.86509 0.83913 0.20525 0.0
N103 N 0.89039 0.86501 0.21218 0.0
N104 N 0.90206 0.8377 0.21297 0.0
H105 H 0.94487 0.85678 0.22476 0.0
H106 H 0.82985 0.86121 0.2011 0.0
C107 C 0.86323 0.88241 0.17368 0.0
O108 O 0.88935 0.87016 0.16887 0.0
N109 N 0.8942 0.91385 0.22698 0.0
C110 C 0.92441 0.92337 0.23646 0.0
C111 C 0.91292 0.94005 0.23989 0.0
C112 C 0.86471 0.92475 0.22484 0.0
N113 N 0.87534 0.94091 0.23261 0.0
C114 C 0.9769 0.88474 0.21434 0.0
C115 C 0.9847 0.89755 0.17684 0.0
C116 C 0.01818 0.89067 0.18526 0.0
C117 C 0.01409 0.88462 0.20459 0.0
C118 C 0.94803 0.89748 0.18722 0.0
N119 N 0.9439 0.89007 0.20493 0.0
H120 H 0.97503 0.88087 0.22978 0.0
H121 H 0.92324 0.90362 0.18108 0.0
H122 H 0.95271 0.91852 0.2407 0.0
H123 H 0.83579 0.92086 0.21821 0.0
O124 O 0.9113 0.88802 0.24783 0.0
O125 O 0.84793 0.88924 0.23837 0.0
O126 O 0.86196 0.89142 0.19264 0.0
C127 C 0.874 0.88798 0.25325 0.0
H128 H 0.84401 0.82892 0.2011 0.0
H129 H 0.93102 0.9507 0.24708 0.0
H130 H 0.98663 0.90282 0.16227 0.0
H131 H 0.03953 0.88006 0.21234 0.0
Co132 Co 0.10936 0.6397 0.97164 0.0
C133 C 0.08094 0.60477 0.96745 0.0
C134 C 0.13723 0.60565 0.95165 0.0
C135 C 0.12674 0.58899 0.95057 0.0
N136 N 0.10841 0.61548 0.96221 0.0
N137 N 0.09143 0.58845 0.96065 0.0
H138 H 0.0543 0.60891 0.97655 0.0
H139 H 0.16468 0.61023 0.94595 0.0
C140 C 0.13816 0.65268 0.93311 0.0
O141 O 0.10929 0.66386 0.93626 0.0
N142 N 0.1114 0.66411 0.98194 0.0
C143 C 0.08707 0.67366 -0.00361 0.0
C144 C 0.10173 0.68979 0.00135 0.0
C145 C 0.14182 0.67455 0.9794 0.0
N146 N 0.13616 0.6904 -0.0094 0.0
C147 C 0.02637 0.64704 0.96696 0.0
C148 C 0.0217 0.63364 0.92327 0.0
C149 C 0.98787 0.64095 0.9341 0.0
C150 C 0.9903 0.64761 0.95622 0.0
C151 C 0.05741 0.63367 0.93456 0.0
N152 N 0.05991 0.64099 0.95597 0.0
H153 H 0.02664 0.65078 0.98425 0.0
H154 H 0.0829 0.62748 0.92612 0.0
H155 H 0.0618 0.66922 0.00418 0.0
H156 H 0.16846 0.67048 0.97027 0.0
O157 O 0.08783 0.63688 -0.001 0.0
O158 O 0.15222 0.63732 -0.00882 0.0
O159 O 0.1421 0.64196 0.94556 0.0
C160 C 0.12451 0.63577 0.00513 0.0
H161 H 0.14476 0.57816 0.94382 0.0
H162 H 0.08829 0.70019 0.01239 0.0
H163 H 0.02054 0.62794 0.90626 0.0
H164 H 0.96419 0.65266 0.96528 0.0
Co165 Co 0.1059 0.63932 0.26206 0.0
C166 C 0.08221 0.67375 0.25772 0.0
C167 C 0.14095 0.67325 0.27094 0.0
C168 C 0.13196 0.6896 0.26917 0.0
N169 N 0.10966 0.66339 0.26385 0.0
N170 N 0.09501 0.68991 0.26084 0.0
H171 H 0.0534 0.66953 0.25126 0.0
H172 H 0.16853 0.66884 0.27674 0.0
C173 C 0.1363 0.63236 0.30389 0.0
O174 O 0.10736 0.62143 0.30371 0.0
N175 N 0.10326 0.61489 0.25978 0.0
C176 C 0.0717 0.60439 0.2567 0.0
C177 C 0.08485 0.58803 0.25467 0.0
C178 C 0.13519 0.60459 0.25916 0.0
N179 N 0.12479 0.58814 0.25621 0.0
C180 C 0.02147 0.63879 0.26766 0.0
C181 C 0.01993 0.65506 0.31039 0.0
C182 C 0.98431 0.64921 0.30021 0.0
C183 C 0.9852 0.64128 0.27846 0.0
C184 C 0.0557 0.65202 0.29904 0.0
N185 N 0.0564 0.64303 0.27831 0.0
H186 H 0.02136 0.63332 0.25064 0.0
H187 H 0.08259 0.65723 0.30688 0.0
H188 H 0.04114 0.6079 0.25538 0.0
H189 H 0.16547 0.60914 0.2609 0.0
O190 O 0.0849 0.63695 0.23324 0.0
O191 O 0.14896 0.63611 0.24143 0.0
O192 O 0.13892 0.64113 0.28903 0.0
C193 C 0.12158 0.63518 0.22667 0.0
H194 H 0.15153 0.70035 0.27327 0.0
H195 H 0.06635 0.57689 0.25156 0.0
H196 H 0.02019 0.66173 0.32703 0.0
H197 H 0.95803 0.63721 0.26982 0.0
Co198 Co 0.89245 0.38985 0.00997 0.0
C199 C 0.91645 0.42465 0.00798 0.0
C200 C 0.86011 0.42409 0.02387 0.0
C201 C 0.8691 0.44059 0.02291 0.0
N202 N 0.8899 0.41416 0.01458 0.0
N203 N 0.90449 0.44093 0.01285 0.0
H204 H 0.94386 0.42039 -0.00028 0.0
H205 H 0.83335 0.41963 0.03046 0.0
C206 C 0.8636 0.37998 0.0504 0.0
O207 O 0.89265 0.3689 0.04854 0.0
N208 N 0.89388 0.36523 0.00476 0.0
C209 C 0.92447 0.35451 -0.00118 0.0
C210 C 0.91045 0.33824 -0.00497 0.0
C211 C 0.86155 0.35518 0.00406 0.0
N212 N 0.87086 0.33865 -0.00171 0.0
C213 C 0.977 0.3878 0.01465 0.0
C214 C 0.98 0.40158 0.05825 0.0
C215 C 0.01504 0.39571 0.04743 0.0
C216 C 0.01348 0.38902 0.02529 0.0
C217 C 0.94397 0.39975 0.04704 0.0
N218 N 0.94246 0.39193 0.02579 0.0
H219 H 0.97666 0.38354 -0.00266 0.0
H220 H 0.91751 0.40493 0.05545 0.0
H221 H 0.95488 0.35785 -0.00332 0.0
H222 H 0.83165 0.35997 0.00722 0.0
O223 O 0.91267 0.3893 0.98129 0.0
O224 O 0.84876 0.38852 -0.01013 0.0
O225 O 0.86029 0.38996 0.03696 0.0
C226 C 0.87578 0.38833 0.97503 0.0
H227 H 0.85036 0.45143 0.02859 0.0
H228 H 0.92818 0.32697 -0.00986 0.0
H229 H 0.9804 0.40736 0.07525 0.0
H230 H 0.04033 0.38505 0.01623 0.0
Co231 Co 0.89275 0.3917 0.71941 0.0
C232 C 0.91568 0.35591 0.71926 0.0
C233 C 0.85763 0.35796 0.70613 0.0
C234 C 0.86458 0.34129 0.70703 0.0
N235 N 0.89011 0.36713 0.71326 0.0
N236 N 0.90108 0.34004 0.7154 0.0
H237 H 0.94356 0.35921 0.72726 0.0
H238 H 0.82998 0.36314 0.70152 0.0
C239 C 0.8624 0.38361 0.67402 0.0
O240 O 0.8896 0.37175 0.66957 0.0
N241 N 0.89419 0.416 0.72601 0.0
C242 C 0.92539 0.42581 0.73348 0.0
C243 C 0.9134 0.44242 0.7369 0.0
C244 C 0.8636 0.42667 0.72518 0.0
N245 N 0.87453 0.44295 0.73173 0.0
C246 C 0.97636 0.38621 0.7129 0.0
C247 C 0.98267 0.39909 0.67537 0.0
C248 C 0.01638 0.39198 0.68326 0.0
C249 C 0.01304 0.38589 0.70259 0.0
C250 C 0.94649 0.39921 0.6863 0.0
N251 N 0.94304 0.39179 0.70405 0.0
H252 H 0.97524 0.38243 0.72839 0.0
H253 H 0.92148 0.4055 0.68057 0.0
H254 H 0.95462 0.42119 0.73655 0.0
H255 H 0.83399 0.42256 0.71996 0.0
O256 O 0.91303 0.39094 0.74772 0.0
O257 O 0.84905 0.39186 0.73934 0.0
O258 O 0.86053 0.39285 0.69284 0.0
C259 C 0.87613 0.39099 0.75386 0.0
H260 H 0.84356 0.33105 0.70295 0.0
H261 H 0.93164 0.45324 0.74331 0.0
H262 H 0.98405 0.4044 0.66082 0.0
H263 H 0.03875 0.38119 0.70998 0.0
Co264 Co 0.60959 0.13987 0.9683 0.0
C265 C 0.58893 0.10454 0.97239 0.0
C266 C 0.64645 0.10612 0.95841 0.0
C267 C 0.63994 0.08964 0.96042 0.0
N268 N 0.61391 0.11542 0.96523 0.0
N269 N 0.60379 0.08872 0.96929 0.0
H270 H 0.56112 0.10803 0.98045 0.0
H271 H 0.67368 0.11105 0.95292 0.0
C272 C 0.64184 0.12922 0.92342 0.0
O273 O 0.61541 0.11705 0.9197 0.0
N274 N 0.60637 0.16411 0.97188 0.0
C275 C 0.57423 0.17377 0.97805 0.0
C276 C 0.58519 0.19046 0.9807 0.0
C277 C 0.63648 0.17497 0.97097 0.0
N278 N 0.62439 0.19121 0.97634 0.0
C279 C 0.52658 0.13281 0.96109 0.0
C280 C 0.5209 0.1439 0.92227 0.0
C281 C 0.48708 0.13722 0.93055 0.0
C282 C 0.49013 0.13187 0.95041 0.0
C283 C 0.55678 0.14461 0.93353 0.0
N284 N 0.55992 0.13822 0.9521 0.0
H285 H 0.52738 0.12987 0.97706 0.0
H286 H 0.58173 0.15072 0.92749 0.0
H287 H 0.54507 0.16902 0.98092 0.0
H288 H 0.66686 0.17101 0.96731 0.0
O289 O 0.58847 0.14132 -0.00301 0.0
O290 O 0.6526 0.14214 0.98881 0.0
O291 O 0.64264 0.13937 0.9416 0.0
C292 C 0.62522 0.1427 0.00353 0.0
H293 H 0.66079 0.07929 0.9565 0.0
H294 H 0.56576 0.20118 0.98564 0.0
H295 H 0.51973 0.1486 0.90725 0.0
H296 H 0.4643 0.12749 0.958 0.0
Co297 Co 0.61403 0.14103 0.25937 0.0
C298 C 0.58768 0.17629 0.26362 0.0
C299 C 0.64412 0.17473 0.27904 0.0
C300 C 0.63452 0.19151 0.28026 0.0
N301 N 0.6147 0.16525 0.2686 0.0
N302 N 0.59906 0.19247 0.27047 0.0
H303 H 0.56114 0.1725 0.25427 0.0
H304 H 0.67121 0.16982 0.28474 0.0
C305 C 0.6441 0.12683 0.29672 0.0
O306 O 0.6158 0.11545 0.29306 0.0
N307 N 0.61433 0.11664 0.24952 0.0
C308 C 0.58506 0.10636 0.24021 0.0
C309 C 0.59953 0.09014 0.23501 0.0
C310 C 0.64651 0.10652 0.24913 0.0
N311 N 0.63813 0.09023 0.24073 0.0
C312 C 0.52965 0.13771 0.26341 0.0
C313 C 0.52644 0.14663 0.30794 0.0
C314 C 0.49104 0.14254 0.29641 0.0
C315 C 0.49295 0.13826 0.27381 0.0
C316 C 0.56246 0.14601 0.29686 0.0
N317 N 0.56412 0.14064 0.27494 0.0
H318 H 0.53004 0.13542 0.24598 0.0
H319 H 0.58876 0.15034 0.306 0.0
H320 H 0.55535 0.11009 0.23691 0.0
H321 H 0.67556 0.11105 0.25486 0.0
O322 O 0.59325 0.14387 0.23188 0.0
O323 O 0.65739 0.14264 0.23975 0.0
O324 O 0.64665 0.13835 0.28534 0.0
C325 C 0.63002 0.1444 0.22572 0.0
H326 H 0.65262 0.20215 0.2875 0.0
H327 H 0.58266 0.07911 0.22779 0.0
H328 H 0.52643 0.15036 0.3254 0.0
H329 H 0.46622 0.13583 0.26415 0.0
Co330 Co 0.39167 0.89104 0.00945 0.0
C331 C 0.41869 0.92617 0.01292 0.0
C332 C 0.3588 0.92495 0.02436 0.0
C333 C 0.36832 0.94161 0.02473 0.0
N334 N 0.39039 0.91534 0.01693 0.0
N335 N 0.40594 0.94233 0.0175 0.0
H336 H 0.44722 0.92223 0.00573 0.0
H337 H 0.33034 0.92014 0.02837 0.0
C338 C 0.36039 0.87981 0.04896 0.0
O339 O 0.38865 0.86837 0.04717 0.0
N340 N 0.39188 0.86649 0.00133 0.0
C341 C 0.41952 0.85644 -0.01018 0.0
C342 C 0.40566 0.84015 0.98542 0.0
C343 C 0.36092 0.85611 0.00297 0.0
N344 N 0.36884 0.83993 -0.00625 0.0
C345 C 0.47557 0.887 0.01474 0.0
C346 C 0.47765 0.89856 0.0589 0.0
C347 C 0.51291 0.89286 0.04808 0.0
C348 C 0.51169 0.88733 0.02563 0.0
C349 C 0.44216 0.89804 0.04733 0.0
N350 N 0.44095 0.89131 0.02571 0.0
H351 H 0.47586 0.88378 -0.00264 0.0
H352 H 0.41592 0.90345 0.05576 0.0
H353 H 0.44712 0.8605 0.98387 0.0
H354 H 0.33262 0.86041 0.01015 0.0
O355 O 0.41348 0.89269 0.98173 0.0
O356 O 0.34906 0.89169 0.98912 0.0
O357 O 0.35811 0.88982 0.03552 0.0
C358 C 0.37689 0.89294 0.97514 0.0
H359 H 0.34879 0.95233 0.02952 0.0
H360 H 0.4214 0.82932 0.97654 0.0
H361 H 0.47761 0.90372 0.07609 0.0
H362 H 0.53838 0.88327 0.01649 0.0
Co363 Co 0.39098 0.891 0.71763 0.0
C364 C 0.41213 0.85521 0.71967 0.0
C365 C 0.35139 0.85806 0.71093 0.0
C366 C 0.35767 0.84148 0.7125 0.0
N367 N 0.38575 0.86666 0.71498 0.0
N368 N 0.39595 0.83969 0.718 0.0
H369 H 0.44186 0.85816 0.72538 0.0
H370 H 0.32335 0.86357 0.70748 0.0
C371 C 0.35625 0.87969 0.67354 0.0
O372 O 0.3813 0.86696 0.67013 0.0
N373 N 0.39497 0.91517 0.72069 0.0
C374 C 0.42717 0.92476 0.7268 0.0
C375 C 0.41661 0.94146 0.72863 0.0
C376 C 0.36525 0.92607 0.71903 0.0
N377 N 0.37762 0.94229 0.72379 0.0
C378 C 0.47392 0.88408 0.71044 0.0
C379 C 0.47883 0.8936 0.67061 0.0
C380 C 0.51307 0.88766 0.67945 0.0
C381 C 0.51035 0.88306 0.69977 0.0
C382 C 0.44293 0.8944 0.68188 0.0
N383 N 0.44025 0.88882 0.70105 0.0
H384 H 0.47331 0.88166 0.7267 0.0
H385 H 0.41773 0.90007 0.67541 0.0
H386 H 0.45601 0.91997 0.73026 0.0
H387 H 0.33513 0.92214 0.71472 0.0
O388 O 0.41282 0.89255 0.74615 0.0
O389 O 0.34854 0.89387 0.7386 0.0
O390 O 0.35722 0.89043 0.69123 0.0
C391 C 0.37634 0.8943 0.75306 0.0
H392 H 0.33559 0.83158 0.70997 0.0
H393 H 0.4359 0.95215 0.73391 0.0
H394 H 0.47976 0.89771 0.6552 0.0
H395 H 0.53644 0.87925 0.70773 0.0
Co396 Co 0.60936 0.64068 0.47146 0.0
C397 C 0.58303 0.60558 0.46778 0.0
C398 C 0.63977 0.60681 0.45256 0.0
C399 C 0.63003 0.59008 0.45164 0.0
N400 N 0.6102 0.61644 0.46266 0.0
N401 N 0.59443 0.58935 0.46135 0.0
H402 H 0.55587 0.60956 0.47647 0.0
H403 H 0.66715 0.61157 0.44702 0.0
C404 C 0.63952 0.65379 0.43333 0.0
O405 O 0.61058 0.66494 0.43621 0.0
N406 N 0.60958 0.66513 0.48101 0.0
C407 C 0.58222 0.67504 0.49295 0.0
C408 C 0.59644 0.69125 0.49797 0.0
C409 C 0.64086 0.67546 0.47992 0.0
N410 N 0.63331 0.69154 0.48971 0.0
C411 C 0.52561 0.64568 0.46592 0.0
C412 C 0.52383 0.63331 0.42191 0.0
C413 C 0.48879 0.63939 0.43253 0.0
C414 C 0.48972 0.64551 0.45481 0.0
C415 C 0.55926 0.63409 0.43358 0.0
N416 N 0.56027 0.64101 0.45516 0.0
H417 H 0.52497 0.64881 0.48329 0.0
H418 H 0.58564 0.62865 0.4253 0.0
H419 H 0.55461 0.67095 0.49882 0.0
H420 H 0.66906 0.67117 0.47263 0.0
O421 O 0.58734 0.63813 0.49883 0.0
O422 O 0.65183 0.6392 0.4916 0.0
O423 O 0.64281 0.64294 0.44564 0.0
C424 C 0.6239 0.63758 0.50539 0.0
H425 H 0.64863 0.57936 0.44521 0.0
H426 H 0.58082 0.70196 0.50722 0.0
H427 H 0.52379 0.62793 0.40478 0.0
H428 H 0.46268 0.64951 0.46367 0.0
Co429 Co 0.60592 0.64139 0.76304 0.0
C430 C 0.58153 0.67589 0.75922 0.0
C431 C 0.64108 0.67521 0.77133 0.0
C432 C 0.63225 0.69153 0.76942 0.0
N433 N 0.60926 0.66547 0.76497 0.0
N434 N 0.59482 0.69195 0.76178 0.0
H435 H 0.55266 0.6717 0.75281 0.0
H436 H 0.66892 0.67072 0.77673 0.0
C437 C 0.63678 0.63467 0.80497 0.0
O438 O 0.60854 0.62343 0.80482 0.0
N439 N 0.6039 0.61695 0.76065 0.0
C440 C 0.57299 0.60623 0.75608 0.0
C441 C 0.58664 0.58995 0.75408 0.0
C442 C 0.63602 0.60688 0.76083 0.0
N443 N 0.62632 0.59033 0.75708 0.0
C444 C 0.52156 0.64033 0.76871 0.0
C445 C 0.51971 0.65645 0.8115 0.0
C446 C 0.48426 0.65035 0.80133 0.0
C447 C 0.4853 0.6425 0.77956 0.0
C448 C 0.5555 0.65373 0.8001 0.0
N449 N 0.55641 0.64481 0.77934 0.0
H450 H 0.52145 0.63505 0.75164 0.0
H451 H 0.58223 0.65913 0.80793 0.0
H452 H 0.54269 0.60956 0.75351 0.0
H453 H 0.66595 0.61168 0.76365 0.0
O454 O 0.58477 0.63903 0.73426 0.0
O455 O 0.64891 0.63839 0.74235 0.0
O456 O 0.63897 0.64334 0.79 0.0
C457 C 0.62142 0.63741 0.72763 0.0
H458 H 0.65189 0.70227 0.77344 0.0
H459 H 0.56875 0.57869 0.7499 0.0
H460 H 0.51983 0.66308 0.82815 0.0
H461 H 0.45822 0.63828 0.77091 0.0
Co462 Co 0.39293 0.39112 0.50897 0.0
C463 C 0.41852 0.42591 0.50853 0.0
C464 C 0.36208 0.42544 0.52433 0.0
C465 C 0.3716 0.44196 0.52377 0.0
N466 N 0.39162 0.41545 0.51485 0.0
N467 N 0.40703 0.44223 0.51374 0.0
H468 H 0.44566 0.4216 0.50002 0.0
H469 H 0.33496 0.42102 0.53059 0.0
C470 C 0.36224 0.38076 0.54918 0.0
O471 O 0.38934 0.36883 0.54716 0.0
N472 N 0.39341 0.36655 0.50262 0.0
C473 C 0.42408 0.35587 0.49669 0.0
C474 C 0.41029 0.33958 0.49331 0.0
C475 C 0.36118 0.35648 0.50213 0.0
N476 N 0.37077 0.33994 0.49679 0.0
C477 C 0.47749 0.38898 0.51244 0.0
C478 C 0.48247 0.39915 0.55676 0.0
C479 C 0.5173 0.39435 0.54494 0.0
C480 C 0.51453 0.38964 0.52242 0.0
C481 C 0.44596 0.39836 0.54606 0.0
N482 N 0.44345 0.39222 0.52432 0.0
H483 H 0.47635 0.38574 0.49503 0.0
H484 H 0.42001 0.403 0.55535 0.0
H485 H 0.4544 0.35932 0.49442 0.0
H486 H 0.33142 0.3612 0.50599 0.0
O487 O 0.41257 0.39151 0.48041 0.0
O488 O 0.34882 0.39087 0.48927 0.0
O489 O 0.36093 0.3909 0.53587 0.0
C490 C 0.37556 0.39151 0.47451 0.0
H491 H 0.35308 0.45285 0.52954 0.0
H492 H 0.42796 0.32832 0.48818 0.0
H493 H 0.48326 0.40334 0.57415 0.0
H494 H 0.54082 0.38663 0.5125 0.0
Co495 Co 0.39277 0.38919 0.21834 0.0
C496 C 0.41613 0.35459 0.22204 0.0
C497 C 0.35965 0.355 0.20626 0.0
C498 C 0.36826 0.33861 0.20805 0.0
N499 N 0.38972 0.36495 0.215 0.0
N500 N 0.40376 0.33836 0.21803 0.0
H501 H 0.4433 0.35898 0.23043 0.0
H502 H 0.33308 0.35935 0.19933 0.0
C503 C 0.36474 0.39777 0.17697 0.0
O504 O 0.39396 0.40869 0.17831 0.0
N505 N 0.3947 0.41376 0.2222 0.0
C506 C 0.42579 0.42442 0.22658 0.0
C507 C 0.41223 0.44074 0.22906 0.0
C508 C 0.36256 0.42392 0.2226 0.0
N509 N 0.37247 0.44045 0.22655 0.0
C510 C 0.47745 0.39058 0.214 0.0
C511 C 0.48108 0.37578 0.17074 0.0
C512 C 0.51601 0.38178 0.18155 0.0
C513 C 0.51413 0.38895 0.20354 0.0
C514 C 0.44487 0.37801 0.18177 0.0
N515 N 0.44307 0.38636 0.20278 0.0
H516 H 0.47677 0.39541 0.2312 0.0
H517 H 0.41847 0.37276 0.1734 0.0
H518 H 0.45628 0.42104 0.22846 0.0
H519 H 0.33252 0.41924 0.21988 0.0
O520 O 0.41234 0.39061 0.24731 0.0
O521 O 0.34865 0.39137 0.23827 0.0
O522 O 0.36113 0.38831 0.19102 0.0
C523 C 0.37532 0.39191 0.25335 0.0
H524 H 0.34971 0.32775 0.20237 0.0
H525 H 0.43026 0.45199 0.23309 0.0
H526 H 0.48169 0.36964 0.15388 0.0
H527 H 0.54084 0.39307 0.2126 0.0
C528 C 0.13576 0.22177 0.46694 0.0
C529 C 0.15071 0.20667 0.47195 0.0
C530 C 0.15933 0.23625 0.46949 0.0
C531 C 0.24839 0.25562 0.49855 0.0
H532 H 0.24278 0.28575 0.45734 0.0
C533 C 0.35954 0.31005 0.49892 0.0
C534 C 0.3448 0.32554 0.49509 0.0
C535 C 0.33506 0.29587 0.49657 0.0
C536 C 0.24432 0.27757 0.46914 0.0
H537 H 0.2027 0.19503 0.48333 0.0
H538 H 0.24413 0.22016 0.48729 0.0
H539 H 0.20279 0.26012 0.45157 0.0
H540 H 0.29255 0.33825 0.48593 0.0
H541 H 0.24954 0.31343 0.48192 0.0
H542 H 0.2902 0.27301 0.516 0.0
C543 C 0.21384 0.22086 0.4817 0.0
C544 C 0.22141 0.26286 0.46583 0.0
C545 C 0.19022 0.20636 0.47917 0.0
C546 C 0.30473 0.32655 0.48912 0.0
C547 C 0.28024 0.31229 0.48662 0.0
C548 C 0.27138 0.27029 0.50182 0.0
C549 C 0.19858 0.23604 0.47708 0.0
C550 C 0.22321 0.25166 0.48047 0.0
C551 C 0.2952 0.29676 0.49024 0.0
C552 C 0.26971 0.28143 0.48712 0.0
H553 H 0.1057 0.22245 0.46106 0.0
H554 H 0.14643 0.24772 0.46593 0.0
H555 H 0.24996 0.24748 0.5104 0.0
H556 H 0.39008 0.30889 0.50382 0.0
H557 H 0.34765 0.28409 0.49932 0.0
C558 C 0.96208 0.9583 0.50801 0.0
C559 C 0.92034 0.95755 0.50837 0.0
C560 C 0.98147 0.97285 0.50438 0.0
C561 C 0.96608 1.01123 0.48119 0.0
H562 H 0.05842 0.02783 0.51546 0.0
C563 C 0.03811 0.07558 0.47679 0.0
C564 C 0.07988 0.07636 0.477 0.0
C565 C 0.01838 0.06128 0.481 0.0
C566 C 0.03294 0.02327 0.50556 0.0
H567 H 0.86635 0.97149 0.50483 0.0
H568 H 0.90008 0.99687 0.49878 0.0
H569 H 0.02499 1.00239 0.52172 0.0
H570 H 0.13345 0.0627 0.48233 0.0
H571 H 0.09922 0.03773 0.48912 0.0
H572 H 0.97414 0.03201 0.46492 0.0
C573 C 0.91786 0.98618 0.50119 0.0
C574 C 0.01377 1.00868 0.50917 0.0
C575 C 0.8985 0.97168 0.50491 0.0
C576 C 0.10133 0.06252 0.48173 0.0
C577 C 0.08163 0.04823 0.48592 0.0
C578 C 0.98531 0.02579 0.47754 0.0
C579 C 0.95958 0.98697 0.50091 0.0
C580 C 0.98011 1.00247 0.49702 0.0
C581 C 0.03989 0.04739 0.48555 0.0
C582 C 0.01903 0.03201 0.48966 0.0
H583 H 0.97981 0.94771 0.51079 0.0
H584 H 0.01365 0.97297 0.50408 0.0
H585 H 0.94056 1.00666 0.47133 0.0
H586 H 0.02058 0.0859 0.47303 0.0
H587 H 0.9862 0.06116 0.48081 0.0
C588 C 0.20264 0.0781 0.73907 0.0
C589 C 0.16127 0.07652 0.74112 0.0
C590 C 0.22744 0.06395 0.73756 0.0
C591 C 0.23047 0.02078 0.74952 0.0
H592 H 0.31419 1.01326 0.70642 0.0
C593 C 0.31261 0.95706 0.72828 0.0
C594 C 0.35391 0.95739 0.72494 0.0
C595 C 0.28999 0.97182 0.73024 0.0
C596 C 0.29127 0.01526 0.71872 0.0
H597 H 0.11376 0.0589 0.74381 0.0
H598 H 0.1567 0.03434 0.74092 0.0
H599 H 0.27394 0.03886 0.71058 0.0
H600 H 0.40345 0.97356 0.72045 0.0
H601 H 0.36419 0.99931 0.72433 0.0
H602 H 0.24767 0.99724 0.75772 0.0
C603 C 0.1701 0.04647 0.74054 0.0
C604 C 0.26822 0.02995 0.72111 0.0
C605 C 0.14539 0.06054 0.74193 0.0
C606 C 0.37185 0.97284 0.72329 0.0
C607 C 0.34922 0.9876 0.72527 0.0
C608 C 0.25354 1.00613 0.74718 0.0
C609 C 0.2114 0.04797 0.73827 0.0
C610 C 0.23732 0.0328 0.73641 0.0
C611 C 0.30803 0.98731 0.72893 0.0
C612 C 0.28403 1.0031 0.73163 0.0
H613 H 0.21579 0.09019 0.73827 0.0
H614 H 0.25919 0.06555 0.73598 0.0
H615 H 0.20735 0.02272 0.76172 0.0
H616 H 0.29773 0.94548 0.72982 0.0
H617 H 0.25824 0.97107 0.73273 0.0
C618 C 0.94647 0.32636 0.73791 0.0
C619 C 0.91933 0.32512 0.72068 0.0
C620 C 0.96403 0.3119 0.74305 0.0
C621 C 0.98766 0.26746 0.72001 0.0
H622 H 0.9998 0.26339 0.78012 0.0
C623 C 0.04334 0.20595 0.74457 0.0
C624 C 0.07029 0.20748 0.76193 0.0
C625 C 0.02393 0.22014 0.73979 0.0
C626 C 0.99705 0.2644 0.76326 0.0
H627 H 0.88961 0.30767 0.6953 0.0
H628 H 0.91996 0.28239 0.70439 0.0
H629 H 0.96804 0.2884 0.77122 0.0
H630 H 0.09723 0.22523 0.78809 0.0
H631 H 0.06406 0.24999 0.7795 0.0
H632 H 0.01692 0.24354 0.71203 0.0
C633 C 0.92787 0.29459 0.71383 0.0
C634 C 0.97881 0.27874 0.75816 0.0
C635 C 0.91017 0.30905 0.70874 0.0
C636 C 0.077 0.22357 0.77449 0.0
C637 C 0.0576 0.23777 0.7697 0.0
C638 C 0.00598 0.25314 0.72511 0.0
C639 C 0.955 0.29583 0.73106 0.0
C640 C 0.97395 0.28047 0.73647 0.0
C641 C 0.03096 0.23625 0.75222 0.0
C642 C 0.01098 0.25143 0.7468 0.0
H643 H 0.95382 0.33849 0.74765 0.0
H644 H 0.98506 0.31334 0.75629 0.0
H645 H 0.98493 0.26849 0.70316 0.0
H646 H 0.03769 0.19383 0.73436 0.0
H647 H 0.00326 0.21845 0.72637 0.0
C648 C 0.8152 0.82526 0.51116 0.0
C649 C 0.84609 0.82542 0.49615 0.0
C650 C 0.79193 0.81081 0.51051 0.0
C651 C 0.76125 0.77132 0.47445 0.0
H652 H 0.73825 0.75606 0.528 0.0
C653 C 0.68819 0.70663 0.47525 0.0
C654 C 0.65891 0.70605 0.49104 0.0
C655 C 0.71163 0.72105 0.47602 0.0
C656 C 0.74399 0.76024 0.51291 0.0
H657 H 0.87592 0.8107 0.46831 0.0
H658 H 0.83558 0.78552 0.46725 0.0
H659 H 0.77637 0.78186 0.52889 0.0
H660 H 0.63228 0.72008 0.5204 0.0
H661 H 0.67229 0.74524 0.52146 0.0
H662 H 0.72864 0.74982 0.45845 0.0
C663 C 0.82928 0.79655 0.47951 0.0
C664 C 0.76583 0.77504 0.51344 0.0
C665 C 0.85269 0.81092 0.48026 0.0
C666 C 0.65413 0.72013 0.50781 0.0
C667 C 0.67749 0.73452 0.50857 0.0
C668 C 0.73925 0.75657 0.47392 0.0
C669 C 0.79881 0.79626 0.49471 0.0
C670 C 0.77478 0.78074 0.49421 0.0
C671 C 0.70637 0.73523 0.49262 0.0
C672 C 0.73035 0.75082 0.49315 0.0
H673 H 0.8096 0.83619 0.52367 0.0
H674 H 0.76843 0.81104 0.52233 0.0
H675 H 0.76721 0.77549 0.45937 0.0
H676 H 0.69247 0.6961 0.46201 0.0
H677 H 0.73393 0.72106 0.46361 0.0
C678 C 0.82056 0.95637 0.21847 0.0
C679 C 0.8516 0.95595 0.23334 0.0
C680 C 0.79802 0.97106 0.21906 0.0
C681 C 0.77038 1.01126 0.25506 0.0
H682 H 0.7412 0.02513 0.20141 0.0
C683 C 0.69571 0.07571 0.25369 0.0
C684 C 0.66415 0.07579 0.23906 0.0
C685 C 0.71956 0.06135 0.25273 0.0
C686 C 0.74876 0.02136 0.21654 0.0
H687 H 0.8826 0.97066 0.26075 0.0
H688 H 0.84387 0.99624 0.26153 0.0
H689 H 0.77999 0.99944 0.20036 0.0
H690 H 0.63374 0.06095 0.21156 0.0
H691 H 0.67483 0.03591 0.21007 0.0
H692 H 0.73906 0.03313 0.27125 0.0
C693 C 0.83673 0.98519 0.2495 0.0
C694 C 0.77098 1.0066 0.21594 0.0
C695 C 0.8593 0.97055 0.24888 0.0
C696 C 0.6575 0.06128 0.22322 0.0
C697 C 0.68137 0.04696 0.22222 0.0
C698 C 0.74816 0.02601 0.25567 0.0
C699 C 0.80585 0.98566 0.23457 0.0
C700 C 0.78204 1.00135 0.23519 0.0
C701 C 0.71253 0.04675 0.23706 0.0
C702 C 0.737 0.03124 0.23642 0.0
H703 H 0.81399 0.94544 0.20618 0.0
H704 H 0.77419 0.9709 0.20746 0.0
H705 H 0.77785 1.00746 0.2702 0.0
H706 H 0.70144 0.08659 0.26623 0.0
H707 H 0.74356 0.0617 0.26428 0.0
C708 C 0.9498 0.82356 0.23377 0.0
C709 C 0.92079 0.8226 0.21748 0.0
C710 C 0.96758 0.80894 0.2383 0.0
C711 C 0.98659 0.76396 0.21505 0.0
H712 H 0.00711 0.76081 0.27481 0.0
C713 C 0.04438 0.70262 0.24007 0.0
C714 C 0.07407 0.70444 0.25609 0.0
C715 C 0.02464 0.71676 0.23529 0.0
C716 C 0.00196 0.76154 0.25802 0.0
H717 H 0.88818 0.80539 0.19305 0.0
H718 H 0.91874 0.77986 0.2012 0.0
H719 H 0.97483 0.78588 0.26653 0.0
H720 H 0.10562 0.72265 0.27986 0.0
H721 H 0.07176 0.74724 0.27132 0.0
H722 H 0.01383 0.7396 0.20656 0.0
C723 C 0.92798 0.79197 0.21034 0.0
C724 C 0.98345 0.77594 0.25326 0.0
C725 C 0.91014 0.80661 0.20582 0.0
C726 C 0.08328 0.72075 0.26728 0.0
C727 C 0.06349 0.73487 0.26254 0.0
C728 C 0.00509 0.74954 0.21981 0.0
C729 C 0.95687 0.79295 0.22669 0.0
C730 C 0.97574 0.77739 0.23171 0.0
C731 C 0.03396 0.73307 0.24646 0.0
C732 C 0.01323 0.74819 0.24136 0.0
H733 H 0.95846 0.83559 0.24332 0.0
H734 H 0.99003 0.81021 0.25083 0.0
H735 H 0.98159 0.76473 0.19826 0.0
H736 H 0.03675 0.69029 0.23099 0.0
H737 H 0.00182 0.7149 0.22294 0.0
C738 C 0.31627 0.82447 0.00949 0.0
C739 C 0.34356 0.82538 -0.00717 0.0
C740 C 0.29349 0.80992 0.00915 0.0
C741 C 0.25666 0.77156 0.97275 0.0
H742 H 0.24672 0.75388 0.02569 0.0
C743 C 0.18684 0.70617 0.97382 0.0
C744 C 0.16146 0.70494 -0.00878 0.0
C745 C 0.20974 0.72068 0.974 0.0
C746 C 0.24878 0.75872 0.01081 0.0
H747 H 0.36723 0.81192 0.96237 0.0
H748 H 0.32775 0.78657 0.96183 0.0
H749 H 0.28346 0.77991 0.02594 0.0
H750 H 0.14141 0.71791 0.02278 0.0
H751 H 0.18037 0.7432 0.02287 0.0
H752 H 0.22175 0.75046 0.95764 0.0
C753 C 0.32391 0.79708 0.97517 0.0
C754 C 0.26985 0.77368 0.01097 0.0
C755 C 0.34685 0.81156 0.97559 0.0
C756 C 0.16014 0.71845 0.00896 0.0
C757 C 0.18295 0.73293 0.00913 0.0
C758 C 0.23544 0.75664 0.97261 0.0
C759 C 0.29723 0.796 -0.00796 0.0
C760 C 0.27407 0.78028 -0.00806 0.0
C761 C 0.20787 0.73431 -0.00839 0.0
C762 C 0.2312 0.75002 -0.00836 0.0
H763 H 0.31326 0.83485 0.02306 0.0
H764 H 0.2729 0.80956 0.02229 0.0
H765 H 0.25895 0.77641 0.95787 0.0
H766 H 0.18841 0.69609 0.95982 0.0
H767 H 0.22897 0.7212 0.96034 0.0
C768 C 0.9504 0.45401 -0.01008 0.0
C769 C 0.92429 0.45555 0.00766 0.0
C770 C 0.96872 0.46827 0.98461 0.0
C771 C 0.99547 0.51255 0.00751 0.0
H772 H 0.00306 0.51708 0.94736 0.0
C773 C 0.04571 0.57472 0.98299 0.0
C774 C 0.07136 0.57363 0.9651 0.0
C775 C 0.02762 0.56028 0.98783 0.0
C776 C 0.00162 0.51594 0.96422 0.0
H777 H 0.8977 0.47336 0.03393 0.0
H778 H 0.92916 0.49818 0.02453 0.0
H779 H 0.97263 0.49194 0.9566 0.0
H780 H 0.09721 0.55636 0.93803 0.0
H781 H 0.06627 0.53116 0.9467 0.0
H782 H 0.02451 0.53649 0.01516 0.0
C783 C 0.93569 0.48593 0.01479 0.0
C784 C 0.98416 0.50151 0.96952 0.0
C785 C 0.91728 0.4717 0.02005 0.0
C786 C 0.07799 0.5577 0.95204 0.0
C787 C 0.05987 0.54324 0.95689 0.0
C788 C 0.01297 0.52695 0.00221 0.0
C789 C 0.96155 0.48442 -0.00305 0.0
C790 C 0.98074 0.49965 -0.00876 0.0
C791 C 0.03466 0.54432 0.97495 0.0
C792 C 0.01617 0.52888 0.98051 0.0
H793 H 0.95622 0.44183 0.97988 0.0
H794 H 0.98876 0.46661 0.9709 0.0
H795 H 0.99395 0.51142 0.02437 0.0
H796 H 0.04016 0.58669 -0.00641 0.0
H797 H 0.00798 0.56165 0.00169 0.0
C798 C 0.13624 0.55833 0.259 0.0
C799 C 0.15052 0.57358 0.25419 0.0
C800 C 0.16033 0.54396 0.25614 0.0
C801 C 0.24919 0.52508 0.22642 0.0
H802 H 0.24601 0.49487 0.26759 0.0
C803 C 0.36073 0.47026 0.22398 0.0
C804 C 0.34645 0.45489 0.22841 0.0
C805 C 0.33632 0.48452 0.22668 0.0
C806 C 0.24687 0.50306 0.25579 0.0
H807 H 0.20178 0.58563 0.24281 0.0
H808 H 0.24414 0.56064 0.23821 0.0
H809 H 0.20557 0.52042 0.27386 0.0
H810 H 0.29497 0.44249 0.23896 0.0
H811 H 0.25209 0.46737 0.24343 0.0
H812 H 0.2906 0.50774 0.2084 0.0
C813 C 0.214 0.55976 0.24393 0.0
C814 C 0.22373 0.51773 0.2594 0.0
C815 C 0.18986 0.57416 0.24681 0.0
C816 C 0.30685 0.45408 0.23527 0.0
C817 C 0.28241 0.46839 0.23806 0.0
C818 C 0.27237 0.51042 0.22283 0.0
C819 C 0.19943 0.54444 0.24842 0.0
C820 C 0.22458 0.52894 0.24477 0.0
C821 C 0.29695 0.48382 0.23392 0.0
C822 C 0.27154 0.49923 0.23748 0.0
H823 H 0.10633 0.55745 0.26499 0.0
H824 H 0.14797 0.53237 0.2596 0.0
H825 H 0.25006 0.53326 0.21461 0.0
H826 H 0.39088 0.47129 0.2184 0.0
H827 H 0.34862 0.49621 0.22351 0.0
C828 C 0.68388 0.20617 0.96635 0.0
C829 C 0.64848 0.20623 0.97825 0.0
C830 C 0.70713 0.22075 0.96828 0.0
C831 C 0.72631 0.26165 0.00472 0.0
H832 H 0.77424 0.27367 0.95368 0.0
C833 C 0.8086 0.32505 0.00727 0.0
C834 C 0.84432 0.32436 -0.00447 0.0
C835 C 0.78358 0.31096 0.00495 0.0
C836 C 0.76138 0.27042 0.96813 0.0
H837 H 0.61026 0.22172 0.0018 0.0
H838 H 0.65026 0.24711 0.00483 0.0
H839 H 0.73351 0.24834 0.95012 0.0
H840 H 0.8811 0.30839 0.97173 0.0
H841 H 0.83809 0.28386 0.968 0.0
H842 H 0.75434 0.28368 0.02275 0.0
C843 C 0.66026 0.23577 -0.00588 0.0
C844 C 0.73806 0.25587 0.96609 0.0
C845 C 0.63702 0.22122 -0.00784 0.0
C846 C 0.85413 0.30933 0.98124 0.0
C847 C 0.82915 0.2953 0.97889 0.0
C848 C 0.74966 0.27619 0.00677 0.0
C849 C 0.69561 0.23574 0.98221 0.0
C850 C 0.72032 0.25127 0.98436 0.0
C851 C 0.79363 0.29589 -0.00924 0.0
C852 C 0.76764 0.28072 0.98851 0.0
H853 H 0.69347 0.19491 0.95537 0.0
H854 H 0.73439 0.22023 0.95902 0.0
H855 H 0.71356 0.25836 0.01918 0.0
H856 H 0.8003 0.33638 0.01854 0.0
H857 H 0.75625 0.31191 0.0142 0.0
C858 C 0.63776 0.56029 0.75873 0.0
C859 C 0.65255 0.57596 0.75563 0.0
C860 C 0.66254 0.54617 0.75652 0.0
C861 C 0.75758 0.52913 0.73181 0.0
H862 H 0.74468 0.49681 0.76978 0.0
C863 C 0.86639 0.47349 0.73217 0.0
C864 C 0.84976 0.45778 0.73371 0.0
C865 C 0.8427 0.48798 0.73472 0.0
C866 C 0.74838 0.50563 0.7589 0.0
H867 H 0.70553 0.58896 0.74798 0.0
H868 H 0.749 0.56443 0.74467 0.0
H869 H 0.70363 0.52216 0.77516 0.0
H870 H 0.79505 0.44505 0.73914 0.0
H871 H 0.75364 0.47031 0.74341 0.0
H872 H 0.80258 0.51259 0.71565 0.0
C873 C 0.71794 0.56303 0.74847 0.0
C874 C 0.72484 0.52017 0.76198 0.0
C875 C 0.69307 0.57718 0.75063 0.0
C876 C 0.80877 0.4569 0.73768 0.0
C877 C 0.78511 0.47142 0.74036 0.0
C878 C 0.78127 0.5146 0.72879 0.0
C879 C 0.70293 0.54731 0.75126 0.0
C880 C 0.72896 0.53208 0.7484 0.0
C881 C 0.80183 0.48714 0.739 0.0
C882 C 0.77682 0.50264 0.74224 0.0
H883 H 0.60692 0.55888 0.76289 0.0
H884 H 0.64978 0.53426 0.75857 0.0
H885 H 0.76117 0.53786 0.72082 0.0
H886 H 0.89775 0.47459 0.7289 0.0
H887 H 0.85657 0.49991 0.73372 0.0
C888 C 0.5912 0.05802 0.96206 0.0
C889 C 0.58548 0.07402 0.97501 0.0
C890 C 0.57268 0.04379 0.96727 0.0
C891 C 0.48993 0.03136 0.00052 0.0
H892 H 0.54156 0.98768 0.98731 0.0
C893 C 0.40578 0.97032 0.00701 0.0
C894 C 0.42669 0.95707 0.01355 0.0
C895 C 0.42584 0.9845 0.00275 0.0
C896 C 0.52682 0.9998 -0.0086 0.0
H897 H 0.55694 0.08758 0.00396 0.0
H898 H 0.52562 0.06278 0.01352 0.0
H899 H 0.57591 1.01245 0.97994 0.0
H900 H 0.48495 0.94838 0.0211 0.0
H901 H 0.52005 0.97336 0.01439 0.0
H902 H 0.44158 0.01887 0.01284 0.0
C903 C 0.54329 0.0612 -0.00111 0.0
C904 C 0.54634 1.01403 0.98682 0.0
C905 C 0.56135 0.07546 -0.00652 0.0
C906 C 0.46814 0.95835 0.01588 0.0
C907 C 0.48822 0.97265 0.01192 0.0
C908 C 0.47064 0.01718 0.00535 0.0
C909 C 0.5484 0.04516 0.98577 0.0
C910 C 0.52807 0.03001 -0.00883 0.0
C911 C 0.46736 0.98593 0.00523 0.0
C912 C 0.48862 1.00115 0.00069 0.0
H913 H 0.60929 0.05659 0.9476 0.0
H914 H 0.57683 0.03178 0.9565 0.0
H915 H 0.47452 0.04335 0.00387 0.0
H916 H 0.37392 0.96956 0.00468 0.0
H917 H 0.40872 0.9942 -0.00286 0.0
C918 C 0.46486 0.32389 0.22719 0.0
C919 C 0.42352 0.32388 0.22378 0.0
C920 C 0.48388 0.30984 0.23272 0.0
C921 C 0.47111 0.26396 0.23054 0.0
H922 H 0.5542 0.26995 0.27397 0.0
C923 C 0.53782 0.20754 0.26308 0.0
C924 C 0.57912 0.20748 0.2665 0.0
C925 C 0.51871 0.22187 0.25845 0.0
C926 C 0.53136 0.26804 0.26164 0.0
H927 H 0.36985 0.30905 0.22404 0.0
H928 H 0.40292 0.28464 0.23354 0.0
H929 H 0.52158 0.29462 0.26458 0.0
H930 H 0.63262 0.22257 0.26761 0.0
H931 H 0.59944 0.24747 0.2595 0.0
H932 H 0.48097 0.23741 0.22748 0.0
C933 C 0.42076 0.29542 0.23161 0.0
C934 C 0.51265 0.2822 0.25624 0.0
C935 C 0.40176 0.30946 0.22612 0.0
C936 C 0.60073 0.22221 0.26541 0.0
C937 C 0.58165 0.23652 0.26074 0.0
C938 C 0.48986 0.24981 0.23589 0.0
C939 C 0.46208 0.2954 0.23494 0.0
C940 C 0.48224 0.28034 0.24064 0.0
C941 C 0.5404 0.23652 0.25708 0.0
C942 C 0.52023 0.25165 0.25153 0.0
H943 H 0.48272 0.33464 0.22526 0.0
H944 H 0.51581 0.31018 0.23489 0.0
H945 H 0.44827 0.26205 0.21819 0.0
H946 H 0.52013 0.19654 0.26413 0.0
H947 H 0.48682 0.22149 0.25612 0.0
C948 C 0.39302 0.81143 0.72811 0.0
C949 C 0.41526 0.8246 0.72216 0.0
C950 C 0.41182 0.7969 0.73229 0.0
C951 C 0.50918 0.78117 0.74719 0.0
H952 H 0.46384 0.73702 0.72604 0.0
C953 C 0.59518 0.72008 0.75152 0.0
C954 C 0.574 0.70647 0.75698 0.0
C955 C 0.57524 0.73428 0.74719 0.0
C956 C 0.47666 0.74926 0.7323 0.0
H957 H 0.47484 0.83247 0.71544 0.0
H958 H 0.50755 0.80723 0.72284 0.0
H959 H 0.43019 0.76215 0.71869 0.0
H960 H 0.51506 0.6972 0.76221 0.0
H961 H 0.48018 0.72205 0.7548 0.0
H962 H 0.55552 0.76836 0.76089 0.0
C963 C 0.47557 0.80827 0.7246 0.0
C964 C 0.45737 0.76367 0.72806 0.0
C965 C 0.45678 0.82278 0.72038 0.0
C966 C 0.53227 0.70736 0.75782 0.0
C967 C 0.51228 0.72162 0.75355 0.0
C968 C 0.52839 0.76679 0.75148 0.0
C969 C 0.45335 0.79516 0.73066 0.0
C970 C 0.4735 0.77981 0.73537 0.0
C971 C 0.53354 0.7353 0.74827 0.0
C972 C 0.51252 0.75062 0.744 0.0
H973 H 0.3611 0.81244 0.72995 0.0
H974 H 0.39386 0.78714 0.73719 0.0
H975 H 0.52206 0.79342 0.75339 0.0
H976 H 0.62725 0.71969 0.75031 0.0
H977 H 0.59258 0.7444 0.74275 0.0
C978 C 0.58162 0.55857 0.4527 0.0
C979 C 0.57464 0.57447 0.46574 0.0
C980 C 0.56333 0.5441 0.45736 0.0
C981 C 0.47879 0.53016 0.48744 0.0
H982 H 0.54006 0.48894 0.48321 0.0
C983 C 0.42029 0.47294 0.52091 0.0
C984 C 0.42694 0.45679 0.50848 0.0
C985 C 0.43855 0.48713 0.51547 0.0
C986 C 0.52238 0.50029 0.48424 0.0
H987 H 0.54318 0.58745 0.49418 0.0
H988 H 0.51134 0.56233 0.50222 0.0
H989 H 0.57089 0.51393 0.47378 0.0
H990 H 0.458 0.443 0.48042 0.0
H991 H 0.48983 0.46771 0.47094 0.0
H992 H 0.43031 0.51656 0.49792 0.0
C993 C 0.53044 0.56107 0.48815 0.0
C994 C 0.54006 0.51462 0.47881 0.0
C995 C 0.54872 0.57552 0.4835 0.0
C996 C 0.45265 0.45518 0.49057 0.0
C997 C 0.47091 0.46938 0.48511 0.0
C998 C 0.46112 0.51584 0.49285 0.0
C999 C 0.53759 0.54516 0.47519 0.0
C1000 C 0.51853 0.52977 0.48044 0.0
C1001 C 0.46392 0.48555 0.49742 0.0
C1002 C 0.48272 0.50074 0.49141 0.0
H1003 H 0.60098 0.55731 0.43875 0.0
H1004 H 0.56906 0.53208 0.44685 0.0
H1005 H 0.46112 0.54152 0.48853 0.0
H1006 H 0.4012 0.47463 0.535 0.0
H1007 H 0.43306 0.49935 0.52555 0.0
C1008 C 0.20378 0.13329 0.41106 0.0
C1009 C 0.17107 0.14367 0.40879 0.0
C1010 C 0.23629 0.13252 0.3972 0.0
C1011 C 0.31026 0.14478 0.37778 0.0
H1012 H 0.30338 0.1396 0.31533 0.0
C1013 C 0.44451 0.15584 0.32593 0.0
C1014 C 0.45231 0.14315 0.30783 0.0
C1015 C 0.40869 0.15604 0.33714 0.0
C1016 C 0.30564 0.14102 0.33276 0.0
H1017 H 0.14598 0.16073 0.38948 0.0
H1018 H 0.20307 0.15929 0.3651 0.0
H1019 H 0.24262 0.13884 0.33668 0.0
H1020 H 0.42824 0.12086 0.28713 0.0
H1021 H 0.36535 0.12141 0.3066 0.0
H1022 H 0.37306 0.14694 0.374 0.0
C1023 C 0.20335 0.1518 0.3777 0.0
C1024 C 0.27097 0.14069 0.34493 0.0
C1025 C 0.17078 0.15266 0.39169 0.0
C1026 C 0.423 0.13092 0.30086 0.0
C1027 C 0.38701 0.13121 0.31199 0.0
C1028 C 0.34476 0.14528 0.36567 0.0
C1029 C 0.23676 0.14203 0.38069 0.0
C1030 C 0.27306 0.14246 0.36755 0.0
C1031 C 0.37976 0.14366 0.33039 0.0
C1032 C 0.34282 0.14337 0.34306 0.0
H1033 H 0.20488 0.12608 0.42394 0.0
H1034 H 0.26142 0.12468 0.39963 0.0
H1035 H 0.31266 0.14637 0.39522 0.0
H1036 H 0.46601 0.16567 0.33144 0.0
H1037 H 0.40356 0.16593 0.35109 0.0
C1038 C 0.69465 0.14051 0.32323 0.0
C1039 C 0.67432 0.12591 0.31335 0.0
C1040 C 0.72502 0.13951 0.33803 0.0
C1041 C 0.80219 0.11197 0.35 0.0
H1042 H 0.80671 0.14158 0.40612 0.0
C1043 C 0.93707 0.11188 0.40688 0.0
C1044 C 0.94911 0.12764 0.41851 0.0
C1045 C 0.90102 0.11029 0.39563 0.0
C1046 C 0.80618 0.13335 0.39041 0.0
H1047 H 0.66953 0.09885 0.31111 0.0
H1048 H 0.72364 0.09706 0.33667 0.0
H1049 H 0.7478 0.14161 0.38356 0.0
H1050 H 0.93373 0.15411 0.42721 0.0
H1051 H 0.87185 0.15155 0.40698 0.0
H1052 H 0.86124 0.10433 0.35613 0.0
C1053 C 0.71555 0.10926 0.33314 0.0
C1054 C 0.77231 0.1333 0.37761 0.0
C1055 C 0.68456 0.11031 0.31867 0.0
C1056 C 0.92476 0.14177 0.4186 0.0
C1057 C 0.88915 0.14025 0.40711 0.0
C1058 C 0.8364 0.11222 0.36263 0.0
C1059 C 0.73608 0.12385 0.34286 0.0
C1060 C 0.77027 0.12277 0.35721 0.0
C1061 C 0.87668 0.12449 0.39551 0.0
C1062 C 0.83909 0.12312 0.38286 0.0
H1063 H 0.68725 0.15269 0.3194 0.0
H1064 H 0.7407 0.1509 0.34521 0.0
H1065 H 0.80134 0.10384 0.3342 0.0
H1066 H 0.95528 0.10079 0.40675 0.0
H1067 H 0.89216 0.09791 0.38714 0.0
C1068 C 0.17634 0.11775 0.82566 0.0
C1069 C 0.17164 0.13092 0.8141 0.0
C1070 C 0.20692 0.1183 0.84084 0.0
C1071 C 0.278 0.14723 0.87388 0.0
H1072 H 0.34402 0.10733 0.86972 0.0
C1073 C 0.43601 0.14966 0.90906 0.0
C1074 C 0.44848 0.13634 0.919 0.0
C1075 C 0.39969 0.14881 0.89819 0.0
C1076 C 0.32555 0.1185 0.87135 0.0
H1077 H 0.19448 0.15524 0.80989 0.0
H1078 H 0.24764 0.15614 0.83619 0.0
H1079 H 0.28388 0.10622 0.84789 0.0
H1080 H 0.43266 0.11167 0.9253 0.0
H1081 H 0.3689 0.11031 0.90661 0.0
H1082 H 0.31997 0.1596 0.89706 0.0
C1083 C 0.22765 0.14545 0.83368 0.0
C1084 C 0.29107 0.11785 0.85885 0.0
C1085 C 0.19733 0.14486 0.81847 0.0
C1086 C 0.42373 0.12219 0.91794 0.0
C1087 C 0.38739 0.12134 0.90707 0.0
C1088 C 0.31241 0.14787 0.88639 0.0
C1089 C 0.23311 0.13209 0.84483 0.0
C1090 C 0.26733 0.13229 0.85971 0.0
C1091 C 0.375 0.13463 0.89705 0.0
C1092 C 0.33693 0.13359 0.88498 0.0
H1093 H 0.15701 0.10684 0.82266 0.0
H1094 H 0.21024 0.10789 0.84934 0.0
H1095 H 0.25993 0.15849 0.87512 0.0
H1096 H 0.45414 0.16083 0.90981 0.0
H1097 H 0.39123 0.15916 0.89041 0.0
C1098 C 0.92241 0.12674 0.79869 0.0
C1099 C 0.9481 0.14043 0.80554 0.0
C1100 C 0.88621 0.12566 0.80916 0.0
C1101 C 0.81301 0.15114 0.84505 0.0
H1102 H 0.78329 0.10818 0.85952 0.0
C1103 C 0.69751 0.14503 0.91028 0.0
C1104 C 0.67187 0.13105 0.9069 0.0
C1105 C 0.72778 0.14635 0.89557 0.0
C1106 C 0.79079 0.12019 0.85526 0.0
H1107 H 0.95562 0.16386 0.8285 0.0
H1108 H 0.89272 0.1618 0.84709 0.0
H1109 H 0.84333 0.11013 0.83847 0.0
H1110 H 0.6571 0.10773 0.88508 0.0
H1111 H 0.71015 0.11009 0.85925 0.0
H1112 H 0.76085 0.16125 0.86222 0.0
C1113 C 0.90043 0.152 0.83346 0.0
C1114 C 0.82522 0.12132 0.84324 0.0
C1115 C 0.93668 0.15307 0.823 0.0
C1116 C 0.67645 0.11863 0.88816 0.0
C1117 C 0.70692 0.11993 0.87344 0.0
C1118 C 0.77858 0.15001 0.85707 0.0
C1119 C 0.87487 0.13825 0.8267 0.0
C1120 C 0.83701 0.13686 0.83828 0.0
C1121 C 0.73317 0.13371 0.87714 0.0
C1122 C 0.76744 0.13458 0.86259 0.0
H1123 H 0.93054 0.11672 0.7854 0.0
H1124 H 0.86701 0.11499 0.80347 0.0
H1125 H 0.82095 0.16321 0.84113 0.0
H1126 H 0.69473 0.15486 0.92452 0.0
H1127 H 0.74779 0.15701 0.89903 0.0
C1128 C 0.57773 0.87324 0.668 0.0
C1129 C 0.55182 0.88693 0.6681 0.0
C1130 C 0.61453 0.87267 0.65763 0.0
C1131 C 0.68816 0.89972 0.63709 0.0
H1132 H 0.72222 0.8579 0.60065 0.0
C1133 C 0.80594 0.89679 0.57054 0.0
C1134 C 0.83272 0.88317 0.56695 0.0
C1135 C 0.77536 0.89739 0.5856 0.0
C1136 C 0.71349 0.86959 0.61107 0.0
H1137 H 0.54442 0.91087 0.65761 0.0
H1138 H 0.60819 0.90967 0.63906 0.0
H1139 H 0.66088 0.85854 0.62141 0.0
H1140 H 0.84922 0.85976 0.57684 0.0
H1141 H 0.79555 0.86083 0.60329 0.0
H1142 H 0.74031 0.91085 0.62631 0.0
C1143 C 0.60027 0.89947 0.64723 0.0
C1144 C 0.67832 0.86997 0.62293 0.0
C1145 C 0.56349 0.90004 0.6576 0.0
C1146 C 0.82904 0.87041 0.57925 0.0
C1147 C 0.79821 0.87097 0.59428 0.0
C1148 C 0.72328 0.89934 0.6252 0.0
C1149 C 0.62621 0.88579 0.64715 0.0
C1150 C 0.66495 0.8851 0.63578 0.0
C1151 C 0.77076 0.88435 0.59738 0.0
C1152 C 0.73595 0.88434 0.61179 0.0
H1153 H 0.56943 0.86288 0.67581 0.0
H1154 H 0.63397 0.86201 0.65797 0.0
H1155 H 0.67903 0.91149 0.64718 0.0
H1156 H 0.80804 0.90685 0.56137 0.0
H1157 H 0.75442 0.90777 0.58743 0.0
C1158 C 0.30204 0.89619 0.66017 0.0
C1159 C 0.32639 0.88176 0.65704 0.0
C1160 C 0.27217 0.89788 0.64539 0.0
C1161 C 0.20759 0.87255 0.60524 0.0
H1162 H 0.18215 0.91581 0.59021 0.0
C1163 C 0.07886 0.88042 0.54773 0.0
C1164 C 0.05385 0.89442 0.55426 0.0
C1165 C 0.11477 0.87906 0.55833 0.0
C1166 C 0.18878 0.90368 0.59438 0.0
H1167 H 0.3392 0.858 0.63564 0.0
H1168 H 0.28687 0.86101 0.60967 0.0
H1169 H 0.24133 0.91302 0.6117 0.0
H1170 H 0.04734 0.91816 0.57675 0.0
H1171 H 0.10984 0.91564 0.59558 0.0
H1172 H 0.1547 0.86327 0.58829 0.0
C1173 C 0.2908 0.87092 0.62371 0.0
C1174 C 0.22266 0.90207 0.60663 0.0
C1175 C 0.32085 0.86924 0.63852 0.0
C1176 C 0.06579 0.90715 0.57148 0.0
C1177 C 0.10179 0.9058 0.58209 0.0
C1178 C 0.17373 0.87415 0.59299 0.0
C1179 C 0.2659 0.88519 0.62714 0.0
C1180 C 0.23211 0.88654 0.61245 0.0
C1181 C 0.12649 0.89166 0.57572 0.0
C1182 C 0.16369 0.88979 0.58766 0.0
H1183 H 0.30554 0.90611 0.67425 0.0
H1184 H 0.25317 0.90891 0.64864 0.0
H1185 H 0.21374 0.86048 0.60974 0.0
H1186 H 0.07031 0.8703 0.53468 0.0
H1187 H 0.13334 0.8681 0.55292 0.0
C1188 C 0.825 0.87294 0.1394 0.0
C1189 C 0.83323 0.88534 0.1577 0.0
C1190 C 0.79301 0.87494 0.12592 0.0
C1191 C 0.73138 0.88544 0.09531 0.0
H1192 H 0.63525 0.90237 0.126 0.0
C1193 C 0.58636 0.89805 0.05153 0.0
C1194 C 0.55081 0.8929 0.06007 0.0
C1195 C 0.62212 0.89777 0.06271 0.0
C1196 C 0.66178 0.89754 0.1172 0.0
H1197 H 0.81634 0.9101 0.17537 0.0
H1198 H 0.76119 0.9137 0.1517 0.0
H1199 H 0.69636 0.9008 0.14611 0.0
H1200 H 0.52495 0.88323 0.08685 0.0
H1201 H 0.58732 0.88273 0.10637 0.0
H1202 H 0.69622 0.88172 0.06643 0.0
C1203 C 0.77864 0.90222 0.14807 0.0
C1204 C 0.69696 0.89685 0.12868 0.0
C1205 C 0.81036 0.90018 0.16157 0.0
C1206 C 0.55174 0.88752 0.08003 0.0
C1207 C 0.58747 0.88723 0.09119 0.0
C1208 C 0.69609 0.88614 0.08379 0.0
C1209 C 0.76889 0.88943 0.13047 0.0
C1210 C 0.73212 0.89073 0.1179 0.0
C1211 C 0.62304 0.89236 0.08267 0.0
C1212 C 0.66086 0.89208 0.09466 0.0
H1213 H 0.84212 0.86136 0.13603 0.0
H1214 H 0.78611 0.86482 0.11254 0.0
H1215 H 0.75806 0.88076 0.08654 0.0
H1216 H 0.58647 0.90249 0.03632 0.0
H1217 H 0.64896 0.90201 0.05589 0.0
C1218 C 0.08153 0.87551 0.17293 0.0
C1219 C 0.05719 0.88983 0.17411 0.0
C1220 C 0.11785 0.87445 0.16205 0.0
C1221 C 0.19333 0.90022 0.14042 0.0
H1222 H 0.21901 0.85804 0.10214 0.0
C1223 C 0.30528 0.89528 0.07068 0.0
C1224 C 0.33062 0.88119 0.06643 0.0
C1225 C 0.27562 0.89634 0.08634 0.0
C1226 C 0.21262 0.86981 0.11304 0.0
H1227 H 0.05239 0.91444 0.16519 0.0
H1228 H 0.11527 0.91239 0.14566 0.0
H1229 H 0.15965 0.85993 0.12466 0.0
H1230 H 0.34532 0.85732 0.07558 0.0
H1231 H 0.29311 0.85916 0.10302 0.0
H1232 H 0.24579 0.9102 0.12829 0.0
C1233 C 0.1065 0.90207 0.15341 0.0
C1234 C 0.1786 0.87091 0.12594 0.0
C1235 C 0.0702 0.90315 0.16435 0.0
C1236 C 0.32623 0.86833 0.07851 0.0
C1237 C 0.29627 0.86934 0.09411 0.0
C1238 C 0.22727 0.89913 0.12747 0.0
C1239 C 0.13062 0.88766 0.15203 0.0
C1240 C 0.16825 0.8862 0.13953 0.0
C1241 C 0.27049 0.8833 0.09804 0.0
C1242 C 0.2369 0.88399 0.1134 0.0
H1243 H 0.0722 0.86495 0.1801 0.0
H1244 H 0.13591 0.86325 0.16146 0.0
H1245 H 0.18658 0.91208 0.15103 0.0
H1246 H 0.30798 0.90545 0.06171 0.0
H1247 H 0.2559 0.90716 0.0888 0.0
C1248 C 0.1896 0.6388 0.90726 0.0
C1249 C 0.16847 0.6534 0.91646 0.0
C1250 C 0.22035 0.63966 0.89263 0.0
C1251 C 0.29726 0.66711 0.88073 0.0
H1252 H 0.30426 0.6371 0.82498 0.0
C1253 C 0.43362 0.66762 0.82499 0.0
C1254 C 0.44626 0.65197 0.81328 0.0
C1255 C 0.39738 0.66899 0.83608 0.0
C1256 C 0.30308 0.64544 0.84061 0.0
H1257 H 0.16258 0.68031 0.91762 0.0
H1258 H 0.21743 0.68187 0.8924 0.0
H1259 H 0.24462 0.63704 0.847 0.0
H1260 H 0.4318 0.62547 0.80421 0.0
H1261 H 0.36961 0.6276 0.82424 0.0
H1262 H 0.35637 0.67489 0.87513 0.0
C1263 C 0.20963 0.66977 0.89631 0.0
C1264 C 0.26877 0.64547 0.85309 0.0
C1265 C 0.17824 0.66885 0.91059 0.0
C1266 C 0.42237 0.63771 0.81295 0.0
C1267 C 0.38657 0.639 0.8243 0.0
C1268 C 0.33193 0.66687 0.86846 0.0
C1269 C 0.23103 0.65519 0.88733 0.0
C1270 C 0.26578 0.65618 0.87332 0.0
C1271 C 0.37345 0.65467 0.83596 0.0
C1272 C 0.33552 0.65585 0.84835 0.0
H1273 H 0.18257 0.62674 0.91154 0.0
H1274 H 0.23668 0.62827 0.886 0.0
H1275 H 0.29568 0.67537 0.89642 0.0
H1276 H 0.45147 0.67882 0.82529 0.0
H1277 H 0.38804 0.68131 0.84457 0.0
C1278 C 0.68808 0.65206 0.82743 0.0
C1279 C 0.6677 0.63671 0.82179 0.0
C1280 C 0.71977 0.65358 0.84197 0.0
C1281 C 0.77193 0.63145 0.88125 0.0
H1282 H 0.86078 0.65875 0.86895 0.0
C1283 C 0.93325 0.62596 0.91149 0.0
C1284 C 0.94974 0.64108 0.92261 0.0
C1285 C 0.89686 0.62608 0.90086 0.0
C1286 C 0.83601 0.65119 0.87263 0.0
H1287 H 0.66388 0.611 0.827 0.0
H1288 H 0.72032 0.61332 0.85154 0.0
H1289 H 0.80046 0.65776 0.84741 0.0
H1290 H 0.94183 0.66814 0.93135 0.0
H1291 H 0.87855 0.66841 0.91201 0.0
H1292 H 0.809 0.62424 0.90575 0.0
C1293 C 0.71121 0.62442 0.84544 0.0
C1294 C 0.80126 0.6507 0.86043 0.0
C1295 C 0.67891 0.62302 0.83127 0.0
C1296 C 0.92951 0.65634 0.92287 0.0
C1297 C 0.89355 0.6565 0.91184 0.0
C1298 C 0.80706 0.63169 0.89314 0.0
C1299 C 0.73244 0.63966 0.85077 0.0
C1300 C 0.76874 0.64077 0.86451 0.0
C1301 C 0.87692 0.64136 0.90084 0.0
C1302 C 0.83934 0.64152 0.88885 0.0
H1303 H 0.67968 0.66286 0.82048 0.0
H1304 H 0.73459 0.66565 0.84609 0.0
H1305 H 0.74736 0.62394 0.88521 0.0
H1306 H 0.94834 0.61405 0.91123 0.0
H1307 H 0.88459 0.61428 0.89234 0.0
C1308 C 0.19034 0.64855 0.32569 0.0
C1309 C 0.16767 0.63374 0.32043 0.0
C1310 C 0.22242 0.6493 0.33992 0.0
C1311 C 0.29929 0.62353 0.35521 0.0
H1312 H 0.31226 0.6575 0.40716 0.0
C1313 C 0.43581 0.62308 0.41016 0.0
C1314 C 0.45096 0.63863 0.42064 0.0
C1315 C 0.39961 0.62233 0.39918 0.0
C1316 C 0.3095 0.64808 0.39253 0.0
H1317 H 0.16024 0.60823 0.32605 0.0
H1318 H 0.21728 0.60943 0.35046 0.0
H1319 H 0.25137 0.65687 0.38593 0.0
H1320 H 0.44112 0.66558 0.42787 0.0
H1321 H 0.37896 0.66451 0.40771 0.0
H1322 H 0.35785 0.6152 0.36082 0.0
C1323 C 0.20971 0.62047 0.3438 0.0
C1324 C 0.27445 0.64767 0.38053 0.0
C1325 C 0.17708 0.61983 0.32996 0.0
C1326 C 0.42969 0.65345 0.41993 0.0
C1327 C 0.39393 0.65277 0.40854 0.0
C1328 C 0.33466 0.62416 0.3669 0.0
C1329 C 0.2328 0.63515 0.3487 0.0
C1330 C 0.26912 0.63537 0.36184 0.0
C1331 C 0.37829 0.63718 0.39805 0.0
C1332 C 0.34029 0.63643 0.38575 0.0
H1333 H 0.18362 0.65945 0.31857 0.0
H1334 H 0.24004 0.66072 0.34343 0.0
H1335 H 0.2959 0.61407 0.34064 0.0
H1336 H 0.45168 0.61149 0.41077 0.0
H1337 H 0.38825 0.61006 0.39178 0.0
C1338 C 0.6801 0.66977 0.41081 0.0
C1339 C 0.66997 0.65438 0.41671 0.0
C1340 C 0.7114 0.67053 0.39641 0.0
C1341 C 0.76908 0.64592 0.35285 0.0
H1342 H 0.85803 0.67472 0.37436 0.0
C1343 C 0.92185 0.63707 0.3119 0.0
C1344 C 0.94632 0.65114 0.31216 0.0
C1345 C 0.88618 0.63863 0.32338 0.0
C1346 C 0.83321 0.66687 0.36784 0.0
H1347 H 0.68336 0.62765 0.41178 0.0
H1348 H 0.73729 0.6289 0.38605 0.0
H1349 H 0.79774 0.67559 0.39605 0.0
H1350 H 0.95267 0.67795 0.32412 0.0
H1351 H 0.88945 0.68092 0.34361 0.0
H1352 H 0.8038 0.63734 0.32451 0.0
C1353 C 0.72132 0.64036 0.39274 0.0
C1354 C 0.79877 0.66734 0.38034 0.0
C1355 C 0.69068 0.63967 0.40748 0.0
C1356 C 0.93435 0.66689 0.32388 0.0
C1357 C 0.89825 0.66854 0.33509 0.0
C1358 C 0.80317 0.64567 0.34015 0.0
C1359 C 0.7323 0.65583 0.38735 0.0
C1360 C 0.76682 0.65662 0.37312 0.0
C1361 C 0.87377 0.65439 0.33509 0.0
C1362 C 0.83608 0.65585 0.34769 0.0
H1363 H 0.66477 0.68131 0.41787 0.0
H1364 H 0.71945 0.68258 0.39244 0.0
H1365 H 0.74455 0.63765 0.34692 0.0
H1366 H 0.93075 0.62475 0.30316 0.0
H1367 H 0.86878 0.62736 0.3234 0.0
C1368 C 0.56841 0.36533 0.15846 0.0
C1369 C 0.55426 0.38078 0.16995 0.0
C1370 C 0.6046 0.36455 0.1474 0.0
C1371 C 0.69599 0.38983 0.14198 0.0
H1372 H 0.70593 0.35857 0.08732 0.0
C1373 C 0.81058 0.39473 0.07459 0.0
C1374 C 0.83285 0.38007 0.06705 0.0
C1375 C 0.77937 0.39442 0.08914 0.0
C1376 C 0.70359 0.36724 0.10267 0.0
H1377 H 0.56596 0.40754 0.17881 0.0
H1378 H 0.628 0.40645 0.1587 0.0
H1379 H 0.64525 0.35879 0.10849 0.0
H1380 H 0.84029 0.35366 0.06879 0.0
H1381 H 0.78476 0.35305 0.0938 0.0
H1382 H 0.75375 0.39884 0.13528 0.0
C1383 C 0.61233 0.39476 0.1588 0.0
C1384 C 0.66895 0.36733 0.1149 0.0
C1385 C 0.57662 0.39545 0.1702 0.0
C1386 C 0.82378 0.36517 0.07452 0.0
C1387 C 0.79199 0.36478 0.08869 0.0
C1388 C 0.73026 0.38997 0.12949 0.0
C1389 C 0.62689 0.3793 0.14725 0.0
C1390 C 0.66455 0.37869 0.13469 0.0
C1391 C 0.76942 0.37937 0.09597 0.0
C1392 C 0.73421 0.37872 0.10973 0.0
H1393 H 0.5517 0.35384 0.15825 0.0
H1394 H 0.61511 0.35237 0.13909 0.0
H1395 H 0.6942 0.39849 0.15733 0.0
H1396 H 0.81704 0.40637 0.06907 0.0
H1397 H 0.76212 0.40579 0.09449 0.0
C1398 C 0.07522 0.38175 0.05888 0.0
C1399 C 0.05316 0.39651 0.05908 0.0
C1400 C 0.11103 0.38231 0.07016 0.0
C1401 C 0.16897 0.40979 0.11342 0.0
H1402 H 0.25295 0.37779 0.09281 0.0
C1403 C 0.32531 0.41195 0.152 0.0
C1404 C 0.33396 0.39735 0.16026 0.0
C1405 C 0.29323 0.41218 0.13798 0.0
C1406 C 0.22969 0.3868 0.09865 0.0
H1407 H 0.05113 0.42349 0.0706 0.0
H1408 H 0.11472 0.42474 0.08951 0.0
H1409 H 0.19277 0.37812 0.07124 0.0
H1410 H 0.3172 0.37135 0.15973 0.0
H1411 H 0.26179 0.3716 0.13452 0.0
H1412 H 0.20685 0.41871 0.14053 0.0
C1413 C 0.10392 0.41258 0.08136 0.0
C1414 C 0.19505 0.38693 0.08645 0.0
C1415 C 0.06763 0.41193 0.07044 0.0
C1416 C 0.31107 0.38277 0.15358 0.0
C1417 C 0.27957 0.38288 0.13917 0.0
C1418 C 0.20397 0.40989 0.12535 0.0
C1419 C 0.12599 0.39774 0.08152 0.0
C1420 C 0.16392 0.39826 0.09384 0.0
C1421 C 0.26997 0.39769 0.13162 0.0
C1422 C 0.23431 0.39826 0.11818 0.0
H1423 H 0.06431 0.3697 0.05033 0.0
H1424 H 0.12651 0.37056 0.07027 0.0
H1425 H 0.14553 0.41848 0.11992 0.0
H1426 H 0.34231 0.42341 0.15704 0.0
H1427 H 0.28625 0.42371 0.13229 0.0
C1428 C 0.80582 0.39955 0.6618 0.0
C1429 C 0.83267 0.38596 0.65759 0.0
C1430 C 0.77562 0.40113 0.64714 0.0
C1431 C 0.71521 0.3754 0.60538 0.0
H1432 H 0.68099 0.41864 0.5934 0.0
C1433 C 0.5834 0.38096 0.54891 0.0
C1434 C 0.55629 0.39413 0.5559 0.0
C1435 C 0.61976 0.38042 0.5594 0.0
C1436 C 0.69004 0.40649 0.59672 0.0
H1437 H 0.84978 0.36373 0.63431 0.0
H1438 H 0.79688 0.36654 0.60863 0.0
H1439 H 0.74101 0.41699 0.61473 0.0
H1440 H 0.54654 0.41728 0.57912 0.0
H1441 H 0.60961 0.41609 0.59785 0.0
H1442 H 0.66386 0.36494 0.5879 0.0
C1443 C 0.79909 0.37585 0.62341 0.0
C1444 C 0.72443 0.40555 0.60887 0.0
C1445 C 0.82947 0.3743 0.63805 0.0
C1446 C 0.56656 0.40685 0.5735 0.0
C1447 C 0.60293 0.40629 0.58405 0.0
C1448 C 0.68079 0.37635 0.5933 0.0
C1449 C 0.77152 0.38915 0.62797 0.0
C1450 C 0.7371 0.39002 0.61353 0.0
C1451 C 0.62981 0.393 0.5772 0.0
C1452 C 0.66757 0.39194 0.58904 0.0
H1453 H 0.80755 0.4088 0.67667 0.0
H1454 H 0.7546 0.41142 0.65122 0.0
H1455 H 0.72385 0.3633 0.609 0.0
H1456 H 0.57625 0.37086 0.53554 0.0
H1457 H 0.63998 0.37012 0.55358 0.0
C1458 C 0.07917 0.37665 0.67023 0.0
C1459 C 0.05497 0.39104 0.67168 0.0
C1460 C 0.11545 0.37563 0.65933 0.0
C1461 C 0.19151 0.40165 0.6387 0.0
H1462 H 0.21856 0.35961 0.6005 0.0
C1463 C 0.30765 0.39675 0.57082 0.0
C1464 C 0.33242 0.38247 0.56667 0.0
C1465 C 0.27732 0.39793 0.58612 0.0
C1466 C 0.21178 0.37134 0.61138 0.0
H1467 H 0.05025 0.41575 0.66304 0.0
H1468 H 0.11313 0.41378 0.64346 0.0
H1469 H 0.15809 0.36141 0.62209 0.0
H1470 H 0.3456 0.35845 0.57582 0.0
H1471 H 0.29232 0.36051 0.60264 0.0
H1472 H 0.2448 0.41168 0.6275 0.0
C1473 C 0.10426 0.40338 0.65105 0.0
C1474 C 0.1771 0.37239 0.62374 0.0
C1475 C 0.06796 0.40442 0.66201 0.0
C1476 C 0.32697 0.3696 0.57864 0.0
C1477 C 0.29637 0.37073 0.59389 0.0
C1478 C 0.22614 0.40062 0.62628 0.0
C1479 C 0.12835 0.38895 0.64954 0.0
C1480 C 0.16631 0.38762 0.63733 0.0
C1481 C 0.27094 0.38482 0.59757 0.0
C1482 C 0.23634 0.38551 0.61228 0.0
H1483 H 0.06984 0.36605 0.67731 0.0
H1484 H 0.13348 0.36442 0.65865 0.0
H1485 H 0.18441 0.41347 0.64932 0.0
H1486 H 0.31116 0.40694 0.56195 0.0
H1487 H 0.25795 0.40886 0.58842 0.0
C1488 C 0.10527 0.15208 0.68916 0.0
C1489 C 0.13556 0.1474 0.70217 0.0
C1490 C 0.11397 0.15545 0.66879 0.0
C1491 C 0.18202 0.14463 0.62403 0.0
H1492 H 0.12698 0.18103 0.60385 0.0
C1493 C 0.17418 0.14945 0.53352 0.0
C1494 C 0.13472 0.15058 0.5266 0.0
C1495 C 0.18312 0.15224 0.5556 0.0
C1496 C 0.14284 0.17091 0.6093 0.0
H1497 H 0.19874 0.14258 0.70421 0.0
H1498 H 0.21391 0.1482 0.66806 0.0
H1499 H 0.12715 0.18001 0.64237 0.0
H1500 H 0.07396 0.15606 0.53713 0.0
H1501 H 0.08951 0.16097 0.57554 0.0
H1502 H 0.19591 0.13505 0.59077 0.0
C1503 C 0.18352 0.14936 0.67384 0.0
C1504 C 0.14293 0.17032 0.63129 0.0
C1505 C 0.17484 0.14614 0.69444 0.0
C1506 C 0.1046 0.15504 0.54202 0.0
C1507 C 0.11357 0.15802 0.564 0.0
C1508 C 0.18195 0.14522 0.60198 0.0
C1509 C 0.15311 0.15412 0.66091 0.0
C1510 C 0.16096 0.15677 0.6387 0.0
C1511 C 0.1528 0.15646 0.57101 0.0
C1512 C 0.16082 0.15796 0.59437 0.0
H1513 H 0.07474 0.15322 0.69473 0.0
H1514 H 0.08981 0.15877 0.65899 0.0
H1515 H 0.19604 0.13403 0.62935 0.0
H1516 H 0.19796 0.14604 0.52191 0.0
H1517 H 0.21357 0.15097 0.56064 0.0
C1518 C 0.88861 0.88238 0.43467 0.0
C1519 C 0.85965 0.88716 0.45068 0.0
C1520 C 0.87823 0.87956 0.41291 0.0
C1521 C 0.81151 0.89272 0.3752 0.0
H1522 H 0.85787 0.85459 0.33627 0.0
C1523 C 0.82263 0.88856 0.28216 0.0
C1524 C 0.86205 0.88573 0.27498 0.0
C1525 C 0.81179 0.88626 0.30288 0.0
C1526 C 0.84431 0.8652 0.34694 0.0
H1527 H 0.79717 0.89284 0.45665 0.0
H1528 H 0.77912 0.88836 0.41813 0.0
H1529 H 0.85732 0.85497 0.37514 0.0
H1530 H 0.92079 0.87799 0.28348 0.0
H1531 H 0.90195 0.87397 0.31943 0.0
H1532 H 0.80092 0.90345 0.34703 0.0
C1533 C 0.80969 0.88658 0.42263 0.0
C1534 C 0.84395 0.86539 0.3691 0.0
C1535 C 0.82002 0.88915 0.44455 0.0
C1536 C 0.89024 0.88035 0.28863 0.0
C1537 C 0.87935 0.87786 0.30911 0.0
C1538 C 0.81194 0.89253 0.35294 0.0
C1539 C 0.83876 0.88165 0.40669 0.0
C1540 C 0.82936 0.87952 0.38346 0.0
C1541 C 0.8401 0.88081 0.31646 0.0
C1542 C 0.83019 0.87914 0.3388 0.0
H1543 H 0.91934 0.88067 0.43892 0.0
H1544 H 0.90132 0.87606 0.40089 0.0
H1545 H 0.80019 0.90376 0.38602 0.0
H1546 H 0.80033 0.8927 0.27189 0.0
H1547 H 0.78139 0.88869 0.30826 0.0
C1548 C 0.10333 0.62765 0.03955 0.0
C1549 C 0.13385 0.63241 0.02676 0.0
C1550 C 0.1115 0.62455 0.06012 0.0
C1551 C 0.17852 0.63652 0.10528 0.0
H1552 H 0.12273 0.60102 0.12685 0.0
C1553 C 0.17073 0.63292 0.1964 0.0
C1554 C 0.13135 0.63191 0.20347 0.0
C1555 C 0.17941 0.63011 0.17427 0.0
C1556 C 0.13877 0.6109 0.121 0.0
H1557 H 0.19697 0.63744 0.02521 0.0
H1558 H 0.21123 0.63222 0.06162 0.0
H1559 H 0.12348 0.60107 0.08807 0.0
H1560 H 0.07037 0.6268 0.19315 0.0
H1561 H 0.08548 0.62187 0.15469 0.0
H1562 H 0.19218 0.64678 0.13838 0.0
C1563 C 0.18104 0.63086 0.05557 0.0
C1564 C 0.13919 0.61094 0.09888 0.0
C1565 C 0.17289 0.63383 0.03481 0.0
C1566 C 0.10098 0.62773 0.18816 0.0
C1567 C 0.10968 0.62473 0.16614 0.0
C1568 C 0.17816 0.63647 0.12747 0.0
C1569 C 0.15034 0.62621 0.0684 0.0
C1570 C 0.15756 0.62415 0.09092 0.0
C1571 C 0.1489 0.62599 0.15898 0.0
C1572 C 0.15681 0.62405 0.13555 0.0
H1573 H 0.07298 0.62638 0.03373 0.0
H1574 H 0.08711 0.62129 0.06979 0.0
H1575 H 0.19278 0.64689 0.09957 0.0
H1576 H 0.1947 0.63612 0.20792 0.0
H1577 H 0.20986 0.63118 0.1691 0.0
C1578 C 0.89526 0.38239 0.93632 0.0
C1579 C 0.86545 0.38647 0.95201 0.0
C1580 C 0.88599 0.38033 0.91444 0.0
C1581 C 0.81917 0.3942 0.87685 0.0
H1582 H 0.86871 0.35769 0.83661 0.0
C1583 C 0.82662 0.39128 0.78369 0.0
C1584 C 0.86583 0.38902 0.77595 0.0
C1585 C 0.81733 0.3889 0.80459 0.0
C1586 C 0.85436 0.36786 0.84765 0.0
H1587 H 0.80258 0.39166 0.95728 0.0
H1588 H 0.78647 0.38841 0.91865 0.0
H1589 H 0.86868 0.35705 0.87522 0.0
H1590 H 0.92588 0.38239 0.78377 0.0
H1591 H 0.90972 0.37825 0.82001 0.0
H1592 H 0.80687 0.40546 0.84928 0.0
C1593 C 0.81687 0.38665 0.92344 0.0
C1594 C 0.85433 0.36749 0.86967 0.0
C1595 C 0.8261 0.3885 0.94545 0.0
C1596 C 0.89544 0.38428 0.78932 0.0
C1597 C 0.88612 0.38173 0.80999 0.0
C1598 C 0.81924 0.39458 0.85473 0.0
C1599 C 0.84679 0.38245 0.9078 0.0
C1600 C 0.83836 0.38102 0.88452 0.0
C1601 C 0.84702 0.38396 0.8178 0.0
C1602 C 0.83849 0.38178 0.84012 0.0
H1603 H 0.92582 0.38071 0.94091 0.0
H1604 H 0.90973 0.37739 0.90269 0.0
H1605 H 0.80673 0.40478 0.88804 0.0
H1606 H 0.80325 0.39491 0.77365 0.0
H1607 H 0.78702 0.39076 0.81035 0.0
C1608 C 0.60958 0.15232 0.1911 0.0
C1609 C 0.63974 0.14733 0.20395 0.0
C1610 C 0.61792 0.15493 0.17034 0.0
C1611 C 0.68347 0.14114 0.125 0.0
H1612 H 0.62978 0.17685 0.10266 0.0
C1613 C 0.67457 0.14399 0.03351 0.0
C1614 C 0.63514 0.14538 0.02667 0.0
C1615 C 0.68363 0.14666 0.05557 0.0
C1616 C 0.64524 0.1669 0.10872 0.0
H1617 H 0.70242 0.14136 0.20539 0.0
H1618 H 0.71699 0.14572 0.1686 0.0
H1619 H 0.6315 0.17762 0.1416 0.0
H1620 H 0.57443 0.15083 0.03735 0.0
H1621 H 0.59026 0.15556 0.07575 0.0
H1622 H 0.69563 0.13006 0.09194 0.0
C1623 C 0.68696 0.14766 0.17478 0.0
C1624 C 0.64623 0.16733 0.13094 0.0
C1625 C 0.67863 0.14519 0.19575 0.0
C1626 C 0.60506 0.14963 0.04216 0.0
C1627 C 0.61417 0.1525 0.06412 0.0
C1628 C 0.68261 0.14074 0.10271 0.0
C1629 C 0.65658 0.15254 0.16191 0.0
C1630 C 0.66377 0.15407 0.1392 0.0
C1631 C 0.65347 0.15102 0.07103 0.0
C1632 C 0.66195 0.15325 0.09439 0.0
H1633 H 0.57935 0.15413 0.19702 0.0
H1634 H 0.59375 0.15837 0.16065 0.0
H1635 H 0.69707 0.13072 0.13096 0.0
H1636 H 0.69832 0.14072 0.02184 0.0
H1637 H 0.71413 0.1454 0.06056 0.0
C1638 C 0.39806 0.90075 0.79142 0.0
C1639 C 0.36723 0.89702 0.77629 0.0
C1640 C 0.38994 0.90332 0.81348 0.0
C1641 C 0.32226 0.89123 0.85225 0.0
H1642 H 0.37804 0.92616 0.89182 0.0
C1643 C 0.32861 0.894 0.94514 0.0
C1644 C 0.36772 0.89538 0.95309 0.0
C1645 C 0.32042 0.89664 0.92424 0.0
C1646 C 0.36204 0.91642 0.88096 0.0
H1647 H 0.30371 0.89311 0.77223 0.0
H1648 H 0.28958 0.89731 0.81113 0.0
H1649 H 0.37798 0.92665 0.85316 0.0
H1650 H 0.4288 0.90072 0.94564 0.0
H1651 H 0.41458 0.90526 0.90934 0.0
H1652 H 0.30807 0.88054 0.88001 0.0
C1653 C 0.31992 0.89835 0.80577 0.0
C1654 C 0.36199 0.91671 0.85891 0.0
C1655 C 0.32801 0.89597 0.78361 0.0
C1656 C 0.39838 0.89954 0.93994 0.0
C1657 C 0.39017 0.90232 0.91923 0.0
C1658 C 0.32235 0.89094 0.87439 0.0
C1659 C 0.35088 0.90207 0.82086 0.0
C1660 C 0.34354 0.90373 0.84429 0.0
C1661 C 0.35117 0.90092 0.91118 0.0
C1662 C 0.3437 0.90314 0.88876 0.0
H1663 H 0.42855 0.90168 0.78624 0.0
H1664 H 0.41446 0.90587 0.82477 0.0
H1665 H 0.30791 0.88106 0.84127 0.0
H1666 H 0.30442 0.89083 0.95501 0.0
H1667 H 0.29012 0.89546 0.91833 0.0
C1668 C 0.67181 0.63635 0.53552 0.0
C1669 C 0.63292 0.63466 0.52726 0.0
C1670 C 0.67974 0.63363 0.55642 0.0
C1671 C 0.63792 0.61374 0.59972 0.0
H1672 H 0.69063 0.64966 0.63925 0.0
C1673 C 0.60052 0.63001 0.68916 0.0
C1674 C 0.631 0.63426 0.70441 0.0
C1675 C 0.60897 0.62717 0.66713 0.0
C1676 C 0.67668 0.63933 0.62833 0.0
H1677 H 0.57207 0.6285 0.53409 0.0
H1678 H 0.58582 0.62385 0.5704 0.0
H1679 H 0.69097 0.64983 0.60044 0.0
H1680 H 0.69428 0.63874 0.70868 0.0
H1681 H 0.709 0.63405 0.66981 0.0
H1682 H 0.62189 0.6037 0.62766 0.0
C1683 C 0.61027 0.62712 0.56076 0.0
C1684 C 0.67687 0.63942 0.60614 0.0
C1685 C 0.60231 0.62997 0.54005 0.0
C1686 C 0.67024 0.63549 0.69722 0.0
C1687 C 0.67866 0.63283 0.67506 0.0
C1688 C 0.63768 0.61365 0.62184 0.0
C1689 C 0.64898 0.62898 0.5692 0.0
C1690 C 0.65606 0.62701 0.59178 0.0
C1691 C 0.64803 0.62864 0.65985 0.0
C1692 C 0.65564 0.62682 0.6364 0.0
H1693 H 0.69597 0.63993 0.52594 0.0
H1694 H 0.70984 0.63515 0.56258 0.0
H1695 H 0.62236 0.60382 0.58891 0.0
H1696 H 0.57002 0.62892 0.69423 0.0
H1697 H 0.58468 0.62425 0.65575 0.0
C1698 C 0.39383 0.39893 0.29215 0.0
C1699 C 0.36445 0.39437 0.27635 0.0
C1700 C 0.38411 0.40134 0.314 0.0
C1701 C 0.31738 0.38749 0.35158 0.0
H1702 H 0.36563 0.42443 0.39157 0.0
C1703 C 0.32554 0.39096 0.44488 0.0
C1704 C 0.36483 0.39331 0.45241 0.0
C1705 C 0.31584 0.39321 0.42397 0.0
C1706 C 0.3516 0.41415 0.3806 0.0
H1707 H 0.30185 0.38878 0.27085 0.0
H1708 H 0.28496 0.39265 0.30945 0.0
H1709 H 0.36553 0.42485 0.3529 0.0
H1710 H 0.42463 0.39995 0.44422 0.0
H1711 H 0.40776 0.40389 0.408 0.0
H1712 H 0.30555 0.37634 0.37929 0.0
C1713 C 0.31537 0.3945 0.30476 0.0
C1714 C 0.35153 0.41439 0.35854 0.0
C1715 C 0.32504 0.39231 0.28278 0.0
C1716 C 0.39413 0.39799 0.43884 0.0
C1717 C 0.3844 0.40043 0.41818 0.0
C1718 C 0.31748 0.38724 0.37374 0.0
C1719 C 0.34489 0.3991 0.32052 0.0
C1720 C 0.33612 0.4007 0.34378 0.0
C1721 C 0.34521 0.39812 0.41056 0.0
C1722 C 0.3363 0.4002 0.38825 0.0
H1723 H 0.42442 0.40066 0.28766 0.0
H1724 H 0.40756 0.4046 0.32585 0.0
H1725 H 0.30538 0.37678 0.34047 0.0
H1726 H 0.30241 0.38735 0.45508 0.0
H1727 H 0.28547 0.39128 0.41836 0.0
loop_
_geom_bond_atom_site_label_1
_geom_bond_atom_site_label_2
_geom_bond_distance
_geom_bond_site_symmetry_2
_ccdc_geom_bond_type
Co0 N4 2.148 . S
Co0 N10 2.128 . S
Co0 N20 2.194 . S
Co0 O25 2.351 . S
Co0 O26 2.155 . S
Co0 O27 2.096 . S
C1 N4 1.301 . S
C1 N5 1.328 . S
C1 H6 0.930 . S
C2 C3 1.333 . S
C2 N4 1.317 . S
C2 H7 0.930 . S
C3 C2 1.333 . S
C3 N5 1.350 . S
C3 H29 0.931 . S
N4 Co0 2.148 . S
N4 C1 1.301 . S
N4 C2 1.317 . S
N5 C1 1.328 . S
N5 C3 1.350 . S
H6 C1 0.930 . S
H7 C2 0.930 . S
C8 O9 1.224 . S
C8 O27 1.247 . S
O9 C8 1.224 . S
N10 Co0 2.128 . S
N10 C11 1.355 . S
N10 C13 1.311 . S
C11 N10 1.355 . S
C11 C12 1.363 . S
C11 H23 0.929 . S
C12 C11 1.363 . S
C12 N14 1.375 . S
C12 H30 0.931 . S
C13 N10 1.311 . S
C13 N14 1.347 . S
C13 H24 0.929 . S
N14 C12 1.375 . S
N14 C13 1.347 . S
C15 C18 1.365 1_455 S
C15 N20 1.328 . S
C15 H21 0.929 . S
C16 C17 1.362 1_455 S
C16 C19 1.378 . S
C16 H31 0.929 . S
C17 C16 1.362 1_655 S
C17 C18 1.366 . S
C18 C15 1.365 1_655 S
C18 C17 1.366 . S
C18 H32 0.930 . S
C19 C16 1.378 . S
C19 N20 1.315 . S
C19 H22 0.930 . S
N20 Co0 2.194 . S
N20 C15 1.328 . S
N20 C19 1.315 . S
H21 C15 0.929 . S
H22 C19 0.930 . S
H23 C11 0.929 . S
H24 C13 0.929 . S
O25 Co0 2.351 . S
O25 C28 1.244 . S
O26 Co0 2.155 . S
O26 C28 1.240 . S
O27 Co0 2.096 . S
O27 C8 1.247 . S
C28 O25 1.244 . S
C28 O26 1.240 . S
H29 C3 0.931 . S
H30 C12 0.931 . S
H31 C16 0.929 . S
H32 C18 0.930 . S
Co33 N37 2.148 . S
Co33 N43 2.128 . S
Co33 N53 2.194 . S
Co33 O58 2.351 . S
Co33 O59 2.155 . S
Co33 O60 2.096 . S
C34 N37 1.301 . S
C34 N38 1.328 . S
C34 H39 0.930 . S
C35 C36 1.333 . S
C35 N37 1.317 . S
C35 H40 0.930 . S
C36 C35 1.333 . S
C36 N38 1.350 . S
C36 H62 0.931 . S
N37 Co33 2.148 . S
N37 C34 1.301 . S
N37 C35 1.317 . S
N38 C34 1.328 . S
N38 C36 1.350 . S
H39 C34 0.930 . S
H40 C35 0.930 . S
C41 O42 1.224 . S
C41 O60 1.247 . S
O42 C41 1.224 . S
N43 Co33 2.128 . S
N43 C44 1.355 . S
N43 C46 1.311 . S
C44 N43 1.355 . S
C44 C45 1.363 . S
C44 H56 0.929 . S
C45 C44 1.363 . S
C45 N47 1.375 . S
C45 H63 0.931 . S
C46 N43 1.311 . S
C46 N47 1.347 . S
C46 H57 0.929 . S
N47 C45 1.375 . S
N47 C46 1.347 . S
C48 C51 1.365 1_455 S
C48 N53 1.328 . S
C48 H54 0.929 . S
C49 C50 1.362 1_455 S
C49 C52 1.378 . S
C49 H64 0.929 . S
C50 C49 1.362 1_655 S
C50 C51 1.366 . S
C51 C48 1.365 1_655 S
C51 C50 1.366 . S
C51 H65 0.930 . S
C52 C49 1.378 . S
C52 N53 1.315 . S
C52 H55 0.930 . S
N53 Co33 2.194 . S
N53 C48 1.328 . S
N53 C52 1.315 . S
H54 C48 0.929 . S
H55 C52 0.930 . S
H56 C44 0.929 . S
H57 C46 0.929 . S
O58 Co33 2.351 . S
O58 C61 1.244 . S
O59 Co33 2.155 . S
O59 C61 1.240 . S
O60 Co33 2.096 . S
O60 C41 1.247 . S
C61 O58 1.244 . S
C61 O59 1.240 . S
H62 C36 0.931 . S
H63 C45 0.931 . S
H64 C49 0.929 . S
H65 C51 0.930 . S
Co66 N70 2.148 . S
Co66 N76 2.128 . S
Co66 N86 2.194 . S
Co66 O91 2.351 . S
Co66 O92 2.155 . S
Co66 O93 2.096 . S
C67 N70 1.301 . S
C67 N71 1.328 . S
C67 H72 0.930 . S
C68 C69 1.333 . S
C68 N70 1.317 . S
C68 H73 0.930 . S
C69 C68 1.333 . S
C69 N71 1.350 . S
C69 H95 0.931 . S
N70 Co66 2.148 . S
N70 C67 1.301 . S
N70 C68 1.317 . S
N71 C67 1.328 . S
N71 C69 1.350 . S
H72 C67 0.930 . S
H73 C68 0.930 . S
C74 O75 1.224 . S
C74 O93 1.247 . S
O75 C74 1.224 . S
N76 Co66 2.128 . S
N76 C77 1.355 . S
N76 C79 1.311 . S
C77 N76 1.355 . S
C77 C78 1.363 . S
C77 H89 0.929 . S
C78 C77 1.363 . S
C78 N80 1.375 . S
C78 H96 0.931 . S
C79 N76 1.311 . S
C79 N80 1.347 . S
C79 H90 0.929 . S
N80 C78 1.375 . S
N80 C79 1.347 . S
C81 C84 1.365 1_655 S
C81 N86 1.328 . S
C81 H87 0.929 . S
C82 C83 1.362 1_655 S
C82 C85 1.378 . S
C82 H97 0.929 . S
C83 C82 1.362 1_455 S
C83 C84 1.366 . S
C84 C81 1.365 1_455 S
C84 C83 1.366 . S
C84 H98 0.930 . S
C85 C82 1.378 . S
C85 N86 1.315 . S
C85 H88 0.930 . S
N86 Co66 2.194 . S
N86 C81 1.328 . S
N86 C85 1.315 . S
H87 C81 0.929 . S
H88 C85 0.930 . S
H89 C77 0.929 . S
H90 C79 0.929 . S
O91 Co66 2.351 . S
O91 C94 1.244 . S
O92 Co66 2.155 . S
O92 C94 1.240 . S
O93 Co66 2.096 . S
O93 C74 1.247 . S
C94 O91 1.244 . S
C94 O92 1.240 . S
H95 C69 0.931 . S
H96 C78 0.931 . S
H97 C82 0.929 . S
H98 C84 0.930 . S
Co99 N103 2.148 . S
Co99 N109 2.128 . S
Co99 N119 2.194 . S
Co99 O124 2.351 . S
Co99 O125 2.155 . S
Co99 O126 2.096 . S
C100 N103 1.301 . S
C100 N104 1.328 . S
C100 H105 0.930 . S
C101 C102 1.333 . S
C101 N103 1.317 . S
C101 H106 0.930 . S
C102 C101 1.333 . S
C102 N104 1.350 . S
C102 H128 0.931 . S
N103 Co99 2.148 . S
N103 C100 1.301 . S
N103 C101 1.317 . S
N104 C100 1.328 . S
N104 C102 1.350 . S
H105 C100 0.930 . S
H106 C101 0.930 . S
C107 O108 1.224 . S
C107 O126 1.247 . S
O108 C107 1.224 . S
N109 Co99 2.128 . S
N109 C110 1.355 . S
N109 C112 1.311 . S
C110 N109 1.355 . S
C110 C111 1.363 . S
C110 H122 0.929 . S
C111 C110 1.363 . S
C111 N113 1.375 . S
C111 H129 0.931 . S
C112 N109 1.311 . S
C112 N113 1.347 . S
C112 H123 0.929 . S
N113 C111 1.375 . S
N113 C112 1.347 . S
C114 C117 1.365 1_655 S
C114 N119 1.328 . S
C114 H120 0.929 . S
C115 C116 1.362 1_655 S
C115 C118 1.378 . S
C115 H130 0.929 . S
C116 C115 1.362 1_455 S
C116 C117 1.366 . S
C117 C114 1.365 1_455 S
C117 C116 1.366 . S
C117 H131 0.930 . S
C118 C115 1.378 . S
C118 N119 1.315 . S
C118 H121 0.930 . S
N119 Co99 2.194 . S
N119 C114 1.328 . S
N119 C118 1.315 . S
H120 C114 0.929 . S
H121 C118 0.930 . S
H122 C110 0.929 . S
H123 C112 0.929 . S
O124 Co99 2.351 . S
O124 C127 1.244 . S
O125 Co99 2.155 . S
O125 C127 1.240 . S
O126 Co99 2.096 . S
O126 C107 1.247 . S
C127 O124 1.244 . S
C127 O125 1.240 . S
H128 C102 0.931 . S
H129 C111 0.931 . S
H130 C115 0.929 . S
H131 C117 0.930 . S
Co132 N136 2.148 . S
Co132 N142 2.128 . S
Co132 N152 2.194 . S
Co132 O157 2.351 1_556 S
Co132 O158 2.155 1_556 S
Co132 O159 2.096 . S
C133 N136 1.301 . S
C133 N137 1.328 . S
C133 H138 0.930 . S
C134 C135 1.333 . S
C134 N136 1.317 . S
C134 H139 0.930 . S
C135 C134 1.333 . S
C135 N137 1.350 . S
C135 H161 0.931 . S
N136 Co132 2.148 . S
N136 C133 1.301 . S
N136 C134 1.317 . S
N137 C133 1.328 . S
N137 C135 1.350 . S
H138 C133 0.930 . S
H139 C134 0.930 . S
C140 O141 1.224 . S
C140 O159 1.247 . S
O141 C140 1.224 . S
N142 Co132 2.128 . S
N142 C143 1.355 . S
N142 C145 1.311 . S
C143 N142 1.355 . S
C143 C144 1.363 . S
C143 H155 0.929 . S
C144 C143 1.363 . S
C144 N146 1.375 . S
C144 H162 0.931 . S
C145 N142 1.311 . S
C145 N146 1.347 . S
C145 H156 0.929 . S
N146 C144 1.375 . S
N146 C145 1.347 . S
C147 C150 1.365 1_455 S
C147 N152 1.328 . S
C147 H153 0.929 . S
C148 C149 1.362 1_455 S
C148 C151 1.378 . S
C148 H163 0.929 . S
C149 C148 1.362 1_655 S
C149 C150 1.366 . S
C150 C147 1.365 1_655 S
C150 C149 1.366 . S
C150 H164 0.930 . S
C151 C148 1.378 . S
C151 N152 1.315 . S
C151 H154 0.930 . S
N152 Co132 2.194 . S
N152 C147 1.328 . S
N152 C151 1.315 . S
H153 C147 0.929 . S
H154 C151 0.930 . S
H155 C143 0.929 . S
H156 C145 0.929 . S
O157 Co132 2.351 1_554 S
O157 C160 1.244 . S
O158 Co132 2.155 1_554 S
O158 C160 1.240 . S
O159 Co132 2.096 . S
O159 C140 1.247 . S
C160 O157 1.244 . S
C160 O158 1.240 . S
H161 C135 0.931 . S
H162 C144 0.931 . S
H163 C148 0.929 . S
H164 C150 0.930 . S
Co165 N169 2.148 . S
Co165 N175 2.128 . S
Co165 N185 2.194 . S
Co165 O190 2.351 . S
Co165 O191 2.155 . S
Co165 O192 2.096 . S
C166 N169 1.301 . S
C166 N170 1.328 . S
C166 H171 0.930 . S
C167 C168 1.333 . S
C167 N169 1.317 . S
C167 H172 0.930 . S
C168 C167 1.333 . S
C168 N170 1.350 . S
C168 H194 0.931 . S
N169 Co165 2.148 . S
N169 C166 1.301 . S
N169 C167 1.317 . S
N170 C166 1.328 . S
N170 C168 1.350 . S
H171 C166 0.930 . S
H172 C167 0.930 . S
C173 O174 1.224 . S
C173 O192 1.247 . S
O174 C173 1.224 . S
N175 Co165 2.128 . S
N175 C176 1.355 . S
N175 C178 1.311 . S
C176 N175 1.355 . S
C176 C177 1.363 . S
C176 H188 0.929 . S
C177 C176 1.363 . S
C177 N179 1.375 . S
C177 H195 0.931 . S
C178 N175 1.311 . S
C178 N179 1.347 . S
C178 H189 0.929 . S
N179 C177 1.375 . S
N179 C178 1.347 . S
C180 C183 1.365 1_455 S
C180 N185 1.328 . S
C180 H186 0.929 . S
C181 C182 1.362 1_455 S
C181 C184 1.378 . S
C181 H196 0.929 . S
C182 C181 1.362 1_655 S
C182 C183 1.366 . S
C183 C180 1.365 1_655 S
C183 C182 1.366 . S
C183 H197 0.930 . S
C184 C181 1.378 . S
C184 N185 1.315 . S
C184 H187 0.930 . S
N185 Co165 2.194 . S
N185 C180 1.328 . S
N185 C184 1.315 . S
H186 C180 0.929 . S
H187 C184 0.930 . S
H188 C176 0.929 . S
H189 C178 0.929 . S
O190 Co165 2.351 . S
O190 C193 1.244 . S
O191 Co165 2.155 . S
O191 C193 1.240 . S
O192 Co165 2.096 . S
O192 C173 1.247 . S
C193 O190 1.244 . S
C193 O191 1.240 . S
H194 C168 0.931 . S
H195 C177 0.931 . S
H196 C181 0.929 . S
H197 C183 0.930 . S
Co198 N202 2.148 . S
Co198 N208 2.128 . S
Co198 N218 2.194 . S
Co198 O223 2.351 1_554 S
Co198 O224 2.155 1_554 S
Co198 O225 2.096 . S
C199 N202 1.301 . S
C199 N203 1.328 . S
C199 H204 0.930 . S
C200 C201 1.333 . S
C200 N202 1.317 . S
C200 H205 0.930 . S
C201 C200 1.333 . S
C201 N203 1.350 . S
C201 H227 0.931 . S
N202 Co198 2.148 . S
N202 C199 1.301 . S
N202 C200 1.317 . S
N203 C199 1.328 . S
N203 C201 1.350 . S
H204 C199 0.930 . S
H205 C200 0.930 . S
C206 O207 1.224 . S
C206 O225 1.247 . S
O207 C206 1.224 . S
N208 Co198 2.128 . S
N208 C209 1.355 . S
N208 C211 1.311 . S
C209 N208 1.355 . S
C209 C210 1.363 . S
C209 H221 0.929 . S
C210 C209 1.363 . S
C210 N212 1.375 . S
C210 H228 0.931 . S
C211 N208 1.311 . S
C211 N212 1.347 . S
C211 H222 0.929 . S
N212 C210 1.375 . S
N212 C211 1.347 . S
C213 C216 1.365 1_655 S
C213 N218 1.328 . S
C213 H219 0.929 . S
C214 C215 1.362 1_655 S
C214 C217 1.378 . S
C214 H229 0.929 . S
C215 C214 1.362 1_455 S
C215 C216 1.366 . S
C216 C213 1.365 1_455 S
C216 C215 1.366 . S
C216 H230 0.930 . S
C217 C214 1.378 . S
C217 N218 1.315 . S
C217 H220 0.930 . S
N218 Co198 2.194 . S
N218 C213 1.328 . S
N218 C217 1.315 . S
H219 C213 0.929 . S
H220 C217 0.930 . S
H221 C209 0.929 . S
H222 C211 0.929 . S
O223 Co198 2.351 1_556 S
O223 C226 1.244 . S
O224 Co198 2.155 1_556 S
O224 C226 1.240 . S
O225 Co198 2.096 . S
O225 C206 1.247 . S
C226 O223 1.244 . S
C226 O224 1.240 . S
H227 C201 0.931 . S
H228 C210 0.931 . S
H229 C214 0.929 . S
H230 C216 0.930 . S
Co231 N235 2.148 . S
Co231 N241 2.128 . S
Co231 N251 2.194 . S
Co231 O256 2.351 . S
Co231 O257 2.155 . S
Co231 O258 2.096 . S
C232 N235 1.301 . S
C232 N236 1.328 . S
C232 H237 0.930 . S
C233 C234 1.333 . S
C233 N235 1.317 . S
C233 H238 0.930 . S
C234 C233 1.333 . S
C234 N236 1.350 . S
C234 H260 0.931 . S
N235 Co231 2.148 . S
N235 C232 1.301 . S
N235 C233 1.317 . S
N236 C232 1.328 . S
N236 C234 1.350 . S
H237 C232 0.930 . S
H238 C233 0.930 . S
C239 O240 1.224 . S
C239 O258 1.247 . S
O240 C239 1.224 . S
N241 Co231 2.128 . S
N241 C242 1.355 . S
N241 C244 1.311 . S
C242 N241 1.355 . S
C242 C243 1.363 . S
C242 H254 0.929 . S
C243 C242 1.363 . S
C243 N245 1.375 . S
C243 H261 0.931 . S
C244 N241 1.311 . S
C244 N245 1.347 . S
C244 H255 0.929 . S
N245 C243 1.375 . S
N245 C244 1.347 . S
C246 C249 1.365 1_655 S
C246 N251 1.328 . S
C246 H252 0.929 . S
C247 C248 1.362 1_655 S
C247 C250 1.378 . S
C247 H262 0.929 . S
C248 C247 1.362 1_455 S
C248 C249 1.366 . S
C249 C246 1.365 1_455 S
C249 C248 1.366 . S
C249 H263 0.930 . S
C250 C247 1.378 . S
C250 N251 1.315 . S
C250 H253 0.930 . S
N251 Co231 2.194 . S
N251 C246 1.328 . S
N251 C250 1.315 . S
H252 C246 0.929 . S
H253 C250 0.930 . S
H254 C242 0.929 . S
H255 C244 0.929 . S
O256 Co231 2.351 . S
O256 C259 1.244 . S
O257 Co231 2.155 . S
O257 C259 1.240 . S
O258 Co231 2.096 . S
O258 C239 1.247 . S
C259 O256 1.244 . S
C259 O257 1.240 . S
H260 C234 0.931 . S
H261 C243 0.931 . S
H262 C247 0.929 . S
H263 C249 0.930 . S
Co264 N268 2.148 . S
Co264 N274 2.128 . S
Co264 N284 2.194 . S
Co264 O289 2.351 1_556 S
Co264 O290 2.155 1_556 S
Co264 O291 2.096 . S
C265 N268 1.301 . S
C265 N269 1.328 . S
C265 H270 0.930 . S
C266 C267 1.333 . S
C266 N268 1.317 . S
C266 H271 0.930 . S
C267 C266 1.333 . S
C267 N269 1.350 . S
C267 H293 0.931 . S
N268 Co264 2.148 . S
N268 C265 1.301 . S
N268 C266 1.317 . S
N269 C265 1.328 . S
N269 C267 1.350 . S
H270 C265 0.930 . S
H271 C266 0.930 . S
C272 O273 1.224 . S
C272 O291 1.247 . S
O273 C272 1.224 . S
N274 Co264 2.128 . S
N274 C275 1.355 . S
N274 C277 1.311 . S
C275 N274 1.355 . S
C275 C276 1.363 . S
C275 H287 0.929 . S
C276 C275 1.363 . S
C276 N278 1.375 . S
C276 H294 0.931 . S
C277 N274 1.311 . S
C277 N278 1.347 . S
C277 H288 0.929 . S
N278 C276 1.375 . S
N278 C277 1.347 . S
C279 C282 1.365 . S
C279 N284 1.328 . S
C279 H285 0.929 . S
C280 C281 1.362 . S
C280 C283 1.378 . S
C280 H295 0.929 . S
C281 C280 1.362 . S
C281 C282 1.366 . S
C282 C279 1.365 . S
C282 C281 1.366 . S
C282 H296 0.930 . S
C283 C280 1.378 . S
C283 N284 1.315 . S
C283 H286 0.930 . S
N284 Co264 2.194 . S
N284 C279 1.328 . S
N284 C283 1.315 . S
H285 C279 0.929 . S
H286 C283 0.930 . S
H287 C275 0.929 . S
H288 C277 0.929 . S
O289 Co264 2.351 1_554 S
O289 C292 1.244 . S
O290 Co264 2.155 1_554 S
O290 C292 1.240 . S
O291 Co264 2.096 . S
O291 C272 1.247 . S
C292 O289 1.244 . S
C292 O290 1.240 . S
H293 C267 0.931 . S
H294 C276 0.931 . S
H295 C280 0.929 . S
H296 C282 0.930 . S
Co297 N301 2.148 . S
Co297 N307 2.128 . S
Co297 N317 2.194 . S
Co297 O322 2.351 . S
Co297 O323 2.155 . S
Co297 O324 2.096 . S
C298 N301 1.301 . S
C298 N302 1.328 . S
C298 H303 0.930 . S
C299 C300 1.333 . S
C299 N301 1.317 . S
C299 H304 0.930 . S
C300 C299 1.333 . S
C300 N302 1.350 . S
C300 H326 0.931 . S
N301 Co297 2.148 . S
N301 C298 1.301 . S
N301 C299 1.317 . S
N302 C298 1.328 . S
N302 C300 1.350 . S
H303 C298 0.930 . S
H304 C299 0.930 . S
C305 O306 1.224 . S
C305 O324 1.247 . S
O306 C305 1.224 . S
N307 Co297 2.128 . S
N307 C308 1.355 . S
N307 C310 1.311 . S
C308 N307 1.355 . S
C308 C309 1.363 . S
C308 H320 0.929 . S
C309 C308 1.363 . S
C309 N311 1.375 . S
C309 H327 0.931 . S
C310 N307 1.311 . S
C310 N311 1.347 . S
C310 H321 0.929 . S
N311 C309 1.375 . S
N311 C310 1.347 . S
C312 C315 1.365 . S
C312 N317 1.328 . S
C312 H318 0.929 . S
C313 C314 1.362 . S
C313 C316 1.378 . S
C313 H328 0.929 . S
C314 C313 1.362 . S
C314 C315 1.366 . S
C315 C312 1.365 . S
C315 C314 1.366 . S
C315 H329 0.930 . S
C316 C313 1.378 . S
C316 N317 1.315 . S
C316 H319 0.930 . S
N317 Co297 2.194 . S
N317 C312 1.328 . S
N317 C316 1.315 . S
H318 C312 0.929 . S
H319 C316 0.930 . S
H320 C308 0.929 . S
H321 C310 0.929 . S
O322 Co297 2.351 . S
O322 C325 1.244 . S
O323 Co297 2.155 . S
O323 C325 1.240 . S
O324 Co297 2.096 . S
O324 C305 1.247 . S
C325 O322 1.244 . S
C325 O323 1.240 . S
H326 C300 0.931 . S
H327 C309 0.931 . S
H328 C313 0.929 . S
H329 C315 0.930 . S
Co330 N334 2.148 . S
Co330 N340 2.128 . S
Co330 N350 2.194 . S
Co330 O355 2.351 1_554 S
Co330 O356 2.155 1_554 S
Co330 O357 2.096 . S
C331 N334 1.301 . S
C331 N335 1.328 . S
C331 H336 0.930 . S
C332 C333 1.333 . S
C332 N334 1.317 . S
C332 H337 0.930 . S
C333 C332 1.333 . S
C333 N335 1.350 . S
C333 H359 0.931 . S
N334 Co330 2.148 . S
N334 C331 1.301 . S
N334 C332 1.317 . S
N335 C331 1.328 . S
N335 C333 1.350 . S
H336 C331 0.930 . S
H337 C332 0.930 . S
C338 O339 1.224 . S
C338 O357 1.247 . S
O339 C338 1.224 . S
N340 Co330 2.128 . S
N340 C341 1.355 . S
N340 C343 1.311 . S
C341 N340 1.355 . S
C341 C342 1.363 . S
C341 H353 0.929 . S
C342 C341 1.363 . S
C342 N344 1.375 . S
C342 H360 0.931 . S
C343 N340 1.311 . S
C343 N344 1.347 . S
C343 H354 0.929 . S
N344 C342 1.375 . S
N344 C343 1.347 . S
C345 C348 1.365 . S
C345 N350 1.328 . S
C345 H351 0.929 . S
C346 C347 1.362 . S
C346 C349 1.378 . S
C346 H361 0.929 . S
C347 C346 1.362 . S
C347 C348 1.366 . S
C348 C345 1.365 . S
C348 C347 1.366 . S
C348 H362 0.930 . S
C349 C346 1.378 . S
C349 N350 1.315 . S
C349 H352 0.930 . S
N350 Co330 2.194 . S
N350 C345 1.328 . S
N350 C349 1.315 . S
H351 C345 0.929 . S
H352 C349 0.930 . S
H353 C341 0.929 . S
H354 C343 0.929 . S
O355 Co330 2.351 1_556 S
O355 C358 1.244 . S
O356 Co330 2.155 1_556 S
O356 C358 1.240 . S
O357 Co330 2.096 . S
O357 C338 1.247 . S
C358 O355 1.244 . S
C358 O356 1.240 . S
H359 C333 0.931 . S
H360 C342 0.931 . S
H361 C346 0.929 . S
H362 C348 0.930 . S
Co363 N367 2.148 . S
Co363 N373 2.128 . S
Co363 N383 2.194 . S
Co363 O388 2.351 . S
Co363 O389 2.155 . S
Co363 O390 2.096 . S
C364 N367 1.301 . S
C364 N368 1.328 . S
C364 H369 0.930 . S
C365 C366 1.333 . S
C365 N367 1.317 . S
C365 H370 0.930 . S
C366 C365 1.333 . S
C366 N368 1.350 . S
C366 H392 0.931 . S
N367 Co363 2.148 . S
N367 C364 1.301 . S
N367 C365 1.317 . S
N368 C364 1.328 . S
N368 C366 1.350 . S
H369 C364 0.930 . S
H370 C365 0.930 . S
C371 O372 1.224 . S
C371 O390 1.247 . S
O372 C371 1.224 . S
N373 Co363 2.128 . S
N373 C374 1.355 . S
N373 C376 1.311 . S
C374 N373 1.355 . S
C374 C375 1.363 . S
C374 H386 0.929 . S
C375 C374 1.363 . S
C375 N377 1.375 . S
C375 H393 0.931 . S
C376 N373 1.311 . S
C376 N377 1.347 . S
C376 H387 0.929 . S
N377 C375 1.375 . S
N377 C376 1.347 . S
C378 C381 1.365 . S
C378 N383 1.328 . S
C378 H384 0.929 . S
C379 C380 1.362 . S
C379 C382 1.378 . S
C379 H394 0.929 . S
C380 C379 1.362 . S
C380 C381 1.366 . S
C381 C378 1.365 . S
C381 C380 1.366 . S
C381 H395 0.930 . S
C382 C379 1.378 . S
C382 N383 1.315 . S
C382 H385 0.930 . S
N383 Co363 2.194 . S
N383 C378 1.328 . S
N383 C382 1.315 . S
H384 C378 0.929 . S
H385 C382 0.930 . S
H386 C374 0.929 . S
H387 C376 0.929 . S
O388 Co363 2.351 . S
O388 C391 1.244 . S
O389 Co363 2.155 . S
O389 C391 1.240 . S
O390 Co363 2.096 . S
O390 C371 1.247 . S
C391 O388 1.244 . S
C391 O389 1.240 . S
H392 C366 0.931 . S
H393 C375 0.931 . S
H394 C379 0.929 . S
H395 C381 0.930 . S
Co396 N400 2.148 . S
Co396 N406 2.128 . S
Co396 N416 2.194 . S
Co396 O421 2.351 . S
Co396 O422 2.155 . S
Co396 O423 2.096 . S
C397 N400 1.301 . S
C397 N401 1.328 . S
C397 H402 0.930 . S
C398 C399 1.333 . S
C398 N400 1.317 . S
C398 H403 0.930 . S
C399 C398 1.333 . S
C399 N401 1.350 . S
C399 H425 0.931 . S
N400 Co396 2.148 . S
N400 C397 1.301 . S
N400 C398 1.317 . S
N401 C397 1.328 . S
N401 C399 1.350 . S
H402 C397 0.930 . S
H403 C398 0.930 . S
C404 O405 1.224 . S
C404 O423 1.247 . S
O405 C404 1.224 . S
N406 Co396 2.128 . S
N406 C407 1.355 . S
N406 C409 1.311 . S
C407 N406 1.355 . S
C407 C408 1.363 . S
C407 H419 0.929 . S
C408 C407 1.363 . S
C408 N410 1.375 . S
C408 H426 0.931 . S
C409 N406 1.311 . S
C409 N410 1.347 . S
C409 H420 0.929 . S
N410 C408 1.375 . S
N410 C409 1.347 . S
C411 C414 1.365 . S
C411 N416 1.328 . S
C411 H417 0.929 . S
C412 C413 1.362 . S
C412 C415 1.378 . S
C412 H427 0.929 . S
C413 C412 1.362 . S
C413 C414 1.366 . S
C414 C411 1.365 . S
C414 C413 1.366 . S
C414 H428 0.930 . S
C415 C412 1.378 . S
C415 N416 1.315 . S
C415 H418 0.930 . S
N416 Co396 2.194 . S
N416 C411 1.328 . S
N416 C415 1.315 . S
H417 C411 0.929 . S
H418 C415 0.930 . S
H419 C407 0.929 . S
H420 C409 0.929 . S
O421 Co396 2.351 . S
O421 C424 1.244 . S
O422 Co396 2.155 . S
O422 C424 1.240 . S
O423 Co396 2.096 . S
O423 C404 1.247 . S
C424 O421 1.244 . S
C424 O422 1.240 . S
H425 C399 0.931 . S
H426 C408 0.931 . S
H427 C412 0.929 . S
H428 C414 0.930 . S
Co429 N433 2.148 . S
Co429 N439 2.128 . S
Co429 N449 2.194 . S
Co429 O454 2.351 . S
Co429 O455 2.155 . S
Co429 O456 2.096 . S
C430 N433 1.301 . S
C430 N434 1.328 . S
C430 H435 0.930 . S
C431 C432 1.333 . S
C431 N433 1.317 . S
C431 H436 0.930 . S
C432 C431 1.333 . S
C432 N434 1.350 . S
C432 H458 0.931 . S
N433 Co429 2.148 . S
N433 C430 1.301 . S
N433 C431 1.317 . S
N434 C430 1.328 . S
N434 C432 1.350 . S
H435 C430 0.930 . S
H436 C431 0.930 . S
C437 O438 1.224 . S
C437 O456 1.247 . S
O438 C437 1.224 . S
N439 Co429 2.128 . S
N439 C440 1.355 . S
N439 C442 1.311 . S
C440 N439 1.355 . S
C440 C441 1.363 . S
C440 H452 0.929 . S
C441 C440 1.363 . S
C441 N443 1.375 . S
C441 H459 0.931 . S
C442 N439 1.311 . S
C442 N443 1.347 . S
C442 H453 0.929 . S
N443 C441 1.375 . S
N443 C442 1.347 . S
C444 C447 1.365 . S
C444 N449 1.328 . S
C444 H450 0.929 . S
C445 C446 1.362 . S
C445 C448 1.378 . S
C445 H460 0.929 . S
C446 C445 1.362 . S
C446 C447 1.366 . S
C447 C444 1.365 . S
C447 C446 1.366 . S
C447 H461 0.930 . S
C448 C445 1.378 . S
C448 N449 1.315 . S
C448 H451 0.930 . S
N449 Co429 2.194 . S
N449 C444 1.328 . S
N449 C448 1.315 . S
H450 C444 0.929 . S
H451 C448 0.930 . S
H452 C440 0.929 . S
H453 C442 0.929 . S
O454 Co429 2.351 . S
O454 C457 1.244 . S
O455 Co429 2.155 . S
O455 C457 1.240 . S
O456 Co429 2.096 . S
O456 C437 1.247 . S
C457 O454 1.244 . S
C457 O455 1.240 . S
H458 C432 0.931 . S
H459 C441 0.931 . S
H460 C445 0.929 . S
H461 C447 0.930 . S
Co462 N466 2.148 . S
Co462 N472 2.128 . S
Co462 N482 2.194 . S
Co462 O487 2.351 . S
Co462 O488 2.155 . S
Co462 O489 2.096 . S
C463 N466 1.301 . S
C463 N467 1.328 . S
C463 H468 0.930 . S
C464 C465 1.333 . S
C464 N466 1.317 . S
C464 H469 0.930 . S
C465 C464 1.333 . S
C465 N467 1.350 . S
C465 H491 0.931 . S
N466 Co462 2.148 . S
N466 C463 1.301 . S
N466 C464 1.317 . S
N467 C463 1.328 . S
N467 C465 1.350 . S
H468 C463 0.930 . S
H469 C464 0.930 . S
C470 O471 1.224 . S
C470 O489 1.247 . S
O471 C470 1.224 . S
N472 Co462 2.128 . S
N472 C473 1.355 . S
N472 C475 1.311 . S
C473 N472 1.355 . S
C473 C474 1.363 . S
C473 H485 0.929 . S
C474 C473 1.363 . S
C474 N476 1.375 . S
C474 H492 0.931 . S
C475 N472 1.311 . S
C475 N476 1.347 . S
C475 H486 0.929 . S
N476 C474 1.375 . S
N476 C475 1.347 . S
C477 C480 1.365 . S
C477 N482 1.328 . S
C477 H483 0.929 . S
C478 C479 1.362 . S
C478 C481 1.378 . S
C478 H493 0.929 . S
C479 C478 1.362 . S
C479 C480 1.366 . S
C480 C477 1.365 . S
C480 C479 1.366 . S
C480 H494 0.930 . S
C481 C478 1.378 . S
C481 N482 1.315 . S
C481 H484 0.930 . S
N482 Co462 2.194 . S
N482 C477 1.328 . S
N482 C481 1.315 . S
H483 C477 0.929 . S
H484 C481 0.930 . S
H485 C473 0.929 . S
H486 C475 0.929 . S
O487 Co462 2.351 . S
O487 C490 1.244 . S
O488 Co462 2.155 . S
O488 C490 1.240 . S
O489 Co462 2.096 . S
O489 C470 1.247 . S
C490 O487 1.244 . S
C490 O488 1.240 . S
H491 C465 0.931 . S
H492 C474 0.931 . S
H493 C478 0.929 . S
H494 C480 0.930 . S
Co495 N499 2.148 . S
Co495 N505 2.128 . S
Co495 N515 2.194 . S
Co495 O520 2.351 . S
Co495 O521 2.155 . S
Co495 O522 2.096 . S
C496 N499 1.301 . S
C496 N500 1.328 . S
C496 H501 0.930 . S
C497 C498 1.333 . S
C497 N499 1.317 . S
C497 H502 0.930 . S
C498 C497 1.333 . S
C498 N500 1.350 . S
C498 H524 0.931 . S
N499 Co495 2.148 . S
N499 C496 1.301 . S
N499 C497 1.317 . S
N500 C496 1.328 . S
N500 C498 1.350 . S
H501 C496 0.930 . S
H502 C497 0.930 . S
C503 O504 1.224 . S
C503 O522 1.247 . S
O504 C503 1.224 . S
N505 Co495 2.128 . S
N505 C506 1.355 . S
N505 C508 1.311 . S
C506 N505 1.355 . S
C506 C507 1.363 . S
C506 H518 0.929 . S
C507 C506 1.363 . S
C507 N509 1.375 . S
C507 H525 0.931 . S
C508 N505 1.311 . S
C508 N509 1.347 . S
C508 H519 0.929 . S
N509 C507 1.375 . S
N509 C508 1.347 . S
C510 C513 1.365 . S
C510 N515 1.328 . S
C510 H516 0.929 . S
C511 C512 1.362 . S
C511 C514 1.378 . S
C511 H526 0.929 . S
C512 C511 1.362 . S
C512 C513 1.366 . S
C513 C510 1.365 . S
C513 C512 1.366 . S
C513 H527 0.930 . S
C514 C511 1.378 . S
C514 N515 1.315 . S
C514 H517 0.930 . S
N515 Co495 2.194 . S
N515 C510 1.328 . S
N515 C514 1.315 . S
H516 C510 0.929 . S
H517 C514 0.930 . S
H518 C506 0.929 . S
H519 C508 0.929 . S
O520 Co495 2.351 . S
O520 C523 1.244 . S
O521 Co495 2.155 . S
O521 C523 1.240 . S
O522 Co495 2.096 . S
O522 C503 1.247 . S
C523 O520 1.244 . S
C523 O521 1.240 . S
H524 C498 0.931 . S
H525 C507 0.931 . S
H526 C511 0.929 . S
H527 C513 0.930 . S
C528 C529 1.349 . S
C528 C530 1.327 . S
C528 H553 0.950 . S
C529 C528 1.349 . S
C529 C545 1.349 . S
C530 C528 1.327 . S
C530 C549 1.429 . S
C530 H554 0.950 . S
C531 C548 1.574 . S
C531 C550 1.368 . S
C531 H555 0.949 . S
H532 C536 0.949 . S
C533 C534 1.349 . S
C533 C535 1.327 . S
C533 H556 0.950 . S
C534 C533 1.349 . S
C534 C546 1.349 . S
C535 C533 1.327 . S
C535 C551 1.429 . S
C535 H557 0.950 . S
C536 H532 0.949 . S
C536 C544 1.574 . S
C536 C552 1.368 . S
H537 C545 0.950 . S
H538 C543 0.950 . S
H539 C544 0.949 . S
H540 C546 0.950 . S
H541 C547 0.950 . S
H542 C548 0.949 . S
C543 H538 0.950 . S
C543 C545 1.327 . S
C543 C549 1.429 . S
C544 C536 1.574 . S
C544 H539 0.949 . S
C544 C550 1.368 . S
C545 C529 1.349 . S
C545 H537 0.950 . S
C545 C543 1.327 . S
C546 C534 1.349 . S
C546 H540 0.950 . S
C546 C547 1.327 . S
C547 H541 0.950 . S
C547 C546 1.327 . S
C547 C551 1.429 . S
C548 C531 1.574 . S
C548 H542 0.949 . S
C548 C552 1.368 . S
C549 C530 1.429 . S
C549 C543 1.429 . S
C549 C550 1.523 . S
C550 C531 1.368 . S
C550 C544 1.368 . S
C550 C549 1.523 . S
C551 C535 1.429 . S
C551 C547 1.429 . S
C551 C552 1.523 . S
C552 C536 1.368 . S
C552 C548 1.368 . S
C552 C551 1.523 . S
H553 C528 0.950 . S
H554 C530 0.950 . S
H555 C531 0.949 . S
H556 C533 0.950 . S
H557 C535 0.950 . S
C558 C559 1.349 . S
C558 C560 1.327 . S
C558 H583 0.950 . S
C559 C558 1.349 . S
C559 C575 1.349 . S
C560 C558 1.327 . S
C560 C579 1.429 . S
C560 H584 0.950 1_655 S
C561 C578 1.574 1_565 S
C561 C580 1.368 . S
C561 H585 0.949 . S
H562 C566 0.949 . S
C563 C564 1.349 . S
C563 C565 1.327 . S
C563 H586 0.950 . S
C564 C563 1.349 . S
C564 C576 1.349 . S
C565 C563 1.327 . S
C565 C581 1.429 . S
C565 H587 0.950 1_455 S
C566 H562 0.949 . S
C566 C574 1.574 1_545 S
C566 C582 1.368 . S
H567 C575 0.950 . S
H568 C573 0.950 . S
H569 C574 0.949 . S
H570 C576 0.950 . S
H571 C577 0.950 . S
H572 C578 0.949 . S
C573 H568 0.950 . S
C573 C575 1.327 . S
C573 C579 1.429 . S
C574 C566 1.574 1_565 S
C574 H569 0.949 . S
C574 C580 1.368 1_455 S
C575 C559 1.349 . S
C575 H567 0.950 . S
C575 C573 1.327 . S
C576 C564 1.349 . S
C576 H570 0.950 . S
C576 C577 1.327 . S
C577 H571 0.950 . S
C577 C576 1.327 . S
C577 C581 1.429 . S
C578 C561 1.574 1_545 S
C578 H572 0.949 . S
C578 C582 1.368 1_655 S
C579 C560 1.429 . S
C579 C573 1.429 . S
C579 C580 1.523 . S
C580 C561 1.368 . S
C580 C574 1.368 1_655 S
C580 C579 1.523 . S
C581 C565 1.429 . S
C581 C577 1.429 . S
C581 C582 1.523 . S
C582 C566 1.368 . S
C582 C578 1.368 1_455 S
C582 C581 1.523 . S
H583 C558 0.950 . S
H584 C560 0.950 1_455 S
H585 C561 0.949 . S
H586 C563 0.950 . S
H587 C565 0.950 1_655 S
C588 C589 1.349 . S
C588 C590 1.327 . S
C588 H613 0.950 . S
C589 C588 1.349 . S
C589 C605 1.349 . S
C590 C588 1.327 . S
C590 C609 1.429 . S
C590 H614 0.950 . S
C591 C608 1.574 1_545 S
C591 C610 1.368 . S
C591 H615 0.949 . S
H592 C596 0.949 . S
C593 C594 1.349 . S
C593 C595 1.327 . S
C593 H616 0.950 . S
C594 C593 1.349 . S
C594 C606 1.349 . S
C595 C593 1.327 . S
C595 C611 1.429 . S
C595 H617 0.950 . S
C596 H592 0.949 . S
C596 C604 1.574 1_565 S
C596 C612 1.368 . S
H597 C605 0.950 . S
H598 C603 0.950 . S
H599 C604 0.949 . S
H600 C606 0.950 . S
H601 C607 0.950 . S
H602 C608 0.949 . S
C603 H598 0.950 . S
C603 C605 1.327 . S
C603 C609 1.429 . S
C604 C596 1.574 1_545 S
C604 H599 0.949 . S
C604 C610 1.368 . S
C605 C589 1.349 . S
C605 H597 0.950 . S
C605 C603 1.327 . S
C606 C594 1.349 . S
C606 H600 0.950 . S
C606 C607 1.327 . S
C607 H601 0.950 . S
C607 C606 1.327 . S
C607 C611 1.429 . S
C608 C591 1.574 1_565 S
C608 H602 0.949 . S
C608 C612 1.368 . S
C609 C590 1.429 . S
C609 C603 1.429 . S
C609 C610 1.523 . S
C610 C591 1.368 . S
C610 C604 1.368 . S
C610 C609 1.523 . S
C611 C595 1.429 . S
C611 C607 1.429 . S
C611 C612 1.523 . S
C612 C596 1.368 . S
C612 C608 1.368 . S
C612 C611 1.523 . S
H613 C588 0.950 . S
H614 C590 0.950 . S
H615 C591 0.949 . S
H616 C593 0.950 . S
H617 C595 0.950 . S
C618 C619 1.349 . S
C618 C620 1.327 . S
C618 H643 0.950 . S
C619 C618 1.349 . S
C619 C635 1.349 . S
C620 C618 1.327 . S
C620 C639 1.429 . S
C620 H644 0.950 . S
C621 C638 1.574 . S
C621 C640 1.368 1_455 S
C621 H645 0.949 . S
H622 C626 0.949 . S
C623 C624 1.349 . S
C623 C625 1.327 . S
C623 H646 0.950 . S
C624 C623 1.349 . S
C624 C636 1.349 . S
C625 C623 1.327 . S
C625 C641 1.429 . S
C625 H647 0.950 . S
C626 H622 0.949 . S
C626 C634 1.574 . S
C626 C642 1.368 1_655 S
H627 C635 0.950 . S
H628 C633 0.950 . S
H629 C634 0.949 . S
H630 C636 0.950 . S
H631 C637 0.950 . S
H632 C638 0.949 . S
C633 H628 0.950 . S
C633 C635 1.327 . S
C633 C639 1.429 . S
C634 C626 1.574 . S
C634 H629 0.949 . S
C634 C640 1.368 . S
C635 C619 1.349 . S
C635 H627 0.950 . S
C635 C633 1.327 . S
C636 C624 1.349 . S
C636 H630 0.950 . S
C636 C637 1.327 . S
C637 H631 0.950 . S
C637 C636 1.327 . S
C637 C641 1.429 . S
C638 C621 1.574 . S
C638 H632 0.949 . S
C638 C642 1.368 . S
C639 C620 1.429 . S
C639 C633 1.429 . S
C639 C640 1.523 . S
C640 C621 1.368 1_655 S
C640 C634 1.368 . S
C640 C639 1.523 . S
C641 C625 1.429 . S
C641 C637 1.429 . S
C641 C642 1.523 . S
C642 C626 1.368 1_455 S
C642 C638 1.368 . S
C642 C641 1.523 . S
H643 C618 0.950 . S
H644 C620 0.950 . S
H645 C621 0.949 . S
H646 C623 0.950 . S
H647 C625 0.950 . S
C648 C649 1.349 . S
C648 C650 1.327 . S
C648 H673 0.950 . S
C649 C648 1.349 . S
C649 C665 1.349 . S
C650 C648 1.327 . S
C650 C669 1.429 . S
C650 H674 0.950 . S
C651 C668 1.574 . S
C651 C670 1.368 . S
C651 H675 0.949 . S
H652 C656 0.949 . S
C653 C654 1.349 . S
C653 C655 1.327 . S
C653 H676 0.950 . S
C654 C653 1.349 . S
C654 C666 1.349 . S
C655 C653 1.327 . S
C655 C671 1.429 . S
C655 H677 0.950 . S
C656 H652 0.949 . S
C656 C664 1.574 . S
C656 C672 1.368 . S
H657 C665 0.950 . S
H658 C663 0.950 . S
H659 C664 0.949 . S
H660 C666 0.950 . S
H661 C667 0.950 . S
H662 C668 0.949 . S
C663 H658 0.950 . S
C663 C665 1.327 . S
C663 C669 1.429 . S
C664 C656 1.574 . S
C664 H659 0.949 . S
C664 C670 1.368 . S
C665 C649 1.349 . S
C665 H657 0.950 . S
C665 C663 1.327 . S
C666 C654 1.349 . S
C666 H660 0.950 . S
C666 C667 1.327 . S
C667 H661 0.950 . S
C667 C666 1.327 . S
C667 C671 1.429 . S
C668 C651 1.574 . S
C668 H662 0.949 . S
C668 C672 1.368 . S
C669 C650 1.429 . S
C669 C663 1.429 . S
C669 C670 1.523 . S
C670 C651 1.368 . S
C670 C664 1.368 . S
C670 C669 1.523 . S
C671 C655 1.429 . S
C671 C667 1.429 . S
C671 C672 1.523 . S
C672 C656 1.368 . S
C672 C668 1.368 . S
C672 C671 1.523 . S
H673 C648 0.950 . S
H674 C650 0.950 . S
H675 C651 0.949 . S
H676 C653 0.950 . S
H677 C655 0.950 . S
C678 C679 1.349 . S
C678 C680 1.327 . S
C678 H703 0.950 . S
C679 C678 1.349 . S
C679 C695 1.349 . S
C680 C678 1.327 . S
C680 C699 1.429 . S
C680 H704 0.950 . S
C681 C698 1.574 1_565 S
C681 C700 1.368 . S
C681 H705 0.949 . S
H682 C686 0.949 . S
C683 C684 1.349 . S
C683 C685 1.327 . S
C683 H706 0.950 . S
C684 C683 1.349 . S
C684 C696 1.349 . S
C685 C683 1.327 . S
C685 C701 1.429 . S
C685 H707 0.950 . S
C686 H682 0.949 . S
C686 C694 1.574 1_545 S
C686 C702 1.368 . S
H687 C695 0.950 . S
H688 C693 0.950 . S
H689 C694 0.949 . S
H690 C696 0.950 . S
H691 C697 0.950 . S
H692 C698 0.949 . S
C693 H688 0.950 . S
C693 C695 1.327 . S
C693 C699 1.429 . S
C694 C686 1.574 1_565 S
C694 H689 0.949 . S
C694 C700 1.368 . S
C695 C679 1.349 . S
C695 H687 0.950 . S
C695 C693 1.327 . S
C696 C684 1.349 . S
C696 H690 0.950 . S
C696 C697 1.327 . S
C697 H691 0.950 . S
C697 C696 1.327 . S
C697 C701 1.429 . S
C698 C681 1.574 1_545 S
C698 H692 0.949 . S
C698 C702 1.368 . S
C699 C680 1.429 . S
C699 C693 1.429 . S
C699 C700 1.523 . S
C700 C681 1.368 . S
C700 C694 1.368 . S
C700 C699 1.523 . S
C701 C685 1.429 . S
C701 C697 1.429 . S
C701 C702 1.523 . S
C702 C686 1.368 . S
C702 C698 1.368 . S
C702 C701 1.523 . S
H703 C678 0.950 . S
H704 C680 0.950 . S
H705 C681 0.949 . S
H706 C683 0.950 . S
H707 C685 0.950 . S
C708 C709 1.349 . S
C708 C710 1.327 . S
C708 H733 0.950 . S
C709 C708 1.349 . S
C709 C725 1.349 . S
C710 C708 1.327 . S
C710 C729 1.429 . S
C710 H734 0.950 . S
C711 C728 1.574 . S
C711 C730 1.368 1_455 S
C711 H735 0.949 . S
H712 C716 0.949 . S
C713 C714 1.349 . S
C713 C715 1.327 . S
C713 H736 0.950 . S
C714 C713 1.349 . S
C714 C726 1.349 . S
C715 C713 1.327 . S
C715 C731 1.429 . S
C715 H737 0.950 . S
C716 H712 0.949 . S
C716 C724 1.574 . S
C716 C732 1.368 1_655 S
H717 C725 0.950 . S
H718 C723 0.950 1_455 S
H719 C724 0.949 . S
H720 C726 0.950 . S
H721 C727 0.950 1_655 S
H722 C728 0.949 . S
C723 H718 0.950 1_655 S
C723 C725 1.327 . S
C723 C729 1.429 . S
C724 C716 1.574 . S
C724 H719 0.949 . S
C724 C730 1.368 . S
C725 C709 1.349 . S
C725 H717 0.950 . S
C725 C723 1.327 . S
C726 C714 1.349 . S
C726 H720 0.950 . S
C726 C727 1.327 . S
C727 H721 0.950 1_455 S
C727 C726 1.327 . S
C727 C731 1.429 . S
C728 C711 1.574 . S
C728 H722 0.949 . S
C728 C732 1.368 . S
C729 C710 1.429 . S
C729 C723 1.429 . S
C729 C730 1.523 . S
C730 C711 1.368 1_655 S
C730 C724 1.368 . S
C730 C729 1.523 . S
C731 C715 1.429 . S
C731 C727 1.429 . S
C731 C732 1.523 . S
C732 C716 1.368 1_455 S
C732 C728 1.368 . S
C732 C731 1.523 . S
H733 C708 0.950 . S
H734 C710 0.950 . S
H735 C711 0.949 . S
H736 C713 0.950 . S
H737 C715 0.950 . S
C738 C739 1.349 . S
C738 C740 1.327 . S
C738 H763 0.950 . S
C739 C738 1.349 . S
C739 C755 1.357 . S
C740 C738 1.327 . S
C740 C759 1.429 . S
C740 H764 0.950 . S
C741 C758 1.574 . S
C741 C760 1.368 1_556 S
C741 H765 0.949 . S
H742 C746 0.949 . S
C743 C744 1.349 . S
C743 C745 1.327 . S
C743 H766 0.950 . S
C744 C743 1.349 . S
C744 C756 1.358 . S
C745 C743 1.327 . S
C745 C761 1.429 . S
C745 H767 0.950 . S
C746 H742 0.949 . S
C746 C754 1.574 . S
C746 C762 1.368 1_554 S
H747 C755 0.942 1_556 S
H748 C753 0.950 . S
H749 C754 0.949 . S
H750 C756 0.942 1_554 S
H751 C757 0.950 . S
H752 C758 0.949 . S
C753 H748 0.950 . S
C753 C755 1.326 1_556 S
C753 C759 1.429 1_556 S
C754 C746 1.574 . S
C754 H749 0.949 . S
C754 C760 1.368 . S
C755 C739 1.357 . S
C755 H747 0.942 1_554 S
C755 C753 1.326 1_554 S
C756 C744 1.358 . S
C756 H750 0.942 1_556 S
C756 C757 1.326 1_556 S
C757 H751 0.950 . S
C757 C756 1.326 1_554 S
C757 C761 1.429 1_554 S
C758 C741 1.574 . S
C758 H752 0.949 . S
C758 C762 1.368 . S
C759 C740 1.429 . S
C759 C753 1.429 1_554 S
C759 C760 1.523 . S
C760 C741 1.368 1_554 S
C760 C754 1.368 . S
C760 C759 1.523 . S
C761 C745 1.429 . S
C761 C757 1.429 1_556 S
C761 C762 1.523 . S
C762 C746 1.368 1_556 S
C762 C758 1.368 . S
C762 C761 1.523 . S
H763 C738 0.950 . S
H764 C740 0.950 . S
H765 C741 0.949 . S
H766 C743 0.950 . S
H767 C745 0.950 . S
C768 C769 1.342 1_556 S
C768 C770 1.330 . S
C768 H793 0.954 . S
C769 C768 1.342 1_554 S
C769 C785 1.349 . S
C770 C768 1.330 . S
C770 C789 1.429 1_556 S
C770 H794 0.950 . S
C771 C788 1.574 . S
C771 C790 1.368 1_455 S
C771 H795 0.949 . S
H772 C776 0.949 . S
C773 C774 1.342 1_554 S
C773 C775 1.330 . S
C773 H796 0.954 . S
C774 C773 1.342 1_556 S
C774 C786 1.349 . S
C775 C773 1.330 . S
C775 C791 1.429 1_554 S
C775 H797 0.950 . S
C776 H772 0.949 . S
C776 C784 1.574 . S
C776 C792 1.368 1_655 S
H777 C785 0.950 . S
H778 C783 0.950 . S
H779 C784 0.949 . S
H780 C786 0.950 . S
H781 C787 0.950 . S
H782 C788 0.949 . S
C783 H778 0.950 . S
C783 C785 1.327 . S
C783 C789 1.429 . S
C784 C776 1.574 . S
C784 H779 0.949 . S
C784 C790 1.368 1_556 S
C785 C769 1.349 . S
C785 H777 0.950 . S
C785 C783 1.327 . S
C786 C774 1.349 . S
C786 H780 0.950 . S
C786 C787 1.327 . S
C787 H781 0.950 . S
C787 C786 1.327 . S
C787 C791 1.429 . S
C788 C771 1.574 . S
C788 H782 0.949 . S
C788 C792 1.368 1_554 S
C789 C770 1.429 1_554 S
C789 C783 1.429 . S
C789 C790 1.523 . S
C790 C771 1.368 1_655 S
C790 C784 1.368 1_554 S
C790 C789 1.523 . S
C791 C775 1.429 1_556 S
C791 C787 1.429 . S
C791 C792 1.523 . S
C792 C776 1.368 1_455 S
C792 C788 1.368 1_556 S
C792 C791 1.523 . S
H793 C768 0.954 . S
H794 C770 0.950 . S
H795 C771 0.949 . S
H796 C773 0.954 . S
H797 C775 0.950 . S
C798 C799 1.349 . S
C798 C800 1.327 . S
C798 H823 0.950 . S
C799 C798 1.349 . S
C799 C815 1.349 . S
C800 C798 1.327 . S
C800 C819 1.429 . S
C800 H824 0.950 . S
C801 C818 1.574 . S
C801 C820 1.368 . S
C801 H825 0.949 . S
H802 C806 0.949 . S
C803 C804 1.349 . S
C803 C805 1.327 . S
C803 H826 0.950 . S
C804 C803 1.349 . S
C804 C816 1.349 . S
C805 C803 1.327 . S
C805 C821 1.429 . S
C805 H827 0.950 . S
C806 H802 0.949 . S
C806 C814 1.574 . S
C806 C822 1.368 . S
H807 C815 0.950 . S
H808 C813 0.950 . S
H809 C814 0.949 . S
H810 C816 0.950 . S
H811 C817 0.950 . S
H812 C818 0.949 . S
C813 H808 0.950 . S
C813 C815 1.327 . S
C813 C819 1.429 . S
C814 C806 1.574 . S
C814 H809 0.949 . S
C814 C820 1.368 . S
C815 C799 1.349 . S
C815 H807 0.950 . S
C815 C813 1.327 . S
C816 C804 1.349 . S
C816 H810 0.950 . S
C816 C817 1.327 . S
C817 H811 0.950 . S
C817 C816 1.327 . S
C817 C821 1.429 . S
C818 C801 1.574 . S
C818 H812 0.949 . S
C818 C822 1.368 . S
C819 C800 1.429 . S
C819 C813 1.429 . S
C819 C820 1.523 . S
C820 C801 1.368 . S
C820 C814 1.368 . S
C820 C819 1.523 . S
C821 C805 1.429 . S
C821 C817 1.429 . S
C821 C822 1.523 . S
C822 C806 1.368 . S
C822 C818 1.368 . S
C822 C821 1.523 . S
H823 C798 0.950 . S
H824 C800 0.950 . S
H825 C801 0.949 . S
H826 C803 0.950 . S
H827 C805 0.950 . S
C828 C829 1.349 . S
C828 C830 1.327 . S
C828 H853 0.950 . S
C829 C828 1.349 . S
C829 C845 1.363 . S
C830 C828 1.327 . S
C830 C849 1.429 . S
C830 H854 0.950 . S
C831 C848 1.574 . S
C831 C850 1.368 1_554 S
C831 H855 0.949 . S
H832 C836 0.949 . S
C833 C834 1.349 . S
C833 C835 1.327 . S
C833 H856 0.950 . S
C834 C833 1.349 . S
C834 C846 1.363 . S
C835 C833 1.327 . S
C835 C851 1.429 . S
C835 H857 0.950 . S
C836 H832 0.949 . S
C836 C844 1.574 . S
C836 C852 1.368 1_556 S
H837 C845 0.937 1_554 S
H838 C843 0.950 . S
H839 C844 0.949 . S
H840 C846 0.937 1_556 S
H841 C847 0.950 . S
H842 C848 0.949 . S
C843 H838 0.950 . S
C843 C845 1.326 1_554 S
C843 C849 1.429 1_554 S
C844 C836 1.574 . S
C844 H839 0.949 . S
C844 C850 1.368 . S
C845 C829 1.363 . S
C845 H837 0.937 1_556 S
C845 C843 1.326 1_556 S
C846 C834 1.363 . S
C846 H840 0.937 1_554 S
C846 C847 1.326 1_554 S
C847 H841 0.950 . S
C847 C846 1.326 1_556 S
C847 C851 1.429 1_556 S
C848 C831 1.574 . S
C848 H842 0.949 . S
C848 C852 1.368 . S
C849 C830 1.429 . S
C849 C843 1.429 1_556 S
C849 C850 1.523 . S
C850 C831 1.368 1_556 S
C850 C844 1.368 . S
C850 C849 1.523 . S
C851 C835 1.429 . S
C851 C847 1.429 1_554 S
C851 C852 1.523 . S
C852 C836 1.368 1_554 S
C852 C848 1.368 . S
C852 C851 1.523 . S
H853 C828 0.950 . S
H854 C830 0.950 . S
H855 C831 0.949 . S
H856 C833 0.950 . S
H857 C835 0.950 . S
C858 C859 1.349 . S
C858 C860 1.327 . S
C858 H883 0.950 . S
C859 C858 1.349 . S
C859 C875 1.349 . S
C860 C858 1.327 . S
C860 C879 1.429 . S
C860 H884 0.950 . S
C861 C878 1.574 . S
C861 C880 1.368 . S
C861 H885 0.949 . S
H862 C866 0.949 . S
C863 C864 1.349 . S
C863 C865 1.327 . S
C863 H886 0.950 . S
C864 C863 1.349 . S
C864 C876 1.349 . S
C865 C863 1.327 . S
C865 C881 1.429 . S
C865 H887 0.950 . S
C866 H862 0.949 . S
C866 C874 1.574 . S
C866 C882 1.368 . S
H867 C875 0.950 . S
H868 C873 0.950 . S
H869 C874 0.949 . S
H870 C876 0.950 . S
H871 C877 0.950 . S
H872 C878 0.949 . S
C873 H868 0.950 . S
C873 C875 1.327 . S
C873 C879 1.429 . S
C874 C866 1.574 . S
C874 H869 0.949 . S
C874 C880 1.368 . S
C875 C859 1.349 . S
C875 H867 0.950 . S
C875 C873 1.327 . S
C876 C864 1.349 . S
C876 H870 0.950 . S
C876 C877 1.327 . S
C877 H871 0.950 . S
C877 C876 1.327 . S
C877 C881 1.429 . S
C878 C861 1.574 . S
C878 H872 0.949 . S
C878 C882 1.368 . S
C879 C860 1.429 . S
C879 C873 1.429 . S
C879 C880 1.523 . S
C880 C861 1.368 . S
C880 C874 1.368 . S
C880 C879 1.523 . S
C881 C865 1.429 . S
C881 C877 1.429 . S
C881 C882 1.523 . S
C882 C866 1.368 . S
C882 C878 1.368 . S
C882 C881 1.523 . S
H883 C858 0.950 . S
H884 C860 0.950 . S
H885 C861 0.949 . S
H886 C863 0.950 . S
H887 C865 0.950 . S
C888 C889 1.349 . S
C888 C890 1.327 . S
C888 H913 0.950 . S
C889 C888 1.349 . S
C889 C905 1.349 . S
C890 C888 1.327 . S
C890 C909 1.429 . S
C890 H914 0.950 . S
C891 C908 1.574 1_545 S
C891 C910 1.368 1_554 S
C891 H915 0.949 . S
H892 C896 0.949 . S
C893 C894 1.349 . S
C893 C895 1.327 . S
C893 H916 0.950 . S
C894 C893 1.349 . S
C894 C906 1.349 . S
C895 C893 1.327 . S
C895 C911 1.429 . S
C895 H917 0.950 . S
C896 H892 0.949 . S
C896 C904 1.574 1_565 S
C896 C912 1.368 1_556 S
H897 C905 0.950 . S
H898 C903 0.950 1_554 S
H899 C904 0.949 . S
H900 C906 0.950 . S
H901 C907 0.950 1_556 S
H902 C908 0.949 . S
C903 H898 0.950 1_556 S
C903 C905 1.327 . S
C903 C909 1.429 . S
C904 C896 1.574 1_545 S
C904 H899 0.949 . S
C904 C910 1.368 . S
C905 C889 1.349 . S
C905 H897 0.950 . S
C905 C903 1.327 . S
C906 C894 1.349 . S
C906 H900 0.950 . S
C906 C907 1.327 . S
C907 H901 0.950 1_554 S
C907 C906 1.327 . S
C907 C911 1.429 . S
C908 C891 1.574 1_565 S
C908 H902 0.949 . S
C908 C912 1.368 . S
C909 C890 1.429 . S
C909 C903 1.429 . S
C909 C910 1.523 . S
C910 C891 1.368 1_556 S
C910 C904 1.368 . S
C910 C909 1.523 . S
C911 C895 1.429 . S
C911 C907 1.429 . S
C911 C912 1.523 . S
C912 C896 1.368 1_554 S
C912 C908 1.368 . S
C912 C911 1.523 . S
H913 C888 0.950 . S
H914 C890 0.950 . S
H915 C891 0.949 . S
H916 C893 0.950 . S
H917 C895 0.950 . S
C918 C919 1.349 . S
C918 C920 1.327 . S
C918 H943 0.950 . S
C919 C918 1.349 . S
C919 C935 1.349 . S
C920 C918 1.327 . S
C920 C939 1.429 . S
C920 H944 0.950 . S
C921 C938 1.574 . S
C921 C940 1.368 . S
C921 H945 0.949 . S
H922 C926 0.949 . S
C923 C924 1.349 . S
C923 C925 1.327 . S
C923 H946 0.950 . S
C924 C923 1.349 . S
C924 C936 1.349 . S
C925 C923 1.327 . S
C925 C941 1.429 . S
C925 H947 0.950 . S
C926 H922 0.949 . S
C926 C934 1.574 . S
C926 C942 1.368 . S
H927 C935 0.950 . S
H928 C933 0.950 . S
H929 C934 0.949 . S
H930 C936 0.950 . S
H931 C937 0.950 . S
H932 C938 0.949 . S
C933 H928 0.950 . S
C933 C935 1.327 . S
C933 C939 1.429 . S
C934 C926 1.574 . S
C934 H929 0.949 . S
C934 C940 1.368 . S
C935 C919 1.349 . S
C935 H927 0.950 . S
C935 C933 1.327 . S
C936 C924 1.349 . S
C936 H930 0.950 . S
C936 C937 1.327 . S
C937 H931 0.950 . S
C937 C936 1.327 . S
C937 C941 1.429 . S
C938 C921 1.574 . S
C938 H932 0.949 . S
C938 C942 1.368 . S
C939 C920 1.429 . S
C939 C933 1.429 . S
C939 C940 1.523 . S
C940 C921 1.368 . S
C940 C934 1.368 . S
C940 C939 1.523 . S
C941 C925 1.429 . S
C941 C937 1.429 . S
C941 C942 1.523 . S
C942 C926 1.368 . S
C942 C938 1.368 . S
C942 C941 1.523 . S
H943 C918 0.950 . S
H944 C920 0.950 . S
H945 C921 0.949 . S
H946 C923 0.950 . S
H947 C925 0.950 . S
C948 C949 1.349 . S
C948 C950 1.327 . S
C948 H973 0.950 . S
C949 C948 1.349 . S
C949 C965 1.349 . S
C950 C948 1.327 . S
C950 C969 1.429 . S
C950 H974 0.950 . S
C951 C968 1.574 . S
C951 C970 1.368 . S
C951 H975 0.949 . S
H952 C956 0.949 . S
C953 C954 1.349 . S
C953 C955 1.327 . S
C953 H976 0.950 . S
C954 C953 1.349 . S
C954 C966 1.349 . S
C955 C953 1.327 . S
C955 C971 1.429 . S
C955 H977 0.950 . S
C956 H952 0.949 . S
C956 C964 1.574 . S
C956 C972 1.368 . S
H957 C965 0.950 . S
H958 C963 0.950 . S
H959 C964 0.949 . S
H960 C966 0.950 . S
H961 C967 0.950 . S
H962 C968 0.949 . S
C963 H958 0.950 . S
C963 C965 1.327 . S
C963 C969 1.429 . S
C964 C956 1.574 . S
C964 H959 0.949 . S
C964 C970 1.368 . S
C965 C949 1.349 . S
C965 H957 0.950 . S
C965 C963 1.327 . S
C966 C954 1.349 . S
C966 H960 0.950 . S
C966 C967 1.327 . S
C967 H961 0.950 . S
C967 C966 1.327 . S
C967 C971 1.429 . S
C968 C951 1.574 . S
C968 H962 0.949 . S
C968 C972 1.368 . S
C969 C950 1.429 . S
C969 C963 1.429 . S
C969 C970 1.523 . S
C970 C951 1.368 . S
C970 C964 1.368 . S
C970 C969 1.523 . S
C971 C955 1.429 . S
C971 C967 1.429 . S
C971 C972 1.523 . S
C972 C956 1.368 . S
C972 C968 1.368 . S
C972 C971 1.523 . S
H973 C948 0.950 . S
H974 C950 0.950 . S
H975 C951 0.949 . S
H976 C953 0.950 . S
H977 C955 0.950 . S
C978 C979 1.349 . S
C978 C980 1.327 . S
C978 H1003 0.950 . S
C979 C978 1.349 . S
C979 C995 1.349 . S
C980 C978 1.327 . S
C980 C999 1.429 . S
C980 H1004 0.950 . S
C981 C998 1.574 . S
C981 C1000 1.368 . S
C981 H1005 0.949 . S
H982 C986 0.949 . S
C983 C984 1.349 . S
C983 C985 1.327 . S
C983 H1006 0.950 . S
C984 C983 1.349 . S
C984 C996 1.349 . S
C985 C983 1.327 . S
C985 C1001 1.429 . S
C985 H1007 0.950 . S
C986 H982 0.949 . S
C986 C994 1.574 . S
C986 C1002 1.368 . S
H987 C995 0.950 . S
H988 C993 0.950 . S
H989 C994 0.949 . S
H990 C996 0.950 . S
H991 C997 0.950 . S
H992 C998 0.949 . S
C993 H988 0.950 . S
C993 C995 1.327 . S
C993 C999 1.429 . S
C994 C986 1.574 . S
C994 H989 0.949 . S
C994 C1000 1.368 . S
C995 C979 1.349 . S
C995 H987 0.950 . S
C995 C993 1.327 . S
C996 C984 1.349 . S
C996 H990 0.950 . S
C996 C997 1.327 . S
C997 H991 0.950 . S
C997 C996 1.327 . S
C997 C1001 1.429 . S
C998 C981 1.574 . S
C998 H992 0.949 . S
C998 C1002 1.368 . S
C999 C980 1.429 . S
C999 C993 1.429 . S
C999 C1000 1.523 . S
C1000 C981 1.368 . S
C1000 C994 1.368 . S
C1000 C999 1.523 . S
C1001 C985 1.429 . S
C1001 C997 1.429 . S
C1001 C1002 1.523 . S
C1002 C986 1.368 . S
C1002 C998 1.368 . S
C1002 C1001 1.523 . S
H1003 C978 0.950 . S
H1004 C980 0.950 . S
H1005 C981 0.949 . S
H1006 C983 0.950 . S
H1007 C985 0.950 . S
C1008 C1009 1.349 . S
C1008 C1010 1.327 . S
C1008 H1033 0.950 . S
C1009 C1008 1.349 . S
C1009 C1025 1.349 . S
C1010 C1008 1.327 . S
C1010 C1029 1.429 . S
C1010 H1034 0.950 . S
C1011 C1028 1.574 . S
C1011 C1030 1.368 . S
C1011 H1035 0.949 . S
H1012 C1016 0.949 . S
C1013 C1014 1.349 . S
C1013 C1015 1.327 . S
C1013 H1036 0.950 . S
C1014 C1013 1.349 . S
C1014 C1026 1.349 . S
C1015 C1013 1.327 . S
C1015 C1031 1.429 . S
C1015 H1037 0.950 . S
C1016 H1012 0.949 . S
C1016 C1024 1.574 . S
C1016 C1032 1.368 . S
H1017 C1025 0.950 . S
H1018 C1023 0.950 . S
H1019 C1024 0.949 . S
H1020 C1026 0.950 . S
H1021 C1027 0.950 . S
H1022 C1028 0.949 . S
C1023 H1018 0.950 . S
C1023 C1025 1.327 . S
C1023 C1029 1.429 . S
C1024 C1016 1.574 . S
C1024 H1019 0.949 . S
C1024 C1030 1.368 . S
C1025 C1009 1.349 . S
C1025 H1017 0.950 . S
C1025 C1023 1.327 . S
C1026 C1014 1.349 . S
C1026 H1020 0.950 . S
C1026 C1027 1.327 . S
C1027 H1021 0.950 . S
C1027 C1026 1.327 . S
C1027 C1031 1.429 . S
C1028 C1011 1.574 . S
C1028 H1022 0.949 . S
C1028 C1032 1.368 . S
C1029 C1010 1.429 . S
C1029 C1023 1.429 . S
C1029 C1030 1.523 . S
C1030 C1011 1.368 . S
C1030 C1024 1.368 . S
C1030 C1029 1.523 . S
C1031 C1015 1.429 . S
C1031 C1027 1.429 . S
C1031 C1032 1.523 . S
C1032 C1016 1.368 . S
C1032 C1028 1.368 . S
C1032 C1031 1.523 . S
H1033 C1008 0.950 . S
H1034 C1010 0.950 . S
H1035 C1011 0.949 . S
H1036 C1013 0.950 . S
H1037 C1015 0.950 . S
C1038 C1039 1.349 . S
C1038 C1040 1.327 . S
C1038 H1063 0.950 . S
C1039 C1038 1.349 . S
C1039 C1055 1.349 . S
C1040 C1038 1.327 . S
C1040 C1059 1.429 . S
C1040 H1064 0.950 . S
C1041 C1058 1.574 . S
C1041 C1060 1.368 . S
C1041 H1065 0.949 . S
H1042 C1046 0.949 . S
C1043 C1044 1.349 . S
C1043 C1045 1.327 . S
C1043 H1066 0.950 . S
C1044 C1043 1.349 . S
C1044 C1056 1.349 . S
C1045 C1043 1.327 . S
C1045 C1061 1.429 . S
C1045 H1067 0.950 . S
C1046 H1042 0.949 . S
C1046 C1054 1.574 . S
C1046 C1062 1.368 . S
H1047 C1055 0.950 . S
H1048 C1053 0.950 . S
H1049 C1054 0.949 . S
H1050 C1056 0.950 . S
H1051 C1057 0.950 . S
H1052 C1058 0.949 . S
C1053 H1048 0.950 . S
C1053 C1055 1.327 . S
C1053 C1059 1.429 . S
C1054 C1046 1.574 . S
C1054 H1049 0.949 . S
C1054 C1060 1.368 . S
C1055 C1039 1.349 . S
C1055 H1047 0.950 . S
C1055 C1053 1.327 . S
C1056 C1044 1.349 . S
C1056 H1050 0.950 . S
C1056 C1057 1.327 . S
C1057 H1051 0.950 . S
C1057 C1056 1.327 . S
C1057 C1061 1.429 . S
C1058 C1041 1.574 . S
C1058 H1052 0.949 . S
C1058 C1062 1.368 . S
C1059 C1040 1.429 . S
C1059 C1053 1.429 . S
C1059 C1060 1.523 . S
C1060 C1041 1.368 . S
C1060 C1054 1.368 . S
C1060 C1059 1.523 . S
C1061 C1045 1.429 . S
C1061 C1057 1.429 . S
C1061 C1062 1.523 . S
C1062 C1046 1.368 . S
C1062 C1058 1.368 . S
C1062 C1061 1.523 . S
H1063 C1038 0.950 . S
H1064 C1040 0.950 . S
H1065 C1041 0.949 . S
H1066 C1043 0.950 . S
H1067 C1045 0.950 . S
C1068 C1069 1.349 . S
C1068 C1070 1.327 . S
C1068 H1093 0.950 . S
C1069 C1068 1.349 . S
C1069 C1085 1.349 . S
C1070 C1068 1.327 . S
C1070 C1089 1.429 . S
C1070 H1094 0.950 . S
C1071 C1088 1.574 . S
C1071 C1090 1.368 . S
C1071 H1095 0.949 . S
H1072 C1076 0.949 . S
C1073 C1074 1.349 . S
C1073 C1075 1.327 . S
C1073 H1096 0.950 . S
C1074 C1073 1.349 . S
C1074 C1086 1.349 . S
C1075 C1073 1.327 . S
C1075 C1091 1.429 . S
C1075 H1097 0.950 . S
C1076 H1072 0.949 . S
C1076 C1084 1.574 . S
C1076 C1092 1.368 . S
H1077 C1085 0.950 . S
H1078 C1083 0.950 . S
H1079 C1084 0.949 . S
H1080 C1086 0.950 . S
H1081 C1087 0.950 . S
H1082 C1088 0.949 . S
C1083 H1078 0.950 . S
C1083 C1085 1.327 . S
C1083 C1089 1.429 . S
C1084 C1076 1.574 . S
C1084 H1079 0.949 . S
C1084 C1090 1.368 . S
C1085 C1069 1.349 . S
C1085 H1077 0.950 . S
C1085 C1083 1.327 . S
C1086 C1074 1.349 . S
C1086 H1080 0.950 . S
C1086 C1087 1.327 . S
C1087 H1081 0.950 . S
C1087 C1086 1.327 . S
C1087 C1091 1.429 . S
C1088 C1071 1.574 . S
C1088 H1082 0.949 . S
C1088 C1092 1.368 . S
C1089 C1070 1.429 . S
C1089 C1083 1.429 . S
C1089 C1090 1.523 . S
C1090 C1071 1.368 . S
C1090 C1084 1.368 . S
C1090 C1089 1.523 . S
C1091 C1075 1.429 . S
C1091 C1087 1.429 . S
C1091 C1092 1.523 . S
C1092 C1076 1.368 . S
C1092 C1088 1.368 . S
C1092 C1091 1.523 . S
H1093 C1068 0.950 . S
H1094 C1070 0.950 . S
H1095 C1071 0.949 . S
H1096 C1073 0.950 . S
H1097 C1075 0.950 . S
C1098 C1099 1.349 . S
C1098 C1100 1.327 . S
C1098 H1123 0.950 . S
C1099 C1098 1.349 . S
C1099 C1115 1.349 . S
C1100 C1098 1.327 . S
C1100 C1119 1.429 . S
C1100 H1124 0.950 . S
C1101 C1118 1.574 . S
C1101 C1120 1.368 . S
C1101 H1125 0.949 . S
H1102 C1106 0.949 . S
C1103 C1104 1.349 . S
C1103 C1105 1.327 . S
C1103 H1126 0.950 . S
C1104 C1103 1.349 . S
C1104 C1116 1.349 . S
C1105 C1103 1.327 . S
C1105 C1121 1.429 . S
C1105 H1127 0.950 . S
C1106 H1102 0.949 . S
C1106 C1114 1.574 . S
C1106 C1122 1.368 . S
H1107 C1115 0.950 . S
H1108 C1113 0.950 . S
H1109 C1114 0.949 . S
H1110 C1116 0.950 . S
H1111 C1117 0.950 . S
H1112 C1118 0.949 . S
C1113 H1108 0.950 . S
C1113 C1115 1.327 . S
C1113 C1119 1.429 . S
C1114 C1106 1.574 . S
C1114 H1109 0.949 . S
C1114 C1120 1.368 . S
C1115 C1099 1.349 . S
C1115 H1107 0.950 . S
C1115 C1113 1.327 . S
C1116 C1104 1.349 . S
C1116 H1110 0.950 . S
C1116 C1117 1.327 . S
C1117 H1111 0.950 . S
C1117 C1116 1.327 . S
C1117 C1121 1.429 . S
C1118 C1101 1.574 . S
C1118 H1112 0.949 . S
C1118 C1122 1.368 . S
C1119 C1100 1.429 . S
C1119 C1113 1.429 . S
C1119 C1120 1.523 . S
C1120 C1101 1.368 . S
C1120 C1114 1.368 . S
C1120 C1119 1.523 . S
C1121 C1105 1.429 . S
C1121 C1117 1.429 . S
C1121 C1122 1.523 . S
C1122 C1106 1.368 . S
C1122 C1118 1.368 . S
C1122 C1121 1.523 . S
H1123 C1098 0.950 . S
H1124 C1100 0.950 . S
H1125 C1101 0.949 . S
H1126 C1103 0.950 . S
H1127 C1105 0.950 . S
C1128 C1129 1.349 . S
C1128 C1130 1.327 . S
C1128 H1153 0.950 . S
C1129 C1128 1.349 . S
C1129 C1145 1.349 . S
C1130 C1128 1.327 . S
C1130 C1149 1.429 . S
C1130 H1154 0.950 . S
C1131 C1148 1.574 . S
C1131 C1150 1.368 . S
C1131 H1155 0.949 . S
H1132 C1136 0.949 . S
C1133 C1134 1.349 . S
C1133 C1135 1.327 . S
C1133 H1156 0.950 . S
C1134 C1133 1.349 . S
C1134 C1146 1.349 . S
C1135 C1133 1.327 . S
C1135 C1151 1.429 . S
C1135 H1157 0.950 . S
C1136 H1132 0.949 . S
C1136 C1144 1.574 . S
C1136 C1152 1.368 . S
H1137 C1145 0.950 . S
H1138 C1143 0.950 . S
H1139 C1144 0.949 . S
H1140 C1146 0.950 . S
H1141 C1147 0.950 . S
H1142 C1148 0.949 . S
C1143 H1138 0.950 . S
C1143 C1145 1.327 . S
C1143 C1149 1.429 . S
C1144 C1136 1.574 . S
C1144 H1139 0.949 . S
C1144 C1150 1.368 . S
C1145 C1129 1.349 . S
C1145 H1137 0.950 . S
C1145 C1143 1.327 . S
C1146 C1134 1.349 . S
C1146 H1140 0.950 . S
C1146 C1147 1.327 . S
C1147 H1141 0.950 . S
C1147 C1146 1.327 . S
C1147 C1151 1.429 . S
C1148 C1131 1.574 . S
C1148 H1142 0.949 . S
C1148 C1152 1.368 . S
C1149 C1130 1.429 . S
C1149 C1143 1.429 . S
C1149 C1150 1.523 . S
C1150 C1131 1.368 . S
C1150 C1144 1.368 . S
C1150 C1149 1.523 . S
C1151 C1135 1.429 . S
C1151 C1147 1.429 . S
C1151 C1152 1.523 . S
C1152 C1136 1.368 . S
C1152 C1148 1.368 . S
C1152 C1151 1.523 . S
H1153 C1128 0.950 . S
H1154 C1130 0.950 . S
H1155 C1131 0.949 . S
H1156 C1133 0.950 . S
H1157 C1135 0.950 . S
C1158 C1159 1.349 . S
C1158 C1160 1.327 . S
C1158 H1183 0.950 . S
C1159 C1158 1.349 . S
C1159 C1175 1.349 . S
C1160 C1158 1.327 . S
C1160 C1179 1.429 . S
C1160 H1184 0.950 . S
C1161 C1178 1.574 . S
C1161 C1180 1.368 . S
C1161 H1185 0.949 . S
H1162 C1166 0.949 . S
C1163 C1164 1.349 . S
C1163 C1165 1.327 . S
C1163 H1186 0.950 . S
C1164 C1163 1.349 . S
C1164 C1176 1.349 . S
C1165 C1163 1.327 . S
C1165 C1181 1.429 . S
C1165 H1187 0.950 . S
C1166 H1162 0.949 . S
C1166 C1174 1.574 . S
C1166 C1182 1.368 . S
H1167 C1175 0.950 . S
H1168 C1173 0.950 . S
H1169 C1174 0.949 . S
H1170 C1176 0.950 . S
H1171 C1177 0.950 . S
H1172 C1178 0.949 . S
C1173 H1168 0.950 . S
C1173 C1175 1.327 . S
C1173 C1179 1.429 . S
C1174 C1166 1.574 . S
C1174 H1169 0.949 . S
C1174 C1180 1.368 . S
C1175 C1159 1.349 . S
C1175 H1167 0.950 . S
C1175 C1173 1.327 . S
C1176 C1164 1.349 . S
C1176 H1170 0.950 . S
C1176 C1177 1.327 . S
C1177 H1171 0.950 . S
C1177 C1176 1.327 . S
C1177 C1181 1.429 . S
C1178 C1161 1.574 . S
C1178 H1172 0.949 . S
C1178 C1182 1.368 . S
C1179 C1160 1.429 . S
C1179 C1173 1.429 . S
C1179 C1180 1.523 . S
C1180 C1161 1.368 . S
C1180 C1174 1.368 . S
C1180 C1179 1.523 . S
C1181 C1165 1.429 . S
C1181 C1177 1.429 . S
C1181 C1182 1.523 . S
C1182 C1166 1.368 . S
C1182 C1178 1.368 . S
C1182 C1181 1.523 . S
H1183 C1158 0.950 . S
H1184 C1160 0.950 . S
H1185 C1161 0.949 . S
H1186 C1163 0.950 . S
H1187 C1165 0.950 . S
C1188 C1189 1.349 . S
C1188 C1190 1.327 . S
C1188 H1213 0.950 . S
C1189 C1188 1.349 . S
C1189 C1205 1.349 . S
C1190 C1188 1.327 . S
C1190 C1209 1.429 . S
C1190 H1214 0.950 . S
C1191 C1208 1.574 . S
C1191 C1210 1.368 . S
C1191 H1215 0.949 . S
H1192 C1196 0.949 . S
C1193 C1194 1.349 . S
C1193 C1195 1.327 . S
C1193 H1216 0.950 . S
C1194 C1193 1.349 . S
C1194 C1206 1.349 . S
C1195 C1193 1.327 . S
C1195 C1211 1.429 . S
C1195 H1217 0.950 . S
C1196 H1192 0.949 . S
C1196 C1204 1.574 . S
C1196 C1212 1.368 . S
H1197 C1205 0.950 . S
H1198 C1203 0.950 . S
H1199 C1204 0.949 . S
H1200 C1206 0.950 . S
H1201 C1207 0.950 . S
H1202 C1208 0.949 . S
C1203 H1198 0.950 . S
C1203 C1205 1.327 . S
C1203 C1209 1.429 . S
C1204 C1196 1.574 . S
C1204 H1199 0.949 . S
C1204 C1210 1.368 . S
C1205 C1189 1.349 . S
C1205 H1197 0.950 . S
C1205 C1203 1.327 . S
C1206 C1194 1.349 . S
C1206 H1200 0.950 . S
C1206 C1207 1.327 . S
C1207 H1201 0.950 . S
C1207 C1206 1.327 . S
C1207 C1211 1.429 . S
C1208 C1191 1.574 . S
C1208 H1202 0.949 . S
C1208 C1212 1.368 . S
C1209 C1190 1.429 . S
C1209 C1203 1.429 . S
C1209 C1210 1.523 . S
C1210 C1191 1.368 . S
C1210 C1204 1.368 . S
C1210 C1209 1.523 . S
C1211 C1195 1.429 . S
C1211 C1207 1.429 . S
C1211 C1212 1.523 . S
C1212 C1196 1.368 . S
C1212 C1208 1.368 . S
C1212 C1211 1.523 . S
H1213 C1188 0.950 . S
H1214 C1190 0.950 . S
H1215 C1191 0.949 . S
H1216 C1193 0.950 . S
H1217 C1195 0.950 . S
C1218 C1219 1.349 . S
C1218 C1220 1.327 . S
C1218 H1243 0.950 . S
C1219 C1218 1.349 . S
C1219 C1235 1.349 . S
C1220 C1218 1.327 . S
C1220 C1239 1.429 . S
C1220 H1244 0.950 . S
C1221 C1238 1.574 . S
C1221 C1240 1.368 . S
C1221 H1245 0.949 . S
H1222 C1226 0.949 . S
C1223 C1224 1.349 . S
C1223 C1225 1.327 . S
C1223 H1246 0.950 . S
C1224 C1223 1.349 . S
C1224 C1236 1.349 . S
C1225 C1223 1.327 . S
C1225 C1241 1.429 . S
C1225 H1247 0.950 . S
C1226 H1222 0.949 . S
C1226 C1234 1.574 . S
C1226 C1242 1.368 . S
H1227 C1235 0.950 . S
H1228 C1233 0.950 . S
H1229 C1234 0.949 . S
H1230 C1236 0.950 . S
H1231 C1237 0.950 . S
H1232 C1238 0.949 . S
C1233 H1228 0.950 . S
C1233 C1235 1.327 . S
C1233 C1239 1.429 . S
C1234 C1226 1.574 . S
C1234 H1229 0.949 . S
C1234 C1240 1.368 . S
C1235 C1219 1.349 . S
C1235 H1227 0.950 . S
C1235 C1233 1.327 . S
C1236 C1224 1.349 . S
C1236 H1230 0.950 . S
C1236 C1237 1.327 . S
C1237 H1231 0.950 . S
C1237 C1236 1.327 . S
C1237 C1241 1.429 . S
C1238 C1221 1.574 . S
C1238 H1232 0.949 . S
C1238 C1242 1.368 . S
C1239 C1220 1.429 . S
C1239 C1233 1.429 . S
C1239 C1240 1.523 . S
C1240 C1221 1.368 . S
C1240 C1234 1.368 . S
C1240 C1239 1.523 . S
C1241 C1225 1.429 . S
C1241 C1237 1.429 . S
C1241 C1242 1.523 . S
C1242 C1226 1.368 . S
C1242 C1238 1.368 . S
C1242 C1241 1.523 . S
H1243 C1218 0.950 . S
H1244 C1220 0.950 . S
H1245 C1221 0.949 . S
H1246 C1223 0.950 . S
H1247 C1225 0.950 . S
C1248 C1249 1.349 . S
C1248 C1250 1.327 . S
C1248 H1273 0.950 . S
C1249 C1248 1.349 . S
C1249 C1265 1.349 . S
C1250 C1248 1.327 . S
C1250 C1269 1.429 . S
C1250 H1274 0.950 . S
C1251 C1268 1.574 . S
C1251 C1270 1.368 . S
C1251 H1275 0.949 . S
H1252 C1256 0.949 . S
C1253 C1254 1.349 . S
C1253 C1255 1.327 . S
C1253 H1276 0.950 . S
C1254 C1253 1.349 . S
C1254 C1266 1.349 . S
C1255 C1253 1.327 . S
C1255 C1271 1.429 . S
C1255 H1277 0.950 . S
C1256 H1252 0.949 . S
C1256 C1264 1.574 . S
C1256 C1272 1.368 . S
H1257 C1265 0.950 . S
H1258 C1263 0.950 . S
H1259 C1264 0.949 . S
H1260 C1266 0.950 . S
H1261 C1267 0.950 . S
H1262 C1268 0.949 . S
C1263 H1258 0.950 . S
C1263 C1265 1.327 . S
C1263 C1269 1.429 . S
C1264 C1256 1.574 . S
C1264 H1259 0.949 . S
C1264 C1270 1.368 . S
C1265 C1249 1.349 . S
C1265 H1257 0.950 . S
C1265 C1263 1.327 . S
C1266 C1254 1.349 . S
C1266 H1260 0.950 . S
C1266 C1267 1.327 . S
C1267 H1261 0.950 . S
C1267 C1266 1.327 . S
C1267 C1271 1.429 . S
C1268 C1251 1.574 . S
C1268 H1262 0.949 . S
C1268 C1272 1.368 . S
C1269 C1250 1.429 . S
C1269 C1263 1.429 . S
C1269 C1270 1.523 . S
C1270 C1251 1.368 . S
C1270 C1264 1.368 . S
C1270 C1269 1.523 . S
C1271 C1255 1.429 . S
C1271 C1267 1.429 . S
C1271 C1272 1.523 . S
C1272 C1256 1.368 . S
C1272 C1268 1.368 . S
C1272 C1271 1.523 . S
H1273 C1248 0.950 . S
H1274 C1250 0.950 . S
H1275 C1251 0.949 . S
H1276 C1253 0.950 . S
H1277 C1255 0.950 . S
C1278 C1279 1.349 . S
C1278 C1280 1.327 . S
C1278 H1303 0.950 . S
C1279 C1278 1.349 . S
C1279 C1295 1.349 . S
C1280 C1278 1.327 . S
C1280 C1299 1.429 . S
C1280 H1304 0.950 . S
C1281 C1298 1.574 . S
C1281 C1300 1.368 . S
C1281 H1305 0.949 . S
H1282 C1286 0.949 . S
C1283 C1284 1.349 . S
C1283 C1285 1.327 . S
C1283 H1306 0.950 . S
C1284 C1283 1.349 . S
C1284 C1296 1.349 . S
C1285 C1283 1.327 . S
C1285 C1301 1.429 . S
C1285 H1307 0.950 . S
C1286 H1282 0.949 . S
C1286 C1294 1.574 . S
C1286 C1302 1.368 . S
H1287 C1295 0.950 . S
H1288 C1293 0.950 . S
H1289 C1294 0.949 . S
H1290 C1296 0.950 . S
H1291 C1297 0.950 . S
H1292 C1298 0.949 . S
C1293 H1288 0.950 . S
C1293 C1295 1.327 . S
C1293 C1299 1.429 . S
C1294 C1286 1.574 . S
C1294 H1289 0.949 . S
C1294 C1300 1.368 . S
C1295 C1279 1.349 . S
C1295 H1287 0.950 . S
C1295 C1293 1.327 . S
C1296 C1284 1.349 . S
C1296 H1290 0.950 . S
C1296 C1297 1.327 . S
C1297 H1291 0.950 . S
C1297 C1296 1.327 . S
C1297 C1301 1.429 . S
C1298 C1281 1.574 . S
C1298 H1292 0.949 . S
C1298 C1302 1.368 . S
C1299 C1280 1.429 . S
C1299 C1293 1.429 . S
C1299 C1300 1.523 . S
C1300 C1281 1.368 . S
C1300 C1294 1.368 . S
C1300 C1299 1.523 . S
C1301 C1285 1.429 . S
C1301 C1297 1.429 . S
C1301 C1302 1.523 . S
C1302 C1286 1.368 . S
C1302 C1298 1.368 . S
C1302 C1301 1.523 . S
H1303 C1278 0.950 . S
H1304 C1280 0.950 . S
H1305 C1281 0.949 . S
H1306 C1283 0.950 . S
H1307 C1285 0.950 . S
C1308 C1309 1.349 . S
C1308 C1310 1.327 . S
C1308 H1333 0.950 . S
C1309 C1308 1.349 . S
C1309 C1325 1.349 . S
C1310 C1308 1.327 . S
C1310 C1329 1.429 . S
C1310 H1334 0.950 . S
C1311 C1328 1.574 . S
C1311 C1330 1.368 . S
C1311 H1335 0.949 . S
H1312 C1316 0.949 . S
C1313 C1314 1.349 . S
C1313 C1315 1.327 . S
C1313 H1336 0.950 . S
C1314 C1313 1.349 . S
C1314 C1326 1.349 . S
C1315 C1313 1.327 . S
C1315 C1331 1.429 . S
C1315 H1337 0.950 . S
C1316 H1312 0.949 . S
C1316 C1324 1.574 . S
C1316 C1332 1.368 . S
H1317 C1325 0.950 . S
H1318 C1323 0.950 . S
H1319 C1324 0.949 . S
H1320 C1326 0.950 . S
H1321 C1327 0.950 . S
H1322 C1328 0.949 . S
C1323 H1318 0.950 . S
C1323 C1325 1.327 . S
C1323 C1329 1.429 . S
C1324 C1316 1.574 . S
C1324 H1319 0.949 . S
C1324 C1330 1.368 . S
C1325 C1309 1.349 . S
C1325 H1317 0.950 . S
C1325 C1323 1.327 . S
C1326 C1314 1.349 . S
C1326 H1320 0.950 . S
C1326 C1327 1.327 . S
C1327 H1321 0.950 . S
C1327 C1326 1.327 . S
C1327 C1331 1.429 . S
C1328 C1311 1.574 . S
C1328 H1322 0.949 . S
C1328 C1332 1.368 . S
C1329 C1310 1.429 . S
C1329 C1323 1.429 . S
C1329 C1330 1.523 . S
C1330 C1311 1.368 . S
C1330 C1324 1.368 . S
C1330 C1329 1.523 . S
C1331 C1315 1.429 . S
C1331 C1327 1.429 . S
C1331 C1332 1.523 . S
C1332 C1316 1.368 . S
C1332 C1328 1.368 . S
C1332 C1331 1.523 . S
H1333 C1308 0.950 . S
H1334 C1310 0.950 . S
H1335 C1311 0.949 . S
H1336 C1313 0.950 . S
H1337 C1315 0.950 . S
C1338 C1339 1.349 . S
C1338 C1340 1.327 . S
C1338 H1363 0.950 . S
C1339 C1338 1.349 . S
C1339 C1355 1.349 . S
C1340 C1338 1.327 . S
C1340 C1359 1.429 . S
C1340 H1364 0.950 . S
C1341 C1358 1.574 . S
C1341 C1360 1.368 . S
C1341 H1365 0.949 . S
H1342 C1346 0.949 . S
C1343 C1344 1.349 . S
C1343 C1345 1.327 . S
C1343 H1366 0.950 . S
C1344 C1343 1.349 . S
C1344 C1356 1.349 . S
C1345 C1343 1.327 . S
C1345 C1361 1.429 . S
C1345 H1367 0.950 . S
C1346 H1342 0.949 . S
C1346 C1354 1.574 . S
C1346 C1362 1.368 . S
H1347 C1355 0.950 . S
H1348 C1353 0.950 . S
H1349 C1354 0.949 . S
H1350 C1356 0.950 . S
H1351 C1357 0.950 . S
H1352 C1358 0.949 . S
C1353 H1348 0.950 . S
C1353 C1355 1.327 . S
C1353 C1359 1.429 . S
C1354 C1346 1.574 . S
C1354 H1349 0.949 . S
C1354 C1360 1.368 . S
C1355 C1339 1.349 . S
C1355 H1347 0.950 . S
C1355 C1353 1.327 . S
C1356 C1344 1.349 . S
C1356 H1350 0.950 . S
C1356 C1357 1.327 . S
C1357 H1351 0.950 . S
C1357 C1356 1.327 . S
C1357 C1361 1.429 . S
C1358 C1341 1.574 . S
C1358 H1352 0.949 . S
C1358 C1362 1.368 . S
C1359 C1340 1.429 . S
C1359 C1353 1.429 . S
C1359 C1360 1.523 . S
C1360 C1341 1.368 . S
C1360 C1354 1.368 . S
C1360 C1359 1.523 . S
C1361 C1345 1.429 . S
C1361 C1357 1.429 . S
C1361 C1362 1.523 . S
C1362 C1346 1.368 . S
C1362 C1358 1.368 . S
C1362 C1361 1.523 . S
H1363 C1338 0.950 . S
H1364 C1340 0.950 . S
H1365 C1341 0.949 . S
H1366 C1343 0.950 . S
H1367 C1345 0.950 . S
C1368 C1369 1.349 . S
C1368 C1370 1.327 . S
C1368 H1393 0.950 . S
C1369 C1368 1.349 . S
C1369 C1385 1.349 . S
C1370 C1368 1.327 . S
C1370 C1389 1.429 . S
C1370 H1394 0.950 . S
C1371 C1388 1.574 . S
C1371 C1390 1.368 . S
C1371 H1395 0.949 . S
H1372 C1376 0.949 . S
C1373 C1374 1.349 . S
C1373 C1375 1.327 . S
C1373 H1396 0.950 . S
C1374 C1373 1.349 . S
C1374 C1386 1.349 . S
C1375 C1373 1.327 . S
C1375 C1391 1.429 . S
C1375 H1397 0.950 . S
C1376 H1372 0.949 . S
C1376 C1384 1.574 . S
C1376 C1392 1.368 . S
H1377 C1385 0.950 . S
H1378 C1383 0.950 . S
H1379 C1384 0.949 . S
H1380 C1386 0.950 . S
H1381 C1387 0.950 . S
H1382 C1388 0.949 . S
C1383 H1378 0.950 . S
C1383 C1385 1.327 . S
C1383 C1389 1.429 . S
C1384 C1376 1.574 . S
C1384 H1379 0.949 . S
C1384 C1390 1.368 . S
C1385 C1369 1.349 . S
C1385 H1377 0.950 . S
C1385 C1383 1.327 . S
C1386 C1374 1.349 . S
C1386 H1380 0.950 . S
C1386 C1387 1.327 . S
C1387 H1381 0.950 . S
C1387 C1386 1.327 . S
C1387 C1391 1.429 . S
C1388 C1371 1.574 . S
C1388 H1382 0.949 . S
C1388 C1392 1.368 . S
C1389 C1370 1.429 . S
C1389 C1383 1.429 . S
C1389 C1390 1.523 . S
C1390 C1371 1.368 . S
C1390 C1384 1.368 . S
C1390 C1389 1.523 . S
C1391 C1375 1.429 . S
C1391 C1387 1.429 . S
C1391 C1392 1.523 . S
C1392 C1376 1.368 . S
C1392 C1388 1.368 . S
C1392 C1391 1.523 . S
H1393 C1368 0.950 . S
H1394 C1370 0.950 . S
H1395 C1371 0.949 . S
H1396 C1373 0.950 . S
H1397 C1375 0.950 . S
C1398 C1399 1.349 . S
C1398 C1400 1.327 . S
C1398 H1423 0.950 . S
C1399 C1398 1.349 . S
C1399 C1415 1.349 . S
C1400 C1398 1.327 . S
C1400 C1419 1.429 . S
C1400 H1424 0.950 . S
C1401 C1418 1.574 . S
C1401 C1420 1.368 . S
C1401 H1425 0.949 . S
H1402 C1406 0.949 . S
C1403 C1404 1.349 . S
C1403 C1405 1.327 . S
C1403 H1426 0.950 . S
C1404 C1403 1.349 . S
C1404 C1416 1.349 . S
C1405 C1403 1.327 . S
C1405 C1421 1.429 . S
C1405 H1427 0.950 . S
C1406 H1402 0.949 . S
C1406 C1414 1.574 . S
C1406 C1422 1.368 . S
H1407 C1415 0.950 . S
H1408 C1413 0.950 . S
H1409 C1414 0.949 . S
H1410 C1416 0.950 . S
H1411 C1417 0.950 . S
H1412 C1418 0.949 . S
C1413 H1408 0.950 . S
C1413 C1415 1.327 . S
C1413 C1419 1.429 . S
C1414 C1406 1.574 . S
C1414 H1409 0.949 . S
C1414 C1420 1.368 . S
C1415 C1399 1.349 . S
C1415 H1407 0.950 . S
C1415 C1413 1.327 . S
C1416 C1404 1.349 . S
C1416 H1410 0.950 . S
C1416 C1417 1.327 . S
C1417 H1411 0.950 . S
C1417 C1416 1.327 . S
C1417 C1421 1.429 . S
C1418 C1401 1.574 . S
C1418 H1412 0.949 . S
C1418 C1422 1.368 . S
C1419 C1400 1.429 . S
C1419 C1413 1.429 . S
C1419 C1420 1.523 . S
C1420 C1401 1.368 . S
C1420 C1414 1.368 . S
C1420 C1419 1.523 . S
C1421 C1405 1.429 . S
C1421 C1417 1.429 . S
C1421 C1422 1.523 . S
C1422 C1406 1.368 . S
C1422 C1418 1.368 . S
C1422 C1421 1.523 . S
H1423 C1398 0.950 . S
H1424 C1400 0.950 . S
H1425 C1401 0.949 . S
H1426 C1403 0.950 . S
H1427 C1405 0.950 . S
C1428 C1429 1.349 . S
C1428 C1430 1.327 . S
C1428 H1453 0.950 . S
C1429 C1428 1.349 . S
C1429 C1445 1.349 . S
C1430 C1428 1.327 . S
C1430 C1449 1.429 . S
C1430 H1454 0.950 . S
C1431 C1448 1.574 . S
C1431 C1450 1.368 . S
C1431 H1455 0.949 . S
H1432 C1436 0.949 . S
C1433 C1434 1.349 . S
C1433 C1435 1.327 . S
C1433 H1456 0.950 . S
C1434 C1433 1.349 . S
C1434 C1446 1.349 . S
C1435 C1433 1.327 . S
C1435 C1451 1.429 . S
C1435 H1457 0.950 . S
C1436 H1432 0.949 . S
C1436 C1444 1.574 . S
C1436 C1452 1.368 . S
H1437 C1445 0.950 . S
H1438 C1443 0.950 . S
H1439 C1444 0.949 . S
H1440 C1446 0.950 . S
H1441 C1447 0.950 . S
H1442 C1448 0.949 . S
C1443 H1438 0.950 . S
C1443 C1445 1.327 . S
C1443 C1449 1.429 . S
C1444 C1436 1.574 . S
C1444 H1439 0.949 . S
C1444 C1450 1.368 . S
C1445 C1429 1.349 . S
C1445 H1437 0.950 . S
C1445 C1443 1.327 . S
C1446 C1434 1.349 . S
C1446 H1440 0.950 . S
C1446 C1447 1.327 . S
C1447 H1441 0.950 . S
C1447 C1446 1.327 . S
C1447 C1451 1.429 . S
C1448 C1431 1.574 . S
C1448 H1442 0.949 . S
C1448 C1452 1.368 . S
C1449 C1430 1.429 . S
C1449 C1443 1.429 . S
C1449 C1450 1.523 . S
C1450 C1431 1.368 . S
C1450 C1444 1.368 . S
C1450 C1449 1.523 . S
C1451 C1435 1.429 . S
C1451 C1447 1.429 . S
C1451 C1452 1.523 . S
C1452 C1436 1.368 . S
C1452 C1448 1.368 . S
C1452 C1451 1.523 . S
H1453 C1428 0.950 . S
H1454 C1430 0.950 . S
H1455 C1431 0.949 . S
H1456 C1433 0.950 . S
H1457 C1435 0.950 . S
C1458 C1459 1.349 . S
C1458 C1460 1.327 . S
C1458 H1483 0.950 . S
C1459 C1458 1.349 . S
C1459 C1475 1.349 . S
C1460 C1458 1.327 . S
C1460 C1479 1.429 . S
C1460 H1484 0.950 . S
C1461 C1478 1.574 . S
C1461 C1480 1.368 . S
C1461 H1485 0.949 . S
H1462 C1466 0.949 . S
C1463 C1464 1.349 . S
C1463 C1465 1.327 . S
C1463 H1486 0.950 . S
C1464 C1463 1.349 . S
C1464 C1476 1.349 . S
C1465 C1463 1.327 . S
C1465 C1481 1.429 . S
C1465 H1487 0.950 . S
C1466 H1462 0.949 . S
C1466 C1474 1.574 . S
C1466 C1482 1.368 . S
H1467 C1475 0.950 . S
H1468 C1473 0.950 . S
H1469 C1474 0.949 . S
H1470 C1476 0.950 . S
H1471 C1477 0.950 . S
H1472 C1478 0.949 . S
C1473 H1468 0.950 . S
C1473 C1475 1.327 . S
C1473 C1479 1.429 . S
C1474 C1466 1.574 . S
C1474 H1469 0.949 . S
C1474 C1480 1.368 . S
C1475 C1459 1.349 . S
C1475 H1467 0.950 . S
C1475 C1473 1.327 . S
C1476 C1464 1.349 . S
C1476 H1470 0.950 . S
C1476 C1477 1.327 . S
C1477 H1471 0.950 . S
C1477 C1476 1.327 . S
C1477 C1481 1.429 . S
C1478 C1461 1.574 . S
C1478 H1472 0.949 . S
C1478 C1482 1.368 . S
C1479 C1460 1.429 . S
C1479 C1473 1.429 . S
C1479 C1480 1.523 . S
C1480 C1461 1.368 . S
C1480 C1474 1.368 . S
C1480 C1479 1.523 . S
C1481 C1465 1.429 . S
C1481 C1477 1.429 . S
C1481 C1482 1.523 . S
C1482 C1466 1.368 . S
C1482 C1478 1.368 . S
C1482 C1481 1.523 . S
H1483 C1458 0.950 . S
H1484 C1460 0.950 . S
H1485 C1461 0.949 . S
H1486 C1463 0.950 . S
H1487 C1465 0.950 . S
C1488 C1489 1.349 . S
C1488 C1490 1.327 . S
C1488 H1513 0.950 . S
C1489 C1488 1.349 . S
C1489 C1505 1.349 . S
C1490 C1488 1.327 . S
C1490 C1509 1.429 . S
C1490 H1514 0.950 . S
C1491 C1508 1.574 . S
C1491 C1510 1.368 . S
C1491 H1515 0.949 . S
H1492 C1496 0.949 . S
C1493 C1494 1.349 . S
C1493 C1495 1.327 . S
C1493 H1516 0.950 . S
C1494 C1493 1.349 . S
C1494 C1506 1.349 . S
C1495 C1493 1.327 . S
C1495 C1511 1.429 . S
C1495 H1517 0.950 . S
C1496 H1492 0.949 . S
C1496 C1504 1.574 . S
C1496 C1512 1.368 . S
H1497 C1505 0.950 . S
H1498 C1503 0.950 . S
H1499 C1504 0.949 . S
H1500 C1506 0.950 . S
H1501 C1507 0.950 . S
H1502 C1508 0.949 . S
C1503 H1498 0.950 . S
C1503 C1505 1.327 . S
C1503 C1509 1.429 . S
C1504 C1496 1.574 . S
C1504 H1499 0.949 . S
C1504 C1510 1.368 . S
C1505 C1489 1.349 . S
C1505 H1497 0.950 . S
C1505 C1503 1.327 . S
C1506 C1494 1.349 . S
C1506 H1500 0.950 . S
C1506 C1507 1.327 . S
C1507 H1501 0.950 . S
C1507 C1506 1.327 . S
C1507 C1511 1.429 . S
C1508 C1491 1.574 . S
C1508 H1502 0.949 . S
C1508 C1512 1.368 . S
C1509 C1490 1.429 . S
C1509 C1503 1.429 . S
C1509 C1510 1.523 . S
C1510 C1491 1.368 . S
C1510 C1504 1.368 . S
C1510 C1509 1.523 . S
C1511 C1495 1.429 . S
C1511 C1507 1.429 . S
C1511 C1512 1.523 . S
C1512 C1496 1.368 . S
C1512 C1508 1.368 . S
C1512 C1511 1.523 . S
H1513 C1488 0.950 . S
H1514 C1490 0.950 . S
H1515 C1491 0.949 . S
H1516 C1493 0.950 . S
H1517 C1495 0.950 . S
C1518 C1519 1.349 . S
C1518 C1520 1.327 . S
C1518 H1543 0.950 . S
C1519 C1518 1.349 . S
C1519 C1535 1.349 . S
C1520 C1518 1.327 . S
C1520 C1539 1.429 . S
C1520 H1544 0.950 . S
C1521 C1538 1.574 . S
C1521 C1540 1.368 . S
C1521 H1545 0.949 . S
H1522 C1526 0.949 . S
C1523 C1524 1.349 . S
C1523 C1525 1.327 . S
C1523 H1546 0.950 . S
C1524 C1523 1.349 . S
C1524 C1536 1.349 . S
C1525 C1523 1.327 . S
C1525 C1541 1.429 . S
C1525 H1547 0.950 . S
C1526 H1522 0.949 . S
C1526 C1534 1.574 . S
C1526 C1542 1.368 . S
H1527 C1535 0.950 . S
H1528 C1533 0.950 . S
H1529 C1534 0.949 . S
H1530 C1536 0.950 . S
H1531 C1537 0.950 . S
H1532 C1538 0.949 . S
C1533 H1528 0.950 . S
C1533 C1535 1.327 . S
C1533 C1539 1.429 . S
C1534 C1526 1.574 . S
C1534 H1529 0.949 . S
C1534 C1540 1.368 . S
C1535 C1519 1.349 . S
C1535 H1527 0.950 . S
C1535 C1533 1.327 . S
C1536 C1524 1.349 . S
C1536 H1530 0.950 . S
C1536 C1537 1.327 . S
C1537 H1531 0.950 . S
C1537 C1536 1.327 . S
C1537 C1541 1.429 . S
C1538 C1521 1.574 . S
C1538 H1532 0.949 . S
C1538 C1542 1.368 . S
C1539 C1520 1.429 . S
C1539 C1533 1.429 . S
C1539 C1540 1.523 . S
C1540 C1521 1.368 . S
C1540 C1534 1.368 . S
C1540 C1539 1.523 . S
C1541 C1525 1.429 . S
C1541 C1537 1.429 . S
C1541 C1542 1.523 . S
C1542 C1526 1.368 . S
C1542 C1538 1.368 . S
C1542 C1541 1.523 . S
H1543 C1518 0.950 . S
H1544 C1520 0.950 . S
H1545 C1521 0.949 . S
H1546 C1523 0.950 . S
H1547 C1525 0.950 . S
C1548 C1549 1.349 . S
C1548 C1550 1.327 . S
C1548 H1573 0.950 . S
C1549 C1548 1.349 . S
C1549 C1565 1.349 . S
C1550 C1548 1.327 . S
C1550 C1569 1.429 . S
C1550 H1574 0.950 . S
C1551 C1568 1.574 . S
C1551 C1570 1.368 . S
C1551 H1575 0.949 . S
H1552 C1556 0.949 . S
C1553 C1554 1.349 . S
C1553 C1555 1.327 . S
C1553 H1576 0.950 . S
C1554 C1553 1.349 . S
C1554 C1566 1.349 . S
C1555 C1553 1.327 . S
C1555 C1571 1.429 . S
C1555 H1577 0.950 . S
C1556 H1552 0.949 . S
C1556 C1564 1.574 . S
C1556 C1572 1.368 . S
H1557 C1565 0.950 . S
H1558 C1563 0.950 . S
H1559 C1564 0.949 . S
H1560 C1566 0.950 . S
H1561 C1567 0.950 . S
H1562 C1568 0.949 . S
C1563 H1558 0.950 . S
C1563 C1565 1.327 . S
C1563 C1569 1.429 . S
C1564 C1556 1.574 . S
C1564 H1559 0.949 . S
C1564 C1570 1.368 . S
C1565 C1549 1.349 . S
C1565 H1557 0.950 . S
C1565 C1563 1.327 . S
C1566 C1554 1.349 . S
C1566 H1560 0.950 . S
C1566 C1567 1.327 . S
C1567 H1561 0.950 . S
C1567 C1566 1.327 . S
C1567 C1571 1.429 . S
C1568 C1551 1.574 . S
C1568 H1562 0.949 . S
C1568 C1572 1.368 . S
C1569 C1550 1.429 . S
C1569 C1563 1.429 . S
C1569 C1570 1.523 . S
C1570 C1551 1.368 . S
C1570 C1564 1.368 . S
C1570 C1569 1.523 . S
C1571 C1555 1.429 . S
C1571 C1567 1.429 . S
C1571 C1572 1.523 . S
C1572 C1556 1.368 . S
C1572 C1568 1.368 . S
C1572 C1571 1.523 . S
H1573 C1548 0.950 . S
H1574 C1550 0.950 . S
H1575 C1551 0.949 . S
H1576 C1553 0.950 . S
H1577 C1555 0.950 . S
C1578 C1579 1.349 . S
C1578 C1580 1.327 . S
C1578 H1603 0.950 . S
C1579 C1578 1.349 . S
C1579 C1595 1.349 . S
C1580 C1578 1.327 . S
C1580 C1599 1.429 . S
C1580 H1604 0.950 . S
C1581 C1598 1.574 . S
C1581 C1600 1.368 . S
C1581 H1605 0.949 . S
H1582 C1586 0.949 . S
C1583 C1584 1.349 . S
C1583 C1585 1.327 . S
C1583 H1606 0.950 . S
C1584 C1583 1.349 . S
C1584 C1596 1.349 . S
C1585 C1583 1.327 . S
C1585 C1601 1.429 . S
C1585 H1607 0.950 . S
C1586 H1582 0.949 . S
C1586 C1594 1.574 . S
C1586 C1602 1.368 . S
H1587 C1595 0.950 . S
H1588 C1593 0.950 . S
H1589 C1594 0.949 . S
H1590 C1596 0.950 . S
H1591 C1597 0.950 . S
H1592 C1598 0.949 . S
C1593 H1588 0.950 . S
C1593 C1595 1.327 . S
C1593 C1599 1.429 . S
C1594 C1586 1.574 . S
C1594 H1589 0.949 . S
C1594 C1600 1.368 . S
C1595 C1579 1.349 . S
C1595 H1587 0.950 . S
C1595 C1593 1.327 . S
C1596 C1584 1.349 . S
C1596 H1590 0.950 . S
C1596 C1597 1.327 . S
C1597 H1591 0.950 . S
C1597 C1596 1.327 . S
C1597 C1601 1.429 . S
C1598 C1581 1.574 . S
C1598 H1592 0.949 . S
C1598 C1602 1.368 . S
C1599 C1580 1.429 . S
C1599 C1593 1.429 . S
C1599 C1600 1.523 . S
C1600 C1581 1.368 . S
C1600 C1594 1.368 . S
C1600 C1599 1.523 . S
C1601 C1585 1.429 . S
C1601 C1597 1.429 . S
C1601 C1602 1.523 . S
C1602 C1586 1.368 . S
C1602 C1598 1.368 . S
C1602 C1601 1.523 . S
H1603 C1578 0.950 . S
H1604 C1580 0.950 . S
H1605 C1581 0.949 . S
H1606 C1583 0.950 . S
H1607 C1585 0.950 . S
C1608 C1609 1.349 . S
C1608 C1610 1.327 . S
C1608 H1633 0.950 . S
C1609 C1608 1.349 . S
C1609 C1625 1.349 . S
C1610 C1608 1.327 . S
C1610 C1629 1.429 . S
C1610 H1634 0.950 . S
C1611 C1628 1.574 . S
C1611 C1630 1.368 . S
C1611 H1635 0.949 . S
H1612 C1616 0.949 . S
C1613 C1614 1.349 . S
C1613 C1615 1.327 . S
C1613 H1636 0.950 . S
C1614 C1613 1.349 . S
C1614 C1626 1.349 . S
C1615 C1613 1.327 . S
C1615 C1631 1.429 . S
C1615 H1637 0.950 . S
C1616 H1612 0.949 . S
C1616 C1624 1.574 . S
C1616 C1632 1.368 . S
H1617 C1625 0.950 . S
H1618 C1623 0.950 . S
H1619 C1624 0.949 . S
H1620 C1626 0.950 . S
H1621 C1627 0.950 . S
H1622 C1628 0.949 . S
C1623 H1618 0.950 . S
C1623 C1625 1.327 . S
C1623 C1629 1.429 . S
C1624 C1616 1.574 . S
C1624 H1619 0.949 . S
C1624 C1630 1.368 . S
C1625 C1609 1.349 . S
C1625 H1617 0.950 . S
C1625 C1623 1.327 . S
C1626 C1614 1.349 . S
C1626 H1620 0.950 . S
C1626 C1627 1.327 . S
C1627 H1621 0.950 . S
C1627 C1626 1.327 . S
C1627 C1631 1.429 . S
C1628 C1611 1.574 . S
C1628 H1622 0.949 . S
C1628 C1632 1.368 . S
C1629 C1610 1.429 . S
C1629 C1623 1.429 . S
C1629 C1630 1.523 . S
C1630 C1611 1.368 . S
C1630 C1624 1.368 . S
C1630 C1629 1.523 . S
C1631 C1615 1.429 . S
C1631 C1627 1.429 . S
C1631 C1632 1.523 . S
C1632 C1616 1.368 . S
C1632 C1628 1.368 . S
C1632 C1631 1.523 . S
H1633 C1608 0.950 . S
H1634 C1610 0.950 . S
H1635 C1611 0.949 . S
H1636 C1613 0.950 . S
H1637 C1615 0.950 . S
C1638 C1639 1.349 . S
C1638 C1640 1.327 . S
C1638 H1663 0.950 . S
C1639 C1638 1.349 . S
C1639 C1655 1.349 . S
C1640 C1638 1.327 . S
C1640 C1659 1.429 . S
C1640 H1664 0.950 . S
C1641 C1658 1.574 . S
C1641 C1660 1.368 . S
C1641 H1665 0.949 . S
H1642 C1646 0.949 . S
C1643 C1644 1.349 . S
C1643 C1645 1.327 . S
C1643 H1666 0.950 . S
C1644 C1643 1.349 . S
C1644 C1656 1.349 . S
C1645 C1643 1.327 . S
C1645 C1661 1.429 . S
C1645 H1667 0.950 . S
C1646 H1642 0.949 . S
C1646 C1654 1.574 . S
C1646 C1662 1.368 . S
H1647 C1655 0.950 . S
H1648 C1653 0.950 . S
H1649 C1654 0.949 . S
H1650 C1656 0.950 . S
H1651 C1657 0.950 . S
H1652 C1658 0.949 . S
C1653 H1648 0.950 . S
C1653 C1655 1.327 . S
C1653 C1659 1.429 . S
C1654 C1646 1.574 . S
C1654 H1649 0.949 . S
C1654 C1660 1.368 . S
C1655 C1639 1.349 . S
C1655 H1647 0.950 . S
C1655 C1653 1.327 . S
C1656 C1644 1.349 . S
C1656 H1650 0.950 . S
C1656 C1657 1.327 . S
C1657 H1651 0.950 . S
C1657 C1656 1.327 . S
C1657 C1661 1.429 . S
C1658 C1641 1.574 . S
C1658 H1652 0.949 . S
C1658 C1662 1.368 . S
C1659 C1640 1.429 . S
C1659 C1653 1.429 . S
C1659 C1660 1.523 . S
C1660 C1641 1.368 . S
C1660 C1654 1.368 . S
C1660 C1659 1.523 . S
C1661 C1645 1.429 . S
C1661 C1657 1.429 . S
C1661 C1662 1.523 . S
C1662 C1646 1.368 . S
C1662 C1658 1.368 . S
C1662 C1661 1.523 . S
H1663 C1638 0.950 . S
H1664 C1640 0.950 . S
H1665 C1641 0.949 . S
H1666 C1643 0.950 . S
H1667 C1645 0.950 . S
C1668 C1669 1.349 . S
C1668 C1670 1.327 . S
C1668 H1693 0.950 . S
C1669 C1668 1.349 . S
C1669 C1685 1.349 . S
C1670 C1668 1.327 . S
C1670 C1689 1.429 . S
C1670 H1694 0.950 . S
C1671 C1688 1.574 . S
C1671 C1690 1.368 . S
C1671 H1695 0.949 . S
H1672 C1676 0.949 . S
C1673 C1674 1.349 . S
C1673 C1675 1.327 . S
C1673 H1696 0.950 . S
C1674 C1673 1.349 . S
C1674 C1686 1.349 . S
C1675 C1673 1.327 . S
C1675 C1691 1.429 . S
C1675 H1697 0.950 . S
C1676 H1672 0.949 . S
C1676 C1684 1.574 . S
C1676 C1692 1.368 . S
H1677 C1685 0.950 . S
H1678 C1683 0.950 . S
H1679 C1684 0.949 . S
H1680 C1686 0.950 . S
H1681 C1687 0.950 . S
H1682 C1688 0.949 . S
C1683 H1678 0.950 . S
C1683 C1685 1.327 . S
C1683 C1689 1.429 . S
C1684 C1676 1.574 . S
C1684 H1679 0.949 . S
C1684 C1690 1.368 . S
C1685 C1669 1.349 . S
C1685 H1677 0.950 . S
C1685 C1683 1.327 . S
C1686 C1674 1.349 . S
C1686 H1680 0.950 . S
C1686 C1687 1.327 . S
C1687 H1681 0.950 . S
C1687 C1686 1.327 . S
C1687 C1691 1.429 . S
C1688 C1671 1.574 . S
C1688 H1682 0.949 . S
C1688 C1692 1.368 . S
C1689 C1670 1.429 . S
C1689 C1683 1.429 . S
C1689 C1690 1.523 . S
C1690 C1671 1.368 . S
C1690 C1684 1.368 . S
C1690 C1689 1.523 . S
C1691 C1675 1.429 . S
C1691 C1687 1.429 . S
C1691 C1692 1.523 . S
C1692 C1676 1.368 . S
C1692 C1688 1.368 . S
C1692 C1691 1.523 . S
H1693 C1668 0.950 . S
H1694 C1670 0.950 . S
H1695 C1671 0.949 . S
H1696 C1673 0.950 . S
H1697 C1675 0.950 . S
C1698 C1699 1.349 . S
C1698 C1700 1.327 . S
C1698 H1723 0.950 . S
C1699 C1698 1.349 . S
C1699 C1715 1.349 . S
C1700 C1698 1.327 . S
C1700 C1719 1.429 . S
C1700 H1724 0.950 . S
C1701 C1718 1.574 . S
C1701 C1720 1.368 . S
C1701 H1725 0.949 . S
H1702 C1706 0.949 . S
C1703 C1704 1.349 . S
C1703 C1705 1.327 . S
C1703 H1726 0.950 . S
C1704 C1703 1.349 . S
C1704 C1716 1.349 . S
C1705 C1703 1.327 . S
C1705 C1721 1.429 . S
C1705 H1727 0.950 . S
C1706 H1702 0.949 . S
C1706 C1714 1.574 . S
C1706 C1722 1.368 . S
H1707 C1715 0.950 . S
H1708 C1713 0.950 . S
H1709 C1714 0.949 . S
H1710 C1716 0.950 . S
H1711 C1717 0.950 . S
H1712 C1718 0.949 . S
C1713 H1708 0.950 . S
C1713 C1715 1.327 . S
C1713 C1719 1.429 . S
C1714 C1706 1.574 . S
C1714 H1709 0.949 . S
C1714 C1720 1.368 . S
C1715 C1699 1.349 . S
C1715 H1707 0.950 . S
C1715 C1713 1.327 . S
C1716 C1704 1.349 . S
C1716 H1710 0.950 . S
C1716 C1717 1.327 . S
C1717 H1711 0.950 . S
C1717 C1716 1.327 . S
C1717 C1721 1.429 . S
C1718 C1701 1.574 . S
C1718 H1712 0.949 . S
C1718 C1722 1.368 . S
C1719 C1700 1.429 . S
C1719 C1713 1.429 . S
C1719 C1720 1.523 . S
C1720 C1701 1.368 . S
C1720 C1714 1.368 . S
C1720 C1719 1.523 . S
C1721 C1705 1.429 . S
C1721 C1717 1.429 . S
C1721 C1722 1.523 . S
C1722 C1706 1.368 . S
C1722 C1718 1.368 . S
C1722 C1721 1.523 . S
H1723 C1698 0.950 . S
H1724 C1700 0.950 . S
H1725 C1701 0.949 . S
H1726 C1703 0.950 . S
H1727 C1705 0.950 . S
C529 N14 1.667 . S
C534 N476 1.667 . S
C559 N71 1.606 . S
C564 N5 1.606 . S
C589 N47 1.667 . S
C594 N377 1.667 . S
C619 N236 1.606 . S
C624 N38 1.606 . S
C649 N80 1.667 . S
C654 N410 1.667 . S
C679 N113 1.667 . S
C684 N311 1.667 . S
C709 N104 1.606 . S
C714 N170 1.606 . S
C739 N344 1.667 . S
C744 N146 1.667 . S
C769 N203 1.606 . S
C774 N137 1.606 . S
C799 N179 1.667 . S
C804 N509 1.667 . S
C829 N278 1.667 . S
C834 N212 1.667 . S
C859 N443 1.667 . S
C864 N245 1.667 . S
C889 N269 1.606 . S
C894 N335 1.606 . S
C919 N500 1.606 . S
C924 N302 1.606 . S
C949 N368 1.606 . S
C954 N434 1.606 . S
C979 N401 1.606 . S
C984 N467 1.606 . S
C1009 C8 1.154 . S
C1014 C314 1.152 . S
C1039 C305 1.154 . S
C1044 C17 1.152 . S
C1069 C41 1.154 . S
C1074 C281 1.152 . S
C1099 C50 1.152 . S
C1104 C272 1.154 . S
C1129 C380 1.152 . S
C1134 C74 1.154 . S
C1159 C371 1.154 . S
C1164 C83 1.152 . S
C1189 C107 1.154 . S
C1194 C347 1.152 . S
C1219 C116 1.152 . S
C1224 C338 1.154 . S
C1249 C140 1.154 . S
C1254 C446 1.152 . S
C1279 C437 1.154 . S
C1284 C149 1.152 . S
C1309 C173 1.154 . S
C1314 C413 1.152 . S
C1339 C404 1.154 . S
C1344 C182 1.152 . S
C1369 C512 1.152 . S
C1374 C206 1.154 . S
C1399 C215 1.152 . S
C1404 C503 1.154 . S
C1429 C239 1.154 . S
C1434 C479 1.152 . S
C1459 C248 1.152 . S
C1464 C470 1.154 . S
C1489 C61 0.812 . S
C1494 C28 0.812 . S
C1519 C94 0.812 . S
C1524 C127 0.812 . S
C1549 C160 0.812 . S
C1554 C193 0.812 . S
C1579 C226 0.812 . S
C1584 C259 0.812 . S
C1609 C325 0.812 . S
C1614 C292 0.812 . S
C1639 C391 0.812 . S
C1644 C358 0.812 . S
C1669 C424 0.812 . S
C1674 C457 0.812 . S
C1699 C523 0.812 . S
C1704 C490 0.812 . S
