# Generated by pormake.
# Topology umg, (4)-cn, num edge types: 1
# Building blocks:
#     Node 0, Type 0, BuildingBlock: QUQFOY_clean_sbu_3, # of connection points: 4
#     Node 1, Type 0, BuildingBlock: QUQFOY_clean_sbu_3, # of connection points: 4
#     Node 2, Type 0, BuildingBlock: QUQFOY_clean_sbu_3, # of connection points: 4
#     Node 3, Type 0, BuildingBlock: QUQFOY_clean_sbu_3, # of connection points: 4
#     Node 4, Type 0, BuildingBlock: QUQFOY_clean_sbu_3, # of connection points: 4
#     Node 5, Type 0, BuildingBlock: QUQFOY_clean_sbu_3, # of connection points: 4
#     Node 6, Type 0, BuildingBlock: QUQFOY_clean_sbu_3, # of connection points: 4
#     Node 7, Type 0, BuildingBlock: QUQFOY_clean_sbu_3, # of connection points: 4
#     Node 8, Type 0, BuildingBlock: QUQFOY_clean_sbu_3, # of connection points: 4
#     Node 9, Type 0, BuildingBlock: QUQFOY_clean_sbu_3, # of connection points: 4
#     Node 10, Type 0, BuildingBlock: QUQFOY_clean_sbu_3, # of connection points: 4
#     Node 11, Type 0, BuildingBlock: QUQFOY_clean_sbu_3, # of connection points: 4
#     Edge 12, Type (0, 0), BuildingBlock: CIFDUS_clean_linker_0, # of connection points: 2
#     Edge 13, Type (0, 0), BuildingBlock: CIFDUS_clean_linker_0, # of connection points: 2
#     Edge 14, Type (0, 0), BuildingBlock: CIFDUS_clean_linker_0, # of connection points: 2
#     Edge 15, Type (0, 0), BuildingBlock: CIFDUS_clean_linker_0, # of connection points: 2
#     Edge 16, Type (0, 0), BuildingBlock: CIFDUS_clean_linker_0, # of connection points: 2
#     Edge 17, Type (0, 0), BuildingBlock: CIFDUS_clean_linker_0, # of connection points: 2
#     Edge 18, Type (0, 0), BuildingBlock: CIFDUS_clean_linker_0, # of connection points: 2
#     Edge 19, Type (0, 0), BuildingBlock: CIFDUS_clean_linker_0, # of connection points: 2
#     Edge 20, Type (0, 0), BuildingBlock: CIFDUS_clean_linker_0, # of connection points: 2
#     Edge 21, Type (0, 0), BuildingBlock: CIFDUS_clean_linker_0, # of connection points: 2
#     Edge 22, Type (0, 0), BuildingBlock: CIFDUS_clean_linker_0, # of connection points: 2
#     Edge 23, Type (0, 0), BuildingBlock: CIFDUS_clean_linker_0, # of connection points: 2
#     Edge 24, Type (0, 0), BuildingBlock: CIFDUS_clean_linker_0, # of connection points: 2
#     Edge 25, Type (0, 0), BuildingBlock: CIFDUS_clean_linker_0, # of connection points: 2
#     Edge 26, Type (0, 0), BuildingBlock: CIFDUS_clean_linker_0, # of connection points: 2
#     Edge 27, Type (0, 0), BuildingBlock: CIFDUS_clean_linker_0, # of connection points: 2
#     Edge 28, Type (0, 0), BuildingBlock: CIFDUS_clean_linker_0, # of connection points: 2
#     Edge 29, Type (0, 0), BuildingBlock: CIFDUS_clean_linker_0, # of connection points: 2
#     Edge 30, Type (0, 0), BuildingBlock: CIFDUS_clean_linker_0, # of connection points: 2
#     Edge 31, Type (0, 0), BuildingBlock: CIFDUS_clean_linker_0, # of connection points: 2
#     Edge 32, Type (0, 0), BuildingBlock: CIFDUS_clean_linker_0, # of connection points: 2
#     Edge 33, Type (0, 0), BuildingBlock: CIFDUS_clean_linker_0, # of connection points: 2
#     Edge 34, Type (0, 0), BuildingBlock: CIFDUS_clean_linker_0, # of connection points: 2
#     Edge 35, Type (0, 0), BuildingBlock: CIFDUS_clean_linker_0, # of connection points: 2
# Relax obj value: 0.093
# Max RMSD: 0.206
# Mean RMSD: 0.205
data_MOF--net-umg--node1-QUQFOY_clean_sbu_3--edge1-CIFDUS_clean_linker_0
_symmetry_space_group_name_H-M    P1
_symmetry_Int_Tables_number       1
_symmetry_cell_setting            triclinic
loop_
_symmetry_equiv_pos_as_xyz
'x, y, z'
_cell_length_a     25.927785
_cell_length_b     25.852914
_cell_length_c     79.592433
_cell_angle_alpha  89.821486
_cell_angle_beta   90.016097
_cell_angle_gamma 119.80849
loop_
_atom_site_label
_atom_site_type_symbol
_atom_site_fract_x
_atom_site_fract_y
_atom_site_fract_z
_atom_type_partial_charge
C0 C 0.31493 0.66848 0.0828 0.0
O1 O 0.30744 0.71007 0.07705 0.0
Cd2 Cd 0.27047 0.70045 0.04866 0.0
O3 O 0.30948 0.62713 0.07313 0.0
Cd4 Cd 0.29325 0.59863 0.04351 0.0
C5 C 0.14952 0.55894 0.04897 0.0
O6 O 0.33075 0.69163 0.02694 0.0
O7 O 0.26624 0.60815 0.01534 0.0
O8 O 0.39034 0.60691 0.04299 0.0
C9 C 0.30279 0.66344 0.01385 0.0
O10 O 0.16965 0.61502 0.04856 0.0
C11 C 0.37302 0.55236 0.04035 0.0
O12 O 0.18503 0.53815 0.04833 0.0
O13 O 0.31714 0.51765 0.03896 0.0
C14 C 0.64528 0.32667 0.41714 0.0
O15 O 0.59744 0.32376 0.41217 0.0
Cd16 Cd 0.56906 0.29377 0.38329 0.0
O17 O 0.67896 0.32133 0.40657 0.0
Cd18 Cd 0.68645 0.31261 0.37607 0.0
C19 C 0.58264 0.16896 0.38005 0.0
O20 O 0.63513 0.35871 0.36148 0.0
O21 O 0.64503 0.29095 0.34817 0.0
O22 O 0.77508 0.40907 0.37665 0.0
C23 C 0.63288 0.33278 0.3477 0.0
O24 O 0.5481 0.19071 0.38085 0.0
C25 C 0.81124 0.39257 0.37185 0.0
O26 O 0.63878 0.20349 0.37912 0.0
O27 O 0.78966 0.33713 0.36894 0.0
C28 C 0.30309 0.67262 0.75064 0.0
O29 O 0.25572 0.62825 0.74529 0.0
Cd30 Cd 0.25346 0.59719 0.71657 0.0
O31 O 0.34522 0.70329 0.74048 0.0
Cd32 Cd 0.36631 0.70987 0.71026 0.0
C33 C 0.38137 0.5884 0.71458 0.0
O34 O 0.27104 0.66976 0.69492 0.0
O35 O 0.34514 0.669 0.68241 0.0
O36 O 0.3739 0.80712 0.71016 0.0
C37 C 0.29346 0.66261 0.68151 0.0
O38 O 0.32478 0.56185 0.71476 0.0
C39 C 0.42825 0.83719 0.70606 0.0
O40 O 0.41157 0.64532 0.71405 0.0
O41 O 0.45552 0.80809 0.70385 0.0
C42 C 0.63322 0.27633 0.0852 0.0
O43 O 0.63775 0.23412 0.07865 0.0
Cd44 Cd 0.67131 0.24646 0.0498 0.0
O45 O 0.63856 0.31898 0.07602 0.0
Cd46 Cd 0.64985 0.34651 0.04604 0.0
C47 C 0.79346 0.38667 0.05008 0.0
O48 O 0.60975 0.25567 0.02846 0.0
O49 O 0.67825 0.33915 0.01774 0.0
O50 O 0.5529 0.33854 0.04676 0.0
C51 C 0.6387 0.28517 0.01558 0.0
O52 O 0.77302 0.33061 0.04924 0.0
C53 C 0.56973 0.39252 0.04329 0.0
O54 O 0.75807 0.40764 0.05019 0.0
O55 O 0.62534 0.42694 0.04111 0.0
C56 C 0.32835 0.64659 0.41667 0.0
O57 O 0.377 0.65145 0.41168 0.0
Cd58 Cd 0.40724 0.68679 0.38316 0.0
O59 O 0.29522 0.65358 0.40627 0.0
Cd60 Cd 0.29001 0.6688 0.37612 0.0
C61 C 0.3937 0.81189 0.38098 0.0
O62 O 0.34272 0.62617 0.36061 0.0
O63 O 0.33374 0.69696 0.34867 0.0
O64 O 0.20164 0.57218 0.37478 0.0
C65 C 0.34614 0.65547 0.34737 0.0
O66 O 0.42824 0.79009 0.38148 0.0
C67 C 0.16551 0.58993 0.371 0.0
O68 O 0.33754 0.77745 0.38009 0.0
O69 O 0.18704 0.64604 0.36945 0.0
C70 C 0.6674 0.34316 0.74958 0.0
O71 O 0.71406 0.38859 0.74425 0.0
Cd72 Cd 0.71155 0.42392 0.71621 0.0
O73 O 0.62403 0.31456 0.73966 0.0
Cd74 Cd 0.59895 0.31294 0.70984 0.0
C75 C 0.58403 0.43359 0.71603 0.0
O76 O 0.69228 0.35532 0.6933 0.0
O77 O 0.61618 0.35644 0.68225 0.0
O78 O 0.59174 0.21609 0.70811 0.0
C79 C 0.66798 0.36372 0.68047 0.0
O80 O 0.64062 0.46009 0.7161 0.0
C81 C 0.53647 0.18591 0.70521 0.0
O82 O 0.55384 0.3768 0.71494 0.0
O83 O 0.50862 0.21489 0.70417 0.0
C84 C 0.29855 0.63354 0.51646 0.0
O85 O 0.25415 0.63747 0.5214 0.0
Cd86 Cd 0.25665 0.67092 0.54991 0.0
O87 O 0.33785 0.63933 0.52697 0.0
Cd88 Cd 0.35542 0.65056 0.5573 0.0
C89 C 0.39577 0.79406 0.5521 0.0
O90 O 0.25991 0.6101 0.57262 0.0
O91 O 0.33976 0.67948 0.58457 0.0
O92 O 0.34691 0.5533 0.55821 0.0
C93 C 0.28551 0.63966 0.58578 0.0
O94 O 0.33975 0.77311 0.55152 0.0
C95 C 0.40002 0.57025 0.56251 0.0
O96 O 0.41701 0.75898 0.55319 0.0
O97 O 0.43411 0.62609 0.56457 0.0
C98 C 0.66216 0.30595 0.84911 0.0
O99 O 0.61834 0.25809 0.85453 0.0
Cd100 Cd 0.58849 0.25641 0.88346 0.0
O101 O 0.69243 0.34814 0.85925 0.0
Cd102 Cd 0.69923 0.36935 0.88944 0.0
C103 C 0.5776 0.38328 0.88491 0.0
O104 O 0.66039 0.27482 0.90538 0.0
O105 O 0.6593 0.34952 0.91748 0.0
O106 O 0.79585 0.37645 0.88895 0.0
C107 C 0.65368 0.29804 0.9187 0.0
O108 O 0.55157 0.32655 0.88502 0.0
C109 C 0.82629 0.43088 0.89301 0.0
O110 O 0.63434 0.41399 0.88532 0.0
O111 O 0.79768 0.45854 0.89546 0.0
C112 C 0.32424 0.6663 0.18275 0.0
O113 O 0.31908 0.61791 0.18829 0.0
Cd114 Cd 0.2886 0.59122 0.21711 0.0
O115 O 0.31921 0.70171 0.19275 0.0
Cd116 Cd 0.30584 0.71057 0.22294 0.0
C117 C 0.16362 0.60412 0.21925 0.0
O118 O 0.35541 0.66271 0.23749 0.0
O119 O 0.28786 0.67131 0.25124 0.0
O120 O 0.39549 0.80724 0.22266 0.0
C121 C 0.33035 0.66029 0.25142 0.0
O122 O 0.18511 0.56925 0.21911 0.0
C123 C 0.3709 0.83714 0.22686 0.0
O124 O 0.19806 0.66034 0.2197 0.0
O125 O 0.31511 0.80805 0.22944 0.0
C126 C 0.66422 0.31599 0.51706 0.0
O127 O 0.70799 0.31087 0.52197 0.0
Cd128 Cd 0.70354 0.2745 0.55035 0.0
O129 O 0.62445 0.30929 0.52753 0.0
Cd130 Cd 0.60469 0.29412 0.55779 0.0
C131 C 0.56479 0.15098 0.55208 0.0
O132 O 0.69937 0.33325 0.57344 0.0
O133 O 0.6187 0.26359 0.5851 0.0
O134 O 0.61288 0.39113 0.55943 0.0
C135 C 0.67301 0.30302 0.5865 0.0
O136 O 0.62082 0.172 0.55158 0.0
C137 C 0.55918 0.37349 0.56324 0.0
O138 O 0.54349 0.18597 0.55327 0.0
O139 O 0.52494 0.31738 0.5647 0.0
C140 C 0.33349 0.67357 0.85014 0.0
O141 O 0.37887 0.71941 0.85577 0.0
Cd142 Cd 0.41311 0.71322 0.88362 0.0
O143 O 0.3043 0.62883 0.85966 0.0
Cd144 Cd 0.30039 0.59838 0.88899 0.0
C145 C 0.42102 0.58423 0.88218 0.0
O146 O 0.34353 0.68936 0.90652 0.0
O147 O 0.34246 0.61036 0.91645 0.0
O148 O 0.20433 0.59224 0.8911 0.0
C149 C 0.35129 0.66259 0.91889 0.0
O150 O 0.44757 0.64097 0.88264 0.0
C151 C 0.1735 0.53638 0.89327 0.0
O152 O 0.36432 0.55386 0.88314 0.0
O153 O 0.20174 0.5077 0.89375 0.0
C154 C 0.64276 0.361 0.18185 0.0
O155 O 0.6493 0.40875 0.18824 0.0
Cd156 Cd 0.682 0.43019 0.2171 0.0
O157 O 0.64842 0.32391 0.19105 0.0
Cd158 Cd 0.66619 0.31275 0.22095 0.0
C159 C 0.80797 0.41961 0.21745 0.0
O160 O 0.61787 0.35702 0.23779 0.0
O161 O 0.68985 0.35013 0.2494 0.0
O162 O 0.57694 0.21573 0.22169 0.0
C163 C 0.6459 0.35846 0.25105 0.0
O164 O 0.78622 0.45415 0.21842 0.0
C165 C 0.60269 0.18598 0.22477 0.0
O166 O 0.77368 0.36338 0.21696 0.0
O167 O 0.659 0.21524 0.2261 0.0
H168 H 0.28766 0.69847 0.93734 0.0
H169 H 0.4419 0.67683 0.93862 0.0
H170 H 0.4486 0.69002 -0.0309 0.0
H171 H 0.39845 0.68686 -0.00446 0.0
H172 H 0.23585 0.69335 -0.00554 0.0
H173 H 0.24452 0.70814 0.96393 0.0
C174 C 0.32392 0.69902 0.94431 0.0
C175 C 0.36455 0.68726 0.93592 0.0
C176 C 0.32525 0.70307 0.96192 0.0
C177 C 0.41053 0.68631 0.94495 0.0
C178 C 0.41405 0.69338 0.96235 0.0
C179 C 0.36642 0.69398 -0.01139 0.0
C180 C 0.31716 0.69004 -0.00296 0.0
C181 C 0.36998 0.69885 -0.02896 0.0
C182 C 0.27458 0.69726 -0.01191 0.0
C183 C 0.27927 0.70509 -0.02934 0.0
H184 H 0.55125 0.27768 0.32336 0.0
H185 H 0.71118 0.44107 0.33524 0.0
H186 H 0.72579 0.46924 0.30549 0.0
H187 H 0.70259 0.43731 0.27591 0.0
H188 H 0.54029 0.27623 0.26405 0.0
H189 H 0.51593 0.2574 0.29398 0.0
C190 C 0.58788 0.32047 0.31943 0.0
C191 C 0.63016 0.35738 0.3313 0.0
C192 C 0.59581 0.33624 0.30234 0.0
C193 C 0.67785 0.41249 0.32623 0.0
C194 C 0.68652 0.42822 0.30923 0.0
C195 C 0.66086 0.39941 0.27993 0.0
C196 C 0.62322 0.35805 0.26797 0.0
C197 C 0.64723 0.38912 0.29712 0.0
C198 C 0.56944 0.30881 0.27314 0.0
C199 C 0.55588 0.29777 0.29023 0.0
H200 H 0.25594 0.56919 0.66058 0.0
H201 H 0.27436 0.74344 0.66533 0.0
H202 H 0.26203 0.74768 0.63494 0.0
H203 H 0.26775 0.71023 0.60693 0.0
H204 H 0.24708 0.53506 0.60215 0.0
H205 H 0.23689 0.52155 0.63268 0.0
C206 C 0.2547 0.60686 0.65496 0.0
C207 C 0.2661 0.65601 0.66497 0.0
C208 C 0.2479 0.60893 0.63752 0.0
C209 C 0.26504 0.705 0.65775 0.0
C210 C 0.25864 0.70763 0.64039 0.0
C211 C 0.25842 0.6682 0.61259 0.0
C212 C 0.25826 0.62369 0.60251 0.0
C213 C 0.25311 0.66114 0.6301 0.0
C214 C 0.24669 0.56951 0.60978 0.0
C215 C 0.24162 0.56215 0.62723 0.0
H216 H 0.70914 0.2729 -0.00701 0.0
H217 H 0.53434 0.25033 -0.00028 0.0
H218 H 0.51899 0.2431 -0.03076 0.0
H219 H 0.56362 0.2624 0.94086 0.0
H220 H 0.73685 0.28106 0.93413 0.0
H221 H 0.7445 0.26941 0.96444 0.0
C222 C 0.66692 0.2641 -0.01226 0.0
C223 C 0.62287 0.26217 -0.0016 0.0
C224 C 0.6586 0.26003 -0.02974 0.0
C225 C 0.56844 0.25126 -0.00836 0.0
C226 C 0.55998 0.2478 -0.02576 0.0
C227 C 0.60191 0.26155 0.94603 0.0
C228 C 0.64964 0.2725 0.93546 0.0
C229 C 0.60583 0.25481 0.96343 0.0
C230 C 0.69943 0.27197 0.94213 0.0
C231 C 0.70402 0.26595 0.95944 0.0
H232 H 0.2794 0.57156 0.27425 0.0
H233 H 0.43466 0.74209 0.26484 0.0
H234 H 0.46089 0.75159 0.29466 0.0
H235 H 0.42721 0.72022 0.32378 0.0
H236 H 0.27364 0.54849 0.33322 0.0
H237 H 0.25966 0.52934 0.30298 0.0
C238 C 0.32018 0.60953 0.27871 0.0
C239 C 0.35514 0.65618 0.26758 0.0
C240 C 0.33475 0.61457 0.29584 0.0
C241 C 0.40762 0.70556 0.2733 0.0
C242 C 0.42224 0.7112 0.29034 0.0
C243 C 0.39233 0.67763 0.31916 0.0
C244 C 0.35137 0.6358 0.33052 0.0
C245 C 0.38449 0.66731 0.30181 0.0
C246 C 0.30595 0.58089 0.32459 0.0
C247 C 0.29755 0.57033 0.30732 0.0
H248 H 0.70008 0.29401 0.66356 0.0
H249 H 0.68924 0.45441 0.65946 0.0
H250 H 0.70551 0.45748 0.62911 0.0
H251 H 0.70178 0.40317 0.60346 0.0
H252 H 0.69629 0.23446 0.60738 0.0
H253 H 0.70879 0.24597 0.63789 0.0
C254 C 0.70364 0.33071 0.65603 0.0
C255 C 0.69414 0.37424 0.66358 0.0
C256 C 0.7093 0.33 0.63848 0.0
C257 C 0.697 0.42082 0.6538 0.0
C258 C 0.70583 0.42228 0.63646 0.0
C259 C 0.7059 0.37036 0.611 0.0
C260 C 0.69915 0.31858 0.60334 0.0
C261 C 0.70913 0.37556 0.62858 0.0
C262 C 0.70238 0.27507 0.61313 0.0
C263 C 0.70887 0.28139 0.63055 0.0
H264 H 0.33562 0.60123 0.15765 0.0
H265 H 0.32884 0.76227 0.16685 0.0
H266 H 0.32958 0.77961 0.13672 0.0
H267 H 0.32429 0.74504 0.10772 0.0
H268 H 0.33053 0.58361 0.09864 0.0
H269 H 0.3383 0.57097 0.12867 0.0
C270 C 0.33493 0.64045 0.15308 0.0
C271 C 0.33155 0.67995 0.16453 0.0
C272 C 0.33491 0.65005 0.13571 0.0
C273 C 0.3311 0.73082 0.15835 0.0
C274 C 0.33139 0.74079 0.1411 0.0
C275 C 0.32798 0.70745 0.11229 0.0
C276 C 0.32616 0.6651 0.10091 0.0
C277 C 0.33205 0.70006 0.12965 0.0
C278 C 0.33136 0.61679 0.10709 0.0
C279 C 0.33574 0.60938 0.12429 0.0
H280 H 0.58191 0.33329 0.44364 0.0
H281 H 0.74406 0.33313 0.43137 0.0
H282 H 0.76622 0.33351 0.46112 0.0
H283 H 0.73657 0.32725 0.49069 0.0
H284 H 0.57413 0.32684 0.50294 0.0
H285 H 0.55564 0.33374 0.47325 0.0
C286 C 0.62237 0.33391 0.44746 0.0
C287 C 0.66088 0.33267 0.43523 0.0
C288 C 0.63483 0.33373 0.46465 0.0
C289 C 0.71329 0.33372 0.44046 0.0
C290 C 0.72608 0.33386 0.45751 0.0
C291 C 0.69743 0.32925 0.48689 0.0
C292 C 0.65669 0.32602 0.49908 0.0
C293 C 0.68668 0.33283 0.46972 0.0
C294 C 0.60625 0.32891 0.49387 0.0
C295 C 0.59547 0.33277 0.47686 0.0
H296 H 0.23227 0.60645 0.77659 0.0
H297 H 0.39471 0.76982 0.76557 0.0
H298 H 0.41635 0.78712 0.79549 0.0
H299 H 0.39346 0.75176 0.82469 0.0
H300 H 0.23229 0.58687 0.83554 0.0
H301 H 0.20594 0.57473 0.80588 0.0
C302 C 0.27199 0.64626 0.78073 0.0
C303 C 0.31195 0.68642 0.76882 0.0
C304 C 0.28478 0.65555 0.79797 0.0
C305 C 0.36328 0.73782 0.77444 0.0
C306 C 0.37583 0.74779 0.79157 0.0
C307 C 0.35226 0.71354 0.8206 0.0
C308 C 0.31531 0.67009 0.83234 0.0
C309 C 0.33758 0.70628 0.80343 0.0
C310 C 0.26196 0.62084 0.82678 0.0
C311 C 0.24674 0.61376 0.8098 0.0
H312 H 0.62531 0.36211 0.10283 0.0
H313 H 0.62592 0.19644 0.10913 0.0
H314 H 0.62466 0.20618 0.13962 0.0
H315 H 0.63056 0.26513 0.1644 0.0
H316 H 0.63249 0.43205 0.15803 0.0
H317 H 0.6252 0.41804 0.12762 0.0
C318 C 0.62461 0.32775 0.11084 0.0
C319 C 0.62614 0.27878 0.10364 0.0
C320 C 0.62467 0.334 0.12836 0.0
C321 C 0.62495 0.23467 0.11428 0.0
C322 C 0.62439 0.24029 0.13173 0.0
C323 C 0.62886 0.29828 0.1564 0.0
C324 C 0.63253 0.34984 0.16354 0.0
C325 C 0.62536 0.29031 0.1389 0.0
C326 C 0.62999 0.39208 0.15292 0.0
C327 C 0.62593 0.38416 0.13551 0.0
H328 H 0.22845 0.62697 0.49004 0.0
H329 H 0.39005 0.62552 0.50221 0.0
H330 H 0.41189 0.62575 0.47244 0.0
H331 H 0.38905 0.63371 0.44291 0.0
H332 H 0.22769 0.63578 0.43082 0.0
H333 H 0.20199 0.62759 0.46049 0.0
C334 C 0.2681 0.62603 0.4862 0.0
C335 C 0.30769 0.62678 0.49839 0.0
C336 C 0.28082 0.62668 0.46901 0.0
C337 C 0.35881 0.62532 0.49313 0.0
C338 C 0.37152 0.62557 0.47608 0.0
C339 C 0.348 0.63182 0.44675 0.0
C340 C 0.31079 0.63597 0.43462 0.0
C341 C 0.33346 0.62743 0.4639 0.0
C342 C 0.25754 0.6331 0.43985 0.0
C343 C 0.2427 0.62846 0.45685 0.0
H344 H 0.59377 0.23889 0.82298 0.0
H345 H 0.76166 0.39529 0.83434 0.0
H346 H 0.78007 0.41864 0.80449 0.0
H347 H 0.74527 0.39901 0.77526 0.0
H348 H 0.57606 0.24405 0.76401 0.0
H349 H 0.56178 0.21594 0.79359 0.0
C350 C 0.63476 0.2776 0.81892 0.0
C351 C 0.67601 0.31539 0.83091 0.0
C352 C 0.64472 0.29147 0.80171 0.0
C353 C 0.72885 0.36555 0.8254 0.0
C354 C 0.73946 0.37908 0.80831 0.0
C355 C 0.70554 0.3588 0.77925 0.0
C356 C 0.6617 0.32409 0.7674 0.0
C357 C 0.69716 0.34307 0.79637 0.0
C358 C 0.61048 0.27199 0.77283 0.0
C359 C 0.60218 0.25575 0.78978 0.0
H360 H 0.87976 0.35574 0.05009 0.0
H361 H 0.85468 0.50882 0.05128 0.0
H362 H 0.9623 0.57505 0.0514 0.0
H363 H 0.06322 0.5896 0.05061 0.0
H364 H 0.08843 0.43662 0.04924 0.0
H365 H 0.98079 0.37028 0.0498 0.0
C366 C 0.89767 0.40359 0.05041 0.0
C367 C 0.85889 0.42714 0.05063 0.0
C368 C 0.95963 0.44146 0.05044 0.0
C369 C 0.88323 0.48933 0.05108 0.0
C370 C 0.94485 0.52729 0.05115 0.0
C371 C 0.04536 0.54174 0.05047 0.0
C372 C 0.08416 0.51827 0.04985 0.0
C373 C 0.98343 0.50384 0.05074 0.0
C374 C 0.05985 0.45605 0.04971 0.0
C375 C -0.00177 0.41804 0.05001 0.0
H376 H 0.46538 0.08419 0.38086 0.0
H377 H 0.64137 0.1053 0.37971 0.0
H378 H 0.59834 -0.00293 0.38011 0.0
H379 H 0.511 0.89664 0.38067 0.0
H380 H 0.335 0.87556 0.38155 0.0
H381 H 0.37806 0.98379 0.3814 0.0
C382 C 0.4945 0.06528 0.3807 0.0
C383 C 0.55669 0.10313 0.38026 0.0
C384 C 0.46947 0.00299 0.3809 0.0
C385 C 0.59346 0.07749 0.38004 0.0
C386 C 0.56885 0.01552 0.38028 0.0
C387 C 0.4819 0.91556 0.38087 0.0
C388 C 0.41969 0.87772 0.38114 0.0
C389 C 0.50694 0.97787 0.3807 0.0
C390 C 0.38293 0.90337 0.38134 0.0
C391 C 0.40755 0.96534 0.38125 0.0
H392 H 0.46484 0.3959 0.71447 0.0
H393 H 0.63668 0.55458 0.71893 0.0
H394 H 0.59003 0.61626 0.71887 0.0
H395 H 0.50045 0.62607 0.71713 0.0
H396 H 0.32864 0.46725 0.71281 0.0
H397 H 0.37523 0.40556 0.71322 0.0
C398 C 0.4921 0.44392 0.7155 0.0
C399 C 0.55428 0.4702 0.71668 0.0
C400 C 0.46499 0.47956 0.71543 0.0
C401 C 0.58872 0.53274 0.71799 0.0
C402 C 0.56209 0.56831 0.71794 0.0
C403 C 0.47319 0.57799 0.71628 0.0
C404 C 0.41105 0.55169 0.71492 0.0
C405 C 0.50027 0.54232 0.71657 0.0
C406 C 0.37657 0.4891 0.71389 0.0
C407 C 0.40316 0.45352 0.71411 0.0
H408 H 0.59657 0.06521 0.55158 0.0
H409 H 0.44294 0.0888 0.55158 0.0
H410 H 0.37758 0.98074 0.55133 0.0
H411 H 0.36403 0.87986 0.55148 0.0
H412 H 0.51765 0.85624 0.55185 0.0
H413 H 0.58302 0.9643 0.55158 0.0
C414 C 0.54878 0.04688 0.55148 0.0
C415 C 0.52482 0.08534 0.55159 0.0
C416 C 0.51144 0.98471 0.55143 0.0
C417 C 0.46272 0.06047 0.5515 0.0
C418 C 0.42528 -0.00138 0.55136 0.0
C419 C 0.41182 0.89818 0.55146 0.0
C420 C 0.43578 0.85971 0.55168 0.0
C421 C 0.44916 0.96035 0.55138 0.0
C422 C 0.49787 0.88457 0.55169 0.0
C423 C 0.53532 0.94643 0.55154 0.0
H424 H 0.38413 0.46498 0.88461 0.0
H425 H 0.54113 0.63712 0.87785 0.0
H426 H 0.60322 0.59099 0.87808 0.0
H427 H 0.61399 0.50198 0.88087 0.0
H428 H 0.45692 0.32982 0.88754 0.0
H429 H 0.39466 0.37571 0.8867 0.0
C430 C 0.43185 0.49238 0.88307 0.0
C431 C 0.45759 0.55452 0.88126 0.0
C432 C 0.46775 0.46559 0.88329 0.0
C433 C 0.51974 0.58919 0.87932 0.0
C434 C 0.55555 0.56287 0.87947 0.0
C435 C 0.56617 0.47449 0.88215 0.0
C436 C 0.54053 0.41249 0.88431 0.0
C437 C 0.53017 0.50115 0.8816 0.0
C438 C 0.47825 0.37767 0.88585 0.0
C439 C 0.44235 0.40386 0.88537 0.0
H440 H 0.07804 0.48719 0.21722 0.0
H441 H 0.10188 0.66451 0.22039 0.0
H442 H -0.00567 0.62315 0.21989 0.0
H443 H 0.89353 0.53679 0.21879 0.0
H444 H 0.86981 0.3595 0.21563 0.0
H445 H 0.97735 0.40094 0.21585 0.0
C446 C 0.05984 0.51691 0.2178 0.0
C447 C 0.09821 0.57894 0.21886 0.0
C448 C -0.0021 0.49287 0.2175 0.0
C449 C 0.07358 0.61662 0.21957 0.0
C450 C 0.01199 0.593 0.21929 0.0
C451 C 0.91178 0.50712 0.21811 0.0
C452 C 0.87342 0.44503 0.2172 0.0
C453 C 0.97374 0.53121 0.21828 0.0
C454 C 0.89809 0.40742 0.21634 0.0
C455 C 0.95967 0.43108 0.21648 0.0
H456 H 0.59114 0.50677 0.03973 0.0
H457 H 0.44909 0.32447 0.04397 0.0
H458 H 0.37565 0.35702 0.04264 0.0
H459 H 0.35122 0.43754 0.04113 0.0
H460 H 0.4933 0.62005 0.03773 0.0
H461 H 0.56665 0.58719 0.03777 0.0
C462 C 0.54413 0.4742 0.04029 0.0
C463 C 0.52584 0.41333 0.04199 0.0
C464 C 0.50184 0.49324 0.03967 0.0
C465 C 0.46461 0.3717 0.04273 0.0
C466 C 0.42241 0.39022 0.04195 0.0
C467 C 0.3982 0.47004 0.04027 0.0
C468 C 0.4166 0.53112 0.03944 0.0
C469 C 0.44044 0.45091 0.04054 0.0
C470 C 0.47777 0.5727 0.03844 0.0
C471 C 0.51989 0.55399 0.03847 0.0
H472 H 0.90381 0.3713 0.36805 0.0
H473 H 0.86273 0.51336 0.37202 0.0
H474 H 0.96818 0.58725 0.371 0.0
H475 H 0.07284 0.6119 0.37043 0.0
H476 H 0.11409 0.46974 0.36758 0.0
H477 H 0.0085 0.39612 0.3666 0.0
C478 C 0.91797 0.41842 0.36855 0.0
C479 C 0.87539 0.43662 0.37017 0.0
C480 C 0.97898 0.46093 0.36821 0.0
C481 C 0.89454 0.49796 0.37087 0.0
C482 C 0.95493 0.5404 0.37028 0.0
C483 C 0.05867 0.56487 0.36943 0.0
C484 C 0.10132 0.54646 0.36913 0.0
C485 C -0.00235 0.52246 0.36916 0.0
C486 C 0.0822 0.48522 0.36793 0.0
C487 C 0.02174 0.44296 0.36736 0.0
H488 H 0.58891 0.1177 0.70283 0.0
H489 H 0.41695 0.10578 0.7046 0.0
H490 H 0.36856 -0.00316 0.70452 0.0
H491 H 0.37536 0.90527 0.70523 0.0
H492 H 0.54728 0.91722 0.70307 0.0
H493 H 0.5955 0.02609 0.70197 0.0
C494 C 0.54079 0.09134 0.70312 0.0
C495 C 0.50659 0.11997 0.70384 0.0
C496 C 0.51334 0.02879 0.70306 0.0
C497 C 0.44432 0.08501 0.70405 0.0
C498 C 0.41666 0.02269 0.70406 0.0
C499 C 0.42341 0.93163 0.70446 0.0
C500 C 0.45771 0.90305 0.70437 0.0
C501 C 0.45075 -0.00585 0.70378 0.0
C502 C 0.51984 0.93797 0.70319 0.0
C503 C 0.54742 0.00025 0.7026 0.0
H504 H 0.51393 0.59192 0.56581 0.0
H505 H 0.33179 0.44939 0.56339 0.0
H506 H 0.36428 0.37571 0.56453 0.0
H507 H 0.44473 0.35133 0.56462 0.0
H508 H 0.62699 0.49394 0.56602 0.0
H509 H 0.59424 0.56744 0.56699 0.0
C510 C 0.48139 0.54475 0.56569 0.0
C511 C 0.4206 0.52634 0.56444 0.0
C512 C 0.5004 0.50236 0.5661 0.0
C513 C 0.37896 0.46494 0.56424 0.0
C514 C 0.39745 0.42262 0.5649 0.0
C515 C 0.4772 0.39845 0.56531 0.0
C516 C 0.53816 0.417 0.56517 0.0
C517 C 0.4581 0.44076 0.56559 0.0
C518 C 0.57972 0.47833 0.566 0.0
C519 C 0.56107 0.52053 0.56655 0.0
H520 H 0.1063 0.58978 0.89615 0.0
H521 H 0.09265 0.41676 0.89303 0.0
H522 H 0.98411 0.36916 0.89309 0.0
H523 H 0.89341 0.37699 0.89292 0.0
H524 H 0.90694 0.54989 0.89639 0.0
H525 H 0.01545 0.5973 0.89735 0.0
C526 C 0.07965 0.54159 0.89557 0.0
C527 C 0.1077 0.50688 0.8945 0.0
C528 C 0.0173 0.51459 0.89561 0.0
C529 C 0.07234 0.44453 0.89387 0.0
C530 C 0.01025 0.41732 0.89385 0.0
C531 C 0.92002 0.42509 0.89393 0.0
C532 C 0.89198 0.4599 0.89447 0.0
C533 C 0.9823 0.45195 0.89453 0.0
C534 C 0.92726 0.52206 0.89594 0.0
C535 C -0.01068 0.54917 0.89645 0.0
H536 H 0.49094 0.9066 0.22661 0.0
H537 H 0.32918 0.9152 0.2298 0.0
H538 H 0.38704 0.02412 0.22988 0.0
H539 H 0.48319 0.11659 0.22787 0.0
H540 H 0.64504 0.10802 0.2252 0.0
H541 H 0.58738 -0.00088 0.22616 0.0
C542 C 0.46831 0.93228 0.2274 0.0
C543 C 0.40581 0.90286 0.22807 0.0
C544 C 0.50183 -0.00523 0.22748 0.0
C545 C 0.37722 0.93676 0.22925 0.0
C546 C 0.41026 -0.00098 0.22925 0.0
C547 C 0.5059 0.09091 0.22755 0.0
C548 C 0.56829 0.12031 0.22633 0.0
C549 C 0.47252 0.02845 0.22818 0.0
C550 C 0.59707 0.08645 0.22611 0.0
C551 C 0.56412 0.02421 0.22662 0.0
loop_
_geom_bond_atom_site_label_1
_geom_bond_atom_site_label_2
_geom_bond_distance
_geom_bond_site_symmetry_2
_ccdc_geom_bond_type
C0 O1 1.306 . S
C0 O3 1.160 . S
O1 C0 1.306 . S
O1 Cd2 2.228 . S
Cd2 O1 2.228 . S
Cd2 O6 2.273 . S
Cd2 O10 2.277 . S
O3 C0 1.160 . S
O3 Cd4 2.203 . S
Cd4 O3 2.203 . S
Cd4 O6 2.411 . S
Cd4 O7 2.333 . S
Cd4 O8 2.352 . S
Cd4 O12 2.277 . S
Cd4 O13 2.356 . S
C5 O10 1.209 . S
C5 O12 1.226 . S
O6 Cd2 2.273 . S
O6 Cd4 2.411 . S
O6 C9 1.320 . S
O7 Cd4 2.333 . S
O7 C9 1.214 . S
O8 Cd4 2.352 . S
O8 C11 1.258 . S
C9 O6 1.320 . S
C9 O7 1.214 . S
O10 Cd2 2.277 . S
O10 C5 1.209 . S
C11 O8 1.258 . S
C11 O13 1.282 . S
O12 Cd4 2.277 . S
O12 C5 1.226 . S
O13 Cd4 2.356 . S
O13 C11 1.282 . S
C14 O15 1.306 . S
C14 O17 1.160 . S
O15 C14 1.306 . S
O15 Cd16 2.228 . S
Cd16 O15 2.228 . S
Cd16 O20 2.273 . S
Cd16 O24 2.277 . S
O17 C14 1.160 . S
O17 Cd18 2.203 . S
Cd18 O17 2.203 . S
Cd18 O20 2.411 . S
Cd18 O21 2.333 . S
Cd18 O22 2.352 . S
Cd18 O26 2.277 . S
Cd18 O27 2.356 . S
C19 O24 1.209 . S
C19 O26 1.226 . S
O20 Cd16 2.273 . S
O20 Cd18 2.411 . S
O20 C23 1.320 . S
O21 Cd18 2.333 . S
O21 C23 1.214 . S
O22 Cd18 2.352 . S
O22 C25 1.258 . S
C23 O20 1.320 . S
C23 O21 1.214 . S
O24 Cd16 2.277 . S
O24 C19 1.209 . S
C25 O22 1.258 . S
C25 O27 1.282 . S
O26 Cd18 2.277 . S
O26 C19 1.226 . S
O27 Cd18 2.356 . S
O27 C25 1.282 . S
C28 O29 1.306 . S
C28 O31 1.160 . S
O29 C28 1.306 . S
O29 Cd30 2.228 . S
Cd30 O29 2.228 . S
Cd30 O34 2.273 . S
Cd30 O38 2.277 . S
O31 C28 1.160 . S
O31 Cd32 2.203 . S
Cd32 O31 2.203 . S
Cd32 O34 2.411 . S
Cd32 O35 2.333 . S
Cd32 O36 2.352 . S
Cd32 O40 2.277 . S
Cd32 O41 2.356 . S
C33 O38 1.209 . S
C33 O40 1.226 . S
O34 Cd30 2.273 . S
O34 Cd32 2.411 . S
O34 C37 1.320 . S
O35 Cd32 2.333 . S
O35 C37 1.214 . S
O36 Cd32 2.352 . S
O36 C39 1.258 . S
C37 O34 1.320 . S
C37 O35 1.214 . S
O38 Cd30 2.277 . S
O38 C33 1.209 . S
C39 O36 1.258 . S
C39 O41 1.282 . S
O40 Cd32 2.277 . S
O40 C33 1.226 . S
O41 Cd32 2.356 . S
O41 C39 1.282 . S
C42 O43 1.306 . S
C42 O45 1.160 . S
O43 C42 1.306 . S
O43 Cd44 2.228 . S
Cd44 O43 2.228 . S
Cd44 O48 2.273 . S
Cd44 O52 2.277 . S
O45 C42 1.160 . S
O45 Cd46 2.203 . S
Cd46 O45 2.203 . S
Cd46 O48 2.411 . S
Cd46 O49 2.333 . S
Cd46 O50 2.352 . S
Cd46 O54 2.277 . S
Cd46 O55 2.356 . S
C47 O52 1.209 . S
C47 O54 1.226 . S
O48 Cd44 2.273 . S
O48 Cd46 2.411 . S
O48 C51 1.320 . S
O49 Cd46 2.333 . S
O49 C51 1.214 . S
O50 Cd46 2.352 . S
O50 C53 1.258 . S
C51 O48 1.320 . S
C51 O49 1.214 . S
O52 Cd44 2.277 . S
O52 C47 1.209 . S
C53 O50 1.258 . S
C53 O55 1.282 . S
O54 Cd46 2.277 . S
O54 C47 1.226 . S
O55 Cd46 2.356 . S
O55 C53 1.282 . S
C56 O57 1.306 . S
C56 O59 1.160 . S
O57 C56 1.306 . S
O57 Cd58 2.228 . S
Cd58 O57 2.228 . S
Cd58 O62 2.273 . S
Cd58 O66 2.277 . S
O59 C56 1.160 . S
O59 Cd60 2.203 . S
Cd60 O59 2.203 . S
Cd60 O62 2.411 . S
Cd60 O63 2.333 . S
Cd60 O64 2.352 . S
Cd60 O68 2.277 . S
Cd60 O69 2.356 . S
C61 O66 1.209 . S
C61 O68 1.226 . S
O62 Cd58 2.273 . S
O62 Cd60 2.411 . S
O62 C65 1.320 . S
O63 Cd60 2.333 . S
O63 C65 1.214 . S
O64 Cd60 2.352 . S
O64 C67 1.258 . S
C65 O62 1.320 . S
C65 O63 1.214 . S
O66 Cd58 2.277 . S
O66 C61 1.209 . S
C67 O64 1.258 . S
C67 O69 1.282 . S
O68 Cd60 2.277 . S
O68 C61 1.226 . S
O69 Cd60 2.356 . S
O69 C67 1.282 . S
C70 O71 1.306 . S
C70 O73 1.160 . S
O71 C70 1.306 . S
O71 Cd72 2.228 . S
Cd72 O71 2.228 . S
Cd72 O76 2.273 . S
Cd72 O80 2.277 . S
O73 C70 1.160 . S
O73 Cd74 2.203 . S
Cd74 O73 2.203 . S
Cd74 O76 2.411 . S
Cd74 O77 2.333 . S
Cd74 O78 2.352 . S
Cd74 O82 2.277 . S
Cd74 O83 2.356 . S
C75 O80 1.209 . S
C75 O82 1.226 . S
O76 Cd72 2.273 . S
O76 Cd74 2.411 . S
O76 C79 1.320 . S
O77 Cd74 2.333 . S
O77 C79 1.214 . S
O78 Cd74 2.352 . S
O78 C81 1.258 . S
C79 O76 1.320 . S
C79 O77 1.214 . S
O80 Cd72 2.277 . S
O80 C75 1.209 . S
C81 O78 1.258 . S
C81 O83 1.282 . S
O82 Cd74 2.277 . S
O82 C75 1.226 . S
O83 Cd74 2.356 . S
O83 C81 1.282 . S
C84 O85 1.306 . S
C84 O87 1.160 . S
O85 C84 1.306 . S
O85 Cd86 2.228 . S
Cd86 O85 2.228 . S
Cd86 O90 2.273 . S
Cd86 O94 2.277 . S
O87 C84 1.160 . S
O87 Cd88 2.203 . S
Cd88 O87 2.203 . S
Cd88 O90 2.411 . S
Cd88 O91 2.333 . S
Cd88 O92 2.352 . S
Cd88 O96 2.277 . S
Cd88 O97 2.356 . S
C89 O94 1.209 . S
C89 O96 1.226 . S
O90 Cd86 2.273 . S
O90 Cd88 2.411 . S
O90 C93 1.320 . S
O91 Cd88 2.333 . S
O91 C93 1.214 . S
O92 Cd88 2.352 . S
O92 C95 1.258 . S
C93 O90 1.320 . S
C93 O91 1.214 . S
O94 Cd86 2.277 . S
O94 C89 1.209 . S
C95 O92 1.258 . S
C95 O97 1.282 . S
O96 Cd88 2.277 . S
O96 C89 1.226 . S
O97 Cd88 2.356 . S
O97 C95 1.282 . S
C98 O99 1.306 . S
C98 O101 1.160 . S
O99 C98 1.306 . S
O99 Cd100 2.228 . S
Cd100 O99 2.228 . S
Cd100 O104 2.273 . S
Cd100 O108 2.277 . S
O101 C98 1.160 . S
O101 Cd102 2.203 . S
Cd102 O101 2.203 . S
Cd102 O104 2.411 . S
Cd102 O105 2.333 . S
Cd102 O106 2.352 . S
Cd102 O110 2.277 . S
Cd102 O111 2.356 . S
C103 O108 1.209 . S
C103 O110 1.226 . S
O104 Cd100 2.273 . S
O104 Cd102 2.411 . S
O104 C107 1.320 . S
O105 Cd102 2.333 . S
O105 C107 1.214 . S
O106 Cd102 2.352 . S
O106 C109 1.258 . S
C107 O104 1.320 . S
C107 O105 1.214 . S
O108 Cd100 2.277 . S
O108 C103 1.209 . S
C109 O106 1.258 . S
C109 O111 1.282 . S
O110 Cd102 2.277 . S
O110 C103 1.226 . S
O111 Cd102 2.356 . S
O111 C109 1.282 . S
C112 O113 1.306 . S
C112 O115 1.160 . S
O113 C112 1.306 . S
O113 Cd114 2.228 . S
Cd114 O113 2.228 . S
Cd114 O118 2.273 . S
Cd114 O122 2.277 . S
O115 C112 1.160 . S
O115 Cd116 2.203 . S
Cd116 O115 2.203 . S
Cd116 O118 2.411 . S
Cd116 O119 2.333 . S
Cd116 O120 2.352 . S
Cd116 O124 2.277 . S
Cd116 O125 2.356 . S
C117 O122 1.209 . S
C117 O124 1.226 . S
O118 Cd114 2.273 . S
O118 Cd116 2.411 . S
O118 C121 1.320 . S
O119 Cd116 2.333 . S
O119 C121 1.214 . S
O120 Cd116 2.352 . S
O120 C123 1.258 . S
C121 O118 1.320 . S
C121 O119 1.214 . S
O122 Cd114 2.277 . S
O122 C117 1.209 . S
C123 O120 1.258 . S
C123 O125 1.282 . S
O124 Cd116 2.277 . S
O124 C117 1.226 . S
O125 Cd116 2.356 . S
O125 C123 1.282 . S
C126 O127 1.306 . S
C126 O129 1.160 . S
O127 C126 1.306 . S
O127 Cd128 2.228 . S
Cd128 O127 2.228 . S
Cd128 O132 2.273 . S
Cd128 O136 2.277 . S
O129 C126 1.160 . S
O129 Cd130 2.203 . S
Cd130 O129 2.203 . S
Cd130 O132 2.411 . S
Cd130 O133 2.333 . S
Cd130 O134 2.352 . S
Cd130 O138 2.277 . S
Cd130 O139 2.356 . S
C131 O136 1.209 . S
C131 O138 1.226 . S
O132 Cd128 2.273 . S
O132 Cd130 2.411 . S
O132 C135 1.320 . S
O133 Cd130 2.333 . S
O133 C135 1.214 . S
O134 Cd130 2.352 . S
O134 C137 1.258 . S
C135 O132 1.320 . S
C135 O133 1.214 . S
O136 Cd128 2.277 . S
O136 C131 1.209 . S
C137 O134 1.258 . S
C137 O139 1.282 . S
O138 Cd130 2.277 . S
O138 C131 1.226 . S
O139 Cd130 2.356 . S
O139 C137 1.282 . S
C140 O141 1.306 . S
C140 O143 1.160 . S
O141 C140 1.306 . S
O141 Cd142 2.228 . S
Cd142 O141 2.228 . S
Cd142 O146 2.273 . S
Cd142 O150 2.277 . S
O143 C140 1.160 . S
O143 Cd144 2.203 . S
Cd144 O143 2.203 . S
Cd144 O146 2.411 . S
Cd144 O147 2.333 . S
Cd144 O148 2.352 . S
Cd144 O152 2.277 . S
Cd144 O153 2.356 . S
C145 O150 1.209 . S
C145 O152 1.226 . S
O146 Cd142 2.273 . S
O146 Cd144 2.411 . S
O146 C149 1.320 . S
O147 Cd144 2.333 . S
O147 C149 1.214 . S
O148 Cd144 2.352 . S
O148 C151 1.258 . S
C149 O146 1.320 . S
C149 O147 1.214 . S
O150 Cd142 2.277 . S
O150 C145 1.209 . S
C151 O148 1.258 . S
C151 O153 1.282 . S
O152 Cd144 2.277 . S
O152 C145 1.226 . S
O153 Cd144 2.356 . S
O153 C151 1.282 . S
C154 O155 1.306 . S
C154 O157 1.160 . S
O155 C154 1.306 . S
O155 Cd156 2.228 . S
Cd156 O155 2.228 . S
Cd156 O160 2.273 . S
Cd156 O164 2.277 . S
O157 C154 1.160 . S
O157 Cd158 2.203 . S
Cd158 O157 2.203 . S
Cd158 O160 2.411 . S
Cd158 O161 2.333 . S
Cd158 O162 2.352 . S
Cd158 O166 2.277 . S
Cd158 O167 2.356 . S
C159 O164 1.209 . S
C159 O166 1.226 . S
O160 Cd156 2.273 . S
O160 Cd158 2.411 . S
O160 C163 1.320 . S
O161 Cd158 2.333 . S
O161 C163 1.214 . S
O162 Cd158 2.352 . S
O162 C165 1.258 . S
C163 O160 1.320 . S
C163 O161 1.214 . S
O164 Cd156 2.277 . S
O164 C159 1.209 . S
C165 O162 1.258 . S
C165 O167 1.282 . S
O166 Cd158 2.277 . S
O166 C159 1.226 . S
O167 Cd158 2.356 . S
O167 C165 1.282 . S
H168 C174 0.930 . S
H169 C177 0.930 . S
H170 C178 0.930 . S
H171 C179 0.930 . S
H172 C182 0.930 . S
H173 C183 0.930 . S
C174 H168 0.930 . S
C174 C175 1.355 . S
C174 C176 1.415 . S
C175 C174 1.355 . S
C175 C177 1.419 . S
C176 C174 1.415 . S
C176 C181 1.425 1_556 S
C176 C183 1.409 1_556 S
C177 H169 0.930 . S
C177 C175 1.419 . S
C177 C178 1.362 . S
C178 H170 0.930 . S
C178 C177 1.362 . S
C178 C181 1.409 1_556 S
C179 H171 0.930 . S
C179 C180 1.355 . S
C179 C181 1.415 . S
C180 C179 1.355 . S
C180 C182 1.419 . S
C181 C176 1.425 1_554 S
C181 C178 1.409 1_554 S
C181 C179 1.415 . S
C182 H172 0.930 . S
C182 C180 1.419 . S
C182 C183 1.362 . S
C183 H173 0.930 . S
C183 C176 1.409 1_554 S
C183 C182 1.362 . S
H184 C190 0.930 . S
H185 C193 0.930 . S
H186 C194 0.930 . S
H187 C195 0.930 . S
H188 C198 0.930 . S
H189 C199 0.930 . S
C190 H184 0.930 . S
C190 C191 1.355 . S
C190 C192 1.415 . S
C191 C190 1.355 . S
C191 C193 1.419 . S
C192 C190 1.415 . S
C192 C197 1.425 . S
C192 C199 1.409 . S
C193 H185 0.930 . S
C193 C191 1.419 . S
C193 C194 1.362 . S
C194 H186 0.930 . S
C194 C193 1.362 . S
C194 C197 1.409 . S
C195 H187 0.930 . S
C195 C196 1.355 . S
C195 C197 1.415 . S
C196 C195 1.355 . S
C196 C198 1.419 . S
C197 C192 1.425 . S
C197 C194 1.409 . S
C197 C195 1.415 . S
C198 H188 0.930 . S
C198 C196 1.419 . S
C198 C199 1.362 . S
C199 H189 0.930 . S
C199 C192 1.409 . S
C199 C198 1.362 . S
H200 C206 0.930 . S
H201 C209 0.930 . S
H202 C210 0.930 . S
H203 C211 0.930 . S
H204 C214 0.930 . S
H205 C215 0.930 . S
C206 H200 0.930 . S
C206 C207 1.355 . S
C206 C208 1.415 . S
C207 C206 1.355 . S
C207 C209 1.419 . S
C208 C206 1.415 . S
C208 C213 1.425 . S
C208 C215 1.409 . S
C209 H201 0.930 . S
C209 C207 1.419 . S
C209 C210 1.362 . S
C210 H202 0.930 . S
C210 C209 1.362 . S
C210 C213 1.409 . S
C211 H203 0.930 . S
C211 C212 1.355 . S
C211 C213 1.415 . S
C212 C211 1.355 . S
C212 C214 1.419 . S
C213 C208 1.425 . S
C213 C210 1.409 . S
C213 C211 1.415 . S
C214 H204 0.930 . S
C214 C212 1.419 . S
C214 C215 1.362 . S
C215 H205 0.930 . S
C215 C208 1.409 . S
C215 C214 1.362 . S
H216 C222 0.930 . S
H217 C225 0.930 . S
H218 C226 0.930 . S
H219 C227 0.930 . S
H220 C230 0.930 . S
H221 C231 0.930 . S
C222 H216 0.930 . S
C222 C223 1.355 . S
C222 C224 1.415 . S
C223 C222 1.355 . S
C223 C225 1.419 . S
C224 C222 1.415 . S
C224 C229 1.425 1_554 S
C224 C231 1.409 1_554 S
C225 H217 0.930 . S
C225 C223 1.419 . S
C225 C226 1.362 . S
C226 H218 0.930 . S
C226 C225 1.362 . S
C226 C229 1.409 1_554 S
C227 H219 0.930 . S
C227 C228 1.355 . S
C227 C229 1.415 . S
C228 C227 1.355 . S
C228 C230 1.419 . S
C229 C224 1.425 1_556 S
C229 C226 1.409 1_556 S
C229 C227 1.415 . S
C230 H220 0.930 . S
C230 C228 1.419 . S
C230 C231 1.362 . S
C231 H221 0.930 . S
C231 C224 1.409 1_556 S
C231 C230 1.362 . S
H232 C238 0.930 . S
H233 C241 0.930 . S
H234 C242 0.930 . S
H235 C243 0.930 . S
H236 C246 0.930 . S
H237 C247 0.930 . S
C238 H232 0.930 . S
C238 C239 1.355 . S
C238 C240 1.415 . S
C239 C238 1.355 . S
C239 C241 1.419 . S
C240 C238 1.415 . S
C240 C245 1.425 . S
C240 C247 1.409 . S
C241 H233 0.930 . S
C241 C239 1.419 . S
C241 C242 1.362 . S
C242 H234 0.930 . S
C242 C241 1.362 . S
C242 C245 1.409 . S
C243 H235 0.930 . S
C243 C244 1.355 . S
C243 C245 1.415 . S
C244 C243 1.355 . S
C244 C246 1.419 . S
C245 C240 1.425 . S
C245 C242 1.409 . S
C245 C243 1.415 . S
C246 H236 0.930 . S
C246 C244 1.419 . S
C246 C247 1.362 . S
C247 H237 0.930 . S
C247 C240 1.409 . S
C247 C246 1.362 . S
H248 C254 0.930 . S
H249 C257 0.930 . S
H250 C258 0.930 . S
H251 C259 0.930 . S
H252 C262 0.930 . S
H253 C263 0.930 . S
C254 H248 0.930 . S
C254 C255 1.355 . S
C254 C256 1.415 . S
C255 C254 1.355 . S
C255 C257 1.419 . S
C256 C254 1.415 . S
C256 C261 1.425 . S
C256 C263 1.409 . S
C257 H249 0.930 . S
C257 C255 1.419 . S
C257 C258 1.362 . S
C258 H250 0.930 . S
C258 C257 1.362 . S
C258 C261 1.409 . S
C259 H251 0.930 . S
C259 C260 1.355 . S
C259 C261 1.415 . S
C260 C259 1.355 . S
C260 C262 1.419 . S
C261 C256 1.425 . S
C261 C258 1.409 . S
C261 C259 1.415 . S
C262 H252 0.930 . S
C262 C260 1.419 . S
C262 C263 1.362 . S
C263 H253 0.930 . S
C263 C256 1.409 . S
C263 C262 1.362 . S
H264 C270 0.930 . S
H265 C273 0.930 . S
H266 C274 0.930 . S
H267 C275 0.930 . S
H268 C278 0.930 . S
H269 C279 0.930 . S
C270 H264 0.930 . S
C270 C271 1.355 . S
C270 C272 1.415 . S
C271 C270 1.355 . S
C271 C273 1.419 . S
C272 C270 1.415 . S
C272 C277 1.425 . S
C272 C279 1.409 . S
C273 H265 0.930 . S
C273 C271 1.419 . S
C273 C274 1.362 . S
C274 H266 0.930 . S
C274 C273 1.362 . S
C274 C277 1.409 . S
C275 H267 0.930 . S
C275 C276 1.355 . S
C275 C277 1.415 . S
C276 C275 1.355 . S
C276 C278 1.419 . S
C277 C272 1.425 . S
C277 C274 1.409 . S
C277 C275 1.415 . S
C278 H268 0.930 . S
C278 C276 1.419 . S
C278 C279 1.362 . S
C279 H269 0.930 . S
C279 C272 1.409 . S
C279 C278 1.362 . S
H280 C286 0.930 . S
H281 C289 0.930 . S
H282 C290 0.930 . S
H283 C291 0.930 . S
H284 C294 0.930 . S
H285 C295 0.930 . S
C286 H280 0.930 . S
C286 C287 1.355 . S
C286 C288 1.415 . S
C287 C286 1.355 . S
C287 C289 1.419 . S
C288 C286 1.415 . S
C288 C293 1.425 . S
C288 C295 1.409 . S
C289 H281 0.930 . S
C289 C287 1.419 . S
C289 C290 1.362 . S
C290 H282 0.930 . S
C290 C289 1.362 . S
C290 C293 1.409 . S
C291 H283 0.930 . S
C291 C292 1.355 . S
C291 C293 1.415 . S
C292 C291 1.355 . S
C292 C294 1.419 . S
C293 C288 1.425 . S
C293 C290 1.409 . S
C293 C291 1.415 . S
C294 H284 0.930 . S
C294 C292 1.419 . S
C294 C295 1.362 . S
C295 H285 0.930 . S
C295 C288 1.409 . S
C295 C294 1.362 . S
H296 C302 0.930 . S
H297 C305 0.930 . S
H298 C306 0.930 . S
H299 C307 0.930 . S
H300 C310 0.930 . S
H301 C311 0.930 . S
C302 H296 0.930 . S
C302 C303 1.355 . S
C302 C304 1.415 . S
C303 C302 1.355 . S
C303 C305 1.419 . S
C304 C302 1.415 . S
C304 C309 1.425 . S
C304 C311 1.409 . S
C305 H297 0.930 . S
C305 C303 1.419 . S
C305 C306 1.362 . S
C306 H298 0.930 . S
C306 C305 1.362 . S
C306 C309 1.409 . S
C307 H299 0.930 . S
C307 C308 1.355 . S
C307 C309 1.415 . S
C308 C307 1.355 . S
C308 C310 1.419 . S
C309 C304 1.425 . S
C309 C306 1.409 . S
C309 C307 1.415 . S
C310 H300 0.930 . S
C310 C308 1.419 . S
C310 C311 1.362 . S
C311 H301 0.930 . S
C311 C304 1.409 . S
C311 C310 1.362 . S
H312 C318 0.930 . S
H313 C321 0.930 . S
H314 C322 0.930 . S
H315 C323 0.930 . S
H316 C326 0.930 . S
H317 C327 0.930 . S
C318 H312 0.930 . S
C318 C319 1.355 . S
C318 C320 1.415 . S
C319 C318 1.355 . S
C319 C321 1.419 . S
C320 C318 1.415 . S
C320 C325 1.425 . S
C320 C327 1.409 . S
C321 H313 0.930 . S
C321 C319 1.419 . S
C321 C322 1.362 . S
C322 H314 0.930 . S
C322 C321 1.362 . S
C322 C325 1.409 . S
C323 H315 0.930 . S
C323 C324 1.355 . S
C323 C325 1.415 . S
C324 C323 1.355 . S
C324 C326 1.419 . S
C325 C320 1.425 . S
C325 C322 1.409 . S
C325 C323 1.415 . S
C326 H316 0.930 . S
C326 C324 1.419 . S
C326 C327 1.362 . S
C327 H317 0.930 . S
C327 C320 1.409 . S
C327 C326 1.362 . S
H328 C334 0.930 . S
H329 C337 0.930 . S
H330 C338 0.930 . S
H331 C339 0.930 . S
H332 C342 0.930 . S
H333 C343 0.930 . S
C334 H328 0.930 . S
C334 C335 1.355 . S
C334 C336 1.415 . S
C335 C334 1.355 . S
C335 C337 1.419 . S
C336 C334 1.415 . S
C336 C341 1.425 . S
C336 C343 1.409 . S
C337 H329 0.930 . S
C337 C335 1.419 . S
C337 C338 1.362 . S
C338 H330 0.930 . S
C338 C337 1.362 . S
C338 C341 1.409 . S
C339 H331 0.930 . S
C339 C340 1.355 . S
C339 C341 1.415 . S
C340 C339 1.355 . S
C340 C342 1.419 . S
C341 C336 1.425 . S
C341 C338 1.409 . S
C341 C339 1.415 . S
C342 H332 0.930 . S
C342 C340 1.419 . S
C342 C343 1.362 . S
C343 H333 0.930 . S
C343 C336 1.409 . S
C343 C342 1.362 . S
H344 C350 0.930 . S
H345 C353 0.930 . S
H346 C354 0.930 . S
H347 C355 0.930 . S
H348 C358 0.930 . S
H349 C359 0.930 . S
C350 H344 0.930 . S
C350 C351 1.355 . S
C350 C352 1.415 . S
C351 C350 1.355 . S
C351 C353 1.419 . S
C352 C350 1.415 . S
C352 C357 1.425 . S
C352 C359 1.409 . S
C353 H345 0.930 . S
C353 C351 1.419 . S
C353 C354 1.362 . S
C354 H346 0.930 . S
C354 C353 1.362 . S
C354 C357 1.409 . S
C355 H347 0.930 . S
C355 C356 1.355 . S
C355 C357 1.415 . S
C356 C355 1.355 . S
C356 C358 1.419 . S
C357 C352 1.425 . S
C357 C354 1.409 . S
C357 C355 1.415 . S
C358 H348 0.930 . S
C358 C356 1.419 . S
C358 C359 1.362 . S
C359 H349 0.930 . S
C359 C352 1.409 . S
C359 C358 1.362 . S
H360 C366 0.930 . S
H361 C369 0.930 . S
H362 C370 0.930 1_455 S
H363 C371 0.930 . S
H364 C374 0.930 . S
H365 C375 0.930 1_655 S
C366 H360 0.930 . S
C366 C367 1.355 . S
C366 C368 1.415 . S
C367 C366 1.355 . S
C367 C369 1.419 . S
C368 C366 1.415 . S
C368 C373 1.425 1_655 S
C368 C375 1.409 1_655 S
C369 H361 0.930 . S
C369 C367 1.419 . S
C369 C370 1.362 . S
C370 H362 0.930 1_655 S
C370 C369 1.362 . S
C370 C373 1.409 1_655 S
C371 H363 0.930 . S
C371 C372 1.355 . S
C371 C373 1.415 . S
C372 C371 1.355 . S
C372 C374 1.419 . S
C373 C368 1.425 1_455 S
C373 C370 1.409 1_455 S
C373 C371 1.415 . S
C374 H364 0.930 . S
C374 C372 1.419 . S
C374 C375 1.362 . S
C375 H365 0.930 1_455 S
C375 C368 1.409 1_455 S
C375 C374 1.362 . S
H376 C382 0.930 . S
H377 C385 0.930 . S
H378 C386 0.930 1_565 S
H379 C387 0.930 . S
H380 C390 0.930 . S
H381 C391 0.930 1_545 S
C382 H376 0.930 . S
C382 C383 1.355 . S
C382 C384 1.415 . S
C383 C382 1.355 . S
C383 C385 1.419 . S
C384 C382 1.415 . S
C384 C389 1.425 1_545 S
C384 C391 1.409 1_545 S
C385 H377 0.930 . S
C385 C383 1.419 . S
C385 C386 1.362 . S
C386 H378 0.930 1_545 S
C386 C385 1.362 . S
C386 C389 1.409 1_545 S
C387 H379 0.930 . S
C387 C388 1.355 . S
C387 C389 1.415 . S
C388 C387 1.355 . S
C388 C390 1.419 . S
C389 C384 1.425 1_565 S
C389 C386 1.409 1_565 S
C389 C387 1.415 . S
C390 H380 0.930 . S
C390 C388 1.419 . S
C390 C391 1.362 . S
C391 H381 0.930 1_565 S
C391 C384 1.409 1_565 S
C391 C390 1.362 . S
H392 C398 0.930 . S
H393 C401 0.930 . S
H394 C402 0.930 . S
H395 C403 0.930 . S
H396 C406 0.930 . S
H397 C407 0.930 . S
C398 H392 0.930 . S
C398 C399 1.355 . S
C398 C400 1.415 . S
C399 C398 1.355 . S
C399 C401 1.419 . S
C400 C398 1.415 . S
C400 C405 1.425 . S
C400 C407 1.409 . S
C401 H393 0.930 . S
C401 C399 1.419 . S
C401 C402 1.362 . S
C402 H394 0.930 . S
C402 C401 1.362 . S
C402 C405 1.409 . S
C403 H395 0.930 . S
C403 C404 1.355 . S
C403 C405 1.415 . S
C404 C403 1.355 . S
C404 C406 1.419 . S
C405 C400 1.425 . S
C405 C402 1.409 . S
C405 C403 1.415 . S
C406 H396 0.930 . S
C406 C404 1.419 . S
C406 C407 1.362 . S
C407 H397 0.930 . S
C407 C400 1.409 . S
C407 C406 1.362 . S
H408 C414 0.930 . S
H409 C417 0.930 . S
H410 C418 0.930 . S
H411 C419 0.930 . S
H412 C422 0.930 . S
H413 C423 0.930 . S
C414 H408 0.930 . S
C414 C415 1.355 . S
C414 C416 1.415 . S
C415 C414 1.355 . S
C415 C417 1.419 . S
C416 C414 1.415 . S
C416 C421 1.425 1_545 S
C416 C423 1.409 1_545 S
C417 H409 0.930 . S
C417 C415 1.419 . S
C417 C418 1.362 . S
C418 H410 0.930 . S
C418 C417 1.362 . S
C418 C421 1.409 1_545 S
C419 H411 0.930 . S
C419 C420 1.355 . S
C419 C421 1.415 . S
C420 C419 1.355 . S
C420 C422 1.419 . S
C421 C416 1.425 1_565 S
C421 C418 1.409 1_565 S
C421 C419 1.415 . S
C422 H412 0.930 . S
C422 C420 1.419 . S
C422 C423 1.362 . S
C423 H413 0.930 . S
C423 C416 1.409 1_565 S
C423 C422 1.362 . S
H424 C430 0.930 . S
H425 C433 0.930 . S
H426 C434 0.930 . S
H427 C435 0.930 . S
H428 C438 0.930 . S
H429 C439 0.930 . S
C430 H424 0.930 . S
C430 C431 1.355 . S
C430 C432 1.415 . S
C431 C430 1.355 . S
C431 C433 1.419 . S
C432 C430 1.415 . S
C432 C437 1.425 . S
C432 C439 1.409 . S
C433 H425 0.930 . S
C433 C431 1.419 . S
C433 C434 1.362 . S
C434 H426 0.930 . S
C434 C433 1.362 . S
C434 C437 1.409 . S
C435 H427 0.930 . S
C435 C436 1.355 . S
C435 C437 1.415 . S
C436 C435 1.355 . S
C436 C438 1.419 . S
C437 C432 1.425 . S
C437 C434 1.409 . S
C437 C435 1.415 . S
C438 H428 0.930 . S
C438 C436 1.419 . S
C438 C439 1.362 . S
C439 H429 0.930 . S
C439 C432 1.409 . S
C439 C438 1.362 . S
H440 C446 0.930 . S
H441 C449 0.930 . S
H442 C450 0.930 1_655 S
H443 C451 0.930 . S
H444 C454 0.930 . S
H445 C455 0.930 1_455 S
C446 H440 0.930 . S
C446 C447 1.355 . S
C446 C448 1.415 . S
C447 C446 1.355 . S
C447 C449 1.419 . S
C448 C446 1.415 . S
C448 C453 1.425 1_455 S
C448 C455 1.409 1_455 S
C449 H441 0.930 . S
C449 C447 1.419 . S
C449 C450 1.362 . S
C450 H442 0.930 1_455 S
C450 C449 1.362 . S
C450 C453 1.409 1_455 S
C451 H443 0.930 . S
C451 C452 1.355 . S
C451 C453 1.415 . S
C452 C451 1.355 . S
C452 C454 1.419 . S
C453 C448 1.425 1_655 S
C453 C450 1.409 1_655 S
C453 C451 1.415 . S
C454 H444 0.930 . S
C454 C452 1.419 . S
C454 C455 1.362 . S
C455 H445 0.930 1_655 S
C455 C448 1.409 1_655 S
C455 C454 1.362 . S
H456 C462 0.930 . S
H457 C465 0.930 . S
H458 C466 0.930 . S
H459 C467 0.930 . S
H460 C470 0.930 . S
H461 C471 0.930 . S
C462 H456 0.930 . S
C462 C463 1.355 . S
C462 C464 1.415 . S
C463 C462 1.355 . S
C463 C465 1.419 . S
C464 C462 1.415 . S
C464 C469 1.425 . S
C464 C471 1.409 . S
C465 H457 0.930 . S
C465 C463 1.419 . S
C465 C466 1.362 . S
C466 H458 0.930 . S
C466 C465 1.362 . S
C466 C469 1.409 . S
C467 H459 0.930 . S
C467 C468 1.355 . S
C467 C469 1.415 . S
C468 C467 1.355 . S
C468 C470 1.419 . S
C469 C464 1.425 . S
C469 C466 1.409 . S
C469 C467 1.415 . S
C470 H460 0.930 . S
C470 C468 1.419 . S
C470 C471 1.362 . S
C471 H461 0.930 . S
C471 C464 1.409 . S
C471 C470 1.362 . S
H472 C478 0.930 . S
H473 C481 0.930 . S
H474 C482 0.930 . S
H475 C483 0.930 . S
H476 C486 0.930 . S
H477 C487 0.930 . S
C478 H472 0.930 . S
C478 C479 1.355 . S
C478 C480 1.415 . S
C479 C478 1.355 . S
C479 C481 1.419 . S
C480 C478 1.415 . S
C480 C485 1.425 1_655 S
C480 C487 1.409 1_655 S
C481 H473 0.930 . S
C481 C479 1.419 . S
C481 C482 1.362 . S
C482 H474 0.930 . S
C482 C481 1.362 . S
C482 C485 1.409 1_655 S
C483 H475 0.930 . S
C483 C484 1.355 . S
C483 C485 1.415 . S
C484 C483 1.355 . S
C484 C486 1.419 . S
C485 C480 1.425 1_455 S
C485 C482 1.409 1_455 S
C485 C483 1.415 . S
C486 H476 0.930 . S
C486 C484 1.419 . S
C486 C487 1.362 . S
C487 H477 0.930 . S
C487 C480 1.409 1_455 S
C487 C486 1.362 . S
H488 C494 0.930 . S
H489 C497 0.930 . S
H490 C498 0.930 1_565 S
H491 C499 0.930 . S
H492 C502 0.930 . S
H493 C503 0.930 1_545 S
C494 H488 0.930 . S
C494 C495 1.355 . S
C494 C496 1.415 . S
C495 C494 1.355 . S
C495 C497 1.419 . S
C496 C494 1.415 . S
C496 C501 1.425 1_545 S
C496 C503 1.409 1_545 S
C497 H489 0.930 . S
C497 C495 1.419 . S
C497 C498 1.362 . S
C498 H490 0.930 1_545 S
C498 C497 1.362 . S
C498 C501 1.409 1_545 S
C499 H491 0.930 . S
C499 C500 1.355 . S
C499 C501 1.415 . S
C500 C499 1.355 . S
C500 C502 1.419 . S
C501 C496 1.425 1_565 S
C501 C498 1.409 1_565 S
C501 C499 1.415 . S
C502 H492 0.930 . S
C502 C500 1.419 . S
C502 C503 1.362 . S
C503 H493 0.930 1_565 S
C503 C496 1.409 1_565 S
C503 C502 1.362 . S
H504 C510 0.930 . S
H505 C513 0.930 . S
H506 C514 0.930 . S
H507 C515 0.930 . S
H508 C518 0.930 . S
H509 C519 0.930 . S
C510 H504 0.930 . S
C510 C511 1.355 . S
C510 C512 1.415 . S
C511 C510 1.355 . S
C511 C513 1.419 . S
C512 C510 1.415 . S
C512 C517 1.425 . S
C512 C519 1.409 . S
C513 H505 0.930 . S
C513 C511 1.419 . S
C513 C514 1.362 . S
C514 H506 0.930 . S
C514 C513 1.362 . S
C514 C517 1.409 . S
C515 H507 0.930 . S
C515 C516 1.355 . S
C515 C517 1.415 . S
C516 C515 1.355 . S
C516 C518 1.419 . S
C517 C512 1.425 . S
C517 C514 1.409 . S
C517 C515 1.415 . S
C518 H508 0.930 . S
C518 C516 1.419 . S
C518 C519 1.362 . S
C519 H509 0.930 . S
C519 C512 1.409 . S
C519 C518 1.362 . S
H520 C526 0.930 . S
H521 C529 0.930 . S
H522 C530 0.930 1_655 S
H523 C531 0.930 . S
H524 C534 0.930 . S
H525 C535 0.930 1_455 S
C526 H520 0.930 . S
C526 C527 1.355 . S
C526 C528 1.415 . S
C527 C526 1.355 . S
C527 C529 1.419 . S
C528 C526 1.415 . S
C528 C533 1.425 1_455 S
C528 C535 1.409 1_455 S
C529 H521 0.930 . S
C529 C527 1.419 . S
C529 C530 1.362 . S
C530 H522 0.930 1_455 S
C530 C529 1.362 . S
C530 C533 1.409 1_455 S
C531 H523 0.930 . S
C531 C532 1.355 . S
C531 C533 1.415 . S
C532 C531 1.355 . S
C532 C534 1.419 . S
C533 C528 1.425 1_655 S
C533 C530 1.409 1_655 S
C533 C531 1.415 . S
C534 H524 0.930 . S
C534 C532 1.419 . S
C534 C535 1.362 . S
C535 H525 0.930 1_655 S
C535 C528 1.409 1_655 S
C535 C534 1.362 . S
H536 C542 0.930 . S
H537 C545 0.930 . S
H538 C546 0.930 . S
H539 C547 0.930 . S
H540 C550 0.930 . S
H541 C551 0.930 . S
C542 H536 0.930 . S
C542 C543 1.355 . S
C542 C544 1.415 . S
C543 C542 1.355 . S
C543 C545 1.419 . S
C544 C542 1.415 . S
C544 C549 1.425 1_565 S
C544 C551 1.409 1_565 S
C545 H537 0.930 . S
C545 C543 1.419 . S
C545 C546 1.362 . S
C546 H538 0.930 . S
C546 C545 1.362 . S
C546 C549 1.409 1_565 S
C547 H539 0.930 . S
C547 C548 1.355 . S
C547 C549 1.415 . S
C548 C547 1.355 . S
C548 C550 1.419 . S
C549 C544 1.425 1_545 S
C549 C546 1.409 1_545 S
C549 C547 1.415 . S
C550 H540 0.930 . S
C550 C548 1.419 . S
C550 C551 1.362 . S
C551 H541 0.930 . S
C551 C544 1.409 1_545 S
C551 C550 1.362 . S
C175 C149 1.262 . S
C180 C9 1.302 . S
C191 C23 1.237 . S
C196 C163 1.302 . S
C207 C37 1.233 . S
C212 C93 1.311 . S
C223 C51 1.279 . S
C228 C107 1.252 . S
C239 C121 1.251 . S
C244 C65 1.279 . S
C255 C79 1.313 . S
C260 C135 1.239 . S
C271 C112 1.419 . S
C276 C0 1.393 . S
C287 C14 1.444 . S
C292 C126 1.405 . S
C303 C28 1.428 . S
C308 C140 1.398 . S
C319 C42 1.417 . S
C324 C154 1.458 . S
C335 C84 1.393 . S
C340 C56 1.414 . S
C351 C98 1.440 . S
C356 C70 1.401 . S
C367 C47 1.549 . S
C372 C5 1.549 . S
C383 C19 1.550 . S
C388 C61 1.549 . S
C399 C75 1.532 . S
C404 C33 1.533 . S
C415 C131 1.537 . S
C420 C89 1.535 . S
C431 C145 1.535 . S
C436 C103 1.534 . S
C447 C117 1.550 . S
C452 C159 1.549 . S
C463 C53 1.374 . S
C468 C11 1.374 . S
C479 C25 1.377 . S
C484 C67 1.370 . S
C495 C81 1.369 . S
C500 C39 1.376 . S
C511 C95 1.370 . S
C516 C137 1.378 . S
C527 C151 1.374 . S
C532 C109 1.372 . S
C543 C123 1.379 . S
C548 C165 1.367 . S
