# Generated by pormake.
# Topology unc, (4)-cn, num edge types: 1
# Building blocks:
#     Node 0, Type 0, BuildingBlock: KUFVIS_clean_sbu_0, # of connection points: 4
#     Node 1, Type 0, BuildingBlock: KUFVIS_clean_sbu_0, # of connection points: 4
#     Node 2, Type 0, BuildingBlock: KUFVIS_clean_sbu_0, # of connection points: 4
#     Node 3, Type 0, BuildingBlock: KUFVIS_clean_sbu_0, # of connection points: 4
#     Edge 4, Type (0, 0), BuildingBlock: MIFKUJ_clean_linker_0, # of connection points: 2
#     Edge 5, Type (0, 0), BuildingBlock: MIFKUJ_clean_linker_0, # of connection points: 2
#     Edge 6, Type (0, 0), BuildingBlock: MIFKUJ_clean_linker_0, # of connection points: 2
#     Edge 7, Type (0, 0), BuildingBlock: MIFKUJ_clean_linker_0, # of connection points: 2
#     Edge 8, Type (0, 0), BuildingBlock: MIFKUJ_clean_linker_0, # of connection points: 2
#     Edge 9, Type (0, 0), BuildingBlock: MIFKUJ_clean_linker_0, # of connection points: 2
#     Edge 10, Type (0, 0), BuildingBlock: MIFKUJ_clean_linker_0, # of connection points: 2
#     Edge 11, Type (0, 0), BuildingBlock: MIFKUJ_clean_linker_0, # of connection points: 2
# Relax obj value: 0.020
# Max RMSD: 0.088
# Mean RMSD: 0.079
data_MOF--net-unc--node1-KUFVIS_clean_sbu_0--edge1-MIFKUJ_clean_linker_0
_symmetry_space_group_name_H-M    P1
_symmetry_Int_Tables_number       1
_symmetry_cell_setting            triclinic
loop_
_symmetry_equiv_pos_as_xyz
'x, y, z'
_cell_length_a     38.68752
_cell_length_b     38.683665
_cell_length_c     28.743987
_cell_angle_alpha  92.303615
_cell_angle_beta   92.334105
_cell_angle_gamma 90.010068
loop_
_atom_site_label
_atom_site_type_symbol
_atom_site_fract_x
_atom_site_fract_y
_atom_site_fract_z
_atom_type_partial_charge
Mn0 Mn 0.01007 0.67724 0.0152 0.0
Mn1 Mn 0.04445 0.70553 0.91753 0.0
C2 C 0.00375 0.64493 0.94615 0.0
C3 C 0.01518 0.64482 0.08197 0.0
C4 C 0.97744 0.73344 0.95518 0.0
O5 O 0.04408 0.71398 0.0409 0.0
O6 O 0.0655 0.73054 0.9736 0.0
C7 C 0.11569 0.67948 0.93389 0.0
N8 N 0.08632 0.68096 0.90627 0.0
C9 C 0.11166 0.6454 0.84611 0.0
C10 C 0.14226 0.64367 0.8738 0.0
C11 C 0.14423 0.66069 0.91794 0.0
C12 C 0.08409 0.66454 0.86384 0.0
H13 H 0.11733 0.69255 0.96782 0.0
C14 C 0.06416 0.73258 0.01812 0.0
O15 O 0.9924 0.6694 0.07855 0.0
O16 O 0.0358 0.64051 0.04786 0.0
N17 N 0.02703 0.68361 0.86044 0.0
C18 C 0.99493 0.68587 0.83948 0.0
C19 C 0.9883 0.6694 0.79559 0.0
C20 C 0.0148 0.65109 0.77351 0.0
C21 C 0.04767 0.6492 0.7957 0.0
C22 C 0.05277 0.66621 0.83937 0.0
H23 H 0.97446 0.69983 0.85632 0.0
O24 O 0.98255 0.64094 0.9793 0.0
O25 O 0.02824 0.66769 0.95433 0.0
O26 O 0.97718 0.71519 0.99131 0.0
O27 O 1.00122 0.73154 0.92563 0.0
C28 C 0.07539 0.6306 0.77659 0.0
C29 C 0.1073 0.62854 0.80188 0.0
H30 H 0.1643 0.62914 0.86166 0.0
H31 H 0.1677 0.65935 0.93959 0.0
H32 H 0.96282 0.67082 0.77881 0.0
H33 H 0.00954 0.63835 0.73972 0.0
H34 H 0.07234 0.61741 0.74272 0.0
H35 H 0.12822 0.61369 0.78715 0.0
Mn36 Mn 0.35817 0.02539 0.25743 0.0
Mn37 Mn 0.33105 0.9913 0.35594 0.0
C38 C 0.39198 0.03049 0.32543 0.0
C39 C 0.38926 0.01994 0.18944 0.0
C40 C 0.30433 0.05933 0.32033 0.0
O41 O 0.32031 0.99232 0.23257 0.0
O42 O 0.30383 0.97205 0.30058 0.0
C43 C 0.35347 0.91914 0.33663 0.0
N44 N 0.35405 0.94823 0.36497 0.0
C45 C 0.38961 0.92043 0.42301 0.0
C46 C 0.38927 0.89012 0.39454 0.0
C47 C 0.3712 0.88951 0.35111 0.0
C48 C 0.37146 0.94914 0.40674 0.0
H49 H 0.33955 0.91852 0.30328 0.0
C50 C 0.30113 0.97331 0.25608 0.0
O51 O 0.36531 0.04329 0.19396 0.0
O52 O 0.39369 0.99904 0.2232 0.0
N53 N 0.35499 0.00696 0.41248 0.0
C54 C 0.35457 0.03883 0.43441 0.0
C55 C 0.37212 0.04406 0.47785 0.0
C56 C 0.38963 0.01642 0.49849 0.0
C57 C 0.38969 0.98383 0.47529 0.0
C58 C 0.37167 0.98015 0.43212 0.0
H59 H 0.34128 0.06017 0.41862 0.0
O60 O 0.39567 0.05188 0.29241 0.0
O61 O 0.36855 0.00656 0.31782 0.0
O62 O 0.32125 0.05896 0.28297 0.0
O63 O 0.30673 0.03567 0.35006 0.0
C64 C 0.40738 0.955 0.49292 0.0
C65 C 0.40751 0.92339 0.46668 0.0
H66 H 0.40293 0.86722 0.40556 0.0
H67 H 0.37087 0.86625 0.32889 0.0
H68 H 0.37216 0.06935 0.49538 0.0
H69 H 0.40317 0.0206 0.53197 0.0
H70 H 0.42134 0.95696 0.52636 0.0
H71 H 0.42164 0.90158 0.48029 0.0
Mn72 Mn 0.00678 0.35867 0.50235 0.0
Mn73 Mn 0.04673 0.32987 0.59986 0.0
C74 C 0.00155 0.38914 0.5722 0.0
C75 C 0.00947 0.39215 0.43673 0.0
C76 C 0.9802 0.29862 0.55693 0.0
O77 O 0.04126 0.32344 0.47723 0.0
O78 O 0.06937 0.30964 0.54412 0.0
C79 C 0.1147 0.36393 0.59272 0.0
N80 N 0.08588 0.35839 0.61706 0.0
C81 C 0.10703 0.39592 0.68074 0.0
C82 C 0.13706 0.40183 0.65649 0.0
C83 C 0.14088 0.3858 0.61227 0.0
C84 C 0.08195 0.37364 0.65967 0.0
H85 H 0.11764 0.3518 0.55861 0.0
C86 C 0.06517 0.30753 0.49959 0.0
O87 O 0.98719 0.36704 0.43804 0.0
O88 O 0.03067 0.39662 0.47245 0.0
N89 N 0.0276 0.34767 0.65636 0.0
C90 C 0.99616 0.34103 0.67381 0.0
C91 C 0.98771 0.3561 0.71714 0.0
C92 C 0.01173 0.37764 0.74219 0.0
C93 C 0.04406 0.38379 0.72377 0.0
C94 C 0.05115 0.36782 0.6806 0.0
H95 H 0.97754 0.32459 0.65466 0.0
O96 O 0.97935 0.39355 0.53796 0.0
O97 O 0.02647 0.36742 0.56424 0.0
O98 O 0.97572 0.31962 0.52396 0.0
O99 O 0.00636 0.29957 0.58559 0.0
C100 C 0.0692 0.4058 0.74601 0.0
C101 C 0.10065 0.41188 0.7245 0.0
H102 H 0.15719 0.4189 0.67129 0.0
H103 H 0.16389 0.3904 0.59323 0.0
H104 H 0.96268 0.35128 0.73108 0.0
H105 H 0.00497 0.38953 0.77535 0.0
H106 H 0.06437 0.41865 0.77929 0.0
H107 H 0.11955 0.42928 0.7416 0.0
Mn108 Mn 0.67717 0.02775 0.77072 0.0
Mn109 Mn 0.70886 0.98867 0.67435 0.0
C110 C 0.64768 0.03188 0.69986 0.0
C111 C 0.64265 0.02465 0.83528 0.0
C112 C 0.73713 0.0563 0.7175 0.0
O113 O 0.71288 0.9943 0.79732 0.0
O114 O 0.72937 0.96736 0.73092 0.0
C115 C 0.67775 0.91931 0.68186 0.0
N116 N 0.68225 0.94819 0.65719 0.0
C117 C 0.64657 0.92486 0.59291 0.0
C118 C 0.64173 0.89477 0.61752 0.0
C119 C 0.65736 0.89202 0.66221 0.0
C120 C 0.66741 0.95108 0.61412 0.0
H121 H 0.68959 0.91716 0.7163 0.0
C122 C 0.73043 0.97139 0.77546 0.0
O123 O 0.66734 0.04742 0.83448 0.0
O124 O 0.6392 0.00313 0.79974 0.0
N125 N 0.69096 0.00653 0.61708 0.0
C126 C 0.69644 0.03809 0.59923 0.0
C127 C 0.68156 0.04551 0.55538 0.0
C128 C 0.66143 0.02036 0.53021 0.0
C129 C 0.65649 0.98794 0.54905 0.0
C130 C 0.67217 0.98192 0.59276 0.0
H131 H 0.71179 0.05756 0.61847 0.0
O132 O 0.64218 0.05409 0.73372 0.0
O133 O 0.66998 0.00759 0.70868 0.0
O134 O 0.71577 0.05984 0.75018 0.0
O135 O 0.73727 0.03034 0.68862 0.0
C136 C 0.6359 0.96166 0.5267 0.0
C137 C 0.63094 0.93016 0.54862 0.0
H138 H 0.6258 0.87377 0.60263 0.0
H139 H 0.65361 0.86895 0.6815 0.0
H140 H 0.68544 0.07061 0.54111 0.0
H141 H 0.64966 0.02633 0.49665 0.0
H142 H 0.62331 0.96564 0.49299 0.0
H143 H 0.61464 0.91036 0.5314 0.0
H144 H 0.05297 0.5859 0.08791 0.0
H145 H 0.05058 0.54217 0.14611 0.0
H146 H 0.97721 0.60423 0.22175 0.0
H147 H 0.97847 0.64778 0.16208 0.0
H148 H 0.06726 0.53963 0.23154 0.0
H149 H 0.92332 0.5526 0.27885 0.0
H150 H 0.86739 0.56932 0.24201 0.0
H151 H 0.90486 0.54158 0.10699 0.0
H152 H 0.96082 0.52428 0.14306 0.0
H153 H 0.04306 0.45365 0.43663 0.0
H154 H 0.04277 0.49527 0.37551 0.0
H155 H 0.97679 0.4277 0.28799 0.0
H156 H 0.97588 0.38613 0.35042 0.0
H157 H 0.95599 0.49153 0.27986 0.0
H158 H 0.06509 0.43573 0.27 0.0
H159 H 0.12125 0.41295 0.29846 0.0
H160 H 0.15401 0.51554 0.34274 0.0
H161 H 0.09784 0.53889 0.31511 0.0
C162 C 0.03642 0.59045 0.11703 0.0
C163 C 0.01583 0.62033 0.1203 0.0
C164 C 0.0351 0.56533 0.15039 0.0
C165 C 0.01339 0.56953 0.18814 0.0
C166 C 0.99362 0.59996 0.19244 0.0
C167 C 0.99458 0.62501 0.15856 0.0
C168 C 0.01174 0.54191 0.22265 0.0
C169 C 0.04288 0.5292 0.24207 0.0
C170 C 0.98003 0.52748 0.23565 0.0
C171 C 0.94637 0.53752 0.21366 0.0
C172 C 0.91957 0.54997 0.24132 0.0
C173 C 0.88787 0.55956 0.22057 0.0
C174 C 0.88262 0.55663 0.17219 0.0
C175 C 0.90901 0.54397 0.14445 0.0
C176 C 0.94073 0.53431 0.16503 0.0
C177 C 0.02859 0.44743 0.40432 0.0
C178 C 0.00976 0.41638 0.39817 0.0
C179 C 0.02853 0.4713 0.36927 0.0
C180 C 0.01033 0.46442 0.32668 0.0
C181 C 0.99116 0.43355 0.32048 0.0
C182 C 0.99078 0.40974 0.35603 0.0
C183 C 0.01149 0.48969 0.28905 0.0
C184 C 0.98032 0.50198 0.26919 0.0
C185 C 0.04322 0.50291 0.27432 0.0
C186 C 0.07713 0.48902 0.29081 0.0
C187 C 0.08418 0.4534 0.28608 0.0
C188 C 0.11603 0.44039 0.30203 0.0
C189 C 0.14115 0.46277 0.32248 0.0
C190 C 0.13451 0.49823 0.32692 0.0
C191 C 0.10269 0.51138 0.31108 0.0
H192 H 0.16579 0.45265 0.33481 0.0
H193 H 0.85808 0.56409 0.15619 0.0
H194 H 0.41862 0.08501 0.37732 0.0
H195 H 0.46497 0.08379 0.43833 0.0
H196 H 0.47216 0.97299 0.41804 0.0
H197 H 0.42694 0.97439 0.35569 0.0
H198 H 0.46483 0.00312 0.51619 0.0
H199 H 0.53178 0.00993 0.37879 0.0
H200 H 0.54788 0.0353 0.30537 0.0
H201 H 0.57203 0.13173 0.3787 0.0
H202 H 0.55551 0.10709 0.45248 0.0
H203 H 0.61035 0.9768 0.66561 0.0
H204 H 0.56896 0.97475 0.59894 0.0
H205 H 0.58627 0.08353 0.57996 0.0
H206 H 0.62942 0.08479 0.64495 0.0
H207 H 0.58156 0.0528 0.49928 0.0
H208 H 0.51365 0.04989 0.63492 0.0
H209 H 0.49444 0.02848 0.70931 0.0
H210 H 0.46786 0.93044 0.64191 0.0
H211 H 0.48743 0.95109 0.56726 0.0
C212 C 0.4301 0.06046 0.38614 0.0
C213 C 0.41838 0.02958 0.36353 0.0
C214 C 0.45652 0.0598 0.4207 0.0
C215 C 0.47167 0.02828 0.43269 0.0
C216 C 0.46049 0.99749 0.40942 0.0
C217 C 0.43446 0.99826 0.37438 0.0
C218 C 0.49883 0.02742 0.47016 0.0
C219 C 0.4905 0.0135 0.51245 0.0
C220 C 0.53189 0.042 0.46534 0.0
C221 C 0.54202 0.05678 0.42106 0.0
C222 C 0.54017 0.03665 0.37919 0.0
C223 C 0.54946 0.05088 0.33752 0.0
C224 C 0.56087 0.08514 0.33734 0.0
C225 C 0.56313 0.10521 0.37887 0.0
C226 C 0.55383 0.09112 0.42063 0.0
C227 C 0.60585 0.99996 0.64631 0.0
C228 C 0.62389 0.03057 0.65881 0.0
C229 C 0.58177 0.99899 0.60882 0.0
C230 C 0.57419 0.02908 0.58459 0.0
C231 C 0.59186 0.05991 0.59781 0.0
C232 C 0.61635 0.0607 0.63491 0.0
C233 C 0.54752 0.0286 0.54596 0.0
C234 C 0.5559 0.0423 0.50328 0.0
C235 C 0.51412 0.0144 0.55072 0.0
C236 C 0.5024 0.00191 0.59562 0.0
C237 C 0.50399 0.02367 0.63605 0.0
C238 C 0.493 0.01168 0.67825 0.0
C239 C 0.48005 0.97808 0.68037 0.0
C240 C 0.47797 0.95643 0.64025 0.0
C241 C 0.48901 0.96826 0.59799 0.0
H242 H 0.47153 0.96886 0.71307 0.0
H243 H 0.56805 0.09611 0.30504 0.0
H244 H 0.94849 0.62077 0.8935 0.0
H245 H 0.9484 0.57519 0.83131 0.0
H246 H 0.05894 0.56478 0.85109 0.0
H247 H 0.05882 0.60908 0.91468 0.0
H248 H 0.02515 0.57495 0.75136 0.0
H249 H 0.02543 0.50624 0.8892 0.0
H250 H 0.00268 0.48957 0.96402 0.0
H251 H 0.90416 0.46557 0.89617 0.0
H252 H 0.9262 0.48268 0.82105 0.0
H253 H 0.05527 0.42904 0.60454 0.0
H254 H 0.05619 0.4715 0.66993 0.0
H255 H 0.94847 0.45018 0.69114 0.0
H256 H 0.94834 0.40618 0.62719 0.0
H257 H 0.98052 0.45654 0.77148 0.0
H258 H 0.97744 0.52344 0.63483 0.0
H259 H 0.99616 0.54291 0.55917 0.0
H260 H 0.09439 0.57408 0.62217 0.0
H261 H 0.07646 0.55428 0.69807 0.0
C262 C 0.9727 0.60877 0.88427 0.0
C263 C 0.0039 0.61928 0.90715 0.0
C264 C 0.97262 0.58283 0.84903 0.0
C265 C 0.0037 0.567 0.83664 0.0
C266 C 0.03479 0.57703 0.86004 0.0
C267 C 0.03476 0.60253 0.89579 0.0
C268 C 0.00378 0.5401 0.79889 0.0
C269 C 0.01592 0.54892 0.75576 0.0
C270 C 0.99051 0.50662 0.8046 0.0
C271 C 0.97733 0.49616 0.84965 0.0
C272 C 0.9988 0.49779 0.89034 0.0
C273 C 0.98607 0.48817 0.93278 0.0
C274 C 0.95196 0.47663 0.93488 0.0
C275 C 0.93055 0.47458 0.89451 0.0
C276 C 0.94316 0.48421 0.85199 0.0
C277 C 0.0321 0.43297 0.624 0.0
C278 C 0.00215 0.4136 0.61246 0.0
C279 C 0.03241 0.45762 0.66076 0.0
C280 C 0.00229 0.4643 0.68527 0.0
C281 C 0.97209 0.44531 0.67299 0.0
C282 C 0.97195 0.42032 0.63653 0.0
C283 C 0.00222 0.49125 0.72343 0.0
C284 C 0.98995 0.48253 0.76679 0.0
C285 C 0.01487 0.52514 0.71767 0.0
C286 C 0.02573 0.53703 0.67203 0.0
C287 C 0.00313 0.53418 0.63246 0.0
C288 C 0.01359 0.54531 0.58955 0.0
C289 C 0.04648 0.55963 0.58583 0.0
C290 C 0.06895 0.56292 0.62507 0.0
C291 C 0.05865 0.55176 0.66805 0.0
H292 H 0.05452 0.56824 0.55258 0.0
H293 H 0.94215 0.46919 0.96777 0.0
H294 H 0.44503 0.97812 0.17871 0.0
H295 H 0.48812 0.97984 0.11959 0.0
H296 H 0.43074 0.06051 0.05155 0.0
H297 H 0.38784 0.05974 0.11208 0.0
H298 H 0.48889 0.96697 0.03254 0.0
H299 H 0.48611 0.11399 0.99949 0.0
H300 H 0.47371 0.16906 0.04187 0.0
H301 H 0.49925 0.12267 0.17207 0.0
H302 H 0.51222 0.0675 0.13044 0.0
H303 H 0.57943 0.99424 0.83151 0.0
H304 H 0.53681 0.99446 0.89141 0.0
H305 H 0.60649 0.05369 0.98475 0.0
H306 H 0.64892 0.05497 0.92349 0.0
H307 H 0.54481 0.07718 0.99456 0.0
H308 H 0.59265 0.96379 0.99443 0.0
H309 H 0.61145 0.90753 0.96091 0.0
H310 H 0.50703 0.88434 0.91341 0.0
H311 H 0.48767 0.94068 0.94611 0.0
C312 C 0.44134 0.99613 0.15104 0.0
C313 C 0.413 0.0189 0.15022 0.0
C314 C 0.46608 0.99705 0.11713 0.0
C315 C 0.46307 0.0206 0.08132 0.0
C316 C 0.43408 0.04256 0.07935 0.0
C317 C 0.40939 0.04191 0.11371 0.0
C318 C 0.49058 0.02209 0.04662 0.0
C319 C 0.50101 0.99112 0.02421 0.0
C320 C 0.50723 0.05339 0.03652 0.0
C321 C 0.49974 0.08653 0.06184 0.0
C322 C 0.48916 0.11559 0.03714 0.0
C323 C 0.48203 0.14681 0.06104 0.0
C324 C 0.48557 0.14932 0.10964 0.0
C325 C 0.49637 0.12065 0.13444 0.0
C326 C 0.50358 0.0894 0.11071 0.0
C327 C 0.58585 0.00719 0.86486 0.0
C328 C 0.61773 0.02427 0.87299 0.0
C329 C 0.56142 0.0072 0.89923 0.0
C330 C 0.5686 0.02342 0.94313 0.0
C331 C 0.60034 0.04086 0.95125 0.0
C332 C 0.62465 0.04144 0.91637 0.0
C333 C 0.5428 0.0221 0.98015 0.0
C334 C 0.53265 0.05306 0.0029 0.0
C335 C 0.52728 0.99059 0.99191 0.0
C336 C 0.53877 0.95659 0.9724 0.0
C337 C 0.57373 0.94678 0.97658 0.0
C338 C 0.58448 0.91487 0.95776 0.0
C339 C 0.56046 0.89241 0.93496 0.0
C340 C 0.52562 0.90178 0.93105 0.0
C341 C 0.51473 0.93368 0.94976 0.0
H342 H 0.56884 0.86772 0.92041 0.0
H343 H 0.48001 0.1735 0.12807 0.0
H344 H 0.25123 0.93466 0.29428 0.0
H345 H 0.20925 0.89583 0.25428 0.0
H346 H 0.2488 0.92142 0.1218 0.0
H347 H 0.29078 0.96104 0.16156 0.0
H348 H 0.17822 0.91808 0.11842 0.0
H349 H 0.27252 0.84703 0.17257 0.0
H350 H 0.31422 0.82532 0.23162 0.0
H351 H 0.23059 0.7887 0.31028 0.0
H352 H 0.18835 0.81072 0.25206 0.0
H353 H 0.11128 0.7758 0.9821 0.0
H354 H 0.14912 0.81779 0.02385 0.0
H355 H 0.10783 0.78953 0.15419 0.0
H356 H 0.06985 0.74693 0.11267 0.0
H357 H 0.17784 0.7948 0.16012 0.0
H358 H 0.08346 0.86421 0.10622 0.0
H359 H 0.04106 0.8864 0.04841 0.0
H360 H 0.12358 0.92627 0.97056 0.0
H361 H 0.16652 0.90387 0.02755 0.0
C362 C 0.25107 0.93223 0.2566 0.0
C363 C 0.27469 0.95084 0.23119 0.0
C364 C 0.22702 0.9099 0.2338 0.0
C365 C 0.22625 0.90529 0.18513 0.0
C366 C 0.24904 0.92452 0.15944 0.0
C367 C 0.27308 0.94707 0.18225 0.0
C368 C 0.20222 0.87974 0.16132 0.0
C369 C 0.17842 0.89104 0.12707 0.0
C370 C 0.20187 0.84463 0.17356 0.0
C371 C 0.22727 0.83079 0.20815 0.0
C372 C 0.26302 0.83453 0.2026 0.0
C373 C 0.28675 0.82216 0.23591 0.0
C374 C 0.27506 0.80571 0.27473 0.0
C375 C 0.23961 0.80149 0.28022 0.0
C376 C 0.21576 0.81388 0.24706 0.0
C377 C 0.11005 0.77843 0.01965 0.0
C378 C 0.08728 0.75799 0.04395 0.0
C379 C 0.13169 0.80262 0.04345 0.0
C380 C 0.13097 0.80714 0.09205 0.0
C381 C 0.10869 0.78653 0.11662 0.0
C382 C 0.08695 0.76225 0.0928 0.0
C383 C 0.15392 0.83309 0.11706 0.0
C384 C 0.17755 0.82186 0.15152 0.0
C385 C 0.15401 0.86826 0.10512 0.0
C386 C 0.12824 0.88208 0.07097 0.0
C387 C 0.09259 0.87749 0.0766 0.0
C388 C 0.06845 0.89014 0.044 0.0
C389 C 0.07963 0.90766 0.00578 0.0
C390 C 0.11497 0.91266 0.00016 0.0
C391 C 0.13922 0.90003 0.03263 0.0
H392 H 0.0609 0.91742 0.98058 0.0
H393 H 0.29348 0.79618 0.3005 0.0
H394 H 0.2705 0.1024 0.25927 0.0
H395 H 0.2271 0.14662 0.27827 0.0
H396 H 0.24211 0.12632 0.42427 0.0
H397 H 0.28364 0.08158 0.40551 0.0
H398 H 0.17729 0.12757 0.40435 0.0
H399 H 0.27405 0.20124 0.36908 0.0
H400 H 0.3183 0.22354 0.31856 0.0
H401 H 0.23892 0.25269 0.21898 0.0
H402 H 0.19422 0.23019 0.26871 0.0
H403 H 0.11823 0.26864 0.53498 0.0
H404 H 0.15599 0.22919 0.49303 0.0
H405 H 0.10532 0.25508 0.36272 0.0
H406 H 0.06701 0.29504 0.40454 0.0
H407 H 0.17993 0.25022 0.36048 0.0
H408 H 0.08317 0.18291 0.40376 0.0
H409 H 0.04034 0.16256 0.45775 0.0
H410 H 0.12197 0.12223 0.54548 0.0
H411 H 0.16534 0.14281 0.49239 0.0
C412 C 0.26467 0.10768 0.29539 0.0
C413 C 0.28048 0.08836 0.33082 0.0
C414 C 0.23993 0.13301 0.30625 0.0
C415 C 0.23125 0.13992 0.3528 0.0
C416 C 0.24797 0.12134 0.38807 0.0
C417 C 0.27197 0.09577 0.37724 0.0
C418 C 0.20396 0.16531 0.36574 0.0
C419 C 0.17811 0.15441 0.39486 0.0
C420 C 0.204 0.20011 0.35206 0.0
C421 C 0.23085 0.21367 0.32231 0.0
C422 C 0.26607 0.21217 0.33624 0.0
C423 C 0.29122 0.22489 0.30779 0.0
C424 C 0.28144 0.23942 0.26552 0.0
C425 C 0.24647 0.24137 0.25168 0.0
C426 C 0.22122 0.22865 0.27999 0.0
C427 C 0.11501 0.26621 0.49738 0.0
C428 C 0.0892 0.28486 0.47327 0.0
C429 C 0.13671 0.24359 0.47345 0.0
C430 C 0.13319 0.23893 0.42485 0.0
C431 C 0.10837 0.25828 0.40027 0.0
C432 C 0.08642 0.28097 0.42429 0.0
C433 C 0.15467 0.21262 0.40069 0.0
C434 C 0.17903 0.22324 0.36931 0.0
C435 C 0.1536 0.17754 0.41257 0.0
C436 C 0.12752 0.16457 0.44417 0.0
C437 C 0.092 0.16987 0.43469 0.0
C438 C 0.06763 0.15828 0.46513 0.0
C439 C 0.07843 0.14115 0.50504 0.0
C440 C 0.11364 0.13549 0.51454 0.0
C441 C 0.13813 0.14707 0.48425 0.0
H442 H 0.05952 0.13222 0.52859 0.0
H443 H 0.30095 0.24925 0.24354 0.0
H444 H 0.80356 0.04934 0.69211 0.0
H445 H 0.84231 0.09479 0.66811 0.0
H446 H 0.7647 0.17163 0.69771 0.0
H447 H 0.72601 0.12615 0.72326 0.0
H448 H 0.79691 0.16742 0.60019 0.0
H449 H 0.82417 0.17966 0.76521 0.0
H450 H 0.84042 0.15806 0.84261 0.0
H451 H 0.93507 0.1173 0.79005 0.0
H452 H 0.91912 0.1382 0.7121 0.0
H453 H 0.91006 0.30733 0.54965 0.0
H454 H 0.86592 0.26908 0.5785 0.0
H455 H 0.94496 0.19445 0.61287 0.0
H456 H 0.98906 0.23335 0.5863 0.0
H457 H 0.90749 0.20205 0.68234 0.0
H458 H 0.88145 0.18353 0.51855 0.0
H459 H 0.86659 0.19988 0.43815 0.0
H460 H 0.77221 0.24627 0.4833 0.0
H461 H 0.78673 0.23057 0.56413 0.0
C462 C 0.79503 0.07601 0.6944 0.0
C463 C 0.76194 0.08432 0.70985 0.0
C464 C 0.81711 0.10188 0.68056 0.0
C465 C 0.80625 0.13645 0.68099 0.0
C466 C 0.77346 0.14503 0.69719 0.0
C467 C 0.75159 0.11916 0.71214 0.0
C468 C 0.82896 0.16307 0.6626 0.0
C469 C 0.82081 0.17566 0.61841 0.0
C470 C 0.86056 0.17269 0.68582 0.0
C471 C 0.87029 0.16023 0.73271 0.0
C472 C 0.84829 0.1658 0.77003 0.0
C473 C 0.85748 0.15375 0.81404 0.0
C474 C 0.88872 0.13624 0.82122 0.0
C475 C 0.91086 0.13084 0.78443 0.0
C476 C 0.90178 0.14282 0.74034 0.0
C477 C 0.9178 0.28241 0.56241 0.0
C478 C 0.95292 0.27322 0.56563 0.0
C479 C 0.89257 0.26053 0.57897 0.0
C480 C 0.90196 0.22869 0.59789 0.0
C481 C 0.93696 0.21893 0.59893 0.0
C482 C 0.96215 0.24106 0.58338 0.0
C483 C 0.87597 0.20627 0.61911 0.0
C484 C 0.8835 0.19431 0.66398 0.0
C485 C 0.84412 0.19669 0.596 0.0
C486 C 0.83538 0.20624 0.54747 0.0
C487 C 0.85767 0.19748 0.5114 0.0
C488 C 0.84928 0.20657 0.46574 0.0
C489 C 0.81853 0.2242 0.45564 0.0
C490 C 0.79605 0.23268 0.49118 0.0
C491 C 0.80434 0.22367 0.53692 0.0
H492 H 0.81208 0.23121 0.42027 0.0
H493 H 0.89579 0.12694 0.85531 0.0
H494 H 0.77655 0.92449 0.74122 0.0
H495 H 0.81273 0.88438 0.784 0.0
H496 H 0.7724 0.92348 0.91348 0.0
H497 H 0.7361 0.9646 0.87071 0.0
H498 H 0.84248 0.91289 0.92134 0.0
H499 H 0.74425 0.8467 0.86855 0.0
H500 H 0.69885 0.82475 0.81231 0.0
H501 H 0.7761 0.77741 0.72771 0.0
H502 H 0.82203 0.79955 0.78304 0.0
H503 H 0.92997 0.76062 0.01575 0.0
H504 H 0.8826 0.80105 0.99756 0.0
H505 H 0.91182 0.80016 0.8544 0.0
H506 H 0.95919 0.76099 0.8721 0.0
H507 H 0.83851 0.78901 0.86924 0.0
H508 H 0.9358 0.86478 0.9163 0.0
H509 H 0.98114 0.88697 0.97256 0.0
H510 H 0.90381 0.91505 0.07014 0.0
H511 H 0.85803 0.89251 0.01466 0.0
C512 C 0.7752 0.92475 0.7788 0.0
C513 C 0.75308 0.94771 0.8024 0.0
C514 C 0.79592 0.90162 0.80324 0.0
C515 C 0.79481 0.90043 0.85188 0.0
C516 C 0.77349 0.92382 0.87591 0.0
C517 C 0.75273 0.94724 0.85137 0.0
C518 C 0.81599 0.87438 0.87678 0.0
C519 C 0.84105 0.88567 0.91079 0.0
C520 C 0.8142 0.83883 0.86303 0.0
C521 C 0.78662 0.82494 0.82992 0.0
C522 C 0.75158 0.83176 0.83784 0.0
C523 C 0.72574 0.81928 0.80612 0.0
C524 C 0.73458 0.79973 0.76644 0.0
C525 C 0.76929 0.79255 0.75847 0.0
C526 C 0.79524 0.80502 0.79005 0.0
C527 C 0.92622 0.76905 0.98043 0.0
C528 C 0.94839 0.75749 0.94541 0.0
C529 C 0.89924 0.79214 0.97016 0.0
C530 C 0.89375 0.80343 0.92461 0.0
C531 C 0.91556 0.79161 0.8897 0.0
C532 C 0.94274 0.76923 0.90002 0.0
C533 C 0.8656 0.82776 0.91236 0.0
C534 C 0.83923 0.81608 0.88069 0.0
C535 C 0.86608 0.86278 0.92851 0.0
C536 C 0.89356 0.87653 0.96164 0.0
C537 C 0.9285 0.87536 0.94994 0.0
C538 C 0.95427 0.88807 0.98163 0.0
C539 C 0.94537 0.90228 0.02496 0.0
C540 C 0.91067 0.90394 0.03661 0.0
C541 C 0.8848 0.89122 0.00506 0.0
H542 H 0.96536 0.9121 0.04945 0.0
H543 H 0.71454 0.79012 0.7419 0.0
loop_
_geom_bond_atom_site_label_1
_geom_bond_atom_site_label_2
_geom_bond_distance
_geom_bond_site_symmetry_2
_ccdc_geom_bond_type
Mn0 O5 2.095 . S
Mn0 O15 2.162 1_455 S
Mn0 O16 2.297 . S
Mn0 O24 2.385 1_454 S
Mn0 O25 2.209 1_554 S
Mn0 O26 2.094 1_455 S
Mn1 O6 2.121 . S
Mn1 N8 2.257 . S
Mn1 N17 2.282 . S
Mn1 O25 2.215 . S
Mn1 O27 2.117 1_455 S
C2 O24 1.234 1_455 S
C2 O25 1.283 . S
C3 O15 1.281 1_455 S
C3 O16 1.236 . S
C4 O26 1.240 1_556 S
C4 O27 1.264 . S
O5 Mn0 2.095 . S
O5 C14 1.250 . S
O6 Mn1 2.121 . S
O6 C14 1.258 1_556 S
C7 N8 1.326 . S
C7 C11 1.460 . S
C7 H13 0.929 . S
N8 Mn1 2.257 . S
N8 C7 1.326 . S
N8 C12 1.362 . S
C9 C10 1.258 . S
C9 C12 1.431 . S
C9 C29 1.449 . S
C10 C9 1.258 . S
C10 C11 1.477 . S
C10 H30 0.931 . S
C11 C7 1.460 . S
C11 C10 1.477 . S
C11 H31 0.930 . S
C12 N8 1.362 . S
C12 C9 1.431 . S
C12 C22 1.476 . S
H13 C7 0.929 . S
C14 O5 1.250 . S
C14 O6 1.258 1_554 S
O15 Mn0 2.162 1_655 S
O15 C3 1.281 1_655 S
O16 Mn0 2.297 . S
O16 C3 1.236 . S
N17 Mn1 2.282 . S
N17 C18 1.328 1_455 S
N17 C22 1.318 . S
C18 N17 1.328 1_655 S
C18 C19 1.457 . S
C18 H23 0.929 . S
C19 C18 1.457 . S
C19 C20 1.291 . S
C19 H32 0.931 . S
C20 C19 1.291 . S
C20 C21 1.373 1_655 S
C20 H33 0.929 . S
C21 C20 1.373 1_455 S
C21 C22 1.396 . S
C21 C28 1.403 . S
C22 C12 1.476 . S
C22 N17 1.318 . S
C22 C21 1.396 . S
H23 C18 0.929 . S
O24 Mn0 2.385 1_656 S
O24 C2 1.234 1_655 S
O25 Mn0 2.209 1_556 S
O25 Mn1 2.215 . S
O25 C2 1.283 . S
O26 Mn0 2.094 1_655 S
O26 C4 1.240 1_554 S
O27 Mn1 2.117 1_655 S
O27 C4 1.264 . S
C28 C21 1.403 . S
C28 C29 1.399 . S
C28 H34 0.929 . S
C29 C9 1.449 . S
C29 C28 1.399 . S
C29 H35 0.930 . S
H30 C10 0.931 . S
H31 C11 0.930 . S
H32 C19 0.931 . S
H33 C20 0.929 . S
H34 C28 0.929 . S
H35 C29 0.930 . S
Mn36 O41 2.095 1_545 S
Mn36 O51 2.162 . S
Mn36 O52 2.297 1_545 S
Mn36 O60 2.385 . S
Mn36 O61 2.209 1_545 S
Mn36 O62 2.094 . S
Mn37 O42 2.121 . S
Mn37 N44 2.257 . S
Mn37 N53 2.282 1_565 S
Mn37 O61 2.215 . S
Mn37 O63 2.117 1_565 S
C38 O60 1.234 . S
C38 O61 1.283 1_545 S
C39 O51 1.281 . S
C39 O52 1.236 1_545 S
C40 O62 1.240 . S
C40 O63 1.264 . S
O41 Mn36 2.095 1_565 S
O41 C50 1.250 . S
O42 Mn37 2.121 . S
O42 C50 1.258 . S
C43 N44 1.326 . S
C43 C47 1.460 . S
C43 H49 0.929 . S
N44 Mn37 2.257 . S
N44 C43 1.326 . S
N44 C48 1.362 . S
C45 C46 1.258 . S
C45 C48 1.431 . S
C45 C65 1.449 . S
C46 C45 1.258 . S
C46 C47 1.477 . S
C46 H66 0.931 . S
C47 C43 1.460 . S
C47 C46 1.477 . S
C47 H67 0.930 . S
C48 N44 1.362 . S
C48 C45 1.431 . S
C48 C58 1.476 . S
H49 C43 0.929 . S
C50 O41 1.250 . S
C50 O42 1.258 . S
O51 Mn36 2.162 . S
O51 C39 1.281 . S
O52 Mn36 2.297 1_565 S
O52 C39 1.236 1_565 S
N53 Mn37 2.282 1_545 S
N53 C54 1.328 . S
N53 C58 1.318 1_545 S
C54 N53 1.328 . S
C54 C55 1.457 . S
C54 H59 0.929 . S
C55 C54 1.457 . S
C55 C56 1.291 . S
C55 H68 0.931 . S
C56 C55 1.291 . S
C56 C57 1.388 . S
C56 H69 0.929 . S
C57 C56 1.388 . S
C57 C58 1.393 1_545 S
C57 C64 1.391 1_545 S
C58 C48 1.476 . S
C58 N53 1.318 1_565 S
C58 C57 1.393 1_565 S
H59 C54 0.929 . S
O60 Mn36 2.385 . S
O60 C38 1.234 . S
O61 Mn36 2.209 1_565 S
O61 Mn37 2.215 . S
O61 C38 1.283 1_565 S
O62 Mn36 2.094 . S
O62 C40 1.240 . S
O63 Mn37 2.117 1_545 S
O63 C40 1.264 . S
C64 C57 1.391 1_565 S
C64 C65 1.399 . S
C64 H70 0.929 . S
C65 C45 1.449 . S
C65 C64 1.399 . S
C65 H71 0.930 . S
H66 C46 0.931 . S
H67 C47 0.930 . S
H68 C55 0.931 . S
H69 C56 0.929 . S
H70 C64 0.929 . S
H71 C65 0.930 . S
Mn72 O77 2.095 . S
Mn72 O87 2.162 1_455 S
Mn72 O88 2.297 . S
Mn72 O96 2.385 1_455 S
Mn72 O97 2.209 . S
Mn72 O98 2.094 1_455 S
Mn73 O78 2.121 . S
Mn73 N80 2.257 . S
Mn73 N89 2.282 . S
Mn73 O97 2.215 . S
Mn73 O99 2.117 1_455 S
C74 O96 1.234 1_455 S
C74 O97 1.283 . S
C75 O87 1.281 1_455 S
C75 O88 1.236 . S
C76 O98 1.240 . S
C76 O99 1.264 . S
O77 Mn72 2.095 . S
O77 C86 1.250 . S
O78 Mn73 2.121 . S
O78 C86 1.258 . S
C79 N80 1.326 . S
C79 C83 1.460 . S
C79 H85 0.929 . S
N80 Mn73 2.257 . S
N80 C79 1.326 . S
N80 C84 1.362 . S
C81 C82 1.258 . S
C81 C84 1.431 . S
C81 C101 1.449 . S
C82 C81 1.258 . S
C82 C83 1.477 . S
C82 H102 0.931 . S
C83 C79 1.460 . S
C83 C82 1.477 . S
C83 H103 0.930 . S
C84 N80 1.362 . S
C84 C81 1.431 . S
C84 C94 1.476 . S
H85 C79 0.929 . S
C86 O77 1.250 . S
C86 O78 1.258 . S
O87 Mn72 2.162 1_655 S
O87 C75 1.281 1_655 S
O88 Mn72 2.297 . S
O88 C75 1.236 . S
N89 Mn73 2.282 . S
N89 C90 1.328 1_455 S
N89 C94 1.318 . S
C90 N89 1.328 1_655 S
C90 C91 1.457 . S
C90 H95 0.929 . S
C91 C90 1.457 . S
C91 C92 1.291 1_655 S
C91 H104 0.931 . S
C92 C91 1.291 1_455 S
C92 C93 1.373 . S
C92 H105 0.929 1_455 S
C93 C92 1.373 . S
C93 C94 1.396 . S
C93 C100 1.403 . S
C94 C84 1.476 . S
C94 N89 1.318 . S
C94 C93 1.396 . S
H95 C90 0.929 . S
O96 Mn72 2.385 1_655 S
O96 C74 1.234 1_655 S
O97 Mn72 2.209 . S
O97 Mn73 2.215 . S
O97 C74 1.283 . S
O98 Mn72 2.094 1_655 S
O98 C76 1.240 . S
O99 Mn73 2.117 1_655 S
O99 C76 1.264 . S
C100 C93 1.403 . S
C100 C101 1.399 . S
C100 H106 0.929 . S
C101 C81 1.449 . S
C101 C100 1.399 . S
C101 H107 0.930 . S
H102 C82 0.931 . S
H103 C83 0.930 . S
H104 C91 0.931 . S
H105 C92 0.929 1_655 S
H106 C100 0.929 . S
H107 C101 0.930 . S
Mn108 O113 2.095 1_545 S
Mn108 O123 2.162 . S
Mn108 O124 2.297 1_545 S
Mn108 O132 2.385 . S
Mn108 O133 2.209 1_545 S
Mn108 O134 2.094 . S
Mn109 O114 2.121 . S
Mn109 N116 2.257 . S
Mn109 N125 2.282 1_565 S
Mn109 O133 2.215 . S
Mn109 O135 2.117 1_565 S
C110 O132 1.234 . S
C110 O133 1.283 1_545 S
C111 O123 1.281 . S
C111 O124 1.236 1_545 S
C112 O134 1.240 . S
C112 O135 1.264 . S
O113 Mn108 2.095 1_565 S
O113 C122 1.250 . S
O114 Mn109 2.121 . S
O114 C122 1.258 . S
C115 N116 1.326 . S
C115 C119 1.460 . S
C115 H121 0.929 . S
N116 Mn109 2.257 . S
N116 C115 1.326 . S
N116 C120 1.362 . S
C117 C118 1.258 . S
C117 C120 1.431 . S
C117 C137 1.449 . S
C118 C117 1.258 . S
C118 C119 1.477 . S
C118 H138 0.931 . S
C119 C115 1.460 . S
C119 C118 1.477 . S
C119 H139 0.930 . S
C120 N116 1.362 . S
C120 C117 1.431 . S
C120 C130 1.476 . S
H121 C115 0.929 . S
C122 O113 1.250 . S
C122 O114 1.258 . S
O123 Mn108 2.162 . S
O123 C111 1.281 . S
O124 Mn108 2.297 1_565 S
O124 C111 1.236 1_565 S
N125 Mn109 2.282 1_545 S
N125 C126 1.328 . S
N125 C130 1.318 1_545 S
C126 N125 1.328 . S
C126 C127 1.457 . S
C126 H131 0.929 . S
C127 C126 1.457 . S
C127 C128 1.291 . S
C127 H140 0.931 . S
C128 C127 1.291 . S
C128 C129 1.373 1_545 S
C128 H141 0.929 . S
C129 C128 1.373 1_565 S
C129 C130 1.396 . S
C129 C136 1.403 . S
C130 C120 1.476 . S
C130 N125 1.318 1_565 S
C130 C129 1.396 . S
H131 C126 0.929 . S
O132 Mn108 2.385 . S
O132 C110 1.234 . S
O133 Mn108 2.209 1_565 S
O133 Mn109 2.215 . S
O133 C110 1.283 1_565 S
O134 Mn108 2.094 . S
O134 C112 1.240 . S
O135 Mn109 2.117 1_545 S
O135 C112 1.264 . S
C136 C129 1.403 . S
C136 C137 1.399 . S
C136 H142 0.929 . S
C137 C117 1.449 . S
C137 C136 1.399 . S
C137 H143 0.930 . S
H138 C118 0.931 . S
H139 C119 0.930 . S
H140 C127 0.931 . S
H141 C128 0.929 . S
H142 C136 0.929 . S
H143 C137 0.930 . S
H144 C162 0.951 . S
H145 C164 0.951 . S
H146 C166 0.950 . S
H147 C167 0.950 . S
H148 C169 0.950 . S
H149 C172 0.950 . S
H150 C173 0.950 . S
H151 C175 0.950 . S
H152 C176 0.950 . S
H153 C177 0.951 . S
H154 C179 0.951 . S
H155 C181 0.950 . S
H156 C182 0.950 . S
H157 C184 0.950 . S
H158 C187 0.950 . S
H159 C188 0.950 . S
H160 C190 0.950 . S
H161 C191 0.950 . S
C162 H144 0.951 . S
C162 C163 1.366 1_655 S
C162 C164 1.388 . S
C163 C162 1.366 1_455 S
C163 C167 1.385 . S
C164 H145 0.951 . S
C164 C162 1.388 . S
C164 C165 1.366 1_655 S
C165 C164 1.366 1_455 S
C165 C166 1.414 . S
C165 C168 1.499 . S
C166 H146 0.950 . S
C166 C165 1.414 . S
C166 C167 1.374 . S
C167 H147 0.950 . S
C167 C163 1.385 . S
C167 C166 1.374 . S
C168 C165 1.499 . S
C168 C169 1.373 . S
C168 C170 1.389 1_455 S
C169 H148 0.950 . S
C169 C168 1.373 . S
C169 C185 1.377 . S
C170 C168 1.389 1_655 S
C170 C171 1.524 . S
C170 C184 1.377 . S
C171 C170 1.524 . S
C171 C172 1.397 . S
C171 C176 1.363 . S
C172 H149 0.950 . S
C172 C171 1.397 . S
C172 C173 1.334 . S
C173 H150 0.950 . S
C173 C172 1.334 . S
C173 C174 1.287 . S
C174 C173 1.287 . S
C174 C175 1.524 . S
C174 H193 0.913 . S
C175 H151 0.950 . S
C175 C174 1.524 . S
C175 C176 1.415 . S
C176 H152 0.950 . S
C176 C171 1.363 . S
C176 C175 1.415 . S
C177 H153 0.951 . S
C177 C178 1.366 . S
C177 C179 1.388 . S
C178 C177 1.366 . S
C178 C182 1.385 1_455 S
C179 H154 0.951 . S
C179 C177 1.388 . S
C179 C180 1.366 . S
C180 C179 1.366 . S
C180 C181 1.414 1_455 S
C180 C183 1.499 . S
C181 H155 0.950 . S
C181 C180 1.414 1_655 S
C181 C182 1.374 . S
C182 H156 0.950 . S
C182 C178 1.385 1_655 S
C182 C181 1.374 . S
C183 C180 1.499 . S
C183 C184 1.373 1_455 S
C183 C185 1.389 . S
C184 H157 0.950 . S
C184 C170 1.377 . S
C184 C183 1.373 1_655 S
C185 C169 1.377 . S
C185 C183 1.389 . S
C185 C186 1.524 . S
C186 C185 1.524 . S
C186 C187 1.397 . S
C186 C191 1.363 . S
C187 H158 0.950 . S
C187 C186 1.397 . S
C187 C188 1.334 . S
C188 H159 0.950 . S
C188 C187 1.334 . S
C188 C189 1.287 . S
C189 C188 1.287 . S
C189 C190 1.524 . S
C189 H192 0.999 . S
C190 H160 0.950 . S
C190 C189 1.524 . S
C190 C191 1.415 . S
C191 H161 0.950 . S
C191 C186 1.363 . S
C191 C190 1.415 . S
H192 C189 0.999 . S
H193 C174 0.913 . S
H194 C212 0.951 . S
H195 C214 0.951 . S
H196 C216 0.950 . S
H197 C217 0.950 . S
H198 C219 0.950 . S
H199 C222 0.950 . S
H200 C223 0.950 . S
H201 C225 0.950 . S
H202 C226 0.950 . S
H203 C227 0.951 . S
H204 C229 0.951 . S
H205 C231 0.950 . S
H206 C232 0.950 . S
H207 C234 0.950 . S
H208 C237 0.950 . S
H209 C238 0.950 . S
H210 C240 0.950 . S
H211 C241 0.950 . S
C212 H194 0.951 . S
C212 C213 1.366 . S
C212 C214 1.388 . S
C213 C212 1.366 . S
C213 C217 1.385 1_545 S
C214 H195 0.951 . S
C214 C212 1.388 . S
C214 C215 1.366 . S
C215 C214 1.366 . S
C215 C216 1.414 1_545 S
C215 C218 1.499 . S
C216 H196 0.950 . S
C216 C215 1.414 1_565 S
C216 C217 1.374 . S
C217 H197 0.950 . S
C217 C213 1.385 1_565 S
C217 C216 1.374 . S
C218 C215 1.499 . S
C218 C219 1.373 1_545 S
C218 C220 1.389 . S
C219 H198 0.950 . S
C219 C218 1.373 1_565 S
C219 C235 1.377 . S
C220 C218 1.389 . S
C220 C221 1.524 . S
C220 C234 1.377 . S
C221 C220 1.524 . S
C221 C222 1.397 . S
C221 C226 1.363 . S
C222 H199 0.950 . S
C222 C221 1.397 . S
C222 C223 1.334 . S
C223 H200 0.950 . S
C223 C222 1.334 . S
C223 C224 1.287 . S
C224 C223 1.287 . S
C224 C225 1.524 . S
C224 H243 0.913 . S
C225 H201 0.950 . S
C225 C224 1.524 . S
C225 C226 1.415 . S
C226 H202 0.950 . S
C226 C221 1.363 . S
C226 C225 1.415 . S
C227 H203 0.951 . S
C227 C228 1.366 1_565 S
C227 C229 1.388 . S
C228 C227 1.366 1_545 S
C228 C232 1.385 . S
C229 H204 0.951 . S
C229 C227 1.388 . S
C229 C230 1.366 1_565 S
C230 C229 1.366 1_545 S
C230 C231 1.414 . S
C230 C233 1.499 . S
C231 H205 0.950 . S
C231 C230 1.414 . S
C231 C232 1.374 . S
C232 H206 0.950 . S
C232 C228 1.385 . S
C232 C231 1.374 . S
C233 C230 1.499 . S
C233 C234 1.373 . S
C233 C235 1.389 1_545 S
C234 H207 0.950 . S
C234 C220 1.377 . S
C234 C233 1.373 . S
C235 C219 1.377 . S
C235 C233 1.389 1_565 S
C235 C236 1.524 . S
C236 C235 1.524 . S
C236 C237 1.397 . S
C236 C241 1.363 . S
C237 H208 0.950 . S
C237 C236 1.397 . S
C237 C238 1.334 . S
C238 H209 0.950 . S
C238 C237 1.334 . S
C238 C239 1.287 . S
C239 C238 1.287 . S
C239 C240 1.524 . S
C239 H242 0.999 . S
C240 H210 0.950 . S
C240 C239 1.524 . S
C240 C241 1.415 . S
C241 H211 0.950 . S
C241 C236 1.363 . S
C241 C240 1.415 . S
H242 C239 0.999 . S
H243 C224 0.913 . S
H244 C262 0.951 . S
H245 C264 0.951 . S
H246 C266 0.950 . S
H247 C267 0.950 . S
H248 C269 0.950 . S
H249 C272 0.950 1_455 S
H250 C273 0.950 . S
H251 C275 0.950 . S
H252 C276 0.950 . S
H253 C277 0.951 . S
H254 C279 0.951 . S
H255 C281 0.950 . S
H256 C282 0.950 . S
H257 C284 0.958 . S
H258 C287 0.950 . S
H259 C288 0.950 . S
H260 C290 0.950 . S
H261 C291 0.950 . S
C262 H244 0.951 . S
C262 C263 1.366 1_655 S
C262 C264 1.388 . S
C263 C262 1.366 1_455 S
C263 C267 1.385 . S
C264 H245 0.951 . S
C264 C262 1.388 . S
C264 C265 1.366 1_655 S
C265 C264 1.366 1_455 S
C265 C266 1.414 . S
C265 C268 1.499 . S
C266 H246 0.950 . S
C266 C265 1.414 . S
C266 C267 1.374 . S
C267 H247 0.950 . S
C267 C263 1.385 . S
C267 C266 1.374 . S
C268 C265 1.499 . S
C268 C269 1.373 . S
C268 C270 1.399 . S
C269 H248 0.950 . S
C269 C268 1.373 . S
C269 C285 1.377 . S
C270 C268 1.399 . S
C270 C271 1.515 1_455 S
C270 C284 1.377 1_455 S
C271 C270 1.515 1_655 S
C271 C272 1.397 . S
C271 C276 1.363 . S
C272 H249 0.950 1_655 S
C272 C271 1.397 . S
C272 C273 1.334 . S
C273 H250 0.950 . S
C273 C272 1.334 . S
C273 C274 1.287 . S
C274 C273 1.287 . S
C274 C275 1.524 . S
C274 H293 0.913 . S
C275 H251 0.950 . S
C275 C274 1.524 . S
C275 C276 1.415 . S
C276 H252 0.950 . S
C276 C271 1.363 . S
C276 C275 1.415 . S
C277 H253 0.951 . S
C277 C278 1.366 . S
C277 C279 1.388 . S
C278 C277 1.366 . S
C278 C282 1.385 1_455 S
C279 H254 0.951 . S
C279 C277 1.388 . S
C279 C280 1.366 . S
C280 C279 1.366 . S
C280 C281 1.414 1_455 S
C280 C283 1.499 . S
C281 H255 0.950 . S
C281 C280 1.414 1_655 S
C281 C282 1.374 . S
C282 H256 0.950 . S
C282 C278 1.385 1_655 S
C282 C281 1.374 . S
C283 C280 1.499 . S
C283 C284 1.365 1_455 S
C283 C285 1.389 . S
C284 H257 0.958 . S
C284 C270 1.377 1_655 S
C284 C283 1.365 1_655 S
C285 C269 1.377 . S
C285 C283 1.389 . S
C285 C286 1.524 . S
C286 C285 1.524 . S
C286 C287 1.397 . S
C286 C291 1.363 . S
C287 H258 0.950 . S
C287 C286 1.397 . S
C287 C288 1.334 . S
C288 H259 0.950 . S
C288 C287 1.334 . S
C288 C289 1.287 . S
C289 C288 1.287 . S
C289 C290 1.524 . S
C289 H292 0.999 . S
C290 H260 0.950 . S
C290 C289 1.524 . S
C290 C291 1.415 . S
C291 H261 0.950 . S
C291 C286 1.363 . S
C291 C290 1.415 . S
H292 C289 0.999 . S
H293 C274 0.913 . S
H294 C312 0.951 . S
H295 C314 0.951 . S
H296 C316 0.950 . S
H297 C317 0.950 . S
H298 C319 0.931 1_565 S
H299 C322 0.950 . S
H300 C323 0.950 . S
H301 C325 0.950 . S
H302 C326 0.950 . S
H303 C327 0.951 . S
H304 C329 0.951 . S
H305 C331 0.950 . S
H306 C332 0.950 . S
H307 C334 0.950 . S
H308 C337 0.950 . S
H309 C338 0.950 . S
H310 C340 0.950 . S
H311 C341 0.950 . S
C312 H294 0.951 . S
C312 C313 1.366 . S
C312 C314 1.388 . S
C313 C312 1.366 . S
C313 C317 1.385 . S
C314 H295 0.951 . S
C314 C312 1.388 . S
C314 C315 1.366 . S
C315 C314 1.366 . S
C315 C316 1.414 . S
C315 C318 1.499 . S
C316 H296 0.950 . S
C316 C315 1.414 . S
C316 C317 1.374 . S
C317 H297 0.950 . S
C317 C313 1.385 . S
C317 C316 1.374 . S
C318 C315 1.499 . S
C318 C319 1.394 . S
C318 C320 1.389 . S
C319 H298 0.931 1_545 S
C319 C318 1.394 . S
C319 C335 1.376 1_544 S
C320 C318 1.389 . S
C320 C321 1.524 . S
C320 C334 1.377 . S
C321 C320 1.524 . S
C321 C322 1.397 . S
C321 C326 1.363 . S
C322 H299 0.950 . S
C322 C321 1.397 . S
C322 C323 1.334 . S
C323 H300 0.950 . S
C323 C322 1.334 . S
C323 C324 1.287 . S
C324 C323 1.287 . S
C324 C325 1.524 . S
C324 H343 0.913 . S
C325 H301 0.950 . S
C325 C324 1.524 . S
C325 C326 1.415 . S
C326 H302 0.950 . S
C326 C321 1.363 . S
C326 C325 1.415 . S
C327 H303 0.951 . S
C327 C328 1.366 . S
C327 C329 1.388 . S
C328 C327 1.366 . S
C328 C332 1.385 . S
C329 H304 0.951 . S
C329 C327 1.388 . S
C329 C330 1.366 . S
C330 C329 1.366 . S
C330 C331 1.414 . S
C330 C333 1.499 . S
C331 H305 0.950 . S
C331 C330 1.414 . S
C331 C332 1.374 . S
C332 H306 0.950 . S
C332 C328 1.385 . S
C332 C331 1.374 . S
C333 C330 1.499 . S
C333 C334 1.373 1_556 S
C333 C335 1.389 1_545 S
C334 H307 0.950 . S
C334 C320 1.377 . S
C334 C333 1.373 1_554 S
C335 C319 1.376 1_566 S
C335 C333 1.389 1_565 S
C335 C336 1.524 . S
C336 C335 1.524 . S
C336 C337 1.397 . S
C336 C341 1.363 . S
C337 H308 0.950 . S
C337 C336 1.397 . S
C337 C338 1.334 . S
C338 H309 0.950 . S
C338 C337 1.334 . S
C338 C339 1.287 . S
C339 C338 1.287 . S
C339 C340 1.524 . S
C339 H342 0.999 . S
C340 H310 0.950 . S
C340 C339 1.524 . S
C340 C341 1.415 . S
C341 H311 0.950 . S
C341 C336 1.363 . S
C341 C340 1.415 . S
H342 C339 0.999 . S
H343 C324 0.913 . S
H344 C362 0.951 . S
H345 C364 0.951 . S
H346 C366 0.950 . S
H347 C367 0.950 . S
H348 C369 0.950 . S
H349 C372 0.950 . S
H350 C373 0.950 . S
H351 C375 0.950 . S
H352 C376 0.950 . S
H353 C377 0.951 . S
H354 C379 0.951 . S
H355 C381 0.950 . S
H356 C382 0.950 . S
H357 C384 0.950 . S
H358 C387 0.950 . S
H359 C388 0.950 . S
H360 C390 0.950 . S
H361 C391 0.950 . S
C362 H344 0.951 . S
C362 C363 1.366 . S
C362 C364 1.388 . S
C363 C362 1.366 . S
C363 C367 1.385 . S
C364 H345 0.951 . S
C364 C362 1.388 . S
C364 C365 1.366 . S
C365 C364 1.366 . S
C365 C366 1.414 . S
C365 C368 1.499 . S
C366 H346 0.950 . S
C366 C365 1.414 . S
C366 C367 1.374 . S
C367 H347 0.950 . S
C367 C363 1.385 . S
C367 C366 1.374 . S
C368 C365 1.499 . S
C368 C369 1.373 . S
C368 C370 1.389 . S
C369 H348 0.950 . S
C369 C368 1.373 . S
C369 C385 1.377 . S
C370 C368 1.389 . S
C370 C371 1.524 . S
C370 C384 1.377 . S
C371 C370 1.524 . S
C371 C372 1.397 . S
C371 C376 1.363 . S
C372 H349 0.950 . S
C372 C371 1.397 . S
C372 C373 1.334 . S
C373 H350 0.950 . S
C373 C372 1.334 . S
C373 C374 1.287 . S
C374 C373 1.287 . S
C374 C375 1.524 . S
C374 H393 0.913 . S
C375 H351 0.950 . S
C375 C374 1.524 . S
C375 C376 1.415 . S
C376 H352 0.950 . S
C376 C371 1.363 . S
C376 C375 1.415 . S
C377 H353 0.951 . S
C377 C378 1.366 . S
C377 C379 1.388 . S
C378 C377 1.366 . S
C378 C382 1.385 . S
C379 H354 0.951 . S
C379 C377 1.388 . S
C379 C380 1.366 . S
C380 C379 1.366 . S
C380 C381 1.414 . S
C380 C383 1.499 . S
C381 H355 0.950 . S
C381 C380 1.414 . S
C381 C382 1.374 . S
C382 H356 0.950 . S
C382 C378 1.385 . S
C382 C381 1.374 . S
C383 C380 1.499 . S
C383 C384 1.373 . S
C383 C385 1.389 . S
C384 H357 0.950 . S
C384 C370 1.377 . S
C384 C383 1.373 . S
C385 C369 1.377 . S
C385 C383 1.389 . S
C385 C386 1.524 . S
C386 C385 1.524 . S
C386 C387 1.397 . S
C386 C391 1.363 . S
C387 H358 0.950 . S
C387 C386 1.397 . S
C387 C388 1.334 1_554 S
C388 H359 0.950 . S
C388 C387 1.334 1_556 S
C388 C389 1.287 . S
C389 C388 1.287 . S
C389 C390 1.524 . S
C389 H392 0.999 . S
C390 H360 0.950 . S
C390 C389 1.524 . S
C390 C391 1.415 1_556 S
C391 H361 0.950 . S
C391 C386 1.363 . S
C391 C390 1.415 1_554 S
H392 C389 0.999 . S
H393 C374 0.913 . S
H394 C412 0.951 . S
H395 C414 0.951 . S
H396 C416 0.950 . S
H397 C417 0.950 . S
H398 C419 0.950 . S
H399 C422 0.950 . S
H400 C423 0.950 . S
H401 C425 0.950 . S
H402 C426 0.950 . S
H403 C427 0.951 . S
H404 C429 0.951 . S
H405 C431 0.950 . S
H406 C432 0.950 . S
H407 C434 0.950 . S
H408 C437 0.950 . S
H409 C438 0.950 . S
H410 C440 0.950 . S
H411 C441 0.950 . S
C412 H394 0.951 . S
C412 C413 1.366 . S
C412 C414 1.388 . S
C413 C412 1.366 . S
C413 C417 1.385 . S
C414 H395 0.951 . S
C414 C412 1.388 . S
C414 C415 1.366 . S
C415 C414 1.366 . S
C415 C416 1.414 . S
C415 C418 1.499 . S
C416 H396 0.950 . S
C416 C415 1.414 . S
C416 C417 1.374 . S
C417 H397 0.950 . S
C417 C413 1.385 . S
C417 C416 1.374 . S
C418 C415 1.499 . S
C418 C419 1.373 . S
C418 C420 1.389 . S
C419 H398 0.950 . S
C419 C418 1.373 . S
C419 C435 1.377 . S
C420 C418 1.389 . S
C420 C421 1.524 . S
C420 C434 1.377 . S
C421 C420 1.524 . S
C421 C422 1.397 . S
C421 C426 1.363 . S
C422 H399 0.950 . S
C422 C421 1.397 . S
C422 C423 1.334 . S
C423 H400 0.950 . S
C423 C422 1.334 . S
C423 C424 1.287 . S
C424 C423 1.287 . S
C424 C425 1.524 . S
C424 H443 0.913 . S
C425 H401 0.950 . S
C425 C424 1.524 . S
C425 C426 1.415 . S
C426 H402 0.950 . S
C426 C421 1.363 . S
C426 C425 1.415 . S
C427 H403 0.951 . S
C427 C428 1.366 . S
C427 C429 1.388 . S
C428 C427 1.366 . S
C428 C432 1.385 . S
C429 H404 0.951 . S
C429 C427 1.388 . S
C429 C430 1.366 . S
C430 C429 1.366 . S
C430 C431 1.414 . S
C430 C433 1.499 . S
C431 H405 0.950 . S
C431 C430 1.414 . S
C431 C432 1.374 . S
C432 H406 0.950 . S
C432 C428 1.385 . S
C432 C431 1.374 . S
C433 C430 1.499 . S
C433 C434 1.373 . S
C433 C435 1.389 . S
C434 H407 0.950 . S
C434 C420 1.377 . S
C434 C433 1.373 . S
C435 C419 1.377 . S
C435 C433 1.389 . S
C435 C436 1.524 . S
C436 C435 1.524 . S
C436 C437 1.397 . S
C436 C441 1.363 . S
C437 H408 0.950 . S
C437 C436 1.397 . S
C437 C438 1.334 . S
C438 H409 0.950 . S
C438 C437 1.334 . S
C438 C439 1.287 . S
C439 C438 1.287 . S
C439 C440 1.524 . S
C439 H442 0.999 . S
C440 H410 0.950 . S
C440 C439 1.524 . S
C440 C441 1.415 . S
C441 H411 0.950 . S
C441 C436 1.363 . S
C441 C440 1.415 . S
H442 C439 0.999 . S
H443 C424 0.913 . S
H444 C462 0.951 . S
H445 C464 0.951 . S
H446 C466 0.950 . S
H447 C467 0.950 . S
H448 C469 0.950 . S
H449 C472 0.950 . S
H450 C473 0.950 . S
H451 C475 0.950 . S
H452 C476 0.950 . S
H453 C477 0.951 . S
H454 C479 0.951 . S
H455 C481 0.950 . S
H456 C482 0.950 . S
H457 C484 0.950 . S
H458 C487 0.950 . S
H459 C488 0.950 . S
H460 C490 0.950 . S
H461 C491 0.950 . S
C462 H444 0.951 . S
C462 C463 1.366 . S
C462 C464 1.388 . S
C463 C462 1.366 . S
C463 C467 1.385 . S
C464 H445 0.951 . S
C464 C462 1.388 . S
C464 C465 1.366 . S
C465 C464 1.366 . S
C465 C466 1.414 . S
C465 C468 1.499 . S
C466 H446 0.950 . S
C466 C465 1.414 . S
C466 C467 1.374 . S
C467 H447 0.950 . S
C467 C463 1.385 . S
C467 C466 1.374 . S
C468 C465 1.499 . S
C468 C469 1.373 . S
C468 C470 1.389 . S
C469 H448 0.950 . S
C469 C468 1.373 . S
C469 C485 1.377 . S
C470 C468 1.389 . S
C470 C471 1.524 . S
C470 C484 1.377 . S
C471 C470 1.524 . S
C471 C472 1.397 . S
C471 C476 1.363 . S
C472 H449 0.950 . S
C472 C471 1.397 . S
C472 C473 1.334 . S
C473 H450 0.950 . S
C473 C472 1.334 . S
C473 C474 1.287 . S
C474 C473 1.287 . S
C474 C475 1.524 . S
C474 H493 0.913 . S
C475 H451 0.950 . S
C475 C474 1.524 . S
C475 C476 1.415 . S
C476 H452 0.950 . S
C476 C471 1.363 . S
C476 C475 1.415 . S
C477 H453 0.951 . S
C477 C478 1.366 . S
C477 C479 1.388 . S
C478 C477 1.366 . S
C478 C482 1.385 . S
C479 H454 0.951 . S
C479 C477 1.388 . S
C479 C480 1.366 . S
C480 C479 1.366 . S
C480 C481 1.414 . S
C480 C483 1.499 . S
C481 H455 0.950 . S
C481 C480 1.414 . S
C481 C482 1.374 . S
C482 H456 0.950 . S
C482 C478 1.385 . S
C482 C481 1.374 . S
C483 C480 1.499 . S
C483 C484 1.373 . S
C483 C485 1.389 . S
C484 H457 0.950 . S
C484 C470 1.377 . S
C484 C483 1.373 . S
C485 C469 1.377 . S
C485 C483 1.389 . S
C485 C486 1.524 . S
C486 C485 1.524 . S
C486 C487 1.397 . S
C486 C491 1.363 . S
C487 H458 0.950 . S
C487 C486 1.397 . S
C487 C488 1.334 . S
C488 H459 0.950 . S
C488 C487 1.334 . S
C488 C489 1.287 . S
C489 C488 1.287 . S
C489 C490 1.524 . S
C489 H492 0.999 . S
C490 H460 0.950 . S
C490 C489 1.524 . S
C490 C491 1.415 . S
C491 H461 0.950 . S
C491 C486 1.363 . S
C491 C490 1.415 . S
H492 C489 0.999 . S
H493 C474 0.913 . S
H494 C512 0.951 . S
H495 C514 0.951 . S
H496 C516 0.950 . S
H497 C517 0.950 . S
H498 C519 0.950 . S
H499 C522 0.950 . S
H500 C523 0.950 . S
H501 C525 0.950 . S
H502 C526 0.950 . S
H503 C527 0.951 1_554 S
H504 C529 0.951 . S
H505 C531 0.950 . S
H506 C532 0.950 . S
H507 C534 0.950 . S
H508 C537 0.950 . S
H509 C538 0.950 . S
H510 C540 0.950 1_554 S
H511 C541 0.950 . S
C512 H494 0.951 . S
C512 C513 1.366 . S
C512 C514 1.388 . S
C513 C512 1.366 . S
C513 C517 1.385 . S
C514 H495 0.951 . S
C514 C512 1.388 . S
C514 C515 1.366 . S
C515 C514 1.366 . S
C515 C516 1.414 . S
C515 C518 1.499 . S
C516 H496 0.950 . S
C516 C515 1.414 . S
C516 C517 1.374 . S
C517 H497 0.950 . S
C517 C513 1.385 . S
C517 C516 1.374 . S
C518 C515 1.499 . S
C518 C519 1.373 . S
C518 C520 1.389 . S
C519 H498 0.950 . S
C519 C518 1.373 . S
C519 C535 1.377 . S
C520 C518 1.389 . S
C520 C521 1.524 . S
C520 C534 1.377 . S
C521 C520 1.524 . S
C521 C522 1.397 . S
C521 C526 1.363 . S
C522 H499 0.950 . S
C522 C521 1.397 . S
C522 C523 1.334 . S
C523 H500 0.950 . S
C523 C522 1.334 . S
C523 C524 1.287 . S
C524 C523 1.287 . S
C524 C525 1.524 . S
C524 H543 0.913 . S
C525 H501 0.950 . S
C525 C524 1.524 . S
C525 C526 1.415 . S
C526 H502 0.950 . S
C526 C521 1.363 . S
C526 C525 1.415 . S
C527 H503 0.951 1_556 S
C527 C528 1.366 . S
C527 C529 1.388 . S
C528 C527 1.366 . S
C528 C532 1.385 . S
C529 H504 0.951 . S
C529 C527 1.388 . S
C529 C530 1.366 . S
C530 C529 1.366 . S
C530 C531 1.414 . S
C530 C533 1.499 . S
C531 H505 0.950 . S
C531 C530 1.414 . S
C531 C532 1.374 . S
C532 H506 0.950 . S
C532 C528 1.385 . S
C532 C531 1.374 . S
C533 C530 1.499 . S
C533 C534 1.373 . S
C533 C535 1.389 . S
C534 H507 0.950 . S
C534 C520 1.377 . S
C534 C533 1.373 . S
C535 C519 1.377 . S
C535 C533 1.389 . S
C535 C536 1.524 . S
C536 C535 1.524 . S
C536 C537 1.397 . S
C536 C541 1.363 . S
C537 H508 0.950 . S
C537 C536 1.397 . S
C537 C538 1.334 . S
C538 H509 0.950 . S
C538 C537 1.334 . S
C538 C539 1.287 . S
C539 C538 1.287 . S
C539 C540 1.524 . S
C539 H542 0.999 . S
C540 H510 0.950 1_556 S
C540 C539 1.524 . S
C540 C541 1.415 . S
C541 H511 0.950 . S
C541 C536 1.363 . S
C541 C540 1.415 . S
H542 C539 0.999 . S
H543 C524 0.913 . S
C163 C3 1.320 . S
C178 C75 1.320 . S
C213 C38 1.253 . S
C228 C110 1.249 . S
C263 C2 1.253 . S
C278 C74 1.249 . S
C313 C39 1.321 . S
C328 C111 1.320 . S
C363 C50 1.401 . S
C378 C14 1.401 . S
C413 C40 1.462 . S
C428 C86 1.440 . S
C463 C112 1.493 . S
C478 C76 1.493 . S
C513 C122 1.439 . S
C528 C4 1.462 . S
